Brc1cc(cnc1)C(OCC1CC2(OC)C(N(C1)C)Cc1c3c2cccc3n(c1)C)=O
  MOE2013           2D

 31 35  0  0  1  0  0  0  0  0999 V2000
    0.0000    0.0000    0.0000 Br  0  0  0  0  0  0  0  0  0  0  0  0
   -1.3050    0.7390    0.0000 C   0  0  0  0  0  0  0  0  0  0  0  0
   -2.5980   -0.0220    0.0000 C   0  0  0  0  0  0  0  0  0  0  0  0
   -3.9030    0.7170    0.0000 C   0  0  0  0  0  0  0  0  0  0  0  0
   -3.9160    2.2160    0.0000 C   0  0  0  0  0  0  0  0  0  0  0  0
   -2.6240    2.9780    0.0000 N   0  0  0  0  0  0  0  0  0  0  0  0
   -1.3180    2.2390    0.0000 C   0  0  0  0  0  0  0  0  0  0  0  0
   -5.1960   -0.0450    0.0000 C   0  0  0  0  0  0  0  0  0  0  0  0
   -6.5010    0.6940    0.0000 O   0  0  0  0  0  0  0  0  0  0  0  0
   -7.7940   -0.0670    0.0000 C   0  0  0  0  0  0  0  0  0  0  0  0
   -9.0990    0.6720    0.0000 C   0  0  3  0  0  0  0  0  0  0  0  0
  -10.3920   -0.0890    0.0000 C   0  0  0  0  0  0  0  0  0  0  0  0
  -11.7060    0.6820    0.0000 C   0  0  3  0  0  0  0  0  0  0  0  0
  -11.7030   -0.8180    0.0000 O   0  0  0  0  0  0  0  0  0  0  0  0
  -10.4030   -1.5660    0.0000 C   0  0  0  0  0  0  0  0  0  0  0  0
  -11.7020    2.1450    0.0000 C   0  0  3  0  0  0  0  0  0  0  0  0
  -10.4180    2.9110    0.0000 N   0  0  3  0  0  0  0  0  0  0  0  0
   -9.1120    2.1720    0.0000 C   0  0  0  0  0  0  0  0  0  0  0  0
  -10.4340    4.4110    0.0000 C   0  0  0  0  0  0  0  0  0  0  0  0
  -12.9760    2.8780    0.0000 C   0  0  0  0  0  0  0  0  0  0  0  0
  -14.2510    2.1390    0.0000 C   0  0  0  0  0  0  0  0  0  0  0  0
  -14.2430    0.6720    0.0000 C   0  0  0  0  0  0  0  0  0  0  0  0
  -12.9690   -0.0560    0.0000 C   0  0  0  0  0  0  0  0  0  0  0  0
  -12.9710   -1.5210    0.0000 C   0  0  0  0  0  0  0  0  0  0  0  0
  -14.2340   -2.2590    0.0000 C   0  0  0  0  0  0  0  0  0  0  0  0
  -15.5060   -1.5290    0.0000 C   0  0  0  0  0  0  0  0  0  0  0  0
  -15.5140   -0.0650    0.0000 C   0  0  0  0  0  0  0  0  0  0  0  0
  -16.6440    0.9160    0.0000 N   0  0  0  0  0  0  0  0  0  0  0  0
  -15.7080    2.5300    0.0000 C   0  0  0  0  0  0  0  0  0  0  0  0
  -18.1230    0.6700    0.0000 C   0  0  0  0  0  0  0  0  0  0  0  0
   -5.1830   -1.5450    0.0000 O   0  0  0  0  0  0  0  0  0  0  0  0
  1  2  1  0  0  0  0
  2  3  1  0  0  0  0
  2  7  2  0  0  0  0
  3  4  2  0  0  0  0
  4  5  1  0  0  0  0
  4  8  1  0  0  0  0
  5  6  2  0  0  0  0
  6  7  1  0  0  0  0
  8  9  1  0  0  0  0
  8 31  2  0  0  0  0
  9 10  1  0  0  0  0
 10 11  1  0  0  0  0
 11 12  1  0  0  0  0
 11 18  1  0  0  0  0
 12 13  1  0  0  0  0
 13 14  1  0  0  0  0
 13 16  1  0  0  0  0
 13 23  1  0  0  0  0
 14 15  1  0  0  0  0
 16 17  1  0  0  0  0
 16 20  1  0  0  0  0
 17 18  1  0  0  0  0
 17 19  1  0  0  0  0
 20 21  1  0  0  0  0
 21 22  1  0  0  0  0
 21 29  2  0  0  0  0
 22 23  1  0  0  0  0
 22 27  2  0  0  0  0
 23 24  2  0  0  0  0
 24 25  1  0  0  0  0
 25 26  2  0  0  0  0
 26 27  1  0  0  0  0
 27 28  1  0  0  0  0
 28 29  1  0  0  0  0
 28 30  1  0  0  0  0
M  END
>  <Index>
762

>  <ID>
HT1484

>  <class>
0

>  <apol>
68.332619

>  <ast_fraglike>
0

>  <ast_fraglike_ext>
0

>  <ast_violation>
3

>  <ast_violation_ext>
4

>  <a_acc>
4

>  <a_acid>
0

>  <a_aro>
15

>  <a_base>
0

>  <a_count>
57

>  <a_don>
0

>  <a_donacc>
4

>  <a_heavy>
31

>  <a_hyd>
24

>  <a_IC>
90.714424

>  <a_ICM>
1.5914811

>  <a_nB>
0

>  <a_nBr>
1

>  <a_nC>
24

>  <a_nCl>
0

>  <a_nF>
0

>  <a_nH>
26

>  <a_nI>
0

>  <a_nN>
3

>  <a_nO>
3

>  <a_nP>
0

>  <a_nS>
0

>  <balabanJ>
1.2931176

>  <BCUT_PEOE_0>
-2.8368869

>  <BCUT_PEOE_1>
-0.56070566

>  <BCUT_PEOE_2>
0.57632482

>  <BCUT_PEOE_3>
2.8159282

>  <BCUT_SLOGP_0>
-2.8705709

>  <BCUT_SLOGP_1>
-0.32543978

>  <BCUT_SLOGP_2>
0.6764878

>  <BCUT_SLOGP_3>
2.8293624

>  <BCUT_SMR_0>
-2.5829287

>  <BCUT_SMR_1>
-0.26640931

>  <BCUT_SMR_2>
0.7454747

>  <BCUT_SMR_3>
3.0649335

>  <bpol>
39.783382

>  <b_1rotN>
4

>  <b_1rotR>
0.11428571

>  <b_ar>
16

>  <b_count>
61

>  <b_double>
1

>  <b_heavy>
35

>  <b_max1len>
3

>  <b_rotN>
5

>  <b_rotR>
0.14285715

>  <b_single>
44

>  <b_triple>
0

>  <chi0>
21.750347

>  <chi0v>
19.554926

>  <chi0v_C>
15.02458

>  <chi0_C>
16.474327

>  <chi1>
14.924689

>  <chi1v>
11.324501

>  <chi1v_C>
6.5661678

>  <chi1_C>
8.1632166

>  <chiral>
3

>  <chiral_u>
3

>  <density>
0.81816047

>  <diameter>
14

>  <FCharge>
0

>  <GCUT_PEOE_0>
-0.87342119

>  <GCUT_PEOE_1>
-0.3789939

>  <GCUT_PEOE_2>
-0.0052227089

>  <GCUT_PEOE_3>
3.0685914

>  <GCUT_SLOGP_0>
-0.95522511

>  <GCUT_SLOGP_1>
-0.2698034

>  <GCUT_SLOGP_2>
0.098238356

>  <GCUT_SLOGP_3>
3.1282828

>  <GCUT_SMR_0>
-0.52429843

>  <GCUT_SMR_1>
-0.14578553

>  <GCUT_SMR_2>
0.15074392

>  <GCUT_SMR_3>
3.3274028

>  <Kier1>
22.775511

>  <Kier2>
8.9818439

>  <Kier3>
3.9669421

>  <KierA1>
19.457504

>  <KierA2>
7.6311088

>  <KierA3>
3.3567877

>  <KierFlex>
4.7897525

>  <lip_acc>
6

>  <lip_don>
0

>  <lip_druglike>
1

>  <lip_violation>
0

>  <logP(o/w)>
4.3779998

>  <logS>
-4.2020102

>  <mr>
12.34001

>  <mutagenic>
0

>  <nmol>
1

>  <opr_brigid>
25

>  <opr_leadlike>
0

>  <opr_nring>
5

>  <opr_nrot>
4

>  <opr_violation>
3

>  <PC+>
0

>  <PC->
0

>  <PEOE_PC+>
2.1405926

>  <PEOE_PC->
-2.1405926

>  <PEOE_RPC+>
0.1379627

>  <PEOE_RPC->
0.17302015

>  <PEOE_VSA+0>
185.68808

>  <PEOE_VSA+1>
68.344467

>  <PEOE_VSA+2>
0

>  <PEOE_VSA+3>
0

>  <PEOE_VSA+4>
0

>  <PEOE_VSA+5>
14.708499

>  <PEOE_VSA+6>
0

>  <PEOE_VSA-0>
113.19305

>  <PEOE_VSA-1>
24.509808

>  <PEOE_VSA-2>
0

>  <PEOE_VSA-3>
0

>  <PEOE_VSA-4>
0

>  <PEOE_VSA-5>
19.249496

>  <PEOE_VSA-6>
5.0075121

>  <PEOE_VSA_FHYD>
0.90952998

>  <PEOE_VSA_FNEG>
0.3760379

>  <PEOE_VSA_FPNEG>
0.056319848

>  <PEOE_VSA_FPOL>
0.090469994

>  <PEOE_VSA_FPOS>
0.6239621

>  <PEOE_VSA_FPPOS>
0.034150146

>  <PEOE_VSA_HYD>
391.73541

>  <PEOE_VSA_NEG>
161.95987

>  <PEOE_VSA_PNEG>
24.25701

>  <PEOE_VSA_POL>
38.965508

>  <PEOE_VSA_POS>
268.74106

>  <PEOE_VSA_PPOS>
14.708499

>  <petitjean>
0.5

>  <petitjeanSC>
1

>  <Q_PC+>
0

>  <Q_PC->
0

>  <Q_RPC+>
0

>  <Q_RPC->
0

>  <Q_VSA_FHYD>
1

>  <Q_VSA_FNEG>
0

>  <Q_VSA_FPNEG>
0

>  <Q_VSA_FPOL>
0

>  <Q_VSA_FPOS>
1

>  <Q_VSA_FPPOS>
0

>  <Q_VSA_HYD>
430.70093

>  <Q_VSA_NEG>
0

>  <Q_VSA_PNEG>
0

>  <Q_VSA_POL>
0

>  <Q_VSA_POS>
430.70093

>  <Q_VSA_PPOS>
0

>  <radius>
7

>  <reactive>
0

>  <rings>
5

>  <RPC+>
0

>  <RPC->
0

>  <rsynth>
0.38709676

>  <SlogP>
4.5815701

>  <SlogP_VSA0>
0

>  <SlogP_VSA1>
29.554399

>  <SlogP_VSA2>
25.981745

>  <SlogP_VSA3>
39.365837

>  <SlogP_VSA4>
37.829739

>  <SlogP_VSA5>
90.204567

>  <SlogP_VSA6>
0

>  <SlogP_VSA7>
126.93291

>  <SlogP_VSA8>
18.868406

>  <SlogP_VSA9>
78.85128

>  <SMR>
12.24525

>  <SMR_VSA0>
45.861992

>  <SMR_VSA1>
21.808937

>  <SMR_VSA2>
7.4659004

>  <SMR_VSA3>
13.538693

>  <SMR_VSA4>
4.7171016

>  <SMR_VSA5>
159.95262

>  <SMR_VSA6>
47.111301

>  <SMR_VSA7>
147.13234

>  <TPSA>
56.59

>  <VAdjEq>
0.37643659

>  <VAdjMa>
6.129283

>  <VDistEq>
3.575803

>  <VDistMa>
9.6141195

>  <vdw_area>
430.70093

>  <vdw_vol>
592.05255

>  <vsa_acc>
21.753254

>  <vsa_acid>
0

>  <vsa_base>
0

>  <vsa_don>
0

>  <vsa_hyd>
371.88367

>  <vsa_other>
17.212255

>  <vsa_pol>
21.753254

>  <Weight>
484.39398

>  <weinerPath>
2625

>  <weinerPol>
60

>  <zagreb>
176

$$$$