Clc1ccccc1C(C(Cl)Cl)c1ccc(Cl)cc1
  MOE2013           2D

 18 19  0  0  1  0  0  0  0  0999 V2000
    0.0000    0.0000    0.0000 Cl  0  0  0  0  0  0  0  0  0  0  0  0
    0.7550    1.2960    0.0000 C   0  0  0  0  0  0  0  0  0  0  0  0
    0.0100    2.5980    0.0000 C   0  0  0  0  0  0  0  0  0  0  0  0
    0.7640    3.8940    0.0000 C   0  0  0  0  0  0  0  0  0  0  0  0
    2.2640    3.8890    0.0000 C   0  0  0  0  0  0  0  0  0  0  0  0
    3.0090    2.5870    0.0000 C   0  0  0  0  0  0  0  0  0  0  0  0
    2.2550    1.2910    0.0000 C   0  0  0  0  0  0  0  0  0  0  0  0
    3.0000   -0.0110    0.0000 C   0  0  3  0  0  0  0  0  0  0  0  0
    2.2450   -1.3070    0.0000 C   0  0  0  0  0  0  0  0  0  0  0  0
    0.7450   -1.3020    0.0000 Cl  0  0  0  0  0  0  0  0  0  0  0  0
    2.9900   -2.6090    0.0000 Cl  0  0  0  0  0  0  0  0  0  0  0  0
    4.5000   -0.0160    0.0000 C   0  0  0  0  0  0  0  0  0  0  0  0
    5.2450   -1.3180    0.0000 C   0  0  0  0  0  0  0  0  0  0  0  0
    6.7450   -1.3240    0.0000 C   0  0  0  0  0  0  0  0  0  0  0  0
    7.5000   -0.0270    0.0000 C   0  0  0  0  0  0  0  0  0  0  0  0
    9.0000   -0.0330    0.0000 Cl  0  0  0  0  0  0  0  0  0  0  0  0
    6.7550    1.2740    0.0000 C   0  0  0  0  0  0  0  0  0  0  0  0
    5.2550    1.2800    0.0000 C   0  0  0  0  0  0  0  0  0  0  0  0
  1  2  1  0  0  0  0
  2  3  1  0  0  0  0
  2  7  2  0  0  0  0
  3  4  2  0  0  0  0
  4  5  1  0  0  0  0
  5  6  2  0  0  0  0
  6  7  1  0  0  0  0
  7  8  1  0  0  0  0
  8  9  1  0  0  0  0
  8 12  1  0  0  0  0
  9 10  1  0  0  0  0
  9 11  1  0  0  0  0
 12 13  1  0  0  0  0
 12 18  2  0  0  0  0
 13 14  2  0  0  0  0
 14 15  1  0  0  0  0
 15 16  1  0  0  0  0
 15 17  2  0  0  0  0
 17 18  1  0  0  0  0
M  END
>  <Index>
724

>  <ID>
HT1417

>  <class>
0

>  <apol>
40.027931

>  <ast_fraglike>
0

>  <ast_fraglike_ext>
0

>  <ast_violation>
2

>  <ast_violation_ext>
2

>  <a_acc>
0

>  <a_acid>
0

>  <a_aro>
12

>  <a_base>
0

>  <a_count>
28

>  <a_don>
0

>  <a_donacc>
0

>  <a_heavy>
18

>  <a_hyd>
17

>  <a_IC>
40.083687

>  <a_ICM>
1.4315603

>  <a_nB>
0

>  <a_nBr>
0

>  <a_nC>
14

>  <a_nCl>
4

>  <a_nF>
0

>  <a_nH>
10

>  <a_nI>
0

>  <a_nN>
0

>  <a_nO>
0

>  <a_nP>
0

>  <a_nS>
0

>  <balabanJ>
2.0360348

>  <BCUT_PEOE_0>
-2.4405758

>  <BCUT_PEOE_1>
-0.64547026

>  <BCUT_PEOE_2>
0.6835466

>  <BCUT_PEOE_3>
2.4797659

>  <BCUT_SLOGP_0>
-2.3601854

>  <BCUT_SLOGP_1>
-0.45903358

>  <BCUT_SLOGP_2>
0.84891909

>  <BCUT_SLOGP_3>
2.5839441

>  <BCUT_SMR_0>
-2.1612406

>  <BCUT_SMR_1>
-0.4325223

>  <BCUT_SMR_2>
0.86267155

>  <BCUT_SMR_3>
2.7630904

>  <bpol>
12.61207

>  <b_1rotN>
3

>  <b_1rotR>
0.15789473

>  <b_ar>
12

>  <b_count>
29

>  <b_double>
0

>  <b_heavy>
19

>  <b_max1len>
3

>  <b_rotN>
3

>  <b_rotR>
0.15789473

>  <b_single>
17

>  <b_triple>
0

>  <chi0>
13.120955

>  <chi0v>
12.309076

>  <chi0v_C>
7.7735028

>  <chi0_C>
9.1209555

>  <chi1>
8.5922241

>  <chi1v>
7.0026016

>  <chi1v_C>
4.559401

>  <chi1_C>
6.2828231

>  <chiral>
1

>  <chiral_u>
1

>  <density>
0.89767945

>  <diameter>
9

>  <FCharge>
0

>  <GCUT_PEOE_0>
-0.74619693

>  <GCUT_PEOE_1>
-0.38495815

>  <GCUT_PEOE_2>
0.064936809

>  <GCUT_PEOE_3>
2.4012132

>  <GCUT_SLOGP_0>
-0.7387231

>  <GCUT_SLOGP_1>
-0.22264624

>  <GCUT_SLOGP_2>
0.35280174

>  <GCUT_SLOGP_3>
2.5827045

>  <GCUT_SMR_0>
-0.46916944

>  <GCUT_SMR_1>
-0.1839413

>  <GCUT_SMR_2>
0.36882815

>  <GCUT_SMR_3>
2.7148116

>  <Kier1>
14.409972

>  <Kier2>
6.43787

>  <Kier3>
3.5261707

>  <KierA1>
15.077755

>  <KierA2>
6.7547998

>  <KierA3>
3.7072911

>  <KierFlex>
5.6581788

>  <lip_acc>
0

>  <lip_don>
0

>  <lip_druglike>
1

>  <lip_violation>
1

>  <logP(o/w)>
6.0953598

>  <logS>
-5.9422402

>  <mr>
7.9906526

>  <mutagenic>
1

>  <nmol>
1

>  <opr_brigid>
12

>  <opr_leadlike>
1

>  <opr_nring>
2

>  <opr_nrot>
3

>  <opr_violation>
1

>  <PC+>
0

>  <PC->
0

>  <PEOE_PC+>
0.85104311

>  <PEOE_PC->
-0.85104311

>  <PEOE_RPC+>
0.13931923

>  <PEOE_RPC->
0.12172914

>  <PEOE_VSA+0>
13.304879

>  <PEOE_VSA+1>
38.388474

>  <PEOE_VSA+2>
3.2773626

>  <PEOE_VSA+3>
0

>  <PEOE_VSA+4>
0

>  <PEOE_VSA+5>
0

>  <PEOE_VSA+6>
0

>  <PEOE_VSA-0>
41.181789

>  <PEOE_VSA-1>
120.43842

>  <PEOE_VSA-2>
59.163895

>  <PEOE_VSA-3>
0

>  <PEOE_VSA-4>
0

>  <PEOE_VSA-5>
0

>  <PEOE_VSA-6>
0

>  <PEOE_VSA_FHYD>
1

>  <PEOE_VSA_FNEG>
0.80065364

>  <PEOE_VSA_FPNEG>
0

>  <PEOE_VSA_FPOL>
0

>  <PEOE_VSA_FPOS>
0.19934635

>  <PEOE_VSA_FPPOS>
0

>  <PEOE_VSA_HYD>
275.75482

>  <PEOE_VSA_NEG>
220.7841

>  <PEOE_VSA_PNEG>
0

>  <PEOE_VSA_POL>
0

>  <PEOE_VSA_POS>
54.970715

>  <PEOE_VSA_PPOS>
0

>  <petitjean>
0.44444445

>  <petitjeanSC>
0.80000001

>  <Q_PC+>
0

>  <Q_PC->
0

>  <Q_RPC+>
0

>  <Q_RPC->
0

>  <Q_VSA_FHYD>
1

>  <Q_VSA_FNEG>
0

>  <Q_VSA_FPNEG>
0

>  <Q_VSA_FPOL>
0

>  <Q_VSA_FPOS>
1

>  <Q_VSA_FPPOS>
0

>  <Q_VSA_HYD>
275.75482

>  <Q_VSA_NEG>
0

>  <Q_VSA_PNEG>
0

>  <Q_VSA_POL>
0

>  <Q_VSA_POS>
275.75482

>  <Q_VSA_PPOS>
0

>  <radius>
5

>  <reactive>
1

>  <rings>
2

>  <RPC+>
0

>  <RPC->
0

>  <rsynth>
1

>  <SlogP>
5.9289999

>  <SlogP_VSA0>
0

>  <SlogP_VSA1>
0

>  <SlogP_VSA2>
5.0408592

>  <SlogP_VSA3>
0

>  <SlogP_VSA4>
6.37115

>  <SlogP_VSA5>
0

>  <SlogP_VSA6>
11.412009

>  <SlogP_VSA7>
141.14548

>  <SlogP_VSA8>
0

>  <SlogP_VSA9>
156.59457

>  <SMR>
8.0241003

>  <SMR_VSA0>
0

>  <SMR_VSA1>
0

>  <SMR_VSA2>
0

>  <SMR_VSA3>
22.824018

>  <SMR_VSA4>
0

>  <SMR_VSA5>
141.14548

>  <SMR_VSA6>
0

>  <SMR_VSA7>
156.59457

>  <TPSA>
0

>  <VAdjEq>
0.52150291

>  <VAdjMa>
5.2479277

>  <VDistEq>
2.8773801

>  <VDistMa>
8.0685005

>  <vdw_area>
275.75482

>  <vdw_vol>
356.52591

>  <vsa_acc>
0

>  <vsa_acid>
0

>  <vsa_base>
0

>  <vsa_don>
0

>  <vsa_hyd>
260.46085

>  <vsa_other>
6.8309531

>  <vsa_pol>
0

>  <Weight>
320.04599

>  <weinerPath>
581

>  <weinerPol>
27

>  <zagreb>
90

$$$$