OC(C(NC(=O)C)C=O)C(O)C(O)CO
  MOE2013           2D

 15 14  0  0  1  0  0  0  0  0999 V2000
    0.0000    0.0000    0.0000 O   0  0  0  0  0  0  0  0  0  0  0  0
    0.0060   -1.5000    0.0000 C   0  0  3  0  0  0  0  0  0  0  0  0
   -1.2900   -2.2550    0.0000 C   0  0  3  0  0  0  0  0  0  0  0  0
   -1.2840   -3.7550    0.0000 N   0  0  0  0  0  0  0  0  0  0  0  0
   -2.5800   -4.5100    0.0000 C   0  0  0  0  0  0  0  0  0  0  0  0
   -2.5740   -6.0100    0.0000 O   0  0  0  0  0  0  0  0  0  0  0  0
   -3.8820   -3.7650    0.0000 C   0  0  0  0  0  0  0  0  0  0  0  0
   -2.5920   -1.5100    0.0000 C   0  0  0  0  0  0  0  0  0  0  0  0
   -2.5980   -0.0100    0.0000 O   0  0  0  0  0  0  0  0  0  0  0  0
    1.3080   -2.2450    0.0000 C   0  0  3  0  0  0  0  0  0  0  0  0
    1.3140   -3.7450    0.0000 O   0  0  0  0  0  0  0  0  0  0  0  0
    2.6040   -1.4900    0.0000 C   0  0  3  0  0  0  0  0  0  0  0  0
    2.5980    0.0100    0.0000 O   0  0  0  0  0  0  0  0  0  0  0  0
    3.9060   -2.2350    0.0000 C   0  0  0  0  0  0  0  0  0  0  0  0
    5.2020   -1.4800    0.0000 O   0  0  0  0  0  0  0  0  0  0  0  0
  1  2  1  0  0  0  0
  2  3  1  0  0  0  0
  2 10  1  0  0  0  0
  3  4  1  0  0  0  0
  3  8  1  0  0  0  0
  4  5  1  0  0  0  0
  5  6  2  0  0  0  0
  5  7  1  0  0  0  0
  8  9  2  0  0  0  0
 10 11  1  0  0  0  0
 10 12  1  0  0  0  0
 12 13  1  0  0  0  0
 12 14  1  0  0  0  0
 14 15  1  0  0  0  0
M  END
>  <Index>
738

>  <ID>
HT1448

>  <class>
0

>  <apol>
29.993895

>  <ast_fraglike>
0

>  <ast_fraglike_ext>
0

>  <ast_violation>
2

>  <ast_violation_ext>
4

>  <a_acc>
6

>  <a_acid>
0

>  <a_aro>
0

>  <a_base>
0

>  <a_count>
30

>  <a_don>
5

>  <a_donacc>
11

>  <a_heavy>
15

>  <a_hyd>
6

>  <a_IC>
49.093582

>  <a_ICM>
1.6364528

>  <a_nB>
0

>  <a_nBr>
0

>  <a_nC>
8

>  <a_nCl>
0

>  <a_nF>
0

>  <a_nH>
15

>  <a_nI>
0

>  <a_nN>
1

>  <a_nO>
6

>  <a_nP>
0

>  <a_nS>
0

>  <balabanJ>
4.3011255

>  <BCUT_PEOE_0>
-2.6338584

>  <BCUT_PEOE_1>
-0.58354032

>  <BCUT_PEOE_2>
0.64898139

>  <BCUT_PEOE_3>
2.6992204

>  <BCUT_SLOGP_0>
-2.8677573

>  <BCUT_SLOGP_1>
-0.67415899

>  <BCUT_SLOGP_2>
0.50049281

>  <BCUT_SLOGP_3>
2.4701085

>  <BCUT_SMR_0>
-2.4232101

>  <BCUT_SMR_1>
-0.44380128

>  <BCUT_SMR_2>
0.73105526

>  <BCUT_SMR_3>
2.897568

>  <bpol>
18.974106

>  <b_1rotN>
6

>  <b_1rotR>
0.42857143

>  <b_ar>
0

>  <b_count>
29

>  <b_double>
2

>  <b_heavy>
14

>  <b_max1len>
8

>  <b_rotN>
7

>  <b_rotR>
0.5

>  <b_single>
27

>  <b_triple>
0

>  <chi0>
12.008072

>  <chi0v>
8.1992092

>  <chi0v_C>
5.0938582

>  <chi0_C>
5.3009648

>  <chi1>
6.9339581

>  <chi1v>
4.3109074

>  <chi1v_C>
2.2415817

>  <chi1_C>
2.3938468

>  <chiral>
4

>  <chiral_u>
4

>  <density>
0.84410578

>  <diameter>
8

>  <FCharge>
0

>  <GCUT_PEOE_0>
-0.81658506

>  <GCUT_PEOE_1>
-0.42940477

>  <GCUT_PEOE_2>
0.1310785

>  <GCUT_PEOE_3>
2.4540687

>  <GCUT_SLOGP_0>
-1.1631452

>  <GCUT_SLOGP_1>
-0.50907892

>  <GCUT_SLOGP_2>
-0.0035755301

>  <GCUT_SLOGP_3>
2.2782481

>  <GCUT_SMR_0>
-0.52590585

>  <GCUT_SMR_1>
-0.25349936

>  <GCUT_SMR_2>
0.20227113

>  <GCUT_SMR_3>
2.6529725

>  <Kier1>
15

>  <Kier2>
7.3024693

>  <Kier3>
5.04

>  <KierA1>
12.707746

>  <KierA2>
6.1075602

>  <KierA3>
4.1711841

>  <KierFlex>
5.1742215

>  <lip_acc>
7

>  <lip_don>
5

>  <lip_druglike>
1

>  <lip_violation>
0

>  <logP(o/w)>
-2.994

>  <logS>
1.00714

>  <mr>
5.0092096

>  <mutagenic>
0

>  <nmol>
1

>  <opr_brigid>
0

>  <opr_leadlike>
1

>  <opr_nring>
0

>  <opr_nrot>
6

>  <opr_violation>
0

>  <PC+>
0

>  <PC->
0

>  <PEOE_PC+>
2.4691141

>  <PEOE_PC->
-2.4691141

>  <PEOE_RPC+>
0.088478453

>  <PEOE_RPC->
0.15891373

>  <PEOE_VSA+0>
31.543835

>  <PEOE_VSA+1>
40.54361

>  <PEOE_VSA+2>
40.631016

>  <PEOE_VSA+3>
8.6190128

>  <PEOE_VSA+4>
54.246223

>  <PEOE_VSA+5>
0

>  <PEOE_VSA+6>
0

>  <PEOE_VSA-0>
0

>  <PEOE_VSA-1>
0

>  <PEOE_VSA-2>
0

>  <PEOE_VSA-3>
0

>  <PEOE_VSA-4>
0

>  <PEOE_VSA-5>
27.133842

>  <PEOE_VSA-6>
31.207052

>  <PEOE_VSA_FHYD>
0.5187034

>  <PEOE_VSA_FNEG>
0.24940044

>  <PEOE_VSA_FPNEG>
0.24940044

>  <PEOE_VSA_FPOL>
0.48129663

>  <PEOE_VSA_FPOS>
0.75059956

>  <PEOE_VSA_FPPOS>
0.23189619

>  <PEOE_VSA_HYD>
121.33747

>  <PEOE_VSA_NEG>
58.340893

>  <PEOE_VSA_PNEG>
58.340893

>  <PEOE_VSA_POL>
112.58711

>  <PEOE_VSA_POS>
175.58369

>  <PEOE_VSA_PPOS>
54.246223

>  <petitjean>
0.5

>  <petitjeanSC>
1

>  <Q_PC+>
0

>  <Q_PC->
0

>  <Q_RPC+>
0

>  <Q_RPC->
0

>  <Q_VSA_FHYD>
1

>  <Q_VSA_FNEG>
0

>  <Q_VSA_FPNEG>
0

>  <Q_VSA_FPOL>
0

>  <Q_VSA_FPOS>
1

>  <Q_VSA_FPPOS>
0

>  <Q_VSA_HYD>
233.92459

>  <Q_VSA_NEG>
0

>  <Q_VSA_PNEG>
0

>  <Q_VSA_POL>
0

>  <Q_VSA_POS>
233.92459

>  <Q_VSA_PPOS>
0

>  <radius>
4

>  <reactive>
1

>  <rings>
0

>  <RPC+>
0

>  <RPC->
0

>  <rsynth>
1

>  <SlogP>
-3.2349999

>  <SlogP_VSA0>
119.55166

>  <SlogP_VSA1>
5.2587838

>  <SlogP_VSA2>
91.257568

>  <SlogP_VSA3>
20.926258

>  <SlogP_VSA4>
0

>  <SlogP_VSA5>
0

>  <SlogP_VSA6>
0

>  <SlogP_VSA7>
0

>  <SlogP_VSA8>
0

>  <SlogP_VSA9>
33.326015

>  <SMR>
4.87749

>  <SMR_VSA0>
47.724434

>  <SMR_VSA1>
101.54091

>  <SMR_VSA2>
18.01075

>  <SMR_VSA3>
23.387917

>  <SMR_VSA4>
0

>  <SMR_VSA5>
0

>  <SMR_VSA6>
26.185041

>  <SMR_VSA7>
53.471233

>  <TPSA>
127.09

>  <VAdjEq>
0.54200274

>  <VAdjMa>
4.8073549

>  <VDistEq>
2.8071992

>  <VDistMa>
7.528039

>  <vdw_area>
233.92459

>  <vdw_vol>
262.06311

>  <vsa_acc>
27.133842

>  <vsa_acid>
0

>  <vsa_base>
0

>  <vsa_don>
5.6825762

>  <vsa_hyd>
83.54203

>  <vsa_other>
35.008007

>  <vsa_pol>
87.084099

>  <Weight>
221.209

>  <weinerPath>
384

>  <weinerPol>
20

>  <zagreb>
64

$$$$