O1[C@@H](C[C@H]2CO[C@@H](CC(=CC(OCCCCCCCCC(O)=O)=O)C)[C@H](O)[C@@H]2O)[C@@H]1[C@H]([C@@H](O)C)C
  MOE2013           2D

 35 36  0  0  1  0  0  0  0  0999 V2000
    0.0000    0.0000    0.0000 O   0  0  0  0  0  0  0  0  0  0  0  0
   -0.3800    1.4510    0.0000 C   0  0  1  0  0  0  0  0  0  0  0  0
    0.0170    2.8980    0.0000 C   0  0  0  0  0  0  0  0  0  0  0  0
    1.4680    3.2780    0.0000 C   0  0  1  0  0  0  0  0  0  0  0  0
    2.5220    2.2110    0.0000 C   0  0  0  0  0  0  0  0  0  0  0  0
    3.9740    2.5900    0.0000 O   0  0  0  0  0  0  0  0  0  0  0  0
    4.3700    4.0370    0.0000 C   0  0  1  0  0  0  0  0  0  0  0  0
    5.8210    4.4170    0.0000 C   0  0  0  0  0  0  0  0  0  0  0  0
    6.8760    3.3500    0.0000 C   0  0  0  0  0  0  0  0  0  0  0  0
    8.3270    3.7300    0.0000 C   0  0  0  0  0  0  0  0  0  0  0  0
    9.3810    2.6630    0.0000 C   0  0  0  0  0  0  0  0  0  0  0  0
   10.8330    3.0430    0.0000 O   0  0  0  0  0  0  0  0  0  0  0  0
   11.8870    1.9760    0.0000 C   0  0  0  0  0  0  0  0  0  0  0  0
   13.3380    2.3560    0.0000 C   0  0  0  0  0  0  0  0  0  0  0  0
   14.3930    1.2890    0.0000 C   0  0  0  0  0  0  0  0  0  0  0  0
   15.8440    1.6690    0.0000 C   0  0  0  0  0  0  0  0  0  0  0  0
   16.8980    0.6020    0.0000 C   0  0  0  0  0  0  0  0  0  0  0  0
   18.3490    0.9820    0.0000 C   0  0  0  0  0  0  0  0  0  0  0  0
   19.4040   -0.0850    0.0000 C   0  0  0  0  0  0  0  0  0  0  0  0
   20.8550    0.2950    0.0000 C   0  0  0  0  0  0  0  0  0  0  0  0
   21.9090   -0.7720    0.0000 C   0  0  0  0  0  0  0  0  0  0  0  0
   23.3610   -0.3920    0.0000 O   0  0  0  0  0  0  0  0  0  0  0  0
   21.5130   -2.2190    0.0000 O   0  0  0  0  0  0  0  0  0  0  0  0
    8.9850    1.2160    0.0000 O   0  0  0  0  0  0  0  0  0  0  0  0
    6.4790    1.9030    0.0000 C   0  0  0  0  0  0  0  0  0  0  0  0
    3.3160    5.1040    0.0000 C   0  0  2  0  0  0  0  0  0  0  0  0
    3.7120    6.5510    0.0000 O   0  0  0  0  0  0  0  0  0  0  0  0
    1.8650    4.7240    0.0000 C   0  0  2  0  0  0  0  0  0  0  0  0
    0.8100    5.7910    0.0000 O   0  0  0  0  0  0  0  0  0  0  0  0
   -1.4470    0.3970    0.0000 C   0  0  2  0  0  0  0  0  0  0  0  0
   -2.8980    0.0170    0.0000 C   0  0  2  0  0  0  0  0  0  0  0  0
   -3.2940   -1.4300    0.0000 C   0  0  1  0  0  0  0  0  0  0  0  0
   -4.7460   -1.8100    0.0000 O   0  0  0  0  0  0  0  0  0  0  0  0
   -2.2400   -2.4970    0.0000 C   0  0  0  0  0  0  0  0  0  0  0  0
   -3.9520    1.0840    0.0000 C   0  0  0  0  0  0  0  0  0  0  0  0
  1  2  1  0  0  0  0
  2  3  1  6  0  0  0
  2 30  1  0  0  0  0
  4  3  1  6  0  0  0
  4  5  1  0  0  0  0
  4 28  1  0  0  0  0
  5  6  1  0  0  0  0
  6  7  1  0  0  0  0
  7  8  1  6  0  0  0
  7 26  1  0  0  0  0
  8  9  1  0  0  0  0
  9 10  2  3  0  0  0
  9 25  1  0  0  0  0
 10 11  1  0  0  0  0
 11 12  1  0  0  0  0
 11 24  2  0  0  0  0
 12 13  1  0  0  0  0
 13 14  1  0  0  0  0
 14 15  1  0  0  0  0
 15 16  1  0  0  0  0
 16 17  1  0  0  0  0
 17 18  1  0  0  0  0
 18 19  1  0  0  0  0
 19 20  1  0  0  0  0
 20 21  1  0  0  0  0
 21 22  1  0  0  0  0
 21 23  2  0  0  0  0
 26 27  1  1  0  0  0
 26 28  1  0  0  0  0
 28 29  1  1  0  0  0
 30  1  1  1  0  0  0
 30 31  1  0  0  0  0
 31 32  1  0  0  0  0
 31 35  1  6  0  0  0
 32 33  1  6  0  0  0
 32 34  1  0  0  0  0
M  END
>  <Index>
735

>  <ID>
HT1441

>  <class>
0

>  <apol>
82.316895

>  <ast_fraglike>
0

>  <ast_fraglike_ext>
0

>  <ast_violation>
3

>  <ast_violation_ext>
5

>  <a_acc>
8

>  <a_acid>
0

>  <a_aro>
0

>  <a_base>
0

>  <a_count>
79

>  <a_don>
5

>  <a_donacc>
13

>  <a_heavy>
35

>  <a_hyd>
24

>  <a_IC>
107.04293

>  <a_ICM>
1.3549738

>  <a_nB>
0

>  <a_nBr>
0

>  <a_nC>
26

>  <a_nCl>
0

>  <a_nF>
0

>  <a_nH>
44

>  <a_nI>
0

>  <a_nN>
0

>  <a_nO>
9

>  <a_nP>
0

>  <a_nS>
0

>  <balabanJ>
1.5566854

>  <BCUT_PEOE_0>
-2.7652457

>  <BCUT_PEOE_1>
-0.51585621

>  <BCUT_PEOE_2>
0.50108504

>  <BCUT_PEOE_3>
2.862469

>  <BCUT_SLOGP_0>
-2.8696239

>  <BCUT_SLOGP_1>
-0.4765338

>  <BCUT_SLOGP_2>
0.46297202

>  <BCUT_SLOGP_3>
2.7941163

>  <BCUT_SMR_0>
-2.5448093

>  <BCUT_SMR_1>
-0.3428106

>  <BCUT_SMR_2>
0.58139485

>  <BCUT_SMR_3>
3.0804713

>  <bpol>
55.765106

>  <b_1rotN>
16

>  <b_1rotR>
0.44444445

>  <b_ar>
0

>  <b_count>
80

>  <b_double>
3

>  <b_heavy>
36

>  <b_max1len>
9

>  <b_rotN>
17

>  <b_rotR>
0.47222221

>  <b_single>
77

>  <b_triple>
0

>  <chi0>
25.957455

>  <chi0v>
21.304422

>  <chi0v_C>
17.474327

>  <chi0_C>
17.836134

>  <chi1>
16.595133

>  <chi1v>
12.967184

>  <chi1v_C>
10.072151

>  <chi1_C>
10.498037

>  <chiral>
8

>  <chiral_u>
0

>  <density>
0.73213691

>  <diameter>
24

>  <FCharge>
0

>  <GCUT_PEOE_0>
-0.80445337

>  <GCUT_PEOE_1>
-0.36909163

>  <GCUT_PEOE_2>
0.079840466

>  <GCUT_PEOE_3>
2.9246552

>  <GCUT_SLOGP_0>
-0.93995959

>  <GCUT_SLOGP_1>
-0.32217503

>  <GCUT_SLOGP_2>
-0.0061588241

>  <GCUT_SLOGP_3>
2.9170446

>  <GCUT_SMR_0>
-0.53309822

>  <GCUT_SMR_1>
-0.23190856

>  <GCUT_SMR_2>
0.1485685

>  <GCUT_SMR_3>
3.1297004

>  <Kier1>
31.219135

>  <Kier2>
16.070312

>  <Kier3>
10.715913

>  <KierA1>
28.931005

>  <KierA2>
14.858048

>  <KierA3>
9.890996

>  <KierFlex>
12.281665

>  <lip_acc>
9

>  <lip_don>
4

>  <lip_druglike>
1

>  <lip_violation>
1

>  <logP(o/w)>
2.7260001

>  <logS>
-3.7297699

>  <mr>
13.062522

>  <mutagenic>
1

>  <nmol>
1

>  <opr_brigid>
10

>  <opr_leadlike>
0

>  <opr_nring>
2

>  <opr_nrot>
18

>  <opr_violation>
3

>  <PC+>
0

>  <PC->
0

>  <PEOE_PC+>
3.5822716

>  <PEOE_PC->
-3.5822716

>  <PEOE_RPC+>
0.07998658

>  <PEOE_RPC->
0.10934597

>  <PEOE_VSA+0>
144.6524

>  <PEOE_VSA+1>
101.34647

>  <PEOE_VSA+2>
4.9049287

>  <PEOE_VSA+3>
0

>  <PEOE_VSA+4>
41.296692

>  <PEOE_VSA+5>
29.416998

>  <PEOE_VSA+6>
0

>  <PEOE_VSA-0>
72.300606

>  <PEOE_VSA-1>
55.761471

>  <PEOE_VSA-2>
0

>  <PEOE_VSA-3>
0

>  <PEOE_VSA-4>
0

>  <PEOE_VSA-5>
27.133842

>  <PEOE_VSA-6>
38.581429

>  <PEOE_VSA_FHYD>
0.73529238

>  <PEOE_VSA_FNEG>
0.37597844

>  <PEOE_VSA_FPNEG>
0.12750471

>  <PEOE_VSA_FPOL>
0.26470765

>  <PEOE_VSA_FPOS>
0.62402159

>  <PEOE_VSA_FPPOS>
0.13720293

>  <PEOE_VSA_HYD>
378.96588

>  <PEOE_VSA_NEG>
193.77734

>  <PEOE_VSA_PNEG>
65.715271

>  <PEOE_VSA_POL>
136.42896

>  <PEOE_VSA_POS>
321.61749

>  <PEOE_VSA_PPOS>
70.713692

>  <petitjean>
0.5

>  <petitjeanSC>
1

>  <Q_PC+>
0

>  <Q_PC->
0

>  <Q_RPC+>
0

>  <Q_RPC->
0

>  <Q_VSA_FHYD>
1

>  <Q_VSA_FNEG>
0

>  <Q_VSA_FPNEG>
0

>  <Q_VSA_FPOL>
0

>  <Q_VSA_FPOS>
1

>  <Q_VSA_FPPOS>
0

>  <Q_VSA_HYD>
515.39484

>  <Q_VSA_NEG>
0

>  <Q_VSA_PNEG>
0

>  <Q_VSA_POL>
0

>  <Q_VSA_POS>
515.39484

>  <Q_VSA_PPOS>
0

>  <radius>
12

>  <reactive>
1

>  <rings>
2

>  <RPC+>
0

>  <RPC->
0

>  <rsynth>
0.48571429

>  <SlogP>
2.5925

>  <SlogP_VSA0>
76.155678

>  <SlogP_VSA1>
15.490929

>  <SlogP_VSA2>
119.53599

>  <SlogP_VSA3>
67.237747

>  <SlogP_VSA4>
8.8215923

>  <SlogP_VSA5>
3.185575

>  <SlogP_VSA6>
0

>  <SlogP_VSA7>
17.643185

>  <SlogP_VSA8>
169.81564

>  <SlogP_VSA9>
99.978043

>  <SMR>
12.86542

>  <SMR_VSA0>
80.724098

>  <SMR_VSA1>
76.155678

>  <SMR_VSA2>
34.206818

>  <SMR_VSA3>
41.997471

>  <SMR_VSA4>
0

>  <SMR_VSA5>
187.45883

>  <SMR_VSA6>
57.343445

>  <SMR_VSA7>
99.978043

>  <TPSA>
146.05

>  <VAdjEq>
0.32256484

>  <VAdjMa>
6.1699252

>  <VDistEq>
4.3498077

>  <VDistMa>
9.899497

>  <vdw_area>
515.39484

>  <vdw_vol>
683.7915

>  <vsa_acc>
18.574432

>  <vsa_acid>
0

>  <vsa_base>
0

>  <vsa_don>
0

>  <vsa_hyd>
347.80399

>  <vsa_other>
31.920755

>  <vsa_pol>
86.409035

>  <Weight>
500.629

>  <weinerPath>
5246

>  <weinerPol>
47

>  <zagreb>
168

$$$$