O(Cc1ccccc1)c1ccc(O)cc1
  MOE2013           2D

 15 16  0  0  0  0  0  0  0  0999 V2000
    0.0000    0.0000    0.0000 O   0  0  0  0  0  0  0  0  0  0  0  0
   -0.7500   -1.2990    0.0000 C   0  0  0  0  0  0  0  0  0  0  0  0
   -2.2500   -1.2990    0.0000 C   0  0  0  0  0  0  0  0  0  0  0  0
   -3.0000   -2.5980    0.0000 C   0  0  0  0  0  0  0  0  0  0  0  0
   -4.5000   -2.5990    0.0000 C   0  0  0  0  0  0  0  0  0  0  0  0
   -5.2500   -1.3000    0.0000 C   0  0  0  0  0  0  0  0  0  0  0  0
   -4.5000   -0.0010    0.0000 C   0  0  0  0  0  0  0  0  0  0  0  0
   -3.0000    0.0000    0.0000 C   0  0  0  0  0  0  0  0  0  0  0  0
    1.5000    0.0000    0.0000 C   0  0  0  0  0  0  0  0  0  0  0  0
    2.2500    1.2990    0.0000 C   0  0  0  0  0  0  0  0  0  0  0  0
    3.7500    1.3000    0.0000 C   0  0  0  0  0  0  0  0  0  0  0  0
    4.5000    0.0010    0.0000 C   0  0  0  0  0  0  0  0  0  0  0  0
    6.0000    0.0010    0.0000 O   0  0  0  0  0  0  0  0  0  0  0  0
    3.7500   -1.2990    0.0000 C   0  0  0  0  0  0  0  0  0  0  0  0
    2.2500   -1.2990    0.0000 C   0  0  0  0  0  0  0  0  0  0  0  0
  1  2  1  0  0  0  0
  1  9  1  0  0  0  0
  2  3  1  0  0  0  0
  3  4  1  0  0  0  0
  3  8  2  0  0  0  0
  4  5  2  0  0  0  0
  5  6  1  0  0  0  0
  6  7  2  0  0  0  0
  7  8  1  0  0  0  0
  9 10  1  0  0  0  0
  9 15  2  0  0  0  0
 10 11  2  0  0  0  0
 11 12  1  0  0  0  0
 12 13  1  0  0  0  0
 12 14  2  0  0  0  0
 14 15  1  0  0  0  0
M  END
>  <Index>
729

>  <ID>
HT1429

>  <class>
0

>  <apol>
32.485516

>  <ast_fraglike>
0

>  <ast_fraglike_ext>
0

>  <ast_violation>
1

>  <ast_violation_ext>
1

>  <a_acc>
2

>  <a_acid>
0

>  <a_aro>
12

>  <a_base>
0

>  <a_count>
27

>  <a_don>
1

>  <a_donacc>
3

>  <a_heavy>
15

>  <a_hyd>
13

>  <a_IC>
35.256695

>  <a_ICM>
1.3058035

>  <a_nB>
0

>  <a_nBr>
0

>  <a_nC>
13

>  <a_nCl>
0

>  <a_nF>
0

>  <a_nH>
12

>  <a_nI>
0

>  <a_nN>
0

>  <a_nO>
2

>  <a_nP>
0

>  <a_nS>
0

>  <balabanJ>
1.6136479

>  <BCUT_PEOE_0>
-2.3334801

>  <BCUT_PEOE_1>
-0.6413486

>  <BCUT_PEOE_2>
0.70108616

>  <BCUT_PEOE_3>
2.2926526

>  <BCUT_SLOGP_0>
-2.1975884

>  <BCUT_SLOGP_1>
-0.53807992

>  <BCUT_SLOGP_2>
0.80591482

>  <BCUT_SLOGP_3>
2.4587493

>  <BCUT_SMR_0>
-2.0447071

>  <BCUT_SMR_1>
-0.49986199

>  <BCUT_SMR_2>
0.85431087

>  <BCUT_SMR_3>
2.5814755

>  <bpol>
15.034484

>  <b_1rotN>
3

>  <b_1rotR>
0.1875

>  <b_ar>
12

>  <b_count>
28

>  <b_double>
0

>  <b_heavy>
16

>  <b_max1len>
2

>  <b_rotN>
3

>  <b_rotR>
0.1875

>  <b_single>
16

>  <b_triple>
0

>  <chi0>
10.510225

>  <chi0v>
8.2587214

>  <chi0v_C>
7.4032593

>  <chi0_C>
8.8031187

>  <chi1>
7.3433366

>  <chi1v>
4.8020101

>  <chi1v_C>
4.0856042

>  <chi1_C>
5.857738

>  <chiral>
0

>  <chiral_u>
0

>  <density>
0.69658166

>  <diameter>
10

>  <FCharge>
0

>  <GCUT_PEOE_0>
-0.78055012

>  <GCUT_PEOE_1>
-0.40152466

>  <GCUT_PEOE_2>
0.081457719

>  <GCUT_PEOE_3>
2.2238581

>  <GCUT_SLOGP_0>
-0.76170051

>  <GCUT_SLOGP_1>
-0.28180039

>  <GCUT_SLOGP_2>
0.16445385

>  <GCUT_SLOGP_3>
2.4053524

>  <GCUT_SMR_0>
-0.47796854

>  <GCUT_SMR_1>
-0.21605732

>  <GCUT_SMR_2>
0.19305076

>  <GCUT_SMR_3>
2.5134664

>  <Kier1>
11.484375

>  <Kier2>
5.915

>  <Kier3>
3.8109641

>  <KierA1>
8.1245642

>  <KierA2>
4.070169

>  <KierA3>
2.5631008

>  <KierFlex>
2.2045565

>  <lip_acc>
2

>  <lip_don>
1

>  <lip_druglike>
1

>  <lip_violation>
0

>  <logP(o/w)>
3.342

>  <logS>
-2.8412099

>  <mr>
6.0336976

>  <mutagenic>
0

>  <nmol>
1

>  <opr_brigid>
12

>  <opr_leadlike>
1

>  <opr_nring>
2

>  <opr_nrot>
3

>  <opr_violation>
0

>  <PC+>
0

>  <PC->
0

>  <PEOE_PC+>
1.1361877

>  <PEOE_PC->
-1.1361877

>  <PEOE_RPC+>
0.19126531

>  <PEOE_RPC->
0.31669989

>  <PEOE_VSA+0>
0

>  <PEOE_VSA+1>
78.787575

>  <PEOE_VSA+2>
0

>  <PEOE_VSA+3>
0

>  <PEOE_VSA+4>
10.324173

>  <PEOE_VSA+5>
0

>  <PEOE_VSA+6>
0

>  <PEOE_VSA-0>
51.228157

>  <PEOE_VSA-1>
61.274521

>  <PEOE_VSA-2>
0

>  <PEOE_VSA-3>
0

>  <PEOE_VSA-4>
0

>  <PEOE_VSA-5>
0

>  <PEOE_VSA-6>
10.271297

>  <PEOE_VSA_FHYD>
0.90279919

>  <PEOE_VSA_FNEG>
0.57943487

>  <PEOE_VSA_FPNEG>
0.048475642

>  <PEOE_VSA_FPOL>
0.097200833

>  <PEOE_VSA_FPOS>
0.42056516

>  <PEOE_VSA_FPPOS>
0.048725192

>  <PEOE_VSA_HYD>
191.29025

>  <PEOE_VSA_NEG>
122.77397

>  <PEOE_VSA_PNEG>
10.271297

>  <PEOE_VSA_POL>
20.595469

>  <PEOE_VSA_POS>
89.111748

>  <PEOE_VSA_PPOS>
10.324173

>  <petitjean>
0.5

>  <petitjeanSC>
1

>  <Q_PC+>
0

>  <Q_PC->
0

>  <Q_RPC+>
0

>  <Q_RPC->
0

>  <Q_VSA_FHYD>
1

>  <Q_VSA_FNEG>
0

>  <Q_VSA_FPNEG>
0

>  <Q_VSA_FPOL>
0

>  <Q_VSA_FPOS>
1

>  <Q_VSA_FPPOS>
0

>  <Q_VSA_HYD>
211.88573

>  <Q_VSA_NEG>
0

>  <Q_VSA_PNEG>
0

>  <Q_VSA_POL>
0

>  <Q_VSA_POS>
211.88573

>  <Q_VSA_PPOS>
0

>  <radius>
5

>  <reactive>
0

>  <rings>
2

>  <RPC+>
0

>  <RPC->
0

>  <rsynth>
1

>  <SlogP>
3.2376001

>  <SlogP_VSA0>
36.385113

>  <SlogP_VSA1>
0

>  <SlogP_VSA2>
0

>  <SlogP_VSA3>
0

>  <SlogP_VSA4>
3.185575

>  <SlogP_VSA5>
0

>  <SlogP_VSA6>
0

>  <SlogP_VSA7>
158.78867

>  <SlogP_VSA8>
0

>  <SlogP_VSA9>
31.413115

>  <SMR>
5.9085798

>  <SMR_VSA0>
0

>  <SMR_VSA1>
36.385113

>  <SMR_VSA2>
0

>  <SMR_VSA3>
13.672431

>  <SMR_VSA4>
0

>  <SMR_VSA5>
179.71492

>  <SMR_VSA6>
0

>  <SMR_VSA7>
0

>  <TPSA>
29.459999

>  <VAdjEq>
0.59002918

>  <VAdjMa>
5

>  <VDistEq>
3.0677631

>  <VDistMa>
7.4599185

>  <vdw_area>
211.88573

>  <vdw_vol>
287.4566

>  <vsa_acc>
2.503756

>  <vsa_acid>
0

>  <vsa_base>
0

>  <vsa_don>
0

>  <vsa_hyd>
183.46051

>  <vsa_other>
0

>  <vsa_pol>
16.070677

>  <Weight>
200.237

>  <weinerPath>
420

>  <weinerPol>
17

>  <zagreb>
72

$$$$