P(OCC1OC(N2C=C(CC=C2)C(=O)N)C(O)C1O)(OP(OCC1OC(n2c3ncnc(N)c3nc2)C(O)C1O)(O)=O)(O)=O
  MOE2013           2D

 44 48  0  0  1  0  0  0  0  0999 V2000
    0.0000    0.0000    0.0000 P   0  0  3  0  0  0  0  0  0  0  0  0
   -1.3000   -0.7490    0.0000 O   0  0  0  0  0  0  0  0  0  0  0  0
   -2.5980    0.0030    0.0000 C   0  0  0  0  0  0  0  0  0  0  0  0
   -3.8980   -0.7460    0.0000 C   0  0  3  0  0  0  0  0  0  0  0  0
   -4.0560   -2.2370    0.0000 O   0  0  0  0  0  0  0  0  0  0  0  0
   -5.5240   -2.5480    0.0000 C   0  0  3  0  0  0  0  0  0  0  0  0
   -6.1350   -3.9170    0.0000 N   0  0  3  0  0  0  0  0  0  0  0  0
   -7.6270   -4.0730    0.0000 C   0  0  0  0  0  0  0  0  0  0  0  0
   -8.2390   -5.4420    0.0000 C   0  0  0  0  0  0  0  0  0  0  0  0
   -7.3590   -6.6570    0.0000 C   0  0  0  0  0  0  0  0  0  0  0  0
   -5.8670   -6.5020    0.0000 C   0  0  0  0  0  0  0  0  0  0  0  0
   -5.2550   -5.1320    0.0000 C   0  0  0  0  0  0  0  0  0  0  0  0
   -9.7310   -5.5970    0.0000 C   0  0  0  0  0  0  0  0  0  0  0  0
  -10.3420   -6.9670    0.0000 O   0  0  0  0  0  0  0  0  0  0  0  0
  -10.6110   -4.3830    0.0000 N   0  0  0  0  0  0  0  0  0  0  0  0
   -6.2720   -1.2480    0.0000 C   0  0  3  0  0  0  0  0  0  0  0  0
   -7.7640   -1.0890    0.0000 O   0  0  0  0  0  0  0  0  0  0  0  0
   -5.2680   -0.1340    0.0000 C   0  0  3  0  0  0  0  0  0  0  0  0
   -5.5780    1.3330    0.0000 O   0  0  0  0  0  0  0  0  0  0  0  0
    1.3000    0.7490    0.0000 O   0  0  0  0  0  0  0  0  0  0  0  0
    2.5980   -0.0030    0.0000 P   0  0  3  0  0  0  0  0  0  0  0  0
    3.8960   -0.7540    0.0000 O   0  0  0  0  0  0  0  0  0  0  0  0
    5.1960   -0.0060    0.0000 C   0  0  0  0  0  0  0  0  0  0  0  0
    6.4940   -0.7570    0.0000 C   0  0  3  0  0  0  0  0  0  0  0  0
    7.8650   -0.1480    0.0000 O   0  0  0  0  0  0  0  0  0  0  0  0
    8.8680   -1.2640    0.0000 C   0  0  3  0  0  0  0  0  0  0  0  0
   10.3600   -1.1090    0.0000 N   0  0  0  0  0  0  0  0  0  0  0  0
   11.1110    0.1890    0.0000 C   0  0  0  0  0  0  0  0  0  0  0  0
   10.6490    1.6160    0.0000 N   0  0  0  0  0  0  0  0  0  0  0  0
   11.6540    2.7300    0.0000 C   0  0  0  0  0  0  0  0  0  0  0  0
   13.1210    2.4170    0.0000 N   0  0  0  0  0  0  0  0  0  0  0  0
   13.5830    0.9900    0.0000 C   0  0  0  0  0  0  0  0  0  0  0  0
   15.0500    0.6760    0.0000 N   0  0  0  0  0  0  0  0  0  0  0  0
   12.5780   -0.1240    0.0000 C   0  0  0  0  0  0  0  0  0  0  0  0
   12.7330   -1.6160    0.0000 N   0  0  0  0  0  0  0  0  0  0  0  0
   11.3620   -2.2250    0.0000 C   0  0  0  0  0  0  0  0  0  0  0  0
    8.1160   -2.5620    0.0000 C   0  0  3  0  0  0  0  0  0  0  0  0
    8.7250   -3.9330    0.0000 O   0  0  0  0  0  0  0  0  0  0  0  0
    6.6500   -2.2490    0.0000 C   0  0  3  0  0  0  0  0  0  0  0  0
    5.5340   -3.2510    0.0000 O   0  0  0  0  0  0  0  0  0  0  0  0
    3.3490    1.2950    0.0000 O   0  0  0  0  0  0  0  0  0  0  0  0
    1.8470   -1.3010    0.0000 O   0  0  0  0  0  0  0  0  0  0  0  0
   -0.7490    1.3000    0.0000 O   0  0  0  0  0  0  0  0  0  0  0  0
    0.7490   -1.3000    0.0000 O   0  0  0  0  0  0  0  0  0  0  0  0
  1  2  1  0  0  0  0
  1 20  1  0  0  0  0
  1 43  1  0  0  0  0
  1 44  2  0  0  0  0
  2  3  1  0  0  0  0
  3  4  1  0  0  0  0
  4  5  1  0  0  0  0
  4 18  1  0  0  0  0
  5  6  1  0  0  0  0
  6  7  1  0  0  0  0
  6 16  1  0  0  0  0
  7  8  1  0  0  0  0
  7 12  1  0  0  0  0
  8  9  2  0  0  0  0
  9 10  1  0  0  0  0
  9 13  1  0  0  0  0
 10 11  1  0  0  0  0
 11 12  2  0  0  0  0
 13 14  2  0  0  0  0
 13 15  1  0  0  0  0
 16 17  1  0  0  0  0
 16 18  1  0  0  0  0
 18 19  1  0  0  0  0
 20 21  1  0  0  0  0
 21 22  1  0  0  0  0
 21 41  1  0  0  0  0
 21 42  2  0  0  0  0
 22 23  1  0  0  0  0
 23 24  1  0  0  0  0
 24 25  1  0  0  0  0
 24 39  1  0  0  0  0
 25 26  1  0  0  0  0
 26 27  1  0  0  0  0
 26 37  1  0  0  0  0
 27 28  1  0  0  0  0
 27 36  1  0  0  0  0
 28 29  1  0  0  0  0
 28 34  2  0  0  0  0
 29 30  2  0  0  0  0
 30 31  1  0  0  0  0
 31 32  2  0  0  0  0
 32 33  1  0  0  0  0
 32 34  1  0  0  0  0
 34 35  1  0  0  0  0
 35 36  2  0  0  0  0
 37 38  1  0  0  0  0
 37 39  1  0  0  0  0
 39 40  1  0  0  0  0
M  END
>  <Index>
739

>  <ID>
HT1449

>  <class>
0

>  <apol>
82.485001

>  <ast_fraglike>
0

>  <ast_fraglike_ext>
0

>  <ast_violation>
3

>  <ast_violation_ext>
5

>  <a_acc>
16

>  <a_acid>
0

>  <a_aro>
9

>  <a_base>
0

>  <a_count>
73

>  <a_don>
10

>  <a_donacc>
26

>  <a_heavy>
44

>  <a_hyd>
14

>  <a_IC>
143.78262

>  <a_ICM>
1.969625

>  <a_nB>
0

>  <a_nBr>
0

>  <a_nC>
21

>  <a_nCl>
0

>  <a_nF>
0

>  <a_nH>
29

>  <a_nI>
0

>  <a_nN>
7

>  <a_nO>
14

>  <a_nP>
2

>  <a_nS>
0

>  <balabanJ>
1.0915767

>  <BCUT_PEOE_0>
-2.5416155

>  <BCUT_PEOE_1>
-0.65490651

>  <BCUT_PEOE_2>
0.74972612

>  <BCUT_PEOE_3>
2.7824373

>  <BCUT_SLOGP_0>
-2.7291918

>  <BCUT_SLOGP_1>
-0.71699876

>  <BCUT_SLOGP_2>
0.54087543

>  <BCUT_SLOGP_3>
2.7153766

>  <BCUT_SMR_0>
-2.3364396

>  <BCUT_SMR_1>
-0.49465668

>  <BCUT_SMR_2>
0.84528714

>  <BCUT_SMR_3>
2.9816484

>  <bpol>
65.717003

>  <b_1rotN>
11

>  <b_1rotR>
0.22916667

>  <b_ar>
10

>  <b_count>
77

>  <b_double>
3

>  <b_heavy>
48

>  <b_max1len>
10

>  <b_rotN>
11

>  <b_rotR>
0.22916667

>  <b_single>
64

>  <b_triple>
0

>  <chi0>
31.973963

>  <chi0v>
24.150192

>  <chi0v_C>
12.126874

>  <chi0_C>
13.162408

>  <chi1>
20.671141

>  <chi1v>
15.73109

>  <chi1v_C>
4.9503069

>  <chi1_C>
5.6329932

>  <chiral>
10

>  <chiral_u>
10

>  <density>
0.93759328

>  <diameter>
22

>  <FCharge>
0

>  <GCUT_PEOE_0>
-0.81864876

>  <GCUT_PEOE_1>
-0.41300192

>  <GCUT_PEOE_2>
0.18115029

>  <GCUT_PEOE_3>
2.8388574

>  <GCUT_SLOGP_0>
-1.3704982

>  <GCUT_SLOGP_1>
-0.48078561

>  <GCUT_SLOGP_2>
0.054200001

>  <GCUT_SLOGP_3>
2.8014081

>  <GCUT_SMR_0>
-0.52647197

>  <GCUT_SMR_1>
-0.24209468

>  <GCUT_SMR_2>
0.23993358

>  <GCUT_SMR_3>
3.0605094

>  <Kier1>
35.310764

>  <Kier2>
14.233815

>  <Kier3>
8.0137396

>  <KierA1>
31.605696

>  <KierA2>
12.706334

>  <KierA3>
7.1405177

>  <KierFlex>
9.1271029

>  <lip_acc>
21

>  <lip_don>
10

>  <lip_druglike>
0

>  <lip_violation>
3

>  <logP(o/w)>
-6.0099401

>  <logS>
-1.4120899

>  <mr>
14.673033

>  <mutagenic>
1

>  <nmol>
1

>  <opr_brigid>
26

>  <opr_leadlike>
0

>  <opr_nring>
5

>  <opr_nrot>
13

>  <opr_violation>
6

>  <PC+>
0

>  <PC->
0

>  <PEOE_PC+>
5.9456639

>  <PEOE_PC->
-5.9456639

>  <PEOE_RPC+>
0.073246837

>  <PEOE_RPC->
0.065003037

>  <PEOE_VSA+0>
27.800856

>  <PEOE_VSA+1>
76.821831

>  <PEOE_VSA+2>
124.95828

>  <PEOE_VSA+3>
58.472874

>  <PEOE_VSA+4>
54.246223

>  <PEOE_VSA+5>
0

>  <PEOE_VSA+6>
37.426136

>  <PEOE_VSA-0>
42.193146

>  <PEOE_VSA-1>
19.083092

>  <PEOE_VSA-2>
31.458273

>  <PEOE_VSA-3>
0

>  <PEOE_VSA-4>
17.047728

>  <PEOE_VSA-5>
49.409496

>  <PEOE_VSA-6>
42.728794

>  <PEOE_VSA_FHYD>
0.65467292

>  <PEOE_VSA_FNEG>
0.34715322

>  <PEOE_VSA_FPNEG>
0.18771878

>  <PEOE_VSA_FPOL>
0.34532711

>  <PEOE_VSA_FPOS>
0.65284681

>  <PEOE_VSA_FPPOS>
0.15760832

>  <PEOE_VSA_HYD>
380.78836

>  <PEOE_VSA_NEG>
201.92053

>  <PEOE_VSA_PNEG>
109.18602

>  <PEOE_VSA_POL>
200.85838

>  <PEOE_VSA_POS>
379.7262

>  <PEOE_VSA_PPOS>
91.672356

>  <petitjean>
0.5

>  <petitjeanSC>
1

>  <Q_PC+>
0

>  <Q_PC->
0

>  <Q_RPC+>
0

>  <Q_RPC->
0

>  <Q_VSA_FHYD>
1

>  <Q_VSA_FNEG>
0

>  <Q_VSA_FPNEG>
0

>  <Q_VSA_FPOL>
0

>  <Q_VSA_FPOS>
1

>  <Q_VSA_FPPOS>
0

>  <Q_VSA_HYD>
581.64673

>  <Q_VSA_NEG>
0

>  <Q_VSA_PNEG>
0

>  <Q_VSA_POL>
0

>  <Q_VSA_POS>
581.64673

>  <Q_VSA_PPOS>
0

>  <radius>
11

>  <reactive>
0

>  <rings>
5

>  <RPC+>
0

>  <RPC->
0

>  <rsynth>
1

>  <SlogP>
-4.7312999

>  <SlogP_VSA0>
254.81674

>  <SlogP_VSA1>
60.638779

>  <SlogP_VSA2>
107.40034

>  <SlogP_VSA3>
41.852516

>  <SlogP_VSA4>
0

>  <SlogP_VSA5>
3.185575

>  <SlogP_VSA6>
0

>  <SlogP_VSA7>
89.502403

>  <SlogP_VSA8>
24.908228

>  <SlogP_VSA9>
35.717602

>  <SMR>
14.05846

>  <SMR_VSA0>
107.41615

>  <SMR_VSA1>
199.53484

>  <SMR_VSA2>
0

>  <SMR_VSA3>
54.077114

>  <SMR_VSA4>
39.084553

>  <SMR_VSA5>
137.40855

>  <SMR_VSA6>
47.111301

>  <SMR_VSA7>
33.389683

>  <TPSA>
317.62

>  <VAdjEq>
0.284639

>  <VAdjMa>
6.5849624

>  <VDistEq>
4.2634182

>  <VDistMa>
10.597084

>  <vdw_area>
581.64673

>  <vdw_vol>
709.73846

>  <vsa_acc>
44.954105

>  <vsa_acid>
0

>  <vsa_base>
0

>  <vsa_don>
35.484978

>  <vsa_hyd>
175.99216

>  <vsa_other>
155.06508

>  <vsa_pol>
197.62331

>  <Weight>
665.44598

>  <weinerPath>
8150

>  <weinerPol>
74

>  <zagreb>
242

$$$$