Clc1cc(Cl)ccc1CON=C(/Cn1ccnc1)c1ccc(Cl)cc1Cl
  MOE2013           2D

 26 28  0  0  0  0  0  0  0  0999 V2000
    0.0000    0.0000    0.0000 Cl  0  0  0  0  0  0  0  0  0  0  0  0
    0.7560    1.2950    0.0000 C   0  0  0  0  0  0  0  0  0  0  0  0
    2.2560    1.2880    0.0000 C   0  0  0  0  0  0  0  0  0  0  0  0
    3.0120    2.5840    0.0000 C   0  0  0  0  0  0  0  0  0  0  0  0
    4.5120    2.5770    0.0000 Cl  0  0  0  0  0  0  0  0  0  0  0  0
    2.2690    3.8860    0.0000 C   0  0  0  0  0  0  0  0  0  0  0  0
    0.7690    3.8930    0.0000 C   0  0  0  0  0  0  0  0  0  0  0  0
    0.0120    2.5980    0.0000 C   0  0  0  0  0  0  0  0  0  0  0  0
   -1.4880    2.6050    0.0000 C   0  0  0  0  0  0  0  0  0  0  0  0
   -2.2310    3.9080    0.0000 O   0  0  0  0  0  0  0  0  0  0  0  0
   -3.7310    3.9150    0.0000 N   0  0  0  0  0  0  0  0  0  0  0  0
   -4.4750    5.2180    0.0000 C   0  0  0  0  0  0  0  0  0  0  0  0
   -5.9750    5.2250    0.0000 C   0  0  0  0  0  0  0  0  0  0  0  0
   -6.7310    3.9290    0.0000 N   0  0  0  0  0  0  0  0  0  0  0  0
   -6.1280    2.5560    0.0000 C   0  0  0  0  0  0  0  0  0  0  0  0
   -7.2470    1.5580    0.0000 C   0  0  0  0  0  0  0  0  0  0  0  0
   -8.5430    2.3140    0.0000 N   0  0  0  0  0  0  0  0  0  0  0  0
   -8.2240    3.7800    0.0000 C   0  0  0  0  0  0  0  0  0  0  0  0
   -3.7190    6.5130    0.0000 C   0  0  0  0  0  0  0  0  0  0  0  0
   -2.2190    6.5060    0.0000 C   0  0  0  0  0  0  0  0  0  0  0  0
   -1.4630    7.8010    0.0000 C   0  0  0  0  0  0  0  0  0  0  0  0
   -2.2060    9.1040    0.0000 C   0  0  0  0  0  0  0  0  0  0  0  0
   -1.4500   10.3990    0.0000 Cl  0  0  0  0  0  0  0  0  0  0  0  0
   -3.7060    9.1110    0.0000 C   0  0  0  0  0  0  0  0  0  0  0  0
   -4.4630    7.8160    0.0000 C   0  0  0  0  0  0  0  0  0  0  0  0
   -5.9630    7.8230    0.0000 Cl  0  0  0  0  0  0  0  0  0  0  0  0
  1  2  1  0  0  0  0
  2  3  1  0  0  0  0
  2  8  2  0  0  0  0
  3  4  2  0  0  0  0
  4  5  1  0  0  0  0
  4  6  1  0  0  0  0
  6  7  2  0  0  0  0
  7  8  1  0  0  0  0
  8  9  1  0  0  0  0
  9 10  1  0  0  0  0
 10 11  1  0  0  0  0
 11 12  2  3  0  0  0
 12 13  1  0  0  0  0
 12 19  1  0  0  0  0
 13 14  1  0  0  0  0
 14 15  1  0  0  0  0
 14 18  1  0  0  0  0
 15 16  2  0  0  0  0
 16 17  1  0  0  0  0
 17 18  2  0  0  0  0
 19 20  1  0  0  0  0
 19 25  2  0  0  0  0
 20 21  2  0  0  0  0
 21 22  1  0  0  0  0
 22 23  1  0  0  0  0
 22 24  2  0  0  0  0
 24 25  1  0  0  0  0
 25 26  1  0  0  0  0
M  END
>  <Index>
799

>  <ID>
HT1559

>  <class>
0

>  <apol>
53.170307

>  <ast_fraglike>
0

>  <ast_fraglike_ext>
0

>  <ast_violation>
2

>  <ast_violation_ext>
3

>  <a_acc>
2

>  <a_acid>
0

>  <a_aro>
17

>  <a_base>
0

>  <a_count>
39

>  <a_don>
0

>  <a_donacc>
2

>  <a_heavy>
26

>  <a_hyd>
20

>  <a_IC>
70.211433

>  <a_ICM>
1.8002931

>  <a_nB>
0

>  <a_nBr>
0

>  <a_nC>
18

>  <a_nCl>
4

>  <a_nF>
0

>  <a_nH>
13

>  <a_nI>
0

>  <a_nN>
3

>  <a_nO>
1

>  <a_nP>
0

>  <a_nS>
0

>  <balabanJ>
1.5154516

>  <BCUT_PEOE_0>
-2.3421578

>  <BCUT_PEOE_1>
-0.6618647

>  <BCUT_PEOE_2>
0.68748409

>  <BCUT_PEOE_3>
2.3525982

>  <BCUT_SLOGP_0>
-2.3029563

>  <BCUT_SLOGP_1>
-0.45362198

>  <BCUT_SLOGP_2>
0.95532596

>  <BCUT_SLOGP_3>
2.4636061

>  <BCUT_SMR_0>
-2.0529342

>  <BCUT_SMR_1>
-0.42271951

>  <BCUT_SMR_2>
0.96196932

>  <BCUT_SMR_3>
2.653666

>  <bpol>
21.107691

>  <b_1rotN>
6

>  <b_1rotR>
0.21428572

>  <b_ar>
17

>  <b_count>
41

>  <b_double>
1

>  <b_heavy>
28

>  <b_max1len>
2

>  <b_rotN>
6

>  <b_rotR>
0.21428572

>  <b_single>
23

>  <b_triple>
0

>  <chi0>
18.518297

>  <chi0v>
16.395828

>  <chi0v_C>
10.110366

>  <chi0_C>
11.819627

>  <chi1>
12.524878

>  <chi1v>
9.0781746

>  <chi1v_C>
4.7665076

>  <chi1_C>
6.5824828

>  <chiral>
0

>  <chiral_u>
0

>  <density>
0.89257342

>  <diameter>
13

>  <FCharge>
0

>  <GCUT_PEOE_0>
-0.84794259

>  <GCUT_PEOE_1>
-0.39551711

>  <GCUT_PEOE_2>
0.062007234

>  <GCUT_PEOE_3>
2.4176786

>  <GCUT_SLOGP_0>
-0.80990809

>  <GCUT_SLOGP_1>
-0.27381903

>  <GCUT_SLOGP_2>
0.32108128

>  <GCUT_SLOGP_3>
2.558356

>  <GCUT_SMR_0>
-0.4856438

>  <GCUT_SMR_1>
-0.1647595

>  <GCUT_SMR_2>
0.37041819

>  <GCUT_SMR_3>
2.7240002

>  <Kier1>
20.727041

>  <Kier2>
9.9722996

>  <Kier3>
5.9972839

>  <KierA1>
18.901457

>  <KierA2>
9.0589914

>  <KierA3>
5.433042

>  <KierFlex>
6.5856977

>  <lip_acc>
4

>  <lip_don>
0

>  <lip_druglike>
1

>  <lip_violation>
1

>  <logP(o/w)>
6.29

>  <logS>
-6.9149699

>  <mr>
10.754277

>  <mutagenic>
0

>  <nmol>
1

>  <opr_brigid>
18

>  <opr_leadlike>
1

>  <opr_nring>
3

>  <opr_nrot>
6

>  <opr_violation>
1

>  <PC+>
0

>  <PC->
0

>  <PEOE_PC+>
1.5274634

>  <PEOE_PC->
-1.5274634

>  <PEOE_RPC+>
0.068211913

>  <PEOE_RPC->
0.2166439

>  <PEOE_VSA+0>
49.259609

>  <PEOE_VSA+1>
96.833183

>  <PEOE_VSA+2>
19.216679

>  <PEOE_VSA+3>
0

>  <PEOE_VSA+4>
0

>  <PEOE_VSA+5>
0

>  <PEOE_VSA+6>
0

>  <PEOE_VSA-0>
63.483059

>  <PEOE_VSA-1>
130.58269

>  <PEOE_VSA-2>
10.885262

>  <PEOE_VSA-3>
0

>  <PEOE_VSA-4>
11.584935

>  <PEOE_VSA-5>
0

>  <PEOE_VSA-6>
0

>  <PEOE_VSA_FHYD>
0.96966064

>  <PEOE_VSA_FNEG>
0.56707752

>  <PEOE_VSA_FPNEG>
0.030339334

>  <PEOE_VSA_FPOL>
0.030339334

>  <PEOE_VSA_FPOS>
0.43292248

>  <PEOE_VSA_FPPOS>
0

>  <PEOE_VSA_HYD>
370.2605

>  <PEOE_VSA_NEG>
216.53595

>  <PEOE_VSA_PNEG>
11.584935

>  <PEOE_VSA_POL>
11.584935

>  <PEOE_VSA_POS>
165.30946

>  <PEOE_VSA_PPOS>
0

>  <petitjean>
0.46153846

>  <petitjeanSC>
0.85714287

>  <Q_PC+>
0

>  <Q_PC->
0

>  <Q_RPC+>
0

>  <Q_RPC->
0

>  <Q_VSA_FHYD>
1

>  <Q_VSA_FNEG>
0

>  <Q_VSA_FPNEG>
0

>  <Q_VSA_FPOL>
0

>  <Q_VSA_FPOS>
1

>  <Q_VSA_FPPOS>
0

>  <Q_VSA_HYD>
381.84543

>  <Q_VSA_NEG>
0

>  <Q_VSA_PNEG>
0

>  <Q_VSA_POL>
0

>  <Q_VSA_POS>
381.84543

>  <Q_VSA_PPOS>
0

>  <radius>
7

>  <reactive>
1

>  <rings>
3

>  <RPC+>
0

>  <RPC->
0

>  <rsynth>
1

>  <SlogP>
6.6506

>  <SlogP_VSA0>
0

>  <SlogP_VSA1>
21.44137

>  <SlogP_VSA2>
11.218763

>  <SlogP_VSA3>
0

>  <SlogP_VSA4>
6.37115

>  <SlogP_VSA5>
19.399862

>  <SlogP_VSA6>
14.002426

>  <SlogP_VSA7>
157.07335

>  <SlogP_VSA8>
0

>  <SlogP_VSA9>
195.96042

>  <SMR>
10.6887

>  <SMR_VSA0>
11.218763

>  <SMR_VSA1>
38.084484

>  <SMR_VSA2>
0

>  <SMR_VSA3>
20.373575

>  <SMR_VSA4>
0

>  <SMR_VSA5>
196.43919

>  <SMR_VSA6>
2.7567475

>  <SMR_VSA7>
156.59457

>  <TPSA>
39.41

>  <VAdjEq>
0.41210872

>  <VAdjMa>
5.8073549

>  <VDistEq>
3.4781201

>  <VDistMa>
9.1171932

>  <vdw_area>
381.84543

>  <vdw_vol>
480.78284

>  <vsa_acc>
16.567839

>  <vsa_acid>
0

>  <vsa_base>
0

>  <vsa_don>
0

>  <vsa_hyd>
318.63181

>  <vsa_other>
37.392429

>  <vsa_pol>
16.567839

>  <Weight>
429.134

>  <weinerPath>
1794

>  <weinerPol>
36

>  <zagreb>
132

$$$$