O=C(c1cccc(CC(=O)N)c1N)c1ccccc1
  MOE2013           2D

 19 20  0  0  0  0  0  0  0  0999 V2000
    0.0000    0.0000    0.0000 O   0  0  0  0  0  0  0  0  0  0  0  0
   -0.7570    1.2950    0.0000 C   0  0  0  0  0  0  0  0  0  0  0  0
   -0.0150    2.5980    0.0000 C   0  0  0  0  0  0  0  0  0  0  0  0
   -0.7720    3.8930    0.0000 C   0  0  0  0  0  0  0  0  0  0  0  0
   -0.0300    5.1960    0.0000 C   0  0  0  0  0  0  0  0  0  0  0  0
    1.4700    5.2050    0.0000 C   0  0  0  0  0  0  0  0  0  0  0  0
    2.2280    3.9100    0.0000 C   0  0  0  0  0  0  0  0  0  0  0  0
    3.7280    3.9190    0.0000 C   0  0  0  0  0  0  0  0  0  0  0  0
    4.4700    5.2220    0.0000 C   0  0  0  0  0  0  0  0  0  0  0  0
    5.9700    5.2300    0.0000 O   0  0  0  0  0  0  0  0  0  0  0  0
    3.7130    6.5170    0.0000 N   0  0  0  0  0  0  0  0  0  0  0  0
    1.4850    2.6070    0.0000 C   0  0  0  0  0  0  0  0  0  0  0  0
    2.2430    1.3120    0.0000 N   0  0  0  0  0  0  0  0  0  0  0  0
   -2.2570    1.2860    0.0000 C   0  0  0  0  0  0  0  0  0  0  0  0
   -3.0150    2.5810    0.0000 C   0  0  0  0  0  0  0  0  0  0  0  0
   -4.5150    2.5720    0.0000 C   0  0  0  0  0  0  0  0  0  0  0  0
   -5.2570    1.2690    0.0000 C   0  0  0  0  0  0  0  0  0  0  0  0
   -4.5000   -0.0260    0.0000 C   0  0  0  0  0  0  0  0  0  0  0  0
   -3.0000   -0.0170    0.0000 C   0  0  0  0  0  0  0  0  0  0  0  0
  1  2  2  0  0  0  0
  2  3  1  0  0  0  0
  2 14  1  0  0  0  0
  3  4  1  0  0  0  0
  3 12  2  0  0  0  0
  4  5  2  0  0  0  0
  5  6  1  0  0  0  0
  6  7  2  0  0  0  0
  7  8  1  0  0  0  0
  7 12  1  0  0  0  0
  8  9  1  0  0  0  0
  9 10  2  0  0  0  0
  9 11  1  0  0  0  0
 12 13  1  0  0  0  0
 14 15  1  0  0  0  0
 14 19  2  0  0  0  0
 15 16  2  0  0  0  0
 16 17  1  0  0  0  0
 17 18  2  0  0  0  0
 18 19  1  0  0  0  0
M  END
>  <Index>
758

>  <ID>
HT1476

>  <class>
0

>  <apol>
39.539101

>  <ast_fraglike>
1

>  <ast_fraglike_ext>
0

>  <ast_violation>
0

>  <ast_violation_ext>
2

>  <a_acc>
2

>  <a_acid>
0

>  <a_aro>
12

>  <a_base>
0

>  <a_count>
33

>  <a_don>
2

>  <a_donacc>
4

>  <a_heavy>
19

>  <a_hyd>
13

>  <a_IC>
50.558678

>  <a_ICM>
1.5320811

>  <a_nB>
0

>  <a_nBr>
0

>  <a_nC>
15

>  <a_nCl>
0

>  <a_nF>
0

>  <a_nH>
14

>  <a_nI>
0

>  <a_nN>
2

>  <a_nO>
2

>  <a_nP>
0

>  <a_nS>
0

>  <balabanJ>
1.9466133

>  <BCUT_PEOE_0>
-2.3504555

>  <BCUT_PEOE_1>
-0.60685289

>  <BCUT_PEOE_2>
0.61624634

>  <BCUT_PEOE_3>
2.3713603

>  <BCUT_SLOGP_0>
-2.5508549

>  <BCUT_SLOGP_1>
-0.54301929

>  <BCUT_SLOGP_2>
0.71663499

>  <BCUT_SLOGP_3>
2.4051828

>  <BCUT_SMR_0>
-2.0551074

>  <BCUT_SMR_1>
-0.42266122

>  <BCUT_SMR_2>
0.75677788

>  <BCUT_SMR_3>
2.6670091

>  <bpol>
15.900898

>  <b_1rotN>
4

>  <b_1rotR>
0.2

>  <b_ar>
12

>  <b_count>
34

>  <b_double>
2

>  <b_heavy>
20

>  <b_max1len>
2

>  <b_rotN>
4

>  <b_rotR>
0.2

>  <b_single>
20

>  <b_triple>
0

>  <chi0>
13.828063

>  <chi0v>
10.297106

>  <chi0v_C>
8.3259087

>  <chi0_C>
9.828063

>  <chi1>
9.0922241

>  <chi1v>
5.8474059

>  <chi1v_C>
4.8618073

>  <chi1_C>
6.7828231

>  <chiral>
0

>  <chiral_u>
0

>  <density>
0.72897333

>  <diameter>
10

>  <FCharge>
0

>  <GCUT_PEOE_0>
-0.82252616

>  <GCUT_PEOE_1>
-0.42078313

>  <GCUT_PEOE_2>
0.077786431

>  <GCUT_PEOE_3>
2.4088104

>  <GCUT_SLOGP_0>
-1.3703864

>  <GCUT_SLOGP_1>
-0.285501

>  <GCUT_SLOGP_2>
0.14828452

>  <GCUT_SLOGP_3>
2.490216

>  <GCUT_SMR_0>
-0.45762461

>  <GCUT_SMR_1>
-0.22210054

>  <GCUT_SMR_2>
0.20780925

>  <GCUT_SMR_3>
2.7104592

>  <Kier1>
15.39

>  <Kier2>
7.1358023

>  <Kier3>
3.9861591

>  <KierA1>
9.9103127

>  <KierA2>
4.470336

>  <KierA3>
2.4436636

>  <KierFlex>
2.3317068

>  <lip_acc>
4

>  <lip_don>
4

>  <lip_druglike>
1

>  <lip_violation>
0

>  <logP(o/w)>
1.776

>  <logS>
-3.4921601

>  <mr>
7.4094658

>  <mutagenic>
1

>  <nmol>
1

>  <opr_brigid>
12

>  <opr_leadlike>
1

>  <opr_nring>
2

>  <opr_nrot>
4

>  <opr_violation>
0

>  <PC+>
0

>  <PC->
0

>  <PEOE_PC+>
1.7033393

>  <PEOE_PC->
-1.7033393

>  <PEOE_RPC+>
0.13080129

>  <PEOE_RPC->
0.21696456

>  <PEOE_VSA+0>
19.647402

>  <PEOE_VSA+1>
42.824402

>  <PEOE_VSA+2>
17.238026

>  <PEOE_VSA+3>
25.696545

>  <PEOE_VSA+4>
12.949531

>  <PEOE_VSA+5>
0

>  <PEOE_VSA+6>
0

>  <PEOE_VSA-0>
14.463444

>  <PEOE_VSA-1>
85.784325

>  <PEOE_VSA-2>
0

>  <PEOE_VSA-3>
0

>  <PEOE_VSA-4>
0

>  <PEOE_VSA-5>
27.133842

>  <PEOE_VSA-6>
13.302238

>  <PEOE_VSA_FHYD>
0.79390961

>  <PEOE_VSA_FNEG>
0.54309756

>  <PEOE_VSA_FPNEG>
0.1560999

>  <PEOE_VSA_FPOL>
0.20609042

>  <PEOE_VSA_FPOS>
0.45690247

>  <PEOE_VSA_FPPOS>
0.049990516

>  <PEOE_VSA_HYD>
205.65414

>  <PEOE_VSA_NEG>
140.68385

>  <PEOE_VSA_PNEG>
40.436081

>  <PEOE_VSA_POL>
53.385612

>  <PEOE_VSA_POS>
118.3559

>  <PEOE_VSA_PPOS>
12.949531

>  <petitjean>
0.5

>  <petitjeanSC>
1

>  <Q_PC+>
0

>  <Q_PC->
0

>  <Q_RPC+>
0

>  <Q_RPC->
0

>  <Q_VSA_FHYD>
1

>  <Q_VSA_FNEG>
0

>  <Q_VSA_FPNEG>
0

>  <Q_VSA_FPOL>
0

>  <Q_VSA_FPOS>
1

>  <Q_VSA_FPPOS>
0

>  <Q_VSA_HYD>
259.03976

>  <Q_VSA_NEG>
0

>  <Q_VSA_PNEG>
0

>  <Q_VSA_POL>
0

>  <Q_VSA_POS>
259.03976

>  <Q_VSA_PPOS>
0

>  <radius>
5

>  <reactive>
1

>  <rings>
2

>  <RPC+>
0

>  <RPC->
0

>  <rsynth>
1

>  <SlogP>
1.52757

>  <SlogP_VSA0>
65.794373

>  <SlogP_VSA1>
10.946395

>  <SlogP_VSA2>
23.862217

>  <SlogP_VSA3>
0

>  <SlogP_VSA4>
33.418941

>  <SlogP_VSA5>
18.868406

>  <SlogP_VSA6>
0

>  <SlogP_VSA7>
141.14548

>  <SlogP_VSA8>
0

>  <SlogP_VSA9>
2.7567475

>  <SMR>
7.36273

>  <SMR_VSA0>
47.724434

>  <SMR_VSA1>
0

>  <SMR_VSA2>
0

>  <SMR_VSA3>
9.5567245

>  <SMR_VSA4>
35.653934

>  <SMR_VSA5>
192.91107

>  <SMR_VSA6>
10.946395

>  <SMR_VSA7>
0

>  <TPSA>
86.18

>  <VAdjEq>
0.5023343

>  <VAdjMa>
5.321928

>  <VDistEq>
3.0760338

>  <VDistMa>
8.2047758

>  <vdw_area>
259.03976

>  <vdw_vol>
348.8317

>  <vsa_acc>
27.133842

>  <vsa_acid>
0

>  <vsa_base>
0

>  <vsa_don>
35.484978

>  <vsa_hyd>
155.60162

>  <vsa_other>
21.408051

>  <vsa_pol>
62.61882

>  <Weight>
254.289

>  <weinerPath>
710

>  <weinerPol>
28

>  <zagreb>
94

$$$$