S1c2c(N(c3c1cccc3)C(=O)CCN1CCOCC1)cc(NC(OCC)=O)cc2
  MOE2013           2D

 30 33  0  0  0  0  0  0  0  0999 V2000
    0.0000    0.0000    0.0000 S   0  0  0  0  0  0  0  0  0  0  0  0
    0.7530    1.2970    0.0000 C   0  0  0  0  0  0  0  0  0  0  0  0
    0.0060    2.5980    0.0000 C   0  0  0  0  0  0  0  0  0  0  0  0
   -1.4940    2.6020    0.0000 N   0  0  0  0  0  0  0  0  0  0  0  0
   -2.2470    1.3040    0.0000 C   0  0  0  0  0  0  0  0  0  0  0  0
   -1.5000    0.0040    0.0000 C   0  0  0  0  0  0  0  0  0  0  0  0
   -2.2530   -1.2940    0.0000 C   0  0  0  0  0  0  0  0  0  0  0  0
   -3.7530   -1.2900    0.0000 C   0  0  0  0  0  0  0  0  0  0  0  0
   -4.5000    0.0110    0.0000 C   0  0  0  0  0  0  0  0  0  0  0  0
   -3.7470    1.3080    0.0000 C   0  0  0  0  0  0  0  0  0  0  0  0
   -2.2410    3.9020    0.0000 C   0  0  0  0  0  0  0  0  0  0  0  0
   -1.4880    5.2000    0.0000 O   0  0  0  0  0  0  0  0  0  0  0  0
   -3.7410    3.9060    0.0000 C   0  0  0  0  0  0  0  0  0  0  0  0
   -4.4880    5.2070    0.0000 C   0  0  0  0  0  0  0  0  0  0  0  0
   -5.9880    5.2110    0.0000 N   0  0  0  0  0  0  0  0  0  0  0  0
   -6.7410    3.9130    0.0000 C   0  0  0  0  0  0  0  0  0  0  0  0
   -8.2410    3.9170    0.0000 C   0  0  0  0  0  0  0  0  0  0  0  0
   -8.9880    5.2180    0.0000 O   0  0  0  0  0  0  0  0  0  0  0  0
   -8.2340    6.5150    0.0000 C   0  0  0  0  0  0  0  0  0  0  0  0
   -6.7340    6.5110    0.0000 C   0  0  0  0  0  0  0  0  0  0  0  0
    0.7590    3.8950    0.0000 C   0  0  0  0  0  0  0  0  0  0  0  0
    2.2590    3.8920    0.0000 C   0  0  0  0  0  0  0  0  0  0  0  0
    3.0120    5.1890    0.0000 N   0  0  0  0  0  0  0  0  0  0  0  0
    4.5120    5.1850    0.0000 C   0  0  0  0  0  0  0  0  0  0  0  0
    5.2660    6.4830    0.0000 O   0  0  0  0  0  0  0  0  0  0  0  0
    6.7660    6.4790    0.0000 C   0  0  0  0  0  0  0  0  0  0  0  0
    7.5190    7.7760    0.0000 C   0  0  0  0  0  0  0  0  0  0  0  0
    5.2590    3.8850    0.0000 O   0  0  0  0  0  0  0  0  0  0  0  0
    3.0060    2.5910    0.0000 C   0  0  0  0  0  0  0  0  0  0  0  0
    2.2530    1.2940    0.0000 C   0  0  0  0  0  0  0  0  0  0  0  0
  1  2  1  0  0  0  0
  1  6  1  0  0  0  0
  2  3  1  0  0  0  0
  2 30  2  0  0  0  0
  3  4  1  0  0  0  0
  3 21  2  0  0  0  0
  4  5  1  0  0  0  0
  4 11  1  0  0  0  0
  5  6  1  0  0  0  0
  5 10  2  0  0  0  0
  6  7  2  0  0  0  0
  7  8  1  0  0  0  0
  8  9  2  0  0  0  0
  9 10  1  0  0  0  0
 11 12  2  0  0  0  0
 11 13  1  0  0  0  0
 13 14  1  0  0  0  0
 14 15  1  0  0  0  0
 15 16  1  0  0  0  0
 15 20  1  0  0  0  0
 16 17  1  0  0  0  0
 17 18  1  0  0  0  0
 18 19  1  0  0  0  0
 19 20  1  0  0  0  0
 21 22  1  0  0  0  0
 22 23  1  0  0  0  0
 22 29  2  0  0  0  0
 23 24  1  0  0  0  0
 24 25  1  0  0  0  0
 24 28  2  0  0  0  0
 25 26  1  0  0  0  0
 26 27  1  0  0  0  0
 29 30  1  0  0  0  0
M  END
>  <Index>
731

>  <ID>
HT1434

>  <class>
0

>  <apol>
64.797829

>  <ast_fraglike>
0

>  <ast_fraglike_ext>
0

>  <ast_violation>
3

>  <ast_violation_ext>
4

>  <a_acc>
4

>  <a_acid>
0

>  <a_aro>
12

>  <a_base>
0

>  <a_count>
55

>  <a_don>
1

>  <a_donacc>
5

>  <a_heavy>
30

>  <a_hyd>
21

>  <a_IC>
91.015999

>  <a_ICM>
1.6548363

>  <a_nB>
0

>  <a_nBr>
0

>  <a_nC>
22

>  <a_nCl>
0

>  <a_nF>
0

>  <a_nH>
25

>  <a_nI>
0

>  <a_nN>
3

>  <a_nO>
4

>  <a_nP>
0

>  <a_nS>
1

>  <balabanJ>
1.4211439

>  <BCUT_PEOE_0>
-2.7188954

>  <BCUT_PEOE_1>
-0.5607869

>  <BCUT_PEOE_2>
0.59158003

>  <BCUT_PEOE_3>
2.6485772

>  <BCUT_SLOGP_0>
-2.8270445

>  <BCUT_SLOGP_1>
-0.48641953

>  <BCUT_SLOGP_2>
0.68527794

>  <BCUT_SLOGP_3>
2.5810375

>  <BCUT_SMR_0>
-2.4515502

>  <BCUT_SMR_1>
-0.39782599

>  <BCUT_SMR_2>
0.73203802

>  <BCUT_SMR_3>
2.9066255

>  <bpol>
39.978176

>  <b_1rotN>
6

>  <b_1rotR>
0.18181819

>  <b_ar>
12

>  <b_count>
58

>  <b_double>
2

>  <b_heavy>
33

>  <b_max1len>
3

>  <b_rotN>
8

>  <b_rotR>
0.24242425

>  <b_single>
44

>  <b_triple>
0

>  <chi0>
20.924074

>  <chi0v>
17.743364

>  <chi0v_C>
13.491199

>  <chi0_C>
14.940947

>  <chi1>
14.652199

>  <chi1v>
10.94869

>  <chi1v_C>
6.1260443

>  <chi1_C>
7.7315116

>  <chiral>
0

>  <chiral_u>
0

>  <density>
0.76548839

>  <diameter>
15

>  <FCharge>
0

>  <GCUT_PEOE_0>
-0.84739476

>  <GCUT_PEOE_1>
-0.41634467

>  <GCUT_PEOE_2>
0.060882509

>  <GCUT_PEOE_3>
2.7278066

>  <GCUT_SLOGP_0>
-0.99328506

>  <GCUT_SLOGP_1>
-0.29143164

>  <GCUT_SLOGP_2>
0.14075786

>  <GCUT_SLOGP_3>
2.8230178

>  <GCUT_SMR_0>
-0.51578921

>  <GCUT_SMR_1>
-0.18554913

>  <GCUT_SMR_2>
0.17934856

>  <GCUT_SMR_3>
3.0205545

>  <Kier1>
23.168043

>  <Kier2>
11.227654

>  <Kier3>
5.8800001

>  <KierA1>
18.743801

>  <KierA2>
9.0133333

>  <KierA3>
4.6944447

>  <KierFlex>
5.6314712

>  <lip_acc>
7

>  <lip_don>
1

>  <lip_druglike>
1

>  <lip_violation>
0

>  <logP(o/w)>
2.4630001

>  <logS>
-4.5862999

>  <mr>
11.740773

>  <mutagenic>
0

>  <nmol>
1

>  <opr_brigid>
22

>  <opr_leadlike>
1

>  <opr_nring>
4

>  <opr_nrot>
7

>  <opr_violation>
0

>  <PC+>
0

>  <PC->
0

>  <PEOE_PC+>
2.4875519

>  <PEOE_PC->
-2.4875519

>  <PEOE_RPC+>
0.14674595

>  <PEOE_RPC->
0.15165211

>  <PEOE_VSA+0>
110.26629

>  <PEOE_VSA+1>
113.703

>  <PEOE_VSA+2>
0

>  <PEOE_VSA+3>
8.6190128

>  <PEOE_VSA+4>
12.949531

>  <PEOE_VSA+5>
0

>  <PEOE_VSA+6>
19.199511

>  <PEOE_VSA-0>
80.022194

>  <PEOE_VSA-1>
44.270424

>  <PEOE_VSA-2>
0

>  <PEOE_VSA-3>
0

>  <PEOE_VSA-4>
13.566921

>  <PEOE_VSA-5>
16.070677

>  <PEOE_VSA-6>
2.6406472

>  <PEOE_VSA_FHYD>
0.84707803

>  <PEOE_VSA_FNEG>
0.37163022

>  <PEOE_VSA_FPNEG>
0.076614328

>  <PEOE_VSA_FPOL>
0.15292199

>  <PEOE_VSA_FPOS>
0.62836975

>  <PEOE_VSA_FPPOS>
0.076307654

>  <PEOE_VSA_HYD>
356.88092

>  <PEOE_VSA_NEG>
156.57086

>  <PEOE_VSA_PNEG>
32.278244

>  <PEOE_VSA_POL>
64.427284

>  <PEOE_VSA_POS>
264.73734

>  <PEOE_VSA_PPOS>
32.14904

>  <petitjean>
0.46666667

>  <petitjeanSC>
0.875

>  <Q_PC+>
0

>  <Q_PC->
0

>  <Q_RPC+>
0

>  <Q_RPC->
0

>  <Q_VSA_FHYD>
1

>  <Q_VSA_FNEG>
0

>  <Q_VSA_FPNEG>
0

>  <Q_VSA_FPOL>
0

>  <Q_VSA_FPOS>
1

>  <Q_VSA_FPPOS>
0

>  <Q_VSA_HYD>
421.3082

>  <Q_VSA_NEG>
0

>  <Q_VSA_PNEG>
0

>  <Q_VSA_POL>
0

>  <Q_VSA_POS>
421.3082

>  <Q_VSA_PPOS>
0

>  <radius>
8

>  <reactive>
0

>  <rings>
4

>  <RPC+>
0

>  <RPC->
0

>  <rsynth>
1

>  <SlogP>
4.1065998

>  <SlogP_VSA0>
3.1243138

>  <SlogP_VSA1>
33.710484

>  <SlogP_VSA2>
45.861992

>  <SlogP_VSA3>
118.09751

>  <SlogP_VSA4>
0

>  <SlogP_VSA5>
3.1014678

>  <SlogP_VSA6>
0

>  <SlogP_VSA7>
123.50229

>  <SlogP_VSA8>
18.868406

>  <SlogP_VSA9>
97.678017

>  <SMR>
11.66747

>  <SMR_VSA0>
69.724205

>  <SMR_VSA1>
3.1243138

>  <SMR_VSA2>
6.2257819

>  <SMR_VSA3>
0

>  <SMR_VSA4>
26.280993

>  <SMR_VSA5>
142.3707

>  <SMR_VSA6>
130.67293

>  <SMR_VSA7>
65.545555

>  <TPSA>
71.110001

>  <VAdjEq>
0.37824166

>  <VAdjMa>
6.044394

>  <VDistEq>
3.5819921

>  <VDistMa>
9.5374193

>  <vdw_area>
421.3082

>  <vdw_vol>
558.49963

>  <vsa_acc>
29.637598

>  <vsa_acid>
0

>  <vsa_base>
0

>  <vsa_don>
5.6825762

>  <vsa_hyd>
331.17883

>  <vsa_other>
34.652798

>  <vsa_pol>
35.320175

>  <Weight>
427.52499

>  <weinerPath>
2500

>  <weinerPol>
48

>  <zagreb>
156

$$$$