O(C)c1cc2C[C@H](N(Cc2cc1OC)C(=O)[C@@H](N[C@@H](CCc1ccccc1)C(OCC)=O)C)C(O)=O
  MOE2013           2D

 36 38  0  0  1  0  0  0  0  0999 V2000
    0.0000    0.0000    0.0000 O   0  0  0  0  0  0  0  0  0  0  0  0
    0.7590    1.2940    0.0000 C   0  0  0  0  0  0  0  0  0  0  0  0
   -1.5000    0.0100    0.0000 C   0  0  0  0  0  0  0  0  0  0  0  0
   -2.2410    1.3140    0.0000 C   0  0  0  0  0  0  0  0  0  0  0  0
   -3.7410    1.3240    0.0000 C   0  0  0  0  0  0  0  0  0  0  0  0
   -4.4830    2.6280    0.0000 C   0  0  0  0  0  0  0  0  0  0  0  0
   -5.9830    2.6380    0.0000 C   0  0  2  0  0  0  0  0  0  0  0  0
   -6.7410    1.3440    0.0000 N   0  0  0  0  0  0  0  0  0  0  0  0
   -6.0000    0.0400    0.0000 C   0  0  0  0  0  0  0  0  0  0  0  0
   -4.5000    0.0300    0.0000 C   0  0  0  0  0  0  0  0  0  0  0  0
   -3.7590   -1.2740    0.0000 C   0  0  0  0  0  0  0  0  0  0  0  0
   -2.2590   -1.2840    0.0000 C   0  0  0  0  0  0  0  0  0  0  0  0
   -1.5170   -2.5880    0.0000 O   0  0  0  0  0  0  0  0  0  0  0  0
   -2.2760   -3.8820    0.0000 C   0  0  0  0  0  0  0  0  0  0  0  0
   -8.2410    1.3540    0.0000 C   0  0  0  0  0  0  0  0  0  0  0  0
   -8.9820    2.6580    0.0000 O   0  0  0  0  0  0  0  0  0  0  0  0
   -9.0000    0.0600    0.0000 C   0  0  1  0  0  0  0  0  0  0  0  0
  -10.5000    0.0700    0.0000 N   0  0  0  0  0  0  0  0  0  0  0  0
  -11.2580   -1.2240    0.0000 C   0  0  1  0  0  0  0  0  0  0  0  0
  -10.5170   -2.5280    0.0000 C   0  0  0  0  0  0  0  0  0  0  0  0
  -11.2760   -3.8220    0.0000 C   0  0  0  0  0  0  0  0  0  0  0  0
  -10.5340   -5.1260    0.0000 C   0  0  0  0  0  0  0  0  0  0  0  0
   -9.0340   -5.1360    0.0000 C   0  0  0  0  0  0  0  0  0  0  0  0
   -8.2930   -6.4400    0.0000 C   0  0  0  0  0  0  0  0  0  0  0  0
   -9.0520   -7.7340    0.0000 C   0  0  0  0  0  0  0  0  0  0  0  0
  -10.5520   -7.7240    0.0000 C   0  0  0  0  0  0  0  0  0  0  0  0
  -11.2930   -6.4200    0.0000 C   0  0  0  0  0  0  0  0  0  0  0  0
  -12.7580   -1.2140    0.0000 C   0  0  0  0  0  0  0  0  0  0  0  0
  -13.5000    0.0900    0.0000 O   0  0  0  0  0  0  0  0  0  0  0  0
  -15.0000    0.1000    0.0000 C   0  0  0  0  0  0  0  0  0  0  0  0
  -15.7410    1.4040    0.0000 C   0  0  0  0  0  0  0  0  0  0  0  0
  -13.5170   -2.5080    0.0000 O   0  0  0  0  0  0  0  0  0  0  0  0
   -8.2580   -1.2440    0.0000 C   0  0  0  0  0  0  0  0  0  0  0  0
   -6.7240    3.9420    0.0000 C   0  0  0  0  0  0  0  0  0  0  0  0
   -8.2240    3.9520    0.0000 O   0  0  0  0  0  0  0  0  0  0  0  0
   -5.9650    5.2360    0.0000 O   0  0  0  0  0  0  0  0  0  0  0  0
  1  2  1  0  0  0  0
  1  3  1  0  0  0  0
  3  4  1  0  0  0  0
  3 12  2  0  0  0  0
  4  5  2  0  0  0  0
  5  6  1  0  0  0  0
  5 10  1  0  0  0  0
  6  7  1  0  0  0  0
  7  8  1  0  0  0  0
  7 34  1  6  0  0  0
  8  9  1  0  0  0  0
  8 15  1  0  0  0  0
  9 10  1  0  0  0  0
 10 11  2  0  0  0  0
 11 12  1  0  0  0  0
 12 13  1  0  0  0  0
 13 14  1  0  0  0  0
 15 16  2  0  0  0  0
 15 17  1  0  0  0  0
 17 18  1  0  0  0  0
 17 33  1  6  0  0  0
 18 19  1  0  0  0  0
 19 20  1  0  0  0  0
 19 28  1  1  0  0  0
 20 21  1  0  0  0  0
 21 22  1  0  0  0  0
 22 23  1  0  0  0  0
 22 27  2  0  0  0  0
 23 24  2  0  0  0  0
 24 25  1  0  0  0  0
 25 26  2  0  0  0  0
 26 27  1  0  0  0  0
 28 29  1  0  0  0  0
 28 32  2  0  0  0  0
 29 30  1  0  0  0  0
 30 31  1  0  0  0  0
 34 35  1  0  0  0  0
 34 36  2  0  0  0  0
M  END
>  <Index>
726

>  <ID>
HT1423

>  <class>
0

>  <apol>
78.004959

>  <ast_fraglike>
0

>  <ast_fraglike_ext>
0

>  <ast_violation>
2

>  <ast_violation_ext>
4

>  <a_acc>
7

>  <a_acid>
0

>  <a_aro>
12

>  <a_base>
0

>  <a_count>
70

>  <a_don>
3

>  <a_donacc>
10

>  <a_heavy>
36

>  <a_hyd>
24

>  <a_IC>
106.04263

>  <a_ICM>
1.5148947

>  <a_nB>
0

>  <a_nBr>
0

>  <a_nC>
27

>  <a_nCl>
0

>  <a_nF>
0

>  <a_nH>
34

>  <a_nI>
0

>  <a_nN>
2

>  <a_nO>
7

>  <a_nP>
0

>  <a_nS>
0

>  <balabanJ>
1.6544001

>  <BCUT_PEOE_0>
-2.66484

>  <BCUT_PEOE_1>
-0.51634657

>  <BCUT_PEOE_2>
0.48857871

>  <BCUT_PEOE_3>
2.6707847

>  <BCUT_SLOGP_0>
-2.8284755

>  <BCUT_SLOGP_1>
-0.47330111

>  <BCUT_SLOGP_2>
0.49884138

>  <BCUT_SLOGP_3>
2.619029

>  <BCUT_SMR_0>
-2.4025457

>  <BCUT_SMR_1>
-0.32355925

>  <BCUT_SMR_2>
0.64155883

>  <BCUT_SMR_3>
2.9261625

>  <bpol>
48.431038

>  <b_1rotN>
12

>  <b_1rotR>
0.31578946

>  <b_ar>
12

>  <b_count>
72

>  <b_double>
3

>  <b_heavy>
38

>  <b_max1len>
7

>  <b_rotN>
13

>  <b_rotR>
0.34210527

>  <b_single>
57

>  <b_triple>
0

>  <chi0>
26.241911

>  <chi0v>
21.152954

>  <chi0v_C>
17.309036

>  <chi0_C>
18.836134

>  <chi1>
17.281626

>  <chi1v>
12.021931

>  <chi1v_C>
8.0930233

>  <chi1_C>
9.9418545

>  <chiral>
3

>  <chiral_u>
0

>  <density>
0.73904902

>  <diameter>
17

>  <FCharge>
0

>  <GCUT_PEOE_0>
-0.8223021

>  <GCUT_PEOE_1>
-0.39002725

>  <GCUT_PEOE_2>
0.058471225

>  <GCUT_PEOE_3>
2.9118297

>  <GCUT_SLOGP_0>
-1.1549678

>  <GCUT_SLOGP_1>
-0.34049425

>  <GCUT_SLOGP_2>
0.059264679

>  <GCUT_SLOGP_3>
2.9147453

>  <GCUT_SMR_0>
-0.51983106

>  <GCUT_SMR_1>
-0.20405011

>  <GCUT_SMR_2>
0.1573423

>  <GCUT_SMR_3>
3.1573367

>  <Kier1>
30.540167

>  <Kier2>
14.963017

>  <Kier3>
8.25

>  <KierA1>
24.214439

>  <KierA2>
11.780536

>  <KierA3>
6.463325

>  <KierFlex>
7.9238629

>  <lip_acc>
9

>  <lip_don>
2

>  <lip_druglike>
1

>  <lip_violation>
0

>  <logP(o/w)>
3.2897401

>  <logS>
-4.5661602

>  <mr>
13.596504

>  <mutagenic>
0

>  <nmol>
1

>  <opr_brigid>
17

>  <opr_leadlike>
0

>  <opr_nring>
3

>  <opr_nrot>
12

>  <opr_violation>
3

>  <PC+>
0

>  <PC->
0

>  <PEOE_PC+>
3.3411491

>  <PEOE_PC->
-3.3411491

>  <PEOE_RPC+>
0.084618434

>  <PEOE_RPC->
0.10335743

>  <PEOE_VSA+0>
123.07359

>  <PEOE_VSA+1>
106.55093

>  <PEOE_VSA+2>
28.682013

>  <PEOE_VSA+3>
0

>  <PEOE_VSA+4>
23.273705

>  <PEOE_VSA+5>
29.416998

>  <PEOE_VSA+6>
0

>  <PEOE_VSA-0>
86.033409

>  <PEOE_VSA-1>
61.274521

>  <PEOE_VSA-2>
0

>  <PEOE_VSA-3>
0

>  <PEOE_VSA-4>
0

>  <PEOE_VSA-5>
40.837654

>  <PEOE_VSA-6>
15.278809

>  <PEOE_VSA_FHYD>
0.78848642

>  <PEOE_VSA_FNEG>
0.39544293

>  <PEOE_VSA_FPNEG>
0.10908651

>  <PEOE_VSA_FPOL>
0.21151359

>  <PEOE_VSA_FPOS>
0.6045571

>  <PEOE_VSA_FPPOS>
0.10242707

>  <PEOE_VSA_HYD>
405.61447

>  <PEOE_VSA_NEG>
203.42439

>  <PEOE_VSA_PNEG>
56.116463

>  <PEOE_VSA_POL>
108.80717

>  <PEOE_VSA_POS>
310.99722

>  <PEOE_VSA_PPOS>
52.690701

>  <petitjean>
0.47058824

>  <petitjeanSC>
0.8888889

>  <Q_PC+>
0

>  <Q_PC->
0

>  <Q_RPC+>
0

>  <Q_RPC->
0

>  <Q_VSA_FHYD>
1

>  <Q_VSA_FNEG>
0

>  <Q_VSA_FPNEG>
0

>  <Q_VSA_FPOL>
0

>  <Q_VSA_FPOS>
1

>  <Q_VSA_FPPOS>
0

>  <Q_VSA_HYD>
514.42163

>  <Q_VSA_NEG>
0

>  <Q_VSA_PNEG>
0

>  <Q_VSA_POL>
0

>  <Q_VSA_POS>
514.42163

>  <Q_VSA_PPOS>
0

>  <radius>
9

>  <reactive>
0

>  <rings>
3

>  <RPC+>
0

>  <RPC->
0

>  <rsynth>
0.58333331

>  <SlogP>
2.8506401

>  <SlogP_VSA0>
40.010525

>  <SlogP_VSA1>
23.874025

>  <SlogP_VSA2>
94.53244

>  <SlogP_VSA3>
46.311485

>  <SlogP_VSA4>
9.5567245

>  <SlogP_VSA5>
108.50455

>  <SlogP_VSA6>
0

>  <SlogP_VSA7>
123.50229

>  <SlogP_VSA8>
18.868406

>  <SlogP_VSA9>
95.578461

>  <SMR>
13.32105

>  <SMR_VSA0>
82.58654

>  <SMR_VSA1>
25.12409

>  <SMR_VSA2>
43.395977

>  <SMR_VSA3>
31.989487

>  <SMR_VSA4>
0

>  <SMR_VSA5>
198.54709

>  <SMR_VSA6>
41.675972

>  <SMR_VSA7>
137.41977

>  <TPSA>
114.4

>  <VAdjEq>
0.32203031

>  <VAdjMa>
6.2479277

>  <VDistEq>
3.8167691

>  <VDistMa>
10.066745

>  <vdw_area>
514.42163

>  <vdw_vol>
674.61829

>  <vsa_acc>
32.141354

>  <vsa_acid>
0

>  <vsa_base>
0

>  <vsa_don>
0

>  <vsa_hyd>
374.21799

>  <vsa_other>
44.870285

>  <vsa_pol>
64.957771

>  <Weight>
498.57599

>  <weinerPath>
4226

>  <weinerPol>
59

>  <zagreb>
180

$$$$