Clc1cc(N2CCN(CC2)CCCN2N=C(N(CCOc3ccccc3)C2=O)CC)ccc1
  MOE2013           2D

 33 36  0  0  0  0  0  0  0  0999 V2000
    0.0000    0.0000    0.0000 Cl  0  0  0  0  0  0  0  0  0  0  0  0
    1.1260    0.9910    0.0000 C   0  0  0  0  0  0  0  0  0  0  0  0
    2.5470    0.5110    0.0000 C   0  0  0  0  0  0  0  0  0  0  0  0
    3.6740    1.5020    0.0000 C   0  0  0  0  0  0  0  0  0  0  0  0
    5.0950    1.0220    0.0000 N   0  0  0  0  0  0  0  0  0  0  0  0
    6.2210    2.0130    0.0000 C   0  0  0  0  0  0  0  0  0  0  0  0
    7.6420    1.5330    0.0000 C   0  0  0  0  0  0  0  0  0  0  0  0
    7.9370    0.0620    0.0000 N   0  0  0  0  0  0  0  0  0  0  0  0
    6.8110   -0.9290    0.0000 C   0  0  0  0  0  0  0  0  0  0  0  0
    5.3900   -0.4490    0.0000 C   0  0  0  0  0  0  0  0  0  0  0  0
    9.3580   -0.4180    0.0000 C   0  0  0  0  0  0  0  0  0  0  0  0
   10.4840    0.5730    0.0000 C   0  0  0  0  0  0  0  0  0  0  0  0
   11.9060    0.0930    0.0000 C   0  0  0  0  0  0  0  0  0  0  0  0
   13.0320    1.0840    0.0000 N   0  0  0  0  0  0  0  0  0  0  0  0
   12.8920    2.5770    0.0000 N   0  0  0  0  0  0  0  0  0  0  0  0
   14.2690    3.1720    0.0000 C   0  0  0  0  0  0  0  0  0  0  0  0
   15.2600    2.0450    0.0000 N   0  0  0  0  0  0  0  0  0  0  0  0
   16.7540    2.1850    0.0000 C   0  0  0  0  0  0  0  0  0  0  0  0
   17.6210    0.9610    0.0000 C   0  0  0  0  0  0  0  0  0  0  0  0
   19.1150    1.1010    0.0000 O   0  0  0  0  0  0  0  0  0  0  0  0
   19.9820   -0.1230    0.0000 C   0  0  0  0  0  0  0  0  0  0  0  0
   19.3570   -1.4860    0.0000 C   0  0  0  0  0  0  0  0  0  0  0  0
   20.2240   -2.7090    0.0000 C   0  0  0  0  0  0  0  0  0  0  0  0
   21.7180   -2.5700    0.0000 C   0  0  0  0  0  0  0  0  0  0  0  0
   22.3440   -1.2070    0.0000 C   0  0  0  0  0  0  0  0  0  0  0  0
   21.4760    0.0170    0.0000 C   0  0  0  0  0  0  0  0  0  0  0  0
   14.4950    0.7550    0.0000 C   0  0  0  0  0  0  0  0  0  0  0  0
   15.0900   -0.6220    0.0000 O   0  0  0  0  0  0  0  0  0  0  0  0
   14.5980    4.6350    0.0000 C   0  0  0  0  0  0  0  0  0  0  0  0
   13.4950    5.6520    0.0000 C   0  0  0  0  0  0  0  0  0  0  0  0
    3.3790    2.9720    0.0000 C   0  0  0  0  0  0  0  0  0  0  0  0
    1.9570    3.4520    0.0000 C   0  0  0  0  0  0  0  0  0  0  0  0
    0.8310    2.4620    0.0000 C   0  0  0  0  0  0  0  0  0  0  0  0
  1  2  1  0  0  0  0
  2  3  1  0  0  0  0
  2 33  2  0  0  0  0
  3  4  2  0  0  0  0
  4  5  1  0  0  0  0
  4 31  1  0  0  0  0
  5  6  1  0  0  0  0
  5 10  1  0  0  0  0
  6  7  1  0  0  0  0
  7  8  1  0  0  0  0
  8  9  1  0  0  0  0
  8 11  1  0  0  0  0
  9 10  1  0  0  0  0
 11 12  1  0  0  0  0
 12 13  1  0  0  0  0
 13 14  1  0  0  0  0
 14 15  1  0  0  0  0
 14 27  1  0  0  0  0
 15 16  2  0  0  0  0
 16 17  1  0  0  0  0
 16 29  1  0  0  0  0
 17 18  1  0  0  0  0
 17 27  1  0  0  0  0
 18 19  1  0  0  0  0
 19 20  1  0  0  0  0
 20 21  1  0  0  0  0
 21 22  1  0  0  0  0
 21 26  2  0  0  0  0
 22 23  2  0  0  0  0
 23 24  1  0  0  0  0
 24 25  2  0  0  0  0
 25 26  1  0  0  0  0
 27 28  2  0  0  0  0
 29 30  1  0  0  0  0
 31 32  2  0  0  0  0
 32 33  1  0  0  0  0
M  END
>  <Index>
754

>  <ID>
HT1470

>  <class>
0

>  <apol>
74.621376

>  <ast_fraglike>
0

>  <ast_fraglike_ext>
0

>  <ast_violation>
3

>  <ast_violation_ext>
4

>  <a_acc>
4

>  <a_acid>
0

>  <a_aro>
12

>  <a_base>
0

>  <a_count>
65

>  <a_don>
0

>  <a_donacc>
4

>  <a_heavy>
33

>  <a_hyd>
24

>  <a_IC>
101.74786

>  <a_ICM>
1.5653517

>  <a_nB>
0

>  <a_nBr>
0

>  <a_nC>
25

>  <a_nCl>
1

>  <a_nF>
0

>  <a_nH>
32

>  <a_nI>
0

>  <a_nN>
5

>  <a_nO>
2

>  <a_nP>
0

>  <a_nS>
0

>  <balabanJ>
1.1227237

>  <BCUT_PEOE_0>
-2.7716341

>  <BCUT_PEOE_1>
-0.60058367

>  <BCUT_PEOE_2>
0.61369562

>  <BCUT_PEOE_3>
2.6787159

>  <BCUT_SLOGP_0>
-2.8864267

>  <BCUT_SLOGP_1>
-0.48061225

>  <BCUT_SLOGP_2>
0.75219798

>  <BCUT_SLOGP_3>
2.5973036

>  <BCUT_SMR_0>
-2.4820035

>  <BCUT_SMR_1>
-0.39066595

>  <BCUT_SMR_2>
0.80070394

>  <BCUT_SMR_3>
2.9608436

>  <bpol>
46.196625

>  <b_1rotN>
10

>  <b_1rotR>
0.27777779

>  <b_ar>
12

>  <b_count>
68

>  <b_double>
2

>  <b_heavy>
36

>  <b_max1len>
4

>  <b_rotN>
10

>  <b_rotR>
0.27777779

>  <b_single>
54

>  <b_triple>
0

>  <chi0>
23.045395

>  <chi0v>
19.953678

>  <chi0v_C>
15.76722

>  <chi0_C>
17.321779

>  <chi1>
16.135361

>  <chi1v>
12.088209

>  <chi1v_C>
7.2927108

>  <chi1_C>
9.0648451

>  <chiral>
0

>  <chiral_u>
0

>  <density>
0.73248047

>  <diameter>
20

>  <FCharge>
0

>  <GCUT_PEOE_0>
-0.85442621

>  <GCUT_PEOE_1>
-0.39480796

>  <GCUT_PEOE_2>
0.04799008

>  <GCUT_PEOE_3>
2.800036

>  <GCUT_SLOGP_0>
-0.98958129

>  <GCUT_SLOGP_1>
-0.289958

>  <GCUT_SLOGP_2>
0.15460099

>  <GCUT_SLOGP_3>
2.7967091

>  <GCUT_SMR_0>
-0.52181476

>  <GCUT_SMR_1>
-0.18888573

>  <GCUT_SMR_2>
0.17626196

>  <GCUT_SMR_3>
3.0557539

>  <Kier1>
26.074074

>  <Kier2>
13.347222

>  <Kier3>
7.4921956

>  <KierA1>
21.074999

>  <KierA2>
10.712407

>  <KierA3>
5.9824004

>  <KierFlex>
6.8413324

>  <lip_acc>
7

>  <lip_don>
0

>  <lip_druglike>
1

>  <lip_violation>
0

>  <logP(o/w)>
4.3249998

>  <logS>
-4.89358

>  <mr>
13.179192

>  <mutagenic>
0

>  <nmol>
1

>  <opr_brigid>
23

>  <opr_leadlike>
0

>  <opr_nring>
4

>  <opr_nrot>
12

>  <opr_violation>
2

>  <PC+>
0

>  <PC->
0

>  <PEOE_PC+>
2.3798156

>  <PEOE_PC->
-2.3798156

>  <PEOE_RPC+>
0.14572142

>  <PEOE_RPC->
0.14410152

>  <PEOE_VSA+0>
171.58612

>  <PEOE_VSA+1>
100.58292

>  <PEOE_VSA+2>
11.190562

>  <PEOE_VSA+3>
0

>  <PEOE_VSA+4>
0

>  <PEOE_VSA+5>
0

>  <PEOE_VSA+6>
17.440542

>  <PEOE_VSA-0>
69.97583

>  <PEOE_VSA-1>
97.349243

>  <PEOE_VSA-2>
0

>  <PEOE_VSA-3>
9.4210396

>  <PEOE_VSA-4>
13.566921

>  <PEOE_VSA-5>
0

>  <PEOE_VSA-6>
2.503756

>  <PEOE_VSA_FHYD>
0.93211091

>  <PEOE_VSA_FNEG>
0.39062029

>  <PEOE_VSA_FPNEG>
0.032556981

>  <PEOE_VSA_FPOL>
0.067889117

>  <PEOE_VSA_FPOS>
0.60937971

>  <PEOE_VSA_FPPOS>
0.03533214

>  <PEOE_VSA_HYD>
460.10571

>  <PEOE_VSA_NEG>
192.81679

>  <PEOE_VSA_PNEG>
16.070677

>  <PEOE_VSA_POL>
33.511219

>  <PEOE_VSA_POS>
300.80014

>  <PEOE_VSA_PPOS>
17.440542

>  <petitjean>
0.5

>  <petitjeanSC>
1

>  <Q_PC+>
0

>  <Q_PC->
0

>  <Q_RPC+>
0

>  <Q_RPC->
0

>  <Q_VSA_FHYD>
1

>  <Q_VSA_FNEG>
0

>  <Q_VSA_FPNEG>
0

>  <Q_VSA_FPOL>
0

>  <Q_VSA_FPOS>
1

>  <Q_VSA_FPPOS>
0

>  <Q_VSA_HYD>
493.61694

>  <Q_VSA_NEG>
0

>  <Q_VSA_PNEG>
0

>  <Q_VSA_POL>
0

>  <Q_VSA_POS>
493.61694

>  <Q_VSA_PPOS>
0

>  <radius>
10

>  <reactive>
0

>  <rings>
4

>  <RPC+>
0

>  <RPC->
0

>  <rsynth>
1

>  <SlogP>
4.3922

>  <SlogP_VSA0>
14.124202

>  <SlogP_VSA1>
16.408297

>  <SlogP_VSA2>
0

>  <SlogP_VSA3>
150.00331

>  <SlogP_VSA4>
0

>  <SlogP_VSA5>
16.663008

>  <SlogP_VSA6>
3.5006065

>  <SlogP_VSA7>
158.78867

>  <SlogP_VSA8>
37.736813

>  <SlogP_VSA9>
104.33705

>  <SMR>
13.3193

>  <SMR_VSA0>
23.862217

>  <SMR_VSA1>
36.913315

>  <SMR_VSA2>
3.1243138

>  <SMR_VSA3>
8.7440348

>  <SMR_VSA4>
2.7567475

>  <SMR_VSA5>
196.52547

>  <SMR_VSA6>
157.16118

>  <SMR_VSA7>
72.474655

>  <TPSA>
51.619999

>  <VAdjEq>
0.3512581

>  <VAdjMa>
6.1699252

>  <VDistEq>
4.0999079

>  <VDistMa>
9.7490063

>  <vdw_area>
493.61694

>  <vdw_vol>
641.67853

>  <vsa_acc>
25.491716

>  <vsa_acid>
0

>  <vsa_base>
0

>  <vsa_don>
0

>  <vsa_hyd>
416.71667

>  <vsa_other>
28.631105

>  <vsa_pol>
25.491716

>  <Weight>
470.017

>  <weinerPath>
4032

>  <weinerPol>
48

>  <zagreb>
168

$$$$