S(C[C@H](NC(=O)c1cccc(O)c1C)[C@H](O)CN1C[C@@H]2[C@H](C[C@H]1C(=O)NC(C)(C)C)CCCC2)c1ccccc1
  MOE2013           2D

 40 43  0  0  1  0  0  0  0  0999 V2000
    0.0000    0.0000    0.0000 S   0  0  0  0  0  0  0  0  0  0  0  0
   -1.5000    0.0000    0.0000 C   0  0  0  0  0  0  0  0  0  0  0  0
   -2.2500    1.2990    0.0000 C   0  0  2  0  0  0  0  0  0  0  0  0
   -1.5000    2.5980    0.0000 N   0  0  0  0  0  0  0  0  0  0  0  0
    0.0000    2.5980    0.0000 C   0  0  0  0  0  0  0  0  0  0  0  0
    0.7500    1.2990    0.0000 O   0  0  0  0  0  0  0  0  0  0  0  0
    0.7500    3.8970    0.0000 C   0  0  0  0  0  0  0  0  0  0  0  0
    0.0000    5.1960    0.0000 C   0  0  0  0  0  0  0  0  0  0  0  0
    0.7500    6.4950    0.0000 C   0  0  0  0  0  0  0  0  0  0  0  0
    2.2500    6.4950    0.0000 C   0  0  0  0  0  0  0  0  0  0  0  0
    3.0000    5.1960    0.0000 C   0  0  0  0  0  0  0  0  0  0  0  0
    4.5000    5.1960    0.0000 O   0  0  0  0  0  0  0  0  0  0  0  0
    2.2500    3.8970    0.0000 C   0  0  0  0  0  0  0  0  0  0  0  0
    3.0000    2.5980    0.0000 C   0  0  0  0  0  0  0  0  0  0  0  0
   -3.7500    1.2990    0.0000 C   0  0  2  0  0  0  0  0  0  0  0  0
   -4.5000    2.5980    0.0000 O   0  0  0  0  0  0  0  0  0  0  0  0
   -4.5000    0.0000    0.0000 C   0  0  0  0  0  0  0  0  0  0  0  0
   -6.0000    0.0000    0.0000 N   0  0  3  0  0  0  0  0  0  0  0  0
   -6.7500    1.3000    0.0000 C   0  0  0  0  0  0  0  0  0  0  0  0
   -8.2500    1.3000    0.0000 C   0  0  2  0  0  0  0  0  0  0  0  0
   -9.0000    0.0010    0.0000 C   0  0  2  0  0  0  0  0  0  0  0  0
   -8.2500   -1.2980    0.0000 C   0  0  0  0  0  0  0  0  0  0  0  0
   -6.7500   -1.2990    0.0000 C   0  0  1  0  0  0  0  0  0  0  0  0
   -6.0000   -2.5980    0.0000 C   0  0  0  0  0  0  0  0  0  0  0  0
   -4.5000   -2.5980    0.0000 O   0  0  0  0  0  0  0  0  0  0  0  0
   -6.7500   -3.8970    0.0000 N   0  0  0  0  0  0  0  0  0  0  0  0
   -6.0000   -5.1960    0.0000 C   0  0  0  0  0  0  0  0  0  0  0  0
   -7.2990   -5.9460    0.0000 C   0  0  0  0  0  0  0  0  0  0  0  0
   -5.2500   -6.4950    0.0000 C   0  0  0  0  0  0  0  0  0  0  0  0
   -4.7010   -4.4460    0.0000 C   0  0  0  0  0  0  0  0  0  0  0  0
  -10.5000    0.0010    0.0000 C   0  0  0  0  0  0  0  0  0  0  0  0
  -11.2500    1.3000    0.0000 C   0  0  0  0  0  0  0  0  0  0  0  0
  -10.5000    2.5990    0.0000 C   0  0  0  0  0  0  0  0  0  0  0  0
   -9.0000    2.5990    0.0000 C   0  0  0  0  0  0  0  0  0  0  0  0
    0.7500   -1.2990    0.0000 C   0  0  0  0  0  0  0  0  0  0  0  0
    0.0000   -2.5980    0.0000 C   0  0  0  0  0  0  0  0  0  0  0  0
    0.7500   -3.8970    0.0000 C   0  0  0  0  0  0  0  0  0  0  0  0
    2.2500   -3.8970    0.0000 C   0  0  0  0  0  0  0  0  0  0  0  0
    3.0000   -2.5980    0.0000 C   0  0  0  0  0  0  0  0  0  0  0  0
    2.2500   -1.2990    0.0000 C   0  0  0  0  0  0  0  0  0  0  0  0
  1  2  1  0  0  0  0
  1 35  1  0  0  0  0
  3  2  1  1  0  0  0
  3  4  1  0  0  0  0
  3 15  1  0  0  0  0
  4  5  1  0  0  0  0
  5  6  2  0  0  0  0
  5  7  1  0  0  0  0
  7  8  1  0  0  0  0
  7 13  2  0  0  0  0
  8  9  2  0  0  0  0
  9 10  1  0  0  0  0
 10 11  2  0  0  0  0
 11 12  1  0  0  0  0
 11 13  1  0  0  0  0
 13 14  1  0  0  0  0
 15 16  1  1  0  0  0
 15 17  1  0  0  0  0
 17 18  1  0  0  0  0
 18 19  1  0  0  0  0
 18 23  1  0  0  0  0
 20 19  1  6  0  0  0
 20 21  1  0  0  0  0
 20 34  1  0  0  0  0
 21 22  1  0  0  0  0
 21 31  1  6  0  0  0
 22 23  1  0  0  0  0
 23 24  1  6  0  0  0
 24 25  2  0  0  0  0
 24 26  1  0  0  0  0
 26 27  1  0  0  0  0
 27 28  1  0  0  0  0
 27 29  1  0  0  0  0
 27 30  1  0  0  0  0
 31 32  1  0  0  0  0
 32 33  1  0  0  0  0
 33 34  1  0  0  0  0
 35 36  1  0  0  0  0
 35 40  2  0  0  0  0
 36 37  2  0  0  0  0
 37 38  1  0  0  0  0
 38 39  2  0  0  0  0
 39 40  1  0  0  0  0
M  END
>  <Index>
756

>  <ID>
HT1473

>  <class>
0

>  <apol>
95.733688

>  <ast_fraglike>
0

>  <ast_fraglike_ext>
0

>  <ast_violation>
4

>  <ast_violation_ext>
6

>  <a_acc>
5

>  <a_acid>
0

>  <a_aro>
12

>  <a_base>
0

>  <a_count>
85

>  <a_don>
4

>  <a_donacc>
9

>  <a_heavy>
40

>  <a_hyd>
31

>  <a_IC>
124.90995

>  <a_ICM>
1.4695289

>  <a_nB>
0

>  <a_nBr>
0

>  <a_nC>
32

>  <a_nCl>
0

>  <a_nF>
0

>  <a_nH>
45

>  <a_nI>
0

>  <a_nN>
3

>  <a_nO>
4

>  <a_nP>
0

>  <a_nS>
1

>  <balabanJ>
1.4621705

>  <BCUT_PEOE_0>
-2.9023783

>  <BCUT_PEOE_1>
-0.53466606

>  <BCUT_PEOE_2>
0.53407538

>  <BCUT_PEOE_3>
2.8516109

>  <BCUT_SLOGP_0>
-2.9416025

>  <BCUT_SLOGP_1>
-0.45309532

>  <BCUT_SLOGP_2>
0.60924786

>  <BCUT_SLOGP_3>
2.9129274

>  <BCUT_SMR_0>
-2.6448781

>  <BCUT_SMR_1>
-0.36061198

>  <BCUT_SMR_2>
0.66616911

>  <BCUT_SMR_3>
3.1072025

>  <bpol>
56.690315

>  <b_1rotN>
9

>  <b_1rotR>
0.20930232

>  <b_ar>
12

>  <b_count>
88

>  <b_double>
2

>  <b_heavy>
43

>  <b_max1len>
6

>  <b_rotN>
12

>  <b_rotR>
0.27906978

>  <b_single>
74

>  <b_triple>
0

>  <chi0>
28.863232

>  <chi0v>
25.04529

>  <chi0v_C>
20.662407

>  <chi0_C>
22.164562

>  <chi1>
19.013859

>  <chi1v>
15.515562

>  <chi1v_C>
11.21778

>  <chi1_C>
13.068082

>  <chiral>
5

>  <chiral_u>
0

>  <density>
0.71250707

>  <diameter>
14

>  <FCharge>
0

>  <GCUT_PEOE_0>
-0.84343415

>  <GCUT_PEOE_1>
-0.38725749

>  <GCUT_PEOE_2>
0.060498346

>  <GCUT_PEOE_3>
3.1820273

>  <GCUT_SLOGP_0>
-1.1634226

>  <GCUT_SLOGP_1>
-0.28589189

>  <GCUT_SLOGP_2>
0.12646805

>  <GCUT_SLOGP_3>
3.1873128

>  <GCUT_SMR_0>
-0.5321365

>  <GCUT_SMR_1>
-0.19938219

>  <GCUT_SMR_2>
0.16137685

>  <GCUT_SMR_3>
3.4184339

>  <Kier1>
32.904274

>  <Kier2>
15.134642

>  <Kier3>
9.498311

>  <KierA1>
28.135208

>  <KierA2>
12.886858

>  <KierA3>
8.0640001

>  <KierFlex>
9.0643606

>  <lip_acc>
7

>  <lip_don>
4

>  <lip_druglike>
1

>  <lip_violation>
1

>  <logP(o/w)>
5.362

>  <logS>
-7.3943601

>  <mr>
16.216614

>  <mutagenic>
0

>  <nmol>
1

>  <opr_brigid>
23

>  <opr_leadlike>
0

>  <opr_nring>
4

>  <opr_nrot>
12

>  <opr_violation>
3

>  <PC+>
0

>  <PC->
0

>  <PEOE_PC+>
3.2759213

>  <PEOE_PC->
-3.2759213

>  <PEOE_RPC+>
0.077133812

>  <PEOE_RPC->
0.11858142

>  <PEOE_VSA+0>
171.41675

>  <PEOE_VSA+1>
66.574615

>  <PEOE_VSA+2>
0

>  <PEOE_VSA+3>
17.238026

>  <PEOE_VSA+4>
33.597878

>  <PEOE_VSA+5>
12.949531

>  <PEOE_VSA+6>
0

>  <PEOE_VSA-0>
152.3228

>  <PEOE_VSA-1>
66.422241

>  <PEOE_VSA-2>
19.760618

>  <PEOE_VSA-3>
0

>  <PEOE_VSA-4>
0

>  <PEOE_VSA-5>
27.133842

>  <PEOE_VSA-6>
15.808863

>  <PEOE_VSA_FHYD>
0.84655994

>  <PEOE_VSA_FNEG>
0.48257241

>  <PEOE_VSA_FPNEG>
0.073629715

>  <PEOE_VSA_FPOL>
0.15344007

>  <PEOE_VSA_FPOS>
0.51742762

>  <PEOE_VSA_FPPOS>
0.079810351

>  <PEOE_VSA_HYD>
493.73505

>  <PEOE_VSA_NEG>
281.44836

>  <PEOE_VSA_PNEG>
42.942703

>  <PEOE_VSA_POL>
89.490112

>  <PEOE_VSA_POS>
301.77679

>  <PEOE_VSA_PPOS>
46.547409

>  <petitjean>
0.5

>  <petitjeanSC>
1

>  <Q_PC+>
0

>  <Q_PC->
0

>  <Q_RPC+>
0

>  <Q_RPC->
0

>  <Q_VSA_FHYD>
1

>  <Q_VSA_FNEG>
0

>  <Q_VSA_FPNEG>
0

>  <Q_VSA_FPOL>
0

>  <Q_VSA_FPOS>
1

>  <Q_VSA_FPPOS>
0

>  <Q_VSA_HYD>
583.22516

>  <Q_VSA_NEG>
0

>  <Q_VSA_PNEG>
0

>  <Q_VSA_POL>
0

>  <Q_VSA_POS>
583.22516

>  <Q_VSA_PPOS>
0

>  <radius>
7

>  <reactive>
0

>  <rings>
4

>  <RPC+>
0

>  <RPC->
0

>  <rsynth>
1

>  <SlogP>
4.7476201

>  <SlogP_VSA0>
86.791954

>  <SlogP_VSA1>
13.641881

>  <SlogP_VSA2>
38.294804

>  <SlogP_VSA3>
54.11272

>  <SlogP_VSA4>
39.054958

>  <SlogP_VSA5>
1.5507339

>  <SlogP_VSA6>
0

>  <SlogP_VSA7>
141.14548

>  <SlogP_VSA8>
94.342026

>  <SlogP_VSA9>
170.76703

>  <SMR>
16.059349

>  <SMR_VSA0>
47.724434

>  <SMR_VSA1>
53.894768

>  <SMR_VSA2>
46.393829

>  <SMR_VSA3>
26.047165

>  <SMR_VSA4>
0

>  <SMR_VSA5>
235.4875

>  <SMR_VSA6>
64.630287

>  <SMR_VSA7>
165.52361

>  <TPSA>
101.9

>  <VAdjEq>
0.302118

>  <VAdjMa>
6.4262648

>  <VDistEq>
3.7250931

>  <VDistMa>
10.402739

>  <vdw_area>
583.22516

>  <vdw_vol>
796.89734

>  <vsa_acc>
27.133842

>  <vsa_acid>
0

>  <vsa_base>
0

>  <vsa_don>
11.365152

>  <vsa_hyd>
444.62332

>  <vsa_other>
25.899061

>  <vsa_pol>
65.632835

>  <Weight>
567.79498

>  <weinerPath>
5398

>  <weinerPol>
63

>  <zagreb>
208

$$$$