O(C(=O)C)c1cc(C(C)C)c(OCCN(C)C)cc1C
  MOE2013           2D

 20 20  0  0  0  0  0  0  0  0999 V2000
    0.0000    0.0000    0.0000 O   0  0  0  0  0  0  0  0  0  0  0  0
   -1.3040    0.7410    0.0000 C   0  0  0  0  0  0  0  0  0  0  0  0
   -1.3140    2.2410    0.0000 O   0  0  0  0  0  0  0  0  0  0  0  0
   -2.5980   -0.0170    0.0000 C   0  0  0  0  0  0  0  0  0  0  0  0
    1.2940    0.7590    0.0000 C   0  0  0  0  0  0  0  0  0  0  0  0
    1.2840    2.2590    0.0000 C   0  0  0  0  0  0  0  0  0  0  0  0
    2.5780    3.0170    0.0000 C   0  0  0  0  0  0  0  0  0  0  0  0
    2.5680    4.5170    0.0000 C   0  0  0  0  0  0  0  0  0  0  0  0
    3.8620    5.2760    0.0000 C   0  0  0  0  0  0  0  0  0  0  0  0
    1.2640    5.2590    0.0000 C   0  0  0  0  0  0  0  0  0  0  0  0
    3.8820    2.2760    0.0000 C   0  0  0  0  0  0  0  0  0  0  0  0
    5.1760    3.0350    0.0000 O   0  0  0  0  0  0  0  0  0  0  0  0
    6.4800    2.2930    0.0000 C   0  0  0  0  0  0  0  0  0  0  0  0
    7.7740    3.0520    0.0000 C   0  0  0  0  0  0  0  0  0  0  0  0
    9.0780    2.3110    0.0000 N   0  0  0  0  0  0  0  0  0  0  0  0
    9.0880    0.8110    0.0000 C   0  0  0  0  0  0  0  0  0  0  0  0
   10.3720    3.0690    0.0000 C   0  0  0  0  0  0  0  0  0  0  0  0
    3.8920    0.7760    0.0000 C   0  0  0  0  0  0  0  0  0  0  0  0
    2.5980    0.0170    0.0000 C   0  0  0  0  0  0  0  0  0  0  0  0
    2.6080   -1.4830    0.0000 C   0  0  0  0  0  0  0  0  0  0  0  0
  1  2  1  0  0  0  0
  1  5  1  0  0  0  0
  2  3  2  0  0  0  0
  2  4  1  0  0  0  0
  5  6  1  0  0  0  0
  5 19  2  0  0  0  0
  6  7  2  0  0  0  0
  7  8  1  0  0  0  0
  7 11  1  0  0  0  0
  8  9  1  0  0  0  0
  8 10  1  0  0  0  0
 11 12  1  0  0  0  0
 11 18  2  0  0  0  0
 12 13  1  0  0  0  0
 13 14  1  0  0  0  0
 14 15  1  0  0  0  0
 15 16  1  0  0  0  0
 15 17  1  0  0  0  0
 18 19  1  0  0  0  0
 19 20  1  0  0  0  0
M  END
>  <Index>
734

>  <ID>
HT1439

>  <class>
0

>  <apol>
48.335827

>  <ast_fraglike>
1

>  <ast_fraglike_ext>
0

>  <ast_violation>
0

>  <ast_violation_ext>
1

>  <a_acc>
3

>  <a_acid>
0

>  <a_aro>
6

>  <a_base>
0

>  <a_count>
45

>  <a_don>
0

>  <a_donacc>
3

>  <a_heavy>
20

>  <a_hyd>
15

>  <a_IC>
62.282097

>  <a_ICM>
1.3840466

>  <a_nB>
0

>  <a_nBr>
0

>  <a_nC>
16

>  <a_nCl>
0

>  <a_nF>
0

>  <a_nH>
25

>  <a_nI>
0

>  <a_nN>
1

>  <a_nO>
3

>  <a_nP>
0

>  <a_nS>
0

>  <balabanJ>
2.5785463

>  <BCUT_PEOE_0>
-2.6005487

>  <BCUT_PEOE_1>
-0.11497869

>  <BCUT_PEOE_2>
0.049186405

>  <BCUT_PEOE_3>
2.5191061

>  <BCUT_SLOGP_0>
-2.7043948

>  <BCUT_SLOGP_1>
-0.046182454

>  <BCUT_SLOGP_2>
0.123

>  <BCUT_SLOGP_3>
2.6641147

>  <BCUT_SMR_0>
-2.325455

>  <BCUT_SMR_1>
0.1057

>  <BCUT_SMR_2>
0.15311296

>  <BCUT_SMR_3>
2.7867727

>  <bpol>
34.100174

>  <b_1rotN>
6

>  <b_1rotR>
0.30000001

>  <b_ar>
6

>  <b_count>
45

>  <b_double>
1

>  <b_heavy>
20

>  <b_max1len>
5

>  <b_rotN>
7

>  <b_rotR>
0.34999999

>  <b_single>
38

>  <b_triple>
0

>  <chi0>
15.284093

>  <chi0v>
13.318223

>  <chi0v_C>
11.646264

>  <chi0_C>
12.292529

>  <chi1>
9.3074379

>  <chi1v>
6.9139028

>  <chi1v_C>
4.5980763

>  <chi1_C>
5.4423943

>  <chiral>
0

>  <chiral_u>
0

>  <density>
0.67553872

>  <diameter>
11

>  <FCharge>
0

>  <GCUT_PEOE_0>
-0.85879505

>  <GCUT_PEOE_1>
-0.32930696

>  <GCUT_PEOE_2>
-0.1108136

>  <GCUT_PEOE_3>
2.5877464

>  <GCUT_SLOGP_0>
-0.96183616

>  <GCUT_SLOGP_1>
-0.23720101

>  <GCUT_SLOGP_2>
-0.037

>  <GCUT_SLOGP_3>
2.7069933

>  <GCUT_SMR_0>
-0.52100194

>  <GCUT_SMR_1>
-0.074511319

>  <GCUT_SMR_2>
-0.051955849

>  <GCUT_SMR_3>
2.8461823

>  <Kier1>
18.049999

>  <Kier2>
8.4444447

>  <Kier3>
6.1199999

>  <KierA1>
15.189279

>  <KierA2>
7.0373831

>  <KierA3>
5.0640883

>  <KierFlex>
5.3446388

>  <lip_acc>
4

>  <lip_don>
0

>  <lip_druglike>
1

>  <lip_violation>
0

>  <logP(o/w)>
3.1830001

>  <logS>
-3.0380499

>  <mr>
8.0978432

>  <mutagenic>
0

>  <nmol>
1

>  <opr_brigid>
6

>  <opr_leadlike>
1

>  <opr_nring>
1

>  <opr_nrot>
6

>  <opr_violation>
0

>  <PC+>
0

>  <PC->
0

>  <PEOE_PC+>
1.4718304

>  <PEOE_PC->
-1.4718304

>  <PEOE_RPC+>
0.17937101

>  <PEOE_RPC->
0.23313989

>  <PEOE_VSA+0>
121.51311

>  <PEOE_VSA+1>
48.929874

>  <PEOE_VSA+2>
0

>  <PEOE_VSA+3>
0

>  <PEOE_VSA+4>
0

>  <PEOE_VSA+5>
14.708499

>  <PEOE_VSA+6>
0

>  <PEOE_VSA-0>
94.151939

>  <PEOE_VSA-1>
37.495354

>  <PEOE_VSA-2>
0

>  <PEOE_VSA-3>
0

>  <PEOE_VSA-4>
0

>  <PEOE_VSA-5>
16.070677

>  <PEOE_VSA-6>
2.503756

>  <PEOE_VSA_FHYD>
0.9007585

>  <PEOE_VSA_FNEG>
0.44792405

>  <PEOE_VSA_FPNEG>
0.055384368

>  <PEOE_VSA_FPOL>
0.099241473

>  <PEOE_VSA_FPOS>
0.55207592

>  <PEOE_VSA_FPPOS>
0.043857109

>  <PEOE_VSA_HYD>
302.09027

>  <PEOE_VSA_NEG>
150.22173

>  <PEOE_VSA_PNEG>
18.574432

>  <PEOE_VSA_POL>
33.282932

>  <PEOE_VSA_POS>
185.15149

>  <PEOE_VSA_PPOS>
14.708499

>  <petitjean>
0.45454547

>  <petitjeanSC>
0.83333331

>  <Q_PC+>
0

>  <Q_PC->
0

>  <Q_RPC+>
0

>  <Q_RPC->
0

>  <Q_VSA_FHYD>
1

>  <Q_VSA_FNEG>
0

>  <Q_VSA_FPNEG>
0

>  <Q_VSA_FPOL>
0

>  <Q_VSA_FPOS>
1

>  <Q_VSA_FPPOS>
0

>  <Q_VSA_HYD>
335.37323

>  <Q_VSA_NEG>
0

>  <Q_VSA_PNEG>
0

>  <Q_VSA_POL>
0

>  <Q_VSA_POS>
335.37323

>  <Q_VSA_PPOS>
0

>  <radius>
6

>  <reactive>
0

>  <rings>
1

>  <RPC+>
0

>  <RPC->
0

>  <rsynth>
1

>  <SlogP>
2.9841199

>  <SlogP_VSA0>
21.999775

>  <SlogP_VSA1>
10.869778

>  <SlogP_VSA2>
23.862217

>  <SlogP_VSA3>
39.365837

>  <SlogP_VSA4>
6.37115

>  <SlogP_VSA5>
65.794373

>  <SlogP_VSA6>
4.4107962

>  <SlogP_VSA7>
35.286369

>  <SlogP_VSA8>
0

>  <SlogP_VSA9>
143.79091

>  <SMR>
8.0626001

>  <SMR_VSA0>
23.862217

>  <SMR_VSA1>
25.12409

>  <SMR_VSA2>
0

>  <SMR_VSA3>
21.268803

>  <SMR_VSA4>
0

>  <SMR_VSA5>
35.286369

>  <SMR_VSA6>
47.111301

>  <SMR_VSA7>
199.09843

>  <TPSA>
38.77

>  <VAdjEq>
0.4689956

>  <VAdjMa>
5.321928

>  <VDistEq>
3.2245538

>  <VDistMa>
8.3475466

>  <vdw_area>
335.37323

>  <vdw_vol>
413.56622

>  <vsa_acc>
16.070677

>  <vsa_acid>
0

>  <vsa_base>
0

>  <vsa_don>
0

>  <vsa_hyd>
282.95035

>  <vsa_other>
17.212255

>  <vsa_pol>
16.070677

>  <Weight>
279.38

>  <weinerPath>
865

>  <weinerPol>
27

>  <zagreb>
94

$$$$