Ic1c(C(=O)NC2C(O)C(O)C(OC2O)CO)c(I)c(NC(=O)C)c(I)c1N(C(=O)C)C
  MOE2013           2D

 32 33  0  0  1  0  0  0  0  0999 V2000
    0.0000    0.0000    0.0000 I   0  0  0  0  0  0  0  0  0  0  0  0
   -0.7610    1.2930    0.0000 C   0  0  0  0  0  0  0  0  0  0  0  0
   -0.0210    2.5980    0.0000 C   0  0  0  0  0  0  0  0  0  0  0  0
    1.4790    2.6100    0.0000 C   0  0  0  0  0  0  0  0  0  0  0  0
    2.2390    1.3170    0.0000 O   0  0  0  0  0  0  0  0  0  0  0  0
    2.2180    3.9150    0.0000 N   0  0  0  0  0  0  0  0  0  0  0  0
    3.7180    3.9280    0.0000 C   0  0  3  0  0  0  0  0  0  0  0  0
    4.4570    5.2330    0.0000 C   0  0  3  0  0  0  0  0  0  0  0  0
    3.6970    6.5260    0.0000 O   0  0  0  0  0  0  0  0  0  0  0  0
    5.9570    5.2450    0.0000 C   0  0  3  0  0  0  0  0  0  0  0  0
    6.6970    6.5500    0.0000 O   0  0  0  0  0  0  0  0  0  0  0  0
    6.7180    3.9520    0.0000 C   0  0  3  0  0  0  0  0  0  0  0  0
    5.9790    2.6470    0.0000 O   0  0  0  0  0  0  0  0  0  0  0  0
    4.4790    2.6350    0.0000 C   0  0  3  0  0  0  0  0  0  0  0  0
    3.7390    1.3300    0.0000 O   0  0  0  0  0  0  0  0  0  0  0  0
    8.2180    3.9640    0.0000 C   0  0  0  0  0  0  0  0  0  0  0  0
    8.9780    2.6710    0.0000 O   0  0  0  0  0  0  0  0  0  0  0  0
   -0.7820    3.8910    0.0000 C   0  0  0  0  0  0  0  0  0  0  0  0
   -0.0420    5.1960    0.0000 I   0  0  0  0  0  0  0  0  0  0  0  0
   -2.2820    3.8790    0.0000 C   0  0  0  0  0  0  0  0  0  0  0  0
   -3.0420    5.1710    0.0000 N   0  0  0  0  0  0  0  0  0  0  0  0
   -4.5420    5.1590    0.0000 C   0  0  0  0  0  0  0  0  0  0  0  0
   -5.2820    3.8540    0.0000 O   0  0  0  0  0  0  0  0  0  0  0  0
   -5.3030    6.4520    0.0000 C   0  0  0  0  0  0  0  0  0  0  0  0
   -3.0210    2.5730    0.0000 C   0  0  0  0  0  0  0  0  0  0  0  0
   -4.5210    2.5610    0.0000 I   0  0  0  0  0  0  0  0  0  0  0  0
   -2.2610    1.2810    0.0000 C   0  0  0  0  0  0  0  0  0  0  0  0
   -3.0000   -0.0240    0.0000 N   0  0  0  0  0  0  0  0  0  0  0  0
   -2.2390   -1.3170    0.0000 C   0  0  0  0  0  0  0  0  0  0  0  0
   -0.7390   -1.3050    0.0000 O   0  0  0  0  0  0  0  0  0  0  0  0
   -2.9790   -2.6220    0.0000 C   0  0  0  0  0  0  0  0  0  0  0  0
   -4.5000   -0.0370    0.0000 C   0  0  0  0  0  0  0  0  0  0  0  0
  1  2  1  0  0  0  0
  2  3  1  0  0  0  0
  2 27  2  0  0  0  0
  3  4  1  0  0  0  0
  3 18  2  0  0  0  0
  4  5  2  0  0  0  0
  4  6  1  0  0  0  0
  6  7  1  0  0  0  0
  7  8  1  0  0  0  0
  7 14  1  0  0  0  0
  8  9  1  0  0  0  0
  8 10  1  0  0  0  0
 10 11  1  0  0  0  0
 10 12  1  0  0  0  0
 12 13  1  0  0  0  0
 12 16  1  0  0  0  0
 13 14  1  0  0  0  0
 14 15  1  0  0  0  0
 16 17  1  0  0  0  0
 18 19  1  0  0  0  0
 18 20  1  0  0  0  0
 20 21  1  0  0  0  0
 20 25  2  0  0  0  0
 21 22  1  0  0  0  0
 22 23  2  0  0  0  0
 22 24  1  0  0  0  0
 25 26  1  0  0  0  0
 25 27  1  0  0  0  0
 27 28  1  0  0  0  0
 28 29  1  0  0  0  0
 28 32  1  0  0  0  0
 29 30  2  0  0  0  0
 29 31  1  0  0  0  0
M  END
>  <Index>
703

>  <ID>
HT1381

>  <class>
0

>  <apol>
72.115448

>  <ast_fraglike>
0

>  <ast_fraglike_ext>
0

>  <ast_violation>
3

>  <ast_violation_ext>
5

>  <a_acc>
8

>  <a_acid>
0

>  <a_aro>
6

>  <a_base>
0

>  <a_count>
54

>  <a_don>
6

>  <a_donacc>
14

>  <a_heavy>
32

>  <a_hyd>
17

>  <a_IC>
104.08801

>  <a_ICM>
1.9275557

>  <a_nB>
0

>  <a_nBr>
0

>  <a_nC>
18

>  <a_nCl>
0

>  <a_nF>
0

>  <a_nH>
22

>  <a_nI>
3

>  <a_nN>
3

>  <a_nO>
8

>  <a_nP>
0

>  <a_nS>
0

>  <balabanJ>
2.2944911

>  <BCUT_PEOE_0>
-2.7259641

>  <BCUT_PEOE_1>
-0.59374613

>  <BCUT_PEOE_2>
0.59068227

>  <BCUT_PEOE_3>
2.7864442

>  <BCUT_SLOGP_0>
-2.9472799

>  <BCUT_SLOGP_1>
-0.56708759

>  <BCUT_SLOGP_2>
0.56477433

>  <BCUT_SLOGP_3>
2.5677233

>  <BCUT_SMR_0>
-2.518122

>  <BCUT_SMR_1>
-0.3429378

>  <BCUT_SMR_2>
0.85250264

>  <BCUT_SMR_3>
2.9789274

>  <bpol>
42.910553

>  <b_1rotN>
6

>  <b_1rotR>
0.18181819

>  <b_ar>
6

>  <b_count>
55

>  <b_double>
3

>  <b_heavy>
33

>  <b_max1len>
4

>  <b_rotN>
8

>  <b_rotR>
0.24242425

>  <b_single>
46

>  <b_triple>
0

>  <chi0>
24.488682

>  <chi0v>
23.569307

>  <chi0v_C>
11.093858

>  <chi0_C>
11.79001

>  <chi1>
14.826382

>  <chi1v>
12.402479

>  <chi1v_C>
4.4915814

>  <chi1_C>
5.2296157

>  <chiral>
5

>  <chiral_u>
5

>  <density>
1.3051924

>  <diameter>
13

>  <FCharge>
0

>  <GCUT_PEOE_0>
-0.8265599

>  <GCUT_PEOE_1>
-0.47257966

>  <GCUT_PEOE_2>
0.09663894

>  <GCUT_PEOE_3>
2.7603474

>  <GCUT_SLOGP_0>
-1.1626261

>  <GCUT_SLOGP_1>
-0.44626293

>  <GCUT_SLOGP_2>
0.059297394

>  <GCUT_SLOGP_3>
2.7236848

>  <GCUT_SMR_0>
-0.52044392

>  <GCUT_SMR_1>
-0.21380118

>  <GCUT_SMR_2>
0.27349874

>  <GCUT_SMR_3>
3.0635211

>  <Kier1>
28.23875

>  <Kier2>
11.620158

>  <Kier3>
5.9917355

>  <KierA1>
30.991358

>  <KierA2>
12.791409

>  <KierA3>
6.6096992

>  <KierFlex>
12.388223

>  <lip_acc>
11

>  <lip_don>
6

>  <lip_druglike>
0

>  <lip_violation>
3

>  <logP(o/w)>
1.0140001

>  <logS>
-4.1805301

>  <mr>
14.005647

>  <mutagenic>
0

>  <nmol>
1

>  <opr_brigid>
12

>  <opr_leadlike>
0

>  <opr_nring>
2

>  <opr_nrot>
7

>  <opr_violation>
3

>  <PC+>
0

>  <PC->
0

>  <PEOE_PC+>
3.7870202

>  <PEOE_PC->
-3.7870202

>  <PEOE_RPC+>
0.067234039

>  <PEOE_RPC->
0.10360815

>  <PEOE_VSA+0>
99.12252

>  <PEOE_VSA+1>
69.536919

>  <PEOE_VSA+2>
17.860746

>  <PEOE_VSA+3>
28.392935

>  <PEOE_VSA+4>
67.195755

>  <PEOE_VSA+5>
12.949531

>  <PEOE_VSA+6>
0

>  <PEOE_VSA-0>
140.97005

>  <PEOE_VSA-1>
0

>  <PEOE_VSA-2>
0

>  <PEOE_VSA-3>
0

>  <PEOE_VSA-4>
0

>  <PEOE_VSA-5>
40.700764

>  <PEOE_VSA-6>
33.847698

>  <PEOE_VSA_FHYD>
0.69702166

>  <PEOE_VSA_FNEG>
0.42210782

>  <PEOE_VSA_FPNEG>
0.1460083

>  <PEOE_VSA_FPOL>
0.30297834

>  <PEOE_VSA_FPOS>
0.57789218

>  <PEOE_VSA_FPPOS>
0.15697005

>  <PEOE_VSA_HYD>
355.88315

>  <PEOE_VSA_NEG>
215.51851

>  <PEOE_VSA_PNEG>
74.548462

>  <PEOE_VSA_POL>
154.69374

>  <PEOE_VSA_POS>
295.05841

>  <PEOE_VSA_PPOS>
80.145287

>  <petitjean>
0.46153846

>  <petitjeanSC>
0.85714287

>  <Q_PC+>
0

>  <Q_PC->
0

>  <Q_RPC+>
0

>  <Q_RPC->
0

>  <Q_VSA_FHYD>
1

>  <Q_VSA_FNEG>
0

>  <Q_VSA_FPNEG>
0

>  <Q_VSA_FPOL>
0

>  <Q_VSA_FPOS>
1

>  <Q_VSA_FPPOS>
0

>  <Q_VSA_HYD>
510.5769

>  <Q_VSA_NEG>
0

>  <Q_VSA_PNEG>
0

>  <Q_VSA_POL>
0

>  <Q_VSA_POS>
510.5769

>  <Q_VSA_PPOS>
0

>  <radius>
7

>  <reactive>
1

>  <rings>
2

>  <RPC+>
0

>  <RPC->
0

>  <rsynth>
1

>  <SlogP>
-0.0288

>  <SlogP_VSA0>
122.67597

>  <SlogP_VSA1>
33.787102

>  <SlogP_VSA2>
95.617668

>  <SlogP_VSA3>
20.926258

>  <SlogP_VSA4>
27.047791

>  <SlogP_VSA5>
32.897186

>  <SlogP_VSA6>
0

>  <SlogP_VSA7>
0

>  <SlogP_VSA8>
0

>  <SlogP_VSA9>
242.51155

>  <SMR>
13.92141

>  <SMR_VSA0>
82.58654

>  <SMR_VSA1>
101.54091

>  <SMR_VSA2>
26.113993

>  <SMR_VSA3>
35.099995

>  <SMR_VSA4>
23.524246

>  <SMR_VSA5>
0

>  <SMR_VSA6>
36.70261

>  <SMR_VSA7>
269.89523

>  <TPSA>
168.66

>  <VAdjEq>
0.3448742

>  <VAdjMa>
6.044394

>  <VDistEq>
3.4858525

>  <VDistMa>
9.7456846

>  <vdw_area>
510.5769

>  <vdw_vol>
604.58441

>  <vsa_acc>
43.204517

>  <vsa_acid>
0

>  <vsa_base>
0

>  <vsa_don>
11.365152

>  <vsa_hyd>
312.54791

>  <vsa_other>
53.557091

>  <vsa_pol>
108.83736

>  <Weight>
789.099

>  <weinerPath>
2768

>  <weinerPol>
60

>  <zagreb>
164

$$$$