O=C1NC(C)=C(C=C1C#N)c1ccncc1
  MOE2013           2D

 16 17  0  0  0  0  0  0  0  0999 V2000
    0.0000    0.0000    0.0000 O   0  0  0  0  0  0  0  0  0  0  0  0
    1.5000    0.0020    0.0000 C   0  0  0  0  0  0  0  0  0  0  0  0
    2.2480    1.3020    0.0000 N   0  0  0  0  0  0  0  0  0  0  0  0
    3.7480    1.3040    0.0000 C   0  0  0  0  0  0  0  0  0  0  0  0
    4.4970    2.6040    0.0000 C   0  0  0  0  0  0  0  0  0  0  0  0
    4.5000    0.0060    0.0000 C   0  0  0  0  0  0  0  0  0  0  0  0
    3.7520   -1.2940    0.0000 C   0  0  0  0  0  0  0  0  0  0  0  0
    2.2520   -1.2960    0.0000 C   0  0  0  0  0  0  0  0  0  0  0  0
    1.5030   -2.5960    0.0000 C   0  0  0  0  0  0  0  0  0  0  0  0
    0.7550   -3.8960    0.0000 N   0  0  0  0  0  0  0  0  0  0  0  0
    6.0000    0.0080    0.0000 C   0  0  0  0  0  0  0  0  0  0  0  0
    6.7480    1.3080    0.0000 C   0  0  0  0  0  0  0  0  0  0  0  0
    8.2480    1.3100    0.0000 C   0  0  0  0  0  0  0  0  0  0  0  0
    9.0000    0.0120    0.0000 N   0  0  0  0  0  0  0  0  0  0  0  0
    8.2520   -1.2880    0.0000 C   0  0  0  0  0  0  0  0  0  0  0  0
    6.7520   -1.2900    0.0000 C   0  0  0  0  0  0  0  0  0  0  0  0
  1  2  2  0  0  0  0
  2  3  1  0  0  0  0
  2  8  1  0  0  0  0
  3  4  1  0  0  0  0
  4  5  1  0  0  0  0
  4  6  2  0  0  0  0
  6  7  1  0  0  0  0
  6 11  1  0  0  0  0
  7  8  2  0  0  0  0
  8  9  1  0  0  0  0
  9 10  3  0  0  0  0
 11 12  1  0  0  0  0
 11 16  2  0  0  0  0
 12 13  2  0  0  0  0
 13 14  1  0  0  0  0
 14 15  2  0  0  0  0
 15 16  1  0  0  0  0
M  END
>  <Index>
714

>  <ID>
HT1402

>  <class>
0

>  <apol>
31.223137

>  <ast_fraglike>
0

>  <ast_fraglike_ext>
0

>  <ast_violation>
1

>  <ast_violation_ext>
1

>  <a_acc>
4

>  <a_acid>
0

>  <a_aro>
6

>  <a_base>
0

>  <a_count>
25

>  <a_don>
2

>  <a_donacc>
6

>  <a_heavy>
16

>  <a_hyd>
10

>  <a_IC>
39.792641

>  <a_ICM>
1.5917057

>  <a_nB>
0

>  <a_nBr>
0

>  <a_nC>
12

>  <a_nCl>
0

>  <a_nF>
0

>  <a_nH>
9

>  <a_nI>
0

>  <a_nN>
3

>  <a_nO>
1

>  <a_nP>
0

>  <a_nS>
0

>  <balabanJ>
1.9815674

>  <BCUT_PEOE_0>
-2.3779552

>  <BCUT_PEOE_1>
-0.62264681

>  <BCUT_PEOE_2>
0.59094197

>  <BCUT_PEOE_3>
2.3569036

>  <BCUT_SLOGP_0>
-2.4579754

>  <BCUT_SLOGP_1>
-0.53807992

>  <BCUT_SLOGP_2>
0.63974047

>  <BCUT_SLOGP_3>
2.433017

>  <BCUT_SMR_0>
-2.063971

>  <BCUT_SMR_1>
-0.36972544

>  <BCUT_SMR_2>
0.84905601

>  <BCUT_SMR_3>
2.6760342

>  <bpol>
13.436863

>  <b_1rotN>
1

>  <b_1rotR>
0.05882353

>  <b_ar>
6

>  <b_count>
26

>  <b_double>
3

>  <b_heavy>
17

>  <b_max1len>
2

>  <b_rotN>
2

>  <b_rotR>
0.11764706

>  <b_single>
16

>  <b_triple>
1

>  <chi0>
11.543606

>  <chi0v>
8.6894264

>  <chi0v_C>
6.8867512

>  <chi0_C>
8.1293917

>  <chi1>
7.7195454

>  <chi1v>
4.7654958

>  <chi1v_C>
3.3213673

>  <chi1_C>
4.6185918

>  <chiral>
0

>  <chiral_u>
0

>  <density>
0.74488479

>  <diameter>
8

>  <FCharge>
0

>  <GCUT_PEOE_0>
-0.81335545

>  <GCUT_PEOE_1>
-0.42794859

>  <GCUT_PEOE_2>
0.096366771

>  <GCUT_PEOE_3>
2.2944014

>  <GCUT_SLOGP_0>
-1.1351657

>  <GCUT_SLOGP_1>
-0.29637444

>  <GCUT_SLOGP_2>
0.16445385

>  <GCUT_SLOGP_3>
2.3756068

>  <GCUT_SMR_0>
-0.47810328

>  <GCUT_SMR_1>
-0.21605732

>  <GCUT_SMR_2>
0.19305076

>  <GCUT_SMR_3>
2.5961766

>  <Kier1>
12.456747

>  <Kier2>
5.5576558

>  <Kier3>
2.8311112

>  <KierA1>
7.6635628

>  <KierA2>
3.2946074

>  <KierA3>
1.6317768

>  <KierFlex>
1.5780269

>  <lip_acc>
4

>  <lip_don>
1

>  <lip_druglike>
1

>  <lip_violation>
0

>  <logP(o/w)>
0.54100001

>  <logS>
-1.90281

>  <mr>
6.0633926

>  <mutagenic>
0

>  <nmol>
1

>  <opr_brigid>
12

>  <opr_leadlike>
1

>  <opr_nring>
2

>  <opr_nrot>
2

>  <opr_violation>
0

>  <PC+>
0

>  <PC->
0

>  <PEOE_PC+>
1.1837882

>  <PEOE_PC->
-1.1837882

>  <PEOE_RPC+>
0.22504772

>  <PEOE_RPC->
0.27444798

>  <PEOE_VSA+0>
55.196079

>  <PEOE_VSA+1>
21.326929

>  <PEOE_VSA+2>
22.508045

>  <PEOE_VSA+3>
8.6190128

>  <PEOE_VSA+4>
0

>  <PEOE_VSA+5>
12.949531

>  <PEOE_VSA+6>
0

>  <PEOE_VSA-0>
57.720928

>  <PEOE_VSA-1>
0

>  <PEOE_VSA-2>
0

>  <PEOE_VSA-3>
17.742489

>  <PEOE_VSA-4>
0

>  <PEOE_VSA-5>
19.249496

>  <PEOE_VSA-6>
0.13689101

>  <PEOE_VSA_FHYD>
0.84991407

>  <PEOE_VSA_FNEG>
0.44024166

>  <PEOE_VSA_FPNEG>
0.089981161

>  <PEOE_VSA_FPOL>
0.15008591

>  <PEOE_VSA_FPOS>
0.55975831

>  <PEOE_VSA_FPPOS>
0.060104743

>  <PEOE_VSA_HYD>
183.11348

>  <PEOE_VSA_NEG>
94.849808

>  <PEOE_VSA_PNEG>
19.386389

>  <PEOE_VSA_POL>
32.335918

>  <PEOE_VSA_POS>
120.5996

>  <PEOE_VSA_PPOS>
12.949531

>  <petitjean>
0.5

>  <petitjeanSC>
1

>  <Q_PC+>
0

>  <Q_PC->
0

>  <Q_RPC+>
0

>  <Q_RPC->
0

>  <Q_VSA_FHYD>
1

>  <Q_VSA_FNEG>
0

>  <Q_VSA_FPNEG>
0

>  <Q_VSA_FPOL>
0

>  <Q_VSA_FPOS>
1

>  <Q_VSA_FPPOS>
0

>  <Q_VSA_HYD>
215.4494

>  <Q_VSA_NEG>
0

>  <Q_VSA_PNEG>
0

>  <Q_VSA_POL>
0

>  <Q_VSA_POS>
215.4494

>  <Q_VSA_PPOS>
0

>  <radius>
4

>  <reactive>
0

>  <rings>
2

>  <RPC+>
0

>  <RPC->
0

>  <rsynth>
1

>  <SlogP>
1.3923841

>  <SlogP_VSA0>
18.01075

>  <SlogP_VSA1>
22.044313

>  <SlogP_VSA2>
23.862217

>  <SlogP_VSA3>
47.661102

>  <SlogP_VSA4>
3.185575

>  <SlogP_VSA5>
5.9423227

>  <SlogP_VSA6>
0

>  <SlogP_VSA7>
90.543839

>  <SlogP_VSA8>
0

>  <SlogP_VSA9>
33.326015

>  <SMR>
5.8669701

>  <SMR_VSA0>
23.862217

>  <SMR_VSA1>
47.844887

>  <SMR_VSA2>
18.01075

>  <SMR_VSA3>
25.729645

>  <SMR_VSA4>
3.185575

>  <SMR_VSA5>
87.358269

>  <SMR_VSA6>
5.2587838

>  <SMR_VSA7>
33.326015

>  <TPSA>
65.779999

>  <VAdjEq>
0.56510133

>  <VAdjMa>
5.0874629

>  <VDistEq>
2.7857592

>  <VDistMa>
7.7127361

>  <vdw_area>
215.4494

>  <vdw_vol>
283.56601

>  <vsa_acc>
23.425066

>  <vsa_acid>
0

>  <vsa_base>
0

>  <vsa_don>
0

>  <vsa_hyd>
130.75812

>  <vsa_other>
33.249039

>  <vsa_pol>
42.674564

>  <Weight>
211.224

>  <weinerPath>
425

>  <weinerPol>
24

>  <zagreb>
80

$$$$