S(=O)(=O)(N(CC(C)C)C[C@@H](O)[C@@H](NC(O[C@H]1CCOC1)=O)Cc1ccccc1)c1ccc(N)cc1
  MOE2013           2D

 35 37  0  0  1  0  0  0  0  0999 V2000
    0.0000    0.0000    0.0000 S   0  0  0  0  0  0  0  0  0  0  0  0
    1.2980   -0.7510    0.0000 O   0  0  0  0  0  0  0  0  0  0  0  0
   -1.2980    0.7510    0.0000 O   0  0  0  0  0  0  0  0  0  0  0  0
    0.7510    1.2980    0.0000 N   0  0  3  0  0  0  0  0  0  0  0  0
    0.0030    2.5980    0.0000 C   0  0  0  0  0  0  0  0  0  0  0  0
   -1.4970    2.6000    0.0000 C   0  0  0  0  0  0  0  0  0  0  0  0
   -2.2490    1.3010    0.0000 C   0  0  0  0  0  0  0  0  0  0  0  0
   -2.2460    3.8990    0.0000 C   0  0  0  0  0  0  0  0  0  0  0  0
    2.2510    1.2970    0.0000 C   0  0  0  0  0  0  0  0  0  0  0  0
    3.0030    2.5950    0.0000 C   0  0  1  0  0  0  0  0  0  0  0  0
    2.2540    3.8950    0.0000 O   0  0  0  0  0  0  0  0  0  0  0  0
    4.5030    2.5940    0.0000 C   0  0  1  0  0  0  0  0  0  0  0  0
    5.2510    1.2940    0.0000 N   0  0  0  0  0  0  0  0  0  0  0  0
    6.7510    1.2920    0.0000 C   0  0  0  0  0  0  0  0  0  0  0  0
    7.5030    2.5910    0.0000 O   0  0  0  0  0  0  0  0  0  0  0  0
    9.0030    2.5890    0.0000 C   0  0  1  0  0  0  0  0  0  0  0  0
    9.8850    3.8020    0.0000 C   0  0  0  0  0  0  0  0  0  0  0  0
   11.3120    3.3370    0.0000 C   0  0  0  0  0  0  0  0  0  0  0  0
   11.3100    1.8370    0.0000 O   0  0  0  0  0  0  0  0  0  0  0  0
    9.8830    1.3750    0.0000 C   0  0  0  0  0  0  0  0  0  0  0  0
    7.5000   -0.0070    0.0000 O   0  0  0  0  0  0  0  0  0  0  0  0
    5.2540    3.8920    0.0000 C   0  0  0  0  0  0  0  0  0  0  0  0
    4.5050    5.1920    0.0000 C   0  0  0  0  0  0  0  0  0  0  0  0
    5.2560    6.4900    0.0000 C   0  0  0  0  0  0  0  0  0  0  0  0
    4.5080    7.7900    0.0000 C   0  0  0  0  0  0  0  0  0  0  0  0
    3.0080    7.7910    0.0000 C   0  0  0  0  0  0  0  0  0  0  0  0
    2.2560    6.4930    0.0000 C   0  0  0  0  0  0  0  0  0  0  0  0
    3.0050    5.1930    0.0000 C   0  0  0  0  0  0  0  0  0  0  0  0
   -0.7510   -1.2980    0.0000 C   0  0  0  0  0  0  0  0  0  0  0  0
   -2.2510   -1.2970    0.0000 C   0  0  0  0  0  0  0  0  0  0  0  0
   -3.0030   -2.5950    0.0000 C   0  0  0  0  0  0  0  0  0  0  0  0
   -2.2540   -3.8950    0.0000 C   0  0  0  0  0  0  0  0  0  0  0  0
   -3.0050   -5.1930    0.0000 N   0  0  0  0  0  0  0  0  0  0  0  0
   -0.7540   -3.8960    0.0000 C   0  0  0  0  0  0  0  0  0  0  0  0
   -0.0030   -2.5980    0.0000 C   0  0  0  0  0  0  0  0  0  0  0  0
  1  2  2  0  0  0  0
  1  3  2  0  0  0  0
  1  4  1  0  0  0  0
  1 29  1  0  0  0  0
  4  5  1  0  0  0  0
  4  9  1  0  0  0  0
  5  6  1  0  0  0  0
  6  7  1  0  0  0  0
  6  8  1  0  0  0  0
  9 10  1  0  0  0  0
 10 11  1  1  0  0  0
 10 12  1  0  0  0  0
 12 13  1  6  0  0  0
 12 22  1  0  0  0  0
 13 14  1  0  0  0  0
 14 15  1  0  0  0  0
 14 21  2  0  0  0  0
 16 15  1  1  0  0  0
 16 17  1  0  0  0  0
 16 20  1  0  0  0  0
 17 18  1  0  0  0  0
 18 19  1  0  0  0  0
 19 20  1  0  0  0  0
 22 23  1  0  0  0  0
 23 24  1  0  0  0  0
 23 28  2  0  0  0  0
 24 25  2  0  0  0  0
 25 26  1  0  0  0  0
 26 27  2  0  0  0  0
 27 28  1  0  0  0  0
 29 30  1  0  0  0  0
 29 35  2  0  0  0  0
 30 31  2  0  0  0  0
 31 32  1  0  0  0  0
 32 33  1  0  0  0  0
 32 34  2  0  0  0  0
 34 35  1  0  0  0  0
M  END
>  <Index>
73

>  <ID>
HT0154

>  <class>
0

>  <apol>
78.349754

>  <ast_fraglike>
0

>  <ast_fraglike_ext>
0

>  <ast_violation>
2

>  <ast_violation_ext>
4

>  <a_acc>
5

>  <a_acid>
0

>  <a_aro>
12

>  <a_base>
0

>  <a_count>
70

>  <a_don>
3

>  <a_donacc>
8

>  <a_heavy>
35

>  <a_hyd>
24

>  <a_IC>
113.16384

>  <a_ICM>
1.6166263

>  <a_nB>
0

>  <a_nBr>
0

>  <a_nC>
25

>  <a_nCl>
0

>  <a_nF>
0

>  <a_nH>
35

>  <a_nI>
0

>  <a_nN>
3

>  <a_nO>
6

>  <a_nP>
0

>  <a_nS>
1

>  <balabanJ>
1.6803939

>  <BCUT_PEOE_0>
-2.7247064

>  <BCUT_PEOE_1>
-0.56108528

>  <BCUT_PEOE_2>
0.62323141

>  <BCUT_PEOE_3>
2.6970959

>  <BCUT_SLOGP_0>
-2.8659394

>  <BCUT_SLOGP_1>
-0.53807992

>  <BCUT_SLOGP_2>
0.67874396

>  <BCUT_SLOGP_3>
2.6472163

>  <BCUT_SMR_0>
-2.4574602

>  <BCUT_SMR_1>
-0.42056954

>  <BCUT_SMR_2>
0.71550459

>  <BCUT_SMR_3>
2.9687238

>  <bpol>
51.508244

>  <b_1rotN>
11

>  <b_1rotR>
0.2972973

>  <b_ar>
12

>  <b_count>
72

>  <b_double>
1

>  <b_heavy>
37

>  <b_max1len>
9

>  <b_rotN>
13

>  <b_rotR>
0.35135135

>  <b_single>
59

>  <b_triple>
0

>  <chi0>
25.424074

>  <chi0v>
20.985958

>  <chi0v_C>
15.748194

>  <chi0_C>
17.225405

>  <chi1>
16.645905

>  <chi1v>
13.21428

>  <chi1v_C>
8.1148796

>  <chi1_C>
9.8870134

>  <chiral>
3

>  <chiral_u>
0

>  <density>
0.75914019

>  <diameter>
15

>  <FCharge>
0

>  <GCUT_PEOE_0>
-0.81484222

>  <GCUT_PEOE_1>
-0.39001176

>  <GCUT_PEOE_2>
0.075144276

>  <GCUT_PEOE_3>
2.9259884

>  <GCUT_SLOGP_0>
-1.3343045

>  <GCUT_SLOGP_1>
-0.35153347

>  <GCUT_SLOGP_2>
0.13903178

>  <GCUT_SLOGP_3>
2.9088197

>  <GCUT_SMR_0>
-0.53086179

>  <GCUT_SMR_1>
-0.21605732

>  <GCUT_SMR_2>
0.18466157

>  <GCUT_SMR_3>
3.175699

>  <Kier1>
29.554419

>  <Kier2>
14.235294

>  <Kier3>
9.3566246

>  <KierA1>
25.377325

>  <KierA2>
12.166085

>  <KierA3>
7.9694457

>  <KierFlex>
8.8212194

>  <lip_acc>
9

>  <lip_don>
4

>  <lip_druglike>
1

>  <lip_violation>
1

>  <logP(o/w)>
2.385

>  <logS>
-4.1195402

>  <mr>
13.560583

>  <mutagenic>
1

>  <nmol>
1

>  <opr_brigid>
17

>  <opr_leadlike>
0

>  <opr_nring>
3

>  <opr_nrot>
11

>  <opr_violation>
3

>  <PC+>
0

>  <PC->
0

>  <PEOE_PC+>
3.1712978

>  <PEOE_PC->
-3.1712978

>  <PEOE_RPC+>
0.11392918

>  <PEOE_RPC->
0.12308202

>  <PEOE_VSA+0>
118.48808

>  <PEOE_VSA+1>
111.10458

>  <PEOE_VSA+2>
17.238026

>  <PEOE_VSA+3>
8.6190128

>  <PEOE_VSA+4>
10.324173

>  <PEOE_VSA+5>
4.1846013

>  <PEOE_VSA+6>
19.199511

>  <PEOE_VSA-0>
57.313297

>  <PEOE_VSA-1>
98.769875

>  <PEOE_VSA-2>
0

>  <PEOE_VSA-3>
0

>  <PEOE_VSA-4>
45.583443

>  <PEOE_VSA-5>
2.503756

>  <PEOE_VSA-6>
17.059307

>  <PEOE_VSA_FHYD>
0.80631429

>  <PEOE_VSA_FNEG>
0.43345422

>  <PEOE_VSA_FPNEG>
0.12764123

>  <PEOE_VSA_FPOL>
0.1936857

>  <PEOE_VSA_FPOS>
0.56654578

>  <PEOE_VSA_FPPOS>
0.066044472

>  <PEOE_VSA_HYD>
411.53287

>  <PEOE_VSA_NEG>
221.22968

>  <PEOE_VSA_PNEG>
65.146507

>  <PEOE_VSA_POL>
98.85479

>  <PEOE_VSA_POS>
289.15799

>  <PEOE_VSA_PPOS>
33.708286

>  <petitjean>
0.46666667

>  <petitjeanSC>
0.875

>  <Q_PC+>
0

>  <Q_PC->
0

>  <Q_RPC+>
0

>  <Q_RPC->
0

>  <Q_VSA_FHYD>
1

>  <Q_VSA_FNEG>
0

>  <Q_VSA_FPNEG>
0

>  <Q_VSA_FPOL>
0

>  <Q_VSA_FPOS>
1

>  <Q_VSA_FPPOS>
0

>  <Q_VSA_HYD>
510.38766

>  <Q_VSA_NEG>
0

>  <Q_VSA_PNEG>
0

>  <Q_VSA_POL>
0

>  <Q_VSA_POS>
510.38766

>  <Q_VSA_PPOS>
0

>  <radius>
8

>  <reactive>
0

>  <rings>
3

>  <RPC+>
0

>  <RPC->
0

>  <rsynth>
1

>  <SlogP>
2.40277

>  <SlogP_VSA0>
76.293167

>  <SlogP_VSA1>
57.006886

>  <SlogP_VSA2>
45.559784

>  <SlogP_VSA3>
78.731674

>  <SlogP_VSA4>
7.5963712

>  <SlogP_VSA5>
20.41914

>  <SlogP_VSA6>
0

>  <SlogP_VSA7>
158.78867

>  <SlogP_VSA8>
18.868406

>  <SlogP_VSA9>
93.270996

>  <SMR>
13.32327

>  <SMR_VSA0>
94.033684

>  <SMR_VSA1>
26.903788

>  <SMR_VSA2>
23.972281

>  <SMR_VSA3>
20.104841

>  <SMR_VSA4>
2.7567475

>  <SMR_VSA5>
229.42265

>  <SMR_VSA6>
86.048309

>  <SMR_VSA7>
73.29277

>  <TPSA>
131.19

>  <VAdjEq>
0.32906306

>  <VAdjMa>
6.2094536

>  <VDistEq>
3.6640811

>  <VDistMa>
10.009933

>  <vdw_area>
510.38766

>  <vdw_vol>
666.06403

>  <vsa_acc>
48.0872

>  <vsa_acid>
0

>  <vsa_base>
0

>  <vsa_don>
23.425066

>  <vsa_hyd>
356.34412

>  <vsa_other>
31.808876

>  <vsa_pol>
85.079185

>  <Weight>
505.63599

>  <weinerPath>
3813

>  <weinerPol>
50

>  <zagreb>
176

$$$$