O1[C@@H]2[C@]34[C@H]([C@H](N(CC3)C)Cc3c4c1c(O)cc3)C=C[C@@H]2O
  MOE2013           2D

 21 25  0  0  1  0  0  0  0  0999 V2000
    0.0000    0.0000    0.0000 O   0  0  0  0  0  0  0  0  0  0  0  0
    1.6990   -0.5010    0.0000 C   0  0  2  0  0  0  0  0  0  0  0  0
    1.4710   -1.9090    0.0000 C   0  0  2  0  0  0  0  0  0  0  0  0
    2.5820   -2.8170    0.0000 C   0  0  2  0  0  0  0  0  0  0  0  0
    2.3480   -4.2420    0.0000 C   0  0  2  0  0  0  0  0  0  0  0  0
    3.1750   -5.4260    0.0000 N   0  0  3  0  0  0  0  0  0  0  0  0
    1.7550   -5.1900    0.0000 C   0  0  0  0  0  0  0  0  0  0  0  0
    0.8610   -3.2330    0.0000 C   0  0  0  0  0  0  0  0  0  0  0  0
    4.4440   -6.2260    0.0000 C   0  0  0  0  0  0  0  0  0  0  0  0
    1.0000   -4.7390    0.0000 C   0  0  0  0  0  0  0  0  0  0  0  0
   -0.1130   -3.8260    0.0000 C   0  0  0  0  0  0  0  0  0  0  0  0
    0.1210   -2.4130    0.0000 C   0  0  0  0  0  0  0  0  0  0  0  0
   -0.9790   -1.5000    0.0000 C   0  0  0  0  0  0  0  0  0  0  0  0
   -2.3230   -2.0070    0.0000 C   0  0  0  0  0  0  0  0  0  0  0  0
   -3.4830   -1.0560    0.0000 O   0  0  0  0  0  0  0  0  0  0  0  0
   -2.5580   -3.4200    0.0000 C   0  0  0  0  0  0  0  0  0  0  0  0
   -1.4480   -4.3260    0.0000 C   0  0  0  0  0  0  0  0  0  0  0  0
    3.9210   -2.3170    0.0000 C   0  0  0  0  0  0  0  0  0  0  0  0
    4.1490   -0.8990    0.0000 C   0  0  0  0  0  0  0  0  0  0  0  0
    3.0380    0.0090    0.0000 C   0  0  2  0  0  0  0  0  0  0  0  0
    3.2770    1.4900    0.0000 O   0  0  0  0  0  0  0  0  0  0  0  0
  1 13  1  0  0  0  0
  2  1  1  1  0  0  0
  2  3  1  0  0  0  0
  2 20  1  0  0  0  0
  3  4  1  0  0  0  0
  3  8  1  6  0  0  0
  3 12  1  0  0  0  0
  4  5  1  0  0  0  0
  4 18  1  1  0  0  0
  5  6  1  6  0  0  0
  5 10  1  0  0  0  0
  6  7  1  0  0  0  0
  6  9  1  0  0  0  0
  7  8  1  0  0  0  0
 10 11  1  0  0  0  0
 11 12  1  0  0  0  0
 11 17  2  0  0  0  0
 12 13  2  0  0  0  0
 13 14  1  0  0  0  0
 14 15  1  0  0  0  0
 14 16  2  0  0  0  0
 16 17  1  0  0  0  0
 18 19  2  0  0  0  0
 19 20  1  0  0  0  0
 20 21  1  1  0  0  0
M  END
>  <Index>
733

>  <ID>
HT1436

>  <class>
0

>  <apol>
46.095066

>  <ast_fraglike>
0

>  <ast_fraglike_ext>
0

>  <ast_violation>
1

>  <ast_violation_ext>
1

>  <a_acc>
4

>  <a_acid>
0

>  <a_aro>
6

>  <a_base>
0

>  <a_count>
40

>  <a_don>
2

>  <a_donacc>
6

>  <a_heavy>
21

>  <a_hyd>
17

>  <a_IC>
57.924744

>  <a_ICM>
1.4481187

>  <a_nB>
0

>  <a_nBr>
0

>  <a_nC>
17

>  <a_nCl>
0

>  <a_nF>
0

>  <a_nH>
19

>  <a_nI>
0

>  <a_nN>
1

>  <a_nO>
3

>  <a_nP>
0

>  <a_nS>
0

>  <balabanJ>
1.6570927

>  <BCUT_PEOE_0>
-2.869818

>  <BCUT_PEOE_1>
-0.52764225

>  <BCUT_PEOE_2>
0.67077184

>  <BCUT_PEOE_3>
2.8827646

>  <BCUT_SLOGP_0>
-2.9332678

>  <BCUT_SLOGP_1>
-0.50843519

>  <BCUT_SLOGP_2>
0.73384833

>  <BCUT_SLOGP_3>
2.8518524

>  <BCUT_SMR_0>
-2.6108959

>  <BCUT_SMR_1>
-0.4038434

>  <BCUT_SMR_2>
0.84828228

>  <BCUT_SMR_3>
3.1367469

>  <bpol>
24.666933

>  <b_1rotN>
0

>  <b_1rotR>
0

>  <b_ar>
6

>  <b_count>
44

>  <b_double>
1

>  <b_heavy>
25

>  <b_max1len>
3

>  <b_rotN>
0

>  <b_rotR>
0

>  <b_single>
37

>  <b_triple>
0

>  <chi0>
14.353006

>  <chi0v>
11.990011

>  <chi0v_C>
10.240123

>  <chi0_C>
11.068549

>  <chi1>
10.125864

>  <chi1v>
7.7133279

>  <chi1v_C>
5.7700558

>  <chi1_C>
6.8357353

>  <chiral>
5

>  <chiral_u>
0

>  <density>
0.74753165

>  <diameter>
8

>  <FCharge>
0

>  <GCUT_PEOE_0>
-0.8562066

>  <GCUT_PEOE_1>
-0.4031401

>  <GCUT_PEOE_2>
0.074032314

>  <GCUT_PEOE_3>
3.0644083

>  <GCUT_SLOGP_0>
-0.96091497

>  <GCUT_SLOGP_1>
-0.35217461

>  <GCUT_SLOGP_2>
0.12132873

>  <GCUT_SLOGP_3>
3.0926363

>  <GCUT_SMR_0>
-0.52222925

>  <GCUT_SMR_1>
-0.22447506

>  <GCUT_SMR_2>
0.17831734

>  <GCUT_SMR_3>
3.3142011

>  <Kier1>
13.44

>  <Kier2>
4.2950625

>  <Kier3>
1.4876033

>  <KierA1>
11.480405

>  <KierA2>
3.6381724

>  <KierA3>
1.2519938

>  <KierFlex>
1.9889377

>  <lip_acc>
4

>  <lip_don>
2

>  <lip_druglike>
1

>  <lip_violation>
0

>  <logP(o/w)>
0.93699998

>  <logS>
-1.64727

>  <mr>
7.7105794

>  <mutagenic>
0

>  <nmol>
1

>  <opr_brigid>
22

>  <opr_leadlike>
1

>  <opr_nring>
5

>  <opr_nrot>
0

>  <opr_violation>
1

>  <PC+>
0

>  <PC->
0

>  <PEOE_PC+>
1.6931893

>  <PEOE_PC->
-1.6931893

>  <PEOE_RPC+>
0.12840959

>  <PEOE_RPC->
0.22746888

>  <PEOE_VSA+0>
50.065208

>  <PEOE_VSA+1>
25.592316

>  <PEOE_VSA+2>
26.726896

>  <PEOE_VSA+3>
0

>  <PEOE_VSA+4>
20.648346

>  <PEOE_VSA+5>
0

>  <PEOE_VSA+6>
0

>  <PEOE_VSA-0>
70.505623

>  <PEOE_VSA-1>
36.764713

>  <PEOE_VSA-2>
0

>  <PEOE_VSA-3>
0

>  <PEOE_VSA-4>
0

>  <PEOE_VSA-5>
0

>  <PEOE_VSA-6>
18.038837

>  <PEOE_VSA_FHYD>
0.84421808

>  <PEOE_VSA_FNEG>
0.50458324

>  <PEOE_VSA_FPNEG>
0.072637096

>  <PEOE_VSA_FPOL>
0.15578191

>  <PEOE_VSA_FPOS>
0.49541679

>  <PEOE_VSA_FPPOS>
0.083144821

>  <PEOE_VSA_HYD>
209.65475

>  <PEOE_VSA_NEG>
125.30917

>  <PEOE_VSA_PNEG>
18.038837

>  <PEOE_VSA_POL>
38.687183

>  <PEOE_VSA_POS>
123.03276

>  <PEOE_VSA_PPOS>
20.648346

>  <petitjean>
0.5

>  <petitjeanSC>
1

>  <Q_PC+>
0

>  <Q_PC->
0

>  <Q_RPC+>
0

>  <Q_RPC->
0

>  <Q_VSA_FHYD>
1

>  <Q_VSA_FNEG>
0

>  <Q_VSA_FPNEG>
0

>  <Q_VSA_FPOL>
0

>  <Q_VSA_FPOS>
1

>  <Q_VSA_FPPOS>
0

>  <Q_VSA_HYD>
248.34193

>  <Q_VSA_NEG>
0

>  <Q_VSA_PNEG>
0

>  <Q_VSA_POL>
0

>  <Q_VSA_POS>
248.34193

>  <Q_VSA_PPOS>
0

>  <radius>
4

>  <reactive>
0

>  <rings>
5

>  <RPC+>
0

>  <RPC->
0

>  <rsynth>
1

>  <SlogP>
1.19807

>  <SlogP_VSA0>
61.77034

>  <SlogP_VSA1>
3.1243138

>  <SlogP_VSA2>
16.919268

>  <SlogP_VSA3>
18.439579

>  <SlogP_VSA4>
10.781946

>  <SlogP_VSA5>
51.765594

>  <SlogP_VSA6>
0

>  <SlogP_VSA7>
70.572739

>  <SlogP_VSA8>
18.868406

>  <SlogP_VSA9>
10.486856

>  <SMR>
7.7576599

>  <SMR_VSA0>
0

>  <SMR_VSA1>
64.894653

>  <SMR_VSA2>
4.4107962

>  <SMR_VSA3>
33.777275

>  <SMR_VSA4>
0

>  <SMR_VSA5>
108.30955

>  <SMR_VSA6>
18.439579

>  <SMR_VSA7>
32.897186

>  <TPSA>
52.93

>  <VAdjEq>
0.51002371

>  <VAdjMa>
5.643856

>  <VDistEq>
2.6104989

>  <VDistMa>
8.557476

>  <vdw_area>
248.34193

>  <vdw_vol>
381.71359

>  <vsa_acc>
2.503756

>  <vsa_acid>
0

>  <vsa_base>
0

>  <vsa_don>
0

>  <vsa_hyd>
196.20918

>  <vsa_other>
0

>  <vsa_pol>
29.637598

>  <Weight>
285.34299

>  <weinerPath>
712

>  <weinerPol>
49

>  <zagreb>
132

$$$$