Fc1cc2CCC(Oc2cc1)C(O)CNCC(O)C1Oc2c(cc(F)cc2)CC1
  MOE2013           2D

 29 32  0  0  1  0  0  0  0  0999 V2000
    0.0000    0.0000    0.0000 F   0  0  0  0  0  0  0  0  0  0  0  0
    1.2990    0.7500    0.0000 C   0  0  0  0  0  0  0  0  0  0  0  0
    2.5980    0.0000    0.0000 C   0  0  0  0  0  0  0  0  0  0  0  0
    3.8970    0.7500    0.0000 C   0  0  0  0  0  0  0  0  0  0  0  0
    5.1960    0.0000    0.0000 C   0  0  0  0  0  0  0  0  0  0  0  0
    6.4950    0.7500    0.0000 C   0  0  0  0  0  0  0  0  0  0  0  0
    6.4950    2.2500    0.0000 C   0  0  3  0  0  0  0  0  0  0  0  0
    5.1960    3.0000    0.0000 O   0  0  0  0  0  0  0  0  0  0  0  0
    3.8970    2.2500    0.0000 C   0  0  0  0  0  0  0  0  0  0  0  0
    2.5980    3.0000    0.0000 C   0  0  0  0  0  0  0  0  0  0  0  0
    1.2990    2.2500    0.0000 C   0  0  0  0  0  0  0  0  0  0  0  0
    7.7940    3.0000    0.0000 C   0  0  3  0  0  0  0  0  0  0  0  0
    7.7940    4.5000    0.0000 O   0  0  0  0  0  0  0  0  0  0  0  0
    9.0930    2.2500    0.0000 C   0  0  0  0  0  0  0  0  0  0  0  0
   10.3920    3.0000    0.0000 N   0  0  0  0  0  0  0  0  0  0  0  0
   11.6910    2.2500    0.0000 C   0  0  0  0  0  0  0  0  0  0  0  0
   12.9900    3.0000    0.0000 C   0  0  3  0  0  0  0  0  0  0  0  0
   12.9900    4.5000    0.0000 O   0  0  0  0  0  0  0  0  0  0  0  0
   14.2890    2.2500    0.0000 C   0  0  3  0  0  0  0  0  0  0  0  0
   15.5880    3.0000    0.0000 O   0  0  0  0  0  0  0  0  0  0  0  0
   16.8870    2.2500    0.0000 C   0  0  0  0  0  0  0  0  0  0  0  0
   16.8870    0.7500    0.0000 C   0  0  0  0  0  0  0  0  0  0  0  0
   18.1870    0.0000    0.0000 C   0  0  0  0  0  0  0  0  0  0  0  0
   19.4860    0.7500    0.0000 C   0  0  0  0  0  0  0  0  0  0  0  0
   20.7850    0.0000    0.0000 F   0  0  0  0  0  0  0  0  0  0  0  0
   19.4860    2.2500    0.0000 C   0  0  0  0  0  0  0  0  0  0  0  0
   18.1870    3.0000    0.0000 C   0  0  0  0  0  0  0  0  0  0  0  0
   15.5880    0.0000    0.0000 C   0  0  0  0  0  0  0  0  0  0  0  0
   14.2890    0.7500    0.0000 C   0  0  0  0  0  0  0  0  0  0  0  0
  1  2  1  0  0  0  0
  2  3  1  0  0  0  0
  2 11  2  0  0  0  0
  3  4  2  0  0  0  0
  4  5  1  0  0  0  0
  4  9  1  0  0  0  0
  5  6  1  0  0  0  0
  6  7  1  0  0  0  0
  7  8  1  0  0  0  0
  7 12  1  0  0  0  0
  8  9  1  0  0  0  0
  9 10  2  0  0  0  0
 10 11  1  0  0  0  0
 12 13  1  0  0  0  0
 12 14  1  0  0  0  0
 14 15  1  0  0  0  0
 15 16  1  0  0  0  0
 16 17  1  0  0  0  0
 17 18  1  0  0  0  0
 17 19  1  0  0  0  0
 19 20  1  0  0  0  0
 19 29  1  0  0  0  0
 20 21  1  0  0  0  0
 21 22  1  0  0  0  0
 21 27  2  0  0  0  0
 22 23  2  0  0  0  0
 22 28  1  0  0  0  0
 23 24  1  0  0  0  0
 24 25  1  0  0  0  0
 24 26  2  0  0  0  0
 26 27  1  0  0  0  0
 28 29  1  0  0  0  0
M  END
>  <Index>
752

>  <ID>
HT1468

>  <class>
0

>  <apol>
60.811825

>  <ast_fraglike>
0

>  <ast_fraglike_ext>
0

>  <ast_violation>
2

>  <ast_violation_ext>
3

>  <a_acc>
5

>  <a_acid>
0

>  <a_aro>
12

>  <a_base>
0

>  <a_count>
54

>  <a_don>
3

>  <a_donacc>
8

>  <a_heavy>
29

>  <a_hyd>
24

>  <a_IC>
86.560028

>  <a_ICM>
1.6029634

>  <a_nB>
0

>  <a_nBr>
0

>  <a_nC>
22

>  <a_nCl>
0

>  <a_nF>
2

>  <a_nH>
25

>  <a_nI>
0

>  <a_nN>
1

>  <a_nO>
4

>  <a_nP>
0

>  <a_nS>
0

>  <balabanJ>
1.1551208

>  <BCUT_PEOE_0>
-2.7095568

>  <BCUT_PEOE_1>
-0.62943244

>  <BCUT_PEOE_2>
0.62025166

>  <BCUT_PEOE_3>
2.704385

>  <BCUT_SLOGP_0>
-2.8740544

>  <BCUT_SLOGP_1>
-0.59450746

>  <BCUT_SLOGP_2>
0.72095829

>  <BCUT_SLOGP_3>
2.6494184

>  <BCUT_SMR_0>
-2.4688454

>  <BCUT_SMR_1>
-0.44644305

>  <BCUT_SMR_2>
0.77507818

>  <BCUT_SMR_3>
2.9361839

>  <bpol>
34.228176

>  <b_1rotN>
6

>  <b_1rotR>
0.1875

>  <b_ar>
12

>  <b_count>
57

>  <b_double>
0

>  <b_heavy>
32

>  <b_max1len>
8

>  <b_rotN>
6

>  <b_rotR>
0.1875

>  <b_single>
45

>  <b_triple>
0

>  <chi0>
20.380104

>  <chi0v>
15.982996

>  <chi0v_C>
13.016144

>  <chi0_C>
14.258784

>  <chi1>
13.991203

>  <chi1v>
9.9639559

>  <chi1v_C>
7.4828343

>  <chi1_C>
9.0488091

>  <chiral>
4

>  <chiral_u>
4

>  <density>
0.7777763

>  <diameter>
18

>  <FCharge>
0

>  <GCUT_PEOE_0>
-0.83778763

>  <GCUT_PEOE_1>
-0.41835871

>  <GCUT_PEOE_2>
0.08888761

>  <GCUT_PEOE_3>
2.7928624

>  <GCUT_SLOGP_0>
-1.1542127

>  <GCUT_SLOGP_1>
-0.35393223

>  <GCUT_SLOGP_2>
0.17499153

>  <GCUT_SLOGP_3>
2.7978671

>  <GCUT_SMR_0>
-0.52521998

>  <GCUT_SMR_1>
-0.22398531

>  <GCUT_SMR_2>
0.17058629

>  <GCUT_SMR_3>
3.0237548

>  <Kier1>
22.203125

>  <Kier2>
10.08

>  <Kier3>
5.6266351

>  <KierA1>
18.487047

>  <KierA2>
8.335042

>  <KierA3>
4.6289225

>  <KierFlex>
5.3134594

>  <lip_acc>
5

>  <lip_don>
3

>  <lip_druglike>
1

>  <lip_violation>
0

>  <logP(o/w)>
3.2149999

>  <logS>
-4.0030799

>  <mr>
10.570834

>  <mutagenic>
0

>  <nmol>
1

>  <opr_brigid>
22

>  <opr_leadlike>
1

>  <opr_nring>
4

>  <opr_nrot>
8

>  <opr_violation>
0

>  <PC+>
0

>  <PC->
0

>  <PEOE_PC+>
2.4357262

>  <PEOE_PC->
-2.4357262

>  <PEOE_RPC+>
0.086193718

>  <PEOE_RPC->
0.1592748

>  <PEOE_VSA+0>
77.569283

>  <PEOE_VSA+1>
79.190613

>  <PEOE_VSA+2>
26.660704

>  <PEOE_VSA+3>
0

>  <PEOE_VSA+4>
20.648346

>  <PEOE_VSA+5>
0

>  <PEOE_VSA+6>
0

>  <PEOE_VSA-0>
112.75175

>  <PEOE_VSA-1>
0

>  <PEOE_VSA-2>
0

>  <PEOE_VSA-3>
0

>  <PEOE_VSA-4>
23.817272

>  <PEOE_VSA-5>
0

>  <PEOE_VSA-6>
20.679483

>  <PEOE_VSA_FHYD>
0.81970119

>  <PEOE_VSA_FNEG>
0.43520874

>  <PEOE_VSA_FPNEG>
0.12315141

>  <PEOE_VSA_FPOL>
0.18029879

>  <PEOE_VSA_FPOS>
0.56479126

>  <PEOE_VSA_FPPOS>
0.05714738

>  <PEOE_VSA_HYD>
296.17236

>  <PEOE_VSA_NEG>
157.2485

>  <PEOE_VSA_PNEG>
44.496754

>  <PEOE_VSA_POL>
65.145103

>  <PEOE_VSA_POS>
204.06894

>  <PEOE_VSA_PPOS>
20.648346

>  <petitjean>
0.5

>  <petitjeanSC>
1

>  <Q_PC+>
0

>  <Q_PC->
0

>  <Q_RPC+>
0

>  <Q_RPC->
0

>  <Q_VSA_FHYD>
1

>  <Q_VSA_FNEG>
0

>  <Q_VSA_FPNEG>
0

>  <Q_VSA_FPOL>
0

>  <Q_VSA_FPOS>
1

>  <Q_VSA_FPPOS>
0

>  <Q_VSA_HYD>
361.31744

>  <Q_VSA_NEG>
0

>  <Q_VSA_PNEG>
0

>  <Q_VSA_POL>
0

>  <Q_VSA_POS>
361.31744

>  <Q_VSA_PPOS>
0

>  <radius>
9

>  <reactive>
0

>  <rings>
4

>  <RPC+>
0

>  <RPC->
0

>  <rsynth>
0.55172414

>  <SlogP>
2.3635399

>  <SlogP_VSA0>
90.780983

>  <SlogP_VSA1>
0

>  <SlogP_VSA2>
44.116634

>  <SlogP_VSA3>
36.879158

>  <SlogP_VSA4>
6.37115

>  <SlogP_VSA5>
37.736813

>  <SlogP_VSA6>
0

>  <SlogP_VSA7>
105.85911

>  <SlogP_VSA8>
37.736813

>  <SlogP_VSA9>
40.407082

>  <SMR>
10.31573

>  <SMR_VSA0>
0

>  <SMR_VSA1>
102.69045

>  <SMR_VSA2>
36.252789

>  <SMR_VSA3>
42.732601

>  <SMR_VSA4>
0

>  <SMR_VSA5>
181.33273

>  <SMR_VSA6>
36.879158

>  <SMR_VSA7>
0

>  <TPSA>
70.949997

>  <VAdjEq>
0.38828552

>  <VAdjMa>
6

>  <VDistEq>
3.8814707

>  <VDistMa>
9.3717394

>  <vdw_area>
361.31744

>  <vdw_vol>
521.28229

>  <vsa_acc>
5.0075121

>  <vsa_acid>
0

>  <vsa_base>
0

>  <vsa_don>
0

>  <vsa_hyd>
295.71112

>  <vsa_other>
0

>  <vsa_pol>
37.823929

>  <Weight>
405.44098

>  <weinerPath>
2692

>  <weinerPol>
46

>  <zagreb>
154

$$$$