Clc1cc([N+](=O)[O-])ccc1NC(=O)c1cc(Cl)ccc1O
  MOE2013           2D

 21 22  0  0  0  0  0  0  0  0999 V2000
    0.0000    0.0000    0.0000 Cl  0  0  0  0  0  0  0  0  0  0  0  0
    0.7560   -1.2950    0.0000 C   0  0  0  0  0  0  0  0  0  0  0  0
    2.2560   -1.2880    0.0000 C   0  0  0  0  0  0  0  0  0  0  0  0
    3.0130   -2.5840    0.0000 C   0  0  0  0  0  0  0  0  0  0  0  0
    4.5130   -2.5760    0.0000 N   0  3  0  0  0  0  0  0  0  0  0  0
    5.2560   -1.2740    0.0000 O   0  0  0  0  0  0  0  0  0  0  0  0
    5.2690   -3.8720    0.0000 O   0  5  0  0  0  0  0  0  0  0  0  0
    2.2690   -3.8860    0.0000 C   0  0  0  0  0  0  0  0  0  0  0  0
    0.7690   -3.8930    0.0000 C   0  0  0  0  0  0  0  0  0  0  0  0
    0.0130   -2.5980    0.0000 C   0  0  0  0  0  0  0  0  0  0  0  0
   -1.4870   -2.6050    0.0000 N   0  0  0  0  0  0  0  0  0  0  0  0
   -2.2310   -3.9080    0.0000 C   0  0  0  0  0  0  0  0  0  0  0  0
   -1.4750   -5.2030    0.0000 O   0  0  0  0  0  0  0  0  0  0  0  0
   -3.7310   -3.9150    0.0000 C   0  0  0  0  0  0  0  0  0  0  0  0
   -4.4870   -2.6200    0.0000 C   0  0  0  0  0  0  0  0  0  0  0  0
   -5.9870   -2.6270    0.0000 C   0  0  0  0  0  0  0  0  0  0  0  0
   -6.7440   -1.3320    0.0000 Cl  0  0  0  0  0  0  0  0  0  0  0  0
   -6.7310   -3.9300    0.0000 C   0  0  0  0  0  0  0  0  0  0  0  0
   -5.9750   -5.2250    0.0000 C   0  0  0  0  0  0  0  0  0  0  0  0
   -4.4750   -5.2180    0.0000 C   0  0  0  0  0  0  0  0  0  0  0  0
   -3.7190   -6.5130    0.0000 O   0  0  0  0  0  0  0  0  0  0  0  0
  1  2  1  0  0  0  0
  2  3  1  0  0  0  0
  2 10  2  0  0  0  0
  3  4  2  0  0  0  0
  4  5  1  0  0  0  0
  4  8  1  0  0  0  0
  5  6  2  0  0  0  0
  5  7  1  0  0  0  0
  8  9  2  0  0  0  0
  9 10  1  0  0  0  0
 10 11  1  0  0  0  0
 11 12  1  0  0  0  0
 12 13  2  0  0  0  0
 12 14  1  0  0  0  0
 14 15  1  0  0  0  0
 14 20  2  0  0  0  0
 15 16  2  0  0  0  0
 16 17  1  0  0  0  0
 16 18  1  0  0  0  0
 18 19  2  0  0  0  0
 19 20  1  0  0  0  0
 20 21  1  0  0  0  0
M  CHG  1   5   1
M  CHG  1   7  -1
M  END
>  <Index>
764

>  <ID>
HT1486

>  <class>
0

>  <apol>
37.982346

>  <ast_fraglike>
0

>  <ast_fraglike_ext>
0

>  <ast_violation>
2

>  <ast_violation_ext>
2

>  <a_acc>
2

>  <a_acid>
0

>  <a_aro>
12

>  <a_base>
0

>  <a_count>
29

>  <a_don>
2

>  <a_donacc>
4

>  <a_heavy>
21

>  <a_hyd>
15

>  <a_IC>
56.775734

>  <a_ICM>
1.9577839

>  <a_nB>
0

>  <a_nBr>
0

>  <a_nC>
13

>  <a_nCl>
2

>  <a_nF>
0

>  <a_nH>
8

>  <a_nI>
0

>  <a_nN>
2

>  <a_nO>
4

>  <a_nP>
0

>  <a_nS>
0

>  <balabanJ>
1.8696266

>  <BCUT_PEOE_0>
-2.2573647

>  <BCUT_PEOE_1>
-0.65917104

>  <BCUT_PEOE_2>
0.69934487

>  <BCUT_PEOE_3>
2.2843745

>  <BCUT_SLOGP_0>
-2.2868323

>  <BCUT_SLOGP_1>
-0.53390998

>  <BCUT_SLOGP_2>
0.87430835

>  <BCUT_SLOGP_3>
2.416044

>  <BCUT_SMR_0>
-1.9246006

>  <BCUT_SMR_1>
-0.44916537

>  <BCUT_SMR_2>
0.93148607

>  <BCUT_SMR_3>
2.6032743

>  <bpol>
12.459656

>  <b_1rotN>
3

>  <b_1rotR>
0.13636364

>  <b_ar>
12

>  <b_count>
30

>  <b_double>
2

>  <b_heavy>
22

>  <b_max1len>
1

>  <b_rotN>
4

>  <b_rotR>
0.18181819

>  <b_single>
16

>  <b_triple>
0

>  <chi0>
15.568549

>  <chi0v>
11.851061

>  <chi0v_C>
6.9641018

>  <chi0_C>
8.2840929

>  <chi1>
9.8799181

>  <chi1v>
6.3764472

>  <chi1v_C>
3.7260678

>  <chi1_C>
5.2659864

>  <chiral>
0

>  <chiral_u>
0

>  <density>
0.93443674

>  <diameter>
11

>  <FCharge>
0

>  <GCUT_PEOE_0>
-0.80333543

>  <GCUT_PEOE_1>
-0.46357903

>  <GCUT_PEOE_2>
0.10671967

>  <GCUT_PEOE_3>
2.2974377

>  <GCUT_SLOGP_0>
-0.99310988

>  <GCUT_SLOGP_1>
-0.27131885

>  <GCUT_SLOGP_2>
0.27122629

>  <GCUT_SLOGP_3>
2.4408159

>  <GCUT_SMR_0>
-0.49107206

>  <GCUT_SMR_1>
-0.20519173

>  <GCUT_SMR_2>
0.35487592

>  <GCUT_SMR_3>
2.5956316

>  <Kier1>
17.355371

>  <Kier2>
7.5130072

>  <Kier3>
4.4875345

>  <KierA1>
13.880994

>  <KierA2>
5.9370985

>  <KierA3>
3.5135615

>  <KierFlex>
3.9244201

>  <lip_acc>
6

>  <lip_don>
2

>  <lip_druglike>
1

>  <lip_violation>
0

>  <logP(o/w)>
3.74

>  <logS>
-5.25173

>  <mr>
7.7355118

>  <mutagenic>
1

>  <nmol>
1

>  <opr_brigid>
12

>  <opr_leadlike>
1

>  <opr_nring>
2

>  <opr_nrot>
3

>  <opr_violation>
0

>  <PC+>
0

>  <PC->
0

>  <PEOE_PC+>
1.758163

>  <PEOE_PC->
-1.758163

>  <PEOE_RPC+>
0.15507357

>  <PEOE_RPC->
0.20423007

>  <PEOE_VSA+0>
29.029554

>  <PEOE_VSA+1>
51.506706

>  <PEOE_VSA+2>
0

>  <PEOE_VSA+3>
8.6190128

>  <PEOE_VSA+4>
10.324173

>  <PEOE_VSA+5>
19.649082

>  <PEOE_VSA+6>
0

>  <PEOE_VSA-0>
49.019615

>  <PEOE_VSA-1>
59.163895

>  <PEOE_VSA-2>
0

>  <PEOE_VSA-3>
0

>  <PEOE_VSA-4>
0

>  <PEOE_VSA-5>
47.497971

>  <PEOE_VSA-6>
7.9044313

>  <PEOE_VSA_FHYD>
0.6980145

>  <PEOE_VSA_FNEG>
0.57862592

>  <PEOE_VSA_FPNEG>
0.19596595

>  <PEOE_VSA_FPOL>
0.30198547

>  <PEOE_VSA_FPOS>
0.42137405

>  <PEOE_VSA_FPPOS>
0.10601954

>  <PEOE_VSA_HYD>
197.33879

>  <PEOE_VSA_NEG>
163.58591

>  <PEOE_VSA_PNEG>
55.402401

>  <PEOE_VSA_POL>
85.375656

>  <PEOE_VSA_POS>
119.12853

>  <PEOE_VSA_PPOS>
29.973255

>  <petitjean>
0.45454547

>  <petitjeanSC>
0.83333331

>  <Q_PC+>
0

>  <Q_PC->
0

>  <Q_RPC+>
0

>  <Q_RPC->
0

>  <Q_VSA_FHYD>
1

>  <Q_VSA_FNEG>
0

>  <Q_VSA_FPNEG>
0

>  <Q_VSA_FPOL>
0

>  <Q_VSA_FPOS>
1

>  <Q_VSA_FPPOS>
0

>  <Q_VSA_HYD>
282.71445

>  <Q_VSA_NEG>
0

>  <Q_VSA_PNEG>
0

>  <Q_VSA_POL>
0

>  <Q_VSA_POS>
282.71445

>  <Q_VSA_PPOS>
0

>  <radius>
6

>  <reactive>
1

>  <rings>
2

>  <RPC+>
0

>  <RPC->
0

>  <rsynth>
1

>  <SlogP>
3.8594999

>  <SlogP_VSA0>
25.385227

>  <SlogP_VSA1>
30.35515

>  <SlogP_VSA2>
0

>  <SlogP_VSA3>
50.935009

>  <SlogP_VSA4>
27.047791

>  <SlogP_VSA5>
0

>  <SlogP_VSA6>
7.0012131

>  <SlogP_VSA7>
105.85911

>  <SlogP_VSA8>
0

>  <SlogP_VSA9>
89.054214

>  <SMR>
7.9176402

>  <SMR_VSA0>
30.947832

>  <SMR_VSA1>
25.385227

>  <SMR_VSA2>
50.935009

>  <SMR_VSA3>
15.430216

>  <SMR_VSA4>
23.524246

>  <SMR_VSA5>
105.85911

>  <SMR_VSA6>
5.2587838

>  <SMR_VSA7>
78.297287

>  <TPSA>
95.150002

>  <VAdjEq>
0.46827638

>  <VAdjMa>
5.4594316

>  <VDistEq>
3.2825189

>  <VDistMa>
8.4758368

>  <vdw_area>
282.71445

>  <vdw_vol>
350.07507

>  <vsa_acc>
13.566921

>  <vsa_acid>
0

>  <vsa_base>
0

>  <vsa_don>
5.6825762

>  <vsa_hyd>
191.14854

>  <vsa_other>
46.880581

>  <vsa_pol>
32.816418

>  <Weight>
327.12299

>  <weinerPath>
980

>  <weinerPol>
32

>  <zagreb>
106

$$$$