S1C2N(C(C(OCOC(=O)C(C)(C)C)=O)C1(C)C)C(=O)C2N=CN1CCCCCC1
  MOE2013           2D

 30 32  0  0  1  0  0  0  0  0999 V2000
    0.0000    0.0000    0.0000 S   0  0  0  0  0  0  0  0  0  0  0  0
   -1.0010   -1.1170    0.0000 C   0  0  3  0  0  0  0  0  0  0  0  0
   -0.2480   -2.4140    0.0000 N   0  0  0  0  0  0  0  0  0  0  0  0
    1.2180   -2.0990    0.0000 C   0  0  3  0  0  0  0  0  0  0  0  0
    2.3350   -3.1010    0.0000 C   0  0  0  0  0  0  0  0  0  0  0  0
    3.7610   -2.6340    0.0000 O   0  0  0  0  0  0  0  0  0  0  0  0
    4.8770   -3.6350    0.0000 C   0  0  0  0  0  0  0  0  0  0  0  0
    6.3030   -3.1690    0.0000 O   0  0  0  0  0  0  0  0  0  0  0  0
    7.4200   -4.1700    0.0000 C   0  0  0  0  0  0  0  0  0  0  0  0
    7.1110   -5.6380    0.0000 O   0  0  0  0  0  0  0  0  0  0  0  0
    8.8450   -3.7030    0.0000 C   0  0  0  0  0  0  0  0  0  0  0  0
   10.2710   -3.2370    0.0000 C   0  0  0  0  0  0  0  0  0  0  0  0
    8.3790   -2.2780    0.0000 C   0  0  0  0  0  0  0  0  0  0  0  0
    9.3120   -5.1290    0.0000 C   0  0  0  0  0  0  0  0  0  0  0  0
    2.0260   -4.5680    0.0000 O   0  0  0  0  0  0  0  0  0  0  0  0
    1.3720   -0.6070    0.0000 C   0  0  0  0  0  0  0  0  0  0  0  0
    2.0850    0.7130    0.0000 C   0  0  0  0  0  0  0  0  0  0  0  0
    2.8710   -0.6430    0.0000 C   0  0  0  0  0  0  0  0  0  0  0  0
   -1.5460   -3.1670    0.0000 C   0  0  0  0  0  0  0  0  0  0  0  0
   -1.9310   -4.6170    0.0000 O   0  0  0  0  0  0  0  0  0  0  0  0
   -2.2990   -1.8700    0.0000 C   0  0  3  0  0  0  0  0  0  0  0  0
   -3.7480   -1.4850    0.0000 N   0  0  0  0  0  0  0  0  0  0  0  0
   -4.8070   -2.5480    0.0000 C   0  0  0  0  0  0  0  0  0  0  0  0
   -6.2560   -2.1620    0.0000 N   0  0  0  0  0  0  0  0  0  0  0  0
   -6.5380   -0.6890    0.0000 C   0  0  0  0  0  0  0  0  0  0  0  0
   -7.8670    0.0080    0.0000 C   0  0  0  0  0  0  0  0  0  0  0  0
   -9.2400   -0.5960    0.0000 C   0  0  0  0  0  0  0  0  0  0  0  0
   -9.6250   -2.0460    0.0000 C   0  0  0  0  0  0  0  0  0  0  0  0
   -8.7310   -3.2500    0.0000 C   0  0  0  0  0  0  0  0  0  0  0  0
   -7.2320   -3.3020    0.0000 C   0  0  0  0  0  0  0  0  0  0  0  0
  1  2  1  0  0  0  0
  1 16  1  0  0  0  0
  2  3  1  0  0  0  0
  2 21  1  0  0  0  0
  3  4  1  0  0  0  0
  3 19  1  0  0  0  0
  4  5  1  0  0  0  0
  4 16  1  0  0  0  0
  5  6  1  0  0  0  0
  5 15  2  0  0  0  0
  6  7  1  0  0  0  0
  7  8  1  0  0  0  0
  8  9  1  0  0  0  0
  9 10  2  0  0  0  0
  9 11  1  0  0  0  0
 11 12  1  0  0  0  0
 11 13  1  0  0  0  0
 11 14  1  0  0  0  0
 16 17  1  0  0  0  0
 16 18  1  0  0  0  0
 19 20  2  0  0  0  0
 19 21  1  0  0  0  0
 21 22  1  0  0  0  0
 22 23  2  3  0  0  0
 23 24  1  0  0  0  0
 24 25  1  0  0  0  0
 24 30  1  0  0  0  0
 25 26  1  0  0  0  0
 26 27  1  0  0  0  0
 27 28  1  0  0  0  0
 28 29  1  0  0  0  0
 29 30  1  0  0  0  0
M  END
>  <Index>
877

>  <ID>
HT1700

>  <class>
0

>  <apol>
69.174171

>  <ast_fraglike>
0

>  <ast_fraglike_ext>
0

>  <ast_violation>
2

>  <ast_violation_ext>
3

>  <a_acc>
4

>  <a_acid>
0

>  <a_aro>
0

>  <a_base>
0

>  <a_count>
63

>  <a_don>
0

>  <a_donacc>
4

>  <a_heavy>
30

>  <a_hyd>
17

>  <a_IC>
101.50043

>  <a_ICM>
1.6111181

>  <a_nB>
0

>  <a_nBr>
0

>  <a_nC>
21

>  <a_nCl>
0

>  <a_nF>
0

>  <a_nH>
33

>  <a_nI>
0

>  <a_nN>
3

>  <a_nO>
5

>  <a_nP>
0

>  <a_nS>
1

>  <balabanJ>
1.5130091

>  <BCUT_PEOE_0>
-2.6253819

>  <BCUT_PEOE_1>
-0.21257591

>  <BCUT_PEOE_2>
0.061904084

>  <BCUT_PEOE_3>
2.8446734

>  <BCUT_SLOGP_0>
-2.8241751

>  <BCUT_SLOGP_1>
-0.10169223

>  <BCUT_SLOGP_2>
0.13108827

>  <BCUT_SLOGP_3>
2.7634342

>  <BCUT_SMR_0>
-2.3795483

>  <BCUT_SMR_1>
0.044782806

>  <BCUT_SMR_2>
0.15561293

>  <BCUT_SMR_3>
3.122333

>  <bpol>
50.341831

>  <b_1rotN>
5

>  <b_1rotR>
0.15625

>  <b_ar>
0

>  <b_count>
65

>  <b_double>
4

>  <b_heavy>
32

>  <b_max1len>
4

>  <b_rotN>
8

>  <b_rotR>
0.25

>  <b_single>
61

>  <b_triple>
0

>  <chi0>
22.104084

>  <chi0v>
19.366776

>  <chi0v_C>
14.759149

>  <chi0_C>
15.120955

>  <chi1>
14.020693

>  <chi1v>
11.513865

>  <chi1v_C>
6.4493589

>  <chi1_C>
6.5773501

>  <chiral>
3

>  <chiral_u>
3

>  <density>
0.7608819

>  <diameter>
16

>  <FCharge>
0

>  <GCUT_PEOE_0>
-0.8748005

>  <GCUT_PEOE_1>
-0.33655238

>  <GCUT_PEOE_2>
-0.098095916

>  <GCUT_PEOE_3>
2.8391199

>  <GCUT_SLOGP_0>
-1.0440439

>  <GCUT_SLOGP_1>
-0.29003188

>  <GCUT_SLOGP_2>
-0.037

>  <GCUT_SLOGP_3>
2.8229828

>  <GCUT_SMR_0>
-0.53609633

>  <GCUT_SMR_1>
-0.1184602

>  <GCUT_SMR_2>
-0.048644319

>  <GCUT_SMR_3>
3.0904434

>  <Kier1>
24.638672

>  <Kier2>
9.8680553

>  <Kier3>
5.6887932

>  <KierA1>
22.510233

>  <KierA2>
8.9864225

>  <KierA3>
5.1686764

>  <KierFlex>
6.7428823

>  <lip_acc>
8

>  <lip_don>
0

>  <lip_druglike>
1

>  <lip_violation>
0

>  <logP(o/w)>
3.3900001

>  <logS>
-3.62989

>  <mr>
11.566723

>  <mutagenic>
0

>  <nmol>
1

>  <opr_brigid>
16

>  <opr_leadlike>
1

>  <opr_nring>
3

>  <opr_nrot>
9

>  <opr_violation>
0

>  <PC+>
0

>  <PC->
0

>  <PEOE_PC+>
2.8503795

>  <PEOE_PC->
-2.8503795

>  <PEOE_RPC+>
0.10117673

>  <PEOE_RPC->
0.12702988

>  <PEOE_VSA+0>
141.55008

>  <PEOE_VSA+1>
42.563858

>  <PEOE_VSA+2>
12.533369

>  <PEOE_VSA+3>
24.347233

>  <PEOE_VSA+4>
0

>  <PEOE_VSA+5>
42.366531

>  <PEOE_VSA+6>
0

>  <PEOE_VSA-0>
54.89798

>  <PEOE_VSA-1>
73.64566

>  <PEOE_VSA-2>
19.760618

>  <PEOE_VSA-3>
0

>  <PEOE_VSA-4>
0

>  <PEOE_VSA-5>
51.39085

>  <PEOE_VSA-6>
0

>  <PEOE_VSA_FHYD>
0.79752481

>  <PEOE_VSA_FNEG>
0.43125463

>  <PEOE_VSA_FPNEG>
0.1109819

>  <PEOE_VSA_FPOL>
0.20247518

>  <PEOE_VSA_FPOS>
0.56874537

>  <PEOE_VSA_FPPOS>
0.091493286

>  <PEOE_VSA_HYD>
369.2988

>  <PEOE_VSA_NEG>
199.69511

>  <PEOE_VSA_PNEG>
51.39085

>  <PEOE_VSA_POL>
93.757378

>  <PEOE_VSA_POS>
263.36105

>  <PEOE_VSA_PPOS>
42.366531

>  <petitjean>
0.5

>  <petitjeanSC>
1

>  <Q_PC+>
0

>  <Q_PC->
0

>  <Q_RPC+>
0

>  <Q_RPC->
0

>  <Q_VSA_FHYD>
1

>  <Q_VSA_FNEG>
0

>  <Q_VSA_FPNEG>
0

>  <Q_VSA_FPOL>
0

>  <Q_VSA_FPOS>
1

>  <Q_VSA_FPPOS>
0

>  <Q_VSA_HYD>
463.05618

>  <Q_VSA_NEG>
0

>  <Q_VSA_PNEG>
0

>  <Q_VSA_POL>
0

>  <Q_VSA_POS>
463.05618

>  <Q_VSA_PPOS>
0

>  <radius>
8

>  <reactive>
0

>  <rings>
3

>  <RPC+>
0

>  <RPC->
0

>  <rsynth>
1

>  <SlogP>
2.4116001

>  <SlogP_VSA0>
0

>  <SlogP_VSA1>
26.998339

>  <SlogP_VSA2>
120.68302

>  <SlogP_VSA3>
59.86327

>  <SlogP_VSA4>
0

>  <SlogP_VSA5>
16.78553

>  <SlogP_VSA6>
0

>  <SlogP_VSA7>
0

>  <SlogP_VSA8>
75.473625

>  <SlogP_VSA9>
198.84961

>  <SMR>
11.492

>  <SMR_VSA0>
93.586426

>  <SMR_VSA1>
23.034157

>  <SMR_VSA2>
0

>  <SMR_VSA3>
10.311065

>  <SMR_VSA4>
0

>  <SMR_VSA5>
75.473625

>  <SMR_VSA6>
80.612976

>  <SMR_VSA7>
215.63515

>  <TPSA>
88.510002

>  <VAdjEq>
0.37005648

>  <VAdjMa>
6

>  <VDistEq>
3.787817

>  <VDistMa>
9.4963045

>  <vdw_area>
463.05618

>  <vdw_vol>
577.7204

>  <vsa_acc>
46.383339

>  <vsa_acid>
0

>  <vsa_base>
0

>  <vsa_don>
0

>  <vsa_hyd>
292.71057

>  <vsa_other>
100.47301

>  <vsa_pol>
46.383339

>  <Weight>
439.577

>  <weinerPath>
2772

>  <weinerPol>
48

>  <zagreb>
160

$$$$