S1C2N(C(=O)C2NC(=O)C(N)C=2CC=CCC=2)C(C(O)=O)=C(OC)C1
  MOE2013           2D

 25 27  0  0  1  0  0  0  0  0999 V2000
    0.0000    0.0000    0.0000 S   0  0  0  0  0  0  0  0  0  0  0  0
   -0.7570   -1.2950    0.0000 C   0  0  3  0  0  0  0  0  0  0  0  0
   -0.0140   -2.5980    0.0000 N   0  0  0  0  0  0  0  0  0  0  0  0
   -1.3170   -3.3410    0.0000 C   0  0  0  0  0  0  0  0  0  0  0  0
   -1.7130   -4.7880    0.0000 O   0  0  0  0  0  0  0  0  0  0  0  0
   -2.0600   -2.0380    0.0000 C   0  0  3  0  0  0  0  0  0  0  0  0
   -3.5070   -1.6420    0.0000 N   0  0  0  0  0  0  0  0  0  0  0  0
   -4.5730   -2.6970    0.0000 C   0  0  0  0  0  0  0  0  0  0  0  0
   -4.1930   -4.1470    0.0000 O   0  0  0  0  0  0  0  0  0  0  0  0
   -6.0200   -2.3000    0.0000 C   0  0  3  0  0  0  0  0  0  0  0  0
   -6.4000   -0.8490    0.0000 N   0  0  0  0  0  0  0  0  0  0  0  0
   -7.0870   -3.3550    0.0000 C   0  0  0  0  0  0  0  0  0  0  0  0
   -8.5330   -2.9590    0.0000 C   0  0  0  0  0  0  0  0  0  0  0  0
   -9.6000   -4.0140    0.0000 C   0  0  0  0  0  0  0  0  0  0  0  0
   -9.2190   -5.4650    0.0000 C   0  0  0  0  0  0  0  0  0  0  0  0
   -7.7730   -5.8610    0.0000 C   0  0  0  0  0  0  0  0  0  0  0  0
   -6.7060   -4.8060    0.0000 C   0  0  0  0  0  0  0  0  0  0  0  0
    1.4860   -2.6060    0.0000 C   0  0  0  0  0  0  0  0  0  0  0  0
    2.2290   -3.9090    0.0000 C   0  0  0  0  0  0  0  0  0  0  0  0
    3.7290   -3.9180    0.0000 O   0  0  0  0  0  0  0  0  0  0  0  0
    1.4720   -5.2040    0.0000 O   0  0  0  0  0  0  0  0  0  0  0  0
    2.2430   -1.3110    0.0000 C   0  0  0  0  0  0  0  0  0  0  0  0
    3.7430   -1.3200    0.0000 O   0  0  0  0  0  0  0  0  0  0  0  0
    4.5000   -0.0250    0.0000 C   0  0  0  0  0  0  0  0  0  0  0  0
    1.5000   -0.0080    0.0000 C   0  0  0  0  0  0  0  0  0  0  0  0
  1  2  1  0  0  0  0
  1 25  1  0  0  0  0
  2  3  1  0  0  0  0
  2  6  1  0  0  0  0
  3  4  1  0  0  0  0
  3 18  1  0  0  0  0
  4  5  2  0  0  0  0
  4  6  1  0  0  0  0
  6  7  1  0  0  0  0
  7  8  1  0  0  0  0
  8  9  2  0  0  0  0
  8 10  1  0  0  0  0
 10 11  1  0  0  0  0
 10 12  1  0  0  0  0
 12 13  1  0  0  0  0
 12 17  2  0  0  0  0
 13 14  1  0  0  0  0
 14 15  2  0  0  0  0
 15 16  1  0  0  0  0
 16 17  1  0  0  0  0
 18 19  1  0  0  0  0
 18 22  2  0  0  0  0
 19 20  1  0  0  0  0
 19 21  2  0  0  0  0
 22 23  1  0  0  0  0
 22 25  1  0  0  0  0
 23 24  1  0  0  0  0
M  END
>  <Index>
847

>  <ID>
HT1645

>  <class>
0

>  <apol>
51.039066

>  <ast_fraglike>
0

>  <ast_fraglike_ext>
0

>  <ast_violation>
3

>  <ast_violation_ext>
5

>  <a_acc>
6

>  <a_acid>
0

>  <a_aro>
0

>  <a_base>
0

>  <a_count>
44

>  <a_don>
4

>  <a_donacc>
10

>  <a_heavy>
25

>  <a_hyd>
14

>  <a_IC>
79.139839

>  <a_ICM>
1.7986327

>  <a_nB>
0

>  <a_nBr>
0

>  <a_nC>
16

>  <a_nCl>
0

>  <a_nF>
0

>  <a_nH>
19

>  <a_nI>
0

>  <a_nN>
3

>  <a_nO>
5

>  <a_nP>
0

>  <a_nS>
1

>  <balabanJ>
1.5947502

>  <BCUT_PEOE_0>
-2.6831379

>  <BCUT_PEOE_1>
-0.59103799

>  <BCUT_PEOE_2>
0.60493863

>  <BCUT_PEOE_3>
2.7372184

>  <BCUT_SLOGP_0>
-2.9092069

>  <BCUT_SLOGP_1>
-0.54682791

>  <BCUT_SLOGP_2>
0.61828732

>  <BCUT_SLOGP_3>
2.6051841

>  <BCUT_SMR_0>
-2.4027147

>  <BCUT_SMR_1>
-0.42240176

>  <BCUT_SMR_2>
0.75536793

>  <BCUT_SMR_3>
3.0142457

>  <bpol>
29.820932

>  <b_1rotN>
5

>  <b_1rotR>
0.18518518

>  <b_ar>
0

>  <b_count>
46

>  <b_double>
6

>  <b_heavy>
27

>  <b_max1len>
3

>  <b_rotN>
6

>  <b_rotR>
0.22222222

>  <b_single>
40

>  <b_triple>
0

>  <chi0>
18.137465

>  <chi0v>
14.414937

>  <chi0v_C>
9.5854216

>  <chi0_C>
10.438793

>  <chi1>
11.951596

>  <chi1v>
8.8521233

>  <chi1v_C>
4.2532187

>  <chi1_C>
5.2247448

>  <chiral>
3

>  <chiral_u>
3

>  <density>
0.83173645

>  <diameter>
13

>  <FCharge>
0

>  <GCUT_PEOE_0>
-0.82386023

>  <GCUT_PEOE_1>
-0.45281184

>  <GCUT_PEOE_2>
0.06492845

>  <GCUT_PEOE_3>
2.6362405

>  <GCUT_SLOGP_0>
-1.3637127

>  <GCUT_SLOGP_1>
-0.41794121

>  <GCUT_SLOGP_2>
0.10339044

>  <GCUT_SLOGP_3>
2.5924604

>  <GCUT_SMR_0>
-0.52927822

>  <GCUT_SMR_1>
-0.23690106

>  <GCUT_SMR_2>
0.21120882

>  <GCUT_SMR_3>
2.9041479

>  <Kier1>
19.753086

>  <Kier2>
8.3471403

>  <Kier3>
3.8399999

>  <KierA1>
16.643322

>  <KierA2>
6.97999

>  <KierA3>
3.1928825

>  <KierFlex>
4.6468091

>  <lip_acc>
8

>  <lip_don>
4

>  <lip_druglike>
1

>  <lip_violation>
0

>  <logP(o/w)>
-0.55400002

>  <logS>
-2.59232

>  <mr>
9.1715708

>  <mutagenic>
0

>  <nmol>
1

>  <opr_brigid>
15

>  <opr_leadlike>
1

>  <opr_nring>
3

>  <opr_nrot>
5

>  <opr_violation>
0

>  <PC+>
0

>  <PC->
0

>  <PEOE_PC+>
2.8644776

>  <PEOE_PC->
-2.8644776

>  <PEOE_RPC+>
0.10829209

>  <PEOE_RPC->
0.1218758

>  <PEOE_VSA+0>
61.267349

>  <PEOE_VSA+1>
46.846992

>  <PEOE_VSA+2>
35.351521

>  <PEOE_VSA+3>
8.6190128

>  <PEOE_VSA+4>
23.273705

>  <PEOE_VSA+5>
12.949531

>  <PEOE_VSA+6>
14.708499

>  <PEOE_VSA-0>
19.611166

>  <PEOE_VSA-1>
36.764713

>  <PEOE_VSA-2>
19.760618

>  <PEOE_VSA-3>
0

>  <PEOE_VSA-4>
0

>  <PEOE_VSA-5>
40.700764

>  <PEOE_VSA-6>
17.059307

>  <PEOE_VSA_FHYD>
0.67738926

>  <PEOE_VSA_FNEG>
0.39742157

>  <PEOE_VSA_FPNEG>
0.17143904

>  <PEOE_VSA_FPOL>
0.32261074

>  <PEOE_VSA_FPOS>
0.6025784

>  <PEOE_VSA_FPPOS>
0.15117168

>  <PEOE_VSA_HYD>
228.22137

>  <PEOE_VSA_NEG>
133.89656

>  <PEOE_VSA_PNEG>
57.760071

>  <PEOE_VSA_POL>
108.6918

>  <PEOE_VSA_POS>
203.0166

>  <PEOE_VSA_PPOS>
50.931732

>  <petitjean>
0.46153846

>  <petitjeanSC>
0.85714287

>  <Q_PC+>
0

>  <Q_PC->
0

>  <Q_RPC+>
0

>  <Q_RPC->
0

>  <Q_VSA_FHYD>
1

>  <Q_VSA_FNEG>
0

>  <Q_VSA_FPNEG>
0

>  <Q_VSA_FPOL>
0

>  <Q_VSA_FPOS>
1

>  <Q_VSA_FPPOS>
0

>  <Q_VSA_HYD>
336.91318

>  <Q_VSA_NEG>
0

>  <Q_VSA_PNEG>
0

>  <Q_VSA_POL>
0

>  <Q_VSA_POS>
336.91318

>  <Q_VSA_PPOS>
0

>  <radius>
7

>  <reactive>
0

>  <rings>
3

>  <RPC+>
0

>  <RPC->
0

>  <rsynth>
1

>  <SlogP>
-0.067400001

>  <SlogP_VSA0>
50.90794

>  <SlogP_VSA1>
21.387344

>  <SlogP_VSA2>
92.897598

>  <SlogP_VSA3>
42.61879

>  <SlogP_VSA4>
0

>  <SlogP_VSA5>
46.569618

>  <SlogP_VSA6>
0

>  <SlogP_VSA7>
52.929554

>  <SlogP_VSA8>
37.736813

>  <SlogP_VSA9>
32.21954

>  <SMR>
9.11269

>  <SMR_VSA0>
82.58654

>  <SMR_VSA1>
3.1243138

>  <SMR_VSA2>
43.395977

>  <SMR_VSA3>
21.496815

>  <SMR_VSA4>
32.897186

>  <SMR_VSA5>
90.666367

>  <SMR_VSA6>
35.496597

>  <SMR_VSA7>
67.603409

>  <TPSA>
121.96

>  <VAdjEq>
0.42433795

>  <VAdjMa>
5.7548876

>  <VDistEq>
3.4414315

>  <VDistMa>
8.9877377

>  <vdw_area>
336.91318

>  <vdw_vol>
439.33389

>  <vsa_acc>
29.637598

>  <vsa_acid>
0

>  <vsa_base>
0

>  <vsa_don>
5.6825762

>  <vsa_hyd>
191.68741

>  <vsa_other>
40.607563

>  <vsa_pol>
80.196503

>  <Weight>
365.41

>  <weinerPath>
1548

>  <weinerPol>
41

>  <zagreb>
132

$$$$