O1[C@@H]2[C@]34CCN([C@H](Cc5c3c1c(O)cc5)[C@]4(NCCCCC)C=CC2=O)C
  MOE2013           2D

 27 31  0  0  1  0  0  0  0  0999 V2000
    0.0000    0.0000    0.0000 O   0  0  0  0  0  0  0  0  0  0  0  0
    1.7670   -0.1340    0.0000 C   0  0  2  0  0  0  0  0  0  0  0  0
    1.8380   -1.5580    0.0000 C   0  0  2  0  0  0  0  0  0  0  0  0
    1.5200   -2.9810    0.0000 C   0  0  0  0  0  0  0  0  0  0  0  0
    2.8050   -4.7070    0.0000 C   0  0  0  0  0  0  0  0  0  0  0  0
    4.2430   -4.6390    0.0000 N   0  0  3  0  0  0  0  0  0  0  0  0
    3.1850   -3.6550    0.0000 C   0  0  2  0  0  0  0  0  0  0  0  0
    1.9720   -4.4240    0.0000 C   0  0  0  0  0  0  0  0  0  0  0  0
    0.6910   -3.7640    0.0000 C   0  0  0  0  0  0  0  0  0  0  0  0
    0.6250   -2.3340    0.0000 C   0  0  0  0  0  0  0  0  0  0  0  0
   -0.6430   -1.6720    0.0000 C   0  0  0  0  0  0  0  0  0  0  0  0
   -1.8510   -2.4500    0.0000 C   0  0  0  0  0  0  0  0  0  0  0  0
   -3.1840   -1.7620    0.0000 O   0  0  0  0  0  0  0  0  0  0  0  0
   -1.7840   -3.8810    0.0000 C   0  0  0  0  0  0  0  0  0  0  0  0
   -0.5080   -4.5340    0.0000 C   0  0  0  0  0  0  0  0  0  0  0  0
    3.1150   -2.2130    0.0000 C   0  0  1  0  0  0  0  0  0  0  0  0
    4.4450   -2.9060    0.0000 N   0  0  0  0  0  0  0  0  0  0  0  0
    5.7110   -2.1010    0.0000 C   0  0  0  0  0  0  0  0  0  0  0  0
    7.0410   -2.7940    0.0000 C   0  0  0  0  0  0  0  0  0  0  0  0
    8.3070   -1.9890    0.0000 C   0  0  0  0  0  0  0  0  0  0  0  0
    9.6370   -2.6820    0.0000 C   0  0  0  0  0  0  0  0  0  0  0  0
   10.9020   -1.8760    0.0000 C   0  0  0  0  0  0  0  0  0  0  0  0
    4.3200   -1.4430    0.0000 C   0  0  0  0  0  0  0  0  0  0  0  0
    4.2460   -0.0080    0.0000 C   0  0  0  0  0  0  0  0  0  0  0  0
    2.9690    0.6460    0.0000 C   0  0  0  0  0  0  0  0  0  0  0  0
    2.8920    2.1440    0.0000 O   0  0  0  0  0  0  0  0  0  0  0  0
    5.6520   -5.1550    0.0000 C   0  0  0  0  0  0  0  0  0  0  0  0
  1 11  1  0  0  0  0
  2  1  1  1  0  0  0
  2  3  1  0  0  0  0
  2 25  1  0  0  0  0
  3  4  1  6  0  0  0
  3 10  1  0  0  0  0
  3 16  1  0  0  0  0
  4  5  1  0  0  0  0
  5  6  1  0  0  0  0
  6 27  1  0  0  0  0
  7  6  1  6  0  0  0
  7  8  1  0  0  0  0
  7 16  1  0  0  0  0
  8  9  1  0  0  0  0
  9 10  1  0  0  0  0
  9 15  2  0  0  0  0
 10 11  2  0  0  0  0
 11 12  1  0  0  0  0
 12 13  1  0  0  0  0
 12 14  2  0  0  0  0
 14 15  1  0  0  0  0
 16 17  1  6  0  0  0
 16 23  1  0  0  0  0
 17 18  1  0  0  0  0
 18 19  1  0  0  0  0
 19 20  1  0  0  0  0
 20 21  1  0  0  0  0
 21 22  1  0  0  0  0
 23 24  2  0  0  0  0
 24 25  1  0  0  0  0
 25 26  2  0  0  0  0
M  END
>  <Index>
831

>  <ID>
HT1619

>  <class>
0

>  <apol>
61.996204

>  <ast_fraglike>
0

>  <ast_fraglike_ext>
0

>  <ast_violation>
2

>  <ast_violation_ext>
3

>  <a_acc>
5

>  <a_acid>
0

>  <a_aro>
6

>  <a_base>
0

>  <a_count>
55

>  <a_don>
2

>  <a_donacc>
7

>  <a_heavy>
27

>  <a_hyd>
21

>  <a_IC>
78.506462

>  <a_ICM>
1.4273902

>  <a_nB>
0

>  <a_nBr>
0

>  <a_nC>
22

>  <a_nCl>
0

>  <a_nF>
0

>  <a_nH>
28

>  <a_nI>
0

>  <a_nN>
2

>  <a_nO>
3

>  <a_nP>
0

>  <a_nS>
0

>  <balabanJ>
1.5834916

>  <BCUT_PEOE_0>
-2.8820946

>  <BCUT_PEOE_1>
-0.54660922

>  <BCUT_PEOE_2>
0.6248036

>  <BCUT_PEOE_3>
2.8987417

>  <BCUT_SLOGP_0>
-3.0114481

>  <BCUT_SLOGP_1>
-0.47661963

>  <BCUT_SLOGP_2>
0.68400604

>  <BCUT_SLOGP_3>
2.821245

>  <BCUT_SMR_0>
-2.6179132

>  <BCUT_SMR_1>
-0.33689988

>  <BCUT_SMR_2>
0.82167417

>  <BCUT_SMR_3>
3.1543822

>  <bpol>
36.123795

>  <b_1rotN>
5

>  <b_1rotR>
0.16129032

>  <b_ar>
6

>  <b_count>
59

>  <b_double>
2

>  <b_heavy>
31

>  <b_max1len>
7

>  <b_rotN>
5

>  <b_rotR>
0.16129032

>  <b_single>
51

>  <b_triple>
0

>  <chi0>
18.81119

>  <chi0v>
16.124773

>  <chi0v_C>
13.913849

>  <chi0_C>
14.819627

>  <chi1>
13.048496

>  <chi1v>
10.252605

>  <chi1v_C>
7.7598543

>  <chi1_C>
8.9048138

>  <chiral>
4

>  <chiral_u>
0

>  <density>
0.71855438

>  <diameter>
11

>  <FCharge>
0

>  <GCUT_PEOE_0>
-0.85420644

>  <GCUT_PEOE_1>
-0.41358736

>  <GCUT_PEOE_2>
0.0064627291

>  <GCUT_PEOE_3>
3.2146394

>  <GCUT_SLOGP_0>
-1.1548436

>  <GCUT_SLOGP_1>
-0.31493226

>  <GCUT_SLOGP_2>
0.061210971

>  <GCUT_SLOGP_3>
3.2117548

>  <GCUT_SMR_0>
-0.53112054

>  <GCUT_SMR_1>
-0.20978408

>  <GCUT_SMR_2>
0.17721237

>  <GCUT_SMR_3>
3.4645391

>  <Kier1>
18.992716

>  <Kier2>
6.7680135

>  <Kier3>
2.3996155

>  <KierA1>
16.237509

>  <KierA2>
5.7495041

>  <KierA3>
2.0288908

>  <KierFlex>
3.4576898

>  <lip_acc>
5

>  <lip_don>
2

>  <lip_druglike>
1

>  <lip_violation>
0

>  <logP(o/w)>
2.7550001

>  <logS>
-3.75104

>  <mr>
10.300452

>  <mutagenic>
0

>  <nmol>
1

>  <opr_brigid>
22

>  <opr_leadlike>
1

>  <opr_nring>
5

>  <opr_nrot>
5

>  <opr_violation>
1

>  <PC+>
0

>  <PC->
0

>  <PEOE_PC+>
2.0482149

>  <PEOE_PC->
-2.0482149

>  <PEOE_RPC+>
0.10615183

>  <PEOE_RPC->
0.17442591

>  <PEOE_VSA+0>
92.71907

>  <PEOE_VSA+1>
21.326929

>  <PEOE_VSA+2>
30.440981

>  <PEOE_VSA+3>
8.458519

>  <PEOE_VSA+4>
10.324173

>  <PEOE_VSA+5>
0

>  <PEOE_VSA+6>
0

>  <PEOE_VSA-0>
104.65417

>  <PEOE_VSA-1>
60.66011

>  <PEOE_VSA-2>
0

>  <PEOE_VSA-3>
0

>  <PEOE_VSA-4>
0

>  <PEOE_VSA-5>
13.566921

>  <PEOE_VSA-6>
10.408187

>  <PEOE_VSA_FHYD>
0.90271336

>  <PEOE_VSA_FNEG>
0.53690124

>  <PEOE_VSA_FPNEG>
0.068003096

>  <PEOE_VSA_FPOL>
0.097286627

>  <PEOE_VSA_FPOS>
0.46309879

>  <PEOE_VSA_FPPOS>
0.029283527

>  <PEOE_VSA_HYD>
318.25977

>  <PEOE_VSA_NEG>
189.28938

>  <PEOE_VSA_PNEG>
23.975109

>  <PEOE_VSA_POL>
34.299282

>  <PEOE_VSA_POS>
163.26967

>  <PEOE_VSA_PPOS>
10.324173

>  <petitjean>
0.45454547

>  <petitjeanSC>
0.83333331

>  <Q_PC+>
0

>  <Q_PC->
0

>  <Q_RPC+>
0

>  <Q_RPC->
0

>  <Q_VSA_FHYD>
1

>  <Q_VSA_FNEG>
0

>  <Q_VSA_FPNEG>
0

>  <Q_VSA_FPOL>
0

>  <Q_VSA_FPOS>
1

>  <Q_VSA_FPPOS>
0

>  <Q_VSA_HYD>
352.55905

>  <Q_VSA_NEG>
0

>  <Q_VSA_PNEG>
0

>  <Q_VSA_POL>
0

>  <Q_VSA_POS>
352.55905

>  <Q_VSA_PPOS>
0

>  <radius>
6

>  <reactive>
1

>  <rings>
5

>  <RPC+>
0

>  <RPC->
0

>  <rsynth>
0

>  <SlogP>
2.30867

>  <SlogP_VSA0>
54.395866

>  <SlogP_VSA1>
8.8119249

>  <SlogP_VSA2>
34.312836

>  <SlogP_VSA3>
36.879158

>  <SlogP_VSA4>
6.37115

>  <SlogP_VSA5>
51.765594

>  <SlogP_VSA6>
0

>  <SlogP_VSA7>
70.572739

>  <SlogP_VSA8>
75.473625

>  <SlogP_VSA9>
43.81287

>  <SMR>
10.33455

>  <SMR_VSA0>
23.862217

>  <SMR_VSA1>
39.50943

>  <SMR_VSA2>
18.01075

>  <SMR_VSA3>
27.308624

>  <SMR_VSA4>
0

>  <SMR_VSA5>
164.91476

>  <SMR_VSA6>
42.566769

>  <SMR_VSA7>
66.223206

>  <TPSA>
61.799999

>  <VAdjEq>
0.41972107

>  <VAdjMa>
5.9541965

>  <VDistEq>
3.1019464

>  <VDistMa>
9.2605991

>  <vdw_area>
352.55905

>  <vdw_vol>
512.80322

>  <vsa_acc>
16.070677

>  <vsa_acid>
0

>  <vsa_base>
0

>  <vsa_don>
0

>  <vsa_hyd>
282.67557

>  <vsa_other>
8.458519

>  <vsa_pol>
35.320175

>  <Weight>
368.47699

>  <weinerPath>
1518

>  <weinerPol>
62

>  <zagreb>
160

$$$$