O1CCNC(C)C1c1ccccc1
  MOE2013           2D

 13 14  0  0  1  0  0  0  0  0999 V2000
    0.0000    0.0000    0.0000 O   0  0  0  0  0  0  0  0  0  0  0  0
    1.5000    0.0030    0.0000 C   0  0  0  0  0  0  0  0  0  0  0  0
    2.2470    1.3040    0.0000 C   0  0  0  0  0  0  0  0  0  0  0  0
    1.4940    2.6010    0.0000 N   0  0  0  0  0  0  0  0  0  0  0  0
   -0.0060    2.5980    0.0000 C   0  0  3  0  0  0  0  0  0  0  0  0
   -0.7590    3.8950    0.0000 C   0  0  0  0  0  0  0  0  0  0  0  0
   -0.7530    1.2970    0.0000 C   0  0  3  0  0  0  0  0  0  0  0  0
   -2.2530    1.2940    0.0000 C   0  0  0  0  0  0  0  0  0  0  0  0
   -3.0060    2.5910    0.0000 C   0  0  0  0  0  0  0  0  0  0  0  0
   -4.5060    2.5880    0.0000 C   0  0  0  0  0  0  0  0  0  0  0  0
   -5.2530    1.2870    0.0000 C   0  0  0  0  0  0  0  0  0  0  0  0
   -4.5000   -0.0100    0.0000 C   0  0  0  0  0  0  0  0  0  0  0  0
   -3.0000   -0.0070    0.0000 C   0  0  0  0  0  0  0  0  0  0  0  0
  1  2  1  0  0  0  0
  1  7  1  0  0  0  0
  2  3  1  0  0  0  0
  3  4  1  0  0  0  0
  4  5  1  0  0  0  0
  5  6  1  0  0  0  0
  5  7  1  0  0  0  0
  7  8  1  0  0  0  0
  8  9  1  0  0  0  0
  8 13  2  0  0  0  0
  9 10  2  0  0  0  0
 10 11  1  0  0  0  0
 11 12  2  0  0  0  0
 12 13  1  0  0  0  0
M  END
>  <Index>
850

>  <ID>
HT1649

>  <class>
0

>  <apol>
31.263895

>  <ast_fraglike>
1

>  <ast_fraglike_ext>
1

>  <ast_violation>
0

>  <ast_violation_ext>
0

>  <a_acc>
2

>  <a_acid>
0

>  <a_aro>
6

>  <a_base>
0

>  <a_count>
28

>  <a_don>
1

>  <a_donacc>
3

>  <a_heavy>
13

>  <a_hyd>
11

>  <a_IC>
37.94883

>  <a_ICM>
1.3553154

>  <a_nB>
0

>  <a_nBr>
0

>  <a_nC>
11

>  <a_nCl>
0

>  <a_nF>
0

>  <a_nH>
15

>  <a_nI>
0

>  <a_nN>
1

>  <a_nO>
1

>  <a_nP>
0

>  <a_nS>
0

>  <balabanJ>
1.8975036

>  <BCUT_PEOE_0>
-2.7086384

>  <BCUT_PEOE_1>
-0.52311325

>  <BCUT_PEOE_2>
0.58697051

>  <BCUT_PEOE_3>
2.6547439

>  <BCUT_SLOGP_0>
-2.8224378

>  <BCUT_SLOGP_1>
-0.50103545

>  <BCUT_SLOGP_2>
0.6769582

>  <BCUT_SLOGP_3>
2.6358693

>  <BCUT_SMR_0>
-2.4444392

>  <BCUT_SMR_1>
-0.40302932

>  <BCUT_SMR_2>
0.71601731

>  <BCUT_SMR_3>
2.9091337

>  <bpol>
18.974106

>  <b_1rotN>
1

>  <b_1rotR>
0.071428575

>  <b_ar>
6

>  <b_count>
29

>  <b_double>
0

>  <b_heavy>
14

>  <b_max1len>
3

>  <b_rotN>
1

>  <b_rotR>
0.071428575

>  <b_single>
23

>  <b_triple>
0

>  <chi0>
9.0960121

>  <chi0v>
7.8639135

>  <chi0v_C>
6.9556656

>  <chi0_C>
7.6817985

>  <chi1>
6.3770099

>  <chi1v>
4.776648

>  <chi1v_C>
3.6100423

>  <chi1_C>
4.5605135

>  <chiral>
2

>  <chiral_u>
2

>  <density>
0.67121655

>  <diameter>
7

>  <FCharge>
0

>  <GCUT_PEOE_0>
-0.83622813

>  <GCUT_PEOE_1>
-0.38883564

>  <GCUT_PEOE_2>
0.070976146

>  <GCUT_PEOE_3>
2.4752264

>  <GCUT_SLOGP_0>
-1.1536025

>  <GCUT_SLOGP_1>
-0.26386139

>  <GCUT_SLOGP_2>
0.13931839

>  <GCUT_SLOGP_3>
2.526418

>  <GCUT_SMR_0>
-0.51390338

>  <GCUT_SMR_1>
-0.21605732

>  <GCUT_SMR_2>
0.15800115

>  <GCUT_SMR_3>
2.7261376

>  <Kier1>
9.5510206

>  <Kier2>
4.4814816

>  <Kier3>
2.2684309

>  <KierA1>
7.8487563

>  <KierA2>
3.6170094

>  <KierA3>
1.8030137

>  <KierFlex>
2.1837711

>  <lip_acc>
2

>  <lip_don>
1

>  <lip_druglike>
1

>  <lip_violation>
0

>  <logP(o/w)>
1.836

>  <logS>
-1.7440701

>  <mr>
5.3596601

>  <mutagenic>
0

>  <nmol>
1

>  <opr_brigid>
12

>  <opr_leadlike>
1

>  <opr_nring>
2

>  <opr_nrot>
3

>  <opr_violation>
0

>  <PC+>
0

>  <PC->
0

>  <PEOE_PC+>
1.0388635

>  <PEOE_PC->
-1.0388635

>  <PEOE_RPC+>
0.11778852

>  <PEOE_RPC->
0.35536623

>  <PEOE_VSA+0>
41.930603

>  <PEOE_VSA+1>
53.979309

>  <PEOE_VSA+2>
8.6190128

>  <PEOE_VSA+3>
0

>  <PEOE_VSA+4>
0

>  <PEOE_VSA+5>
0

>  <PEOE_VSA+6>
0

>  <PEOE_VSA-0>
20.956217

>  <PEOE_VSA-1>
61.274521

>  <PEOE_VSA-2>
0

>  <PEOE_VSA-3>
0

>  <PEOE_VSA-4>
0

>  <PEOE_VSA-5>
0

>  <PEOE_VSA-6>
2.6406472

>  <PEOE_VSA_FHYD>
0.98605788

>  <PEOE_VSA_FNEG>
0.44810584

>  <PEOE_VSA_FPNEG>
0.013942148

>  <PEOE_VSA_FPOL>
0.013942148

>  <PEOE_VSA_FPOS>
0.55189419

>  <PEOE_VSA_FPPOS>
0

>  <PEOE_VSA_HYD>
186.75966

>  <PEOE_VSA_NEG>
84.871384

>  <PEOE_VSA_PNEG>
2.6406472

>  <PEOE_VSA_POL>
2.6406472

>  <PEOE_VSA_POS>
104.52892

>  <PEOE_VSA_PPOS>
0

>  <petitjean>
0.42857143

>  <petitjeanSC>
0.75

>  <Q_PC+>
0

>  <Q_PC->
0

>  <Q_RPC+>
0

>  <Q_RPC->
0

>  <Q_VSA_FHYD>
1

>  <Q_VSA_FNEG>
0

>  <Q_VSA_FPNEG>
0

>  <Q_VSA_FPOL>
0

>  <Q_VSA_FPOS>
1

>  <Q_VSA_FPPOS>
0

>  <Q_VSA_HYD>
189.40031

>  <Q_VSA_NEG>
0

>  <Q_VSA_PNEG>
0

>  <Q_VSA_POL>
0

>  <Q_VSA_POS>
189.40031

>  <Q_VSA_PPOS>
0

>  <radius>
4

>  <reactive>
0

>  <rings>
2

>  <RPC+>
0

>  <RPC->
0

>  <rsynth>
1

>  <SlogP>
1.8315001

>  <SlogP_VSA0>
18.01075

>  <SlogP_VSA1>
0

>  <SlogP_VSA2>
14.981856

>  <SlogP_VSA3>
39.365837

>  <SlogP_VSA4>
3.185575

>  <SlogP_VSA5>
0

>  <SlogP_VSA6>
0

>  <SlogP_VSA7>
88.215919

>  <SlogP_VSA8>
6.4686494

>  <SlogP_VSA9>
33.326015

>  <SMR>
5.27107

>  <SMR_VSA0>
10.999887

>  <SMR_VSA1>
0

>  <SMR_VSA2>
18.01075

>  <SMR_VSA3>
13.636193

>  <SMR_VSA4>
0

>  <SMR_VSA5>
88.215919

>  <SMR_VSA6>
39.365837

>  <SMR_VSA7>
33.326015

>  <TPSA>
21.26

>  <VAdjEq>
0.64772749

>  <VAdjMa>
4.8073549

>  <VDistEq>
2.5574133

>  <VDistMa>
7.0980163

>  <vdw_area>
189.40031

>  <vdw_vol>
264.06827

>  <vsa_acc>
2.503756

>  <vsa_acid>
0

>  <vsa_base>
0

>  <vsa_don>
0

>  <vsa_hyd>
168.17551

>  <vsa_other>
0

>  <vsa_pol>
8.1863317

>  <Weight>
177.24699

>  <weinerPath>
240

>  <weinerPol>
17

>  <zagreb>
64

$$$$