O(Cc1ccccc1)c1ccc(cc1)C[C@H]1NC(=O)[C@H](NC(=O)[C@@H](NC(=O)[C@@H](NC(=O)[C@@H]2N(C[C@@H](OC(=O)NCCN)C2)C(=O)[C@H](NC1=O)Cc1ccccc1)c1ccccc1)Cc1c2c([nH]c1)cccc2)CCCCN
  MOE2013           2D

 77 84  0  0  1  0  0  0  0  0999 V2000
    0.0000    0.0000    0.0000 O   0  0  0  0  0  0  0  0  0  0  0  0
    0.7520    1.2980    0.0000 C   0  0  0  0  0  0  0  0  0  0  0  0
    2.2520    1.2950    0.0000 C   0  0  0  0  0  0  0  0  0  0  0  0
    3.0000   -0.0050    0.0000 C   0  0  0  0  0  0  0  0  0  0  0  0
    4.5000   -0.0080    0.0000 C   0  0  0  0  0  0  0  0  0  0  0  0
    5.2520    1.2900    0.0000 C   0  0  0  0  0  0  0  0  0  0  0  0
    4.5040    2.5910    0.0000 C   0  0  0  0  0  0  0  0  0  0  0  0
    3.0040    2.5930    0.0000 C   0  0  0  0  0  0  0  0  0  0  0  0
   -1.5000    0.0030    0.0000 C   0  0  0  0  0  0  0  0  0  0  0  0
   -2.2480    1.3030    0.0000 C   0  0  0  0  0  0  0  0  0  0  0  0
   -3.7480    1.3050    0.0000 C   0  0  0  0  0  0  0  0  0  0  0  0
   -4.5000    0.0080    0.0000 C   0  0  0  0  0  0  0  0  0  0  0  0
   -3.7520   -1.2930    0.0000 C   0  0  0  0  0  0  0  0  0  0  0  0
   -2.2520   -1.2950    0.0000 C   0  0  0  0  0  0  0  0  0  0  0  0
   -6.0000    0.0100    0.0000 C   0  0  0  0  0  0  0  0  0  0  0  0
   -6.7520   -1.2880    0.0000 C   0  0  1  0  0  0  0  0  0  0  0  0
   -8.2250   -1.1600    0.0000 N   0  0  0  0  0  0  0  0  0  0  0  0
   -8.8670    0.2120    0.0000 C   0  0  0  0  0  0  0  0  0  0  0  0
   -8.0190    1.4490    0.0000 O   0  0  0  0  0  0  0  0  0  0  0  0
  -10.3660    0.3120    0.0000 C   0  0  2  0  0  0  0  0  0  0  0  0
  -11.1950   -0.9320    0.0000 N   0  0  0  0  0  0  0  0  0  0  0  0
  -12.6960   -0.8410    0.0000 C   0  0  0  0  0  0  0  0  0  0  0  0
  -13.3910    0.4880    0.0000 O   0  0  0  0  0  0  0  0  0  0  0  0
  -13.4870   -2.1410    0.0000 C   0  0  1  0  0  0  0  0  0  0  0  0
  -12.7090   -3.4340    0.0000 N   0  0  0  0  0  0  0  0  0  0  0  0
  -13.4270   -4.7380    0.0000 C   0  0  0  0  0  0  0  0  0  0  0  0
  -14.9270   -4.7420    0.0000 O   0  0  0  0  0  0  0  0  0  0  0  0
  -12.7070   -6.0310    0.0000 C   0  0  1  0  0  0  0  0  0  0  0  0
  -11.1930   -6.0720    0.0000 N   0  0  0  0  0  0  0  0  0  0  0  0
  -10.4820   -7.3560    0.0000 C   0  0  0  0  0  0  0  0  0  0  0  0
  -11.4190   -8.5280    0.0000 O   0  0  0  0  0  0  0  0  0  0  0  0
   -9.1750   -7.7370    0.0000 C   0  0  2  0  0  0  0  0  0  0  0  0
   -7.8600   -7.2750    0.0000 N   0  0  0  0  0  0  0  0  0  0  0  0
   -6.8960   -8.4760    0.0000 C   0  0  0  0  0  0  0  0  0  0  0  0
   -7.7620   -9.7020    0.0000 C   0  0  1  0  0  0  0  0  0  0  0  0
   -7.2740  -11.1210    0.0000 O   0  0  0  0  0  0  0  0  0  0  0  0
   -5.8020  -11.4080    0.0000 C   0  0  0  0  0  0  0  0  0  0  0  0
   -4.8170  -10.2770    0.0000 O   0  0  0  0  0  0  0  0  0  0  0  0
   -5.3150  -12.8270    0.0000 N   0  0  0  0  0  0  0  0  0  0  0  0
   -3.8430  -13.1140    0.0000 C   0  0  0  0  0  0  0  0  0  0  0  0
   -3.3560  -14.5330    0.0000 C   0  0  0  0  0  0  0  0  0  0  0  0
   -1.8830  -14.8200    0.0000 N   0  0  0  0  0  0  0  0  0  0  0  0
   -9.2010   -9.2660    0.0000 C   0  0  0  0  0  0  0  0  0  0  0  0
   -7.0610   -6.1860    0.0000 C   0  0  0  0  0  0  0  0  0  0  0  0
   -5.6110   -6.5710    0.0000 O   0  0  0  0  0  0  0  0  0  0  0  0
   -7.2260   -4.7280    0.0000 C   0  0  2  0  0  0  0  0  0  0  0  0
   -6.0490   -3.8100    0.0000 N   0  0  0  0  0  0  0  0  0  0  0  0
   -5.9520   -2.4400    0.0000 C   0  0  0  0  0  0  0  0  0  0  0  0
   -4.5060   -2.0430    0.0000 O   0  0  0  0  0  0  0  0  0  0  0  0
   -5.8430   -5.3090    0.0000 C   0  0  0  0  0  0  0  0  0  0  0  0
   -4.6480   -4.4020    0.0000 C   0  0  0  0  0  0  0  0  0  0  0  0
   -3.2650   -4.9830    0.0000 C   0  0  0  0  0  0  0  0  0  0  0  0
   -2.0710   -4.0760    0.0000 C   0  0  0  0  0  0  0  0  0  0  0  0
   -2.2590   -2.5880    0.0000 C   0  0  0  0  0  0  0  0  0  0  0  0
   -3.6420   -2.0070    0.0000 C   0  0  0  0  0  0  0  0  0  0  0  0
   -4.8360   -2.9140    0.0000 C   0  0  0  0  0  0  0  0  0  0  0  0
  -13.4840   -7.3140    0.0000 C   0  0  0  0  0  0  0  0  0  0  0  0
  -14.9830   -7.2830    0.0000 C   0  0  0  0  0  0  0  0  0  0  0  0
  -15.7600   -8.5660    0.0000 C   0  0  0  0  0  0  0  0  0  0  0  0
  -15.0380   -9.8800    0.0000 C   0  0  0  0  0  0  0  0  0  0  0  0
  -13.5380   -9.9120    0.0000 C   0  0  0  0  0  0  0  0  0  0  0  0
  -12.7610   -8.6280    0.0000 C   0  0  0  0  0  0  0  0  0  0  0  0
  -14.9870   -2.1370    0.0000 C   0  0  0  0  0  0  0  0  0  0  0  0
  -15.7340   -0.8360    0.0000 C   0  0  0  0  0  0  0  0  0  0  0  0
  -17.2250   -0.6750    0.0000 C   0  0  0  0  0  0  0  0  0  0  0  0
  -17.5340    0.7930    0.0000 C   0  0  0  0  0  0  0  0  0  0  0  0
  -16.2330    1.5390    0.0000 N   0  0  0  0  0  0  0  0  0  0  0  0
  -15.1200    0.5330    0.0000 C   0  0  0  0  0  0  0  0  0  0  0  0
  -18.9590    1.2600    0.0000 C   0  0  0  0  0  0  0  0  0  0  0  0
  -20.0760    0.2590    0.0000 C   0  0  0  0  0  0  0  0  0  0  0  0
  -19.7680   -1.2090    0.0000 C   0  0  0  0  0  0  0  0  0  0  0  0
  -18.3430   -1.6760    0.0000 C   0  0  0  0  0  0  0  0  0  0  0  0
  -11.0300    1.6580    0.0000 C   0  0  0  0  0  0  0  0  0  0  0  0
  -10.1970    2.9050    0.0000 C   0  0  0  0  0  0  0  0  0  0  0  0
  -10.8600    4.2500    0.0000 C   0  0  0  0  0  0  0  0  0  0  0  0
  -10.0270    5.4980    0.0000 C   0  0  0  0  0  0  0  0  0  0  0  0
  -10.6910    6.8430    0.0000 N   0  0  0  0  0  0  0  0  0  0  0  0
  1  2  1  0  0  0  0
  1  9  1  0  0  0  0
  2  3  1  0  0  0  0
  3  4  1  0  0  0  0
  3  8  2  0  0  0  0
  4  5  2  0  0  0  0
  5  6  1  0  0  0  0
  6  7  2  0  0  0  0
  7  8  1  0  0  0  0
  9 10  1  0  0  0  0
  9 14  2  0  0  0  0
 10 11  2  0  0  0  0
 11 12  1  0  0  0  0
 12 13  2  0  0  0  0
 12 15  1  0  0  0  0
 13 14  1  0  0  0  0
 16 15  1  6  0  0  0
 16 17  1  0  0  0  0
 16 48  1  0  0  0  0
 17 18  1  0  0  0  0
 18 19  2  0  0  0  0
 18 20  1  0  0  0  0
 20 21  1  0  0  0  0
 20 73  1  6  0  0  0
 21 22  1  0  0  0  0
 22 23  2  0  0  0  0
 22 24  1  0  0  0  0
 24 25  1  0  0  0  0
 24 63  1  1  0  0  0
 25 26  1  0  0  0  0
 26 27  2  0  0  0  0
 26 28  1  0  0  0  0
 28 29  1  0  0  0  0
 28 57  1  1  0  0  0
 29 30  1  0  0  0  0
 30 31  2  0  0  0  0
 32 30  1  6  0  0  0
 32 33  1  0  0  0  0
 32 43  1  0  0  0  0
 33 34  1  0  0  0  0
 33 44  1  0  0  0  0
 34 35  1  0  0  0  0
 35 36  1  1  0  0  0
 35 43  1  0  0  0  0
 36 37  1  0  0  0  0
 37 38  2  0  0  0  0
 37 39  1  0  0  0  0
 39 40  1  0  0  0  0
 40 41  1  0  0  0  0
 41 42  1  0  0  0  0
 44 45  2  0  0  0  0
 44 46  1  0  0  0  0
 46 47  1  0  0  0  0
 46 50  1  6  0  0  0
 47 48  1  0  0  0  0
 48 49  2  0  0  0  0
 50 51  1  0  0  0  0
 51 52  1  0  0  0  0
 51 56  2  0  0  0  0
 52 53  2  0  0  0  0
 53 54  1  0  0  0  0
 54 55  2  0  0  0  0
 55 56  1  0  0  0  0
 57 58  1  0  0  0  0
 57 62  2  0  0  0  0
 58 59  2  0  0  0  0
 59 60  1  0  0  0  0
 60 61  2  0  0  0  0
 61 62  1  0  0  0  0
 63 64  1  0  0  0  0
 64 65  1  0  0  0  0
 64 68  2  0  0  0  0
 65 66  2  0  0  0  0
 65 72  1  0  0  0  0
 66 67  1  0  0  0  0
 66 69  1  0  0  0  0
 67 68  1  0  0  0  0
 69 70  2  0  0  0  0
 70 71  1  0  0  0  0
 71 72  2  0  0  0  0
 73 74  1  0  0  0  0
 74 75  1  0  0  0  0
 75 76  1  0  0  0  0
 76 77  1  0  0  0  0
M  END
>  <Index>
820

>  <ID>
HT1599

>  <class>
0

>  <apol>
164.30634

>  <ast_fraglike>
0

>  <ast_fraglike_ext>
0

>  <ast_violation>
4

>  <ast_violation_ext>
6

>  <a_acc>
10

>  <a_acid>
0

>  <a_aro>
33

>  <a_base>
0

>  <a_count>
143

>  <a_don>
9

>  <a_donacc>
19

>  <a_heavy>
77

>  <a_hyd>
51

>  <a_IC>
223.42009

>  <a_ICM>
1.5623782

>  <a_nB>
0

>  <a_nBr>
0

>  <a_nC>
58

>  <a_nCl>
0

>  <a_nF>
0

>  <a_nH>
66

>  <a_nI>
0

>  <a_nN>
10

>  <a_nO>
9

>  <a_nP>
0

>  <a_nS>
0

>  <balabanJ>
1.1141829

>  <BCUT_PEOE_0>
-2.6679454

>  <BCUT_PEOE_1>
-0.61451966

>  <BCUT_PEOE_2>
0.66528755

>  <BCUT_PEOE_3>
2.7685952

>  <BCUT_SLOGP_0>
-2.8677661

>  <BCUT_SLOGP_1>
-0.53807992

>  <BCUT_SLOGP_2>
0.69811171

>  <BCUT_SLOGP_3>
2.66979

>  <BCUT_SMR_0>
-2.414536

>  <BCUT_SMR_1>
-0.46875769

>  <BCUT_SMR_2>
0.8076632

>  <BCUT_SMR_3>
3.0052722

>  <bpol>
87.969666

>  <b_1rotN>
17

>  <b_1rotR>
0.20238096

>  <b_ar>
34

>  <b_count>
150

>  <b_double>
7

>  <b_heavy>
84

>  <b_max1len>
7

>  <b_rotN>
19

>  <b_rotR>
0.22619048

>  <b_single>
109

>  <b_triple>
0

>  <chi0>
54.098862

>  <chi0v>
42.65929

>  <chi0v_C>
33.883141

>  <chi0_C>
38.157551

>  <chi1>
37.452263

>  <chi1v>
26.02375

>  <chi1v_C>
18.21212

>  <chi1_C>
23.297958

>  <chiral>
7

>  <chiral_u>
0

>  <density>
0.73955536

>  <diameter>
24

>  <FCharge>
0

>  <GCUT_PEOE_0>
-0.862791

>  <GCUT_PEOE_1>
-0.40520012

>  <GCUT_PEOE_2>
0.079392351

>  <GCUT_PEOE_3>
3.326551

>  <GCUT_SLOGP_0>
-1.3633324

>  <GCUT_SLOGP_1>
-0.36440724

>  <GCUT_SLOGP_2>
0.16287395

>  <GCUT_SLOGP_3>
3.2724512

>  <GCUT_SMR_0>
-0.52785873

>  <GCUT_SMR_1>
-0.22217786

>  <GCUT_SMR_2>
0.19170104

>  <GCUT_SMR_3>
3.5743093

>  <Kier1>
63.031746

>  <Kier2>
32.894737

>  <Kier3>
19

>  <KierA1>
45.976288

>  <KierA2>
23.888088

>  <KierA3>
13.75562

>  <KierFlex>
14.263451

>  <lip_acc>
19

>  <lip_don>
11

>  <lip_druglike>
0

>  <lip_violation>
3

>  <logP(o/w)>
4.3930001

>  <logS>
-10.62103

>  <mr>
29.268339

>  <mutagenic>
0

>  <nmol>
1

>  <opr_brigid>
56

>  <opr_leadlike>
0

>  <opr_nring>
7

>  <opr_nrot>
28

>  <opr_violation>
5

>  <PC+>
0

>  <PC->
0

>  <PEOE_PC+>
7.4321041

>  <PEOE_PC->
-7.4321041

>  <PEOE_RPC+>
0.048578016

>  <PEOE_RPC->
0.048487782

>  <PEOE_VSA+0>
185.34395

>  <PEOE_VSA+1>
177.60326

>  <PEOE_VSA+2>
53.351814

>  <PEOE_VSA+3>
60.333092

>  <PEOE_VSA+4>
77.697189

>  <PEOE_VSA+5>
0

>  <PEOE_VSA+6>
19.199511

>  <PEOE_VSA-0>
87.103676

>  <PEOE_VSA-1>
245.09808

>  <PEOE_VSA-2>
0

>  <PEOE_VSA-3>
0

>  <PEOE_VSA-4>
13.566921

>  <PEOE_VSA-5>
83.905281

>  <PEOE_VSA-6>
16.764233

>  <PEOE_VSA_FHYD>
0.79300004

>  <PEOE_VSA_FNEG>
0.43769866

>  <PEOE_VSA_FPNEG>
0.11200013

>  <PEOE_VSA_FPOL>
0.20699996

>  <PEOE_VSA_FPOS>
0.56230134

>  <PEOE_VSA_FPPOS>
0.094999835

>  <PEOE_VSA_HYD>
808.83386

>  <PEOE_VSA_NEG>
446.4382

>  <PEOE_VSA_PNEG>
114.23643

>  <PEOE_VSA_POL>
211.13313

>  <PEOE_VSA_POS>
573.52881

>  <PEOE_VSA_PPOS>
96.896698

>  <petitjean>
0.45833334

>  <petitjeanSC>
0.84615386

>  <Q_PC+>
0

>  <Q_PC->
0

>  <Q_RPC+>
0

>  <Q_RPC->
0

>  <Q_VSA_FHYD>
1

>  <Q_VSA_FNEG>
0

>  <Q_VSA_FPNEG>
0

>  <Q_VSA_FPOL>
0

>  <Q_VSA_FPOS>
1

>  <Q_VSA_FPPOS>
0

>  <Q_VSA_HYD>
1019.967

>  <Q_VSA_NEG>
0

>  <Q_VSA_PNEG>
0

>  <Q_VSA_POL>
0

>  <Q_VSA_POS>
1019.967

>  <Q_VSA_PPOS>
0

>  <radius>
13

>  <reactive>
0

>  <rings>
8

>  <RPC+>
0

>  <RPC->
0

>  <rsynth>
1

>  <SlogP>
3.73031

>  <SlogP_VSA0>
184.85876

>  <SlogP_VSA1>
41.993652

>  <SlogP_VSA2>
197.3372

>  <SlogP_VSA3>
73.758316

>  <SlogP_VSA4>
15.927875

>  <SlogP_VSA5>
56.605217

>  <SlogP_VSA6>
0

>  <SlogP_VSA7>
427.7247

>  <SlogP_VSA8>
79.455589

>  <SlogP_VSA9>
50.031902

>  <SMR>
28.878269

>  <SMR_VSA0>
178.0354

>  <SMR_VSA1>
14.124202

>  <SMR_VSA2>
124.85004

>  <SMR_VSA3>
51.531765

>  <SMR_VSA4>
70.511475

>  <SMR_VSA5>
576.0127

>  <SMR_VSA6>
112.62765

>  <SMR_VSA7>
0

>  <TPSA>
281.20001

>  <VAdjEq>
0.18597351

>  <VAdjMa>
7.3923173

>  <VDistEq>
4.2737527

>  <VDistMa>
12.322138

>  <vdw_area>
1019.967

>  <vdw_vol>
1416.0225

>  <vsa_acc>
97.472198

>  <vsa_acid>
0

>  <vsa_base>
0

>  <vsa_don>
39.778034

>  <vsa_hyd>
674.87598

>  <vsa_other>
99.400452

>  <vsa_pol>
172.73521

>  <Weight>
1047.2269

>  <weinerPath>
28784

>  <weinerPol>
123

>  <zagreb>
396

$$$$