O[C@@H]1CC2=CC[C@H]3[C@@H]4C[C@@H](C#N)[C@H](C(=O)C)[C@@]4(CC[C@@H]3[C@@]2(CC1)C)C
  MOE2013           2D

 25 28  0  0  1  0  0  0  0  0999 V2000
    0.0000    0.0000    0.0000 O   0  0  0  0  0  0  0  0  0  0  0  0
   -1.5000    0.0010    0.0000 C   0  0  2  0  0  0  0  0  0  0  0  0
   -2.2490    1.3010    0.0000 C   0  0  0  0  0  0  0  0  0  0  0  0
   -3.7490    1.3020    0.0000 C   0  0  0  0  0  0  0  0  0  0  0  0
   -4.4980    2.6010    0.0000 C   0  0  0  0  0  0  0  0  0  0  0  0
   -5.9980    2.6020    0.0000 C   0  0  0  0  0  0  0  0  0  0  0  0
   -6.7490    1.3040    0.0000 C   0  0  1  0  0  0  0  0  0  0  0  0
   -8.2490    1.3050    0.0000 C   0  0  2  0  0  0  0  0  0  0  0  0
   -9.2520    2.4200    0.0000 C   0  0  0  0  0  0  0  0  0  0  0  0
  -10.6230    1.8110    0.0000 C   0  0  1  0  0  0  0  0  0  0  0  0
  -11.9210    2.5620    0.0000 C   0  0  0  0  0  0  0  0  0  0  0  0
  -13.2200    3.3120    0.0000 N   0  0  0  0  0  0  0  0  0  0  0  0
  -10.4670    0.3190    0.0000 C   0  0  2  0  0  0  0  0  0  0  0  0
  -11.5820   -0.6840    0.0000 C   0  0  0  0  0  0  0  0  0  0  0  0
  -13.0090   -0.2200    0.0000 O   0  0  0  0  0  0  0  0  0  0  0  0
  -11.2710   -2.1520    0.0000 C   0  0  0  0  0  0  0  0  0  0  0  0
   -9.0000    0.0060    0.0000 C   0  0  2  0  0  0  0  0  0  0  0  0
   -8.2510   -1.2940    0.0000 C   0  0  0  0  0  0  0  0  0  0  0  0
   -6.7510   -1.2950    0.0000 C   0  0  0  0  0  0  0  0  0  0  0  0
   -6.0000    0.0040    0.0000 C   0  0  2  0  0  0  0  0  0  0  0  0
   -4.5000    0.0030    0.0000 C   0  0  2  0  0  0  0  0  0  0  0  0
   -3.7510   -1.2970    0.0000 C   0  0  0  0  0  0  0  0  0  0  0  0
   -2.2510   -1.2980    0.0000 C   0  0  0  0  0  0  0  0  0  0  0  0
   -5.2730   -1.2820    0.0000 C   0  0  0  0  0  0  0  0  0  0  0  0
   -9.8820   -1.2070    0.0000 C   0  0  0  0  0  0  0  0  0  0  0  0
  2  1  1  1  0  0  0
  2  3  1  0  0  0  0
  2 23  1  0  0  0  0
  3  4  1  0  0  0  0
  4  5  2  0  0  0  0
  4 21  1  0  0  0  0
  5  6  1  0  0  0  0
  7  6  1  6  0  0  0
  7  8  1  0  0  0  0
  7 20  1  0  0  0  0
  8  9  1  1  0  0  0
  8 17  1  0  0  0  0
  9 10  1  0  0  0  0
 10 11  1  6  0  0  0
 10 13  1  0  0  0  0
 11 12  3  0  0  0  0
 13 14  1  1  0  0  0
 13 17  1  0  0  0  0
 14 15  2  0  0  0  0
 14 16  1  0  0  0  0
 17 18  1  0  0  0  0
 17 25  1  6  0  0  0
 18 19  1  0  0  0  0
 20 19  1  1  0  0  0
 20 21  1  0  0  0  0
 21 22  1  0  0  0  0
 21 24  1  6  0  0  0
 22 23  1  0  0  0  0
M  END
>  <Index>
898

>  <ID>
HT1736

>  <class>
0

>  <apol>
62.094582

>  <ast_fraglike>
0

>  <ast_fraglike_ext>
0

>  <ast_violation>
2

>  <ast_violation_ext>
2

>  <a_acc>
3

>  <a_acid>
0

>  <a_aro>
0

>  <a_base>
0

>  <a_count>
56

>  <a_don>
1

>  <a_donacc>
4

>  <a_heavy>
25

>  <a_hyd>
20

>  <a_IC>
71.524292

>  <a_ICM>
1.2772195

>  <a_nB>
0

>  <a_nBr>
0

>  <a_nC>
22

>  <a_nCl>
0

>  <a_nF>
0

>  <a_nH>
31

>  <a_nI>
0

>  <a_nN>
1

>  <a_nO>
2

>  <a_nP>
0

>  <a_nS>
0

>  <balabanJ>
1.6314971

>  <BCUT_PEOE_0>
-2.9415269

>  <BCUT_PEOE_1>
-0.46518648

>  <BCUT_PEOE_2>
0.39957872

>  <BCUT_PEOE_3>
2.961056

>  <BCUT_SLOGP_0>
-2.8592441

>  <BCUT_SLOGP_1>
-0.38181987

>  <BCUT_SLOGP_2>
0.45264226

>  <BCUT_SLOGP_3>
3.0321329

>  <BCUT_SMR_0>
-2.6840937

>  <BCUT_SMR_1>
-0.28670913

>  <BCUT_SMR_2>
0.61612028

>  <BCUT_SMR_3>
3.211679

>  <bpol>
35.507416

>  <b_1rotN>
1

>  <b_1rotR>
0.035714287

>  <b_ar>
0

>  <b_count>
59

>  <b_double>
2

>  <b_heavy>
28

>  <b_max1len>
4

>  <b_rotN>
2

>  <b_rotR>
0.071428575

>  <b_single>
56

>  <b_triple>
1

>  <chi0>
17.982763

>  <chi0v>
15.793875

>  <chi0v_C>
14.491199

>  <chi0_C>
14.982763

>  <chi1>
11.808533

>  <chi1v>
10.086379

>  <chi1v_C>
9.4004488

>  <chi1_C>
9.9467258

>  <chiral>
8

>  <chiral_u>
0

>  <density>
0.68223417

>  <diameter>
11

>  <FCharge>
0

>  <GCUT_PEOE_0>
-0.80225575

>  <GCUT_PEOE_1>
-0.36390141

>  <GCUT_PEOE_2>
0.016038144

>  <GCUT_PEOE_3>
3.3400073

>  <GCUT_SLOGP_0>
-0.87574553

>  <GCUT_SLOGP_1>
-0.29590103

>  <GCUT_SLOGP_2>
0.0045521925

>  <GCUT_SLOGP_3>
3.4218194

>  <GCUT_SMR_0>
-0.53945488

>  <GCUT_SMR_1>
-0.19943041

>  <GCUT_SMR_2>
0.13400292

>  <GCUT_SMR_3>
3.5669255

>  <Kier1>
18.367348

>  <Kier2>
6.2696295

>  <Kier3>
2.5876586

>  <KierA1>
16.110704

>  <KierA2>
5.4677863

>  <KierA3>
2.247009

>  <KierFlex>
3.5235953

>  <lip_acc>
3

>  <lip_don>
1

>  <lip_druglike>
1

>  <lip_violation>
0

>  <logP(o/w)>
2.164

>  <logS>
-4.78689

>  <mr>
9.8729877

>  <mutagenic>
0

>  <nmol>
1

>  <opr_brigid>
20

>  <opr_leadlike>
1

>  <opr_nring>
4

>  <opr_nrot>
2

>  <opr_violation>
0

>  <PC+>
0

>  <PC->
0

>  <PEOE_PC+>
1.500662

>  <PEOE_PC->
-1.500662

>  <PEOE_RPC+>
0.13979767

>  <PEOE_RPC->
0.26086745

>  <PEOE_VSA+0>
119.43081

>  <PEOE_VSA+1>
33.735207

>  <PEOE_VSA+2>
8.458519

>  <PEOE_VSA+3>
0

>  <PEOE_VSA+4>
10.324173

>  <PEOE_VSA+5>
0

>  <PEOE_VSA+6>
0

>  <PEOE_VSA-0>
79.656868

>  <PEOE_VSA-1>
51.958797

>  <PEOE_VSA-2>
0

>  <PEOE_VSA-3>
17.742489

>  <PEOE_VSA-4>
0

>  <PEOE_VSA-5>
13.566921

>  <PEOE_VSA-6>
7.7675405

>  <PEOE_VSA_FHYD>
0.90760416

>  <PEOE_VSA_FNEG>
0.49816704

>  <PEOE_VSA_FPNEG>
0.062264703

>  <PEOE_VSA_FPOL>
0.092395842

>  <PEOE_VSA_FPOS>
0.50183296

>  <PEOE_VSA_FPPOS>
0.030131137

>  <PEOE_VSA_HYD>
310.9827

>  <PEOE_VSA_NEG>
170.69263

>  <PEOE_VSA_PNEG>
21.334461

>  <PEOE_VSA_POL>
31.658634

>  <PEOE_VSA_POS>
171.9487

>  <PEOE_VSA_PPOS>
10.324173

>  <petitjean>
0.45454547

>  <petitjeanSC>
0.83333331

>  <Q_PC+>
0

>  <Q_PC->
0

>  <Q_RPC+>
0

>  <Q_RPC->
0

>  <Q_VSA_FHYD>
1

>  <Q_VSA_FNEG>
0

>  <Q_VSA_FPNEG>
0

>  <Q_VSA_FPOL>
0

>  <Q_VSA_FPOS>
1

>  <Q_VSA_FPPOS>
0

>  <Q_VSA_HYD>
342.64133

>  <Q_VSA_NEG>
0

>  <Q_VSA_PNEG>
0

>  <Q_VSA_POL>
0

>  <Q_VSA_POS>
342.64133

>  <Q_VSA_PPOS>
0

>  <radius>
6

>  <reactive>
1

>  <rings>
4

>  <RPC+>
0

>  <RPC->
0

>  <rsynth>
0

>  <SlogP>
4.2649841

>  <SlogP_VSA0>
25.385227

>  <SlogP_VSA1>
5.6876111

>  <SlogP_VSA2>
30.330866

>  <SlogP_VSA3>
47.661102

>  <SlogP_VSA4>
22.05398

>  <SlogP_VSA5>
3.185575

>  <SlogP_VSA6>
0

>  <SlogP_VSA7>
17.643185

>  <SlogP_VSA8>
132.07884

>  <SlogP_VSA9>
99.978043

>  <SMR>
9.6366796

>  <SMR_VSA0>
23.862217

>  <SMR_VSA1>
56.444584

>  <SMR_VSA2>
22.05398

>  <SMR_VSA3>
26.25597

>  <SMR_VSA4>
0

>  <SMR_VSA5>
149.72202

>  <SMR_VSA6>
5.6876111

>  <SMR_VSA7>
99.978043

>  <TPSA>
61.09

>  <VAdjEq>
0.43513325

>  <VAdjMa>
5.8073549

>  <VDistEq>
3.1539786

>  <VDistMa>
9.0162268

>  <vdw_area>
342.64133

>  <vdw_vol>
500.55392

>  <vsa_acc>
31.30941

>  <vsa_acid>
0

>  <vsa_base>
0

>  <vsa_don>
0

>  <vsa_hyd>
236.40306

>  <vsa_other>
28.758026

>  <vsa_pol>
44.876331

>  <Weight>
341.495

>  <weinerPath>
1310

>  <weinerPol>
53

>  <zagreb>
146

$$$$