Clc1ccc(OC(C(OCCNC(=O)c2cccnc2)=O)(C)C)cc1
  MOE2013           2D

 25 26  0  0  0  0  0  0  0  0999 V2000
    0.0000    0.0000    0.0000 Cl  0  0  0  0  0  0  0  0  0  0  0  0
   -1.3010   -0.7470    0.0000 C   0  0  0  0  0  0  0  0  0  0  0  0
   -2.5980    0.0070    0.0000 C   0  0  0  0  0  0  0  0  0  0  0  0
   -3.8990   -0.7400    0.0000 C   0  0  0  0  0  0  0  0  0  0  0  0
   -3.9030   -2.2400    0.0000 C   0  0  0  0  0  0  0  0  0  0  0  0
   -5.2040   -2.9860    0.0000 O   0  0  0  0  0  0  0  0  0  0  0  0
   -6.5010   -2.2330    0.0000 C   0  0  0  0  0  0  0  0  0  0  0  0
   -7.7980   -1.4790    0.0000 C   0  0  0  0  0  0  0  0  0  0  0  0
   -9.0990   -2.2260    0.0000 O   0  0  0  0  0  0  0  0  0  0  0  0
  -10.3960   -1.4720    0.0000 C   0  0  0  0  0  0  0  0  0  0  0  0
  -11.6970   -2.2190    0.0000 C   0  0  0  0  0  0  0  0  0  0  0  0
  -12.9940   -1.4650    0.0000 N   0  0  0  0  0  0  0  0  0  0  0  0
  -14.2950   -2.2120    0.0000 C   0  0  0  0  0  0  0  0  0  0  0  0
  -14.2990   -3.7120    0.0000 O   0  0  0  0  0  0  0  0  0  0  0  0
  -15.5920   -1.4580    0.0000 C   0  0  0  0  0  0  0  0  0  0  0  0
  -16.8930   -2.2050    0.0000 C   0  0  0  0  0  0  0  0  0  0  0  0
  -18.1900   -1.4520    0.0000 C   0  0  0  0  0  0  0  0  0  0  0  0
  -18.1860    0.0480    0.0000 C   0  0  0  0  0  0  0  0  0  0  0  0
  -16.8850    0.7950    0.0000 N   0  0  0  0  0  0  0  0  0  0  0  0
  -15.5880    0.0420    0.0000 C   0  0  0  0  0  0  0  0  0  0  0  0
   -7.7940    0.0210    0.0000 O   0  0  0  0  0  0  0  0  0  0  0  0
   -5.7480   -0.9360    0.0000 C   0  0  0  0  0  0  0  0  0  0  0  0
   -7.2550   -3.5300    0.0000 C   0  0  0  0  0  0  0  0  0  0  0  0
   -2.6060   -2.9930    0.0000 C   0  0  0  0  0  0  0  0  0  0  0  0
   -1.3050   -2.2470    0.0000 C   0  0  0  0  0  0  0  0  0  0  0  0
  1  2  1  0  0  0  0
  2  3  1  0  0  0  0
  2 25  2  0  0  0  0
  3  4  2  0  0  0  0
  4  5  1  0  0  0  0
  5  6  1  0  0  0  0
  5 24  2  0  0  0  0
  6  7  1  0  0  0  0
  7  8  1  0  0  0  0
  7 22  1  0  0  0  0
  7 23  1  0  0  0  0
  8  9  1  0  0  0  0
  8 21  2  0  0  0  0
  9 10  1  0  0  0  0
 10 11  1  0  0  0  0
 11 12  1  0  0  0  0
 12 13  1  0  0  0  0
 13 14  2  0  0  0  0
 13 15  1  0  0  0  0
 15 16  1  0  0  0  0
 15 20  2  0  0  0  0
 16 17  2  0  0  0  0
 17 18  1  0  0  0  0
 18 19  2  0  0  0  0
 19 20  1  0  0  0  0
 24 25  1  0  0  0  0
M  END
>  <Index>
860

>  <ID>
HT1668

>  <class>
0

>  <apol>
51.937065

>  <ast_fraglike>
0

>  <ast_fraglike_ext>
0

>  <ast_violation>
2

>  <ast_violation_ext>
3

>  <a_acc>
4

>  <a_acid>
0

>  <a_aro>
12

>  <a_base>
0

>  <a_count>
44

>  <a_don>
1

>  <a_donacc>
5

>  <a_heavy>
25

>  <a_hyd>
17

>  <a_IC>
74.445717

>  <a_ICM>
1.6919482

>  <a_nB>
0

>  <a_nBr>
0

>  <a_nC>
18

>  <a_nCl>
1

>  <a_nF>
0

>  <a_nH>
19

>  <a_nI>
0

>  <a_nN>
2

>  <a_nO>
4

>  <a_nP>
0

>  <a_nS>
0

>  <balabanJ>
1.6187357

>  <BCUT_PEOE_0>
-2.535105

>  <BCUT_PEOE_1>
-0.58148944

>  <BCUT_PEOE_2>
0.63926607

>  <BCUT_PEOE_3>
2.5928574

>  <BCUT_SLOGP_0>
-2.6936765

>  <BCUT_SLOGP_1>
-0.51816702

>  <BCUT_SLOGP_2>
0.71212536

>  <BCUT_SLOGP_3>
2.5322902

>  <BCUT_SMR_0>
-2.3112013

>  <BCUT_SMR_1>
-0.4358696

>  <BCUT_SMR_2>
0.79507804

>  <BCUT_SMR_3>
2.805845

>  <bpol>
28.918934

>  <b_1rotN>
7

>  <b_1rotR>
0.26923078

>  <b_ar>
12

>  <b_count>
45

>  <b_double>
2

>  <b_heavy>
26

>  <b_max1len>
4

>  <b_rotN>
9

>  <b_rotR>
0.34615386

>  <b_single>
31

>  <b_triple>
0

>  <chi0>
18.286245

>  <chi0v>
14.747116

>  <chi0v_C>
11.033015

>  <chi0_C>
12.457819

>  <chi1>
11.881847

>  <chi1v>
8.0615778

>  <chi1v_C>
5.0653839

>  <chi1_C>
6.5714984

>  <chiral>
0

>  <chiral_u>
0

>  <density>
0.78582662

>  <diameter>
16

>  <FCharge>
0

>  <GCUT_PEOE_0>
-0.82986671

>  <GCUT_PEOE_1>
-0.37271327

>  <GCUT_PEOE_2>
0.057710163

>  <GCUT_PEOE_3>
2.4816496

>  <GCUT_SLOGP_0>
-1.1614263

>  <GCUT_SLOGP_1>
-0.26874816

>  <GCUT_SLOGP_2>
0.15958035

>  <GCUT_SLOGP_3>
2.5037301

>  <GCUT_SMR_0>
-0.51634771

>  <GCUT_SMR_1>
-0.21075925

>  <GCUT_SMR_2>
0.19089776

>  <GCUT_SMR_3>
2.72474

>  <Kier1>
21.301775

>  <Kier2>
10.364081

>  <Kier3>
7.2600002

>  <KierA1>
16.658247

>  <KierA2>
8.0160837

>  <KierA3>
5.5689921

>  <KierFlex>
5.3413558

>  <lip_acc>
6

>  <lip_don>
1

>  <lip_druglike>
1

>  <lip_violation>
0

>  <logP(o/w)>
2.5257399

>  <logS>
-3.91447

>  <mr>
9.6967306

>  <mutagenic>
0

>  <nmol>
1

>  <opr_brigid>
12

>  <opr_leadlike>
1

>  <opr_nring>
2

>  <opr_nrot>
7

>  <opr_violation>
0

>  <PC+>
0

>  <PC->
0

>  <PEOE_PC+>
2.1493647

>  <PEOE_PC->
-2.1493647

>  <PEOE_RPC+>
0.13697416

>  <PEOE_RPC->
0.16271503

>  <PEOE_VSA+0>
76.796219

>  <PEOE_VSA+1>
76.802986

>  <PEOE_VSA+2>
0

>  <PEOE_VSA+3>
8.6190128

>  <PEOE_VSA+4>
0

>  <PEOE_VSA+5>
27.65803

>  <PEOE_VSA+6>
0

>  <PEOE_VSA-0>
111.02478

>  <PEOE_VSA-1>
29.581947

>  <PEOE_VSA-2>
0

>  <PEOE_VSA-3>
0

>  <PEOE_VSA-4>
0

>  <PEOE_VSA-5>
32.816418

>  <PEOE_VSA-6>
5.1444035

>  <PEOE_VSA_FHYD>
0.82190269

>  <PEOE_VSA_FNEG>
0.48465341

>  <PEOE_VSA_FPNEG>
0.10303015

>  <PEOE_VSA_FPOL>
0.17809732

>  <PEOE_VSA_FPOS>
0.51534659

>  <PEOE_VSA_FPPOS>
0.075067163

>  <PEOE_VSA_HYD>
302.82495

>  <PEOE_VSA_NEG>
178.56755

>  <PEOE_VSA_PNEG>
37.960819

>  <PEOE_VSA_POL>
65.618851

>  <PEOE_VSA_POS>
189.87625

>  <PEOE_VSA_PPOS>
27.65803

>  <petitjean>
0.5

>  <petitjeanSC>
1

>  <Q_PC+>
0

>  <Q_PC->
0

>  <Q_RPC+>
0

>  <Q_RPC->
0

>  <Q_VSA_FHYD>
1

>  <Q_VSA_FNEG>
0

>  <Q_VSA_FPNEG>
0

>  <Q_VSA_FPOL>
0

>  <Q_VSA_FPOS>
1

>  <Q_VSA_FPPOS>
0

>  <Q_VSA_HYD>
368.44379

>  <Q_VSA_NEG>
0

>  <Q_VSA_PNEG>
0

>  <Q_VSA_POL>
0

>  <Q_VSA_POS>
368.44379

>  <Q_VSA_PPOS>
0

>  <radius>
8

>  <reactive>
0

>  <rings>
2

>  <RPC+>
0

>  <RPC->
0

>  <rsynth>
1

>  <SlogP>
2.8656001

>  <SlogP_VSA0>
29.010639

>  <SlogP_VSA1>
29.789778

>  <SlogP_VSA2>
34.862103

>  <SlogP_VSA3>
39.365837

>  <SlogP_VSA4>
27.047791

>  <SlogP_VSA5>
0

>  <SlogP_VSA6>
3.5006065

>  <SlogP_VSA7>
140.28783

>  <SlogP_VSA8>
0

>  <SlogP_VSA9>
111.04411

>  <SMR>
9.3688202

>  <SMR_VSA0>
58.724319

>  <SMR_VSA1>
27.785418

>  <SMR_VSA2>
18.01075

>  <SMR_VSA3>
11.929609

>  <SMR_VSA4>
0

>  <SMR_VSA5>
140.28783

>  <SMR_VSA6>
52.370083

>  <SMR_VSA7>
105.80067

>  <TPSA>
77.519997

>  <VAdjEq>
0.41335541

>  <VAdjMa>
5.7004399

>  <VDistEq>
3.7522781

>  <VDistMa>
8.9487972

>  <vdw_area>
368.44379

>  <vdw_vol>
461.69598

>  <vsa_acc>
35.320175

>  <vsa_acid>
0

>  <vsa_base>
0

>  <vsa_don>
5.6825762

>  <vsa_hyd>
281.39362

>  <vsa_other>
30.161787

>  <vsa_pol>
41.00275

>  <Weight>
362.81299

>  <weinerPath>
1840

>  <weinerPol>
34

>  <zagreb>
122

$$$$