OC(=O)CCCC
  MOE2013           2D

  7  6  0  0  0  0  0  0  0  0999 V2000
    0.0000    0.0000    0.0000 O   0  0  0  0  0  0  0  0  0  0  0  0
    1.2950   -0.7570    0.0000 C   0  0  0  0  0  0  0  0  0  0  0  0
    1.2870   -2.2570    0.0000 O   0  0  0  0  0  0  0  0  0  0  0  0
    2.5980   -0.0130    0.0000 C   0  0  0  0  0  0  0  0  0  0  0  0
    3.8930   -0.7700    0.0000 C   0  0  0  0  0  0  0  0  0  0  0  0
    5.1960   -0.0270    0.0000 C   0  0  0  0  0  0  0  0  0  0  0  0
    6.4910   -0.7830    0.0000 C   0  0  0  0  0  0  0  0  0  0  0  0
  1  2  1  0  0  0  0
  2  3  2  0  0  0  0
  2  4  1  0  0  0  0
  4  5  1  0  0  0  0
  5  6  1  0  0  0  0
  6  7  1  0  0  0  0
M  END
>  <Index>
832

>  <ID>
HT1620

>  <class>
0

>  <apol>
17.07193

>  <ast_fraglike>
1

>  <ast_fraglike_ext>
1

>  <ast_violation>
0

>  <ast_violation_ext>
0

>  <a_acc>
2

>  <a_acid>
0

>  <a_aro>
0

>  <a_base>
0

>  <a_count>
17

>  <a_don>
2

>  <a_donacc>
4

>  <a_heavy>
7

>  <a_hyd>
4

>  <a_IC>
22.657948

>  <a_ICM>
1.3328204

>  <a_nB>
0

>  <a_nBr>
0

>  <a_nC>
5

>  <a_nCl>
0

>  <a_nF>
0

>  <a_nH>
10

>  <a_nI>
0

>  <a_nN>
0

>  <a_nO>
2

>  <a_nP>
0

>  <a_nS>
0

>  <balabanJ>
2.7140133

>  <BCUT_PEOE_0>
-2.565371

>  <BCUT_PEOE_1>
-0.33626133

>  <BCUT_PEOE_2>
0.31047586

>  <BCUT_PEOE_3>
2.5450172

>  <BCUT_SLOGP_0>
-2.4471569

>  <BCUT_SLOGP_1>
-0.27678496

>  <BCUT_SLOGP_2>
0.3031517

>  <BCUT_SLOGP_3>
2.6742289

>  <BCUT_SMR_0>
-2.3300469

>  <BCUT_SMR_1>
-0.16736105

>  <BCUT_SMR_2>
0.42283639

>  <BCUT_SMR_3>
2.7793903

>  <bpol>
11.89007

>  <b_1rotN>
3

>  <b_1rotR>
0.5

>  <b_ar>
0

>  <b_count>
16

>  <b_double>
1

>  <b_heavy>
6

>  <b_max1len>
5

>  <b_rotN>
3

>  <b_rotR>
0.5

>  <b_single>
15

>  <b_triple>
0

>  <chi0>
5.6986704

>  <chi0v>
4.4767823

>  <chi0v_C>
3.6213202

>  <chi0_C>
3.6986706

>  <chi1>
3.2700555

>  <chi1v>
2.4883912

>  <chi1v_C>
2.0606601

>  <chi1_C>
2.115355

>  <chiral>
0

>  <chiral_u>
0

>  <density>
0.70077461

>  <diameter>
5

>  <FCharge>
0

>  <GCUT_PEOE_0>
-0.78797644

>  <GCUT_PEOE_1>
-0.3408702

>  <GCUT_PEOE_2>
0.017196003

>  <GCUT_PEOE_3>
2.0585992

>  <GCUT_SLOGP_0>
-0.872527

>  <GCUT_SLOGP_1>
-0.22528064

>  <GCUT_SLOGP_2>
0.012818723

>  <GCUT_SLOGP_3>
2.1535578

>  <GCUT_SMR_0>
-0.52815527

>  <GCUT_SMR_1>
-0.17385323

>  <GCUT_SMR_2>
0.11766192

>  <GCUT_SMR_3>
2.2650783

>  <Kier1>
7

>  <Kier2>
4.1666665

>  <Kier3>
6

>  <KierA1>
6.0467501

>  <KierA2>
3.4975834

>  <KierA3>
4.8770623

>  <KierFlex>
3.0212874

>  <lip_acc>
2

>  <lip_don>
1

>  <lip_druglike>
1

>  <lip_violation>
0

>  <logP(o/w)>
1.28

>  <logS>
-0.82595003

>  <mr>
2.8122103

>  <mutagenic>
0

>  <nmol>
1

>  <opr_brigid>
0

>  <opr_leadlike>
1

>  <opr_nring>
0

>  <opr_nrot>
3

>  <opr_violation>
0

>  <PC+>
0

>  <PC->
0

>  <PEOE_PC+>
0.76146895

>  <PEOE_PC->
-0.76146895

>  <PEOE_RPC+>
0.34090361

>  <PEOE_RPC->
0.43503734

>  <PEOE_VSA+0>
47.089787

>  <PEOE_VSA+1>
0

>  <PEOE_VSA+2>
0

>  <PEOE_VSA+3>
0

>  <PEOE_VSA+4>
10.324173

>  <PEOE_VSA+5>
14.708499

>  <PEOE_VSA+6>
0

>  <PEOE_VSA-0>
8.701313

>  <PEOE_VSA-1>
27.44899

>  <PEOE_VSA-2>
0

>  <PEOE_VSA-3>
0

>  <PEOE_VSA-4>
0

>  <PEOE_VSA-5>
13.566921

>  <PEOE_VSA-6>
7.7675405

>  <PEOE_VSA_FHYD>
0.64224887

>  <PEOE_VSA_FNEG>
0.44353056

>  <PEOE_VSA_FPNEG>
0.16460858

>  <PEOE_VSA_FPOL>
0.35775113

>  <PEOE_VSA_FPOS>
0.55646944

>  <PEOE_VSA_FPPOS>
0.19314256

>  <PEOE_VSA_HYD>
83.240089

>  <PEOE_VSA_NEG>
57.484764

>  <PEOE_VSA_PNEG>
21.334461

>  <PEOE_VSA_POL>
46.367134

>  <PEOE_VSA_POS>
72.122459

>  <PEOE_VSA_PPOS>
25.032671

>  <petitjean>
0.40000001

>  <petitjeanSC>
0.66666669

>  <Q_PC+>
0

>  <Q_PC->
0

>  <Q_RPC+>
0

>  <Q_RPC->
0

>  <Q_VSA_FHYD>
1

>  <Q_VSA_FNEG>
0

>  <Q_VSA_FPNEG>
0

>  <Q_VSA_FPOL>
0

>  <Q_VSA_FPOS>
1

>  <Q_VSA_FPPOS>
0

>  <Q_VSA_HYD>
129.60722

>  <Q_VSA_NEG>
0

>  <Q_VSA_PNEG>
0

>  <Q_VSA_POL>
0

>  <Q_VSA_POS>
129.60722

>  <Q_VSA_PPOS>
0

>  <radius>
3

>  <reactive>
0

>  <rings>
0

>  <RPC+>
0

>  <RPC->
0

>  <rsynth>
1

>  <SlogP>
1.2612

>  <SlogP_VSA0>
0

>  <SlogP_VSA1>
7.7454643

>  <SlogP_VSA2>
23.862217

>  <SlogP_VSA3>
25.385227

>  <SlogP_VSA4>
0

>  <SlogP_VSA5>
0

>  <SlogP_VSA6>
0

>  <SlogP_VSA7>
0

>  <SlogP_VSA8>
56.605217

>  <SlogP_VSA9>
33.326015

>  <SMR>
2.71608

>  <SMR_VSA0>
23.862217

>  <SMR_VSA1>
0

>  <SMR_VSA2>
25.385227

>  <SMR_VSA3>
0

>  <SMR_VSA4>
0

>  <SMR_VSA5>
56.605217

>  <SMR_VSA6>
7.7454643

>  <SMR_VSA7>
33.326015

>  <TPSA>
37.299999

>  <VAdjEq>
0.80309099

>  <VAdjMa>
3.5849626

>  <VDistEq>
2.2125823

>  <VDistMa>
5.195847

>  <vdw_area>
129.60722

>  <vdw_vol>
145.74301

>  <vsa_acc>
0

>  <vsa_acid>
0

>  <vsa_base>
0

>  <vsa_don>
0

>  <vsa_hyd>
76.833931

>  <vsa_other>
14.708499

>  <vsa_pol>
27.133842

>  <Weight>
102.133

>  <weinerPath>
52

>  <weinerPol>
4

>  <zagreb>
24

$$$$