F[C@@H]1C2=CC(=O)C=C[C@@]2([C@@H]2[C@H]([C@@H]3C[C@@H](C)[C@](O)(C(=O)COC(=O)C)[C@]3(C[C@@H]2O)C)C1)C
  MOE2013           2D

 31 34  0  0  1  0  0  0  0  0999 V2000
    0.0000    0.0000    0.0000 F   0  0  0  0  0  0  0  0  0  0  0  0
    0.7460   -1.3010    0.0000 C   0  0  2  0  0  0  0  0  0  0  0  0
   -0.0080   -2.5980    0.0000 C   0  0  0  0  0  0  0  0  0  0  0  0
   -1.5080   -2.5930    0.0000 C   0  0  0  0  0  0  0  0  0  0  0  0
   -2.2630   -3.8900    0.0000 C   0  0  0  0  0  0  0  0  0  0  0  0
   -3.7630   -3.8850    0.0000 O   0  0  0  0  0  0  0  0  0  0  0  0
   -1.5170   -5.1910    0.0000 C   0  0  0  0  0  0  0  0  0  0  0  0
   -0.0170   -5.1960    0.0000 C   0  0  0  0  0  0  0  0  0  0  0  0
    0.7370   -3.9000    0.0000 C   0  0  2  0  0  0  0  0  0  0  0  0
    2.2370   -3.9040    0.0000 C   0  0  2  0  0  0  0  0  0  0  0  0
    2.9920   -2.6080    0.0000 C   0  0  2  0  0  0  0  0  0  0  0  0
    4.4910   -2.6130    0.0000 C   0  0  2  0  0  0  0  0  0  0  0  0
    5.4990   -1.5010    0.0000 C   0  0  0  0  0  0  0  0  0  0  0  0
    6.8670   -2.1160    0.0000 C   0  0  1  0  0  0  0  0  0  0  0  0
    8.1690   -1.3700    0.0000 C   0  0  0  0  0  0  0  0  0  0  0  0
    6.7050   -3.6070    0.0000 C   0  0  2  0  0  0  0  0  0  0  0  0
    7.0890   -5.0570    0.0000 O   0  0  0  0  0  0  0  0  0  0  0  0
    8.1660   -3.9490    0.0000 C   0  0  0  0  0  0  0  0  0  0  0  0
    9.1930   -2.8560    0.0000 O   0  0  0  0  0  0  0  0  0  0  0  0
    8.6000   -5.3850    0.0000 C   0  0  0  0  0  0  0  0  0  0  0  0
   10.0600   -5.7270    0.0000 O   0  0  0  0  0  0  0  0  0  0  0  0
   10.4940   -7.1630    0.0000 C   0  0  0  0  0  0  0  0  0  0  0  0
    9.4680   -8.2570    0.0000 O   0  0  0  0  0  0  0  0  0  0  0  0
   11.9550   -7.5050    0.0000 C   0  0  0  0  0  0  0  0  0  0  0  0
    5.2370   -3.9140    0.0000 C   0  0  1  0  0  0  0  0  0  0  0  0
    4.4830   -5.2110    0.0000 C   0  0  0  0  0  0  0  0  0  0  0  0
    2.9830   -5.2060    0.0000 C   0  0  2  0  0  0  0  0  0  0  0  0
    2.2290   -6.5020    0.0000 O   0  0  0  0  0  0  0  0  0  0  0  0
    6.1150   -5.1310    0.0000 C   0  0  0  0  0  0  0  0  0  0  0  0
    2.2460   -1.3060    0.0000 C   0  0  0  0  0  0  0  0  0  0  0  0
    1.5060   -5.1880    0.0000 C   0  0  0  0  0  0  0  0  0  0  0  0
  2  1  1  1  0  0  0
  2  3  1  0  0  0  0
  2 30  1  0  0  0  0
  3  4  2  0  0  0  0
  3  9  1  0  0  0  0
  4  5  1  0  0  0  0
  5  6  2  0  0  0  0
  5  7  1  0  0  0  0
  7  8  2  0  0  0  0
  8  9  1  0  0  0  0
  9 31  1  6  0  0  0
 10  9  1  6  0  0  0
 10 11  1  0  0  0  0
 10 27  1  0  0  0  0
 11 12  1  0  0  0  0
 11 30  1  1  0  0  0
 12 13  1  6  0  0  0
 12 25  1  0  0  0  0
 13 14  1  0  0  0  0
 14 15  1  1  0  0  0
 14 16  1  0  0  0  0
 16 17  1  1  0  0  0
 16 18  1  6  0  0  0
 16 25  1  0  0  0  0
 18 19  2  0  0  0  0
 18 20  1  0  0  0  0
 20 21  1  0  0  0  0
 21 22  1  0  0  0  0
 22 23  2  0  0  0  0
 22 24  1  0  0  0  0
 25 26  1  0  0  0  0
 25 29  1  6  0  0  0
 26 27  1  0  0  0  0
 27 28  1  6  0  0  0
M  END
>  <Index>
815

>  <ID>
HT1592

>  <class>
0

>  <apol>
68.279587

>  <ast_fraglike>
0

>  <ast_fraglike_ext>
0

>  <ast_violation>
2

>  <ast_violation_ext>
3

>  <a_acc>
5

>  <a_acid>
0

>  <a_aro>
0

>  <a_base>
0

>  <a_count>
62

>  <a_don>
2

>  <a_donacc>
7

>  <a_heavy>
31

>  <a_hyd>
22

>  <a_IC>
90.031212

>  <a_ICM>
1.4521163

>  <a_nB>
0

>  <a_nBr>
0

>  <a_nC>
24

>  <a_nCl>
0

>  <a_nF>
1

>  <a_nH>
31

>  <a_nI>
0

>  <a_nN>
0

>  <a_nO>
6

>  <a_nP>
0

>  <a_nS>
0

>  <balabanJ>
1.6767969

>  <BCUT_PEOE_0>
-2.9134486

>  <BCUT_PEOE_1>
-0.49547535

>  <BCUT_PEOE_2>
0.48801038

>  <BCUT_PEOE_3>
2.9887044

>  <BCUT_SLOGP_0>
-2.9078405

>  <BCUT_SLOGP_1>
-0.43249828

>  <BCUT_SLOGP_2>
0.49900606

>  <BCUT_SLOGP_3>
3.0015283

>  <BCUT_SMR_0>
-2.674623

>  <BCUT_SMR_1>
-0.33647928

>  <BCUT_SMR_2>
0.62741536

>  <BCUT_SMR_3>
3.2245049

>  <bpol>
39.882416

>  <b_1rotN>
3

>  <b_1rotR>
0.088235296

>  <b_ar>
0

>  <b_count>
65

>  <b_double>
5

>  <b_heavy>
34

>  <b_max1len>
5

>  <b_rotN>
4

>  <b_rotR>
0.11764706

>  <b_single>
60

>  <b_triple>
0

>  <chi0>
22.930357

>  <chi0v>
18.429964

>  <chi0v_C>
15.52458

>  <chi0_C>
16.223249

>  <chi1>
14.357751

>  <chi1v>
11.023628

>  <chi1v_C>
9.2184334

>  <chi1_C>
10.062751

>  <chiral>
9

>  <chiral_u>
0

>  <density>
0.76605999

>  <diameter>
14

>  <FCharge>
0

>  <GCUT_PEOE_0>
-0.79946262

>  <GCUT_PEOE_1>
-0.38075858

>  <GCUT_PEOE_2>
0.020189051

>  <GCUT_PEOE_3>
3.3884878

>  <GCUT_SLOGP_0>
-0.94369394

>  <GCUT_SLOGP_1>
-0.32088497

>  <GCUT_SLOGP_2>
0.0067078788

>  <GCUT_SLOGP_3>
3.4126341

>  <GCUT_SMR_0>
-0.53790373

>  <GCUT_SMR_1>
-0.21416305

>  <GCUT_SMR_2>
0.14344212

>  <GCUT_SMR_3>
3.6078739

>  <Kier1>
24.134949

>  <Kier2>
8.0452805

>  <Kier3>
3.4141386

>  <KierA1>
20.773548

>  <KierA2>
6.8885112

>  <KierA3>
2.9120367

>  <KierFlex>
4.6160913

>  <lip_acc>
6

>  <lip_don>
2

>  <lip_druglike>
1

>  <lip_violation>
0

>  <logP(o/w)>
2.8729999

>  <logS>
-3.9916101

>  <mr>
11.141329

>  <mutagenic>
0

>  <nmol>
1

>  <opr_brigid>
20

>  <opr_leadlike>
1

>  <opr_nring>
4

>  <opr_nrot>
3

>  <opr_violation>
0

>  <PC+>
0

>  <PC->
0

>  <PEOE_PC+>
2.5956168

>  <PEOE_PC->
-2.5956168

>  <PEOE_RPC+>
0.099949434

>  <PEOE_RPC->
0.15081017

>  <PEOE_VSA+0>
112.58617

>  <PEOE_VSA+1>
34.76263

>  <PEOE_VSA+2>
20.418549

>  <PEOE_VSA+3>
16.917038

>  <PEOE_VSA+4>
20.648346

>  <PEOE_VSA+5>
14.708499

>  <PEOE_VSA+6>
0

>  <PEOE_VSA-0>
52.822289

>  <PEOE_VSA-1>
68.49794

>  <PEOE_VSA-2>
0

>  <PEOE_VSA-3>
0

>  <PEOE_VSA-4>
11.908636

>  <PEOE_VSA-5>
40.700764

>  <PEOE_VSA-6>
18.038837

>  <PEOE_VSA_FHYD>
0.74271214

>  <PEOE_VSA_FNEG>
0.46593189

>  <PEOE_VSA_FPNEG>
0.17147227

>  <PEOE_VSA_FPOL>
0.25728783

>  <PEOE_VSA_FPOS>
0.53406811

>  <PEOE_VSA_FPPOS>
0.085815564

>  <PEOE_VSA_HYD>
306.00461

>  <PEOE_VSA_NEG>
191.96846

>  <PEOE_VSA_PNEG>
70.648232

>  <PEOE_VSA_POL>
106.00508

>  <PEOE_VSA_POS>
220.04123

>  <PEOE_VSA_PPOS>
35.356846

>  <petitjean>
0.5

>  <petitjeanSC>
1

>  <Q_PC+>
0

>  <Q_PC->
0

>  <Q_RPC+>
0

>  <Q_RPC->
0

>  <Q_VSA_FHYD>
1

>  <Q_VSA_FNEG>
0

>  <Q_VSA_FPNEG>
0

>  <Q_VSA_FPOL>
0

>  <Q_VSA_FPOS>
1

>  <Q_VSA_FPPOS>
0

>  <Q_VSA_HYD>
412.0097

>  <Q_VSA_NEG>
0

>  <Q_VSA_PNEG>
0

>  <Q_VSA_POL>
0

>  <Q_VSA_POS>
412.0097

>  <Q_VSA_PPOS>
0

>  <radius>
7

>  <reactive>
1

>  <rings>
4

>  <RPC+>
0

>  <RPC->
0

>  <rsynth>
0.38709676

>  <SlogP>
2.3224001

>  <SlogP_VSA0>
50.770454

>  <SlogP_VSA1>
19.120686

>  <SlogP_VSA2>
99.401428

>  <SlogP_VSA3>
20.926258

>  <SlogP_VSA4>
17.643185

>  <SlogP_VSA5>
3.185575

>  <SlogP_VSA6>
0

>  <SlogP_VSA7>
52.929554

>  <SlogP_VSA8>
56.605217

>  <SlogP_VSA9>
148.26418

>  <SMR>
10.94216

>  <SMR_VSA0>
82.58654

>  <SMR_VSA1>
65.730568

>  <SMR_VSA2>
17.643185

>  <SMR_VSA3>
20.000463

>  <SMR_VSA4>
0

>  <SMR_VSA5>
109.53477

>  <SMR_VSA6>
40.046944

>  <SMR_VSA7>
133.30406

>  <TPSA>
100.9

>  <VAdjEq>
0.36875206

>  <VAdjMa>
6.0874629

>  <VDistEq>
3.4058838

>  <VDistMa>
9.6382637

>  <vdw_area>
412.0097

>  <vdw_vol>
567.19312

>  <vsa_acc>
40.700764

>  <vsa_acid>
0

>  <vsa_base>
0

>  <vsa_don>
0

>  <vsa_hyd>
274.97394

>  <vsa_other>
34.129295

>  <vsa_pol>
67.834602

>  <Weight>
434.504

>  <weinerPath>
2357

>  <weinerPol>
69

>  <zagreb>
180

$$$$