O1c2cc(ccc2OC1)CN1CCN(CC1)c1ncccn1
  MOE2013           2D

 22 25  0  0  0  0  0  0  0  0999 V2000
    0.0000    0.0000    0.0000 O   0  0  0  0  0  0  0  0  0  0  0  0
   -1.4920   -0.1590    0.0000 C   0  0  0  0  0  0  0  0  0  0  0  0
   -2.6080    0.8420    0.0000 C   0  0  0  0  0  0  0  0  0  0  0  0
   -4.0340    0.3760    0.0000 C   0  0  0  0  0  0  0  0  0  0  0  0
   -4.3430   -1.0910    0.0000 C   0  0  0  0  0  0  0  0  0  0  0  0
   -3.2270   -2.0930    0.0000 C   0  0  0  0  0  0  0  0  0  0  0  0
   -1.8010   -1.6270    0.0000 C   0  0  0  0  0  0  0  0  0  0  0  0
   -0.5010   -2.3750    0.0000 O   0  0  0  0  0  0  0  0  0  0  0  0
    0.6120   -1.3690    0.0000 C   0  0  0  0  0  0  0  0  0  0  0  0
   -5.1500    1.3780    0.0000 C   0  0  0  0  0  0  0  0  0  0  0  0
   -6.5760    0.9120    0.0000 N   0  0  0  0  0  0  0  0  0  0  0  0
   -7.6920    1.9140    0.0000 C   0  0  0  0  0  0  0  0  0  0  0  0
   -9.1180    1.4480    0.0000 C   0  0  0  0  0  0  0  0  0  0  0  0
   -9.4280   -0.0200    0.0000 N   0  0  0  0  0  0  0  0  0  0  0  0
   -8.3110   -1.0210    0.0000 C   0  0  0  0  0  0  0  0  0  0  0  0
   -6.8850   -0.5550    0.0000 C   0  0  0  0  0  0  0  0  0  0  0  0
  -10.8530   -0.4860    0.0000 C   0  0  0  0  0  0  0  0  0  0  0  0
  -11.9700    0.5160    0.0000 N   0  0  0  0  0  0  0  0  0  0  0  0
  -13.3960    0.0500    0.0000 C   0  0  0  0  0  0  0  0  0  0  0  0
  -13.7050   -1.4180    0.0000 C   0  0  0  0  0  0  0  0  0  0  0  0
  -12.5880   -2.4190    0.0000 C   0  0  0  0  0  0  0  0  0  0  0  0
  -11.1630   -1.9530    0.0000 N   0  0  0  0  0  0  0  0  0  0  0  0
  1  2  1  0  0  0  0
  1  9  1  0  0  0  0
  2  3  1  0  0  0  0
  2  7  2  0  0  0  0
  3  4  2  0  0  0  0
  4  5  1  0  0  0  0
  4 10  1  0  0  0  0
  5  6  2  0  0  0  0
  6  7  1  0  0  0  0
  7  8  1  0  0  0  0
  8  9  1  0  0  0  0
 10 11  1  0  0  0  0
 11 12  1  0  0  0  0
 11 16  1  0  0  0  0
 12 13  1  0  0  0  0
 13 14  1  0  0  0  0
 14 15  1  0  0  0  0
 14 17  1  0  0  0  0
 15 16  1  0  0  0  0
 17 18  1  0  0  0  0
 17 22  2  0  0  0  0
 18 19  2  0  0  0  0
 19 20  1  0  0  0  0
 20 21  2  0  0  0  0
 21 22  1  0  0  0  0
M  END
>  <Index>
871

>  <ID>
HT1693

>  <class>
0

>  <apol>
46.166275

>  <ast_fraglike>
0

>  <ast_fraglike_ext>
0

>  <ast_violation>
1

>  <ast_violation_ext>
2

>  <a_acc>
5

>  <a_acid>
0

>  <a_aro>
12

>  <a_base>
0

>  <a_count>
40

>  <a_don>
0

>  <a_donacc>
5

>  <a_heavy>
22

>  <a_hyd>
14

>  <a_IC>
63.818474

>  <a_ICM>
1.5954618

>  <a_nB>
0

>  <a_nBr>
0

>  <a_nC>
16

>  <a_nCl>
0

>  <a_nF>
0

>  <a_nH>
18

>  <a_nI>
0

>  <a_nN>
4

>  <a_nO>
2

>  <a_nP>
0

>  <a_nS>
0

>  <balabanJ>
1.2076198

>  <BCUT_PEOE_0>
-2.7417209

>  <BCUT_PEOE_1>
-0.53631145

>  <BCUT_PEOE_2>
0.63793582

>  <BCUT_PEOE_3>
2.6553609

>  <BCUT_SLOGP_0>
-2.8560021

>  <BCUT_SLOGP_1>
-0.47321972

>  <BCUT_SLOGP_2>
0.72111589

>  <BCUT_SLOGP_3>
2.5962684

>  <BCUT_SMR_0>
-2.4539642

>  <BCUT_SMR_1>
-0.41341671

>  <BCUT_SMR_2>
0.76842135

>  <BCUT_SMR_3>
2.9368963

>  <bpol>
30.109726

>  <b_1rotN>
3

>  <b_1rotR>
0.12

>  <b_ar>
12

>  <b_count>
43

>  <b_double>
0

>  <b_heavy>
25

>  <b_max1len>
2

>  <b_rotN>
3

>  <b_rotR>
0.12

>  <b_single>
31

>  <b_triple>
0

>  <chi0>
14.77781

>  <chi0v>
12.312094

>  <chi0v_C>
9.7067423

>  <chi0_C>
10.794683

>  <chi1>
10.882143

>  <chi1v>
7.5122094

>  <chi1v_C>
3.7582538

>  <chi1_C>
4.8745747

>  <chiral>
0

>  <chiral_u>
0

>  <density>
0.74288571

>  <diameter>
13

>  <FCharge>
0

>  <GCUT_PEOE_0>
-0.84655648

>  <GCUT_PEOE_1>
-0.37995851

>  <GCUT_PEOE_2>
0.044620015

>  <GCUT_PEOE_3>
2.6278698

>  <GCUT_SLOGP_0>
-0.98699933

>  <GCUT_SLOGP_1>
-0.39135391

>  <GCUT_SLOGP_2>
0.14628884

>  <GCUT_SLOGP_3>
2.6698945

>  <GCUT_SMR_0>
-0.5107913

>  <GCUT_SMR_1>
-0.18513359

>  <GCUT_SMR_2>
0.16798857

>  <GCUT_SMR_3>
2.8905995

>  <Kier1>
15.5232

>  <Kier2>
7.2664361

>  <Kier3>
3.7530863

>  <KierA1>
11.896145

>  <KierA2>
5.4926577

>  <KierA3>
2.8087704

>  <KierFlex>
2.9700661

>  <lip_acc>
6

>  <lip_don>
0

>  <lip_druglike>
1

>  <lip_violation>
0

>  <logP(o/w)>
0.82999998

>  <logS>
-2.5866201

>  <mr>
8.2821436

>  <mutagenic>
0

>  <nmol>
1

>  <opr_brigid>
22

>  <opr_leadlike>
1

>  <opr_nring>
4

>  <opr_nrot>
5

>  <opr_violation>
0

>  <PC+>
0

>  <PC->
0

>  <PEOE_PC+>
1.7815646

>  <PEOE_PC->
-1.7815646

>  <PEOE_RPC+>
0.11466221

>  <PEOE_RPC->
0.1768398

>  <PEOE_VSA+0>
142.10732

>  <PEOE_VSA+1>
34.123089

>  <PEOE_VSA+2>
16.917038

>  <PEOE_VSA+3>
21.201273

>  <PEOE_VSA+4>
15.681574

>  <PEOE_VSA+5>
0

>  <PEOE_VSA+6>
0

>  <PEOE_VSA-0>
38.973251

>  <PEOE_VSA-1>
12.254904

>  <PEOE_VSA-2>
0

>  <PEOE_VSA-3>
0

>  <PEOE_VSA-4>
11.365152

>  <PEOE_VSA-5>
0

>  <PEOE_VSA-6>
5.0075121

>  <PEOE_VSA_FHYD>
0.8923021

>  <PEOE_VSA_FNEG>
0.22712955

>  <PEOE_VSA_FPNEG>
0.055009924

>  <PEOE_VSA_FPOL>
0.10769787

>  <PEOE_VSA_FPOS>
0.77287042

>  <PEOE_VSA_FPPOS>
0.052687954

>  <PEOE_VSA_HYD>
265.57687

>  <PEOE_VSA_NEG>
67.600822

>  <PEOE_VSA_PNEG>
16.372663

>  <PEOE_VSA_POL>
32.054237

>  <PEOE_VSA_POS>
230.03029

>  <PEOE_VSA_PPOS>
15.681574

>  <petitjean>
0.46153846

>  <petitjeanSC>
0.85714287

>  <Q_PC+>
0

>  <Q_PC->
0

>  <Q_RPC+>
0

>  <Q_RPC->
0

>  <Q_VSA_FHYD>
1

>  <Q_VSA_FNEG>
0

>  <Q_VSA_FPNEG>
0

>  <Q_VSA_FPOL>
0

>  <Q_VSA_FPOS>
1

>  <Q_VSA_FPPOS>
0

>  <Q_VSA_HYD>
297.6311

>  <Q_VSA_NEG>
0

>  <Q_VSA_PNEG>
0

>  <Q_VSA_POL>
0

>  <Q_VSA_POS>
297.6311

>  <Q_VSA_PPOS>
0

>  <radius>
7

>  <reactive>
0

>  <rings>
4

>  <RPC+>
0

>  <RPC->
0

>  <rsynth>
1

>  <SlogP>
1.7939

>  <SlogP_VSA0>
25.12409

>  <SlogP_VSA1>
36.695374

>  <SlogP_VSA2>
0

>  <SlogP_VSA3>
96.742424

>  <SlogP_VSA4>
3.185575

>  <SlogP_VSA5>
0

>  <SlogP_VSA6>
0

>  <SlogP_VSA7>
105.00145

>  <SlogP_VSA8>
0

>  <SlogP_VSA9>
30.825527

>  <SMR>
8.2292004

>  <SMR_VSA0>
0

>  <SMR_VSA1>
58.695148

>  <SMR_VSA2>
3.1243138

>  <SMR_VSA3>
13.672431

>  <SMR_VSA4>
1.8990928

>  <SMR_VSA5>
123.44103

>  <SMR_VSA6>
96.742424

>  <SMR_VSA7>
0

>  <TPSA>
50.720001

>  <VAdjEq>
0.47938794

>  <VAdjMa>
5.643856

>  <VDistEq>
3.490237

>  <VDistMa>
8.5717096

>  <vdw_area>
297.6311

>  <vdw_vol>
401.60416

>  <vsa_acc>
16.372663

>  <vsa_acid>
0

>  <vsa_base>
0

>  <vsa_don>
0

>  <vsa_hyd>
224.4561

>  <vsa_other>
43.990028

>  <vsa_pol>
16.372663

>  <Weight>
298.34601

>  <weinerPath>
1194

>  <weinerPol>
31

>  <zagreb>
118

$$$$