ClCCN(Cc1ccccc1)C(COc1ccccc1)C
  MOE2013           2D

 21 22  0  0  1  0  0  0  0  0999 V2000
    0.0000    0.0000    0.0000 Cl  0  0  0  0  0  0  0  0  0  0  0  0
    0.7540    1.2970    0.0000 C   0  0  0  0  0  0  0  0  0  0  0  0
    0.0080    2.5980    0.0000 C   0  0  0  0  0  0  0  0  0  0  0  0
    0.7630    3.8950    0.0000 N   0  0  3  0  0  0  0  0  0  0  0  0
    0.0170    5.1960    0.0000 C   0  0  0  0  0  0  0  0  0  0  0  0
   -1.4830    5.2010    0.0000 C   0  0  0  0  0  0  0  0  0  0  0  0
   -2.2290    6.5020    0.0000 C   0  0  0  0  0  0  0  0  0  0  0  0
   -3.7290    6.5070    0.0000 C   0  0  0  0  0  0  0  0  0  0  0  0
   -4.4830    5.2110    0.0000 C   0  0  0  0  0  0  0  0  0  0  0  0
   -3.7370    3.9090    0.0000 C   0  0  0  0  0  0  0  0  0  0  0  0
   -2.2370    3.9040    0.0000 C   0  0  0  0  0  0  0  0  0  0  0  0
    2.2630    3.8900    0.0000 C   0  0  3  0  0  0  0  0  0  0  0  0
    3.0170    5.1860    0.0000 C   0  0  0  0  0  0  0  0  0  0  0  0
    4.5170    5.1820    0.0000 O   0  0  0  0  0  0  0  0  0  0  0  0
    5.2710    6.4780    0.0000 C   0  0  0  0  0  0  0  0  0  0  0  0
    6.7710    6.4730    0.0000 C   0  0  0  0  0  0  0  0  0  0  0  0
    7.5250    7.7700    0.0000 C   0  0  0  0  0  0  0  0  0  0  0  0
    6.7790    9.0710    0.0000 C   0  0  0  0  0  0  0  0  0  0  0  0
    5.2790    9.0760    0.0000 C   0  0  0  0  0  0  0  0  0  0  0  0
    4.5250    7.7800    0.0000 C   0  0  0  0  0  0  0  0  0  0  0  0
    3.0080    2.5880    0.0000 C   0  0  0  0  0  0  0  0  0  0  0  0
  1  2  1  0  0  0  0
  2  3  1  0  0  0  0
  3  4  1  0  0  0  0
  4  5  1  0  0  0  0
  4 12  1  0  0  0  0
  5  6  1  0  0  0  0
  6  7  1  0  0  0  0
  6 11  2  0  0  0  0
  7  8  2  0  0  0  0
  8  9  1  0  0  0  0
  9 10  2  0  0  0  0
 10 11  1  0  0  0  0
 12 13  1  0  0  0  0
 12 21  1  0  0  0  0
 13 14  1  0  0  0  0
 14 15  1  0  0  0  0
 15 16  1  0  0  0  0
 15 20  2  0  0  0  0
 16 17  2  0  0  0  0
 17 18  1  0  0  0  0
 18 19  2  0  0  0  0
 19 20  1  0  0  0  0
M  END
>  <Index>
852

>  <ID>
HT1654

>  <class>
0

>  <apol>
50.431446

>  <ast_fraglike>
0

>  <ast_fraglike_ext>
0

>  <ast_violation>
2

>  <ast_violation_ext>
3

>  <a_acc>
2

>  <a_acid>
0

>  <a_aro>
12

>  <a_base>
0

>  <a_count>
43

>  <a_don>
0

>  <a_donacc>
2

>  <a_heavy>
21

>  <a_hyd>
19

>  <a_IC>
60.163239

>  <a_ICM>
1.3991451

>  <a_nB>
0

>  <a_nBr>
0

>  <a_nC>
18

>  <a_nCl>
1

>  <a_nF>
0

>  <a_nH>
22

>  <a_nI>
0

>  <a_nN>
1

>  <a_nO>
1

>  <a_nP>
0

>  <a_nS>
0

>  <balabanJ>
1.7263747

>  <BCUT_PEOE_0>
-2.687767

>  <BCUT_PEOE_1>
-0.60168147

>  <BCUT_PEOE_2>
0.62156677

>  <BCUT_PEOE_3>
2.6176796

>  <BCUT_SLOGP_0>
-2.7574139

>  <BCUT_SLOGP_1>
-0.527255

>  <BCUT_SLOGP_2>
0.73740053

>  <BCUT_SLOGP_3>
2.5925798

>  <BCUT_SMR_0>
-2.4163969

>  <BCUT_SMR_1>
-0.43286866

>  <BCUT_SMR_2>
0.78632885

>  <BCUT_SMR_3>
2.8812621

>  <bpol>
28.366554

>  <b_1rotN>
8

>  <b_1rotR>
0.36363637

>  <b_ar>
12

>  <b_count>
44

>  <b_double>
0

>  <b_heavy>
22

>  <b_max1len>
6

>  <b_rotN>
8

>  <b_rotR>
0.36363637

>  <b_single>
32

>  <b_triple>
0

>  <chi0>
14.916003

>  <chi0v>
13.168635

>  <chi0v_C>
11.17928

>  <chi0_C>
12.631546

>  <chi1>
10.292025

>  <chi1v>
7.8457565

>  <chi1v_C>
5.6605191

>  <chi1_C>
7.5268402

>  <chiral>
1

>  <chiral_u>
1

>  <density>
0.69856441

>  <diameter>
12

>  <FCharge>
0

>  <GCUT_PEOE_0>
-0.84346581

>  <GCUT_PEOE_1>
-0.38259754

>  <GCUT_PEOE_2>
0.06097883

>  <GCUT_PEOE_3>
2.6041074

>  <GCUT_SLOGP_0>
-0.94881523

>  <GCUT_SLOGP_1>
-0.26386139

>  <GCUT_SLOGP_2>
0.16445385

>  <GCUT_SLOGP_3>
2.6747944

>  <GCUT_SMR_0>
-0.52145547

>  <GCUT_SMR_1>
-0.20907022

>  <GCUT_SMR_2>
0.19305076

>  <GCUT_SMR_3>
2.8638468

>  <Kier1>
17.355371

>  <Kier2>
9.9039783

>  <Kier3>
6.328125

>  <KierA1>
14.677504

>  <KierA2>
8.3012953

>  <KierA3>
5.2677965

>  <KierFlex>
5.8020139

>  <lip_acc>
2

>  <lip_don>
0

>  <lip_druglike>
1

>  <lip_violation>
0

>  <logP(o/w)>
4.5430002

>  <logS>
-4.1935401

>  <mr>
9.0529137

>  <mutagenic>
1

>  <nmol>
1

>  <opr_brigid>
12

>  <opr_leadlike>
1

>  <opr_nring>
2

>  <opr_nrot>
8

>  <opr_violation>
0

>  <PC+>
0

>  <PC->
0

>  <PEOE_PC+>
1.3830681

>  <PEOE_PC->
-1.3830681

>  <PEOE_RPC+>
0.055125073

>  <PEOE_RPC->
0.24811591

>  <PEOE_VSA+0>
83.196991

>  <PEOE_VSA+1>
74.594444

>  <PEOE_VSA+2>
0

>  <PEOE_VSA+3>
0

>  <PEOE_VSA+4>
0

>  <PEOE_VSA+5>
0

>  <PEOE_VSA+6>
0

>  <PEOE_VSA-0>
45.466026

>  <PEOE_VSA-1>
98.03923

>  <PEOE_VSA-2>
29.581947

>  <PEOE_VSA-3>
0

>  <PEOE_VSA-4>
0

>  <PEOE_VSA-5>
0

>  <PEOE_VSA-6>
2.503756

>  <PEOE_VSA_FHYD>
0.99248981

>  <PEOE_VSA_FNEG>
0.52669537

>  <PEOE_VSA_FPNEG>
0.0075101629

>  <PEOE_VSA_FPOL>
0.0075101629

>  <PEOE_VSA_FPOS>
0.47330463

>  <PEOE_VSA_FPPOS>
0

>  <PEOE_VSA_HYD>
330.87863

>  <PEOE_VSA_NEG>
175.59096

>  <PEOE_VSA_PNEG>
2.503756

>  <PEOE_VSA_POL>
2.503756

>  <PEOE_VSA_POS>
157.79143

>  <PEOE_VSA_PPOS>
0

>  <petitjean>
0.5

>  <petitjeanSC>
1

>  <Q_PC+>
0

>  <Q_PC->
0

>  <Q_RPC+>
0

>  <Q_RPC->
0

>  <Q_VSA_FHYD>
1

>  <Q_VSA_FNEG>
0

>  <Q_VSA_FPNEG>
0

>  <Q_VSA_FPOL>
0

>  <Q_VSA_FPOS>
1

>  <Q_VSA_FPPOS>
0

>  <Q_VSA_HYD>
333.38239

>  <Q_VSA_NEG>
0

>  <Q_VSA_PNEG>
0

>  <Q_VSA_POL>
0

>  <Q_VSA_POS>
333.38239

>  <Q_VSA_PPOS>
0

>  <radius>
6

>  <reactive>
1

>  <rings>
2

>  <RPC+>
0

>  <RPC->
0

>  <rsynth>
1

>  <SlogP>
4.4612999

>  <SlogP_VSA0>
10.999887

>  <SlogP_VSA1>
3.1243138

>  <SlogP_VSA2>
3.9819686

>  <SlogP_VSA3>
58.549274

>  <SlogP_VSA4>
3.185575

>  <SlogP_VSA5>
0

>  <SlogP_VSA6>
0

>  <SlogP_VSA7>
176.43184

>  <SlogP_VSA8>
0

>  <SlogP_VSA9>
96.157661

>  <SMR>
8.9175997

>  <SMR_VSA0>
0

>  <SMR_VSA1>
14.124202

>  <SMR_VSA2>
0

>  <SMR_VSA3>
12.410972

>  <SMR_VSA4>
0

>  <SMR_VSA5>
194.87141

>  <SMR_VSA6>
58.549274

>  <SMR_VSA7>
72.474655

>  <TPSA>
12.47

>  <VAdjEq>
0.46827638

>  <VAdjMa>
5.4594316

>  <VDistEq>
3.3620934

>  <VDistMa>
8.481698

>  <vdw_area>
333.38239

>  <vdw_vol>
434.93912

>  <vsa_acc>
2.503756

>  <vsa_acid>
0

>  <vsa_base>
0

>  <vsa_don>
0

>  <vsa_hyd>
315.21915

>  <vsa_other>
0

>  <vsa_pol>
2.503756

>  <Weight>
303.83301

>  <weinerPath>
1046

>  <weinerPol>
26

>  <zagreb>
98

$$$$