O(CCCC)c1cc(ccc1N)C(OCCN(CC)CC)=O
  MOE2013           2D

 22 22  0  0  0  0  0  0  0  0999 V2000
    0.0000    0.0000    0.0000 O   0  0  0  0  0  0  0  0  0  0  0  0
    0.0110   -1.5000    0.0000 C   0  0  0  0  0  0  0  0  0  0  0  0
    1.3150   -2.2410    0.0000 C   0  0  0  0  0  0  0  0  0  0  0  0
    1.3260   -3.7410    0.0000 C   0  0  0  0  0  0  0  0  0  0  0  0
    2.6300   -4.4810    0.0000 C   0  0  0  0  0  0  0  0  0  0  0  0
   -1.3040    0.7410    0.0000 C   0  0  0  0  0  0  0  0  0  0  0  0
   -2.5980   -0.0190    0.0000 C   0  0  0  0  0  0  0  0  0  0  0  0
   -3.9020    0.7220    0.0000 C   0  0  0  0  0  0  0  0  0  0  0  0
   -3.9130    2.2220    0.0000 C   0  0  0  0  0  0  0  0  0  0  0  0
   -2.6190    2.9810    0.0000 C   0  0  0  0  0  0  0  0  0  0  0  0
   -1.3150    2.2410    0.0000 C   0  0  0  0  0  0  0  0  0  0  0  0
   -0.0210    3.0000    0.0000 N   0  0  0  0  0  0  0  0  0  0  0  0
   -5.1960   -0.0370    0.0000 C   0  0  0  0  0  0  0  0  0  0  0  0
   -6.5000    0.7040    0.0000 O   0  0  0  0  0  0  0  0  0  0  0  0
   -7.7940   -0.0560    0.0000 C   0  0  0  0  0  0  0  0  0  0  0  0
   -9.0980    0.6850    0.0000 C   0  0  0  0  0  0  0  0  0  0  0  0
  -10.3920   -0.0740    0.0000 N   0  0  0  0  0  0  0  0  0  0  0  0
  -10.3810   -1.5740    0.0000 C   0  0  0  0  0  0  0  0  0  0  0  0
  -11.6750   -2.3330    0.0000 C   0  0  0  0  0  0  0  0  0  0  0  0
  -11.6960    0.6670    0.0000 C   0  0  0  0  0  0  0  0  0  0  0  0
  -11.7070    2.1670    0.0000 C   0  0  0  0  0  0  0  0  0  0  0  0
   -5.1850   -1.5370    0.0000 O   0  0  0  0  0  0  0  0  0  0  0  0
  1  2  1  0  0  0  0
  1  6  1  0  0  0  0
  2  3  1  0  0  0  0
  3  4  1  0  0  0  0
  4  5  1  0  0  0  0
  6  7  1  0  0  0  0
  6 11  2  0  0  0  0
  7  8  2  0  0  0  0
  8  9  1  0  0  0  0
  8 13  1  0  0  0  0
  9 10  2  0  0  0  0
 10 11  1  0  0  0  0
 11 12  1  0  0  0  0
 13 14  1  0  0  0  0
 13 22  2  0  0  0  0
 14 15  1  0  0  0  0
 15 16  1  0  0  0  0
 16 17  1  0  0  0  0
 17 18  1  0  0  0  0
 17 20  1  0  0  0  0
 18 19  1  0  0  0  0
 20 21  1  0  0  0  0
M  END
>  <Index>
802

>  <ID>
HT1564

>  <class>
0

>  <apol>
53.196205

>  <ast_fraglike>
0

>  <ast_fraglike_ext>
0

>  <ast_violation>
1

>  <ast_violation_ext>
2

>  <a_acc>
3

>  <a_acid>
0

>  <a_aro>
6

>  <a_base>
0

>  <a_count>
50

>  <a_don>
1

>  <a_donacc>
4

>  <a_heavy>
22

>  <a_hyd>
16

>  <a_IC>
71.345116

>  <a_ICM>
1.4269023

>  <a_nB>
0

>  <a_nBr>
0

>  <a_nC>
17

>  <a_nCl>
0

>  <a_nF>
0

>  <a_nH>
28

>  <a_nI>
0

>  <a_nN>
2

>  <a_nO>
3

>  <a_nP>
0

>  <a_nS>
0

>  <balabanJ>
2.3088562

>  <BCUT_PEOE_0>
-2.6683731

>  <BCUT_PEOE_1>
-0.1826648

>  <BCUT_PEOE_2>
0.10195313

>  <BCUT_PEOE_3>
2.5712092

>  <BCUT_SLOGP_0>
-2.7461212

>  <BCUT_SLOGP_1>
-0.020916577

>  <BCUT_SLOGP_2>
0.19351029

>  <BCUT_SLOGP_3>
2.6387358

>  <BCUT_SMR_0>
-2.3931136

>  <BCUT_SMR_1>
0.069003418

>  <BCUT_SMR_2>
0.19471422

>  <BCUT_SMR_3>
2.8358271

>  <bpol>
36.719795

>  <b_1rotN>
10

>  <b_1rotR>
0.45454547

>  <b_ar>
6

>  <b_count>
50

>  <b_double>
1

>  <b_heavy>
22

>  <b_max1len>
6

>  <b_rotN>
11

>  <b_rotR>
0.5

>  <b_single>
43

>  <b_triple>
0

>  <chi0>
16.372032

>  <chi0v>
13.931107

>  <chi0v_C>
11.681798

>  <chi0_C>
12.380469

>  <chi1>
10.616922

>  <chi1v>
8.0364351

>  <chi1v_C>
5.609354

>  <chi1_C>
6.42098

>  <chiral>
0

>  <chiral_u>
0

>  <density>
0.68134451

>  <diameter>
14

>  <FCharge>
0

>  <GCUT_PEOE_0>
-0.85589623

>  <GCUT_PEOE_1>
-0.35405311

>  <GCUT_PEOE_2>
-0.058046874

>  <GCUT_PEOE_3>
2.5297639

>  <GCUT_SLOGP_0>
-1.3342398

>  <GCUT_SLOGP_1>
-0.25715101

>  <GCUT_SLOGP_2>
0.030952537

>  <GCUT_SLOGP_3>
2.5858498

>  <GCUT_SMR_0>
-0.52837324

>  <GCUT_SMR_1>
-0.11050389

>  <GCUT_SMR_2>
-0.03084862

>  <GCUT_SMR_3>
2.7786384

>  <Kier1>
20.045454

>  <Kier2>
11.522634

>  <Kier3>
7.421875

>  <KierA1>
16.722721

>  <KierA2>
9.524498

>  <KierA3>
6.0939789

>  <KierFlex>
7.2397966

>  <lip_acc>
5

>  <lip_don>
2

>  <lip_druglike>
1

>  <lip_violation>
0

>  <logP(o/w)>
3.122

>  <logS>
-3.1343801

>  <mr>
8.9286814

>  <mutagenic>
1

>  <nmol>
1

>  <opr_brigid>
6

>  <opr_leadlike>
1

>  <opr_nring>
1

>  <opr_nrot>
10

>  <opr_violation>
0

>  <PC+>
0

>  <PC->
0

>  <PEOE_PC+>
1.8794274

>  <PEOE_PC->
-1.8794274

>  <PEOE_RPC+>
0.15639354

>  <PEOE_RPC->
0.18256725

>  <PEOE_VSA+0>
103.14275

>  <PEOE_VSA+1>
68.218811

>  <PEOE_VSA+2>
17.238026

>  <PEOE_VSA+3>
0

>  <PEOE_VSA+4>
0

>  <PEOE_VSA+5>
14.708499

>  <PEOE_VSA+6>
0

>  <PEOE_VSA-0>
71.850677

>  <PEOE_VSA-1>
64.944344

>  <PEOE_VSA-2>
0

>  <PEOE_VSA-3>
0

>  <PEOE_VSA-4>
0

>  <PEOE_VSA-5>
13.566921

>  <PEOE_VSA-6>
11.658631

>  <PEOE_VSA_FHYD>
0.89069009

>  <PEOE_VSA_FNEG>
0.44349265

>  <PEOE_VSA_FPNEG>
0.069048926

>  <PEOE_VSA_FPOL>
0.10930993

>  <PEOE_VSA_FPOS>
0.55650735

>  <PEOE_VSA_FPPOS>
0.040261008

>  <PEOE_VSA_HYD>
325.39459

>  <PEOE_VSA_NEG>
162.02057

>  <PEOE_VSA_PNEG>
25.225552

>  <PEOE_VSA_POL>
39.934052

>  <PEOE_VSA_POS>
203.30809

>  <PEOE_VSA_PPOS>
14.708499

>  <petitjean>
0.5

>  <petitjeanSC>
1

>  <Q_PC+>
0

>  <Q_PC->
0

>  <Q_RPC+>
0

>  <Q_RPC->
0

>  <Q_VSA_FHYD>
1

>  <Q_VSA_FNEG>
0

>  <Q_VSA_FPNEG>
0

>  <Q_VSA_FPOL>
0

>  <Q_VSA_FPOS>
1

>  <Q_VSA_FPPOS>
0

>  <Q_VSA_HYD>
365.32864

>  <Q_VSA_NEG>
0

>  <Q_VSA_PNEG>
0

>  <Q_VSA_POL>
0

>  <Q_VSA_POS>
365.32864

>  <Q_VSA_PPOS>
0

>  <radius>
7

>  <reactive>
0

>  <rings>
1

>  <RPC+>
0

>  <RPC->
0

>  <rsynth>
0.5

>  <SlogP>
2.9463

>  <SlogP_VSA0>
43.897076

>  <SlogP_VSA1>
10.869778

>  <SlogP_VSA2>
10.999887

>  <SlogP_VSA3>
97.171249

>  <SlogP_VSA4>
27.047791

>  <SlogP_VSA5>
0

>  <SlogP_VSA6>
0

>  <SlogP_VSA7>
52.929554

>  <SlogP_VSA8>
37.736813

>  <SlogP_VSA9>
107.97822

>  <SMR>
8.9327898

>  <SMR_VSA0>
34.862103

>  <SMR_VSA1>
14.124202

>  <SMR_VSA2>
0

>  <SMR_VSA3>
8.4290028

>  <SMR_VSA4>
2.7567475

>  <SMR_VSA5>
123.56355

>  <SMR_VSA6>
104.91672

>  <SMR_VSA7>
99.978043

>  <TPSA>
64.790001

>  <VAdjEq>
0.43949699

>  <VAdjMa>
5.4594316

>  <VDistEq>
3.5649827

>  <VDistMa>
8.5950394

>  <vdw_area>
365.32864

>  <vdw_vol>
452.66675

>  <vsa_acc>
16.070677

>  <vsa_acid>
0

>  <vsa_base>
0

>  <vsa_don>
17.742489

>  <vsa_hyd>
289.6499

>  <vsa_other>
17.212255

>  <vsa_pol>
33.813168

>  <Weight>
308.422

>  <weinerPath>
1263

>  <weinerPol>
29

>  <zagreb>
98

$$$$