O(C(=O)NC)c1cc2c(N([C@H]3N(CC[C@@]23C)C)C)cc1
  MOE2013           2D

 20 22  0  0  1  0  0  0  0  0999 V2000
    0.0000    0.0000    0.0000 O   0  0  0  0  0  0  0  0  0  0  0  0
    1.3010   -0.7460    0.0000 C   0  0  0  0  0  0  0  0  0  0  0  0
    1.3060   -2.2460    0.0000 O   0  0  0  0  0  0  0  0  0  0  0  0
    2.5980    0.0080    0.0000 N   0  0  0  0  0  0  0  0  0  0  0  0
    3.8990   -0.7380    0.0000 C   0  0  0  0  0  0  0  0  0  0  0  0
   -1.2970   -0.7540    0.0000 C   0  0  0  0  0  0  0  0  0  0  0  0
   -2.5980   -0.0080    0.0000 C   0  0  0  0  0  0  0  0  0  0  0  0
   -3.8950   -0.7620    0.0000 C   0  0  0  0  0  0  0  0  0  0  0  0
   -3.8900   -2.2620    0.0000 C   0  0  0  0  0  0  0  0  0  0  0  0
   -5.3150   -2.7300    0.0000 N   0  0  3  0  0  0  0  0  0  0  0  0
   -6.2010   -1.5190    0.0000 C   0  0  1  0  0  0  0  0  0  0  0  0
   -7.6290   -1.0600    0.0000 N   0  0  3  0  0  0  0  0  0  0  0  0
   -7.6330    0.4400    0.0000 C   0  0  0  0  0  0  0  0  0  0  0  0
   -6.2080    0.9080    0.0000 C   0  0  0  0  0  0  0  0  0  0  0  0
   -5.3230   -0.3030    0.0000 C   0  0  1  0  0  0  0  0  0  0  0  0
   -4.4660    0.9290    0.0000 C   0  0  0  0  0  0  0  0  0  0  0  0
   -8.8400   -1.9450    0.0000 C   0  0  0  0  0  0  0  0  0  0  0  0
   -5.7750   -4.1580    0.0000 C   0  0  0  0  0  0  0  0  0  0  0  0
   -2.5890   -3.0080    0.0000 C   0  0  0  0  0  0  0  0  0  0  0  0
   -1.2920   -2.2540    0.0000 C   0  0  0  0  0  0  0  0  0  0  0  0
  1  2  1  0  0  0  0
  1  6  1  0  0  0  0
  2  3  2  0  0  0  0
  2  4  1  0  0  0  0
  4  5  1  0  0  0  0
  6  7  1  0  0  0  0
  6 20  2  0  0  0  0
  7  8  2  0  0  0  0
  8  9  1  0  0  0  0
  8 15  1  0  0  0  0
  9 10  1  0  0  0  0
  9 19  2  0  0  0  0
 10 18  1  0  0  0  0
 11 10  1  1  0  0  0
 11 12  1  0  0  0  0
 11 15  1  0  0  0  0
 12 13  1  0  0  0  0
 12 17  1  0  0  0  0
 13 14  1  0  0  0  0
 14 15  1  0  0  0  0
 15 16  1  6  0  0  0
 19 20  1  0  0  0  0
M  END
>  <Index>
859

>  <ID>
HT1666

>  <class>
0

>  <apol>
45.306652

>  <ast_fraglike>
1

>  <ast_fraglike_ext>
1

>  <ast_violation>
0

>  <ast_violation_ext>
0

>  <a_acc>
2

>  <a_acid>
0

>  <a_aro>
6

>  <a_base>
0

>  <a_count>
41

>  <a_don>
1

>  <a_donacc>
3

>  <a_heavy>
20

>  <a_hyd>
13

>  <a_IC>
62.062721

>  <a_ICM>
1.5137249

>  <a_nB>
0

>  <a_nBr>
0

>  <a_nC>
15

>  <a_nCl>
0

>  <a_nF>
0

>  <a_nH>
21

>  <a_nI>
0

>  <a_nN>
3

>  <a_nO>
2

>  <a_nP>
0

>  <a_nS>
0

>  <balabanJ>
1.753095

>  <BCUT_PEOE_0>
-2.6119509

>  <BCUT_PEOE_1>
-0.37809622

>  <BCUT_PEOE_2>
0.35921034

>  <BCUT_PEOE_3>
2.8099303

>  <BCUT_SLOGP_0>
-2.7267303

>  <BCUT_SLOGP_1>
-0.23798621

>  <BCUT_SLOGP_2>
0.53700781

>  <BCUT_SLOGP_3>
2.7932613

>  <BCUT_SMR_0>
-2.3480465

>  <BCUT_SMR_1>
-0.14234585

>  <BCUT_SMR_2>
0.58273453

>  <BCUT_SMR_3>
3.0871067

>  <bpol>
30.451347

>  <b_1rotN>
1

>  <b_1rotR>
0.045454547

>  <b_ar>
6

>  <b_count>
43

>  <b_double>
1

>  <b_heavy>
22

>  <b_max1len>
3

>  <b_rotN>
3

>  <b_rotR>
0.13636364

>  <b_single>
36

>  <b_triple>
0

>  <chi0>
14.491199

>  <chi0v>
12.434539

>  <chi0v_C>
10.223615

>  <chi0_C>
10.922285

>  <chi1>
9.4693813

>  <chi1v>
6.9432945

>  <chi1v_C>
3.6302624

>  <chi1_C>
4.3972301

>  <chiral>
2

>  <chiral_u>
0

>  <density>
0.71543503

>  <diameter>
10

>  <FCharge>
0

>  <GCUT_PEOE_0>
-0.85374212

>  <GCUT_PEOE_1>
-0.399975

>  <GCUT_PEOE_2>
-0.087634049

>  <GCUT_PEOE_3>
2.8368411

>  <GCUT_SLOGP_0>
-1.1624569

>  <GCUT_SLOGP_1>
-0.29052898

>  <GCUT_SLOGP_2>
0.069564424

>  <GCUT_SLOGP_3>
2.8817754

>  <GCUT_SMR_0>
-0.52405947

>  <GCUT_SMR_1>
-0.16654339

>  <GCUT_SMR_2>
0.088896051

>  <GCUT_SMR_3>
3.1029758

>  <Kier1>
14.917356

>  <Kier2>
5.3252597

>  <Kier3>
2.2940443

>  <KierA1>
11.86419

>  <KierA2>
4.1805182

>  <KierA3>
1.7837925

>  <KierFlex>
2.479923

>  <lip_acc>
5

>  <lip_don>
1

>  <lip_druglike>
1

>  <lip_violation>
0

>  <logP(o/w)>
1.719

>  <logS>
-1.8891

>  <mr>
7.6524911

>  <mutagenic>
0

>  <nmol>
1

>  <opr_brigid>
14

>  <opr_leadlike>
1

>  <opr_nring>
3

>  <opr_nrot>
1

>  <opr_violation>
0

>  <PC+>
0

>  <PC->
0

>  <PEOE_PC+>
1.5953536

>  <PEOE_PC->
-1.5953536

>  <PEOE_RPC+>
0.22908099

>  <PEOE_RPC->
0.20982391

>  <PEOE_VSA+0>
111.37674

>  <PEOE_VSA+1>
33.157036

>  <PEOE_VSA+2>
0

>  <PEOE_VSA+3>
8.6190128

>  <PEOE_VSA+4>
0

>  <PEOE_VSA+5>
0

>  <PEOE_VSA+6>
19.199511

>  <PEOE_VSA-0>
94.151939

>  <PEOE_VSA-1>
18.747677

>  <PEOE_VSA-2>
0

>  <PEOE_VSA-3>
0

>  <PEOE_VSA-4>
13.566921

>  <PEOE_VSA-5>
2.503756

>  <PEOE_VSA-6>
0.13689101

>  <PEOE_VSA_FHYD>
0.8825478

>  <PEOE_VSA_FNEG>
0.42827377

>  <PEOE_VSA_FPNEG>
0.053763669

>  <PEOE_VSA_FPOL>
0.1174522

>  <PEOE_VSA_FPOS>
0.57172626

>  <PEOE_VSA_FPPOS>
0.063688524

>  <PEOE_VSA_HYD>
266.0524

>  <PEOE_VSA_NEG>
129.10719

>  <PEOE_VSA_PNEG>
16.207567

>  <PEOE_VSA_POL>
35.407078

>  <PEOE_VSA_POS>
172.35229

>  <PEOE_VSA_PPOS>
19.199511

>  <petitjean>
0.5

>  <petitjeanSC>
1

>  <Q_PC+>
0

>  <Q_PC->
0

>  <Q_RPC+>
0

>  <Q_RPC->
0

>  <Q_VSA_FHYD>
1

>  <Q_VSA_FNEG>
0

>  <Q_VSA_FPNEG>
0

>  <Q_VSA_FPOL>
0

>  <Q_VSA_FPOS>
1

>  <Q_VSA_FPPOS>
0

>  <Q_VSA_HYD>
301.4595

>  <Q_VSA_NEG>
0

>  <Q_VSA_PNEG>
0

>  <Q_VSA_POL>
0

>  <Q_VSA_POS>
301.4595

>  <Q_VSA_PPOS>
0

>  <radius>
5

>  <reactive>
0

>  <rings>
3

>  <RPC+>
0

>  <RPC->
0

>  <rsynth>
1

>  <SlogP>
1.7739

>  <SlogP_VSA0>
32.134953

>  <SlogP_VSA1>
10.44095

>  <SlogP_VSA2>
3.5531414

>  <SlogP_VSA3>
18.439579

>  <SlogP_VSA4>
3.185575

>  <SlogP_VSA5>
98.691559

>  <SlogP_VSA6>
0

>  <SlogP_VSA7>
52.929554

>  <SlogP_VSA8>
18.868406

>  <SlogP_VSA9>
65.188408

>  <SMR>
7.8315701

>  <SMR_VSA0>
23.862217

>  <SMR_VSA1>
14.124202

>  <SMR_VSA2>
21.135065

>  <SMR_VSA3>
11.982144

>  <SMR_VSA4>
2.7567475

>  <SMR_VSA5>
71.797958

>  <SMR_VSA6>
25.756214

>  <SMR_VSA7>
132.01758

>  <TPSA>
44.810001

>  <VAdjEq>
0.49991596

>  <VAdjMa>
5.4594316

>  <VDistEq>
3.0245383

>  <VDistMa>
8.3512745

>  <vdw_area>
301.4595

>  <vdw_vol>
384.8735

>  <vsa_acc>
13.566921

>  <vsa_acid>
0

>  <vsa_base>
0

>  <vsa_don>
5.6825762

>  <vsa_hyd>
232.00693

>  <vsa_other>
32.893829

>  <vsa_pol>
19.249496

>  <Weight>
275.35199

>  <weinerPath>
760

>  <weinerPol>
36

>  <zagreb>
112

$$$$