Oc1ccc(nc1CO)C(O)CNC(C)(C)C
  MOE2013           2D

 17 17  0  0  1  0  0  0  0  0999 V2000
    0.0000    0.0000    0.0000 O   0  0  0  0  0  0  0  0  0  0  0  0
    1.5000   -0.0110    0.0000 C   0  0  0  0  0  0  0  0  0  0  0  0
    2.2400   -1.3160    0.0000 C   0  0  0  0  0  0  0  0  0  0  0  0
    3.7400   -1.3270    0.0000 C   0  0  0  0  0  0  0  0  0  0  0  0
    4.5000   -0.0330    0.0000 C   0  0  0  0  0  0  0  0  0  0  0  0
    3.7590    1.2710    0.0000 N   0  0  0  0  0  0  0  0  0  0  0  0
    2.2600    1.2820    0.0000 C   0  0  0  0  0  0  0  0  0  0  0  0
    1.5190    2.5870    0.0000 C   0  0  0  0  0  0  0  0  0  0  0  0
    2.2790    3.8800    0.0000 O   0  0  0  0  0  0  0  0  0  0  0  0
    6.0000   -0.0440    0.0000 C   0  0  3  0  0  0  0  0  0  0  0  0
    6.7590    1.2490    0.0000 O   0  0  0  0  0  0  0  0  0  0  0  0
    6.7400   -1.3490    0.0000 C   0  0  0  0  0  0  0  0  0  0  0  0
    8.2400   -1.3600    0.0000 N   0  0  0  0  0  0  0  0  0  0  0  0
    8.9810   -2.6640    0.0000 C   0  0  0  0  0  0  0  0  0  0  0  0
   10.2850   -1.9240    0.0000 C   0  0  0  0  0  0  0  0  0  0  0  0
    7.6760   -3.4050    0.0000 C   0  0  0  0  0  0  0  0  0  0  0  0
    9.7210   -3.9690    0.0000 C   0  0  0  0  0  0  0  0  0  0  0  0
  1  2  1  0  0  0  0
  2  3  1  0  0  0  0
  2  7  2  0  0  0  0
  3  4  2  0  0  0  0
  4  5  1  0  0  0  0
  5  6  2  0  0  0  0
  5 10  1  0  0  0  0
  6  7  1  0  0  0  0
  7  8  1  0  0  0  0
  8  9  1  0  0  0  0
 10 11  1  0  0  0  0
 10 12  1  0  0  0  0
 12 13  1  0  0  0  0
 13 14  1  0  0  0  0
 14 15  1  0  0  0  0
 14 16  1  0  0  0  0
 14 17  1  0  0  0  0
M  END
>  <Index>
869

>  <ID>
HT1689

>  <class>
0

>  <apol>
39.061859

>  <ast_fraglike>
0

>  <ast_fraglike_ext>
0

>  <ast_violation>
2

>  <ast_violation_ext>
3

>  <a_acc>
5

>  <a_acid>
0

>  <a_aro>
6

>  <a_base>
0

>  <a_count>
37

>  <a_don>
4

>  <a_donacc>
9

>  <a_heavy>
17

>  <a_hyd>
12

>  <a_IC>
56.536774

>  <a_ICM>
1.528021

>  <a_nB>
0

>  <a_nBr>
0

>  <a_nC>
12

>  <a_nCl>
0

>  <a_nF>
0

>  <a_nH>
20

>  <a_nI>
0

>  <a_nN>
2

>  <a_nO>
3

>  <a_nP>
0

>  <a_nS>
0

>  <balabanJ>
2.4028761

>  <BCUT_PEOE_0>
-2.7012851

>  <BCUT_PEOE_1>
-0.53769761

>  <BCUT_PEOE_2>
0.63791907

>  <BCUT_PEOE_3>
2.6281552

>  <BCUT_SLOGP_0>
-2.7887692

>  <BCUT_SLOGP_1>
-0.55725133

>  <BCUT_SLOGP_2>
0.52623796

>  <BCUT_SLOGP_3>
2.6276441

>  <BCUT_SMR_0>
-2.4325132

>  <BCUT_SMR_1>
-0.42842996

>  <BCUT_SMR_2>
0.731511

>  <BCUT_SMR_3>
2.8903229

>  <bpol>
23.844139

>  <b_1rotN>
4

>  <b_1rotR>
0.23529412

>  <b_ar>
6

>  <b_count>
37

>  <b_double>
0

>  <b_heavy>
17

>  <b_max1len>
7

>  <b_rotN>
5

>  <b_rotR>
0.29411766

>  <b_single>
31

>  <b_triple>
0

>  <chi0>
13.052042

>  <chi0v>
10.435119

>  <chi0v_C>
8.1462641

>  <chi0_C>
8.6378279

>  <chi1>
7.8315172

>  <chi1v>
5.5599608

>  <chi1v_C>
3.7111604

>  <chi1_C>
4.2996597

>  <chiral>
1

>  <chiral_u>
1

>  <density>
0.72238469

>  <diameter>
9

>  <FCharge>
0

>  <GCUT_PEOE_0>
-0.84399658

>  <GCUT_PEOE_1>
-0.35739031

>  <GCUT_PEOE_2>
0.11014783

>  <GCUT_PEOE_3>
2.5214505

>  <GCUT_SLOGP_0>
-1.1526436

>  <GCUT_SLOGP_1>
-0.31351241

>  <GCUT_SLOGP_2>
-0.0071602059

>  <GCUT_SLOGP_3>
2.5620582

>  <GCUT_SMR_0>
-0.52302337

>  <GCUT_SMR_1>
-0.2296346

>  <GCUT_SMR_2>
0.1788757

>  <GCUT_SMR_3>
2.7581408

>  <Kier1>
15.058824

>  <Kier2>
6.25

>  <Kier3>
5.0176001

>  <KierA1>
12.901025

>  <KierA2>
5.2990956

>  <KierA3>
4.2191267

>  <KierFlex>
4.0213981

>  <lip_acc>
5

>  <lip_don>
4

>  <lip_druglike>
1

>  <lip_violation>
0

>  <logP(o/w)>
0.182

>  <logS>
-0.36124

>  <mr>
6.5362406

>  <mutagenic>
0

>  <nmol>
1

>  <opr_brigid>
6

>  <opr_leadlike>
1

>  <opr_nring>
1

>  <opr_nrot>
5

>  <opr_violation>
0

>  <PC+>
0

>  <PC->
0

>  <PEOE_PC+>
1.894196

>  <PEOE_PC->
-1.894196

>  <PEOE_RPC+>
0.11476601

>  <PEOE_RPC->
0.20526491

>  <PEOE_VSA+0>
60.111572

>  <PEOE_VSA+1>
58.135845

>  <PEOE_VSA+2>
13.523942

>  <PEOE_VSA+3>
0

>  <PEOE_VSA+4>
30.972517

>  <PEOE_VSA+5>
0

>  <PEOE_VSA+6>
0

>  <PEOE_VSA-0>
80.752838

>  <PEOE_VSA-1>
0

>  <PEOE_VSA-2>
0

>  <PEOE_VSA-3>
0

>  <PEOE_VSA-4>
5.6825762

>  <PEOE_VSA-5>
0

>  <PEOE_VSA-6>
23.439512

>  <PEOE_VSA_FHYD>
0.77956545

>  <PEOE_VSA_FNEG>
0.40303504

>  <PEOE_VSA_FPNEG>
0.10682347

>  <PEOE_VSA_FPOL>
0.22043456

>  <PEOE_VSA_FPOS>
0.59696496

>  <PEOE_VSA_FPPOS>
0.11361109

>  <PEOE_VSA_HYD>
212.5242

>  <PEOE_VSA_NEG>
109.87493

>  <PEOE_VSA_PNEG>
29.122087

>  <PEOE_VSA_POL>
60.094604

>  <PEOE_VSA_POS>
162.74388

>  <PEOE_VSA_PPOS>
30.972517

>  <petitjean>
0.44444445

>  <petitjeanSC>
0.80000001

>  <Q_PC+>
0

>  <Q_PC->
0

>  <Q_RPC+>
0

>  <Q_RPC->
0

>  <Q_VSA_FHYD>
1

>  <Q_VSA_FNEG>
0

>  <Q_VSA_FPNEG>
0

>  <Q_VSA_FPOL>
0

>  <Q_VSA_FPOS>
1

>  <Q_VSA_FPPOS>
0

>  <Q_VSA_HYD>
272.6188

>  <Q_VSA_NEG>
0

>  <Q_VSA_PNEG>
0

>  <Q_VSA_POL>
0

>  <Q_VSA_POS>
272.6188

>  <Q_VSA_PPOS>
0

>  <radius>
5

>  <reactive>
0

>  <rings>
1

>  <RPC+>
0

>  <RPC->
0

>  <rsynth>
0.58823532

>  <SlogP>
1.0628999

>  <SlogP_VSA0>
94.166428

>  <SlogP_VSA1>
16.78553

>  <SlogP_VSA2>
0

>  <SlogP_VSA3>
18.439579

>  <SlogP_VSA4>
5.513495

>  <SlogP_VSA5>
0

>  <SlogP_VSA6>
0

>  <SlogP_VSA7>
35.286369

>  <SlogP_VSA8>
6.4686494

>  <SlogP_VSA9>
126.14773

>  <SMR>
6.48561

>  <SMR_VSA0>
0

>  <SMR_VSA1>
92.941208

>  <SMR_VSA2>
18.01075

>  <SMR_VSA3>
17.225573

>  <SMR_VSA4>
0

>  <SMR_VSA5>
56.212627

>  <SMR_VSA6>
18.439579

>  <SMR_VSA7>
99.978043

>  <TPSA>
85.610001

>  <VAdjEq>
0.52255934

>  <VAdjMa>
5.0874629

>  <VDistEq>
3.0564995

>  <VDistMa>
7.8599992

>  <vdw_area>
272.6188

>  <vdw_vol>
332.6524

>  <vsa_acc>
5.6825762

>  <vsa_acid>
0

>  <vsa_base>
0

>  <vsa_don>
0

>  <vsa_hyd>
192.51646

>  <vsa_other>
0

>  <vsa_pol>
52.065914

>  <Weight>
240.30299

>  <weinerPath>
560

>  <weinerPol>
22

>  <zagreb>
82

$$$$