O=C1C=C2CC[C@@H]3[C@@H]([C@]2(C=C1)C)[C@@H](O)C[C@]1([C@H]3CC[C@]1(OC(OCC)=O)C(=O)COC(=O)CC)C
  MOE2013           2D

 35 38  0  0  1  0  0  0  0  0999 V2000
    0.0000    0.0000    0.0000 O   0  0  0  0  0  0  0  0  0  0  0  0
   -1.5000   -0.0120    0.0000 C   0  0  0  0  0  0  0  0  0  0  0  0
   -2.2600    1.2810    0.0000 C   0  0  0  0  0  0  0  0  0  0  0  0
   -3.7600    1.2690    0.0000 C   0  0  0  0  0  0  0  0  0  0  0  0
   -4.5210    2.5620    0.0000 C   0  0  0  0  0  0  0  0  0  0  0  0
   -6.0210    2.5500    0.0000 C   0  0  0  0  0  0  0  0  0  0  0  0
   -6.7600    1.2450    0.0000 C   0  0  2  0  0  0  0  0  0  0  0  0
   -6.0000   -0.0480    0.0000 C   0  0  1  0  0  0  0  0  0  0  0  0
   -4.5000   -0.0360    0.0000 C   0  0  1  0  0  0  0  0  0  0  0  0
   -3.7390   -1.3290    0.0000 C   0  0  0  0  0  0  0  0  0  0  0  0
   -2.2400   -1.3170    0.0000 C   0  0  0  0  0  0  0  0  0  0  0  0
   -3.0010    0.0280    0.0000 C   0  0  0  0  0  0  0  0  0  0  0  0
   -6.7390   -1.3530    0.0000 C   0  0  1  0  0  0  0  0  0  0  0  0
   -5.9790   -2.6460    0.0000 O   0  0  0  0  0  0  0  0  0  0  0  0
   -8.2390   -1.3650    0.0000 C   0  0  0  0  0  0  0  0  0  0  0  0
   -9.0000   -0.0720    0.0000 C   0  0  1  0  0  0  0  0  0  0  0  0
   -8.2600    1.2330    0.0000 C   0  0  1  0  0  0  0  0  0  0  0  0
   -9.2730    2.3400    0.0000 C   0  0  0  0  0  0  0  0  0  0  0  0
  -10.6380    1.7190    0.0000 C   0  0  0  0  0  0  0  0  0  0  0  0
  -10.4690    0.2280    0.0000 C   0  0  1  0  0  0  0  0  0  0  0  0
  -11.9420   -0.0570    0.0000 O   0  0  0  0  0  0  0  0  0  0  0  0
  -12.9250    1.0760    0.0000 C   0  0  0  0  0  0  0  0  0  0  0  0
  -12.4360    2.4940    0.0000 O   0  0  0  0  0  0  0  0  0  0  0  0
  -13.4190    3.6260    0.0000 C   0  0  0  0  0  0  0  0  0  0  0  0
  -12.9300    5.0440    0.0000 C   0  0  0  0  0  0  0  0  0  0  0  0
  -14.3980    0.7910    0.0000 O   0  0  0  0  0  0  0  0  0  0  0  0
  -10.8840   -1.2130    0.0000 C   0  0  0  0  0  0  0  0  0  0  0  0
   -9.8430   -2.2930    0.0000 O   0  0  0  0  0  0  0  0  0  0  0  0
  -12.3400   -1.5750    0.0000 C   0  0  0  0  0  0  0  0  0  0  0  0
  -12.7540   -3.0170    0.0000 O   0  0  0  0  0  0  0  0  0  0  0  0
  -14.2100   -3.3790    0.0000 C   0  0  0  0  0  0  0  0  0  0  0  0
  -15.2510   -2.2990    0.0000 O   0  0  0  0  0  0  0  0  0  0  0  0
  -14.6240   -4.8200    0.0000 C   0  0  0  0  0  0  0  0  0  0  0  0
  -16.0800   -5.1820    0.0000 C   0  0  0  0  0  0  0  0  0  0  0  0
   -9.9140   -1.2610    0.0000 C   0  0  0  0  0  0  0  0  0  0  0  0
  1  2  2  0  0  0  0
  2  3  1  0  0  0  0
  2 11  1  0  0  0  0
  3  4  2  0  0  0  0
  4  5  1  0  0  0  0
  4  9  1  0  0  0  0
  5  6  1  0  0  0  0
  7  6  1  6  0  0  0
  7  8  1  0  0  0  0
  7 17  1  0  0  0  0
  8  9  1  0  0  0  0
  8 13  1  1  0  0  0
  9 10  1  0  0  0  0
  9 12  1  1  0  0  0
 10 11  2  0  0  0  0
 13 14  1  1  0  0  0
 13 15  1  0  0  0  0
 15 16  1  0  0  0  0
 16 17  1  0  0  0  0
 16 20  1  0  0  0  0
 16 35  1  1  0  0  0
 17 18  1  1  0  0  0
 18 19  1  0  0  0  0
 19 20  1  0  0  0  0
 20 21  1  6  0  0  0
 20 27  1  1  0  0  0
 21 22  1  0  0  0  0
 22 23  1  0  0  0  0
 22 26  2  0  0  0  0
 23 24  1  0  0  0  0
 24 25  1  0  0  0  0
 27 28  2  0  0  0  0
 27 29  1  0  0  0  0
 29 30  1  0  0  0  0
 30 31  1  0  0  0  0
 31 32  2  0  0  0  0
 31 33  1  0  0  0  0
 33 34  1  0  0  0  0
M  END
>  <Index>
892

>  <ID>
HT1729

>  <class>
0

>  <apol>
77.940552

>  <ast_fraglike>
0

>  <ast_fraglike_ext>
0

>  <ast_violation>
3

>  <ast_violation_ext>
5

>  <a_acc>
5

>  <a_acid>
0

>  <a_aro>
0

>  <a_base>
0

>  <a_count>
71

>  <a_don>
1

>  <a_donacc>
6

>  <a_heavy>
35

>  <a_hyd>
23

>  <a_IC>
98.132782

>  <a_ICM>
1.3821518

>  <a_nB>
0

>  <a_nBr>
0

>  <a_nC>
27

>  <a_nCl>
0

>  <a_nF>
0

>  <a_nH>
36

>  <a_nI>
0

>  <a_nN>
0

>  <a_nO>
8

>  <a_nP>
0

>  <a_nS>
0

>  <balabanJ>
1.6511

>  <BCUT_PEOE_0>
-2.9206648

>  <BCUT_PEOE_1>
-0.48964673

>  <BCUT_PEOE_2>
0.36550242

>  <BCUT_PEOE_3>
2.9788964

>  <BCUT_SLOGP_0>
-2.898344

>  <BCUT_SLOGP_1>
-0.41573492

>  <BCUT_SLOGP_2>
0.4199191

>  <BCUT_SLOGP_3>
3.0073128

>  <BCUT_SMR_0>
-2.6754136

>  <BCUT_SMR_1>
-0.27958798

>  <BCUT_SMR_2>
0.55095136

>  <BCUT_SMR_3>
3.21664

>  <bpol>
48.935452

>  <b_1rotN>
6

>  <b_1rotR>
0.15789473

>  <b_ar>
0

>  <b_count>
74

>  <b_double>
6

>  <b_heavy>
38

>  <b_max1len>
4

>  <b_rotN>
9

>  <b_rotR>
0.23684211

>  <b_single>
68

>  <b_triple>
0

>  <chi0>
25.595648

>  <chi0v>
21.003258

>  <chi0v_C>
17.698307

>  <chi0_C>
18.474327

>  <chi1>
16.518858

>  <chi1v>
12.690652

>  <chi1v_C>
10.22211

>  <chi1_C>
11.053809

>  <chiral>
7

>  <chiral_u>
0

>  <density>
0.75013608

>  <diameter>
15

>  <FCharge>
0

>  <GCUT_PEOE_0>
-0.80041742

>  <GCUT_PEOE_1>
-0.38334915

>  <GCUT_PEOE_2>
-0.022900911

>  <GCUT_PEOE_3>
3.3906679

>  <GCUT_SLOGP_0>
-0.93006504

>  <GCUT_SLOGP_1>
-0.30842462

>  <GCUT_SLOGP_2>
-0.0021823107

>  <GCUT_SLOGP_3>
3.4260662

>  <GCUT_SMR_0>
-0.53693581

>  <GCUT_SMR_1>
-0.21133216

>  <GCUT_SMR_2>
0.12189268

>  <GCUT_SMR_3>
3.6127243

>  <Kier1>
28.01939

>  <Kier2>
10.636599

>  <Kier3>
4.7074094

>  <KierA1>
24.015032

>  <KierA2>
9.0732527

>  <KierA3>
4.0017352

>  <KierFlex>
6.2255559

>  <lip_acc>
8

>  <lip_don>
1

>  <lip_druglike>
1

>  <lip_violation>
0

>  <logP(o/w)>
4.0580001

>  <logS>
-5.1914802

>  <mr>
12.775436

>  <mutagenic>
0

>  <nmol>
1

>  <opr_brigid>
20

>  <opr_leadlike>
1

>  <opr_nring>
4

>  <opr_nrot>
6

>  <opr_violation>
1

>  <PC+>
0

>  <PC->
0

>  <PEOE_PC+>
2.9226987

>  <PEOE_PC->
-2.9226987

>  <PEOE_RPC+>
0.13940884

>  <PEOE_RPC->
0.13393286

>  <PEOE_VSA+0>
123.86674

>  <PEOE_VSA+1>
53.979309

>  <PEOE_VSA+2>
14.951293

>  <PEOE_VSA+3>
16.917038

>  <PEOE_VSA+4>
10.324173

>  <PEOE_VSA+5>
14.708499

>  <PEOE_VSA+6>
20.958479

>  <PEOE_VSA-0>
86.764053

>  <PEOE_VSA-1>
70.706474

>  <PEOE_VSA-2>
0

>  <PEOE_VSA-3>
0

>  <PEOE_VSA-4>
13.566921

>  <PEOE_VSA-5>
45.708275

>  <PEOE_VSA-6>
10.271297

>  <PEOE_VSA_FHYD>
0.76065415

>  <PEOE_VSA_FNEG>
0.47028467

>  <PEOE_VSA_FPNEG>
0.14407136

>  <PEOE_VSA_FPOL>
0.23934586

>  <PEOE_VSA_FPOS>
0.5297153

>  <PEOE_VSA_FPPOS>
0.095274501

>  <PEOE_VSA_HYD>
367.18491

>  <PEOE_VSA_NEG>
227.01701

>  <PEOE_VSA_PNEG>
69.546494

>  <PEOE_VSA_POL>
115.53764

>  <PEOE_VSA_POS>
255.70554

>  <PEOE_VSA_PPOS>
45.99115

>  <petitjean>
0.46666667

>  <petitjeanSC>
0.875

>  <Q_PC+>
0

>  <Q_PC->
0

>  <Q_RPC+>
0

>  <Q_RPC->
0

>  <Q_VSA_FHYD>
1

>  <Q_VSA_FNEG>
0

>  <Q_VSA_FPNEG>
0

>  <Q_VSA_FPOL>
0

>  <Q_VSA_FPOS>
1

>  <Q_VSA_FPPOS>
0

>  <Q_VSA_HYD>
482.72253

>  <Q_VSA_NEG>
0

>  <Q_VSA_PNEG>
0

>  <Q_VSA_POL>
0

>  <Q_VSA_POS>
482.72253

>  <Q_VSA_PPOS>
0

>  <radius>
8

>  <reactive>
1

>  <rings>
4

>  <RPC+>
0

>  <RPC->
0

>  <rsynth>
1

>  <SlogP>
3.6993001

>  <SlogP_VSA0>
25.385227

>  <SlogP_VSA1>
28.924004

>  <SlogP_VSA2>
111.05496

>  <SlogP_VSA3>
41.852516

>  <SlogP_VSA4>
13.232388

>  <SlogP_VSA5>
3.185575

>  <SlogP_VSA6>
0

>  <SlogP_VSA7>
52.929554

>  <SlogP_VSA8>
113.21043

>  <SlogP_VSA9>
157.16628

>  <SMR>
12.51008

>  <SMR_VSA0>
128.44853

>  <SMR_VSA1>
25.385227

>  <SMR_VSA2>
13.232388

>  <SMR_VSA3>
9.6542244

>  <SMR_VSA4>
0

>  <SMR_VSA5>
166.13998

>  <SMR_VSA6>
70.77652

>  <SMR_VSA7>
133.30406

>  <TPSA>
116.2

>  <VAdjEq>
0.33549348

>  <VAdjMa>
6.2479277

>  <VDistEq>
3.5576811

>  <VDistMa>
9.9987421

>  <vdw_area>
482.72253

>  <vdw_vol>
651.31781

>  <vsa_acc>
54.267685

>  <vsa_acid>
0

>  <vsa_base>
0

>  <vsa_don>
0

>  <vsa_hyd>
321.31989

>  <vsa_other>
60.095287

>  <vsa_pol>
67.834602

>  <Weight>
488.577

>  <weinerPath>
3383

>  <weinerPol>
72

>  <zagreb>
194

$$$$