O=C1N(C[C@H]2CCCc3c2c1ccc3)[C@H]1C2CCN(C1)CC2
  MOE2013           2D

 22 26  0  0  1  0  0  0  0  0999 V2000
    0.0000    0.0000    0.0000 O   0  0  0  0  0  0  0  0  0  0  0  0
   -0.7550   -1.2960    0.0000 C   0  0  0  0  0  0  0  0  0  0  0  0
   -0.0120   -2.5960    0.0000 N   0  0  0  0  0  0  0  0  0  0  0  0
   -0.7660   -3.8930    0.0000 C   0  0  0  0  0  0  0  0  0  0  0  0
   -2.2610   -3.8900    0.0000 C   0  0  1  0  0  0  0  0  0  0  0  0
   -3.0170   -5.1860    0.0000 C   0  0  0  0  0  0  0  0  0  0  0  0
   -4.5200   -5.1840    0.0000 C   0  0  0  0  0  0  0  0  0  0  0  0
   -5.2670   -3.8800    0.0000 C   0  0  0  0  0  0  0  0  0  0  0  0
   -4.5140   -2.5830    0.0000 C   0  0  0  0  0  0  0  0  0  0  0  0
   -3.0110   -2.5880    0.0000 C   0  0  0  0  0  0  0  0  0  0  0  0
   -2.2580   -1.2920    0.0000 C   0  0  0  0  0  0  0  0  0  0  0  0
   -3.0050    0.0120    0.0000 C   0  0  0  0  0  0  0  0  0  0  0  0
   -4.5020    0.0130    0.0000 C   0  0  0  0  0  0  0  0  0  0  0  0
   -5.2560   -1.2850    0.0000 C   0  0  0  0  0  0  0  0  0  0  0  0
    1.4880   -2.6010    0.0000 C   0  0  1  0  0  0  0  0  0  0  0  0
    2.7810   -3.5970    0.0000 C   0  0  0  0  0  0  0  0  0  0  0  0
    2.8930   -5.0630    0.0000 C   0  0  0  0  0  0  0  0  0  0  0  0
    3.9490   -4.1640    0.0000 C   0  0  0  0  0  0  0  0  0  0  0  0
    3.8220   -2.7230    0.0000 N   0  0  0  0  0  0  0  0  0  0  0  0
    2.5730   -1.7790    0.0000 C   0  0  0  0  0  0  0  0  0  0  0  0
    5.2530   -2.0050    0.0000 C   0  0  0  0  0  0  0  0  0  0  0  0
    4.5220   -2.9130    0.0000 C   0  0  0  0  0  0  0  0  0  0  0  0
  1  2  2  0  0  0  0
  2  3  1  0  0  0  0
  2 11  1  0  0  0  0
  3  4  1  0  0  0  0
  5  4  1  1  0  0  0
  5  6  1  0  0  0  0
  5 10  1  0  0  0  0
  6  7  1  0  0  0  0
  7  8  1  0  0  0  0
  8  9  1  0  0  0  0
  9 10  2  0  0  0  0
  9 14  1  0  0  0  0
 10 11  1  0  0  0  0
 11 12  2  0  0  0  0
 12 13  1  0  0  0  0
 13 14  2  0  0  0  0
 15  3  1  6  0  0  0
 15 16  1  0  0  0  0
 15 20  1  0  0  0  0
 16 17  1  0  0  0  0
 16 22  1  0  0  0  0
 17 18  1  0  0  0  0
 18 19  1  0  0  0  0
 19 20  1  0  0  0  0
 19 21  1  0  0  0  0
 21 22  1  0  0  0  0
M  END
>  <Index>
810

>  <ID>
HT1583

>  <class>
0

>  <apol>
52.44503

>  <ast_fraglike>
1

>  <ast_fraglike_ext>
0

>  <ast_violation>
0

>  <ast_violation_ext>
1

>  <a_acc>
2

>  <a_acid>
0

>  <a_aro>
6

>  <a_base>
0

>  <a_count>
46

>  <a_don>
0

>  <a_donacc>
2

>  <a_heavy>
22

>  <a_hyd>
18

>  <a_IC>
61.334126

>  <a_ICM>
1.3333505

>  <a_nB>
0

>  <a_nBr>
0

>  <a_nC>
19

>  <a_nCl>
0

>  <a_nF>
0

>  <a_nH>
24

>  <a_nI>
0

>  <a_nN>
2

>  <a_nO>
1

>  <a_nP>
0

>  <a_nS>
0

>  <balabanJ>
1.4059453

>  <BCUT_PEOE_0>
-2.906738

>  <BCUT_PEOE_1>
-0.53735989

>  <BCUT_PEOE_2>
0.56882954

>  <BCUT_PEOE_3>
2.8404512

>  <BCUT_SLOGP_0>
-2.9638512

>  <BCUT_SLOGP_1>
-0.46691307

>  <BCUT_SLOGP_2>
0.62918919

>  <BCUT_SLOGP_3>
2.8242812

>  <BCUT_SMR_0>
-2.6374948

>  <BCUT_SMR_1>
-0.40704265

>  <BCUT_SMR_2>
0.68896788

>  <BCUT_SMR_3>
3.1047695

>  <bpol>
31.154968

>  <b_1rotN>
1

>  <b_1rotR>
0.03846154

>  <b_ar>
6

>  <b_count>
50

>  <b_double>
1

>  <b_heavy>
26

>  <b_max1len>
2

>  <b_rotN>
1

>  <b_rotR>
0.03846154

>  <b_single>
43

>  <b_triple>
0

>  <chi0>
14.681434

>  <chi0v>
13.130738

>  <chi0v_C>
11.828063

>  <chi0_C>
12.526733

>  <chi1>
10.809663

>  <chi1v>
8.9616613

>  <chi1v_C>
7.0108204

>  <chi1_C>
7.932653

>  <chiral>
2

>  <chiral_u>
0

>  <density>
0.69279957

>  <diameter>
9

>  <FCharge>
0

>  <GCUT_PEOE_0>
-0.85602957

>  <GCUT_PEOE_1>
-0.39192328

>  <GCUT_PEOE_2>
0.048238009

>  <GCUT_PEOE_3>
3.0050828

>  <GCUT_SLOGP_0>
-0.96687001

>  <GCUT_SLOGP_1>
-0.29466033

>  <GCUT_SLOGP_2>
0.1192251

>  <GCUT_SLOGP_3>
3.0313528

>  <GCUT_SMR_0>
-0.52430177

>  <GCUT_SMR_1>
-0.22233781

>  <GCUT_SMR_2>
0.14598158

>  <GCUT_SMR_3>
3.2551351

>  <Kier1>
14.352071

>  <Kier2>
5.5226827

>  <Kier3>
2.2592151

>  <KierA1>
11.973072

>  <KierA2>
4.5649962

>  <KierA3>
1.8550043

>  <KierFlex>
2.4844105

>  <lip_acc>
3

>  <lip_don>
0

>  <lip_druglike>
1

>  <lip_violation>
0

>  <logP(o/w)>
2.4200001

>  <logS>
-3.3731999

>  <mr>
8.6511679

>  <mutagenic>
0

>  <nmol>
1

>  <opr_brigid>
24

>  <opr_leadlike>
1

>  <opr_nring>
5

>  <opr_nrot>
5

>  <opr_violation>
1

>  <PC+>
0

>  <PC->
0

>  <PEOE_PC+>
1.3487238

>  <PEOE_PC->
-1.3487238

>  <PEOE_RPC+>
0.18918808

>  <PEOE_RPC->
0.24708089

>  <PEOE_VSA+0>
117.04687

>  <PEOE_VSA+1>
17.061544

>  <PEOE_VSA+2>
0

>  <PEOE_VSA+3>
0

>  <PEOE_VSA+4>
0

>  <PEOE_VSA+5>
12.949531

>  <PEOE_VSA+6>
0

>  <PEOE_VSA-0>
86.563202

>  <PEOE_VSA-1>
24.509808

>  <PEOE_VSA-2>
0

>  <PEOE_VSA-3>
0

>  <PEOE_VSA-4>
0

>  <PEOE_VSA-5>
13.566921

>  <PEOE_VSA-6>
0

>  <PEOE_VSA_FHYD>
0.90240467

>  <PEOE_VSA_FNEG>
0.45874459

>  <PEOE_VSA_FPNEG>
0.049933851

>  <PEOE_VSA_FPOL>
0.097595364

>  <PEOE_VSA_FPOS>
0.54125541

>  <PEOE_VSA_FPPOS>
0.047661509

>  <PEOE_VSA_HYD>
245.18143

>  <PEOE_VSA_NEG>
124.63993

>  <PEOE_VSA_PNEG>
13.566921

>  <PEOE_VSA_POL>
26.516451

>  <PEOE_VSA_POS>
147.05794

>  <PEOE_VSA_PPOS>
12.949531

>  <petitjean>
0.44444445

>  <petitjeanSC>
0.80000001

>  <Q_PC+>
0

>  <Q_PC->
0

>  <Q_RPC+>
0

>  <Q_RPC->
0

>  <Q_VSA_FHYD>
1

>  <Q_VSA_FNEG>
0

>  <Q_VSA_FPNEG>
0

>  <Q_VSA_FPOL>
0

>  <Q_VSA_FPOS>
1

>  <Q_VSA_FPPOS>
0

>  <Q_VSA_HYD>
271.69788

>  <Q_VSA_NEG>
0

>  <Q_VSA_PNEG>
0

>  <Q_VSA_POL>
0

>  <Q_VSA_POS>
271.69788

>  <Q_VSA_PPOS>
0

>  <radius>
5

>  <reactive>
0

>  <rings>
5

>  <RPC+>
0

>  <RPC->
0

>  <rsynth>
0.36363637

>  <SlogP>
2.6564701

>  <SlogP_VSA0>
0

>  <SlogP_VSA1>
11.507411

>  <SlogP_VSA2>
3.9819686

>  <SlogP_VSA3>
73.758316

>  <SlogP_VSA4>
37.829739

>  <SlogP_VSA5>
18.868406

>  <SlogP_VSA6>
4.4107962

>  <SlogP_VSA7>
52.929554

>  <SlogP_VSA8>
75.473625

>  <SlogP_VSA9>
0

>  <SMR>
8.6109505

>  <SMR_VSA0>
23.862217

>  <SMR_VSA1>
6.2486277

>  <SMR_VSA2>
4.4107962

>  <SMR_VSA3>
17.94949

>  <SMR_VSA4>
0

>  <SMR_VSA5>
147.27158

>  <SMR_VSA6>
79.017097

>  <SMR_VSA7>
0

>  <TPSA>
23.549999

>  <VAdjEq>
0.49213955

>  <VAdjMa>
5.7004399

>  <VDistEq>
2.990814

>  <VDistMa>
8.6493406

>  <vdw_area>
271.69788

>  <vdw_vol>
427.84955

>  <vsa_acc>
13.566921

>  <vsa_acid>
0

>  <vsa_base>
0

>  <vsa_don>
0

>  <vsa_hyd>
225.40823

>  <vsa_other>
12.949531

>  <vsa_pol>
13.566921

>  <Weight>
296.414

>  <weinerPath>
931

>  <weinerPol>
41

>  <zagreb>
130

$$$$