O=C(Nc1ccccc1C)C(NCCC)C
  MOE2013           2D

 16 16  0  0  1  0  0  0  0  0999 V2000
    0.0000    0.0000    0.0000 O   0  0  0  0  0  0  0  0  0  0  0  0
    0.7570    1.2950    0.0000 C   0  0  0  0  0  0  0  0  0  0  0  0
    0.0140    2.5980    0.0000 N   0  0  0  0  0  0  0  0  0  0  0  0
   -1.4860    2.6060    0.0000 C   0  0  0  0  0  0  0  0  0  0  0  0
   -2.2430    1.3110    0.0000 C   0  0  0  0  0  0  0  0  0  0  0  0
   -3.7430    1.3190    0.0000 C   0  0  0  0  0  0  0  0  0  0  0  0
   -4.4860    2.6220    0.0000 C   0  0  0  0  0  0  0  0  0  0  0  0
   -3.7290    3.9170    0.0000 C   0  0  0  0  0  0  0  0  0  0  0  0
   -2.2290    3.9090    0.0000 C   0  0  0  0  0  0  0  0  0  0  0  0
   -1.4730    5.2040    0.0000 C   0  0  0  0  0  0  0  0  0  0  0  0
    2.2570    1.2870    0.0000 C   0  0  3  0  0  0  0  0  0  0  0  0
    3.0000   -0.0160    0.0000 N   0  0  0  0  0  0  0  0  0  0  0  0
    4.5000   -0.0240    0.0000 C   0  0  0  0  0  0  0  0  0  0  0  0
    5.2430   -1.3270    0.0000 C   0  0  0  0  0  0  0  0  0  0  0  0
    6.7430   -1.3350    0.0000 C   0  0  0  0  0  0  0  0  0  0  0  0
    3.0140    2.5820    0.0000 C   0  0  0  0  0  0  0  0  0  0  0  0
  1  2  2  0  0  0  0
  2  3  1  0  0  0  0
  2 11  1  0  0  0  0
  3  4  1  0  0  0  0
  4  5  1  0  0  0  0
  4  9  2  0  0  0  0
  5  6  2  0  0  0  0
  6  7  1  0  0  0  0
  7  8  2  0  0  0  0
  8  9  1  0  0  0  0
  9 10  1  0  0  0  0
 11 12  1  0  0  0  0
 11 16  1  0  0  0  0
 12 13  1  0  0  0  0
 13 14  1  0  0  0  0
 14 15  1  0  0  0  0
M  END
>  <Index>
900

>  <ID>
HT1738

>  <class>
0

>  <apol>
39.217861

>  <ast_fraglike>
1

>  <ast_fraglike_ext>
0

>  <ast_violation>
0

>  <ast_violation_ext>
1

>  <a_acc>
2

>  <a_acid>
0

>  <a_aro>
6

>  <a_base>
0

>  <a_count>
36

>  <a_don>
2

>  <a_donacc>
4

>  <a_heavy>
16

>  <a_hyd>
12

>  <a_IC>
49.573021

>  <a_ICM>
1.3770283

>  <a_nB>
0

>  <a_nBr>
0

>  <a_nC>
13

>  <a_nCl>
0

>  <a_nF>
0

>  <a_nH>
20

>  <a_nI>
0

>  <a_nN>
2

>  <a_nO>
1

>  <a_nP>
0

>  <a_nS>
0

>  <balabanJ>
2.2914886

>  <BCUT_PEOE_0>
-2.6156371

>  <BCUT_PEOE_1>
-0.47358856

>  <BCUT_PEOE_2>
0.48156524

>  <BCUT_PEOE_3>
2.5622416

>  <BCUT_SLOGP_0>
-2.7650421

>  <BCUT_SLOGP_1>
-0.42290178

>  <BCUT_SLOGP_2>
0.57351011

>  <BCUT_SLOGP_3>
2.548954

>  <BCUT_SMR_0>
-2.3484721

>  <BCUT_SMR_1>
-0.32202327

>  <BCUT_SMR_2>
0.6310215

>  <BCUT_SMR_3>
2.8267851

>  <bpol>
24.142139

>  <b_1rotN>
5

>  <b_1rotR>
0.3125

>  <b_ar>
6

>  <b_count>
36

>  <b_double>
1

>  <b_heavy>
16

>  <b_max1len>
7

>  <b_rotN>
6

>  <b_rotR>
0.375

>  <b_single>
29

>  <b_triple>
0

>  <chi0>
11.966255

>  <chi0v>
10.209213

>  <chi0v_C>
8.8009653

>  <chi0_C>
9.552042

>  <chi1>
7.6470656

>  <chi1v>
5.7468352

>  <chi1v_C>
4.4004827

>  <chi1_C>
5.3449707

>  <chiral>
1

>  <chiral_u>
1

>  <density>
0.6603657

>  <diameter>
10

>  <FCharge>
0

>  <GCUT_PEOE_0>
-0.83497441

>  <GCUT_PEOE_1>
-0.34308359

>  <GCUT_PEOE_2>
0.040839471

>  <GCUT_PEOE_3>
2.4388764

>  <GCUT_SLOGP_0>
-1.1537118

>  <GCUT_SLOGP_1>
-0.26861998

>  <GCUT_SLOGP_2>
0.11707816

>  <GCUT_SLOGP_3>
2.4801219

>  <GCUT_SMR_0>
-0.52274626

>  <GCUT_SMR_1>
-0.18970028

>  <GCUT_SMR_2>
0.13653745

>  <GCUT_SMR_3>
2.7054648

>  <Kier1>
14.0625

>  <Kier2>
7.3499999

>  <Kier3>
4.8166351

>  <KierA1>
10.89325

>  <KierA2>
5.5880861

>  <KierA3>
3.6107929

>  <KierFlex>
3.8045259

>  <lip_acc>
3

>  <lip_don>
2

>  <lip_druglike>
1

>  <lip_violation>
0

>  <logP(o/w)>
2.3929999

>  <logS>
-2.3705699

>  <mr>
6.6991844

>  <mutagenic>
0

>  <nmol>
1

>  <opr_brigid>
6

>  <opr_leadlike>
1

>  <opr_nring>
1

>  <opr_nrot>
5

>  <opr_violation>
0

>  <PC+>
0

>  <PC->
0

>  <PEOE_PC+>
1.3344941

>  <PEOE_PC->
-1.3344941

>  <PEOE_RPC+>
0.18133947

>  <PEOE_RPC->
0.24326104

>  <PEOE_VSA+0>
62.14957

>  <PEOE_VSA+1>
24.472891

>  <PEOE_VSA+2>
8.6190128

>  <PEOE_VSA+3>
8.6190128

>  <PEOE_VSA+4>
12.949531

>  <PEOE_VSA+5>
0

>  <PEOE_VSA+6>
0

>  <PEOE_VSA-0>
73.85244

>  <PEOE_VSA-1>
55.51239

>  <PEOE_VSA-2>
0

>  <PEOE_VSA-3>
0

>  <PEOE_VSA-4>
0

>  <PEOE_VSA-5>
13.566921

>  <PEOE_VSA-6>
0.27378201

>  <PEOE_VSA_FHYD>
0.89696681

>  <PEOE_VSA_FNEG>
0.55075759

>  <PEOE_VSA_FPNEG>
0.053230289

>  <PEOE_VSA_FPOL>
0.1030332

>  <PEOE_VSA_FPOS>
0.44924244

>  <PEOE_VSA_FPPOS>
0.049802911

>  <PEOE_VSA_HYD>
233.22531

>  <PEOE_VSA_NEG>
143.20554

>  <PEOE_VSA_PNEG>
13.840703

>  <PEOE_VSA_POL>
26.790234

>  <PEOE_VSA_POS>
116.81002

>  <PEOE_VSA_PPOS>
12.949531

>  <petitjean>
0.5

>  <petitjeanSC>
1

>  <Q_PC+>
0

>  <Q_PC->
0

>  <Q_RPC+>
0

>  <Q_RPC->
0

>  <Q_VSA_FHYD>
1

>  <Q_VSA_FNEG>
0

>  <Q_VSA_FPNEG>
0

>  <Q_VSA_FPOL>
0

>  <Q_VSA_FPOS>
1

>  <Q_VSA_FPPOS>
0

>  <Q_VSA_HYD>
260.01553

>  <Q_VSA_NEG>
0

>  <Q_VSA_PNEG>
0

>  <Q_VSA_POL>
0

>  <Q_VSA_POS>
260.01553

>  <Q_VSA_PPOS>
0

>  <radius>
5

>  <reactive>
0

>  <rings>
1

>  <RPC+>
0

>  <RPC->
0

>  <rsynth>
0.5

>  <SlogP>
2.32162

>  <SlogP_VSA0>
18.01075

>  <SlogP_VSA1>
23.269535

>  <SlogP_VSA2>
27.844185

>  <SlogP_VSA3>
18.439579

>  <SlogP_VSA4>
3.185575

>  <SlogP_VSA5>
0

>  <SlogP_VSA6>
0

>  <SlogP_VSA7>
70.572739

>  <SlogP_VSA8>
18.868406

>  <SlogP_VSA9>
102.73479

>  <SMR>
6.7564402

>  <SMR_VSA0>
23.862217

>  <SMR_VSA1>
0

>  <SMR_VSA2>
18.01075

>  <SMR_VSA3>
7.1675434

>  <SMR_VSA4>
20.767498

>  <SMR_VSA5>
89.441139

>  <SMR_VSA6>
23.698362

>  <SMR_VSA7>
99.978043

>  <TPSA>
41.130001

>  <VAdjEq>
0.54356444

>  <VAdjMa>
5

>  <VDistEq>
3.069452

>  <VDistMa>
7.6786318

>  <vdw_area>
260.01553

>  <vdw_vol>
333.62726

>  <vsa_acc>
13.566921

>  <vsa_acid>
0

>  <vsa_base>
0

>  <vsa_don>
5.6825762

>  <vsa_hyd>
203.17497

>  <vsa_other>
12.949531

>  <vsa_pol>
24.932074

>  <Weight>
220.31599

>  <weinerPath>
488

>  <weinerPol>
20

>  <zagreb>
72

$$$$