O(C)c1ccc(-n2nc(c3c2C(=O)N(CC3)c2ccc(N3CCCCC3=O)cc2)C(=O)N)cc1
  MOE2013           2D

 34 38  0  0  0  0  0  0  0  0999 V2000
    0.0000    0.0000    0.0000 O   0  0  0  0  0  0  0  0  0  0  0  0
   -1.5000    0.0040    0.0000 C   0  0  0  0  0  0  0  0  0  0  0  0
    0.7540    1.2970    0.0000 C   0  0  0  0  0  0  0  0  0  0  0  0
    2.2540    1.2930    0.0000 C   0  0  0  0  0  0  0  0  0  0  0  0
    3.0070    2.5900    0.0000 C   0  0  0  0  0  0  0  0  0  0  0  0
    2.2610    3.8910    0.0000 C   0  0  0  0  0  0  0  0  0  0  0  0
    3.0140    5.1880    0.0000 N   0  0  0  0  0  0  0  0  0  0  0  0
    2.4080    6.5600    0.0000 N   0  0  0  0  0  0  0  0  0  0  0  0
    3.5250    7.5610    0.0000 C   0  0  0  0  0  0  0  0  0  0  0  0
    4.8220    6.8070    0.0000 C   0  0  0  0  0  0  0  0  0  0  0  0
    4.5060    5.3410    0.0000 C   0  0  0  0  0  0  0  0  0  0  0  0
    5.6180    4.3340    0.0000 C   0  0  0  0  0  0  0  0  0  0  0  0
    5.3020    2.8680    0.0000 O   0  0  0  0  0  0  0  0  0  0  0  0
    7.0460    4.7940    0.0000 N   0  0  0  0  0  0  0  0  0  0  0  0
    7.3620    6.2600    0.0000 C   0  0  0  0  0  0  0  0  0  0  0  0
    6.2500    7.2670    0.0000 C   0  0  0  0  0  0  0  0  0  0  0  0
    8.1580    3.7870    0.0000 C   0  0  0  0  0  0  0  0  0  0  0  0
    7.8420    2.3200    0.0000 C   0  0  0  0  0  0  0  0  0  0  0  0
    8.9540    1.3140    0.0000 C   0  0  0  0  0  0  0  0  0  0  0  0
   10.3820    1.7730    0.0000 C   0  0  0  0  0  0  0  0  0  0  0  0
   11.4940    0.7670    0.0000 N   0  0  0  0  0  0  0  0  0  0  0  0
   11.1780   -0.7000    0.0000 C   0  0  0  0  0  0  0  0  0  0  0  0
   12.2900   -1.7070    0.0000 C   0  0  0  0  0  0  0  0  0  0  0  0
   13.7180   -1.2470    0.0000 C   0  0  0  0  0  0  0  0  0  0  0  0
   14.0340    0.2190    0.0000 C   0  0  0  0  0  0  0  0  0  0  0  0
   12.9220    1.2260    0.0000 C   0  0  0  0  0  0  0  0  0  0  0  0
   13.2380    2.6930    0.0000 O   0  0  0  0  0  0  0  0  0  0  0  0
   10.6980    3.2400    0.0000 C   0  0  0  0  0  0  0  0  0  0  0  0
    9.5860    4.2460    0.0000 C   0  0  0  0  0  0  0  0  0  0  0  0
    3.3730    9.0530    0.0000 C   0  0  0  0  0  0  0  0  0  0  0  0
    4.5890    9.9310    0.0000 O   0  0  0  0  0  0  0  0  0  0  0  0
    2.0040    9.6670    0.0000 N   0  0  0  0  0  0  0  0  0  0  0  0
    0.7610    3.8950    0.0000 C   0  0  0  0  0  0  0  0  0  0  0  0
    0.0070    2.5980    0.0000 C   0  0  0  0  0  0  0  0  0  0  0  0
  1  2  1  0  0  0  0
  1  3  1  0  0  0  0
  3  4  1  0  0  0  0
  3 34  2  0  0  0  0
  4  5  2  0  0  0  0
  5  6  1  0  0  0  0
  6  7  1  0  0  0  0
  6 33  2  0  0  0  0
  7  8  1  0  0  0  0
  7 11  1  0  0  0  0
  8  9  2  0  0  0  0
  9 10  1  0  0  0  0
  9 30  1  0  0  0  0
 10 11  2  0  0  0  0
 10 16  1  0  0  0  0
 11 12  1  0  0  0  0
 12 13  2  0  0  0  0
 12 14  1  0  0  0  0
 14 15  1  0  0  0  0
 14 17  1  0  0  0  0
 15 16  1  0  0  0  0
 17 18  1  0  0  0  0
 17 29  2  0  0  0  0
 18 19  2  0  0  0  0
 19 20  1  0  0  0  0
 20 21  1  0  0  0  0
 20 28  2  0  0  0  0
 21 22  1  0  0  0  0
 21 26  1  0  0  0  0
 22 23  1  0  0  0  0
 23 24  1  0  0  0  0
 24 25  1  0  0  0  0
 25 26  1  0  0  0  0
 26 27  2  0  0  0  0
 28 29  1  0  0  0  0
 30 31  2  0  0  0  0
 30 32  1  0  0  0  0
 33 34  1  0  0  0  0
M  END
>  <Index>
82

>  <ID>
HT0169

>  <class>
0

>  <apol>
69.377823

>  <ast_fraglike>
0

>  <ast_fraglike_ext>
0

>  <ast_violation>
2

>  <ast_violation_ext>
4

>  <a_acc>
5

>  <a_acid>
0

>  <a_aro>
17

>  <a_base>
0

>  <a_count>
59

>  <a_don>
1

>  <a_donacc>
6

>  <a_heavy>
34

>  <a_hyd>
22

>  <a_IC>
95.273491

>  <a_ICM>
1.6148049

>  <a_nB>
0

>  <a_nBr>
0

>  <a_nC>
25

>  <a_nCl>
0

>  <a_nF>
0

>  <a_nH>
25

>  <a_nI>
0

>  <a_nN>
5

>  <a_nO>
4

>  <a_nP>
0

>  <a_nS>
0

>  <balabanJ>
1.24131

>  <BCUT_PEOE_0>
-2.6682076

>  <BCUT_PEOE_1>
-0.61487907

>  <BCUT_PEOE_2>
0.62908632

>  <BCUT_PEOE_3>
2.6414888

>  <BCUT_SLOGP_0>
-2.6797991

>  <BCUT_SLOGP_1>
-0.53028673

>  <BCUT_SLOGP_2>
0.68943131

>  <BCUT_SLOGP_3>
2.690732

>  <BCUT_SMR_0>
-2.4019272

>  <BCUT_SMR_1>
-0.44288325

>  <BCUT_SMR_2>
0.8039332

>  <BCUT_SMR_3>
2.9100523

>  <bpol>
37.400173

>  <b_1rotN>
5

>  <b_1rotR>
0.13157895

>  <b_ar>
17

>  <b_count>
63

>  <b_double>
3

>  <b_heavy>
38

>  <b_max1len>
2

>  <b_rotN>
5

>  <b_rotR>
0.13157895

>  <b_single>
43

>  <b_triple>
0

>  <chi0>
23.819262

>  <chi0v>
18.860641

>  <chi0v_C>
14.861443

>  <chi0_C>
16.672998

>  <chi1>
16.473566

>  <chi1v>
11.260964

>  <chi1v_C>
7.3498411

>  <chi1_C>
9.4158163

>  <chiral>
0

>  <chiral_u>
0

>  <density>
0.75945008

>  <diameter>
17

>  <FCharge>
0

>  <GCUT_PEOE_0>
-0.83048755

>  <GCUT_PEOE_1>
-0.44085589

>  <GCUT_PEOE_2>
0.055712894

>  <GCUT_PEOE_3>
2.7837682

>  <GCUT_SLOGP_0>
-1.3703396

>  <GCUT_SLOGP_1>
-0.34362498

>  <GCUT_SLOGP_2>
0.11895886

>  <GCUT_SLOGP_3>
2.8311117

>  <GCUT_SMR_0>
-0.51962191

>  <GCUT_SMR_1>
-0.21605732

>  <GCUT_SMR_2>
0.18299484

>  <GCUT_SMR_3>
3.0693631

>  <Kier1>
25.641273

>  <Kier2>
11.170909

>  <Kier3>
5.2176199

>  <KierA1>
18.014021

>  <KierA2>
7.757381

>  <KierA3>
3.5937371

>  <KierFlex>
4.1100478

>  <lip_acc>
9

>  <lip_don>
2

>  <lip_druglike>
1

>  <lip_violation>
0

>  <logP(o/w)>
1.3940001

>  <logS>
-4.7254

>  <mr>
12.606719

>  <mutagenic>
0

>  <nmol>
1

>  <opr_brigid>
28

>  <opr_leadlike>
0

>  <opr_nring>
5

>  <opr_nrot>
6

>  <opr_violation>
3

>  <PC+>
0

>  <PC->
0

>  <PEOE_PC+>
2.8763235

>  <PEOE_PC->
-2.8763235

>  <PEOE_RPC+>
0.096518546

>  <PEOE_RPC->
0.12674111

>  <PEOE_VSA+0>
126.87589

>  <PEOE_VSA+1>
62.077316

>  <PEOE_VSA+2>
6.6995511

>  <PEOE_VSA+3>
23.937576

>  <PEOE_VSA+4>
12.949531

>  <PEOE_VSA+5>
25.899061

>  <PEOE_VSA+6>
0

>  <PEOE_VSA-0>
124.14317

>  <PEOE_VSA-1>
0

>  <PEOE_VSA-2>
0

>  <PEOE_VSA-3>
9.4210396

>  <PEOE_VSA-4>
0

>  <PEOE_VSA-5>
40.700764

>  <PEOE_VSA-6>
9.1548758

>  <PEOE_VSA_FHYD>
0.79924756

>  <PEOE_VSA_FNEG>
0.41510966

>  <PEOE_VSA_FPNEG>
0.11283161

>  <PEOE_VSA_FPOL>
0.20075245

>  <PEOE_VSA_FPOS>
0.58489037

>  <PEOE_VSA_FPPOS>
0.087920837

>  <PEOE_VSA_HYD>
353.15454

>  <PEOE_VSA_NEG>
183.41985

>  <PEOE_VSA_PNEG>
49.855637

>  <PEOE_VSA_POL>
88.704231

>  <PEOE_VSA_POS>
258.43893

>  <PEOE_VSA_PPOS>
38.848595

>  <petitjean>
0.47058824

>  <petitjeanSC>
0.8888889

>  <Q_PC+>
0

>  <Q_PC->
0

>  <Q_RPC+>
0

>  <Q_RPC->
0

>  <Q_VSA_FHYD>
1

>  <Q_VSA_FNEG>
0

>  <Q_VSA_FPNEG>
0

>  <Q_VSA_FPOL>
0

>  <Q_VSA_FPOS>
1

>  <Q_VSA_FPPOS>
0

>  <Q_VSA_HYD>
441.8588

>  <Q_VSA_NEG>
0

>  <Q_VSA_PNEG>
0

>  <Q_VSA_POL>
0

>  <Q_VSA_POS>
441.8588

>  <Q_VSA_PPOS>
0

>  <radius>
9

>  <reactive>
0

>  <rings>
5

>  <RPC+>
0

>  <RPC->
0

>  <rsynth>
1

>  <SlogP>
2.6995699

>  <SlogP_VSA0>
50.145702

>  <SlogP_VSA1>
34.215927

>  <SlogP_VSA2>
23.862217

>  <SlogP_VSA3>
36.879158

>  <SlogP_VSA4>
56.423504

>  <SlogP_VSA5>
54.252274

>  <SlogP_VSA6>
0

>  <SlogP_VSA7>
143.90222

>  <SlogP_VSA8>
56.605217

>  <SlogP_VSA9>
10.756924

>  <SMR>
12.66604

>  <SMR_VSA0>
71.586647

>  <SMR_VSA1>
29.439466

>  <SMR_VSA2>
6.2486277

>  <SMR_VSA3>
13.942498

>  <SMR_VSA4>
41.167431

>  <SMR_VSA5>
216.61909

>  <SMR_VSA6>
52.655506

>  <SMR_VSA7>
35.383869

>  <TPSA>
110.76

>  <VAdjEq>
0.34983629

>  <VAdjMa>
6.2479277

>  <VDistEq>
3.7815547

>  <VDistMa>
9.8777533

>  <vdw_area>
441.8588

>  <vdw_vol>
605.0509

>  <vsa_acc>
52.625557

>  <vsa_acid>
0

>  <vsa_base>
0

>  <vsa_don>
17.742489

>  <vsa_hyd>
310.12421

>  <vsa_other>
38.848595

>  <vsa_pol>
70.36805

>  <Weight>
459.50598

>  <weinerPath>
3561

>  <weinerPol>
61

>  <zagreb>
186

$$$$