o1cccc1C(=O)N1CCN(CC1)c1nc(N)c2cc(OC)c(OC)cc2n1
  MOE2013           2D

 28 31  0  0  0  0  0  0  0  0999 V2000
    0.0000    0.0000    0.0000 O   0  0  0  0  0  0  0  0  0  0  0  0
    0.3490   -1.4590    0.0000 C   0  0  0  0  0  0  0  0  0  0  0  0
   -0.9310   -2.2420    0.0000 C   0  0  0  0  0  0  0  0  0  0  0  0
   -2.0700   -1.2660    0.0000 C   0  0  0  0  0  0  0  0  0  0  0  0
   -1.4950    0.1190    0.0000 C   0  0  0  0  0  0  0  0  0  0  0  0
   -2.2780    1.3990    0.0000 C   0  0  0  0  0  0  0  0  0  0  0  0
   -1.5610    2.7160    0.0000 O   0  0  0  0  0  0  0  0  0  0  0  0
   -3.7770    1.3610    0.0000 N   0  0  0  0  0  0  0  0  0  0  0  0
   -4.4940    0.0430    0.0000 C   0  0  0  0  0  0  0  0  0  0  0  0
   -5.9940    0.0050    0.0000 C   0  0  0  0  0  0  0  0  0  0  0  0
   -6.7760    1.2850    0.0000 N   0  0  0  0  0  0  0  0  0  0  0  0
   -6.0600    2.6020    0.0000 C   0  0  0  0  0  0  0  0  0  0  0  0
   -4.5600    2.6400    0.0000 C   0  0  0  0  0  0  0  0  0  0  0  0
   -8.2760    1.2470    0.0000 C   0  0  0  0  0  0  0  0  0  0  0  0
   -8.9930   -0.0710    0.0000 N   0  0  0  0  0  0  0  0  0  0  0  0
  -10.4920   -0.1090    0.0000 C   0  0  0  0  0  0  0  0  0  0  0  0
  -11.2090   -1.4270    0.0000 N   0  0  0  0  0  0  0  0  0  0  0  0
  -11.2750    1.1710    0.0000 C   0  0  0  0  0  0  0  0  0  0  0  0
  -12.7750    1.1330    0.0000 C   0  0  0  0  0  0  0  0  0  0  0  0
  -13.5570    2.4120    0.0000 C   0  0  0  0  0  0  0  0  0  0  0  0
  -15.0570    2.3740    0.0000 O   0  0  0  0  0  0  0  0  0  0  0  0
  -15.7740    1.0570    0.0000 C   0  0  0  0  0  0  0  0  0  0  0  0
  -12.8400    3.7300    0.0000 C   0  0  0  0  0  0  0  0  0  0  0  0
  -13.6230    5.0100    0.0000 O   0  0  0  0  0  0  0  0  0  0  0  0
  -12.9060    6.3270    0.0000 C   0  0  0  0  0  0  0  0  0  0  0  0
  -11.3410    3.7680    0.0000 C   0  0  0  0  0  0  0  0  0  0  0  0
  -10.5580    2.4880    0.0000 C   0  0  0  0  0  0  0  0  0  0  0  0
   -9.0590    2.5260    0.0000 N   0  0  0  0  0  0  0  0  0  0  0  0
  1  2  1  0  0  0  0
  1  5  1  0  0  0  0
  2  3  2  0  0  0  0
  3  4  1  0  0  0  0
  4  5  2  0  0  0  0
  5  6  1  0  0  0  0
  6  7  2  0  0  0  0
  6  8  1  0  0  0  0
  8  9  1  0  0  0  0
  8 13  1  0  0  0  0
  9 10  1  0  0  0  0
 10 11  1  0  0  0  0
 11 12  1  0  0  0  0
 11 14  1  0  0  0  0
 12 13  1  0  0  0  0
 14 15  1  0  0  0  0
 14 28  2  0  0  0  0
 15 16  2  0  0  0  0
 16 17  1  0  0  0  0
 16 18  1  0  0  0  0
 18 19  1  0  0  0  0
 18 27  2  0  0  0  0
 19 20  2  0  0  0  0
 20 21  1  0  0  0  0
 20 23  1  0  0  0  0
 21 22  1  0  0  0  0
 23 24  1  0  0  0  0
 23 26  2  0  0  0  0
 24 25  1  0  0  0  0
 26 27  1  0  0  0  0
 27 28  1  0  0  0  0
M  END
>  <Index>
891

>  <ID>
HT1728

>  <class>
0

>  <apol>
56.150654

>  <ast_fraglike>
0

>  <ast_fraglike_ext>
0

>  <ast_violation>
2

>  <ast_violation_ext>
3

>  <a_acc>
5

>  <a_acid>
0

>  <a_aro>
15

>  <a_base>
0

>  <a_count>
49

>  <a_don>
1

>  <a_donacc>
6

>  <a_heavy>
28

>  <a_hyd>
14

>  <a_IC>
82.561852

>  <a_ICM>
1.6849358

>  <a_nB>
0

>  <a_nBr>
0

>  <a_nC>
19

>  <a_nCl>
0

>  <a_nF>
0

>  <a_nH>
21

>  <a_nI>
0

>  <a_nN>
5

>  <a_nO>
4

>  <a_nP>
0

>  <a_nS>
0

>  <balabanJ>
1.3135042

>  <BCUT_PEOE_0>
-2.70471

>  <BCUT_PEOE_1>
-0.56835711

>  <BCUT_PEOE_2>
0.53921521

>  <BCUT_PEOE_3>
2.6458764

>  <BCUT_SLOGP_0>
-2.8553874

>  <BCUT_SLOGP_1>
-0.49392799

>  <BCUT_SLOGP_2>
0.63291794

>  <BCUT_SLOGP_3>
2.5141172

>  <BCUT_SMR_0>
-2.4215534

>  <BCUT_SMR_1>
-0.31223649

>  <BCUT_SMR_2>
0.75600368

>  <BCUT_SMR_3>
2.9213746

>  <bpol>
35.603348

>  <b_1rotN>
5

>  <b_1rotR>
0.16129032

>  <b_ar>
16

>  <b_count>
52

>  <b_double>
1

>  <b_heavy>
31

>  <b_max1len>
2

>  <b_rotN>
5

>  <b_rotR>
0.16129032

>  <b_single>
35

>  <b_triple>
0

>  <chi0>
19.672998

>  <chi0v>
15.714376

>  <chi0v_C>
11.715178

>  <chi0_C>
12.982763

>  <chi1>
13.600886

>  <chi1v>
8.8739643

>  <chi1v_C>
4.1100426

>  <chi1_C>
5.3745747

>  <chiral>
0

>  <chiral_u>
0

>  <density>
0.7737776

>  <diameter>
15

>  <FCharge>
0

>  <GCUT_PEOE_0>
-0.83880752

>  <GCUT_PEOE_1>
-0.4185243

>  <GCUT_PEOE_2>
-0.0048494553

>  <GCUT_PEOE_3>
2.6652553

>  <GCUT_SLOGP_0>
-1.3348311

>  <GCUT_SLOGP_1>
-0.41181797

>  <GCUT_SLOGP_2>
0.10305849

>  <GCUT_SLOGP_3>
2.7024474

>  <GCUT_SMR_0>
-0.50274479

>  <GCUT_SMR_1>
-0.19764602

>  <GCUT_SMR_2>
0.16069359

>  <GCUT_SMR_3>
2.9408853

>  <Kier1>
21.240376

>  <Kier2>
9.4276857

>  <Kier3>
4.54179

>  <KierA1>
15.526747

>  <KierA2>
6.8055172

>  <KierA3>
3.2492967

>  <KierFlex>
3.7738409

>  <lip_acc>
9

>  <lip_don>
2

>  <lip_druglike>
1

>  <lip_violation>
0

>  <logP(o/w)>
0.18774

>  <logS>
-4.5313601

>  <mr>
10.237929

>  <mutagenic>
1

>  <nmol>
1

>  <opr_brigid>
22

>  <opr_leadlike>
1

>  <opr_nring>
4

>  <opr_nrot>
6

>  <opr_violation>
1

>  <PC+>
0

>  <PC->
0

>  <PEOE_PC+>
2.7480106

>  <PEOE_PC->
-2.7480106

>  <PEOE_RPC+>
0.105506

>  <PEOE_RPC->
0.16670178

>  <PEOE_VSA+0>
122.0347

>  <PEOE_VSA+1>
84.919838

>  <PEOE_VSA+2>
49.611015

>  <PEOE_VSA+3>
8.458519

>  <PEOE_VSA+4>
15.681574

>  <PEOE_VSA+5>
12.949531

>  <PEOE_VSA+6>
0

>  <PEOE_VSA-0>
49.019615

>  <PEOE_VSA-1>
0

>  <PEOE_VSA-2>
0

>  <PEOE_VSA-3>
0

>  <PEOE_VSA-4>
11.365152

>  <PEOE_VSA-5>
20.21804

>  <PEOE_VSA-6>
7.5112681

>  <PEOE_VSA_FHYD>
0.82260078

>  <PEOE_VSA_FNEG>
0.23080453

>  <PEOE_VSA_FPNEG>
0.10240338

>  <PEOE_VSA_FPOL>
0.17739922

>  <PEOE_VSA_FPOS>
0.76919544

>  <PEOE_VSA_FPPOS>
0.074995838

>  <PEOE_VSA_HYD>
314.04367

>  <PEOE_VSA_NEG>
88.114075

>  <PEOE_VSA_PNEG>
39.09446

>  <PEOE_VSA_POL>
67.725563

>  <PEOE_VSA_POS>
293.65518

>  <PEOE_VSA_PPOS>
28.631105

>  <petitjean>
0.46666667

>  <petitjeanSC>
0.875

>  <Q_PC+>
0

>  <Q_PC->
0

>  <Q_RPC+>
0

>  <Q_RPC->
0

>  <Q_VSA_FHYD>
1

>  <Q_VSA_FNEG>
0

>  <Q_VSA_FPNEG>
0

>  <Q_VSA_FPOL>
0

>  <Q_VSA_FPOS>
1

>  <Q_VSA_FPPOS>
0

>  <Q_VSA_HYD>
381.76926

>  <Q_VSA_NEG>
0

>  <Q_VSA_PNEG>
0

>  <Q_VSA_POL>
0

>  <Q_VSA_POS>
381.76926

>  <Q_VSA_PPOS>
0

>  <radius>
8

>  <reactive>
0

>  <rings>
4

>  <RPC+>
0

>  <RPC->
0

>  <rsynth>
1

>  <SlogP>
1.7846

>  <SlogP_VSA0>
58.021278

>  <SlogP_VSA1>
41.954155

>  <SlogP_VSA2>
0

>  <SlogP_VSA3>
73.758316

>  <SlogP_VSA4>
29.311037

>  <SlogP_VSA5>
80.275085

>  <SlogP_VSA6>
0

>  <SlogP_VSA7>
95.196266

>  <SlogP_VSA8>
0

>  <SlogP_VSA9>
14.713869

>  <SMR>
10.38789

>  <SMR_VSA0>
33.369564

>  <SMR_VSA1>
58.695148

>  <SMR_VSA2>
3.1243138

>  <SMR_VSA3>
15.935678

>  <SMR_VSA4>
8.9441147

>  <SMR_VSA5>
123.37636

>  <SMR_VSA6>
79.017097

>  <SMR_VSA7>
70.767738

>  <TPSA>
106.95

>  <VAdjEq>
0.39893496

>  <VAdjMa>
5.9541965

>  <VDistEq>
3.6639705

>  <VDistMa>
9.2930641

>  <vdw_area>
381.76926

>  <vdw_vol>
495.50156

>  <vsa_acc>
29.939585

>  <vsa_acid>
0

>  <vsa_base>
0

>  <vsa_don>
17.742489

>  <vsa_hyd>
241.57399

>  <vsa_other>
72.842415

>  <vsa_pol>
47.682076

>  <Weight>
383.40799

>  <weinerPath>
2195

>  <weinerPol>
47

>  <zagreb>
150

$$$$