OC=1c2c(C(=O)C=3C=1C=CNC=3)c(NCCN)ccc2N=CCN
  MOE2013           2D

 24 26  0  0  0  0  0  0  0  0999 V2000
    0.0000    0.0000    0.0000 O   0  0  0  0  0  0  0  0  0  0  0  0
   -1.5000    0.0000    0.0000 C   0  0  0  0  0  0  0  0  0  0  0  0
   -2.2500   -1.2990    0.0000 C   0  0  0  0  0  0  0  0  0  0  0  0
   -3.7500   -1.2990    0.0000 C   0  0  0  0  0  0  0  0  0  0  0  0
   -4.5000    0.0000    0.0000 C   0  0  0  0  0  0  0  0  0  0  0  0
   -6.0000    0.0000    0.0000 O   0  0  0  0  0  0  0  0  0  0  0  0
   -3.7500    1.2990    0.0000 C   0  0  0  0  0  0  0  0  0  0  0  0
   -2.2500    1.2990    0.0000 C   0  0  0  0  0  0  0  0  0  0  0  0
   -1.5000    2.5980    0.0000 C   0  0  0  0  0  0  0  0  0  0  0  0
   -2.2500    3.8970    0.0000 C   0  0  0  0  0  0  0  0  0  0  0  0
   -3.7500    3.8970    0.0000 N   0  0  0  0  0  0  0  0  0  0  0  0
   -4.5000    2.5980    0.0000 C   0  0  0  0  0  0  0  0  0  0  0  0
   -4.5000   -2.5980    0.0000 C   0  0  0  0  0  0  0  0  0  0  0  0
   -6.0000   -2.5980    0.0000 N   0  0  0  0  0  0  0  0  0  0  0  0
   -6.7500   -3.8970    0.0000 C   0  0  0  0  0  0  0  0  0  0  0  0
   -8.2500   -3.8970    0.0000 C   0  0  0  0  0  0  0  0  0  0  0  0
   -9.0000   -5.1960    0.0000 N   0  0  0  0  0  0  0  0  0  0  0  0
   -3.7500   -3.8970    0.0000 C   0  0  0  0  0  0  0  0  0  0  0  0
   -2.2500   -3.8970    0.0000 C   0  0  0  0  0  0  0  0  0  0  0  0
   -1.5000   -2.5980    0.0000 C   0  0  0  0  0  0  0  0  0  0  0  0
    0.0000   -2.5980    0.0000 N   0  0  0  0  0  0  0  0  0  0  0  0
    0.7500   -3.8970    0.0000 C   0  0  0  0  0  0  0  0  0  0  0  0
    2.2500   -3.8970    0.0000 C   0  0  0  0  0  0  0  0  0  0  0  0
    3.0000   -5.1960    0.0000 N   0  0  0  0  0  0  0  0  0  0  0  0
  1  2  1  0  0  0  0
  2  3  1  0  0  0  0
  2  8  2  0  0  0  0
  3  4  1  0  0  0  0
  3 20  2  0  0  0  0
  4  5  1  0  0  0  0
  4 13  2  0  0  0  0
  5  6  2  0  0  0  0
  5  7  1  0  0  0  0
  7  8  1  0  0  0  0
  7 12  2  0  0  0  0
  8  9  1  0  0  0  0
  9 10  2  0  0  0  0
 10 11  1  0  0  0  0
 11 12  1  0  0  0  0
 13 14  1  0  0  0  0
 13 18  1  0  0  0  0
 14 15  1  0  0  0  0
 15 16  1  0  0  0  0
 16 17  1  0  0  0  0
 18 19  2  0  0  0  0
 19 20  1  0  0  0  0
 20 21  1  0  0  0  0
 21 22  2  3  0  0  0
 22 23  1  0  0  0  0
 23 24  1  0  0  0  0
M  END
>  <Index>
878

>  <ID>
HT1701

>  <class>
0

>  <apol>
49.693066

>  <ast_fraglike>
0

>  <ast_fraglike_ext>
0

>  <ast_violation>
3

>  <ast_violation_ext>
5

>  <a_acc>
5

>  <a_acid>
0

>  <a_aro>
6

>  <a_base>
0

>  <a_count>
43

>  <a_don>
5

>  <a_donacc>
10

>  <a_heavy>
24

>  <a_hyd>
15

>  <a_IC>
69.522255

>  <a_ICM>
1.6167966

>  <a_nB>
0

>  <a_nBr>
0

>  <a_nC>
17

>  <a_nCl>
0

>  <a_nF>
0

>  <a_nH>
19

>  <a_nI>
0

>  <a_nN>
5

>  <a_nO>
2

>  <a_nP>
0

>  <a_nS>
0

>  <balabanJ>
1.8320419

>  <BCUT_PEOE_0>
-2.5190606

>  <BCUT_PEOE_1>
-0.68829089

>  <BCUT_PEOE_2>
0.73391354

>  <BCUT_PEOE_3>
2.4458249

>  <BCUT_SLOGP_0>
-2.7336528

>  <BCUT_SLOGP_1>
-0.62721854

>  <BCUT_SLOGP_2>
0.78497344

>  <BCUT_SLOGP_3>
2.4978056

>  <BCUT_SMR_0>
-2.2240143

>  <BCUT_SMR_1>
-0.51815796

>  <BCUT_SMR_2>
0.88484615

>  <BCUT_SMR_3>
2.7566819

>  <bpol>
23.048933

>  <b_1rotN>
5

>  <b_1rotR>
0.1923077

>  <b_ar>
6

>  <b_count>
45

>  <b_double>
5

>  <b_heavy>
26

>  <b_max1len>
5

>  <b_rotN>
5

>  <b_rotR>
0.1923077

>  <b_single>
34

>  <b_triple>
0

>  <chi0>
17.104084

>  <chi0v>
13.042798

>  <chi0v_C>
9.5854216

>  <chi0_C>
10.982763

>  <chi1>
11.68507

>  <chi1v>
7.6365523

>  <chi1v_C>
4.7296157

>  <chi1_C>
6.2996597

>  <chiral>
0

>  <chiral_u>
0

>  <density>
0.75115281

>  <diameter>
11

>  <FCharge>
0

>  <GCUT_PEOE_0>
-0.83766603

>  <GCUT_PEOE_1>
-0.42467389

>  <GCUT_PEOE_2>
0.13308948

>  <GCUT_PEOE_3>
2.6135306

>  <GCUT_SLOGP_0>
-1.3633205

>  <GCUT_SLOGP_1>
-0.32394201

>  <GCUT_SLOGP_2>
0.20704959

>  <GCUT_SLOGP_3>
2.7019694

>  <GCUT_SMR_0>
-0.50356567

>  <GCUT_SMR_1>
-0.22843176

>  <GCUT_SMR_2>
0.2424731

>  <GCUT_SMR_3>
2.9228966

>  <Kier1>
18.781065

>  <Kier2>
8.5895061

>  <Kier3>
3.7588758

>  <KierA1>
13.365939

>  <KierA2>
6.0147572

>  <KierA3>
2.6015625

>  <KierFlex>
3.3497031

>  <lip_acc>
7

>  <lip_don>
7

>  <lip_druglike>
1

>  <lip_violation>
1

>  <logP(o/w)>
-0.792

>  <logS>
-1.80821

>  <mr>
8.9922533

>  <mutagenic>
0

>  <nmol>
1

>  <opr_brigid>
17

>  <opr_leadlike>
1

>  <opr_nring>
3

>  <opr_nrot>
5

>  <opr_violation>
1

>  <PC+>
0

>  <PC->
0

>  <PEOE_PC+>
2.2534494

>  <PEOE_PC->
-2.2534494

>  <PEOE_RPC+>
0.096458204

>  <PEOE_RPC->
0.15910977

>  <PEOE_VSA+0>
95.240379

>  <PEOE_VSA+1>
42.958927

>  <PEOE_VSA+2>
51.714077

>  <PEOE_VSA+3>
8.458519

>  <PEOE_VSA+4>
10.324173

>  <PEOE_VSA+5>
0

>  <PEOE_VSA+6>
0

>  <PEOE_VSA-0>
70.256546

>  <PEOE_VSA-1>
0

>  <PEOE_VSA-2>
0

>  <PEOE_VSA-3>
0

>  <PEOE_VSA-4>
0

>  <PEOE_VSA-5>
19.523279

>  <PEOE_VSA-6>
21.069778

>  <PEOE_VSA_FHYD>
0.84065741

>  <PEOE_VSA_FNEG>
0.34689751

>  <PEOE_VSA_FPNEG>
0.12703367

>  <PEOE_VSA_FPOL>
0.15934257

>  <PEOE_VSA_FPOS>
0.65310246

>  <PEOE_VSA_FPPOS>
0.03230891

>  <PEOE_VSA_HYD>
268.62845

>  <PEOE_VSA_NEG>
110.8496

>  <PEOE_VSA_PNEG>
40.59306

>  <PEOE_VSA_POL>
50.917233

>  <PEOE_VSA_POS>
208.69608

>  <PEOE_VSA_PPOS>
10.324173

>  <petitjean>
0.45454547

>  <petitjeanSC>
0.83333331

>  <Q_PC+>
0

>  <Q_PC->
0

>  <Q_RPC+>
0

>  <Q_RPC->
0

>  <Q_VSA_FHYD>
1

>  <Q_VSA_FNEG>
0

>  <Q_VSA_FPNEG>
0

>  <Q_VSA_FPOL>
0

>  <Q_VSA_FPOS>
1

>  <Q_VSA_FPPOS>
0

>  <Q_VSA_HYD>
319.54568

>  <Q_VSA_NEG>
0

>  <Q_VSA_PNEG>
0

>  <Q_VSA_POL>
0

>  <Q_VSA_POS>
319.54568

>  <Q_VSA_PPOS>
0

>  <radius>
6

>  <reactive>
0

>  <rings>
3

>  <RPC+>
0

>  <RPC->
0

>  <rsynth>
0.54166669

>  <SlogP>
1.1844

>  <SlogP_VSA0>
83.805122

>  <SlogP_VSA1>
23.698362

>  <SlogP_VSA2>
17.214357

>  <SlogP_VSA3>
80.703964

>  <SlogP_VSA4>
30.233366

>  <SlogP_VSA5>
23.156679

>  <SlogP_VSA6>
0

>  <SlogP_VSA7>
92.601692

>  <SlogP_VSA8>
0

>  <SlogP_VSA9>
5.513495

>  <SMR>
9.5430498

>  <SMR_VSA0>
23.862217

>  <SMR_VSA1>
16.78553

>  <SMR_VSA2>
43.395977

>  <SMR_VSA3>
12.7423

>  <SMR_VSA4>
94.56205

>  <SMR_VSA5>
87.358269

>  <SMR_VSA6>
61.006344

>  <SMR_VSA7>
17.214357

>  <TPSA>
125.76

>  <VAdjEq>
0.43739632

>  <VAdjMa>
5.7004399

>  <VDistEq>
3.139771

>  <VDistMa>
8.9131088

>  <vdw_area>
319.54568

>  <vdw_vol>
433.16351

>  <vsa_acc>
19.249496

>  <vsa_acid>
0

>  <vsa_base>
0

>  <vsa_don>
11.365152

>  <vsa_hyd>
179.61479

>  <vsa_other>
28.758026

>  <vsa_pol>
79.66655

>  <Weight>
325.37198

>  <weinerPath>
1230

>  <weinerPol>
43

>  <zagreb>
124

$$$$