Clc1cc(N)cc(Cl)c1
  MOE2013           2D

  9  9  0  0  0  0  0  0  0  0999 V2000
    0.0000    0.0000    0.0000 Cl  0  0  0  0  0  0  0  0  0  0  0  0
   -1.5000    0.0000    0.0000 C   0  0  0  0  0  0  0  0  0  0  0  0
   -2.2500    1.2990    0.0000 C   0  0  0  0  0  0  0  0  0  0  0  0
   -3.7500    1.2990    0.0000 C   0  0  0  0  0  0  0  0  0  0  0  0
   -4.5000    2.5980    0.0000 N   0  0  0  0  0  0  0  0  0  0  0  0
   -4.5000    0.0000    0.0000 C   0  0  0  0  0  0  0  0  0  0  0  0
   -3.7500   -1.2990    0.0000 C   0  0  0  0  0  0  0  0  0  0  0  0
   -4.5000   -2.5980    0.0000 Cl  0  0  0  0  0  0  0  0  0  0  0  0
   -2.2500   -1.2990    0.0000 C   0  0  0  0  0  0  0  0  0  0  0  0
  1  2  1  0  0  0  0
  2  3  1  0  0  0  0
  2  9  2  0  0  0  0
  3  4  2  0  0  0  0
  4  5  1  0  0  0  0
  4  6  1  0  0  0  0
  6  7  2  0  0  0  0
  7  8  1  0  0  0  0
  7  9  1  0  0  0  0
M  END
>  <Index>
9

>  <ID>
HT0035

>  <class>
0

>  <apol>
19.353966

>  <ast_fraglike>
1

>  <ast_fraglike_ext>
1

>  <ast_violation>
0

>  <ast_violation_ext>
0

>  <a_acc>
0

>  <a_acid>
0

>  <a_aro>
6

>  <a_base>
0

>  <a_count>
14

>  <a_don>
1

>  <a_donacc>
1

>  <a_heavy>
9

>  <a_hyd>
8

>  <a_IC>
24.183554

>  <a_ICM>
1.7273967

>  <a_nB>
0

>  <a_nBr>
0

>  <a_nC>
6

>  <a_nCl>
2

>  <a_nF>
0

>  <a_nH>
5

>  <a_nI>
0

>  <a_nN>
1

>  <a_nO>
0

>  <a_nP>
0

>  <a_nS>
0

>  <balabanJ>
2.4033213

>  <BCUT_PEOE_0>
-2.1994829

>  <BCUT_PEOE_1>
-0.63776124

>  <BCUT_PEOE_2>
0.62885529

>  <BCUT_PEOE_3>
2.1466031

>  <BCUT_SLOGP_0>
-2.3216794

>  <BCUT_SLOGP_1>
-0.29309151

>  <BCUT_SLOGP_2>
0.98277587

>  <BCUT_SLOGP_3>
2.3650489

>  <BCUT_SMR_0>
-1.8451245

>  <BCUT_SMR_1>
-0.29131201

>  <BCUT_SMR_2>
0.98687708

>  <BCUT_SMR_3>
2.5004146

>  <bpol>
5.6460352

>  <b_1rotN>
0

>  <b_1rotR>
0

>  <b_ar>
6

>  <b_count>
14

>  <b_double>
0

>  <b_heavy>
9

>  <b_max1len>
2

>  <b_rotN>
0

>  <b_rotR>
0

>  <b_single>
8

>  <b_triple>
0

>  <chi0>
6.8533711

>  <chi0v>
6.077188

>  <chi0v_C>
3.2320509

>  <chi0_C>
3.8533711

>  <chi1>
4.1815405

>  <chi1v>
3.1546195

>  <chi1v_C>
1.7320508

>  <chi1_C>
2.4494898

>  <chiral>
0

>  <chiral_u>
0

>  <density>
0.92343158

>  <diameter>
4

>  <FCharge>
0

>  <GCUT_PEOE_0>
-0.81132531

>  <GCUT_PEOE_1>
-0.39655259

>  <GCUT_PEOE_2>
0.028682154

>  <GCUT_PEOE_3>
1.9062049

>  <GCUT_SLOGP_0>
-1.334216

>  <GCUT_SLOGP_1>
-0.10692436

>  <GCUT_SLOGP_2>
0.40852281

>  <GCUT_SLOGP_3>
2.1341145

>  <GCUT_SMR_0>
-0.4062309

>  <GCUT_SMR_1>
-0.078105532

>  <GCUT_SMR_2>
0.41472408

>  <GCUT_SMR_3>
2.2461984

>  <Kier1>
7.1111112

>  <Kier2>
2.7222223

>  <Kier3>
2

>  <KierA1>
7.0133772

>  <KierA2>
2.6796961

>  <KierA3>
1.9651537

>  <KierFlex>
2.088191

>  <lip_acc>
1

>  <lip_don>
2

>  <lip_druglike>
1

>  <lip_violation>
0

>  <logP(o/w)>
2.529

>  <logS>
-2.5743401

>  <mr>
3.952908

>  <mutagenic>
1

>  <nmol>
1

>  <opr_brigid>
6

>  <opr_leadlike>
1

>  <opr_nring>
1

>  <opr_nrot>
0

>  <opr_violation>
0

>  <PC+>
0

>  <PC->
0

>  <PEOE_PC+>
0.5453577

>  <PEOE_PC->
-0.5453577

>  <PEOE_RPC+>
0.22723019

>  <PEOE_RPC->
0.55409867

>  <PEOE_VSA+0>
15.739044

>  <PEOE_VSA+1>
12.796158

>  <PEOE_VSA+2>
17.238026

>  <PEOE_VSA+3>
0

>  <PEOE_VSA+4>
0

>  <PEOE_VSA+5>
0

>  <PEOE_VSA+6>
0

>  <PEOE_VSA-0>
36.764713

>  <PEOE_VSA-1>
59.163895

>  <PEOE_VSA-2>
0

>  <PEOE_VSA-3>
0

>  <PEOE_VSA-4>
0

>  <PEOE_VSA-5>
0

>  <PEOE_VSA-6>
6.6511192

>  <PEOE_VSA_FHYD>
0.95516694

>  <PEOE_VSA_FNEG>
0.69145727

>  <PEOE_VSA_FPNEG>
0.044833079

>  <PEOE_VSA_FPOL>
0.044833079

>  <PEOE_VSA_FPOS>
0.30854276

>  <PEOE_VSA_FPPOS>
0

>  <PEOE_VSA_HYD>
141.70183

>  <PEOE_VSA_NEG>
102.57973

>  <PEOE_VSA_PNEG>
6.6511192

>  <PEOE_VSA_POL>
6.6511192

>  <PEOE_VSA_POS>
45.773228

>  <PEOE_VSA_PPOS>
0

>  <petitjean>
0.25

>  <petitjeanSC>
0.33333334

>  <Q_PC+>
0

>  <Q_PC->
0

>  <Q_RPC+>
0

>  <Q_RPC->
0

>  <Q_VSA_FHYD>
1

>  <Q_VSA_FNEG>
0

>  <Q_VSA_FPNEG>
0

>  <Q_VSA_FPOL>
0

>  <Q_VSA_FPOS>
1

>  <Q_VSA_FPPOS>
0

>  <Q_VSA_HYD>
148.35295

>  <Q_VSA_NEG>
0

>  <Q_VSA_PNEG>
0

>  <Q_VSA_POL>
0

>  <Q_VSA_POS>
148.35295

>  <Q_VSA_PPOS>
0

>  <radius>
3

>  <reactive>
0

>  <rings>
1

>  <RPC+>
0

>  <RPC->
0

>  <rsynth>
1

>  <SlogP>
2.5755999

>  <SlogP_VSA0>
32.897186

>  <SlogP_VSA1>
0

>  <SlogP_VSA2>
0

>  <SlogP_VSA3>
0

>  <SlogP_VSA4>
0

>  <SlogP_VSA5>
0

>  <SlogP_VSA6>
7.0012131

>  <SlogP_VSA7>
52.929554

>  <SlogP_VSA8>
0

>  <SlogP_VSA9>
81.054039

>  <SMR>
4.08744

>  <SMR_VSA0>
0

>  <SMR_VSA1>
0

>  <SMR_VSA2>
0

>  <SMR_VSA3>
7.0012131

>  <SMR_VSA4>
2.7567475

>  <SMR_VSA5>
85.826744

>  <SMR_VSA6>
0

>  <SMR_VSA7>
78.297287

>  <TPSA>
26.02

>  <VAdjEq>
0.7642045

>  <VAdjMa>
4.1699252

>  <VDistEq>
1.9591479

>  <VDistMa>
6.0257225

>  <vdw_area>
148.35295

>  <vdw_vol>
175.45317

>  <vsa_acc>
0

>  <vsa_acid>
0

>  <vsa_base>
0

>  <vsa_don>
17.742489

>  <vsa_hyd>
122.32842

>  <vsa_other>
0

>  <vsa_pol>
17.742489

>  <Weight>
162.019

>  <weinerPath>
84

>  <weinerPol>
9

>  <zagreb>
42

$$$$