Oc1ccc(cc1)C1(c2c(NC1=O)cccc2)c1ccc(O)cc1
  MOE2013           2D

 24 27  0  0  0  0  0  0  0  0999 V2000
    0.0000    0.0000    0.0000 O   0  0  0  0  0  0  0  0  0  0  0  0
   -1.5000   -0.0080    0.0000 C   0  0  0  0  0  0  0  0  0  0  0  0
   -2.2430   -1.3110    0.0000 C   0  0  0  0  0  0  0  0  0  0  0  0
   -3.7430   -1.3190    0.0000 C   0  0  0  0  0  0  0  0  0  0  0  0
   -4.5000   -0.0240    0.0000 C   0  0  0  0  0  0  0  0  0  0  0  0
   -3.7570    1.2790    0.0000 C   0  0  0  0  0  0  0  0  0  0  0  0
   -2.2570    1.2870    0.0000 C   0  0  0  0  0  0  0  0  0  0  0  0
   -6.0000   -0.0320    0.0000 C   0  0  0  0  0  0  0  0  0  0  0  0
   -7.4740    0.2470    0.0000 C   0  0  0  0  0  0  0  0  0  0  0  0
   -8.1940   -1.0690    0.0000 C   0  0  0  0  0  0  0  0  0  0  0  0
   -7.1650   -2.1610    0.0000 N   0  0  0  0  0  0  0  0  0  0  0  0
   -5.8090   -1.5200    0.0000 C   0  0  0  0  0  0  0  0  0  0  0  0
   -4.4930   -2.2400    0.0000 O   0  0  0  0  0  0  0  0  0  0  0  0
   -9.6940   -1.1030    0.0000 C   0  0  0  0  0  0  0  0  0  0  0  0
  -10.4730    0.1780    0.0000 C   0  0  0  0  0  0  0  0  0  0  0  0
   -9.7530    1.4940    0.0000 C   0  0  0  0  0  0  0  0  0  0  0  0
   -8.2530    1.5280    0.0000 C   0  0  0  0  0  0  0  0  0  0  0  0
   -6.0600    1.4670    0.0000 C   0  0  0  0  0  0  0  0  0  0  0  0
   -7.3880    2.1640    0.0000 C   0  0  0  0  0  0  0  0  0  0  0  0
   -7.4490    3.6630    0.0000 C   0  0  0  0  0  0  0  0  0  0  0  0
   -6.1810    4.4650    0.0000 C   0  0  0  0  0  0  0  0  0  0  0  0
   -6.2410    5.9630    0.0000 O   0  0  0  0  0  0  0  0  0  0  0  0
   -4.8530    3.7670    0.0000 C   0  0  0  0  0  0  0  0  0  0  0  0
   -4.7920    2.2690    0.0000 C   0  0  0  0  0  0  0  0  0  0  0  0
  1  2  1  0  0  0  0
  2  3  1  0  0  0  0
  2  7  2  0  0  0  0
  3  4  2  0  0  0  0
  4  5  1  0  0  0  0
  5  6  2  0  0  0  0
  5  8  1  0  0  0  0
  6  7  1  0  0  0  0
  8  9  1  0  0  0  0
  8 12  1  0  0  0  0
  8 18  1  0  0  0  0
  9 10  1  0  0  0  0
  9 17  2  0  0  0  0
 10 11  1  0  0  0  0
 10 14  2  0  0  0  0
 11 12  1  0  0  0  0
 12 13  2  0  0  0  0
 14 15  1  0  0  0  0
 15 16  2  0  0  0  0
 16 17  1  0  0  0  0
 18 19  1  0  0  0  0
 18 24  2  0  0  0  0
 19 20  2  0  0  0  0
 20 21  1  0  0  0  0
 21 22  1  0  0  0  0
 21 23  2  0  0  0  0
 23 24  1  0  0  0  0
M  END
>  <Index>
807

>  <ID>
HT1573

>  <class>
0

>  <apol>
48.707893

>  <ast_fraglike>
0

>  <ast_fraglike_ext>
0

>  <ast_violation>
2

>  <ast_violation_ext>
2

>  <a_acc>
3

>  <a_acid>
0

>  <a_aro>
18

>  <a_base>
0

>  <a_count>
39

>  <a_don>
3

>  <a_donacc>
6

>  <a_heavy>
24

>  <a_hyd>
19

>  <a_IC>
56.333878

>  <a_ICM>
1.4444584

>  <a_nB>
0

>  <a_nBr>
0

>  <a_nC>
20

>  <a_nCl>
0

>  <a_nF>
0

>  <a_nH>
15

>  <a_nI>
0

>  <a_nN>
1

>  <a_nO>
3

>  <a_nP>
0

>  <a_nS>
0

>  <balabanJ>
1.6663399

>  <BCUT_PEOE_0>
-2.3888257

>  <BCUT_PEOE_1>
-0.67556006

>  <BCUT_PEOE_2>
0.74471802

>  <BCUT_PEOE_3>
2.552108

>  <BCUT_SLOGP_0>
-2.434078

>  <BCUT_SLOGP_1>
-0.58861268

>  <BCUT_SLOGP_2>
0.80591482

>  <BCUT_SLOGP_3>
2.5674715

>  <BCUT_SMR_0>
-2.0994387

>  <BCUT_SMR_1>
-0.523094

>  <BCUT_SMR_2>
0.90227139

>  <BCUT_SMR_3>
2.8519301

>  <bpol>
18.016106

>  <b_1rotN>
2

>  <b_1rotR>
0.074074075

>  <b_ar>
18

>  <b_count>
42

>  <b_double>
1

>  <b_heavy>
27

>  <b_max1len>
2

>  <b_rotN>
2

>  <b_rotR>
0.074074075

>  <b_single>
23

>  <b_triple>
0

>  <chi0>
16.733841

>  <chi0v>
12.730879

>  <chi0v_C>
10.928204

>  <chi0_C>
13.026733

>  <chi1>
11.619064

>  <chi1v>
7.6214223

>  <chi1v_C>
6.4700847

>  <chi1_C>
9.0705166

>  <chiral>
0

>  <chiral_u>
0

>  <density>
0.74095529

>  <diameter>
10

>  <FCharge>
0

>  <GCUT_PEOE_0>
-0.81459635

>  <GCUT_PEOE_1>
-0.4541499

>  <GCUT_PEOE_2>
0.1180736

>  <GCUT_PEOE_3>
2.7043216

>  <GCUT_SLOGP_0>
-1.0077671

>  <GCUT_SLOGP_1>
-0.34526554

>  <GCUT_SLOGP_2>
0.16445385

>  <GCUT_SLOGP_3>
2.8092344

>  <GCUT_SMR_0>
-0.43697032

>  <GCUT_SMR_1>
-0.23061407

>  <GCUT_SMR_2>
0.23373796

>  <GCUT_SMR_3>
3.0058622

>  <Kier1>
17.415638

>  <Kier2>
6.9575

>  <Kier3>
2.9198506

>  <KierA1>
11.848846

>  <KierA2>
4.6469316

>  <KierA3>
1.9243259

>  <KierFlex>
2.2941992

>  <lip_acc>
4

>  <lip_don>
3

>  <lip_druglike>
1

>  <lip_violation>
0

>  <logP(o/w)>
4.2870002

>  <logS>
-4.3318601

>  <mr>
9.1262636

>  <mutagenic>
0

>  <nmol>
1

>  <opr_brigid>
22

>  <opr_leadlike>
1

>  <opr_nring>
4

>  <opr_nrot>
2

>  <opr_violation>
0

>  <PC+>
0

>  <PC->
0

>  <PEOE_PC+>
1.9210178

>  <PEOE_PC->
-1.9210178

>  <PEOE_RPC+>
0.12733991

>  <PEOE_RPC->
0.18731339

>  <PEOE_VSA+0>
6.6995511

>  <PEOE_VSA+1>
68.101669

>  <PEOE_VSA+2>
0

>  <PEOE_VSA+3>
8.6190128

>  <PEOE_VSA+4>
33.597878

>  <PEOE_VSA+5>
0

>  <PEOE_VSA+6>
0

>  <PEOE_VSA-0>
67.900139

>  <PEOE_VSA-1>
85.784325

>  <PEOE_VSA-2>
0

>  <PEOE_VSA-3>
0

>  <PEOE_VSA-4>
0

>  <PEOE_VSA-5>
13.566921

>  <PEOE_VSA-6>
15.671971

>  <PEOE_VSA_FHYD>
0.7905032

>  <PEOE_VSA_FNEG>
0.60986352

>  <PEOE_VSA_FPNEG>
0.097481996

>  <PEOE_VSA_FPOL>
0.20949677

>  <PEOE_VSA_FPOS>
0.39013648

>  <PEOE_VSA_FPPOS>
0.11201478

>  <PEOE_VSA_HYD>
237.10471

>  <PEOE_VSA_NEG>
182.92336

>  <PEOE_VSA_PNEG>
29.238892

>  <PEOE_VSA_POL>
62.836769

>  <PEOE_VSA_POS>
117.01811

>  <PEOE_VSA_PPOS>
33.597878

>  <petitjean>
0.5

>  <petitjeanSC>
1

>  <Q_PC+>
0

>  <Q_PC->
0

>  <Q_RPC+>
0

>  <Q_RPC->
0

>  <Q_VSA_FHYD>
1

>  <Q_VSA_FNEG>
0

>  <Q_VSA_FPNEG>
0

>  <Q_VSA_FPOL>
0

>  <Q_VSA_FPOS>
1

>  <Q_VSA_FPPOS>
0

>  <Q_VSA_HYD>
299.94147

>  <Q_VSA_NEG>
0

>  <Q_VSA_PNEG>
0

>  <Q_VSA_POL>
0

>  <Q_VSA_POS>
299.94147

>  <Q_VSA_PPOS>
0

>  <radius>
5

>  <reactive>
0

>  <rings>
4

>  <RPC+>
0

>  <RPC->
0

>  <rsynth>
1

>  <SlogP>
3.3843

>  <SlogP_VSA0>
50.770454

>  <SlogP_VSA1>
23.269535

>  <SlogP_VSA2>
23.862217

>  <SlogP_VSA3>
0

>  <SlogP_VSA4>
9.5567245

>  <SlogP_VSA5>
0

>  <SlogP_VSA6>
0

>  <SlogP_VSA7>
211.71822

>  <SlogP_VSA8>
0

>  <SlogP_VSA9>
13.243604

>  <SMR>
9.1167297

>  <SMR_VSA0>
23.862217

>  <SMR_VSA1>
50.770454

>  <SMR_VSA2>
0

>  <SMR_VSA3>
20.043581

>  <SMR_VSA4>
20.767498

>  <SMR_VSA5>
211.71822

>  <SMR_VSA6>
5.2587838

>  <SMR_VSA7>
0

>  <TPSA>
69.559998

>  <VAdjEq>
0.44886449

>  <VAdjMa>
5.7548876

>  <VDistEq>
2.9934597

>  <VDistMa>
8.9276514

>  <vdw_area>
299.94147

>  <vdw_vol>
428.29034

>  <vsa_acc>
13.566921

>  <vsa_acid>
0

>  <vsa_base>
0

>  <vsa_don>
5.6825762

>  <vsa_hyd>
219.94414

>  <vsa_other>
12.949531

>  <vsa_pol>
46.383339

>  <Weight>
317.34399

>  <weinerPath>
1152

>  <weinerPol>
45

>  <zagreb>
134

$$$$