N(CCCN(CC)CC)(C1Cc2c(C1)cccc2)c1ccccc1
  MOE2013           2D

 24 26  0  0  1  0  0  0  0  0999 V2000
    0.0000    0.0000    0.0000 N   0  0  3  0  0  0  0  0  0  0  0  0
    0.7580    1.2940    0.0000 C   0  0  0  0  0  0  0  0  0  0  0  0
    2.2580    1.2850    0.0000 C   0  0  0  0  0  0  0  0  0  0  0  0
    3.0160    2.5790    0.0000 C   0  0  0  0  0  0  0  0  0  0  0  0
    4.5160    2.5700    0.0000 N   0  0  0  0  0  0  0  0  0  0  0  0
    5.2740    3.8640    0.0000 C   0  0  0  0  0  0  0  0  0  0  0  0
    4.5320    5.1680    0.0000 C   0  0  0  0  0  0  0  0  0  0  0  0
    5.2580    1.2660    0.0000 C   0  0  0  0  0  0  0  0  0  0  0  0
    6.7580    1.2570    0.0000 C   0  0  0  0  0  0  0  0  0  0  0  0
   -1.5000    0.0090    0.0000 C   0  0  0  0  0  0  0  0  0  0  0  0
   -2.3890   -1.1990    0.0000 C   0  0  0  0  0  0  0  0  0  0  0  0
   -3.8130   -0.7260    0.0000 C   0  0  0  0  0  0  0  0  0  0  0  0
   -3.8040    0.7740    0.0000 C   0  0  0  0  0  0  0  0  0  0  0  0
   -2.3740    1.2280    0.0000 C   0  0  0  0  0  0  0  0  0  0  0  0
   -5.0980    1.5320    0.0000 C   0  0  0  0  0  0  0  0  0  0  0  0
   -6.4020    0.7900    0.0000 C   0  0  0  0  0  0  0  0  0  0  0  0
   -6.4110   -0.7100    0.0000 C   0  0  0  0  0  0  0  0  0  0  0  0
   -5.1170   -1.4680    0.0000 C   0  0  0  0  0  0  0  0  0  0  0  0
    0.7420   -1.3040    0.0000 C   0  0  0  0  0  0  0  0  0  0  0  0
   -0.0160   -2.5980    0.0000 C   0  0  0  0  0  0  0  0  0  0  0  0
    0.7260   -3.9020    0.0000 C   0  0  0  0  0  0  0  0  0  0  0  0
    2.2260   -3.9110    0.0000 C   0  0  0  0  0  0  0  0  0  0  0  0
    2.9840   -2.6170    0.0000 C   0  0  0  0  0  0  0  0  0  0  0  0
    2.2420   -1.3130    0.0000 C   0  0  0  0  0  0  0  0  0  0  0  0
  1  2  1  0  0  0  0
  1 10  1  0  0  0  0
  1 19  1  0  0  0  0
  2  3  1  0  0  0  0
  3  4  1  0  0  0  0
  4  5  1  0  0  0  0
  5  6  1  0  0  0  0
  5  8  1  0  0  0  0
  6  7  1  0  0  0  0
  8  9  1  0  0  0  0
 10 11  1  0  0  0  0
 10 14  1  0  0  0  0
 11 12  1  0  0  0  0
 12 13  1  0  0  0  0
 12 18  2  0  0  0  0
 13 14  1  0  0  0  0
 13 15  2  0  0  0  0
 15 16  1  0  0  0  0
 16 17  2  0  0  0  0
 17 18  1  0  0  0  0
 19 20  1  0  0  0  0
 19 24  2  0  0  0  0
 20 21  2  0  0  0  0
 21 22  1  0  0  0  0
 22 23  2  0  0  0  0
 23 24  1  0  0  0  0
M  END
>  <Index>
85

>  <ID>
HT0174

>  <class>
0

>  <apol>
60.92379

>  <ast_fraglike>
0

>  <ast_fraglike_ext>
0

>  <ast_violation>
2

>  <ast_violation_ext>
3

>  <a_acc>
1

>  <a_acid>
0

>  <a_aro>
12

>  <a_base>
0

>  <a_count>
54

>  <a_don>
0

>  <a_donacc>
1

>  <a_heavy>
24

>  <a_hyd>
22

>  <a_IC>
63.449711

>  <a_ICM>
1.1749947

>  <a_nB>
0

>  <a_nBr>
0

>  <a_nC>
22

>  <a_nCl>
0

>  <a_nF>
0

>  <a_nH>
30

>  <a_nI>
0

>  <a_nN>
2

>  <a_nO>
0

>  <a_nP>
0

>  <a_nS>
0

>  <balabanJ>
1.5703729

>  <BCUT_PEOE_0>
-2.72087

>  <BCUT_PEOE_1>
-0.53086674

>  <BCUT_PEOE_2>
0.5950436

>  <BCUT_PEOE_3>
2.6698489

>  <BCUT_SLOGP_0>
-2.7788754

>  <BCUT_SLOGP_1>
-0.4306398

>  <BCUT_SLOGP_2>
0.69628644

>  <BCUT_SLOGP_3>
2.6535845

>  <BCUT_SMR_0>
-2.4365087

>  <BCUT_SMR_1>
-0.40081844

>  <BCUT_SMR_2>
0.73417729

>  <BCUT_SMR_3>
2.956913

>  <bpol>
36.75621

>  <b_1rotN>
8

>  <b_1rotR>
0.30769232

>  <b_ar>
12

>  <b_count>
56

>  <b_double>
0

>  <b_heavy>
26

>  <b_max1len>
9

>  <b_rotN>
8

>  <b_rotR>
0.30769232

>  <b_single>
44

>  <b_triple>
0

>  <chi0>
16.777811

>  <chi0v>
15.117678

>  <chi0v_C>
14.22325

>  <chi0_C>
15.62311

>  <chi1>
11.813193

>  <chi1v>
9.4225674

>  <chi1v_C>
7.6758509

>  <chi1_C>
9.5135336

>  <chiral>
0

>  <chiral_u>
0

>  <density>
0.63228893

>  <diameter>
11

>  <FCharge>
0

>  <GCUT_PEOE_0>
-0.86135375

>  <GCUT_PEOE_1>
-0.34577283

>  <GCUT_PEOE_2>
0.060293183

>  <GCUT_PEOE_3>
2.8414171

>  <GCUT_SLOGP_0>
-0.98645365

>  <GCUT_SLOGP_1>
-0.2703588

>  <GCUT_SLOGP_2>
0.14179434

>  <GCUT_SLOGP_3>
2.8989396

>  <GCUT_SMR_0>
-0.52370584

>  <GCUT_SMR_1>
-0.18169123

>  <GCUT_SMR_2>
0.16149837

>  <GCUT_SMR_3>
3.1109376

>  <Kier1>
18.781065

>  <Kier2>
9.6297579

>  <Kier3>
5.0192595

>  <KierA1>
14.904194

>  <KierA2>
7.5599194

>  <KierA3>
3.9098868

>  <KierFlex>
4.6947708

>  <lip_acc>
2

>  <lip_don>
0

>  <lip_druglike>
1

>  <lip_violation>
0

>  <logP(o/w)>
4.7249999

>  <logS>
-4.0796099

>  <mr>
10.246835

>  <mutagenic>
0

>  <nmol>
1

>  <opr_brigid>
16

>  <opr_leadlike>
1

>  <opr_nring>
3

>  <opr_nrot>
8

>  <opr_violation>
0

>  <PC+>
0

>  <PC->
0

>  <PEOE_PC+>
1.3293483

>  <PEOE_PC->
-1.3293483

>  <PEOE_RPC+>
0.047633622

>  <PEOE_RPC->
0.22777416

>  <PEOE_VSA+0>
125.80327

>  <PEOE_VSA+1>
38.388474

>  <PEOE_VSA+2>
0

>  <PEOE_VSA+3>
0

>  <PEOE_VSA+4>
0

>  <PEOE_VSA+5>
0

>  <PEOE_VSA+6>
0

>  <PEOE_VSA-0>
81.415474

>  <PEOE_VSA-1>
123.27969

>  <PEOE_VSA-2>
0

>  <PEOE_VSA-3>
0

>  <PEOE_VSA-4>
0

>  <PEOE_VSA-5>
0

>  <PEOE_VSA-6>
0

>  <PEOE_VSA_FHYD>
1

>  <PEOE_VSA_FNEG>
0.55489951

>  <PEOE_VSA_FPNEG>
0

>  <PEOE_VSA_FPOL>
0

>  <PEOE_VSA_FPOS>
0.44510049

>  <PEOE_VSA_FPPOS>
0

>  <PEOE_VSA_HYD>
368.8869

>  <PEOE_VSA_NEG>
204.69516

>  <PEOE_VSA_PNEG>
0

>  <PEOE_VSA_POL>
0

>  <PEOE_VSA_POS>
164.19174

>  <PEOE_VSA_PPOS>
0

>  <petitjean>
0.45454547

>  <petitjeanSC>
0.83333331

>  <Q_PC+>
0

>  <Q_PC->
0

>  <Q_RPC+>
0

>  <Q_RPC->
0

>  <Q_VSA_FHYD>
1

>  <Q_VSA_FNEG>
0

>  <Q_VSA_FPNEG>
0

>  <Q_VSA_FPOL>
0

>  <Q_VSA_FPOS>
1

>  <Q_VSA_FPPOS>
0

>  <Q_VSA_HYD>
368.8869

>  <Q_VSA_NEG>
0

>  <Q_VSA_PNEG>
0

>  <Q_VSA_POL>
0

>  <Q_VSA_POS>
368.8869

>  <Q_VSA_PPOS>
0

>  <radius>
6

>  <reactive>
0

>  <rings>
3

>  <RPC+>
0

>  <RPC->
0

>  <rsynth>
1

>  <SlogP>
4.39224

>  <SlogP_VSA0>
3.1243138

>  <SlogP_VSA1>
3.1243138

>  <SlogP_VSA2>
3.9819686

>  <SlogP_VSA3>
73.758316

>  <SlogP_VSA4>
6.37115

>  <SlogP_VSA5>
37.736813

>  <SlogP_VSA6>
0

>  <SlogP_VSA7>
158.78867

>  <SlogP_VSA8>
18.868406

>  <SlogP_VSA9>
69.408775

>  <SMR>
10.3831

>  <SMR_VSA0>
0

>  <SMR_VSA1>
3.1243138

>  <SMR_VSA2>
3.1243138

>  <SMR_VSA3>
10.353119

>  <SMR_VSA4>
2.7567475

>  <SMR_VSA5>
215.39388

>  <SMR_VSA6>
73.758316

>  <SMR_VSA7>
66.652031

>  <TPSA>
6.48

>  <VAdjEq>
0.43739632

>  <VAdjMa>
5.7004399

>  <VDistEq>
3.3231411

>  <VDistMa>
8.8927231

>  <vdw_area>
368.8869

>  <vdw_vol>
510.04532

>  <vsa_acc>
0

>  <vsa_acid>
0

>  <vsa_base>
0

>  <vsa_don>
0

>  <vsa_hyd>
347.53305

>  <vsa_other>
0

>  <vsa_pol>
0

>  <Weight>
322.496

>  <weinerPath>
1395

>  <weinerPol>
34

>  <zagreb>
120

$$$$