s1c2CCN(Cc2cc1OC(=O)C)C(C(=O)C1CC1)c1ccccc1F
  MOE2013           2D

 26 29  0  0  1  0  0  0  0  0999 V2000
    0.0000    0.0000    0.0000 S   0  0  0  0  0  0  0  0  0  0  0  0
   -1.4650   -0.3220    0.0000 C   0  0  0  0  0  0  0  0  0  0  0  0
   -2.2060   -1.6260    0.0000 C   0  0  0  0  0  0  0  0  0  0  0  0
   -3.7060   -1.6360    0.0000 C   0  0  0  0  0  0  0  0  0  0  0  0
   -4.4650   -0.3420    0.0000 N   0  0  3  0  0  0  0  0  0  0  0  0
   -3.7240    0.9620    0.0000 C   0  0  0  0  0  0  0  0  0  0  0  0
   -2.2240    0.9720    0.0000 C   0  0  0  0  0  0  0  0  0  0  0  0
   -1.2280    2.0940    0.0000 C   0  0  0  0  0  0  0  0  0  0  0  0
    0.1470    1.4930    0.0000 C   0  0  0  0  0  0  0  0  0  0  0  0
    1.4410    2.2510    0.0000 O   0  0  0  0  0  0  0  0  0  0  0  0
    2.7450    1.5100    0.0000 C   0  0  0  0  0  0  0  0  0  0  0  0
    2.7550    0.0100    0.0000 O   0  0  0  0  0  0  0  0  0  0  0  0
    4.0390    2.2690    0.0000 C   0  0  0  0  0  0  0  0  0  0  0  0
   -5.9650   -0.3520    0.0000 C   0  0  3  0  0  0  0  0  0  0  0  0
   -6.7060   -1.6560    0.0000 C   0  0  0  0  0  0  0  0  0  0  0  0
   -8.2060   -1.6660    0.0000 O   0  0  0  0  0  0  0  0  0  0  0  0
   -5.9480   -2.9500    0.0000 C   0  0  0  0  0  0  0  0  0  0  0  0
   -4.6440   -3.6910    0.0000 C   0  0  0  0  0  0  0  0  0  0  0  0
   -5.9380   -4.4500    0.0000 C   0  0  0  0  0  0  0  0  0  0  0  0
   -6.7240    0.9420    0.0000 C   0  0  0  0  0  0  0  0  0  0  0  0
   -5.9820    2.2460    0.0000 C   0  0  0  0  0  0  0  0  0  0  0  0
   -6.7410    3.5400    0.0000 C   0  0  0  0  0  0  0  0  0  0  0  0
   -8.2410    3.5300    0.0000 C   0  0  0  0  0  0  0  0  0  0  0  0
   -8.9820    2.2260    0.0000 C   0  0  0  0  0  0  0  0  0  0  0  0
   -8.2240    0.9320    0.0000 C   0  0  0  0  0  0  0  0  0  0  0  0
   -8.9650   -0.3720    0.0000 F   0  0  0  0  0  0  0  0  0  0  0  0
  1  2  1  0  0  0  0
  1  9  1  0  0  0  0
  2  3  1  0  0  0  0
  2  7  2  0  0  0  0
  3  4  1  0  0  0  0
  4  5  1  0  0  0  0
  5  6  1  0  0  0  0
  5 14  1  0  0  0  0
  6  7  1  0  0  0  0
  7  8  1  0  0  0  0
  8  9  2  0  0  0  0
  9 10  1  0  0  0  0
 10 11  1  0  0  0  0
 11 12  2  0  0  0  0
 11 13  1  0  0  0  0
 14 15  1  0  0  0  0
 14 20  1  0  0  0  0
 15 16  2  0  0  0  0
 15 17  1  0  0  0  0
 17 18  1  0  0  0  0
 17 19  1  0  0  0  0
 18 19  1  0  0  0  0
 20 21  1  0  0  0  0
 20 25  2  0  0  0  0
 21 22  2  0  0  0  0
 22 23  1  0  0  0  0
 23 24  2  0  0  0  0
 24 25  1  0  0  0  0
 25 26  1  0  0  0  0
M  END
>  <Index>
888

>  <ID>
HT1724

>  <class>
0

>  <apol>
55.498859

>  <ast_fraglike>
0

>  <ast_fraglike_ext>
0

>  <ast_violation>
2

>  <ast_violation_ext>
3

>  <a_acc>
3

>  <a_acid>
0

>  <a_aro>
11

>  <a_base>
0

>  <a_count>
46

>  <a_don>
0

>  <a_donacc>
3

>  <a_heavy>
26

>  <a_hyd>
20

>  <a_IC>
76.451836

>  <a_ICM>
1.6619965

>  <a_nB>
0

>  <a_nBr>
0

>  <a_nC>
20

>  <a_nCl>
0

>  <a_nF>
1

>  <a_nH>
20

>  <a_nI>
0

>  <a_nN>
1

>  <a_nO>
3

>  <a_nP>
0

>  <a_nS>
1

>  <balabanJ>
1.4463611

>  <BCUT_PEOE_0>
-2.6655412

>  <BCUT_PEOE_1>
-0.51615959

>  <BCUT_PEOE_2>
0.58092463

>  <BCUT_PEOE_3>
2.7884271

>  <BCUT_SLOGP_0>
-2.6635201

>  <BCUT_SLOGP_1>
-0.41660056

>  <BCUT_SLOGP_2>
0.68126374

>  <BCUT_SLOGP_3>
2.8593609

>  <BCUT_SMR_0>
-2.3808725

>  <BCUT_SMR_1>
-0.38959023

>  <BCUT_SMR_2>
0.72778064

>  <BCUT_SMR_3>
3.036921

>  <bpol>
31.15914

>  <b_1rotN>
5

>  <b_1rotR>
0.1724138

>  <b_ar>
11

>  <b_count>
49

>  <b_double>
2

>  <b_heavy>
29

>  <b_max1len>
4

>  <b_rotN>
6

>  <b_rotR>
0.20689656

>  <b_single>
36

>  <b_triple>
0

>  <chi0>
18.258783

>  <chi0v>
15.351654

>  <chi0v_C>
12.076985

>  <chi0_C>
13.26722

>  <chi1>
12.524878

>  <chi1v>
9.6652079

>  <chi1v_C>
6.5443292

>  <chi1_C>
8.0100031

>  <chiral>
1

>  <chiral_u>
1

>  <density>
0.78814125

>  <diameter>
12

>  <FCharge>
0

>  <GCUT_PEOE_0>
-0.83136141

>  <GCUT_PEOE_1>
-0.43381101

>  <GCUT_PEOE_2>
0.047127422

>  <GCUT_PEOE_3>
2.7644105

>  <GCUT_SLOGP_0>
-0.91090262

>  <GCUT_SLOGP_1>
-0.3007988

>  <GCUT_SLOGP_2>
0.14025831

>  <GCUT_SLOGP_3>
2.8509405

>  <GCUT_SMR_0>
-0.50968349

>  <GCUT_SMR_1>
-0.21586105

>  <GCUT_SMR_2>
0.19327506

>  <GCUT_SMR_3>
3.0337594

>  <Kier1>
19.322235

>  <Kier2>
8.1632652

>  <Kier3>
4.0775623

>  <KierA1>
16.171701

>  <KierA2>
6.780828

>  <KierA3>
3.3687816

>  <KierFlex>
4.217597

>  <lip_acc>
4

>  <lip_don>
0

>  <lip_druglike>
1

>  <lip_violation>
0

>  <logP(o/w)>
3.665

>  <logS>
-4.6147399

>  <mr>
10.107182

>  <mutagenic>
0

>  <nmol>
1

>  <opr_brigid>
19

>  <opr_leadlike>
1

>  <opr_nring>
4

>  <opr_nrot>
6

>  <opr_violation>
0

>  <PC+>
0

>  <PC->
0

>  <PEOE_PC+>
1.8171729

>  <PEOE_PC->
-1.8171729

>  <PEOE_RPC+>
0.14482038

>  <PEOE_RPC->
0.16238447

>  <PEOE_VSA+0>
117.49085

>  <PEOE_VSA+1>
28.738277

>  <PEOE_VSA+2>
9.0208454

>  <PEOE_VSA+3>
28.219137

>  <PEOE_VSA+4>
0

>  <PEOE_VSA+5>
14.708499

>  <PEOE_VSA+6>
0

>  <PEOE_VSA-0>
52.822289

>  <PEOE_VSA-1>
40.949314

>  <PEOE_VSA-2>
0

>  <PEOE_VSA-3>
0

>  <PEOE_VSA-4>
11.908636

>  <PEOE_VSA-5>
29.637598

>  <PEOE_VSA-6>
0

>  <PEOE_VSA_FHYD>
0.83131784

>  <PEOE_VSA_FNEG>
0.40575618

>  <PEOE_VSA_FPNEG>
0.12457811

>  <PEOE_VSA_FPOL>
0.16868216

>  <PEOE_VSA_FPOS>
0.59424382

>  <PEOE_VSA_FPPOS>
0.044104047

>  <PEOE_VSA_HYD>
277.24072

>  <PEOE_VSA_NEG>
135.31784

>  <PEOE_VSA_PNEG>
41.546234

>  <PEOE_VSA_POL>
56.254734

>  <PEOE_VSA_POS>
198.17761

>  <PEOE_VSA_PPOS>
14.708499

>  <petitjean>
0.5

>  <petitjeanSC>
1

>  <Q_PC+>
0

>  <Q_PC->
0

>  <Q_RPC+>
0

>  <Q_RPC->
0

>  <Q_VSA_FHYD>
1

>  <Q_VSA_FNEG>
0

>  <Q_VSA_FPNEG>
0

>  <Q_VSA_FPOL>
0

>  <Q_VSA_FPOS>
1

>  <Q_VSA_FPPOS>
0

>  <Q_VSA_HYD>
333.49545

>  <Q_VSA_NEG>
0

>  <Q_VSA_PNEG>
0

>  <Q_VSA_POL>
0

>  <Q_VSA_POS>
333.49545

>  <Q_VSA_PPOS>
0

>  <radius>
6

>  <reactive>
1

>  <rings>
4

>  <RPC+>
0

>  <RPC->
0

>  <rsynth>
1

>  <SlogP>
4.2528701

>  <SlogP_VSA0>
10.999887

>  <SlogP_VSA1>
16.557388

>  <SlogP_VSA2>
56.845451

>  <SlogP_VSA3>
18.439579

>  <SlogP_VSA4>
12.140347

>  <SlogP_VSA5>
18.868406

>  <SlogP_VSA6>
0

>  <SlogP_VSA7>
88.215919

>  <SlogP_VSA8>
41.718781

>  <SlogP_VSA9>
101.41965

>  <SMR>
9.6929998

>  <SMR_VSA0>
47.724434

>  <SMR_VSA1>
29.084314

>  <SMR_VSA2>
13.531815

>  <SMR_VSA3>
15.127774

>  <SMR_VSA4>
0

>  <SMR_VSA5>
163.26071

>  <SMR_VSA6>
31.872654

>  <SMR_VSA7>
64.603706

>  <TPSA>
46.610001

>  <VAdjEq>
0.42228913

>  <VAdjMa>
5.8579812

>  <VDistEq>
3.3634503

>  <VDistMa>
9.1232777

>  <vdw_area>
333.49545

>  <vdw_vol>
473.83386

>  <vsa_acc>
27.133842

>  <vsa_acid>
0

>  <vsa_base>
0

>  <vsa_don>
0

>  <vsa_hyd>
265.10986

>  <vsa_other>
25.670774

>  <vsa_pol>
27.133842

>  <Weight>
373.448

>  <weinerPath>
1635

>  <weinerPol>
41

>  <zagreb>
142

$$$$