O1C2C3OC(=O)C45OC4CC(O)(C(C2C(O)(C)C)C1=O)C35C
  MOE2013           3D

 22 26  0  0  1  0  0  0  0  0999 V2000
    0.0000    0.0000    0.4230 O   0  0  0  0  0  0  0  0  0  0  0  0
    1.3550   -0.0060   -0.2450 C   0  0  3  0  0  0  0  0  0  0  0  0
    2.5790   -0.0600    0.7040 C   0  0  3  0  0  0  0  0  0  0  0  0
    3.8500   -0.6810   -0.1030 O   0  0  0  0  0  0  0  0  0  0  0  0
    4.9040    0.4760   -0.3110 C   0  0  0  0  0  0  0  0  0  0  0  0
    6.4040    0.4670    0.0000 O   0  0  0  0  0  0  0  0  0  0  0  0
    4.0490    1.4380   -0.2650 C   0  0  3  0  0  0  0  0  0  0  0  0
    5.0810    2.7750    0.6240 O   0  0  0  0  0  0  0  0  0  0  0  0
    3.8810    2.7550   -0.8050 C   0  0  3  0  0  0  0  0  0  0  0  0
    2.6840    3.5380   -0.1230 C   0  0  0  0  0  0  0  0  0  0  0  0
    2.0160    2.3680    0.6270 C   0  0  3  0  0  0  0  0  0  0  0  0
    0.9370    3.4110    0.0000 O   0  0  0  0  0  0  0  0  0  0  0  0
    1.0450    1.7180   -0.2950 C   0  0  3  0  0  0  0  0  0  0  0  0
    1.5400    0.8950   -1.4610 C   0  0  3  0  0  0  0  0  0  0  0  0
    0.0620    0.6420    0.0000 C   0  0  0  0  0  0  0  0  0  0  0  0
   -1.4170    0.3890    0.0000 O   0  0  0  0  0  0  0  0  0  0  0  0
   -0.1910    2.1210    0.0000 C   0  0  0  0  0  0  0  0  0  0  0  0
    0.3150   -0.8370    0.0000 C   0  0  0  0  0  0  0  0  0  0  0  0
   -0.3640    1.4420    0.2060 C   0  0  0  0  0  0  0  0  0  0  0  0
   -1.6310    2.2440    0.0000 O   0  0  0  0  0  0  0  0  0  0  0  0
    3.0870    1.4180    1.0230 C   0  0  3  0  0  0  0  0  0  0  0  0
    3.9680    0.2040    0.0000 C   0  0  0  0  0  0  0  0  0  0  0  0
  1  2  1  0  0  0  0
  1 19  1  0  0  0  0
  2  3  1  0  0  0  0
  2 14  1  0  0  0  0
  3  4  1  0  0  0  0
  3 21  1  0  0  0  0
  4  5  1  0  0  0  0
  5  6  2  0  0  0  0
  5  7  1  0  0  0  0
  7  8  1  0  0  0  0
  7  9  1  0  0  0  0
  7 21  1  0  0  0  0
  8  9  1  0  0  0  0
  9 10  1  0  0  0  0
 10 11  1  0  0  0  0
 11 12  1  0  0  0  0
 11 13  1  0  0  0  0
 11 21  1  0  0  0  0
 13 14  1  0  0  0  0
 13 19  1  0  0  0  0
 14 15  1  0  0  0  0
 15 16  1  0  0  0  0
 15 17  1  0  0  0  0
 15 18  1  0  0  0  0
 19 20  2  0  0  0  0
 21 22  1  0  0  0  0
M  END
>  <Index>
862

>  <ID>
HT1671

>  <class>
0

>  <apol>
44.016273

>  <ast_fraglike>
0

>  <ast_fraglike_ext>
0

>  <ast_violation>
2

>  <ast_violation_ext>
2

>  <a_acc>
5

>  <a_acid>
0

>  <a_aro>
0

>  <a_base>
0

>  <a_count>
40

>  <a_don>
2

>  <a_donacc>
7

>  <a_heavy>
22

>  <a_hyd>
13

>  <a_IC>
59.563629

>  <a_ICM>
1.4890908

>  <a_nB>
0

>  <a_nBr>
0

>  <a_nC>
15

>  <a_nCl>
0

>  <a_nF>
0

>  <a_nH>
18

>  <a_nI>
0

>  <a_nN>
0

>  <a_nO>
7

>  <a_nP>
0

>  <a_nS>
0

>  <balabanJ>
1.728422

>  <BCUT_PEOE_0>
-2.7982101

>  <BCUT_PEOE_1>
-0.56138748

>  <BCUT_PEOE_2>
0.50590879

>  <BCUT_PEOE_3>
3.1049254

>  <BCUT_SLOGP_0>
-2.9091837

>  <BCUT_SLOGP_1>
-0.58751851

>  <BCUT_SLOGP_2>
0.49034166

>  <BCUT_SLOGP_3>
2.9647593

>  <BCUT_SMR_0>
-2.5990605

>  <BCUT_SMR_1>
-0.37385881

>  <BCUT_SMR_2>
0.61744982

>  <BCUT_SMR_3>
3.2960494

>  <bpol>
27.341726

>  <b_1rotN>
1

>  <b_1rotR>
0.03846154

>  <b_ar>
0

>  <b_count>
44

>  <b_double>
2

>  <b_heavy>
26

>  <b_max1len>
4

>  <b_rotN>
1

>  <b_rotR>
0.03846154

>  <b_single>
42

>  <b_triple>
0

>  <chi0>
15.869879

>  <chi0v>
12.529527

>  <chi0v_C>
9.5938578

>  <chi0_C>
9.748559

>  <chi1>
10.088006

>  <chi1v>
7.6301184

>  <chi1v_C>
5.4551773

>  <chi1_C>
5.5385108

>  <chiral>
8

>  <chiral_u>
8

>  <density>
0.85662091

>  <diameter>
7

>  <FCharge>
0

>  <GCUT_PEOE_0>
-0.80220622

>  <GCUT_PEOE_1>
-0.43675539

>  <GCUT_PEOE_2>
0.021241672

>  <GCUT_PEOE_3>
3.1658001

>  <GCUT_SLOGP_0>
-0.91471815

>  <GCUT_SLOGP_1>
-0.41799161

>  <GCUT_SLOGP_2>
-0.0089250831

>  <GCUT_SLOGP_3>
3.0786014

>  <GCUT_SMR_0>
-0.53749645

>  <GCUT_SMR_1>
-0.25096467

>  <GCUT_SMR_2>
0.11836464

>  <GCUT_SMR_3>
3.3583248

>  <Kier1>
14.352071

>  <Kier2>
3.4985423

>  <Kier3>
1.1302795

>  <KierA1>
13.174295

>  <KierA2>
3.1977277

>  <KierA3>
1.0298965

>  <KierFlex>
1.9149004

>  <lip_acc>
7

>  <lip_don>
2

>  <lip_druglike>
1

>  <lip_violation>
0

>  <logP(o/w)>
-0.43599999

>  <logS>
-1.85574

>  <mr>
6.9451585

>  <mutagenic>
1

>  <nmol>
1

>  <opr_brigid>
18

>  <opr_leadlike>
1

>  <opr_nring>
5

>  <opr_nrot>
1

>  <opr_violation>
1

>  <PC+>
0

>  <PC->
0

>  <PEOE_PC+>
2.393014

>  <PEOE_PC->
-2.393014

>  <PEOE_RPC+>
0.12456484

>  <PEOE_RPC->
0.16244537

>  <PEOE_VSA+0>
64.151329

>  <PEOE_VSA+1>
12.796158

>  <PEOE_VSA+2>
14.714787

>  <PEOE_VSA+3>
0

>  <PEOE_VSA+4>
20.648346

>  <PEOE_VSA+5>
29.416998

>  <PEOE_VSA+6>
0

>  <PEOE_VSA-0>
37.495354

>  <PEOE_VSA-1>
18.747677

>  <PEOE_VSA-2>
0

>  <PEOE_VSA-3>
0

>  <PEOE_VSA-4>
0

>  <PEOE_VSA-5>
27.133842

>  <PEOE_VSA-6>
23.046349

>  <PEOE_VSA_FHYD>
0.59602982

>  <PEOE_VSA_FNEG>
0.42886505

>  <PEOE_VSA_FPNEG>
0.20221648

>  <PEOE_VSA_FPOL>
0.40397015

>  <PEOE_VSA_FPOS>
0.57113492

>  <PEOE_VSA_FPPOS>
0.20175368

>  <PEOE_VSA_HYD>
147.9053

>  <PEOE_VSA_NEG>
106.42323

>  <PEOE_VSA_PNEG>
50.180191

>  <PEOE_VSA_POL>
100.24554

>  <PEOE_VSA_POS>
141.72762

>  <PEOE_VSA_PPOS>
50.065342

>  <petitjean>
0.42857143

>  <petitjeanSC>
0.75

>  <Q_PC+>
0

>  <Q_PC->
0

>  <Q_RPC+>
0

>  <Q_RPC->
0

>  <Q_VSA_FHYD>
1

>  <Q_VSA_FNEG>
0

>  <Q_VSA_FPNEG>
0

>  <Q_VSA_FPOL>
0

>  <Q_VSA_FPOS>
1

>  <Q_VSA_FPPOS>
0

>  <Q_VSA_HYD>
248.15085

>  <Q_VSA_NEG>
0

>  <Q_VSA_PNEG>
0

>  <Q_VSA_POL>
0

>  <Q_VSA_POS>
248.15085

>  <Q_VSA_PPOS>
0

>  <radius>
4

>  <reactive>
1

>  <rings>
5

>  <RPC+>
0

>  <RPC->
0

>  <rsynth>
0

>  <SlogP>
-0.86720002

>  <SlogP_VSA0>
50.770454

>  <SlogP_VSA1>
15.490929

>  <SlogP_VSA2>
100.13004

>  <SlogP_VSA3>
0

>  <SlogP_VSA4>
8.8215923

>  <SlogP_VSA5>
0

>  <SlogP_VSA6>
0

>  <SlogP_VSA7>
0

>  <SlogP_VSA8>
18.868406

>  <SlogP_VSA9>
99.978043

>  <SMR>
6.8315601

>  <SMR_VSA0>
80.724098

>  <SMR_VSA1>
50.770454

>  <SMR_VSA2>
8.8215923

>  <SMR_VSA3>
19.405949

>  <SMR_VSA4>
0

>  <SMR_VSA5>
18.868406

>  <SMR_VSA6>
15.490929

>  <SMR_VSA7>
99.978043

>  <TPSA>
105.59

>  <VAdjEq>
0.49213955

>  <VAdjMa>
5.7004399

>  <VDistEq>
2.6079466

>  <VDistMa>
8.6970949

>  <vdw_area>
248.15085

>  <vdw_vol>
362.23959

>  <vsa_acc>
29.637598

>  <vsa_acid>
0

>  <vsa_base>
0

>  <vsa_don>
0

>  <vsa_hyd>
133.82648

>  <vsa_other>
34.424511

>  <vsa_pol>
56.771439

>  <Weight>
310.302

>  <weinerPath>
787

>  <weinerPol>
54

>  <zagreb>
150

$$$$