Fc1cc2c3N(C=C(C(O)=O)C2=O)[C@H](COc3c1C1(N)CC1)C
  MOE2013           2D

 23 26  0  0  1  0  0  0  0  0999 V2000
    0.0000    0.0000    0.0000 F   0  0  0  0  0  0  0  0  0  0  0  0
    1.3020    0.7450    0.0000 C   0  0  0  0  0  0  0  0  0  0  0  0
    2.6000   -0.0110    0.0000 C   0  0  0  0  0  0  0  0  0  0  0  0
    3.9040    0.7330    0.0000 C   0  0  0  0  0  0  0  0  0  0  0  0
    3.9080    2.2370    0.0000 C   0  0  0  0  0  0  0  0  0  0  0  0
    5.2090    2.9810    0.0000 N   0  0  3  0  0  0  0  0  0  0  0  0
    6.5070    2.2250    0.0000 C   0  0  0  0  0  0  0  0  0  0  0  0
    6.4990    0.7280    0.0000 C   0  0  0  0  0  0  0  0  0  0  0  0
    7.7950   -0.0280    0.0000 C   0  0  0  0  0  0  0  0  0  0  0  0
    9.0970    0.7160    0.0000 O   0  0  0  0  0  0  0  0  0  0  0  0
    7.7880   -1.5280    0.0000 O   0  0  0  0  0  0  0  0  0  0  0  0
    5.1980   -0.0170    0.0000 C   0  0  0  0  0  0  0  0  0  0  0  0
    5.1930   -1.5170    0.0000 O   0  0  0  0  0  0  0  0  0  0  0  0
    5.2130    4.4830    0.0000 C   0  0  2  0  0  0  0  0  0  0  0  0
    3.9190    5.2340    0.0000 C   0  0  0  0  0  0  0  0  0  0  0  0
    2.6170    4.4890    0.0000 O   0  0  0  0  0  0  0  0  0  0  0  0
    2.6090    2.9930    0.0000 C   0  0  0  0  0  0  0  0  0  0  0  0
    1.3070    2.2480    0.0000 C   0  0  0  0  0  0  0  0  0  0  0  0
    0.0110    3.0030    0.0000 C   0  0  0  0  0  0  0  0  0  0  0  0
   -0.3830    1.5550    0.0000 N   0  0  0  0  0  0  0  0  0  0  0  0
   -1.1760    3.9200    0.0000 C   0  0  0  0  0  0  0  0  0  0  0  0
    0.2120    4.4890    0.0000 C   0  0  0  0  0  0  0  0  0  0  0  0
    6.5150    5.2290    0.0000 C   0  0  0  0  0  0  0  0  0  0  0  0
  1  2  1  0  0  0  0
  2  3  1  0  0  0  0
  2 18  2  0  0  0  0
  3  4  2  0  0  0  0
  4  5  1  0  0  0  0
  4 12  1  0  0  0  0
  5  6  1  0  0  0  0
  5 17  2  0  0  0  0
  6  7  1  0  0  0  0
  6 14  1  0  0  0  0
  7  8  2  0  0  0  0
  8  9  1  0  0  0  0
  8 12  1  0  0  0  0
  9 10  1  0  0  0  0
  9 11  2  0  0  0  0
 12 13  2  0  0  0  0
 14 15  1  0  0  0  0
 14 23  1  6  0  0  0
 15 16  1  0  0  0  0
 16 17  1  0  0  0  0
 17 18  1  0  0  0  0
 18 19  1  0  0  0  0
 19 20  1  0  0  0  0
 19 21  1  0  0  0  0
 19 22  1  0  0  0  0
 21 22  1  0  0  0  0
M  END
>  <Index>
822

>  <ID>
HT1601

>  <class>
0

>  <apol>
44.126896

>  <ast_fraglike>
0

>  <ast_fraglike_ext>
0

>  <ast_violation>
2

>  <ast_violation_ext>
3

>  <a_acc>
5

>  <a_acid>
0

>  <a_aro>
6

>  <a_base>
0

>  <a_count>
38

>  <a_don>
3

>  <a_donacc>
8

>  <a_heavy>
23

>  <a_hyd>
15

>  <a_IC>
66.817886

>  <a_ICM>
1.7583654

>  <a_nB>
0

>  <a_nBr>
0

>  <a_nC>
16

>  <a_nCl>
0

>  <a_nF>
1

>  <a_nH>
15

>  <a_nI>
0

>  <a_nN>
2

>  <a_nO>
4

>  <a_nP>
0

>  <a_nS>
0

>  <balabanJ>
1.6873773

>  <BCUT_PEOE_0>
-2.623796

>  <BCUT_PEOE_1>
-0.56324506

>  <BCUT_PEOE_2>
0.57053691

>  <BCUT_PEOE_3>
2.7907505

>  <BCUT_SLOGP_0>
-2.7033372

>  <BCUT_SLOGP_1>
-0.50411052

>  <BCUT_SLOGP_2>
0.66599441

>  <BCUT_SLOGP_3>
2.9154799

>  <BCUT_SMR_0>
-2.3473682

>  <BCUT_SMR_1>
-0.36002439

>  <BCUT_SMR_2>
0.73335469

>  <BCUT_SMR_3>
3.0457275

>  <bpol>
22.753105

>  <b_1rotN>
2

>  <b_1rotR>
0.07692308

>  <b_ar>
6

>  <b_count>
41

>  <b_double>
3

>  <b_heavy>
26

>  <b_max1len>
3

>  <b_rotN>
2

>  <b_rotR>
0.07692308

>  <b_single>
32

>  <b_triple>
0

>  <chi0>
16.516144

>  <chi0v>
12.427858

>  <chi0v_C>
9.3533716

>  <chi0_C>
10.231687

>  <chi1>
10.832023

>  <chi1v>
7.4010472

>  <chi1v_C>
5.0587306

>  <chi1_C>
6.0394588

>  <chiral>
1

>  <chiral_u>
0

>  <density>
0.831451

>  <diameter>
9

>  <FCharge>
0

>  <GCUT_PEOE_0>
-0.81972313

>  <GCUT_PEOE_1>
-0.46587729

>  <GCUT_PEOE_2>
0.069577746

>  <GCUT_PEOE_3>
2.7322669

>  <GCUT_SLOGP_0>
-1.3370016

>  <GCUT_SLOGP_1>
-0.37831727

>  <GCUT_SLOGP_2>
0.14616118

>  <GCUT_SLOGP_3>
2.7981367

>  <GCUT_SMR_0>
-0.51059628

>  <GCUT_SMR_1>
-0.22618507

>  <GCUT_SMR_2>
0.22002041

>  <GCUT_SMR_3>
3.0019631

>  <Kier1>
16.467455

>  <Kier2>
5.5

>  <Kier3>
2.2892821

>  <KierA1>
12.668211

>  <KierA2>
4.1768985

>  <KierA3>
1.7216218

>  <KierFlex>
2.3006015

>  <lip_acc>
6

>  <lip_don>
3

>  <lip_druglike>
1

>  <lip_violation>
0

>  <logP(o/w)>
1.212

>  <logS>
-3.0827501

>  <mr>
7.8470578

>  <mutagenic>
0

>  <nmol>
1

>  <opr_brigid>
18

>  <opr_leadlike>
1

>  <opr_nring>
4

>  <opr_nrot>
2

>  <opr_violation>
0

>  <PC+>
0

>  <PC->
0

>  <PEOE_PC+>
2.0995789

>  <PEOE_PC->
-2.0995789

>  <PEOE_RPC+>
0.14094689

>  <PEOE_RPC->
0.1624689

>  <PEOE_VSA+0>
58.432045

>  <PEOE_VSA+1>
38.712387

>  <PEOE_VSA+2>
36.92593

>  <PEOE_VSA+3>
0

>  <PEOE_VSA+4>
18.782692

>  <PEOE_VSA+5>
14.708499

>  <PEOE_VSA+6>
0

>  <PEOE_VSA-0>
48.405209

>  <PEOE_VSA-1>
0

>  <PEOE_VSA-2>
0

>  <PEOE_VSA-3>
0

>  <PEOE_VSA-4>
11.908636

>  <PEOE_VSA-5>
27.133842

>  <PEOE_VSA-6>
16.922417

>  <PEOE_VSA_FHYD>
0.67103469

>  <PEOE_VSA_FNEG>
0.38381004

>  <PEOE_VSA_FPNEG>
0.20580499

>  <PEOE_VSA_FPOL>
0.32896534

>  <PEOE_VSA_FPOS>
0.61618996

>  <PEOE_VSA_FPPOS>
0.12316032

>  <PEOE_VSA_HYD>
182.47557

>  <PEOE_VSA_NEG>
104.3701

>  <PEOE_VSA_PNEG>
55.964893

>  <PEOE_VSA_POL>
89.456085

>  <PEOE_VSA_POS>
167.56155

>  <PEOE_VSA_PPOS>
33.491192

>  <petitjean>
0.44444445

>  <petitjeanSC>
0.80000001

>  <Q_PC+>
0

>  <Q_PC->
0

>  <Q_RPC+>
0

>  <Q_RPC->
0

>  <Q_VSA_FHYD>
1

>  <Q_VSA_FNEG>
0

>  <Q_VSA_FPNEG>
0

>  <Q_VSA_FPOL>
0

>  <Q_VSA_FPOS>
1

>  <Q_VSA_FPPOS>
0

>  <Q_VSA_HYD>
271.93164

>  <Q_VSA_NEG>
0

>  <Q_VSA_PNEG>
0

>  <Q_VSA_POL>
0

>  <Q_VSA_POS>
271.93164

>  <Q_VSA_PPOS>
0

>  <radius>
5

>  <reactive>
0

>  <rings>
4

>  <RPC+>
0

>  <RPC->
0

>  <rsynth>
0.39130434

>  <SlogP>
1.8371

>  <SlogP_VSA0>
47.021389

>  <SlogP_VSA1>
13.433075

>  <SlogP_VSA2>
36.965202

>  <SlogP_VSA3>
46.311485

>  <SlogP_VSA4>
30.233366

>  <SlogP_VSA5>
3.185575

>  <SlogP_VSA6>
0

>  <SlogP_VSA7>
34.85754

>  <SlogP_VSA8>
37.736813

>  <SlogP_VSA9>
56.286304

>  <SMR>
7.9101701

>  <SMR_VSA0>
47.724434

>  <SMR_VSA1>
25.960001

>  <SMR_VSA2>
37.630558

>  <SMR_VSA3>
18.782122

>  <SMR_VSA4>
35.653934

>  <SMR_VSA5>
72.594353

>  <SMR_VSA6>
34.359333

>  <SMR_VSA7>
33.326015

>  <TPSA>
92.860001

>  <VAdjEq>
0.46357921

>  <VAdjMa>
5.7004399

>  <VDistEq>
2.9192085

>  <VDistMa>
8.8024168

>  <vdw_area>
271.93164

>  <vdw_vol>
382.82953

>  <vsa_acc>
16.070677

>  <vsa_acid>
0

>  <vsa_base>
0

>  <vsa_don>
0

>  <vsa_hyd>
168.60463

>  <vsa_other>
23.167019

>  <vsa_pol>
60.94701

>  <Weight>
318.30399

>  <weinerPath>
1005

>  <weinerPol>
46

>  <zagreb>
136

$$$$