O1C[C@H]2[C@@H]([C@@H](c3c(cc4OCOc4c3)[C@@H]2O)c2cc(OC)c(OC)c(OC)c2)C1=O
  MOE2013           2D

 30 34  0  0  1  0  0  0  0  0999 V2000
    0.0000    0.0000    0.0000 O   0  0  0  0  0  0  0  0  0  0  0  0
   -1.4700   -0.2990    0.0000 C   0  0  0  0  0  0  0  0  0  0  0  0
   -1.6400   -1.7900    0.0000 C   0  0  1  0  0  0  0  0  0  0  0  0
   -0.2750   -2.4110    0.0000 C   0  0  1  0  0  0  0  0  0  0  0  0
   -0.1310   -3.9050    0.0000 C   0  0  1  0  0  0  0  0  0  0  0  0
   -1.3520   -4.7760    0.0000 C   0  0  0  0  0  0  0  0  0  0  0  0
   -2.7170   -4.1540    0.0000 C   0  0  0  0  0  0  0  0  0  0  0  0
   -3.9380   -5.0250    0.0000 C   0  0  0  0  0  0  0  0  0  0  0  0
   -3.7940   -6.5180    0.0000 C   0  0  0  0  0  0  0  0  0  0  0  0
   -4.8070   -7.6240    0.0000 O   0  0  0  0  0  0  0  0  0  0  0  0
   -4.0680   -8.9300    0.0000 C   0  0  0  0  0  0  0  0  0  0  0  0
   -2.5990   -8.6300    0.0000 O   0  0  0  0  0  0  0  0  0  0  0  0
   -2.4290   -7.1400    0.0000 C   0  0  0  0  0  0  0  0  0  0  0  0
   -1.2080   -6.2690    0.0000 C   0  0  0  0  0  0  0  0  0  0  0  0
   -2.8610   -2.6610    0.0000 C   0  0  2  0  0  0  0  0  0  0  0  0
   -4.2260   -2.0390    0.0000 O   0  0  0  0  0  0  0  0  0  0  0  0
    1.2340   -4.5260    0.0000 C   0  0  0  0  0  0  0  0  0  0  0  0
    1.3780   -6.0200    0.0000 C   0  0  0  0  0  0  0  0  0  0  0  0
    2.7430   -6.6410    0.0000 C   0  0  0  0  0  0  0  0  0  0  0  0
    2.8870   -8.1350    0.0000 O   0  0  0  0  0  0  0  0  0  0  0  0
    1.6660   -9.0060    0.0000 C   0  0  0  0  0  0  0  0  0  0  0  0
    3.9640   -5.7700    0.0000 C   0  0  0  0  0  0  0  0  0  0  0  0
    5.3290   -6.3920    0.0000 O   0  0  0  0  0  0  0  0  0  0  0  0
    5.4730   -7.8850    0.0000 C   0  0  0  0  0  0  0  0  0  0  0  0
    3.8200   -4.2770    0.0000 C   0  0  0  0  0  0  0  0  0  0  0  0
    5.0420   -3.4060    0.0000 O   0  0  0  0  0  0  0  0  0  0  0  0
    6.4070   -4.0280    0.0000 C   0  0  0  0  0  0  0  0  0  0  0  0
    2.4550   -3.6550    0.0000 C   0  0  0  0  0  0  0  0  0  0  0  0
    0.7390   -1.3050    0.0000 C   0  0  0  0  0  0  0  0  0  0  0  0
    2.2290   -1.4750    0.0000 O   0  0  0  0  0  0  0  0  0  0  0  0
  1  2  1  0  0  0  0
  1 29  1  0  0  0  0
  3  2  1  1  0  0  0
  3  4  1  0  0  0  0
  3 15  1  0  0  0  0
  4  5  1  0  0  0  0
  4 29  1  6  0  0  0
  5  6  1  0  0  0  0
  5 17  1  6  0  0  0
  6  7  2  0  0  0  0
  6 14  1  0  0  0  0
  7  8  1  0  0  0  0
  7 15  1  0  0  0  0
  8  9  2  0  0  0  0
  9 10  1  0  0  0  0
  9 13  1  0  0  0  0
 10 11  1  0  0  0  0
 11 12  1  0  0  0  0
 12 13  1  0  0  0  0
 13 14  2  0  0  0  0
 15 16  1  6  0  0  0
 17 18  2  0  0  0  0
 17 28  1  0  0  0  0
 18 19  1  0  0  0  0
 19 20  1  0  0  0  0
 19 22  2  0  0  0  0
 20 21  1  0  0  0  0
 22 23  1  0  0  0  0
 22 25  1  0  0  0  0
 23 24  1  0  0  0  0
 25 26  1  0  0  0  0
 25 28  2  0  0  0  0
 26 27  1  0  0  0  0
 29 30  2  0  0  0  0
M  END
>  <Index>
880

>  <ID>
HT1704

>  <class>
0

>  <apol>
59.805447

>  <ast_fraglike>
0

>  <ast_fraglike_ext>
0

>  <ast_violation>
2

>  <ast_violation_ext>
3

>  <a_acc>
7

>  <a_acid>
0

>  <a_aro>
12

>  <a_base>
0

>  <a_count>
52

>  <a_don>
1

>  <a_donacc>
8

>  <a_heavy>
30

>  <a_hyd>
20

>  <a_IC>
76.20787

>  <a_ICM>
1.465536

>  <a_nB>
0

>  <a_nBr>
0

>  <a_nC>
22

>  <a_nCl>
0

>  <a_nF>
0

>  <a_nH>
22

>  <a_nI>
0

>  <a_nN>
0

>  <a_nO>
8

>  <a_nP>
0

>  <a_nS>
0

>  <balabanJ>
1.4757209

>  <BCUT_PEOE_0>
-2.6579213

>  <BCUT_PEOE_1>
-0.5915311

>  <BCUT_PEOE_2>
0.46610162

>  <BCUT_PEOE_3>
2.7951219

>  <BCUT_SLOGP_0>
-2.6399

>  <BCUT_SLOGP_1>
-0.56990093

>  <BCUT_SLOGP_2>
0.53017449

>  <BCUT_SLOGP_3>
2.8043311

>  <BCUT_SMR_0>
-2.4320016

>  <BCUT_SMR_1>
-0.34293675

>  <BCUT_SMR_2>
0.74168289

>  <BCUT_SMR_3>
3.0208037

>  <bpol>
36.504555

>  <b_1rotN>
4

>  <b_1rotR>
0.11764706

>  <b_ar>
12

>  <b_count>
56

>  <b_double>
1

>  <b_heavy>
34

>  <b_max1len>
3

>  <b_rotN>
4

>  <b_rotR>
0.11764706

>  <b_single>
43

>  <b_triple>
0

>  <chi0>
20.990835

>  <chi0v>
16.837967

>  <chi0v_C>
13.533015

>  <chi0_C>
14.748194

>  <chi1>
14.566412

>  <chi1v>
9.6501884

>  <chi1v_C>
5.8723497

>  <chi1_C>
7.3409014

>  <chiral>
4

>  <chiral_u>
0

>  <density>
0.79676342

>  <diameter>
11

>  <FCharge>
0

>  <GCUT_PEOE_0>
-0.78694755

>  <GCUT_PEOE_1>
-0.45600033

>  <GCUT_PEOE_2>
-0.050166406

>  <GCUT_PEOE_3>
2.9464803

>  <GCUT_SLOGP_0>
-0.94361722

>  <GCUT_SLOGP_1>
-0.3902902

>  <GCUT_SLOGP_2>
0.072071612

>  <GCUT_SLOGP_3>
3.0397513

>  <GCUT_SMR_0>
-0.52706176

>  <GCUT_SMR_1>
-0.20640366

>  <GCUT_SMR_2>
0.1274098

>  <GCUT_SMR_3>
3.1985397

>  <Kier1>
21.82526

>  <Kier2>
8.7412529

>  <Kier3>
3.5702479

>  <KierA1>
17.930233

>  <KierA2>
7.1298542

>  <KierA3>
2.8973103

>  <KierFlex>
4.2613316

>  <lip_acc>
8

>  <lip_don>
1

>  <lip_druglike>
1

>  <lip_violation>
0

>  <logP(o/w)>
1.8884799

>  <logS>
-3.4782901

>  <mr>
10.47509

>  <mutagenic>
0

>  <nmol>
1

>  <opr_brigid>
25

>  <opr_leadlike>
1

>  <opr_nring>
5

>  <opr_nrot>
4

>  <opr_violation>
1

>  <PC+>
0

>  <PC->
0

>  <PEOE_PC+>
2.8054988

>  <PEOE_PC->
-2.8054988

>  <PEOE_RPC+>
0.095035747

>  <PEOE_RPC->
0.13787074

>  <PEOE_VSA+0>
87.789131

>  <PEOE_VSA+1>
96.633171

>  <PEOE_VSA+2>
42.292599

>  <PEOE_VSA+3>
21.201273

>  <PEOE_VSA+4>
10.324173

>  <PEOE_VSA+5>
14.708499

>  <PEOE_VSA+6>
0

>  <PEOE_VSA-0>
55.645233

>  <PEOE_VSA-1>
0

>  <PEOE_VSA-2>
0

>  <PEOE_VSA-3>
0

>  <PEOE_VSA-4>
0

>  <PEOE_VSA-5>
13.566921

>  <PEOE_VSA-6>
22.790077

>  <PEOE_VSA_FHYD>
0.83178657

>  <PEOE_VSA_FNEG>
0.25209472

>  <PEOE_VSA_FPNEG>
0.099621564

>  <PEOE_VSA_FPOL>
0.16821343

>  <PEOE_VSA_FPOS>
0.74790531

>  <PEOE_VSA_FPPOS>
0.068591855

>  <PEOE_VSA_HYD>
303.5614

>  <PEOE_VSA_NEG>
92.002235

>  <PEOE_VSA_PNEG>
36.356998

>  <PEOE_VSA_POL>
61.389671

>  <PEOE_VSA_POS>
272.94885

>  <PEOE_VSA_PPOS>
25.032671

>  <petitjean>
0.45454547

>  <petitjeanSC>
0.83333331

>  <Q_PC+>
0

>  <Q_PC->
0

>  <Q_RPC+>
0

>  <Q_RPC->
0

>  <Q_VSA_FHYD>
1

>  <Q_VSA_FNEG>
0

>  <Q_VSA_FPNEG>
0

>  <Q_VSA_FPOL>
0

>  <Q_VSA_FPOS>
1

>  <Q_VSA_FPPOS>
0

>  <Q_VSA_HYD>
364.95108

>  <Q_VSA_NEG>
0

>  <Q_VSA_PNEG>
0

>  <Q_VSA_POL>
0

>  <Q_VSA_POS>
364.95108

>  <Q_VSA_PPOS>
0

>  <radius>
6

>  <reactive>
1

>  <rings>
5

>  <RPC+>
0

>  <RPC->
0

>  <rsynth>
1

>  <SlogP>
2.5046999

>  <SlogP_VSA0>
80.384666

>  <SlogP_VSA1>
7.7454643

>  <SlogP_VSA2>
34.862103

>  <SlogP_VSA3>
43.91037

>  <SlogP_VSA4>
18.378317

>  <SlogP_VSA5>
106.1516

>  <SlogP_VSA6>
4.4107962

>  <SlogP_VSA7>
70.572739

>  <SlogP_VSA8>
6.4686494

>  <SlogP_VSA9>
26.21714

>  <SMR>
10.35158

>  <SMR_VSA0>
34.862103

>  <SMR_VSA1>
80.384666

>  <SMR_VSA2>
8.8215923

>  <SMR_VSA3>
46.653309

>  <SMR_VSA4>
0

>  <SMR_VSA5>
70.572739

>  <SMR_VSA6>
51.655834

>  <SMR_VSA7>
106.1516

>  <TPSA>
92.68

>  <VAdjEq>
0.38632196

>  <VAdjMa>
6.0874629

>  <VDistEq>
3.2215321

>  <VDistMa>
9.5775108

>  <vdw_area>
364.95108

>  <vdw_vol>
520.11676

>  <vsa_acc>
26.085701

>  <vsa_acid>
0

>  <vsa_base>
0

>  <vsa_don>
0

>  <vsa_hyd>
256.27008

>  <vsa_other>
45.52071

>  <vsa_pol>
39.652622

>  <Weight>
414.41

>  <weinerPath>
2119

>  <weinerPol>
58

>  <zagreb>
170

$$$$