Oc1c(C)c(CC=2NCCN=2)c(cc1C(C)(C)C)C
  MOE2013           2D

 19 20  0  0  0  0  0  0  0  0999 V2000
    0.0000    0.0000    0.0000 O   0  0  0  0  0  0  0  0  0  0  0  0
   -0.7580   -1.2940    0.0000 C   0  0  0  0  0  0  0  0  0  0  0  0
   -2.2580   -1.2850    0.0000 C   0  0  0  0  0  0  0  0  0  0  0  0
   -3.0000    0.0180    0.0000 C   0  0  0  0  0  0  0  0  0  0  0  0
   -3.0160   -2.5800    0.0000 C   0  0  0  0  0  0  0  0  0  0  0  0
   -4.5160   -2.5700    0.0000 C   0  0  0  0  0  0  0  0  0  0  0  0
   -5.2740   -3.8650    0.0000 C   0  0  0  0  0  0  0  0  0  0  0  0
   -6.7670   -4.0120    0.0000 N   0  0  0  0  0  0  0  0  0  0  0  0
   -7.0880   -5.4780    0.0000 C   0  0  0  0  0  0  0  0  0  0  0  0
   -5.7930   -6.2360    0.0000 C   0  0  0  0  0  0  0  0  0  0  0  0
   -4.6720   -5.2390    0.0000 N   0  0  0  0  0  0  0  0  0  0  0  0
   -2.2740   -3.8830    0.0000 C   0  0  0  0  0  0  0  0  0  0  0  0
   -0.7740   -3.8920    0.0000 C   0  0  0  0  0  0  0  0  0  0  0  0
   -0.0160   -2.5980    0.0000 C   0  0  0  0  0  0  0  0  0  0  0  0
    1.4840   -2.6070    0.0000 C   0  0  0  0  0  0  0  0  0  0  0  0
    1.4750   -4.1070    0.0000 C   0  0  0  0  0  0  0  0  0  0  0  0
    1.4930   -1.1070    0.0000 C   0  0  0  0  0  0  0  0  0  0  0  0
    2.9840   -2.6170    0.0000 C   0  0  0  0  0  0  0  0  0  0  0  0
   -3.0320   -5.1780    0.0000 C   0  0  0  0  0  0  0  0  0  0  0  0
  1  2  1  0  0  0  0
  2  3  1  0  0  0  0
  2 14  2  0  0  0  0
  3  4  1  0  0  0  0
  3  5  2  0  0  0  0
  5  6  1  0  0  0  0
  5 12  1  0  0  0  0
  6  7  1  0  0  0  0
  7  8  1  0  0  0  0
  7 11  2  0  0  0  0
  8  9  1  0  0  0  0
  9 10  1  0  0  0  0
 10 11  1  0  0  0  0
 12 13  2  0  0  0  0
 12 19  1  0  0  0  0
 13 14  1  0  0  0  0
 14 15  1  0  0  0  0
 15 16  1  0  0  0  0
 15 17  1  0  0  0  0
 15 18  1  0  0  0  0
M  END
>  <Index>
804

>  <ID>
HT1568

>  <class>
0

>  <apol>
47.165031

>  <ast_fraglike>
1

>  <ast_fraglike_ext>
1

>  <ast_violation>
0

>  <ast_violation_ext>
0

>  <a_acc>
2

>  <a_acid>
0

>  <a_aro>
6

>  <a_base>
0

>  <a_count>
43

>  <a_don>
2

>  <a_donacc>
4

>  <a_heavy>
19

>  <a_hyd>
15

>  <a_IC>
57.290283

>  <a_ICM>
1.3323323

>  <a_nB>
0

>  <a_nBr>
0

>  <a_nC>
16

>  <a_nCl>
0

>  <a_nF>
0

>  <a_nH>
24

>  <a_nI>
0

>  <a_nN>
2

>  <a_nO>
1

>  <a_nP>
0

>  <a_nS>
0

>  <balabanJ>
2.0362136

>  <BCUT_PEOE_0>
-2.6333044

>  <BCUT_PEOE_1>
-0.17188752

>  <BCUT_PEOE_2>
0.23588923

>  <BCUT_PEOE_3>
2.5894401

>  <BCUT_SLOGP_0>
-2.6171904

>  <BCUT_SLOGP_1>
-0.09868174

>  <BCUT_SLOGP_2>
0.28641477

>  <BCUT_SLOGP_3>
2.6965852

>  <BCUT_SMR_0>
-2.3724201

>  <BCUT_SMR_1>
0.024462035

>  <BCUT_SMR_2>
0.42037916

>  <BCUT_SMR_3>
2.8610787

>  <bpol>
28.216969

>  <b_1rotN>
2

>  <b_1rotR>
0.1

>  <b_ar>
6

>  <b_count>
44

>  <b_double>
1

>  <b_heavy>
20

>  <b_max1len>
4

>  <b_rotN>
3

>  <b_rotR>
0.15000001

>  <b_single>
37

>  <b_triple>
0

>  <chi0>
14.206742

>  <chi0v>
12.593098

>  <chi0v_C>
11.19867

>  <chi0_C>
11.792529

>  <chi1>
8.8035488

>  <chi1v>
6.9014516

>  <chi1v_C>
5.5344572

>  <chi1_C>
6.4097023

>  <chiral>
0

>  <chiral_u>
0

>  <density>
0.66166002

>  <diameter>
9

>  <FCharge>
0

>  <GCUT_PEOE_0>
-0.86322868

>  <GCUT_PEOE_1>
-0.31353277

>  <GCUT_PEOE_2>
-0.10738581

>  <GCUT_PEOE_3>
2.7090468

>  <GCUT_SLOGP_0>
-1.1663942

>  <GCUT_SLOGP_1>
-0.21269235

>  <GCUT_SLOGP_2>
-0.037

>  <GCUT_SLOGP_3>
2.8143377

>  <GCUT_SMR_0>
-0.52202731

>  <GCUT_SMR_1>
-0.10160082

>  <GCUT_SMR_2>
0.036866952

>  <GCUT_SMR_3>
2.9801226

>  <Kier1>
15.39

>  <Kier2>
5.7800002

>  <Kier3>
3.3659606

>  <KierA1>
12.449961

>  <KierA2>
4.6167188

>  <KierA3>
2.6619225

>  <KierFlex>
3.0251563

>  <lip_acc>
3

>  <lip_don>
2

>  <lip_druglike>
1

>  <lip_violation>
0

>  <logP(o/w)>
3.141

>  <logS>
-3.8146601

>  <mr>
7.8007269

>  <mutagenic>
0

>  <nmol>
1

>  <opr_brigid>
11

>  <opr_leadlike>
1

>  <opr_nring>
2

>  <opr_nrot>
3

>  <opr_violation>
0

>  <PC+>
0

>  <PC->
0

>  <PEOE_PC+>
1.4132926

>  <PEOE_PC->
-1.4132926

>  <PEOE_RPC+>
0.15378016

>  <PEOE_RPC->
0.262723

>  <PEOE_VSA+0>
94.405197

>  <PEOE_VSA+1>
42.977776

>  <PEOE_VSA+2>
11.190562

>  <PEOE_VSA+3>
8.6190128

>  <PEOE_VSA+4>
10.324173

>  <PEOE_VSA+5>
0

>  <PEOE_VSA+6>
0

>  <PEOE_VSA-0>
46.329514

>  <PEOE_VSA-1>
68.49794

>  <PEOE_VSA-2>
0

>  <PEOE_VSA-3>
0

>  <PEOE_VSA-4>
0

>  <PEOE_VSA-5>
5.6825762

>  <PEOE_VSA-6>
7.9044313

>  <PEOE_VSA_FHYD>
0.91920018

>  <PEOE_VSA_FNEG>
0.43393353

>  <PEOE_VSA_FPNEG>
0.045912728

>  <PEOE_VSA_FPOL>
0.080799796

>  <PEOE_VSA_FPOS>
0.5660665

>  <PEOE_VSA_FPPOS>
0.034887072

>  <PEOE_VSA_HYD>
272.01999

>  <PEOE_VSA_NEG>
128.41446

>  <PEOE_VSA_PNEG>
13.587008

>  <PEOE_VSA_POL>
23.91118

>  <PEOE_VSA_POS>
167.51672

>  <PEOE_VSA_PPOS>
10.324173

>  <petitjean>
0.44444445

>  <petitjeanSC>
0.80000001

>  <Q_PC+>
0

>  <Q_PC->
0

>  <Q_RPC+>
0

>  <Q_RPC->
0

>  <Q_VSA_FHYD>
1

>  <Q_VSA_FNEG>
0

>  <Q_VSA_FPNEG>
0

>  <Q_VSA_FPOL>
0

>  <Q_VSA_FPOS>
1

>  <Q_VSA_FPPOS>
0

>  <Q_VSA_HYD>
295.93118

>  <Q_VSA_NEG>
0

>  <Q_VSA_PNEG>
0

>  <Q_VSA_POL>
0

>  <Q_VSA_POS>
295.93118

>  <Q_VSA_PPOS>
0

>  <radius>
5

>  <reactive>
0

>  <rings>
2

>  <RPC+>
0

>  <RPC->
0

>  <rsynth>
0.21052632

>  <SlogP>
2.8507099

>  <SlogP_VSA0>
43.395977

>  <SlogP_VSA1>
2.3279202

>  <SlogP_VSA2>
0

>  <SlogP_VSA3>
36.879158

>  <SlogP_VSA4>
12.7423

>  <SlogP_VSA5>
35.653934

>  <SlogP_VSA6>
0

>  <SlogP_VSA7>
17.643185

>  <SlogP_VSA8>
0

>  <SlogP_VSA9>
171.8735

>  <SMR>
8.0289497

>  <SMR_VSA0>
0

>  <SMR_VSA1>
42.170757

>  <SMR_VSA2>
18.01075

>  <SMR_VSA3>
17.985727

>  <SMR_VSA4>
0

>  <SMR_VSA5>
36.511589

>  <SMR_VSA6>
39.207077

>  <SMR_VSA7>
166.63008

>  <TPSA>
44.619999

>  <VAdjEq>
0.5023343

>  <VAdjMa>
5.321928

>  <VDistEq>
2.9893837

>  <VDistMa>
8.2083855

>  <vdw_area>
295.93118

>  <vdw_vol>
393.52689

>  <vsa_acc>
5.6825762

>  <vsa_acid>
0

>  <vsa_base>
0

>  <vsa_don>
5.6825762

>  <vsa_hyd>
236.55093

>  <vsa_other>
11.190562

>  <vsa_pol>
24.932074

>  <Weight>
260.38098

>  <weinerPath>
681

>  <weinerPol>
29

>  <zagreb>
100

$$$$