S(=O)(=O)(N)c1cc(Nc2nc(N(C)c3cc4nn(C)c(c4cc3)C)ccn2)ccc1C
  MOE2013           2D

 31 34  0  0  1  0  0  0  0  0999 V2000
    0.0000    0.0000    0.0000 S   0  0  0  0  0  0  0  0  0  0  0  0
   -0.7440   -1.3020    0.0000 O   0  0  0  0  0  0  0  0  0  0  0  0
    0.7440    1.3020    0.0000 O   0  0  0  0  0  0  0  0  0  0  0  0
   -1.3020    0.7440    0.0000 N   0  0  0  0  0  0  0  0  0  0  0  0
    1.3020   -0.7440    0.0000 C   0  0  0  0  0  0  0  0  0  0  0  0
    2.5980    0.0120    0.0000 C   0  0  0  0  0  0  0  0  0  0  0  0
    3.9010   -0.7320    0.0000 C   0  0  0  0  0  0  0  0  0  0  0  0
    5.1960    0.0240    0.0000 N   0  0  0  0  0  0  0  0  0  0  0  0
    6.4990   -0.7200    0.0000 C   0  0  0  0  0  0  0  0  0  0  0  0
    7.7940    0.0360    0.0000 N   0  0  0  0  0  0  0  0  0  0  0  0
    9.0970   -0.7080    0.0000 C   0  0  0  0  0  0  0  0  0  0  0  0
   10.3920    0.0480    0.0000 N   0  0  3  0  0  0  0  0  0  0  0  0
   10.3850    1.5470    0.0000 C   0  0  0  0  0  0  0  0  0  0  0  0
   11.6950   -0.6970    0.0000 C   0  0  0  0  0  0  0  0  0  0  0  0
   12.9900    0.0590    0.0000 C   0  0  0  0  0  0  0  0  0  0  0  0
   14.2930   -0.6850    0.0000 C   0  0  0  0  0  0  0  0  0  0  0  0
   15.7170   -0.2150    0.0000 N   0  0  0  0  0  0  0  0  0  0  0  0
   16.6040   -1.4240    0.0000 N   0  0  0  0  0  0  0  0  0  0  0  0
   18.1040   -1.4170    0.0000 C   0  0  0  0  0  0  0  0  0  0  0  0
   15.7280   -2.6420    0.0000 C   0  0  0  0  0  0  0  0  0  0  0  0
   14.3000   -2.1850    0.0000 C   0  0  0  0  0  0  0  0  0  0  0  0
   13.0040   -2.9410    0.0000 C   0  0  0  0  0  0  0  0  0  0  0  0
   11.7020   -2.1970    0.0000 C   0  0  0  0  0  0  0  0  0  0  0  0
   16.1980   -4.0660    0.0000 C   0  0  0  0  0  0  0  0  0  0  0  0
    9.1030   -2.2080    0.0000 C   0  0  0  0  0  0  0  0  0  0  0  0
    7.8080   -2.9640    0.0000 C   0  0  0  0  0  0  0  0  0  0  0  0
    6.5050   -2.2200    0.0000 N   0  0  0  0  0  0  0  0  0  0  0  0
    3.9070   -2.2320    0.0000 C   0  0  0  0  0  0  0  0  0  0  0  0
    2.6120   -2.9880    0.0000 C   0  0  0  0  0  0  0  0  0  0  0  0
    1.3090   -2.2440    0.0000 C   0  0  0  0  0  0  0  0  0  0  0  0
    0.0140   -3.0000    0.0000 C   0  0  0  0  0  0  0  0  0  0  0  0
  1  2  2  0  0  0  0
  1  3  2  0  0  0  0
  1  4  1  0  0  0  0
  1  5  1  0  0  0  0
  5  6  1  0  0  0  0
  5 30  2  0  0  0  0
  6  7  2  0  0  0  0
  7  8  1  0  0  0  0
  7 28  1  0  0  0  0
  8  9  1  0  0  0  0
  9 10  1  0  0  0  0
  9 27  2  0  0  0  0
 10 11  2  0  0  0  0
 11 12  1  0  0  0  0
 11 25  1  0  0  0  0
 12 13  1  0  0  0  0
 12 14  1  0  0  0  0
 14 15  2  0  0  0  0
 14 23  1  0  0  0  0
 15 16  1  0  0  0  0
 16 17  2  0  0  0  0
 16 21  1  0  0  0  0
 17 18  1  0  0  0  0
 18 19  1  0  0  0  0
 18 20  1  0  0  0  0
 20 21  2  0  0  0  0
 20 24  1  0  0  0  0
 21 22  1  0  0  0  0
 22 23  2  0  0  0  0
 25 26  2  0  0  0  0
 26 27  1  0  0  0  0
 28 29  2  0  0  0  0
 29 30  1  0  0  0  0
 30 31  1  0  0  0  0
M  END
>  <Index>
821

>  <ID>
HT1600

>  <class>
0

>  <apol>
64.500237

>  <ast_fraglike>
0

>  <ast_fraglike_ext>
0

>  <ast_violation>
3

>  <ast_violation_ext>
5

>  <a_acc>
5

>  <a_acid>
0

>  <a_aro>
21

>  <a_base>
0

>  <a_count>
54

>  <a_don>
2

>  <a_donacc>
7

>  <a_heavy>
31

>  <a_hyd>
19

>  <a_IC>
92.831848

>  <a_ICM>
1.7191083

>  <a_nB>
0

>  <a_nBr>
0

>  <a_nC>
21

>  <a_nCl>
0

>  <a_nF>
0

>  <a_nH>
23

>  <a_nI>
0

>  <a_nN>
7

>  <a_nO>
2

>  <a_nP>
0

>  <a_nS>
1

>  <balabanJ>
1.2972342

>  <BCUT_PEOE_0>
-2.3882129

>  <BCUT_PEOE_1>
-0.57552499

>  <BCUT_PEOE_2>
0.47664109

>  <BCUT_PEOE_3>
2.4099092

>  <BCUT_SLOGP_0>
-2.5761063

>  <BCUT_SLOGP_1>
-0.51388395

>  <BCUT_SLOGP_2>
0.53755593

>  <BCUT_SLOGP_3>
2.4627299

>  <BCUT_SMR_0>
-2.0620577

>  <BCUT_SMR_1>
-0.37284118

>  <BCUT_SMR_2>
0.6976679

>  <BCUT_SMR_3>
2.7488508

>  <bpol>
38.219761

>  <b_1rotN>
5

>  <b_1rotR>
0.14705883

>  <b_ar>
22

>  <b_count>
57

>  <b_double>
0

>  <b_heavy>
34

>  <b_max1len>
3

>  <b_rotN>
5

>  <b_rotR>
0.14705883

>  <b_single>
35

>  <b_triple>
0

>  <chi0>
22.336134

>  <chi0v>
18.473461

>  <chi0v_C>
13.118802

>  <chi0_C>
14.853006

>  <chi1>
14.630049

>  <chi1v>
11.085429

>  <chi1v_C>
5.3480763

>  <chi1_C>
7.3289351

>  <chiral>
0

>  <chiral_u>
0

>  <density>
0.77717501

>  <diameter>
15

>  <FCharge>
0

>  <GCUT_PEOE_0>
-0.8487497

>  <GCUT_PEOE_1>
-0.42189339

>  <GCUT_PEOE_2>
-0.010658545

>  <GCUT_PEOE_3>
2.6160357

>  <GCUT_SLOGP_0>
-1.3482808

>  <GCUT_SLOGP_1>
-0.38214171

>  <GCUT_SLOGP_2>
0.077780038

>  <GCUT_SLOGP_3>
2.7271304

>  <GCUT_SMR_0>
-0.48978969

>  <GCUT_SMR_1>
-0.18674164

>  <GCUT_SMR_2>
0.16898173

>  <GCUT_SMR_3>
2.9182787

>  <Kier1>
24.134949

>  <Kier2>
9.7001152

>  <Kier3>
5.3994489

>  <KierA1>
18.186045

>  <KierA2>
7.2354398

>  <KierA3>
3.9976773

>  <KierFlex>
4.2446461

>  <lip_acc>
9

>  <lip_don>
3

>  <lip_druglike>
1

>  <lip_violation>
0

>  <logP(o/w)>
1.865

>  <logS>
-5.4495301

>  <mr>
11.922186

>  <mutagenic>
0

>  <nmol>
1

>  <opr_brigid>
22

>  <opr_leadlike>
1

>  <opr_nring>
4

>  <opr_nrot>
5

>  <opr_violation>
1

>  <PC+>
0

>  <PC->
0

>  <PEOE_PC+>
2.2528903

>  <PEOE_PC->
-2.2528903

>  <PEOE_RPC+>
0.12703833

>  <PEOE_RPC->
0.12006214

>  <PEOE_VSA+0>
140.82007

>  <PEOE_VSA+1>
55.286083

>  <PEOE_VSA+2>
19.809576

>  <PEOE_VSA+3>
0

>  <PEOE_VSA+4>
15.681574

>  <PEOE_VSA+5>
4.1846013

>  <PEOE_VSA+6>
0

>  <PEOE_VSA-0>
134.26347

>  <PEOE_VSA-1>
0

>  <PEOE_VSA-2>
0

>  <PEOE_VSA-3>
18.46479

>  <PEOE_VSA-4>
43.518566

>  <PEOE_VSA-5>
0

>  <PEOE_VSA-6>
0

>  <PEOE_VSA_FHYD>
0.85328579

>  <PEOE_VSA_FNEG>
0.45424485

>  <PEOE_VSA_FPNEG>
0.10073072

>  <PEOE_VSA_FPOL>
0.14671418

>  <PEOE_VSA_FPOS>
0.54575515

>  <PEOE_VSA_FPPOS>
0.04598346

>  <PEOE_VSA_HYD>
368.64398

>  <PEOE_VSA_NEG>
196.24683

>  <PEOE_VSA_PNEG>
43.518566

>  <PEOE_VSA_POL>
63.384743

>  <PEOE_VSA_POS>
235.78189

>  <PEOE_VSA_PPOS>
19.866175

>  <petitjean>
0.46666667

>  <petitjeanSC>
0.875

>  <Q_PC+>
0

>  <Q_PC->
0

>  <Q_RPC+>
0

>  <Q_RPC->
0

>  <Q_VSA_FHYD>
1

>  <Q_VSA_FNEG>
0

>  <Q_VSA_FPNEG>
0

>  <Q_VSA_FPOL>
0

>  <Q_VSA_FPOS>
1

>  <Q_VSA_FPPOS>
0

>  <Q_VSA_HYD>
432.02872

>  <Q_VSA_NEG>
0

>  <Q_VSA_PNEG>
0

>  <Q_VSA_POL>
0

>  <Q_VSA_POS>
432.02872

>  <Q_VSA_PPOS>
0

>  <radius>
8

>  <reactive>
0

>  <rings>
4

>  <RPC+>
0

>  <RPC->
0

>  <rsynth>
0.67741936

>  <SlogP>
3.49824

>  <SlogP_VSA0>
34.415749

>  <SlogP_VSA1>
118.19308

>  <SlogP_VSA2>
6.6407428

>  <SlogP_VSA3>
0

>  <SlogP_VSA4>
5.9423227

>  <SlogP_VSA5>
34.447922

>  <SlogP_VSA6>
0

>  <SlogP_VSA7>
145.43375

>  <SlogP_VSA8>
0

>  <SlogP_VSA9>
109.28973

>  <SMR>
12.16619

>  <SMR_VSA0>
48.171688

>  <SMR_VSA1>
52.010635

>  <SMR_VSA2>
4.6750479

>  <SMR_VSA3>
5.9423227

>  <SMR_VSA4>
63.759796

>  <SMR_VSA5>
140.71664

>  <SMR_VSA6>
0

>  <SMR_VSA7>
139.08714

>  <TPSA>
119.03

>  <VAdjEq>
0.36875206

>  <VAdjMa>
6.0874629

>  <VDistEq>
3.7661464

>  <VDistMa>
9.5941191

>  <vdw_area>
432.02872

>  <vdw_vol>
562.97229

>  <vsa_acc>
52.802715

>  <vsa_acid>
0

>  <vsa_base>
0

>  <vsa_don>
25.817696

>  <vsa_hyd>
292.97467

>  <vsa_other>
36.977745

>  <vsa_pol>
78.620415

>  <Weight>
437.52798

>  <weinerPath>
2938

>  <weinerPol>
52

>  <zagreb>
170

$$$$