N(=C(NCCc1ccccc1)/N)/C(N)=N
  MOE2013           2D

 15 15  0  0  0  0  0  0  0  0999 V2000
    0.0000    0.0000    0.0000 N   0  0  0  0  0  0  0  0  0  0  0  0
   -1.2980    0.7520    0.0000 C   0  0  0  0  0  0  0  0  0  0  0  0
   -2.5980    0.0040    0.0000 N   0  0  0  0  0  0  0  0  0  0  0  0
   -3.8960    0.7560    0.0000 C   0  0  0  0  0  0  0  0  0  0  0  0
   -5.1960    0.0080    0.0000 C   0  0  0  0  0  0  0  0  0  0  0  0
   -6.4940    0.7610    0.0000 C   0  0  0  0  0  0  0  0  0  0  0  0
   -6.4920    2.2610    0.0000 C   0  0  0  0  0  0  0  0  0  0  0  0
   -7.7890    3.0130    0.0000 C   0  0  0  0  0  0  0  0  0  0  0  0
   -9.0900    2.2650    0.0000 C   0  0  0  0  0  0  0  0  0  0  0  0
   -9.0920    0.7650    0.0000 C   0  0  0  0  0  0  0  0  0  0  0  0
   -7.7940    0.0130    0.0000 C   0  0  0  0  0  0  0  0  0  0  0  0
   -1.2950    2.2520    0.0000 N   0  0  0  0  0  0  0  0  0  0  0  0
    1.3000    0.7480    0.0000 C   0  0  0  0  0  0  0  0  0  0  0  0
    2.5980   -0.0040    0.0000 N   0  0  0  0  0  0  0  0  0  0  0  0
    1.3030    2.2480    0.0000 N   0  0  0  0  0  0  0  0  0  0  0  0
  1  2  2  0  0  0  0
  1 13  1  0  0  0  0
  2  3  1  0  0  0  0
  2 12  1  0  0  0  0
  3  4  1  0  0  0  0
  4  5  1  0  0  0  0
  5  6  1  0  0  0  0
  6  7  1  0  0  0  0
  6 11  2  0  0  0  0
  7  8  2  0  0  0  0
  8  9  1  0  0  0  0
  9 10  2  0  0  0  0
 10 11  1  0  0  0  0
 13 14  1  0  0  0  0
 13 15  2  0  0  0  0
M  END
>  <Index>
848

>  <ID>
HT1646

>  <class>
0

>  <apol>
33.101894

>  <ast_fraglike>
0

>  <ast_fraglike_ext>
0

>  <ast_violation>
1

>  <ast_violation_ext>
3

>  <a_acc>
2

>  <a_acid>
0

>  <a_aro>
6

>  <a_base>
0

>  <a_count>
30

>  <a_don>
4

>  <a_donacc>
6

>  <a_heavy>
15

>  <a_hyd>
8

>  <a_IC>
43.774437

>  <a_ICM>
1.4591479

>  <a_nB>
0

>  <a_nBr>
0

>  <a_nC>
10

>  <a_nCl>
0

>  <a_nF>
0

>  <a_nH>
15

>  <a_nI>
0

>  <a_nN>
5

>  <a_nO>
0

>  <a_nP>
0

>  <a_nS>
0

>  <balabanJ>
2.0040755

>  <BCUT_PEOE_0>
-2.5094445

>  <BCUT_PEOE_1>
-0.66791207

>  <BCUT_PEOE_2>
0.69606096

>  <BCUT_PEOE_3>
2.4397473

>  <BCUT_SLOGP_0>
-2.7232144

>  <BCUT_SLOGP_1>
-0.56767505

>  <BCUT_SLOGP_2>
0.75528497

>  <BCUT_SLOGP_3>
2.4227638

>  <BCUT_SMR_0>
-2.2215624

>  <BCUT_SMR_1>
-0.48648903

>  <BCUT_SMR_2>
0.85764152

>  <BCUT_SMR_3>
2.7225599

>  <bpol>
17.058105

>  <b_1rotN>
4

>  <b_1rotR>
0.26666668

>  <b_ar>
6

>  <b_count>
30

>  <b_double>
2

>  <b_heavy>
15

>  <b_max1len>
4

>  <b_rotN>
5

>  <b_rotR>
0.33333334

>  <b_single>
22

>  <b_triple>
0

>  <chi0>
11.096012

>  <chi0v>
8.4028788

>  <chi0v_C>
5.8009648

>  <chi0_C>
6.6817985

>  <chi1>
7.1815405

>  <chi1v>
4.642354

>  <chi1v_C>
2.7642369

>  <chi1_C>
3.7247448

>  <chiral>
0

>  <chiral_u>
0

>  <density>
0.70902175

>  <diameter>
10

>  <FCharge>
0

>  <GCUT_PEOE_0>
-0.84841257

>  <GCUT_PEOE_1>
-0.41114357

>  <GCUT_PEOE_2>
0.098982871

>  <GCUT_PEOE_3>
2.2666149

>  <GCUT_SLOGP_0>
-1.3771688

>  <GCUT_SLOGP_1>
-0.3158237

>  <GCUT_SLOGP_2>
0.17338593

>  <GCUT_SLOGP_3>
2.3043194

>  <GCUT_SMR_0>
-0.50576109

>  <GCUT_SMR_1>
-0.20614849

>  <GCUT_SMR_2>
0.20464648

>  <GCUT_SMR_3>
2.5514262

>  <Kier1>
13.066667

>  <Kier2>
7.3024693

>  <Kier3>
6.2222223

>  <KierA1>
8.5449286

>  <KierA2>
4.6134653

>  <KierA3>
3.8203349

>  <KierFlex>
2.6281154

>  <lip_acc>
5

>  <lip_don>
6

>  <lip_druglike>
1

>  <lip_violation>
1

>  <logP(o/w)>
1.17

>  <logS>
-2.16974

>  <mr>
5.8827229

>  <mutagenic>
0

>  <nmol>
1

>  <opr_brigid>
8

>  <opr_leadlike>
1

>  <opr_nring>
1

>  <opr_nrot>
5

>  <opr_violation>
1

>  <PC+>
0

>  <PC->
0

>  <PEOE_PC+>
1.897866

>  <PEOE_PC->
-1.897866

>  <PEOE_RPC+>
0.11432379

>  <PEOE_RPC->
0.19474779

>  <PEOE_VSA+0>
30.253868

>  <PEOE_VSA+1>
21.326929

>  <PEOE_VSA+2>
0

>  <PEOE_VSA+3>
67.395653

>  <PEOE_VSA+4>
15.681574

>  <PEOE_VSA+5>
0

>  <PEOE_VSA+6>
0

>  <PEOE_VSA-0>
10.909853

>  <PEOE_VSA-1>
61.274521

>  <PEOE_VSA-2>
0

>  <PEOE_VSA-3>
5.6825762

>  <PEOE_VSA-4>
0

>  <PEOE_VSA-5>
12.196804

>  <PEOE_VSA-6>
13.43913

>  <PEOE_VSA_FHYD>
0.8265143

>  <PEOE_VSA_FNEG>
0.43459225

>  <PEOE_VSA_FPNEG>
0.10764123

>  <PEOE_VSA_FPOL>
0.17348568

>  <PEOE_VSA_FPOS>
0.56540775

>  <PEOE_VSA_FPPOS>
0.065844454

>  <PEOE_VSA_HYD>
196.8434

>  <PEOE_VSA_NEG>
103.50288

>  <PEOE_VSA_PNEG>
25.635935

>  <PEOE_VSA_POL>
41.317509

>  <PEOE_VSA_POS>
134.65802

>  <PEOE_VSA_PPOS>
15.681574

>  <petitjean>
0.5

>  <petitjeanSC>
1

>  <Q_PC+>
0

>  <Q_PC->
0

>  <Q_RPC+>
0

>  <Q_RPC->
0

>  <Q_VSA_FHYD>
1

>  <Q_VSA_FNEG>
0

>  <Q_VSA_FPNEG>
0

>  <Q_VSA_FPOL>
0

>  <Q_VSA_FPOS>
1

>  <Q_VSA_FPPOS>
0

>  <Q_VSA_HYD>
238.1609

>  <Q_VSA_NEG>
0

>  <Q_VSA_PNEG>
0

>  <Q_VSA_POL>
0

>  <Q_VSA_POS>
238.1609

>  <Q_VSA_PPOS>
0

>  <radius>
5

>  <reactive>
0

>  <rings>
1

>  <RPC+>
0

>  <RPC->
0

>  <rsynth>
1

>  <SlogP>
0.026839999

>  <SlogP_VSA0>
83.805122

>  <SlogP_VSA1>
3.7981856

>  <SlogP_VSA2>
0

>  <SlogP_VSA3>
18.439579

>  <SlogP_VSA4>
3.185575

>  <SlogP_VSA5>
35.653934

>  <SlogP_VSA6>
0

>  <SlogP_VSA7>
119.88789

>  <SlogP_VSA8>
0

>  <SlogP_VSA9>
0

>  <SMR>
6.16852

>  <SMR_VSA0>
0

>  <SMR_VSA1>
16.78553

>  <SMR_VSA2>
49.682716

>  <SMR_VSA3>
3.185575

>  <SMR_VSA4>
65.794373

>  <SMR_VSA5>
107.08433

>  <SMR_VSA6>
22.237764

>  <SMR_VSA7>
0

>  <TPSA>
100.28

>  <VAdjEq>
0.56650949

>  <VAdjMa>
4.9068904

>  <VDistEq>
3.162354

>  <VDistMa>
7.45719

>  <vdw_area>
238.1609

>  <vdw_vol>
289.50452

>  <vsa_acc>
5.6825762

>  <vsa_acid>
0

>  <vsa_base>
0

>  <vsa_don>
41.167557

>  <vsa_hyd>
117.35902

>  <vsa_other>
31.363148

>  <vsa_pol>
64.592621

>  <Weight>
205.265

>  <weinerPath>
450

>  <weinerPol>
15

>  <zagreb>
66

$$$$