Clc1cc(ccc1N1CC=CC1)C(C(O)=O)C
  MOE2013           2D

 17 18  0  0  1  0  0  0  0  0999 V2000
    0.0000    0.0000    0.0000 Cl  0  0  0  0  0  0  0  0  0  0  0  0
    1.3010   -0.7470    0.0000 C   0  0  0  0  0  0  0  0  0  0  0  0
    2.5980    0.0060    0.0000 C   0  0  0  0  0  0  0  0  0  0  0  0
    3.8990   -0.7400    0.0000 C   0  0  0  0  0  0  0  0  0  0  0  0
    3.9030   -2.2400    0.0000 C   0  0  0  0  0  0  0  0  0  0  0  0
    2.6060   -2.9940    0.0000 C   0  0  0  0  0  0  0  0  0  0  0  0
    1.3050   -2.2470    0.0000 C   0  0  0  0  0  0  0  0  0  0  0  0
    0.0070   -3.0000    0.0000 N   0  0  0  0  0  0  0  0  0  0  0  0
   -1.3640   -2.3930    0.0000 C   0  0  0  0  0  0  0  0  0  0  0  0
   -2.3650   -3.5100    0.0000 C   0  0  0  0  0  0  0  0  0  0  0  0
   -1.6120   -4.8080    0.0000 C   0  0  0  0  0  0  0  0  0  0  0  0
   -0.1460   -4.4920    0.0000 C   0  0  0  0  0  0  0  0  0  0  0  0
    5.1960    0.0130    0.0000 C   0  0  3  0  0  0  0  0  0  0  0  0
    6.4970   -0.7340    0.0000 C   0  0  0  0  0  0  0  0  0  0  0  0
    6.5010   -2.2340    0.0000 O   0  0  0  0  0  0  0  0  0  0  0  0
    7.7940    0.0190    0.0000 O   0  0  0  0  0  0  0  0  0  0  0  0
    5.1920    1.5130    0.0000 C   0  0  0  0  0  0  0  0  0  0  0  0
  1  2  1  0  0  0  0
  2  3  1  0  0  0  0
  2  7  2  0  0  0  0
  3  4  2  0  0  0  0
  4  5  1  0  0  0  0
  4 13  1  0  0  0  0
  5  6  2  0  0  0  0
  6  7  1  0  0  0  0
  7  8  1  0  0  0  0
  8  9  1  0  0  0  0
  8 12  1  0  0  0  0
  9 10  1  0  0  0  0
 10 11  2  0  0  0  0
 11 12  1  0  0  0  0
 13 14  1  0  0  0  0
 13 17  1  0  0  0  0
 14 15  1  0  0  0  0
 14 16  2  0  0  0  0
M  END
>  <Index>
875

>  <ID>
HT1697

>  <class>
0

>  <apol>
37.099102

>  <ast_fraglike>
1

>  <ast_fraglike_ext>
1

>  <ast_violation>
0

>  <ast_violation_ext>
0

>  <a_acc>
2

>  <a_acid>
0

>  <a_aro>
6

>  <a_base>
0

>  <a_count>
31

>  <a_don>
2

>  <a_donacc>
4

>  <a_heavy>
17

>  <a_hyd>
13

>  <a_IC>
50.171402

>  <a_ICM>
1.6184323

>  <a_nB>
0

>  <a_nBr>
0

>  <a_nC>
13

>  <a_nCl>
1

>  <a_nF>
0

>  <a_nH>
14

>  <a_nI>
0

>  <a_nN>
1

>  <a_nO>
2

>  <a_nP>
0

>  <a_nS>
0

>  <balabanJ>
1.8903273

>  <BCUT_PEOE_0>
-2.4629726

>  <BCUT_PEOE_1>
-0.65739501

>  <BCUT_PEOE_2>
0.62703907

>  <BCUT_PEOE_3>
2.4978309

>  <BCUT_SLOGP_0>
-2.5179133

>  <BCUT_SLOGP_1>
-0.45522282

>  <BCUT_SLOGP_2>
0.7181626

>  <BCUT_SLOGP_3>
2.5616014

>  <BCUT_SMR_0>
-2.1868131

>  <BCUT_SMR_1>
-0.42404237

>  <BCUT_SMR_2>
0.76568294

>  <BCUT_SMR_3>
2.8117876

>  <bpol>
18.662897

>  <b_1rotN>
3

>  <b_1rotR>
0.16666667

>  <b_ar>
6

>  <b_count>
32

>  <b_double>
2

>  <b_heavy>
18

>  <b_max1len>
3

>  <b_rotN>
3

>  <b_rotR>
0.16666667

>  <b_single>
24

>  <b_triple>
0

>  <chi0>
12.413849

>  <chi0v>
10.314884

>  <chi0v_C>
7.878315

>  <chi0_C>
8.8364992

>  <chi1>
8.0922241

>  <chi1v>
5.8933043

>  <chi1v_C>
4.0425644

>  <chi1_C>
5.2103434

>  <chiral>
1

>  <chiral_u>
1

>  <density>
0.7777651

>  <diameter>
9

>  <FCharge>
0

>  <GCUT_PEOE_0>
-0.8311038

>  <GCUT_PEOE_1>
-0.42872307

>  <GCUT_PEOE_2>
0.063915707

>  <GCUT_PEOE_3>
2.4441547

>  <GCUT_SLOGP_0>
-0.98761153

>  <GCUT_SLOGP_1>
-0.31131381

>  <GCUT_SLOGP_2>
0.14662236

>  <GCUT_SLOGP_3>
2.5584416

>  <GCUT_SMR_0>
-0.50064367

>  <GCUT_SMR_1>
-0.20085728

>  <GCUT_SMR_2>
0.17414965

>  <GCUT_SMR_3>
2.7386351

>  <Kier1>
13.432098

>  <Kier2>
5.7600002

>  <Kier3>
3.0625

>  <KierA1>
10.993771

>  <KierA2>
4.6508627

>  <KierA3>
2.4461603

>  <KierFlex>
3.0076776

>  <lip_acc>
3

>  <lip_don>
1

>  <lip_druglike>
1

>  <lip_violation>
0

>  <logP(o/w)>
2.875

>  <logS>
-2.9338801

>  <mr>
6.8108015

>  <mutagenic>
0

>  <nmol>
1

>  <opr_brigid>
11

>  <opr_leadlike>
1

>  <opr_nring>
2

>  <opr_nrot>
3

>  <opr_violation>
0

>  <PC+>
0

>  <PC->
0

>  <PEOE_PC+>
1.3065588

>  <PEOE_PC->
-1.3065588

>  <PEOE_RPC+>
0.20419745

>  <PEOE_RPC->
0.25319889

>  <PEOE_VSA+0>
67.207291

>  <PEOE_VSA+1>
25.846676

>  <PEOE_VSA+2>
0

>  <PEOE_VSA+3>
0

>  <PEOE_VSA+4>
10.324173

>  <PEOE_VSA+5>
14.708499

>  <PEOE_VSA+6>
0

>  <PEOE_VSA-0>
45.466026

>  <PEOE_VSA-1>
66.346657

>  <PEOE_VSA-2>
0

>  <PEOE_VSA-3>
0

>  <PEOE_VSA-4>
0

>  <PEOE_VSA-5>
13.566921

>  <PEOE_VSA-6>
7.7675405

>  <PEOE_VSA_FHYD>
0.81544226

>  <PEOE_VSA_FNEG>
0.52997309

>  <PEOE_VSA_FPNEG>
0.08491876

>  <PEOE_VSA_FPOL>
0.18455772

>  <PEOE_VSA_FPOS>
0.47002691

>  <PEOE_VSA_FPPOS>
0.099638954

>  <PEOE_VSA_HYD>
204.86665

>  <PEOE_VSA_NEG>
133.14714

>  <PEOE_VSA_PNEG>
21.334461

>  <PEOE_VSA_POL>
46.367134

>  <PEOE_VSA_POS>
118.08664

>  <PEOE_VSA_PPOS>
25.032671

>  <petitjean>
0.44444445

>  <petitjeanSC>
0.80000001

>  <Q_PC+>
0

>  <Q_PC->
0

>  <Q_RPC+>
0

>  <Q_RPC->
0

>  <Q_VSA_FHYD>
1

>  <Q_VSA_FNEG>
0

>  <Q_VSA_FPNEG>
0

>  <Q_VSA_FPOL>
0

>  <Q_VSA_FPOS>
1

>  <Q_VSA_FPPOS>
0

>  <Q_VSA_HYD>
251.23378

>  <Q_VSA_NEG>
0

>  <Q_VSA_PNEG>
0

>  <Q_VSA_POL>
0

>  <Q_VSA_POS>
251.23378

>  <Q_VSA_PPOS>
0

>  <radius>
5

>  <reactive>
0

>  <rings>
2

>  <RPC+>
0

>  <RPC->
0

>  <rsynth>
1

>  <SlogP>
2.9043

>  <SlogP_VSA0>
3.1243138

>  <SlogP_VSA1>
7.7454643

>  <SlogP_VSA2>
23.862217

>  <SlogP_VSA3>
62.264381

>  <SlogP_VSA4>
3.185575

>  <SlogP_VSA5>
0

>  <SlogP_VSA6>
7.9114027

>  <SlogP_VSA7>
88.215919

>  <SlogP_VSA8>
0

>  <SlogP_VSA9>
75.231407

>  <SMR>
6.8855801

>  <SMR_VSA0>
23.862217

>  <SMR_VSA1>
0

>  <SMR_VSA2>
28.509541

>  <SMR_VSA3>
11.096977

>  <SMR_VSA4>
2.7567475

>  <SMR_VSA5>
88.215919

>  <SMR_VSA6>
44.624619

>  <SMR_VSA7>
72.474655

>  <TPSA>
40.540001

>  <VAdjEq>
0.54234898

>  <VAdjMa>
5.1699252

>  <VDistEq>
2.9844644

>  <VDistMa>
7.8620424

>  <vdw_area>
251.23378

>  <vdw_vol>
323.63626

>  <vsa_acc>
0

>  <vsa_acid>
0

>  <vsa_base>
0

>  <vsa_don>
0

>  <vsa_hyd>
194.26826

>  <vsa_other>
14.708499

>  <vsa_pol>
27.133842

>  <Weight>
251.713

>  <weinerPath>
529

>  <weinerPol>
24

>  <zagreb>
86

$$$$