O=C1N(CCCCC(=O)C)C(=O)N(c2ncn(c12)C)C
  MOE2013           2D

 20 21  0  0  0  0  0  0  0  0999 V2000
    0.0000    0.0000    0.0000 O   0  0  0  0  0  0  0  0  0  0  0  0
   -0.7530   -1.2970    0.0000 C   0  0  0  0  0  0  0  0  0  0  0  0
   -0.0070   -2.5980    0.0000 N   0  0  0  0  0  0  0  0  0  0  0  0
    1.4930   -2.6020    0.0000 C   0  0  0  0  0  0  0  0  0  0  0  0
    2.2400   -3.9030    0.0000 C   0  0  0  0  0  0  0  0  0  0  0  0
    3.7400   -3.9070    0.0000 C   0  0  0  0  0  0  0  0  0  0  0  0
    4.4870   -5.2070    0.0000 C   0  0  0  0  0  0  0  0  0  0  0  0
    5.9870   -5.2110    0.0000 C   0  0  0  0  0  0  0  0  0  0  0  0
    6.7340   -6.5120    0.0000 O   0  0  0  0  0  0  0  0  0  0  0  0
    6.7400   -3.9140    0.0000 C   0  0  0  0  0  0  0  0  0  0  0  0
   -0.7600   -3.8950    0.0000 C   0  0  0  0  0  0  0  0  0  0  0  0
   -0.0130   -5.1960    0.0000 O   0  0  0  0  0  0  0  0  0  0  0  0
   -2.2600   -3.8910    0.0000 N   0  0  0  0  0  0  0  0  0  0  0  0
   -3.0070   -2.5910    0.0000 C   0  0  0  0  0  0  0  0  0  0  0  0
   -4.4730   -2.2750    0.0000 N   0  0  0  0  0  0  0  0  0  0  0  0
   -4.6260   -0.7830    0.0000 C   0  0  0  0  0  0  0  0  0  0  0  0
   -3.2540   -0.1760    0.0000 N   0  0  0  0  0  0  0  0  0  0  0  0
   -2.2530   -1.2930    0.0000 C   0  0  0  0  0  0  0  0  0  0  0  0
   -2.9390    1.2900    0.0000 C   0  0  0  0  0  0  0  0  0  0  0  0
   -3.0130   -5.1890    0.0000 C   0  0  0  0  0  0  0  0  0  0  0  0
  1  2  2  0  0  0  0
  2  3  1  0  0  0  0
  2 18  1  0  0  0  0
  3  4  1  0  0  0  0
  3 11  1  0  0  0  0
  4  5  1  0  0  0  0
  5  6  1  0  0  0  0
  6  7  1  0  0  0  0
  7  8  1  0  0  0  0
  8  9  2  0  0  0  0
  8 10  1  0  0  0  0
 11 12  2  0  0  0  0
 11 13  1  0  0  0  0
 13 14  1  0  0  0  0
 13 20  1  0  0  0  0
 14 15  1  0  0  0  0
 14 18  2  0  0  0  0
 15 16  2  0  0  0  0
 16 17  1  0  0  0  0
 17 18  1  0  0  0  0
 17 19  1  0  0  0  0
M  END
>  <Index>
837

>  <ID>
HT1627

>  <class>
0

>  <apol>
41.688274

>  <ast_fraglike>
0

>  <ast_fraglike_ext>
0

>  <ast_violation>
1

>  <ast_violation_ext>
2

>  <a_acc>
4

>  <a_acid>
0

>  <a_aro>
5

>  <a_base>
0

>  <a_count>
38

>  <a_don>
0

>  <a_donacc>
4

>  <a_heavy>
20

>  <a_hyd>
8

>  <a_IC>
63.501991

>  <a_ICM>
1.671105

>  <a_nB>
0

>  <a_nBr>
0

>  <a_nC>
13

>  <a_nCl>
0

>  <a_nF>
0

>  <a_nH>
18

>  <a_nI>
0

>  <a_nN>
4

>  <a_nO>
3

>  <a_nP>
0

>  <a_nS>
0

>  <balabanJ>
1.9412063

>  <BCUT_PEOE_0>
-2.615624

>  <BCUT_PEOE_1>
-0.31771174

>  <BCUT_PEOE_2>
0.16700222

>  <BCUT_PEOE_3>
2.6085446

>  <BCUT_SLOGP_0>
-2.6781657

>  <BCUT_SLOGP_1>
-0.20153184

>  <BCUT_SLOGP_2>
0.30911136

>  <BCUT_SLOGP_3>
2.6602283

>  <BCUT_SMR_0>
-2.367496

>  <BCUT_SMR_1>
-0.041926909

>  <BCUT_SMR_2>
0.42822948

>  <BCUT_SMR_3>
2.8657761

>  <bpol>
29.811726

>  <b_1rotN>
5

>  <b_1rotR>
0.23809524

>  <b_ar>
5

>  <b_count>
39

>  <b_double>
3

>  <b_heavy>
21

>  <b_max1len>
7

>  <b_rotN>
5

>  <b_rotR>
0.23809524

>  <b_single>
31

>  <b_triple>
0

>  <chi0>
14.861443

>  <chi0v>
11.919376

>  <chi0v_C>
8.905777

>  <chi0_C>
9.4222851

>  <chi1>
9.4304285

>  <chi1v>
6.5346193

>  <chi1v_C>
2.8535533

>  <chi1_C>
3.1522653

>  <chiral>
0

>  <chiral_u>
0

>  <density>
0.76358944

>  <diameter>
10

>  <FCharge>
0

>  <GCUT_PEOE_0>
-0.84114373

>  <GCUT_PEOE_1>
-0.42620274

>  <GCUT_PEOE_2>
-0.1117996

>  <GCUT_PEOE_3>
2.5718055

>  <GCUT_SLOGP_0>
-1.0014913

>  <GCUT_SLOGP_1>
-0.29338086

>  <GCUT_SLOGP_2>
-0.037

>  <GCUT_SLOGP_3>
2.5658579

>  <GCUT_SMR_0>
-0.52546191

>  <GCUT_SMR_1>
-0.14003062

>  <GCUT_SMR_2>
0.068961859

>  <GCUT_SMR_3>
2.8233836

>  <Kier1>
16.371881

>  <Kier2>
6.8400002

>  <Kier3>
3.4425001

>  <KierA1>
11.857317

>  <KierA2>
4.8622713

>  <KierA3>
2.4138265

>  <KierFlex>
2.8826747

>  <lip_acc>
7

>  <lip_don>
0

>  <lip_druglike>
1

>  <lip_violation>
0

>  <logP(o/w)>
0.048999999

>  <logS>
-1.3125

>  <mr>
7.3354607

>  <mutagenic>
0

>  <nmol>
1

>  <opr_brigid>
10

>  <opr_leadlike>
1

>  <opr_nring>
2

>  <opr_nrot>
5

>  <opr_violation>
0

>  <PC+>
0

>  <PC->
0

>  <PEOE_PC+>
1.9783205

>  <PEOE_PC->
-1.9783205

>  <PEOE_RPC+>
0.16848537

>  <PEOE_RPC->
0.16565607

>  <PEOE_VSA+0>
140.88258

>  <PEOE_VSA+1>
21.236927

>  <PEOE_VSA+2>
12.723906

>  <PEOE_VSA+3>
17.890114

>  <PEOE_VSA+4>
0

>  <PEOE_VSA+5>
12.949531

>  <PEOE_VSA+6>
17.440542

>  <PEOE_VSA-0>
36.150303

>  <PEOE_VSA-1>
0

>  <PEOE_VSA-2>
0

>  <PEOE_VSA-3>
0

>  <PEOE_VSA-4>
19.249496

>  <PEOE_VSA-5>
27.133842

>  <PEOE_VSA-6>
0

>  <PEOE_VSA_FHYD>
0.74882513

>  <PEOE_VSA_FNEG>
0.27002025

>  <PEOE_VSA_FPNEG>
0.15174952

>  <PEOE_VSA_FPOL>
0.25117484

>  <PEOE_VSA_FPOS>
0.72997975

>  <PEOE_VSA_FPPOS>
0.099425338

>  <PEOE_VSA_HYD>
228.88383

>  <PEOE_VSA_NEG>
82.533646

>  <PEOE_VSA_PNEG>
46.383339

>  <PEOE_VSA_POL>
76.773415

>  <PEOE_VSA_POS>
223.1236

>  <PEOE_VSA_PPOS>
30.390074

>  <petitjean>
0.5

>  <petitjeanSC>
1

>  <Q_PC+>
0

>  <Q_PC->
0

>  <Q_RPC+>
0

>  <Q_RPC->
0

>  <Q_VSA_FHYD>
1

>  <Q_VSA_FNEG>
0

>  <Q_VSA_FPNEG>
0

>  <Q_VSA_FPOL>
0

>  <Q_VSA_FPOS>
1

>  <Q_VSA_FPPOS>
0

>  <Q_VSA_HYD>
305.65723

>  <Q_VSA_NEG>
0

>  <Q_VSA_PNEG>
0

>  <Q_VSA_POL>
0

>  <Q_VSA_POS>
305.65723

>  <Q_VSA_PPOS>
0

>  <radius>
5

>  <reactive>
1

>  <rings>
2

>  <RPC+>
0

>  <RPC->
0

>  <rsynth>
1

>  <SlogP>
1.5506001

>  <SlogP_VSA0>
3.1243138

>  <SlogP_VSA1>
37.585285

>  <SlogP_VSA2>
23.862217

>  <SlogP_VSA3>
18.439579

>  <SlogP_VSA4>
26.618963

>  <SlogP_VSA5>
32.897186

>  <SlogP_VSA6>
0

>  <SlogP_VSA7>
16.78553

>  <SlogP_VSA8>
56.605217

>  <SlogP_VSA9>
92.413338

>  <SMR>
7.2856498

>  <SMR_VSA0>
71.586647

>  <SMR_VSA1>
21.808937

>  <SMR_VSA2>
3.1243138

>  <SMR_VSA3>
2.7567475

>  <SMR_VSA4>
2.3279202

>  <SMR_VSA5>
73.390747

>  <SMR_VSA6>
34.215927

>  <SMR_VSA7>
99.120392

>  <TPSA>
75.510002

>  <VAdjEq>
0.48464775

>  <VAdjMa>
5.3923173

>  <VDistEq>
3.1697831

>  <VDistMa>
8.3343639

>  <vdw_area>
305.65723

>  <vdw_vol>
364.47858

>  <vsa_acc>
46.383339

>  <vsa_acid>
0

>  <vsa_base>
0

>  <vsa_don>
0

>  <vsa_hyd>
171.63191

>  <vsa_other>
74.829674

>  <vsa_pol>
46.383339

>  <Weight>
278.31198

>  <weinerPath>
834

>  <weinerPol>
32

>  <zagreb>
102

$$$$