O(C)c1ccc(cc1)C[C@H](NC[C@@H](O)c1cc(NC=O)c(O)cc1)C
  MOE2013           2D

 25 26  0  0  1  0  0  0  0  0999 V2000
    0.0000    0.0000    0.0000 O   0  0  0  0  0  0  0  0  0  0  0  0
    1.2980   -0.7520    0.0000 C   0  0  0  0  0  0  0  0  0  0  0  0
   -1.3000   -0.7480    0.0000 C   0  0  0  0  0  0  0  0  0  0  0  0
   -2.5980    0.0040    0.0000 C   0  0  0  0  0  0  0  0  0  0  0  0
   -3.8980   -0.7440    0.0000 C   0  0  0  0  0  0  0  0  0  0  0  0
   -3.9010   -2.2440    0.0000 C   0  0  0  0  0  0  0  0  0  0  0  0
   -2.6030   -2.9960    0.0000 C   0  0  0  0  0  0  0  0  0  0  0  0
   -1.3030   -2.2480    0.0000 C   0  0  0  0  0  0  0  0  0  0  0  0
   -5.2010   -2.9910    0.0000 C   0  0  0  0  0  0  0  0  0  0  0  0
   -6.4990   -2.2390    0.0000 C   0  0  2  0  0  0  0  0  0  0  0  0
   -7.7990   -2.9870    0.0000 N   0  0  0  0  0  0  0  0  0  0  0  0
   -9.0970   -2.2350    0.0000 C   0  0  0  0  0  0  0  0  0  0  0  0
  -10.3970   -2.9830    0.0000 C   0  0  1  0  0  0  0  0  0  0  0  0
  -10.4000   -4.4830    0.0000 O   0  0  0  0  0  0  0  0  0  0  0  0
  -11.6950   -2.2310    0.0000 C   0  0  0  0  0  0  0  0  0  0  0  0
  -12.9950   -2.9780    0.0000 C   0  0  0  0  0  0  0  0  0  0  0  0
  -14.2930   -2.2260    0.0000 C   0  0  0  0  0  0  0  0  0  0  0  0
  -15.5930   -2.9740    0.0000 N   0  0  0  0  0  0  0  0  0  0  0  0
  -15.5960   -4.4740    0.0000 C   0  0  0  0  0  0  0  0  0  0  0  0
  -16.8960   -5.2220    0.0000 O   0  0  0  0  0  0  0  0  0  0  0  0
  -14.2910   -0.7260    0.0000 C   0  0  0  0  0  0  0  0  0  0  0  0
  -15.5880    0.0260    0.0000 O   0  0  0  0  0  0  0  0  0  0  0  0
  -12.9900    0.0220    0.0000 C   0  0  0  0  0  0  0  0  0  0  0  0
  -11.6930   -0.7310    0.0000 C   0  0  0  0  0  0  0  0  0  0  0  0
   -6.4960   -0.7390    0.0000 C   0  0  0  0  0  0  0  0  0  0  0  0
  1  2  1  0  0  0  0
  1  3  1  0  0  0  0
  3  4  1  0  0  0  0
  3  8  2  0  0  0  0
  4  5  2  0  0  0  0
  5  6  1  0  0  0  0
  6  7  2  0  0  0  0
  6  9  1  0  0  0  0
  7  8  1  0  0  0  0
  9 10  1  0  0  0  0
 10 11  1  0  0  0  0
 10 25  1  6  0  0  0
 11 12  1  0  0  0  0
 12 13  1  0  0  0  0
 13 14  1  1  0  0  0
 13 15  1  0  0  0  0
 15 16  1  0  0  0  0
 15 24  2  0  0  0  0
 16 17  2  0  0  0  0
 17 18  1  0  0  0  0
 17 21  1  0  0  0  0
 18 19  1  0  0  0  0
 19 20  2  0  0  0  0
 21 22  1  0  0  0  0
 21 23  2  0  0  0  0
 23 24  1  0  0  0  0
M  END
>  <Index>
89

>  <ID>
HT0178

>  <class>
0

>  <apol>
54.851032

>  <ast_fraglike>
0

>  <ast_fraglike_ext>
0

>  <ast_violation>
3

>  <ast_violation_ext>
4

>  <a_acc>
5

>  <a_acid>
0

>  <a_aro>
12

>  <a_base>
0

>  <a_count>
49

>  <a_don>
4

>  <a_donacc>
9

>  <a_heavy>
25

>  <a_hyd>
18

>  <a_IC>
74.371063

>  <a_ICM>
1.5177767

>  <a_nB>
0

>  <a_nBr>
0

>  <a_nC>
19

>  <a_nCl>
0

>  <a_nF>
0

>  <a_nH>
24

>  <a_nI>
0

>  <a_nN>
2

>  <a_nO>
4

>  <a_nP>
0

>  <a_nS>
0

>  <balabanJ>
1.6614686

>  <BCUT_PEOE_0>
-2.6518407

>  <BCUT_PEOE_1>
-0.59127367

>  <BCUT_PEOE_2>
0.68574584

>  <BCUT_PEOE_3>
2.5844116

>  <BCUT_SLOGP_0>
-2.7675023

>  <BCUT_SLOGP_1>
-0.53807992

>  <BCUT_SLOGP_2>
0.59823644

>  <BCUT_SLOGP_3>
2.5676768

>  <BCUT_SMR_0>
-2.3798411

>  <BCUT_SMR_1>
-0.48042279

>  <BCUT_SMR_2>
0.77618164

>  <BCUT_SMR_3>
2.8507786

>  <bpol>
30.430967

>  <b_1rotN>
8

>  <b_1rotR>
0.30769232

>  <b_ar>
12

>  <b_count>
50

>  <b_double>
1

>  <b_heavy>
26

>  <b_max1len>
7

>  <b_rotN>
9

>  <b_rotR>
0.34615386

>  <b_single>
37

>  <b_triple>
0

>  <chi0>
18.233841

>  <chi0v>
14.39864

>  <chi0v_C>
11.687716

>  <chi0_C>
13.112519

>  <chi1>
12.028407

>  <chi1v>
8.1062603

>  <chi1v_C>
5.5954766

>  <chi1_C>
7.2347484

>  <chiral>
2

>  <chiral_u>
0

>  <density>
0.72308624

>  <diameter>
16

>  <FCharge>
0

>  <GCUT_PEOE_0>
-0.84285402

>  <GCUT_PEOE_1>
-0.38354814

>  <GCUT_PEOE_2>
0.08251106

>  <GCUT_PEOE_3>
2.622117

>  <GCUT_SLOGP_0>
-1.1530329

>  <GCUT_SLOGP_1>
-0.34409857

>  <GCUT_SLOGP_2>
0.13562883

>  <GCUT_SLOGP_3>
2.6953044

>  <GCUT_SMR_0>
-0.51856095

>  <GCUT_SMR_1>
-0.21605732

>  <GCUT_SMR_2>
0.19305076

>  <GCUT_SMR_3>
2.8847649

>  <Kier1>
21.301775

>  <Kier2>
10.982699

>  <Kier3>
6.9101725

>  <KierA1>
16.401154

>  <KierA2>
8.3573599

>  <KierA3>
5.2121687

>  <KierFlex>
5.4828138

>  <lip_acc>
6

>  <lip_don>
4

>  <lip_druglike>
1

>  <lip_violation>
0

>  <logP(o/w)>
2.4030001

>  <logS>
-2.86622

>  <mr>
9.7055635

>  <mutagenic>
0

>  <nmol>
1

>  <opr_brigid>
12

>  <opr_leadlike>
1

>  <opr_nring>
2

>  <opr_nrot>
8

>  <opr_violation>
0

>  <PC+>
0

>  <PC->
0

>  <PEOE_PC+>
2.4169893

>  <PEOE_PC->
-2.4169893

>  <PEOE_RPC+>
0.089946747

>  <PEOE_RPC->
0.15966752

>  <PEOE_VSA+0>
75.45903

>  <PEOE_VSA+1>
75.440765

>  <PEOE_VSA+2>
12.884399

>  <PEOE_VSA+3>
8.6190128

>  <PEOE_VSA+4>
43.644241

>  <PEOE_VSA+5>
0

>  <PEOE_VSA+6>
0

>  <PEOE_VSA-0>
80.885689

>  <PEOE_VSA-1>
36.764713

>  <PEOE_VSA-2>
0

>  <PEOE_VSA-3>
0

>  <PEOE_VSA-4>
0

>  <PEOE_VSA-5>
13.566921

>  <PEOE_VSA-6>
18.312618

>  <PEOE_VSA_FHYD>
0.79341233

>  <PEOE_VSA_FNEG>
0.40902403

>  <PEOE_VSA_FPNEG>
0.087203257

>  <PEOE_VSA_FPOL>
0.20658767

>  <PEOE_VSA_FPOS>
0.59097594

>  <PEOE_VSA_FPPOS>
0.11938441

>  <PEOE_VSA_HYD>
290.05362

>  <PEOE_VSA_NEG>
149.52994

>  <PEOE_VSA_PNEG>
31.879539

>  <PEOE_VSA_POL>
75.523781

>  <PEOE_VSA_POS>
216.04745

>  <PEOE_VSA_PPOS>
43.644241

>  <petitjean>
0.5

>  <petitjeanSC>
1

>  <Q_PC+>
0

>  <Q_PC->
0

>  <Q_RPC+>
0

>  <Q_RPC->
0

>  <Q_VSA_FHYD>
1

>  <Q_VSA_FNEG>
0

>  <Q_VSA_FPNEG>
0

>  <Q_VSA_FPOL>
0

>  <Q_VSA_FPOS>
1

>  <Q_VSA_FPPOS>
0

>  <Q_VSA_HYD>
365.57739

>  <Q_VSA_NEG>
0

>  <Q_VSA_PNEG>
0

>  <Q_VSA_POL>
0

>  <Q_VSA_POS>
365.57739

>  <Q_VSA_PPOS>
0

>  <radius>
8

>  <reactive>
0

>  <rings>
2

>  <RPC+>
0

>  <RPC->
0

>  <rsynth>
1

>  <SlogP>
2.3187699

>  <SlogP_VSA0>
79.78109

>  <SlogP_VSA1>
18.01075

>  <SlogP_VSA2>
47.560577

>  <SlogP_VSA3>
18.439579

>  <SlogP_VSA4>
6.37115

>  <SlogP_VSA5>
54.252274

>  <SlogP_VSA6>
0

>  <SlogP_VSA7>
123.50229

>  <SlogP_VSA8>
6.4686494

>  <SlogP_VSA9>
46.569618

>  <SMR>
9.7026997

>  <SMR_VSA0>
23.862217

>  <SMR_VSA1>
61.77034

>  <SMR_VSA2>
18.01075

>  <SMR_VSA3>
27.308624

>  <SMR_VSA4>
20.767498

>  <SMR_VSA5>
142.3707

>  <SMR_VSA6>
18.439579

>  <SMR_VSA7>
88.426277

>  <TPSA>
90.82

>  <VAdjEq>
0.41335541

>  <VAdjMa>
5.7004399

>  <VDistEq>
3.7318423

>  <VDistMa>
8.9526834

>  <vdw_area>
365.57739

>  <vdw_vol>
476.30695

>  <vsa_acc>
16.070677

>  <vsa_acid>
0

>  <vsa_base>
0

>  <vsa_don>
5.6825762

>  <vsa_hyd>
255.02608

>  <vsa_other>
26.549486

>  <vsa_pol>
54.569672

>  <Weight>
344.41098

>  <weinerPath>
1810

>  <weinerPol>
35

>  <zagreb>
120

$$$$