Fc1cc2c(N(C=C(C(O)=O)C2=O)CC)cc1N1CCN(CC1)C
  MOE2013           2D

 24 26  0  0  1  0  0  0  0  0999 V2000
    0.0000    0.0000    0.0000 F   0  0  0  0  0  0  0  0  0  0  0  0
   -1.3020    0.7450    0.0000 C   0  0  0  0  0  0  0  0  0  0  0  0
   -2.5980   -0.0100    0.0000 C   0  0  0  0  0  0  0  0  0  0  0  0
   -3.9000    0.7350    0.0000 C   0  0  0  0  0  0  0  0  0  0  0  0
   -3.9060    2.2350    0.0000 C   0  0  0  0  0  0  0  0  0  0  0  0
   -5.2080    2.9800    0.0000 N   0  0  3  0  0  0  0  0  0  0  0  0
   -6.5040    2.2250    0.0000 C   0  0  0  0  0  0  0  0  0  0  0  0
   -6.4980    0.7250    0.0000 C   0  0  0  0  0  0  0  0  0  0  0  0
   -7.7940   -0.0300    0.0000 C   0  0  0  0  0  0  0  0  0  0  0  0
   -9.0960    0.7140    0.0000 O   0  0  0  0  0  0  0  0  0  0  0  0
   -7.7880   -1.5300    0.0000 O   0  0  0  0  0  0  0  0  0  0  0  0
   -5.1960   -0.0200    0.0000 C   0  0  0  0  0  0  0  0  0  0  0  0
   -5.1900   -1.5200    0.0000 O   0  0  0  0  0  0  0  0  0  0  0  0
   -5.2140    4.4800    0.0000 C   0  0  0  0  0  0  0  0  0  0  0  0
   -6.5160    5.2250    0.0000 C   0  0  0  0  0  0  0  0  0  0  0  0
   -2.6100    2.9900    0.0000 C   0  0  0  0  0  0  0  0  0  0  0  0
   -1.3080    2.2450    0.0000 C   0  0  0  0  0  0  0  0  0  0  0  0
   -0.0120    3.0000    0.0000 N   0  0  0  0  0  0  0  0  0  0  0  0
    1.2900    2.2550    0.0000 C   0  0  0  0  0  0  0  0  0  0  0  0
    2.5860    3.0100    0.0000 C   0  0  0  0  0  0  0  0  0  0  0  0
    2.5800    4.5100    0.0000 N   0  0  0  0  0  0  0  0  0  0  0  0
    1.2790    5.2550    0.0000 C   0  0  0  0  0  0  0  0  0  0  0  0
   -0.0180    4.5000    0.0000 C   0  0  0  0  0  0  0  0  0  0  0  0
    3.8770    5.2650    0.0000 C   0  0  0  0  0  0  0  0  0  0  0  0
  1  2  1  0  0  0  0
  2  3  1  0  0  0  0
  2 17  2  0  0  0  0
  3  4  2  0  0  0  0
  4  5  1  0  0  0  0
  4 12  1  0  0  0  0
  5  6  1  0  0  0  0
  5 16  2  0  0  0  0
  6  7  1  0  0  0  0
  6 14  1  0  0  0  0
  7  8  2  0  0  0  0
  8  9  1  0  0  0  0
  8 12  1  0  0  0  0
  9 10  1  0  0  0  0
  9 11  2  0  0  0  0
 12 13  2  0  0  0  0
 14 15  1  0  0  0  0
 16 17  1  0  0  0  0
 17 18  1  0  0  0  0
 18 19  1  0  0  0  0
 18 23  1  0  0  0  0
 19 20  1  0  0  0  0
 20 21  1  0  0  0  0
 21 22  1  0  0  0  0
 21 24  1  0  0  0  0
 22 23  1  0  0  0  0
M  END
>  <Index>
823

>  <ID>
HT1605

>  <class>
0

>  <apol>
49.51886

>  <ast_fraglike>
0

>  <ast_fraglike_ext>
0

>  <ast_violation>
2

>  <ast_violation_ext>
3

>  <a_acc>
4

>  <a_acid>
0

>  <a_aro>
6

>  <a_base>
0

>  <a_count>
44

>  <a_don>
2

>  <a_donacc>
6

>  <a_heavy>
24

>  <a_hyd>
16

>  <a_IC>
74.779785

>  <a_ICM>
1.6995406

>  <a_nB>
0

>  <a_nBr>
0

>  <a_nC>
17

>  <a_nCl>
0

>  <a_nF>
1

>  <a_nH>
20

>  <a_nI>
0

>  <a_nN>
3

>  <a_nO>
3

>  <a_nP>
0

>  <a_nS>
0

>  <balabanJ>
1.735075

>  <BCUT_PEOE_0>
-2.7456689

>  <BCUT_PEOE_1>
-0.51922005

>  <BCUT_PEOE_2>
0.46288916

>  <BCUT_PEOE_3>
2.644393

>  <BCUT_SLOGP_0>
-2.8699961

>  <BCUT_SLOGP_1>
-0.39934459

>  <BCUT_SLOGP_2>
0.56778663

>  <BCUT_SLOGP_3>
2.5570898

>  <BCUT_SMR_0>
-2.4507601

>  <BCUT_SMR_1>
-0.28288218

>  <BCUT_SMR_2>
0.67437673

>  <BCUT_SMR_3>
2.9338589

>  <bpol>
30.92314

>  <b_1rotN>
3

>  <b_1rotR>
0.11538462

>  <b_ar>
6

>  <b_count>
46

>  <b_double>
3

>  <b_heavy>
26

>  <b_max1len>
3

>  <b_rotN>
3

>  <b_rotR>
0.11538462

>  <b_single>
37

>  <b_triple>
0

>  <chi0>
17.430357

>  <chi0v>
13.7509

>  <chi0v_C>
10.767585

>  <chi0_C>
11.698306

>  <chi1>
11.417923

>  <chi1v>
7.9550848

>  <chi1v_C>
4.4004827

>  <chi1_C>
5.4150147

>  <chiral>
0

>  <chiral_u>
0

>  <density>
0.77233899

>  <diameter>
12

>  <FCharge>
0

>  <GCUT_PEOE_0>
-0.85607702

>  <GCUT_PEOE_1>
-0.42801952

>  <GCUT_PEOE_2>
-0.044632073

>  <GCUT_PEOE_3>
2.7129252

>  <GCUT_SLOGP_0>
-0.9869712

>  <GCUT_SLOGP_1>
-0.35684019

>  <GCUT_SLOGP_2>
0.11613926

>  <GCUT_SLOGP_3>
2.7425101

>  <GCUT_SMR_0>
-0.51185095

>  <GCUT_SMR_1>
-0.16888337

>  <GCUT_SMR_2>
0.14718311

>  <GCUT_SMR_3>
2.990236

>  <Kier1>
18.781065

>  <Kier2>
7.7091413

>  <Kier3>
3.7588758

>  <KierA1>
14.27382

>  <KierA2>
5.7838993

>  <KierA3>
2.7940288

>  <KierFlex>
3.4399307

>  <lip_acc>
6

>  <lip_don>
1

>  <lip_druglike>
1

>  <lip_violation>
0

>  <logP(o/w)>
0.99299997

>  <logS>
-2.6403699

>  <mr>
8.7376509

>  <mutagenic>
0

>  <nmol>
1

>  <opr_brigid>
17

>  <opr_leadlike>
1

>  <opr_nring>
3

>  <opr_nrot>
5

>  <opr_violation>
0

>  <PC+>
0

>  <PC->
0

>  <PEOE_PC+>
1.9972816

>  <PEOE_PC->
-1.9972816

>  <PEOE_RPC+>
0.14816588

>  <PEOE_RPC->
0.16390991

>  <PEOE_VSA+0>
159.8618

>  <PEOE_VSA+1>
19.495708

>  <PEOE_VSA+2>
11.229385

>  <PEOE_VSA+3>
0

>  <PEOE_VSA+4>
18.782692

>  <PEOE_VSA+5>
14.708499

>  <PEOE_VSA+6>
0

>  <PEOE_VSA-0>
47.748497

>  <PEOE_VSA-1>
18.747677

>  <PEOE_VSA-2>
0

>  <PEOE_VSA-3>
0

>  <PEOE_VSA-4>
11.908636

>  <PEOE_VSA-5>
27.133842

>  <PEOE_VSA-6>
7.7675405

>  <PEOE_VSA_FHYD>
0.76198888

>  <PEOE_VSA_FNEG>
0.33583719

>  <PEOE_VSA_FPNEG>
0.13874392

>  <PEOE_VSA_FPOL>
0.23801111

>  <PEOE_VSA_FPOS>
0.66416281

>  <PEOE_VSA_FPPOS>
0.099267192

>  <PEOE_VSA_HYD>
257.08307

>  <PEOE_VSA_NEG>
113.30619

>  <PEOE_VSA_PNEG>
46.810017

>  <PEOE_VSA_POL>
80.301208

>  <PEOE_VSA_POS>
224.07809

>  <PEOE_VSA_PPOS>
33.491192

>  <petitjean>
0.5

>  <petitjeanSC>
1

>  <Q_PC+>
0

>  <Q_PC->
0

>  <Q_RPC+>
0

>  <Q_RPC->
0

>  <Q_VSA_FHYD>
1

>  <Q_VSA_FNEG>
0

>  <Q_VSA_FPNEG>
0

>  <Q_VSA_FPOL>
0

>  <Q_VSA_FPOS>
1

>  <Q_VSA_FPPOS>
0

>  <Q_VSA_HYD>
337.38428

>  <Q_VSA_NEG>
0

>  <Q_VSA_PNEG>
0

>  <Q_VSA_POL>
0

>  <Q_VSA_POS>
337.38428

>  <Q_VSA_PPOS>
0

>  <radius>
6

>  <reactive>
0

>  <rings>
3

>  <RPC+>
0

>  <RPC->
0

>  <rsynth>
1

>  <SlogP>
1.5686001

>  <SlogP_VSA0>
6.2486277

>  <SlogP_VSA1>
16.557388

>  <SlogP_VSA2>
32.983234

>  <SlogP_VSA3>
117.58311

>  <SlogP_VSA4>
27.047791

>  <SlogP_VSA5>
36.082764

>  <SlogP_VSA6>
0

>  <SlogP_VSA7>
52.500725

>  <SlogP_VSA8>
0

>  <SlogP_VSA9>
53.799622

>  <SMR>
8.9179296

>  <SMR_VSA0>
47.724434

>  <SMR_VSA1>
18.084427

>  <SMR_VSA2>
40.754871

>  <SMR_VSA3>
6.37115

>  <SMR_VSA4>
5.513495

>  <SMR_VSA5>
52.500725

>  <SMR_VSA6>
105.63097

>  <SMR_VSA7>
66.223206

>  <TPSA>
64.089996

>  <VAdjEq>
0.43739632

>  <VAdjMa>
5.7004399

>  <VDistEq>
3.2622094

>  <VDistMa>
8.8878527

>  <vdw_area>
337.38428

>  <vdw_vol>
431.62784

>  <vsa_acc>
13.566921

>  <vsa_acid>
0

>  <vsa_base>
0

>  <vsa_don>
0

>  <vsa_hyd>
255.46761

>  <vsa_other>
23.167019

>  <vsa_pol>
40.700764

>  <Weight>
333.36301

>  <weinerPath>
1277

>  <weinerPol>
43

>  <zagreb>
128

$$$$