O(CC1=NCCCN1C)C(=O)C(O)(C1CCCCC1)c1ccccc1
  MOE2013           2D

 25 27  0  0  1  0  0  0  0  0999 V2000
    0.0000    0.0000    0.0000 O   0  0  0  0  0  0  0  0  0  0  0  0
    0.7580    1.2940    0.0000 C   0  0  0  0  0  0  0  0  0  0  0  0
    2.2580    1.2840    0.0000 C   0  0  0  0  0  0  0  0  0  0  0  0
    3.0000   -0.0200    0.0000 N   0  0  0  0  0  0  0  0  0  0  0  0
    4.5000   -0.0290    0.0000 C   0  0  0  0  0  0  0  0  0  0  0  0
    5.2580    1.2650    0.0000 C   0  0  0  0  0  0  0  0  0  0  0  0
    4.5170    2.5690    0.0000 C   0  0  0  0  0  0  0  0  0  0  0  0
    3.0170    2.5780    0.0000 N   0  0  0  0  0  0  0  0  0  0  0  0
    2.2750    3.8820    0.0000 C   0  0  0  0  0  0  0  0  0  0  0  0
   -1.5000    0.0100    0.0000 C   0  0  0  0  0  0  0  0  0  0  0  0
   -2.2410    1.3140    0.0000 O   0  0  0  0  0  0  0  0  0  0  0  0
   -2.2580   -1.2840    0.0000 C   0  0  3  0  0  0  0  0  0  0  0  0
   -0.9640   -2.0430    0.0000 O   0  0  0  0  0  0  0  0  0  0  0  0
   -3.0170   -2.5780    0.0000 C   0  0  0  0  0  0  0  0  0  0  0  0
   -2.2750   -3.8820    0.0000 C   0  0  0  0  0  0  0  0  0  0  0  0
   -3.0340   -5.1760    0.0000 C   0  0  0  0  0  0  0  0  0  0  0  0
   -4.5340   -5.1670    0.0000 C   0  0  0  0  0  0  0  0  0  0  0  0
   -5.2750   -3.8630    0.0000 C   0  0  0  0  0  0  0  0  0  0  0  0
   -4.5170   -2.5690    0.0000 C   0  0  0  0  0  0  0  0  0  0  0  0
   -3.5530   -0.5260    0.0000 C   0  0  0  0  0  0  0  0  0  0  0  0
   -4.8560   -1.2670    0.0000 C   0  0  0  0  0  0  0  0  0  0  0  0
   -6.1510   -0.5090    0.0000 C   0  0  0  0  0  0  0  0  0  0  0  0
   -6.1410    0.9910    0.0000 C   0  0  0  0  0  0  0  0  0  0  0  0
   -4.8370    1.7330    0.0000 C   0  0  0  0  0  0  0  0  0  0  0  0
   -3.5430    0.9740    0.0000 C   0  0  0  0  0  0  0  0  0  0  0  0
  1  2  1  0  0  0  0
  1 10  1  0  0  0  0
  2  3  1  0  0  0  0
  3  4  2  0  0  0  0
  3  8  1  0  0  0  0
  4  5  1  0  0  0  0
  5  6  1  0  0  0  0
  6  7  1  0  0  0  0
  7  8  1  0  0  0  0
  8  9  1  0  0  0  0
 10 11  2  0  0  0  0
 10 12  1  0  0  0  0
 12 13  1  0  0  0  0
 12 14  1  0  0  0  0
 12 20  1  0  0  0  0
 14 15  1  0  0  0  0
 14 19  1  0  0  0  0
 15 16  1  0  0  0  0
 16 17  1  0  0  0  0
 17 18  1  0  0  0  0
 18 19  1  0  0  0  0
 20 21  1  0  0  0  0
 20 25  2  0  0  0  0
 21 22  2  0  0  0  0
 22 23  1  0  0  0  0
 23 24  2  0  0  0  0
 24 25  1  0  0  0  0
M  END
>  <Index>
806

>  <ID>
HT1572

>  <class>
0

>  <apol>
58.476204

>  <ast_fraglike>
0

>  <ast_fraglike_ext>
0

>  <ast_violation>
2

>  <ast_violation_ext>
3

>  <a_acc>
3

>  <a_acid>
0

>  <a_aro>
6

>  <a_base>
0

>  <a_count>
53

>  <a_don>
1

>  <a_donacc>
4

>  <a_heavy>
25

>  <a_hyd>
18

>  <a_IC>
75.780396

>  <a_ICM>
1.4298187

>  <a_nB>
0

>  <a_nBr>
0

>  <a_nC>
20

>  <a_nCl>
0

>  <a_nF>
0

>  <a_nH>
28

>  <a_nI>
0

>  <a_nN>
2

>  <a_nO>
3

>  <a_nP>
0

>  <a_nS>
0

>  <balabanJ>
1.6619816

>  <BCUT_PEOE_0>
-2.7981839

>  <BCUT_PEOE_1>
-0.60359854

>  <BCUT_PEOE_2>
0.63896197

>  <BCUT_PEOE_3>
2.7808609

>  <BCUT_SLOGP_0>
-2.7247186

>  <BCUT_SLOGP_1>
-0.50351125

>  <BCUT_SLOGP_2>
0.66828364

>  <BCUT_SLOGP_3>
2.8968027

>  <BCUT_SMR_0>
-2.5561304

>  <BCUT_SMR_1>
-0.42577642

>  <BCUT_SMR_2>
0.78651166

>  <BCUT_SMR_3>
3.0185015

>  <bpol>
36.783794

>  <b_1rotN>
5

>  <b_1rotR>
0.18518518

>  <b_ar>
6

>  <b_count>
55

>  <b_double>
2

>  <b_heavy>
27

>  <b_max1len>
4

>  <b_rotN>
6

>  <b_rotR>
0.22222222

>  <b_single>
47

>  <b_triple>
0

>  <chi0>
17.70046

>  <chi0v>
14.9862

>  <chi0v_C>
12.828063

>  <chi0_C>
13.708896

>  <chi1>
12.120046

>  <chi1v>
9.3168221

>  <chi1v_C>
6.8694086

>  <chi1_C>
7.9072671

>  <chiral>
1

>  <chiral_u>
1

>  <density>
0.70181853

>  <diameter>
11

>  <FCharge>
0

>  <GCUT_PEOE_0>
-0.87032956

>  <GCUT_PEOE_1>
-0.38686466

>  <GCUT_PEOE_2>
0.072293952

>  <GCUT_PEOE_3>
2.8607666

>  <GCUT_SLOGP_0>
-0.9666093

>  <GCUT_SLOGP_1>
-0.28339493

>  <GCUT_SLOGP_2>
0.11026513

>  <GCUT_SLOGP_3>
2.9256361

>  <GCUT_SMR_0>
-0.52965808

>  <GCUT_SMR_1>
-0.20409639

>  <GCUT_SMR_2>
0.18204626

>  <GCUT_SMR_3>
3.0952175

>  <Kier1>
19.753086

>  <Kier2>
9.2739229

>  <Kier3>
4.6464

>  <KierA1>
16.212425

>  <KierA2>
7.5451431

>  <KierA3>
3.7554584

>  <KierFlex>
4.893003

>  <lip_acc>
5

>  <lip_don>
1

>  <lip_druglike>
1

>  <lip_violation>
0

>  <logP(o/w)>
3.3540001

>  <logS>
-4.2504001

>  <mr>
9.843009

>  <mutagenic>
0

>  <nmol>
1

>  <opr_brigid>
18

>  <opr_leadlike>
1

>  <opr_nring>
3

>  <opr_nrot>
8

>  <opr_violation>
0

>  <PC+>
0

>  <PC->
0

>  <PEOE_PC+>
2.1388996

>  <PEOE_PC->
-2.1388996

>  <PEOE_RPC+>
0.13996401

>  <PEOE_RPC->
0.17478229

>  <PEOE_VSA+0>
126.40028

>  <PEOE_VSA+1>
38.388474

>  <PEOE_VSA+2>
26.141855

>  <PEOE_VSA+3>
0

>  <PEOE_VSA+4>
10.324173

>  <PEOE_VSA+5>
14.708499

>  <PEOE_VSA+6>
0

>  <PEOE_VSA-0>
28.312479

>  <PEOE_VSA-1>
87.378456

>  <PEOE_VSA-2>
0

>  <PEOE_VSA-3>
0

>  <PEOE_VSA-4>
0

>  <PEOE_VSA-5>
19.249496

>  <PEOE_VSA-6>
10.271297

>  <PEOE_VSA_FHYD>
0.84895557

>  <PEOE_VSA_FNEG>
0.40205365

>  <PEOE_VSA_FPNEG>
0.081735425

>  <PEOE_VSA_FPOL>
0.1510444

>  <PEOE_VSA_FPOS>
0.59794635

>  <PEOE_VSA_FPPOS>
0.069308981

>  <PEOE_VSA_HYD>
306.62155

>  <PEOE_VSA_NEG>
145.21173

>  <PEOE_VSA_PNEG>
29.520794

>  <PEOE_VSA_POL>
54.553467

>  <PEOE_VSA_POS>
215.96329

>  <PEOE_VSA_PPOS>
25.032671

>  <petitjean>
0.45454547

>  <petitjeanSC>
0.83333331

>  <Q_PC+>
0

>  <Q_PC->
0

>  <Q_RPC+>
0

>  <Q_RPC->
0

>  <Q_VSA_FHYD>
1

>  <Q_VSA_FNEG>
0

>  <Q_VSA_FPNEG>
0

>  <Q_VSA_FPOL>
0

>  <Q_VSA_FPOS>
1

>  <Q_VSA_FPPOS>
0

>  <Q_VSA_HYD>
361.17502

>  <Q_VSA_NEG>
0

>  <Q_VSA_PNEG>
0

>  <Q_VSA_POL>
0

>  <Q_VSA_POS>
361.17502

>  <Q_VSA_PPOS>
0

>  <radius>
6

>  <reactive>
0

>  <rings>
3

>  <RPC+>
0

>  <RPC->
0

>  <rsynth>
1

>  <SlogP>
3.0432

>  <SlogP_VSA0>
25.385227

>  <SlogP_VSA1>
13.197699

>  <SlogP_VSA2>
34.862103

>  <SlogP_VSA3>
57.805416

>  <SlogP_VSA4>
7.5963712

>  <SlogP_VSA5>
49.682716

>  <SlogP_VSA6>
0

>  <SlogP_VSA7>
88.215919

>  <SlogP_VSA8>
113.21043

>  <SlogP_VSA9>
0

>  <SMR>
9.7538795

>  <SMR_VSA0>
34.862103

>  <SMR_VSA1>
45.295071

>  <SMR_VSA2>
4.4107962

>  <SMR_VSA3>
3.185575

>  <SMR_VSA4>
0

>  <SMR_VSA5>
201.42636

>  <SMR_VSA6>
67.878799

>  <SMR_VSA7>
32.897186

>  <TPSA>
62.130001

>  <VAdjEq>
0.42433795

>  <VAdjMa>
5.7548876

>  <VDistEq>
3.2815583

>  <VDistMa>
9.0187321

>  <vdw_area>
361.17502

>  <vdw_vol>
490.8035

>  <vsa_acc>
19.249496

>  <vsa_acid>
0

>  <vsa_base>
0

>  <vsa_don>
0

>  <vsa_hyd>
274.86746

>  <vsa_other>
28.402819

>  <vsa_pol>
32.816418

>  <Weight>
344.45499

>  <weinerPath>
1472

>  <weinerPol>
41

>  <zagreb>
128

$$$$