FC1C2=CC(=O)C=CC2(C2C(C3CC(C)C(O)(C(=O)CO)C3(CC2O)C)C1)C
  MOE2013           2D

 28 31  0  0  1  0  0  0  0  0999 V2000
    0.0000    0.0000    0.0000 F   0  0  0  0  0  0  0  0  0  0  0  0
    0.7420   -1.3040    0.0000 C   0  0  3  0  0  0  0  0  0  0  0  0
   -0.0160   -2.5980    0.0000 C   0  0  0  0  0  0  0  0  0  0  0  0
   -1.5160   -2.5890    0.0000 C   0  0  0  0  0  0  0  0  0  0  0  0
   -2.2740   -3.8830    0.0000 C   0  0  0  0  0  0  0  0  0  0  0  0
   -3.7740   -3.8740    0.0000 O   0  0  0  0  0  0  0  0  0  0  0  0
   -1.5320   -5.1870    0.0000 C   0  0  0  0  0  0  0  0  0  0  0  0
   -0.0320   -5.1960    0.0000 C   0  0  0  0  0  0  0  0  0  0  0  0
    0.7260   -3.9020    0.0000 C   0  0  3  0  0  0  0  0  0  0  0  0
    2.2260   -3.9110    0.0000 C   0  0  3  0  0  0  0  0  0  0  0  0
    2.9840   -2.6160    0.0000 C   0  0  3  0  0  0  0  0  0  0  0  0
    4.4840   -2.6260    0.0000 C   0  0  3  0  0  0  0  0  0  0  0  0
    5.4950   -1.5170    0.0000 C   0  0  0  0  0  0  0  0  0  0  0  0
    6.8610   -2.1350    0.0000 C   0  0  3  0  0  0  0  0  0  0  0  0
    8.1650   -1.3930    0.0000 C   0  0  0  0  0  0  0  0  0  0  0  0
    6.6950   -3.6260    0.0000 C   0  0  3  0  0  0  0  0  0  0  0  0
    7.0750   -5.0780    0.0000 O   0  0  0  0  0  0  0  0  0  0  0  0
    8.1550   -3.9730    0.0000 C   0  0  0  0  0  0  0  0  0  0  0  0
    8.5840   -5.4100    0.0000 O   0  0  0  0  0  0  0  0  0  0  0  0
    9.1840   -2.8820    0.0000 C   0  0  0  0  0  0  0  0  0  0  0  0
   10.6440   -3.2280    0.0000 O   0  0  0  0  0  0  0  0  0  0  0  0
    5.2260   -3.9290    0.0000 C   0  0  3  0  0  0  0  0  0  0  0  0
    4.4680   -5.2240    0.0000 C   0  0  0  0  0  0  0  0  0  0  0  0
    2.9680   -5.2140    0.0000 C   0  0  3  0  0  0  0  0  0  0  0  0
    2.2100   -6.5090    0.0000 O   0  0  0  0  0  0  0  0  0  0  0  0
    6.1000   -5.1480    0.0000 C   0  0  0  0  0  0  0  0  0  0  0  0
    2.2420   -1.3130    0.0000 C   0  0  0  0  0  0  0  0  0  0  0  0
    1.4910   -5.1920    0.0000 C   0  0  0  0  0  0  0  0  0  0  0  0
  1  2  1  0  0  0  0
  2  3  1  0  0  0  0
  2 27  1  0  0  0  0
  3  4  2  0  0  0  0
  3  9  1  0  0  0  0
  4  5  1  0  0  0  0
  5  6  2  0  0  0  0
  5  7  1  0  0  0  0
  7  8  2  0  0  0  0
  8  9  1  0  0  0  0
  9 10  1  0  0  0  0
  9 28  1  0  0  0  0
 10 11  1  0  0  0  0
 10 24  1  0  0  0  0
 11 12  1  0  0  0  0
 11 27  1  0  0  0  0
 12 13  1  0  0  0  0
 12 22  1  0  0  0  0
 13 14  1  0  0  0  0
 14 15  1  0  0  0  0
 14 16  1  0  0  0  0
 16 17  1  0  0  0  0
 16 18  1  0  0  0  0
 16 22  1  0  0  0  0
 18 19  2  0  0  0  0
 18 20  1  0  0  0  0
 20 21  1  0  0  0  0
 22 23  1  0  0  0  0
 22 26  1  0  0  0  0
 23 24  1  0  0  0  0
 24 25  1  0  0  0  0
M  END
>  <Index>
814

>  <ID>
HT1591

>  <class>
0

>  <apol>
62.623997

>  <ast_fraglike>
0

>  <ast_fraglike_ext>
0

>  <ast_violation>
2

>  <ast_violation_ext>
3

>  <a_acc>
5

>  <a_acid>
0

>  <a_aro>
0

>  <a_base>
0

>  <a_count>
57

>  <a_don>
3

>  <a_donacc>
8

>  <a_heavy>
28

>  <a_hyd>
21

>  <a_IC>
81.876144

>  <a_ICM>
1.4364237

>  <a_nB>
0

>  <a_nBr>
0

>  <a_nC>
22

>  <a_nCl>
0

>  <a_nF>
1

>  <a_nH>
29

>  <a_nI>
0

>  <a_nN>
0

>  <a_nO>
5

>  <a_nP>
0

>  <a_nS>
0

>  <balabanJ>
1.7438282

>  <BCUT_PEOE_0>
-2.9134619

>  <BCUT_PEOE_1>
-0.51548439

>  <BCUT_PEOE_2>
0.55675238

>  <BCUT_PEOE_3>
2.9884787

>  <BCUT_SLOGP_0>
-2.9079416

>  <BCUT_SLOGP_1>
-0.4708271

>  <BCUT_SLOGP_2>
0.5073086

>  <BCUT_SLOGP_3>
3.0014682

>  <BCUT_SMR_0>
-2.674618

>  <BCUT_SMR_1>
-0.38365772

>  <BCUT_SMR_2>
0.67339158

>  <BCUT_SMR_3>
3.2243836

>  <bpol>
34.822002

>  <b_1rotN>
2

>  <b_1rotR>
0.064516127

>  <b_ar>
0

>  <b_count>
60

>  <b_double>
4

>  <b_heavy>
31

>  <b_max1len>
6

>  <b_rotN>
2

>  <b_rotR>
0.064516127

>  <b_single>
56

>  <b_triple>
0

>  <chi0>
20.645901

>  <chi0v>
16.560682

>  <chi0v_C>
14.02458

>  <chi0_C>
14.6459

>  <chi1>
13.001908

>  <chi1v>
10.142933

>  <chi1v_C>
8.7184334

>  <chi1_C>
9.4854002

>  <chiral>
9

>  <chiral_u>
9

>  <density>
0.76204699

>  <diameter>
12

>  <FCharge>
0

>  <GCUT_PEOE_0>
-0.79946434

>  <GCUT_PEOE_1>
-0.39849043

>  <GCUT_PEOE_2>
0.043170076

>  <GCUT_PEOE_3>
3.3699884

>  <GCUT_SLOGP_0>
-0.94810081

>  <GCUT_SLOGP_1>
-0.34588376

>  <GCUT_SLOGP_2>
0.0084135085

>  <GCUT_SLOGP_3>
3.3953264

>  <GCUT_SMR_0>
-0.53790438

>  <GCUT_SMR_1>
-0.22429092

>  <GCUT_SMR_2>
0.15358473

>  <GCUT_SMR_3>
3.5895665

>  <Kier1>
21.240376

>  <Kier2>
6.75

>  <Kier3>
2.640625

>  <KierA1>
18.608292

>  <KierA2>
5.8832059

>  <KierA3>
2.2931261

>  <KierFlex>
3.9098718

>  <lip_acc>
5

>  <lip_don>
3

>  <lip_druglike>
1

>  <lip_violation>
0

>  <logP(o/w)>
2.2839999

>  <logS>
-3.3735399

>  <mr>
10.107056

>  <mutagenic>
0

>  <nmol>
1

>  <opr_brigid>
20

>  <opr_leadlike>
1

>  <opr_nring>
4

>  <opr_nrot>
2

>  <opr_violation>
0

>  <PC+>
0

>  <PC->
0

>  <PEOE_PC+>
2.4101396

>  <PEOE_PC->
-2.4101396

>  <PEOE_RPC+>
0.08745347

>  <PEOE_RPC->
0.16241606

>  <PEOE_VSA+0>
81.042336

>  <PEOE_VSA+1>
34.76263

>  <PEOE_VSA+2>
20.418549

>  <PEOE_VSA+3>
16.917038

>  <PEOE_VSA+4>
30.972517

>  <PEOE_VSA+5>
0

>  <PEOE_VSA+6>
0

>  <PEOE_VSA-0>
52.822289

>  <PEOE_VSA-1>
68.49794

>  <PEOE_VSA-2>
0

>  <PEOE_VSA-3>
0

>  <PEOE_VSA-4>
11.908636

>  <PEOE_VSA-5>
27.133842

>  <PEOE_VSA-6>
23.30262

>  <PEOE_VSA_FHYD>
0.74626672

>  <PEOE_VSA_FNEG>
0.49939129

>  <PEOE_VSA_FPNEG>
0.16951811

>  <PEOE_VSA_FPOL>
0.25373328

>  <PEOE_VSA_FPOS>
0.50060874

>  <PEOE_VSA_FPPOS>
0.084215164

>  <PEOE_VSA_HYD>
274.46078

>  <PEOE_VSA_NEG>
183.66533

>  <PEOE_VSA_PNEG>
62.345097

>  <PEOE_VSA_POL>
93.317619

>  <PEOE_VSA_POS>
184.11307

>  <PEOE_VSA_PPOS>
30.972517

>  <petitjean>
0.5

>  <petitjeanSC>
1

>  <Q_PC+>
0

>  <Q_PC->
0

>  <Q_RPC+>
0

>  <Q_RPC->
0

>  <Q_VSA_FHYD>
1

>  <Q_VSA_FNEG>
0

>  <Q_VSA_FPNEG>
0

>  <Q_VSA_FPOL>
0

>  <Q_VSA_FPOS>
1

>  <Q_VSA_FPPOS>
0

>  <Q_VSA_HYD>
367.77838

>  <Q_VSA_NEG>
0

>  <Q_VSA_PNEG>
0

>  <Q_VSA_POL>
0

>  <Q_VSA_POS>
367.77838

>  <Q_VSA_PPOS>
0

>  <radius>
6

>  <reactive>
1

>  <rings>
4

>  <RPC+>
0

>  <RPC->
0

>  <rsynth>
0.32142857

>  <SlogP>
1.7516

>  <SlogP_VSA0>
76.155678

>  <SlogP_VSA1>
11.375222

>  <SlogP_VSA2>
64.539322

>  <SlogP_VSA3>
20.926258

>  <SlogP_VSA4>
17.643185

>  <SlogP_VSA5>
3.185575

>  <SlogP_VSA6>
0

>  <SlogP_VSA7>
52.929554

>  <SlogP_VSA8>
56.605217

>  <SlogP_VSA9>
114.93816

>  <SMR>
9.9874401

>  <SMR_VSA0>
47.724434

>  <SMR_VSA1>
91.115791

>  <SMR_VSA2>
17.643185

>  <SMR_VSA3>
20.000463

>  <SMR_VSA4>
0

>  <SMR_VSA5>
109.53477

>  <SMR_VSA6>
32.301479

>  <SMR_VSA7>
99.978043

>  <TPSA>
94.830002

>  <VAdjEq>
0.39893496

>  <VAdjMa>
5.9541965

>  <VDistEq>
3.1685846

>  <VDistMa>
9.3617706

>  <vdw_area>
367.77838

>  <vdw_vol>
515.01678

>  <vsa_acc>
27.133842

>  <vsa_acid>
0

>  <vsa_base>
0

>  <vsa_don>
0

>  <vsa_hyd>
245.56549

>  <vsa_other>
16.917038

>  <vsa_pol>
67.834602

>  <Weight>
392.46698

>  <weinerPath>
1691

>  <weinerPol>
66

>  <zagreb>
166

$$$$