P(OCC(N)C(O)=O)(OCC(OC(=O)CCC)COC(=O)CC)(O)=O
  MOE2013           2D

 25 24  0  0  1  0  0  0  0  0999 V2000
    0.0000    0.0000    0.0000 P   0  0  3  0  0  0  0  0  0  0  0  0
    1.5000   -0.0110    0.0000 O   0  0  0  0  0  0  0  0  0  0  0  0
    2.2600    1.2820    0.0000 C   0  0  0  0  0  0  0  0  0  0  0  0
    3.7600    1.2710    0.0000 C   0  0  3  0  0  0  0  0  0  0  0  0
    4.5000   -0.0340    0.0000 N   0  0  0  0  0  0  0  0  0  0  0  0
    4.5200    2.5640    0.0000 C   0  0  0  0  0  0  0  0  0  0  0  0
    6.0190    2.5530    0.0000 O   0  0  0  0  0  0  0  0  0  0  0  0
    3.7790    3.8690    0.0000 O   0  0  0  0  0  0  0  0  0  0  0  0
   -1.5000    0.0110    0.0000 O   0  0  0  0  0  0  0  0  0  0  0  0
   -2.2600   -1.2820    0.0000 C   0  0  0  0  0  0  0  0  0  0  0  0
   -3.7600   -1.2710    0.0000 C   0  0  3  0  0  0  0  0  0  0  0  0
   -4.5000    0.0340    0.0000 O   0  0  0  0  0  0  0  0  0  0  0  0
   -6.0000    0.0450    0.0000 C   0  0  0  0  0  0  0  0  0  0  0  0
   -6.7600   -1.2480    0.0000 O   0  0  0  0  0  0  0  0  0  0  0  0
   -6.7400    1.3500    0.0000 C   0  0  0  0  0  0  0  0  0  0  0  0
   -8.2400    1.3610    0.0000 C   0  0  0  0  0  0  0  0  0  0  0  0
   -8.9800    2.6660    0.0000 C   0  0  0  0  0  0  0  0  0  0  0  0
   -4.5200   -2.5640    0.0000 C   0  0  0  0  0  0  0  0  0  0  0  0
   -3.7790   -3.8690    0.0000 O   0  0  0  0  0  0  0  0  0  0  0  0
   -4.5390   -5.1620    0.0000 C   0  0  0  0  0  0  0  0  0  0  0  0
   -6.0390   -5.1510    0.0000 O   0  0  0  0  0  0  0  0  0  0  0  0
   -3.7990   -6.4670    0.0000 C   0  0  0  0  0  0  0  0  0  0  0  0
   -4.5590   -7.7600    0.0000 C   0  0  0  0  0  0  0  0  0  0  0  0
   -0.0110   -1.5000    0.0000 O   0  0  0  0  0  0  0  0  0  0  0  0
    0.0110    1.5000    0.0000 O   0  0  0  0  0  0  0  0  0  0  0  0
  1  2  1  0  0  0  0
  1  9  1  0  0  0  0
  1 24  1  0  0  0  0
  1 25  2  0  0  0  0
  2  3  1  0  0  0  0
  3  4  1  0  0  0  0
  4  5  1  0  0  0  0
  4  6  1  0  0  0  0
  6  7  1  0  0  0  0
  6  8  2  0  0  0  0
  9 10  1  0  0  0  0
 10 11  1  0  0  0  0
 11 12  1  0  0  0  0
 11 18  1  0  0  0  0
 12 13  1  0  0  0  0
 13 14  2  0  0  0  0
 13 15  1  0  0  0  0
 15 16  1  0  0  0  0
 16 17  1  0  0  0  0
 18 19  1  0  0  0  0
 19 20  1  0  0  0  0
 20 21  2  0  0  0  0
 20 22  1  0  0  0  0
 22 23  1  0  0  0  0
M  END
>  <Index>
857

>  <ID>
HT1664

>  <class>
0

>  <apol>
51.633034

>  <ast_fraglike>
0

>  <ast_fraglike_ext>
0

>  <ast_violation>
3

>  <ast_violation_ext>
5

>  <a_acc>
9

>  <a_acid>
0

>  <a_aro>
0

>  <a_base>
0

>  <a_count>
49

>  <a_don>
5

>  <a_donacc>
14

>  <a_heavy>
25

>  <a_hyd>
10

>  <a_IC>
83.756683

>  <a_ICM>
1.7093201

>  <a_nB>
0

>  <a_nBr>
0

>  <a_nC>
13

>  <a_nCl>
0

>  <a_nF>
0

>  <a_nH>
24

>  <a_nI>
0

>  <a_nN>
1

>  <a_nO>
10

>  <a_nP>
1

>  <a_nS>
0

>  <balabanJ>
4.4915409

>  <BCUT_PEOE_0>
-2.5563805

>  <BCUT_PEOE_1>
-0.45653206

>  <BCUT_PEOE_2>
0.39863589

>  <BCUT_PEOE_3>
2.6167297

>  <BCUT_SLOGP_0>
-2.7575397

>  <BCUT_SLOGP_1>
-0.46451426

>  <BCUT_SLOGP_2>
0.35709909

>  <BCUT_SLOGP_3>
2.6108193

>  <BCUT_SMR_0>
-2.338202

>  <BCUT_SMR_1>
-0.26820192

>  <BCUT_SMR_2>
0.51702505

>  <BCUT_SMR_3>
2.834667

>  <bpol>
44.552967

>  <b_1rotN>
13

>  <b_1rotR>
0.54166669

>  <b_ar>
0

>  <b_count>
48

>  <b_double>
3

>  <b_heavy>
24

>  <b_max1len>
10

>  <b_rotN>
15

>  <b_rotR>
0.625

>  <b_single>
45

>  <b_triple>
0

>  <chi0>
19.457819

>  <chi0v>
14.976746

>  <chi0v_C>
8.8973408

>  <chi0_C>
9.1293917

>  <chi1>
11.607391

>  <chi1v>
9.0571966

>  <chi1v_C>
4.1347404

>  <chi1_C>
4.2887883

>  <chiral>
3

>  <chiral_u>
3

>  <density>
0.8662082

>  <diameter>
13

>  <FCharge>
0

>  <GCUT_PEOE_0>
-0.80720949

>  <GCUT_PEOE_1>
-0.41906044

>  <GCUT_PEOE_2>
0.048918884

>  <GCUT_PEOE_3>
2.524132

>  <GCUT_SLOGP_0>
-1.3634822

>  <GCUT_SLOGP_1>
-0.34356701

>  <GCUT_SLOGP_2>
0.023729295

>  <GCUT_SLOGP_3>
2.4956915

>  <GCUT_SMR_0>
-0.52519834

>  <GCUT_SMR_1>
-0.21942784

>  <GCUT_SMR_2>
0.13997746

>  <GCUT_SMR_3>
2.7326033

>  <Kier1>
25

>  <Kier2>
13.211238

>  <Kier3>
12.906667

>  <KierA1>
23.918669

>  <KierA2>
12.615676

>  <KierA3>
12.307232

>  <KierFlex>
12.070007

>  <lip_acc>
11

>  <lip_don>
4

>  <lip_druglike>
1

>  <lip_violation>
1

>  <logP(o/w)>
-3.7302499

>  <logS>
-0.95778

>  <mr>
8.828373

>  <mutagenic>
0

>  <nmol>
1

>  <opr_brigid>
0

>  <opr_leadlike>
0

>  <opr_nring>
0

>  <opr_nrot>
13

>  <opr_violation>
2

>  <PC+>
0

>  <PC->
0

>  <PEOE_PC+>
3.1575215

>  <PEOE_PC->
-3.1575215

>  <PEOE_RPC+>
0.13109148

>  <PEOE_RPC->
0.10453353

>  <PEOE_VSA+0>
85.648804

>  <PEOE_VSA+1>
61.915424

>  <PEOE_VSA+2>
25.288916

>  <PEOE_VSA+3>
10.324173

>  <PEOE_VSA+4>
10.324173

>  <PEOE_VSA+5>
44.125496

>  <PEOE_VSA+6>
18.713068

>  <PEOE_VSA-0>
8.701313

>  <PEOE_VSA-1>
37.495354

>  <PEOE_VSA-2>
15.729136

>  <PEOE_VSA-3>
0

>  <PEOE_VSA-4>
0

>  <PEOE_VSA-5>
59.962463

>  <PEOE_VSA-6>
19.426172

>  <PEOE_VSA_FHYD>
0.61637205

>  <PEOE_VSA_FNEG>
0.3553699

>  <PEOE_VSA_FPNEG>
0.19964224

>  <PEOE_VSA_FPOL>
0.38362795

>  <PEOE_VSA_FPOS>
0.64463007

>  <PEOE_VSA_FPPOS>
0.1839857

>  <PEOE_VSA_HYD>
245.10312

>  <PEOE_VSA_NEG>
141.31444

>  <PEOE_VSA_PNEG>
79.388634

>  <PEOE_VSA_POL>
152.55138

>  <PEOE_VSA_POS>
256.34006

>  <PEOE_VSA_PPOS>
73.162743

>  <petitjean>
0.46153846

>  <petitjeanSC>
0.85714287

>  <Q_PC+>
0

>  <Q_PC->
0

>  <Q_RPC+>
0

>  <Q_RPC->
0

>  <Q_VSA_FHYD>
1

>  <Q_VSA_FNEG>
0

>  <Q_VSA_FPNEG>
0

>  <Q_VSA_FPOL>
0

>  <Q_VSA_FPOS>
1

>  <Q_VSA_FPPOS>
0

>  <Q_VSA_HYD>
397.65448

>  <Q_VSA_NEG>
0

>  <Q_VSA_PNEG>
0

>  <Q_VSA_POL>
0

>  <Q_VSA_POS>
397.65448

>  <Q_VSA_PPOS>
0

>  <radius>
7

>  <reactive>
0

>  <rings>
0

>  <RPC+>
0

>  <RPC->
0

>  <rsynth>
1

>  <SlogP>
-0.8732

>  <SlogP_VSA0>
76.637924

>  <SlogP_VSA1>
23.236393

>  <SlogP_VSA2>
117.8803

>  <SlogP_VSA3>
88.164001

>  <SlogP_VSA4>
0

>  <SlogP_VSA5>
0

>  <SlogP_VSA6>
0

>  <SlogP_VSA7>
0

>  <SlogP_VSA8>
56.605217

>  <SlogP_VSA9>
83.34687

>  <SMR>
8.2692003

>  <SMR_VSA0>
129.86345

>  <SMR_VSA1>
21.306969

>  <SMR_VSA2>
25.385227

>  <SMR_VSA3>
10.450618

>  <SMR_VSA4>
32.897186

>  <SMR_VSA5>
56.605217

>  <SMR_VSA6>
86.015167

>  <SMR_VSA7>
83.34687

>  <TPSA>
171.67999

>  <VAdjEq>
0.39080217

>  <VAdjMa>
5.5849624

>  <VDistEq>
3.5712872

>  <VDistMa>
9.0022898

>  <vdw_area>
397.65448

>  <vdw_vol>
444.81915

>  <vsa_acc>
36.465786

>  <vsa_acid>
0

>  <vsa_base>
0

>  <vsa_don>
0

>  <vsa_hyd>
187.57588

>  <vsa_other>
67.846077

>  <vsa_pol>
112.80039

>  <Weight>
385.306

>  <weinerPath>
1752

>  <weinerPol>
30

>  <zagreb>
110

$$$$