O(C[C@@H](O)CNC(C)(C)C)c1ccccc1C1CCCC1
  MOE2013           2D

 21 22  0  0  1  0  0  0  0  0999 V2000
    0.0000    0.0000    0.0000 O   0  0  0  0  0  0  0  0  0  0  0  0
    1.5000    0.0130    0.0000 C   0  0  0  0  0  0  0  0  0  0  0  0
    2.2390    1.3180    0.0000 C   0  0  1  0  0  0  0  0  0  0  0  0
    1.4780    2.6110    0.0000 O   0  0  0  0  0  0  0  0  0  0  0  0
    3.7390    1.3310    0.0000 C   0  0  0  0  0  0  0  0  0  0  0  0
    4.4780    2.6360    0.0000 N   0  0  0  0  0  0  0  0  0  0  0  0
    5.9780    2.6490    0.0000 C   0  0  0  0  0  0  0  0  0  0  0  0
    5.9900    1.1490    0.0000 C   0  0  0  0  0  0  0  0  0  0  0  0
    5.9650    4.1490    0.0000 C   0  0  0  0  0  0  0  0  0  0  0  0
    7.4780    2.6620    0.0000 C   0  0  0  0  0  0  0  0  0  0  0  0
   -0.7390   -1.3050    0.0000 C   0  0  0  0  0  0  0  0  0  0  0  0
    0.0220   -2.5980    0.0000 C   0  0  0  0  0  0  0  0  0  0  0  0
   -0.7170   -3.9030    0.0000 C   0  0  0  0  0  0  0  0  0  0  0  0
   -2.2170   -3.9160    0.0000 C   0  0  0  0  0  0  0  0  0  0  0  0
   -2.9780   -2.6240    0.0000 C   0  0  0  0  0  0  0  0  0  0  0  0
   -2.2390   -1.3180    0.0000 C   0  0  0  0  0  0  0  0  0  0  0  0
   -3.0000   -0.0260    0.0000 C   0  0  0  0  0  0  0  0  0  0  0  0
   -2.4010    1.3500    0.0000 C   0  0  0  0  0  0  0  0  0  0  0  0
   -3.5250    2.3440    0.0000 C   0  0  0  0  0  0  0  0  0  0  0  0
   -4.8170    1.5830    0.0000 C   0  0  0  0  0  0  0  0  0  0  0  0
   -4.4930    0.1190    0.0000 C   0  0  0  0  0  0  0  0  0  0  0  0
  1  2  1  0  0  0  0
  1 11  1  0  0  0  0
  2  3  1  0  0  0  0
  3  4  1  1  0  0  0
  3  5  1  0  0  0  0
  5  6  1  0  0  0  0
  6  7  1  0  0  0  0
  7  8  1  0  0  0  0
  7  9  1  0  0  0  0
  7 10  1  0  0  0  0
 11 12  1  0  0  0  0
 11 16  2  0  0  0  0
 12 13  2  0  0  0  0
 13 14  1  0  0  0  0
 14 15  2  0  0  0  0
 15 16  1  0  0  0  0
 16 17  1  0  0  0  0
 17 18  1  0  0  0  0
 17 21  1  0  0  0  0
 18 19  1  0  0  0  0
 19 20  1  0  0  0  0
 20 21  1  0  0  0  0
M  END
>  <Index>
827

>  <ID>
HT1610

>  <class>
0

>  <apol>
53.720997

>  <ast_fraglike>
0

>  <ast_fraglike_ext>
0

>  <ast_violation>
1

>  <ast_violation_ext>
2

>  <a_acc>
3

>  <a_acid>
0

>  <a_aro>
6

>  <a_base>
0

>  <a_count>
50

>  <a_don>
2

>  <a_donacc>
5

>  <a_heavy>
21

>  <a_hyd>
18

>  <a_IC>
64.252708

>  <a_ICM>
1.2850542

>  <a_nB>
0

>  <a_nBr>
0

>  <a_nC>
18

>  <a_nCl>
0

>  <a_nF>
0

>  <a_nH>
29

>  <a_nI>
0

>  <a_nN>
1

>  <a_nO>
2

>  <a_nP>
0

>  <a_nS>
0

>  <balabanJ>
1.7421476

>  <BCUT_PEOE_0>
-2.7111797

>  <BCUT_PEOE_1>
-0.48956165

>  <BCUT_PEOE_2>
0.57703984

>  <BCUT_PEOE_3>
2.725174

>  <BCUT_SLOGP_0>
-2.8412743

>  <BCUT_SLOGP_1>
-0.46183875

>  <BCUT_SLOGP_2>
0.59143955

>  <BCUT_SLOGP_3>
2.8901923

>  <BCUT_SMR_0>
-2.4450479

>  <BCUT_SMR_1>
-0.3806794

>  <BCUT_SMR_2>
0.68016976

>  <BCUT_SMR_3>
2.9852803

>  <bpol>
34.279003

>  <b_1rotN>
6

>  <b_1rotR>
0.27272728

>  <b_ar>
6

>  <b_count>
51

>  <b_double>
0

>  <b_heavy>
22

>  <b_max1len>
7

>  <b_rotN>
7

>  <b_rotR>
0.31818181

>  <b_single>
45

>  <b_triple>
0

>  <chi0>
15.294683

>  <chi0v>
13.562204

>  <chi0v_C>
12.206742

>  <chi0_C>
12.880469

>  <chi1>
9.955308

>  <chi1v>
8.10357

>  <chi1v_C>
6.7490187

>  <chi1_C>
7.6161566

>  <chiral>
1

>  <chiral_u>
0

>  <density>
0.65698481

>  <diameter>
11

>  <FCharge>
0

>  <GCUT_PEOE_0>
-0.8448422

>  <GCUT_PEOE_1>
-0.32518005

>  <GCUT_PEOE_2>
0.042381302

>  <GCUT_PEOE_3>
2.7234797

>  <GCUT_SLOGP_0>
-1.1534367

>  <GCUT_SLOGP_1>
-0.25890702

>  <GCUT_SLOGP_2>
0.084673233

>  <GCUT_SLOGP_3>
2.818176

>  <GCUT_SMR_0>
-0.53139472

>  <GCUT_SMR_1>
-0.19338053

>  <GCUT_SMR_2>
0.15085778

>  <GCUT_SMR_3>
2.966073

>  <Kier1>
17.355371

>  <Kier2>
8.0222225

>  <Kier3>
5.9504132

>  <KierA1>
15.432723

>  <KierA2>
7.0893698

>  <KierA3>
5.2334948

>  <KierFlex>
5.209918

>  <lip_acc>
3

>  <lip_don>
2

>  <lip_druglike>
1

>  <lip_violation>
0

>  <logP(o/w)>
3.6389999

>  <logS>
-4.1005998

>  <mr>
8.6838636

>  <mutagenic>
0

>  <nmol>
1

>  <opr_brigid>
11

>  <opr_leadlike>
1

>  <opr_nring>
2

>  <opr_nrot>
8

>  <opr_violation>
0

>  <PC+>
0

>  <PC->
0

>  <PEOE_PC+>
1.6136115

>  <PEOE_PC->
-1.6136115

>  <PEOE_RPC+>
0.13010043

>  <PEOE_RPC->
0.2406016

>  <PEOE_VSA+0>
98.500046

>  <PEOE_VSA+1>
58.172443

>  <PEOE_VSA+2>
8.6190128

>  <PEOE_VSA+3>
0

>  <PEOE_VSA+4>
10.324173

>  <PEOE_VSA+5>
0

>  <PEOE_VSA+6>
0

>  <PEOE_VSA-0>
88.1091

>  <PEOE_VSA-1>
54.167339

>  <PEOE_VSA-2>
0

>  <PEOE_VSA-3>
0

>  <PEOE_VSA-4>
0

>  <PEOE_VSA-5>
0

>  <PEOE_VSA-6>
10.408187

>  <PEOE_VSA_FHYD>
0.93684942

>  <PEOE_VSA_FNEG>
0.46507612

>  <PEOE_VSA_FPNEG>
0.031703252

>  <PEOE_VSA_FPOL>
0.0631506

>  <PEOE_VSA_FPOS>
0.53492391

>  <PEOE_VSA_FPPOS>
0.031447344

>  <PEOE_VSA_HYD>
307.56793

>  <PEOE_VSA_NEG>
152.68463

>  <PEOE_VSA_PNEG>
10.408187

>  <PEOE_VSA_POL>
20.732361

>  <PEOE_VSA_POS>
175.61568

>  <PEOE_VSA_PPOS>
10.324173

>  <petitjean>
0.45454547

>  <petitjeanSC>
0.83333331

>  <Q_PC+>
0

>  <Q_PC->
0

>  <Q_RPC+>
0

>  <Q_RPC->
0

>  <Q_VSA_FHYD>
1

>  <Q_VSA_FNEG>
0

>  <Q_VSA_FPNEG>
0

>  <Q_VSA_FPOL>
0

>  <Q_VSA_FPOS>
1

>  <Q_VSA_FPPOS>
0

>  <Q_VSA_HYD>
328.30029

>  <Q_VSA_NEG>
0

>  <Q_VSA_PNEG>
0

>  <Q_VSA_POL>
0

>  <Q_VSA_POS>
328.30029

>  <Q_VSA_PPOS>
0

>  <radius>
6

>  <reactive>
0

>  <rings>
2

>  <RPC+>
0

>  <RPC->
0

>  <rsynth>
1

>  <SlogP>
3.4719999

>  <SlogP_VSA0>
54.395866

>  <SlogP_VSA1>
0

>  <SlogP_VSA2>
6.4686494

>  <SlogP_VSA3>
39.365837

>  <SlogP_VSA4>
3.185575

>  <SlogP_VSA5>
0

>  <SlogP_VSA6>
4.4107962

>  <SlogP_VSA7>
70.572739

>  <SlogP_VSA8>
75.473625

>  <SlogP_VSA9>
105.22147

>  <SMR>
8.6908503

>  <SMR_VSA0>
0

>  <SMR_VSA1>
36.385113

>  <SMR_VSA2>
18.01075

>  <SMR_VSA3>
19.308449

>  <SMR_VSA4>
0

>  <SMR_VSA5>
146.04636

>  <SMR_VSA6>
39.365837

>  <SMR_VSA7>
99.978043

>  <TPSA>
41.490002

>  <VAdjEq>
0.46827638

>  <VAdjMa>
5.4594316

>  <VDistEq>
3.3556952

>  <VDistMa>
8.4694977

>  <vdw_area>
328.30029

>  <vdw_vol>
443.59473

>  <vsa_acc>
2.503756

>  <vsa_acid>
0

>  <vsa_base>
0

>  <vsa_don>
0

>  <vsa_hyd>
278.38541

>  <vsa_other>
0

>  <vsa_pol>
21.753254

>  <Weight>
291.435

>  <weinerPath>
1043

>  <weinerPol>
25

>  <zagreb>
104

$$$$