s1c2C[C@@H](NCCC)CCc2nc1N
  MOE2013           2D

 14 15  0  0  1  0  0  0  0  0999 V2000
    0.0000    0.0000    0.0000 S   0  0  0  0  0  0  0  0  0  0  0  0
    1.3660    0.6210    0.0000 C   0  0  0  0  0  0  0  0  0  0  0  0
    2.7410    0.0210    0.0000 C   0  0  0  0  0  0  0  0  0  0  0  0
    3.9470    0.9130    0.0000 C   0  0  1  0  0  0  0  0  0  0  0  0
    5.3220    0.3130    0.0000 N   0  0  0  0  0  0  0  0  0  0  0  0
    6.5290    1.2040    0.0000 C   0  0  0  0  0  0  0  0  0  0  0  0
    7.9040    0.6050    0.0000 C   0  0  0  0  0  0  0  0  0  0  0  0
    9.1100    1.4960    0.0000 C   0  0  0  0  0  0  0  0  0  0  0  0
    3.7790    2.4030    0.0000 C   0  0  0  0  0  0  0  0  0  0  0  0
    2.4040    3.0020    0.0000 C   0  0  0  0  0  0  0  0  0  0  0  0
    1.1970    2.1110    0.0000 C   0  0  0  0  0  0  0  0  0  0  0  0
   -0.2730    2.4120    0.0000 N   0  0  0  0  0  0  0  0  0  0  0  0
   -1.0120    1.1070    0.0000 C   0  0  0  0  0  0  0  0  0  0  0  0
   -2.5030    0.9380    0.0000 N   0  0  0  0  0  0  0  0  0  0  0  0
  1  2  1  0  0  0  0
  1 13  1  0  0  0  0
  2  3  1  0  0  0  0
  2 11  2  0  0  0  0
  3  4  1  0  0  0  0
  4  5  1  6  0  0  0
  4  9  1  0  0  0  0
  5  6  1  0  0  0  0
  6  7  1  0  0  0  0
  7  8  1  0  0  0  0
  9 10  1  0  0  0  0
 10 11  1  0  0  0  0
 11 12  1  0  0  0  0
 12 13  2  0  0  0  0
 13 14  1  0  0  0  0
M  END
>  <Index>
886

>  <ID>
HT1721

>  <class>
0

>  <apol>
35.135483

>  <ast_fraglike>
1

>  <ast_fraglike_ext>
0

>  <ast_violation>
0

>  <ast_violation_ext>
1

>  <a_acc>
2

>  <a_acid>
0

>  <a_aro>
5

>  <a_base>
0

>  <a_count>
31

>  <a_don>
2

>  <a_donacc>
4

>  <a_heavy>
14

>  <a_hyd>
10

>  <a_IC>
46.119049

>  <a_ICM>
1.4877113

>  <a_nB>
0

>  <a_nBr>
0

>  <a_nC>
10

>  <a_nCl>
0

>  <a_nF>
0

>  <a_nH>
17

>  <a_nI>
0

>  <a_nN>
3

>  <a_nO>
0

>  <a_nP>
0

>  <a_nS>
1

>  <balabanJ>
1.7984166

>  <BCUT_PEOE_0>
-2.7164929

>  <BCUT_PEOE_1>
-0.47576991

>  <BCUT_PEOE_2>
0.44494751

>  <BCUT_PEOE_3>
2.6577334

>  <BCUT_SLOGP_0>
-2.8006198

>  <BCUT_SLOGP_1>
-0.45631334

>  <BCUT_SLOGP_2>
0.5901224

>  <BCUT_SLOGP_3>
2.6649175

>  <BCUT_SMR_0>
-2.4448276

>  <BCUT_SMR_1>
-0.37422594

>  <BCUT_SMR_2>
0.65617925

>  <BCUT_SMR_3>
2.9295127

>  <bpol>
22.184519

>  <b_1rotN>
3

>  <b_1rotR>
0.2

>  <b_ar>
5

>  <b_count>
32

>  <b_double>
0

>  <b_heavy>
15

>  <b_max1len>
6

>  <b_rotN>
3

>  <b_rotR>
0.2

>  <b_single>
27

>  <b_triple>
0

>  <chi0>
9.9662552

>  <chi0v>
9.3621931

>  <chi0v_C>
6.612884

>  <chi0_C>
6.8449349

>  <chi1>
6.7920251

>  <chi1v>
6.0835724

>  <chi1v_C>
3.48071

>  <chi1_C>
3.6734333

>  <chiral>
1

>  <chiral_u>
0

>  <density>
0.73561567

>  <diameter>
9

>  <FCharge>
0

>  <GCUT_PEOE_0>
-0.84962434

>  <GCUT_PEOE_1>
-0.34161949

>  <GCUT_PEOE_2>
-0.024443381

>  <GCUT_PEOE_3>
2.5318227

>  <GCUT_SLOGP_0>
-1.334553

>  <GCUT_SLOGP_1>
-0.3061893

>  <GCUT_SLOGP_2>
0.13552125

>  <GCUT_SLOGP_3>
2.5802591

>  <GCUT_SMR_0>
-0.5235576

>  <GCUT_SMR_1>
-0.17584126

>  <GCUT_SMR_2>
0.15446903

>  <GCUT_SMR_3>
2.7960069

>  <Kier1>
10.515555

>  <Kier2>
4.6799998

>  <Kier3>
2.5344

>  <KierA1>
9.9800615

>  <KierA2>
4.4226627

>  <KierA3>
2.3871989

>  <KierFlex>
3.1527462

>  <lip_acc>
3

>  <lip_don>
3

>  <lip_druglike>
1

>  <lip_violation>
0

>  <logP(o/w)>
1.348

>  <logS>
-1.59956

>  <mr>
6.0337887

>  <mutagenic>
1

>  <nmol>
1

>  <opr_brigid>
10

>  <opr_leadlike>
1

>  <opr_nring>
2

>  <opr_nrot>
4

>  <opr_violation>
0

>  <PC+>
0

>  <PC->
0

>  <PEOE_PC+>
1.1074988

>  <PEOE_PC->
-1.1074988

>  <PEOE_RPC+>
0.17295958

>  <PEOE_RPC->
0.28258526

>  <PEOE_VSA+0>
69.560913

>  <PEOE_VSA+1>
13.166624

>  <PEOE_VSA+2>
25.857038

>  <PEOE_VSA+3>
19.760618

>  <PEOE_VSA+4>
0

>  <PEOE_VSA+5>
0

>  <PEOE_VSA+6>
0

>  <PEOE_VSA-0>
47.997578

>  <PEOE_VSA-1>
22.93228

>  <PEOE_VSA-2>
0

>  <PEOE_VSA-3>
0

>  <PEOE_VSA-4>
0

>  <PEOE_VSA-5>
12.333695

>  <PEOE_VSA-6>
0.13689101

>  <PEOE_VSA_FHYD>
0.94110584

>  <PEOE_VSA_FNEG>
0.39387089

>  <PEOE_VSA_FPNEG>
0.058894183

>  <PEOE_VSA_FPOL>
0.058894183

>  <PEOE_VSA_FPOS>
0.60612911

>  <PEOE_VSA_FPPOS>
0

>  <PEOE_VSA_HYD>
199.27505

>  <PEOE_VSA_NEG>
83.400444

>  <PEOE_VSA_PNEG>
12.470587

>  <PEOE_VSA_POL>
12.470587

>  <PEOE_VSA_POS>
128.3452

>  <PEOE_VSA_PPOS>
0

>  <petitjean>
0.44444445

>  <petitjeanSC>
0.80000001

>  <Q_PC+>
0

>  <Q_PC->
0

>  <Q_RPC+>
0

>  <Q_RPC->
0

>  <Q_VSA_FHYD>
1

>  <Q_VSA_FNEG>
0

>  <Q_VSA_FPNEG>
0

>  <Q_VSA_FPOL>
0

>  <Q_VSA_FPOS>
1

>  <Q_VSA_FPPOS>
0

>  <Q_VSA_HYD>
211.74564

>  <Q_VSA_NEG>
0

>  <Q_VSA_PNEG>
0

>  <Q_VSA_POL>
0

>  <Q_VSA_POS>
211.74564

>  <Q_VSA_PPOS>
0

>  <radius>
5

>  <reactive>
0

>  <rings>
2

>  <RPC+>
0

>  <RPC->
0

>  <rsynth>
0.21428572

>  <SlogP>
1.58214

>  <SlogP_VSA0>
50.90794

>  <SlogP_VSA1>
16.78553

>  <SlogP_VSA2>
3.9819686

>  <SlogP_VSA3>
18.439579

>  <SlogP_VSA4>
4.115149

>  <SlogP_VSA5>
37.736813

>  <SlogP_VSA6>
0

>  <SlogP_VSA7>
0

>  <SlogP_VSA8>
37.736813

>  <SlogP_VSA9>
65.104446

>  <SMR>
6.0633101

>  <SMR_VSA0>
0

>  <SMR_VSA1>
16.78553

>  <SMR_VSA2>
18.01075

>  <SMR_VSA3>
8.0971174

>  <SMR_VSA4>
0.50074643

>  <SMR_VSA5>
108.37081

>  <SMR_VSA6>
18.439579

>  <SMR_VSA7>
64.603706

>  <TPSA>
50.939999

>  <VAdjEq>
0.61744827

>  <VAdjMa>
4.9068904

>  <VDistEq>
2.8608737

>  <VDistMa>
7.2742519

>  <vdw_area>
211.74564

>  <vdw_vol>
287.28726

>  <vsa_acc>
5.6825762

>  <vsa_acid>
0

>  <vsa_base>
0

>  <vsa_don>
17.742489

>  <vsa_hyd>
150.28625

>  <vsa_other>
13.166624

>  <vsa_pol>
29.107641

>  <Weight>
211.33299

>  <weinerPath>
318

>  <weinerPol>
17

>  <zagreb>
70

$$$$