O1CCN(C)C(C)C1c1ccccc1
  MOE2013           2D

 14 15  0  0  1  0  0  0  0  0999 V2000
    0.0000    0.0000    0.0000 O   0  0  0  0  0  0  0  0  0  0  0  0
   -1.5000    0.0020    0.0000 C   0  0  0  0  0  0  0  0  0  0  0  0
   -2.2480    1.3030    0.0000 C   0  0  0  0  0  0  0  0  0  0  0  0
   -1.4960    2.6000    0.0000 N   0  0  3  0  0  0  0  0  0  0  0  0
   -2.2440    3.9010    0.0000 C   0  0  0  0  0  0  0  0  0  0  0  0
    0.0040    2.5980    0.0000 C   0  0  3  0  0  0  0  0  0  0  0  0
    0.7560    3.8960    0.0000 C   0  0  0  0  0  0  0  0  0  0  0  0
    0.7520    1.2980    0.0000 C   0  0  3  0  0  0  0  0  0  0  0  0
    2.2520    1.2950    0.0000 C   0  0  0  0  0  0  0  0  0  0  0  0
    3.0000   -0.0050    0.0000 C   0  0  0  0  0  0  0  0  0  0  0  0
    4.5000   -0.0070    0.0000 C   0  0  0  0  0  0  0  0  0  0  0  0
    5.2520    1.2910    0.0000 C   0  0  0  0  0  0  0  0  0  0  0  0
    4.5040    2.5910    0.0000 C   0  0  0  0  0  0  0  0  0  0  0  0
    3.0040    2.5930    0.0000 C   0  0  0  0  0  0  0  0  0  0  0  0
  1  2  1  0  0  0  0
  1  8  1  0  0  0  0
  2  3  1  0  0  0  0
  3  4  1  0  0  0  0
  4  5  1  0  0  0  0
  4  6  1  0  0  0  0
  6  7  1  0  0  0  0
  6  8  1  0  0  0  0
  8  9  1  0  0  0  0
  9 10  1  0  0  0  0
  9 14  2  0  0  0  0
 10 11  2  0  0  0  0
 11 12  1  0  0  0  0
 12 13  2  0  0  0  0
 13 14  1  0  0  0  0
M  END
>  <Index>
845

>  <ID>
HT1643

>  <class>
0

>  <apol>
34.357479

>  <ast_fraglike>
1

>  <ast_fraglike_ext>
1

>  <ast_violation>
0

>  <ast_violation_ext>
0

>  <a_acc>
2

>  <a_acid>
0

>  <a_aro>
6

>  <a_base>
0

>  <a_count>
31

>  <a_don>
0

>  <a_donacc>
2

>  <a_heavy>
14

>  <a_hyd>
12

>  <a_IC>
41.073666

>  <a_ICM>
1.324957

>  <a_nB>
0

>  <a_nBr>
0

>  <a_nC>
12

>  <a_nCl>
0

>  <a_nF>
0

>  <a_nH>
17

>  <a_nI>
0

>  <a_nN>
1

>  <a_nO>
1

>  <a_nP>
0

>  <a_nS>
0

>  <balabanJ>
1.9437938

>  <BCUT_PEOE_0>
-2.745621

>  <BCUT_PEOE_1>
-0.51414424

>  <BCUT_PEOE_2>
0.57736981

>  <BCUT_PEOE_3>
2.6813557

>  <BCUT_SLOGP_0>
-2.8039954

>  <BCUT_SLOGP_1>
-0.41453937

>  <BCUT_SLOGP_2>
0.67270797

>  <BCUT_SLOGP_3>
2.6700804

>  <BCUT_SMR_0>
-2.4788787

>  <BCUT_SMR_1>
-0.38791084

>  <BCUT_SMR_2>
0.70780951

>  <BCUT_SMR_3>
2.9375365

>  <bpol>
22.480518

>  <b_1rotN>
1

>  <b_1rotR>
0.06666667

>  <b_ar>
6

>  <b_count>
32

>  <b_double>
0

>  <b_heavy>
15

>  <b_max1len>
3

>  <b_rotN>
1

>  <b_rotR>
0.06666667

>  <b_single>
26

>  <b_triple>
0

>  <chi0>
9.9662552

>  <chi0v>
8.8111277

>  <chi0v_C>
7.9556656

>  <chi0_C>
8.681798

>  <chi1>
6.7876935

>  <chi1v>
5.1560602

>  <chi1v_C>
3.6100423

>  <chi1_C>
4.5605135

>  <chiral>
2

>  <chiral_u>
2

>  <density>
0.65930808

>  <diameter>
7

>  <FCharge>
0

>  <GCUT_PEOE_0>
-0.84930897

>  <GCUT_PEOE_1>
-0.35454196

>  <GCUT_PEOE_2>
0.058479846

>  <GCUT_PEOE_3>
2.5620246

>  <GCUT_SLOGP_0>
-0.95549917

>  <GCUT_SLOGP_1>
-0.26386139

>  <GCUT_SLOGP_2>
0.13701537

>  <GCUT_SLOGP_3>
2.611208

>  <GCUT_SMR_0>
-0.51794106

>  <GCUT_SMR_1>
-0.17983106

>  <GCUT_SMR_2>
0.15598767

>  <GCUT_SMR_3>
2.8091967

>  <Kier1>
10.515555

>  <Kier2>
4.6799998

>  <Kier3>
2.3431952

>  <KierA1>
8.7738733

>  <KierA2>
3.8458905

>  <KierA3>
1.903224

>  <KierFlex>
2.4102397

>  <lip_acc>
2

>  <lip_don>
0

>  <lip_druglike>
1

>  <lip_violation>
0

>  <logP(o/w)>
2.1040001

>  <logS>
-1.87502

>  <mr>
5.8084683

>  <mutagenic>
0

>  <nmol>
1

>  <opr_brigid>
12

>  <opr_leadlike>
1

>  <opr_nring>
2

>  <opr_nrot>
3

>  <opr_violation>
0

>  <PC+>
0

>  <PC->
0

>  <PEOE_PC+>
1.0400724

>  <PEOE_PC->
-1.0400724

>  <PEOE_RPC+>
0.095059022

>  <PEOE_RPC->
0.35493878

>  <PEOE_VSA+0>
54.726761

>  <PEOE_VSA+1>
53.979309

>  <PEOE_VSA+2>
0

>  <PEOE_VSA+3>
0

>  <PEOE_VSA+4>
0

>  <PEOE_VSA+5>
0

>  <PEOE_VSA+6>
0

>  <PEOE_VSA-0>
44.194908

>  <PEOE_VSA-1>
61.274521

>  <PEOE_VSA-2>
0

>  <PEOE_VSA-3>
0

>  <PEOE_VSA-4>
0

>  <PEOE_VSA-5>
0

>  <PEOE_VSA-6>
2.503756

>  <PEOE_VSA_FHYD>
0.98844486

>  <PEOE_VSA_FNEG>
0.49830881

>  <PEOE_VSA_FPNEG>
0.011555126

>  <PEOE_VSA_FPOL>
0.011555126

>  <PEOE_VSA_FPOS>
0.50169116

>  <PEOE_VSA_FPPOS>
0

>  <PEOE_VSA_HYD>
214.17549

>  <PEOE_VSA_NEG>
107.97318

>  <PEOE_VSA_PNEG>
2.503756

>  <PEOE_VSA_POL>
2.503756

>  <PEOE_VSA_POS>
108.70607

>  <PEOE_VSA_PPOS>
0

>  <petitjean>
0.42857143

>  <petitjeanSC>
0.75

>  <Q_PC+>
0

>  <Q_PC->
0

>  <Q_RPC+>
0

>  <Q_RPC->
0

>  <Q_VSA_FHYD>
1

>  <Q_VSA_FNEG>
0

>  <Q_VSA_FPNEG>
0

>  <Q_VSA_FPOL>
0

>  <Q_VSA_FPOS>
1

>  <Q_VSA_FPPOS>
0

>  <Q_VSA_HYD>
216.67924

>  <Q_VSA_NEG>
0

>  <Q_VSA_PNEG>
0

>  <Q_VSA_POL>
0

>  <Q_VSA_POS>
216.67924

>  <Q_VSA_PPOS>
0

>  <radius>
4

>  <reactive>
0

>  <rings>
2

>  <RPC+>
0

>  <RPC->
0

>  <rsynth>
1

>  <SlogP>
2.1737001

>  <SlogP_VSA0>
0

>  <SlogP_VSA1>
3.1243138

>  <SlogP_VSA2>
14.981856

>  <SlogP_VSA3>
39.365837

>  <SlogP_VSA4>
3.185575

>  <SlogP_VSA5>
32.897186

>  <SlogP_VSA6>
0

>  <SlogP_VSA7>
88.215919

>  <SlogP_VSA8>
6.4686494

>  <SlogP_VSA9>
33.326015

>  <SMR>
5.7337999

>  <SMR_VSA0>
10.999887

>  <SMR_VSA1>
3.1243138

>  <SMR_VSA2>
0

>  <SMR_VSA3>
13.636193

>  <SMR_VSA4>
0

>  <SMR_VSA5>
88.215919

>  <SMR_VSA6>
39.365837

>  <SMR_VSA7>
66.223206

>  <TPSA>
12.47

>  <VAdjEq>
0.61744827

>  <VAdjMa>
4.9068904

>  <VDistEq>
2.6093893

>  <VDistMa>
7.3213534

>  <vdw_area>
216.67924

>  <vdw_vol>
290.11322

>  <vsa_acc>
2.503756

>  <vsa_acid>
0

>  <vsa_base>
0

>  <vsa_don>
0

>  <vsa_hyd>
202.07498

>  <vsa_other>
0

>  <vsa_pol>
2.503756

>  <Weight>
191.274

>  <weinerPath>
291

>  <weinerPol>
20

>  <zagreb>
70

$$$$