O1[C@H](CO)[C@@H](O)C[C@@H]1n1c2NC=NC[C@@H](O)c2nc1
  MOE2013           2D

 19 21  0  0  1  0  0  0  0  0999 V2000
    0.0000    0.0000    0.0000 O   0  0  0  0  0  0  0  0  0  0  0  0
    1.3730    0.6030    0.0000 C   0  0  2  0  0  0  0  0  0  0  0  0
    2.6690   -0.1530    0.0000 C   0  0  0  0  0  0  0  0  0  0  0  0
    2.6610   -1.6530    0.0000 O   0  0  0  0  0  0  0  0  0  0  0  0
    1.2240    2.0960    0.0000 C   0  0  1  0  0  0  0  0  0  0  0  0
    2.3440    3.0940    0.0000 O   0  0  0  0  0  0  0  0  0  0  0  0
   -0.2420    2.4150    0.0000 C   0  0  0  0  0  0  0  0  0  0  0  0
   -0.9980    1.1200    0.0000 C   0  0  2  0  0  0  0  0  0  0  0  0
   -2.4910    0.9700    0.0000 N   0  0  0  0  0  0  0  0  0  0  0  0
   -3.4890    2.0900    0.0000 C   0  0  0  0  0  0  0  0  0  0  0  0
   -3.1030    3.5400    0.0000 N   0  0  0  0  0  0  0  0  0  0  0  0
   -3.9980    4.7440    0.0000 C   0  0  0  0  0  0  0  0  0  0  0  0
   -5.4970    4.7960    0.0000 N   0  0  0  0  0  0  0  0  0  0  0  0
   -6.4730    3.6570    0.0000 C   0  0  0  0  0  0  0  0  0  0  0  0
   -6.1900    2.1840    0.0000 C   0  0  1  0  0  0  0  0  0  0  0  0
   -7.3940    1.2890    0.0000 O   0  0  0  0  0  0  0  0  0  0  0  0
   -4.8620    1.4870    0.0000 C   0  0  0  0  0  0  0  0  0  0  0  0
   -4.7130   -0.0060    0.0000 N   0  0  0  0  0  0  0  0  0  0  0  0
   -3.2470   -0.3250    0.0000 C   0  0  0  0  0  0  0  0  0  0  0  0
  1  2  1  0  0  0  0
  1  8  1  0  0  0  0
  2  3  1  1  0  0  0
  2  5  1  0  0  0  0
  3  4  1  0  0  0  0
  5  6  1  6  0  0  0
  5  7  1  0  0  0  0
  7  8  1  0  0  0  0
  8  9  1  1  0  0  0
  9 10  1  0  0  0  0
  9 19  1  0  0  0  0
 10 11  1  0  0  0  0
 10 17  2  0  0  0  0
 11 12  1  0  0  0  0
 12 13  2  0  0  0  0
 13 14  1  0  0  0  0
 14 15  1  0  0  0  0
 15 16  1  6  0  0  0
 15 17  1  0  0  0  0
 17 18  1  0  0  0  0
 18 19  2  0  0  0  0
M  END
>  <Index>
836

>  <ID>
HT1626

>  <class>
0

>  <apol>
37.636688

>  <ast_fraglike>
0

>  <ast_fraglike_ext>
0

>  <ast_violation>
2

>  <ast_violation_ext>
4

>  <a_acc>
6

>  <a_acid>
0

>  <a_aro>
5

>  <a_base>
0

>  <a_count>
35

>  <a_don>
4

>  <a_donacc>
10

>  <a_heavy>
19

>  <a_hyd>
7

>  <a_IC>
61.471157

>  <a_ICM>
1.7563188

>  <a_nB>
0

>  <a_nBr>
0

>  <a_nC>
11

>  <a_nCl>
0

>  <a_nF>
0

>  <a_nH>
16

>  <a_nI>
0

>  <a_nN>
4

>  <a_nO>
4

>  <a_nP>
0

>  <a_nS>
0

>  <balabanJ>
1.6909121

>  <BCUT_PEOE_0>
-2.5107489

>  <BCUT_PEOE_1>
-0.62041461

>  <BCUT_PEOE_2>
0.70532387

>  <BCUT_PEOE_3>
2.744509

>  <BCUT_SLOGP_0>
-2.6638517

>  <BCUT_SLOGP_1>
-0.67684966

>  <BCUT_SLOGP_2>
0.55860025

>  <BCUT_SLOGP_3>
2.708287

>  <BCUT_SMR_0>
-2.3106399

>  <BCUT_SMR_1>
-0.51338458

>  <BCUT_SMR_2>
0.79278934

>  <BCUT_SMR_3>
2.9507275

>  <bpol>
24.687311

>  <b_1rotN>
2

>  <b_1rotR>
0.095238097

>  <b_ar>
5

>  <b_count>
37

>  <b_double>
1

>  <b_heavy>
21

>  <b_max1len>
4

>  <b_rotN>
2

>  <b_rotR>
0.095238097

>  <b_single>
31

>  <b_triple>
0

>  <chi0>
13.405413

>  <chi0v>
10.176951

>  <chi0v_C>
6.585422

>  <chi0_C>
6.9996357

>  <chi1>
9.2027082

>  <chi1v>
6.1439438

>  <chi1v_C>
2.5050015

>  <chi1_C>
2.6329932

>  <chiral>
4

>  <chiral_u>
0

>  <density>
0.82711226

>  <diameter>
9

>  <FCharge>
0

>  <GCUT_PEOE_0>
-0.82646966

>  <GCUT_PEOE_1>
-0.39470926

>  <GCUT_PEOE_2>
0.15021314

>  <GCUT_PEOE_3>
2.6370451

>  <GCUT_SLOGP_0>
-0.99267608

>  <GCUT_SLOGP_1>
-0.40552437

>  <GCUT_SLOGP_2>
-0.0017697145

>  <GCUT_SLOGP_3>
2.6432955

>  <GCUT_SMR_0>
-0.5268566

>  <GCUT_SMR_1>
-0.23533028

>  <GCUT_SMR_2>
0.21773405

>  <GCUT_SMR_3>
2.8744059

>  <Kier1>
13.959184

>  <Kier2>
5.7800002

>  <Kier3>
2.6122448

>  <KierA1>
11.392

>  <KierA2>
4.6599464

>  <KierA3>
2.0860953

>  <KierFlex>
2.7940059

>  <lip_acc>
8

>  <lip_don>
4

>  <lip_druglike>
1

>  <lip_violation>
0

>  <logP(o/w)>
-1.564

>  <logS>
-0.42919001

>  <mr>
6.4837852

>  <mutagenic>
0

>  <nmol>
1

>  <opr_brigid>
16

>  <opr_leadlike>
1

>  <opr_nring>
3

>  <opr_nrot>
4

>  <opr_violation>
0

>  <PC+>
0

>  <PC->
0

>  <PEOE_PC+>
2.6411045

>  <PEOE_PC->
-2.6411045

>  <PEOE_RPC+>
0.079654612

>  <PEOE_RPC->
0.14856197

>  <PEOE_VSA+0>
17.232086

>  <PEOE_VSA+1>
109.64548

>  <PEOE_VSA+2>
45.626682

>  <PEOE_VSA+3>
8.6190128

>  <PEOE_VSA+4>
30.972517

>  <PEOE_VSA+5>
0

>  <PEOE_VSA+6>
0

>  <PEOE_VSA-0>
0

>  <PEOE_VSA-1>
0

>  <PEOE_VSA-2>
0

>  <PEOE_VSA-3>
0

>  <PEOE_VSA-4>
5.6825762

>  <PEOE_VSA-5>
5.6825762

>  <PEOE_VSA-6>
25.943268

>  <PEOE_VSA_FHYD>
0.72622377

>  <PEOE_VSA_FNEG>
0.14959018

>  <PEOE_VSA_FPNEG>
0.14959018

>  <PEOE_VSA_FPOL>
0.2737762

>  <PEOE_VSA_FPOS>
0.85040981

>  <PEOE_VSA_FPPOS>
0.12418602

>  <PEOE_VSA_HYD>
181.12328

>  <PEOE_VSA_NEG>
37.308418

>  <PEOE_VSA_PNEG>
37.308418

>  <PEOE_VSA_POL>
68.280937

>  <PEOE_VSA_POS>
212.09579

>  <PEOE_VSA_PPOS>
30.972517

>  <petitjean>
0.44444445

>  <petitjeanSC>
0.80000001

>  <Q_PC+>
0

>  <Q_PC->
0

>  <Q_RPC+>
0

>  <Q_RPC->
0

>  <Q_VSA_FHYD>
1

>  <Q_VSA_FNEG>
0

>  <Q_VSA_FPNEG>
0

>  <Q_VSA_FPOL>
0

>  <Q_VSA_FPOS>
1

>  <Q_VSA_FPPOS>
0

>  <Q_VSA_HYD>
249.40421

>  <Q_VSA_NEG>
0

>  <Q_VSA_PNEG>
0

>  <Q_VSA_POL>
0

>  <Q_VSA_POS>
249.40421

>  <Q_VSA_PPOS>
0

>  <radius>
5

>  <reactive>
0

>  <rings>
3

>  <RPC+>
0

>  <RPC->
0

>  <rsynth>
1

>  <SlogP>
-0.79799998

>  <SlogP_VSA0>
76.155678

>  <SlogP_VSA1>
36.695374

>  <SlogP_VSA2>
40.722717

>  <SlogP_VSA3>
39.365837

>  <SlogP_VSA4>
2.7567475

>  <SlogP_VSA5>
16.78553

>  <SlogP_VSA6>
0

>  <SlogP_VSA7>
16.78553

>  <SlogP_VSA8>
31.376877

>  <SlogP_VSA9>
2.3279202

>  <SMR>
6.6010098

>  <SMR_VSA0>
10.999887

>  <SMR_VSA1>
111.62583

>  <SMR_VSA2>
0

>  <SMR_VSA3>
28.202517

>  <SMR_VSA4>
20.338671

>  <SMR_VSA5>
35.653934

>  <SMR_VSA6>
39.365837

>  <SMR_VSA7>
16.78553

>  <TPSA>
112.13

>  <VAdjEq>
0.51875818

>  <VAdjMa>
5.3923173

>  <VDistEq>
2.9707344

>  <VDistMa>
8.2074604

>  <vdw_area>
249.40421

>  <vdw_vol>
324.34894

>  <vsa_acc>
13.868908

>  <vsa_acid>
0

>  <vsa_base>
0

>  <vsa_don>
5.6825762

>  <vsa_hyd>
90.241585

>  <vsa_other>
73.72113

>  <vsa_pol>
60.252247

>  <Weight>
268.27298

>  <weinerPath>
670

>  <weinerPol>
32

>  <zagreb>
102

$$$$