Brc1cc(F)c(cc1)CN1N=C(c2c(cccc2)C1=O)CC(O)=O
  MOE2013           2D

 24 26  0  0  0  0  0  0  0  0999 V2000
    0.0000    0.0000    0.0000 Br  0  0  0  0  0  0  0  0  0  0  0  0
    1.2990   -0.7510    0.0000 C   0  0  0  0  0  0  0  0  0  0  0  0
    1.2980   -2.2510    0.0000 C   0  0  0  0  0  0  0  0  0  0  0  0
    2.5970   -3.0010    0.0000 C   0  0  0  0  0  0  0  0  0  0  0  0
    2.5960   -4.5010    0.0000 F   0  0  0  0  0  0  0  0  0  0  0  0
    3.8960   -2.2520    0.0000 C   0  0  0  0  0  0  0  0  0  0  0  0
    3.8970   -0.7520    0.0000 C   0  0  0  0  0  0  0  0  0  0  0  0
    2.5980   -0.0010    0.0000 C   0  0  0  0  0  0  0  0  0  0  0  0
    5.1950   -3.0030    0.0000 C   0  0  0  0  0  0  0  0  0  0  0  0
    6.4940   -2.2530    0.0000 N   0  0  0  0  0  0  0  0  0  0  0  0
    6.4950   -0.7530    0.0000 N   0  0  0  0  0  0  0  0  0  0  0  0
    7.7940   -0.0040    0.0000 C   0  0  0  0  0  0  0  0  0  0  0  0
    9.0930   -0.7540    0.0000 C   0  0  0  0  0  0  0  0  0  0  0  0
    9.0920   -2.2540    0.0000 C   0  0  0  0  0  0  0  0  0  0  0  0
   10.3910   -3.0050    0.0000 C   0  0  0  0  0  0  0  0  0  0  0  0
   11.6900   -2.2560    0.0000 C   0  0  0  0  0  0  0  0  0  0  0  0
   11.6910   -0.7560    0.0000 C   0  0  0  0  0  0  0  0  0  0  0  0
   10.3920   -0.0050    0.0000 C   0  0  0  0  0  0  0  0  0  0  0  0
    7.7930   -3.0040    0.0000 C   0  0  0  0  0  0  0  0  0  0  0  0
    7.7920   -4.5040    0.0000 O   0  0  0  0  0  0  0  0  0  0  0  0
    7.7950    1.4960    0.0000 C   0  0  0  0  0  0  0  0  0  0  0  0
    6.4960    2.2470    0.0000 C   0  0  0  0  0  0  0  0  0  0  0  0
    5.1970    1.4970    0.0000 O   0  0  0  0  0  0  0  0  0  0  0  0
    6.4970    3.7470    0.0000 O   0  0  0  0  0  0  0  0  0  0  0  0
  1  2  1  0  0  0  0
  2  3  1  0  0  0  0
  2  8  2  0  0  0  0
  3  4  2  0  0  0  0
  4  5  1  0  0  0  0
  4  6  1  0  0  0  0
  6  7  2  0  0  0  0
  6  9  1  0  0  0  0
  7  8  1  0  0  0  0
  9 10  1  0  0  0  0
 10 11  1  0  0  0  0
 10 19  1  0  0  0  0
 11 12  2  0  0  0  0
 12 13  1  0  0  0  0
 12 21  1  0  0  0  0
 13 14  1  0  0  0  0
 13 18  2  0  0  0  0
 14 15  2  0  0  0  0
 14 19  1  0  0  0  0
 15 16  1  0  0  0  0
 16 17  2  0  0  0  0
 17 18  1  0  0  0  0
 19 20  2  0  0  0  0
 21 22  1  0  0  0  0
 22 23  1  0  0  0  0
 22 24  2  0  0  0  0
M  END
>  <Index>
883

>  <ID>
HT1709

>  <class>
0

>  <apol>
46.134518

>  <ast_fraglike>
0

>  <ast_fraglike_ext>
0

>  <ast_violation>
3

>  <ast_violation_ext>
4

>  <a_acc>
4

>  <a_acid>
0

>  <a_aro>
12

>  <a_base>
0

>  <a_count>
36

>  <a_don>
2

>  <a_donacc>
6

>  <a_heavy>
24

>  <a_hyd>
16

>  <a_IC>
66.855995

>  <a_ICM>
1.857111

>  <a_nB>
0

>  <a_nBr>
1

>  <a_nC>
17

>  <a_nCl>
0

>  <a_nF>
1

>  <a_nH>
12

>  <a_nI>
0

>  <a_nN>
2

>  <a_nO>
3

>  <a_nP>
0

>  <a_nS>
0

>  <balabanJ>
1.6803738

>  <BCUT_PEOE_0>
-2.4234099

>  <BCUT_PEOE_1>
-0.60174382

>  <BCUT_PEOE_2>
0.61204833

>  <BCUT_PEOE_3>
2.4499521

>  <BCUT_SLOGP_0>
-2.4491162

>  <BCUT_SLOGP_1>
-0.49872681

>  <BCUT_SLOGP_2>
0.84785479

>  <BCUT_SLOGP_3>
2.4731722

>  <BCUT_SMR_0>
-2.1367574

>  <BCUT_SMR_1>
-0.42610207

>  <BCUT_SMR_2>
0.89223307

>  <BCUT_SMR_3>
2.736855

>  <bpol>
19.507484

>  <b_1rotN>
4

>  <b_1rotR>
0.15384616

>  <b_ar>
12

>  <b_count>
38

>  <b_double>
3

>  <b_heavy>
26

>  <b_max1len>
2

>  <b_rotN>
4

>  <b_rotR>
0.15384616

>  <b_single>
23

>  <b_triple>
0

>  <chi0>
17.26722

>  <chi0v>
13.955729

>  <chi0v_C>
9.4556656

>  <chi0_C>
10.982763

>  <chi1>
11.452397

>  <chi1v>
7.8923035

>  <chi1v_C>
5.1260443

>  <chi1_C>
7.0075679

>  <chiral>
0

>  <chiral_u>
0

>  <density>
0.92778289

>  <diameter>
11

>  <FCharge>
0

>  <GCUT_PEOE_0>
-0.79957438

>  <GCUT_PEOE_1>
-0.44897902

>  <GCUT_PEOE_2>
0.066510178

>  <GCUT_PEOE_3>
2.5129776

>  <GCUT_SLOGP_0>
-0.89572638

>  <GCUT_SLOGP_1>
-0.33718607

>  <GCUT_SLOGP_2>
0.23130776

>  <GCUT_SLOGP_3>
2.576304

>  <GCUT_SMR_0>
-0.48299676

>  <GCUT_SMR_1>
-0.2224616

>  <GCUT_SMR_2>
0.2649526

>  <GCUT_SMR_3>
2.8030376

>  <Kier1>
18.781065

>  <Kier2>
8.1314831

>  <Kier3>
4.4114585

>  <KierA1>
14.535768

>  <KierA2>
6.2182841

>  <KierA3>
3.3444302

>  <KierFlex>
3.7661471

>  <lip_acc>
5

>  <lip_don>
1

>  <lip_druglike>
1

>  <lip_violation>
0

>  <logP(o/w)>
4.0869999

>  <logS>
-5.1164899

>  <mr>
9.0917959

>  <mutagenic>
0

>  <nmol>
1

>  <opr_brigid>
17

>  <opr_leadlike>
1

>  <opr_nring>
3

>  <opr_nrot>
4

>  <opr_violation>
0

>  <PC+>
0

>  <PC->
0

>  <PEOE_PC+>
1.8479686

>  <PEOE_PC->
-1.8479686

>  <PEOE_RPC+>
0.14897679

>  <PEOE_RPC->
0.17910667

>  <PEOE_VSA+0>
17.408598

>  <PEOE_VSA+1>
66.981667

>  <PEOE_VSA+2>
9.0208454

>  <PEOE_VSA+3>
0

>  <PEOE_VSA+4>
10.324173

>  <PEOE_VSA+5>
27.65803

>  <PEOE_VSA+6>
0

>  <PEOE_VSA-0>
36.764713

>  <PEOE_VSA-1>
92.644463

>  <PEOE_VSA-2>
0

>  <PEOE_VSA-3>
9.4210396

>  <PEOE_VSA-4>
11.908636

>  <PEOE_VSA-5>
27.133842

>  <PEOE_VSA-6>
7.7675405

>  <PEOE_VSA_FHYD>
0.73254496

>  <PEOE_VSA_FNEG>
0.58555394

>  <PEOE_VSA_FPNEG>
0.14765005

>  <PEOE_VSA_FPOL>
0.26745504

>  <PEOE_VSA_FPOS>
0.41444609

>  <PEOE_VSA_FPPOS>
0.119805

>  <PEOE_VSA_HYD>
232.24132

>  <PEOE_VSA_NEG>
185.64023

>  <PEOE_VSA_PNEG>
46.810017

>  <PEOE_VSA_POL>
84.792221

>  <PEOE_VSA_POS>
131.39331

>  <PEOE_VSA_PPOS>
37.982204

>  <petitjean>
0.45454547

>  <petitjeanSC>
0.83333331

>  <Q_PC+>
0

>  <Q_PC->
0

>  <Q_RPC+>
0

>  <Q_RPC->
0

>  <Q_VSA_FHYD>
1

>  <Q_VSA_FNEG>
0

>  <Q_VSA_FPNEG>
0

>  <Q_VSA_FPOL>
0

>  <Q_VSA_FPOS>
1

>  <Q_VSA_FPPOS>
0

>  <Q_VSA_HYD>
317.03354

>  <Q_VSA_NEG>
0

>  <Q_VSA_PNEG>
0

>  <Q_VSA_POL>
0

>  <Q_VSA_POS>
317.03354

>  <Q_VSA_PPOS>
0

>  <radius>
6

>  <reactive>
0

>  <rings>
3

>  <RPC+>
0

>  <RPC->
0

>  <rsynth>
1

>  <SlogP>
3.6894

>  <SlogP_VSA0>
0

>  <SlogP_VSA1>
18.762787

>  <SlogP_VSA2>
32.983234

>  <SlogP_VSA3>
25.385227

>  <SlogP_VSA4>
33.418941

>  <SlogP_VSA5>
19.718111

>  <SlogP_VSA6>
0

>  <SlogP_VSA7>
123.50229

>  <SlogP_VSA8>
18.868406

>  <SlogP_VSA9>
79.353783

>  <SMR>
8.9410295

>  <SMR_VSA0>
47.724434

>  <SMR_VSA1>
34.624912

>  <SMR_VSA2>
37.561348

>  <SMR_VSA3>
9.5567245

>  <SMR_VSA4>
0

>  <SMR_VSA5>
160.81027

>  <SMR_VSA6>
15.760995

>  <SMR_VSA7>
45.954094

>  <TPSA>
69.970001

>  <VAdjEq>
0.43739632

>  <VAdjMa>
5.7004399

>  <VDistEq>
3.254642

>  <VDistMa>
8.895587

>  <vdw_area>
317.03354

>  <vdw_vol>
421.64603

>  <vsa_acc>
22.987961

>  <vsa_acid>
0

>  <vsa_base>
0

>  <vsa_don>
0

>  <vsa_hyd>
220.19962

>  <vsa_other>
34.357582

>  <vsa_pol>
50.121803

>  <Weight>
391.19598

>  <weinerPath>
1308

>  <weinerPol>
39

>  <zagreb>
126

$$$$