Oc1c-2c(C[C@H]3N(CCc4c3c-2ccc4)C)ccc1O
  MOE2013           2D

 20 23  0  0  1  0  0  0  0  0999 V2000
    0.0000    0.0000    0.0000 O   0  0  0  0  0  0  0  0  0  0  0  0
   -0.7510   -1.2990    0.0000 C   0  0  0  0  0  0  0  0  0  0  0  0
   -2.2490   -1.2970    0.0000 C   0  0  0  0  0  0  0  0  0  0  0  0
   -3.0020   -2.5970    0.0000 C   0  0  0  0  0  0  0  0  0  0  0  0
   -4.5050   -2.5950    0.0000 C   0  0  0  0  0  0  0  0  0  0  0  0
   -5.2560   -1.2930    0.0000 C   0  0  1  0  0  0  0  0  0  0  0  0
   -6.7510   -1.2890    0.0000 N   0  0  3  0  0  0  0  0  0  0  0  0
   -7.4980    0.0100    0.0000 C   0  0  0  0  0  0  0  0  0  0  0  0
   -6.7500    1.3060    0.0000 C   0  0  0  0  0  0  0  0  0  0  0  0
   -5.2480    1.3040    0.0000 C   0  0  0  0  0  0  0  0  0  0  0  0
   -4.5000    0.0060    0.0000 C   0  0  0  0  0  0  0  0  0  0  0  0
   -2.9970    0.0030    0.0000 C   0  0  0  0  0  0  0  0  0  0  0  0
   -2.2500    1.2990    0.0000 C   0  0  0  0  0  0  0  0  0  0  0  0
   -2.9980    2.5990    0.0000 C   0  0  0  0  0  0  0  0  0  0  0  0
   -4.4950    2.6050    0.0000 C   0  0  0  0  0  0  0  0  0  0  0  0
   -7.5040   -2.5860    0.0000 C   0  0  0  0  0  0  0  0  0  0  0  0
   -2.2500   -3.8970    0.0000 C   0  0  0  0  0  0  0  0  0  0  0  0
   -0.7500   -3.8970    0.0000 C   0  0  0  0  0  0  0  0  0  0  0  0
    0.0000   -2.5970    0.0000 C   0  0  0  0  0  0  0  0  0  0  0  0
    1.5000   -2.5970    0.0000 O   0  0  0  0  0  0  0  0  0  0  0  0
  1  2  1  0  0  0  0
  2  3  2  0  0  0  0
  2 19  1  0  0  0  0
  3  4  1  0  0  0  0
  3 12  1  0  0  0  0
  4  5  1  0  0  0  0
  4 17  2  0  0  0  0
  6  5  1  1  0  0  0
  6  7  1  0  0  0  0
  6 11  1  0  0  0  0
  7  8  1  0  0  0  0
  7 16  1  0  0  0  0
  8  9  1  0  0  0  0
  9 10  1  0  0  0  0
 10 11  2  0  0  0  0
 10 15  1  0  0  0  0
 11 12  1  0  0  0  0
 12 13  2  0  0  0  0
 13 14  1  0  0  0  0
 14 15  2  0  0  0  0
 17 18  1  0  0  0  0
 18 19  2  0  0  0  0
 19 20  1  0  0  0  0
M  END
>  <Index>
83

>  <ID>
HT0171

>  <class>
0

>  <apol>
43.95948

>  <ast_fraglike>
1

>  <ast_fraglike_ext>
1

>  <ast_violation>
0

>  <ast_violation_ext>
0

>  <a_acc>
3

>  <a_acid>
0

>  <a_aro>
12

>  <a_base>
0

>  <a_count>
37

>  <a_don>
2

>  <a_donacc>
5

>  <a_heavy>
20

>  <a_hyd>
17

>  <a_IC>
51.776039

>  <a_ICM>
1.3993524

>  <a_nB>
0

>  <a_nBr>
0

>  <a_nC>
17

>  <a_nCl>
0

>  <a_nF>
0

>  <a_nH>
17

>  <a_nI>
0

>  <a_nN>
1

>  <a_nO>
2

>  <a_nP>
0

>  <a_nS>
0

>  <balabanJ>
1.67405

>  <BCUT_PEOE_0>
-2.717521

>  <BCUT_PEOE_1>
-0.60633588

>  <BCUT_PEOE_2>
0.66616988

>  <BCUT_PEOE_3>
2.6446657

>  <BCUT_SLOGP_0>
-2.711611

>  <BCUT_SLOGP_1>
-0.51281917

>  <BCUT_SLOGP_2>
0.72584248

>  <BCUT_SLOGP_3>
2.7208765

>  <BCUT_SMR_0>
-2.4280727

>  <BCUT_SMR_1>
-0.4478561

>  <BCUT_SMR_2>
0.81986791

>  <BCUT_SMR_3>
2.9345198

>  <bpol>
20.56452

>  <b_1rotN>
0

>  <b_1rotR>
0

>  <b_ar>
12

>  <b_count>
40

>  <b_double>
0

>  <b_heavy>
23

>  <b_max1len>
2

>  <b_rotN>
0

>  <b_rotR>
0

>  <b_single>
28

>  <b_triple>
0

>  <chi0>
13.853006

>  <chi0v>
11.427063

>  <chi0v_C>
10.085422

>  <chi0_C>
11.275657

>  <chi1>
9.6647034

>  <chi1v>
7.0275846

>  <chi1v_C>
5.5587306

>  <chi1_C>
7.1910715

>  <chiral>
1

>  <chiral_u>
0

>  <density>
0.7164188

>  <diameter>
8

>  <FCharge>
0

>  <GCUT_PEOE_0>
-0.85111302

>  <GCUT_PEOE_1>
-0.43047345

>  <GCUT_PEOE_2>
0.0869973

>  <GCUT_PEOE_3>
2.7769635

>  <GCUT_SLOGP_0>
-0.92760342

>  <GCUT_SLOGP_1>
-0.28638041

>  <GCUT_SLOGP_2>
0.13668463

>  <GCUT_SLOGP_3>
2.9060259

>  <GCUT_SMR_0>
-0.51395923

>  <GCUT_SMR_1>
-0.21006842

>  <GCUT_SMR_2>
0.20920841

>  <GCUT_SMR_3>
3.0643167

>  <Kier1>
13.648394

>  <Kier2>
5.0253062

>  <Kier3>
2.0369823

>  <KierA1>
10.602254

>  <KierA2>
3.8478136

>  <KierA3>
1.5432782

>  <KierFlex>
2.0397749

>  <lip_acc>
3

>  <lip_don>
2

>  <lip_druglike>
1

>  <lip_violation>
0

>  <logP(o/w)>
3.2260001

>  <logS>
-3.32655

>  <mr>
7.731041

>  <mutagenic>
0

>  <nmol>
1

>  <opr_brigid>
20

>  <opr_leadlike>
1

>  <opr_nring>
4

>  <opr_nrot>
0

>  <opr_violation>
0

>  <PC+>
0

>  <PC->
0

>  <PEOE_PC+>
1.4081347

>  <PEOE_PC->
-1.4081347

>  <PEOE_RPC+>
0.15441918

>  <PEOE_RPC->
0.25371185

>  <PEOE_VSA+0>
56.935299

>  <PEOE_VSA+1>
25.592316

>  <PEOE_VSA+2>
16.917038

>  <PEOE_VSA+3>
0

>  <PEOE_VSA+4>
20.648346

>  <PEOE_VSA+5>
0

>  <PEOE_VSA+6>
0

>  <PEOE_VSA-0>
61.730377

>  <PEOE_VSA-1>
49.019615

>  <PEOE_VSA-2>
0

>  <PEOE_VSA-3>
0

>  <PEOE_VSA-4>
0

>  <PEOE_VSA-5>
0

>  <PEOE_VSA-6>
15.535081

>  <PEOE_VSA_FHYD>
0.85313863

>  <PEOE_VSA_FNEG>
0.51256621

>  <PEOE_VSA_FPNEG>
0.063053824

>  <PEOE_VSA_FPOL>
0.14686139

>  <PEOE_VSA_FPOS>
0.48743379

>  <PEOE_VSA_FPPOS>
0.083807558

>  <PEOE_VSA_HYD>
210.19464

>  <PEOE_VSA_NEG>
126.28507

>  <PEOE_VSA_PNEG>
15.535081

>  <PEOE_VSA_POL>
36.183426

>  <PEOE_VSA_POS>
120.093

>  <PEOE_VSA_PPOS>
20.648346

>  <petitjean>
0.5

>  <petitjeanSC>
1

>  <Q_PC+>
0

>  <Q_PC->
0

>  <Q_RPC+>
0

>  <Q_RPC->
0

>  <Q_VSA_FHYD>
1

>  <Q_VSA_FNEG>
0

>  <Q_VSA_FPNEG>
0

>  <Q_VSA_FPOL>
0

>  <Q_VSA_FPOS>
1

>  <Q_VSA_FPPOS>
0

>  <Q_VSA_HYD>
246.37807

>  <Q_VSA_NEG>
0

>  <Q_VSA_PNEG>
0

>  <Q_VSA_POL>
0

>  <Q_VSA_POS>
246.37807

>  <Q_VSA_PPOS>
0

>  <radius>
4

>  <reactive>
0

>  <rings>
4

>  <RPC+>
0

>  <RPC->
0

>  <rsynth>
1

>  <SlogP>
2.9453399

>  <SlogP_VSA0>
50.770454

>  <SlogP_VSA1>
3.1243138

>  <SlogP_VSA2>
0

>  <SlogP_VSA3>
18.439579

>  <SlogP_VSA4>
9.5567245

>  <SlogP_VSA5>
70.633995

>  <SlogP_VSA6>
0

>  <SlogP_VSA7>
94.587074

>  <SlogP_VSA8>
3.9819686

>  <SlogP_VSA9>
10.486856

>  <SMR>
7.8097601

>  <SMR_VSA0>
0

>  <SMR_VSA1>
53.894768

>  <SMR_VSA2>
0

>  <SMR_VSA3>
24.025549

>  <SMR_VSA4>
6.37115

>  <SMR_VSA5>
125.95274

>  <SMR_VSA6>
18.439579

>  <SMR_VSA7>
32.897186

>  <TPSA>
43.700001

>  <VAdjEq>
0.51481563

>  <VAdjMa>
5.523562

>  <VDistEq>
2.7479463

>  <VDistMa>
8.3957071

>  <vdw_area>
246.37807

>  <vdw_vol>
373.14487

>  <vsa_acc>
0

>  <vsa_acid>
0

>  <vsa_base>
0

>  <vsa_don>
0

>  <vsa_hyd>
199.51772

>  <vsa_other>
0

>  <vsa_pol>
27.133842

>  <Weight>
267.328

>  <weinerPath>
680

>  <weinerPol>
40

>  <zagreb>
116

$$$$