O(CCCCCOc1ccc(cc1)C(N)=N)c1ccc(cc1)C(N)=N
  MOE2013           2D

 25 26  0  0  0  0  0  0  0  0999 V2000
    0.0000    0.0000    0.0000 O   0  0  0  0  0  0  0  0  0  0  0  0
   -1.2990    0.7500    0.0000 C   0  0  0  0  0  0  0  0  0  0  0  0
   -2.5980    0.0000    0.0000 C   0  0  0  0  0  0  0  0  0  0  0  0
   -3.8970    0.7500    0.0000 C   0  0  0  0  0  0  0  0  0  0  0  0
   -5.1960    0.0000    0.0000 C   0  0  0  0  0  0  0  0  0  0  0  0
   -6.4950    0.7500    0.0000 C   0  0  0  0  0  0  0  0  0  0  0  0
   -7.7940    0.0000    0.0000 O   0  0  0  0  0  0  0  0  0  0  0  0
   -9.0930    0.7500    0.0000 C   0  0  0  0  0  0  0  0  0  0  0  0
   -9.0930    2.2500    0.0000 C   0  0  0  0  0  0  0  0  0  0  0  0
  -10.3920    3.0000    0.0000 C   0  0  0  0  0  0  0  0  0  0  0  0
  -11.6910    2.2500    0.0000 C   0  0  0  0  0  0  0  0  0  0  0  0
  -11.6910    0.7500    0.0000 C   0  0  0  0  0  0  0  0  0  0  0  0
  -10.3920    0.0000    0.0000 C   0  0  0  0  0  0  0  0  0  0  0  0
  -12.9900    3.0000    0.0000 C   0  0  0  0  0  0  0  0  0  0  0  0
  -12.9900    4.5000    0.0000 N   0  0  0  0  0  0  0  0  0  0  0  0
  -14.2890    2.2500    0.0000 N   0  0  0  0  0  0  0  0  0  0  0  0
    1.2990    0.7500    0.0000 C   0  0  0  0  0  0  0  0  0  0  0  0
    2.5980    0.0000    0.0000 C   0  0  0  0  0  0  0  0  0  0  0  0
    3.8970    0.7500    0.0000 C   0  0  0  0  0  0  0  0  0  0  0  0
    3.8970    2.2500    0.0000 C   0  0  0  0  0  0  0  0  0  0  0  0
    2.5980    3.0000    0.0000 C   0  0  0  0  0  0  0  0  0  0  0  0
    1.2990    2.2500    0.0000 C   0  0  0  0  0  0  0  0  0  0  0  0
    5.1960    3.0000    0.0000 C   0  0  0  0  0  0  0  0  0  0  0  0
    6.4950    2.2500    0.0000 N   0  0  0  0  0  0  0  0  0  0  0  0
    5.1960    4.5000    0.0000 N   0  0  0  0  0  0  0  0  0  0  0  0
  1  2  1  0  0  0  0
  1 17  1  0  0  0  0
  2  3  1  0  0  0  0
  3  4  1  0  0  0  0
  4  5  1  0  0  0  0
  5  6  1  0  0  0  0
  6  7  1  0  0  0  0
  7  8  1  0  0  0  0
  8  9  1  0  0  0  0
  8 13  2  0  0  0  0
  9 10  2  0  0  0  0
 10 11  1  0  0  0  0
 11 12  2  0  0  0  0
 11 14  1  0  0  0  0
 12 13  1  0  0  0  0
 14 15  1  0  0  0  0
 14 16  2  0  0  0  0
 17 18  1  0  0  0  0
 17 22  2  0  0  0  0
 18 19  2  0  0  0  0
 19 20  1  0  0  0  0
 20 21  2  0  0  0  0
 20 23  1  0  0  0  0
 21 22  1  0  0  0  0
 23 24  1  0  0  0  0
 23 25  2  0  0  0  0
M  END
>  <Index>
830

>  <ID>
HT1618

>  <class>
0

>  <apol>
55.447033

>  <ast_fraglike>
0

>  <ast_fraglike_ext>
0

>  <ast_violation>
3

>  <ast_violation_ext>
5

>  <a_acc>
4

>  <a_acid>
0

>  <a_aro>
12

>  <a_base>
0

>  <a_count>
49

>  <a_don>
4

>  <a_donacc>
8

>  <a_heavy>
25

>  <a_hyd>
17

>  <a_IC>
74.371063

>  <a_ICM>
1.5177767

>  <a_nB>
0

>  <a_nBr>
0

>  <a_nC>
19

>  <a_nCl>
0

>  <a_nF>
0

>  <a_nH>
24

>  <a_nI>
0

>  <a_nN>
4

>  <a_nO>
2

>  <a_nP>
0

>  <a_nS>
0

>  <balabanJ>
1.3968046

>  <BCUT_PEOE_0>
-2.6203601

>  <BCUT_PEOE_1>
-0.641617

>  <BCUT_PEOE_2>
0.70420671

>  <BCUT_PEOE_3>
2.5876272

>  <BCUT_SLOGP_0>
-2.5692053

>  <BCUT_SLOGP_1>
-0.53807992

>  <BCUT_SLOGP_2>
0.80591482

>  <BCUT_SLOGP_3>
2.6738293

>  <BCUT_SMR_0>
-2.3826513

>  <BCUT_SMR_1>
-0.49986199

>  <BCUT_SMR_2>
0.85431087

>  <BCUT_SMR_3>
2.8238041

>  <bpol>
28.748968

>  <b_1rotN>
10

>  <b_1rotR>
0.38461539

>  <b_ar>
12

>  <b_count>
50

>  <b_double>
2

>  <b_heavy>
26

>  <b_max1len>
6

>  <b_rotN>
10

>  <b_rotR>
0.38461539

>  <b_single>
36

>  <b_triple>
0

>  <chi0>
18.070704

>  <chi0v>
14.125533

>  <chi0v_C>
11.154336

>  <chi0_C>
12.656489

>  <chi1>
12.058551

>  <chi1v>
8.2056837

>  <chi1v_C>
6.1427345

>  <chi1_C>
7.932653

>  <chiral>
0

>  <chiral_u>
0

>  <density>
0.70747513

>  <diameter>
18

>  <FCharge>
0

>  <GCUT_PEOE_0>
-0.84477311

>  <GCUT_PEOE_1>
-0.39009136

>  <GCUT_PEOE_2>
0.083224416

>  <GCUT_PEOE_3>
2.483592

>  <GCUT_SLOGP_0>
-1.3704436

>  <GCUT_SLOGP_1>
-0.31347024

>  <GCUT_SLOGP_2>
0.16445385

>  <GCUT_SLOGP_3>
2.5858016

>  <GCUT_SMR_0>
-0.52860278

>  <GCUT_SMR_1>
-0.21605732

>  <GCUT_SMR_2>
0.19305076

>  <GCUT_SMR_3>
2.7423282

>  <Kier1>
21.301775

>  <Kier2>
11.658402

>  <Kier3>
8.0443211

>  <KierA1>
15.38554

>  <KierA2>
8.2969465

>  <KierA3>
5.6616168

>  <KierFlex>
5.1061201

>  <lip_acc>
6

>  <lip_don>
6

>  <lip_druglike>
1

>  <lip_violation>
1

>  <logP(o/w)>
3.5339999

>  <logS>
-4.79105

>  <mr>
9.8966808

>  <mutagenic>
0

>  <nmol>
1

>  <opr_brigid>
14

>  <opr_leadlike>
1

>  <opr_nring>
2

>  <opr_nrot>
10

>  <opr_violation>
1

>  <PC+>
0

>  <PC->
0

>  <PEOE_PC+>
2.4490266

>  <PEOE_PC->
-2.4490266

>  <PEOE_RPC+>
0.076883584

>  <PEOE_RPC->
0.15661816

>  <PEOE_VSA+0>
30.009396

>  <PEOE_VSA+1>
98.004257

>  <PEOE_VSA+2>
22.381124

>  <PEOE_VSA+3>
51.714077

>  <PEOE_VSA+4>
0

>  <PEOE_VSA+5>
0

>  <PEOE_VSA+6>
0

>  <PEOE_VSA-0>
124.14317

>  <PEOE_VSA-1>
0

>  <PEOE_VSA-2>
0

>  <PEOE_VSA-3>
0

>  <PEOE_VSA-4>
0

>  <PEOE_VSA-5>
24.393608

>  <PEOE_VSA-6>
18.309752

>  <PEOE_VSA_FHYD>
0.88425875

>  <PEOE_VSA_FNEG>
0.45221329

>  <PEOE_VSA_FPNEG>
0.11574125

>  <PEOE_VSA_FPOL>
0.11574125

>  <PEOE_VSA_FPOS>
0.54778671

>  <PEOE_VSA_FPPOS>
0

>  <PEOE_VSA_HYD>
326.25201

>  <PEOE_VSA_NEG>
166.84653

>  <PEOE_VSA_PNEG>
42.703362

>  <PEOE_VSA_POL>
42.703362

>  <PEOE_VSA_POS>
202.10886

>  <PEOE_VSA_PPOS>
0

>  <petitjean>
0.5

>  <petitjeanSC>
1

>  <Q_PC+>
0

>  <Q_PC->
0

>  <Q_RPC+>
0

>  <Q_RPC->
0

>  <Q_VSA_FHYD>
1

>  <Q_VSA_FNEG>
0

>  <Q_VSA_FPNEG>
0

>  <Q_VSA_FPOL>
0

>  <Q_VSA_FPOS>
1

>  <Q_VSA_FPPOS>
0

>  <Q_VSA_HYD>
368.95538

>  <Q_VSA_NEG>
0

>  <Q_VSA_PNEG>
0

>  <Q_VSA_POL>
0

>  <Q_VSA_POS>
368.95538

>  <Q_VSA_PPOS>
0

>  <radius>
9

>  <reactive>
0

>  <rings>
2

>  <RPC+>
0

>  <RPC->
0

>  <rsynth>
1

>  <SlogP>
2.8828399

>  <SlogP_VSA0>
87.794151

>  <SlogP_VSA1>
4.6558404

>  <SlogP_VSA2>
0

>  <SlogP_VSA3>
41.852516

>  <SlogP_VSA4>
6.37115

>  <SlogP_VSA5>
0

>  <SlogP_VSA6>
0

>  <SlogP_VSA7>
204.48941

>  <SlogP_VSA8>
56.605217

>  <SlogP_VSA9>
10.486856

>  <SMR>
9.9757204

>  <SMR_VSA0>
0

>  <SMR_VSA1>
21.999775

>  <SMR_VSA2>
63.343933

>  <SMR_VSA3>
16.858006

>  <SMR_VSA4>
65.794373

>  <SMR_VSA5>
197.75069

>  <SMR_VSA6>
46.508358

>  <SMR_VSA7>
0

>  <TPSA>
118.2

>  <VAdjEq>
0.41335541

>  <VAdjMa>
5.7004399

>  <VDistEq>
3.9830697

>  <VDistMa>
8.9081993

>  <vdw_area>
368.95538

>  <vdw_vol>
481.18579

>  <vsa_acc>
5.0075121

>  <vsa_acid>
0

>  <vsa_base>
0

>  <vsa_don>
35.484978

>  <vsa_hyd>
239.34451

>  <vsa_other>
22.381124

>  <vsa_pol>
75.97747

>  <Weight>
340.427

>  <weinerPath>
2120

>  <weinerPol>
32

>  <zagreb>
118

$$$$