Clc1cc2c(OC(Oc3c(cc(Cl)cc3)C2C)C(OCC)=O)cc1
  MOE2013           2D

 24 26  0  0  0  0  0  0  0  0999 V2000
    0.0000    0.0000    0.0000 Cl  0  0  0  0  0  0  0  0  0  0  0  0
   -0.7560   -1.2950    0.0000 C   0  0  0  0  0  0  0  0  0  0  0  0
   -0.0130   -2.5980    0.0000 C   0  0  0  0  0  0  0  0  0  0  0  0
   -0.7690   -3.8930    0.0000 C   0  0  0  0  0  0  0  0  0  0  0  0
   -2.2690   -3.8860    0.0000 C   0  0  0  0  0  0  0  0  0  0  0  0
   -3.3350   -4.9420    0.0000 O   0  0  0  0  0  0  0  0  0  0  0  0
   -3.3420   -6.4420    0.0000 C   0  0  0  0  0  0  0  0  0  0  0  0
   -2.2860   -7.5070    0.0000 O   0  0  0  0  0  0  0  0  0  0  0  0
   -0.7860   -7.5150    0.0000 C   0  0  0  0  0  0  0  0  0  0  0  0
    0.2800   -6.4590    0.0000 C   0  0  0  0  0  0  0  0  0  0  0  0
    1.7270   -6.8540    0.0000 C   0  0  0  0  0  0  0  0  0  0  0  0
    2.1080   -8.3050    0.0000 C   0  0  0  0  0  0  0  0  0  0  0  0
    3.5550   -8.7000    0.0000 Cl  0  0  0  0  0  0  0  0  0  0  0  0
    1.0420   -9.3610    0.0000 C   0  0  0  0  0  0  0  0  0  0  0  0
   -0.4050   -8.9650    0.0000 C   0  0  0  0  0  0  0  0  0  0  0  0
    0.2870   -4.9590    0.0000 C   0  0  0  0  0  0  0  0  0  0  0  0
    1.6750   -4.3920    0.0000 C   0  0  0  0  0  0  0  0  0  0  0  0
   -4.7300   -7.0090    0.0000 C   0  0  0  0  0  0  0  0  0  0  0  0
   -5.9160   -6.0900    0.0000 O   0  0  0  0  0  0  0  0  0  0  0  0
   -7.3050   -6.6580    0.0000 C   0  0  0  0  0  0  0  0  0  0  0  0
   -8.4900   -5.7390    0.0000 C   0  0  0  0  0  0  0  0  0  0  0  0
   -4.9330   -8.4950    0.0000 O   0  0  0  0  0  0  0  0  0  0  0  0
   -3.0120   -2.5840    0.0000 C   0  0  0  0  0  0  0  0  0  0  0  0
   -2.2560   -1.2880    0.0000 C   0  0  0  0  0  0  0  0  0  0  0  0
  1  2  1  0  0  0  0
  2  3  1  0  0  0  0
  2 24  2  0  0  0  0
  3  4  2  0  0  0  0
  4  5  1  0  0  0  0
  4 16  1  0  0  0  0
  5  6  1  0  0  0  0
  5 23  2  0  0  0  0
  6  7  1  0  0  0  0
  7  8  1  0  0  0  0
  7 18  1  0  0  0  0
  8  9  1  0  0  0  0
  9 10  1  0  0  0  0
  9 15  2  0  0  0  0
 10 11  2  0  0  0  0
 10 16  1  0  0  0  0
 11 12  1  0  0  0  0
 12 13  1  0  0  0  0
 12 14  2  0  0  0  0
 14 15  1  0  0  0  0
 16 17  1  0  0  0  0
 18 19  1  0  0  0  0
 18 22  2  0  0  0  0
 19 20  1  0  0  0  0
 20 21  1  0  0  0  0
 23 24  1  0  0  0  0
M  END
>  <Index>
884

>  <ID>
HT1711

>  <class>
0

>  <apol>
49.916687

>  <ast_fraglike>
0

>  <ast_fraglike_ext>
0

>  <ast_violation>
2

>  <ast_violation_ext>
2

>  <a_acc>
3

>  <a_acid>
0

>  <a_aro>
12

>  <a_base>
0

>  <a_count>
40

>  <a_don>
0

>  <a_donacc>
3

>  <a_heavy>
24

>  <a_hyd>
18

>  <a_IC>
63.818474

>  <a_ICM>
1.5954618

>  <a_nB>
0

>  <a_nBr>
0

>  <a_nC>
18

>  <a_nCl>
2

>  <a_nF>
0

>  <a_nH>
16

>  <a_nI>
0

>  <a_nN>
0

>  <a_nO>
4

>  <a_nP>
0

>  <a_nS>
0

>  <balabanJ>
1.8310485

>  <BCUT_PEOE_0>
-2.4976075

>  <BCUT_PEOE_1>
-0.56451231

>  <BCUT_PEOE_2>
0.56805688

>  <BCUT_PEOE_3>
2.5085752

>  <BCUT_SLOGP_0>
-2.5389178

>  <BCUT_SLOGP_1>
-0.3281092

>  <BCUT_SLOGP_2>
0.74925822

>  <BCUT_SLOGP_3>
2.6358652

>  <BCUT_SMR_0>
-2.2326772

>  <BCUT_SMR_1>
-0.26440179

>  <BCUT_SMR_2>
0.88095206

>  <BCUT_SMR_3>
2.771898

>  <bpol>
25.037312

>  <b_1rotN>
2

>  <b_1rotR>
0.07692308

>  <b_ar>
12

>  <b_count>
42

>  <b_double>
1

>  <b_heavy>
26

>  <b_max1len>
3

>  <b_rotN>
3

>  <b_rotR>
0.11538462

>  <b_single>
29

>  <b_triple>
0

>  <chi0>
17.26722

>  <chi0v>
14.726689

>  <chi0v_C>
10.825909

>  <chi0_C>
12.1459

>  <chi1>
11.490402

>  <chi1v>
8.3370199

>  <chi1v_C>
5.6265502

>  <chi1_C>
7.2171102

>  <chiral>
0

>  <chiral_u>
0

>  <density>
0.83158952

>  <diameter>
10

>  <FCharge>
0

>  <GCUT_PEOE_0>
-0.76215965

>  <GCUT_PEOE_1>
-0.38054571

>  <GCUT_PEOE_2>
0.021906972

>  <GCUT_PEOE_3>
2.6383197

>  <GCUT_SLOGP_0>
-0.96459442

>  <GCUT_SLOGP_1>
-0.29283234

>  <GCUT_SLOGP_2>
0.14513269

>  <GCUT_SLOGP_3>
2.7735429

>  <GCUT_SMR_0>
-0.5139432

>  <GCUT_SMR_1>
-0.17506404

>  <GCUT_SMR_2>
0.26735589

>  <GCUT_SMR_3>
2.914098

>  <Kier1>
18.781065

>  <Kier2>
8.1314831

>  <Kier3>
4.2332363

>  <KierA1>
16.582277

>  <KierA2>
7.1386638

>  <KierA3>
3.7011566

>  <KierFlex>
4.9323044

>  <lip_acc>
4

>  <lip_don>
0

>  <lip_druglike>
1

>  <lip_violation>
0

>  <logP(o/w)>
5.4460001

>  <logS>
-6.0373201

>  <mr>
9.3836803

>  <mutagenic>
0

>  <nmol>
1

>  <opr_brigid>
18

>  <opr_leadlike>
1

>  <opr_nring>
3

>  <opr_nrot>
2

>  <opr_violation>
1

>  <PC+>
0

>  <PC->
0

>  <PEOE_PC+>
1.677103

>  <PEOE_PC->
-1.677103

>  <PEOE_RPC+>
0.19071436

>  <PEOE_RPC->
0.18582036

>  <PEOE_VSA+0>
38.897194

>  <PEOE_VSA+1>
65.991417

>  <PEOE_VSA+2>
4.2653861

>  <PEOE_VSA+3>
0

>  <PEOE_VSA+4>
0

>  <PEOE_VSA+5>
11.154908

>  <PEOE_VSA+6>
14.708499

>  <PEOE_VSA-0>
96.694183

>  <PEOE_VSA-1>
77.911568

>  <PEOE_VSA-2>
0

>  <PEOE_VSA-3>
0

>  <PEOE_VSA-4>
0

>  <PEOE_VSA-5>
13.566921

>  <PEOE_VSA-6>
7.5112681

>  <PEOE_VSA_FHYD>
0.8580544

>  <PEOE_VSA_FNEG>
0.59172404

>  <PEOE_VSA_FPNEG>
0.063737839

>  <PEOE_VSA_FPOL>
0.14194559

>  <PEOE_VSA_FPOS>
0.40827596

>  <PEOE_VSA_FPPOS>
0.078207746

>  <PEOE_VSA_HYD>
283.75977

>  <PEOE_VSA_NEG>
195.68394

>  <PEOE_VSA_PNEG>
21.07819

>  <PEOE_VSA_POL>
46.941597

>  <PEOE_VSA_POS>
135.01741

>  <PEOE_VSA_PPOS>
25.863407

>  <petitjean>
0.40000001

>  <petitjeanSC>
0.66666669

>  <Q_PC+>
0

>  <Q_PC->
0

>  <Q_RPC+>
0

>  <Q_RPC->
0

>  <Q_VSA_FHYD>
1

>  <Q_VSA_FNEG>
0

>  <Q_VSA_FPNEG>
0

>  <Q_VSA_FPOL>
0

>  <Q_VSA_FPOS>
1

>  <Q_VSA_FPPOS>
0

>  <Q_VSA_HYD>
330.70135

>  <Q_VSA_NEG>
0

>  <Q_VSA_PNEG>
0

>  <Q_VSA_POL>
0

>  <Q_VSA_POS>
330.70135

>  <Q_VSA_PPOS>
0

>  <radius>
6

>  <reactive>
0

>  <rings>
3

>  <RPC+>
0

>  <RPC->
0

>  <rsynth>
1

>  <SlogP>
4.8056002

>  <SlogP_VSA0>
21.999775

>  <SlogP_VSA1>
7.7454643

>  <SlogP_VSA2>
43.388607

>  <SlogP_VSA3>
20.926258

>  <SlogP_VSA4>
6.37115

>  <SlogP_VSA5>
0

>  <SlogP_VSA6>
11.412009

>  <SlogP_VSA7>
105.85911

>  <SlogP_VSA8>
0

>  <SlogP_VSA9>
155.43617

>  <SMR>
9.2097998

>  <SMR_VSA0>
34.862103

>  <SMR_VSA1>
21.999775

>  <SMR_VSA2>
0

>  <SMR_VSA3>
36.796516

>  <SMR_VSA4>
0

>  <SMR_VSA5>
105.85911

>  <SMR_VSA6>
28.671722

>  <SMR_VSA7>
144.94931

>  <TPSA>
44.759998

>  <VAdjEq>
0.43739632

>  <VAdjMa>
5.7004399

>  <VDistEq>
3.0591991

>  <VDistMa>
8.9243727

>  <vdw_area>
330.70135

>  <vdw_vol>
441.59766

>  <vsa_acc>
18.574432

>  <vsa_acid>
0

>  <vsa_base>
0

>  <vsa_don>
0

>  <vsa_hyd>
267.47238

>  <vsa_other>
31.920755

>  <vsa_pol>
18.574432

>  <Weight>
367.228

>  <weinerPath>
1203

>  <weinerPol>
43

>  <zagreb>
126

$$$$