O=C1NC(=O)NC1(c1ccccc1)c1ccccc1
  MOE2013           2D

 19 21  0  0  0  0  0  0  0  0999 V2000
    0.0000    0.0000    0.0000 O   0  0  0  0  0  0  0  0  0  0  0  0
    1.3350    0.6840    0.0000 C   0  0  0  0  0  0  0  0  0  0  0  0
    2.6730    0.0070    0.0000 N   0  0  0  0  0  0  0  0  0  0  0  0
    3.7310    1.0700    0.0000 C   0  0  0  0  0  0  0  0  0  0  0  0
    5.2130    0.8390    0.0000 O   0  0  0  0  0  0  0  0  0  0  0  0
    3.0470    2.4050    0.0000 N   0  0  0  0  0  0  0  0  0  0  0  0
    1.5660    2.1660    0.0000 C   0  0  0  0  0  0  0  0  0  0  0  0
    1.7320    3.6570    0.0000 C   0  0  0  0  0  0  0  0  0  0  0  0
    0.5240    4.5460    0.0000 C   0  0  0  0  0  0  0  0  0  0  0  0
    0.6900    6.0370    0.0000 C   0  0  0  0  0  0  0  0  0  0  0  0
    2.0640    6.6390    0.0000 C   0  0  0  0  0  0  0  0  0  0  0  0
    3.2720    5.7500    0.0000 C   0  0  0  0  0  0  0  0  0  0  0  0
    3.1060    4.2590    0.0000 C   0  0  0  0  0  0  0  0  0  0  0  0
    0.0680    2.2540    0.0000 C   0  0  0  0  0  0  0  0  0  0  0  0
   -0.7560    1.0010    0.0000 C   0  0  0  0  0  0  0  0  0  0  0  0
   -2.2540    1.0890    0.0000 C   0  0  0  0  0  0  0  0  0  0  0  0
   -2.9270    2.4300    0.0000 C   0  0  0  0  0  0  0  0  0  0  0  0
   -2.1020    3.6830    0.0000 C   0  0  0  0  0  0  0  0  0  0  0  0
   -0.6040    3.5950    0.0000 C   0  0  0  0  0  0  0  0  0  0  0  0
  1  2  2  0  0  0  0
  2  3  1  0  0  0  0
  2  7  1  0  0  0  0
  3  4  1  0  0  0  0
  4  5  2  0  0  0  0
  4  6  1  0  0  0  0
  6  7  1  0  0  0  0
  7  8  1  0  0  0  0
  7 14  1  0  0  0  0
  8  9  1  0  0  0  0
  8 13  2  0  0  0  0
  9 10  2  0  0  0  0
 10 11  1  0  0  0  0
 11 12  2  0  0  0  0
 12 13  1  0  0  0  0
 14 15  1  0  0  0  0
 14 19  2  0  0  0  0
 15 16  2  0  0  0  0
 16 17  1  0  0  0  0
 17 18  2  0  0  0  0
 18 19  1  0  0  0  0
M  END
>  <Index>
856

>  <ID>
HT1663

>  <class>
0

>  <apol>
38.205517

>  <ast_fraglike>
1

>  <ast_fraglike_ext>
1

>  <ast_violation>
0

>  <ast_violation_ext>
0

>  <a_acc>
2

>  <a_acid>
0

>  <a_aro>
12

>  <a_base>
0

>  <a_count>
31

>  <a_don>
2

>  <a_donacc>
4

>  <a_heavy>
19

>  <a_hyd>
13

>  <a_IC>
47.957176

>  <a_ICM>
1.5470057

>  <a_nB>
0

>  <a_nBr>
0

>  <a_nC>
15

>  <a_nCl>
0

>  <a_nF>
0

>  <a_nH>
12

>  <a_nI>
0

>  <a_nN>
2

>  <a_nO>
2

>  <a_nP>
0

>  <a_nS>
0

>  <balabanJ>
1.8609511

>  <BCUT_PEOE_0>
-2.4036336

>  <BCUT_PEOE_1>
-0.64884627

>  <BCUT_PEOE_2>
0.69777596

>  <BCUT_PEOE_3>
2.5789814

>  <BCUT_SLOGP_0>
-2.4748666

>  <BCUT_SLOGP_1>
-0.53807992

>  <BCUT_SLOGP_2>
0.80591482

>  <BCUT_SLOGP_3>
2.5287292

>  <BCUT_SMR_0>
-2.1174004

>  <BCUT_SMR_1>
-0.49986199

>  <BCUT_SMR_2>
0.85431087

>  <BCUT_SMR_3>
2.8520715

>  <bpol>
16.354485

>  <b_1rotN>
2

>  <b_1rotR>
0.095238097

>  <b_ar>
12

>  <b_count>
33

>  <b_double>
2

>  <b_heavy>
21

>  <b_max1len>
2

>  <b_rotN>
2

>  <b_rotR>
0.095238097

>  <b_single>
19

>  <b_triple>
0

>  <chi0>
13.294683

>  <chi0v>
10.089999

>  <chi0v_C>
8.2735023

>  <chi0_C>
9.8804693

>  <chi1>
9.2320175

>  <chi1v>
5.9796157

>  <chi1v_C>
4.5713673

>  <chi1_C>
6.4990187

>  <chiral>
0

>  <chiral_u>
0

>  <density>
0.74600089

>  <diameter>
8

>  <FCharge>
0

>  <GCUT_PEOE_0>
-0.78786528

>  <GCUT_PEOE_1>
-0.39797416

>  <GCUT_PEOE_2>
0.079514876

>  <GCUT_PEOE_3>
2.5389903

>  <GCUT_SLOGP_0>
-1.1955063

>  <GCUT_SLOGP_1>
-0.28879461

>  <GCUT_SLOGP_2>
0.16445385

>  <GCUT_SLOGP_3>
2.5899959

>  <GCUT_SMR_0>
-0.45881784

>  <GCUT_SMR_1>
-0.21605732

>  <GCUT_SMR_2>
0.19305076

>  <GCUT_SMR_3>
2.8236132

>  <Kier1>
13.959184

>  <Kier2>
5.7800002

>  <Kier3>
2.4921579

>  <KierA1>
8.988946

>  <KierA2>
3.6209722

>  <KierA3>
1.5277853

>  <KierFlex>
1.7130907

>  <lip_acc>
4

>  <lip_don>
2

>  <lip_druglike>
1

>  <lip_violation>
0

>  <logP(o/w)>
2.4489999

>  <logS>
-3.67628

>  <mr>
7.2331095

>  <mutagenic>
0

>  <nmol>
1

>  <opr_brigid>
17

>  <opr_leadlike>
1

>  <opr_nring>
3

>  <opr_nrot>
2

>  <opr_violation>
0

>  <PC+>
0

>  <PC->
0

>  <PEOE_PC+>
1.7174132

>  <PEOE_PC->
-1.7174132

>  <PEOE_RPC+>
0.18861255

>  <PEOE_RPC->
0.18423699

>  <PEOE_VSA+0>
0

>  <PEOE_VSA+1>
42.653858

>  <PEOE_VSA+2>
0

>  <PEOE_VSA+3>
17.238026

>  <PEOE_VSA+4>
0

>  <PEOE_VSA+5>
12.949531

>  <PEOE_VSA+6>
17.440542

>  <PEOE_VSA-0>
4.4170794

>  <PEOE_VSA-1>
122.54904

>  <PEOE_VSA-2>
0

>  <PEOE_VSA-3>
0

>  <PEOE_VSA-4>
13.566921

>  <PEOE_VSA-5>
13.703812

>  <PEOE_VSA-6>
0.13689101

>  <PEOE_VSA_FHYD>
0.76375902

>  <PEOE_VSA_FNEG>
0.63098365

>  <PEOE_VSA_FPNEG>
0.11202528

>  <PEOE_VSA_FPOL>
0.23624095

>  <PEOE_VSA_FPOS>
0.36901638

>  <PEOE_VSA_FPPOS>
0.12421568

>  <PEOE_VSA_HYD>
186.858

>  <PEOE_VSA_NEG>
154.37375

>  <PEOE_VSA_PNEG>
27.407623

>  <PEOE_VSA_POL>
57.797699

>  <PEOE_VSA_POS>
90.28196

>  <PEOE_VSA_PPOS>
30.390074

>  <petitjean>
0.5

>  <petitjeanSC>
1

>  <Q_PC+>
0

>  <Q_PC->
0

>  <Q_RPC+>
0

>  <Q_RPC->
0

>  <Q_VSA_FHYD>
1

>  <Q_VSA_FNEG>
0

>  <Q_VSA_FPNEG>
0

>  <Q_VSA_FPOL>
0

>  <Q_VSA_FPOS>
1

>  <Q_VSA_FPPOS>
0

>  <Q_VSA_HYD>
244.6557

>  <Q_VSA_NEG>
0

>  <Q_VSA_PNEG>
0

>  <Q_VSA_POL>
0

>  <Q_VSA_POS>
244.6557

>  <Q_VSA_PPOS>
0

>  <radius>
4

>  <reactive>
0

>  <rings>
3

>  <RPC+>
0

>  <RPC->
0

>  <rsynth>
1

>  <SlogP>
2.0811

>  <SlogP_VSA0>
36.0215

>  <SlogP_VSA1>
10.088739

>  <SlogP_VSA2>
23.862217

>  <SlogP_VSA3>
0

>  <SlogP_VSA4>
6.37115

>  <SlogP_VSA5>
0

>  <SlogP_VSA6>
0

>  <SlogP_VSA7>
176.43184

>  <SlogP_VSA8>
0

>  <SlogP_VSA9>
23.862217

>  <SMR>
7.0455399

>  <SMR_VSA0>
47.724434

>  <SMR_VSA1>
0

>  <SMR_VSA2>
36.0215

>  <SMR_VSA3>
6.37115

>  <SMR_VSA4>
0

>  <SMR_VSA5>
176.43184

>  <SMR_VSA6>
10.088739

>  <SMR_VSA7>
0

>  <TPSA>
58.200001

>  <VAdjEq>
0.51875818

>  <VAdjMa>
5.3923173

>  <VDistEq>
2.7179372

>  <VDistMa>
8.2504387

>  <vdw_area>
244.6557

>  <vdw_vol>
338.16718

>  <vsa_acc>
27.133842

>  <vsa_acid>
0

>  <vsa_base>
0

>  <vsa_don>
11.365152

>  <vsa_hyd>
162.50203

>  <vsa_other>
30.390074

>  <vsa_pol>
38.498993

>  <Weight>
252.27299

>  <weinerPath>
617

>  <weinerPol>
32

>  <zagreb>
102

$$$$