S(CC[C@H](NC(=O)[C@@H](NC(=O)CCNC(OC(C)(C)C)=O)Cc1c2c([nH]c1)cccc2)C(=O)N[C@@H](CC(O)=O)C(=O)N[C@@H](Cc1ccccc1)C(=O)N)C
  MOE2013           2D

 54 56  0  0  1  0  0  0  0  0999 V2000
    0.0000    0.0000    0.0000 S   0  0  0  0  0  0  0  0  0  0  0  0
    0.7450   -1.3020    0.0000 C   0  0  0  0  0  0  0  0  0  0  0  0
   -0.0110   -2.5980    0.0000 C   0  0  0  0  0  0  0  0  0  0  0  0
    0.7340   -3.9000    0.0000 C   0  0  2  0  0  0  0  0  0  0  0  0
    2.2340   -3.9060    0.0000 N   0  0  0  0  0  0  0  0  0  0  0  0
    2.9780   -5.2090    0.0000 C   0  0  0  0  0  0  0  0  0  0  0  0
    2.2230   -6.5040    0.0000 O   0  0  0  0  0  0  0  0  0  0  0  0
    4.4780   -5.2150    0.0000 C   0  0  1  0  0  0  0  0  0  0  0  0
    5.2340   -3.9190    0.0000 N   0  0  0  0  0  0  0  0  0  0  0  0
    4.4890   -2.6170    0.0000 C   0  0  0  0  0  0  0  0  0  0  0  0
    2.9890   -2.6110    0.0000 O   0  0  0  0  0  0  0  0  0  0  0  0
    5.2450   -1.3210    0.0000 C   0  0  0  0  0  0  0  0  0  0  0  0
    6.7450   -1.3270    0.0000 C   0  0  0  0  0  0  0  0  0  0  0  0
    7.5000   -0.0310    0.0000 N   0  0  0  0  0  0  0  0  0  0  0  0
    9.0000   -0.0370    0.0000 C   0  0  0  0  0  0  0  0  0  0  0  0
    9.7550    1.2580    0.0000 O   0  0  0  0  0  0  0  0  0  0  0  0
   11.2550    1.2520    0.0000 C   0  0  0  0  0  0  0  0  0  0  0  0
   11.2490   -0.2480    0.0000 C   0  0  0  0  0  0  0  0  0  0  0  0
   12.7550    1.2460    0.0000 C   0  0  0  0  0  0  0  0  0  0  0  0
   11.2620    2.7520    0.0000 C   0  0  0  0  0  0  0  0  0  0  0  0
    9.7450   -1.3400    0.0000 O   0  0  0  0  0  0  0  0  0  0  0  0
    5.2230   -6.5170    0.0000 C   0  0  0  0  0  0  0  0  0  0  0  0
    4.4680   -7.8130    0.0000 C   0  0  0  0  0  0  0  0  0  0  0  0
    5.0720   -9.1860    0.0000 C   0  0  0  0  0  0  0  0  0  0  0  0
    3.9530  -10.1850    0.0000 C   0  0  0  0  0  0  0  0  0  0  0  0
    2.6570   -9.4290    0.0000 N   0  0  0  0  0  0  0  0  0  0  0  0
    2.9750   -7.9630    0.0000 C   0  0  0  0  0  0  0  0  0  0  0  0
    4.2590  -11.6530    0.0000 C   0  0  0  0  0  0  0  0  0  0  0  0
    5.6830  -12.1230    0.0000 C   0  0  0  0  0  0  0  0  0  0  0  0
    6.8020  -11.1240    0.0000 C   0  0  0  0  0  0  0  0  0  0  0  0
    6.4970   -9.6550    0.0000 C   0  0  0  0  0  0  0  0  0  0  0  0
   -0.0220   -5.1960    0.0000 C   0  0  0  0  0  0  0  0  0  0  0  0
    0.7230   -6.4980    0.0000 O   0  0  0  0  0  0  0  0  0  0  0  0
   -1.5220   -5.1900    0.0000 N   0  0  0  0  0  0  0  0  0  0  0  0
   -2.2770   -6.4860    0.0000 C   0  0  1  0  0  0  0  0  0  0  0  0
   -1.5320   -7.7880    0.0000 C   0  0  0  0  0  0  0  0  0  0  0  0
   -2.2880   -9.0840    0.0000 C   0  0  0  0  0  0  0  0  0  0  0  0
   -1.5430  -10.3860    0.0000 O   0  0  0  0  0  0  0  0  0  0  0  0
   -3.7880   -9.0780    0.0000 O   0  0  0  0  0  0  0  0  0  0  0  0
   -3.7770   -6.4800    0.0000 C   0  0  0  0  0  0  0  0  0  0  0  0
   -4.5220   -5.1770    0.0000 O   0  0  0  0  0  0  0  0  0  0  0  0
   -4.5320   -7.7750    0.0000 N   0  0  0  0  0  0  0  0  0  0  0  0
   -6.0320   -7.7690    0.0000 C   0  0  1  0  0  0  0  0  0  0  0  0
   -6.7770   -6.4670    0.0000 C   0  0  0  0  0  0  0  0  0  0  0  0
   -8.2770   -6.4610    0.0000 C   0  0  0  0  0  0  0  0  0  0  0  0
   -9.0220   -5.1590    0.0000 C   0  0  0  0  0  0  0  0  0  0  0  0
  -10.5220   -5.1520    0.0000 C   0  0  0  0  0  0  0  0  0  0  0  0
  -11.2770   -6.4480    0.0000 C   0  0  0  0  0  0  0  0  0  0  0  0
  -10.5320   -7.7500    0.0000 C   0  0  0  0  0  0  0  0  0  0  0  0
   -9.0320   -7.7570    0.0000 C   0  0  0  0  0  0  0  0  0  0  0  0
   -6.7880   -9.0650    0.0000 C   0  0  0  0  0  0  0  0  0  0  0  0
   -8.2880   -9.0590    0.0000 O   0  0  0  0  0  0  0  0  0  0  0  0
   -6.0430  -10.3670    0.0000 N   0  0  0  0  0  0  0  0  0  0  0  0
    0.7550    1.2960    0.0000 C   0  0  0  0  0  0  0  0  0  0  0  0
  1  2  1  0  0  0  0
  1 54  1  0  0  0  0
  2  3  1  0  0  0  0
  4  3  1  6  0  0  0
  4  5  1  0  0  0  0
  4 32  1  0  0  0  0
  5  6  1  0  0  0  0
  6  7  2  0  0  0  0
  8  6  1  1  0  0  0
  8  9  1  0  0  0  0
  8 22  1  0  0  0  0
  9 10  1  0  0  0  0
 10 11  2  0  0  0  0
 10 12  1  0  0  0  0
 12 13  1  0  0  0  0
 13 14  1  0  0  0  0
 14 15  1  0  0  0  0
 15 16  1  0  0  0  0
 15 21  2  0  0  0  0
 16 17  1  0  0  0  0
 17 18  1  0  0  0  0
 17 19  1  0  0  0  0
 17 20  1  0  0  0  0
 22 23  1  0  0  0  0
 23 24  1  0  0  0  0
 23 27  2  0  0  0  0
 24 25  2  0  0  0  0
 24 31  1  0  0  0  0
 25 26  1  0  0  0  0
 25 28  1  0  0  0  0
 26 27  1  0  0  0  0
 28 29  2  0  0  0  0
 29 30  1  0  0  0  0
 30 31  2  0  0  0  0
 32 33  2  0  0  0  0
 32 34  1  0  0  0  0
 35 34  1  1  0  0  0
 35 36  1  0  0  0  0
 35 40  1  0  0  0  0
 36 37  1  0  0  0  0
 37 38  1  0  0  0  0
 37 39  2  0  0  0  0
 40 41  2  0  0  0  0
 40 42  1  0  0  0  0
 43 42  1  6  0  0  0
 43 44  1  0  0  0  0
 43 51  1  0  0  0  0
 44 45  1  0  0  0  0
 45 46  1  0  0  0  0
 45 50  2  0  0  0  0
 46 47  2  0  0  0  0
 47 48  1  0  0  0  0
 48 49  2  0  0  0  0
 49 50  1  0  0  0  0
 51 52  2  0  0  0  0
 51 53  1  0  0  0  0
M  END
>  <Index>
829

>  <ID>
HT1617

>  <class>
0

>  <apol>
115.61086

>  <ast_fraglike>
0

>  <ast_fraglike_ext>
0

>  <ast_violation>
3

>  <ast_violation_ext>
5

>  <a_acc>
8

>  <a_acid>
0

>  <a_aro>
15

>  <a_base>
0

>  <a_count>
103

>  <a_don>
9

>  <a_donacc>
17

>  <a_heavy>
54

>  <a_hyd>
31

>  <a_IC>
172.65819

>  <a_ICM>
1.6762931

>  <a_nB>
0

>  <a_nBr>
0

>  <a_nC>
37

>  <a_nCl>
0

>  <a_nF>
0

>  <a_nH>
49

>  <a_nI>
0

>  <a_nN>
7

>  <a_nO>
9

>  <a_nP>
0

>  <a_nS>
1

>  <balabanJ>
1.7082987

>  <BCUT_PEOE_0>
-2.6181948

>  <BCUT_PEOE_1>
-0.5252865

>  <BCUT_PEOE_2>
0.5365814

>  <BCUT_PEOE_3>
2.649055

>  <BCUT_SLOGP_0>
-2.8627315

>  <BCUT_SLOGP_1>
-0.45692933

>  <BCUT_SLOGP_2>
0.64351362

>  <BCUT_SLOGP_3>
2.6143303

>  <BCUT_SMR_0>
-2.3712423

>  <BCUT_SMR_1>
-0.32852304

>  <BCUT_SMR_2>
0.70108664

>  <BCUT_SMR_3>
2.9056339

>  <bpol>
67.769142

>  <b_1rotN>
20

>  <b_1rotR>
0.35714287

>  <b_ar>
16

>  <b_count>
105

>  <b_double>
7

>  <b_heavy>
56

>  <b_max1len>
7

>  <b_rotN>
27

>  <b_rotR>
0.48214287

>  <b_single>
82

>  <b_triple>
0

>  <chi0>
39.837925

>  <chi0v>
31.547947

>  <chi0v_C>
23.032652

>  <chi0_C>
25.181068

>  <chi1>
25.554771

>  <chi1v>
18.715715

>  <chi1v_C>
10.978617

>  <chi1_C>
13.307228

>  <chiral>
4

>  <chiral_u>
0

>  <density>
0.77022505

>  <diameter>
23

>  <FCharge>
0

>  <GCUT_PEOE_0>
-0.86279416

>  <GCUT_PEOE_1>
-0.39000916

>  <GCUT_PEOE_2>
0.061824016

>  <GCUT_PEOE_3>
2.9711559

>  <GCUT_SLOGP_0>
-1.3706768

>  <GCUT_SLOGP_1>
-0.36285016

>  <GCUT_SLOGP_2>
0.13823614

>  <GCUT_SLOGP_3>
2.9102306

>  <GCUT_SMR_0>
-0.52581406

>  <GCUT_SMR_1>
-0.21605732

>  <GCUT_SMR_2>
0.19305076

>  <GCUT_SMR_3>
3.2224622

>  <Kier1>
48.369259

>  <Kier2>
24.811634

>  <Kier3>
18.21958

>  <KierA1>
36.878582

>  <KierA2>
18.814898

>  <KierA3>
13.764463

>  <KierFlex>
12.849384

>  <lip_acc>
16

>  <lip_don>
9

>  <lip_druglike>
0

>  <lip_violation>
3

>  <logP(o/w)>
1.597

>  <logS>
-6.6923699

>  <mr>
20.509974

>  <mutagenic>
0

>  <nmol>
1

>  <opr_brigid>
16

>  <opr_leadlike>
0

>  <opr_nring>
3

>  <opr_nrot>
21

>  <opr_violation>
4

>  <PC+>
0

>  <PC->
0

>  <PEOE_PC+>
5.8024073

>  <PEOE_PC->
-5.8024073

>  <PEOE_RPC+>
0.062247947

>  <PEOE_RPC->
0.063445106

>  <PEOE_VSA+0>
175.85031

>  <PEOE_VSA+1>
68.416718

>  <PEOE_VSA+2>
12.583842

>  <PEOE_VSA+3>
68.952103

>  <PEOE_VSA+4>
75.071831

>  <PEOE_VSA+5>
14.708499

>  <PEOE_VSA+6>
19.199511

>  <PEOE_VSA-0>
113.01744

>  <PEOE_VSA-1>
98.03923

>  <PEOE_VSA-2>
0

>  <PEOE_VSA-3>
19.760618

>  <PEOE_VSA-4>
13.566921

>  <PEOE_VSA-5>
83.905281

>  <PEOE_VSA-6>
15.240005

>  <PEOE_VSA_FHYD>
0.71516311

>  <PEOE_VSA_FNEG>
0.44137746

>  <PEOE_VSA_FPNEG>
0.14481618

>  <PEOE_VSA_FPOL>
0.28483689

>  <PEOE_VSA_FPOS>
0.55862254

>  <PEOE_VSA_FPPOS>
0.1400207

>  <PEOE_VSA_HYD>
556.62024

>  <PEOE_VSA_NEG>
343.52951

>  <PEOE_VSA_PNEG>
112.7122

>  <PEOE_VSA_POL>
221.69205

>  <PEOE_VSA_POS>
434.78281

>  <PEOE_VSA_PPOS>
108.97984

>  <petitjean>
0.47826087

>  <petitjeanSC>
0.91666669

>  <Q_PC+>
0

>  <Q_PC->
0

>  <Q_RPC+>
0

>  <Q_RPC->
0

>  <Q_VSA_FHYD>
1

>  <Q_VSA_FNEG>
0

>  <Q_VSA_FPNEG>
0

>  <Q_VSA_FPOL>
0

>  <Q_VSA_FPOS>
1

>  <Q_VSA_FPPOS>
0

>  <Q_VSA_HYD>
778.31232

>  <Q_VSA_NEG>
0

>  <Q_VSA_PNEG>
0

>  <Q_VSA_POL>
0

>  <Q_VSA_POS>
778.31232

>  <Q_VSA_PPOS>
0

>  <radius>
12

>  <reactive>
0

>  <rings>
3

>  <RPC+>
0

>  <RPC->
0

>  <rsynth>
1

>  <SlogP>
1.5201401

>  <SlogP_VSA0>
122.95094

>  <SlogP_VSA1>
41.356018

>  <SlogP_VSA2>
186.8866

>  <SlogP_VSA3>
61.058369

>  <SlogP_VSA4>
6.37115

>  <SlogP_VSA5>
69.427986

>  <SlogP_VSA6>
0

>  <SlogP_VSA7>
180.72012

>  <SlogP_VSA8>
56.605217

>  <SlogP_VSA9>
156.0598

>  <SMR>
20.31724

>  <SMR_VSA0>
178.0354

>  <SMR_VSA1>
0

>  <SMR_VSA2>
132.2245

>  <SMR_VSA3>
22.299025

>  <SMR_VSA4>
37.614288

>  <SMR_VSA5>
270.34503

>  <SMR_VSA6>
77.02916

>  <SMR_VSA7>
163.88876

>  <TPSA>
250.91

>  <VAdjEq>
0.23494832

>  <VAdjMa>
6.8073549

>  <VDistEq>
4.2719874

>  <VDistMa>
11.256122

>  <vdw_area>
778.31232

>  <vdw_vol>
996.98779

>  <vsa_acc>
81.401527

>  <vsa_acid>
0

>  <vsa_base>
0

>  <vsa_don>
51.837948

>  <vsa_hyd>
459.19635

>  <vsa_other>
101.15942

>  <vsa_pol>
160.37331

>  <Weight>
767.90497

>  <weinerPath>
13249

>  <weinerPol>
76

>  <zagreb>
264

$$$$