O=C1N(C=C(C=C1)C)c1ccccc1
  MOE2013           2D

 14 15  0  0  0  0  0  0  0  0999 V2000
    0.0000    0.0000    0.0000 O   0  0  0  0  0  0  0  0  0  0  0  0
    0.7550   -1.2960    0.0000 C   0  0  0  0  0  0  0  0  0  0  0  0
    0.0110   -2.5980    0.0000 N   0  0  0  0  0  0  0  0  0  0  0  0
    0.7660   -3.8940    0.0000 C   0  0  0  0  0  0  0  0  0  0  0  0
    2.2660   -3.8880    0.0000 C   0  0  0  0  0  0  0  0  0  0  0  0
    3.0110   -2.5860    0.0000 C   0  0  0  0  0  0  0  0  0  0  0  0
    2.2550   -1.2900    0.0000 C   0  0  0  0  0  0  0  0  0  0  0  0
    3.0210   -5.1840    0.0000 C   0  0  0  0  0  0  0  0  0  0  0  0
   -1.4890   -2.6040    0.0000 C   0  0  0  0  0  0  0  0  0  0  0  0
   -2.2450   -1.3080    0.0000 C   0  0  0  0  0  0  0  0  0  0  0  0
   -3.7450   -1.3140    0.0000 C   0  0  0  0  0  0  0  0  0  0  0  0
   -4.4890   -2.6160    0.0000 C   0  0  0  0  0  0  0  0  0  0  0  0
   -3.7340   -3.9120    0.0000 C   0  0  0  0  0  0  0  0  0  0  0  0
   -2.2340   -3.9060    0.0000 C   0  0  0  0  0  0  0  0  0  0  0  0
  1  2  2  0  0  0  0
  2  3  1  0  0  0  0
  2  7  1  0  0  0  0
  3  4  1  0  0  0  0
  3  9  1  0  0  0  0
  4  5  2  0  0  0  0
  5  6  1  0  0  0  0
  5  8  1  0  0  0  0
  6  7  2  0  0  0  0
  9 10  1  0  0  0  0
  9 14  2  0  0  0  0
 10 11  2  0  0  0  0
 11 12  1  0  0  0  0
 12 13  2  0  0  0  0
 13 14  1  0  0  0  0
M  END
>  <Index>
870

>  <ID>
HT1692

>  <class>
0

>  <apol>
30.356724

>  <ast_fraglike>
1

>  <ast_fraglike_ext>
1

>  <ast_violation>
0

>  <ast_violation_ext>
0

>  <a_acc>
1

>  <a_acid>
0

>  <a_aro>
6

>  <a_base>
0

>  <a_count>
25

>  <a_don>
0

>  <a_donacc>
1

>  <a_heavy>
14

>  <a_hyd>
11

>  <a_IC>
35.023106

>  <a_ICM>
1.4009243

>  <a_nB>
0

>  <a_nBr>
0

>  <a_nC>
12

>  <a_nCl>
0

>  <a_nF>
0

>  <a_nH>
11

>  <a_nI>
0

>  <a_nN>
1

>  <a_nO>
1

>  <a_nP>
0

>  <a_nS>
0

>  <balabanJ>
1.9417925

>  <BCUT_PEOE_0>
-2.3876312

>  <BCUT_PEOE_1>
-0.59476954

>  <BCUT_PEOE_2>
0.6385814

>  <BCUT_PEOE_3>
2.3363779

>  <BCUT_SLOGP_0>
-2.3719504

>  <BCUT_SLOGP_1>
-0.51958936

>  <BCUT_SLOGP_2>
0.73652196

>  <BCUT_SLOGP_3>
2.4399762

>  <BCUT_SMR_0>
-2.051846

>  <BCUT_SMR_1>
-0.43287233

>  <BCUT_SMR_2>
0.80918413

>  <BCUT_SMR_3>
2.6783831

>  <bpol>
14.963277

>  <b_1rotN>
1

>  <b_1rotR>
0.06666667

>  <b_ar>
6

>  <b_count>
26

>  <b_double>
3

>  <b_heavy>
15

>  <b_max1len>
2

>  <b_rotN>
1

>  <b_rotR>
0.06666667

>  <b_single>
17

>  <b_triple>
0

>  <chi0>
9.9662552

>  <chi0v>
7.9742641

>  <chi0v_C>
7.1188021

>  <chi0_C>
8.3889055

>  <chi1>
6.7708569

>  <chi1v>
4.5195789

>  <chi1v_C>
3.6100423

>  <chi1_C>
5.1185918

>  <chiral>
0

>  <chiral_u>
0

>  <density>
0.68901497

>  <diameter>
7

>  <FCharge>
0

>  <GCUT_PEOE_0>
-0.80585182

>  <GCUT_PEOE_1>
-0.38429677

>  <GCUT_PEOE_2>
0.063494787

>  <GCUT_PEOE_3>
2.2694621

>  <GCUT_SLOGP_0>
-0.95962614

>  <GCUT_SLOGP_1>
-0.27276957

>  <GCUT_SLOGP_2>
0.14618099

>  <GCUT_SLOGP_3>
2.3880818

>  <GCUT_SMR_0>
-0.47641426

>  <GCUT_SMR_1>
-0.20866278

>  <GCUT_SMR_2>
0.18366095

>  <GCUT_SMR_3>
2.5833819

>  <Kier1>
10.515555

>  <Kier2>
4.6799998

>  <Kier3>
2.5344

>  <KierA1>
6.8549366

>  <KierA2>
2.9381301

>  <KierA3>
1.545514

>  <KierFlex>
1.4386212

>  <lip_acc>
2

>  <lip_don>
0

>  <lip_druglike>
1

>  <lip_violation>
0

>  <logP(o/w)>
1.8279999

>  <logS>
-2.4251599

>  <mr>
5.6467719

>  <mutagenic>
0

>  <nmol>
1

>  <opr_brigid>
12

>  <opr_leadlike>
1

>  <opr_nring>
2

>  <opr_nrot>
1

>  <opr_violation>
0

>  <PC+>
0

>  <PC->
0

>  <PEOE_PC+>
0.9323411

>  <PEOE_PC->
-0.9323411

>  <PEOE_RPC+>
0.27427876

>  <PEOE_RPC->
0.30453286

>  <PEOE_VSA+0>
48.496529

>  <PEOE_VSA+1>
34.123089

>  <PEOE_VSA+2>
0

>  <PEOE_VSA+3>
0

>  <PEOE_VSA+4>
0

>  <PEOE_VSA+5>
12.949531

>  <PEOE_VSA+6>
0

>  <PEOE_VSA-0>
45.466026

>  <PEOE_VSA-1>
49.019615

>  <PEOE_VSA-2>
0

>  <PEOE_VSA-3>
0

>  <PEOE_VSA-4>
0

>  <PEOE_VSA-5>
13.566921

>  <PEOE_VSA-6>
0

>  <PEOE_VSA_FHYD>
0.86977589

>  <PEOE_VSA_FNEG>
0.53065342

>  <PEOE_VSA_FPNEG>
0.066628069

>  <PEOE_VSA_FPOL>
0.13022409

>  <PEOE_VSA_FPOS>
0.46934655

>  <PEOE_VSA_FPPOS>
0.063596025

>  <PEOE_VSA_HYD>
177.10526

>  <PEOE_VSA_NEG>
108.05256

>  <PEOE_VSA_PNEG>
13.566921

>  <PEOE_VSA_POL>
26.516451

>  <PEOE_VSA_POS>
95.569145

>  <PEOE_VSA_PPOS>
12.949531

>  <petitjean>
0.42857143

>  <petitjeanSC>
0.75

>  <Q_PC+>
0

>  <Q_PC->
0

>  <Q_RPC+>
0

>  <Q_RPC->
0

>  <Q_VSA_FHYD>
1

>  <Q_VSA_FNEG>
0

>  <Q_VSA_FPNEG>
0

>  <Q_VSA_FPOL>
0

>  <Q_VSA_FPOS>
1

>  <Q_VSA_FPPOS>
0

>  <Q_VSA_HYD>
203.6217

>  <Q_VSA_NEG>
0

>  <Q_VSA_PNEG>
0

>  <Q_VSA_POL>
0

>  <Q_VSA_POS>
203.6217

>  <Q_VSA_PPOS>
0

>  <radius>
4

>  <reactive>
0

>  <rings>
2

>  <RPC+>
0

>  <RPC->
0

>  <rsynth>
1

>  <SlogP>
2.4932001

>  <SlogP_VSA0>
3.1243138

>  <SlogP_VSA1>
5.2587838

>  <SlogP_VSA2>
23.862217

>  <SlogP_VSA3>
0

>  <SlogP_VSA4>
0

>  <SlogP_VSA5>
3.185575

>  <SlogP_VSA6>
0

>  <SlogP_VSA7>
140.71664

>  <SlogP_VSA8>
0

>  <SlogP_VSA9>
36.082764

>  <SMR>
5.6824999

>  <SMR_VSA0>
23.862217

>  <SMR_VSA1>
0

>  <SMR_VSA2>
3.1243138

>  <SMR_VSA3>
3.185575

>  <SMR_VSA4>
2.7567475

>  <SMR_VSA5>
140.71664

>  <SMR_VSA6>
5.2587838

>  <SMR_VSA7>
33.326015

>  <TPSA>
20.309999

>  <VAdjEq>
0.61744827

>  <VAdjMa>
4.9068904

>  <VDistEq>
2.616442

>  <VDistMa>
7.3205605

>  <vdw_area>
203.6217

>  <vdw_vol>
268.82724

>  <vsa_acc>
13.566921

>  <vsa_acid>
0

>  <vsa_base>
0

>  <vsa_don>
0

>  <vsa_hyd>
169.27551

>  <vsa_other>
12.949531

>  <vsa_pol>
13.566921

>  <Weight>
185.226

>  <weinerPath>
293

>  <weinerPol>
19

>  <zagreb>
70

$$$$