OC(=O)C(NC(=O)c1ccc(cc1)C(Cc1nc2c(nc(nc2N)N)nc1)CC#C)CCC(O)=O
  MOE2013           2D

 35 37  0  0  1  0  0  0  0  0999 V2000
    0.0000    0.0000    0.0000 O   0  0  0  0  0  0  0  0  0  0  0  0
    1.2990   -0.7500    0.0000 C   0  0  0  0  0  0  0  0  0  0  0  0
    1.2990   -2.2500    0.0000 O   0  0  0  0  0  0  0  0  0  0  0  0
    2.5980    0.0000    0.0000 C   0  0  3  0  0  0  0  0  0  0  0  0
    3.8970   -0.7490    0.0000 N   0  0  0  0  0  0  0  0  0  0  0  0
    5.1960    0.0010    0.0000 C   0  0  0  0  0  0  0  0  0  0  0  0
    5.1960    1.5010    0.0000 O   0  0  0  0  0  0  0  0  0  0  0  0
    6.4950   -0.7490    0.0000 C   0  0  0  0  0  0  0  0  0  0  0  0
    7.7940    0.0010    0.0000 C   0  0  0  0  0  0  0  0  0  0  0  0
    9.0930   -0.7490    0.0000 C   0  0  0  0  0  0  0  0  0  0  0  0
    9.0940   -2.2490    0.0000 C   0  0  0  0  0  0  0  0  0  0  0  0
    7.7950   -2.9990    0.0000 C   0  0  0  0  0  0  0  0  0  0  0  0
    6.4960   -2.2490    0.0000 C   0  0  0  0  0  0  0  0  0  0  0  0
   10.3930   -2.9980    0.0000 C   0  0  3  0  0  0  0  0  0  0  0  0
   11.6920   -2.2480    0.0000 C   0  0  0  0  0  0  0  0  0  0  0  0
   12.9910   -2.9980    0.0000 C   0  0  0  0  0  0  0  0  0  0  0  0
   14.2900   -2.2480    0.0000 N   0  0  0  0  0  0  0  0  0  0  0  0
   15.5890   -2.9980    0.0000 C   0  0  0  0  0  0  0  0  0  0  0  0
   15.5890   -4.4980    0.0000 C   0  0  0  0  0  0  0  0  0  0  0  0
   16.8880   -5.2470    0.0000 N   0  0  0  0  0  0  0  0  0  0  0  0
   18.1870   -4.4970    0.0000 C   0  0  0  0  0  0  0  0  0  0  0  0
   18.1870   -2.9970    0.0000 N   0  0  0  0  0  0  0  0  0  0  0  0
   16.8880   -2.2470    0.0000 C   0  0  0  0  0  0  0  0  0  0  0  0
   16.8880   -0.7470    0.0000 N   0  0  0  0  0  0  0  0  0  0  0  0
   19.4860   -5.2470    0.0000 N   0  0  0  0  0  0  0  0  0  0  0  0
   14.2900   -5.2480    0.0000 N   0  0  0  0  0  0  0  0  0  0  0  0
   12.9910   -4.4980    0.0000 C   0  0  0  0  0  0  0  0  0  0  0  0
   10.3930   -4.4980    0.0000 C   0  0  0  0  0  0  0  0  0  0  0  0
    9.0940   -5.2490    0.0000 C   0  0  0  0  0  0  0  0  0  0  0  0
    7.7950   -5.9990    0.0000 C   0  0  0  0  0  0  0  0  0  0  0  0
    2.5980    1.5000    0.0000 C   0  0  0  0  0  0  0  0  0  0  0  0
    1.2990    2.2500    0.0000 C   0  0  0  0  0  0  0  0  0  0  0  0
    1.2980    3.7500    0.0000 C   0  0  0  0  0  0  0  0  0  0  0  0
    2.5970    4.5000    0.0000 O   0  0  0  0  0  0  0  0  0  0  0  0
   -0.0010    4.5000    0.0000 O   0  0  0  0  0  0  0  0  0  0  0  0
  1  2  1  0  0  0  0
  2  3  2  0  0  0  0
  2  4  1  0  0  0  0
  4  5  1  0  0  0  0
  4 31  1  0  0  0  0
  5  6  1  0  0  0  0
  6  7  2  0  0  0  0
  6  8  1  0  0  0  0
  8  9  1  0  0  0  0
  8 13  2  0  0  0  0
  9 10  2  0  0  0  0
 10 11  1  0  0  0  0
 11 12  2  0  0  0  0
 11 14  1  0  0  0  0
 12 13  1  0  0  0  0
 14 15  1  0  0  0  0
 14 28  1  0  0  0  0
 15 16  1  0  0  0  0
 16 17  2  0  0  0  0
 16 27  1  0  0  0  0
 17 18  1  0  0  0  0
 18 19  1  0  0  0  0
 18 23  2  0  0  0  0
 19 20  2  0  0  0  0
 19 26  1  0  0  0  0
 20 21  1  0  0  0  0
 21 22  2  0  0  0  0
 21 25  1  0  0  0  0
 22 23  1  0  0  0  0
 23 24  1  0  0  0  0
 26 27  2  0  0  0  0
 28 29  1  0  0  0  0
 29 30  3  0  0  0  0
 31 32  1  0  0  0  0
 32 33  1  0  0  0  0
 33 34  1  0  0  0  0
 33 35  2  0  0  0  0
M  END
>  <Index>
885

>  <ID>
HT1718

>  <class>
0

>  <apol>
67.526237

>  <ast_fraglike>
0

>  <ast_fraglike_ext>
0

>  <ast_violation>
3

>  <ast_violation_ext>
5

>  <a_acc>
9

>  <a_acid>
0

>  <a_aro>
16

>  <a_base>
0

>  <a_count>
58

>  <a_don>
7

>  <a_donacc>
16

>  <a_heavy>
35

>  <a_hyd>
17

>  <a_IC>
100.41792

>  <a_ICM>
1.7313435

>  <a_nB>
0

>  <a_nBr>
0

>  <a_nC>
23

>  <a_nCl>
0

>  <a_nF>
0

>  <a_nH>
23

>  <a_nI>
0

>  <a_nN>
7

>  <a_nO>
5

>  <a_nP>
0

>  <a_nS>
0

>  <balabanJ>
1.4804294

>  <BCUT_PEOE_0>
-2.5460765

>  <BCUT_PEOE_1>
-0.64690328

>  <BCUT_PEOE_2>
0.69949138

>  <BCUT_PEOE_3>
2.5980496

>  <BCUT_SLOGP_0>
-2.7052398

>  <BCUT_SLOGP_1>
-0.53864467

>  <BCUT_SLOGP_2>
0.80591482

>  <BCUT_SLOGP_3>
2.6336558

>  <BCUT_SMR_0>
-2.3092558

>  <BCUT_SMR_1>
-0.49986199

>  <BCUT_SMR_2>
0.85431087

>  <BCUT_SMR_3>
2.823663

>  <bpol>
32.63776

>  <b_1rotN>
10

>  <b_1rotR>
0.27027026

>  <b_ar>
17

>  <b_count>
60

>  <b_double>
3

>  <b_heavy>
37

>  <b_max1len>
5

>  <b_rotN>
12

>  <b_rotR>
0.32432431

>  <b_single>
39

>  <b_triple>
1

>  <chi0>
25.534805

>  <chi0v>
18.509956

>  <chi0v_C>
12.947229

>  <chi0_C>
14.999271

>  <chi1>
16.671944

>  <chi1v>
10.51053

>  <chi1v_C>
6.5114727

>  <chi1_C>
8.4562559

>  <chiral>
2

>  <chiral_u>
2

>  <density>
0.79225361

>  <diameter>
19

>  <FCharge>
0

>  <GCUT_PEOE_0>
-0.81044805

>  <GCUT_PEOE_1>
-0.47508332

>  <GCUT_PEOE_2>
0.10361645

>  <GCUT_PEOE_3>
2.6772203

>  <GCUT_SLOGP_0>
-1.3403577

>  <GCUT_SLOGP_1>
-0.42339689

>  <GCUT_SLOGP_2>
0.16445385

>  <GCUT_SLOGP_3>
2.7317653

>  <GCUT_SMR_0>
-0.51235276

>  <GCUT_SMR_1>
-0.24401729

>  <GCUT_SMR_2>
0.22643989

>  <GCUT_SMR_3>
2.9461563

>  <Kier1>
29.554419

>  <Kier2>
14.235294

>  <Kier3>
8.7719831

>  <KierA1>
20.198931

>  <KierA2>
9.6110811

>  <KierA3>
5.8702283

>  <KierFlex>
5.5466733

>  <lip_acc>
12

>  <lip_don>
7

>  <lip_druglike>
0

>  <lip_violation>
2

>  <logP(o/w)>
0.24359

>  <logS>
-4.4061599

>  <mr>
12.582301

>  <mutagenic>
1

>  <nmol>
1

>  <opr_brigid>
18

>  <opr_leadlike>
0

>  <opr_nring>
3

>  <opr_nrot>
11

>  <opr_violation>
4

>  <PC+>
0

>  <PC->
0

>  <PEOE_PC+>
3.7245853

>  <PEOE_PC->
-3.7245853

>  <PEOE_RPC+>
0.075766087

>  <PEOE_RPC->
0.091297776

>  <PEOE_VSA+0>
57.999641

>  <PEOE_VSA+1>
49.037785

>  <PEOE_VSA+2>
59.777512

>  <PEOE_VSA+3>
19.809576

>  <PEOE_VSA+4>
36.329918

>  <PEOE_VSA+5>
42.366531

>  <PEOE_VSA+6>
0

>  <PEOE_VSA-0>
44.120975

>  <PEOE_VSA-1>
24.509808

>  <PEOE_VSA-2>
41.663353

>  <PEOE_VSA-3>
5.6825762

>  <PEOE_VSA-4>
17.047728

>  <PEOE_VSA-5>
54.003002

>  <PEOE_VSA-6>
15.671971

>  <PEOE_VSA_FHYD>
0.64655566

>  <PEOE_VSA_FNEG>
0.43309954

>  <PEOE_VSA_FPNEG>
0.18529685

>  <PEOE_VSA_FPOL>
0.35344434

>  <PEOE_VSA_FPOS>
0.56690043

>  <PEOE_VSA_FPPOS>
0.16814749

>  <PEOE_VSA_HYD>
302.60123

>  <PEOE_VSA_NEG>
202.69942

>  <PEOE_VSA_PNEG>
86.722702

>  <PEOE_VSA_POL>
165.41914

>  <PEOE_VSA_POS>
265.32095

>  <PEOE_VSA_PPOS>
78.696449

>  <petitjean>
0.47368422

>  <petitjeanSC>
0.89999998

>  <Q_PC+>
0

>  <Q_PC->
0

>  <Q_RPC+>
0

>  <Q_RPC->
0

>  <Q_VSA_FHYD>
1

>  <Q_VSA_FNEG>
0

>  <Q_VSA_FPNEG>
0

>  <Q_VSA_FPOL>
0

>  <Q_VSA_FPOS>
1

>  <Q_VSA_FPPOS>
0

>  <Q_VSA_HYD>
468.02039

>  <Q_VSA_NEG>
0

>  <Q_VSA_PNEG>
0

>  <Q_VSA_POL>
0

>  <Q_VSA_POS>
468.02039

>  <Q_VSA_PPOS>
0

>  <radius>
10

>  <reactive>
0

>  <rings>
3

>  <RPC+>
0

>  <RPC->
0

>  <rsynth>
1

>  <SlogP>
0.98157799

>  <SlogP_VSA0>
83.805122

>  <SlogP_VSA1>
87.89183

>  <SlogP_VSA2>
51.706402

>  <SlogP_VSA3>
67.801025

>  <SlogP_VSA4>
64.478294

>  <SlogP_VSA5>
18.868406

>  <SlogP_VSA6>
4.4107962

>  <SlogP_VSA7>
91.646538

>  <SlogP_VSA8>
56.605217

>  <SlogP_VSA9>
4.2270131

>  <SMR>
12.60496

>  <SMR_VSA0>
71.586647

>  <SMR_VSA1>
67.14212

>  <SMR_VSA2>
68.781204

>  <SMR_VSA3>
34.551235

>  <SMR_VSA4>
8.0864592

>  <SMR_VSA5>
229.05508

>  <SMR_VSA6>
52.237896

>  <SMR_VSA7>
0

>  <TPSA>
207.3

>  <VAdjEq>
0.32906306

>  <VAdjMa>
6.2094536

>  <VDistEq>
4.0056624

>  <VDistMa>
9.9453621

>  <vdw_area>
468.02039

>  <vdw_vol>
602.68701

>  <vsa_acc>
36.297226

>  <vsa_acid>
0

>  <vsa_base>
0

>  <vsa_don>
41.167557

>  <vsa_hyd>
218.70868

>  <vsa_other>
80.42923

>  <vsa_pol>
131.73247

>  <Weight>
477.48099

>  <weinerPath>
4344

>  <weinerPol>
54

>  <zagreb>
176

$$$$