O=C1NC(=O)NC(=O)C1(C(C)C)CC=C
  MOE2013           2D

 15 15  0  0  0  0  0  0  0  0999 V2000
    0.0000    0.0000    0.0000 O   0  0  0  0  0  0  0  0  0  0  0  0
   -1.2980    0.7520    0.0000 C   0  0  0  0  0  0  0  0  0  0  0  0
   -2.5980    0.0050    0.0000 N   0  0  0  0  0  0  0  0  0  0  0  0
   -3.8960    0.7570    0.0000 C   0  0  0  0  0  0  0  0  0  0  0  0
   -5.1960    0.0090    0.0000 O   0  0  0  0  0  0  0  0  0  0  0  0
   -3.8930    2.2570    0.0000 N   0  0  0  0  0  0  0  0  0  0  0  0
   -2.5930    3.0050    0.0000 C   0  0  0  0  0  0  0  0  0  0  0  0
   -2.5900    4.5050    0.0000 O   0  0  0  0  0  0  0  0  0  0  0  0
   -1.2950    2.2520    0.0000 C   0  0  0  0  0  0  0  0  0  0  0  0
   -0.5430    3.5500    0.0000 C   0  0  0  0  0  0  0  0  0  0  0  0
   -1.2900    4.8500    0.0000 C   0  0  0  0  0  0  0  0  0  0  0  0
    0.9570    3.5470    0.0000 C   0  0  0  0  0  0  0  0  0  0  0  0
    0.2050    2.2500    0.0000 C   0  0  0  0  0  0  0  0  0  0  0  0
    0.9530    0.9490    0.0000 C   0  0  0  0  0  0  0  0  0  0  0  0
    2.4530    0.9470    0.0000 C   0  0  0  0  0  0  0  0  0  0  0  0
  1  2  2  0  0  0  0
  2  3  1  0  0  0  0
  2  9  1  0  0  0  0
  3  4  1  0  0  0  0
  4  5  2  0  0  0  0
  4  6  1  0  0  0  0
  6  7  1  0  0  0  0
  7  8  2  0  0  0  0
  7  9  1  0  0  0  0
  9 10  1  0  0  0  0
  9 13  1  0  0  0  0
 10 11  1  0  0  0  0
 10 12  1  0  0  0  0
 13 14  1  0  0  0  0
 14 15  2  0  0  0  0
M  END
>  <Index>
86

>  <ID>
HT0175

>  <class>
0

>  <apol>
31.541101

>  <ast_fraglike>
1

>  <ast_fraglike_ext>
1

>  <ast_violation>
0

>  <ast_violation_ext>
0

>  <a_acc>
3

>  <a_acid>
0

>  <a_aro>
0

>  <a_base>
0

>  <a_count>
29

>  <a_don>
2

>  <a_donacc>
5

>  <a_heavy>
15

>  <a_hyd>
7

>  <a_IC>
47.604313

>  <a_ICM>
1.641528

>  <a_nB>
0

>  <a_nBr>
0

>  <a_nC>
10

>  <a_nCl>
0

>  <a_nF>
0

>  <a_nH>
14

>  <a_nI>
0

>  <a_nN>
2

>  <a_nO>
3

>  <a_nP>
0

>  <a_nS>
0

>  <balabanJ>
2.9407213

>  <BCUT_PEOE_0>
-2.6701124

>  <BCUT_PEOE_1>
-0.52228761

>  <BCUT_PEOE_2>
0.46421647

>  <BCUT_PEOE_3>
2.7390406

>  <BCUT_SLOGP_0>
-2.81072

>  <BCUT_SLOGP_1>
-0.46376416

>  <BCUT_SLOGP_2>
0.51968151

>  <BCUT_SLOGP_3>
2.7157114

>  <BCUT_SMR_0>
-2.4409559

>  <BCUT_SMR_1>
-0.31535229

>  <BCUT_SMR_2>
0.58410281

>  <BCUT_SMR_3>
2.9674051

>  <bpol>
19.498898

>  <b_1rotN>
3

>  <b_1rotR>
0.2

>  <b_ar>
0

>  <b_count>
29

>  <b_double>
4

>  <b_heavy>
15

>  <b_max1len>
6

>  <b_rotN>
3

>  <b_rotR>
0.2

>  <b_single>
25

>  <b_triple>
0

>  <chi0>
11.637828

>  <chi0v>
8.7936592

>  <chi0v_C>
6.5689139

>  <chi0_C>
7.2236147

>  <chi1>
6.9464302

>  <chi1v>
4.7257981

>  <chi1v_C>
3.1134257

>  <chi1_C>
3.5813861

>  <chiral>
0

>  <chiral_u>
0

>  <density>
0.76587397

>  <diameter>
7

>  <FCharge>
0

>  <GCUT_PEOE_0>
-0.77777302

>  <GCUT_PEOE_1>
-0.4441312

>  <GCUT_PEOE_2>
0.090944052

>  <GCUT_PEOE_3>
2.577132

>  <GCUT_SLOGP_0>
-1.1838999

>  <GCUT_SLOGP_1>
-0.34400052

>  <GCUT_SLOGP_2>
0.093779758

>  <GCUT_SLOGP_3>
2.5438342

>  <GCUT_SMR_0>
-0.52908552

>  <GCUT_SMR_1>
-0.21705456

>  <GCUT_SMR_2>
0.16098608

>  <GCUT_SMR_3>
2.8034165

>  <Kier1>
13.066667

>  <Kier2>
4.8884296

>  <Kier3>
2.24

>  <KierA1>
9.375

>  <KierA2>
3.4155476

>  <KierA3>
1.53125

>  <KierFlex>
2.1347172

>  <lip_acc>
5

>  <lip_don>
2

>  <lip_druglike>
1

>  <lip_violation>
0

>  <logP(o/w)>
1.038

>  <logS>
-2.5215299

>  <mr>
5.5024867

>  <mutagenic>
0

>  <nmol>
1

>  <opr_brigid>
7

>  <opr_leadlike>
1

>  <opr_nring>
1

>  <opr_nrot>
3

>  <opr_violation>
0

>  <PC+>
0

>  <PC->
0

>  <PEOE_PC+>
1.6954913

>  <PEOE_PC->
-1.6954913

>  <PEOE_RPC+>
0.19404739

>  <PEOE_RPC->
0.16380255

>  <PEOE_VSA+0>
38.388474

>  <PEOE_VSA+1>
12.796158

>  <PEOE_VSA+2>
0

>  <PEOE_VSA+3>
17.238026

>  <PEOE_VSA+4>
25.899061

>  <PEOE_VSA+5>
0

>  <PEOE_VSA+6>
17.440542

>  <PEOE_VSA-0>
8.701313

>  <PEOE_VSA-1>
49.750259

>  <PEOE_VSA-2>
22.301268

>  <PEOE_VSA-3>
0

>  <PEOE_VSA-4>
13.566921

>  <PEOE_VSA-5>
27.407623

>  <PEOE_VSA-6>
0

>  <PEOE_VSA_FHYD>
0.63889557

>  <PEOE_VSA_FNEG>
0.52133954

>  <PEOE_VSA_FPNEG>
0.17548762

>  <PEOE_VSA_FPOL>
0.36110443

>  <PEOE_VSA_FPOS>
0.47866046

>  <PEOE_VSA_FPPOS>
0.18561682

>  <PEOE_VSA_HYD>
149.17549

>  <PEOE_VSA_NEG>
121.72739

>  <PEOE_VSA_PNEG>
40.974545

>  <PEOE_VSA_POL>
84.314148

>  <PEOE_VSA_POS>
111.76226

>  <PEOE_VSA_PPOS>
43.339603

>  <petitjean>
0.42857143

>  <petitjeanSC>
0.75

>  <Q_PC+>
0

>  <Q_PC->
0

>  <Q_RPC+>
0

>  <Q_RPC->
0

>  <Q_VSA_FHYD>
1

>  <Q_VSA_FNEG>
0

>  <Q_VSA_FPNEG>
0

>  <Q_VSA_FPOL>
0

>  <Q_VSA_FPOS>
1

>  <Q_VSA_FPPOS>
0

>  <Q_VSA_HYD>
233.48965

>  <Q_VSA_NEG>
0

>  <Q_VSA_PNEG>
0

>  <Q_VSA_POL>
0

>  <Q_VSA_POS>
233.48965

>  <Q_VSA_PPOS>
0

>  <radius>
4

>  <reactive>
0

>  <rings>
1

>  <RPC+>
0

>  <RPC->
0

>  <rsynth>
1

>  <SlogP>
0.57090002

>  <SlogP_VSA0>
36.0215

>  <SlogP_VSA1>
15.347524

>  <SlogP_VSA2>
47.724434

>  <SlogP_VSA3>
0

>  <SlogP_VSA4>
4.4107962

>  <SlogP_VSA5>
0

>  <SlogP_VSA6>
0

>  <SlogP_VSA7>
17.643185

>  <SlogP_VSA8>
18.868406

>  <SlogP_VSA9>
122.61504

>  <SMR>
5.3766398

>  <SMR_VSA0>
71.586647

>  <SMR_VSA1>
0

>  <SMR_VSA2>
40.432297

>  <SMR_VSA3>
0

>  <SMR_VSA4>
0

>  <SMR_VSA5>
36.511589

>  <SMR_VSA6>
15.347524

>  <SMR_VSA7>
98.752823

>  <TPSA>
75.269997

>  <VAdjEq>
0.56650949

>  <VAdjMa>
4.9068904

>  <VDistEq>
2.4547887

>  <VDistMa>
7.5641313

>  <vdw_area>
233.48965

>  <vdw_vol>
274.50076

>  <vsa_acc>
40.700764

>  <vsa_acid>
0

>  <vsa_base>
0

>  <vsa_don>
11.365152

>  <vsa_hyd>
122.05088

>  <vsa_other>
43.339603

>  <vsa_pol>
52.065914

>  <Weight>
210.233

>  <weinerPath>
326

>  <weinerPol>
27

>  <zagreb>
74

$$$$