O=C(NC(=O)N)Cc1ccccc1
  MOE2013           2D

 13 13  0  0  0  0  0  0  0  0999 V2000
    0.0000    0.0000    0.0000 O   0  0  0  0  0  0  0  0  0  0  0  0
    0.0020    1.5000    0.0000 C   0  0  0  0  0  0  0  0  0  0  0  0
    1.3020    2.2480    0.0000 N   0  0  0  0  0  0  0  0  0  0  0  0
    2.6000    1.4960    0.0000 C   0  0  0  0  0  0  0  0  0  0  0  0
    3.9010    2.2440    0.0000 O   0  0  0  0  0  0  0  0  0  0  0  0
    2.5980   -0.0040    0.0000 N   0  0  0  0  0  0  0  0  0  0  0  0
   -1.2960    2.2520    0.0000 C   0  0  0  0  0  0  0  0  0  0  0  0
   -2.5960    1.5040    0.0000 C   0  0  0  0  0  0  0  0  0  0  0  0
   -2.5980    0.0040    0.0000 C   0  0  0  0  0  0  0  0  0  0  0  0
   -3.8980   -0.7440    0.0000 C   0  0  0  0  0  0  0  0  0  0  0  0
   -5.1960    0.0080    0.0000 C   0  0  0  0  0  0  0  0  0  0  0  0
   -5.1940    1.5080    0.0000 C   0  0  0  0  0  0  0  0  0  0  0  0
   -3.8940    2.2560    0.0000 C   0  0  0  0  0  0  0  0  0  0  0  0
  1  2  2  0  0  0  0
  2  3  1  0  0  0  0
  2  7  1  0  0  0  0
  3  4  1  0  0  0  0
  4  5  2  0  0  0  0
  4  6  1  0  0  0  0
  7  8  1  0  0  0  0
  8  9  1  0  0  0  0
  8 13  2  0  0  0  0
  9 10  2  0  0  0  0
 10 11  1  0  0  0  0
 11 12  2  0  0  0  0
 12 13  1  0  0  0  0
M  END
>  <Index>
844

>  <ID>
HT1640

>  <class>
0

>  <apol>
26.31193

>  <ast_fraglike>
1

>  <ast_fraglike_ext>
1

>  <ast_violation>
0

>  <ast_violation_ext>
0

>  <a_acc>
2

>  <a_acid>
0

>  <a_aro>
6

>  <a_base>
0

>  <a_count>
23

>  <a_don>
2

>  <a_donacc>
4

>  <a_heavy>
13

>  <a_hyd>
7

>  <a_IC>
38.29332

>  <a_ICM>
1.6649269

>  <a_nB>
0

>  <a_nBr>
0

>  <a_nC>
9

>  <a_nCl>
0

>  <a_nF>
0

>  <a_nH>
10

>  <a_nI>
0

>  <a_nN>
2

>  <a_nO>
2

>  <a_nP>
0

>  <a_nS>
0

>  <balabanJ>
2.1623528

>  <BCUT_PEOE_0>
-2.3346798

>  <BCUT_PEOE_1>
-0.6005528

>  <BCUT_PEOE_2>
0.59415334

>  <BCUT_PEOE_3>
2.3703175

>  <BCUT_SLOGP_0>
-2.6422532

>  <BCUT_SLOGP_1>
-0.49733296

>  <BCUT_SLOGP_2>
0.71378183

>  <BCUT_SLOGP_3>
2.359484

>  <BCUT_SMR_0>
-2.0546699

>  <BCUT_SMR_1>
-0.40269959

>  <BCUT_SMR_2>
0.76336378

>  <BCUT_SMR_3>
2.6441209

>  <bpol>
12.84807

>  <b_1rotN>
2

>  <b_1rotR>
0.15384616

>  <b_ar>
6

>  <b_count>
23

>  <b_double>
2

>  <b_heavy>
13

>  <b_max1len>
2

>  <b_rotN>
4

>  <b_rotR>
0.30769232

>  <b_single>
15

>  <b_triple>
0

>  <chi0>
9.681798

>  <chi0v>
6.9877048

>  <chi0v_C>
5.0938582

>  <chi0_C>
5.9746914

>  <chi1>
6.1815405

>  <chi1v>
3.8147137

>  <chi1v_C>
2.6177905

>  <chi1_C>
3.6329932

>  <chiral>
0

>  <chiral_u>
0

>  <density>
0.75673449

>  <diameter>
8

>  <FCharge>
0

>  <GCUT_PEOE_0>
-0.80087131

>  <GCUT_PEOE_1>
-0.44027722

>  <GCUT_PEOE_2>
0.075757675

>  <GCUT_PEOE_3>
2.1611569

>  <GCUT_SLOGP_0>
-1.3708994

>  <GCUT_SLOGP_1>
-0.35863394

>  <GCUT_SLOGP_2>
0.15579045

>  <GCUT_SLOGP_3>
2.2078793

>  <GCUT_SMR_0>
-0.45841756

>  <GCUT_SMR_1>
-0.21343967

>  <GCUT_SMR_2>
0.18128747

>  <GCUT_SMR_3>
2.4400606

>  <Kier1>
11.076923

>  <Kier2>
5.671875

>  <Kier3>
4.6875

>  <KierA1>
7.0535641

>  <KierA2>
3.4581921

>  <KierA3>
2.7530482

>  <KierFlex>
1.8763523

>  <lip_acc>
4

>  <lip_don>
3

>  <lip_druglike>
1

>  <lip_violation>
0

>  <logP(o/w)>
0.55800003

>  <logS>
-1.927

>  <mr>
4.9413371

>  <mutagenic>
0

>  <nmol>
1

>  <opr_brigid>
6

>  <opr_leadlike>
1

>  <opr_nring>
1

>  <opr_nrot>
2

>  <opr_violation>
0

>  <PC+>
0

>  <PC->
0

>  <PEOE_PC+>
1.4895756

>  <PEOE_PC->
-1.4895756

>  <PEOE_RPC+>
0.21483417

>  <PEOE_RPC->
0.23610397

>  <PEOE_VSA+0>
8.5307722

>  <PEOE_VSA+1>
30.028244

>  <PEOE_VSA+2>
0

>  <PEOE_VSA+3>
25.857038

>  <PEOE_VSA+4>
12.949531

>  <PEOE_VSA+5>
0

>  <PEOE_VSA+6>
17.440542

>  <PEOE_VSA-0>
2.2085397

>  <PEOE_VSA-1>
61.274521

>  <PEOE_VSA-2>
0

>  <PEOE_VSA-3>
0

>  <PEOE_VSA-4>
13.566921

>  <PEOE_VSA-5>
13.703812

>  <PEOE_VSA-6>
6.6511192

>  <PEOE_VSA_FHYD>
0.6654098

>  <PEOE_VSA_FNEG>
0.50676024

>  <PEOE_VSA_FPNEG>
0.17648233

>  <PEOE_VSA_FPOL>
0.33459017

>  <PEOE_VSA_FPOS>
0.49323976

>  <PEOE_VSA_FPPOS>
0.15810785

>  <PEOE_VSA_HYD>
127.89912

>  <PEOE_VSA_NEG>
97.404915

>  <PEOE_VSA_PNEG>
33.921852

>  <PEOE_VSA_POL>
64.311928

>  <PEOE_VSA_POS>
94.806129

>  <PEOE_VSA_PPOS>
30.390074

>  <petitjean>
0.5

>  <petitjeanSC>
1

>  <Q_PC+>
0

>  <Q_PC->
0

>  <Q_RPC+>
0

>  <Q_RPC->
0

>  <Q_VSA_FHYD>
1

>  <Q_VSA_FNEG>
0

>  <Q_VSA_FPNEG>
0

>  <Q_VSA_FPOL>
0

>  <Q_VSA_FPOS>
1

>  <Q_VSA_FPPOS>
0

>  <Q_VSA_HYD>
192.21104

>  <Q_VSA_NEG>
0

>  <Q_VSA_PNEG>
0

>  <Q_VSA_POL>
0

>  <Q_VSA_POS>
192.21104

>  <Q_VSA_PPOS>
0

>  <radius>
4

>  <reactive>
0

>  <rings>
1

>  <RPC+>
0

>  <RPC->
0

>  <rsynth>
1

>  <SlogP>
0.42397001

>  <SlogP_VSA0>
50.90794

>  <SlogP_VSA1>
10.088739

>  <SlogP_VSA2>
23.862217

>  <SlogP_VSA3>
0

>  <SlogP_VSA4>
3.185575

>  <SlogP_VSA5>
18.868406

>  <SlogP_VSA6>
0

>  <SlogP_VSA7>
88.215919

>  <SlogP_VSA8>
0

>  <SlogP_VSA9>
23.862217

>  <SMR>
4.78721

>  <SMR_VSA0>
47.724434

>  <SMR_VSA1>
0

>  <SMR_VSA2>
18.01075

>  <SMR_VSA3>
3.185575

>  <SMR_VSA4>
32.897186

>  <SMR_VSA5>
107.08433

>  <SMR_VSA6>
10.088739

>  <SMR_VSA7>
0

>  <TPSA>
72.190002

>  <VAdjEq>
0.6193822

>  <VAdjMa>
4.7004399

>  <VDistEq>
2.8319414

>  <VDistMa>
7.0627422

>  <vdw_area>
192.21104

>  <vdw_vol>
235.4736

>  <vsa_acc>
27.133842

>  <vsa_acid>
0

>  <vsa_base>
0

>  <vsa_don>
23.425066

>  <vsa_hyd>
97.059509

>  <vsa_other>
30.390074

>  <vsa_pol>
50.558907

>  <Weight>
178.19099

>  <weinerPath>
276

>  <weinerPol>
13

>  <zagreb>
58

$$$$