FC(F)(C(F)(F)C(F)(F)C(F)(F)F)C(F)(F)C(F)(F)F
  MOE2013           2D

 20 19  0  0  0  0  0  0  0  0999 V2000
    0.0000    0.0000    0.0000 F   0  0  0  0  0  0  0  0  0  0  0  0
    0.0000   -1.5000    0.0000 C   0  0  0  0  0  0  0  0  0  0  0  0
    0.0000   -3.0000    0.0000 F   0  0  0  0  0  0  0  0  0  0  0  0
    1.5000   -1.5000    0.0000 C   0  0  0  0  0  0  0  0  0  0  0  0
    1.5000    0.0000    0.0000 F   0  0  0  0  0  0  0  0  0  0  0  0
    1.5000   -3.0000    0.0000 F   0  0  0  0  0  0  0  0  0  0  0  0
    3.0000   -1.5000    0.0000 C   0  0  0  0  0  0  0  0  0  0  0  0
    3.0000   -3.0000    0.0000 F   0  0  0  0  0  0  0  0  0  0  0  0
    3.0000    0.0000    0.0000 F   0  0  0  0  0  0  0  0  0  0  0  0
    4.5000   -1.5000    0.0000 C   0  0  0  0  0  0  0  0  0  0  0  0
    4.5000   -3.0000    0.0000 F   0  0  0  0  0  0  0  0  0  0  0  0
    4.5000    0.0000    0.0000 F   0  0  0  0  0  0  0  0  0  0  0  0
    6.0000   -1.5000    0.0000 F   0  0  0  0  0  0  0  0  0  0  0  0
   -1.5000   -1.5000    0.0000 C   0  0  0  0  0  0  0  0  0  0  0  0
   -1.5000   -3.0000    0.0000 F   0  0  0  0  0  0  0  0  0  0  0  0
   -1.5000    0.0000    0.0000 F   0  0  0  0  0  0  0  0  0  0  0  0
   -3.0000   -1.5000    0.0000 C   0  0  0  0  0  0  0  0  0  0  0  0
   -4.5000   -1.5000    0.0000 F   0  0  0  0  0  0  0  0  0  0  0  0
   -3.0000   -3.0000    0.0000 F   0  0  0  0  0  0  0  0  0  0  0  0
   -3.0000    0.0000    0.0000 F   0  0  0  0  0  0  0  0  0  0  0  0
  1  2  1  0  0  0  0
  2  3  1  0  0  0  0
  2  4  1  0  0  0  0
  2 14  1  0  0  0  0
  4  5  1  0  0  0  0
  4  6  1  0  0  0  0
  4  7  1  0  0  0  0
  7  8  1  0  0  0  0
  7  9  1  0  0  0  0
  7 10  1  0  0  0  0
 10 11  1  0  0  0  0
 10 12  1  0  0  0  0
 10 13  1  0  0  0  0
 14 15  1  0  0  0  0
 14 16  1  0  0  0  0
 14 17  1  0  0  0  0
 17 18  1  0  0  0  0
 17 19  1  0  0  0  0
 17 20  1  0  0  0  0
M  END
>  <Index>
839

>  <ID>
HT1631

>  <class>
0

>  <apol>
18.358

>  <ast_fraglike>
0

>  <ast_fraglike_ext>
0

>  <ast_violation>
2

>  <ast_violation_ext>
2

>  <a_acc>
0

>  <a_acid>
0

>  <a_aro>
0

>  <a_base>
0

>  <a_count>
20

>  <a_don>
0

>  <a_donacc>
0

>  <a_heavy>
20

>  <a_hyd>
20

>  <a_IC>
17.625818

>  <a_ICM>
0.88129091

>  <a_nB>
0

>  <a_nBr>
0

>  <a_nC>
6

>  <a_nCl>
0

>  <a_nF>
14

>  <a_nH>
0

>  <a_nI>
0

>  <a_nN>
0

>  <a_nO>
0

>  <a_nP>
0

>  <a_nS>
0

>  <balabanJ>
6.0827532

>  <BCUT_PEOE_0>
-2.3726091

>  <BCUT_PEOE_1>
-0.19188426

>  <BCUT_PEOE_2>
-0.16480438

>  <BCUT_PEOE_3>
2.8985989

>  <BCUT_SLOGP_0>
-2.6910799

>  <BCUT_SLOGP_1>
0.42019999

>  <BCUT_SLOGP_2>
0.42019999

>  <BCUT_SLOGP_3>
2.5850739

>  <BCUT_SMR_0>
-2.3842721

>  <BCUT_SMR_1>
0.1108

>  <BCUT_SMR_2>
0.1108

>  <BCUT_SMR_3>
2.8524899

>  <bpol>
16.841999

>  <b_1rotN>
3

>  <b_1rotR>
0.15789473

>  <b_ar>
0

>  <b_count>
19

>  <b_double>
0

>  <b_heavy>
19

>  <b_max1len>
7

>  <b_rotN>
5

>  <b_rotR>
0.2631579

>  <b_single>
19

>  <b_triple>
0

>  <chi0>
17

>  <chi0v>
8.291503

>  <chi0v_C>
3

>  <chi0_C>
3

>  <chi1>
8.25

>  <chi1v>
3.8957512

>  <chi1v_C>
1.25

>  <chi1_C>
1.25

>  <chiral>
0

>  <chiral_u>
0

>  <density>
1.6533

>  <diameter>
7

>  <FCharge>
0

>  <GCUT_PEOE_0>
-0.53093594

>  <GCUT_PEOE_1>
-0.35188428

>  <GCUT_PEOE_2>
-0.3248044

>  <GCUT_PEOE_3>
2.3895047

>  <GCUT_SLOGP_0>
-0.90730137

>  <GCUT_SLOGP_1>
0.26019999

>  <GCUT_SLOGP_2>
0.26019999

>  <GCUT_SLOGP_3>
2.2895455

>  <GCUT_SMR_0>
-0.51265603

>  <GCUT_SMR_1>
-0.049199998

>  <GCUT_SMR_2>
-0.049199998

>  <GCUT_SMR_3>
2.4035254

>  <Kier1>
20

>  <Kier2>
4.75

>  <Kier3>
2.72

>  <KierA1>
17.550138

>  <KierA2>
4.1378274

>  <KierA3>
2.3568208

>  <KierFlex>
3.6309724

>  <lip_acc>
0

>  <lip_don>
0

>  <lip_druglike>
1

>  <lip_violation>
0

>  <logP(o/w)>
5.8871999

>  <logS>
-4.56988

>  <mr>
2.6928217

>  <mutagenic>
0

>  <nmol>
1

>  <opr_brigid>
0

>  <opr_leadlike>
1

>  <opr_nring>
0

>  <opr_nrot>
3

>  <opr_violation>
1

>  <PC+>
0

>  <PC->
0

>  <PEOE_PC+>
2.5119276

>  <PEOE_PC->
-2.5119276

>  <PEOE_RPC+>
0.18326032

>  <PEOE_RPC->
0.076389253

>  <PEOE_VSA+0>
0

>  <PEOE_VSA+1>
0

>  <PEOE_VSA+2>
0

>  <PEOE_VSA+3>
0

>  <PEOE_VSA+4>
0

>  <PEOE_VSA+5>
0

>  <PEOE_VSA+6>
27.023788

>  <PEOE_VSA-0>
0

>  <PEOE_VSA-1>
0

>  <PEOE_VSA-2>
0

>  <PEOE_VSA-3>
166.7209

>  <PEOE_VSA-4>
0

>  <PEOE_VSA-5>
0

>  <PEOE_VSA-6>
0

>  <PEOE_VSA_FHYD>
0.86051857

>  <PEOE_VSA_FNEG>
0.86051857

>  <PEOE_VSA_FPNEG>
0

>  <PEOE_VSA_FPOL>
0.13948144

>  <PEOE_VSA_FPOS>
0.13948144

>  <PEOE_VSA_FPPOS>
0.13948144

>  <PEOE_VSA_HYD>
166.7209

>  <PEOE_VSA_NEG>
166.7209

>  <PEOE_VSA_PNEG>
0

>  <PEOE_VSA_POL>
27.023788

>  <PEOE_VSA_POS>
27.023788

>  <PEOE_VSA_PPOS>
27.023788

>  <petitjean>
0.42857143

>  <petitjeanSC>
0.75

>  <Q_PC+>
0

>  <Q_PC->
0

>  <Q_RPC+>
0

>  <Q_RPC->
0

>  <Q_VSA_FHYD>
1

>  <Q_VSA_FNEG>
0

>  <Q_VSA_FPNEG>
0

>  <Q_VSA_FPOL>
0

>  <Q_VSA_FPOS>
1

>  <Q_VSA_FPPOS>
0

>  <Q_VSA_HYD>
193.74469

>  <Q_VSA_NEG>
0

>  <Q_VSA_PNEG>
0

>  <Q_VSA_POL>
0

>  <Q_VSA_POS>
193.74469

>  <Q_VSA_PPOS>
0

>  <radius>
4

>  <reactive>
0

>  <rings>
0

>  <RPC+>
0

>  <RPC->
0

>  <rsynth>
0.40000001

>  <SlogP>
4.6522002

>  <SlogP_VSA0>
0

>  <SlogP_VSA1>
22.815323

>  <SlogP_VSA2>
0

>  <SlogP_VSA3>
0

>  <SlogP_VSA4>
0

>  <SlogP_VSA5>
0

>  <SlogP_VSA6>
0

>  <SlogP_VSA7>
0

>  <SlogP_VSA8>
0

>  <SlogP_VSA9>
209.44159

>  <SMR>
3.1898

>  <SMR_VSA0>
0

>  <SMR_VSA1>
209.44159

>  <SMR_VSA2>
22.815323

>  <SMR_VSA3>
0

>  <SMR_VSA4>
0

>  <SMR_VSA5>
0

>  <SMR_VSA6>
0

>  <SMR_VSA7>
0

>  <TPSA>
0

>  <VAdjEq>
0.45294255

>  <VAdjMa>
5.2479277

>  <VDistEq>
2.6643369

>  <VDistMa>
8.4134989

>  <vdw_area>
193.74469

>  <vdw_vol>
204.46259

>  <vsa_acc>
0

>  <vsa_acid>
0

>  <vsa_base>
0

>  <vsa_don>
0

>  <vsa_hyd>
193.74469

>  <vsa_other>
0

>  <vsa_pol>
0

>  <Weight>
338.03799

>  <weinerPath>
676

>  <weinerPol>
45

>  <zagreb>
110

$$$$