S(O)(=O)(=O)c1ccccc1C=C
  MOE2013           2D

 12 12  0  0  0  0  0  0  0  0999 V2000
    0.0000    0.0000    0.0000 S   0  0  0  0  0  0  0  0  0  0  0  0
    1.5000   -0.0030    0.0000 O   0  0  0  0  0  0  0  0  0  0  0  0
   -0.0030   -1.5000    0.0000 O   0  0  0  0  0  0  0  0  0  0  0  0
    0.0030    1.5000    0.0000 O   0  0  0  0  0  0  0  0  0  0  0  0
   -1.5000    0.0030    0.0000 C   0  0  0  0  0  0  0  0  0  0  0  0
   -2.2520   -1.2950    0.0000 C   0  0  0  0  0  0  0  0  0  0  0  0
   -3.7520   -1.2920    0.0000 C   0  0  0  0  0  0  0  0  0  0  0  0
   -4.5000    0.0080    0.0000 C   0  0  0  0  0  0  0  0  0  0  0  0
   -3.7480    1.3060    0.0000 C   0  0  0  0  0  0  0  0  0  0  0  0
   -2.2480    1.3030    0.0000 C   0  0  0  0  0  0  0  0  0  0  0  0
   -1.4950    2.6010    0.0000 C   0  0  0  0  0  0  0  0  0  0  0  0
   -2.2430    3.9010    0.0000 C   0  0  0  0  0  0  0  0  0  0  0  0
  1  2  1  0  0  0  0
  1  3  2  0  0  0  0
  1  4  2  0  0  0  0
  1  5  1  0  0  0  0
  5  6  1  0  0  0  0
  5 10  2  0  0  0  0
  6  7  2  0  0  0  0
  7  8  1  0  0  0  0
  8  9  2  0  0  0  0
  9 10  1  0  0  0  0
 10 11  1  0  0  0  0
 11 12  2  0  0  0  0
M  END
>  <Index>
882

>  <ID>
HT1707

>  <class>
0

>  <apol>
24.720345

>  <ast_fraglike>
1

>  <ast_fraglike_ext>
1

>  <ast_violation>
0

>  <ast_violation_ext>
0

>  <a_acc>
3

>  <a_acid>
0

>  <a_aro>
6

>  <a_base>
0

>  <a_count>
20

>  <a_don>
3

>  <a_donacc>
6

>  <a_heavy>
12

>  <a_hyd>
8

>  <a_IC>
33.683674

>  <a_ICM>
1.6841837

>  <a_nB>
0

>  <a_nBr>
0

>  <a_nC>
8

>  <a_nCl>
0

>  <a_nF>
0

>  <a_nH>
8

>  <a_nI>
0

>  <a_nN>
0

>  <a_nO>
3

>  <a_nP>
0

>  <a_nS>
1

>  <balabanJ>
2.6220191

>  <BCUT_PEOE_0>
-2.2639072

>  <BCUT_PEOE_1>
-0.70953131

>  <BCUT_PEOE_2>
0.69194412

>  <BCUT_PEOE_3>
2.3533311

>  <BCUT_SLOGP_0>
-2.2866645

>  <BCUT_SLOGP_1>
-0.6058175

>  <BCUT_SLOGP_2>
0.78819418

>  <BCUT_SLOGP_3>
2.3865323

>  <BCUT_SMR_0>
-1.9421086

>  <BCUT_SMR_1>
-0.53189772

>  <BCUT_SMR_2>
0.87576371

>  <BCUT_SMR_3>
2.6829276

>  <bpol>
15.221656

>  <b_1rotN>
2

>  <b_1rotR>
0.16666667

>  <b_ar>
6

>  <b_count>
20

>  <b_double>
1

>  <b_heavy>
12

>  <b_max1len>
3

>  <b_rotN>
2

>  <b_rotR>
0.16666667

>  <b_single>
13

>  <b_triple>
0

>  <chi0>
9.1902342

>  <chi0v>
7.0823131

>  <chi0v_C>
4.5938582

>  <chi0_C>
5.6902347

>  <chi1>
5.5538602

>  <chi1v>
4.6843686

>  <chi1v_C>
2.5242736

>  <chi1_C>
3.7651849

>  <chiral>
0

>  <chiral_u>
0

>  <density>
0.8419925

>  <diameter>
5

>  <FCharge>
0

>  <GCUT_PEOE_0>
-0.75040573

>  <GCUT_PEOE_1>
-0.42006391

>  <GCUT_PEOE_2>
0.1018448

>  <GCUT_PEOE_3>
2.1716616

>  <GCUT_SLOGP_0>
-0.80387604

>  <GCUT_SLOGP_1>
-0.40351358

>  <GCUT_SLOGP_2>
0.18290471

>  <GCUT_SLOGP_3>
2.2534137

>  <GCUT_SMR_0>
-0.40345773

>  <GCUT_SMR_1>
-0.19585624

>  <GCUT_SMR_2>
0.25615534

>  <GCUT_SMR_3>
2.4557002

>  <Kier1>
10.083333

>  <Kier2>
3.8062284

>  <Kier3>
2.4930749

>  <KierA1>
8.7073393

>  <KierA2>
3.2390385

>  <KierA3>
2.0972269

>  <KierFlex>
2.3502841

>  <lip_acc>
3

>  <lip_don>
1

>  <lip_druglike>
1

>  <lip_violation>
0

>  <logP(o/w)>
1.635

>  <logS>
-2.21819

>  <mr>
4.6979866

>  <mutagenic>
0

>  <nmol>
1

>  <opr_brigid>
7

>  <opr_leadlike>
1

>  <opr_nring>
1

>  <opr_nrot>
2

>  <opr_violation>
0

>  <PC+>
0

>  <PC->
0

>  <PEOE_PC+>
1.0417629

>  <PEOE_PC->
-1.0417629

>  <PEOE_RPC+>
0.2920503

>  <PEOE_RPC->
0.28533104

>  <PEOE_VSA+0>
12.254904

>  <PEOE_VSA+1>
42.390415

>  <PEOE_VSA+2>
11.512783

>  <PEOE_VSA+3>
0

>  <PEOE_VSA+4>
0

>  <PEOE_VSA+5>
0

>  <PEOE_VSA+6>
4.1846013

>  <PEOE_VSA-0>
12.254904

>  <PEOE_VSA-1>
59.065979

>  <PEOE_VSA-2>
0

>  <PEOE_VSA-3>
0

>  <PEOE_VSA-4>
32.016521

>  <PEOE_VSA-5>
10.208881

>  <PEOE_VSA-6>
0

>  <PEOE_VSA_FHYD>
0.74761945

>  <PEOE_VSA_FNEG>
0.61747193

>  <PEOE_VSA_FPNEG>
0.22962442

>  <PEOE_VSA_FPOL>
0.25238055

>  <PEOE_VSA_FPOS>
0.38252807

>  <PEOE_VSA_FPPOS>
0.022756128

>  <PEOE_VSA_HYD>
137.47899

>  <PEOE_VSA_NEG>
113.54629

>  <PEOE_VSA_PNEG>
42.225403

>  <PEOE_VSA_POL>
46.410004

>  <PEOE_VSA_POS>
70.342705

>  <PEOE_VSA_PPOS>
4.1846013

>  <petitjean>
0.40000001

>  <petitjeanSC>
0.66666669

>  <Q_PC+>
0

>  <Q_PC->
0

>  <Q_RPC+>
0

>  <Q_RPC->
0

>  <Q_VSA_FHYD>
1

>  <Q_VSA_FNEG>
0

>  <Q_VSA_FPNEG>
0

>  <Q_VSA_FPOL>
0

>  <Q_VSA_FPOS>
1

>  <Q_VSA_FPPOS>
0

>  <Q_VSA_HYD>
183.88899

>  <Q_VSA_NEG>
0

>  <Q_VSA_PNEG>
0

>  <Q_VSA_POL>
0

>  <Q_VSA_POS>
183.88899

>  <Q_VSA_PPOS>
0

>  <radius>
3

>  <reactive>
0

>  <rings>
1

>  <RPC+>
0

>  <RPC->
0

>  <rsynth>
0

>  <SlogP>
1.0106

>  <SlogP_VSA0>
22.930752

>  <SlogP_VSA1>
48.171688

>  <SlogP_VSA2>
8.583149

>  <SlogP_VSA3>
0

>  <SlogP_VSA4>
3.185575

>  <SlogP_VSA5>
1.5507339

>  <SlogP_VSA6>
0

>  <SlogP_VSA7>
70.572739

>  <SlogP_VSA8>
17.643185

>  <SlogP_VSA9>
32.100792

>  <SMR>
4.59376

>  <SMR_VSA0>
48.171688

>  <SMR_VSA1>
22.930752

>  <SMR_VSA2>
1.5507339

>  <SMR_VSA3>
3.185575

>  <SMR_VSA4>
0

>  <SMR_VSA5>
70.572739

>  <SMR_VSA6>
17.643185

>  <SMR_VSA7>
40.683941

>  <TPSA>
54.369999

>  <VAdjEq>
0.65002245

>  <VAdjMa>
4.5849624

>  <VDistEq>
2.264684

>  <VDistMa>
6.891675

>  <vdw_area>
183.88899

>  <vdw_vol>
218.78461

>  <vsa_acc>
0

>  <vsa_acid>
0

>  <vsa_base>
0

>  <vsa_don>
0

>  <vsa_hyd>
114.84406

>  <vsa_other>
11.512783

>  <vsa_pol>
48.024784

>  <Weight>
184.215

>  <weinerPath>
185

>  <weinerPol>
16

>  <zagreb>
58

$$$$