O(C)c1cc(O)c(cc1)C(=O)c1ccccc1
  MOE2013           2D

 17 18  0  0  0  0  0  0  0  0999 V2000
    0.0000    0.0000    0.0000 O   0  0  0  0  0  0  0  0  0  0  0  0
    1.2950   -0.7560    0.0000 C   0  0  0  0  0  0  0  0  0  0  0  0
   -1.3030   -0.7440    0.0000 C   0  0  0  0  0  0  0  0  0  0  0  0
   -1.3100   -2.2440    0.0000 C   0  0  0  0  0  0  0  0  0  0  0  0
   -2.6120   -2.9870    0.0000 C   0  0  0  0  0  0  0  0  0  0  0  0
   -2.6200   -4.4870    0.0000 O   0  0  0  0  0  0  0  0  0  0  0  0
   -3.9080   -2.2310    0.0000 C   0  0  0  0  0  0  0  0  0  0  0  0
   -3.9010   -0.7310    0.0000 C   0  0  0  0  0  0  0  0  0  0  0  0
   -2.5980    0.0130    0.0000 C   0  0  0  0  0  0  0  0  0  0  0  0
   -5.2110   -2.9750    0.0000 C   0  0  0  0  0  0  0  0  0  0  0  0
   -5.2180   -4.4750    0.0000 O   0  0  0  0  0  0  0  0  0  0  0  0
   -6.5060   -2.2190    0.0000 C   0  0  0  0  0  0  0  0  0  0  0  0
   -7.8090   -2.9620    0.0000 C   0  0  0  0  0  0  0  0  0  0  0  0
   -9.1040   -2.2060    0.0000 C   0  0  0  0  0  0  0  0  0  0  0  0
   -9.0970   -0.7060    0.0000 C   0  0  0  0  0  0  0  0  0  0  0  0
   -7.7940    0.0380    0.0000 C   0  0  0  0  0  0  0  0  0  0  0  0
   -6.4990   -0.7190    0.0000 C   0  0  0  0  0  0  0  0  0  0  0  0
  1  2  1  0  0  0  0
  1  3  1  0  0  0  0
  3  4  1  0  0  0  0
  3  9  2  0  0  0  0
  4  5  2  0  0  0  0
  5  6  1  0  0  0  0
  5  7  1  0  0  0  0
  7  8  2  0  0  0  0
  7 10  1  0  0  0  0
  8  9  1  0  0  0  0
 10 11  2  0  0  0  0
 10 12  1  0  0  0  0
 12 13  1  0  0  0  0
 12 17  2  0  0  0  0
 13 14  2  0  0  0  0
 14 15  1  0  0  0  0
 15 16  2  0  0  0  0
 16 17  1  0  0  0  0
M  END
>  <Index>
801

>  <ID>
HT1563

>  <class>
0

>  <apol>
35.047516

>  <ast_fraglike>
1

>  <ast_fraglike_ext>
1

>  <ast_violation>
0

>  <ast_violation_ext>
0

>  <a_acc>
3

>  <a_acid>
0

>  <a_aro>
12

>  <a_base>
0

>  <a_count>
29

>  <a_don>
1

>  <a_donacc>
4

>  <a_heavy>
17

>  <a_hyd>
13

>  <a_IC>
39.804043

>  <a_ICM>
1.3725532

>  <a_nB>
0

>  <a_nBr>
0

>  <a_nC>
14

>  <a_nCl>
0

>  <a_nF>
0

>  <a_nH>
12

>  <a_nI>
0

>  <a_nN>
0

>  <a_nO>
3

>  <a_nP>
0

>  <a_nS>
0

>  <balabanJ>
1.8932889

>  <BCUT_PEOE_0>
-2.2638032

>  <BCUT_PEOE_1>
-0.61932653

>  <BCUT_PEOE_2>
0.6580013

>  <BCUT_PEOE_3>
2.2639043

>  <BCUT_SLOGP_0>
-2.2479498

>  <BCUT_SLOGP_1>
-0.52747148

>  <BCUT_SLOGP_2>
0.76051962

>  <BCUT_SLOGP_3>
2.4088213

>  <BCUT_SMR_0>
-1.9735467

>  <BCUT_SMR_1>
-0.46169424

>  <BCUT_SMR_2>
0.80675071

>  <BCUT_SMR_3>
2.5757792

>  <bpol>
15.992484

>  <b_1rotN>
3

>  <b_1rotR>
0.16666667

>  <b_ar>
12

>  <b_count>
30

>  <b_double>
1

>  <b_heavy>
18

>  <b_max1len>
2

>  <b_rotN>
3

>  <b_rotR>
0.16666667

>  <b_single>
17

>  <b_triple>
0

>  <chi0>
12.250712

>  <chi0v>
9.3825121

>  <chi0v_C>
8.1188021

>  <chi0_C>
9.5436058

>  <chi1>
8.2195454

>  <chi1v>
5.1888208

>  <chi1v_C>
4.1487174

>  <chi1_C>
5.9494896

>  <chiral>
0

>  <chiral_u>
0

>  <density>
0.72907311

>  <diameter>
10

>  <FCharge>
0

>  <GCUT_PEOE_0>
-0.78863865

>  <GCUT_PEOE_1>
-0.42861763

>  <GCUT_PEOE_2>
0.072802223

>  <GCUT_PEOE_3>
2.2938678

>  <GCUT_SLOGP_0>
-0.88679945

>  <GCUT_SLOGP_1>
-0.31252867

>  <GCUT_SLOGP_2>
0.15553541

>  <GCUT_SLOGP_3>
2.4313865

>  <GCUT_SMR_0>
-0.4834843

>  <GCUT_SMR_1>
-0.20965302

>  <GCUT_SMR_2>
0.18103275

>  <GCUT_SMR_3>
2.5904961

>  <Kier1>
13.432098

>  <Kier2>
6.25

>  <Kier3>
3.2632675

>  <KierA1>
9.3428564

>  <KierA2>
4.2385535

>  <KierA3>
2.1685197

>  <KierFlex>
2.3294234

>  <lip_acc>
3

>  <lip_don>
1

>  <lip_druglike>
1

>  <lip_violation>
0

>  <logP(o/w)>
3.1040001

>  <logS>
-3.1461201

>  <mr>
6.5778985

>  <mutagenic>
0

>  <nmol>
1

>  <opr_brigid>
12

>  <opr_leadlike>
1

>  <opr_nring>
2

>  <opr_nrot>
3

>  <opr_violation>
0

>  <PC+>
0

>  <PC->
0

>  <PEOE_PC+>
1.357241

>  <PEOE_PC->
-1.357241

>  <PEOE_RPC+>
0.16013435

>  <PEOE_RPC->
0.26453674

>  <PEOE_VSA+0>
27.206198

>  <PEOE_VSA+1>
66.044823

>  <PEOE_VSA+2>
0

>  <PEOE_VSA+3>
8.458519

>  <PEOE_VSA+4>
10.324173

>  <PEOE_VSA+5>
0

>  <PEOE_VSA+6>
0

>  <PEOE_VSA-0>
36.764713

>  <PEOE_VSA-1>
61.274521

>  <PEOE_VSA-2>
0

>  <PEOE_VSA-3>
0

>  <PEOE_VSA-4>
0

>  <PEOE_VSA-5>
13.566921

>  <PEOE_VSA-6>
10.271297

>  <PEOE_VSA_FHYD>
0.85395145

>  <PEOE_VSA_FNEG>
0.52104163

>  <PEOE_VSA_FPNEG>
0.10191141

>  <PEOE_VSA_FPOL>
0.14604856

>  <PEOE_VSA_FPOS>
0.4789584

>  <PEOE_VSA_FPPOS>
0.044137154

>  <PEOE_VSA_HYD>
199.74878

>  <PEOE_VSA_NEG>
121.87745

>  <PEOE_VSA_PNEG>
23.838217

>  <PEOE_VSA_POL>
34.162392

>  <PEOE_VSA_POS>
112.03371

>  <PEOE_VSA_PPOS>
10.324173

>  <petitjean>
0.5

>  <petitjeanSC>
1

>  <Q_PC+>
0

>  <Q_PC->
0

>  <Q_RPC+>
0

>  <Q_RPC->
0

>  <Q_VSA_FHYD>
1

>  <Q_VSA_FNEG>
0

>  <Q_VSA_FPNEG>
0

>  <Q_VSA_FPOL>
0

>  <Q_VSA_FPOS>
1

>  <Q_VSA_FPPOS>
0

>  <Q_VSA_HYD>
233.91116

>  <Q_VSA_NEG>
0

>  <Q_VSA_PNEG>
0

>  <Q_VSA_POL>
0

>  <Q_VSA_POS>
233.91116

>  <Q_VSA_PPOS>
0

>  <radius>
5

>  <reactive>
1

>  <rings>
2

>  <RPC+>
0

>  <RPC->
0

>  <rsynth>
1

>  <SlogP>
2.6317999

>  <SlogP_VSA0>
36.385113

>  <SlogP_VSA1>
5.6876111

>  <SlogP_VSA2>
0

>  <SlogP_VSA3>
0

>  <SlogP_VSA4>
30.233366

>  <SlogP_VSA5>
35.383869

>  <SlogP_VSA6>
0

>  <SlogP_VSA7>
141.14548

>  <SlogP_VSA8>
0

>  <SlogP_VSA9>
10.486856

>  <SMR>
6.45333

>  <SMR_VSA0>
23.862217

>  <SMR_VSA1>
36.385113

>  <SMR_VSA2>
0

>  <SMR_VSA3>
16.858006

>  <SMR_VSA4>
0

>  <SMR_VSA5>
141.14548

>  <SMR_VSA6>
5.6876111

>  <SMR_VSA7>
35.383869

>  <TPSA>
46.529999

>  <VAdjEq>
0.54234898

>  <VAdjMa>
5.1699252

>  <VDistEq>
2.9998212

>  <VDistMa>
7.8672466

>  <vdw_area>
233.91116

>  <vdw_vol>
313.06461

>  <vsa_acc>
16.070677

>  <vsa_acid>
0

>  <vsa_base>
0

>  <vsa_don>
0

>  <vsa_hyd>
183.46051

>  <vsa_other>
8.458519

>  <vsa_pol>
29.637598

>  <Weight>
228.24699

>  <weinerPath>
528

>  <weinerPol>
25

>  <zagreb>
84

$$$$