BrC(F)(F)C(F)(F)C(F)(F)C(F)(F)C(F)(F)C(F)(F)C(F)(F)C(F)(F)F
  MOE2013           2D

 26 25  0  0  0  0  0  0  0  0999 V2000
    0.0000    0.0000    0.0000 Br  0  0  0  0  0  0  0  0  0  0  0  0
    1.5000    0.0000    0.0000 C   0  0  0  0  0  0  0  0  0  0  0  0
    1.5000    1.5000    0.0000 F   0  0  0  0  0  0  0  0  0  0  0  0
    1.5000   -1.5000    0.0000 F   0  0  0  0  0  0  0  0  0  0  0  0
    3.0000    0.0000    0.0000 C   0  0  0  0  0  0  0  0  0  0  0  0
    3.0000   -1.5000    0.0000 F   0  0  0  0  0  0  0  0  0  0  0  0
    3.0000    1.5000    0.0000 F   0  0  0  0  0  0  0  0  0  0  0  0
    4.5000    0.0000    0.0000 C   0  0  0  0  0  0  0  0  0  0  0  0
    4.5000   -1.5000    0.0000 F   0  0  0  0  0  0  0  0  0  0  0  0
    4.5000    1.5000    0.0000 F   0  0  0  0  0  0  0  0  0  0  0  0
    6.0000    0.0000    0.0000 C   0  0  0  0  0  0  0  0  0  0  0  0
    6.0000   -1.5000    0.0000 F   0  0  0  0  0  0  0  0  0  0  0  0
    6.0000    1.5000    0.0000 F   0  0  0  0  0  0  0  0  0  0  0  0
    7.5000    0.0000    0.0000 C   0  0  0  0  0  0  0  0  0  0  0  0
    7.5000    1.5000    0.0000 F   0  0  0  0  0  0  0  0  0  0  0  0
    7.5000   -1.5000    0.0000 F   0  0  0  0  0  0  0  0  0  0  0  0
    9.0000    0.0000    0.0000 C   0  0  0  0  0  0  0  0  0  0  0  0
    9.0000   -1.5000    0.0000 F   0  0  0  0  0  0  0  0  0  0  0  0
    9.0000    1.5000    0.0000 F   0  0  0  0  0  0  0  0  0  0  0  0
   10.5000    0.0000    0.0000 C   0  0  0  0  0  0  0  0  0  0  0  0
   10.5000   -1.5000    0.0000 F   0  0  0  0  0  0  0  0  0  0  0  0
   10.5000    1.5000    0.0000 F   0  0  0  0  0  0  0  0  0  0  0  0
   12.0000    0.0000    0.0000 C   0  0  0  0  0  0  0  0  0  0  0  0
   12.0000    1.5000    0.0000 F   0  0  0  0  0  0  0  0  0  0  0  0
   12.0000   -1.5000    0.0000 F   0  0  0  0  0  0  0  0  0  0  0  0
   13.5000    0.0000    0.0000 F   0  0  0  0  0  0  0  0  0  0  0  0
  1  2  1  0  0  0  0
  2  3  1  0  0  0  0
  2  4  1  0  0  0  0
  2  5  1  0  0  0  0
  5  6  1  0  0  0  0
  5  7  1  0  0  0  0
  5  8  1  0  0  0  0
  8  9  1  0  0  0  0
  8 10  1  0  0  0  0
  8 11  1  0  0  0  0
 11 12  1  0  0  0  0
 11 13  1  0  0  0  0
 11 14  1  0  0  0  0
 14 15  1  0  0  0  0
 14 16  1  0  0  0  0
 14 17  1  0  0  0  0
 17 18  1  0  0  0  0
 17 19  1  0  0  0  0
 17 20  1  0  0  0  0
 20 21  1  0  0  0  0
 20 22  1  0  0  0  0
 20 23  1  0  0  0  0
 23 24  1  0  0  0  0
 23 25  1  0  0  0  0
 23 26  1  0  0  0  0
M  END
>  <Index>
840

>  <ID>
HT1632

>  <class>
0

>  <apol>
26.599001

>  <ast_fraglike>
0

>  <ast_fraglike_ext>
0

>  <ast_violation>
2

>  <ast_violation_ext>
3

>  <a_acc>
0

>  <a_acid>
0

>  <a_aro>
0

>  <a_base>
0

>  <a_count>
26

>  <a_don>
0

>  <a_donacc>
0

>  <a_heavy>
26

>  <a_hyd>
26

>  <a_IC>
28.724564

>  <a_ICM>
1.1047909

>  <a_nB>
0

>  <a_nBr>
1

>  <a_nC>
8

>  <a_nCl>
0

>  <a_nF>
17

>  <a_nH>
0

>  <a_nI>
0

>  <a_nN>
0

>  <a_nO>
0

>  <a_nP>
0

>  <a_nS>
0

>  <balabanJ>
6.6129141

>  <BCUT_PEOE_0>
-2.417475

>  <BCUT_PEOE_1>
-0.19200809

>  <BCUT_PEOE_2>
-0.097437978

>  <BCUT_PEOE_3>
2.9320924

>  <BCUT_SLOGP_0>
-2.7369726

>  <BCUT_SLOGP_1>
0.42019999

>  <BCUT_SLOGP_2>
0.59943974

>  <BCUT_SLOGP_3>
2.6215692

>  <BCUT_SMR_0>
-2.4198823

>  <BCUT_SMR_1>
0.1108

>  <BCUT_SMR_2>
0.43866688

>  <BCUT_SMR_3>
2.9002862

>  <bpol>
21.740999

>  <b_1rotN>
6

>  <b_1rotR>
0.23999999

>  <b_ar>
0

>  <b_count>
25

>  <b_double>
0

>  <b_heavy>
25

>  <b_max1len>
9

>  <b_rotN>
7

>  <b_rotR>
0.28

>  <b_single>
25

>  <b_triple>
0

>  <chi0>
22

>  <chi0v>
12.389357

>  <chi0v_C>
4

>  <chi0_C>
4

>  <chi1>
10.75

>  <chi1v>
5.9446783

>  <chi1v_C>
1.75

>  <chi1_C>
1.75

>  <chiral>
0

>  <chiral_u>
0

>  <density>
1.7103111

>  <diameter>
9

>  <FCharge>
0

>  <GCUT_PEOE_0>
-0.54191792

>  <GCUT_PEOE_1>
-0.3520081

>  <GCUT_PEOE_2>
-0.25145364

>  <GCUT_PEOE_3>
2.5412238

>  <GCUT_SLOGP_0>
-0.91198671

>  <GCUT_SLOGP_1>
0.26019999

>  <GCUT_SLOGP_2>
0.39943144

>  <GCUT_SLOGP_3>
2.4522471

>  <GCUT_SMR_0>
-0.51234889

>  <GCUT_SMR_1>
-0.049199998

>  <GCUT_SMR_2>
0.15417472

>  <GCUT_SMR_3>
2.5802457

>  <Kier1>
26

>  <Kier2>
6.25

>  <Kier3>
3.3378685

>  <KierA1>
25.326487

>  <KierA2>
6.0815001

>  <KierA3>
3.2453654

>  <KierFlex>
5.9239626

>  <lip_acc>
0

>  <lip_don>
0

>  <lip_druglike>
1

>  <lip_violation>
1

>  <logP(o/w)>
8.5680399

>  <logS>
-6.7463999

>  <mr>
4.2842641

>  <mutagenic>
1

>  <nmol>
1

>  <opr_brigid>
0

>  <opr_leadlike>
0

>  <opr_nring>
0

>  <opr_nrot>
6

>  <opr_violation>
2

>  <PC+>
0

>  <PC->
0

>  <PEOE_PC+>
3.1663473

>  <PEOE_PC->
-3.1663473

>  <PEOE_RPC+>
0.14538412

>  <PEOE_RPC->
0.060640391

>  <PEOE_VSA+0>
0

>  <PEOE_VSA+1>
0

>  <PEOE_VSA+2>
0

>  <PEOE_VSA+3>
0

>  <PEOE_VSA+4>
0

>  <PEOE_VSA+5>
0

>  <PEOE_VSA+6>
24.721544

>  <PEOE_VSA-0>
43.624847

>  <PEOE_VSA-1>
0

>  <PEOE_VSA-2>
0

>  <PEOE_VSA-3>
202.44681

>  <PEOE_VSA-4>
0

>  <PEOE_VSA-5>
0

>  <PEOE_VSA-6>
0

>  <PEOE_VSA_FHYD>
0.9087069

>  <PEOE_VSA_FNEG>
0.9087069

>  <PEOE_VSA_FPNEG>
0

>  <PEOE_VSA_FPOL>
0.091293074

>  <PEOE_VSA_FPOS>
0.091293074

>  <PEOE_VSA_FPPOS>
0.091293074

>  <PEOE_VSA_HYD>
246.07166

>  <PEOE_VSA_NEG>
246.07166

>  <PEOE_VSA_PNEG>
0

>  <PEOE_VSA_POL>
24.721544

>  <PEOE_VSA_POS>
24.721544

>  <PEOE_VSA_PPOS>
24.721544

>  <petitjean>
0.44444445

>  <petitjeanSC>
0.80000001

>  <Q_PC+>
0

>  <Q_PC->
0

>  <Q_RPC+>
0

>  <Q_RPC->
0

>  <Q_VSA_FHYD>
1

>  <Q_VSA_FNEG>
0

>  <Q_VSA_FPNEG>
0

>  <Q_VSA_FPOL>
0

>  <Q_VSA_FPOS>
1

>  <Q_VSA_FPPOS>
0

>  <Q_VSA_HYD>
270.79321

>  <Q_VSA_NEG>
0

>  <Q_VSA_PNEG>
0

>  <Q_VSA_POL>
0

>  <Q_VSA_POS>
270.79321

>  <Q_VSA_PPOS>
0

>  <radius>
5

>  <reactive>
1

>  <rings>
0

>  <RPC+>
0

>  <RPC->
0

>  <rsynth>
0.46153846

>  <SlogP>
6.3481998

>  <SlogP_VSA0>
0

>  <SlogP_VSA1>
20.397556

>  <SlogP_VSA2>
0

>  <SlogP_VSA3>
0

>  <SlogP_VSA4>
0

>  <SlogP_VSA5>
0

>  <SlogP_VSA6>
0

>  <SlogP_VSA7>
0

>  <SlogP_VSA8>
0

>  <SlogP_VSA9>
300.27603

>  <SMR>
4.9611001

>  <SMR_VSA0>
0

>  <SMR_VSA1>
254.32193

>  <SMR_VSA2>
20.397556

>  <SMR_VSA3>
0

>  <SMR_VSA4>
0

>  <SMR_VSA5>
0

>  <SMR_VSA6>
0

>  <SMR_VSA7>
45.954094

>  <TPSA>
0

>  <VAdjEq>
0.38054717

>  <VAdjMa>
5.643856

>  <VDistEq>
3.0005181

>  <VDistMa>
9.1666908

>  <vdw_area>
270.79321

>  <vdw_vol>
291.73523

>  <vsa_acc>
0

>  <vsa_acid>
0

>  <vsa_base>
0

>  <vsa_don>
0

>  <vsa_hyd>
270.79321

>  <vsa_other>
0

>  <vsa_pol>
0

>  <Weight>
498.95798

>  <weinerPath>
1381

>  <weinerPol>
63

>  <zagreb>
146

$$$$