O(CC(O)CNC(C)C)c1c2c([nH]cc2)ccc1
  MOE2013           2D

 18 19  0  0  1  0  0  0  0  0999 V2000
    0.0000    0.0000    0.0000 O   0  0  0  0  0  0  0  0  0  0  0  0
    1.2990    0.7500    0.0000 C   0  0  0  0  0  0  0  0  0  0  0  0
    2.5980    0.0000    0.0000 C   0  0  3  0  0  0  0  0  0  0  0  0
    2.5980   -1.5000    0.0000 O   0  0  0  0  0  0  0  0  0  0  0  0
    3.8970    0.7500    0.0000 C   0  0  0  0  0  0  0  0  0  0  0  0
    5.1960   -0.0010    0.0000 N   0  0  0  0  0  0  0  0  0  0  0  0
    6.4950    0.7490    0.0000 C   0  0  0  0  0  0  0  0  0  0  0  0
    7.7940   -0.0010    0.0000 C   0  0  0  0  0  0  0  0  0  0  0  0
    6.4950    2.2490    0.0000 C   0  0  0  0  0  0  0  0  0  0  0  0
   -1.2990    0.7500    0.0000 C   0  0  0  0  0  0  0  0  0  0  0  0
   -2.5980    0.0000    0.0000 C   0  0  0  0  0  0  0  0  0  0  0  0
   -3.8970    0.7500    0.0000 C   0  0  0  0  0  0  0  0  0  0  0  0
   -5.0120   -0.2530    0.0000 N   0  0  0  0  0  0  0  0  0  0  0  0
   -4.4020   -1.6240    0.0000 C   0  0  0  0  0  0  0  0  0  0  0  0
   -2.9100   -1.4670    0.0000 C   0  0  0  0  0  0  0  0  0  0  0  0
   -3.8970    2.2500    0.0000 C   0  0  0  0  0  0  0  0  0  0  0  0
   -2.5980    3.0000    0.0000 C   0  0  0  0  0  0  0  0  0  0  0  0
   -1.2990    2.2500    0.0000 C   0  0  0  0  0  0  0  0  0  0  0  0
  1  2  1  0  0  0  0
  1 10  1  0  0  0  0
  2  3  1  0  0  0  0
  3  4  1  0  0  0  0
  3  5  1  0  0  0  0
  5  6  1  0  0  0  0
  6  7  1  0  0  0  0
  7  8  1  0  0  0  0
  7  9  1  0  0  0  0
 10 11  1  0  0  0  0
 10 18  2  0  0  0  0
 11 12  2  0  0  0  0
 11 15  1  0  0  0  0
 12 13  1  0  0  0  0
 12 16  1  0  0  0  0
 13 14  1  0  0  0  0
 14 15  2  0  0  0  0
 16 17  2  0  0  0  0
 17 18  1  0  0  0  0
M  END
>  <Index>
865

>  <ID>
HT1676

>  <class>
0

>  <apol>
41.779861

>  <ast_fraglike>
1

>  <ast_fraglike_ext>
0

>  <ast_violation>
0

>  <ast_violation_ext>
1

>  <a_acc>
3

>  <a_acid>
0

>  <a_aro>
9

>  <a_base>
0

>  <a_count>
38

>  <a_don>
3

>  <a_donacc>
6

>  <a_heavy>
18

>  <a_hyd>
14

>  <a_IC>
55.679714

>  <a_ICM>
1.4652556

>  <a_nB>
0

>  <a_nBr>
0

>  <a_nC>
14

>  <a_nCl>
0

>  <a_nF>
0

>  <a_nH>
20

>  <a_nI>
0

>  <a_nN>
2

>  <a_nO>
2

>  <a_nP>
0

>  <a_nS>
0

>  <balabanJ>
1.6920015

>  <BCUT_PEOE_0>
-2.6555574

>  <BCUT_PEOE_1>
-0.53510761

>  <BCUT_PEOE_2>
0.60728562

>  <BCUT_PEOE_3>
2.5983658

>  <BCUT_SLOGP_0>
-2.8162689

>  <BCUT_SLOGP_1>
-0.50428295

>  <BCUT_SLOGP_2>
0.6401751

>  <BCUT_SLOGP_3>
2.5240669

>  <BCUT_SMR_0>
-2.3942378

>  <BCUT_SMR_1>
-0.41964453

>  <BCUT_SMR_2>
0.71392292

>  <BCUT_SMR_3>
2.8450823

>  <bpol>
25.10014

>  <b_1rotN>
6

>  <b_1rotR>
0.31578946

>  <b_ar>
10

>  <b_count>
39

>  <b_double>
0

>  <b_heavy>
19

>  <b_max1len>
7

>  <b_rotN>
6

>  <b_rotR>
0.31578946

>  <b_single>
29

>  <b_triple>
0

>  <chi0>
12.957819

>  <chi0v>
10.811128

>  <chi0v_C>
8.9556656

>  <chi0_C>
9.8364992

>  <chi1>
8.6647034

>  <chi1v>
6.2691245

>  <chi1v_C>
4.3372226

>  <chi1_C>
5.3626084

>  <chiral>
1

>  <chiral_u>
1

>  <density>
0.69702917

>  <diameter>
10

>  <FCharge>
0

>  <GCUT_PEOE_0>
-0.86311293

>  <GCUT_PEOE_1>
-0.36543348

>  <GCUT_PEOE_2>
0.085167795

>  <GCUT_PEOE_3>
2.4815667

>  <GCUT_SLOGP_0>
-1.1534545

>  <GCUT_SLOGP_1>
-0.32841846

>  <GCUT_SLOGP_2>
0.13754538

>  <GCUT_SLOGP_3>
2.5397334

>  <GCUT_SMR_0>
-0.5215894

>  <GCUT_SMR_1>
-0.20298532

>  <GCUT_SMR_2>
0.1603924

>  <GCUT_SMR_3>
2.7428613

>  <Kier1>
14.409972

>  <Kier2>
6.9632001

>  <Kier3>
4.2666669

>  <KierA1>
11.595988

>  <KierA2>
5.526351

>  <KierA3>
3.3516457

>  <KierFlex>
3.5601945

>  <lip_acc>
4

>  <lip_don>
3

>  <lip_druglike>
1

>  <lip_violation>
0

>  <logP(o/w)>
2.0680001

>  <logS>
-1.94398

>  <mr>
7.2254133

>  <mutagenic>
0

>  <nmol>
1

>  <opr_brigid>
10

>  <opr_leadlike>
1

>  <opr_nring>
2

>  <opr_nrot>
6

>  <opr_violation>
0

>  <PC+>
0

>  <PC->
0

>  <PEOE_PC+>
1.6615289

>  <PEOE_PC->
-1.6615289

>  <PEOE_RPC+>
0.12634841

>  <PEOE_RPC->
0.23366286

>  <PEOE_VSA+0>
80.380768

>  <PEOE_VSA+1>
62.437828

>  <PEOE_VSA+2>
8.6190128

>  <PEOE_VSA+3>
8.6190128

>  <PEOE_VSA+4>
10.324173

>  <PEOE_VSA+5>
0

>  <PEOE_VSA+6>
0

>  <PEOE_VSA-0>
74.260063

>  <PEOE_VSA-1>
12.254904

>  <PEOE_VSA-2>
0

>  <PEOE_VSA-3>
0

>  <PEOE_VSA-4>
0

>  <PEOE_VSA-5>
0

>  <PEOE_VSA-6>
10.545078

>  <PEOE_VSA_FHYD>
0.92196685

>  <PEOE_VSA_FNEG>
0.36292157

>  <PEOE_VSA_FPNEG>
0.039429575

>  <PEOE_VSA_FPOL>
0.078033149

>  <PEOE_VSA_FPOS>
0.63707846

>  <PEOE_VSA_FPPOS>
0.038603574

>  <PEOE_VSA_HYD>
246.57159

>  <PEOE_VSA_NEG>
97.060051

>  <PEOE_VSA_PNEG>
10.545078

>  <PEOE_VSA_POL>
20.869251

>  <PEOE_VSA_POS>
170.3808

>  <PEOE_VSA_PPOS>
10.324173

>  <petitjean>
0.5

>  <petitjeanSC>
1

>  <Q_PC+>
0

>  <Q_PC->
0

>  <Q_RPC+>
0

>  <Q_RPC->
0

>  <Q_VSA_FHYD>
1

>  <Q_VSA_FNEG>
0

>  <Q_VSA_FPNEG>
0

>  <Q_VSA_FPOL>
0

>  <Q_VSA_FPOS>
1

>  <Q_VSA_FPPOS>
0

>  <Q_VSA_HYD>
267.44086

>  <Q_VSA_NEG>
0

>  <Q_VSA_PNEG>
0

>  <Q_VSA_POL>
0

>  <Q_VSA_POS>
267.44086

>  <Q_VSA_PPOS>
0

>  <radius>
5

>  <reactive>
0

>  <rings>
2

>  <RPC+>
0

>  <RPC->
0

>  <rsynth>
1

>  <SlogP>
1.9056

>  <SlogP_VSA0>
54.395866

>  <SlogP_VSA1>
0

>  <SlogP_VSA2>
27.236147

>  <SlogP_VSA3>
39.365837

>  <SlogP_VSA4>
0

>  <SlogP_VSA5>
0

>  <SlogP_VSA6>
0

>  <SlogP_VSA7>
92.504196

>  <SlogP_VSA8>
0

>  <SlogP_VSA9>
71.895454

>  <SMR>
7.29392

>  <SMR_VSA0>
0

>  <SMR_VSA1>
36.385113

>  <SMR_VSA2>
34.79628

>  <SMR_VSA3>
15.694046

>  <SMR_VSA4>
4.7171016

>  <SMR_VSA5>
87.787094

>  <SMR_VSA6>
39.365837

>  <SMR_VSA7>
66.652031

>  <TPSA>
57.279999

>  <VAdjEq>
0.52150291

>  <VAdjMa>
5.2479277

>  <VDistEq>
3.2162623

>  <VDistMa>
8.0063391

>  <vdw_area>
267.44086

>  <vdw_vol>
356.26343

>  <vsa_acc>
2.503756

>  <vsa_acid>
0

>  <vsa_base>
0

>  <vsa_don>
5.6825762

>  <vsa_hyd>
217.23305

>  <vsa_other>
0

>  <vsa_pol>
27.435829

>  <Weight>
248.32599

>  <weinerPath>
687

>  <weinerPol>
22

>  <zagreb>
88

$$$$