Fc1ccc(cc1)[C@@H]1N(CCO[C@@H]1O[C@H](C)c1cc(cc(c1)C(F)(F)F)C(F)(F)F)CC=1NC(=O)NN=1
  MOE2013           2D

 37 40  0  0  1  0  0  0  0  0999 V2000
    0.0000    0.0000    0.0000 F   0  0  0  0  0  0  0  0  0  0  0  0
    0.7400   -1.3050    0.0000 C   0  0  0  0  0  0  0  0  0  0  0  0
   -0.0200   -2.5980    0.0000 C   0  0  0  0  0  0  0  0  0  0  0  0
    0.7200   -3.9030    0.0000 C   0  0  0  0  0  0  0  0  0  0  0  0
    2.2200   -3.9140    0.0000 C   0  0  0  0  0  0  0  0  0  0  0  0
    2.9800   -2.6210    0.0000 C   0  0  0  0  0  0  0  0  0  0  0  0
    2.2400   -1.3160    0.0000 C   0  0  0  0  0  0  0  0  0  0  0  0
    2.9600   -5.2190    0.0000 C   0  0  2  0  0  0  0  0  0  0  0  0
    4.4600   -5.2310    0.0000 N   0  0  3  0  0  0  0  0  0  0  0  0
    5.1990   -6.5360    0.0000 C   0  0  0  0  0  0  0  0  0  0  0  0
    4.4390   -7.8290    0.0000 C   0  0  0  0  0  0  0  0  0  0  0  0
    2.9390   -7.8170    0.0000 O   0  0  0  0  0  0  0  0  0  0  0  0
    2.2000   -6.5120    0.0000 C   0  0  2  0  0  0  0  0  0  0  0  0
    0.7000   -6.5010    0.0000 O   0  0  0  0  0  0  0  0  0  0  0  0
   -0.0600   -7.7940    0.0000 C   0  0  2  0  0  0  0  0  0  0  0  0
    0.6790   -9.0990    0.0000 C   0  0  0  0  0  0  0  0  0  0  0  0
   -1.5600   -7.7820    0.0000 C   0  0  0  0  0  0  0  0  0  0  0  0
   -2.3200   -9.0760    0.0000 C   0  0  0  0  0  0  0  0  0  0  0  0
   -3.8200   -9.0640    0.0000 C   0  0  0  0  0  0  0  0  0  0  0  0
   -4.5600   -7.7590    0.0000 C   0  0  0  0  0  0  0  0  0  0  0  0
   -3.8000   -6.4660    0.0000 C   0  0  0  0  0  0  0  0  0  0  0  0
   -2.3000   -6.4780    0.0000 C   0  0  0  0  0  0  0  0  0  0  0  0
   -4.5400   -5.1610    0.0000 C   0  0  0  0  0  0  0  0  0  0  0  0
   -3.2350   -4.4210    0.0000 F   0  0  0  0  0  0  0  0  0  0  0  0
   -5.8450   -5.9010    0.0000 F   0  0  0  0  0  0  0  0  0  0  0  0
   -5.2800   -3.8560    0.0000 F   0  0  0  0  0  0  0  0  0  0  0  0
   -4.5800  -10.3570    0.0000 C   0  0  0  0  0  0  0  0  0  0  0  0
   -5.3410  -11.6500    0.0000 F   0  0  0  0  0  0  0  0  0  0  0  0
   -5.8740   -9.5970    0.0000 F   0  0  0  0  0  0  0  0  0  0  0  0
   -3.2870  -11.1170    0.0000 F   0  0  0  0  0  0  0  0  0  0  0  0
    5.2200   -3.9380    0.0000 C   0  0  0  0  0  0  0  0  0  0  0  0
    6.7200   -3.9490    0.0000 C   0  0  0  0  0  0  0  0  0  0  0  0
    7.6110   -2.7430    0.0000 N   0  0  0  0  0  0  0  0  0  0  0  0
    9.0340   -3.2170    0.0000 C   0  0  0  0  0  0  0  0  0  0  0  0
   10.2540   -2.3450    0.0000 O   0  0  0  0  0  0  0  0  0  0  0  0
    9.0220   -4.7170    0.0000 N   0  0  0  0  0  0  0  0  0  0  0  0
    7.5920   -5.1700    0.0000 N   0  0  0  0  0  0  0  0  0  0  0  0
  1  2  1  0  0  0  0
  2  3  1  0  0  0  0
  2  7  2  0  0  0  0
  3  4  2  0  0  0  0
  4  5  1  0  0  0  0
  5  6  2  0  0  0  0
  6  7  1  0  0  0  0
  8  5  1  6  0  0  0
  8  9  1  0  0  0  0
  8 13  1  0  0  0  0
  9 10  1  0  0  0  0
  9 31  1  0  0  0  0
 10 11  1  0  0  0  0
 11 12  1  0  0  0  0
 12 13  1  0  0  0  0
 13 14  1  6  0  0  0
 14 15  1  0  0  0  0
 15 16  1  6  0  0  0
 15 17  1  0  0  0  0
 17 18  2  0  0  0  0
 17 22  1  0  0  0  0
 18 19  1  0  0  0  0
 19 20  2  0  0  0  0
 19 27  1  0  0  0  0
 20 21  1  0  0  0  0
 21 22  2  0  0  0  0
 21 23  1  0  0  0  0
 23 24  1  0  0  0  0
 23 25  1  0  0  0  0
 23 26  1  0  0  0  0
 27 28  1  0  0  0  0
 27 29  1  0  0  0  0
 27 30  1  0  0  0  0
 31 32  1  0  0  0  0
 32 33  1  0  0  0  0
 32 37  2  0  0  0  0
 33 34  1  0  0  0  0
 34 35  2  0  0  0  0
 34 36  1  0  0  0  0
 36 37  1  0  0  0  0
M  END
>  <Index>
84

>  <ID>
HT0173

>  <class>
0

>  <apol>
65.187653

>  <ast_fraglike>
0

>  <ast_fraglike_ext>
0

>  <ast_violation>
3

>  <ast_violation_ext>
4

>  <a_acc>
5

>  <a_acid>
0

>  <a_aro>
12

>  <a_base>
0

>  <a_count>
58

>  <a_don>
2

>  <a_donacc>
7

>  <a_heavy>
37

>  <a_hyd>
27

>  <a_IC>
111.07594

>  <a_ICM>
1.9151024

>  <a_nB>
0

>  <a_nBr>
0

>  <a_nC>
23

>  <a_nCl>
0

>  <a_nF>
7

>  <a_nH>
21

>  <a_nI>
0

>  <a_nN>
4

>  <a_nO>
3

>  <a_nP>
0

>  <a_nS>
0

>  <balabanJ>
1.4872676

>  <BCUT_PEOE_0>
-2.7191172

>  <BCUT_PEOE_1>
-0.51503021

>  <BCUT_PEOE_2>
0.52605903

>  <BCUT_PEOE_3>
2.6938181

>  <BCUT_SLOGP_0>
-2.8004551

>  <BCUT_SLOGP_1>
-0.31965038

>  <BCUT_SLOGP_2>
0.75566995

>  <BCUT_SLOGP_3>
2.6752541

>  <BCUT_SMR_0>
-2.465904

>  <BCUT_SMR_1>
-0.29236671

>  <BCUT_SMR_2>
0.70839745

>  <BCUT_SMR_3>
2.9381289

>  <bpol>
39.468346

>  <b_1rotN>
6

>  <b_1rotR>
0.15000001

>  <b_ar>
12

>  <b_count>
61

>  <b_double>
2

>  <b_heavy>
40

>  <b_max1len>
5

>  <b_rotN>
8

>  <b_rotR>
0.2

>  <b_single>
47

>  <b_triple>
0

>  <chi0>
26.957455

>  <chi0v>
19.159746

>  <chi0v_C>
13.394823

>  <chi0_C>
14.84457

>  <chi1>
17.307701

>  <chi1v>
11.005655

>  <chi1v_C>
6.3950052

>  <chi1_C>
8.1454315

>  <chiral>
3

>  <chiral_u>
0

>  <density>
0.90830022

>  <diameter>
14

>  <FCharge>
0

>  <GCUT_PEOE_0>
-0.82314903

>  <GCUT_PEOE_1>
-0.38004974

>  <GCUT_PEOE_2>
0.041048784

>  <GCUT_PEOE_3>
2.8785965

>  <GCUT_SLOGP_0>
-1.1957953

>  <GCUT_SLOGP_1>
-0.26386139

>  <GCUT_SLOGP_2>
0.26019999

>  <GCUT_SLOGP_3>
2.9284136

>  <GCUT_SMR_0>
-0.51689559

>  <GCUT_SMR_1>
-0.17879839

>  <GCUT_SMR_2>
0.15671726

>  <GCUT_SMR_3>
3.1184971

>  <Kier1>
29.969999

>  <Kier2>
12.25

>  <Kier3>
7.8093452

>  <KierA1>
23.325542

>  <KierA2>
9.4637394

>  <KierA3>
6.0009503

>  <KierFlex>
5.9661307

>  <lip_acc>
7

>  <lip_don>
2

>  <lip_druglike>
0

>  <lip_violation>
2

>  <logP(o/w)>
5.4825201

>  <logS>
-6.8309999

>  <mr>
11.789422

>  <mutagenic>
0

>  <nmol>
1

>  <opr_brigid>
23

>  <opr_leadlike>
0

>  <opr_nring>
4

>  <opr_nrot>
8

>  <opr_violation>
2

>  <PC+>
0

>  <PC->
0

>  <PEOE_PC+>
3.4581394

>  <PEOE_PC->
-3.4581394

>  <PEOE_RPC+>
0.12071294

>  <PEOE_RPC->
0.10066026

>  <PEOE_VSA+0>
34.519257

>  <PEOE_VSA+1>
100.32699

>  <PEOE_VSA+2>
20.211409

>  <PEOE_VSA+3>
28.392935

>  <PEOE_VSA+4>
0

>  <PEOE_VSA+5>
0

>  <PEOE_VSA+6>
35.531548

>  <PEOE_VSA-0>
84.439278

>  <PEOE_VSA-1>
24.509808

>  <PEOE_VSA-2>
0

>  <PEOE_VSA-3>
80.872856

>  <PEOE_VSA-4>
29.35091

>  <PEOE_VSA-5>
0.13689101

>  <PEOE_VSA-6>
5.0075121

>  <PEOE_VSA_FHYD>
0.84203255

>  <PEOE_VSA_FNEG>
0.50601751

>  <PEOE_VSA_FPNEG>
0.077814937

>  <PEOE_VSA_FPOL>
0.15796742

>  <PEOE_VSA_FPOS>
0.49398249

>  <PEOE_VSA_FPPOS>
0.080152482

>  <PEOE_VSA_HYD>
373.27252

>  <PEOE_VSA_NEG>
224.31725

>  <PEOE_VSA_PNEG>
34.495316

>  <PEOE_VSA_POL>
70.026863

>  <PEOE_VSA_POS>
218.98213

>  <PEOE_VSA_PPOS>
35.531548

>  <petitjean>
0.5

>  <petitjeanSC>
1

>  <Q_PC+>
0

>  <Q_PC->
0

>  <Q_RPC+>
0

>  <Q_RPC->
0

>  <Q_VSA_FHYD>
1

>  <Q_VSA_FNEG>
0

>  <Q_VSA_FPNEG>
0

>  <Q_VSA_FPOL>
0

>  <Q_VSA_FPOS>
1

>  <Q_VSA_FPPOS>
0

>  <Q_VSA_HYD>
443.29938

>  <Q_VSA_NEG>
0

>  <Q_VSA_PNEG>
0

>  <Q_VSA_POL>
0

>  <Q_VSA_POS>
443.29938

>  <Q_VSA_PPOS>
0

>  <radius>
7

>  <reactive>
1

>  <rings>
4

>  <RPC+>
0

>  <RPC->
0

>  <rsynth>
1

>  <SlogP>
5.7807999

>  <SlogP_VSA0>
35.898979

>  <SlogP_VSA1>
10.28219

>  <SlogP_VSA2>
39.647297

>  <SlogP_VSA3>
57.805416

>  <SlogP_VSA4>
12.7423

>  <SlogP_VSA5>
16.663008

>  <SlogP_VSA6>
15.519032

>  <SlogP_VSA7>
123.50229

>  <SlogP_VSA8>
10.450618

>  <SlogP_VSA9>
161.90903

>  <SMR>
11.59584

>  <SMR_VSA0>
45.861992

>  <SMR_VSA1>
124.50812

>  <SMR_VSA2>
60.539028

>  <SMR_VSA3>
31.719419

>  <SMR_VSA4>
0

>  <SMR_VSA5>
123.50229

>  <SMR_VSA6>
64.963287

>  <SMR_VSA7>
33.326015

>  <TPSA>
75.190002

>  <VAdjEq>
0.32120815

>  <VAdjMa>
6.321928

>  <VDistEq>
3.6776359

>  <VDistMa>
10.164565

>  <vdw_area>
443.29938

>  <vdw_vol>
588.3869

>  <vsa_acc>
27.995472

>  <vsa_acid>
0

>  <vsa_base>
0

>  <vsa_don>
15.103616

>  <vsa_hyd>
337.18994

>  <vsa_other>
43.339603

>  <vsa_pol>
43.099087

>  <Weight>
534.43201

>  <weinerPath>
4275

>  <weinerPol>
59

>  <zagreb>
200

$$$$