O(C)c1ccc(OC)cc1Cc1cnc2nc(nc(N)c2c1C)N
  MOE2013           2D

 24 26  0  0  0  0  0  0  0  0999 V2000
    0.0000    0.0000    0.0000 O   0  0  0  0  0  0  0  0  0  0  0  0
   -0.7460   -1.3010    0.0000 C   0  0  0  0  0  0  0  0  0  0  0  0
   -0.7540    1.2970    0.0000 C   0  0  0  0  0  0  0  0  0  0  0  0
   -2.2540    1.2930    0.0000 C   0  0  0  0  0  0  0  0  0  0  0  0
   -3.0070    2.5900    0.0000 C   0  0  0  0  0  0  0  0  0  0  0  0
   -2.2610    3.8910    0.0000 C   0  0  0  0  0  0  0  0  0  0  0  0
   -3.0140    5.1880    0.0000 O   0  0  0  0  0  0  0  0  0  0  0  0
   -4.5140    5.1840    0.0000 C   0  0  0  0  0  0  0  0  0  0  0  0
   -0.7610    3.8950    0.0000 C   0  0  0  0  0  0  0  0  0  0  0  0
   -0.0070    2.5980    0.0000 C   0  0  0  0  0  0  0  0  0  0  0  0
    1.4930    2.6020    0.0000 C   0  0  0  0  0  0  0  0  0  0  0  0
    2.2390    3.9030    0.0000 C   0  0  0  0  0  0  0  0  0  0  0  0
    1.4860    5.2000    0.0000 C   0  0  0  0  0  0  0  0  0  0  0  0
    2.2320    6.5010    0.0000 N   0  0  0  0  0  0  0  0  0  0  0  0
    3.7320    6.5060    0.0000 C   0  0  0  0  0  0  0  0  0  0  0  0
    4.4780    7.8070    0.0000 N   0  0  0  0  0  0  0  0  0  0  0  0
    5.9780    7.8110    0.0000 C   0  0  0  0  0  0  0  0  0  0  0  0
    6.7320    6.5140    0.0000 N   0  0  0  0  0  0  0  0  0  0  0  0
    5.9860    5.2130    0.0000 C   0  0  0  0  0  0  0  0  0  0  0  0
    6.7390    3.9160    0.0000 N   0  0  0  0  0  0  0  0  0  0  0  0
    4.4860    5.2090    0.0000 C   0  0  0  0  0  0  0  0  0  0  0  0
    3.7390    3.9070    0.0000 C   0  0  0  0  0  0  0  0  0  0  0  0
    4.4930    2.6110    0.0000 C   0  0  0  0  0  0  0  0  0  0  0  0
    6.7250    9.1120    0.0000 N   0  0  0  0  0  0  0  0  0  0  0  0
  1  2  1  0  0  0  0
  1  3  1  0  0  0  0
  3  4  1  0  0  0  0
  3 10  2  0  0  0  0
  4  5  2  0  0  0  0
  5  6  1  0  0  0  0
  6  7  1  0  0  0  0
  6  9  2  0  0  0  0
  7  8  1  0  0  0  0
  9 10  1  0  0  0  0
 10 11  1  0  0  0  0
 11 12  1  0  0  0  0
 12 13  1  0  0  0  0
 12 22  2  0  0  0  0
 13 14  2  0  0  0  0
 14 15  1  0  0  0  0
 15 16  1  0  0  0  0
 15 21  2  0  0  0  0
 16 17  2  0  0  0  0
 17 18  1  0  0  0  0
 17 24  1  0  0  0  0
 18 19  2  0  0  0  0
 19 20  1  0  0  0  0
 19 21  1  0  0  0  0
 21 22  1  0  0  0  0
 22 23  1  0  0  0  0
M  END
>  <Index>
873

>  <ID>
HT1695

>  <class>
0

>  <apol>
49.693066

>  <ast_fraglike>
0

>  <ast_fraglike_ext>
0

>  <ast_violation>
2

>  <ast_violation_ext>
3

>  <a_acc>
5

>  <a_acid>
0

>  <a_aro>
16

>  <a_base>
0

>  <a_count>
43

>  <a_don>
2

>  <a_donacc>
7

>  <a_heavy>
24

>  <a_hyd>
14

>  <a_IC>
69.522255

>  <a_ICM>
1.6167966

>  <a_nB>
0

>  <a_nBr>
0

>  <a_nC>
17

>  <a_nCl>
0

>  <a_nF>
0

>  <a_nH>
19

>  <a_nI>
0

>  <a_nN>
5

>  <a_nO>
2

>  <a_nP>
0

>  <a_nS>
0

>  <balabanJ>
1.6476552

>  <BCUT_PEOE_0>
-2.3942385

>  <BCUT_PEOE_1>
-0.54227078

>  <BCUT_PEOE_2>
0.47149959

>  <BCUT_PEOE_3>
2.377914

>  <BCUT_SLOGP_0>
-2.3796501

>  <BCUT_SLOGP_1>
-0.47672045

>  <BCUT_SLOGP_2>
0.60285181

>  <BCUT_SLOGP_3>
2.5064266

>  <BCUT_SMR_0>
-2.1045582

>  <BCUT_SMR_1>
-0.34105217

>  <BCUT_SMR_2>
0.70978075

>  <BCUT_SMR_3>
2.6755331

>  <bpol>
27.242933

>  <b_1rotN>
4

>  <b_1rotR>
0.15384616

>  <b_ar>
17

>  <b_count>
45

>  <b_double>
0

>  <b_heavy>
26

>  <b_max1len>
2

>  <b_rotN>
4

>  <b_rotR>
0.15384616

>  <b_single>
28

>  <b_triple>
0

>  <chi0>
17.26722

>  <chi0v>
13.829346

>  <chi0v_C>
10.516508

>  <chi0_C>
11.731687

>  <chi1>
11.528407

>  <chi1v>
7.4121437

>  <chi1v_C>
4.2338157

>  <chi1_C>
5.6017551

>  <chiral>
0

>  <chiral_u>
0

>  <density>
0.7445302

>  <diameter>
12

>  <FCharge>
0

>  <GCUT_PEOE_0>
-0.79142535

>  <GCUT_PEOE_1>
-0.47404525

>  <GCUT_PEOE_2>
-0.033199579

>  <GCUT_PEOE_3>
2.5689757

>  <GCUT_SLOGP_0>
-1.3403705

>  <GCUT_SLOGP_1>
-0.36574262

>  <GCUT_SLOGP_2>
0.11342501

>  <GCUT_SLOGP_3>
2.692477

>  <GCUT_SMR_0>
-0.48461336

>  <GCUT_SMR_1>
-0.19155286

>  <GCUT_SMR_2>
0.1603069

>  <GCUT_SMR_3>
2.8618882

>  <Kier1>
18.781065

>  <Kier2>
8.1314831

>  <Kier3>
4.0655999

>  <KierA1>
13.289061

>  <KierA2>
5.6596274

>  <KierA3>
2.7962587

>  <KierFlex>
3.1337972

>  <lip_acc>
7

>  <lip_don>
4

>  <lip_druglike>
1

>  <lip_violation>
0

>  <logP(o/w)>
1.658

>  <logS>
-4.8457098

>  <mr>
9.120163

>  <mutagenic>
1

>  <nmol>
1

>  <opr_brigid>
17

>  <opr_leadlike>
1

>  <opr_nring>
3

>  <opr_nrot>
4

>  <opr_violation>
0

>  <PC+>
0

>  <PC->
0

>  <PEOE_PC+>
2.0770082

>  <PEOE_PC->
-2.0770082

>  <PEOE_RPC+>
0.09733589

>  <PEOE_RPC->
0.16750127

>  <PEOE_VSA+0>
96.76947

>  <PEOE_VSA+1>
61.779438

>  <PEOE_VSA+2>
45.666615

>  <PEOE_VSA+3>
11.190562

>  <PEOE_VSA+4>
15.681574

>  <PEOE_VSA+5>
0

>  <PEOE_VSA+6>
0

>  <PEOE_VSA-0>
62.138008

>  <PEOE_VSA-1>
0

>  <PEOE_VSA-2>
0

>  <PEOE_VSA-3>
5.6825762

>  <PEOE_VSA-4>
11.365152

>  <PEOE_VSA-5>
13.302238

>  <PEOE_VSA-6>
5.0075121

>  <PEOE_VSA_FHYD>
0.86196345

>  <PEOE_VSA_FNEG>
0.29671481

>  <PEOE_VSA_FPNEG>
0.090311699

>  <PEOE_VSA_FPOL>
0.13803653

>  <PEOE_VSA_FPOS>
0.70328522

>  <PEOE_VSA_FPPOS>
0.047724828

>  <PEOE_VSA_HYD>
283.22668

>  <PEOE_VSA_NEG>
97.495491

>  <PEOE_VSA_PNEG>
29.674904

>  <PEOE_VSA_POL>
45.356476

>  <PEOE_VSA_POS>
231.08766

>  <PEOE_VSA_PPOS>
15.681574

>  <petitjean>
0.5

>  <petitjeanSC>
1

>  <Q_PC+>
0

>  <Q_PC->
0

>  <Q_RPC+>
0

>  <Q_RPC->
0

>  <Q_VSA_FHYD>
1

>  <Q_VSA_FNEG>
0

>  <Q_VSA_FPNEG>
0

>  <Q_VSA_FPOL>
0

>  <Q_VSA_FPOS>
1

>  <Q_VSA_FPPOS>
0

>  <Q_VSA_HYD>
328.58316

>  <Q_VSA_NEG>
0

>  <Q_VSA_PNEG>
0

>  <Q_VSA_POL>
0

>  <Q_VSA_POS>
328.58316

>  <Q_VSA_PPOS>
0

>  <radius>
6

>  <reactive>
0

>  <rings>
3

>  <RPC+>
0

>  <RPC->
0

>  <rsynth>
1

>  <SlogP>
2.1055901

>  <SlogP_VSA0>
87.794151

>  <SlogP_VSA1>
50.35659

>  <SlogP_VSA2>
0

>  <SlogP_VSA3>
0

>  <SlogP_VSA4>
9.5567245

>  <SlogP_VSA5>
89.636139

>  <SlogP_VSA6>
0

>  <SlogP_VSA7>
74.432182

>  <SlogP_VSA8>
0

>  <SlogP_VSA9>
48.039883

>  <SMR>
9.3246803

>  <SMR_VSA0>
0

>  <SMR_VSA1>
72.356361

>  <SMR_VSA2>
0

>  <SMR_VSA3>
20.043581

>  <SMR_VSA4>
8.5152864

>  <SMR_VSA5>
154.80669

>  <SMR_VSA6>
0

>  <SMR_VSA7>
104.09375

>  <TPSA>
109.17

>  <VAdjEq>
0.43739632

>  <VAdjMa>
5.7004399

>  <VDistEq>
3.3108335

>  <VDistMa>
8.8831768

>  <vdw_area>
328.58316

>  <vdw_vol>
437.01654

>  <vsa_acc>
22.055241

>  <vsa_acid>
0

>  <vsa_base>
0

>  <vsa_don>
35.484978

>  <vsa_hyd>
210.00999

>  <vsa_other>
38.062698

>  <vsa_pol>
57.540218

>  <Weight>
325.37198

>  <weinerPath>
1329

>  <weinerPol>
41

>  <zagreb>
126

$$$$