O=C1N(C=C(C=C1c1ccccc1C#N)c1ncccc1)c1ccccc1
  MOE2013           2D

 27 30  0  0  0  0  0  0  0  0999 V2000
    0.0000    0.0000    0.0000 O   0  0  0  0  0  0  0  0  0  0  0  0
   -0.7500    1.2990    0.0000 C   0  0  0  0  0  0  0  0  0  0  0  0
    0.0000    2.5980    0.0000 N   0  0  0  0  0  0  0  0  0  0  0  0
   -0.7500    3.8970    0.0000 C   0  0  0  0  0  0  0  0  0  0  0  0
   -2.2500    3.8970    0.0000 C   0  0  0  0  0  0  0  0  0  0  0  0
   -3.0000    2.5980    0.0000 C   0  0  0  0  0  0  0  0  0  0  0  0
   -2.2500    1.2990    0.0000 C   0  0  0  0  0  0  0  0  0  0  0  0
   -3.0000    0.0000    0.0000 C   0  0  0  0  0  0  0  0  0  0  0  0
   -2.2500   -1.2990    0.0000 C   0  0  0  0  0  0  0  0  0  0  0  0
   -3.0000   -2.5980    0.0000 C   0  0  0  0  0  0  0  0  0  0  0  0
   -4.5000   -2.5980    0.0000 C   0  0  0  0  0  0  0  0  0  0  0  0
   -5.2500   -1.2990    0.0000 C   0  0  0  0  0  0  0  0  0  0  0  0
   -4.5000    0.0000    0.0000 C   0  0  0  0  0  0  0  0  0  0  0  0
   -5.2500    1.2990    0.0000 C   0  0  0  0  0  0  0  0  0  0  0  0
   -6.0000    2.5980    0.0000 N   0  0  0  0  0  0  0  0  0  0  0  0
   -3.0000    5.1960    0.0000 C   0  0  0  0  0  0  0  0  0  0  0  0
   -2.2500    6.4950    0.0000 N   0  0  0  0  0  0  0  0  0  0  0  0
   -3.0000    7.7940    0.0000 C   0  0  0  0  0  0  0  0  0  0  0  0
   -4.5000    7.7940    0.0000 C   0  0  0  0  0  0  0  0  0  0  0  0
   -5.2500    6.4950    0.0000 C   0  0  0  0  0  0  0  0  0  0  0  0
   -4.5000    5.1960    0.0000 C   0  0  0  0  0  0  0  0  0  0  0  0
    1.5000    2.5980    0.0000 C   0  0  0  0  0  0  0  0  0  0  0  0
    2.2500    3.8970    0.0000 C   0  0  0  0  0  0  0  0  0  0  0  0
    3.7500    3.8970    0.0000 C   0  0  0  0  0  0  0  0  0  0  0  0
    4.5000    2.5980    0.0000 C   0  0  0  0  0  0  0  0  0  0  0  0
    3.7500    1.2990    0.0000 C   0  0  0  0  0  0  0  0  0  0  0  0
    2.2500    1.2990    0.0000 C   0  0  0  0  0  0  0  0  0  0  0  0
  1  2  2  0  0  0  0
  2  3  1  0  0  0  0
  2  7  1  0  0  0  0
  3  4  1  0  0  0  0
  3 22  1  0  0  0  0
  4  5  2  0  0  0  0
  5  6  1  0  0  0  0
  5 16  1  0  0  0  0
  6  7  2  0  0  0  0
  7  8  1  0  0  0  0
  8  9  1  0  0  0  0
  8 13  2  0  0  0  0
  9 10  2  0  0  0  0
 10 11  1  0  0  0  0
 11 12  2  0  0  0  0
 12 13  1  0  0  0  0
 13 14  1  0  0  0  0
 14 15  3  0  0  0  0
 16 17  1  0  0  0  0
 16 21  2  0  0  0  0
 17 18  2  0  0  0  0
 18 19  1  0  0  0  0
 19 20  2  0  0  0  0
 20 21  1  0  0  0  0
 22 23  1  0  0  0  0
 22 27  2  0  0  0  0
 23 24  2  0  0  0  0
 24 25  1  0  0  0  0
 25 26  2  0  0  0  0
 26 27  1  0  0  0  0
M  END
>  <Index>
838

>  <ID>
HT1629

>  <class>
0

>  <apol>
54.583897

>  <ast_fraglike>
0

>  <ast_fraglike_ext>
0

>  <ast_violation>
2

>  <ast_violation_ext>
3

>  <a_acc>
3

>  <a_acid>
0

>  <a_aro>
18

>  <a_base>
0

>  <a_count>
42

>  <a_don>
0

>  <a_donacc>
3

>  <a_heavy>
27

>  <a_hyd>
21

>  <a_IC>
59.07716

>  <a_ICM>
1.406599

>  <a_nB>
0

>  <a_nBr>
0

>  <a_nC>
23

>  <a_nCl>
0

>  <a_nF>
0

>  <a_nH>
15

>  <a_nI>
0

>  <a_nN>
3

>  <a_nO>
1

>  <a_nP>
0

>  <a_nS>
0

>  <balabanJ>
1.5399218

>  <BCUT_PEOE_0>
-2.3700969

>  <BCUT_PEOE_1>
-0.5933004

>  <BCUT_PEOE_2>
0.64928472

>  <BCUT_PEOE_3>
2.3543003

>  <BCUT_SLOGP_0>
-2.3633313

>  <BCUT_SLOGP_1>
-0.48793527

>  <BCUT_SLOGP_2>
0.75560749

>  <BCUT_SLOGP_3>
2.4459741

>  <BCUT_SMR_0>
-2.0032141

>  <BCUT_SMR_1>
-0.44278362

>  <BCUT_SMR_2>
0.81510305

>  <BCUT_SMR_3>
2.7127171

>  <bpol>
21.316105

>  <b_1rotN>
3

>  <b_1rotR>
0.1

>  <b_ar>
18

>  <b_count>
45

>  <b_double>
3

>  <b_heavy>
30

>  <b_max1len>
1

>  <b_rotN>
4

>  <b_rotR>
0.13333334

>  <b_single>
23

>  <b_triple>
1

>  <chi0>
18.639618

>  <chi0v>
14.410143

>  <chi0v_C>
12.660254

>  <chi0_C>
15.355161

>  <chi1>
13.275188

>  <chi1v>
8.5076838

>  <chi1v_C>
6.8927345

>  <chi1_C>
10.007568

>  <chiral>
0

>  <chiral_u>
0

>  <density>
0.71202922

>  <diameter>
10

>  <FCharge>
0

>  <GCUT_PEOE_0>
-0.80428976

>  <GCUT_PEOE_1>
-0.40668318

>  <GCUT_PEOE_2>
0.0718401

>  <GCUT_PEOE_3>
2.5667057

>  <GCUT_SLOGP_0>
-0.95833492

>  <GCUT_SLOGP_1>
-0.28854027

>  <GCUT_SLOGP_2>
0.15124899

>  <GCUT_SLOGP_3>
2.6816094

>  <GCUT_SMR_0>
-0.404351

>  <GCUT_SMR_1>
-0.19823337

>  <GCUT_SMR_2>
0.17574684

>  <GCUT_SMR_3>
2.8914621

>  <Kier1>
20.280001

>  <Kier2>
9.6668653

>  <Kier3>
4.6094184

>  <KierA1>
12.619901

>  <KierA2>
5.8942256

>  <KierA3>
2.7680511

>  <KierFlex>
2.7549832

>  <lip_acc>
4

>  <lip_don>
0

>  <lip_druglike>
1

>  <lip_violation>
0

>  <logP(o/w)>
3.5829999

>  <logS>
-5.2089

>  <mr>
10.591913

>  <mutagenic>
0

>  <nmol>
1

>  <opr_brigid>
24

>  <opr_leadlike>
1

>  <opr_nring>
4

>  <opr_nrot>
4

>  <opr_violation>
0

>  <PC+>
0

>  <PC->
0

>  <PEOE_PC+>
1.6459458

>  <PEOE_PC->
-1.6459458

>  <PEOE_RPC+>
0.16010641

>  <PEOE_RPC->
0.1719688

>  <PEOE_VSA+0>
46.817001

>  <PEOE_VSA+1>
93.188385

>  <PEOE_VSA+2>
0

>  <PEOE_VSA+3>
0

>  <PEOE_VSA+4>
0

>  <PEOE_VSA+5>
12.949531

>  <PEOE_VSA+6>
0

>  <PEOE_VSA-0>
73.529427

>  <PEOE_VSA-1>
85.784325

>  <PEOE_VSA-2>
0

>  <PEOE_VSA-3>
17.742489

>  <PEOE_VSA-4>
0

>  <PEOE_VSA-5>
19.249496

>  <PEOE_VSA-6>
0

>  <PEOE_VSA_FHYD>
0.90780801

>  <PEOE_VSA_FNEG>
0.56206083

>  <PEOE_VSA_FPNEG>
0.055114988

>  <PEOE_VSA_FPOL>
0.092191972

>  <PEOE_VSA_FPOS>
0.43793917

>  <PEOE_VSA_FPPOS>
0.03707698

>  <PEOE_VSA_HYD>
317.06161

>  <PEOE_VSA_NEG>
196.30574

>  <PEOE_VSA_PNEG>
19.249496

>  <PEOE_VSA_POL>
32.199028

>  <PEOE_VSA_POS>
152.95493

>  <PEOE_VSA_PPOS>
12.949531

>  <petitjean>
0.40000001

>  <petitjeanSC>
0.66666669

>  <Q_PC+>
0

>  <Q_PC->
0

>  <Q_RPC+>
0

>  <Q_RPC->
0

>  <Q_VSA_FHYD>
1

>  <Q_VSA_FNEG>
0

>  <Q_VSA_FPNEG>
0

>  <Q_VSA_FPOL>
0

>  <Q_VSA_FPOS>
1

>  <Q_VSA_FPPOS>
0

>  <Q_VSA_HYD>
349.26065

>  <Q_VSA_NEG>
0

>  <Q_VSA_PNEG>
0

>  <Q_VSA_POL>
0

>  <Q_VSA_POS>
349.26065

>  <Q_VSA_PPOS>
0

>  <radius>
6

>  <reactive>
0

>  <rings>
4

>  <RPC+>
0

>  <RPC->
0

>  <rsynth>
1

>  <SlogP>
4.4245839

>  <SlogP_VSA0>
3.1243138

>  <SlogP_VSA1>
22.044313

>  <SlogP_VSA2>
23.862217

>  <SlogP_VSA3>
47.661102

>  <SlogP_VSA4>
9.1278973

>  <SlogP_VSA5>
0

>  <SlogP_VSA6>
0

>  <SlogP_VSA7>
270.16125

>  <SlogP_VSA8>
0

>  <SlogP_VSA9>
2.7567475

>  <SMR>
10.5276

>  <SMR_VSA0>
23.862217

>  <SMR_VSA1>
47.844887

>  <SMR_VSA2>
3.1243138

>  <SMR_VSA3>
25.729645

>  <SMR_VSA4>
9.1278973

>  <SMR_VSA5>
263.7901

>  <SMR_VSA6>
5.2587838

>  <SMR_VSA7>
0

>  <TPSA>
56.990002

>  <VAdjEq>
0.41024774

>  <VAdjMa>
5.9068904

>  <VDistEq>
3.1875925

>  <VDistMa>
9.267539

>  <vdw_area>
349.26065

>  <vdw_vol>
490.70035

>  <vsa_acc>
36.991985

>  <vsa_acid>
0

>  <vsa_base>
0

>  <vsa_don>
0

>  <vsa_hyd>
268.34271

>  <vsa_other>
33.249039

>  <vsa_pol>
36.991985

>  <Weight>
349.39301

>  <weinerPath>
1704

>  <weinerPol>
45

>  <zagreb>
142

$$$$