S(=O)(=O)(N[C@@H](CCCN=C(N)/N)C(=O)N1CC[C@H](C[C@@H]1C(O)=O)C)c1c2NCC(Cc2ccc1)C
  MOE2013           2D

 35 37  0  0  1  0  0  0  0  0999 V2000
    0.0000    0.0000    0.0000 S   0  0  0  0  0  0  0  0  0  0  0  0
    0.7560   -1.2950    0.0000 O   0  0  0  0  0  0  0  0  0  0  0  0
   -0.7560    1.2950    0.0000 O   0  0  0  0  0  0  0  0  0  0  0  0
   -1.2950   -0.7560    0.0000 N   0  0  0  0  0  0  0  0  0  0  0  0
   -2.5980   -0.0130    0.0000 C   0  0  1  0  0  0  0  0  0  0  0  0
   -2.6050    1.4870    0.0000 C   0  0  0  0  0  0  0  0  0  0  0  0
   -3.9080    2.2310    0.0000 C   0  0  0  0  0  0  0  0  0  0  0  0
   -3.9160    3.7310    0.0000 C   0  0  0  0  0  0  0  0  0  0  0  0
   -5.2180    4.4740    0.0000 N   0  0  0  0  0  0  0  0  0  0  0  0
   -5.2260    5.9740    0.0000 C   0  0  0  0  0  0  0  0  0  0  0  0
   -3.9310    6.7310    0.0000 N   0  0  0  0  0  0  0  0  0  0  0  0
   -6.5290    6.7180    0.0000 N   0  0  0  0  0  0  0  0  0  0  0  0
   -3.8930   -0.7690    0.0000 C   0  0  0  0  0  0  0  0  0  0  0  0
   -5.1960   -0.0260    0.0000 O   0  0  0  0  0  0  0  0  0  0  0  0
   -3.8860   -2.2690    0.0000 N   0  0  0  0  0  0  0  0  0  0  0  0
   -2.5830   -3.0130    0.0000 C   0  0  0  0  0  0  0  0  0  0  0  0
   -2.5760   -4.5130    0.0000 C   0  0  0  0  0  0  0  0  0  0  0  0
   -3.8710   -5.2690    0.0000 C   0  0  2  0  0  0  0  0  0  0  0  0
   -5.1740   -4.5260    0.0000 C   0  0  0  0  0  0  0  0  0  0  0  0
   -5.1810   -3.0260    0.0000 C   0  0  2  0  0  0  0  0  0  0  0  0
   -6.4840   -2.2820    0.0000 C   0  0  0  0  0  0  0  0  0  0  0  0
   -6.4910   -0.7820    0.0000 O   0  0  0  0  0  0  0  0  0  0  0  0
   -7.7790   -3.0390    0.0000 O   0  0  0  0  0  0  0  0  0  0  0  0
   -3.8640   -6.7690    0.0000 C   0  0  0  0  0  0  0  0  0  0  0  0
    1.2950    0.7560    0.0000 C   0  0  0  0  0  0  0  0  0  0  0  0
    2.5980    0.0130    0.0000 C   0  0  0  0  0  0  0  0  0  0  0  0
    2.6050   -1.4870    0.0000 N   0  0  0  0  0  0  0  0  0  0  0  0
    3.9080   -2.2310    0.0000 C   0  0  0  0  0  0  0  0  0  0  0  0
    5.2040   -1.4740    0.0000 C   0  0  3  0  0  0  0  0  0  0  0  0
    5.1960    0.0260    0.0000 C   0  0  0  0  0  0  0  0  0  0  0  0
    3.8930    0.7690    0.0000 C   0  0  0  0  0  0  0  0  0  0  0  0
    3.8860    2.2690    0.0000 C   0  0  0  0  0  0  0  0  0  0  0  0
    2.5830    3.0130    0.0000 C   0  0  0  0  0  0  0  0  0  0  0  0
    1.2880    2.2560    0.0000 C   0  0  0  0  0  0  0  0  0  0  0  0
    6.5060   -2.2180    0.0000 C   0  0  0  0  0  0  0  0  0  0  0  0
  1  2  2  0  0  0  0
  1  3  2  0  0  0  0
  1  4  1  0  0  0  0
  1 25  1  0  0  0  0
  5  4  1  6  0  0  0
  5  6  1  0  0  0  0
  5 13  1  0  0  0  0
  6  7  1  0  0  0  0
  7  8  1  0  0  0  0
  8  9  1  0  0  0  0
  9 10  2  3  0  0  0
 10 11  1  0  0  0  0
 10 12  1  0  0  0  0
 13 14  2  0  0  0  0
 13 15  1  0  0  0  0
 15 16  1  0  0  0  0
 15 20  1  0  0  0  0
 16 17  1  0  0  0  0
 17 18  1  0  0  0  0
 18 19  1  0  0  0  0
 18 24  1  1  0  0  0
 19 20  1  0  0  0  0
 20 21  1  6  0  0  0
 21 22  1  0  0  0  0
 21 23  2  0  0  0  0
 25 26  2  0  0  0  0
 25 34  1  0  0  0  0
 26 27  1  0  0  0  0
 26 31  1  0  0  0  0
 27 28  1  0  0  0  0
 28 29  1  0  0  0  0
 29 30  1  0  0  0  0
 29 35  1  0  0  0  0
 30 31  1  0  0  0  0
 31 32  2  0  0  0  0
 32 33  1  0  0  0  0
 33 34  2  0  0  0  0
M  END
>  <Index>
90

>  <ID>
HT0179

>  <class>
0

>  <apol>
77.994545

>  <ast_fraglike>
0

>  <ast_fraglike_ext>
0

>  <ast_violation>
3

>  <ast_violation_ext>
5

>  <a_acc>
6

>  <a_acid>
0

>  <a_aro>
6

>  <a_base>
0

>  <a_count>
71

>  <a_don>
6

>  <a_donacc>
12

>  <a_heavy>
35

>  <a_hyd>
20

>  <a_IC>
119.3534

>  <a_ICM>
1.6810338

>  <a_nB>
0

>  <a_nBr>
0

>  <a_nC>
23

>  <a_nCl>
0

>  <a_nF>
0

>  <a_nH>
36

>  <a_nI>
0

>  <a_nN>
6

>  <a_nO>
5

>  <a_nP>
0

>  <a_nS>
1

>  <balabanJ>
1.7475584

>  <BCUT_PEOE_0>
-2.7831953

>  <BCUT_PEOE_1>
-0.49777275

>  <BCUT_PEOE_2>
0.50097686

>  <BCUT_PEOE_3>
2.7591748

>  <BCUT_SLOGP_0>
-2.8543293

>  <BCUT_SLOGP_1>
-0.47659567

>  <BCUT_SLOGP_2>
0.55174327

>  <BCUT_SLOGP_3>
2.7654002

>  <BCUT_SMR_0>
-2.528693

>  <BCUT_SMR_1>
-0.3254829

>  <BCUT_SMR_2>
0.63137066

>  <BCUT_SMR_3>
3.0127945

>  <bpol>
51.047451

>  <b_1rotN>
10

>  <b_1rotR>
0.27027026

>  <b_ar>
6

>  <b_count>
73

>  <b_double>
3

>  <b_heavy>
37

>  <b_max1len>
7

>  <b_rotN>
10

>  <b_rotR>
0.27027026

>  <b_single>
64

>  <b_triple>
0

>  <chi0>
25.750347

>  <chi0v>
21.052385

>  <chi0v_C>
14.698306

>  <chi0_C>
15.551678

>  <chi1>
16.490908

>  <chi1v>
13.443157

>  <chi1v_C>
7.7791109

>  <chi1_C>
8.6622686

>  <chiral>
4

>  <chiral_u>
1

>  <density>
0.77634567

>  <diameter>
14

>  <FCharge>
0

>  <GCUT_PEOE_0>
-0.84209442

>  <GCUT_PEOE_1>
-0.40348223

>  <GCUT_PEOE_2>
0.051966861

>  <GCUT_PEOE_3>
2.9921403

>  <GCUT_SLOGP_0>
-1.3840773

>  <GCUT_SLOGP_1>
-0.34803572

>  <GCUT_SLOGP_2>
0.11304042

>  <GCUT_SLOGP_3>
2.9801548

>  <GCUT_SMR_0>
-0.53070343

>  <GCUT_SMR_1>
-0.21177189

>  <GCUT_SMR_2>
0.16851088

>  <GCUT_SMR_3>
3.241353

>  <Kier1>
29.554419

>  <Kier2>
13.181203

>  <Kier3>
7.9926538

>  <KierA1>
25.005802

>  <KierA2>
11.095103

>  <KierA3>
6.7026186

>  <KierFlex>
7.9269133

>  <lip_acc>
11

>  <lip_don>
7

>  <lip_druglike>
0

>  <lip_violation>
3

>  <logP(o/w)>
1.615

>  <logS>
-3.6626

>  <mr>
13.255756

>  <mutagenic>
0

>  <nmol>
1

>  <opr_brigid>
18

>  <opr_leadlike>
0

>  <opr_nring>
3

>  <opr_nrot>
11

>  <opr_violation>
4

>  <PC+>
0

>  <PC->
0

>  <PEOE_PC+>
3.578469

>  <PEOE_PC->
-3.578469

>  <PEOE_RPC+>
0.08382941

>  <PEOE_RPC->
0.10343157

>  <PEOE_VSA+0>
160.04137

>  <PEOE_VSA+1>
37.357288

>  <PEOE_VSA+2>
18.464525

>  <PEOE_VSA+3>
50.157627

>  <PEOE_VSA+4>
23.273705

>  <PEOE_VSA+5>
18.893101

>  <PEOE_VSA+6>
0

>  <PEOE_VSA-0>
45.715107

>  <PEOE_VSA-1>
62.005161

>  <PEOE_VSA-2>
0

>  <PEOE_VSA-3>
2.5295215

>  <PEOE_VSA-4>
32.016521

>  <PEOE_VSA-5>
32.953308

>  <PEOE_VSA-6>
21.069778

>  <PEOE_VSA_FHYD>
0.74586272

>  <PEOE_VSA_FNEG>
0.38909483

>  <PEOE_VSA_FPNEG>
0.17055209

>  <PEOE_VSA_FPOL>
0.25413728

>  <PEOE_VSA_FPOS>
0.61090517

>  <PEOE_VSA_FPPOS>
0.083585188

>  <PEOE_VSA_HYD>
376.2706

>  <PEOE_VSA_NEG>
196.2894

>  <PEOE_VSA_PNEG>
86.039612

>  <PEOE_VSA_POL>
128.20642

>  <PEOE_VSA_POS>
308.18762

>  <PEOE_VSA_PPOS>
42.166805

>  <petitjean>
0.5

>  <petitjeanSC>
1

>  <Q_PC+>
0

>  <Q_PC->
0

>  <Q_RPC+>
0

>  <Q_RPC->
0

>  <Q_VSA_FHYD>
1

>  <Q_VSA_FNEG>
0

>  <Q_VSA_FPNEG>
0

>  <Q_VSA_FPOL>
0

>  <Q_VSA_FPOS>
1

>  <Q_VSA_FPPOS>
0

>  <Q_VSA_HYD>
504.47702

>  <Q_VSA_NEG>
0

>  <Q_VSA_PNEG>
0

>  <Q_VSA_POL>
0

>  <Q_VSA_POS>
504.47702

>  <Q_VSA_PPOS>
0

>  <radius>
7

>  <reactive>
0

>  <rings>
3

>  <RPC+>
0

>  <RPC->
0

>  <rsynth>
1

>  <SlogP>
0.70287001

>  <SlogP_VSA0>
82.199371

>  <SlogP_VSA1>
84.210091

>  <SlogP_VSA2>
62.329113

>  <SlogP_VSA3>
80.703964

>  <SlogP_VSA4>
12.007167

>  <SlogP_VSA5>
37.20467

>  <SlogP_VSA6>
0

>  <SlogP_VSA7>
52.929554

>  <SlogP_VSA8>
75.473625

>  <SlogP_VSA9>
69.408775

>  <SMR>
13.33548

>  <SMR_VSA0>
95.896118

>  <SMR_VSA1>
19.909843

>  <SMR_VSA2>
52.162552

>  <SMR_VSA3>
11.149512

>  <SMR_VSA4>
86.561874

>  <SMR_VSA5>
147.27158

>  <SMR_VSA6>
70.222076

>  <SMR_VSA7>
73.29277

>  <TPSA>
180.21001

>  <VAdjEq>
0.32906306

>  <VAdjMa>
6.2094536

>  <VDistEq>
3.6136901

>  <VDistMa>
10.008429

>  <vdw_area>
504.47702

>  <vdw_vol>
655.17719

>  <vsa_acc>
51.266022

>  <vsa_acid>
0

>  <vsa_base>
0

>  <vsa_don>
49.242764

>  <vsa_hyd>
277.09225

>  <vsa_other>
53.445213

>  <vsa_pol>
127.64262

>  <Weight>
508.64398

>  <weinerPath>
3704

>  <weinerPol>
57

>  <zagreb>
180

$$$$