S(OC1C(OS(O)(=O)=O)C(OCC1OC1OCC(O)C(OS(O)(=O)=O)C1OS(O)(=O)=O)O)(O)(=O)=O
  MOE2013           2D

 35 36  0  0  1  0  0  0  0  0999 V2000
    0.0000    0.0000    0.0000 S   0  0  0  0  0  0  0  0  0  0  0  0
    1.2990   -0.7500    0.0000 O   0  0  0  0  0  0  0  0  0  0  0  0
    1.2990   -2.2500    0.0000 C   0  0  3  0  0  0  0  0  0  0  0  0
    0.0000   -3.0000    0.0000 C   0  0  3  0  0  0  0  0  0  0  0  0
   -1.2990   -2.2500    0.0000 O   0  0  0  0  0  0  0  0  0  0  0  0
   -2.5980   -3.0000    0.0000 S   0  0  0  0  0  0  0  0  0  0  0  0
   -3.8970   -3.7500    0.0000 O   0  0  0  0  0  0  0  0  0  0  0  0
   -3.3480   -1.7010    0.0000 O   0  0  0  0  0  0  0  0  0  0  0  0
   -1.8480   -4.2990    0.0000 O   0  0  0  0  0  0  0  0  0  0  0  0
    0.0000   -4.5000    0.0000 C   0  0  3  0  0  0  0  0  0  0  0  0
    1.2990   -5.2500    0.0000 O   0  0  0  0  0  0  0  0  0  0  0  0
    2.5980   -4.5000    0.0000 C   0  0  0  0  0  0  0  0  0  0  0  0
    2.5980   -3.0000    0.0000 C   0  0  3  0  0  0  0  0  0  0  0  0
    3.8970   -2.2500    0.0000 O   0  0  0  0  0  0  0  0  0  0  0  0
    5.1960   -3.0000    0.0000 C   0  0  3  0  0  0  0  0  0  0  0  0
    5.1960   -4.5000    0.0000 O   0  0  0  0  0  0  0  0  0  0  0  0
    6.4950   -5.2500    0.0000 C   0  0  0  0  0  0  0  0  0  0  0  0
    7.7940   -4.5000    0.0000 C   0  0  3  0  0  0  0  0  0  0  0  0
    9.0930   -5.2500    0.0000 O   0  0  0  0  0  0  0  0  0  0  0  0
    7.7940   -3.0000    0.0000 C   0  0  3  0  0  0  0  0  0  0  0  0
    9.0930   -2.2500    0.0000 O   0  0  0  0  0  0  0  0  0  0  0  0
   10.3920   -3.0000    0.0000 S   0  0  0  0  0  0  0  0  0  0  0  0
   11.6910   -3.7500    0.0000 O   0  0  0  0  0  0  0  0  0  0  0  0
    9.6420   -4.2990    0.0000 O   0  0  0  0  0  0  0  0  0  0  0  0
   11.1420   -1.7010    0.0000 O   0  0  0  0  0  0  0  0  0  0  0  0
    6.4950   -2.2500    0.0000 C   0  0  3  0  0  0  0  0  0  0  0  0
    6.4950   -0.7500    0.0000 O   0  0  0  0  0  0  0  0  0  0  0  0
    7.7940    0.0000    0.0000 S   0  0  0  0  0  0  0  0  0  0  0  0
    9.0930    0.7500    0.0000 O   0  0  0  0  0  0  0  0  0  0  0  0
    7.0440    1.2990    0.0000 O   0  0  0  0  0  0  0  0  0  0  0  0
    8.5440   -1.2990    0.0000 O   0  0  0  0  0  0  0  0  0  0  0  0
   -1.2990   -5.2500    0.0000 O   0  0  0  0  0  0  0  0  0  0  0  0
   -1.2990    0.7500    0.0000 O   0  0  0  0  0  0  0  0  0  0  0  0
   -0.7500   -1.2990    0.0000 O   0  0  0  0  0  0  0  0  0  0  0  0
    0.7500    1.2990    0.0000 O   0  0  0  0  0  0  0  0  0  0  0  0
  1  2  1  0  0  0  0
  1 33  1  0  0  0  0
  1 34  2  0  0  0  0
  1 35  2  0  0  0  0
  2  3  1  0  0  0  0
  3  4  1  0  0  0  0
  3 13  1  0  0  0  0
  4  5  1  0  0  0  0
  4 10  1  0  0  0  0
  5  6  1  0  0  0  0
  6  7  1  0  0  0  0
  6  8  2  0  0  0  0
  6  9  2  0  0  0  0
 10 11  1  0  0  0  0
 10 32  1  0  0  0  0
 11 12  1  0  0  0  0
 12 13  1  0  0  0  0
 13 14  1  0  0  0  0
 14 15  1  0  0  0  0
 15 16  1  0  0  0  0
 15 26  1  0  0  0  0
 16 17  1  0  0  0  0
 17 18  1  0  0  0  0
 18 19  1  0  0  0  0
 18 20  1  0  0  0  0
 20 21  1  0  0  0  0
 20 26  1  0  0  0  0
 21 22  1  0  0  0  0
 22 23  1  0  0  0  0
 22 24  2  0  0  0  0
 22 25  2  0  0  0  0
 26 27  1  0  0  0  0
 27 28  1  0  0  0  0
 28 29  1  0  0  0  0
 28 30  2  0  0  0  0
 28 31  2  0  0  0  0
M  END
>  <Index>
835

>  <ID>
HT1625

>  <class>
0

>  <apol>
58.044273

>  <ast_fraglike>
0

>  <ast_fraglike_ext>
0

>  <ast_violation>
3

>  <ast_violation_ext>
5

>  <a_acc>
21

>  <a_acid>
0

>  <a_aro>
0

>  <a_base>
0

>  <a_count>
53

>  <a_don>
14

>  <a_donacc>
35

>  <a_heavy>
35

>  <a_hyd>
8

>  <a_IC>
95.063187

>  <a_ICM>
1.793645

>  <a_nB>
0

>  <a_nBr>
0

>  <a_nC>
10

>  <a_nCl>
0

>  <a_nF>
0

>  <a_nH>
18

>  <a_nI>
0

>  <a_nN>
0

>  <a_nO>
21

>  <a_nP>
0

>  <a_nS>
4

>  <balabanJ>
2.3619804

>  <BCUT_PEOE_0>
-2.7365766

>  <BCUT_PEOE_1>
-0.63754886

>  <BCUT_PEOE_2>
0.70479429

>  <BCUT_PEOE_3>
2.8048499

>  <BCUT_SLOGP_0>
-2.9120612

>  <BCUT_SLOGP_1>
-0.72029781

>  <BCUT_SLOGP_2>
0.62043762

>  <BCUT_SLOGP_3>
2.6195469

>  <BCUT_SMR_0>
-2.5312862

>  <BCUT_SMR_1>
-0.50705415

>  <BCUT_SMR_2>
0.80822861

>  <BCUT_SMR_3>
3.0029707

>  <bpol>
58.993725

>  <b_1rotN>
10

>  <b_1rotR>
0.27777779

>  <b_ar>
0

>  <b_count>
54

>  <b_double>
0

>  <b_heavy>
36

>  <b_max1len>
5

>  <b_rotN>
10

>  <b_rotR>
0.27777779

>  <b_single>
54

>  <b_triple>
0

>  <chi0>
26.982763

>  <chi0v>
19.739

>  <chi0v_C>
6.0330157

>  <chi0_C>
6.0330157

>  <chi1>
15.651397

>  <chi1v>
13.986753

>  <chi1v_C>
2.8164966

>  <chi1_C>
2.8164966

>  <chiral>
8

>  <chiral_u>
8

>  <density>
1.1876922

>  <diameter>
12

>  <FCharge>
0

>  <GCUT_PEOE_0>
-0.7840054

>  <GCUT_PEOE_1>
-0.41130322

>  <GCUT_PEOE_2>
0.11258526

>  <GCUT_PEOE_3>
2.8725193

>  <GCUT_SLOGP_0>
-0.93993986

>  <GCUT_SLOGP_1>
-0.54562801

>  <GCUT_SLOGP_2>
0.069793262

>  <GCUT_SLOGP_3>
2.7424765

>  <GCUT_SMR_0>
-0.52235484

>  <GCUT_SMR_1>
-0.20761766

>  <GCUT_SMR_2>
0.18648204

>  <GCUT_SMR_3>
3.0792146

>  <Kier1>
31.219135

>  <Kier2>
11.396122

>  <Kier3>
10.349584

>  <KierA1>
37

>  <KierA2>
13.573407

>  <KierA3>
12.370987

>  <KierFlex>
14.34903

>  <lip_acc>
21

>  <lip_don>
6

>  <lip_druglike>
0

>  <lip_violation>
3

>  <logP(o/w)>
-5.91504

>  <logS>
-0.77296001

>  <mr>
9.7669067

>  <mutagenic>
0

>  <nmol>
1

>  <opr_brigid>
12

>  <opr_leadlike>
0

>  <opr_nring>
2

>  <opr_nrot>
14

>  <opr_violation>
5

>  <PC+>
0

>  <PC->
0

>  <PEOE_PC+>
3.9262006

>  <PEOE_PC->
-3.9262006

>  <PEOE_RPC+>
0.068380639

>  <PEOE_RPC->
0.09904898

>  <PEOE_VSA+0>
17.061544

>  <PEOE_VSA+1>
73.835533

>  <PEOE_VSA+2>
60.916405

>  <PEOE_VSA+3>
22.309816

>  <PEOE_VSA+4>
20.648346

>  <PEOE_VSA+5>
66.051071

>  <PEOE_VSA+6>
0

>  <PEOE_VSA-0>
0

>  <PEOE_VSA-1>
128.06609

>  <PEOE_VSA-2>
0

>  <PEOE_VSA-3>
19.780388

>  <PEOE_VSA-4>
40.835526

>  <PEOE_VSA-5>
0

>  <PEOE_VSA-6>
23.046349

>  <PEOE_VSA_FHYD>
0.68134391

>  <PEOE_VSA_FNEG>
0.44805393

>  <PEOE_VSA_FPNEG>
0.13518512

>  <PEOE_VSA_FPOL>
0.31865612

>  <PEOE_VSA_FPOS>
0.5519461

>  <PEOE_VSA_FPPOS>
0.18347099

>  <PEOE_VSA_HYD>
321.96979

>  <PEOE_VSA_NEG>
211.72835

>  <PEOE_VSA_PNEG>
63.881874

>  <PEOE_VSA_POL>
150.58128

>  <PEOE_VSA_POS>
260.82272

>  <PEOE_VSA_PPOS>
86.699417

>  <petitjean>
0.5

>  <petitjeanSC>
1

>  <Q_PC+>
0

>  <Q_PC->
0

>  <Q_RPC+>
0

>  <Q_RPC->
0

>  <Q_VSA_FHYD>
1

>  <Q_VSA_FNEG>
0

>  <Q_VSA_FPNEG>
0

>  <Q_VSA_FPOL>
0

>  <Q_VSA_FPOS>
1

>  <Q_VSA_FPPOS>
0

>  <Q_VSA_HYD>
472.55106

>  <Q_VSA_NEG>
0

>  <Q_VSA_PNEG>
0

>  <Q_VSA_POL>
0

>  <Q_VSA_POS>
472.55106

>  <Q_VSA_PPOS>
0

>  <radius>
6

>  <reactive>
1

>  <rings>
2

>  <RPC+>
0

>  <RPC->
0

>  <rsynth>
1

>  <SlogP>
-7.0734

>  <SlogP_VSA0>
142.49347

>  <SlogP_VSA1>
192.68675

>  <SlogP_VSA2>
164.19434

>  <SlogP_VSA3>
41.852516

>  <SlogP_VSA4>
0

>  <SlogP_VSA5>
0

>  <SlogP_VSA6>
0

>  <SlogP_VSA7>
0

>  <SlogP_VSA8>
0

>  <SlogP_VSA9>
0

>  <SMR>
9.6625004

>  <SMR_VSA0>
259.86807

>  <SMR_VSA1>
142.49347

>  <SMR_VSA2>
0

>  <SMR_VSA3>
55.864899

>  <SMR_VSA4>
0

>  <SMR_VSA5>
0

>  <SMR_VSA6>
41.852516

>  <SMR_VSA7>
41.148121

>  <TPSA>
322.54999

>  <VAdjEq>
0.32256484

>  <VAdjMa>
6.1699252

>  <VDistEq>
3.474793

>  <VDistMa>
10.024211

>  <vdw_area>
472.55106

>  <vdw_vol>
507.28381

>  <vsa_acc>
27.291656

>  <vsa_acid>
0

>  <vsa_base>
0

>  <vsa_don>
0

>  <vsa_hyd>
94.868065

>  <vsa_other>
95.468063

>  <vsa_pol>
246.52464

>  <Weight>
602.49701

>  <weinerPath>
3488

>  <weinerPol>
52

>  <zagreb>
186

$$$$