Clc1ccc(OC(C(OCc2nc(ccc2)CO)=O)(C)C)cc1
  MOE2013           2D

 23 24  0  0  0  0  0  0  0  0999 V2000
    0.0000    0.0000    0.0000 Cl  0  0  0  0  0  0  0  0  0  0  0  0
    1.4200    0.4830    0.0000 C   0  0  0  0  0  0  0  0  0  0  0  0
    2.5480   -0.5060    0.0000 C   0  0  0  0  0  0  0  0  0  0  0  0
    3.9690   -0.0230    0.0000 C   0  0  0  0  0  0  0  0  0  0  0  0
    4.2610    1.4480    0.0000 C   0  0  0  0  0  0  0  0  0  0  0  0
    5.6810    1.9310    0.0000 O   0  0  0  0  0  0  0  0  0  0  0  0
    6.8090    0.9420    0.0000 C   0  0  0  0  0  0  0  0  0  0  0  0
    7.9370   -0.0470    0.0000 C   0  0  0  0  0  0  0  0  0  0  0  0
    9.3570    0.4360    0.0000 O   0  0  0  0  0  0  0  0  0  0  0  0
   10.4850   -0.5530    0.0000 C   0  0  0  0  0  0  0  0  0  0  0  0
   11.9060   -0.0700    0.0000 C   0  0  0  0  0  0  0  0  0  0  0  0
   13.0340   -1.0590    0.0000 N   0  0  0  0  0  0  0  0  0  0  0  0
   14.4540   -0.5760    0.0000 C   0  0  0  0  0  0  0  0  0  0  0  0
   14.7460    0.8950    0.0000 C   0  0  0  0  0  0  0  0  0  0  0  0
   13.6180    1.8840    0.0000 C   0  0  0  0  0  0  0  0  0  0  0  0
   12.1980    1.4010    0.0000 C   0  0  0  0  0  0  0  0  0  0  0  0
   15.5820   -1.5650    0.0000 C   0  0  0  0  0  0  0  0  0  0  0  0
   17.0020   -1.0820    0.0000 O   0  0  0  0  0  0  0  0  0  0  0  0
    7.6450   -1.5180    0.0000 O   0  0  0  0  0  0  0  0  0  0  0  0
    5.8200   -0.1860    0.0000 C   0  0  0  0  0  0  0  0  0  0  0  0
    7.7980    2.0700    0.0000 C   0  0  0  0  0  0  0  0  0  0  0  0
    3.1330    2.4370    0.0000 C   0  0  0  0  0  0  0  0  0  0  0  0
    1.7120    1.9540    0.0000 C   0  0  0  0  0  0  0  0  0  0  0  0
  1  2  1  0  0  0  0
  2  3  1  0  0  0  0
  2 23  2  0  0  0  0
  3  4  2  0  0  0  0
  4  5  1  0  0  0  0
  5  6  1  0  0  0  0
  5 22  2  0  0  0  0
  6  7  1  0  0  0  0
  7  8  1  0  0  0  0
  7 20  1  0  0  0  0
  7 21  1  0  0  0  0
  8  9  1  0  0  0  0
  8 19  2  0  0  0  0
  9 10  1  0  0  0  0
 10 11  1  0  0  0  0
 11 12  1  0  0  0  0
 11 16  2  0  0  0  0
 12 13  2  0  0  0  0
 13 14  1  0  0  0  0
 13 17  1  0  0  0  0
 14 15  2  0  0  0  0
 15 16  1  0  0  0  0
 17 18  1  0  0  0  0
 22 23  1  0  0  0  0
M  END
>  <Index>
872

>  <ID>
HT1694

>  <class>
0

>  <apol>
48.410275

>  <ast_fraglike>
0

>  <ast_fraglike_ext>
0

>  <ast_violation>
3

>  <ast_violation_ext>
4

>  <a_acc>
4

>  <a_acid>
0

>  <a_aro>
12

>  <a_base>
0

>  <a_count>
41

>  <a_don>
1

>  <a_donacc>
5

>  <a_heavy>
23

>  <a_hyd>
17

>  <a_IC>
67.114113

>  <a_ICM>
1.6369296

>  <a_nB>
0

>  <a_nBr>
0

>  <a_nC>
17

>  <a_nCl>
1

>  <a_nF>
0

>  <a_nH>
18

>  <a_nI>
0

>  <a_nN>
1

>  <a_nO>
4

>  <a_nP>
0

>  <a_nS>
0

>  <balabanJ>
1.736167

>  <BCUT_PEOE_0>
-2.5162268

>  <BCUT_PEOE_1>
-0.60344231

>  <BCUT_PEOE_2>
0.64766139

>  <BCUT_PEOE_3>
2.5857954

>  <BCUT_SLOGP_0>
-2.604372

>  <BCUT_SLOGP_1>
-0.50475544

>  <BCUT_SLOGP_2>
0.64367342

>  <BCUT_SLOGP_3>
2.5391724

>  <BCUT_SMR_0>
-2.2994187

>  <BCUT_SMR_1>
-0.45390159

>  <BCUT_SMR_2>
0.82997805

>  <BCUT_SMR_3>
2.7954488

>  <bpol>
26.207726

>  <b_1rotN>
6

>  <b_1rotR>
0.25

>  <b_ar>
12

>  <b_count>
42

>  <b_double>
1

>  <b_heavy>
24

>  <b_max1len>
4

>  <b_rotN>
7

>  <b_rotR>
0.29166666

>  <b_single>
29

>  <b_triple>
0

>  <chi0>
16.872032

>  <chi0v>
13.708731

>  <chi0v_C>
10.455666

>  <chi0_C>
11.750712

>  <chi1>
10.903015

>  <chi1v>
7.4580507

>  <chi1v_C>
5.022491

>  <chi1_C>
6.5546613

>  <chiral>
0

>  <chiral_u>
0

>  <density>
0.7839573

>  <diameter>
14

>  <FCharge>
0

>  <GCUT_PEOE_0>
-0.7813592

>  <GCUT_PEOE_1>
-0.38756427

>  <GCUT_PEOE_2>
0.024465445

>  <GCUT_PEOE_3>
2.4727685

>  <GCUT_SLOGP_0>
-0.93298435

>  <GCUT_SLOGP_1>
-0.26372683

>  <GCUT_SLOGP_2>
0.1061574

>  <GCUT_SLOGP_3>
2.5419352

>  <GCUT_SMR_0>
-0.51382416

>  <GCUT_SMR_1>
-0.20326121

>  <GCUT_SMR_2>
0.19791688

>  <GCUT_SMR_3>
2.7192142

>  <Kier1>
19.326389

>  <Kier2>
8.909091

>  <Kier3>
6.094183

>  <KierA1>
15.813047

>  <KierA2>
7.2187676

>  <KierA3>
4.9015355

>  <KierFlex>
4.9630747

>  <lip_acc>
5

>  <lip_don>
1

>  <lip_druglike>
1

>  <lip_violation>
0

>  <logP(o/w)>
2.7997401

>  <logS>
-3.8187599

>  <mr>
8.9628639

>  <mutagenic>
0

>  <nmol>
1

>  <opr_brigid>
12

>  <opr_leadlike>
1

>  <opr_nring>
2

>  <opr_nrot>
6

>  <opr_violation>
0

>  <PC+>
0

>  <PC->
0

>  <PEOE_PC+>
1.9508286

>  <PEOE_PC->
-1.9508286

>  <PEOE_RPC+>
0.15106533

>  <PEOE_RPC->
0.19935173

>  <PEOE_VSA+0>
30.112062

>  <PEOE_VSA+1>
98.679451

>  <PEOE_VSA+2>
0

>  <PEOE_VSA+3>
0

>  <PEOE_VSA+4>
10.324173

>  <PEOE_VSA+5>
14.708499

>  <PEOE_VSA+6>
0

>  <PEOE_VSA-0>
111.02478

>  <PEOE_VSA-1>
41.836849

>  <PEOE_VSA-2>
0

>  <PEOE_VSA-3>
0

>  <PEOE_VSA-4>
0

>  <PEOE_VSA-5>
19.249496

>  <PEOE_VSA-6>
12.775052

>  <PEOE_VSA_FHYD>
0.83154571

>  <PEOE_VSA_FNEG>
0.54585332

>  <PEOE_VSA_FPNEG>
0.094548479

>  <PEOE_VSA_FPOL>
0.1684543

>  <PEOE_VSA_FPOS>
0.45414668

>  <PEOE_VSA_FPPOS>
0.073905833

>  <PEOE_VSA_HYD>
281.65314

>  <PEOE_VSA_NEG>
184.88618

>  <PEOE_VSA_PNEG>
32.024548

>  <PEOE_VSA_POL>
57.05722

>  <PEOE_VSA_POS>
153.82419

>  <PEOE_VSA_PPOS>
25.032671

>  <petitjean>
0.5

>  <petitjeanSC>
1

>  <Q_PC+>
0

>  <Q_PC->
0

>  <Q_RPC+>
0

>  <Q_RPC->
0

>  <Q_VSA_FHYD>
1

>  <Q_VSA_FNEG>
0

>  <Q_VSA_FPNEG>
0

>  <Q_VSA_FPOL>
0

>  <Q_VSA_FPOS>
1

>  <Q_VSA_FPPOS>
0

>  <Q_VSA_HYD>
338.71036

>  <Q_VSA_NEG>
0

>  <Q_VSA_PNEG>
0

>  <Q_VSA_POL>
0

>  <Q_VSA_POS>
338.71036

>  <Q_VSA_PPOS>
0

>  <radius>
7

>  <reactive>
0

>  <rings>
2

>  <RPC+>
0

>  <RPC->
0

>  <rsynth>
1

>  <SlogP>
3.6609001

>  <SlogP_VSA0>
36.385113

>  <SlogP_VSA1>
24.530994

>  <SlogP_VSA2>
34.862103

>  <SlogP_VSA3>
0

>  <SlogP_VSA4>
5.513495

>  <SlogP_VSA5>
0

>  <SlogP_VSA6>
3.5006065

>  <SlogP_VSA7>
123.50229

>  <SlogP_VSA8>
0

>  <SlogP_VSA9>
152.89662

>  <SMR>
8.6524801

>  <SMR_VSA0>
34.862103

>  <SMR_VSA1>
53.170643

>  <SMR_VSA2>
0

>  <SMR_VSA3>
14.257529

>  <SMR_VSA4>
0

>  <SMR_VSA5>
165.35481

>  <SMR_VSA6>
7.7454643

>  <SMR_VSA7>
105.80067

>  <TPSA>
68.650002

>  <VAdjEq>
0.43892586

>  <VAdjMa>
5.5849624

>  <VDistEq>
3.5367839

>  <VDistMa>
8.7245226

>  <vdw_area>
338.71036

>  <vdw_vol>
428.32306

>  <vsa_acc>
21.753254

>  <vsa_acid>
0

>  <vsa_base>
0

>  <vsa_don>
0

>  <vsa_hyd>
269.55261

>  <vsa_other>
17.212255

>  <vsa_pol>
35.320175

>  <Weight>
335.78699

>  <weinerPath>
1360

>  <weinerPol>
32

>  <zagreb>
114

$$$$