n1ccc(NC(=N/C(C(C)(C)C)C)NC#N)cc1
  MOE2013           2D

 18 18  0  0  1  0  0  0  0  0999 V2000
    0.0000    0.0000    0.0000 N   0  0  0  0  0  0  0  0  0  0  0  0
   -0.7610    1.2930    0.0000 C   0  0  0  0  0  0  0  0  0  0  0  0
   -2.2610    1.2800    0.0000 C   0  0  0  0  0  0  0  0  0  0  0  0
   -3.0000   -0.0260    0.0000 C   0  0  0  0  0  0  0  0  0  0  0  0
   -4.5000   -0.0390    0.0000 N   0  0  0  0  0  0  0  0  0  0  0  0
   -5.2610    1.2540    0.0000 C   0  0  0  0  0  0  0  0  0  0  0  0
   -6.7610    1.2410    0.0000 N   0  0  0  0  0  0  0  0  0  0  0  0
   -7.5000   -0.0650    0.0000 C   0  0  3  0  0  0  0  0  0  0  0  0
   -9.0000   -0.0780    0.0000 C   0  0  0  0  0  0  0  0  0  0  0  0
   -8.9870   -1.5780    0.0000 C   0  0  0  0  0  0  0  0  0  0  0  0
  -10.5000   -0.0910    0.0000 C   0  0  0  0  0  0  0  0  0  0  0  0
   -9.0130    1.4220    0.0000 C   0  0  0  0  0  0  0  0  0  0  0  0
   -6.7390   -1.3570    0.0000 C   0  0  0  0  0  0  0  0  0  0  0  0
   -4.5220    2.5590    0.0000 N   0  0  0  0  0  0  0  0  0  0  0  0
   -5.2830    3.8520    0.0000 C   0  0  0  0  0  0  0  0  0  0  0  0
   -6.0450    5.1440    0.0000 N   0  0  0  0  0  0  0  0  0  0  0  0
   -2.2390   -1.3180    0.0000 C   0  0  0  0  0  0  0  0  0  0  0  0
   -0.7390   -1.3050    0.0000 C   0  0  0  0  0  0  0  0  0  0  0  0
  1  2  1  0  0  0  0
  1 18  2  0  0  0  0
  2  3  2  0  0  0  0
  3  4  1  0  0  0  0
  4  5  1  0  0  0  0
  4 17  2  0  0  0  0
  5  6  1  0  0  0  0
  6  7  2  3  0  0  0
  6 14  1  0  0  0  0
  7  8  1  0  0  0  0
  8  9  1  0  0  0  0
  8 13  1  0  0  0  0
  9 10  1  0  0  0  0
  9 11  1  0  0  0  0
  9 12  1  0  0  0  0
 14 15  1  0  0  0  0
 15 16  3  0  0  0  0
 17 18  1  0  0  0  0
M  END
>  <Index>
864

>  <ID>
HT1675

>  <class>
0

>  <apol>
41.049068

>  <ast_fraglike>
1

>  <ast_fraglike_ext>
0

>  <ast_violation>
0

>  <ast_violation_ext>
1

>  <a_acc>
3

>  <a_acid>
0

>  <a_aro>
6

>  <a_base>
0

>  <a_count>
37

>  <a_don>
2

>  <a_donacc>
5

>  <a_heavy>
18

>  <a_hyd>
11

>  <a_IC>
52.323795

>  <a_ICM>
1.4141567

>  <a_nB>
0

>  <a_nBr>
0

>  <a_nC>
13

>  <a_nCl>
0

>  <a_nF>
0

>  <a_nH>
19

>  <a_nI>
0

>  <a_nN>
5

>  <a_nO>
0

>  <a_nP>
0

>  <a_nS>
0

>  <balabanJ>
2.4372406

>  <BCUT_PEOE_0>
-2.7101309

>  <BCUT_PEOE_1>
-0.31180221

>  <BCUT_PEOE_2>
0.34889796

>  <BCUT_PEOE_3>
2.6755359

>  <BCUT_SLOGP_0>
-2.6627815

>  <BCUT_SLOGP_1>
-0.22797838

>  <BCUT_SLOGP_2>
0.38962844

>  <BCUT_SLOGP_3>
2.7455609

>  <BCUT_SMR_0>
-2.4654095

>  <BCUT_SMR_1>
-0.091909602

>  <BCUT_SMR_2>
0.48335171

>  <BCUT_SMR_3>
2.921325

>  <bpol>
25.390932

>  <b_1rotN>
2

>  <b_1rotR>
0.11111111

>  <b_ar>
6

>  <b_count>
37

>  <b_double>
1

>  <b_heavy>
18

>  <b_max1len>
5

>  <b_rotN>
6

>  <b_rotR>
0.33333334

>  <b_single>
29

>  <b_triple>
1

>  <chi0>
13.596012

>  <chi0v>
11.228393

>  <chi0v_C>
8.8867512

>  <chi0_C>
9.7675848

>  <chi1>
8.4308701

>  <chi1v>
5.8318524

>  <chi1v_C>
3.6100423

>  <chi1_C>
4.1825218

>  <chiral>
1

>  <chiral_u>
1

>  <density>
0.6847918

>  <diameter>
9

>  <FCharge>
0

>  <GCUT_PEOE_0>
-0.81631047

>  <GCUT_PEOE_1>
-0.35364509

>  <GCUT_PEOE_2>
0.035173472

>  <GCUT_PEOE_3>
2.5232563

>  <GCUT_SLOGP_0>
-1.1481107

>  <GCUT_SLOGP_1>
-0.26386139

>  <GCUT_SLOGP_2>
0.052554958

>  <GCUT_SLOGP_3>
2.5863817

>  <GCUT_SMR_0>
-0.5309363

>  <GCUT_SMR_1>
-0.13091548

>  <GCUT_SMR_2>
0.12921412

>  <GCUT_SMR_3>
2.7743938

>  <Kier1>
16.055555

>  <Kier2>
7.5555553

>  <Kier3>
6.1440001

>  <KierA1>
11.242179

>  <KierA2>
5.1686025

>  <KierA3>
4.1307964

>  <KierFlex>
3.2281306

>  <lip_acc>
5

>  <lip_don>
2

>  <lip_druglike>
1

>  <lip_violation>
0

>  <logP(o/w)>
2.2679999

>  <logS>
-1.95788

>  <mr>
7.1718202

>  <mutagenic>
0

>  <nmol>
1

>  <opr_brigid>
7

>  <opr_leadlike>
1

>  <opr_nring>
1

>  <opr_nrot>
6

>  <opr_violation>
0

>  <PC+>
0

>  <PC->
0

>  <PEOE_PC+>
1.5428436

>  <PEOE_PC->
-1.5428436

>  <PEOE_RPC+>
0.13666342

>  <PEOE_RPC->
0.2108908

>  <PEOE_VSA+0>
91.376015

>  <PEOE_VSA+1>
24.472891

>  <PEOE_VSA+2>
0

>  <PEOE_VSA+3>
42.028545

>  <PEOE_VSA+4>
15.681574

>  <PEOE_VSA+5>
0

>  <PEOE_VSA+6>
0

>  <PEOE_VSA-0>
43.257484

>  <PEOE_VSA-1>
56.243034

>  <PEOE_VSA-2>
0

>  <PEOE_VSA-3>
17.742489

>  <PEOE_VSA-4>
5.6825762

>  <PEOE_VSA-5>
5.8194671

>  <PEOE_VSA-6>
0.13689101

>  <PEOE_VSA_FHYD>
0.90966666

>  <PEOE_VSA_FNEG>
0.42613918

>  <PEOE_VSA_FPNEG>
0.038483325

>  <PEOE_VSA_FPOL>
0.090333357

>  <PEOE_VSA_FPOS>
0.57386082

>  <PEOE_VSA_FPPOS>
0.051850032

>  <PEOE_VSA_HYD>
275.12045

>  <PEOE_VSA_NEG>
128.88194

>  <PEOE_VSA_PNEG>
11.638934

>  <PEOE_VSA_POL>
27.320509

>  <PEOE_VSA_POS>
173.55902

>  <PEOE_VSA_PPOS>
15.681574

>  <petitjean>
0.44444445

>  <petitjeanSC>
0.80000001

>  <Q_PC+>
0

>  <Q_PC->
0

>  <Q_RPC+>
0

>  <Q_RPC->
0

>  <Q_VSA_FHYD>
1

>  <Q_VSA_FNEG>
0

>  <Q_VSA_FPNEG>
0

>  <Q_VSA_FPOL>
0

>  <Q_VSA_FPOS>
1

>  <Q_VSA_FPPOS>
0

>  <Q_VSA_HYD>
302.44098

>  <Q_VSA_NEG>
0

>  <Q_VSA_PNEG>
0

>  <Q_VSA_POL>
0

>  <Q_VSA_POS>
302.44098

>  <Q_VSA_PPOS>
0

>  <radius>
5

>  <reactive>
0

>  <rings>
1

>  <RPC+>
0

>  <RPC->
0

>  <rsynth>
1

>  <SlogP>
2.354784

>  <SlogP_VSA0>
18.01075

>  <SlogP_VSA1>
36.695374

>  <SlogP_VSA2>
3.9819686

>  <SlogP_VSA3>
47.232273

>  <SlogP_VSA4>
0

>  <SlogP_VSA5>
16.78553

>  <SlogP_VSA6>
0

>  <SlogP_VSA7>
69.71508

>  <SlogP_VSA8>
0

>  <SlogP_VSA9>
136.06081

>  <SMR>
7.2960401

>  <SMR_VSA0>
0

>  <SMR_VSA1>
64.630417

>  <SMR_VSA2>
18.01075

>  <SMR_VSA3>
20.154888

>  <SMR_VSA4>
20.767498

>  <SMR_VSA5>
69.71508

>  <SMR_VSA6>
1.8990928

>  <SMR_VSA7>
133.30406

>  <TPSA>
73.099998

>  <VAdjEq>
0.50325835

>  <VAdjMa>
5.1699252

>  <VDistEq>
3.0393214

>  <VDistMa>
8.0511703

>  <vdw_area>
302.44098

>  <vdw_vol>
358.25488

>  <vsa_acc>
29.107641

>  <vsa_acid>
0

>  <vsa_base>
0

>  <vsa_don>
11.365152

>  <vsa_hyd>
203.2489

>  <vsa_other>
40.472092

>  <vsa_pol>
40.472794

>  <Weight>
245.33

>  <weinerPath>
651

>  <weinerPol>
22

>  <zagreb>
84

$$$$