N1CCCNCCNCCCN(CC1)Cc1ccc(cc1)CN1CCCNCCNCCCNCC1
  MOE2013           2D

 36 38  0  0  1  0  0  0  0  0999 V2000
    0.0000    0.0000    0.0000 N   0  0  0  0  0  0  0  0  0  0  0  0
    1.2890    0.5810    0.0000 C   0  0  0  0  0  0  0  0  0  0  0  0
    1.6360    2.0340    0.0000 C   0  0  0  0  0  0  0  0  0  0  0  0
    3.0680    2.4600    0.0000 C   0  0  0  0  0  0  0  0  0  0  0  0
    3.5780    3.7790    0.0000 N   0  0  0  0  0  0  0  0  0  0  0  0
    3.1360    5.0730    0.0000 C   0  0  0  0  0  0  0  0  0  0  0  0
    2.1630    5.9850    0.0000 C   0  0  0  0  0  0  0  0  0  0  0  0
    0.8460    6.3490    0.0000 N   0  0  0  0  0  0  0  0  0  0  0  0
   -0.4430    5.7680    0.0000 C   0  0  0  0  0  0  0  0  0  0  0  0
   -0.7900    4.3150    0.0000 C   0  0  0  0  0  0  0  0  0  0  0  0
   -2.2220    3.8890    0.0000 C   0  0  0  0  0  0  0  0  0  0  0  0
   -2.7320    2.5700    0.0000 N   0  0  3  0  0  0  0  0  0  0  0  0
   -2.2900    1.2760    0.0000 C   0  0  0  0  0  0  0  0  0  0  0  0
   -1.3170    0.3640    0.0000 C   0  0  0  0  0  0  0  0  0  0  0  0
   -4.2320    2.6000    0.0000 C   0  0  0  0  0  0  0  0  0  0  0  0
   -5.0080    1.3160    0.0000 C   0  0  0  0  0  0  0  0  0  0  0  0
   -6.5070    1.3460    0.0000 C   0  0  0  0  0  0  0  0  0  0  0  0
   -7.2830    0.0620    0.0000 C   0  0  0  0  0  0  0  0  0  0  0  0
   -6.5590   -1.2510    0.0000 C   0  0  0  0  0  0  0  0  0  0  0  0
   -5.0590   -1.2810    0.0000 C   0  0  0  0  0  0  0  0  0  0  0  0
   -4.2840    0.0030    0.0000 C   0  0  0  0  0  0  0  0  0  0  0  0
   -7.3350   -2.5350    0.0000 C   0  0  0  0  0  0  0  0  0  0  0  0
   -8.8340   -2.5050    0.0000 N   0  0  3  0  0  0  0  0  0  0  0  0
   -9.3410   -3.8250    0.0000 C   0  0  0  0  0  0  0  0  0  0  0  0
  -10.7720   -4.2550    0.0000 C   0  0  0  0  0  0  0  0  0  0  0  0
  -11.1150   -5.7090    0.0000 C   0  0  0  0  0  0  0  0  0  0  0  0
  -12.4030   -6.2930    0.0000 N   0  0  0  0  0  0  0  0  0  0  0  0
  -13.7200   -5.9250    0.0000 C   0  0  0  0  0  0  0  0  0  0  0  0
  -14.6870   -5.0060    0.0000 C   0  0  0  0  0  0  0  0  0  0  0  0
  -15.1250   -3.7120    0.0000 N   0  0  0  0  0  0  0  0  0  0  0  0
  -14.6180   -2.3920    0.0000 C   0  0  0  0  0  0  0  0  0  0  0  0
  -13.1870   -1.9630    0.0000 C   0  0  0  0  0  0  0  0  0  0  0  0
  -12.8440   -0.5090    0.0000 C   0  0  0  0  0  0  0  0  0  0  0  0
  -11.5560    0.0760    0.0000 N   0  0  0  0  0  0  0  0  0  0  0  0
  -10.2390   -0.2920    0.0000 C   0  0  0  0  0  0  0  0  0  0  0  0
   -9.2730   -1.2120    0.0000 C   0  0  0  0  0  0  0  0  0  0  0  0
  1  2  1  0  0  0  0
  1 14  1  0  0  0  0
  2  3  1  0  0  0  0
  3  4  1  0  0  0  0
  4  5  1  0  0  0  0
  5  6  1  0  0  0  0
  6  7  1  0  0  0  0
  7  8  1  0  0  0  0
  8  9  1  0  0  0  0
  9 10  1  0  0  0  0
 10 11  1  0  0  0  0
 11 12  1  0  0  0  0
 12 13  1  0  0  0  0
 12 15  1  0  0  0  0
 13 14  1  0  0  0  0
 15 16  1  0  0  0  0
 16 17  1  0  0  0  0
 16 21  2  0  0  0  0
 17 18  2  0  0  0  0
 18 19  1  0  0  0  0
 19 20  2  0  0  0  0
 19 22  1  0  0  0  0
 20 21  1  0  0  0  0
 22 23  1  0  0  0  0
 23 24  1  0  0  0  0
 23 36  1  0  0  0  0
 24 25  1  0  0  0  0
 25 26  1  0  0  0  0
 26 27  1  0  0  0  0
 27 28  1  0  0  0  0
 28 29  1  0  0  0  0
 29 30  1  0  0  0  0
 30 31  1  0  0  0  0
 31 32  1  0  0  0  0
 32 33  1  0  0  0  0
 33 34  1  0  0  0  0
 34 35  1  0  0  0  0
 35 36  1  0  0  0  0
M  END
>  <Index>
879

>  <ID>
HT1703

>  <class>
0

>  <apol>
94.086823

>  <ast_fraglike>
0

>  <ast_fraglike_ext>
0

>  <ast_violation>
3

>  <ast_violation_ext>
4

>  <a_acc>
8

>  <a_acid>
0

>  <a_aro>
6

>  <a_base>
0

>  <a_count>
90

>  <a_don>
6

>  <a_donacc>
14

>  <a_heavy>
36

>  <a_hyd>
28

>  <a_IC>
114.89692

>  <a_ICM>
1.2766324

>  <a_nB>
0

>  <a_nBr>
0

>  <a_nC>
28

>  <a_nCl>
0

>  <a_nF>
0

>  <a_nH>
54

>  <a_nI>
0

>  <a_nN>
8

>  <a_nO>
0

>  <a_nP>
0

>  <a_nS>
0

>  <balabanJ>
1.3517885

>  <BCUT_PEOE_0>
-2.7365198

>  <BCUT_PEOE_1>
-0.60211176

>  <BCUT_PEOE_2>
0.64030063

>  <BCUT_PEOE_3>
2.6344767

>  <BCUT_SLOGP_0>
-2.8693848

>  <BCUT_SLOGP_1>
-0.60035419

>  <BCUT_SLOGP_2>
0.65854394

>  <BCUT_SLOGP_3>
2.6049969

>  <BCUT_SMR_0>
-2.4531088

>  <BCUT_SMR_1>
-0.48462409

>  <BCUT_SMR_2>
0.74725479

>  <BCUT_SMR_3>
2.910203

>  <bpol>
66.953178

>  <b_1rotN>
4

>  <b_1rotR>
0.10526316

>  <b_ar>
6

>  <b_count>
92

>  <b_double>
0

>  <b_heavy>
38

>  <b_max1len>
2

>  <b_rotN>
4

>  <b_rotR>
0.10526316

>  <b_single>
86

>  <b_triple>
0

>  <chi0>
24.936817

>  <chi0v>
22.760178

>  <chi0v_C>
18.865749

>  <chi0_C>
19.539476

>  <chi1>
17.898979

>  <chi1v>
14.668481

>  <chi1v_C>
8.5284739

>  <chi1_C>
9.4494896

>  <chiral>
0

>  <chiral_u>
0

>  <density>
0.65124947

>  <diameter>
21

>  <FCharge>
0

>  <GCUT_PEOE_0>
-0.85742861

>  <GCUT_PEOE_1>
-0.3847141

>  <GCUT_PEOE_2>
0.11628854

>  <GCUT_PEOE_3>
2.9898829

>  <GCUT_SLOGP_0>
-1.1595688

>  <GCUT_SLOGP_1>
-0.36739051

>  <GCUT_SLOGP_2>
0.18332317

>  <GCUT_SLOGP_3>
2.9984574

>  <GCUT_SMR_0>
-0.52446651

>  <GCUT_SMR_1>
-0.22123748

>  <GCUT_SMR_2>
0.18337837

>  <GCUT_SMR_3>
3.2350335

>  <Kier1>
30.540167

>  <Kier2>
20.89876

>  <Kier3>
15.2592

>  <KierA1>
28.561577

>  <KierA2>
19.506256

>  <KierA3>
14.22279

>  <KierFlex>
15.475817

>  <lip_acc>
8

>  <lip_don>
6

>  <lip_druglike>
0

>  <lip_violation>
2

>  <logP(o/w)>
0.722

>  <logS>
-0.83418

>  <mr>
14.932377

>  <mutagenic>
0

>  <nmol>
1

>  <opr_brigid>
34

>  <opr_leadlike>
0

>  <opr_nring>
1

>  <opr_nrot>
32

>  <opr_violation>
3

>  <PC+>
0

>  <PC->
0

>  <PEOE_PC+>
2.9053652

>  <PEOE_PC->
-2.9053652

>  <PEOE_RPC+>
0.041984774

>  <PEOE_RPC->
0.10832719

>  <PEOE_VSA+0>
345.98489

>  <PEOE_VSA+1>
17.061544

>  <PEOE_VSA+2>
51.714077

>  <PEOE_VSA+3>
0

>  <PEOE_VSA+4>
0

>  <PEOE_VSA+5>
0

>  <PEOE_VSA+6>
0

>  <PEOE_VSA-0>
118.37628

>  <PEOE_VSA-1>
49.019615

>  <PEOE_VSA-2>
0

>  <PEOE_VSA-3>
0

>  <PEOE_VSA-4>
0

>  <PEOE_VSA-5>
0

>  <PEOE_VSA-6>
0.82134598

>  <PEOE_VSA_FHYD>
0.99859113

>  <PEOE_VSA_FNEG>
0.28854832

>  <PEOE_VSA_FPNEG>
0.0014088806

>  <PEOE_VSA_FPOL>
0.0014088806

>  <PEOE_VSA_FPOS>
0.71145171

>  <PEOE_VSA_FPPOS>
0

>  <PEOE_VSA_HYD>
582.15637

>  <PEOE_VSA_NEG>
168.21724

>  <PEOE_VSA_PNEG>
0.82134598

>  <PEOE_VSA_POL>
0.82134598

>  <PEOE_VSA_POS>
414.7605

>  <PEOE_VSA_PPOS>
0

>  <petitjean>
0.47619048

>  <petitjeanSC>
0.90909094

>  <Q_PC+>
0

>  <Q_PC->
0

>  <Q_RPC+>
0

>  <Q_RPC->
0

>  <Q_VSA_FHYD>
1

>  <Q_VSA_FNEG>
0

>  <Q_VSA_FPNEG>
0

>  <Q_VSA_FPOL>
0

>  <Q_VSA_FPOS>
1

>  <Q_VSA_FPPOS>
0

>  <Q_VSA_HYD>
582.97772

>  <Q_VSA_NEG>
0

>  <Q_VSA_PNEG>
0

>  <Q_VSA_POL>
0

>  <Q_VSA_POS>
582.97772

>  <Q_VSA_PPOS>
0

>  <radius>
11

>  <reactive>
0

>  <rings>
3

>  <RPC+>
0

>  <RPC->
0

>  <rsynth>
1

>  <SlogP>
0.94859999

>  <SlogP_VSA0>
108.06451

>  <SlogP_VSA1>
6.2486277

>  <SlogP_VSA2>
0

>  <SlogP_VSA3>
295.03326

>  <SlogP_VSA4>
6.37115

>  <SlogP_VSA5>
0

>  <SlogP_VSA6>
0

>  <SlogP_VSA7>
70.572739

>  <SlogP_VSA8>
75.473625

>  <SlogP_VSA9>
36.879158

>  <SMR>
15.30922

>  <SMR_VSA0>
0

>  <SMR_VSA1>
6.2486277

>  <SMR_VSA2>
108.06451

>  <SMR_VSA3>
6.37115

>  <SMR_VSA4>
0

>  <SMR_VSA5>
182.92552

>  <SMR_VSA6>
295.03326

>  <SMR_VSA7>
0

>  <TPSA>
78.660004

>  <VAdjEq>
0.32203031

>  <VAdjMa>
6.2479277

>  <VDistEq>
4.1493936

>  <VDistMa>
10.019249

>  <vdw_area>
582.97772

>  <vdw_vol>
772.04822

>  <vsa_acc>
0

>  <vsa_acid>
0

>  <vsa_base>
0

>  <vsa_don>
0

>  <vsa_hyd>
496.27615

>  <vsa_other>
0

>  <vsa_pol>
34.095455

>  <Weight>
502.79599

>  <weinerPath>
5060

>  <weinerPol>
47

>  <zagreb>
164

$$$$