N(N)CCc1ccccc1
  MOE2013           2D

 10 10  0  0  0  0  0  0  0  0999 V2000
    0.0000    0.0000    0.0000 N   0  0  0  0  0  0  0  0  0  0  0  0
    0.7440    1.3030    0.0000 N   0  0  0  0  0  0  0  0  0  0  0  0
   -1.5000   -0.0070    0.0000 C   0  0  0  0  0  0  0  0  0  0  0  0
   -2.2440   -1.3100    0.0000 C   0  0  0  0  0  0  0  0  0  0  0  0
   -3.7440   -1.3170    0.0000 C   0  0  0  0  0  0  0  0  0  0  0  0
   -4.5000   -0.0210    0.0000 C   0  0  0  0  0  0  0  0  0  0  0  0
   -6.0000   -0.0280    0.0000 C   0  0  0  0  0  0  0  0  0  0  0  0
   -6.7440   -1.3310    0.0000 C   0  0  0  0  0  0  0  0  0  0  0  0
   -5.9880   -2.6270    0.0000 C   0  0  0  0  0  0  0  0  0  0  0  0
   -4.4880   -2.6190    0.0000 C   0  0  0  0  0  0  0  0  0  0  0  0
  1  2  1  0  0  0  0
  1  3  1  0  0  0  0
  3  4  1  0  0  0  0
  4  5  1  0  0  0  0
  5  6  1  0  0  0  0
  5 10  2  0  0  0  0
  6  7  2  0  0  0  0
  7  8  1  0  0  0  0
  8  9  2  0  0  0  0
  9 10  1  0  0  0  0
M  END
>  <Index>
846

>  <ID>
HT1644

>  <class>
0

>  <apol>
24.281515

>  <ast_fraglike>
1

>  <ast_fraglike_ext>
1

>  <ast_violation>
0

>  <ast_violation_ext>
0

>  <a_acc>
2

>  <a_acid>
0

>  <a_aro>
6

>  <a_base>
0

>  <a_count>
22

>  <a_don>
2

>  <a_donacc>
4

>  <a_heavy>
10

>  <a_hyd>
8

>  <a_IC>
29.087946

>  <a_ICM>
1.3221793

>  <a_nB>
0

>  <a_nBr>
0

>  <a_nC>
8

>  <a_nCl>
0

>  <a_nF>
0

>  <a_nH>
12

>  <a_nI>
0

>  <a_nN>
2

>  <a_nO>
0

>  <a_nP>
0

>  <a_nS>
0

>  <balabanJ>
2.0467131

>  <BCUT_PEOE_0>
-2.5113692

>  <BCUT_PEOE_1>
-0.62697089

>  <BCUT_PEOE_2>
0.69211471

>  <BCUT_PEOE_3>
2.4321918

>  <BCUT_SLOGP_0>
-2.770304

>  <BCUT_SLOGP_1>
-0.53807992

>  <BCUT_SLOGP_2>
0.68299741

>  <BCUT_SLOGP_3>
2.4200647

>  <BCUT_SMR_0>
-2.2321639

>  <BCUT_SMR_1>
-0.49986199

>  <BCUT_SMR_2>
0.78398293

>  <BCUT_SMR_3>
2.7048862

>  <bpol>
11.798484

>  <b_1rotN>
3

>  <b_1rotR>
0.30000001

>  <b_ar>
6

>  <b_count>
22

>  <b_double>
0

>  <b_heavy>
10

>  <b_max1len>
5

>  <b_rotN>
3

>  <b_rotR>
0.30000001

>  <b_single>
16

>  <b_triple>
0

>  <chi0>
7.2342043

>  <chi0v>
5.878315

>  <chi0v_C>
4.8009648

>  <chi0_C>
5.5270977

>  <chi1>
4.9318519

>  <chi1v>
3.4064655

>  <chi1v_C>
2.7642369

>  <chi1_C>
3.7247448

>  <chiral>
0

>  <chiral_u>
0

>  <density>
0.65519267

>  <diameter>
7

>  <FCharge>
0

>  <GCUT_PEOE_0>
-0.87479532

>  <GCUT_PEOE_1>
-0.39001775

>  <GCUT_PEOE_2>
0.079275936

>  <GCUT_PEOE_3>
2.1704993

>  <GCUT_SLOGP_0>
-1.4442664

>  <GCUT_SLOGP_1>
-0.26386139

>  <GCUT_SLOGP_2>
0.16445385

>  <GCUT_SLOGP_3>
2.2457187

>  <GCUT_SMR_0>
-0.51042473

>  <GCUT_SMR_1>
-0.21605732

>  <GCUT_SMR_2>
0.19305076

>  <GCUT_SMR_3>
2.4478788

>  <Kier1>
8.1000004

>  <Kier2>
4.7603307

>  <Kier3>
3.1111112

>  <KierA1>
6.2298064

>  <KierA2>
3.5412848

>  <KierA3>
2.2516572

>  <KierFlex>
2.2061517

>  <lip_acc>
2

>  <lip_don>
3

>  <lip_druglike>
1

>  <lip_violation>
0

>  <logP(o/w)>
0.89499998

>  <logS>
-1.0912

>  <mr>
4.269238

>  <mutagenic>
1

>  <nmol>
1

>  <opr_brigid>
6

>  <opr_leadlike>
1

>  <opr_nring>
1

>  <opr_nrot>
3

>  <opr_violation>
0

>  <PC+>
0

>  <PC->
0

>  <PEOE_PC+>
0.89109331

>  <PEOE_PC->
-0.89109331

>  <PEOE_RPC+>
0.15745756

>  <PEOE_RPC->
0.30351213

>  <PEOE_VSA+0>
30.253868

>  <PEOE_VSA+1>
21.326929

>  <PEOE_VSA+2>
25.857038

>  <PEOE_VSA+3>
0

>  <PEOE_VSA+4>
0

>  <PEOE_VSA+5>
0

>  <PEOE_VSA+6>
0

>  <PEOE_VSA-0>
10.909853

>  <PEOE_VSA-1>
61.274521

>  <PEOE_VSA-2>
0

>  <PEOE_VSA-3>
0

>  <PEOE_VSA-4>
0

>  <PEOE_VSA-5>
14.264937

>  <PEOE_VSA-6>
0

>  <PEOE_VSA_FHYD>
0.9129588

>  <PEOE_VSA_FNEG>
0.52749294

>  <PEOE_VSA_FPNEG>
0.087041222

>  <PEOE_VSA_FPOL>
0.087041222

>  <PEOE_VSA_FPOS>
0.47250709

>  <PEOE_VSA_FPPOS>
0

>  <PEOE_VSA_HYD>
149.62221

>  <PEOE_VSA_NEG>
86.44931

>  <PEOE_VSA_PNEG>
14.264937

>  <PEOE_VSA_POL>
14.264937

>  <PEOE_VSA_POS>
77.437836

>  <PEOE_VSA_PPOS>
0

>  <petitjean>
0.42857143

>  <petitjeanSC>
0.75

>  <Q_PC+>
0

>  <Q_PC->
0

>  <Q_RPC+>
0

>  <Q_RPC->
0

>  <Q_VSA_FHYD>
1

>  <Q_VSA_FNEG>
0

>  <Q_VSA_FPNEG>
0

>  <Q_VSA_FPOL>
0

>  <Q_VSA_FPOS>
1

>  <Q_VSA_FPPOS>
0

>  <Q_VSA_HYD>
163.88715

>  <Q_VSA_NEG>
0

>  <Q_VSA_PNEG>
0

>  <Q_VSA_POL>
0

>  <Q_VSA_POS>
163.88715

>  <Q_VSA_PPOS>
0

>  <radius>
4

>  <reactive>
1

>  <rings>
1

>  <RPC+>
0

>  <RPC->
0

>  <rsynth>
1

>  <SlogP>
0.69237

>  <SlogP_VSA0>
50.662895

>  <SlogP_VSA1>
0

>  <SlogP_VSA2>
0

>  <SlogP_VSA3>
18.439579

>  <SlogP_VSA4>
3.185575

>  <SlogP_VSA5>
18.868406

>  <SlogP_VSA6>
0

>  <SlogP_VSA7>
88.215919

>  <SlogP_VSA8>
0

>  <SlogP_VSA9>
0

>  <SMR>
4.2336102

>  <SMR_VSA0>
0

>  <SMR_VSA1>
0

>  <SMR_VSA2>
17.888229

>  <SMR_VSA3>
3.185575

>  <SMR_VSA4>
32.774666

>  <SMR_VSA5>
107.08433

>  <SMR_VSA6>
18.439579

>  <SMR_VSA7>
0

>  <TPSA>
38.049999

>  <VAdjEq>
0.72192812

>  <VAdjMa>
4.321928

>  <VDistEq>
2.5657051

>  <VDistMa>
6.2731547

>  <vdw_area>
163.88715

>  <vdw_vol>
207.87473

>  <vsa_acc>
0

>  <vsa_acid>
0

>  <vsa_base>
0

>  <vsa_don>
0

>  <vsa_hyd>
117.35902

>  <vsa_other>
0

>  <vsa_pol>
30.901993

>  <Weight>
136.198

>  <weinerPath>
133

>  <weinerPol>
9

>  <zagreb>
42

$$$$