s1ccnc1NS(=O)(=O)c1ccc(NC(=O)c2ccccc2C(O)=O)cc1
  MOE2013           2D

 27 29  0  0  0  0  0  0  0  0999 V2000
    0.0000    0.0000    0.0000 S   0  0  0  0  0  0  0  0  0  0  0  0
    1.3830   -0.5800    0.0000 C   0  0  0  0  0  0  0  0  0  0  0  0
    2.3620    0.5570    0.0000 C   0  0  0  0  0  0  0  0  0  0  0  0
    1.5840    1.8390    0.0000 N   0  0  0  0  0  0  0  0  0  0  0  0
    0.1240    1.4950    0.0000 C   0  0  0  0  0  0  0  0  0  0  0  0
   -1.0130    2.4740    0.0000 N   0  0  0  0  0  0  0  0  0  0  0  0
   -2.4290    1.9790    0.0000 S   0  0  0  0  0  0  0  0  0  0  0  0
   -1.9340    0.5630    0.0000 O   0  0  0  0  0  0  0  0  0  0  0  0
   -2.9240    3.3950    0.0000 O   0  0  0  0  0  0  0  0  0  0  0  0
   -3.8450    1.4840    0.0000 C   0  0  0  0  0  0  0  0  0  0  0  0
   -4.1240    0.0100    0.0000 C   0  0  0  0  0  0  0  0  0  0  0  0
   -5.5400   -0.4850    0.0000 C   0  0  0  0  0  0  0  0  0  0  0  0
   -6.6770    0.4940    0.0000 C   0  0  0  0  0  0  0  0  0  0  0  0
   -8.0930   -0.0010    0.0000 N   0  0  0  0  0  0  0  0  0  0  0  0
   -9.2290    0.9780    0.0000 C   0  0  0  0  0  0  0  0  0  0  0  0
   -8.9500    2.4520    0.0000 O   0  0  0  0  0  0  0  0  0  0  0  0
  -10.6450    0.4830    0.0000 C   0  0  0  0  0  0  0  0  0  0  0  0
  -10.9250   -0.9910    0.0000 C   0  0  0  0  0  0  0  0  0  0  0  0
  -12.3410   -1.4860    0.0000 C   0  0  0  0  0  0  0  0  0  0  0  0
  -13.4770   -0.5070    0.0000 C   0  0  0  0  0  0  0  0  0  0  0  0
  -13.1980    0.9670    0.0000 C   0  0  0  0  0  0  0  0  0  0  0  0
  -11.7820    1.4620    0.0000 C   0  0  0  0  0  0  0  0  0  0  0  0
  -11.5030    2.9360    0.0000 C   0  0  0  0  0  0  0  0  0  0  0  0
  -12.6390    3.9140    0.0000 O   0  0  0  0  0  0  0  0  0  0  0  0
  -10.0870    3.4310    0.0000 O   0  0  0  0  0  0  0  0  0  0  0  0
   -6.3970    1.9680    0.0000 C   0  0  0  0  0  0  0  0  0  0  0  0
   -4.9810    2.4630    0.0000 C   0  0  0  0  0  0  0  0  0  0  0  0
  1  2  1  0  0  0  0
  1  5  1  0  0  0  0
  2  3  2  0  0  0  0
  3  4  1  0  0  0  0
  4  5  2  0  0  0  0
  5  6  1  0  0  0  0
  6  7  1  0  0  0  0
  7  8  2  0  0  0  0
  7  9  2  0  0  0  0
  7 10  1  0  0  0  0
 10 11  1  0  0  0  0
 10 27  2  0  0  0  0
 11 12  2  0  0  0  0
 12 13  1  0  0  0  0
 13 14  1  0  0  0  0
 13 26  2  0  0  0  0
 14 15  1  0  0  0  0
 15 16  2  0  0  0  0
 15 17  1  0  0  0  0
 17 18  1  0  0  0  0
 17 22  2  0  0  0  0
 18 19  2  0  0  0  0
 19 20  1  0  0  0  0
 20 21  2  0  0  0  0
 21 22  1  0  0  0  0
 22 23  1  0  0  0  0
 23 24  1  0  0  0  0
 23 25  2  0  0  0  0
 26 27  1  0  0  0  0
M  END
>  <Index>
858

>  <ID>
HT1665

>  <class>
0

>  <apol>
51.698311

>  <ast_fraglike>
0

>  <ast_fraglike_ext>
0

>  <ast_violation>
3

>  <ast_violation_ext>
5

>  <a_acc>
6

>  <a_acid>
0

>  <a_aro>
17

>  <a_base>
0

>  <a_count>
40

>  <a_don>
4

>  <a_donacc>
10

>  <a_heavy>
27

>  <a_hyd>
15

>  <a_IC>
76.920013

>  <a_ICM>
1.9230003

>  <a_nB>
0

>  <a_nBr>
0

>  <a_nC>
17

>  <a_nCl>
0

>  <a_nF>
0

>  <a_nH>
13

>  <a_nI>
0

>  <a_nN>
3

>  <a_nO>
5

>  <a_nP>
0

>  <a_nS>
2

>  <balabanJ>
1.4577024

>  <BCUT_PEOE_0>
-2.3170505

>  <BCUT_PEOE_1>
-0.63095629

>  <BCUT_PEOE_2>
0.69381791

>  <BCUT_PEOE_3>
2.4236329

>  <BCUT_SLOGP_0>
-2.4237726

>  <BCUT_SLOGP_1>
-0.5506146

>  <BCUT_SLOGP_2>
0.75313979

>  <BCUT_SLOGP_3>
2.4140878

>  <BCUT_SMR_0>
-1.9828629

>  <BCUT_SMR_1>
-0.47406802

>  <BCUT_SMR_2>
0.85431087

>  <BCUT_SMR_3>
2.7705681

>  <bpol>
27.523691

>  <b_1rotN>
6

>  <b_1rotR>
0.20689656

>  <b_ar>
17

>  <b_count>
42

>  <b_double>
2

>  <b_heavy>
29

>  <b_max1len>
3

>  <b_rotN>
7

>  <b_rotR>
0.24137931

>  <b_single>
23

>  <b_triple>
0

>  <chi0>
19.440947

>  <chi0v>
15.250413

>  <chi0v_C>
9.2735023

>  <chi0_C>
11.112519

>  <chi1>
12.86501

>  <chi1v>
9.8899355

>  <chi1v_C>
4.4820509

>  <chi1_C>
6.4494896

>  <chiral>
0

>  <chiral_u>
0

>  <density>
0.8767885

>  <diameter>
14

>  <FCharge>
0

>  <GCUT_PEOE_0>
-0.9009195

>  <GCUT_PEOE_1>
-0.4715547

>  <GCUT_PEOE_2>
0.11997812

>  <GCUT_PEOE_3>
2.4470499

>  <GCUT_SLOGP_0>
-0.9932515

>  <GCUT_SLOGP_1>
-0.38952774

>  <GCUT_SLOGP_2>
0.18333979

>  <GCUT_SLOGP_3>
2.5102937

>  <GCUT_SMR_0>
-0.4037756

>  <GCUT_SMR_1>
-0.21605732

>  <GCUT_SMR_2>
0.24851678

>  <GCUT_SMR_3>
2.7459021

>  <Kier1>
21.702734

>  <Kier2>
9.6668653

>  <Kier3>
5.7577853

>  <KierA1>
16.996078

>  <KierA2>
7.4945102

>  <KierA3>
4.4305439

>  <KierFlex>
4.7176771

>  <lip_acc>
8

>  <lip_don>
3

>  <lip_druglike>
1

>  <lip_violation>
0

>  <logP(o/w)>
2.2639999

>  <logS>
-4.45748

>  <mr>
10.250054

>  <mutagenic>
0

>  <nmol>
1

>  <opr_brigid>
17

>  <opr_leadlike>
1

>  <opr_nring>
3

>  <opr_nrot>
5

>  <opr_violation>
0

>  <PC+>
0

>  <PC->
0

>  <PEOE_PC+>
2.5119376

>  <PEOE_PC->
-2.5119376

>  <PEOE_RPC+>
0.11924258

>  <PEOE_RPC->
0.17961878

>  <PEOE_VSA+0>
35.474747

>  <PEOE_VSA+1>
51.424568

>  <PEOE_VSA+2>
0

>  <PEOE_VSA+3>
38.485241

>  <PEOE_VSA+4>
10.324173

>  <PEOE_VSA+5>
31.842632

>  <PEOE_VSA+6>
0

>  <PEOE_VSA-0>
62.186241

>  <PEOE_VSA-1>
41.255722

>  <PEOE_VSA-2>
48.777012

>  <PEOE_VSA-3>
0

>  <PEOE_VSA-4>
0

>  <PEOE_VSA-5>
27.133842

>  <PEOE_VSA-6>
13.587008

>  <PEOE_VSA_FHYD>
0.77007025

>  <PEOE_VSA_FNEG>
0.53521371

>  <PEOE_VSA_FPNEG>
0.11295935

>  <PEOE_VSA_FPOL>
0.22992977

>  <PEOE_VSA_FPOS>
0.46478629

>  <PEOE_VSA_FPPOS>
0.11697042

>  <PEOE_VSA_HYD>
277.60352

>  <PEOE_VSA_NEG>
192.93982

>  <PEOE_VSA_PNEG>
40.720848

>  <PEOE_VSA_POL>
82.88765

>  <PEOE_VSA_POS>
167.55136

>  <PEOE_VSA_PPOS>
42.166805

>  <petitjean>
0.5

>  <petitjeanSC>
1

>  <Q_PC+>
0

>  <Q_PC->
0

>  <Q_RPC+>
0

>  <Q_RPC->
0

>  <Q_VSA_FHYD>
1

>  <Q_VSA_FNEG>
0

>  <Q_VSA_FPNEG>
0

>  <Q_VSA_FPOL>
0

>  <Q_VSA_FPOS>
1

>  <Q_VSA_FPPOS>
0

>  <Q_VSA_HYD>
360.49118

>  <Q_VSA_NEG>
0

>  <Q_VSA_PNEG>
0

>  <Q_VSA_POL>
0

>  <Q_VSA_POS>
360.49118

>  <Q_VSA_PPOS>
0

>  <radius>
7

>  <reactive>
0

>  <rings>
3

>  <RPC+>
0

>  <RPC->
0

>  <rsynth>
1

>  <SlogP>
2.8943999

>  <SlogP_VSA0>
0

>  <SlogP_VSA1>
112.37721

>  <SlogP_VSA2>
6.6407428

>  <SlogP_VSA3>
25.385227

>  <SlogP_VSA4>
54.095581

>  <SlogP_VSA5>
1.5507339

>  <SlogP_VSA6>
0

>  <SlogP_VSA7>
174.17584

>  <SlogP_VSA8>
0

>  <SlogP_VSA9>
34.535183

>  <SMR>
10.0719

>  <SMR_VSA0>
95.896118

>  <SMR_VSA1>
16.78553

>  <SMR_VSA2>
26.935961

>  <SMR_VSA3>
6.37115

>  <SMR_VSA4>
37.673241

>  <SMR_VSA5>
174.17584

>  <SMR_VSA6>
13.004248

>  <SMR_VSA7>
37.91843

>  <TPSA>
125.46

>  <VAdjEq>
0.40063059

>  <VAdjMa>
5.8579812

>  <VDistEq>
3.6635656

>  <VDistMa>
9.1857948

>  <vdw_area>
360.49118

>  <vdw_vol>
460.13263

>  <vsa_acc>
51.266022

>  <vsa_acid>
0

>  <vsa_base>
0

>  <vsa_don>
13.757783

>  <vsa_hyd>
199.61388

>  <vsa_other>
50.930264

>  <vsa_pol>
92.157646

>  <Weight>
403.439

>  <weinerPath>
2075

>  <weinerPol>
40

>  <zagreb>
140

$$$$