N1CCNCC1
  MOE2013           2D

  6  6  0  0  0  0  0  0  0  0999 V2000
    0.0000    0.0000    0.0000 N   0  0  0  0  0  0  0  0  0  0  0  0
    0.0000    1.5000    0.0000 C   0  0  0  0  0  0  0  0  0  0  0  0
    1.2990    2.2500    0.0000 C   0  0  0  0  0  0  0  0  0  0  0  0
    2.5980    1.5000    0.0000 N   0  0  0  0  0  0  0  0  0  0  0  0
    2.5980    0.0000    0.0000 C   0  0  0  0  0  0  0  0  0  0  0  0
    1.2990   -0.7500    0.0000 C   0  0  0  0  0  0  0  0  0  0  0  0
  1  2  1  0  0  0  0
  1  6  1  0  0  0  0
  2  3  1  0  0  0  0
  3  4  1  0  0  0  0
  4  5  1  0  0  0  0
  5  6  1  0  0  0  0
M  END
>  <Index>
867

>  <ID>
HT1683

>  <class>
0

>  <apol>
15.90793

>  <ast_fraglike>
1

>  <ast_fraglike_ext>
1

>  <ast_violation>
0

>  <ast_violation_ext>
0

>  <a_acc>
2

>  <a_acid>
0

>  <a_aro>
0

>  <a_base>
0

>  <a_count>
16

>  <a_don>
2

>  <a_donacc>
4

>  <a_heavy>
6

>  <a_hyd>
4

>  <a_IC>
20.78072

>  <a_ICM>
1.298795

>  <a_nB>
0

>  <a_nBr>
0

>  <a_nC>
4

>  <a_nCl>
0

>  <a_nF>
0

>  <a_nH>
10

>  <a_nI>
0

>  <a_nN>
2

>  <a_nO>
0

>  <a_nP>
0

>  <a_nS>
0

>  <balabanJ>
2

>  <BCUT_PEOE_0>
-2.7025909

>  <BCUT_PEOE_1>
-0.56982118

>  <BCUT_PEOE_2>
0.61983103

>  <BCUT_PEOE_3>
2.5926416

>  <BCUT_SLOGP_0>
-2.9190166

>  <BCUT_SLOGP_1>
-0.58366477

>  <BCUT_SLOGP_2>
0.64105654

>  <BCUT_SLOGP_3>
2.4168053

>  <BCUT_SMR_0>
-2.4140713

>  <BCUT_SMR_1>
-0.46107498

>  <BCUT_SMR_2>
0.71948975

>  <BCUT_SMR_3>
2.8707948

>  <bpol>
12.25207

>  <b_1rotN>
0

>  <b_1rotR>
0

>  <b_ar>
0

>  <b_count>
16

>  <b_double>
0

>  <b_heavy>
6

>  <b_max1len>
2

>  <b_rotN>
0

>  <b_rotR>
0

>  <b_single>
16

>  <b_triple>
0

>  <chi0>
4.2426405

>  <chi0v>
3.8284271

>  <chi0v_C>
2.8284271

>  <chi0_C>
2.8284271

>  <chi1>
3

>  <chi1v>
2.4142137

>  <chi1v_C>
1

>  <chi1_C>
1

>  <chiral>
0

>  <chiral_u>
0

>  <density>
0.66112036

>  <diameter>
3

>  <FCharge>
0

>  <GCUT_PEOE_0>
-0.84681696

>  <GCUT_PEOE_1>
-0.37238386

>  <GCUT_PEOE_2>
0.12568134

>  <GCUT_PEOE_3>
2.1295755

>  <GCUT_SLOGP_0>
-1.1704868

>  <GCUT_SLOGP_1>
-0.42841271

>  <GCUT_SLOGP_2>
0.19059379

>  <GCUT_SLOGP_3>
2.0107043

>  <GCUT_SMR_0>
-0.50859147

>  <GCUT_SMR_1>
-0.22097288

>  <GCUT_SMR_2>
0.1919035

>  <GCUT_SMR_3>
2.3671522

>  <Kier1>
4.1666665

>  <Kier2>
2.2222223

>  <Kier3>
1.3333334

>  <KierA1>
4.1666665

>  <KierA2>
2.2222223

>  <KierA3>
1.3333334

>  <KierFlex>
1.5432099

>  <lip_acc>
2

>  <lip_don>
2

>  <lip_druglike>
1

>  <lip_violation>
0

>  <logP(o/w)>
-0.84399998

>  <logS>
0.72674

>  <mr>
2.4972975

>  <mutagenic>
0

>  <nmol>
1

>  <opr_brigid>
6

>  <opr_leadlike>
1

>  <opr_nring>
1

>  <opr_nrot>
2

>  <opr_violation>
0

>  <PC+>
0

>  <PC->
0

>  <PEOE_PC+>
0.62714499

>  <PEOE_PC->
-0.62714499

>  <PEOE_RPC+>
0.19457321

>  <PEOE_RPC->
0.5

>  <PEOE_VSA+0>
86.892387

>  <PEOE_VSA+1>
0

>  <PEOE_VSA+2>
17.238026

>  <PEOE_VSA+3>
0

>  <PEOE_VSA+4>
0

>  <PEOE_VSA+5>
0

>  <PEOE_VSA+6>
0

>  <PEOE_VSA-0>
0

>  <PEOE_VSA-1>
0

>  <PEOE_VSA-2>
0

>  <PEOE_VSA-3>
0

>  <PEOE_VSA-4>
0

>  <PEOE_VSA-5>
0

>  <PEOE_VSA-6>
0.27378201

>  <PEOE_VSA_FHYD>
0.99737769

>  <PEOE_VSA_FNEG>
0.0026223275

>  <PEOE_VSA_FPNEG>
0.0026223275

>  <PEOE_VSA_FPOL>
0.0026223275

>  <PEOE_VSA_FPOS>
0.99737769

>  <PEOE_VSA_FPPOS>
0

>  <PEOE_VSA_HYD>
104.13042

>  <PEOE_VSA_NEG>
0.27378201

>  <PEOE_VSA_PNEG>
0.27378201

>  <PEOE_VSA_POL>
0.27378201

>  <PEOE_VSA_POS>
104.13042

>  <PEOE_VSA_PPOS>
0

>  <petitjean>
0

>  <petitjeanSC>
0

>  <Q_PC+>
0

>  <Q_PC->
0

>  <Q_RPC+>
0

>  <Q_RPC->
0

>  <Q_VSA_FHYD>
1

>  <Q_VSA_FNEG>
0

>  <Q_VSA_FPNEG>
0

>  <Q_VSA_FPOL>
0

>  <Q_VSA_FPOS>
1

>  <Q_VSA_FPPOS>
0

>  <Q_VSA_HYD>
104.4042

>  <Q_VSA_NEG>
0

>  <Q_VSA_PNEG>
0

>  <Q_VSA_POL>
0

>  <Q_VSA_POS>
104.4042

>  <Q_VSA_PPOS>
0

>  <radius>
3

>  <reactive>
0

>  <rings>
1

>  <RPC+>
0

>  <RPC->
0

>  <rsynth>
1

>  <SlogP>
-0.82080001

>  <SlogP_VSA0>
36.0215

>  <SlogP_VSA1>
0

>  <SlogP_VSA2>
0

>  <SlogP_VSA3>
73.758316

>  <SlogP_VSA4>
0

>  <SlogP_VSA5>
0

>  <SlogP_VSA6>
0

>  <SlogP_VSA7>
0

>  <SlogP_VSA8>
0

>  <SlogP_VSA9>
0

>  <SMR>
2.57394

>  <SMR_VSA0>
0

>  <SMR_VSA1>
0

>  <SMR_VSA2>
36.0215

>  <SMR_VSA3>
0

>  <SMR_VSA4>
0

>  <SMR_VSA5>
0

>  <SMR_VSA6>
73.758316

>  <SMR_VSA7>
0

>  <TPSA>
24.059999

>  <VAdjEq>
0.91829586

>  <VAdjMa>
3.5849626

>  <VDistEq>
1.5219281

>  <VDistMa>
4.7821221

>  <vdw_area>
104.4042

>  <vdw_vol>
130.29095

>  <vsa_acc>
0

>  <vsa_acid>
0

>  <vsa_base>
0

>  <vsa_don>
0

>  <vsa_hyd>
81.198021

>  <vsa_other>
0

>  <vsa_pol>
11.365152

>  <Weight>
86.138

>  <weinerPath>
27

>  <weinerPol>
3

>  <zagreb>
24

$$$$