N(C(Cc1ccccc1)C)CCC(c1ccccc1)c1ccccc1
  MOE2013           2D

 25 27  0  0  1  0  0  0  0  0999 V2000
    0.0000    0.0000    0.0000 N   0  0  0  0  0  0  0  0  0  0  0  0
    1.3010    0.7470    0.0000 C   0  0  3  0  0  0  0  0  0  0  0  0
    2.5980   -0.0060    0.0000 C   0  0  0  0  0  0  0  0  0  0  0  0
    3.8990    0.7420    0.0000 C   0  0  0  0  0  0  0  0  0  0  0  0
    5.1960   -0.0110    0.0000 C   0  0  0  0  0  0  0  0  0  0  0  0
    6.4970    0.7360    0.0000 C   0  0  0  0  0  0  0  0  0  0  0  0
    6.5000    2.2360    0.0000 C   0  0  0  0  0  0  0  0  0  0  0  0
    5.2030    2.9890    0.0000 C   0  0  0  0  0  0  0  0  0  0  0  0
    3.9020    2.2420    0.0000 C   0  0  0  0  0  0  0  0  0  0  0  0
    1.3040    2.2470    0.0000 C   0  0  0  0  0  0  0  0  0  0  0  0
   -1.2970    0.7530    0.0000 C   0  0  0  0  0  0  0  0  0  0  0  0
   -2.5980    0.0060    0.0000 C   0  0  0  0  0  0  0  0  0  0  0  0
   -3.8960    0.7580    0.0000 C   0  0  0  0  0  0  0  0  0  0  0  0
   -5.1960    0.0110    0.0000 C   0  0  0  0  0  0  0  0  0  0  0  0
   -5.1990   -1.4890    0.0000 C   0  0  0  0  0  0  0  0  0  0  0  0
   -6.5000   -2.2360    0.0000 C   0  0  0  0  0  0  0  0  0  0  0  0
   -7.7970   -1.4830    0.0000 C   0  0  0  0  0  0  0  0  0  0  0  0
   -7.7940    0.0170    0.0000 C   0  0  0  0  0  0  0  0  0  0  0  0
   -6.4940    0.7640    0.0000 C   0  0  0  0  0  0  0  0  0  0  0  0
   -3.8920    2.2580    0.0000 C   0  0  0  0  0  0  0  0  0  0  0  0
   -5.1900    3.0110    0.0000 C   0  0  0  0  0  0  0  0  0  0  0  0
   -5.1870    4.5110    0.0000 C   0  0  0  0  0  0  0  0  0  0  0  0
   -3.8860    5.2580    0.0000 C   0  0  0  0  0  0  0  0  0  0  0  0
   -2.5880    4.5060    0.0000 C   0  0  0  0  0  0  0  0  0  0  0  0
   -2.5920    3.0060    0.0000 C   0  0  0  0  0  0  0  0  0  0  0  0
  1  2  1  0  0  0  0
  1 11  1  0  0  0  0
  2  3  1  0  0  0  0
  2 10  1  0  0  0  0
  3  4  1  0  0  0  0
  4  5  1  0  0  0  0
  4  9  2  0  0  0  0
  5  6  2  0  0  0  0
  6  7  1  0  0  0  0
  7  8  2  0  0  0  0
  8  9  1  0  0  0  0
 11 12  1  0  0  0  0
 12 13  1  0  0  0  0
 13 14  1  0  0  0  0
 13 20  1  0  0  0  0
 14 15  1  0  0  0  0
 14 19  2  0  0  0  0
 15 16  2  0  0  0  0
 16 17  1  0  0  0  0
 17 18  2  0  0  0  0
 18 19  1  0  0  0  0
 20 21  1  0  0  0  0
 20 25  2  0  0  0  0
 21 22  2  0  0  0  0
 22 23  1  0  0  0  0
 23 24  2  0  0  0  0
 24 25  1  0  0  0  0
M  END
>  <Index>
899

>  <ID>
HT1737

>  <class>
0

>  <apol>
61.34341

>  <ast_fraglike>
0

>  <ast_fraglike_ext>
0

>  <ast_violation>
2

>  <ast_violation_ext>
3

>  <a_acc>
1

>  <a_acid>
0

>  <a_aro>
18

>  <a_base>
0

>  <a_count>
52

>  <a_don>
1

>  <a_donacc>
2

>  <a_heavy>
25

>  <a_hyd>
24

>  <a_IC>
58.001804

>  <a_ICM>
1.1154193

>  <a_nB>
0

>  <a_nBr>
0

>  <a_nC>
24

>  <a_nCl>
0

>  <a_nF>
0

>  <a_nH>
27

>  <a_nI>
0

>  <a_nN>
1

>  <a_nO>
0

>  <a_nP>
0

>  <a_nS>
0

>  <balabanJ>
1.4251664

>  <BCUT_PEOE_0>
-2.6773894

>  <BCUT_PEOE_1>
-0.64929938

>  <BCUT_PEOE_2>
0.69729894

>  <BCUT_PEOE_3>
2.6023841

>  <BCUT_SLOGP_0>
-2.7727804

>  <BCUT_SLOGP_1>
-0.53807992

>  <BCUT_SLOGP_2>
0.80591482

>  <BCUT_SLOGP_3>
2.646179

>  <BCUT_SMR_0>
-2.4006989

>  <BCUT_SMR_1>
-0.49986199

>  <BCUT_SMR_2>
0.85431087

>  <BCUT_SMR_3>
2.8762276

>  <bpol>
30.176588

>  <b_1rotN>
8

>  <b_1rotR>
0.2962963

>  <b_ar>
18

>  <b_count>
54

>  <b_double>
0

>  <b_heavy>
27

>  <b_max1len>
7

>  <b_rotN>
8

>  <b_rotR>
0.2962963

>  <b_single>
36

>  <b_triple>
0

>  <chi0>
17.321779

>  <chi0v>
14.936275

>  <chi0v_C>
14.436275

>  <chi0_C>
16.614674

>  <chi1>
12.3265

>  <chi1v>
9.1990299

>  <chi1v_C>
8.5568008

>  <chi1_C>
11.418252

>  <chiral>
1

>  <chiral_u>
1

>  <density>
0.63158846

>  <diameter>
13

>  <FCharge>
0

>  <GCUT_PEOE_0>
-0.85014004

>  <GCUT_PEOE_1>
-0.38988537

>  <GCUT_PEOE_2>
0.079276524

>  <GCUT_PEOE_3>
2.7294235

>  <GCUT_SLOGP_0>
-1.1530727

>  <GCUT_SLOGP_1>
-0.26386139

>  <GCUT_SLOGP_2>
0.16445385

>  <GCUT_SLOGP_3>
2.8267028

>  <GCUT_SMR_0>
-0.51871353

>  <GCUT_SMR_1>
-0.21605732

>  <GCUT_SMR_2>
0.19305076

>  <GCUT_SMR_3>
3.0007193

>  <Kier1>
19.753086

>  <Kier2>
10.982699

>  <Kier3>
6.5850339

>  <KierA1>
14.583081

>  <KierA2>
7.9976292

>  <KierA3>
4.7459908

>  <KierFlex>
4.6652026

>  <lip_acc>
1

>  <lip_don>
1

>  <lip_druglike>
1

>  <lip_violation>
1

>  <logP(o/w)>
6.1999998

>  <logS>
-5.1876602

>  <mr>
10.779512

>  <mutagenic>
0

>  <nmol>
1

>  <opr_brigid>
18

>  <opr_leadlike>
1

>  <opr_nring>
3

>  <opr_nrot>
8

>  <opr_violation>
1

>  <PC+>
0

>  <PC->
0

>  <PEOE_PC+>
1.4365187

>  <PEOE_PC->
-1.4365187

>  <PEOE_RPC+>
0.085063934

>  <PEOE_RPC->
0.21800494

>  <PEOE_VSA+0>
50.065208

>  <PEOE_VSA+1>
63.980789

>  <PEOE_VSA+2>
8.6190128

>  <PEOE_VSA+3>
0

>  <PEOE_VSA+4>
0

>  <PEOE_VSA+5>
0

>  <PEOE_VSA+6>
0

>  <PEOE_VSA-0>
55.968246

>  <PEOE_VSA-1>
183.82356

>  <PEOE_VSA-2>
0

>  <PEOE_VSA-3>
0

>  <PEOE_VSA-4>
0

>  <PEOE_VSA-5>
0

>  <PEOE_VSA-6>
0.13689101

>  <PEOE_VSA_FHYD>
0.99962246

>  <PEOE_VSA_FNEG>
0.6617012

>  <PEOE_VSA_FPNEG>
0.00037753276

>  <PEOE_VSA_FPOL>
0.00037753276

>  <PEOE_VSA_FPOS>
0.33829877

>  <PEOE_VSA_FPPOS>
0

>  <PEOE_VSA_HYD>
362.45682

>  <PEOE_VSA_NEG>
239.9287

>  <PEOE_VSA_PNEG>
0.13689101

>  <PEOE_VSA_POL>
0.13689101

>  <PEOE_VSA_POS>
122.66501

>  <PEOE_VSA_PPOS>
0

>  <petitjean>
0.46153846

>  <petitjeanSC>
0.85714287

>  <Q_PC+>
0

>  <Q_PC->
0

>  <Q_RPC+>
0

>  <Q_RPC->
0

>  <Q_VSA_FHYD>
1

>  <Q_VSA_FNEG>
0

>  <Q_VSA_FPNEG>
0

>  <Q_VSA_FPOL>
0

>  <Q_VSA_FPOS>
1

>  <Q_VSA_FPPOS>
0

>  <Q_VSA_HYD>
362.59372

>  <Q_VSA_NEG>
0

>  <Q_VSA_PNEG>
0

>  <Q_VSA_POL>
0

>  <Q_VSA_POS>
362.59372

>  <Q_VSA_PPOS>
0

>  <radius>
7

>  <reactive>
0

>  <rings>
3

>  <RPC+>
0

>  <RPC->
0

>  <rsynth>
1

>  <SlogP>
5.4293699

>  <SlogP_VSA0>
18.01075

>  <SlogP_VSA1>
0

>  <SlogP_VSA2>
3.9819686

>  <SlogP_VSA3>
18.439579

>  <SlogP_VSA4>
9.5567245

>  <SlogP_VSA5>
18.868406

>  <SlogP_VSA6>
4.4107962

>  <SlogP_VSA7>
264.64777

>  <SlogP_VSA8>
18.868406

>  <SlogP_VSA9>
33.326015

>  <SMR>
10.69547

>  <SMR_VSA0>
0

>  <SMR_VSA1>
0

>  <SMR_VSA2>
18.01075

>  <SMR_VSA3>
17.94949

>  <SMR_VSA4>
0

>  <SMR_VSA5>
302.38458

>  <SMR_VSA6>
18.439579

>  <SMR_VSA7>
33.326015

>  <TPSA>
12.03

>  <VAdjEq>
0.42433795

>  <VAdjMa>
5.7548876

>  <VDistEq>
3.5449407

>  <VDistMa>
8.9853992

>  <vdw_area>
362.59372

>  <vdw_vol>
521.67987

>  <vsa_acc>
0

>  <vsa_acid>
0

>  <vsa_base>
0

>  <vsa_don>
0

>  <vsa_hyd>
333.98608

>  <vsa_other>
0

>  <vsa_pol>
5.6825762

>  <Weight>
329.487

>  <weinerPath>
1690

>  <weinerPol>
33

>  <zagreb>
122

$$$$