O1C[C@H](Cc2n(cnc2)C)[C@H](CC)C1=O
  MOE2013           2D

 15 16  0  0  1  0  0  0  0  0999 V2000
    0.0000    0.0000    0.0000 O   0  0  0  0  0  0  0  0  0  0  0  0
   -1.4660   -0.3190    0.0000 C   0  0  0  0  0  0  0  0  0  0  0  0
   -1.6150   -1.8120    0.0000 C   0  0  2  0  0  0  0  0  0  0  0  0
   -2.9100   -2.5680    0.0000 C   0  0  0  0  0  0  0  0  0  0  0  0
   -4.2130   -1.8250    0.0000 C   0  0  0  0  0  0  0  0  0  0  0  0
   -5.5800   -2.4420    0.0000 N   0  0  0  0  0  0  0  0  0  0  0  0
   -6.5890   -1.3330    0.0000 C   0  0  0  0  0  0  0  0  0  0  0  0
   -5.8460   -0.0300    0.0000 N   0  0  0  0  0  0  0  0  0  0  0  0
   -4.3770   -0.3340    0.0000 C   0  0  0  0  0  0  0  0  0  0  0  0
   -5.8840   -3.9110    0.0000 C   0  0  0  0  0  0  0  0  0  0  0  0
   -0.2410   -2.4150    0.0000 C   0  0  2  0  0  0  0  0  0  0  0  0
    0.0780   -3.8810    0.0000 C   0  0  0  0  0  0  0  0  0  0  0  0
    1.5070   -4.3370    0.0000 C   0  0  0  0  0  0  0  0  0  0  0  0
    0.7570   -1.2950    0.0000 C   0  0  0  0  0  0  0  0  0  0  0  0
    2.2490   -1.4440    0.0000 O   0  0  0  0  0  0  0  0  0  0  0  0
  1  2  1  0  0  0  0
  1 14  1  0  0  0  0
  2  3  1  0  0  0  0
  3  4  1  1  0  0  0
  3 11  1  0  0  0  0
  4  5  1  0  0  0  0
  5  6  1  0  0  0  0
  5  9  2  0  0  0  0
  6  7  1  0  0  0  0
  6 10  1  0  0  0  0
  7  8  2  0  0  0  0
  8  9  1  0  0  0  0
 11 12  1  1  0  0  0
 11 14  1  0  0  0  0
 12 13  1  0  0  0  0
 14 15  2  0  0  0  0
M  END
>  <Index>
863

>  <ID>
HT1672

>  <class>
0

>  <apol>
33.832687

>  <ast_fraglike>
1

>  <ast_fraglike_ext>
1

>  <ast_violation>
0

>  <ast_violation_ext>
0

>  <a_acc>
2

>  <a_acid>
0

>  <a_aro>
5

>  <a_base>
0

>  <a_count>
31

>  <a_don>
0

>  <a_donacc>
2

>  <a_heavy>
15

>  <a_hyd>
9

>  <a_IC>
47.526337

>  <a_ICM>
1.5331076

>  <a_nB>
0

>  <a_nBr>
0

>  <a_nC>
11

>  <a_nCl>
0

>  <a_nF>
0

>  <a_nH>
16

>  <a_nI>
0

>  <a_nN>
2

>  <a_nO>
2

>  <a_nP>
0

>  <a_nS>
0

>  <balabanJ>
1.8878136

>  <BCUT_PEOE_0>
-2.6246684

>  <BCUT_PEOE_1>
-0.38670221

>  <BCUT_PEOE_2>
0.38465452

>  <BCUT_PEOE_3>
2.7469256

>  <BCUT_SLOGP_0>
-2.6246088

>  <BCUT_SLOGP_1>
-0.33824551

>  <BCUT_SLOGP_2>
0.44456944

>  <BCUT_SLOGP_3>
2.7339375

>  <BCUT_SMR_0>
-2.4055336

>  <BCUT_SMR_1>
-0.18128285

>  <BCUT_SMR_2>
0.57108361

>  <BCUT_SMR_3>
2.971591

>  <bpol>
23.665312

>  <b_1rotN>
3

>  <b_1rotR>
0.1875

>  <b_ar>
5

>  <b_count>
32

>  <b_double>
1

>  <b_heavy>
16

>  <b_max1len>
4

>  <b_rotN>
3

>  <b_rotR>
0.1875

>  <b_single>
26

>  <b_triple>
0

>  <chi0>
10.836499

>  <chi0v>
9.1416454

>  <chi0v_C>
7.4307213

>  <chi0_C>
7.8449349

>  <chi1>
7.2195454

>  <chi1v>
5.338429

>  <chi1v_C>
3.1960886

>  <chi1_C>
3.415015

>  <chiral>
2

>  <chiral_u>
0

>  <density>
0.72283185

>  <diameter>
7

>  <FCharge>
0

>  <GCUT_PEOE_0>
-0.85842949

>  <GCUT_PEOE_1>
-0.34780481

>  <GCUT_PEOE_2>
-0.068809204

>  <GCUT_PEOE_3>
2.5784345

>  <GCUT_SLOGP_0>
-0.86429602

>  <GCUT_SLOGP_1>
-0.29259944

>  <GCUT_SLOGP_2>
-0.0048299092

>  <GCUT_SLOGP_3>
2.5962579

>  <GCUT_SMR_0>
-0.53203988

>  <GCUT_SMR_1>
-0.1658449

>  <GCUT_SMR_2>
0.10967285

>  <GCUT_SMR_3>
2.8025301

>  <Kier1>
11.484375

>  <Kier2>
4.8884296

>  <Kier3>
2.3971462

>  <KierA1>
9.1798668

>  <KierA2>
3.8395729

>  <KierA3>
1.8559114

>  <KierFlex>
2.3497846

>  <lip_acc>
4

>  <lip_don>
0

>  <lip_druglike>
1

>  <lip_violation>
0

>  <logP(o/w)>
0.85600001

>  <logS>
-1.30331

>  <mr>
5.8114486

>  <mutagenic>
0

>  <nmol>
1

>  <opr_brigid>
10

>  <opr_leadlike>
1

>  <opr_nring>
2

>  <opr_nrot>
3

>  <opr_violation>
0

>  <PC+>
0

>  <PC->
0

>  <PEOE_PC+>
1.2735516

>  <PEOE_PC->
-1.2735516

>  <PEOE_RPC+>
0.20856935

>  <PEOE_RPC->
0.26463935

>  <PEOE_VSA+0>
97.86879

>  <PEOE_VSA+1>
48.984379

>  <PEOE_VSA+2>
4.2653861

>  <PEOE_VSA+3>
0

>  <PEOE_VSA+4>
0

>  <PEOE_VSA+5>
14.708499

>  <PEOE_VSA+6>
0

>  <PEOE_VSA-0>
17.402626

>  <PEOE_VSA-1>
18.747677

>  <PEOE_VSA-2>
0

>  <PEOE_VSA-3>
0

>  <PEOE_VSA-4>
5.6825762

>  <PEOE_VSA-5>
13.566921

>  <PEOE_VSA-6>
2.503756

>  <PEOE_VSA_FHYD>
0.83702832

>  <PEOE_VSA_FNEG>
0.25880927

>  <PEOE_VSA_FPNEG>
0.097229667

>  <PEOE_VSA_FPOL>
0.16297168

>  <PEOE_VSA_FPOS>
0.74119073

>  <PEOE_VSA_FPPOS>
0.065742008

>  <PEOE_VSA_HYD>
187.26886

>  <PEOE_VSA_NEG>
57.903557

>  <PEOE_VSA_PNEG>
21.753254

>  <PEOE_VSA_POL>
36.461754

>  <PEOE_VSA_POS>
165.82706

>  <PEOE_VSA_PPOS>
14.708499

>  <petitjean>
0.42857143

>  <petitjeanSC>
0.75

>  <Q_PC+>
0

>  <Q_PC->
0

>  <Q_RPC+>
0

>  <Q_RPC->
0

>  <Q_VSA_FHYD>
1

>  <Q_VSA_FNEG>
0

>  <Q_VSA_FPNEG>
0

>  <Q_VSA_FPOL>
0

>  <Q_VSA_FPOS>
1

>  <Q_VSA_FPPOS>
0

>  <Q_VSA_HYD>
223.73061

>  <Q_VSA_NEG>
0

>  <Q_VSA_PNEG>
0

>  <Q_VSA_POL>
0

>  <Q_VSA_POS>
223.73061

>  <Q_VSA_PPOS>
0

>  <radius>
4

>  <reactive>
1

>  <rings>
2

>  <RPC+>
0

>  <RPC->
0

>  <rsynth>
1

>  <SlogP>
1.52097

>  <SlogP_VSA0>
0

>  <SlogP_VSA1>
26.430086

>  <SlogP_VSA2>
34.862103

>  <SlogP_VSA3>
20.926258

>  <SlogP_VSA4>
11.57834

>  <SlogP_VSA5>
18.868406

>  <SlogP_VSA6>
0

>  <SlogP_VSA7>
33.999886

>  <SlogP_VSA8>
18.868406

>  <SlogP_VSA9>
66.223206

>  <SMR>
5.5423002

>  <SMR_VSA0>
34.862103

>  <SMR_VSA1>
18.684622

>  <SMR_VSA2>
8.8215923

>  <SMR_VSA3>
2.7567475

>  <SMR_VSA4>
0

>  <SMR_VSA5>
71.736694

>  <SMR_VSA6>
28.671722

>  <SMR_VSA7>
66.223206

>  <TPSA>
44.119999

>  <VAdjEq>
0.59002918

>  <VAdjMa>
5

>  <VDistEq>
2.7300556

>  <VDistMa>
7.5130591

>  <vdw_area>
223.73061

>  <vdw_vol>
288.11819

>  <vsa_acc>
19.249496

>  <vsa_acid>
0

>  <vsa_base>
0

>  <vsa_don>
0

>  <vsa_hyd>
148.39951

>  <vsa_other>
42.002773

>  <vsa_pol>
19.249496

>  <Weight>
208.261

>  <weinerPath>
367

>  <weinerPol>
19

>  <zagreb>
76

$$$$