O=C1NC(=O)NC(=O)C1(C(CCC)C)CC
  MOE2013           2D

 16 16  0  0  1  0  0  0  0  0999 V2000
    0.0000    0.0000    0.0000 O   0  0  0  0  0  0  0  0  0  0  0  0
   -1.3050    0.7390    0.0000 C   0  0  0  0  0  0  0  0  0  0  0  0
   -2.5980   -0.0220    0.0000 N   0  0  0  0  0  0  0  0  0  0  0  0
   -3.9030    0.7170    0.0000 C   0  0  0  0  0  0  0  0  0  0  0  0
   -5.1960   -0.0440    0.0000 O   0  0  0  0  0  0  0  0  0  0  0  0
   -3.9160    2.2170    0.0000 N   0  0  0  0  0  0  0  0  0  0  0  0
   -2.6240    2.9780    0.0000 C   0  0  0  0  0  0  0  0  0  0  0  0
   -2.6360    4.4780    0.0000 O   0  0  0  0  0  0  0  0  0  0  0  0
   -1.3180    2.2390    0.0000 C   0  0  0  0  0  0  0  0  0  0  0  0
    0.1820    2.2520    0.0000 C   0  0  3  0  0  0  0  0  0  0  0  0
    0.9210    3.5570    0.0000 C   0  0  0  0  0  0  0  0  0  0  0  0
    2.4210    3.5700    0.0000 C   0  0  0  0  0  0  0  0  0  0  0  0
    3.1590    4.8750    0.0000 C   0  0  0  0  0  0  0  0  0  0  0  0
    0.9430    0.9590    0.0000 C   0  0  0  0  0  0  0  0  0  0  0  0
   -0.5790    3.5440    0.0000 C   0  0  0  0  0  0  0  0  0  0  0  0
   -1.3400    4.8370    0.0000 C   0  0  0  0  0  0  0  0  0  0  0  0
  1  2  2  0  0  0  0
  2  3  1  0  0  0  0
  2  9  1  0  0  0  0
  3  4  1  0  0  0  0
  4  5  2  0  0  0  0
  4  6  1  0  0  0  0
  6  7  1  0  0  0  0
  7  8  2  0  0  0  0
  7  9  1  0  0  0  0
  9 10  1  0  0  0  0
  9 15  1  0  0  0  0
 10 11  1  0  0  0  0
 10 14  1  0  0  0  0
 11 12  1  0  0  0  0
 12 13  1  0  0  0  0
 15 16  1  0  0  0  0
M  END
>  <Index>
834

>  <ID>
HT1623

>  <class>
0

>  <apol>
35.968273

>  <ast_fraglike>
1

>  <ast_fraglike_ext>
0

>  <ast_violation>
0

>  <ast_violation_ext>
1

>  <a_acc>
3

>  <a_acid>
0

>  <a_aro>
0

>  <a_base>
0

>  <a_count>
34

>  <a_don>
2

>  <a_donacc>
5

>  <a_heavy>
16

>  <a_hyd>
8

>  <a_IC>
53.106453

>  <a_ICM>
1.5619545

>  <a_nB>
0

>  <a_nBr>
0

>  <a_nC>
11

>  <a_nCl>
0

>  <a_nF>
0

>  <a_nH>
18

>  <a_nI>
0

>  <a_nN>
2

>  <a_nO>
3

>  <a_nP>
0

>  <a_nS>
0

>  <balabanJ>
2.9150634

>  <BCUT_PEOE_0>
-2.7299519

>  <BCUT_PEOE_1>
-0.44575372

>  <BCUT_PEOE_2>
0.4166154

>  <BCUT_PEOE_3>
2.7709801

>  <BCUT_SLOGP_0>
-2.8219788

>  <BCUT_SLOGP_1>
-0.2263947

>  <BCUT_SLOGP_2>
0.398238

>  <BCUT_SLOGP_3>
2.7918077

>  <BCUT_SMR_0>
-2.497365

>  <BCUT_SMR_1>
-0.25145829

>  <BCUT_SMR_2>
0.50143695

>  <BCUT_SMR_3>
3.0008538

>  <bpol>
23.871725

>  <b_1rotN>
4

>  <b_1rotR>
0.25

>  <b_ar>
0

>  <b_count>
34

>  <b_double>
3

>  <b_heavy>
16

>  <b_max1len>
8

>  <b_rotN>
4

>  <b_rotR>
0.25

>  <b_single>
31

>  <b_triple>
0

>  <chi0>
12.344935

>  <chi0v>
9.9234152

>  <chi0v_C>
7.6986704

>  <chi0_C>
7.9307213

>  <chi1>
7.4844351

>  <chi1v>
5.6544132

>  <chi1v_C>
4.0420408

>  <chi1_C>
4.119391

>  <chiral>
1

>  <chiral_u>
1

>  <density>
0.74229819

>  <diameter>
8

>  <FCharge>
0

>  <GCUT_PEOE_0>
-0.79486871

>  <GCUT_PEOE_1>
-0.44704702

>  <GCUT_PEOE_2>
0.086334586

>  <GCUT_PEOE_3>
2.7007296

>  <GCUT_SLOGP_0>
-1.1839066

>  <GCUT_SLOGP_1>
-0.33415365

>  <GCUT_SLOGP_2>
0.018506758

>  <GCUT_SLOGP_3>
2.6992798

>  <GCUT_SMR_0>
-0.53247416

>  <GCUT_SMR_1>
-0.20601763

>  <GCUT_SMR_2>
0.13794106

>  <GCUT_SMR_3>
2.9181821

>  <Kier1>
14.0625

>  <Kier2>
5.5576558

>  <Kier3>
2.4882812

>  <KierA1>
10.916496

>  <KierA2>
4.2351041

>  <KierA3>
1.8698584

>  <KierFlex>
2.8895311

>  <lip_acc>
5

>  <lip_don>
2

>  <lip_druglike>
1

>  <lip_violation>
0

>  <logP(o/w)>
2.1270001

>  <logS>
-3.3893499

>  <mr>
6.0325527

>  <mutagenic>
0

>  <nmol>
1

>  <opr_brigid>
6

>  <opr_leadlike>
1

>  <opr_nring>
1

>  <opr_nrot>
4

>  <opr_violation>
0

>  <PC+>
0

>  <PC->
0

>  <PEOE_PC+>
1.6942006

>  <PEOE_PC->
-1.6942006

>  <PEOE_RPC+>
0.19419511

>  <PEOE_RPC->
0.16393238

>  <PEOE_VSA+0>
68.246178

>  <PEOE_VSA+1>
0

>  <PEOE_VSA+2>
0

>  <PEOE_VSA+3>
17.238026

>  <PEOE_VSA+4>
25.899061

>  <PEOE_VSA+5>
0

>  <PEOE_VSA+6>
17.440542

>  <PEOE_VSA-0>
17.402626

>  <PEOE_VSA-1>
64.944344

>  <PEOE_VSA-2>
0

>  <PEOE_VSA-3>
0

>  <PEOE_VSA-4>
13.566921

>  <PEOE_VSA-5>
27.407623

>  <PEOE_VSA-6>
0

>  <PEOE_VSA_FHYD>
0.66561288

>  <PEOE_VSA_FNEG>
0.48908904

>  <PEOE_VSA_FPNEG>
0.16250369

>  <PEOE_VSA_FPOL>
0.33438712

>  <PEOE_VSA_FPOS>
0.51091093

>  <PEOE_VSA_FPPOS>
0.17188343

>  <PEOE_VSA_HYD>
167.83118

>  <PEOE_VSA_NEG>
123.32152

>  <PEOE_VSA_PNEG>
40.974545

>  <PEOE_VSA_POL>
84.314148

>  <PEOE_VSA_POS>
128.82381

>  <PEOE_VSA_PPOS>
43.339603

>  <petitjean>
0.5

>  <petitjeanSC>
1

>  <Q_PC+>
0

>  <Q_PC->
0

>  <Q_RPC+>
0

>  <Q_RPC->
0

>  <Q_VSA_FHYD>
1

>  <Q_VSA_FNEG>
0

>  <Q_VSA_FPNEG>
0

>  <Q_VSA_FPOL>
0

>  <Q_VSA_FPOS>
1

>  <Q_VSA_FPPOS>
0

>  <Q_VSA_HYD>
252.14532

>  <Q_VSA_NEG>
0

>  <Q_VSA_PNEG>
0

>  <Q_VSA_POL>
0

>  <Q_VSA_POS>
252.14532

>  <Q_VSA_PPOS>
0

>  <radius>
4

>  <reactive>
0

>  <rings>
1

>  <RPC+>
0

>  <RPC->
0

>  <rsynth>
1

>  <SlogP>
1.1849999

>  <SlogP_VSA0>
36.0215

>  <SlogP_VSA1>
15.347524

>  <SlogP_VSA2>
47.724434

>  <SlogP_VSA3>
0

>  <SlogP_VSA4>
4.4107962

>  <SlogP_VSA5>
0

>  <SlogP_VSA6>
0

>  <SlogP_VSA7>
0

>  <SlogP_VSA8>
56.605217

>  <SlogP_VSA9>
123.84026

>  <SMR>
5.8477402

>  <SMR_VSA0>
71.586647

>  <SMR_VSA1>
0

>  <SMR_VSA2>
40.432297

>  <SMR_VSA3>
0

>  <SMR_VSA4>
0

>  <SMR_VSA5>
56.605217

>  <SMR_VSA6>
15.347524

>  <SMR_VSA7>
99.978043

>  <TPSA>
75.269997

>  <VAdjEq>
0.54356444

>  <VAdjMa>
5

>  <VDistEq>
2.6073875

>  <VDistMa>
7.7428861

>  <vdw_area>
252.14532

>  <vdw_vol>
304.83167

>  <vsa_acc>
40.700764

>  <vsa_acid>
0

>  <vsa_base>
0

>  <vsa_don>
11.365152

>  <vsa_hyd>
137.85938

>  <vsa_other>
43.339603

>  <vsa_pol>
52.065914

>  <Weight>
226.276

>  <weinerPath>
398

>  <weinerPol>
29

>  <zagreb>
78

$$$$