S1c2c(N(c3ncccc13)C(OCCOCCN1CCCCC1)=O)cccc2
  MOE2013           2D

 28 31  0  0  0  0  0  0  0  0999 V2000
    0.0000    0.0000    0.0000 S   0  0  0  0  0  0  0  0  0  0  0  0
    0.0070    1.5000    0.0000 C   0  0  0  0  0  0  0  0  0  0  0  0
    1.3100    2.2440    0.0000 C   0  0  0  0  0  0  0  0  0  0  0  0
    2.6050    1.4880    0.0000 N   0  0  0  0  0  0  0  0  0  0  0  0
    2.5980   -0.0120    0.0000 C   0  0  0  0  0  0  0  0  0  0  0  0
    3.8930   -0.7690    0.0000 N   0  0  0  0  0  0  0  0  0  0  0  0
    3.8860   -2.2690    0.0000 C   0  0  0  0  0  0  0  0  0  0  0  0
    2.5840   -3.0120    0.0000 C   0  0  0  0  0  0  0  0  0  0  0  0
    1.2880   -2.2560    0.0000 C   0  0  0  0  0  0  0  0  0  0  0  0
    1.2950   -0.7560    0.0000 C   0  0  0  0  0  0  0  0  0  0  0  0
    3.9080    2.2310    0.0000 C   0  0  0  0  0  0  0  0  0  0  0  0
    5.2030    1.4750    0.0000 O   0  0  0  0  0  0  0  0  0  0  0  0
    6.5060    2.2190    0.0000 C   0  0  0  0  0  0  0  0  0  0  0  0
    7.8010    1.4630    0.0000 C   0  0  0  0  0  0  0  0  0  0  0  0
    9.1040    2.2070    0.0000 O   0  0  0  0  0  0  0  0  0  0  0  0
   10.3990    1.4500    0.0000 C   0  0  0  0  0  0  0  0  0  0  0  0
   11.7020    2.1940    0.0000 C   0  0  0  0  0  0  0  0  0  0  0  0
   12.9970    1.4380    0.0000 N   0  0  0  0  0  0  0  0  0  0  0  0
   12.9900   -0.0620    0.0000 C   0  0  0  0  0  0  0  0  0  0  0  0
   14.2860   -0.8180    0.0000 C   0  0  0  0  0  0  0  0  0  0  0  0
   15.5880   -0.0740    0.0000 C   0  0  0  0  0  0  0  0  0  0  0  0
   15.5950    1.4260    0.0000 C   0  0  0  0  0  0  0  0  0  0  0  0
   14.3000    2.1820    0.0000 C   0  0  0  0  0  0  0  0  0  0  0  0
    3.9150    3.7310    0.0000 O   0  0  0  0  0  0  0  0  0  0  0  0
    1.3170    3.7440    0.0000 C   0  0  0  0  0  0  0  0  0  0  0  0
    0.0210    4.5000    0.0000 C   0  0  0  0  0  0  0  0  0  0  0  0
   -1.2810    3.7560    0.0000 C   0  0  0  0  0  0  0  0  0  0  0  0
   -1.2880    2.2560    0.0000 C   0  0  0  0  0  0  0  0  0  0  0  0
  1  2  1  0  0  0  0
  1 10  1  0  0  0  0
  2  3  1  0  0  0  0
  2 28  2  0  0  0  0
  3  4  1  0  0  0  0
  3 25  2  0  0  0  0
  4  5  1  0  0  0  0
  4 11  1  0  0  0  0
  5  6  1  0  0  0  0
  5 10  2  0  0  0  0
  6  7  2  0  0  0  0
  7  8  1  0  0  0  0
  8  9  2  0  0  0  0
  9 10  1  0  0  0  0
 11 12  1  0  0  0  0
 11 24  2  0  0  0  0
 12 13  1  0  0  0  0
 13 14  1  0  0  0  0
 14 15  1  0  0  0  0
 15 16  1  0  0  0  0
 16 17  1  0  0  0  0
 17 18  1  0  0  0  0
 18 19  1  0  0  0  0
 18 23  1  0  0  0  0
 19 20  1  0  0  0  0
 20 21  1  0  0  0  0
 21 22  1  0  0  0  0
 22 23  1  0  0  0  0
 25 26  1  0  0  0  0
 26 27  2  0  0  0  0
 27 28  1  0  0  0  0
M  END
>  <Index>
866

>  <ID>
HT1679

>  <class>
0

>  <apol>
62.235825

>  <ast_fraglike>
0

>  <ast_fraglike_ext>
0

>  <ast_violation>
3

>  <ast_violation_ext>
4

>  <a_acc>
4

>  <a_acid>
0

>  <a_aro>
12

>  <a_base>
0

>  <a_count>
53

>  <a_don>
0

>  <a_donacc>
4

>  <a_heavy>
28

>  <a_hyd>
20

>  <a_IC>
85.73494

>  <a_ICM>
1.6176404

>  <a_nB>
0

>  <a_nBr>
0

>  <a_nC>
21

>  <a_nCl>
0

>  <a_nF>
0

>  <a_nH>
25

>  <a_nI>
0

>  <a_nN>
3

>  <a_nO>
3

>  <a_nP>
0

>  <a_nS>
1

>  <balabanJ>
1.2096586

>  <BCUT_PEOE_0>
-2.7824926

>  <BCUT_PEOE_1>
-0.57900435

>  <BCUT_PEOE_2>
0.62829071

>  <BCUT_PEOE_3>
2.6939216

>  <BCUT_SLOGP_0>
-2.8081813

>  <BCUT_SLOGP_1>
-0.46629742

>  <BCUT_SLOGP_2>
0.73651832

>  <BCUT_SLOGP_3>
2.7390275

>  <BCUT_SMR_0>
-2.5121903

>  <BCUT_SMR_1>
-0.41447282

>  <BCUT_SMR_2>
0.78532779

>  <BCUT_SMR_3>
2.9583611

>  <bpol>
39.680176

>  <b_1rotN>
7

>  <b_1rotR>
0.22580644

>  <b_ar>
12

>  <b_count>
56

>  <b_double>
1

>  <b_heavy>
31

>  <b_max1len>
6

>  <b_rotN>
8

>  <b_rotR>
0.25806451

>  <b_single>
43

>  <b_triple>
0

>  <chi0>
19.183588

>  <chi0v>
16.696543

>  <chi0v_C>
12.905413

>  <chi0_C>
14.200459

>  <chi1>
13.8265

>  <chi1v>
10.63302

>  <chi1v_C>
6.032692

>  <chi1_C>
7.3914113

>  <chiral>
0

>  <chiral_u>
0

>  <density>
0.75102711

>  <diameter>
15

>  <FCharge>
0

>  <GCUT_PEOE_0>
-0.85242599

>  <GCUT_PEOE_1>
-0.40285468

>  <GCUT_PEOE_2>
0.05746774

>  <GCUT_PEOE_3>
2.6344693

>  <GCUT_SLOGP_0>
-0.9584766

>  <GCUT_SLOGP_1>
-0.25853011

>  <GCUT_SLOGP_2>
0.15198109

>  <GCUT_SLOGP_3>
2.6986403

>  <GCUT_SMR_0>
-0.52520555

>  <GCUT_SMR_1>
-0.18097906

>  <GCUT_SMR_2>
0.1770618

>  <GCUT_SMR_3>
2.8950582

>  <Kier1>
21.240376

>  <Kier2>
10.857822

>  <Kier3>
5.5867767

>  <KierA1>
17.785517

>  <KierA2>
9.0287075

>  <KierA3>
4.6226802

>  <KierFlex>
5.7350082

>  <lip_acc>
6

>  <lip_don>
0

>  <lip_druglike>
1

>  <lip_violation>
0

>  <logP(o/w)>
3.0827401

>  <logS>
-3.8335099

>  <mr>
11.198841

>  <mutagenic>
0

>  <nmol>
1

>  <opr_brigid>
22

>  <opr_leadlike>
1

>  <opr_nring>
4

>  <opr_nrot>
8

>  <opr_violation>
0

>  <PC+>
0

>  <PC->
0

>  <PEOE_PC+>
2.1890838

>  <PEOE_PC->
-2.1890838

>  <PEOE_RPC+>
0.17059864

>  <PEOE_RPC->
0.17186317

>  <PEOE_VSA+0>
85.307472

>  <PEOE_VSA+1>
111.18805

>  <PEOE_VSA+2>
0

>  <PEOE_VSA+3>
11.190562

>  <PEOE_VSA+4>
0

>  <PEOE_VSA+5>
0

>  <PEOE_VSA+6>
19.199511

>  <PEOE_VSA-0>
92.806892

>  <PEOE_VSA-1>
52.971741

>  <PEOE_VSA-2>
0

>  <PEOE_VSA-3>
0

>  <PEOE_VSA-4>
19.249496

>  <PEOE_VSA-5>
2.503756

>  <PEOE_VSA-6>
2.503756

>  <PEOE_VSA_FHYD>
0.89051598

>  <PEOE_VSA_FNEG>
0.42838636

>  <PEOE_VSA_FPNEG>
0.061112903

>  <PEOE_VSA_FPOL>
0.10948399

>  <PEOE_VSA_FPOS>
0.57161367

>  <PEOE_VSA_FPPOS>
0.048371084

>  <PEOE_VSA_HYD>
353.46472

>  <PEOE_VSA_NEG>
170.03564

>  <PEOE_VSA_PNEG>
24.25701

>  <PEOE_VSA_POL>
43.45652

>  <PEOE_VSA_POS>
226.88559

>  <PEOE_VSA_PPOS>
19.199511

>  <petitjean>
0.46666667

>  <petitjeanSC>
0.875

>  <Q_PC+>
0

>  <Q_PC->
0

>  <Q_RPC+>
0

>  <Q_RPC->
0

>  <Q_VSA_FHYD>
1

>  <Q_VSA_FNEG>
0

>  <Q_VSA_FPNEG>
0

>  <Q_VSA_FPOL>
0

>  <Q_VSA_FPOS>
1

>  <Q_VSA_FPPOS>
0

>  <Q_VSA_HYD>
396.92123

>  <Q_VSA_NEG>
0

>  <Q_VSA_PNEG>
0

>  <Q_VSA_POL>
0

>  <Q_VSA_POS>
396.92123

>  <Q_VSA_PPOS>
0

>  <radius>
8

>  <reactive>
0

>  <rings>
4

>  <RPC+>
0

>  <RPC->
0

>  <rsynth>
1

>  <SlogP>
4.3234

>  <SlogP_VSA0>
3.1243138

>  <SlogP_VSA1>
27.22648

>  <SlogP_VSA2>
21.999775

>  <SlogP_VSA3>
118.09751

>  <SlogP_VSA4>
0

>  <SlogP_VSA5>
3.1014678

>  <SlogP_VSA6>
0

>  <SlogP_VSA7>
123.07346

>  <SlogP_VSA8>
56.605217

>  <SlogP_VSA9>
61.166424

>  <SMR>
10.94

>  <SMR_VSA0>
45.861992

>  <SMR_VSA1>
19.909843

>  <SMR_VSA2>
6.2257819

>  <SMR_VSA3>
0

>  <SMR_VSA4>
5.0846677

>  <SMR_VSA5>
179.67868

>  <SMR_VSA6>
125.41415

>  <SMR_VSA7>
32.21954

>  <TPSA>
54.900002

>  <VAdjEq>
0.39893496

>  <VAdjMa>
5.9541965

>  <VDistEq>
3.733232

>  <VDistMa>
9.2821131

>  <vdw_area>
396.92123

>  <vdw_vol>
531.95813

>  <vsa_acc>
21.753254

>  <vsa_acid>
0

>  <vsa_base>
0

>  <vsa_don>
0

>  <vsa_hyd>
324.47928

>  <vsa_other>
32.893829

>  <vsa_pol>
21.753254

>  <Weight>
399.51498

>  <weinerPath>
2358

>  <weinerPol>
43

>  <zagreb>
144

$$$$