O=C1c2c(cccc2)C(=O)C1c1ccccc1
  MOE2013           2D

 17 19  0  0  0  0  0  0  0  0999 V2000
    0.0000    0.0000    0.0000 O   0  0  0  0  0  0  0  0  0  0  0  0
   -0.9840   -1.1320    0.0000 C   0  0  0  0  0  0  0  0  0  0  0  0
   -2.4780   -1.0010    0.0000 C   0  0  0  0  0  0  0  0  0  0  0  0
   -3.0640   -2.3820    0.0000 C   0  0  0  0  0  0  0  0  0  0  0  0
   -4.5530   -2.5650    0.0000 C   0  0  0  0  0  0  0  0  0  0  0  0
   -5.4560   -1.3670    0.0000 C   0  0  0  0  0  0  0  0  0  0  0  0
   -4.8700    0.0140    0.0000 C   0  0  0  0  0  0  0  0  0  0  0  0
   -3.3810    0.1970    0.0000 C   0  0  0  0  0  0  0  0  0  0  0  0
   -1.9320   -3.3660    0.0000 C   0  0  0  0  0  0  0  0  0  0  0  0
   -2.0630   -4.8600    0.0000 O   0  0  0  0  0  0  0  0  0  0  0  0
   -0.6470   -2.5940    0.0000 C   0  0  0  0  0  0  0  0  0  0  0  0
    0.7340   -3.1800    0.0000 C   0  0  0  0  0  0  0  0  0  0  0  0
    0.9170   -4.6690    0.0000 C   0  0  0  0  0  0  0  0  0  0  0  0
    2.2980   -5.2550    0.0000 C   0  0  0  0  0  0  0  0  0  0  0  0
    3.4960   -4.3520    0.0000 C   0  0  0  0  0  0  0  0  0  0  0  0
    3.3130   -2.8630    0.0000 C   0  0  0  0  0  0  0  0  0  0  0  0
    1.9320   -2.2770    0.0000 C   0  0  0  0  0  0  0  0  0  0  0  0
  1  2  2  0  0  0  0
  2  3  1  0  0  0  0
  2 11  1  0  0  0  0
  3  4  1  0  0  0  0
  3  8  2  0  0  0  0
  4  5  2  0  0  0  0
  4  9  1  0  0  0  0
  5  6  1  0  0  0  0
  6  7  2  0  0  0  0
  7  8  1  0  0  0  0
  9 10  2  0  0  0  0
  9 11  1  0  0  0  0
 11 12  1  0  0  0  0
 12 13  1  0  0  0  0
 12 17  2  0  0  0  0
 13 14  2  0  0  0  0
 14 15  1  0  0  0  0
 15 16  2  0  0  0  0
 16 17  1  0  0  0  0
M  END
>  <Index>
849

>  <ID>
HT1648

>  <class>
0

>  <apol>
34.671928

>  <ast_fraglike>
1

>  <ast_fraglike_ext>
1

>  <ast_violation>
0

>  <ast_violation_ext>
0

>  <a_acc>
2

>  <a_acid>
0

>  <a_aro>
12

>  <a_base>
0

>  <a_count>
27

>  <a_don>
0

>  <a_donacc>
2

>  <a_heavy>
17

>  <a_hyd>
13

>  <a_IC>
34.559322

>  <a_ICM>
1.2799749

>  <a_nB>
0

>  <a_nBr>
0

>  <a_nC>
15

>  <a_nCl>
0

>  <a_nF>
0

>  <a_nH>
10

>  <a_nI>
0

>  <a_nN>
0

>  <a_nO>
2

>  <a_nP>
0

>  <a_nS>
0

>  <balabanJ>
1.7611611

>  <BCUT_PEOE_0>
-2.288332

>  <BCUT_PEOE_1>
-0.63828748

>  <BCUT_PEOE_2>
0.67403775

>  <BCUT_PEOE_3>
2.5212722

>  <BCUT_SLOGP_0>
-2.2957511

>  <BCUT_SLOGP_1>
-0.52932817

>  <BCUT_SLOGP_2>
0.76519608

>  <BCUT_SLOGP_3>
2.4998479

>  <BCUT_SMR_0>
-2.0115285

>  <BCUT_SMR_1>
-0.45943037

>  <BCUT_SMR_2>
0.84115744

>  <BCUT_SMR_3>
2.7975338

>  <bpol>
12.84807

>  <b_1rotN>
1

>  <b_1rotR>
0.052631579

>  <b_ar>
12

>  <b_count>
29

>  <b_double>
2

>  <b_heavy>
19

>  <b_max1len>
2

>  <b_rotN>
1

>  <b_rotR>
0.052631579

>  <b_single>
15

>  <b_triple>
0

>  <chi0>
11.828063

>  <chi0v>
9.0899992

>  <chi0v_C>
8.2735023

>  <chi0_C>
9.828063

>  <chi1>
8.287694

>  <chi1v>
5.5123076

>  <chi1v_C>
5.1040592

>  <chi1_C>
7.1329932

>  <chiral>
0

>  <chiral_u>
0

>  <density>
0.72725177

>  <diameter>
8

>  <FCharge>
0

>  <GCUT_PEOE_0>
-0.75375187

>  <GCUT_PEOE_1>
-0.41518688

>  <GCUT_PEOE_2>
0.068703204

>  <GCUT_PEOE_3>
2.4357429

>  <GCUT_SLOGP_0>
-0.81134272

>  <GCUT_SLOGP_1>
-0.28923592

>  <GCUT_SLOGP_2>
0.1541869

>  <GCUT_SLOGP_3>
2.5061648

>  <GCUT_SMR_0>
-0.43208373

>  <GCUT_SMR_1>
-0.22020759

>  <GCUT_SMR_2>
0.19510765

>  <GCUT_SMR_3>
2.728889

>  <Kier1>
12.055402

>  <Kier2>
4.9382715

>  <Kier3>
2.0618014

>  <KierA1>
7.874063

>  <KierA2>
3.1299586

>  <KierA3>
1.2755876

>  <KierFlex>
1.4497348

>  <lip_acc>
2

>  <lip_don>
0

>  <lip_druglike>
1

>  <lip_violation>
0

>  <logP(o/w)>
2.7390001

>  <logS>
-3.84747

>  <mr>
6.591352

>  <mutagenic>
0

>  <nmol>
1

>  <opr_brigid>
16

>  <opr_leadlike>
1

>  <opr_nring>
3

>  <opr_nrot>
1

>  <opr_violation>
0

>  <PC+>
0

>  <PC->
0

>  <PEOE_PC+>
1.1340612

>  <PEOE_PC->
-1.1340612

>  <PEOE_RPC+>
0.15753233

>  <PEOE_RPC->
0.25653154

>  <PEOE_VSA+0>
4.4170794

>  <PEOE_VSA+1>
42.653858

>  <PEOE_VSA+2>
0

>  <PEOE_VSA+3>
16.917038

>  <PEOE_VSA+4>
0

>  <PEOE_VSA+5>
0

>  <PEOE_VSA+6>
0

>  <PEOE_VSA-0>
2.2085397

>  <PEOE_VSA-1>
110.29414

>  <PEOE_VSA-2>
0

>  <PEOE_VSA-3>
0

>  <PEOE_VSA-4>
0

>  <PEOE_VSA-5>
27.133842

>  <PEOE_VSA-6>
0

>  <PEOE_VSA_FHYD>
0.86674571

>  <PEOE_VSA_FNEG>
0.68575501

>  <PEOE_VSA_FPNEG>
0.1332543

>  <PEOE_VSA_FPOL>
0.1332543

>  <PEOE_VSA_FPOS>
0.31424499

>  <PEOE_VSA_FPPOS>
0

>  <PEOE_VSA_HYD>
176.49065

>  <PEOE_VSA_NEG>
139.63652

>  <PEOE_VSA_PNEG>
27.133842

>  <PEOE_VSA_POL>
27.133842

>  <PEOE_VSA_POS>
63.98798

>  <PEOE_VSA_PPOS>
0

>  <petitjean>
0.5

>  <petitjeanSC>
1

>  <Q_PC+>
0

>  <Q_PC->
0

>  <Q_RPC+>
0

>  <Q_RPC->
0

>  <Q_VSA_FHYD>
1

>  <Q_VSA_FNEG>
0

>  <Q_VSA_FPNEG>
0

>  <Q_VSA_FPOL>
0

>  <Q_VSA_FPOS>
1

>  <Q_VSA_FPPOS>
0

>  <Q_VSA_HYD>
203.6245

>  <Q_VSA_NEG>
0

>  <Q_VSA_PNEG>
0

>  <Q_VSA_POL>
0

>  <Q_VSA_POS>
203.6245

>  <Q_VSA_PPOS>
0

>  <radius>
4

>  <reactive>
1

>  <rings>
3

>  <RPC+>
0

>  <RPC->
0

>  <rsynth>
1

>  <SlogP>
2.8494

>  <SlogP_VSA0>
0

>  <SlogP_VSA1>
11.375222

>  <SlogP_VSA2>
0

>  <SlogP_VSA3>
0

>  <SlogP_VSA4>
57.281158

>  <SlogP_VSA5>
0

>  <SlogP_VSA6>
4.4107962

>  <SlogP_VSA7>
158.78867

>  <SlogP_VSA8>
0

>  <SlogP_VSA9>
0

>  <SMR>
6.4285998

>  <SMR_VSA0>
47.724434

>  <SMR_VSA1>
0

>  <SMR_VSA2>
0

>  <SMR_VSA3>
13.967521

>  <SMR_VSA4>
0

>  <SMR_VSA5>
158.78867

>  <SMR_VSA6>
11.375222

>  <SMR_VSA7>
0

>  <TPSA>
34.139999

>  <VAdjEq>
0.56150466

>  <VAdjMa>
5.2479277

>  <VDistEq>
2.7541864

>  <VDistMa>
7.8980927

>  <vdw_area>
203.6245

>  <vdw_vol>
305.59293

>  <vsa_acc>
27.133842

>  <vsa_acid>
0

>  <vsa_base>
0

>  <vsa_don>
0

>  <vsa_hyd>
151.11061

>  <vsa_other>
16.917038

>  <vsa_pol>
27.133842

>  <Weight>
222.243

>  <weinerPath>
473

>  <weinerPol>
28

>  <zagreb>
92

$$$$