Oc1cc(ccc1)[C@@H](O)CNC
  MOE2013           2D

 12 12  0  0  1  0  0  0  0  0999 V2000
    0.0000    0.0000    0.0000 O   0  0  0  0  0  0  0  0  0  0  0  0
    1.2980    0.7530    0.0000 C   0  0  0  0  0  0  0  0  0  0  0  0
    2.5980    0.0050    0.0000 C   0  0  0  0  0  0  0  0  0  0  0  0
    3.8960    0.7580    0.0000 C   0  0  0  0  0  0  0  0  0  0  0  0
    3.8930    2.2580    0.0000 C   0  0  0  0  0  0  0  0  0  0  0  0
    2.5920    3.0050    0.0000 C   0  0  0  0  0  0  0  0  0  0  0  0
    1.2950    2.2530    0.0000 C   0  0  0  0  0  0  0  0  0  0  0  0
    5.1960    0.0100    0.0000 C   0  0  1  0  0  0  0  0  0  0  0  0
    5.1990   -1.4900    0.0000 O   0  0  0  0  0  0  0  0  0  0  0  0
    6.4940    0.7630    0.0000 C   0  0  0  0  0  0  0  0  0  0  0  0
    7.7940    0.0160    0.0000 N   0  0  0  0  0  0  0  0  0  0  0  0
    9.0920    0.7680    0.0000 C   0  0  0  0  0  0  0  0  0  0  0  0
  1  2  1  0  0  0  0
  2  3  2  0  0  0  0
  2  7  1  0  0  0  0
  3  4  1  0  0  0  0
  4  5  2  0  0  0  0
  4  8  1  0  0  0  0
  5  6  1  0  0  0  0
  6  7  2  0  0  0  0
  8  9  1  6  0  0  0
  8 10  1  0  0  0  0
 10 11  1  0  0  0  0
 11 12  1  0  0  0  0
M  END
>  <Index>
855

>  <ID>
HT1661

>  <class>
0

>  <apol>
27.212309

>  <ast_fraglike>
1

>  <ast_fraglike_ext>
1

>  <ast_violation>
0

>  <ast_violation_ext>
0

>  <a_acc>
3

>  <a_acid>
0

>  <a_aro>
6

>  <a_base>
0

>  <a_count>
25

>  <a_don>
3

>  <a_donacc>
6

>  <a_heavy>
12

>  <a_hyd>
9

>  <a_IC>
37.461365

>  <a_ICM>
1.4984546

>  <a_nB>
0

>  <a_nBr>
0

>  <a_nC>
9

>  <a_nCl>
0

>  <a_nF>
0

>  <a_nH>
13

>  <a_nI>
0

>  <a_nN>
1

>  <a_nO>
2

>  <a_nP>
0

>  <a_nS>
0

>  <balabanJ>
2.3161678

>  <BCUT_PEOE_0>
-2.5417521

>  <BCUT_PEOE_1>
-0.60760009

>  <BCUT_PEOE_2>
0.66995484

>  <BCUT_PEOE_3>
2.4879818

>  <BCUT_SLOGP_0>
-2.6717396

>  <BCUT_SLOGP_1>
-0.5982179

>  <BCUT_SLOGP_2>
0.70461386

>  <BCUT_SLOGP_3>
2.5091259

>  <BCUT_SMR_0>
-2.2731957

>  <BCUT_SMR_1>
-0.48119453

>  <BCUT_SMR_2>
0.80056262

>  <BCUT_SMR_3>
2.7455156

>  <bpol>
14.871691

>  <b_1rotN>
3

>  <b_1rotR>
0.25

>  <b_ar>
6

>  <b_count>
25

>  <b_double>
0

>  <b_heavy>
12

>  <b_max1len>
6

>  <b_rotN>
3

>  <b_rotR>
0.25

>  <b_single>
19

>  <b_triple>
0

>  <chi0>
8.9746914

>  <chi0v>
6.9882855

>  <chi0v_C>
5.5938582

>  <chi0_C>
6.2675848

>  <chi1>
5.736382

>  <chi1v>
3.8536496

>  <chi1v_C>
2.5182905

>  <chi1_C>
3.3745749

>  <chiral>
1

>  <chiral_u>
0

>  <density>
0.71004581

>  <diameter>
7

>  <FCharge>
0

>  <GCUT_PEOE_0>
-0.84672499

>  <GCUT_PEOE_1>
-0.38106063

>  <GCUT_PEOE_2>
0.12294642

>  <GCUT_PEOE_3>
2.2688434

>  <GCUT_SLOGP_0>
-1.1524684

>  <GCUT_SLOGP_1>
-0.34570155

>  <GCUT_SLOGP_2>
0.14662813

>  <GCUT_SLOGP_3>
2.3608508

>  <GCUT_SMR_0>
-0.51225704

>  <GCUT_SMR_1>
-0.23410192

>  <GCUT_SMR_2>
0.18862808

>  <GCUT_SMR_3>
2.5306075

>  <Kier1>
10.083333

>  <Kier2>
4.8888888

>  <Kier3>
3.1141868

>  <KierA1>
8.1382713

>  <KierA2>
3.8612704

>  <KierA3>
2.417886

>  <KierFlex>
2.6186721

>  <lip_acc>
3

>  <lip_don>
3

>  <lip_druglike>
1

>  <lip_violation>
0

>  <logP(o/w)>
0.84299999

>  <logS>
-0.56089002

>  <mr>
4.7624087

>  <mutagenic>
0

>  <nmol>
1

>  <opr_brigid>
6

>  <opr_leadlike>
1

>  <opr_nring>
1

>  <opr_nrot>
3

>  <opr_violation>
0

>  <PC+>
0

>  <PC->
0

>  <PEOE_PC+>
1.2662522

>  <PEOE_PC->
-1.2662522

>  <PEOE_RPC+>
0.17161939

>  <PEOE_RPC->
0.30476928

>  <PEOE_VSA+0>
34.519257

>  <PEOE_VSA+1>
34.69038

>  <PEOE_VSA+2>
8.6190128

>  <PEOE_VSA+3>
0

>  <PEOE_VSA+4>
20.648346

>  <PEOE_VSA+5>
0

>  <PEOE_VSA+6>
0

>  <PEOE_VSA-0>
49.957035

>  <PEOE_VSA-1>
24.509808

>  <PEOE_VSA-2>
0

>  <PEOE_VSA-3>
0

>  <PEOE_VSA-4>
0

>  <PEOE_VSA-5>
0

>  <PEOE_VSA-6>
15.671971

>  <PEOE_VSA_FHYD>
0.8074376

>  <PEOE_VSA_FNEG>
0.47789639

>  <PEOE_VSA_FPNEG>
0.083089389

>  <PEOE_VSA_FPOL>
0.19256242

>  <PEOE_VSA_FPOS>
0.52210361

>  <PEOE_VSA_FPPOS>
0.10947303

>  <PEOE_VSA_HYD>
152.29549

>  <PEOE_VSA_NEG>
90.138817

>  <PEOE_VSA_PNEG>
15.671971

>  <PEOE_VSA_POL>
36.320316

>  <PEOE_VSA_POS>
98.47699

>  <PEOE_VSA_PPOS>
20.648346

>  <petitjean>
0.42857143

>  <petitjeanSC>
0.75

>  <Q_PC+>
0

>  <Q_PC->
0

>  <Q_RPC+>
0

>  <Q_RPC->
0

>  <Q_VSA_FHYD>
1

>  <Q_VSA_FNEG>
0

>  <Q_VSA_FPNEG>
0

>  <Q_VSA_FPOL>
0

>  <Q_VSA_FPOS>
1

>  <Q_VSA_FPPOS>
0

>  <Q_VSA_HYD>
188.61581

>  <Q_VSA_NEG>
0

>  <Q_VSA_PNEG>
0

>  <Q_VSA_POL>
0

>  <Q_VSA_POS>
188.61581

>  <Q_VSA_PPOS>
0

>  <radius>
4

>  <reactive>
0

>  <rings>
1

>  <RPC+>
0

>  <RPC->
0

>  <rsynth>
1

>  <SlogP>
0.74049997

>  <SlogP_VSA0>
68.781204

>  <SlogP_VSA1>
0

>  <SlogP_VSA2>
0

>  <SlogP_VSA3>
18.439579

>  <SlogP_VSA4>
3.185575

>  <SlogP_VSA5>
32.897186

>  <SlogP_VSA6>
0

>  <SlogP_VSA7>
70.572739

>  <SlogP_VSA8>
6.4686494

>  <SlogP_VSA9>
5.2434282

>  <SMR>
4.7104301

>  <SMR_VSA0>
0

>  <SMR_VSA1>
50.770454

>  <SMR_VSA2>
18.01075

>  <SMR_VSA3>
14.897653

>  <SMR_VSA4>
0

>  <SMR_VSA5>
70.572739

>  <SMR_VSA6>
18.439579

>  <SMR_VSA7>
32.897186

>  <TPSA>
52.490002

>  <VAdjEq>
0.65002245

>  <VAdjMa>
4.5849624

>  <VDistEq>
2.6053088

>  <VDistMa>
6.8477259

>  <vdw_area>
188.61581

>  <vdw_vol>
235.48903

>  <vsa_acc>
0

>  <vsa_acid>
0

>  <vsa_base>
0

>  <vsa_don>
0

>  <vsa_hyd>
136.55852

>  <vsa_other>
0

>  <vsa_pol>
32.816418

>  <Weight>
167.20799

>  <weinerPath>
206

>  <weinerPol>
14

>  <zagreb>
54

$$$$