O(CCCCCCCCCCCC)CCOCCOCCOCCOCCOCCOCCOCCOCCO
  MOE2013           2D

 40 39  0  0  0  0  0  0  0  0999 V2000
    0.0000    0.0000    0.0000 O   0  0  0  0  0  0  0  0  0  0  0  0
    1.2980   -0.7510    0.0000 C   0  0  0  0  0  0  0  0  0  0  0  0
    2.5980   -0.0030    0.0000 C   0  0  0  0  0  0  0  0  0  0  0  0
    3.8960   -0.7540    0.0000 C   0  0  0  0  0  0  0  0  0  0  0  0
    5.1960   -0.0060    0.0000 C   0  0  0  0  0  0  0  0  0  0  0  0
    6.4940   -0.7570    0.0000 C   0  0  0  0  0  0  0  0  0  0  0  0
    7.7940   -0.0080    0.0000 C   0  0  0  0  0  0  0  0  0  0  0  0
    9.0920   -0.7600    0.0000 C   0  0  0  0  0  0  0  0  0  0  0  0
   10.3920   -0.0110    0.0000 C   0  0  0  0  0  0  0  0  0  0  0  0
   11.6910   -0.7630    0.0000 C   0  0  0  0  0  0  0  0  0  0  0  0
   12.9900   -0.0140    0.0000 C   0  0  0  0  0  0  0  0  0  0  0  0
   14.2890   -0.7650    0.0000 C   0  0  0  0  0  0  0  0  0  0  0  0
   15.5880   -0.0170    0.0000 C   0  0  0  0  0  0  0  0  0  0  0  0
   -1.3000   -0.7490    0.0000 C   0  0  0  0  0  0  0  0  0  0  0  0
   -2.5980    0.0030    0.0000 C   0  0  0  0  0  0  0  0  0  0  0  0
   -3.8980   -0.7460    0.0000 O   0  0  0  0  0  0  0  0  0  0  0  0
   -5.1960    0.0060    0.0000 C   0  0  0  0  0  0  0  0  0  0  0  0
   -6.4960   -0.7430    0.0000 C   0  0  0  0  0  0  0  0  0  0  0  0
   -7.7940    0.0080    0.0000 O   0  0  0  0  0  0  0  0  0  0  0  0
   -9.0940   -0.7400    0.0000 C   0  0  0  0  0  0  0  0  0  0  0  0
  -10.3920    0.0110    0.0000 C   0  0  0  0  0  0  0  0  0  0  0  0
  -11.6920   -0.7370    0.0000 O   0  0  0  0  0  0  0  0  0  0  0  0
  -12.9900    0.0140    0.0000 C   0  0  0  0  0  0  0  0  0  0  0  0
  -14.2900   -0.7350    0.0000 C   0  0  0  0  0  0  0  0  0  0  0  0
  -15.5880    0.0170    0.0000 O   0  0  0  0  0  0  0  0  0  0  0  0
  -16.8880   -0.7320    0.0000 C   0  0  0  0  0  0  0  0  0  0  0  0
  -18.1870    0.0200    0.0000 C   0  0  0  0  0  0  0  0  0  0  0  0
  -19.4860   -0.7290    0.0000 O   0  0  0  0  0  0  0  0  0  0  0  0
  -20.7850    0.0230    0.0000 C   0  0  0  0  0  0  0  0  0  0  0  0
  -22.0840   -0.7260    0.0000 C   0  0  0  0  0  0  0  0  0  0  0  0
  -23.3830    0.0250    0.0000 O   0  0  0  0  0  0  0  0  0  0  0  0
  -24.6830   -0.7230    0.0000 C   0  0  0  0  0  0  0  0  0  0  0  0
  -25.9810    0.0280    0.0000 C   0  0  0  0  0  0  0  0  0  0  0  0
  -27.2810   -0.7200    0.0000 O   0  0  0  0  0  0  0  0  0  0  0  0
  -28.5790    0.0310    0.0000 C   0  0  0  0  0  0  0  0  0  0  0  0
  -29.8790   -0.7180    0.0000 C   0  0  0  0  0  0  0  0  0  0  0  0
  -31.1770    0.0340    0.0000 O   0  0  0  0  0  0  0  0  0  0  0  0
  -32.4770   -0.7150    0.0000 C   0  0  0  0  0  0  0  0  0  0  0  0
  -33.7750    0.0370    0.0000 C   0  0  0  0  0  0  0  0  0  0  0  0
  -35.0750   -0.7120    0.0000 O   0  0  0  0  0  0  0  0  0  0  0  0
  1  2  1  0  0  0  0
  1 14  1  0  0  0  0
  2  3  1  0  0  0  0
  3  4  1  0  0  0  0
  4  5  1  0  0  0  0
  5  6  1  0  0  0  0
  6  7  1  0  0  0  0
  7  8  1  0  0  0  0
  8  9  1  0  0  0  0
  9 10  1  0  0  0  0
 10 11  1  0  0  0  0
 11 12  1  0  0  0  0
 12 13  1  0  0  0  0
 14 15  1  0  0  0  0
 15 16  1  0  0  0  0
 16 17  1  0  0  0  0
 17 18  1  0  0  0  0
 18 19  1  0  0  0  0
 19 20  1  0  0  0  0
 20 21  1  0  0  0  0
 21 22  1  0  0  0  0
 22 23  1  0  0  0  0
 23 24  1  0  0  0  0
 24 25  1  0  0  0  0
 25 26  1  0  0  0  0
 26 27  1  0  0  0  0
 27 28  1  0  0  0  0
 28 29  1  0  0  0  0
 29 30  1  0  0  0  0
 30 31  1  0  0  0  0
 31 32  1  0  0  0  0
 32 33  1  0  0  0  0
 33 34  1  0  0  0  0
 34 35  1  0  0  0  0
 35 36  1  0  0  0  0
 36 37  1  0  0  0  0
 37 38  1  0  0  0  0
 38 39  1  0  0  0  0
 39 40  1  0  0  0  0
M  END
>  <Index>
881

>  <ID>
HT1705

>  <class>
0

>  <apol>
102.16116

>  <ast_fraglike>
0

>  <ast_fraglike_ext>
0

>  <ast_violation>
3

>  <ast_violation_ext>
4

>  <a_acc>
10

>  <a_acid>
0

>  <a_aro>
0

>  <a_base>
0

>  <a_count>
102

>  <a_don>
1

>  <a_donacc>
11

>  <a_heavy>
40

>  <a_hyd>
30

>  <a_IC>
131.00122

>  <a_ICM>
1.2843256

>  <a_nB>
0

>  <a_nBr>
0

>  <a_nC>
30

>  <a_nCl>
0

>  <a_nF>
0

>  <a_nH>
62

>  <a_nI>
0

>  <a_nN>
0

>  <a_nO>
10

>  <a_nP>
0

>  <a_nS>
0

>  <balabanJ>
3.01436

>  <BCUT_PEOE_0>
-2.7307556

>  <BCUT_PEOE_1>
-0.15972966

>  <BCUT_PEOE_2>
0.058260176

>  <BCUT_PEOE_3>
2.6626461

>  <BCUT_SLOGP_0>
-2.6746159

>  <BCUT_SLOGP_1>
0.025946606

>  <BCUT_SLOGP_2>
0.123

>  <BCUT_SLOGP_3>
2.8301861

>  <BCUT_SMR_0>
-2.4781387

>  <BCUT_SMR_1>
0.1057

>  <BCUT_SMR_2>
0.10710028

>  <BCUT_SMR_3>
2.9158604

>  <bpol>
85.022835

>  <b_1rotN>
37

>  <b_1rotR>
0.94871795

>  <b_ar>
0

>  <b_count>
101

>  <b_double>
0

>  <b_heavy>
39

>  <b_max1len>
41

>  <b_rotN>
37

>  <b_rotR>
0.94871795

>  <b_single>
101

>  <b_triple>
0

>  <chi0>
28.870058

>  <chi0v>
25.627544

>  <chi0v_C>
21.506096

>  <chi0_C>
21.506096

>  <chi1>
19.914213

>  <chi1v>
15.719487

>  <chi1v_C>
10.207107

>  <chi1_C>
10.207107

>  <chiral>
0

>  <chiral_u>
0

>  <density>
0.68466216

>  <diameter>
39

>  <FCharge>
0

>  <GCUT_PEOE_0>
-0.81331915

>  <GCUT_PEOE_1>
-0.33330789

>  <GCUT_PEOE_2>
-0.10173982

>  <GCUT_PEOE_3>
2.6801231

>  <GCUT_SLOGP_0>
-0.90903211

>  <GCUT_SLOGP_1>
-0.20197129

>  <GCUT_SLOGP_2>
-0.037

>  <GCUT_SLOGP_3>
2.7756734

>  <GCUT_SMR_0>
-0.53472197

>  <GCUT_SMR_1>
-0.10441733

>  <GCUT_SMR_2>
-0.054299999

>  <GCUT_SMR_3>
2.8874664

>  <Kier1>
40

>  <Kier2>
39

>  <Kier3>
39.027027

>  <KierA1>
40

>  <KierA2>
39

>  <KierA3>
39.027027

>  <KierFlex>
39

>  <lip_acc>
10

>  <lip_don>
1

>  <lip_druglike>
1

>  <lip_violation>
1

>  <logP(o/w)>
1.80492

>  <logS>
-5.8377199

>  <mr>
16.000078

>  <mutagenic>
0

>  <nmol>
1

>  <opr_brigid>
0

>  <opr_leadlike>
0

>  <opr_nring>
0

>  <opr_nrot>
37

>  <opr_violation>
3

>  <PC+>
0

>  <PC->
0

>  <PEOE_PC+>
4.3453941

>  <PEOE_PC->
-4.3453941

>  <PEOE_RPC+>
0.048210558

>  <PEOE_RPC->
0.090381935

>  <PEOE_VSA+0>
113.05517

>  <PEOE_VSA+1>
431.20795

>  <PEOE_VSA+2>
0

>  <PEOE_VSA+3>
0

>  <PEOE_VSA+4>
10.324173

>  <PEOE_VSA+5>
0

>  <PEOE_VSA+6>
0

>  <PEOE_VSA-0>
8.701313

>  <PEOE_VSA-1>
97.059494

>  <PEOE_VSA-2>
0

>  <PEOE_VSA-3>
0

>  <PEOE_VSA-4>
0

>  <PEOE_VSA-5>
0

>  <PEOE_VSA-6>
30.301346

>  <PEOE_VSA_FHYD>
0.94117779

>  <PEOE_VSA_FNEG>
0.19700611

>  <PEOE_VSA_FPNEG>
0.043873698

>  <PEOE_VSA_FPOL>
0.058822196

>  <PEOE_VSA_FPOS>
0.80299389

>  <PEOE_VSA_FPPOS>
0.014948499

>  <PEOE_VSA_HYD>
650.02393

>  <PEOE_VSA_NEG>
136.06215

>  <PEOE_VSA_PNEG>
30.301346

>  <PEOE_VSA_POL>
40.625519

>  <PEOE_VSA_POS>
554.58728

>  <PEOE_VSA_PPOS>
10.324173

>  <petitjean>
0.48717949

>  <petitjeanSC>
0.94999999

>  <Q_PC+>
0

>  <Q_PC->
0

>  <Q_RPC+>
0

>  <Q_RPC->
0

>  <Q_VSA_FHYD>
1

>  <Q_VSA_FNEG>
0

>  <Q_VSA_FPNEG>
0

>  <Q_VSA_FPOL>
0

>  <Q_VSA_FPOS>
1

>  <Q_VSA_FPPOS>
0

>  <Q_VSA_HYD>
690.64941

>  <Q_VSA_NEG>
0

>  <Q_VSA_PNEG>
0

>  <Q_VSA_POL>
0

>  <Q_VSA_POS>
690.64941

>  <Q_VSA_PPOS>
0

>  <radius>
20

>  <reactive>
0

>  <rings>
0

>  <RPC+>
0

>  <RPC->
0

>  <rsynth>
1

>  <SlogP>
4.0489998

>  <SlogP_VSA0>
25.385227

>  <SlogP_VSA1>
0

>  <SlogP_VSA2>
98.998993

>  <SlogP_VSA3>
397.59891

>  <SlogP_VSA4>
0

>  <SlogP_VSA5>
0

>  <SlogP_VSA6>
0

>  <SlogP_VSA7>
0

>  <SlogP_VSA8>
188.68405

>  <SlogP_VSA9>
33.326015

>  <SMR>
15.63008

>  <SMR_VSA0>
98.998993

>  <SMR_VSA1>
25.385227

>  <SMR_VSA2>
0

>  <SMR_VSA3>
0

>  <SMR_VSA4>
0

>  <SMR_VSA5>
188.68405

>  <SMR_VSA6>
397.59891

>  <SMR_VSA7>
33.326015

>  <TPSA>
103.3

>  <VAdjEq>
0.28106314

>  <VAdjMa>
6.2854023

>  <VDistEq>
5.0242171

>  <VDistMa>
10.258434

>  <vdw_area>
690.64941

>  <vdw_vol>
851.24609

>  <vsa_acc>
22.533806

>  <vsa_acid>
0

>  <vsa_base>
0

>  <vsa_don>
0

>  <vsa_hyd>
606.60443

>  <vsa_other>
0

>  <vsa_pol>
36.100727

>  <Weight>
582.81598

>  <weinerPath>
10660

>  <weinerPol>
37

>  <zagreb>
154

$$$$