S1(=O)(=O)N(C)C(C(=O)Nc2ncccc2)=C(O)c2c1cccc2
  MOE2013           2D

 23 25  0  0  1  0  0  0  0  0999 V2000
    0.0000    0.0000    0.0000 S   0  0  0  0  0  0  0  0  0  0  0  0
   -1.5000    0.0060    0.0000 O   0  0  0  0  0  0  0  0  0  0  0  0
   -0.7560   -1.2960    0.0000 O   0  0  0  0  0  0  0  0  0  0  0  0
    1.2960   -0.7560    0.0000 N   0  0  3  0  0  0  0  0  0  0  0  0
    1.2890   -2.2550    0.0000 C   0  0  0  0  0  0  0  0  0  0  0  0
    2.5980   -0.0110    0.0000 C   0  0  0  0  0  0  0  0  0  0  0  0
    3.8940   -0.7670    0.0000 C   0  0  0  0  0  0  0  0  0  0  0  0
    3.8880   -2.2670    0.0000 O   0  0  0  0  0  0  0  0  0  0  0  0
    5.1960   -0.0220    0.0000 N   0  0  0  0  0  0  0  0  0  0  0  0
    6.4920   -0.7780    0.0000 C   0  0  0  0  0  0  0  0  0  0  0  0
    7.7940   -0.0330    0.0000 N   0  0  0  0  0  0  0  0  0  0  0  0
    9.0900   -0.7890    0.0000 C   0  0  0  0  0  0  0  0  0  0  0  0
    9.0840   -2.2890    0.0000 C   0  0  0  0  0  0  0  0  0  0  0  0
    7.7810   -3.0330    0.0000 C   0  0  0  0  0  0  0  0  0  0  0  0
    6.4860   -2.2780    0.0000 C   0  0  0  0  0  0  0  0  0  0  0  0
    2.6040    1.4890    0.0000 C   0  0  0  0  0  0  0  0  0  0  0  0
    3.9070    2.2330    0.0000 O   0  0  0  0  0  0  0  0  0  0  0  0
    1.3090    2.2440    0.0000 C   0  0  0  0  0  0  0  0  0  0  0  0
    0.0060    1.5000    0.0000 C   0  0  0  0  0  0  0  0  0  0  0  0
   -1.2890    2.2550    0.0000 C   0  0  0  0  0  0  0  0  0  0  0  0
   -1.2830    3.7550    0.0000 C   0  0  0  0  0  0  0  0  0  0  0  0
    0.0190    4.5000    0.0000 C   0  0  0  0  0  0  0  0  0  0  0  0
    1.3150    3.7440    0.0000 C   0  0  0  0  0  0  0  0  0  0  0  0
  1  2  2  0  0  0  0
  1  3  2  0  0  0  0
  1  4  1  0  0  0  0
  1 19  1  0  0  0  0
  4  5  1  0  0  0  0
  4  6  1  0  0  0  0
  6  7  1  0  0  0  0
  6 16  2  0  0  0  0
  7  8  2  0  0  0  0
  7  9  1  0  0  0  0
  9 10  1  0  0  0  0
 10 11  1  0  0  0  0
 10 15  2  0  0  0  0
 11 12  2  0  0  0  0
 12 13  1  0  0  0  0
 13 14  2  0  0  0  0
 14 15  1  0  0  0  0
 16 17  1  0  0  0  0
 16 18  1  0  0  0  0
 18 19  1  0  0  0  0
 18 23  2  0  0  0  0
 19 20  2  0  0  0  0
 20 21  1  0  0  0  0
 21 22  2  0  0  0  0
 22 23  1  0  0  0  0
M  END
>  <Index>
874

>  <ID>
HT1696

>  <class>
0

>  <apol>
44.476311

>  <ast_fraglike>
0

>  <ast_fraglike_ext>
0

>  <ast_violation>
2

>  <ast_violation_ext>
3

>  <a_acc>
5

>  <a_acid>
0

>  <a_aro>
12

>  <a_base>
0

>  <a_count>
36

>  <a_don>
2

>  <a_donacc>
7

>  <a_heavy>
23

>  <a_hyd>
13

>  <a_IC>
66.653336

>  <a_ICM>
1.8514816

>  <a_nB>
0

>  <a_nBr>
0

>  <a_nC>
15

>  <a_nCl>
0

>  <a_nF>
0

>  <a_nH>
13

>  <a_nI>
0

>  <a_nN>
3

>  <a_nO>
4

>  <a_nP>
0

>  <a_nS>
1

>  <balabanJ>
1.7427109

>  <BCUT_PEOE_0>
-2.4912086

>  <BCUT_PEOE_1>
-0.53632766

>  <BCUT_PEOE_2>
0.61303866

>  <BCUT_PEOE_3>
2.5193129

>  <BCUT_SLOGP_0>
-2.5812948

>  <BCUT_SLOGP_1>
-0.46898884

>  <BCUT_SLOGP_2>
0.69763392

>  <BCUT_SLOGP_3>
2.4857218

>  <BCUT_SMR_0>
-2.1658525

>  <BCUT_SMR_1>
-0.40577465

>  <BCUT_SMR_2>
0.74482667

>  <BCUT_SMR_3>
2.8603559

>  <bpol>
25.605692

>  <b_1rotN>
2

>  <b_1rotR>
0.079999998

>  <b_ar>
12

>  <b_count>
38

>  <b_double>
2

>  <b_heavy>
25

>  <b_max1len>
2

>  <b_rotN>
3

>  <b_rotR>
0.12

>  <b_single>
24

>  <b_triple>
0

>  <chi0>
16.61252

>  <chi0v>
12.909933

>  <chi0v_C>
8.6188021

>  <chi0_C>
10.120955

>  <chi1>
10.925557

>  <chi1v>
8.1064777

>  <chi1v_C>
3.8660254

>  <chi1_C>
5.5580783

>  <chiral>
0

>  <chiral_u>
0

>  <density>
0.83837754

>  <diameter>
11

>  <FCharge>
0

>  <GCUT_PEOE_0>
-0.78812927

>  <GCUT_PEOE_1>
-0.42855343

>  <GCUT_PEOE_2>
0.069858745

>  <GCUT_PEOE_3>
2.5360105

>  <GCUT_SLOGP_0>
-0.99780315

>  <GCUT_SLOGP_1>
-0.4516533

>  <GCUT_SLOGP_2>
0.14140089

>  <GCUT_SLOGP_3>
2.5559616

>  <GCUT_SMR_0>
-0.48331794

>  <GCUT_SMR_1>
-0.19278681

>  <GCUT_SMR_2>
0.1767478

>  <GCUT_SMR_3>
2.8290689

>  <Kier1>
17.811199

>  <Kier2>
7.0869246

>  <Kier3>
3.3833141

>  <KierA1>
13.44

>  <KierA2>
5.2739224

>  <KierA3>
2.4913495

>  <KierFlex>
3.0818052

>  <lip_acc>
7

>  <lip_don>
2

>  <lip_druglike>
1

>  <lip_violation>
0

>  <logP(o/w)>
0.95599997

>  <logS>
-2.7158401

>  <mr>
8.495553

>  <mutagenic>
0

>  <nmol>
1

>  <opr_brigid>
17

>  <opr_leadlike>
1

>  <opr_nring>
3

>  <opr_nrot>
2

>  <opr_violation>
0

>  <PC+>
0

>  <PC->
0

>  <PEOE_PC+>
2.0756178

>  <PEOE_PC->
-2.0756178

>  <PEOE_RPC+>
0.14072503

>  <PEOE_RPC->
0.17297255

>  <PEOE_VSA+0>
51.902584

>  <PEOE_VSA+1>
49.281158

>  <PEOE_VSA+2>
13.399102

>  <PEOE_VSA+3>
8.6190128

>  <PEOE_VSA+4>
10.324173

>  <PEOE_VSA+5>
17.134132

>  <PEOE_VSA+6>
0

>  <PEOE_VSA-0>
60.003403

>  <PEOE_VSA-1>
36.764713

>  <PEOE_VSA-2>
0

>  <PEOE_VSA-3>
0

>  <PEOE_VSA-4>
37.6991

>  <PEOE_VSA-5>
13.566921

>  <PEOE_VSA-6>
7.9044313

>  <PEOE_VSA_FHYD>
0.71745235

>  <PEOE_VSA_FNEG>
0.50860798

>  <PEOE_VSA_FPNEG>
0.19298989

>  <PEOE_VSA_FPOL>
0.28254768

>  <PEOE_VSA_FPOS>
0.49139202

>  <PEOE_VSA_FPPOS>
0.089557789

>  <PEOE_VSA_HYD>
219.96997

>  <PEOE_VSA_NEG>
155.93857

>  <PEOE_VSA_PNEG>
59.170452

>  <PEOE_VSA_POL>
86.628754

>  <PEOE_VSA_POS>
150.66017

>  <PEOE_VSA_PPOS>
27.458305

>  <petitjean>
0.45454547

>  <petitjeanSC>
0.83333331

>  <Q_PC+>
0

>  <Q_PC->
0

>  <Q_RPC+>
0

>  <Q_RPC->
0

>  <Q_VSA_FHYD>
1

>  <Q_VSA_FNEG>
0

>  <Q_VSA_FPNEG>
0

>  <Q_VSA_FPOL>
0

>  <Q_VSA_FPOS>
1

>  <Q_VSA_FPPOS>
0

>  <Q_VSA_HYD>
306.59872

>  <Q_VSA_NEG>
0

>  <Q_VSA_PNEG>
0

>  <Q_VSA_POL>
0

>  <Q_VSA_POS>
306.59872

>  <Q_VSA_PPOS>
0

>  <radius>
6

>  <reactive>
0

>  <rings>
3

>  <RPC+>
0

>  <RPC->
0

>  <rsynth>
1

>  <SlogP>
1.581

>  <SlogP_VSA0>
0

>  <SlogP_VSA1>
89.745316

>  <SlogP_VSA2>
30.502958

>  <SlogP_VSA3>
25.385227

>  <SlogP_VSA4>
3.185575

>  <SlogP_VSA5>
37.20467

>  <SlogP_VSA6>
0

>  <SlogP_VSA7>
145.96008

>  <SlogP_VSA8>
0

>  <SlogP_VSA9>
2.3279202

>  <SMR>
8.3806295

>  <SMR_VSA0>
72.033905

>  <SMR_VSA1>
18.30409

>  <SMR_VSA2>
26.935961

>  <SMR_VSA3>
5.9423227

>  <SMR_VSA4>
25.582098

>  <SMR_VSA5>
140.71664

>  <SMR_VSA6>
5.2587838

>  <SMR_VSA7>
39.53793

>  <TPSA>
99.599998

>  <VAdjEq>
0.45137304

>  <VAdjMa>
5.643856

>  <VDistEq>
3.159646

>  <VDistMa>
8.7710705

>  <vdw_area>
306.59872

>  <vdw_vol>
395.23004

>  <vsa_acc>
51.266022

>  <vsa_acid>
0

>  <vsa_base>
0

>  <vsa_don>
5.6825762

>  <vsa_hyd>
186.40964

>  <vsa_other>
34.245701

>  <vsa_pol>
70.515518

>  <Weight>
331.35199

>  <weinerPath>
1116

>  <weinerPol>
42

>  <zagreb>
124

$$$$