O=C1NC(=Nc2[nH]cc(c12)CCc1ccc(cc1)C(=O)N[C@@H](CCC(O)=O)C(O)=O)N
  MOE2013           2D

 31 33  0  0  1  0  0  0  0  0999 V2000
    0.0000    0.0000    0.0000 O   0  0  0  0  0  0  0  0  0  0  0  0
    1.2940    0.7580    0.0000 C   0  0  0  0  0  0  0  0  0  0  0  0
    2.5980    0.0170    0.0000 N   0  0  0  0  0  0  0  0  0  0  0  0
    3.8920    0.7750    0.0000 C   0  0  0  0  0  0  0  0  0  0  0  0
    3.8830    2.2750    0.0000 N   0  0  0  0  0  0  0  0  0  0  0  0
    2.5790    3.0170    0.0000 C   0  0  0  0  0  0  0  0  0  0  0  0
    2.2580    4.4820    0.0000 N   0  0  0  0  0  0  0  0  0  0  0  0
    0.7650    4.6290    0.0000 C   0  0  0  0  0  0  0  0  0  0  0  0
    0.1640    3.2550    0.0000 C   0  0  0  0  0  0  0  0  0  0  0  0
    1.2850    2.2580    0.0000 C   0  0  0  0  0  0  0  0  0  0  0  0
   -1.3020    2.9340    0.0000 C   0  0  0  0  0  0  0  0  0  0  0  0
   -2.3120    4.0420    0.0000 C   0  0  0  0  0  0  0  0  0  0  0  0
   -3.7780    3.7210    0.0000 C   0  0  0  0  0  0  0  0  0  0  0  0
   -4.2320    2.2910    0.0000 C   0  0  0  0  0  0  0  0  0  0  0  0
   -5.6970    1.9700    0.0000 C   0  0  0  0  0  0  0  0  0  0  0  0
   -6.7080    3.0780    0.0000 C   0  0  0  0  0  0  0  0  0  0  0  0
   -6.2540    4.5080    0.0000 C   0  0  0  0  0  0  0  0  0  0  0  0
   -4.7880    4.8290    0.0000 C   0  0  0  0  0  0  0  0  0  0  0  0
   -8.1730    2.7570    0.0000 C   0  0  0  0  0  0  0  0  0  0  0  0
   -8.6280    1.3270    0.0000 O   0  0  0  0  0  0  0  0  0  0  0  0
   -9.1840    3.8650    0.0000 N   0  0  0  0  0  0  0  0  0  0  0  0
  -10.6490    3.5440    0.0000 C   0  0  1  0  0  0  0  0  0  0  0  0
  -11.1040    2.1140    0.0000 C   0  0  0  0  0  0  0  0  0  0  0  0
  -12.5690    1.7930    0.0000 C   0  0  0  0  0  0  0  0  0  0  0  0
  -13.0230    0.3640    0.0000 C   0  0  0  0  0  0  0  0  0  0  0  0
  -12.0120   -0.7450    0.0000 O   0  0  0  0  0  0  0  0  0  0  0  0
  -14.4880    0.0420    0.0000 O   0  0  0  0  0  0  0  0  0  0  0  0
  -11.6600    4.6520    0.0000 C   0  0  0  0  0  0  0  0  0  0  0  0
  -11.2060    6.0820    0.0000 O   0  0  0  0  0  0  0  0  0  0  0  0
  -13.1250    4.3310    0.0000 O   0  0  0  0  0  0  0  0  0  0  0  0
    5.1960    0.0330    0.0000 N   0  0  0  0  0  0  0  0  0  0  0  0
  1  2  2  0  0  0  0
  2  3  1  0  0  0  0
  2 10  1  0  0  0  0
  3  4  1  0  0  0  0
  4  5  2  0  0  0  0
  4 31  1  0  0  0  0
  5  6  1  0  0  0  0
  6  7  1  0  0  0  0
  6 10  2  0  0  0  0
  7  8  1  0  0  0  0
  8  9  2  0  0  0  0
  9 10  1  0  0  0  0
  9 11  1  0  0  0  0
 11 12  1  0  0  0  0
 12 13  1  0  0  0  0
 13 14  1  0  0  0  0
 13 18  2  0  0  0  0
 14 15  2  0  0  0  0
 15 16  1  0  0  0  0
 16 17  2  0  0  0  0
 16 19  1  0  0  0  0
 17 18  1  0  0  0  0
 19 20  2  0  0  0  0
 19 21  1  0  0  0  0
 22 21  1  1  0  0  0
 22 23  1  0  0  0  0
 22 28  1  0  0  0  0
 23 24  1  0  0  0  0
 24 25  1  0  0  0  0
 25 26  1  0  0  0  0
 25 27  2  0  0  0  0
 28 29  1  0  0  0  0
 28 30  2  0  0  0  0
M  END
>  <Index>
825

>  <ID>
HT1607

>  <class>
0

>  <apol>
59.514652

>  <ast_fraglike>
0

>  <ast_fraglike_ext>
0

>  <ast_violation>
3

>  <ast_violation_ext>
5

>  <a_acc>
7

>  <a_acid>
0

>  <a_aro>
11

>  <a_base>
0

>  <a_count>
52

>  <a_don>
8

>  <a_donacc>
15

>  <a_heavy>
31

>  <a_hyd>
14

>  <a_IC>
90.626221

>  <a_ICM>
1.7428119

>  <a_nB>
0

>  <a_nBr>
0

>  <a_nC>
20

>  <a_nCl>
0

>  <a_nF>
0

>  <a_nH>
21

>  <a_nI>
0

>  <a_nN>
5

>  <a_nO>
6

>  <a_nP>
0

>  <a_nS>
0

>  <balabanJ>
1.3849076

>  <BCUT_PEOE_0>
-2.536881

>  <BCUT_PEOE_1>
-0.64695698

>  <BCUT_PEOE_2>
0.69944388

>  <BCUT_PEOE_3>
2.5977221

>  <BCUT_SLOGP_0>
-2.7052336

>  <BCUT_SLOGP_1>
-0.55198193

>  <BCUT_SLOGP_2>
0.76582325

>  <BCUT_SLOGP_3>
2.5461698

>  <BCUT_SMR_0>
-2.3084011

>  <BCUT_SMR_1>
-0.48479459

>  <BCUT_SMR_2>
0.85431087

>  <BCUT_SMR_3>
2.8210948

>  <bpol>
29.429346

>  <b_1rotN>
9

>  <b_1rotR>
0.27272728

>  <b_ar>
11

>  <b_count>
54

>  <b_double>
5

>  <b_heavy>
33

>  <b_max1len>
5

>  <b_rotN>
10

>  <b_rotR>
0.30303031

>  <b_single>
38

>  <b_triple>
0

>  <chi0>
22.543242

>  <chi0v>
16.344513

>  <chi0v_C>
11.292529

>  <chi0_C>
12.714814

>  <chi1>
14.740091

>  <chi1v>
9.4445753

>  <chi1v_C>
5.8676257

>  <chi1_C>
7.3409014

>  <chiral>
1

>  <chiral_u>
0

>  <density>
0.81253779

>  <diameter>
18

>  <FCharge>
0

>  <GCUT_PEOE_0>
-0.84322906

>  <GCUT_PEOE_1>
-0.48046067

>  <GCUT_PEOE_2>
0.12261803

>  <GCUT_PEOE_3>
2.6151445

>  <GCUT_SLOGP_0>
-1.3710452

>  <GCUT_SLOGP_1>
-0.41070953

>  <GCUT_SLOGP_2>
0.16445385

>  <GCUT_SLOGP_3>
2.6458614

>  <GCUT_SMR_0>
-0.51223403

>  <GCUT_SMR_1>
-0.2381821

>  <GCUT_SMR_2>
0.23162945

>  <GCUT_SMR_3>
2.8857546

>  <Kier1>
25.619835

>  <Kier2>
11.92344

>  <Kier3>
7.2391505

>  <KierA1>
17.773281

>  <KierA2>
8.162425

>  <KierA3>
4.9075499

>  <KierFlex>
4.6797762

>  <lip_acc>
11

>  <lip_don>
7

>  <lip_druglike>
0

>  <lip_violation>
2

>  <logP(o/w)>
1.008

>  <logS>
-3.29249

>  <mr>
10.91621

>  <mutagenic>
0

>  <nmol>
1

>  <opr_brigid>
16

>  <opr_leadlike>
0

>  <opr_nring>
3

>  <opr_nrot>
9

>  <opr_violation>
2

>  <PC+>
0

>  <PC->
0

>  <PEOE_PC+>
3.6031199

>  <PEOE_PC->
-3.6031199

>  <PEOE_RPC+>
0.07832025

>  <PEOE_RPC->
0.1024961

>  <PEOE_VSA+0>
61.778858

>  <PEOE_VSA+1>
27.800856

>  <PEOE_VSA+2>
14.336523

>  <PEOE_VSA+3>
43.095066

>  <PEOE_VSA+4>
36.329918

>  <PEOE_VSA+5>
55.316059

>  <PEOE_VSA+6>
0

>  <PEOE_VSA-0>
55.030827

>  <PEOE_VSA-1>
24.509808

>  <PEOE_VSA-2>
0

>  <PEOE_VSA-3>
5.6825762

>  <PEOE_VSA-4>
0

>  <PEOE_VSA-5>
54.404575

>  <PEOE_VSA-6>
22.459982

>  <PEOE_VSA_FHYD>
0.57950687

>  <PEOE_VSA_FNEG>
0.40446606

>  <PEOE_VSA_FPNEG>
0.19180413

>  <PEOE_VSA_FPOL>
0.42049313

>  <PEOE_VSA_FPOS>
0.59553397

>  <PEOE_VSA_FPPOS>
0.22868899

>  <PEOE_VSA_HYD>
232.23451

>  <PEOE_VSA_NEG>
162.08777

>  <PEOE_VSA_PNEG>
76.864555

>  <PEOE_VSA_POL>
168.51054

>  <PEOE_VSA_POS>
238.65729

>  <PEOE_VSA_PPOS>
91.645981

>  <petitjean>
0.5

>  <petitjeanSC>
1

>  <Q_PC+>
0

>  <Q_PC->
0

>  <Q_RPC+>
0

>  <Q_RPC->
0

>  <Q_VSA_FHYD>
1

>  <Q_VSA_FNEG>
0

>  <Q_VSA_FPNEG>
0

>  <Q_VSA_FPOL>
0

>  <Q_VSA_FPOS>
1

>  <Q_VSA_FPPOS>
0

>  <Q_VSA_HYD>
400.74506

>  <Q_VSA_NEG>
0

>  <Q_VSA_PNEG>
0

>  <Q_VSA_POL>
0

>  <Q_VSA_POS>
400.74506

>  <Q_VSA_PPOS>
0

>  <radius>
9

>  <reactive>
0

>  <rings>
3

>  <RPC+>
0

>  <RPC->
0

>  <rsynth>
1

>  <SlogP>
0.53724003

>  <SlogP_VSA0>
68.918686

>  <SlogP_VSA1>
27.907589

>  <SlogP_VSA2>
68.491928

>  <SlogP_VSA3>
50.770454

>  <SlogP_VSA4>
60.466732

>  <SlogP_VSA5>
54.522339

>  <SlogP_VSA6>
0

>  <SlogP_VSA7>
87.787094

>  <SlogP_VSA8>
37.736813

>  <SlogP_VSA9>
2.3279202

>  <SMR>
10.91511

>  <SMR_VSA0>
95.448868

>  <SMR_VSA1>
16.78553

>  <SMR_VSA2>
103.57748

>  <SMR_VSA3>
16.724268

>  <SMR_VSA4>
35.225109

>  <SMR_VSA5>
163.26071

>  <SMR_VSA6>
27.907589

>  <SMR_VSA7>
0

>  <TPSA>
186.97

>  <VAdjEq>
0.36097246

>  <VAdjMa>
6.044394

>  <VDistEq>
3.9467628

>  <VDistMa>
9.5729799

>  <vdw_area>
400.74506

>  <vdw_vol>
526.02722

>  <vsa_acc>
32.816418

>  <vsa_acid>
0

>  <vsa_base>
0

>  <vsa_don>
34.790218

>  <vsa_hyd>
162.30118

>  <vsa_other>
82.188194

>  <vsa_pol>
121.87432

>  <Weight>
427.41699

>  <weinerPath>
3252

>  <weinerPol>
46

>  <zagreb>
158

$$$$