Oc1ccc(N)cc1
  MOE2013           2D

  8  8  0  0  0  0  0  0  0  0999 V2000
    0.0000    0.0000    0.0000 O   0  0  0  0  0  0  0  0  0  0  0  0
    1.5000    0.0000    0.0000 C   0  0  0  0  0  0  0  0  0  0  0  0
    2.2500   -1.2990    0.0000 C   0  0  0  0  0  0  0  0  0  0  0  0
    3.7500   -1.2990    0.0000 C   0  0  0  0  0  0  0  0  0  0  0  0
    4.5000    0.0000    0.0000 C   0  0  0  0  0  0  0  0  0  0  0  0
    6.0000    0.0000    0.0000 N   0  0  0  0  0  0  0  0  0  0  0  0
    3.7500    1.2990    0.0000 C   0  0  0  0  0  0  0  0  0  0  0  0
    2.2500    1.2990    0.0000 C   0  0  0  0  0  0  0  0  0  0  0  0
  1  2  1  0  0  0  0
  2  3  1  0  0  0  0
  2  8  2  0  0  0  0
  3  4  2  0  0  0  0
  4  5  1  0  0  0  0
  5  6  1  0  0  0  0
  5  7  2  0  0  0  0
  7  8  1  0  0  0  0
M  END
>  <Index>
812

>  <ID>
HT1588

>  <class>
0

>  <apol>
17.129551

>  <ast_fraglike>
1

>  <ast_fraglike_ext>
1

>  <ast_violation>
0

>  <ast_violation_ext>
0

>  <a_acc>
1

>  <a_acid>
0

>  <a_aro>
6

>  <a_base>
0

>  <a_count>
15

>  <a_don>
2

>  <a_donacc>
3

>  <a_heavy>
8

>  <a_hyd>
6

>  <a_IC>
23.442099

>  <a_ICM>
1.5628066

>  <a_nB>
0

>  <a_nBr>
0

>  <a_nC>
6

>  <a_nCl>
0

>  <a_nF>
0

>  <a_nH>
7

>  <a_nI>
0

>  <a_nN>
1

>  <a_nO>
1

>  <a_nP>
0

>  <a_nS>
0

>  <balabanJ>
2.2646422

>  <BCUT_PEOE_0>
-2.2233341

>  <BCUT_PEOE_1>
-0.71749473

>  <BCUT_PEOE_2>
0.76537442

>  <BCUT_PEOE_3>
2.146174

>  <BCUT_SLOGP_0>
-2.3241661

>  <BCUT_SLOGP_1>
-0.62709647

>  <BCUT_SLOGP_2>
0.81896698

>  <BCUT_SLOGP_3>
2.3571827

>  <BCUT_SMR_0>
-1.8790808

>  <BCUT_SMR_1>
-0.56124043

>  <BCUT_SMR_2>
0.91907454

>  <BCUT_SMR_3>
2.4868972

>  <bpol>
6.9924488

>  <b_1rotN>
0

>  <b_1rotR>
0

>  <b_ar>
6

>  <b_count>
15

>  <b_double>
0

>  <b_heavy>
8

>  <b_max1len>
2

>  <b_rotN>
0

>  <b_rotR>
0

>  <b_single>
9

>  <b_triple>
0

>  <chi0>
5.9831276

>  <chi0v>
4.3339648

>  <chi0v_C>
3.309401

>  <chi0_C>
3.9831276

>  <chi1>
3.7876937

>  <chi1v>
2.3336492

>  <chi1v_C>
1.8213673

>  <chi1_C>
2.6329932

>  <chiral>
0

>  <chiral_u>
0

>  <density>
0.71764749

>  <diameter>
5

>  <FCharge>
0

>  <GCUT_PEOE_0>
-0.81295288

>  <GCUT_PEOE_1>
-0.42972636

>  <GCUT_PEOE_2>
0.13674136

>  <GCUT_PEOE_3>
1.9291728

>  <GCUT_SLOGP_0>
-1.3342574

>  <GCUT_SLOGP_1>
-0.28899798

>  <GCUT_SLOGP_2>
0.16792743

>  <GCUT_SLOGP_3>
2.1211874

>  <GCUT_SMR_0>
-0.42987373

>  <GCUT_SMR_1>
-0.23561513

>  <GCUT_SMR_2>
0.2473091

>  <GCUT_SMR_3>
2.237819

>  <Kier1>
6.125

>  <Kier2>
2.52

>  <Kier3>
1.8

>  <KierA1>
4.0319943

>  <KierA2>
1.5429013

>  <KierA3>
1.0328512

>  <KierFlex>
0.77762109

>  <lip_acc>
2

>  <lip_don>
3

>  <lip_druglike>
1

>  <lip_violation>
0

>  <logP(o/w)>
0.926

>  <logS>
-0.74381

>  <mr>
3.1872315

>  <mutagenic>
1

>  <nmol>
1

>  <opr_brigid>
6

>  <opr_leadlike>
1

>  <opr_nring>
1

>  <opr_nrot>
0

>  <opr_violation>
0

>  <PC+>
0

>  <PC->
0

>  <PEOE_PC+>
0.80639958

>  <PEOE_PC->
-0.80639958

>  <PEOE_RPC+>
0.26948586

>  <PEOE_RPC->
0.44621959

>  <PEOE_VSA+0>
6.6995511

>  <PEOE_VSA+1>
25.520063

>  <PEOE_VSA+2>
17.238026

>  <PEOE_VSA+3>
0

>  <PEOE_VSA+4>
10.324173

>  <PEOE_VSA+5>
0

>  <PEOE_VSA+6>
0

>  <PEOE_VSA-0>
49.019615

>  <PEOE_VSA-1>
0

>  <PEOE_VSA-2>
0

>  <PEOE_VSA-3>
0

>  <PEOE_VSA-4>
0

>  <PEOE_VSA-5>
0

>  <PEOE_VSA-6>
14.418659

>  <PEOE_VSA_FHYD>
0.79919809

>  <PEOE_VSA_FNEG>
0.51483715

>  <PEOE_VSA_FPNEG>
0.1170155

>  <PEOE_VSA_FPOL>
0.20080194

>  <PEOE_VSA_FPOS>
0.48516288

>  <PEOE_VSA_FPPOS>
0.083786443

>  <PEOE_VSA_HYD>
98.477257

>  <PEOE_VSA_NEG>
63.438274

>  <PEOE_VSA_PNEG>
14.418659

>  <PEOE_VSA_POL>
24.742832

>  <PEOE_VSA_POS>
59.781815

>  <PEOE_VSA_PPOS>
10.324173

>  <petitjean>
0.40000001

>  <petitjeanSC>
0.66666669

>  <Q_PC+>
0

>  <Q_PC->
0

>  <Q_RPC+>
0

>  <Q_RPC->
0

>  <Q_VSA_FHYD>
1

>  <Q_VSA_FNEG>
0

>  <Q_VSA_FPNEG>
0

>  <Q_VSA_FPOL>
0

>  <Q_VSA_FPOS>
1

>  <Q_VSA_FPPOS>
0

>  <Q_VSA_HYD>
123.22009

>  <Q_VSA_NEG>
0

>  <Q_VSA_PNEG>
0

>  <Q_VSA_POL>
0

>  <Q_VSA_POS>
123.22009

>  <Q_VSA_PPOS>
0

>  <radius>
3

>  <reactive>
0

>  <rings>
1

>  <RPC+>
0

>  <RPC->
0

>  <rsynth>
1

>  <SlogP>
0.97439998

>  <SlogP_VSA0>
58.282413

>  <SlogP_VSA1>
0

>  <SlogP_VSA2>
0

>  <SlogP_VSA3>
0

>  <SlogP_VSA4>
0

>  <SlogP_VSA5>
0

>  <SlogP_VSA6>
0

>  <SlogP_VSA7>
70.572739

>  <SlogP_VSA8>
0

>  <SlogP_VSA9>
8.0001755

>  <SMR>
3.25192

>  <SMR_VSA0>
0

>  <SMR_VSA1>
25.385227

>  <SMR_VSA2>
0

>  <SMR_VSA3>
5.2434282

>  <SMR_VSA4>
2.7567475

>  <SMR_VSA5>
103.46992

>  <SMR_VSA6>
0

>  <SMR_VSA7>
0

>  <TPSA>
46.25

>  <VAdjEq>
0.8112781

>  <VAdjMa>
4

>  <VDistEq>
1.9905418

>  <VDistMa>
5.649457

>  <vdw_area>
123.22009

>  <vdw_vol>
152.06351

>  <vsa_acc>
0

>  <vsa_acid>
0

>  <vsa_base>
0

>  <vsa_don>
17.742489

>  <vsa_hyd>
78.392052

>  <vsa_other>
0

>  <vsa_pol>
31.30941

>  <Weight>
109.128

>  <weinerPath>
62

>  <weinerPol>
7

>  <zagreb>
36

$$$$