S(C[C@@H]1C[C@H]2[C@H](N(C1)CCC)Cc1c3c2cccc3[nH]c1)C
  MOE2013           2D

 22 25  0  0  1  0  0  0  0  0999 V2000
    0.0000    0.0000    0.0000 S   0  0  0  0  0  0  0  0  0  0  0  0
   -1.5000   -0.0030    0.0000 C   0  0  0  0  0  0  0  0  0  0  0  0
   -2.2470   -1.3040    0.0000 C   0  0  2  0  0  0  0  0  0  0  0  0
   -3.7470   -1.3070    0.0000 C   0  0  0  0  0  0  0  0  0  0  0  0
   -4.4860   -2.6390    0.0000 C   0  0  1  0  0  0  0  0  0  0  0  0
   -3.7370   -3.8970    0.0000 C   0  0  2  0  0  0  0  0  0  0  0  0
   -2.2420   -3.9020    0.0000 N   0  0  3  0  0  0  0  0  0  0  0  0
   -1.4950   -2.6010    0.0000 C   0  0  0  0  0  0  0  0  0  0  0  0
   -1.4930   -5.2010    0.0000 C   0  0  0  0  0  0  0  0  0  0  0  0
    0.0070   -5.2020    0.0000 C   0  0  0  0  0  0  0  0  0  0  0  0
    0.7570   -6.5010    0.0000 C   0  0  0  0  0  0  0  0  0  0  0  0
   -4.4570   -5.1750    0.0000 C   0  0  0  0  0  0  0  0  0  0  0  0
   -5.9230   -5.1930    0.0000 C   0  0  0  0  0  0  0  0  0  0  0  0
   -6.6690   -3.9270    0.0000 C   0  0  0  0  0  0  0  0  0  0  0  0
   -5.9510   -2.6480    0.0000 C   0  0  0  0  0  0  0  0  0  0  0  0
   -6.6980   -1.3900    0.0000 C   0  0  0  0  0  0  0  0  0  0  0  0
   -8.1600   -1.3990    0.0000 C   0  0  0  0  0  0  0  0  0  0  0  0
   -8.8830   -2.6790    0.0000 C   0  0  0  0  0  0  0  0  0  0  0  0
   -8.1360   -3.9460    0.0000 C   0  0  0  0  0  0  0  0  0  0  0  0
   -8.5180   -5.4060    0.0000 N   0  0  0  0  0  0  0  0  0  0  0  0
   -6.8970   -6.3300    0.0000 C   0  0  0  0  0  0  0  0  0  0  0  0
    0.7470    1.3010    0.0000 C   0  0  0  0  0  0  0  0  0  0  0  0
  1  2  1  0  0  0  0
  1 22  1  0  0  0  0
  3  2  1  1  0  0  0
  3  4  1  0  0  0  0
  3  8  1  0  0  0  0
  4  5  1  0  0  0  0
  5  6  1  0  0  0  0
  5 15  1  1  0  0  0
  6  7  1  0  0  0  0
  6 12  1  6  0  0  0
  7  8  1  0  0  0  0
  7  9  1  0  0  0  0
  9 10  1  0  0  0  0
 10 11  1  0  0  0  0
 12 13  1  0  0  0  0
 13 14  1  0  0  0  0
 13 21  2  0  0  0  0
 14 15  1  0  0  0  0
 14 19  2  0  0  0  0
 15 16  2  0  0  0  0
 16 17  1  0  0  0  0
 17 18  2  0  0  0  0
 18 19  1  0  0  0  0
 19 20  1  0  0  0  0
 20 21  1  0  0  0  0
M  END
>  <Index>
842

>  <ID>
HT1634

>  <class>
0

>  <apol>
55.876617

>  <ast_fraglike>
0

>  <ast_fraglike_ext>
0

>  <ast_violation>
2

>  <ast_violation_ext>
3

>  <a_acc>
1

>  <a_acid>
0

>  <a_aro>
9

>  <a_base>
0

>  <a_count>
48

>  <a_don>
1

>  <a_donacc>
2

>  <a_heavy>
22

>  <a_hyd>
20

>  <a_IC>
63.156143

>  <a_ICM>
1.315753

>  <a_nB>
0

>  <a_nBr>
0

>  <a_nC>
19

>  <a_nCl>
0

>  <a_nF>
0

>  <a_nH>
26

>  <a_nI>
0

>  <a_nN>
2

>  <a_nO>
0

>  <a_nP>
0

>  <a_nS>
1

>  <balabanJ>
1.5789548

>  <BCUT_PEOE_0>
-2.8544867

>  <BCUT_PEOE_1>
-0.53338993

>  <BCUT_PEOE_2>
0.60190934

>  <BCUT_PEOE_3>
2.7938716

>  <BCUT_SLOGP_0>
-2.8774478

>  <BCUT_SLOGP_1>
-0.42833462

>  <BCUT_SLOGP_2>
0.6981014

>  <BCUT_SLOGP_3>
2.8177269

>  <BCUT_SMR_0>
-2.5804172

>  <BCUT_SMR_1>
-0.38218614

>  <BCUT_SMR_2>
0.75046325

>  <BCUT_SMR_3>
3.0684309

>  <bpol>
33.343384

>  <b_1rotN>
4

>  <b_1rotR>
0.16

>  <b_ar>
10

>  <b_count>
51

>  <b_double>
0

>  <b_heavy>
25

>  <b_max1len>
5

>  <b_rotN>
4

>  <b_rotR>
0.16

>  <b_single>
41

>  <b_triple>
0

>  <chi0>
15.104083

>  <chi0v>
14.456051

>  <chi0v_C>
12.284093

>  <chi0_C>
13.112519

>  <chi1>
10.813193

>  <chi1v>
10.026702

>  <chi1v_C>
6.5066023

>  <chi1_C>
7.548008

>  <chiral>
3

>  <chiral_u>
0

>  <density>
0.69054621

>  <diameter>
9

>  <FCharge>
0

>  <GCUT_PEOE_0>
-0.86299032

>  <GCUT_PEOE_1>
-0.36622497

>  <GCUT_PEOE_2>
0.051268764

>  <GCUT_PEOE_3>
3.0036387

>  <GCUT_SLOGP_0>
-0.95530707

>  <GCUT_SLOGP_1>
-0.25666854

>  <GCUT_SLOGP_2>
0.14011969

>  <GCUT_SLOGP_3>
3.0760305

>  <GCUT_SMR_0>
-0.52699745

>  <GCUT_SMR_1>
-0.18313862

>  <GCUT_SMR_2>
0.16573378

>  <GCUT_SMR_3>
3.2734041

>  <Kier1>
15.5232

>  <Kier2>
6.4814816

>  <Kier3>
2.7055893

>  <KierA1>
14.023607

>  <KierA2>
5.8256111

>  <KierA3>
2.4228494

>  <KierFlex>
3.7134583

>  <lip_acc>
2

>  <lip_don>
1

>  <lip_druglike>
1

>  <lip_violation>
0

>  <logP(o/w)>
4.1789999

>  <logS>
-3.61393

>  <mr>
9.4665585

>  <mutagenic>
0

>  <nmol>
1

>  <opr_brigid>
19

>  <opr_leadlike>
1

>  <opr_nring>
4

>  <opr_nrot>
4

>  <opr_violation>
0

>  <PC+>
0

>  <PC->
0

>  <PEOE_PC+>
1.2281722

>  <PEOE_PC->
-1.2281722

>  <PEOE_RPC+>
0.13462521

>  <PEOE_RPC->
0.29341125

>  <PEOE_VSA+0>
131.5654

>  <PEOE_VSA+1>
17.061544

>  <PEOE_VSA+2>
0

>  <PEOE_VSA+3>
8.6190128

>  <PEOE_VSA+4>
0

>  <PEOE_VSA+5>
0

>  <PEOE_VSA+6>
0

>  <PEOE_VSA-0>
87.369362

>  <PEOE_VSA-1>
43.257484

>  <PEOE_VSA-2>
0

>  <PEOE_VSA-3>
19.760618

>  <PEOE_VSA-4>
0

>  <PEOE_VSA-5>
0

>  <PEOE_VSA-6>
0.13689101

>  <PEOE_VSA_FHYD>
0.99955523

>  <PEOE_VSA_FNEG>
0.48908016

>  <PEOE_VSA_FPNEG>
0.00044478301

>  <PEOE_VSA_FPOL>
0.00044478301

>  <PEOE_VSA_FPOS>
0.51091981

>  <PEOE_VSA_FPPOS>
0

>  <PEOE_VSA_HYD>
307.63342

>  <PEOE_VSA_NEG>
150.52435

>  <PEOE_VSA_PNEG>
0.13689101

>  <PEOE_VSA_POL>
0.13689101

>  <PEOE_VSA_POS>
157.24596

>  <PEOE_VSA_PPOS>
0

>  <petitjean>
0.44444445

>  <petitjeanSC>
0.80000001

>  <Q_PC+>
0

>  <Q_PC->
0

>  <Q_RPC+>
0

>  <Q_RPC->
0

>  <Q_VSA_FHYD>
1

>  <Q_VSA_FNEG>
0

>  <Q_VSA_FPNEG>
0

>  <Q_VSA_FPOL>
0

>  <Q_VSA_FPOS>
1

>  <Q_VSA_FPPOS>
0

>  <Q_VSA_HYD>
307.77032

>  <Q_VSA_NEG>
0

>  <Q_VSA_PNEG>
0

>  <Q_VSA_POL>
0

>  <Q_VSA_POS>
307.77032

>  <Q_VSA_PPOS>
0

>  <radius>
5

>  <reactive>
0

>  <rings>
4

>  <RPC+>
0

>  <RPC->
0

>  <rsynth>
0

>  <SlogP>
4.27107

>  <SlogP_VSA0>
0

>  <SlogP_VSA1>
3.1243138

>  <SlogP_VSA2>
20.767498

>  <SlogP_VSA3>
54.11272

>  <SlogP_VSA4>
10.781946

>  <SlogP_VSA5>
50.559578

>  <SlogP_VSA6>
4.4107962

>  <SlogP_VSA7>
74.861008

>  <SlogP_VSA8>
37.736813

>  <SlogP_VSA9>
65.545555

>  <SMR>
9.68857

>  <SMR_VSA0>
0

>  <SMR_VSA1>
3.1243138

>  <SMR_VSA2>
21.196325

>  <SMR_VSA3>
14.763915

>  <SMR_VSA4>
4.7171016

>  <SMR_VSA5>
126.74912

>  <SMR_VSA6>
54.11272

>  <SMR_VSA7>
97.236732

>  <TPSA>
19.030001

>  <VAdjEq>
0.47938794

>  <VAdjMa>
5.643856

>  <VDistEq>
2.9906583

>  <VDistMa>
8.6585531

>  <vdw_area>
307.77032

>  <vdw_vol>
455.43222

>  <vsa_acc>
0

>  <vsa_acid>
0

>  <vsa_base>
0

>  <vsa_don>
5.6825762

>  <vsa_hyd>
278.52942

>  <vsa_other>
0

>  <vsa_pol>
5.6825762

>  <Weight>
314.49701

>  <weinerPath>
945

>  <weinerPol>
39

>  <zagreb>
122

$$$$