O=C1N2C(c3c(CC2)cccc3)CN(C1)C(=O)C1CCCCC1
  MOE2013           2D

 23 26  0  0  1  0  0  0  0  0999 V2000
    0.0000    0.0000    0.0000 O   0  0  0  0  0  0  0  0  0  0  0  0
   -0.7430    1.3030    0.0000 C   0  0  0  0  0  0  0  0  0  0  0  0
   -2.2430    1.3100    0.0000 N   0  0  0  0  0  0  0  0  0  0  0  0
   -2.9870    2.6130    0.0000 C   0  0  3  0  0  0  0  0  0  0  0  0
   -4.4870    2.6210    0.0000 C   0  0  0  0  0  0  0  0  0  0  0  0
   -5.2430    1.3260    0.0000 C   0  0  0  0  0  0  0  0  0  0  0  0
   -4.5000    0.0230    0.0000 C   0  0  0  0  0  0  0  0  0  0  0  0
   -3.0000    0.0150    0.0000 C   0  0  0  0  0  0  0  0  0  0  0  0
   -6.7430    1.3330    0.0000 C   0  0  0  0  0  0  0  0  0  0  0  0
   -7.4870    2.6360    0.0000 C   0  0  0  0  0  0  0  0  0  0  0  0
   -6.7300    3.9310    0.0000 C   0  0  0  0  0  0  0  0  0  0  0  0
   -5.2300    3.9240    0.0000 C   0  0  0  0  0  0  0  0  0  0  0  0
   -2.2300    3.9090    0.0000 C   0  0  0  0  0  0  0  0  0  0  0  0
   -0.7300    3.9010    0.0000 N   0  0  0  0  0  0  0  0  0  0  0  0
    0.0130    2.5980    0.0000 C   0  0  0  0  0  0  0  0  0  0  0  0
    0.0260    5.1960    0.0000 C   0  0  0  0  0  0  0  0  0  0  0  0
   -0.7170    6.4990    0.0000 O   0  0  0  0  0  0  0  0  0  0  0  0
    1.5260    5.1880    0.0000 C   0  0  0  0  0  0  0  0  0  0  0  0
    2.2700    3.8860    0.0000 C   0  0  0  0  0  0  0  0  0  0  0  0
    3.7700    3.8780    0.0000 C   0  0  0  0  0  0  0  0  0  0  0  0
    4.5260    5.1730    0.0000 C   0  0  0  0  0  0  0  0  0  0  0  0
    3.7830    6.4760    0.0000 C   0  0  0  0  0  0  0  0  0  0  0  0
    2.2830    6.4840    0.0000 C   0  0  0  0  0  0  0  0  0  0  0  0
  1  2  2  0  0  0  0
  2  3  1  0  0  0  0
  2 15  1  0  0  0  0
  3  4  1  0  0  0  0
  3  8  1  0  0  0  0
  4  5  1  0  0  0  0
  4 13  1  0  0  0  0
  5  6  1  0  0  0  0
  5 12  2  0  0  0  0
  6  7  1  0  0  0  0
  6  9  2  0  0  0  0
  7  8  1  0  0  0  0
  9 10  1  0  0  0  0
 10 11  2  0  0  0  0
 11 12  1  0  0  0  0
 13 14  1  0  0  0  0
 14 15  1  0  0  0  0
 14 16  1  0  0  0  0
 16 17  2  0  0  0  0
 16 18  1  0  0  0  0
 18 19  1  0  0  0  0
 18 23  1  0  0  0  0
 19 20  1  0  0  0  0
 20 21  1  0  0  0  0
 21 22  1  0  0  0  0
 22 23  1  0  0  0  0
M  END
>  <Index>
890

>  <ID>
HT1727

>  <class>
0

>  <apol>
53.247032

>  <ast_fraglike>
0

>  <ast_fraglike_ext>
0

>  <ast_violation>
1

>  <ast_violation_ext>
1

>  <a_acc>
2

>  <a_acid>
0

>  <a_aro>
6

>  <a_base>
0

>  <a_count>
47

>  <a_don>
0

>  <a_donacc>
2

>  <a_heavy>
23

>  <a_hyd>
17

>  <a_IC>
66.315956

>  <a_ICM>
1.4109777

>  <a_nB>
0

>  <a_nBr>
0

>  <a_nC>
19

>  <a_nCl>
0

>  <a_nF>
0

>  <a_nH>
24

>  <a_nI>
0

>  <a_nN>
2

>  <a_nO>
2

>  <a_nP>
0

>  <a_nS>
0

>  <balabanJ>
1.4628022

>  <BCUT_PEOE_0>
-2.7868435

>  <BCUT_PEOE_1>
-0.5287596

>  <BCUT_PEOE_2>
0.56667668

>  <BCUT_PEOE_3>
2.7588027

>  <BCUT_SLOGP_0>
-2.8312893

>  <BCUT_SLOGP_1>
-0.45173877

>  <BCUT_SLOGP_2>
0.60069984

>  <BCUT_SLOGP_3>
2.8589425

>  <BCUT_SMR_0>
-2.5334487

>  <BCUT_SMR_1>
-0.39329249

>  <BCUT_SMR_2>
0.70144713

>  <BCUT_SMR_3>
3.0147769

>  <bpol>
32.112968

>  <b_1rotN>
2

>  <b_1rotR>
0.07692308

>  <b_ar>
6

>  <b_count>
50

>  <b_double>
2

>  <b_heavy>
26

>  <b_max1len>
2

>  <b_rotN>
2

>  <b_rotR>
0.07692308

>  <b_single>
42

>  <b_triple>
0

>  <chi0>
15.811191

>  <chi0v>
13.538986

>  <chi0v_C>
11.828063

>  <chi0_C>
12.656489

>  <chi1>
11.237184

>  <chi1v>
8.8988962

>  <chi1v_C>
6.8365521

>  <chi1_C>
7.857738

>  <chiral>
1

>  <chiral_u>
1

>  <density>
0.70534152

>  <diameter>
11

>  <FCharge>
0

>  <GCUT_PEOE_0>
-0.84628439

>  <GCUT_PEOE_1>
-0.3721053

>  <GCUT_PEOE_2>
0.052939698

>  <GCUT_PEOE_3>
2.8902144

>  <GCUT_SLOGP_0>
-0.96816689

>  <GCUT_SLOGP_1>
-0.32521364

>  <GCUT_SLOGP_2>
0.068735756

>  <GCUT_SLOGP_3>
2.9144518

>  <GCUT_SMR_0>
-0.52924109

>  <GCUT_SMR_1>
-0.20827274

>  <GCUT_SMR_2>
0.15742627

>  <GCUT_SMR_3>
3.1370747

>  <Kier1>
16.467455

>  <Kier2>
7.0869246

>  <Kier3>
3.2544379

>  <KierA1>
12.946752

>  <KierA2>
5.506537

>  <KierA3>
2.5061879

>  <KierFlex>
3.099642

>  <lip_acc>
4

>  <lip_don>
0

>  <lip_druglike>
1

>  <lip_violation>
0

>  <logP(o/w)>
2.204

>  <logS>
-3.6788299

>  <mr>
8.9931612

>  <mutagenic>
0

>  <nmol>
1

>  <opr_brigid>
22

>  <opr_leadlike>
1

>  <opr_nring>
4

>  <opr_nrot>
3

>  <opr_violation>
0

>  <PC+>
0

>  <PC->
0

>  <PEOE_PC+>
1.7551283

>  <PEOE_PC->
-1.7551283

>  <PEOE_RPC+>
0.13874426

>  <PEOE_RPC->
0.18906112

>  <PEOE_VSA+0>
90.36544

>  <PEOE_VSA+1>
54.726761

>  <PEOE_VSA+2>
0

>  <PEOE_VSA+3>
0

>  <PEOE_VSA+4>
25.899061

>  <PEOE_VSA+5>
0

>  <PEOE_VSA+6>
0

>  <PEOE_VSA-0>
30.521019

>  <PEOE_VSA-1>
75.123558

>  <PEOE_VSA-2>
0

>  <PEOE_VSA-3>
0

>  <PEOE_VSA-4>
0

>  <PEOE_VSA-5>
27.133842

>  <PEOE_VSA-6>
0

>  <PEOE_VSA_FHYD>
0.8254174

>  <PEOE_VSA_FNEG>
0.43710226

>  <PEOE_VSA_FPNEG>
0.089323737

>  <PEOE_VSA_FPOL>
0.17458262

>  <PEOE_VSA_FPOS>
0.56289774

>  <PEOE_VSA_FPPOS>
0.085258879

>  <PEOE_VSA_HYD>
250.73677

>  <PEOE_VSA_NEG>
132.77841

>  <PEOE_VSA_PNEG>
27.133842

>  <PEOE_VSA_POL>
53.032902

>  <PEOE_VSA_POS>
170.99126

>  <PEOE_VSA_PPOS>
25.899061

>  <petitjean>
0.45454547

>  <petitjeanSC>
0.83333331

>  <Q_PC+>
0

>  <Q_PC->
0

>  <Q_RPC+>
0

>  <Q_RPC->
0

>  <Q_VSA_FHYD>
1

>  <Q_VSA_FNEG>
0

>  <Q_VSA_FPNEG>
0

>  <Q_VSA_FPOL>
0

>  <Q_VSA_FPOS>
1

>  <Q_VSA_FPPOS>
0

>  <Q_VSA_HYD>
303.76968

>  <Q_VSA_NEG>
0

>  <Q_VSA_PNEG>
0

>  <Q_VSA_POL>
0

>  <Q_VSA_POS>
303.76968

>  <Q_VSA_PPOS>
0

>  <radius>
6

>  <reactive>
0

>  <rings>
4

>  <RPC+>
0

>  <RPC->
0

>  <rsynth>
1

>  <SlogP>
2.6303699

>  <SlogP_VSA0>
0

>  <SlogP_VSA1>
16.766195

>  <SlogP_VSA2>
47.724434

>  <SlogP_VSA3>
55.318733

>  <SlogP_VSA4>
10.781946

>  <SlogP_VSA5>
18.868406

>  <SlogP_VSA6>
0

>  <SlogP_VSA7>
70.572739

>  <SlogP_VSA8>
98.323997

>  <SlogP_VSA9>
0

>  <SMR>
8.7866001

>  <SMR_VSA0>
47.724434

>  <SMR_VSA1>
6.2486277

>  <SMR_VSA2>
4.4107962

>  <SMR_VSA3>
10.353119

>  <SMR_VSA4>
0

>  <SMR_VSA5>
183.78317

>  <SMR_VSA6>
65.836304

>  <SMR_VSA7>
0

>  <TPSA>
40.619999

>  <VAdjEq>
0.46357921

>  <VAdjMa>
5.7004399

>  <VDistEq>
3.1904345

>  <VDistMa>
8.7655334

>  <vdw_area>
303.76968

>  <vdw_vol>
442.92444

>  <vsa_acc>
27.133842

>  <vsa_acid>
0

>  <vsa_base>
0

>  <vsa_don>
0

>  <vsa_hyd>
232.30864

>  <vsa_other>
25.899061

>  <vsa_pol>
27.133842

>  <Weight>
312.41299

>  <weinerPath>
1134

>  <weinerPol>
40

>  <zagreb>
126

$$$$