Clc1ccc(cc1C(F)(F)F)C1(O)CCN(CC1)CCCC(c1ccc(F)cc1)c1ccc(F)cc1
  MOE2013           2D

 36 39  0  0  0  0  0  0  0  0999 V2000
    0.0000    0.0000    0.0000 Cl  0  0  0  0  0  0  0  0  0  0  0  0
    1.5000    0.0110    0.0000 C   0  0  0  0  0  0  0  0  0  0  0  0
    2.2590   -1.2830    0.0000 C   0  0  0  0  0  0  0  0  0  0  0  0
    3.7590   -1.2720    0.0000 C   0  0  0  0  0  0  0  0  0  0  0  0
    4.5000    0.0330    0.0000 C   0  0  0  0  0  0  0  0  0  0  0  0
    3.7410    1.3260    0.0000 C   0  0  0  0  0  0  0  0  0  0  0  0
    2.2410    1.3150    0.0000 C   0  0  0  0  0  0  0  0  0  0  0  0
    1.4810    2.6090    0.0000 C   0  0  0  0  0  0  0  0  0  0  0  0
    0.1880    1.8490    0.0000 F   0  0  0  0  0  0  0  0  0  0  0  0
    0.7220    3.9020    0.0000 F   0  0  0  0  0  0  0  0  0  0  0  0
    2.7750    3.3680    0.0000 F   0  0  0  0  0  0  0  0  0  0  0  0
    6.0000    0.0430    0.0000 C   0  0  0  0  0  0  0  0  0  0  0  0
    5.2400    1.3370    0.0000 O   0  0  0  0  0  0  0  0  0  0  0  0
    6.0110   -1.4570    0.0000 C   0  0  0  0  0  0  0  0  0  0  0  0
    7.3150   -2.1970    0.0000 C   0  0  0  0  0  0  0  0  0  0  0  0
    8.6090   -1.4380    0.0000 N   0  0  0  0  0  0  0  0  0  0  0  0
    8.5980    0.0620    0.0000 C   0  0  0  0  0  0  0  0  0  0  0  0
    7.2930    0.8030    0.0000 C   0  0  0  0  0  0  0  0  0  0  0  0
    9.9130   -2.1780    0.0000 C   0  0  0  0  0  0  0  0  0  0  0  0
   11.2070   -1.4190    0.0000 C   0  0  0  0  0  0  0  0  0  0  0  0
   12.5110   -2.1600    0.0000 C   0  0  0  0  0  0  0  0  0  0  0  0
   13.8050   -1.4000    0.0000 C   0  0  0  0  0  0  0  0  0  0  0  0
   13.7940    0.1000    0.0000 C   0  0  0  0  0  0  0  0  0  0  0  0
   15.0870    0.8590    0.0000 C   0  0  0  0  0  0  0  0  0  0  0  0
   15.0770    2.3590    0.0000 C   0  0  0  0  0  0  0  0  0  0  0  0
   13.7720    3.1000    0.0000 C   0  0  0  0  0  0  0  0  0  0  0  0
   13.7610    4.6000    0.0000 F   0  0  0  0  0  0  0  0  0  0  0  0
   12.4790    2.3400    0.0000 C   0  0  0  0  0  0  0  0  0  0  0  0
   12.4890    0.8400    0.0000 C   0  0  0  0  0  0  0  0  0  0  0  0
   15.1090   -2.1410    0.0000 C   0  0  0  0  0  0  0  0  0  0  0  0
   16.4030   -1.3820    0.0000 C   0  0  0  0  0  0  0  0  0  0  0  0
   17.7070   -2.1220    0.0000 C   0  0  0  0  0  0  0  0  0  0  0  0
   17.7180   -3.6220    0.0000 C   0  0  0  0  0  0  0  0  0  0  0  0
   19.0220   -4.3630    0.0000 F   0  0  0  0  0  0  0  0  0  0  0  0
   16.4240   -4.3810    0.0000 C   0  0  0  0  0  0  0  0  0  0  0  0
   15.1200   -3.6410    0.0000 C   0  0  0  0  0  0  0  0  0  0  0  0
  1  2  1  0  0  0  0
  2  3  1  0  0  0  0
  2  7  2  0  0  0  0
  3  4  2  0  0  0  0
  4  5  1  0  0  0  0
  5  6  2  0  0  0  0
  5 12  1  0  0  0  0
  6  7  1  0  0  0  0
  7  8  1  0  0  0  0
  8  9  1  0  0  0  0
  8 10  1  0  0  0  0
  8 11  1  0  0  0  0
 12 13  1  0  0  0  0
 12 14  1  0  0  0  0
 12 18  1  0  0  0  0
 14 15  1  0  0  0  0
 15 16  1  0  0  0  0
 16 17  1  0  0  0  0
 16 19  1  0  0  0  0
 17 18  1  0  0  0  0
 19 20  1  0  0  0  0
 20 21  1  0  0  0  0
 21 22  1  0  0  0  0
 22 23  1  0  0  0  0
 22 30  1  0  0  0  0
 23 24  1  0  0  0  0
 23 29  2  0  0  0  0
 24 25  2  0  0  0  0
 25 26  1  0  0  0  0
 26 27  1  0  0  0  0
 26 28  2  0  0  0  0
 28 29  1  0  0  0  0
 30 31  1  0  0  0  0
 30 36  2  0  0  0  0
 31 32  2  0  0  0  0
 32 33  1  0  0  0  0
 33 34  1  0  0  0  0
 33 35  2  0  0  0  0
 35 36  1  0  0  0  0
M  END
>  <Index>
828

>  <ID>
HT1612

>  <class>
0

>  <apol>
74.150414

>  <ast_fraglike>
0

>  <ast_fraglike_ext>
0

>  <ast_violation>
2

>  <ast_violation_ext>
3

>  <a_acc>
2

>  <a_acid>
0

>  <a_aro>
18

>  <a_base>
0

>  <a_count>
63

>  <a_don>
1

>  <a_donacc>
3

>  <a_heavy>
36

>  <a_hyd>
34

>  <a_IC>
101.97109

>  <a_ICM>
1.6185888

>  <a_nB>
0

>  <a_nBr>
0

>  <a_nC>
28

>  <a_nCl>
1

>  <a_nF>
5

>  <a_nH>
27

>  <a_nI>
0

>  <a_nN>
1

>  <a_nO>
1

>  <a_nP>
0

>  <a_nS>
0

>  <balabanJ>
1.2540575

>  <BCUT_PEOE_0>
-2.7971973

>  <BCUT_PEOE_1>
-0.62078738

>  <BCUT_PEOE_2>
0.66168106

>  <BCUT_PEOE_3>
2.7429399

>  <BCUT_SLOGP_0>
-2.8030806

>  <BCUT_SLOGP_1>
-0.44808465

>  <BCUT_SLOGP_2>
0.80591482

>  <BCUT_SLOGP_3>
2.7944739

>  <BCUT_SMR_0>
-2.5337524

>  <BCUT_SMR_1>
-0.42910537

>  <BCUT_SMR_2>
0.85431087

>  <BCUT_SMR_3>
2.9978423

>  <bpol>
37.931587

>  <b_1rotN>
7

>  <b_1rotR>
0.17948718

>  <b_ar>
18

>  <b_count>
66

>  <b_double>
0

>  <b_heavy>
39

>  <b_max1len>
5

>  <b_rotN>
8

>  <b_rotR>
0.20512821

>  <b_single>
48

>  <b_triple>
0

>  <chi0>
25.924074

>  <chi0v>
20.296093

>  <chi0v_C>
16.377951

>  <chi0_C>
18.346724

>  <chi1>
17.048481

>  <chi1v>
12.257622

>  <chi1v_C>
9.5734739

>  <chi1_C>
12.091685

>  <chiral>
0

>  <chiral_u>
0

>  <density>
0.80946761

>  <diameter>
17

>  <FCharge>
0

>  <GCUT_PEOE_0>
-0.85764951

>  <GCUT_PEOE_1>
-0.38890323

>  <GCUT_PEOE_2>
0.063479528

>  <GCUT_PEOE_3>
2.9316528

>  <GCUT_SLOGP_0>
-0.95242882

>  <GCUT_SLOGP_1>
-0.26386139

>  <GCUT_SLOGP_2>
0.26019999

>  <GCUT_SLOGP_3>
3.025352

>  <GCUT_SMR_0>
-0.52667743

>  <GCUT_SMR_1>
-0.19364499

>  <GCUT_SMR_2>
0.19305076

>  <GCUT_SMR_3>
3.1788757

>  <Kier1>
28.994083

>  <Kier2>
12.453062

>  <Kier3>
7.5675459

>  <KierA1>
23.954708

>  <KierA2>
10.229649

>  <KierA3>
6.1914062

>  <KierFlex>
6.8068962

>  <lip_acc>
2

>  <lip_don>
1

>  <lip_druglike>
0

>  <lip_violation>
2

>  <logP(o/w)>
8.2527599

>  <logS>
-8.1757898

>  <mr>
13.3326

>  <mutagenic>
0

>  <nmol>
1

>  <opr_brigid>
24

>  <opr_leadlike>
0

>  <opr_nring>
4

>  <opr_nrot>
9

>  <opr_violation>
2

>  <PC+>
0

>  <PC->
0

>  <PEOE_PC+>
2.3334699

>  <PEOE_PC->
-2.3334699

>  <PEOE_RPC+>
0.17946298

>  <PEOE_RPC->
0.16450581

>  <PEOE_VSA+0>
90.36544

>  <PEOE_VSA+1>
53.647533

>  <PEOE_VSA+2>
18.041691

>  <PEOE_VSA+3>
0

>  <PEOE_VSA+4>
10.324173

>  <PEOE_VSA+5>
0

>  <PEOE_VSA+6>
9.0455017

>  <PEOE_VSA-0>
128.15262

>  <PEOE_VSA-1>
90.856468

>  <PEOE_VSA-2>
0

>  <PEOE_VSA-3>
35.725906

>  <PEOE_VSA-4>
23.817272

>  <PEOE_VSA-5>
0

>  <PEOE_VSA-6>
7.7675405

>  <PEOE_VSA_FHYD>
0.89106333

>  <PEOE_VSA_FNEG>
0.61212909

>  <PEOE_VSA_FPNEG>
0.067525834

>  <PEOE_VSA_FPOL>
0.10893666

>  <PEOE_VSA_FPOS>
0.38787088

>  <PEOE_VSA_FPPOS>
0.041410834

>  <PEOE_VSA_HYD>
416.78964

>  <PEOE_VSA_NEG>
286.31979

>  <PEOE_VSA_PNEG>
31.584812

>  <PEOE_VSA_POL>
50.954487

>  <PEOE_VSA_POS>
181.42433

>  <PEOE_VSA_PPOS>
19.369675

>  <petitjean>
0.47058824

>  <petitjeanSC>
0.8888889

>  <Q_PC+>
0

>  <Q_PC->
0

>  <Q_RPC+>
0

>  <Q_RPC->
0

>  <Q_VSA_FHYD>
1

>  <Q_VSA_FNEG>
0

>  <Q_VSA_FPNEG>
0

>  <Q_VSA_FPOL>
0

>  <Q_VSA_FPOS>
1

>  <Q_VSA_FPPOS>
0

>  <Q_VSA_HYD>
467.74414

>  <Q_VSA_NEG>
0

>  <Q_VSA_PNEG>
0

>  <Q_VSA_POL>
0

>  <Q_VSA_POS>
467.74414

>  <Q_VSA_PPOS>
0

>  <radius>
9

>  <reactive>
0

>  <rings>
4

>  <RPC+>
0

>  <RPC->
0

>  <rsynth>
0.41666666

>  <SlogP>
8.1556997

>  <SlogP_VSA0>
25.385227

>  <SlogP_VSA1>
3.1243138

>  <SlogP_VSA2>
18.242037

>  <SlogP_VSA3>
55.318733

>  <SlogP_VSA4>
12.7423

>  <SlogP_VSA5>
0

>  <SlogP_VSA6>
15.670918

>  <SlogP_VSA7>
194.07503

>  <SlogP_VSA8>
75.473625

>  <SlogP_VSA9>
113.94921

>  <SMR>
13.01358

>  <SMR_VSA0>
0

>  <SMR_VSA1>
103.3101

>  <SMR_VSA2>
26.001553

>  <SMR_VSA3>
20.653702

>  <SMR_VSA4>
0

>  <SMR_VSA5>
269.54865

>  <SMR_VSA6>
55.318733

>  <SMR_VSA7>
39.148643

>  <TPSA>
23.469999

>  <VAdjEq>
0.3281796

>  <VAdjMa>
6.2854023

>  <VDistEq>
3.9695003

>  <VDistMa>
10.027059

>  <vdw_area>
467.74414

>  <vdw_vol>
647.30566

>  <vsa_acc>
0

>  <vsa_acid>
0

>  <vsa_base>
0

>  <vsa_don>
0

>  <vsa_hyd>
429.80069

>  <vsa_other>
0

>  <vsa_pol>
13.566921

>  <Weight>
523.97296

>  <weinerPath>
4625

>  <weinerPol>
59

>  <zagreb>
192

$$$$