FC(F)(C(F)(F)F)C(F)(F)F
  MOE2013           2D

 11 10  0  0  0  0  0  0  0  0999 V2000
    0.0000    0.0000    0.0000 F   0  0  0  0  0  0  0  0  0  0  0  0
    0.0000   -1.5000    0.0000 C   0  0  0  0  0  0  0  0  0  0  0  0
    0.0000   -3.0000    0.0000 F   0  0  0  0  0  0  0  0  0  0  0  0
    1.5000   -1.5000    0.0000 C   0  0  0  0  0  0  0  0  0  0  0  0
    3.0000   -1.5000    0.0000 F   0  0  0  0  0  0  0  0  0  0  0  0
    1.5000   -3.0000    0.0000 F   0  0  0  0  0  0  0  0  0  0  0  0
    1.5000    0.0000    0.0000 F   0  0  0  0  0  0  0  0  0  0  0  0
   -1.5000   -1.5000    0.0000 C   0  0  0  0  0  0  0  0  0  0  0  0
   -1.5000   -3.0000    0.0000 F   0  0  0  0  0  0  0  0  0  0  0  0
   -1.5000    0.0000    0.0000 F   0  0  0  0  0  0  0  0  0  0  0  0
   -3.0000   -1.5000    0.0000 F   0  0  0  0  0  0  0  0  0  0  0  0
  1  2  1  0  0  0  0
  2  3  1  0  0  0  0
  2  4  1  0  0  0  0
  2  8  1  0  0  0  0
  4  5  1  0  0  0  0
  4  6  1  0  0  0  0
  4  7  1  0  0  0  0
  8  9  1  0  0  0  0
  8 10  1  0  0  0  0
  8 11  1  0  0  0  0
M  END
>  <Index>
841

>  <ID>
HT1633

>  <class>
0

>  <apol>
9.7360001

>  <ast_fraglike>
1

>  <ast_fraglike_ext>
1

>  <ast_violation>
0

>  <ast_violation_ext>
0

>  <a_acc>
0

>  <a_acid>
0

>  <a_aro>
0

>  <a_base>
0

>  <a_count>
11

>  <a_don>
0

>  <a_donacc>
0

>  <a_heavy>
11

>  <a_hyd>
11

>  <a_IC>
9.2988605

>  <a_ICM>
0.84535092

>  <a_nB>
0

>  <a_nBr>
0

>  <a_nC>
3

>  <a_nCl>
0

>  <a_nF>
8

>  <a_nH>
0

>  <a_nI>
0

>  <a_nN>
0

>  <a_nO>
0

>  <a_nP>
0

>  <a_nS>
0

>  <balabanJ>
4.7484088

>  <BCUT_PEOE_0>
-2.2104843

>  <BCUT_PEOE_1>
-0.17900121

>  <BCUT_PEOE_2>
-0.16472349

>  <BCUT_PEOE_3>
2.7351174

>  <BCUT_SLOGP_0>
-2.4890473

>  <BCUT_SLOGP_1>
0.42019999

>  <BCUT_SLOGP_2>
0.42019999

>  <BCUT_SLOGP_3>
2.457417

>  <BCUT_SMR_0>
-2.226712

>  <BCUT_SMR_1>
0.1108

>  <BCUT_SMR_2>
0.1108

>  <BCUT_SMR_3>
2.6754718

>  <bpol>
9.6239996

>  <b_1rotN>
0

>  <b_1rotR>
0

>  <b_ar>
0

>  <b_count>
10

>  <b_double>
0

>  <b_heavy>
10

>  <b_max1len>
4

>  <b_rotN>
2

>  <b_rotR>
0.2

>  <b_single>
10

>  <b_triple>
0

>  <chi0>
9.5

>  <chi0v>
4.523716

>  <chi0v_C>
1.5

>  <chi0_C>
1.5

>  <chi1>
4.5

>  <chi1v>
2.011858

>  <chi1v_C>
0.5

>  <chi1_C>
0.5

>  <chiral>
0

>  <chiral_u>
0

>  <density>
1.6739169

>  <diameter>
4

>  <FCharge>
0

>  <GCUT_PEOE_0>
-0.50401789

>  <GCUT_PEOE_1>
-0.33900121

>  <GCUT_PEOE_2>
-0.32472348

>  <GCUT_PEOE_3>
1.9756826

>  <GCUT_SLOGP_0>
-0.87237608

>  <GCUT_SLOGP_1>
0.26019999

>  <GCUT_SLOGP_2>
0.26019999

>  <GCUT_SLOGP_3>
1.9045482

>  <GCUT_SMR_0>
-0.50855893

>  <GCUT_SMR_1>
-0.049199998

>  <GCUT_SMR_2>
-0.049199998

>  <GCUT_SMR_3>
1.9743217

>  <Kier1>
11

>  <Kier2>
2.5

>  <Kier3>
1.9753087

>  <KierA1>
9.5617256

>  <KierA2>
2.1397312

>  <KierA3>
1.6674129

>  <KierFlex>
1.8599565

>  <lip_acc>
0

>  <lip_don>
0

>  <lip_druglike>
1

>  <lip_violation>
0

>  <logP(o/w)>
2.8334401

>  <logS>
-2.4598601

>  <mr>
1.4567618

>  <mutagenic>
0

>  <nmol>
1

>  <opr_brigid>
0

>  <opr_leadlike>
1

>  <opr_nring>
0

>  <opr_nrot>
0

>  <opr_violation>
0

>  <PC+>
0

>  <PC->
0

>  <PEOE_PC+>
1.3606211

>  <PEOE_PC->
-1.3606211

>  <PEOE_RPC+>
0.34049785

>  <PEOE_RPC->
0.13680522

>  <PEOE_VSA+0>
0

>  <PEOE_VSA+1>
0

>  <PEOE_VSA+2>
0

>  <PEOE_VSA+3>
0

>  <PEOE_VSA+4>
0

>  <PEOE_VSA+5>
0

>  <PEOE_VSA+6>
20.3242

>  <PEOE_VSA-0>
0

>  <PEOE_VSA-1>
0

>  <PEOE_VSA-2>
0

>  <PEOE_VSA-3>
95.269089

>  <PEOE_VSA-4>
0

>  <PEOE_VSA-5>
0

>  <PEOE_VSA-6>
0

>  <PEOE_VSA_FHYD>
0.82417488

>  <PEOE_VSA_FNEG>
0.82417488

>  <PEOE_VSA_FPNEG>
0

>  <PEOE_VSA_FPOL>
0.17582509

>  <PEOE_VSA_FPOS>
0.17582509

>  <PEOE_VSA_FPPOS>
0.17582509

>  <PEOE_VSA_HYD>
95.269089

>  <PEOE_VSA_NEG>
95.269089

>  <PEOE_VSA_PNEG>
0

>  <PEOE_VSA_POL>
20.3242

>  <PEOE_VSA_POS>
20.3242

>  <PEOE_VSA_PPOS>
20.3242

>  <petitjean>
0.5

>  <petitjeanSC>
1

>  <Q_PC+>
0

>  <Q_PC->
0

>  <Q_RPC+>
0

>  <Q_RPC->
0

>  <Q_VSA_FHYD>
1

>  <Q_VSA_FNEG>
0

>  <Q_VSA_FPNEG>
0

>  <Q_VSA_FPOL>
0

>  <Q_VSA_FPOS>
1

>  <Q_VSA_FPPOS>
0

>  <Q_VSA_HYD>
115.59328

>  <Q_VSA_NEG>
0

>  <Q_VSA_PNEG>
0

>  <Q_VSA_POL>
0

>  <Q_VSA_POS>
115.59328

>  <Q_VSA_PPOS>
0

>  <radius>
2

>  <reactive>
0

>  <rings>
0

>  <RPC+>
0

>  <RPC->
0

>  <rsynth>
1

>  <SlogP>
2.7463

>  <SlogP_VSA0>
0

>  <SlogP_VSA1>
17.343105

>  <SlogP_VSA2>
0

>  <SlogP_VSA3>
0

>  <SlogP_VSA4>
0

>  <SlogP_VSA5>
0

>  <SlogP_VSA6>
0

>  <SlogP_VSA7>
0

>  <SlogP_VSA8>
0

>  <SlogP_VSA9>
119.68091

>  <SMR>
1.7057

>  <SMR_VSA0>
0

>  <SMR_VSA1>
119.68091

>  <SMR_VSA2>
17.343105

>  <SMR_VSA3>
0

>  <SMR_VSA4>
0

>  <SMR_VSA5>
0

>  <SMR_VSA6>
0

>  <SMR_VSA7>
0

>  <TPSA>
0

>  <VAdjEq>
0.64681429

>  <VAdjMa>
4.321928

>  <VDistEq>
1.9292524

>  <VDistMa>
6.664022

>  <vdw_area>
115.59328

>  <vdw_vol>
112.32157

>  <vsa_acc>
0

>  <vsa_acid>
0

>  <vsa_base>
0

>  <vsa_don>
0

>  <vsa_hyd>
115.59328

>  <vsa_other>
0

>  <vsa_pol>
0

>  <Weight>
188.017

>  <weinerPath>
136

>  <weinerPol>
18

>  <zagreb>
56

$$$$