S1C2N(C(C(OCOC(=O)C(C)(C)C)=O)C1(C)C)C(=O)C2NC(=O)C(N)c1ccccc1
  MOE2013           2D

 32 34  0  0  1  0  0  0  0  0999 V2000
    0.0000    0.0000    0.0000 S   0  0  0  0  0  0  0  0  0  0  0  0
   -1.0040   -1.1140    0.0000 C   0  0  3  0  0  0  0  0  0  0  0  0
   -0.2550   -2.4140    0.0000 N   0  0  0  0  0  0  0  0  0  0  0  0
    1.2130   -2.1020    0.0000 C   0  0  3  0  0  0  0  0  0  0  0  0
    2.3270   -3.1070    0.0000 C   0  0  0  0  0  0  0  0  0  0  0  0
    3.7540   -2.6440    0.0000 O   0  0  0  0  0  0  0  0  0  0  0  0
    4.8680   -3.6480    0.0000 C   0  0  0  0  0  0  0  0  0  0  0  0
    6.2950   -3.1850    0.0000 O   0  0  0  0  0  0  0  0  0  0  0  0
    7.4090   -4.1900    0.0000 C   0  0  0  0  0  0  0  0  0  0  0  0
    7.0960   -5.6570    0.0000 O   0  0  0  0  0  0  0  0  0  0  0  0
    8.8360   -3.7270    0.0000 C   0  0  0  0  0  0  0  0  0  0  0  0
   10.2620   -3.2640    0.0000 C   0  0  0  0  0  0  0  0  0  0  0  0
    9.2980   -5.1540    0.0000 C   0  0  0  0  0  0  0  0  0  0  0  0
    8.3730   -2.3000    0.0000 C   0  0  0  0  0  0  0  0  0  0  0  0
    2.0140   -4.5740    0.0000 O   0  0  0  0  0  0  0  0  0  0  0  0
    1.3700   -0.6110    0.0000 C   0  0  0  0  0  0  0  0  0  0  0  0
    2.8690   -0.6510    0.0000 C   0  0  0  0  0  0  0  0  0  0  0  0
    2.0860    0.7070    0.0000 C   0  0  0  0  0  0  0  0  0  0  0  0
   -1.5540   -3.1630    0.0000 C   0  0  0  0  0  0  0  0  0  0  0  0
   -1.9430   -4.6120    0.0000 O   0  0  0  0  0  0  0  0  0  0  0  0
   -2.3040   -1.8640    0.0000 C   0  0  3  0  0  0  0  0  0  0  0  0
   -3.7520   -1.4750    0.0000 N   0  0  0  0  0  0  0  0  0  0  0  0
   -4.8140   -2.5350    0.0000 C   0  0  0  0  0  0  0  0  0  0  0  0
   -4.4260   -3.9840    0.0000 O   0  0  0  0  0  0  0  0  0  0  0  0
   -6.2620   -2.1460    0.0000 C   0  0  3  0  0  0  0  0  0  0  0  0
   -6.6500   -0.6970    0.0000 N   0  0  0  0  0  0  0  0  0  0  0  0
   -7.3230   -3.2060    0.0000 C   0  0  0  0  0  0  0  0  0  0  0  0
   -6.9360   -4.6550    0.0000 C   0  0  0  0  0  0  0  0  0  0  0  0
   -7.9970   -5.7150    0.0000 C   0  0  0  0  0  0  0  0  0  0  0  0
   -9.4460   -5.3260    0.0000 C   0  0  0  0  0  0  0  0  0  0  0  0
   -9.8330   -3.8770    0.0000 C   0  0  0  0  0  0  0  0  0  0  0  0
   -8.7720   -2.8170    0.0000 C   0  0  0  0  0  0  0  0  0  0  0  0
  1  2  1  0  0  0  0
  1 16  1  0  0  0  0
  2  3  1  0  0  0  0
  2 21  1  0  0  0  0
  3  4  1  0  0  0  0
  3 19  1  0  0  0  0
  4  5  1  0  0  0  0
  4 16  1  0  0  0  0
  5  6  1  0  0  0  0
  5 15  2  0  0  0  0
  6  7  1  0  0  0  0
  7  8  1  0  0  0  0
  8  9  1  0  0  0  0
  9 10  2  0  0  0  0
  9 11  1  0  0  0  0
 11 12  1  0  0  0  0
 11 13  1  0  0  0  0
 11 14  1  0  0  0  0
 16 17  1  0  0  0  0
 16 18  1  0  0  0  0
 19 20  2  0  0  0  0
 19 21  1  0  0  0  0
 21 22  1  0  0  0  0
 22 23  1  0  0  0  0
 23 24  2  0  0  0  0
 23 25  1  0  0  0  0
 25 26  1  0  0  0  0
 25 27  1  0  0  0  0
 27 28  1  0  0  0  0
 27 32  2  0  0  0  0
 28 29  2  0  0  0  0
 29 30  1  0  0  0  0
 30 31  2  0  0  0  0
 31 32  1  0  0  0  0
M  END
>  <Index>
876

>  <ID>
HT1699

>  <class>
0

>  <apol>
69.069

>  <ast_fraglike>
0

>  <ast_fraglike_ext>
0

>  <ast_violation>
2

>  <ast_violation_ext>
4

>  <a_acc>
5

>  <a_acid>
0

>  <a_aro>
6

>  <a_base>
0

>  <a_count>
61

>  <a_don>
2

>  <a_donacc>
7

>  <a_heavy>
32

>  <a_hyd>
18

>  <a_IC>
102.52137

>  <a_ICM>
1.6806782

>  <a_nB>
0

>  <a_nBr>
0

>  <a_nC>
22

>  <a_nCl>
0

>  <a_nF>
0

>  <a_nH>
29

>  <a_nI>
0

>  <a_nN>
3

>  <a_nO>
6

>  <a_nP>
0

>  <a_nS>
1

>  <balabanJ>
1.549871

>  <BCUT_PEOE_0>
-2.6487281

>  <BCUT_PEOE_1>
-0.46156782

>  <BCUT_PEOE_2>
0.44157574

>  <BCUT_PEOE_3>
2.8518679

>  <BCUT_SLOGP_0>
-2.9031918

>  <BCUT_SLOGP_1>
-0.39596096

>  <BCUT_SLOGP_2>
0.48771551

>  <BCUT_SLOGP_3>
2.755707

>  <BCUT_SMR_0>
-2.395298

>  <BCUT_SMR_1>
-0.27808833

>  <BCUT_SMR_2>
0.68545091

>  <BCUT_SMR_3>
3.1322567

>  <bpol>
43.627003

>  <b_1rotN>
6

>  <b_1rotR>
0.17647059

>  <b_ar>
6

>  <b_count>
63

>  <b_double>
4

>  <b_heavy>
34

>  <b_max1len>
4

>  <b_rotN>
10

>  <b_rotR>
0.29411766

>  <b_single>
53

>  <b_triple>
0

>  <chi0>
23.84457

>  <chi0v>
19.602058

>  <chi0v_C>
14.403259

>  <chi0_C>
15.438793

>  <chi1>
14.84206

>  <chi1v>
11.17098

>  <chi1v_C>
6.4373927

>  <chi1_C>
7.5605135

>  <chiral>
4

>  <chiral_u>
4

>  <density>
0.78671724

>  <diameter>
17

>  <FCharge>
0

>  <GCUT_PEOE_0>
-0.83789992

>  <GCUT_PEOE_1>
-0.38954911

>  <GCUT_PEOE_2>
0.044178572

>  <GCUT_PEOE_3>
2.8120544

>  <GCUT_SLOGP_0>
-1.3374585

>  <GCUT_SLOGP_1>
-0.32208517

>  <GCUT_SLOGP_2>
0.055391893

>  <GCUT_SLOGP_3>
2.7656119

>  <GCUT_SMR_0>
-0.53702706

>  <GCUT_SMR_1>
-0.1793441

>  <GCUT_SMR_2>
0.15431049

>  <GCUT_SMR_3>
3.0674095

>  <Kier1>
26.602076

>  <Kier2>
10.318048

>  <Kier3>
5.8142123

>  <KierA1>
22.616066

>  <KierA2>
8.7238369

>  <KierA3>
4.8968167

>  <KierFlex>
6.1655898

>  <lip_acc>
9

>  <lip_don>
3

>  <lip_druglike>
1

>  <lip_violation>
0

>  <logP(o/w)>
2.2119999

>  <logS>
-4.2481699

>  <mr>
12.04438

>  <mutagenic>
0

>  <nmol>
1

>  <opr_brigid>
14

>  <opr_leadlike>
0

>  <opr_nring>
3

>  <opr_nrot>
7

>  <opr_violation>
2

>  <PC+>
0

>  <PC->
0

>  <PEOE_PC+>
3.3040416

>  <PEOE_PC->
-3.3040416

>  <PEOE_RPC+>
0.087284632

>  <PEOE_RPC->
0.10308987

>  <PEOE_VSA+0>
63.980789

>  <PEOE_VSA+1>
46.919247

>  <PEOE_VSA+2>
31.79793

>  <PEOE_VSA+3>
29.820286

>  <PEOE_VSA+4>
12.949531

>  <PEOE_VSA+5>
42.366531

>  <PEOE_VSA+6>
0

>  <PEOE_VSA-0>
39.703896

>  <PEOE_VSA-1>
117.51756

>  <PEOE_VSA-2>
19.760618

>  <PEOE_VSA-3>
0

>  <PEOE_VSA-4>
0

>  <PEOE_VSA-5>
59.275196

>  <PEOE_VSA-6>
6.7880106

>  <PEOE_VSA_FHYD>
0.74222863

>  <PEOE_VSA_FNEG>
0.51615167

>  <PEOE_VSA_FPNEG>
0.14029746

>  <PEOE_VSA_FPOL>
0.25777134

>  <PEOE_VSA_FPOS>
0.48384836

>  <PEOE_VSA_FPPOS>
0.1174739

>  <PEOE_VSA_HYD>
349.50031

>  <PEOE_VSA_NEG>
243.04527

>  <PEOE_VSA_PNEG>
66.06321

>  <PEOE_VSA_POL>
121.37926

>  <PEOE_VSA_POS>
227.8343

>  <PEOE_VSA_PPOS>
55.316059

>  <petitjean>
0.47058824

>  <petitjeanSC>
0.8888889

>  <Q_PC+>
0

>  <Q_PC->
0

>  <Q_RPC+>
0

>  <Q_RPC->
0

>  <Q_VSA_FHYD>
1

>  <Q_VSA_FNEG>
0

>  <Q_VSA_FPNEG>
0

>  <Q_VSA_FPOL>
0

>  <Q_VSA_FPOS>
1

>  <Q_VSA_FPPOS>
0

>  <Q_VSA_HYD>
470.87958

>  <Q_VSA_NEG>
0

>  <Q_VSA_PNEG>
0

>  <Q_VSA_POL>
0

>  <Q_VSA_POS>
470.87958

>  <Q_VSA_PPOS>
0

>  <radius>
9

>  <reactive>
0

>  <rings>
3

>  <RPC+>
0

>  <RPC->
0

>  <rsynth>
1

>  <SlogP>
1.419

>  <SlogP_VSA0>
50.90794

>  <SlogP_VSA1>
29.132809

>  <SlogP_VSA2>
127.7597

>  <SlogP_VSA3>
22.984112

>  <SlogP_VSA4>
3.185575

>  <SlogP_VSA5>
0

>  <SlogP_VSA6>
0

>  <SlogP_VSA7>
88.215919

>  <SlogP_VSA8>
3.9819686

>  <SlogP_VSA9>
198.84961

>  <SMR>
11.80111

>  <SMR_VSA0>
117.44864

>  <SMR_VSA1>
3.1243138

>  <SMR_VSA2>
18.01075

>  <SMR_VSA3>
17.478609

>  <SMR_VSA4>
32.897186

>  <SMR_VSA5>
88.215919

>  <SMR_VSA6>
48.992607

>  <SMR_VSA7>
198.84961

>  <TPSA>
128.03

>  <VAdjEq>
0.35236704

>  <VAdjMa>
6.0874629

>  <VDistEq>
3.8447433

>  <VDistMa>
9.6872683

>  <vdw_area>
470.87958

>  <vdw_vol>
589.22693

>  <vsa_acc>
54.267685

>  <vsa_acid>
0

>  <vsa_base>
0

>  <vsa_don>
5.6825762

>  <vsa_hyd>
276.82816

>  <vsa_other>
88.632027

>  <vsa_pol>
77.692749

>  <Weight>
463.55499

>  <weinerPath>
3260

>  <weinerPol>
51

>  <zagreb>
172

$$$$