O=C1NC(=O)NC(=O)C1(CC)c1ccccc1
  MOE2013           2D

 17 18  0  0  0  0  0  0  0  0999 V2000
    0.0000    0.0000    0.0000 O   0  0  0  0  0  0  0  0  0  0  0  0
    0.0010   -1.5000    0.0000 C   0  0  0  0  0  0  0  0  0  0  0  0
    1.3010   -2.2490    0.0000 N   0  0  0  0  0  0  0  0  0  0  0  0
    1.3030   -3.7490    0.0000 C   0  0  0  0  0  0  0  0  0  0  0  0
    2.6020   -4.4980    0.0000 O   0  0  0  0  0  0  0  0  0  0  0  0
    0.0040   -4.5000    0.0000 N   0  0  0  0  0  0  0  0  0  0  0  0
   -1.2950   -3.7510    0.0000 C   0  0  0  0  0  0  0  0  0  0  0  0
   -2.5940   -4.5020    0.0000 O   0  0  0  0  0  0  0  0  0  0  0  0
   -1.2970   -2.2510    0.0000 C   0  0  0  0  0  0  0  0  0  0  0  0
   -2.0480   -0.9530    0.0000 C   0  0  0  0  0  0  0  0  0  0  0  0
   -1.2990    0.3470    0.0000 C   0  0  0  0  0  0  0  0  0  0  0  0
   -2.7970   -2.2530    0.0000 C   0  0  0  0  0  0  0  0  0  0  0  0
   -3.5460   -3.5520    0.0000 C   0  0  0  0  0  0  0  0  0  0  0  0
   -5.0460   -3.5540    0.0000 C   0  0  0  0  0  0  0  0  0  0  0  0
   -5.7970   -2.2560    0.0000 C   0  0  0  0  0  0  0  0  0  0  0  0
   -5.0480   -0.9560    0.0000 C   0  0  0  0  0  0  0  0  0  0  0  0
   -3.5480   -0.9540    0.0000 C   0  0  0  0  0  0  0  0  0  0  0  0
  1  2  2  0  0  0  0
  2  3  1  0  0  0  0
  2  9  1  0  0  0  0
  3  4  1  0  0  0  0
  4  5  2  0  0  0  0
  4  6  1  0  0  0  0
  6  7  1  0  0  0  0
  7  8  2  0  0  0  0
  7  9  1  0  0  0  0
  9 10  1  0  0  0  0
  9 12  1  0  0  0  0
 10 11  1  0  0  0  0
 12 13  1  0  0  0  0
 12 17  2  0  0  0  0
 13 14  2  0  0  0  0
 14 15  1  0  0  0  0
 15 16  2  0  0  0  0
 16 17  1  0  0  0  0
M  END
>  <Index>
851

>  <ID>
HT1650

>  <class>
0

>  <apol>
33.727516

>  <ast_fraglike>
1

>  <ast_fraglike_ext>
1

>  <ast_violation>
0

>  <ast_violation_ext>
0

>  <a_acc>
3

>  <a_acid>
0

>  <a_aro>
6

>  <a_base>
0

>  <a_count>
29

>  <a_don>
2

>  <a_donacc>
5

>  <a_heavy>
17

>  <a_hyd>
9

>  <a_IC>
48.08746

>  <a_ICM>
1.6581883

>  <a_nB>
0

>  <a_nBr>
0

>  <a_nC>
12

>  <a_nCl>
0

>  <a_nF>
0

>  <a_nH>
12

>  <a_nI>
0

>  <a_nN>
2

>  <a_nO>
3

>  <a_nP>
0

>  <a_nS>
0

>  <balabanJ>
2.2186267

>  <BCUT_PEOE_0>
-2.5613515

>  <BCUT_PEOE_1>
-0.55450386

>  <BCUT_PEOE_2>
0.55760205

>  <BCUT_PEOE_3>
2.6591647

>  <BCUT_SLOGP_0>
-2.7842083

>  <BCUT_SLOGP_1>
-0.50674492

>  <BCUT_SLOGP_2>
0.67126656

>  <BCUT_SLOGP_3>
2.6011665

>  <BCUT_SMR_0>
-2.3223538

>  <BCUT_SMR_1>
-0.38156867

>  <BCUT_SMR_2>
0.7004329

>  <BCUT_SMR_3>
2.8980157

>  <bpol>
17.312485

>  <b_1rotN>
2

>  <b_1rotR>
0.11111111

>  <b_ar>
6

>  <b_count>
30

>  <b_double>
3

>  <b_heavy>
18

>  <b_max1len>
4

>  <b_rotN>
2

>  <b_rotR>
0.11111111

>  <b_single>
21

>  <b_triple>
0

>  <chi0>
12.466255

>  <chi0v>
9.3186026

>  <chi0v_C>
7.0938582

>  <chi0_C>
8.052042

>  <chi1>
8.1082258

>  <chi1v>
5.3337164

>  <chi1v_C>
3.7213438

>  <chi1_C>
4.7431822

>  <chiral>
0

>  <chiral_u>
0

>  <density>
0.78021657

>  <diameter>
8

>  <FCharge>
0

>  <GCUT_PEOE_0>
-0.76103753

>  <GCUT_PEOE_1>
-0.43633094

>  <GCUT_PEOE_2>
0.086986333

>  <GCUT_PEOE_3>
2.5332735

>  <GCUT_SLOGP_0>
-1.183949

>  <GCUT_SLOGP_1>
-0.3545354

>  <GCUT_SLOGP_2>
0.1554832

>  <GCUT_SLOGP_3>
2.5106981

>  <GCUT_SMR_0>
-0.51807946

>  <GCUT_SMR_1>
-0.21506928

>  <GCUT_SMR_2>
0.16946924

>  <GCUT_SMR_3>
2.7875495

>  <Kier1>
13.432098

>  <Kier2>
5.3254437

>  <Kier3>
2.2907231

>  <KierA1>
9.0361023

>  <KierA2>
3.4842544

>  <KierA3>
1.4656065

>  <KierFlex>
1.8520046

>  <lip_acc>
5

>  <lip_don>
2

>  <lip_druglike>
1

>  <lip_violation>
0

>  <logP(o/w)>
1.7180001

>  <logS>
-2.94871

>  <mr>
6.2230406

>  <mutagenic>
0

>  <nmol>
1

>  <opr_brigid>
12

>  <opr_leadlike>
1

>  <opr_nring>
2

>  <opr_nrot>
2

>  <opr_violation>
0

>  <PC+>
0

>  <PC->
0

>  <PEOE_PC+>
1.7586164

>  <PEOE_PC->
-1.7586164

>  <PEOE_RPC+>
0.18709083

>  <PEOE_RPC->
0.15777408

>  <PEOE_VSA+0>
21.326929

>  <PEOE_VSA+1>
21.326929

>  <PEOE_VSA+2>
0

>  <PEOE_VSA+3>
17.238026

>  <PEOE_VSA+4>
25.899061

>  <PEOE_VSA+5>
0

>  <PEOE_VSA+6>
17.440542

>  <PEOE_VSA-0>
10.909853

>  <PEOE_VSA-1>
80.022194

>  <PEOE_VSA-2>
0

>  <PEOE_VSA-3>
0

>  <PEOE_VSA-4>
13.566921

>  <PEOE_VSA-5>
27.407623

>  <PEOE_VSA-6>
0

>  <PEOE_VSA_FHYD>
0.6414271

>  <PEOE_VSA_FNEG>
0.56097502

>  <PEOE_VSA_FPNEG>
0.17425737

>  <PEOE_VSA_FPOL>
0.35857293

>  <PEOE_VSA_FPOS>
0.43902496

>  <PEOE_VSA_FPPOS>
0.18431555

>  <PEOE_VSA_HYD>
150.82393

>  <PEOE_VSA_NEG>
131.9066

>  <PEOE_VSA_PNEG>
40.974545

>  <PEOE_VSA_POL>
84.314148

>  <PEOE_VSA_POS>
103.23149

>  <PEOE_VSA_PPOS>
43.339603

>  <petitjean>
0.5

>  <petitjeanSC>
1

>  <Q_PC+>
0

>  <Q_PC->
0

>  <Q_RPC+>
0

>  <Q_RPC->
0

>  <Q_VSA_FHYD>
1

>  <Q_VSA_FNEG>
0

>  <Q_VSA_FPNEG>
0

>  <Q_VSA_FPOL>
0

>  <Q_VSA_FPOS>
1

>  <Q_VSA_FPPOS>
0

>  <Q_VSA_HYD>
235.13809

>  <Q_VSA_NEG>
0

>  <Q_VSA_PNEG>
0

>  <Q_VSA_POL>
0

>  <Q_VSA_POS>
235.13809

>  <Q_VSA_PPOS>
0

>  <radius>
4

>  <reactive>
0

>  <rings>
2

>  <RPC+>
0

>  <RPC->
0

>  <rsynth>
1

>  <SlogP>
0.70039999

>  <SlogP_VSA0>
36.0215

>  <SlogP_VSA1>
15.347524

>  <SlogP_VSA2>
47.724434

>  <SlogP_VSA3>
0

>  <SlogP_VSA4>
3.185575

>  <SlogP_VSA5>
0

>  <SlogP_VSA6>
0

>  <SlogP_VSA7>
88.215919

>  <SlogP_VSA8>
18.868406

>  <SlogP_VSA9>
57.188232

>  <SMR>
6.0092402

>  <SMR_VSA0>
71.586647

>  <SMR_VSA1>
0

>  <SMR_VSA2>
36.0215

>  <SMR_VSA3>
3.185575

>  <SMR_VSA4>
0

>  <SMR_VSA5>
107.08433

>  <SMR_VSA6>
15.347524

>  <SMR_VSA7>
33.326015

>  <TPSA>
75.269997

>  <VAdjEq>
0.54234898

>  <VAdjMa>
5.1699252

>  <VDistEq>
2.6406655

>  <VDistMa>
7.9212403

>  <vdw_area>
235.13809

>  <vdw_vol>
297.65964

>  <vsa_acc>
40.700764

>  <vsa_acid>
0

>  <vsa_base>
0

>  <vsa_don>
11.365152

>  <vsa_hyd>
126.46796

>  <vsa_other>
43.339603

>  <vsa_pol>
52.065914

>  <Weight>
232.239

>  <weinerPath>
458

>  <weinerPol>
31

>  <zagreb>
88

$$$$