O=C1C=C2CC[C@@H]3[C@@H]([C@]2(C=C1)C)[C@@H](O)C[C@]1([C@H]3CC[C@]1(O)C(=O)COC(=O)CC(C)(C)C)C
  MOE2013           2D

 33 36  0  0  1  0  0  0  0  0999 V2000
    0.0000    0.0000    0.0000 O   0  0  0  0  0  0  0  0  0  0  0  0
    1.5000    0.0070    0.0000 C   0  0  0  0  0  0  0  0  0  0  0  0
    2.2440    1.3100    0.0000 C   0  0  0  0  0  0  0  0  0  0  0  0
    3.7440    1.3170    0.0000 C   0  0  0  0  0  0  0  0  0  0  0  0
    4.4880    2.6190    0.0000 C   0  0  0  0  0  0  0  0  0  0  0  0
    5.9880    2.6260    0.0000 C   0  0  0  0  0  0  0  0  0  0  0  0
    6.7440    1.3310    0.0000 C   0  0  2  0  0  0  0  0  0  0  0  0
    6.0000    0.0280    0.0000 C   0  0  1  0  0  0  0  0  0  0  0  0
    4.5000    0.0210    0.0000 C   0  0  1  0  0  0  0  0  0  0  0  0
    3.7560   -1.2810    0.0000 C   0  0  0  0  0  0  0  0  0  0  0  0
    2.2560   -1.2880    0.0000 C   0  0  0  0  0  0  0  0  0  0  0  0
    3.0010    0.0660    0.0000 C   0  0  0  0  0  0  0  0  0  0  0  0
    6.7560   -1.2670    0.0000 C   0  0  1  0  0  0  0  0  0  0  0  0
    6.0120   -2.5700    0.0000 O   0  0  0  0  0  0  0  0  0  0  0  0
    8.2560   -1.2600    0.0000 C   0  0  0  0  0  0  0  0  0  0  0  0
    9.0000    0.0420    0.0000 C   0  0  1  0  0  0  0  0  0  0  0  0
    8.2440    1.3380    0.0000 C   0  0  1  0  0  0  0  0  0  0  0  0
    9.2420    2.4570    0.0000 C   0  0  0  0  0  0  0  0  0  0  0  0
   10.6150    1.8540    0.0000 C   0  0  0  0  0  0  0  0  0  0  0  0
   10.4660    0.3610    0.0000 C   0  0  1  0  0  0  0  0  0  0  0  0
   10.8980   -1.0750    0.0000 O   0  0  0  0  0  0  0  0  0  0  0  0
   11.9420    0.0950    0.0000 C   0  0  0  0  0  0  0  0  0  0  0  0
   12.4490   -1.3170    0.0000 O   0  0  0  0  0  0  0  0  0  0  0  0
   12.9110    1.2400    0.0000 C   0  0  0  0  0  0  0  0  0  0  0  0
   14.3870    0.9740    0.0000 O   0  0  0  0  0  0  0  0  0  0  0  0
   15.3560    2.1190    0.0000 C   0  0  0  0  0  0  0  0  0  0  0  0
   14.8480    3.5300    0.0000 O   0  0  0  0  0  0  0  0  0  0  0  0
   16.8320    1.8520    0.0000 C   0  0  0  0  0  0  0  0  0  0  0  0
   17.8000    2.9980    0.0000 C   0  0  0  0  0  0  0  0  0  0  0  0
   18.7690    4.1430    0.0000 C   0  0  0  0  0  0  0  0  0  0  0  0
   16.6550    3.9660    0.0000 C   0  0  0  0  0  0  0  0  0  0  0  0
   18.9460    2.0290    0.0000 C   0  0  0  0  0  0  0  0  0  0  0  0
    9.9290   -1.1350    0.0000 C   0  0  0  0  0  0  0  0  0  0  0  0
  1  2  2  0  0  0  0
  2  3  1  0  0  0  0
  2 11  1  0  0  0  0
  3  4  2  0  0  0  0
  4  5  1  0  0  0  0
  4  9  1  0  0  0  0
  5  6  1  0  0  0  0
  7  6  1  1  0  0  0
  7  8  1  0  0  0  0
  7 17  1  0  0  0  0
  8  9  1  6  0  0  0
  8 13  1  0  0  0  0
  9 10  1  0  0  0  0
  9 12  1  6  0  0  0
 10 11  2  0  0  0  0
 13 14  1  6  0  0  0
 13 15  1  0  0  0  0
 15 16  1  0  0  0  0
 16 17  1  0  0  0  0
 16 20  1  0  0  0  0
 16 33  1  6  0  0  0
 17 18  1  6  0  0  0
 18 19  1  0  0  0  0
 19 20  1  0  0  0  0
 20 21  1  1  0  0  0
 20 22  1  6  0  0  0
 22 23  2  0  0  0  0
 22 24  1  0  0  0  0
 24 25  1  0  0  0  0
 25 26  1  0  0  0  0
 26 27  2  0  0  0  0
 26 28  1  0  0  0  0
 28 29  1  0  0  0  0
 29 30  1  0  0  0  0
 29 31  1  0  0  0  0
 29 32  1  0  0  0  0
M  END
>  <Index>
896

>  <ID>
HT1733

>  <class>
0

>  <apol>
77.670135

>  <ast_fraglike>
0

>  <ast_fraglike_ext>
0

>  <ast_violation>
3

>  <ast_violation_ext>
5

>  <a_acc>
5

>  <a_acid>
0

>  <a_aro>
0

>  <a_base>
0

>  <a_count>
71

>  <a_don>
2

>  <a_donacc>
7

>  <a_heavy>
33

>  <a_hyd>
24

>  <a_IC>
93.319061

>  <a_ICM>
1.314353

>  <a_nB>
0

>  <a_nBr>
0

>  <a_nC>
27

>  <a_nCl>
0

>  <a_nF>
0

>  <a_nH>
38

>  <a_nI>
0

>  <a_nN>
0

>  <a_nO>
6

>  <a_nP>
0

>  <a_nS>
0

>  <balabanJ>
1.508366

>  <BCUT_PEOE_0>
-2.9211485

>  <BCUT_PEOE_1>
-0.42248419

>  <BCUT_PEOE_2>
0.36492839

>  <BCUT_PEOE_3>
2.9750953

>  <BCUT_SLOGP_0>
-2.8993483

>  <BCUT_SLOGP_1>
-0.38036671

>  <BCUT_SLOGP_2>
0.40324831

>  <BCUT_SLOGP_3>
3.0056045

>  <BCUT_SMR_0>
-2.6753712

>  <BCUT_SMR_1>
-0.24348493

>  <BCUT_SMR_2>
0.53459585

>  <BCUT_SMR_3>
3.2150433

>  <bpol>
46.331867

>  <b_1rotN>
4

>  <b_1rotR>
0.11111111

>  <b_ar>
0

>  <b_count>
74

>  <b_double>
5

>  <b_heavy>
36

>  <b_max1len>
5

>  <b_rotN>
6

>  <b_rotR>
0.16666667

>  <b_single>
69

>  <b_triple>
0

>  <chi0>
24.396976

>  <chi0v>
20.51862

>  <chi0v_C>
17.991199

>  <chi0_C>
18.689871

>  <chi1>
15.210798

>  <chi1v>
12.248426

>  <chi1v_C>
10.661449

>  <chi1_C>
11.493149

>  <chiral>
7

>  <chiral_u>
0

>  <density>
0.71954703

>  <diameter>
16

>  <FCharge>
0

>  <GCUT_PEOE_0>
-0.80054665

>  <GCUT_PEOE_1>
-0.3717916

>  <GCUT_PEOE_2>
-0.025504567

>  <GCUT_PEOE_3>
3.3621745

>  <GCUT_SLOGP_0>
-0.94065315

>  <GCUT_SLOGP_1>
-0.3054485

>  <GCUT_SLOGP_2>
-0.010746019

>  <GCUT_SLOGP_3>
3.399894

>  <GCUT_SMR_0>
-0.53694779

>  <GCUT_SMR_1>
-0.19513495

>  <GCUT_SMR_2>
0.10727377

>  <GCUT_SMR_3>
3.5854003

>  <Kier1>
26.074074

>  <Kier2>
8.8342428

>  <Kier3>
4.3895745

>  <KierA1>
22.786734

>  <KierA2>
7.6865206

>  <KierA3>
3.8070791

>  <KierFlex>
5.3075972

>  <lip_acc>
6

>  <lip_don>
2

>  <lip_druglike>
1

>  <lip_violation>
0

>  <logP(o/w)>
4.0409999

>  <logS>
-5.7224002

>  <mr>
12.400698

>  <mutagenic>
0

>  <nmol>
1

>  <opr_brigid>
20

>  <opr_leadlike>
1

>  <opr_nring>
4

>  <opr_nrot>
5

>  <opr_violation>
1

>  <PC+>
0

>  <PC->
0

>  <PEOE_PC+>
2.6153965

>  <PEOE_PC->
-2.6153965

>  <PEOE_RPC+>
0.10057914

>  <PEOE_RPC->
0.14966962

>  <PEOE_VSA+0>
136.66289

>  <PEOE_VSA+1>
30.497244

>  <PEOE_VSA+2>
14.951293

>  <PEOE_VSA+3>
16.917038

>  <PEOE_VSA+4>
20.648346

>  <PEOE_VSA+5>
14.708499

>  <PEOE_VSA+6>
0

>  <PEOE_VSA-0>
68.016373

>  <PEOE_VSA-1>
108.20183

>  <PEOE_VSA-2>
0

>  <PEOE_VSA-3>
0

>  <PEOE_VSA-4>
0

>  <PEOE_VSA-5>
40.700764

>  <PEOE_VSA-6>
18.038837

>  <PEOE_VSA_FHYD>
0.79951459

>  <PEOE_VSA_FNEG>
0.50060987

>  <PEOE_VSA_FPNEG>
0.12515278

>  <PEOE_VSA_FPOL>
0.20048541

>  <PEOE_VSA_FPOS>
0.49939013

>  <PEOE_VSA_FPPOS>
0.075332612

>  <PEOE_VSA_HYD>
375.24667

>  <PEOE_VSA_NEG>
234.95781

>  <PEOE_VSA_PNEG>
58.739597

>  <PEOE_VSA_POL>
94.096443

>  <PEOE_VSA_POS>
234.38531

>  <PEOE_VSA_PPOS>
35.356846

>  <petitjean>
0.5

>  <petitjeanSC>
1

>  <Q_PC+>
0

>  <Q_PC->
0

>  <Q_RPC+>
0

>  <Q_RPC->
0

>  <Q_VSA_FHYD>
1

>  <Q_VSA_FNEG>
0

>  <Q_VSA_FPNEG>
0

>  <Q_VSA_FPOL>
0

>  <Q_VSA_FPOS>
1

>  <Q_VSA_FPPOS>
0

>  <Q_VSA_HYD>
469.34311

>  <Q_VSA_NEG>
0

>  <Q_VSA_PNEG>
0

>  <Q_VSA_POL>
0

>  <Q_VSA_POS>
469.34311

>  <Q_VSA_PPOS>
0

>  <radius>
8

>  <reactive>
1

>  <rings>
4

>  <RPC+>
0

>  <RPC->
0

>  <rsynth>
1

>  <SlogP>
3.5446999

>  <SlogP_VSA0>
50.770454

>  <SlogP_VSA1>
19.120686

>  <SlogP_VSA2>
89.055183

>  <SlogP_VSA3>
20.926258

>  <SlogP_VSA4>
13.232388

>  <SlogP_VSA5>
3.185575

>  <SlogP_VSA6>
0

>  <SlogP_VSA7>
52.929554

>  <SlogP_VSA8>
113.21043

>  <SlogP_VSA9>
166.63008

>  <SMR>
12.29936

>  <SMR_VSA0>
82.58654

>  <SMR_VSA1>
50.770454

>  <SMR_VSA2>
13.232388

>  <SMR_VSA3>
9.6542244

>  <SMR_VSA4>
0

>  <SMR_VSA5>
166.13998

>  <SMR_VSA6>
40.046944

>  <SMR_VSA7>
166.63008

>  <TPSA>
100.9

>  <VAdjEq>
0.3512581

>  <VAdjMa>
6.1699252

>  <VDistEq>
3.6840785

>  <VDistMa>
9.7854967

>  <vdw_area>
469.34311

>  <vdw_vol>
637.33844

>  <vsa_acc>
40.700764

>  <vsa_acid>
0

>  <vsa_base>
0

>  <vsa_don>
0

>  <vsa_hyd>
328.66986

>  <vsa_other>
34.129295

>  <vsa_pol>
67.834602

>  <Weight>
458.595

>  <weinerPath>
3111

>  <weinerPol>
67

>  <zagreb>
190

$$$$