Clc1cc2N(c3c(Sc2cc1)cccc3)CCCN1CCN(CC1)CCO
  MOE2013           2D

 27 30  0  0  1  0  0  0  0  0999 V2000
    0.0000    0.0000    0.0000 Cl  0  0  0  0  0  0  0  0  0  0  0  0
    0.7460    1.3010    0.0000 C   0  0  0  0  0  0  0  0  0  0  0  0
    2.2460    1.3060    0.0000 C   0  0  0  0  0  0  0  0  0  0  0  0
    2.9920    2.6070    0.0000 C   0  0  0  0  0  0  0  0  0  0  0  0
    4.4920    2.6110    0.0000 N   0  0  3  0  0  0  0  0  0  0  0  0
    5.2390    3.9120    0.0000 C   0  0  0  0  0  0  0  0  0  0  0  0
    4.4850    5.2090    0.0000 C   0  0  0  0  0  0  0  0  0  0  0  0
    2.9850    5.2050    0.0000 S   0  0  0  0  0  0  0  0  0  0  0  0
    2.2390    3.9040    0.0000 C   0  0  0  0  0  0  0  0  0  0  0  0
    0.7390    3.8990    0.0000 C   0  0  0  0  0  0  0  0  0  0  0  0
   -0.0080    2.5980    0.0000 C   0  0  0  0  0  0  0  0  0  0  0  0
    5.2310    6.5110    0.0000 C   0  0  0  0  0  0  0  0  0  0  0  0
    6.7310    6.5150    0.0000 C   0  0  0  0  0  0  0  0  0  0  0  0
    7.4850    5.2180    0.0000 C   0  0  0  0  0  0  0  0  0  0  0  0
    6.7390    3.9170    0.0000 C   0  0  0  0  0  0  0  0  0  0  0  0
    5.2460    1.3140    0.0000 C   0  0  0  0  0  0  0  0  0  0  0  0
    6.7460    1.3190    0.0000 C   0  0  0  0  0  0  0  0  0  0  0  0
    7.5000    0.0220    0.0000 C   0  0  0  0  0  0  0  0  0  0  0  0
    9.0000    0.0260    0.0000 N   0  0  0  0  0  0  0  0  0  0  0  0
    9.7460    1.3280    0.0000 C   0  0  0  0  0  0  0  0  0  0  0  0
   11.2460    1.3320    0.0000 C   0  0  0  0  0  0  0  0  0  0  0  0
   12.0000    0.0350    0.0000 N   0  0  0  0  0  0  0  0  0  0  0  0
   11.2540   -1.2660    0.0000 C   0  0  0  0  0  0  0  0  0  0  0  0
    9.7540   -1.2700    0.0000 C   0  0  0  0  0  0  0  0  0  0  0  0
   13.5000    0.0400    0.0000 C   0  0  0  0  0  0  0  0  0  0  0  0
   14.2540   -1.2570    0.0000 C   0  0  0  0  0  0  0  0  0  0  0  0
   15.7540   -1.2530    0.0000 O   0  0  0  0  0  0  0  0  0  0  0  0
  1  2  1  0  0  0  0
  2  3  1  0  0  0  0
  2 11  2  0  0  0  0
  3  4  2  0  0  0  0
  4  5  1  0  0  0  0
  4  9  1  0  0  0  0
  5  6  1  0  0  0  0
  5 16  1  0  0  0  0
  6  7  1  0  0  0  0
  6 15  2  0  0  0  0
  7  8  1  0  0  0  0
  7 12  2  0  0  0  0
  8  9  1  0  0  0  0
  9 10  2  0  0  0  0
 10 11  1  0  0  0  0
 12 13  1  0  0  0  0
 13 14  2  0  0  0  0
 14 15  1  0  0  0  0
 16 17  1  0  0  0  0
 17 18  1  0  0  0  0
 18 19  1  0  0  0  0
 19 20  1  0  0  0  0
 19 24  1  0  0  0  0
 20 21  1  0  0  0  0
 21 22  1  0  0  0  0
 22 23  1  0  0  0  0
 22 25  1  0  0  0  0
 23 24  1  0  0  0  0
 25 26  1  0  0  0  0
 26 27  1  0  0  0  0
M  END
>  <Index>
843

>  <ID>
HT1639

>  <class>
0

>  <apol>
63.478619

>  <ast_fraglike>
0

>  <ast_fraglike_ext>
0

>  <ast_violation>
2

>  <ast_violation_ext>
3

>  <a_acc>
3

>  <a_acid>
0

>  <a_aro>
12

>  <a_base>
0

>  <a_count>
53

>  <a_don>
1

>  <a_donacc>
4

>  <a_heavy>
27

>  <a_hyd>
23

>  <a_IC>
84.374802

>  <a_ICM>
1.5919774

>  <a_nB>
0

>  <a_nBr>
0

>  <a_nC>
21

>  <a_nCl>
1

>  <a_nF>
0

>  <a_nH>
26

>  <a_nI>
0

>  <a_nN>
3

>  <a_nO>
1

>  <a_nP>
0

>  <a_nS>
1

>  <balabanJ>
1.3003089

>  <BCUT_PEOE_0>
-2.7987742

>  <BCUT_PEOE_1>
-0.63184583

>  <BCUT_PEOE_2>
0.65598166

>  <BCUT_PEOE_3>
2.6941817

>  <BCUT_SLOGP_0>
-2.9128609

>  <BCUT_SLOGP_1>
-0.48452738

>  <BCUT_SLOGP_2>
0.7504012

>  <BCUT_SLOGP_3>
2.6265349

>  <BCUT_SMR_0>
-2.5147741

>  <BCUT_SMR_1>
-0.42720753

>  <BCUT_SMR_2>
0.8577503

>  <BCUT_SMR_3>
2.9697807

>  <bpol>
37.063381

>  <b_1rotN>
6

>  <b_1rotR>
0.2

>  <b_ar>
12

>  <b_count>
56

>  <b_double>
0

>  <b_heavy>
30

>  <b_max1len>
4

>  <b_rotN>
6

>  <b_rotR>
0.2

>  <b_single>
44

>  <b_triple>
0

>  <chi0>
18.639618

>  <chi0v>
17.052906

>  <chi0v_C>
12.905413

>  <chi0_C>
14.200459

>  <chi1>
13.241515

>  <chi1v>
10.834111

>  <chi1v_C>
6.0653839

>  <chi1_C>
7.6161566

>  <chiral>
0

>  <chiral_u>
0

>  <density>
0.75301033

>  <diameter>
14

>  <FCharge>
0

>  <GCUT_PEOE_0>
-0.85830688

>  <GCUT_PEOE_1>
-0.39923358

>  <GCUT_PEOE_2>
0.049981199

>  <GCUT_PEOE_3>
2.7968497

>  <GCUT_SLOGP_0>
-0.96576929

>  <GCUT_SLOGP_1>
-0.29980731

>  <GCUT_SLOGP_2>
0.15128353

>  <GCUT_SLOGP_3>
2.8693337

>  <GCUT_SMR_0>
-0.52267575

>  <GCUT_SMR_1>
-0.17802329

>  <GCUT_SMR_2>
0.23733838

>  <GCUT_SMR_3>
3.073751

>  <Kier1>
20.280001

>  <Kier2>
9.6668653

>  <Kier3>
4.9507437

>  <KierA1>
18.543015

>  <KierA2>
8.8072004

>  <KierA3>
4.498476

>  <KierFlex>
6.048594

>  <lip_acc>
4

>  <lip_don>
1

>  <lip_druglike>
1

>  <lip_violation>
0

>  <logP(o/w)>
3.4549999

>  <logS>
-4.4183402

>  <mr>
11.372689

>  <mutagenic>
0

>  <nmol>
1

>  <opr_brigid>
22

>  <opr_leadlike>
1

>  <opr_nring>
4

>  <opr_nrot>
8

>  <opr_violation>
0

>  <PC+>
0

>  <PC->
0

>  <PEOE_PC+>
1.7509028

>  <PEOE_PC->
-1.7509028

>  <PEOE_RPC+>
0.11962438

>  <PEOE_RPC->
0.22488238

>  <PEOE_VSA+0>
186.88051

>  <PEOE_VSA+1>
53.339767

>  <PEOE_VSA+2>
0

>  <PEOE_VSA+3>
0

>  <PEOE_VSA+4>
10.324173

>  <PEOE_VSA+5>
0

>  <PEOE_VSA+6>
0

>  <PEOE_VSA-0>
69.97583

>  <PEOE_VSA-1>
73.852371

>  <PEOE_VSA-2>
0

>  <PEOE_VSA-3>
0

>  <PEOE_VSA-4>
0

>  <PEOE_VSA-5>
0

>  <PEOE_VSA-6>
7.7675405

>  <PEOE_VSA_FHYD>
0.95501143

>  <PEOE_VSA_FNEG>
0.37697238

>  <PEOE_VSA_FPNEG>
0.019315504

>  <PEOE_VSA_FPOL>
0.044988573

>  <PEOE_VSA_FPOS>
0.62302762

>  <PEOE_VSA_FPPOS>
0.025673069

>  <PEOE_VSA_HYD>
384.04846

>  <PEOE_VSA_NEG>
151.59575

>  <PEOE_VSA_PNEG>
7.7675405

>  <PEOE_VSA_POL>
18.091713

>  <PEOE_VSA_POS>
250.54443

>  <PEOE_VSA_PPOS>
10.324173

>  <petitjean>
0.5

>  <petitjeanSC>
1

>  <Q_PC+>
0

>  <Q_PC->
0

>  <Q_RPC+>
0

>  <Q_RPC->
0

>  <Q_VSA_FHYD>
1

>  <Q_VSA_FNEG>
0

>  <Q_VSA_FPNEG>
0

>  <Q_VSA_FPOL>
0

>  <Q_VSA_FPOS>
1

>  <Q_VSA_FPPOS>
0

>  <Q_VSA_HYD>
402.1402

>  <Q_VSA_NEG>
0

>  <Q_VSA_PNEG>
0

>  <Q_VSA_POL>
0

>  <Q_VSA_POS>
402.1402

>  <Q_VSA_PPOS>
0

>  <radius>
7

>  <reactive>
0

>  <rings>
4

>  <RPC+>
0

>  <RPC->
0

>  <rsynth>
1

>  <SlogP>
3.9426999

>  <SlogP_VSA0>
28.509541

>  <SlogP_VSA1>
6.2486277

>  <SlogP_VSA2>
0

>  <SlogP_VSA3>
150.00331

>  <SlogP_VSA4>
0

>  <SlogP_VSA5>
3.1014678

>  <SlogP_VSA6>
3.5006065

>  <SlogP_VSA7>
123.50229

>  <SlogP_VSA8>
18.868406

>  <SlogP_VSA9>
76.881683

>  <SMR>
11.36068

>  <SMR_VSA0>
0

>  <SMR_VSA1>
31.633854

>  <SMR_VSA2>
6.2257819

>  <SMR_VSA3>
3.5006065

>  <SMR_VSA4>
5.513495

>  <SMR_VSA5>
142.3707

>  <SMR_VSA6>
150.00331

>  <SMR_VSA7>
71.368187

>  <TPSA>
29.950001

>  <VAdjEq>
0.41024774

>  <VAdjMa>
5.9068904

>  <VDistEq>
3.6134136

>  <VDistMa>
9.197422

>  <vdw_area>
402.1402

>  <vdw_vol>
536.48401

>  <vsa_acc>
0

>  <vsa_acid>
0

>  <vsa_base>
0

>  <vsa_don>
0

>  <vsa_hyd>
366.2536

>  <vsa_other>
0

>  <vsa_pol>
13.566921

>  <Weight>
403.978

>  <weinerPath>
2000

>  <weinerPol>
43

>  <zagreb>
142

$$$$