P(OCCCCCNC(=O)C(NC(OCCOC)=O)CCCCNC(OCCOC)=O)(O)(=O)C
  MOE2013           2D

 34 33  0  0  1  0  0  0  0  0999 V2000
    0.0000    0.0000    0.0000 P   0  0  3  0  0  0  0  0  0  0  0  0
   -1.2980    0.7520    0.0000 O   0  0  0  0  0  0  0  0  0  0  0  0
   -2.5980    0.0050    0.0000 C   0  0  0  0  0  0  0  0  0  0  0  0
   -3.8960    0.7570    0.0000 C   0  0  0  0  0  0  0  0  0  0  0  0
   -5.1960    0.0090    0.0000 C   0  0  0  0  0  0  0  0  0  0  0  0
   -6.4940    0.7620    0.0000 C   0  0  0  0  0  0  0  0  0  0  0  0
   -7.7940    0.0140    0.0000 C   0  0  0  0  0  0  0  0  0  0  0  0
   -9.0920    0.7670    0.0000 N   0  0  0  0  0  0  0  0  0  0  0  0
  -10.3920    0.0190    0.0000 C   0  0  0  0  0  0  0  0  0  0  0  0
  -10.3950   -1.4810    0.0000 O   0  0  0  0  0  0  0  0  0  0  0  0
  -11.6900    0.7710    0.0000 C   0  0  3  0  0  0  0  0  0  0  0  0
  -11.6870    2.2710    0.0000 N   0  0  0  0  0  0  0  0  0  0  0  0
  -12.9850    3.0240    0.0000 C   0  0  0  0  0  0  0  0  0  0  0  0
  -12.9820    4.5240    0.0000 O   0  0  0  0  0  0  0  0  0  0  0  0
  -14.2800    5.2760    0.0000 C   0  0  0  0  0  0  0  0  0  0  0  0
  -14.2770    6.7760    0.0000 C   0  0  0  0  0  0  0  0  0  0  0  0
  -15.5750    7.5280    0.0000 O   0  0  0  0  0  0  0  0  0  0  0  0
  -15.5720    9.0280    0.0000 C   0  0  0  0  0  0  0  0  0  0  0  0
  -14.2850    2.2760    0.0000 O   0  0  0  0  0  0  0  0  0  0  0  0
  -12.9900    0.0240    0.0000 C   0  0  0  0  0  0  0  0  0  0  0  0
  -12.9930   -1.4760    0.0000 C   0  0  0  0  0  0  0  0  0  0  0  0
  -14.2930   -2.2240    0.0000 C   0  0  0  0  0  0  0  0  0  0  0  0
  -14.2960   -3.7240    0.0000 C   0  0  0  0  0  0  0  0  0  0  0  0
  -15.5970   -4.4720    0.0000 N   0  0  0  0  0  0  0  0  0  0  0  0
  -15.5990   -5.9720    0.0000 C   0  0  0  0  0  0  0  0  0  0  0  0
  -16.9000   -6.7190    0.0000 O   0  0  0  0  0  0  0  0  0  0  0  0
  -16.9020   -8.2190    0.0000 C   0  0  0  0  0  0  0  0  0  0  0  0
  -18.2030   -8.9670    0.0000 C   0  0  0  0  0  0  0  0  0  0  0  0
  -18.2060  -10.4670    0.0000 O   0  0  0  0  0  0  0  0  0  0  0  0
  -19.5060  -11.2150    0.0000 C   0  0  0  0  0  0  0  0  0  0  0  0
  -14.3020   -6.7240    0.0000 O   0  0  0  0  0  0  0  0  0  0  0  0
    1.2980   -0.7520    0.0000 O   0  0  0  0  0  0  0  0  0  0  0  0
    0.7520    1.2980    0.0000 O   0  0  0  0  0  0  0  0  0  0  0  0
   -0.7520   -1.2980    0.0000 C   0  0  0  0  0  0  0  0  0  0  0  0
  1  2  1  0  0  0  0
  1 32  1  0  0  0  0
  1 33  2  0  0  0  0
  1 34  1  0  0  0  0
  2  3  1  0  0  0  0
  3  4  1  0  0  0  0
  4  5  1  0  0  0  0
  5  6  1  0  0  0  0
  6  7  1  0  0  0  0
  7  8  1  0  0  0  0
  8  9  1  0  0  0  0
  9 10  2  0  0  0  0
  9 11  1  0  0  0  0
 11 12  1  0  0  0  0
 11 20  1  0  0  0  0
 12 13  1  0  0  0  0
 13 14  1  0  0  0  0
 13 19  2  0  0  0  0
 14 15  1  0  0  0  0
 15 16  1  0  0  0  0
 16 17  1  0  0  0  0
 17 18  1  0  0  0  0
 20 21  1  0  0  0  0
 21 22  1  0  0  0  0
 22 23  1  0  0  0  0
 23 24  1  0  0  0  0
 24 25  1  0  0  0  0
 25 26  1  0  0  0  0
 25 31  2  0  0  0  0
 26 27  1  0  0  0  0
 27 28  1  0  0  0  0
 28 29  1  0  0  0  0
 29 30  1  0  0  0  0
M  END
>  <Index>
824

>  <ID>
HT1606

>  <class>
0

>  <apol>
76.821716

>  <ast_fraglike>
0

>  <ast_fraglike_ext>
0

>  <ast_violation>
3

>  <ast_violation_ext>
5

>  <a_acc>
8

>  <a_acid>
0

>  <a_aro>
0

>  <a_base>
0

>  <a_count>
74

>  <a_don>
5

>  <a_donacc>
13

>  <a_heavy>
34

>  <a_hyd>
17

>  <a_IC>
122.20969

>  <a_ICM>
1.6514823

>  <a_nB>
0

>  <a_nBr>
0

>  <a_nC>
20

>  <a_nCl>
0

>  <a_nF>
0

>  <a_nH>
40

>  <a_nI>
0

>  <a_nN>
3

>  <a_nO>
10

>  <a_nP>
1

>  <a_nS>
0

>  <balabanJ>
4.2761736

>  <BCUT_PEOE_0>
-2.6736083

>  <BCUT_PEOE_1>
-0.35240594

>  <BCUT_PEOE_2>
0.27437133

>  <BCUT_PEOE_3>
2.6517968

>  <BCUT_SLOGP_0>
-2.7903447

>  <BCUT_SLOGP_1>
-0.35473126

>  <BCUT_SLOGP_2>
0.3069959

>  <BCUT_SLOGP_3>
2.7089169

>  <BCUT_SMR_0>
-2.4211936

>  <BCUT_SMR_1>
-0.15198618

>  <BCUT_SMR_2>
0.35785478

>  <BCUT_SMR_3>
2.9000607

>  <bpol>
66.600281

>  <b_1rotN>
20

>  <b_1rotR>
0.60606062

>  <b_ar>
0

>  <b_count>
73

>  <b_double>
3

>  <b_heavy>
33

>  <b_max1len>
10

>  <b_rotN>
25

>  <b_rotR>
0.75757575

>  <b_single>
70

>  <b_triple>
0

>  <chi0>
25.658644

>  <chi0v>
21.232828

>  <chi0v_C>
14.269738

>  <chi0_C>
14.501789

>  <chi1>
16.190889

>  <chi1v>
13.260284

>  <chi1v_C>
5.1969233

>  <chi1_C>
5.2415814

>  <chiral>
2

>  <chiral_u>
2

>  <density>
0.78676629

>  <diameter>
21

>  <FCharge>
0

>  <GCUT_PEOE_0>
-0.84106982

>  <GCUT_PEOE_1>
-0.3933458

>  <GCUT_PEOE_2>
-0.0031424207

>  <GCUT_PEOE_3>
2.7247925

>  <GCUT_SLOGP_0>
-1.293642

>  <GCUT_SLOGP_1>
-0.29274946

>  <GCUT_SLOGP_2>
-0.021730594

>  <GCUT_SLOGP_3>
2.7099214

>  <GCUT_SMR_0>
-0.53096825

>  <GCUT_SMR_1>
-0.17513117

>  <GCUT_SMR_2>
0.054611735

>  <GCUT_SMR_3>
2.9460914

>  <Kier1>
34

>  <Kier2>
22.216963

>  <Kier3>
23.187729

>  <KierA1>
31.418127

>  <KierA2>
20.479073

>  <KierA3>
21.336744

>  <KierFlex>
18.923944

>  <lip_acc>
13

>  <lip_don>
4

>  <lip_druglike>
0

>  <lip_violation>
2

>  <logP(o/w)>
-0.67251998

>  <logS>
-1.43345

>  <mr>
12.842516

>  <mutagenic>
0

>  <nmol>
1

>  <opr_brigid>
0

>  <opr_leadlike>
0

>  <opr_nring>
0

>  <opr_nrot>
20

>  <opr_violation>
3

>  <PC+>
0

>  <PC->
0

>  <PEOE_PC+>
4.2326307

>  <PEOE_PC->
-4.2326307

>  <PEOE_RPC+>
0.085371859

>  <PEOE_RPC->
0.089942358

>  <PEOE_VSA+0>
168.1082

>  <PEOE_VSA+1>
156.85031

>  <PEOE_VSA+2>
13.470133

>  <PEOE_VSA+3>
25.857038

>  <PEOE_VSA+4>
12.949531

>  <PEOE_VSA+5>
13.666999

>  <PEOE_VSA+6>
38.399021

>  <PEOE_VSA-0>
43.506565

>  <PEOE_VSA-1>
8.701313

>  <PEOE_VSA-2>
0

>  <PEOE_VSA-3>
0

>  <PEOE_VSA-4>
42.86298

>  <PEOE_VSA-5>
18.574432

>  <PEOE_VSA-6>
20.013912

>  <PEOE_VSA_FHYD>
0.73982739

>  <PEOE_VSA_FNEG>
0.23742202

>  <PEOE_VSA_FPNEG>
0.14468393

>  <PEOE_VSA_FPOL>
0.26017258

>  <PEOE_VSA_FPOS>
0.76257801

>  <PEOE_VSA_FPPOS>
0.11548866

>  <PEOE_VSA_HYD>
416.49356

>  <PEOE_VSA_NEG>
133.65921

>  <PEOE_VSA_PNEG>
81.451324

>  <PEOE_VSA_POL>
146.46687

>  <PEOE_VSA_POS>
429.30124

>  <PEOE_VSA_PPOS>
65.015549

>  <petitjean>
0.47619048

>  <petitjeanSC>
0.90909094

>  <Q_PC+>
0

>  <Q_PC->
0

>  <Q_RPC+>
0

>  <Q_RPC->
0

>  <Q_VSA_FHYD>
1

>  <Q_VSA_FNEG>
0

>  <Q_VSA_FPNEG>
0

>  <Q_VSA_FPOL>
0

>  <Q_VSA_FPOS>
1

>  <Q_VSA_FPPOS>
0

>  <Q_VSA_HYD>
562.96045

>  <Q_VSA_NEG>
0

>  <Q_VSA_PNEG>
0

>  <Q_VSA_POL>
0

>  <Q_VSA_POS>
562.96045

>  <Q_VSA_PPOS>
0

>  <radius>
11

>  <reactive>
0

>  <rings>
0

>  <RPC+>
0

>  <RPC->
0

>  <rsynth>
1

>  <SlogP>
0.3186

>  <SlogP_VSA0>
97.772987

>  <SlogP_VSA1>
19.892057

>  <SlogP_VSA2>
78.765366

>  <SlogP_VSA3>
141.51045

>  <SlogP_VSA4>
0

>  <SlogP_VSA5>
101.26459

>  <SlogP_VSA6>
0

>  <SlogP_VSA7>
0

>  <SlogP_VSA8>
113.21043

>  <SlogP_VSA9>
62.523903

>  <SMR>
12.31009

>  <SMR_VSA0>
144.94159

>  <SMR_VSA1>
21.306969

>  <SMR_VSA2>
54.032253

>  <SMR_VSA3>
3.9819686

>  <SMR_VSA4>
0

>  <SMR_VSA5>
113.21043

>  <SMR_VSA6>
161.40251

>  <SMR_VSA7>
116.06406

>  <TPSA>
170.75

>  <VAdjEq>
0.31579718

>  <VAdjMa>
6.044394

>  <VDistEq>
4.1789012

>  <VDistMa>
9.8732138

>  <vdw_area>
562.96045

>  <vdw_vol>
652.70337

>  <vsa_acc>
50.374249

>  <vsa_acid>
0

>  <vsa_base>
0

>  <vsa_don>
17.047728

>  <vsa_hyd>
354.68771

>  <vsa_other>
70.023064

>  <vsa_pol>
98.880249

>  <Weight>
513.52496

>  <weinerPath>
4705

>  <weinerPol>
37

>  <zagreb>
144

$$$$