O1[C@@H]2C[C@H](O)[C@]3([C@H]([C@H](OC(=O)c4ccccc4)[C@@]4(O)C[C@H](OC(=O)[C@H](O)[C@H](NC(=O)c5ccccc5)c5ccccc5)C(=C([C@@H](OC(=O)C)C3=O)C4(C)C)C)[C@@]2(OC(=O)C)C1)C
  MOE2013           2D

 62 68  0  0  1  0  0  0  0  0999 V2000
    0.0000    0.0000    0.0000 O   0  0  0  0  0  0  0  0  0  0  0  0
    1.0610   -1.0600    0.0000 C   0  0  2  0  0  0  0  0  0  0  0  0
    1.4490   -2.5090    0.0000 C   0  0  0  0  0  0  0  0  0  0  0  0
    2.8980   -2.8970    0.0000 C   0  0  2  0  0  0  0  0  0  0  0  0
    2.7940   -4.3940    0.0000 O   0  0  0  0  0  0  0  0  0  0  0  0
    3.9560   -1.7610    0.0000 C   0  0  1  0  0  0  0  0  0  0  0  0
    3.5560   -0.4030    0.0000 C   0  0  2  0  0  0  0  0  0  0  0  0
    4.4510    0.8920    0.0000 C   0  0  2  0  0  0  0  0  0  0  0  0
    3.9890    2.3180    0.0000 O   0  0  0  0  0  0  0  0  0  0  0  0
    4.9930    3.4320    0.0000 C   0  0  0  0  0  0  0  0  0  0  0  0
    6.4600    3.1200    0.0000 O   0  0  0  0  0  0  0  0  0  0  0  0
    4.5310    4.8590    0.0000 C   0  0  0  0  0  0  0  0  0  0  0  0
    5.5350    5.9730    0.0000 C   0  0  0  0  0  0  0  0  0  0  0  0
    5.0730    7.4000    0.0000 C   0  0  0  0  0  0  0  0  0  0  0  0
    3.6060    7.7130    0.0000 C   0  0  0  0  0  0  0  0  0  0  0  0
    2.6010    6.5990    0.0000 C   0  0  0  0  0  0  0  0  0  0  0  0
    3.0640    5.1720    0.0000 C   0  0  0  0  0  0  0  0  0  0  0  0
    5.9900    0.3500    0.0000 C   0  0  1  0  0  0  0  0  0  0  0  0
    5.9610    1.8490    0.0000 O   0  0  0  0  0  0  0  0  0  0  0  0
    7.3680    0.8270    0.0000 C   0  0  0  0  0  0  0  0  0  0  0  0
    8.4850   -0.1030    0.0000 C   0  0  2  0  0  0  0  0  0  0  0  0
    9.8930    0.4130    0.0000 O   0  0  0  0  0  0  0  0  0  0  0  0
   10.1510    1.8910    0.0000 C   0  0  0  0  0  0  0  0  0  0  0  0
    9.0000    2.8530    0.0000 O   0  0  0  0  0  0  0  0  0  0  0  0
   11.5590    2.4060    0.0000 C   0  0  2  0  0  0  0  0  0  0  0  0
   11.8170    3.8840    0.0000 O   0  0  0  0  0  0  0  0  0  0  0  0
   12.7100    1.4440    0.0000 C   0  0  2  0  0  0  0  0  0  0  0  0
   12.4530   -0.0330    0.0000 N   0  0  0  0  0  0  0  0  0  0  0  0
   13.6040   -0.9950    0.0000 C   0  0  0  0  0  0  0  0  0  0  0  0
   15.0120   -0.4800    0.0000 O   0  0  0  0  0  0  0  0  0  0  0  0
   13.3460   -2.4730    0.0000 C   0  0  0  0  0  0  0  0  0  0  0  0
   11.9370   -2.9890    0.0000 C   0  0  0  0  0  0  0  0  0  0  0  0
   11.6800   -4.4660    0.0000 C   0  0  0  0  0  0  0  0  0  0  0  0
   12.8310   -5.4280    0.0000 C   0  0  0  0  0  0  0  0  0  0  0  0
   14.2390   -4.9130    0.0000 C   0  0  0  0  0  0  0  0  0  0  0  0
   14.4970   -3.4350    0.0000 C   0  0  0  0  0  0  0  0  0  0  0  0
   14.1190    1.9600    0.0000 C   0  0  0  0  0  0  0  0  0  0  0  0
   14.3770    3.4380    0.0000 C   0  0  0  0  0  0  0  0  0  0  0  0
   15.7850    3.9540    0.0000 C   0  0  0  0  0  0  0  0  0  0  0  0
   16.9360    2.9920    0.0000 C   0  0  0  0  0  0  0  0  0  0  0  0
   16.6780    1.5140    0.0000 C   0  0  0  0  0  0  0  0  0  0  0  0
   15.2700    0.9980    0.0000 C   0  0  0  0  0  0  0  0  0  0  0  0
    8.2320   -1.5340    0.0000 C   0  0  0  0  0  0  0  0  0  0  0  0
    6.8700   -2.0600    0.0000 C   0  0  0  0  0  0  0  0  0  0  0  0
    6.0450   -3.4650    0.0000 C   0  0  1  0  0  0  0  0  0  0  0  0
    6.6120   -4.8540    0.0000 O   0  0  0  0  0  0  0  0  0  0  0  0
    5.6920   -6.0390    0.0000 C   0  0  0  0  0  0  0  0  0  0  0  0
    6.2590   -7.4280    0.0000 O   0  0  0  0  0  0  0  0  0  0  0  0
    4.2060   -5.8360    0.0000 C   0  0  0  0  0  0  0  0  0  0  0  0
    4.5240   -3.0550    0.0000 C   0  0  0  0  0  0  0  0  0  0  0  0
    3.7580   -4.3450    0.0000 O   0  0  0  0  0  0  0  0  0  0  0  0
    5.7610   -1.0990    0.0000 C   0  0  0  0  0  0  0  0  0  0  0  0
    7.2530   -0.9390    0.0000 C   0  0  0  0  0  0  0  0  0  0  0  0
    6.9730   -0.2160    0.0000 C   0  0  0  0  0  0  0  0  0  0  0  0
    9.3910   -2.4870    0.0000 C   0  0  0  0  0  0  0  0  0  0  0  0
    2.1210    0.0000    0.0000 C   0  0  2  0  0  0  0  0  0  0  0  0
    2.8460    1.3140    0.0000 O   0  0  0  0  0  0  0  0  0  0  0  0
    2.0710    2.5980    0.0000 C   0  0  0  0  0  0  0  0  0  0  0  0
    0.5710    2.5690    0.0000 O   0  0  0  0  0  0  0  0  0  0  0  0
    2.7960    3.9110    0.0000 C   0  0  0  0  0  0  0  0  0  0  0  0
    1.0600    1.0610    0.0000 C   0  0  0  0  0  0  0  0  0  0  0  0
    2.5840   -1.1530    0.0000 C   0  0  0  0  0  0  0  0  0  0  0  0
  1 61  1  0  0  0  0
  2  1  1  1  0  0  0
  2  3  1  0  0  0  0
  2 56  1  0  0  0  0
  3  4  1  0  0  0  0
  4  5  1  1  0  0  0
  4  6  1  0  0  0  0
  6 50  1  0  0  0  0
  6 62  1  6  0  0  0
  7  6  1  1  0  0  0
  7  8  1  0  0  0  0
  7 56  1  0  0  0  0
  8  9  1  6  0  0  0
  8 18  1  0  0  0  0
  9 10  1  0  0  0  0
 10 11  2  0  0  0  0
 10 12  1  0  0  0  0
 12 13  1  0  0  0  0
 12 17  2  0  0  0  0
 13 14  2  0  0  0  0
 14 15  1  0  0  0  0
 15 16  2  0  0  0  0
 16 17  1  0  0  0  0
 18 19  1  6  0  0  0
 18 20  1  0  0  0  0
 18 52  1  0  0  0  0
 20 21  1  0  0  0  0
 21 22  1  6  0  0  0
 21 43  1  0  0  0  0
 22 23  1  0  0  0  0
 23 24  2  0  0  0  0
 23 25  1  0  0  0  0
 25 26  1  6  0  0  0
 25 27  1  0  0  0  0
 27 28  1  1  0  0  0
 27 37  1  0  0  0  0
 28 29  1  0  0  0  0
 29 30  2  0  0  0  0
 29 31  1  0  0  0  0
 31 32  1  0  0  0  0
 31 36  2  0  0  0  0
 32 33  2  0  0  0  0
 33 34  1  0  0  0  0
 34 35  2  0  0  0  0
 35 36  1  0  0  0  0
 37 38  1  0  0  0  0
 37 42  2  0  0  0  0
 38 39  2  0  0  0  0
 39 40  1  0  0  0  0
 40 41  2  0  0  0  0
 41 42  1  0  0  0  0
 43 44  2  0  0  0  0
 43 55  1  0  0  0  0
 44 45  1  0  0  0  0
 44 52  1  0  0  0  0
 45 46  1  1  0  0  0
 45 50  1  0  0  0  0
 46 47  1  0  0  0  0
 47 48  2  0  0  0  0
 47 49  1  0  0  0  0
 50 51  2  0  0  0  0
 52 53  1  0  0  0  0
 52 54  1  0  0  0  0
 56 57  1  1  0  0  0
 56 61  1  0  0  0  0
 57 58  1  0  0  0  0
 58 59  2  0  0  0  0
 58 60  1  0  0  0  0
M  END
>  <Index>
809

>  <ID>
HT1580

>  <class>
0

>  <apol>
129.05444

>  <ast_fraglike>
0

>  <ast_fraglike_ext>
0

>  <ast_violation>
4

>  <ast_violation_ext>
6

>  <a_acc>
10

>  <a_acid>
0

>  <a_aro>
18

>  <a_base>
0

>  <a_count>
113

>  <a_don>
4

>  <a_donacc>
14

>  <a_heavy>
62

>  <a_hyd>
41

>  <a_IC>
167.01788

>  <a_ICM>
1.4780344

>  <a_nB>
0

>  <a_nBr>
0

>  <a_nC>
47

>  <a_nCl>
0

>  <a_nF>
0

>  <a_nH>
51

>  <a_nI>
0

>  <a_nN>
1

>  <a_nO>
14

>  <a_nP>
0

>  <a_nS>
0

>  <balabanJ>
1.309388

>  <BCUT_PEOE_0>
-2.9164069

>  <BCUT_PEOE_1>
-0.58429676

>  <BCUT_PEOE_2>
0.62234348

>  <BCUT_PEOE_3>
2.9879768

>  <BCUT_SLOGP_0>
-3.0345902

>  <BCUT_SLOGP_1>
-0.53807992

>  <BCUT_SLOGP_2>
0.66602993

>  <BCUT_SLOGP_3>
2.8867457

>  <BCUT_SMR_0>
-2.7050643

>  <BCUT_SMR_1>
-0.42363659

>  <BCUT_SMR_2>
0.75717449

>  <BCUT_SMR_3>
3.1942425

>  <bpol>
71.741554

>  <b_1rotN>
10

>  <b_1rotR>
0.14705883

>  <b_ar>
18

>  <b_count>
119

>  <b_double>
7

>  <b_heavy>
68

>  <b_max1len>
5

>  <b_rotN>
15

>  <b_rotR>
0.22058824

>  <b_single>
94

>  <b_triple>
0

>  <chi0>
44.940216

>  <chi0v>
35.23275

>  <chi0v_C>
28.900377

>  <chi0_C>
31.697577

>  <chi1>
29.272289

>  <chi1v>
20.472851

>  <chi1v_C>
15.71732

>  <chi1_C>
19.217451

>  <chiral>
11

>  <chiral_u>
0

>  <density>
0.77067614

>  <diameter>
19

>  <FCharge>
0

>  <GCUT_PEOE_0>
-0.84273571

>  <GCUT_PEOE_1>
-0.40794551

>  <GCUT_PEOE_2>
0.077839978

>  <GCUT_PEOE_3>
3.6260414

>  <GCUT_SLOGP_0>
-1.1309556

>  <GCUT_SLOGP_1>
-0.32787037

>  <GCUT_SLOGP_2>
0.13287891

>  <GCUT_SLOGP_3>
3.590471

>  <GCUT_SMR_0>
-0.57558692

>  <GCUT_SMR_1>
-0.21605732

>  <GCUT_SMR_2>
0.18592373

>  <GCUT_SMR_3>
3.8420043

>  <Kier1>
49.8923

>  <Kier2>
19.918367

>  <Kier3>
9.3153811

>  <KierA1>
39.549507

>  <KierA2>
15.726107

>  <KierA3>
7.3345623

>  <KierFlex>
10.03161

>  <lip_acc>
15

>  <lip_don>
4

>  <lip_druglike>
0

>  <lip_violation>
2

>  <logP(o/w)>
4.335

>  <logS>
-8.43188

>  <mr>
22.303417

>  <mutagenic>
0

>  <nmol>
1

>  <opr_brigid>
38

>  <opr_leadlike>
0

>  <opr_nring>
7

>  <opr_nrot>
10

>  <opr_violation>
3

>  <PC+>
0

>  <PC->
0

>  <PEOE_PC+>
5.8403039

>  <PEOE_PC->
-5.8403039

>  <PEOE_RPC+>
0.050367586

>  <PEOE_RPC->
0.066901647

>  <PEOE_VSA+0>
157.41895

>  <PEOE_VSA+1>
135.1813

>  <PEOE_VSA+2>
9.8098574

>  <PEOE_VSA+3>
21.982462

>  <PEOE_VSA+4>
30.972517

>  <PEOE_VSA+5>
71.783531

>  <PEOE_VSA+6>
0

>  <PEOE_VSA-0>
93.140587

>  <PEOE_VSA-1>
172.2993

>  <PEOE_VSA-2>
0

>  <PEOE_VSA-3>
0

>  <PEOE_VSA-4>
0

>  <PEOE_VSA-5>
83.905281

>  <PEOE_VSA-6>
33.454536

>  <PEOE_VSA_FHYD>
0.72823471

>  <PEOE_VSA_FNEG>
0.47262239

>  <PEOE_VSA_FPNEG>
0.14489791

>  <PEOE_VSA_FPOL>
0.27176532

>  <PEOE_VSA_FPOS>
0.52737761

>  <PEOE_VSA_FPPOS>
0.12686741

>  <PEOE_VSA_HYD>
589.83246

>  <PEOE_VSA_NEG>
382.79971

>  <PEOE_VSA_PNEG>
117.35982

>  <PEOE_VSA_POL>
220.11586

>  <PEOE_VSA_POS>
427.14862

>  <PEOE_VSA_PPOS>
102.75604

>  <petitjean>
0.47368422

>  <petitjeanSC>
0.89999998

>  <Q_PC+>
0

>  <Q_PC->
0

>  <Q_RPC+>
0

>  <Q_RPC->
0

>  <Q_VSA_FHYD>
1

>  <Q_VSA_FNEG>
0

>  <Q_VSA_FPNEG>
0

>  <Q_VSA_FPOL>
0

>  <Q_VSA_FPOS>
1

>  <Q_VSA_FPPOS>
0

>  <Q_VSA_HYD>
809.9483

>  <Q_VSA_NEG>
0

>  <Q_VSA_PNEG>
0

>  <Q_VSA_POL>
0

>  <Q_VSA_POS>
809.9483

>  <Q_VSA_PPOS>
0

>  <radius>
10

>  <reactive>
1

>  <rings>
7

>  <RPC+>
0

>  <RPC->
0

>  <rsynth>
0.54838711

>  <SlogP>
3.8311999

>  <SlogP_VSA0>
94.166428

>  <SlogP_VSA1>
41.928249

>  <SlogP_VSA2>
189.26019

>  <SlogP_VSA3>
20.926258

>  <SlogP_VSA4>
61.691952

>  <SlogP_VSA5>
6.37115

>  <SlogP_VSA6>
0

>  <SlogP_VSA7>
264.64777

>  <SlogP_VSA8>
41.718781

>  <SlogP_VSA9>
199.95609

>  <SMR>
21.780109

>  <SMR_VSA0>
198.17274

>  <SMR_VSA1>
76.155678

>  <SMR_VSA2>
22.421547

>  <SMR_VSA3>
58.721741

>  <SMR_VSA4>
0

>  <SMR_VSA5>
302.38458

>  <SMR_VSA6>
62.854511

>  <SMR_VSA7>
199.95609

>  <TPSA>
221.28999

>  <VAdjEq>
0.2206921

>  <VAdjMa>
7.0874629

>  <VDistEq>
3.9654253

>  <VDistMa>
11.68011

>  <vdw_area>
809.9483

>  <vdw_vol>
1108.0115

>  <vsa_acc>
83.905281

>  <vsa_acid>
0

>  <vsa_base>
0

>  <vsa_don>
5.6825762

>  <vsa_hyd>
537.95551

>  <vsa_other>
90.257072

>  <vsa_pol>
130.28862

>  <Weight>
853.91797

>  <weinerPath>
14767

>  <weinerPol>
129

>  <zagreb>
346

$$$$