O1c2c(ccc(NC(=O)c3ccc(OCCCCc4ccccc4)cc3)c2)C(=O)C=C1c1nn[nH]n1
  MOE2013           2D

 36 40  0  0  0  0  0  0  0  0999 V2000
    0.0000    0.0000    0.0000 O   0  0  0  0  0  0  0  0  0  0  0  0
    1.3010    0.7460    0.0000 C   0  0  0  0  0  0  0  0  0  0  0  0
    1.3050    2.2460    0.0000 C   0  0  0  0  0  0  0  0  0  0  0  0
    2.6060    2.9930    0.0000 C   0  0  0  0  0  0  0  0  0  0  0  0
    3.9030    2.2390    0.0000 C   0  0  0  0  0  0  0  0  0  0  0  0
    3.8990    0.7390    0.0000 C   0  0  0  0  0  0  0  0  0  0  0  0
    5.1960   -0.0140    0.0000 N   0  0  0  0  0  0  0  0  0  0  0  0
    6.4970    0.7320    0.0000 C   0  0  0  0  0  0  0  0  0  0  0  0
    6.5010    2.2320    0.0000 O   0  0  0  0  0  0  0  0  0  0  0  0
    7.7940   -0.0220    0.0000 C   0  0  0  0  0  0  0  0  0  0  0  0
    9.0950    0.7250    0.0000 C   0  0  0  0  0  0  0  0  0  0  0  0
   10.3920   -0.0290    0.0000 C   0  0  0  0  0  0  0  0  0  0  0  0
   10.3880   -1.5290    0.0000 C   0  0  0  0  0  0  0  0  0  0  0  0
   11.6850   -2.2820    0.0000 O   0  0  0  0  0  0  0  0  0  0  0  0
   12.9860   -1.5360    0.0000 C   0  0  0  0  0  0  0  0  0  0  0  0
   14.2830   -2.2900    0.0000 C   0  0  0  0  0  0  0  0  0  0  0  0
   15.5840   -1.5430    0.0000 C   0  0  0  0  0  0  0  0  0  0  0  0
   16.8810   -2.2970    0.0000 C   0  0  0  0  0  0  0  0  0  0  0  0
   18.1820   -1.5510    0.0000 C   0  0  0  0  0  0  0  0  0  0  0  0
   18.1860   -0.0510    0.0000 C   0  0  0  0  0  0  0  0  0  0  0  0
   19.4880    0.6960    0.0000 C   0  0  0  0  0  0  0  0  0  0  0  0
   20.7850   -0.0580    0.0000 C   0  0  0  0  0  0  0  0  0  0  0  0
   20.7800   -1.5580    0.0000 C   0  0  0  0  0  0  0  0  0  0  0  0
   19.4790   -2.3040    0.0000 C   0  0  0  0  0  0  0  0  0  0  0  0
    9.0870   -2.2750    0.0000 C   0  0  0  0  0  0  0  0  0  0  0  0
    7.7900   -1.5220    0.0000 C   0  0  0  0  0  0  0  0  0  0  0  0
    2.5980   -0.0070    0.0000 C   0  0  0  0  0  0  0  0  0  0  0  0
    0.0080    3.0000    0.0000 C   0  0  0  0  0  0  0  0  0  0  0  0
    0.0120    4.5000    0.0000 O   0  0  0  0  0  0  0  0  0  0  0  0
   -1.2930    2.2540    0.0000 C   0  0  0  0  0  0  0  0  0  0  0  0
   -1.2970    0.7540    0.0000 C   0  0  0  0  0  0  0  0  0  0  0  0
   -2.5980    0.0070    0.0000 C   0  0  0  0  0  0  0  0  0  0  0  0
   -2.7590   -1.4840    0.0000 N   0  0  0  0  0  0  0  0  0  0  0  0
   -4.2270   -1.7920    0.0000 N   0  0  0  0  0  0  0  0  0  0  0  0
   -4.9730   -0.4910    0.0000 N   0  0  0  0  0  0  0  0  0  0  0  0
   -3.9670    0.6210    0.0000 N   0  0  0  0  0  0  0  0  0  0  0  0
  1  2  1  0  0  0  0
  1 31  1  0  0  0  0
  2  3  1  0  0  0  0
  2 27  2  0  0  0  0
  3  4  2  0  0  0  0
  3 28  1  0  0  0  0
  4  5  1  0  0  0  0
  5  6  2  0  0  0  0
  6  7  1  0  0  0  0
  6 27  1  0  0  0  0
  7  8  1  0  0  0  0
  8  9  2  0  0  0  0
  8 10  1  0  0  0  0
 10 11  1  0  0  0  0
 10 26  2  0  0  0  0
 11 12  2  0  0  0  0
 12 13  1  0  0  0  0
 13 14  1  0  0  0  0
 13 25  2  0  0  0  0
 14 15  1  0  0  0  0
 15 16  1  0  0  0  0
 16 17  1  0  0  0  0
 17 18  1  0  0  0  0
 18 19  1  0  0  0  0
 19 20  1  0  0  0  0
 19 24  2  0  0  0  0
 20 21  2  0  0  0  0
 21 22  1  0  0  0  0
 22 23  2  0  0  0  0
 23 24  1  0  0  0  0
 25 26  1  0  0  0  0
 28 29  2  0  0  0  0
 28 30  1  0  0  0  0
 30 31  2  0  0  0  0
 31 32  1  0  0  0  0
 32 33  1  0  0  0  0
 32 36  2  0  0  0  0
 33 34  2  0  0  0  0
 34 35  1  0  0  0  0
 35 36  1  0  0  0  0
M  END
>  <Index>
887

>  <ID>
HT1722

>  <class>
0

>  <apol>
71.56424

>  <ast_fraglike>
0

>  <ast_fraglike_ext>
0

>  <ast_violation>
3

>  <ast_violation_ext>
5

>  <a_acc>
7

>  <a_acid>
0

>  <a_aro>
23

>  <a_base>
0

>  <a_count>
59

>  <a_don>
3

>  <a_donacc>
10

>  <a_heavy>
36

>  <a_hyd>
24

>  <a_IC>
95.042412

>  <a_ICM>
1.6108884

>  <a_nB>
0

>  <a_nBr>
0

>  <a_nC>
27

>  <a_nCl>
0

>  <a_nF>
0

>  <a_nH>
23

>  <a_nI>
0

>  <a_nN>
5

>  <a_nO>
4

>  <a_nP>
0

>  <a_nS>
0

>  <balabanJ>
0.96940058

>  <BCUT_PEOE_0>
-2.5900903

>  <BCUT_PEOE_1>
-0.64670706

>  <BCUT_PEOE_2>
0.68969542

>  <BCUT_PEOE_3>
2.5515995

>  <BCUT_SLOGP_0>
-2.5318875

>  <BCUT_SLOGP_1>
-0.53807992

>  <BCUT_SLOGP_2>
0.77108699

>  <BCUT_SLOGP_3>
2.6381762

>  <BCUT_SMR_0>
-2.3446124

>  <BCUT_SMR_1>
-0.48492947

>  <BCUT_SMR_2>
0.85431087

>  <BCUT_SMR_3>
2.7988529

>  <bpol>
32.211761

>  <b_1rotN>
9

>  <b_1rotR>
0.22499999

>  <b_ar>
23

>  <b_count>
63

>  <b_double>
3

>  <b_heavy>
40

>  <b_max1len>
5

>  <b_rotN>
10

>  <b_rotR>
0.25

>  <b_single>
37

>  <b_triple>
0

>  <chi0>
24.744066

>  <chi0v>
19.308615

>  <chi0v_C>
15.333981

>  <chi0_C>
17.794317

>  <chi1>
17.653

>  <chi1v>
11.554711

>  <chi1v_C>
8.6509886

>  <chi1_C>
11.640561

>  <chiral>
0

>  <chiral_u>
0

>  <density>
0.76060754

>  <diameter>
22

>  <FCharge>
0

>  <GCUT_PEOE_0>
-0.80848038

>  <GCUT_PEOE_1>
-0.44639039

>  <GCUT_PEOE_2>
0.082002454

>  <GCUT_PEOE_3>
2.569351

>  <GCUT_SLOGP_0>
-0.99309987

>  <GCUT_SLOGP_1>
-0.34602678

>  <GCUT_SLOGP_2>
0.16445385

>  <GCUT_SLOGP_3>
2.6782753

>  <GCUT_SMR_0>
-0.52640212

>  <GCUT_SMR_1>
-0.2212408

>  <GCUT_SMR_2>
0.22090459

>  <GCUT_SMR_3>
2.8521025

>  <Kier1>
27.5625

>  <Kier2>
13.875172

>  <Kier3>
7.785306

>  <KierA1>
18.890587

>  <KierA2>
9.3985395

>  <KierA3>
5.2301383

>  <KierFlex>
4.931776

>  <lip_acc>
9

>  <lip_don>
2

>  <lip_druglike>
1

>  <lip_violation>
0

>  <logP(o/w)>
4.6469998

>  <logS>
-6.8976202

>  <mr>
13.5187

>  <mutagenic>
0

>  <nmol>
1

>  <opr_brigid>
28

>  <opr_leadlike>
0

>  <opr_nring>
5

>  <opr_nrot>
9

>  <opr_violation>
3

>  <PC+>
0

>  <PC->
0

>  <PEOE_PC+>
2.6864724

>  <PEOE_PC->
-2.6864724

>  <PEOE_RPC+>
0.0954125

>  <PEOE_RPC->
0.12830675

>  <PEOE_VSA+0>
46.75531

>  <PEOE_VSA+1>
98.057663

>  <PEOE_VSA+2>
8.458519

>  <PEOE_VSA+3>
17.077532

>  <PEOE_VSA+4>
19.809576

>  <PEOE_VSA+5>
12.949531

>  <PEOE_VSA+6>
0

>  <PEOE_VSA-0>
127.25631

>  <PEOE_VSA-1>
61.274521

>  <PEOE_VSA-2>
18.842079

>  <PEOE_VSA-3>
7.6138182

>  <PEOE_VSA-4>
0

>  <PEOE_VSA-5>
27.133842

>  <PEOE_VSA-6>
5.1444035

>  <PEOE_VSA_FHYD>
0.85559231

>  <PEOE_VSA_FNEG>
0.5490225

>  <PEOE_VSA_FPNEG>
0.071670011

>  <PEOE_VSA_FPOL>
0.14440772

>  <PEOE_VSA_FPOS>
0.45097747

>  <PEOE_VSA_FPPOS>
0.072737709

>  <PEOE_VSA_HYD>
385.33575

>  <PEOE_VSA_NEG>
247.26497

>  <PEOE_VSA_PNEG>
32.278244

>  <PEOE_VSA_POL>
65.037354

>  <PEOE_VSA_POS>
203.10812

>  <PEOE_VSA_PPOS>
32.759106

>  <petitjean>
0.5

>  <petitjeanSC>
1

>  <Q_PC+>
0

>  <Q_PC->
0

>  <Q_RPC+>
0

>  <Q_RPC->
0

>  <Q_VSA_FHYD>
1

>  <Q_VSA_FNEG>
0

>  <Q_VSA_FPNEG>
0

>  <Q_VSA_FPOL>
0

>  <Q_VSA_FPOS>
1

>  <Q_VSA_FPPOS>
0

>  <Q_VSA_HYD>
450.37311

>  <Q_VSA_NEG>
0

>  <Q_VSA_PNEG>
0

>  <Q_VSA_POL>
0

>  <Q_VSA_POS>
450.37311

>  <Q_VSA_PPOS>
0

>  <radius>
11

>  <reactive>
0

>  <rings>
5

>  <RPC+>
0

>  <RPC->
0

>  <rsynth>
1

>  <SlogP>
4.4698701

>  <SlogP_VSA0>
21.999775

>  <SlogP_VSA1>
78.823647

>  <SlogP_VSA2>
16.540485

>  <SlogP_VSA3>
20.926258

>  <SlogP_VSA4>
59.609077

>  <SlogP_VSA5>
18.868406

>  <SlogP_VSA6>
0

>  <SlogP_VSA7>
234.60483

>  <SlogP_VSA8>
37.736813

>  <SlogP_VSA9>
13.243604

>  <SMR>
13.28254

>  <SMR_VSA0>
47.724434

>  <SMR_VSA1>
71.86628

>  <SMR_VSA2>
16.540485

>  <SMR_VSA3>
22.371502

>  <SMR_VSA4>
26.010927

>  <SMR_VSA5>
285.96661

>  <SMR_VSA6>
31.872654

>  <SMR_VSA7>
0

>  <TPSA>
119.09

>  <VAdjEq>
0.33426812

>  <VAdjMa>
6.321928

>  <VDistEq>
4.2451801

>  <VDistMa>
9.9848137

>  <vdw_area>
450.37311

>  <vdw_vol>
633.06238

>  <vsa_acc>
52.21814

>  <vsa_acid>
0

>  <vsa_base>
0

>  <vsa_don>
5.6825762

>  <vsa_hyd>
313.69513

>  <vsa_other>
35.102367

>  <vsa_pol>
80.481262

>  <Weight>
481.51199

>  <weinerPath>
5243

>  <weinerPol>
53

>  <zagreb>
188

$$$$