P(O)(O)(=O)C(P(O)(O)=O)(O)CCN
  MOE2013           2D

 13 12  0  0  0  0  0  0  0  0999 V2000
    0.0000    0.0000    0.0000 P   0  0  0  0  0  0  0  0  0  0  0  0
   -1.2940   -0.7590    0.0000 O   0  0  0  0  0  0  0  0  0  0  0  0
   -0.7590    1.2940    0.0000 O   0  0  0  0  0  0  0  0  0  0  0  0
    1.2940    0.7590    0.0000 O   0  0  0  0  0  0  0  0  0  0  0  0
    0.7590   -1.2940    0.0000 C   0  0  0  0  0  0  0  0  0  0  0  0
    1.5190   -2.5870    0.0000 P   0  0  0  0  0  0  0  0  0  0  0  0
    2.8120   -1.8280    0.0000 O   0  0  0  0  0  0  0  0  0  0  0  0
    2.2780   -3.8810    0.0000 O   0  0  0  0  0  0  0  0  0  0  0  0
    0.2250   -3.3470    0.0000 O   0  0  0  0  0  0  0  0  0  0  0  0
    2.0530   -0.5340    0.0000 O   0  0  0  0  0  0  0  0  0  0  0  0
   -0.5340   -2.0530    0.0000 C   0  0  0  0  0  0  0  0  0  0  0  0
   -1.8390   -1.3130    0.0000 C   0  0  0  0  0  0  0  0  0  0  0  0
   -3.1320   -2.0720    0.0000 N   0  0  0  0  0  0  0  0  0  0  0  0
  1  2  1  0  0  0  0
  1  3  1  0  0  0  0
  1  4  2  0  0  0  0
  1  5  1  0  0  0  0
  5  6  1  0  0  0  0
  5 10  1  0  0  0  0
  5 11  1  0  0  0  0
  6  7  1  0  0  0  0
  6  8  1  0  0  0  0
  6  9  2  0  0  0  0
 11 12  1  0  0  0  0
 12 13  1  0  0  0  0
M  END
>  <Index>
811

>  <ID>
HT1584

>  <class>
0

>  <apol>
26.588722

>  <ast_fraglike>
0

>  <ast_fraglike_ext>
0

>  <ast_violation>
2

>  <ast_violation_ext>
4

>  <a_acc>
8

>  <a_acid>
0

>  <a_aro>
0

>  <a_base>
0

>  <a_count>
24

>  <a_don>
8

>  <a_donacc>
16

>  <a_heavy>
13

>  <a_hyd>
3

>  <a_IC>
45.578979

>  <a_ICM>
1.8991241

>  <a_nB>
0

>  <a_nBr>
0

>  <a_nC>
3

>  <a_nCl>
0

>  <a_nF>
0

>  <a_nH>
11

>  <a_nI>
0

>  <a_nN>
1

>  <a_nO>
7

>  <a_nP>
2

>  <a_nS>
0

>  <balabanJ>
4.9638295

>  <BCUT_PEOE_0>
-2.5666595

>  <BCUT_PEOE_1>
-0.71341592

>  <BCUT_PEOE_2>
0.74804777

>  <BCUT_PEOE_3>
2.8249011

>  <BCUT_SLOGP_0>
-2.7274232

>  <BCUT_SLOGP_1>
-1.2320138

>  <BCUT_SLOGP_2>
0.48919192

>  <BCUT_SLOGP_3>
2.8316555

>  <BCUT_SMR_0>
-2.3732302

>  <BCUT_SMR_1>
-0.56543666

>  <BCUT_SMR_2>
0.85472929

>  <BCUT_SMR_3>
3.0101607

>  <bpol>
28.241278

>  <b_1rotN>
4

>  <b_1rotR>
0.33333334

>  <b_ar>
0

>  <b_count>
23

>  <b_double>
0

>  <b_heavy>
12

>  <b_max1len>
7

>  <b_rotN>
4

>  <b_rotR>
0.33333334

>  <b_single>
23

>  <b_triple>
0

>  <chi0>
10.914213

>  <chi0v>
8.2274103

>  <chi0v_C>
1.9142135

>  <chi0_C>
1.9142135

>  <chi1>
5.5606604

>  <chi1v>
6.3224945

>  <chi1v_C>
0.85355341

>  <chi1_C>
0.85355341

>  <chiral>
0

>  <chiral_u>
0

>  <density>
1.0859721

>  <diameter>
5

>  <FCharge>
0

>  <GCUT_PEOE_0>
-0.83478898

>  <GCUT_PEOE_1>
-0.44612569

>  <GCUT_PEOE_2>
0.19745021

>  <GCUT_PEOE_3>
2.4316034

>  <GCUT_SLOGP_0>
-1.3633565

>  <GCUT_SLOGP_1>
-0.71736389

>  <GCUT_SLOGP_2>
0.0067596338

>  <GCUT_SLOGP_3>
2.4231532

>  <GCUT_SMR_0>
-0.51400405

>  <GCUT_SMR_1>
-0.25294745

>  <GCUT_SMR_2>
0.28115782

>  <GCUT_SMR_3>
2.6287682

>  <Kier1>
13

>  <Kier2>
3.6300001

>  <Kier3>
2.4793389

>  <KierA1>
16.759315

>  <KierA2>
4.7813101

>  <KierA3>
3.3247621

>  <KierFlex>
6.16396

>  <lip_acc>
8

>  <lip_don>
7

>  <lip_druglike>
1

>  <lip_violation>
1

>  <logP(o/w)>
-3.8670001

>  <logS>
1.94599

>  <mr>
4.513412

>  <mutagenic>
0

>  <nmol>
1

>  <opr_brigid>
0

>  <opr_leadlike>
0

>  <opr_nring>
0

>  <opr_nrot>
4

>  <opr_violation>
2

>  <PC+>
0

>  <PC->
0

>  <PEOE_PC+>
2.3847799

>  <PEOE_PC->
-2.3847799

>  <PEOE_RPC+>
0.14968848

>  <PEOE_RPC->
0.13994893

>  <PEOE_VSA+0>
30.253868

>  <PEOE_VSA+1>
8.701313

>  <PEOE_VSA+2>
58.534718

>  <PEOE_VSA+3>
0

>  <PEOE_VSA+4>
10.324173

>  <PEOE_VSA+5>
0

>  <PEOE_VSA+6>
27.333998

>  <PEOE_VSA-0>
0

>  <PEOE_VSA-1>
0

>  <PEOE_VSA-2>
0

>  <PEOE_VSA-3>
0

>  <PEOE_VSA-4>
31.458273

>  <PEOE_VSA-5>
0

>  <PEOE_VSA-6>
54.137684

>  <PEOE_VSA_FHYD>
0.44164228

>  <PEOE_VSA_FNEG>
0.38776115

>  <PEOE_VSA_FPNEG>
0.38776115

>  <PEOE_VSA_FPOL>
0.55835772

>  <PEOE_VSA_FPOS>
0.61223882

>  <PEOE_VSA_FPPOS>
0.17059655

>  <PEOE_VSA_HYD>
97.489899

>  <PEOE_VSA_NEG>
85.595955

>  <PEOE_VSA_PNEG>
85.595955

>  <PEOE_VSA_POL>
123.25413

>  <PEOE_VSA_POS>
135.14807

>  <PEOE_VSA_PPOS>
37.658169

>  <petitjean>
0.40000001

>  <petitjeanSC>
0.66666669

>  <Q_PC+>
0

>  <Q_PC->
0

>  <Q_RPC+>
0

>  <Q_RPC->
0

>  <Q_VSA_FHYD>
1

>  <Q_VSA_FNEG>
0

>  <Q_VSA_FPNEG>
0

>  <Q_VSA_FPOL>
0

>  <Q_VSA_FPOS>
1

>  <Q_VSA_FPPOS>
0

>  <Q_VSA_HYD>
220.74402

>  <Q_VSA_NEG>
0

>  <Q_VSA_PNEG>
0

>  <Q_VSA_POL>
0

>  <Q_VSA_POS>
220.74402

>  <Q_VSA_PPOS>
0

>  <radius>
3

>  <reactive>
1

>  <rings>
0

>  <RPC+>
0

>  <RPC->
0

>  <rsynth>
1

>  <SlogP>
-3.8037

>  <SlogP_VSA0>
188.37782

>  <SlogP_VSA1>
0

>  <SlogP_VSA2>
0

>  <SlogP_VSA3>
18.439579

>  <SlogP_VSA4>
0

>  <SlogP_VSA5>
0

>  <SlogP_VSA6>
0

>  <SlogP_VSA7>
0

>  <SlogP_VSA8>
18.868406

>  <SlogP_VSA9>
29.598944

>  <SMR>
4.1336398

>  <SMR_VSA0>
44.867531

>  <SMR_VSA1>
110.6131

>  <SMR_VSA2>
0

>  <SMR_VSA3>
0

>  <SMR_VSA4>
32.897186

>  <SMR_VSA5>
18.868406

>  <SMR_VSA6>
18.439579

>  <SMR_VSA7>
29.598944

>  <TPSA>
161.31

>  <VAdjEq>
0.5894835

>  <VAdjMa>
4.5849624

>  <VDistEq>
2.2067609

>  <VDistMa>
7.1528807

>  <vdw_area>
220.74402

>  <vdw_vol>
216.45953

>  <vsa_acc>
0

>  <vsa_acid>
0

>  <vsa_base>
0

>  <vsa_don>
0

>  <vsa_hyd>
36.108002

>  <vsa_other>
27.333998

>  <vsa_pol>
125.68423

>  <Weight>
235.069

>  <weinerPath>
220

>  <weinerPol>
22

>  <zagreb>
64

$$$$