Oc1cc(ccc1O)C(O)CNCCCCc1ccc(O)cc1
  MOE2013           2D

 23 24  0  0  1  0  0  0  0  0999 V2000
    0.0000    0.0000    0.0000 O   0  0  0  0  0  0  0  0  0  0  0  0
    1.3050    0.7400    0.0000 C   0  0  0  0  0  0  0  0  0  0  0  0
    2.5980   -0.0200    0.0000 C   0  0  0  0  0  0  0  0  0  0  0  0
    3.9030    0.7200    0.0000 C   0  0  0  0  0  0  0  0  0  0  0  0
    3.9140    2.2200    0.0000 C   0  0  0  0  0  0  0  0  0  0  0  0
    2.6210    2.9800    0.0000 C   0  0  0  0  0  0  0  0  0  0  0  0
    1.3160    2.2400    0.0000 C   0  0  0  0  0  0  0  0  0  0  0  0
    0.0230    3.0000    0.0000 O   0  0  0  0  0  0  0  0  0  0  0  0
    5.1960   -0.0400    0.0000 C   0  0  3  0  0  0  0  0  0  0  0  0
    5.1840   -1.5400    0.0000 O   0  0  0  0  0  0  0  0  0  0  0  0
    6.5010    0.7000    0.0000 C   0  0  0  0  0  0  0  0  0  0  0  0
    7.7940   -0.0600    0.0000 N   0  0  0  0  0  0  0  0  0  0  0  0
    9.0990    0.6800    0.0000 C   0  0  0  0  0  0  0  0  0  0  0  0
   10.3920   -0.0800    0.0000 C   0  0  0  0  0  0  0  0  0  0  0  0
   11.6970    0.6600    0.0000 C   0  0  0  0  0  0  0  0  0  0  0  0
   12.9900   -0.1000    0.0000 C   0  0  0  0  0  0  0  0  0  0  0  0
   14.2950    0.6400    0.0000 C   0  0  0  0  0  0  0  0  0  0  0  0
   14.3060    2.1400    0.0000 C   0  0  0  0  0  0  0  0  0  0  0  0
   15.6110    2.8800    0.0000 C   0  0  0  0  0  0  0  0  0  0  0  0
   16.9040    2.1200    0.0000 C   0  0  0  0  0  0  0  0  0  0  0  0
   18.2090    2.8600    0.0000 O   0  0  0  0  0  0  0  0  0  0  0  0
   16.8930    0.6200    0.0000 C   0  0  0  0  0  0  0  0  0  0  0  0
   15.5880   -0.1200    0.0000 C   0  0  0  0  0  0  0  0  0  0  0  0
  1  2  1  0  0  0  0
  2  3  1  0  0  0  0
  2  7  2  0  0  0  0
  3  4  2  0  0  0  0
  4  5  1  0  0  0  0
  4  9  1  0  0  0  0
  5  6  2  0  0  0  0
  6  7  1  0  0  0  0
  7  8  1  0  0  0  0
  9 10  1  0  0  0  0
  9 11  1  0  0  0  0
 11 12  1  0  0  0  0
 12 13  1  0  0  0  0
 13 14  1  0  0  0  0
 14 15  1  0  0  0  0
 15 16  1  0  0  0  0
 16 17  1  0  0  0  0
 17 18  1  0  0  0  0
 17 23  2  0  0  0  0
 18 19  2  0  0  0  0
 19 20  1  0  0  0  0
 20 21  1  0  0  0  0
 20 22  2  0  0  0  0
 22 23  1  0  0  0  0
M  END
>  <Index>
88

>  <ID>
HT0177

>  <class>
0

>  <apol>
51.324238

>  <ast_fraglike>
0

>  <ast_fraglike_ext>
0

>  <ast_violation>
3

>  <ast_violation_ext>
4

>  <a_acc>
5

>  <a_acid>
0

>  <a_aro>
12

>  <a_base>
0

>  <a_count>
46

>  <a_don>
5

>  <a_donacc>
10

>  <a_heavy>
23

>  <a_hyd>
18

>  <a_IC>
66.983276

>  <a_ICM>
1.4561582

>  <a_nB>
0

>  <a_nBr>
0

>  <a_nC>
18

>  <a_nCl>
0

>  <a_nF>
0

>  <a_nH>
23

>  <a_nI>
0

>  <a_nN>
1

>  <a_nO>
4

>  <a_nP>
0

>  <a_nS>
0

>  <balabanJ>
1.4722016

>  <BCUT_PEOE_0>
-2.6532457

>  <BCUT_PEOE_1>
-0.67378199

>  <BCUT_PEOE_2>
0.71655345

>  <BCUT_PEOE_3>
2.5850487

>  <BCUT_SLOGP_0>
-2.7285099

>  <BCUT_SLOGP_1>
-0.6587503

>  <BCUT_SLOGP_2>
0.80591482

>  <BCUT_SLOGP_3>
2.6442251

>  <BCUT_SMR_0>
-2.3885915

>  <BCUT_SMR_1>
-0.54204208

>  <BCUT_SMR_2>
0.85431087

>  <BCUT_SMR_3>
2.8460019

>  <bpol>
25.803761

>  <b_1rotN>
8

>  <b_1rotR>
0.33333334

>  <b_ar>
12

>  <b_count>
47

>  <b_double>
0

>  <b_heavy>
24

>  <b_max1len>
9

>  <b_rotN>
8

>  <b_rotR>
0.33333334

>  <b_single>
35

>  <b_triple>
0

>  <chi0>
16.65649

>  <chi0v>
12.943191

>  <chi0v_C>
10.654336

>  <chi0_C>
11.949383

>  <chi1>
11.058551

>  <chi1v>
7.7460041

>  <chi1v_C>
6.1098781

>  <chi1_C>
7.7491498

>  <chiral>
1

>  <chiral_u>
1

>  <density>
0.72002876

>  <diameter>
16

>  <FCharge>
0

>  <GCUT_PEOE_0>
-0.84515804

>  <GCUT_PEOE_1>
-0.42187968

>  <GCUT_PEOE_2>
0.14736681

>  <GCUT_PEOE_3>
2.5629575

>  <GCUT_SLOGP_0>
-1.1526104

>  <GCUT_SLOGP_1>
-0.33173081

>  <GCUT_SLOGP_2>
0.16561298

>  <GCUT_SLOGP_3>
2.6547036

>  <GCUT_SMR_0>
-0.52603883

>  <GCUT_SMR_1>
-0.24952343

>  <GCUT_SMR_2>
0.21775807

>  <GCUT_SMR_3>
2.8143106

>  <Kier1>
19.326389

>  <Kier2>
10.095734

>  <Kier3>
6.7901235

>  <KierA1>
15.551207

>  <KierA2>
8.0380373

>  <KierA3>
5.3628755

>  <KierFlex>
5.434834

>  <lip_acc>
5

>  <lip_don>
5

>  <lip_druglike>
1

>  <lip_violation>
0

>  <logP(o/w)>
2.9849999

>  <logS>
-2.3833499

>  <mr>
8.9471092

>  <mutagenic>
0

>  <nmol>
1

>  <opr_brigid>
12

>  <opr_leadlike>
1

>  <opr_nring>
2

>  <opr_nrot>
8

>  <opr_violation>
0

>  <PC+>
0

>  <PC->
0

>  <PEOE_PC+>
2.2376792

>  <PEOE_PC->
-2.2376792

>  <PEOE_RPC+>
0.097163908

>  <PEOE_RPC->
0.17246199

>  <PEOE_VSA+0>
55.846184

>  <PEOE_VSA+1>
47.486538

>  <PEOE_VSA+2>
25.536053

>  <PEOE_VSA+3>
0

>  <PEOE_VSA+4>
41.296692

>  <PEOE_VSA+5>
0

>  <PEOE_VSA+6>
0

>  <PEOE_VSA-0>
92.732956

>  <PEOE_VSA-1>
36.764713

>  <PEOE_VSA-2>
0

>  <PEOE_VSA-3>
0

>  <PEOE_VSA-4>
0

>  <PEOE_VSA-5>
0

>  <PEOE_VSA-6>
31.207052

>  <PEOE_VSA_FHYD>
0.78086954

>  <PEOE_VSA_FNEG>
0.48570323

>  <PEOE_VSA_FPNEG>
0.094318114

>  <PEOE_VSA_FPOL>
0.21913049

>  <PEOE_VSA_FPOS>
0.51429677

>  <PEOE_VSA_FPPOS>
0.12481236

>  <PEOE_VSA_HYD>
258.36646

>  <PEOE_VSA_NEG>
160.70473

>  <PEOE_VSA_PNEG>
31.207052

>  <PEOE_VSA_POL>
72.503746

>  <PEOE_VSA_POS>
170.16547

>  <PEOE_VSA_PPOS>
41.296692

>  <petitjean>
0.5

>  <petitjeanSC>
1

>  <Q_PC+>
0

>  <Q_PC->
0

>  <Q_RPC+>
0

>  <Q_RPC->
0

>  <Q_VSA_FHYD>
1

>  <Q_VSA_FNEG>
0

>  <Q_VSA_FPNEG>
0

>  <Q_VSA_FPOL>
0

>  <Q_VSA_FPOS>
1

>  <Q_VSA_FPPOS>
0

>  <Q_VSA_HYD>
330.87018

>  <Q_VSA_NEG>
0

>  <Q_VSA_PNEG>
0

>  <Q_VSA_POL>
0

>  <Q_VSA_POS>
330.87018

>  <Q_VSA_PPOS>
0

>  <radius>
8

>  <reactive>
0

>  <rings>
2

>  <RPC+>
0

>  <RPC->
0

>  <rsynth>
1

>  <SlogP>
2.54477

>  <SlogP_VSA0>
119.55166

>  <SlogP_VSA1>
0

>  <SlogP_VSA2>
0

>  <SlogP_VSA3>
36.879158

>  <SlogP_VSA4>
6.37115

>  <SlogP_VSA5>
18.868406

>  <SlogP_VSA6>
0

>  <SlogP_VSA7>
123.50229

>  <SlogP_VSA8>
44.20546

>  <SlogP_VSA9>
15.730285

>  <SMR>
8.8756905

>  <SMR_VSA0>
0

>  <SMR_VSA1>
101.54091

>  <SMR_VSA2>
18.01075

>  <SMR_VSA3>
28.570084

>  <SMR_VSA4>
0

>  <SMR_VSA5>
180.10751

>  <SMR_VSA6>
36.879158

>  <SMR_VSA7>
0

>  <TPSA>
92.949997

>  <VAdjEq>
0.43892586

>  <VAdjMa>
5.5849624

>  <VDistEq>
3.7729805

>  <VDistMa>
8.6816177

>  <vdw_area>
330.87018

>  <vdw_vol>
440.79486

>  <vsa_acc>
0

>  <vsa_acid>
0

>  <vsa_base>
0

>  <vsa_don>
0

>  <vsa_hyd>
236.93512

>  <vsa_other>
0

>  <vsa_pol>
59.95026

>  <Weight>
317.38498

>  <weinerPath>
1574

>  <weinerPol>
30

>  <zagreb>
110

$$$$