o1c(-c2ccccc2)c(O)nc1N
  MOE2013           2D

 13 14  0  0  0  0  0  0  0  0999 V2000
    0.0000    0.0000    0.0000 O   0  0  0  0  0  0  0  0  0  0  0  0
    0.8560    1.2320    0.0000 C   0  0  0  0  0  0  0  0  0  0  0  0
    2.3560    1.2630    0.0000 C   0  0  0  0  0  0  0  0  0  0  0  0
    3.1330   -0.0200    0.0000 C   0  0  0  0  0  0  0  0  0  0  0  0
    4.6320    0.0110    0.0000 C   0  0  0  0  0  0  0  0  0  0  0  0
    5.3550    1.3260    0.0000 C   0  0  0  0  0  0  0  0  0  0  0  0
    4.5780    2.6090    0.0000 C   0  0  0  0  0  0  0  0  0  0  0  0
    3.0780    2.5770    0.0000 C   0  0  0  0  0  0  0  0  0  0  0  0
   -0.0510    2.4270    0.0000 C   0  0  0  0  0  0  0  0  0  0  0  0
    0.3830    3.8620    0.0000 O   0  0  0  0  0  0  0  0  0  0  0  0
   -1.4670    1.9330    0.0000 N   0  0  0  0  0  0  0  0  0  0  0  0
   -1.4360    0.4340    0.0000 C   0  0  0  0  0  0  0  0  0  0  0  0
   -2.6310   -0.4730    0.0000 N   0  0  0  0  0  0  0  0  0  0  0  0
  1  2  1  0  0  0  0
  1 12  1  0  0  0  0
  2  3  1  0  0  0  0
  2  9  2  0  0  0  0
  3  4  1  0  0  0  0
  3  8  2  0  0  0  0
  4  5  2  0  0  0  0
  5  6  1  0  0  0  0
  6  7  2  0  0  0  0
  7  8  1  0  0  0  0
  9 10  1  0  0  0  0
  9 11  1  0  0  0  0
 11 12  2  0  0  0  0
 12 13  1  0  0  0  0
M  END
>  <Index>
826

>  <ID>
HT1609

>  <class>
0

>  <apol>
24.978344

>  <ast_fraglike>
1

>  <ast_fraglike_ext>
1

>  <ast_violation>
0

>  <ast_violation_ext>
0

>  <a_acc>
2

>  <a_acid>
0

>  <a_aro>
11

>  <a_base>
0

>  <a_count>
21

>  <a_don>
2

>  <a_donacc>
4

>  <a_heavy>
13

>  <a_hyd>
6

>  <a_IC>
35.709339

>  <a_ICM>
1.7004448

>  <a_nB>
0

>  <a_nBr>
0

>  <a_nC>
9

>  <a_nCl>
0

>  <a_nF>
0

>  <a_nH>
8

>  <a_nI>
0

>  <a_nN>
2

>  <a_nO>
2

>  <a_nP>
0

>  <a_nS>
0

>  <balabanJ>
1.9358003

>  <BCUT_PEOE_0>
-2.1697884

>  <BCUT_PEOE_1>
-0.71006554

>  <BCUT_PEOE_2>
0.70264429

>  <BCUT_PEOE_3>
2.2117858

>  <BCUT_SLOGP_0>
-2.3019323

>  <BCUT_SLOGP_1>
-0.65088665

>  <BCUT_SLOGP_2>
0.78630418

>  <BCUT_SLOGP_3>
2.3945336

>  <BCUT_SMR_0>
-1.8461431

>  <BCUT_SMR_1>
-0.5390957

>  <BCUT_SMR_2>
0.87347162

>  <BCUT_SMR_3>
2.5161111

>  <bpol>
11.321656

>  <b_1rotN>
1

>  <b_1rotR>
0.071428575

>  <b_ar>
11

>  <b_count>
22

>  <b_double>
0

>  <b_heavy>
14

>  <b_max1len>
2

>  <b_rotN>
1

>  <b_rotR>
0.071428575

>  <b_single>
11

>  <b_triple>
0

>  <chi0>
9.2591486

>  <chi0v>
6.766777

>  <chi0v_C>
4.8867512

>  <chi0_C>
5.8449349

>  <chi1>
6.2708569

>  <chi1v>
3.7784274

>  <chi1v_C>
2.4106836

>  <chi1_C>
3.4831634

>  <chiral>
0

>  <chiral_u>
0

>  <density>
0.78068721

>  <diameter>
7

>  <FCharge>
0

>  <GCUT_PEOE_0>
-0.78558207

>  <GCUT_PEOE_1>
-0.44729832

>  <GCUT_PEOE_2>
0.087531529

>  <GCUT_PEOE_3>
2.137027

>  <GCUT_SLOGP_0>
-1.3347169

>  <GCUT_SLOGP_1>
-0.30147758

>  <GCUT_SLOGP_2>
0.17044558

>  <GCUT_SLOGP_3>
2.3053544

>  <GCUT_SMR_0>
-0.43064049

>  <GCUT_SMR_1>
-0.23668961

>  <GCUT_SMR_2>
0.21811976

>  <GCUT_SMR_3>
2.4289343

>  <Kier1>
9.5510206

>  <Kier2>
4.0221605

>  <Kier3>
2.0833333

>  <KierA1>
6.45082

>  <KierA2>
2.6169817

>  <KierA3>
1.3127087

>  <KierFlex>
1.2985907

>  <lip_acc>
4

>  <lip_don>
3

>  <lip_druglike>
1

>  <lip_violation>
0

>  <logP(o/w)>
1.334

>  <logS>
-2.8665199

>  <mr>
4.8128161

>  <mutagenic>
1

>  <nmol>
1

>  <opr_brigid>
11

>  <opr_leadlike>
1

>  <opr_nring>
2

>  <opr_nrot>
1

>  <opr_violation>
0

>  <PC+>
0

>  <PC->
0

>  <PEOE_PC+>
1.4812218

>  <PEOE_PC->
-1.4812218

>  <PEOE_RPC+>
0.18424736

>  <PEOE_RPC->
0.28647289

>  <PEOE_VSA+0>
2.2085397

>  <PEOE_VSA+1>
21.326929

>  <PEOE_VSA+2>
17.238026

>  <PEOE_VSA+3>
8.458519

>  <PEOE_VSA+4>
23.273705

>  <PEOE_VSA+5>
17.440542

>  <PEOE_VSA+6>
0

>  <PEOE_VSA-0>
0

>  <PEOE_VSA-1>
61.274521

>  <PEOE_VSA-2>
0

>  <PEOE_VSA-3>
5.6825762

>  <PEOE_VSA-4>
0

>  <PEOE_VSA-5>
6.6511192

>  <PEOE_VSA-6>
10.271297

>  <PEOE_VSA_FHYD>
0.66842282

>  <PEOE_VSA_FNEG>
0.48254934

>  <PEOE_VSA_FPNEG>
0.097352743

>  <PEOE_VSA_FPOL>
0.33157718

>  <PEOE_VSA_FPOS>
0.51745069

>  <PEOE_VSA_FPPOS>
0.23422445

>  <PEOE_VSA_HYD>
116.18911

>  <PEOE_VSA_NEG>
83.879509

>  <PEOE_VSA_PNEG>
16.922417

>  <PEOE_VSA_POL>
57.636662

>  <PEOE_VSA_POS>
89.946259

>  <PEOE_VSA_PPOS>
40.714245

>  <petitjean>
0.42857143

>  <petitjeanSC>
0.75

>  <Q_PC+>
0

>  <Q_PC->
0

>  <Q_RPC+>
0

>  <Q_RPC->
0

>  <Q_VSA_FHYD>
1

>  <Q_VSA_FNEG>
0

>  <Q_VSA_FPNEG>
0

>  <Q_VSA_FPOL>
0

>  <Q_VSA_FPOS>
1

>  <Q_VSA_FPPOS>
0

>  <Q_VSA_HYD>
173.82578

>  <Q_VSA_NEG>
0

>  <Q_VSA_PNEG>
0

>  <Q_VSA_POL>
0

>  <Q_VSA_POS>
173.82578

>  <Q_VSA_PPOS>
0

>  <radius>
4

>  <reactive>
0

>  <rings>
2

>  <RPC+>
0

>  <RPC->
0

>  <rsynth>
1

>  <SlogP>
1.6294

>  <SlogP_VSA0>
58.282413

>  <SlogP_VSA1>
16.78553

>  <SlogP_VSA2>
0

>  <SlogP_VSA3>
0

>  <SlogP_VSA4>
0

>  <SlogP_VSA5>
9.5073462

>  <SlogP_VSA6>
0

>  <SlogP_VSA7>
96.850319

>  <SlogP_VSA8>
0

>  <SlogP_VSA9>
9.4057665

>  <SMR>
4.80162

>  <SMR_VSA0>
9.5073462

>  <SMR_VSA1>
42.170757

>  <SMR_VSA2>
0

>  <SMR_VSA3>
4.8146005

>  <SMR_VSA4>
13.225562

>  <SMR_VSA5>
121.11311

>  <SMR_VSA6>
0

>  <SMR_VSA7>
0

>  <TPSA>
72.279999

>  <VAdjEq>
0.64772749

>  <VAdjMa>
4.8073549

>  <VDistEq>
2.5552967

>  <VDistMa>
7.0959506

>  <vdw_area>
173.82578

>  <vdw_vol>
225.66655

>  <vsa_acc>
5.6825762

>  <vsa_acid>
0

>  <vsa_base>
0

>  <vsa_don>
17.742489

>  <vsa_hyd>
81.251015

>  <vsa_other>
41.352348

>  <vsa_pol>
36.991985

>  <Weight>
176.175

>  <weinerPath>
239

>  <weinerPol>
16

>  <zagreb>
66

$$$$