O1C(CO)C(O)C(N)C(O)C1OC1C(O)C(OC2OC(CCC2N)CN)C(N)CC1NC(=O)C(O)CCN
  MOE2013           2D

 38 40  0  0  1  0  0  0  0  0999 V2000
    0.0000    0.0000    0.0000 O   0  0  0  0  0  0  0  0  0  0  0  0
    0.7510   -1.2990    0.0000 C   0  0  3  0  0  0  0  0  0  0  0  0
    0.0010   -2.5980    0.0000 C   0  0  0  0  0  0  0  0  0  0  0  0
    0.7520   -3.8970    0.0000 O   0  0  0  0  0  0  0  0  0  0  0  0
    2.2510   -1.2980    0.0000 C   0  0  3  0  0  0  0  0  0  0  0  0
    3.0010   -2.5970    0.0000 O   0  0  0  0  0  0  0  0  0  0  0  0
    3.0000    0.0010    0.0000 C   0  0  3  0  0  0  0  0  0  0  0  0
    4.5000    0.0020    0.0000 N   0  0  0  0  0  0  0  0  0  0  0  0
    2.2490    1.3000    0.0000 C   0  0  3  0  0  0  0  0  0  0  0  0
    2.9990    2.5990    0.0000 O   0  0  0  0  0  0  0  0  0  0  0  0
    0.7490    1.2990    0.0000 C   0  0  3  0  0  0  0  0  0  0  0  0
   -0.0010    2.5980    0.0000 O   0  0  0  0  0  0  0  0  0  0  0  0
   -1.5010    2.5970    0.0000 C   0  0  3  0  0  0  0  0  0  0  0  0
   -2.2510    1.2980    0.0000 C   0  0  3  0  0  0  0  0  0  0  0  0
   -1.5000   -0.0010    0.0000 O   0  0  0  0  0  0  0  0  0  0  0  0
   -3.7510    1.2970    0.0000 C   0  0  3  0  0  0  0  0  0  0  0  0
   -4.5000   -0.0020    0.0000 O   0  0  0  0  0  0  0  0  0  0  0  0
   -6.0000   -0.0030    0.0000 C   0  0  3  0  0  0  0  0  0  0  0  0
   -6.7510    1.2960    0.0000 O   0  0  0  0  0  0  0  0  0  0  0  0
   -8.2510    1.2950    0.0000 C   0  0  3  0  0  0  0  0  0  0  0  0
   -9.0000   -0.0040    0.0000 C   0  0  0  0  0  0  0  0  0  0  0  0
   -8.2490   -1.3030    0.0000 C   0  0  0  0  0  0  0  0  0  0  0  0
   -6.7490   -1.3020    0.0000 C   0  0  3  0  0  0  0  0  0  0  0  0
   -5.9990   -2.6010    0.0000 N   0  0  0  0  0  0  0  0  0  0  0  0
   -9.0010    2.5940    0.0000 C   0  0  0  0  0  0  0  0  0  0  0  0
  -10.5010    2.5930    0.0000 N   0  0  0  0  0  0  0  0  0  0  0  0
   -4.5010    2.5960    0.0000 C   0  0  3  0  0  0  0  0  0  0  0  0
   -6.0010    2.5950    0.0000 N   0  0  0  0  0  0  0  0  0  0  0  0
   -3.7520    3.8950    0.0000 C   0  0  0  0  0  0  0  0  0  0  0  0
   -2.2520    3.8960    0.0000 C   0  0  3  0  0  0  0  0  0  0  0  0
   -1.5020    5.1950    0.0000 N   0  0  0  0  0  0  0  0  0  0  0  0
   -2.2530    6.4940    0.0000 C   0  0  0  0  0  0  0  0  0  0  0  0
   -3.7530    6.4940    0.0000 O   0  0  0  0  0  0  0  0  0  0  0  0
   -1.5030    7.7940    0.0000 C   0  0  3  0  0  0  0  0  0  0  0  0
   -0.0030    7.7940    0.0000 O   0  0  0  0  0  0  0  0  0  0  0  0
   -2.2540    9.0920    0.0000 C   0  0  0  0  0  0  0  0  0  0  0  0
   -1.5050   10.3920    0.0000 C   0  0  0  0  0  0  0  0  0  0  0  0
   -2.2550   11.6900    0.0000 N   0  0  0  0  0  0  0  0  0  0  0  0
  1  2  1  0  0  0  0
  1 11  1  0  0  0  0
  2  3  1  0  0  0  0
  2  5  1  0  0  0  0
  3  4  1  0  0  0  0
  5  6  1  0  0  0  0
  5  7  1  0  0  0  0
  7  8  1  0  0  0  0
  7  9  1  0  0  0  0
  9 10  1  0  0  0  0
  9 11  1  0  0  0  0
 11 12  1  0  0  0  0
 12 13  1  0  0  0  0
 13 14  1  0  0  0  0
 13 30  1  0  0  0  0
 14 15  1  0  0  0  0
 14 16  1  0  0  0  0
 16 17  1  0  0  0  0
 16 27  1  0  0  0  0
 17 18  1  0  0  0  0
 18 19  1  0  0  0  0
 18 23  1  0  0  0  0
 19 20  1  0  0  0  0
 20 21  1  0  0  0  0
 20 25  1  0  0  0  0
 21 22  1  0  0  0  0
 22 23  1  0  0  0  0
 23 24  1  0  0  0  0
 25 26  1  0  0  0  0
 27 28  1  0  0  0  0
 27 29  1  0  0  0  0
 29 30  1  0  0  0  0
 30 31  1  0  0  0  0
 31 32  1  0  0  0  0
 32 33  2  0  0  0  0
 32 34  1  0  0  0  0
 34 35  1  0  0  0  0
 34 36  1  0  0  0  0
 36 37  1  0  0  0  0
 37 38  1  0  0  0  0
M  END
>  <Index>
87

>  <ID>
HT0176

>  <class>
0

>  <apol>
82.678894

>  <ast_fraglike>
0

>  <ast_fraglike_ext>
0

>  <ast_violation>
3

>  <ast_violation_ext>
5

>  <a_acc>
15

>  <a_acid>
0

>  <a_aro>
0

>  <a_base>
0

>  <a_count>
82

>  <a_don>
11

>  <a_donacc>
26

>  <a_heavy>
38

>  <a_hyd>
19

>  <a_IC>
134.26772

>  <a_ICM>
1.6374112

>  <a_nB>
0

>  <a_nBr>
0

>  <a_nC>
22

>  <a_nCl>
0

>  <a_nF>
0

>  <a_nH>
44

>  <a_nI>
0

>  <a_nN>
6

>  <a_nO>
10

>  <a_nP>
0

>  <a_nS>
0

>  <balabanJ>
1.8149109

>  <BCUT_PEOE_0>
-2.8217659

>  <BCUT_PEOE_1>
-0.56066263

>  <BCUT_PEOE_2>
0.64690197

>  <BCUT_PEOE_3>
2.849066

>  <BCUT_SLOGP_0>
-3.0150628

>  <BCUT_SLOGP_1>
-0.59812236

>  <BCUT_SLOGP_2>
0.58059704

>  <BCUT_SLOGP_3>
2.7077689

>  <BCUT_SMR_0>
-2.5955091

>  <BCUT_SMR_1>
-0.45673934

>  <BCUT_SMR_2>
0.73495162

>  <BCUT_SMR_3>
3.0617857

>  <bpol>
54.083107

>  <b_1rotN>
10

>  <b_1rotR>
0.25

>  <b_ar>
0

>  <b_count>
84

>  <b_double>
1

>  <b_heavy>
40

>  <b_max1len>
6

>  <b_rotN>
11

>  <b_rotR>
0.27500001

>  <b_single>
83

>  <b_triple>
0

>  <chi0>
28.145535

>  <chi0v>
21.196712

>  <chi0v_C>
13.532651

>  <chi0_C>
13.610002

>  <chi1>
18.013678

>  <chi1v>
12.940351

>  <chi1v_C>
7.1464133

>  <chi1_C>
7.1910715

>  <chiral>
14

>  <chiral_u>
14

>  <density>
0.80589557

>  <diameter>
15

>  <FCharge>
0

>  <GCUT_PEOE_0>
-0.8400743

>  <GCUT_PEOE_1>
-0.39727852

>  <GCUT_PEOE_2>
0.096736029

>  <GCUT_PEOE_3>
3.1789079

>  <GCUT_SLOGP_0>
-1.3657864

>  <GCUT_SLOGP_1>
-0.44016466

>  <GCUT_SLOGP_2>
0.054200001

>  <GCUT_SLOGP_3>
3.0619321

>  <GCUT_SMR_0>
-0.52626461

>  <GCUT_SMR_1>
-0.24064893

>  <GCUT_SMR_2>
0.16380385

>  <GCUT_SMR_3>
3.3813105

>  <Kier1>
32.513748

>  <Kier2>
14.759003

>  <Kier3>
7.8531857

>  <KierA1>
31.30098

>  <KierA2>
14.193528

>  <KierA3>
7.5467472

>  <KierFlex>
11.691351

>  <lip_acc>
16

>  <lip_don>
16

>  <lip_druglike>
0

>  <lip_violation>
3

>  <logP(o/w)>
-6.401

>  <logS>
1.20717

>  <mr>
13.0155

>  <mutagenic>
0

>  <nmol>
1

>  <opr_brigid>
18

>  <opr_leadlike>
0

>  <opr_nring>
3

>  <opr_nrot>
16

>  <opr_violation>
5

>  <PC+>
0

>  <PC->
0

>  <PEOE_PC+>
5.626936

>  <PEOE_PC->
-5.626936

>  <PEOE_RPC+>
0.044412803

>  <PEOE_RPC->
0.069730081

>  <PEOE_VSA+0>
71.788307

>  <PEOE_VSA+1>
93.274895

>  <PEOE_VSA+2>
120.52463

>  <PEOE_VSA+3>
30.928831

>  <PEOE_VSA+4>
64.570396

>  <PEOE_VSA+5>
0

>  <PEOE_VSA+6>
0

>  <PEOE_VSA-0>
47.997578

>  <PEOE_VSA-1>
0

>  <PEOE_VSA-2>
0

>  <PEOE_VSA-3>
0

>  <PEOE_VSA-4>
0

>  <PEOE_VSA-5>
13.566921

>  <PEOE_VSA-6>
82.245216

>  <PEOE_VSA_FHYD>
0.69444937

>  <PEOE_VSA_FNEG>
0.27397713

>  <PEOE_VSA_FPNEG>
0.1825352

>  <PEOE_VSA_FPOL>
0.30555061

>  <PEOE_VSA_FPOS>
0.72602284

>  <PEOE_VSA_FPPOS>
0.12301542

>  <PEOE_VSA_HYD>
364.51422

>  <PEOE_VSA_NEG>
143.80971

>  <PEOE_VSA_PNEG>
95.812134

>  <PEOE_VSA_POL>
160.38252

>  <PEOE_VSA_POS>
381.08707

>  <PEOE_VSA_PPOS>
64.570396

>  <petitjean>
0.46666667

>  <petitjeanSC>
0.875

>  <Q_PC+>
0

>  <Q_PC->
0

>  <Q_RPC+>
0

>  <Q_RPC->
0

>  <Q_VSA_FHYD>
1

>  <Q_VSA_FNEG>
0

>  <Q_VSA_FPNEG>
0

>  <Q_VSA_FPOL>
0

>  <Q_VSA_FPOS>
1

>  <Q_VSA_FPPOS>
0

>  <Q_VSA_HYD>
524.89679

>  <Q_VSA_NEG>
0

>  <Q_VSA_PNEG>
0

>  <Q_VSA_POL>
0

>  <Q_VSA_POS>
524.89679

>  <Q_VSA_PPOS>
0

>  <radius>
8

>  <reactive>
1

>  <rings>
3

>  <RPC+>
0

>  <RPC->
0

>  <rsynth>
0.81578946

>  <SlogP>
-6.3994002

>  <SlogP_VSA0>
309.42282

>  <SlogP_VSA1>
5.2587838

>  <SlogP_VSA2>
152.59184

>  <SlogP_VSA3>
57.805416

>  <SlogP_VSA4>
0

>  <SlogP_VSA5>
0

>  <SlogP_VSA6>
0

>  <SlogP_VSA7>
0

>  <SlogP_VSA8>
75.473625

>  <SlogP_VSA9>
0

>  <SMR>
13.06147

>  <SMR_VSA0>
67.861771

>  <SMR_VSA1>
126.92613

>  <SMR_VSA2>
18.01075

>  <SMR_VSA3>
84.730072

>  <SMR_VSA4>
164.48593

>  <SMR_VSA5>
75.473625

>  <SMR_VSA6>
63.064198

>  <SMR_VSA7>
0

>  <TPSA>
297.26999

>  <VAdjEq>
0.30891407

>  <VAdjMa>
6.321928

>  <VDistEq>
3.6731305

>  <VDistMa>
10.251615

>  <vdw_area>
524.89679

>  <vdw_vol>
685.72906

>  <vsa_acc>
23.581945

>  <vsa_acid>
0

>  <vsa_base>
0

>  <vsa_don>
5.6825762

>  <vsa_hyd>
220.35782

>  <vsa_other>
42.366531

>  <vsa_pol>
185.81157

>  <Weight>
552.62598

>  <weinerPath>
4560

>  <weinerPol>
67

>  <zagreb>
194

$$$$