O1[C@@H]2[C@]34CCN([C@H](Cc5c3c1c(O)cc5)[C@]4(O)CCC2=O)C
  MOE2013           2D

 22 26  0  0  1  0  0  0  0  0999 V2000
    0.0000    0.0000    0.0000 O   0  0  0  0  0  0  0  0  0  0  0  0
    1.7720   -0.0280    0.0000 C   0  0  2  0  0  0  0  0  0  0  0  0
    1.9280   -1.4460    0.0000 C   0  0  2  0  0  0  0  0  0  0  0  0
    1.6950   -2.8850    0.0000 C   0  0  0  0  0  0  0  0  0  0  0  0
    3.0810   -4.5310    0.0000 C   0  0  0  0  0  0  0  0  0  0  0  0
    4.5130   -4.3770    0.0000 N   0  0  3  0  0  0  0  0  0  0  0  0
    3.3980   -3.4580    0.0000 C   0  0  2  0  0  0  0  0  0  0  0  0
    2.2330   -4.2980    0.0000 C   0  0  0  0  0  0  0  0  0  0  0  0
    0.9150   -3.7160    0.0000 C   0  0  0  0  0  0  0  0  0  0  0  0
    0.7630   -2.2920    0.0000 C   0  0  0  0  0  0  0  0  0  0  0  0
   -0.5420   -1.7080    0.0000 C   0  0  0  0  0  0  0  0  0  0  0  0
   -1.7010   -2.5560    0.0000 C   0  0  0  0  0  0  0  0  0  0  0  0
   -3.0730   -1.9500    0.0000 O   0  0  0  0  0  0  0  0  0  0  0  0
   -1.5490   -3.9800    0.0000 C   0  0  0  0  0  0  0  0  0  0  0  0
   -0.2360   -4.5560    0.0000 C   0  0  0  0  0  0  0  0  0  0  0  0
    3.2420   -2.0230    0.0000 C   0  0  1  0  0  0  0  0  0  0  0  0
    4.6110   -2.6350    0.0000 O   0  0  0  0  0  0  0  0  0  0  0  0
    4.3990   -1.1820    0.0000 C   0  0  0  0  0  0  0  0  0  0  0  0
    4.2390    0.2450    0.0000 C   0  0  0  0  0  0  0  0  0  0  0  0
    2.9250    0.8220    0.0000 C   0  0  0  0  0  0  0  0  0  0  0  0
    2.7590    2.3130    0.0000 O   0  0  0  0  0  0  0  0  0  0  0  0
    5.9500   -4.8090    0.0000 C   0  0  0  0  0  0  0  0  0  0  0  0
  1 11  1  0  0  0  0
  2  1  1  1  0  0  0
  2  3  1  0  0  0  0
  2 20  1  0  0  0  0
  3  4  1  6  0  0  0
  3 10  1  0  0  0  0
  3 16  1  0  0  0  0
  4  5  1  0  0  0  0
  5  6  1  0  0  0  0
  6 22  1  0  0  0  0
  7  6  1  6  0  0  0
  7  8  1  0  0  0  0
  7 16  1  0  0  0  0
  8  9  1  0  0  0  0
  9 10  1  0  0  0  0
  9 15  2  0  0  0  0
 10 11  2  0  0  0  0
 11 12  1  0  0  0  0
 12 13  1  0  0  0  0
 12 14  2  0  0  0  0
 14 15  1  0  0  0  0
 16 17  1  6  0  0  0
 16 18  1  0  0  0  0
 18 19  1  0  0  0  0
 19 20  1  0  0  0  0
 20 21  2  0  0  0  0
M  END
>  <Index>
805

>  <ID>
HT1570

>  <class>
0

>  <apol>
46.897068

>  <ast_fraglike>
0

>  <ast_fraglike_ext>
0

>  <ast_violation>
2

>  <ast_violation_ext>
2

>  <a_acc>
5

>  <a_acid>
0

>  <a_aro>
6

>  <a_base>
0

>  <a_count>
41

>  <a_don>
2

>  <a_donacc>
7

>  <a_heavy>
22

>  <a_hyd>
16

>  <a_IC>
61.462143

>  <a_ICM>
1.4990766

>  <a_nB>
0

>  <a_nBr>
0

>  <a_nC>
17

>  <a_nCl>
0

>  <a_nF>
0

>  <a_nH>
19

>  <a_nI>
0

>  <a_nN>
1

>  <a_nO>
4

>  <a_nP>
0

>  <a_nS>
0

>  <balabanJ>
1.7053354

>  <BCUT_PEOE_0>
-2.8864355

>  <BCUT_PEOE_1>
-0.56185454

>  <BCUT_PEOE_2>
0.56678975

>  <BCUT_PEOE_3>
2.9324114

>  <BCUT_SLOGP_0>
-2.9906721

>  <BCUT_SLOGP_1>
-0.52469438

>  <BCUT_SLOGP_2>
0.5713774

>  <BCUT_SLOGP_3>
2.8615611

>  <BCUT_SMR_0>
-2.6431248

>  <BCUT_SMR_1>
-0.34787413

>  <BCUT_SMR_2>
0.76821142

>  <BCUT_SMR_3>
3.1693695

>  <bpol>
25.624933

>  <b_1rotN>
0

>  <b_1rotR>
0

>  <b_ar>
6

>  <b_count>
45

>  <b_double>
1

>  <b_heavy>
26

>  <b_max1len>
2

>  <b_rotN>
0

>  <b_rotR>
0

>  <b_single>
38

>  <b_triple>
0

>  <chi0>
15.275657

>  <chi0v>
12.503073

>  <chi0v_C>
10.344935

>  <chi0_C>
10.991199

>  <chi1>
10.487836

>  <chi1v>
7.9619751

>  <chi1v_C>
5.8491707

>  <chi1_C>
6.6977072

>  <chiral>
4

>  <chiral_u>
0

>  <density>
0.77506828

>  <diameter>
8

>  <FCharge>
0

>  <GCUT_PEOE_0>
-0.85216606

>  <GCUT_PEOE_1>
-0.43209392

>  <GCUT_PEOE_2>
0.016636977

>  <GCUT_PEOE_3>
3.1232376

>  <GCUT_SLOGP_0>
-0.96354824

>  <GCUT_SLOGP_1>
-0.37647754

>  <GCUT_SLOGP_2>
0.027793195

>  <GCUT_SLOGP_3>
3.1199577

>  <GCUT_SMR_0>
-0.52123398

>  <GCUT_SMR_1>
-0.22689648

>  <GCUT_SMR_2>
0.19716555

>  <GCUT_SMR_3>
3.3611555

>  <Kier1>
14.352071

>  <Kier2>
4.3388429

>  <Kier3>
1.4660494

>  <KierA1>
12.279867

>  <KierA2>
3.683208

>  <KierA3>
1.2374147

>  <KierFlex>
2.0558774

>  <lip_acc>
5

>  <lip_don>
2

>  <lip_druglike>
1

>  <lip_violation>
0

>  <logP(o/w)>
0.49900001

>  <logS>
-1.80001

>  <mr>
7.8311472

>  <mutagenic>
0

>  <nmol>
1

>  <opr_brigid>
22

>  <opr_leadlike>
1

>  <opr_nring>
5

>  <opr_nrot>
0

>  <opr_violation>
1

>  <PC+>
0

>  <PC->
0

>  <PEOE_PC+>
1.8524584

>  <PEOE_PC->
-1.8524584

>  <PEOE_RPC+>
0.11736931

>  <PEOE_RPC->
0.20838286

>  <PEOE_VSA+0>
73.771217

>  <PEOE_VSA+1>
12.796158

>  <PEOE_VSA+2>
21.821968

>  <PEOE_VSA+3>
8.458519

>  <PEOE_VSA+4>
20.648346

>  <PEOE_VSA+5>
0

>  <PEOE_VSA+6>
0

>  <PEOE_VSA-0>
76.998398

>  <PEOE_VSA-1>
12.254904

>  <PEOE_VSA-2>
0

>  <PEOE_VSA-3>
0

>  <PEOE_VSA-4>
0

>  <PEOE_VSA-5>
13.566921

>  <PEOE_VSA-6>
18.038837

>  <PEOE_VSA_FHYD>
0.7977432

>  <PEOE_VSA_FNEG>
0.46780181

>  <PEOE_VSA_FPNEG>
0.12233448

>  <PEOE_VSA_FPOL>
0.20225677

>  <PEOE_VSA_FPOS>
0.53219819

>  <PEOE_VSA_FPPOS>
0.079922296

>  <PEOE_VSA_HYD>
206.10117

>  <PEOE_VSA_NEG>
120.85906

>  <PEOE_VSA_PNEG>
31.605757

>  <PEOE_VSA_POL>
52.254105

>  <PEOE_VSA_POS>
137.4962

>  <PEOE_VSA_PPOS>
20.648346

>  <petitjean>
0.5

>  <petitjeanSC>
1

>  <Q_PC+>
0

>  <Q_PC->
0

>  <Q_RPC+>
0

>  <Q_RPC->
0

>  <Q_VSA_FHYD>
1

>  <Q_VSA_FNEG>
0

>  <Q_VSA_FPNEG>
0

>  <Q_VSA_FPOL>
0

>  <Q_VSA_FPOS>
1

>  <Q_VSA_FPPOS>
0

>  <Q_VSA_HYD>
258.35526

>  <Q_VSA_NEG>
0

>  <Q_VSA_PNEG>
0

>  <Q_VSA_POL>
0

>  <Q_VSA_POS>
258.35526

>  <Q_VSA_PPOS>
0

>  <radius>
4

>  <reactive>
1

>  <rings>
5

>  <RPC+>
0

>  <RPC->
0

>  <rsynth>
0

>  <SlogP>
0.74517

>  <SlogP_VSA0>
61.77034

>  <SlogP_VSA1>
8.8119249

>  <SlogP_VSA2>
34.312836

>  <SlogP_VSA3>
18.439579

>  <SlogP_VSA4>
6.37115

>  <SlogP_VSA5>
51.765594

>  <SlogP_VSA6>
0

>  <SlogP_VSA7>
35.286369

>  <SlogP_VSA8>
56.605217

>  <SlogP_VSA9>
10.486856

>  <SMR>
7.8130598

>  <SMR_VSA0>
23.862217

>  <SMR_VSA1>
64.894653

>  <SMR_VSA2>
0

>  <SMR_VSA3>
27.308624

>  <SMR_VSA4>
0

>  <SMR_VSA5>
110.75999

>  <SMR_VSA6>
24.12719

>  <SMR_VSA7>
32.897186

>  <TPSA>
70

>  <VAdjEq>
0.49213955

>  <VAdjMa>
5.7004399

>  <VDistEq>
2.5972579

>  <VDistMa>
8.7005072

>  <vdw_area>
258.35526

>  <vdw_vol>
388.79413

>  <vsa_acc>
16.070677

>  <vsa_acid>
0

>  <vsa_base>
0

>  <vsa_don>
0

>  <vsa_hyd>
185.54213

>  <vsa_other>
8.458519

>  <vsa_pol>
43.204517

>  <Weight>
301.34198

>  <weinerPath>
788

>  <weinerPol>
55

>  <zagreb>
140

$$$$