Clc1cc2c(N(CC3CC3)C(=O)CN=C2c2ccccc2)cc1
  MOE2013           2D

 23 26  0  0  0  0  0  0  0  0999 V2000
    0.0000    0.0000    0.0000 Cl  0  0  0  0  0  0  0  0  0  0  0  0
   -1.1250   -0.9920    0.0000 C   0  0  0  0  0  0  0  0  0  0  0  0
   -0.8290   -2.4620    0.0000 C   0  0  0  0  0  0  0  0  0  0  0  0
   -1.9550   -3.4540    0.0000 C   0  0  0  0  0  0  0  0  0  0  0  0
   -3.3760   -2.9750    0.0000 C   0  0  0  0  0  0  0  0  0  0  0  0
   -4.6360   -3.7890    0.0000 N   0  0  0  0  0  0  0  0  0  0  0  0
   -5.9160   -3.0070    0.0000 C   0  0  0  0  0  0  0  0  0  0  0  0
   -7.2330   -3.7250    0.0000 C   0  0  0  0  0  0  0  0  0  0  0  0
   -8.7330   -3.6880    0.0000 C   0  0  0  0  0  0  0  0  0  0  0  0
   -8.0150   -5.0050    0.0000 C   0  0  0  0  0  0  0  0  0  0  0  0
   -4.7860   -5.2820    0.0000 C   0  0  0  0  0  0  0  0  0  0  0  0
   -6.1950   -5.7940    0.0000 O   0  0  0  0  0  0  0  0  0  0  0  0
   -3.7120   -6.3300    0.0000 C   0  0  0  0  0  0  0  0  0  0  0  0
   -2.2240   -6.1440    0.0000 N   0  0  0  0  0  0  0  0  0  0  0  0
   -1.4420   -4.8630    0.0000 C   0  0  0  0  0  0  0  0  0  0  0  0
    0.0500   -5.0130    0.0000 C   0  0  0  0  0  0  0  0  0  0  0  0
    0.6670   -6.3800    0.0000 C   0  0  0  0  0  0  0  0  0  0  0  0
    2.1600   -6.5300    0.0000 C   0  0  0  0  0  0  0  0  0  0  0  0
    3.0350   -5.3120    0.0000 C   0  0  0  0  0  0  0  0  0  0  0  0
    2.4180   -3.9440    0.0000 C   0  0  0  0  0  0  0  0  0  0  0  0
    0.9260   -3.7950    0.0000 C   0  0  0  0  0  0  0  0  0  0  0  0
   -3.6720   -1.5040    0.0000 C   0  0  0  0  0  0  0  0  0  0  0  0
   -2.5470   -0.5130    0.0000 C   0  0  0  0  0  0  0  0  0  0  0  0
  1  2  1  0  0  0  0
  2  3  1  0  0  0  0
  2 23  2  0  0  0  0
  3  4  2  0  0  0  0
  4  5  1  0  0  0  0
  4 15  1  0  0  0  0
  5  6  1  0  0  0  0
  5 22  2  0  0  0  0
  6  7  1  0  0  0  0
  6 11  1  0  0  0  0
  7  8  1  0  0  0  0
  8  9  1  0  0  0  0
  8 10  1  0  0  0  0
  9 10  1  0  0  0  0
 11 12  2  0  0  0  0
 11 13  1  0  0  0  0
 13 14  1  0  0  0  0
 14 15  2  0  0  0  0
 15 16  1  0  0  0  0
 16 17  1  0  0  0  0
 16 21  2  0  0  0  0
 17 18  2  0  0  0  0
 18 19  1  0  0  0  0
 19 20  2  0  0  0  0
 20 21  1  0  0  0  0
 22 23  1  0  0  0  0
M  END
>  <Index>
889

>  <ID>
HT1726

>  <class>
0

>  <apol>
49.957481

>  <ast_fraglike>
0

>  <ast_fraglike_ext>
0

>  <ast_violation>
2

>  <ast_violation_ext>
2

>  <a_acc>
2

>  <a_acid>
0

>  <a_aro>
12

>  <a_base>
0

>  <a_count>
40

>  <a_don>
0

>  <a_donacc>
2

>  <a_heavy>
23

>  <a_hyd>
18

>  <a_IC>
60.679634

>  <a_ICM>
1.5169908

>  <a_nB>
0

>  <a_nBr>
0

>  <a_nC>
19

>  <a_nCl>
1

>  <a_nF>
0

>  <a_nH>
17

>  <a_nI>
0

>  <a_nN>
2

>  <a_nO>
1

>  <a_nP>
0

>  <a_nS>
0

>  <balabanJ>
1.5547307

>  <BCUT_PEOE_0>
-2.4838719

>  <BCUT_PEOE_1>
-0.57695931

>  <BCUT_PEOE_2>
0.64796251

>  <BCUT_PEOE_3>
2.7885902

>  <BCUT_SLOGP_0>
-2.5927455

>  <BCUT_SLOGP_1>
-0.46453506

>  <BCUT_SLOGP_2>
0.79337013

>  <BCUT_SLOGP_3>
2.8750725

>  <BCUT_SMR_0>
-2.1862421

>  <BCUT_SMR_1>
-0.41822112

>  <BCUT_SMR_2>
0.85431087

>  <BCUT_SMR_3>
3.0463433

>  <bpol>
23.26252

>  <b_1rotN>
3

>  <b_1rotR>
0.11538462

>  <b_ar>
12

>  <b_count>
43

>  <b_double>
2

>  <b_heavy>
26

>  <b_max1len>
3

>  <b_rotN>
3

>  <b_rotR>
0.11538462

>  <b_single>
29

>  <b_triple>
0

>  <chi0>
15.811191

>  <chi0v>
13.461148

>  <chi0v_C>
11.02458

>  <chi0_C>
12.526733

>  <chi1>
11.220346

>  <chi1v>
8.301363

>  <chi1v_C>
6.227016

>  <chi1_C>
8.0824833

>  <chiral>
0

>  <chiral_u>
0

>  <density>
0.75266922

>  <diameter>
10

>  <FCharge>
0

>  <GCUT_PEOE_0>
-0.82358444

>  <GCUT_PEOE_1>
-0.38845956

>  <GCUT_PEOE_2>
0.079848222

>  <GCUT_PEOE_3>
2.6513608

>  <GCUT_SLOGP_0>
-1.0009338

>  <GCUT_SLOGP_1>
-0.2870017

>  <GCUT_SLOGP_2>
0.16445385

>  <GCUT_SLOGP_3>
2.7266901

>  <GCUT_SMR_0>
-0.48893332

>  <GCUT_SMR_1>
-0.21605732

>  <GCUT_SMR_2>
0.20271561

>  <GCUT_SMR_3>
2.9536467

>  <Kier1>
16.467455

>  <Kier2>
7.0869246

>  <Kier3>
3.3833141

>  <KierA1>
12.658377

>  <KierA2>
5.3776736

>  <KierA3>
2.5422187

>  <KierFlex>
2.9596791

>  <lip_acc>
3

>  <lip_don>
0

>  <lip_druglike>
1

>  <lip_violation>
0

>  <logP(o/w)>
3.928

>  <logS>
-5.1603999

>  <mr>
9.2507429

>  <mutagenic>
0

>  <nmol>
1

>  <opr_brigid>
21

>  <opr_leadlike>
1

>  <opr_nring>
4

>  <opr_nrot>
3

>  <opr_violation>
0

>  <PC+>
0

>  <PC->
0

>  <PEOE_PC+>
1.4553453

>  <PEOE_PC->
-1.4553453

>  <PEOE_RPC+>
0.17126291

>  <PEOE_RPC->
0.21283028

>  <PEOE_VSA+0>
51.986851

>  <PEOE_VSA+1>
56.052963

>  <PEOE_VSA+2>
13.192325

>  <PEOE_VSA+3>
0

>  <PEOE_VSA+4>
12.949531

>  <PEOE_VSA+5>
0

>  <PEOE_VSA+6>
0

>  <PEOE_VSA-0>
54.167339

>  <PEOE_VSA-1>
90.856468

>  <PEOE_VSA-2>
0

>  <PEOE_VSA-3>
0

>  <PEOE_VSA-4>
0

>  <PEOE_VSA-5>
19.249496

>  <PEOE_VSA-6>
0

>  <PEOE_VSA_FHYD>
0.89211428

>  <PEOE_VSA_FNEG>
0.55041236

>  <PEOE_VSA_FPNEG>
0.064497158

>  <PEOE_VSA_FPOL>
0.10788571

>  <PEOE_VSA_FPOS>
0.44958764

>  <PEOE_VSA_FPPOS>
0.043388557

>  <PEOE_VSA_HYD>
266.25595

>  <PEOE_VSA_NEG>
164.2733

>  <PEOE_VSA_PNEG>
19.249496

>  <PEOE_VSA_POL>
32.199028

>  <PEOE_VSA_POS>
134.18167

>  <PEOE_VSA_PPOS>
12.949531

>  <petitjean>
0.5

>  <petitjeanSC>
1

>  <Q_PC+>
0

>  <Q_PC->
0

>  <Q_RPC+>
0

>  <Q_RPC->
0

>  <Q_VSA_FHYD>
1

>  <Q_VSA_FNEG>
0

>  <Q_VSA_FPNEG>
0

>  <Q_VSA_FPOL>
0

>  <Q_VSA_FPOS>
1

>  <Q_VSA_FPPOS>
0

>  <Q_VSA_HYD>
298.45499

>  <Q_VSA_NEG>
0

>  <Q_VSA_PNEG>
0

>  <Q_VSA_POL>
0

>  <Q_VSA_POS>
298.45499

>  <Q_VSA_PPOS>
0

>  <radius>
5

>  <reactive>
0

>  <rings>
4

>  <RPC+>
0

>  <RPC->
0

>  <rsynth>
1

>  <SlogP>
3.934

>  <SlogP_VSA0>
3.1243138

>  <SlogP_VSA1>
8.0155315

>  <SlogP_VSA2>
23.862217

>  <SlogP_VSA3>
36.879158

>  <SlogP_VSA4>
10.781946

>  <SlogP_VSA5>
16.78553

>  <SlogP_VSA6>
3.5006065

>  <SlogP_VSA7>
141.14548

>  <SlogP_VSA8>
37.736813

>  <SlogP_VSA9>
41.905392

>  <SMR>
9.3477001

>  <SMR_VSA0>
23.862217

>  <SMR_VSA1>
16.78553

>  <SMR_VSA2>
7.53511

>  <SMR_VSA3>
9.8717566

>  <SMR_VSA4>
2.7567475

>  <SMR_VSA5>
178.88228

>  <SMR_VSA6>
44.894688

>  <SMR_VSA7>
39.148643

>  <TPSA>
32.669998

>  <VAdjEq>
0.46357921

>  <VAdjMa>
5.7004399

>  <VDistEq>
3.0417612

>  <VDistMa>
8.7957296

>  <vdw_area>
298.45499

>  <vdw_vol>
431.54547

>  <vsa_acc>
19.249496

>  <vsa_acid>
0

>  <vsa_base>
0

>  <vsa_don>
0

>  <vsa_hyd>
246.11082

>  <vsa_other>
19.649082

>  <vsa_pol>
19.249496

>  <Weight>
324.811

>  <weinerPath>
1078

>  <weinerPol>
40

>  <zagreb>
126

$$$$