O=C1C=C2CC[C@@H]3[C@@H]([C@]2(C=C1)C)[C@@H](O)C[C@]1([C@H]3CC[C@]1(O)C(=O)CO)C
  MOE2013           2D

 26 29  0  0  1  0  0  0  0  0999 V2000
    0.0000    0.0000    0.0000 O   0  0  0  0  0  0  0  0  0  0  0  0
    1.5000   -0.0070    0.0000 C   0  0  0  0  0  0  0  0  0  0  0  0
    2.2440   -1.3100    0.0000 C   0  0  0  0  0  0  0  0  0  0  0  0
    3.7440   -1.3180    0.0000 C   0  0  0  0  0  0  0  0  0  0  0  0
    4.4870   -2.6200    0.0000 C   0  0  0  0  0  0  0  0  0  0  0  0
    5.9870   -2.6280    0.0000 C   0  0  0  0  0  0  0  0  0  0  0  0
    6.7430   -1.3320    0.0000 C   0  0  2  0  0  0  0  0  0  0  0  0
    6.0000   -0.0300    0.0000 C   0  0  1  0  0  0  0  0  0  0  0  0
    4.5000   -0.0220    0.0000 C   0  0  1  0  0  0  0  0  0  0  0  0
    3.7560    1.2800    0.0000 C   0  0  0  0  0  0  0  0  0  0  0  0
    2.2560    1.2880    0.0000 C   0  0  0  0  0  0  0  0  0  0  0  0
    3.0010   -0.0670    0.0000 C   0  0  0  0  0  0  0  0  0  0  0  0
    6.7560    1.2660    0.0000 C   0  0  1  0  0  0  0  0  0  0  0  0
    6.0130    2.5680    0.0000 O   0  0  0  0  0  0  0  0  0  0  0  0
    8.2560    1.2580    0.0000 C   0  0  0  0  0  0  0  0  0  0  0  0
    9.0000   -0.0450    0.0000 C   0  0  1  0  0  0  0  0  0  0  0  0
    8.2430   -1.3400    0.0000 C   0  0  1  0  0  0  0  0  0  0  0  0
    9.2420   -2.4600    0.0000 C   0  0  0  0  0  0  0  0  0  0  0  0
   10.6150   -1.8560    0.0000 C   0  0  0  0  0  0  0  0  0  0  0  0
   10.4660   -0.3640    0.0000 C   0  0  1  0  0  0  0  0  0  0  0  0
   10.8990    1.0720    0.0000 O   0  0  0  0  0  0  0  0  0  0  0  0
   11.9420   -0.0980    0.0000 C   0  0  0  0  0  0  0  0  0  0  0  0
   12.4490    1.3140    0.0000 O   0  0  0  0  0  0  0  0  0  0  0  0
   12.9100   -1.2430    0.0000 C   0  0  0  0  0  0  0  0  0  0  0  0
   14.3860   -0.9770    0.0000 O   0  0  0  0  0  0  0  0  0  0  0  0
    9.9290    1.1330    0.0000 C   0  0  0  0  0  0  0  0  0  0  0  0
  1  2  2  0  0  0  0
  2  3  1  0  0  0  0
  2 11  1  0  0  0  0
  3  4  2  0  0  0  0
  4  5  1  0  0  0  0
  4  9  1  0  0  0  0
  5  6  1  0  0  0  0
  7  6  1  6  0  0  0
  7  8  1  0  0  0  0
  7 17  1  0  0  0  0
  8  9  1  0  0  0  0
  8 13  1  1  0  0  0
  9 10  1  0  0  0  0
  9 12  1  1  0  0  0
 10 11  2  0  0  0  0
 13 14  1  1  0  0  0
 13 15  1  0  0  0  0
 15 16  1  0  0  0  0
 16 17  1  0  0  0  0
 16 20  1  0  0  0  0
 16 26  1  1  0  0  0
 17 18  1  1  0  0  0
 18 19  1  0  0  0  0
 19 20  1  0  0  0  0
 20 21  1  6  0  0  0
 20 22  1  1  0  0  0
 22 23  2  0  0  0  0
 22 24  1  0  0  0  0
 24 25  1  0  0  0  0
M  END
>  <Index>
893

>  <ID>
HT1730

>  <class>
0

>  <apol>
59.640205

>  <ast_fraglike>
0

>  <ast_fraglike_ext>
0

>  <ast_violation>
2

>  <ast_violation_ext>
3

>  <a_acc>
5

>  <a_acid>
0

>  <a_aro>
0

>  <a_base>
0

>  <a_count>
54

>  <a_don>
3

>  <a_donacc>
8

>  <a_heavy>
26

>  <a_hyd>
19

>  <a_IC>
72.309685

>  <a_ICM>
1.3390682

>  <a_nB>
0

>  <a_nBr>
0

>  <a_nC>
21

>  <a_nCl>
0

>  <a_nF>
0

>  <a_nH>
28

>  <a_nI>
0

>  <a_nN>
0

>  <a_nO>
5

>  <a_nP>
0

>  <a_nS>
0

>  <balabanJ>
1.6783053

>  <BCUT_PEOE_0>
-2.9211571

>  <BCUT_PEOE_1>
-0.51778781

>  <BCUT_PEOE_2>
0.56173956

>  <BCUT_PEOE_3>
2.9748425

>  <BCUT_SLOGP_0>
-2.8994181

>  <BCUT_SLOGP_1>
-0.48167238

>  <BCUT_SLOGP_2>
0.50613433

>  <BCUT_SLOGP_3>
3.0055456

>  <BCUT_SMR_0>
-2.6753612

>  <BCUT_SMR_1>
-0.3849467

>  <BCUT_SMR_2>
0.67450255

>  <BCUT_SMR_3>
3.2149055

>  <bpol>
32.525795

>  <b_1rotN>
2

>  <b_1rotR>
0.068965517

>  <b_ar>
0

>  <b_count>
57

>  <b_double>
4

>  <b_heavy>
29

>  <b_max1len>
6

>  <b_rotN>
2

>  <b_rotR>
0.068965517

>  <b_single>
53

>  <b_triple>
0

>  <chi0>
18.905413

>  <chi0v>
15.44223

>  <chi0v_C>
13.284093

>  <chi0_C>
13.905413

>  <chi1>
12.170505

>  <chi1v>
9.6606245

>  <chi1v_C>
8.4543428

>  <chi1_C>
9.2313471

>  <chiral>
7

>  <chiral_u>
0

>  <density>
0.73946744

>  <diameter>
12

>  <FCharge>
0

>  <GCUT_PEOE_0>
-0.80053228

>  <GCUT_PEOE_1>
-0.40547305

>  <GCUT_PEOE_2>
0.043977506

>  <GCUT_PEOE_3>
3.3135674

>  <GCUT_SLOGP_0>
-0.94576418

>  <GCUT_SLOGP_1>
-0.35328117

>  <GCUT_SLOGP_2>
0.00052518409

>  <GCUT_SLOGP_3>
3.3533049

>  <GCUT_SMR_0>
-0.53696847

>  <GCUT_SMR_1>
-0.22655044

>  <GCUT_SMR_2>
0.15359394

>  <GCUT_SMR_3>
3.5381305

>  <Kier1>
19.322235

>  <Kier2>
6.25

>  <Kier3>
2.4860198

>  <KierA1>
16.870308

>  <KierA2>
5.4258013

>  <KierA3>
2.1493821

>  <KierFlex>
3.5205748

>  <lip_acc>
5

>  <lip_don>
3

>  <lip_druglike>
1

>  <lip_violation>
0

>  <logP(o/w)>
1.778

>  <logS>
-3.3569

>  <mr>
9.5772095

>  <mutagenic>
0

>  <nmol>
1

>  <opr_brigid>
20

>  <opr_leadlike>
1

>  <opr_nring>
4

>  <opr_nrot>
2

>  <opr_violation>
0

>  <PC+>
0

>  <PC->
0

>  <PEOE_PC+>
2.2229376

>  <PEOE_PC->
-2.2229376

>  <PEOE_RPC+>
0.094812818

>  <PEOE_RPC->
0.17609374

>  <PEOE_VSA+0>
81.042336

>  <PEOE_VSA+1>
30.497244

>  <PEOE_VSA+2>
14.951293

>  <PEOE_VSA+3>
16.917038

>  <PEOE_VSA+4>
30.972517

>  <PEOE_VSA+5>
0

>  <PEOE_VSA+6>
0

>  <PEOE_VSA-0>
68.016373

>  <PEOE_VSA-1>
51.958797

>  <PEOE_VSA-2>
0

>  <PEOE_VSA-3>
0

>  <PEOE_VSA-4>
0

>  <PEOE_VSA-5>
27.133842

>  <PEOE_VSA-6>
23.30262

>  <PEOE_VSA_FHYD>
0.76388961

>  <PEOE_VSA_FNEG>
0.49424466

>  <PEOE_VSA_FPNEG>
0.14628081

>  <PEOE_VSA_FPOL>
0.23611036

>  <PEOE_VSA_FPOS>
0.50575536

>  <PEOE_VSA_FPPOS>
0.089829557

>  <PEOE_VSA_HYD>
263.38309

>  <PEOE_VSA_NEG>
170.41164

>  <PEOE_VSA_PNEG>
50.436462

>  <PEOE_VSA_POL>
81.408981

>  <PEOE_VSA_POS>
174.38043

>  <PEOE_VSA_PPOS>
30.972517

>  <petitjean>
0.5

>  <petitjeanSC>
1

>  <Q_PC+>
0

>  <Q_PC->
0

>  <Q_RPC+>
0

>  <Q_RPC->
0

>  <Q_VSA_FHYD>
1

>  <Q_VSA_FNEG>
0

>  <Q_VSA_FPNEG>
0

>  <Q_VSA_FPOL>
0

>  <Q_VSA_FPOS>
1

>  <Q_VSA_FPPOS>
0

>  <Q_VSA_HYD>
344.79205

>  <Q_VSA_NEG>
0

>  <Q_VSA_PNEG>
0

>  <Q_VSA_POL>
0

>  <Q_VSA_POS>
344.79205

>  <Q_VSA_PPOS>
0

>  <radius>
6

>  <reactive>
1

>  <rings>
4

>  <RPC+>
0

>  <RPC->
0

>  <rsynth>
1

>  <SlogP>
1.5576

>  <SlogP_VSA0>
76.155678

>  <SlogP_VSA1>
11.375222

>  <SlogP_VSA2>
54.193081

>  <SlogP_VSA3>
20.926258

>  <SlogP_VSA4>
13.232388

>  <SlogP_VSA5>
3.185575

>  <SlogP_VSA6>
0

>  <SlogP_VSA7>
52.929554

>  <SlogP_VSA8>
94.342026

>  <SlogP_VSA9>
66.652031

>  <SMR>
9.5048399

>  <SMR_VSA0>
47.724434

>  <SMR_VSA1>
76.155678

>  <SMR_VSA2>
13.232388

>  <SMR_VSA3>
9.6542244

>  <SMR_VSA4>
0

>  <SMR_VSA5>
147.27158

>  <SMR_VSA6>
32.301479

>  <SMR_VSA7>
66.652031

>  <TPSA>
94.830002

>  <VAdjEq>
0.42228913

>  <VAdjMa>
5.8579812

>  <VDistEq>
3.1649306

>  <VDistMa>
9.1329422

>  <vdw_area>
344.79205

>  <vdw_vol>
487.44537

>  <vsa_acc>
27.133842

>  <vsa_acid>
0

>  <vsa_base>
0

>  <vsa_don>
0

>  <vsa_hyd>
224.636

>  <vsa_other>
16.917038

>  <vsa_pol>
67.834602

>  <Weight>
360.44998

>  <weinerPath>
1425

>  <weinerPol>
59

>  <zagreb>
154

$$$$