n12nnnc1CCCCC2
  MOE2013           2D

 10 11  0  0  0  0  0  0  0  0999 V2000
    0.0000    0.0000    0.0000 N   0  0  0  0  0  0  0  0  0  0  0  0
    1.4260    0.4650    0.0000 N   0  0  0  0  0  0  0  0  0  0  0  0
    2.3090   -0.7480    0.0000 N   0  0  0  0  0  0  0  0  0  0  0  0
    1.4280   -1.9630    0.0000 N   0  0  0  0  0  0  0  0  0  0  0  0
    0.0010   -1.5000    0.0000 C   0  0  0  0  0  0  0  0  0  0  0  0
   -1.1720   -2.4350    0.0000 C   0  0  0  0  0  0  0  0  0  0  0  0
   -2.6350   -2.1010    0.0000 C   0  0  0  0  0  0  0  0  0  0  0  0
   -3.2860   -0.7500    0.0000 C   0  0  0  0  0  0  0  0  0  0  0  0
   -2.6350    0.6020    0.0000 C   0  0  0  0  0  0  0  0  0  0  0  0
   -1.1730    0.9350    0.0000 C   0  0  0  0  0  0  0  0  0  0  0  0
  1  2  1  0  0  0  0
  1  5  1  0  0  0  0
  1 10  1  0  0  0  0
  2  3  2  0  0  0  0
  3  4  1  0  0  0  0
  4  5  2  0  0  0  0
  5  6  1  0  0  0  0
  6  7  1  0  0  0  0
  7  8  1  0  0  0  0
  8  9  1  0  0  0  0
  9 10  1  0  0  0  0
M  END
>  <Index>
833

>  <ID>
HT1622

>  <class>
0

>  <apol>
21.62793

>  <ast_fraglike>
1

>  <ast_fraglike_ext>
1

>  <ast_violation>
0

>  <ast_violation_ext>
0

>  <a_acc>
3

>  <a_acid>
0

>  <a_aro>
5

>  <a_base>
0

>  <a_count>
20

>  <a_don>
0

>  <a_donacc>
3

>  <a_heavy>
10

>  <a_hyd>
5

>  <a_IC>
29.709505

>  <a_ICM>
1.4854753

>  <a_nB>
0

>  <a_nBr>
0

>  <a_nC>
6

>  <a_nCl>
0

>  <a_nF>
0

>  <a_nH>
10

>  <a_nI>
0

>  <a_nN>
4

>  <a_nO>
0

>  <a_nP>
0

>  <a_nS>
0

>  <balabanJ>
1.9733523

>  <BCUT_PEOE_0>
-2.588757

>  <BCUT_PEOE_1>
-0.51317066

>  <BCUT_PEOE_2>
0.39990363

>  <BCUT_PEOE_3>
2.6275117

>  <BCUT_SLOGP_0>
-2.4546163

>  <BCUT_SLOGP_1>
-0.41468292

>  <BCUT_SLOGP_2>
0.27191976

>  <BCUT_SLOGP_3>
2.7471209

>  <BCUT_SMR_0>
-2.3543186

>  <BCUT_SMR_1>
-0.37333933

>  <BCUT_SMR_2>
0.63819849

>  <BCUT_SMR_3>
2.8673553

>  <bpol>
12.91207

>  <b_1rotN>
0

>  <b_1rotR>
0

>  <b_ar>
5

>  <b_count>
21

>  <b_double>
0

>  <b_heavy>
11

>  <b_max1len>
2

>  <b_rotN>
0

>  <b_rotR>
0

>  <b_single>
16

>  <b_triple>
0

>  <chi0>
6.8115549

>  <chi0v>
5.8243885

>  <chi0v_C>
4.0355339

>  <chi0_C>
4.112884

>  <chi1>
4.9663267

>  <chi1v>
3.7169948

>  <chi1v_C>
2.3535533

>  <chi1_C>
2.4082482

>  <chiral>
0

>  <chiral_u>
0

>  <density>
0.75751984

>  <diameter>
5

>  <FCharge>
0

>  <GCUT_PEOE_0>
-0.79715151

>  <GCUT_PEOE_1>
-0.34018907

>  <GCUT_PEOE_2>
-0.051697168

>  <GCUT_PEOE_3>
2.3540883

>  <GCUT_SLOGP_0>
-0.95310581

>  <GCUT_SLOGP_1>
-0.30533814

>  <GCUT_SLOGP_2>
-0.037

>  <GCUT_SLOGP_3>
2.4224367

>  <GCUT_SMR_0>
-0.52960449

>  <GCUT_SMR_1>
-0.20295738

>  <GCUT_SMR_2>
0.16496623

>  <GCUT_SMR_3>
2.5766528

>  <Kier1>
6.6942148

>  <Kier2>
2.9387755

>  <Kier3>
1.3827161

>  <KierA1>
5.0944576

>  <KierA2>
2.1601584

>  <KierA3>
0.98765081

>  <KierFlex>
1.1004835

>  <lip_acc>
4

>  <lip_don>
0

>  <lip_druglike>
1

>  <lip_violation>
0

>  <logP(o/w)>
-0.072999999

>  <logS>
0.14952999

>  <mr>
3.7508814

>  <mutagenic>
0

>  <nmol>
1

>  <opr_brigid>
11

>  <opr_leadlike>
1

>  <opr_nring>
2

>  <opr_nrot>
2

>  <opr_violation>
0

>  <PC+>
0

>  <PC->
0

>  <PEOE_PC+>
0.53980583

>  <PEOE_PC->
-0.53980583

>  <PEOE_RPC+>
0.28034481

>  <PEOE_RPC->
0.4246017

>  <PEOE_VSA+0>
56.016727

>  <PEOE_VSA+1>
8.5307722

>  <PEOE_VSA+2>
0

>  <PEOE_VSA+3>
11.190562

>  <PEOE_VSA+4>
0

>  <PEOE_VSA+5>
0

>  <PEOE_VSA+6>
0

>  <PEOE_VSA-0>
43.721634

>  <PEOE_VSA-1>
8.701313

>  <PEOE_VSA-2>
9.4210396

>  <PEOE_VSA-3>
0

>  <PEOE_VSA-4>
0

>  <PEOE_VSA-5>
0

>  <PEOE_VSA-6>
0

>  <PEOE_VSA_FHYD>
1

>  <PEOE_VSA_FNEG>
0.44950622

>  <PEOE_VSA_FPNEG>
0

>  <PEOE_VSA_FPOL>
0

>  <PEOE_VSA_FPOS>
0.55049378

>  <PEOE_VSA_FPPOS>
0

>  <PEOE_VSA_HYD>
137.58205

>  <PEOE_VSA_NEG>
61.843987

>  <PEOE_VSA_PNEG>
0

>  <PEOE_VSA_POL>
0

>  <PEOE_VSA_POS>
75.73806

>  <PEOE_VSA_PPOS>
0

>  <petitjean>
0.40000001

>  <petitjeanSC>
0.66666669

>  <Q_PC+>
0

>  <Q_PC->
0

>  <Q_RPC+>
0

>  <Q_RPC->
0

>  <Q_VSA_FHYD>
1

>  <Q_VSA_FNEG>
0

>  <Q_VSA_FPNEG>
0

>  <Q_VSA_FPOL>
0

>  <Q_VSA_FPOS>
1

>  <Q_VSA_FPPOS>
0

>  <Q_VSA_HYD>
137.58205

>  <Q_VSA_NEG>
0

>  <Q_VSA_PNEG>
0

>  <Q_VSA_POL>
0

>  <Q_VSA_POS>
137.58205

>  <Q_VSA_PPOS>
0

>  <radius>
3

>  <reactive>
0

>  <rings>
2

>  <RPC+>
0

>  <RPC->
0

>  <rsynth>
1

>  <SlogP>
0.66587001

>  <SlogP_VSA0>
0

>  <SlogP_VSA1>
51.52055

>  <SlogP_VSA2>
0

>  <SlogP_VSA3>
0

>  <SlogP_VSA4>
2.3279202

>  <SlogP_VSA5>
18.868406

>  <SlogP_VSA6>
0

>  <SlogP_VSA7>
0

>  <SlogP_VSA8>
56.605217

>  <SlogP_VSA9>
18.439579

>  <SMR>
3.5576999

>  <SMR_VSA0>
0

>  <SMR_VSA1>
51.52055

>  <SMR_VSA2>
0

>  <SMR_VSA3>
2.3279202

>  <SMR_VSA4>
0

>  <SMR_VSA5>
93.9132

>  <SMR_VSA6>
0

>  <SMR_VSA7>
0

>  <TPSA>
43.599998

>  <VAdjEq>
0.76016748

>  <VAdjMa>
4.4594316

>  <VDistEq>
2.0480263

>  <VDistMa>
6.3449888

>  <vdw_area>
137.58205

>  <vdw_vol>
182.40314

>  <vsa_acc>
35.740047

>  <vsa_acid>
0

>  <vsa_base>
0

>  <vsa_don>
0

>  <vsa_hyd>
83.533485

>  <vsa_other>
11.190562

>  <vsa_pol>
35.740047

>  <Weight>
138.174

>  <weinerPath>
107

>  <weinerPol>
13

>  <zagreb>
50

$$$$