S(=O)(=O)(NC(=O)CC)c1ccc(cc1)-c1c(noc1C)-c1ccccc1
  MOE2013           2D

 26 28  0  0  0  0  0  0  0  0999 V2000
    0.0000    0.0000    0.0000 S   0  0  0  0  0  0  0  0  0  0  0  0
   -0.7590    1.2940    0.0000 O   0  0  0  0  0  0  0  0  0  0  0  0
    0.7590   -1.2940    0.0000 O   0  0  0  0  0  0  0  0  0  0  0  0
    1.2940    0.7590    0.0000 N   0  0  0  0  0  0  0  0  0  0  0  0
    2.5980    0.0180    0.0000 C   0  0  0  0  0  0  0  0  0  0  0  0
    2.6090   -1.4820    0.0000 O   0  0  0  0  0  0  0  0  0  0  0  0
    3.8920    0.7780    0.0000 C   0  0  0  0  0  0  0  0  0  0  0  0
    5.1960    0.0370    0.0000 C   0  0  0  0  0  0  0  0  0  0  0  0
   -1.2940   -0.7590    0.0000 C   0  0  0  0  0  0  0  0  0  0  0  0
   -1.2830   -2.2590    0.0000 C   0  0  0  0  0  0  0  0  0  0  0  0
   -2.5770   -3.0180    0.0000 C   0  0  0  0  0  0  0  0  0  0  0  0
   -3.8810   -2.2770    0.0000 C   0  0  0  0  0  0  0  0  0  0  0  0
   -3.8920   -0.7780    0.0000 C   0  0  0  0  0  0  0  0  0  0  0  0
   -2.5980   -0.0180    0.0000 C   0  0  0  0  0  0  0  0  0  0  0  0
   -5.1750   -3.0370    0.0000 C   0  0  0  0  0  0  0  0  0  0  0  0
   -6.5490   -2.4360    0.0000 C   0  0  0  0  0  0  0  0  0  0  0  0
   -7.5450   -3.5580    0.0000 N   0  0  0  0  0  0  0  0  0  0  0  0
   -6.7860   -4.8520    0.0000 O   0  0  0  0  0  0  0  0  0  0  0  0
   -5.3210   -4.5290    0.0000 C   0  0  0  0  0  0  0  0  0  0  0  0
   -4.1990   -5.5250    0.0000 C   0  0  0  0  0  0  0  0  0  0  0  0
   -6.8720   -0.9710    0.0000 C   0  0  0  0  0  0  0  0  0  0  0  0
   -8.3010   -0.5180    0.0000 C   0  0  0  0  0  0  0  0  0  0  0  0
   -8.6240    0.9470    0.0000 C   0  0  0  0  0  0  0  0  0  0  0  0
   -7.5160    1.9590    0.0000 C   0  0  0  0  0  0  0  0  0  0  0  0
   -6.0860    1.5050    0.0000 C   0  0  0  0  0  0  0  0  0  0  0  0
   -5.7640    0.0400    0.0000 C   0  0  0  0  0  0  0  0  0  0  0  0
  1  2  2  0  0  0  0
  1  3  2  0  0  0  0
  1  4  1  0  0  0  0
  1  9  1  0  0  0  0
  4  5  1  0  0  0  0
  5  6  2  0  0  0  0
  5  7  1  0  0  0  0
  7  8  1  0  0  0  0
  9 10  1  0  0  0  0
  9 14  2  0  0  0  0
 10 11  2  0  0  0  0
 11 12  1  0  0  0  0
 12 13  2  0  0  0  0
 12 15  1  0  0  0  0
 13 14  1  0  0  0  0
 15 16  1  0  0  0  0
 15 19  2  0  0  0  0
 16 17  2  0  0  0  0
 16 21  1  0  0  0  0
 17 18  1  0  0  0  0
 18 19  1  0  0  0  0
 19 20  1  0  0  0  0
 21 22  1  0  0  0  0
 21 26  2  0  0  0  0
 22 23  2  0  0  0  0
 23 24  1  0  0  0  0
 24 25  2  0  0  0  0
 25 26  1  0  0  0  0
M  END
>  <Index>
816

>  <ID>
HT1594

>  <class>
0

>  <apol>
53.750275

>  <ast_fraglike>
0

>  <ast_fraglike_ext>
0

>  <ast_violation>
3

>  <ast_violation_ext>
5

>  <a_acc>
4

>  <a_acid>
0

>  <a_aro>
17

>  <a_base>
0

>  <a_count>
44

>  <a_don>
1

>  <a_donacc>
5

>  <a_heavy>
26

>  <a_hyd>
17

>  <a_IC>
74.445717

>  <a_ICM>
1.6919482

>  <a_nB>
0

>  <a_nBr>
0

>  <a_nC>
19

>  <a_nCl>
0

>  <a_nF>
0

>  <a_nH>
18

>  <a_nI>
0

>  <a_nN>
2

>  <a_nO>
4

>  <a_nP>
0

>  <a_nS>
1

>  <balabanJ>
1.5772488

>  <BCUT_PEOE_0>
-2.4479291

>  <BCUT_PEOE_1>
-0.64052343

>  <BCUT_PEOE_2>
0.65751863

>  <BCUT_PEOE_3>
2.4694195

>  <BCUT_SLOGP_0>
-2.5938847

>  <BCUT_SLOGP_1>
-0.53107637

>  <BCUT_SLOGP_2>
0.77832276

>  <BCUT_SLOGP_3>
2.4820027

>  <BCUT_SMR_0>
-2.1649668

>  <BCUT_SMR_1>
-0.46460992

>  <BCUT_SMR_2>
0.85431087

>  <BCUT_SMR_3>
2.7940929

>  <bpol>
29.687725

>  <b_1rotN>
5

>  <b_1rotR>
0.17857143

>  <b_ar>
17

>  <b_count>
46

>  <b_double>
1

>  <b_heavy>
28

>  <b_max1len>
3

>  <b_rotN>
6

>  <b_rotR>
0.21428572

>  <b_single>
28

>  <b_triple>
0

>  <chi0>
18.733841

>  <chi0v>
15.208211

>  <chi0v_C>
11.403259

>  <chi0_C>
13.112519

>  <chi1>
12.419852

>  <chi1v>
9.5818853

>  <chi1v_C>
6.2927108

>  <chi1_C>
8.4755287

>  <chiral>
0

>  <chiral_u>
0

>  <density>
0.7878933

>  <diameter>
14

>  <FCharge>
0

>  <GCUT_PEOE_0>
-0.82058841

>  <GCUT_PEOE_1>
-0.37819964

>  <GCUT_PEOE_2>
0.05334647

>  <GCUT_PEOE_3>
2.555805

>  <GCUT_SLOGP_0>
-1.1436262

>  <GCUT_SLOGP_1>
-0.345227

>  <GCUT_SLOGP_2>
0.15630269

>  <GCUT_SLOGP_3>
2.6594906

>  <GCUT_SMR_0>
-0.50896287

>  <GCUT_SMR_1>
-0.20894359

>  <GCUT_SMR_2>
0.19305076

>  <GCUT_SMR_3>
2.8403907

>  <Kier1>
20.727041

>  <Kier2>
9

>  <Kier3>
4.8994083

>  <KierA1>
16.007137

>  <KierA2>
6.8736887

>  <KierA3>
3.7122064

>  <KierFlex>
4.2318492

>  <lip_acc>
6

>  <lip_don>
1

>  <lip_druglike>
1

>  <lip_violation>
0

>  <logP(o/w)>
3.6129999

>  <logS>
-5.8004899

>  <mr>
10.120292

>  <mutagenic>
0

>  <nmol>
1

>  <opr_brigid>
17

>  <opr_leadlike>
1

>  <opr_nring>
3

>  <opr_nrot>
4

>  <opr_violation>
0

>  <PC+>
0

>  <PC->
0

>  <PEOE_PC+>
1.8812193

>  <PEOE_PC->
-1.8812193

>  <PEOE_RPC+>
0.16249326

>  <PEOE_RPC->
0.29516014

>  <PEOE_VSA+0>
60.841434

>  <PEOE_VSA+1>
53.546543

>  <PEOE_VSA+2>
23.777084

>  <PEOE_VSA+3>
10.105608

>  <PEOE_VSA+4>
0

>  <PEOE_VSA+5>
0

>  <PEOE_VSA+6>
4.1846013

>  <PEOE_VSA-0>
54.167339

>  <PEOE_VSA-1>
90.907455

>  <PEOE_VSA-2>
32.016521

>  <PEOE_VSA-3>
2.5295215

>  <PEOE_VSA-4>
0

>  <PEOE_VSA-5>
0

>  <PEOE_VSA-6>
19.46928

>  <PEOE_VSA_FHYD>
0.93271458

>  <PEOE_VSA_FNEG>
0.56632835

>  <PEOE_VSA_FPNEG>
0.05538198

>  <PEOE_VSA_FPOL>
0.067285426

>  <PEOE_VSA_FPOS>
0.43367165

>  <PEOE_VSA_FPPOS>
0.011903445

>  <PEOE_VSA_HYD>
327.89151

>  <PEOE_VSA_NEG>
199.09012

>  <PEOE_VSA_PNEG>
19.46928

>  <PEOE_VSA_POL>
23.653881

>  <PEOE_VSA_POS>
152.45528

>  <PEOE_VSA_PPOS>
4.1846013

>  <petitjean>
0.5

>  <petitjeanSC>
1

>  <Q_PC+>
0

>  <Q_PC->
0

>  <Q_RPC+>
0

>  <Q_RPC->
0

>  <Q_VSA_FHYD>
1

>  <Q_VSA_FNEG>
0

>  <Q_VSA_FPNEG>
0

>  <Q_VSA_FPOL>
0

>  <Q_VSA_FPOS>
1

>  <Q_VSA_FPPOS>
0

>  <Q_VSA_HYD>
351.54541

>  <Q_VSA_NEG>
0

>  <Q_VSA_PNEG>
0

>  <Q_VSA_POL>
0

>  <Q_VSA_POS>
351.54541

>  <Q_VSA_PPOS>
0

>  <radius>
7

>  <reactive>
0

>  <rings>
3

>  <RPC+>
0

>  <RPC->
0

>  <rsynth>
1

>  <SlogP>
3.53192

>  <SlogP_VSA0>
16.404997

>  <SlogP_VSA1>
73.027069

>  <SlogP_VSA2>
30.502958

>  <SlogP_VSA3>
0

>  <SlogP_VSA4>
5.4488211

>  <SlogP_VSA5>
11.284855

>  <SlogP_VSA6>
0

>  <SlogP_VSA7>
171.10213

>  <SlogP_VSA8>
18.868406

>  <SlogP_VSA9>
66.652031

>  <SMR>
9.7731504

>  <SMR_VSA0>
81.768028

>  <SMR_VSA1>
19.596598

>  <SMR_VSA2>
17.955732

>  <SMR_VSA3>
5.4488211

>  <SMR_VSA4>
12.313473

>  <SMR_VSA5>
177.65706

>  <SMR_VSA6>
5.2587838

>  <SMR_VSA7>
73.29277

>  <TPSA>
89.269997

>  <VAdjEq>
0.41210872

>  <VAdjMa>
5.8073549

>  <VDistEq>
3.525708

>  <VDistMa>
9.0942478

>  <vdw_area>
351.54541

>  <vdw_vol>
470.15121

>  <vsa_acc>
56.468704

>  <vsa_acid>
0

>  <vsa_base>
0

>  <vsa_don>
8.0752068

>  <vsa_hyd>
234.41162

>  <vsa_other>
37.416019

>  <vsa_pol>
64.543915

>  <Weight>
370.42899

>  <weinerPath>
1751

>  <weinerPol>
41

>  <zagreb>
136

$$$$