O(C)c1ccc(cc1C(=O)NCc1cccnc1)C(=O)NCc1cccnc1
  MOE2013           2D

 28 30  0  0  0  0  0  0  0  0999 V2000
    0.0000    0.0000    0.0000 O   0  0  0  0  0  0  0  0  0  0  0  0
    0.7410    1.3040    0.0000 C   0  0  0  0  0  0  0  0  0  0  0  0
    0.7590   -1.2940    0.0000 C   0  0  0  0  0  0  0  0  0  0  0  0
    2.2590   -1.2830    0.0000 C   0  0  0  0  0  0  0  0  0  0  0  0
    3.0180   -2.5770    0.0000 C   0  0  0  0  0  0  0  0  0  0  0  0
    2.2770   -3.8810    0.0000 C   0  0  0  0  0  0  0  0  0  0  0  0
    0.7770   -3.8920    0.0000 C   0  0  0  0  0  0  0  0  0  0  0  0
    0.0180   -2.5980    0.0000 C   0  0  0  0  0  0  0  0  0  0  0  0
   -1.4820   -2.6080    0.0000 C   0  0  0  0  0  0  0  0  0  0  0  0
   -2.2410   -1.3150    0.0000 O   0  0  0  0  0  0  0  0  0  0  0  0
   -2.2230   -3.9130    0.0000 N   0  0  0  0  0  0  0  0  0  0  0  0
   -3.7230   -3.9230    0.0000 C   0  0  0  0  0  0  0  0  0  0  0  0
   -4.4640   -5.2270    0.0000 C   0  0  0  0  0  0  0  0  0  0  0  0
   -5.9640   -5.2380    0.0000 C   0  0  0  0  0  0  0  0  0  0  0  0
   -6.7050   -6.5420    0.0000 C   0  0  0  0  0  0  0  0  0  0  0  0
   -5.9460   -7.8360    0.0000 C   0  0  0  0  0  0  0  0  0  0  0  0
   -4.4460   -7.8250    0.0000 N   0  0  0  0  0  0  0  0  0  0  0  0
   -3.7050   -6.5210    0.0000 C   0  0  0  0  0  0  0  0  0  0  0  0
    3.0360   -5.1750    0.0000 C   0  0  0  0  0  0  0  0  0  0  0  0
    2.2950   -6.4790    0.0000 O   0  0  0  0  0  0  0  0  0  0  0  0
    4.5360   -5.1650    0.0000 N   0  0  0  0  0  0  0  0  0  0  0  0
    5.2950   -6.4580    0.0000 C   0  0  0  0  0  0  0  0  0  0  0  0
    6.7950   -6.4480    0.0000 C   0  0  0  0  0  0  0  0  0  0  0  0
    7.5540   -7.7420    0.0000 C   0  0  0  0  0  0  0  0  0  0  0  0
    9.0540   -7.7310    0.0000 C   0  0  0  0  0  0  0  0  0  0  0  0
    9.7950   -6.4270    0.0000 C   0  0  0  0  0  0  0  0  0  0  0  0
    9.0360   -5.1330    0.0000 N   0  0  0  0  0  0  0  0  0  0  0  0
    7.5360   -5.1440    0.0000 C   0  0  0  0  0  0  0  0  0  0  0  0
  1  2  1  0  0  0  0
  1  3  1  0  0  0  0
  3  4  1  0  0  0  0
  3  8  2  0  0  0  0
  4  5  2  0  0  0  0
  5  6  1  0  0  0  0
  6  7  2  0  0  0  0
  6 19  1  0  0  0  0
  7  8  1  0  0  0  0
  8  9  1  0  0  0  0
  9 10  2  0  0  0  0
  9 11  1  0  0  0  0
 11 12  1  0  0  0  0
 12 13  1  0  0  0  0
 13 14  1  0  0  0  0
 13 18  2  0  0  0  0
 14 15  2  0  0  0  0
 15 16  1  0  0  0  0
 16 17  2  0  0  0  0
 17 18  1  0  0  0  0
 19 20  2  0  0  0  0
 19 21  1  0  0  0  0
 21 22  1  0  0  0  0
 22 23  1  0  0  0  0
 23 24  1  0  0  0  0
 23 28  2  0  0  0  0
 24 25  2  0  0  0  0
 25 26  1  0  0  0  0
 26 27  2  0  0  0  0
 27 28  1  0  0  0  0
M  END
>  <Index>
861

>  <ID>
HT1669

>  <class>
0

>  <apol>
57.10186

>  <ast_fraglike>
0

>  <ast_fraglike_ext>
0

>  <ast_violation>
2

>  <ast_violation_ext>
3

>  <a_acc>
5

>  <a_acid>
0

>  <a_aro>
18

>  <a_base>
0

>  <a_count>
48

>  <a_don>
2

>  <a_donacc>
7

>  <a_heavy>
28

>  <a_hyd>
19

>  <a_IC>
76.646088

>  <a_ICM>
1.5967934

>  <a_nB>
0

>  <a_nBr>
0

>  <a_nC>
21

>  <a_nCl>
0

>  <a_nF>
0

>  <a_nH>
20

>  <a_nI>
0

>  <a_nN>
4

>  <a_nO>
3

>  <a_nP>
0

>  <a_nS>
0

>  <balabanJ>
1.4501843

>  <BCUT_PEOE_0>
-2.40258

>  <BCUT_PEOE_1>
-0.58835882

>  <BCUT_PEOE_2>
0.65007102

>  <BCUT_PEOE_3>
2.3711653

>  <BCUT_SLOGP_0>
-2.4924371

>  <BCUT_SLOGP_1>
-0.51808447

>  <BCUT_SLOGP_2>
0.73024589

>  <BCUT_SLOGP_3>
2.4155872

>  <BCUT_SMR_0>
-2.1000755

>  <BCUT_SMR_1>
-0.44768941

>  <BCUT_SMR_2>
0.78933167

>  <BCUT_SMR_3>
2.6701536

>  <bpol>
29.656139

>  <b_1rotN>
7

>  <b_1rotR>
0.23333333

>  <b_ar>
18

>  <b_count>
50

>  <b_double>
2

>  <b_heavy>
30

>  <b_max1len>
3

>  <b_rotN>
9

>  <b_rotR>
0.30000001

>  <b_single>
30

>  <b_triple>
0

>  <chi0>
19.769375

>  <chi0v>
15.384238

>  <chi0v_C>
12.265066

>  <chi0_C>
14.23384

>  <chi1>
13.669035

>  <chi1v>
8.6936979

>  <chi1v_C>
5.4331746

>  <chi1_C>
7.5824828

>  <chiral>
0

>  <chiral_u>
0

>  <density>
0.74038506

>  <diameter>
16

>  <FCharge>
0

>  <GCUT_PEOE_0>
-0.8301273

>  <GCUT_PEOE_1>
-0.44594261

>  <GCUT_PEOE_2>
0.090420187

>  <GCUT_PEOE_3>
2.5039048

>  <GCUT_SLOGP_0>
-1.132334

>  <GCUT_SLOGP_1>
-0.33689412

>  <GCUT_SLOGP_2>
0.15769531

>  <GCUT_SLOGP_3>
2.565578

>  <GCUT_SMR_0>
-0.48517939

>  <GCUT_SMR_1>
-0.21454535

>  <GCUT_SMR_2>
0.18116727

>  <GCUT_SMR_3>
2.7853405

>  <Kier1>
22.68

>  <Kier2>
12

>  <Kier3>
7.038734

>  <KierA1>
15.30006

>  <KierA2>
7.9665651

>  <KierA3>
4.6197443

>  <KierFlex>
4.3531756

>  <lip_acc>
7

>  <lip_don>
2

>  <lip_druglike>
1

>  <lip_violation>
0

>  <logP(o/w)>
1.605

>  <logS>
-2.74704

>  <mr>
10.762917

>  <mutagenic>
0

>  <nmol>
1

>  <opr_brigid>
18

>  <opr_leadlike>
1

>  <opr_nring>
3

>  <opr_nrot>
7

>  <opr_violation>
0

>  <PC+>
0

>  <PC->
0

>  <PEOE_PC+>
2.4307368

>  <PEOE_PC->
-2.4307368

>  <PEOE_RPC+>
0.10482775

>  <PEOE_RPC->
0.14314865

>  <PEOE_VSA+0>
120.57451

>  <PEOE_VSA+1>
87.444008

>  <PEOE_VSA+2>
0

>  <PEOE_VSA+3>
17.238026

>  <PEOE_VSA+4>
0

>  <PEOE_VSA+5>
25.899061

>  <PEOE_VSA+6>
0

>  <PEOE_VSA-0>
65.691597

>  <PEOE_VSA-1>
24.509808

>  <PEOE_VSA-2>
0

>  <PEOE_VSA-3>
0

>  <PEOE_VSA-4>
0

>  <PEOE_VSA-5>
38.498993

>  <PEOE_VSA-6>
2.7775381

>  <PEOE_VSA_FHYD>
0.82443881

>  <PEOE_VSA_FNEG>
0.34361321

>  <PEOE_VSA_FPNEG>
0.10787484

>  <PEOE_VSA_FPOL>
0.17556117

>  <PEOE_VSA_FPOS>
0.65638679

>  <PEOE_VSA_FPPOS>
0.067686334

>  <PEOE_VSA_HYD>
315.45795

>  <PEOE_VSA_NEG>
131.47794

>  <PEOE_VSA_PNEG>
41.276531

>  <PEOE_VSA_POL>
67.175591

>  <PEOE_VSA_POS>
251.15561

>  <PEOE_VSA_PPOS>
25.899061

>  <petitjean>
0.5

>  <petitjeanSC>
1

>  <Q_PC+>
0

>  <Q_PC->
0

>  <Q_RPC+>
0

>  <Q_RPC->
0

>  <Q_VSA_FHYD>
1

>  <Q_VSA_FNEG>
0

>  <Q_VSA_FPNEG>
0

>  <Q_VSA_FPOL>
0

>  <Q_VSA_FPOS>
1

>  <Q_VSA_FPPOS>
0

>  <Q_VSA_HYD>
382.63354

>  <Q_VSA_NEG>
0

>  <Q_VSA_PNEG>
0

>  <Q_VSA_POL>
0

>  <Q_VSA_POS>
382.63354

>  <Q_VSA_PPOS>
0

>  <radius>
8

>  <reactive>
0

>  <rings>
3

>  <RPC+>
0

>  <RPC->
0

>  <rsynth>
1

>  <SlogP>
2.878

>  <SlogP_VSA0>
47.021389

>  <SlogP_VSA1>
44.088627

>  <SlogP_VSA2>
0

>  <SlogP_VSA3>
0

>  <SlogP_VSA4>
60.466732

>  <SlogP_VSA5>
35.383869

>  <SlogP_VSA6>
0

>  <SlogP_VSA7>
192.35971

>  <SlogP_VSA8>
0

>  <SlogP_VSA9>
42.122585

>  <SMR>
10.42184

>  <SMR_VSA0>
47.724434

>  <SMR_VSA1>
44.570946

>  <SMR_VSA2>
36.0215

>  <SMR_VSA3>
17.985727

>  <SMR_VSA4>
0

>  <SMR_VSA5>
229.23888

>  <SMR_VSA6>
10.517568

>  <SMR_VSA7>
35.383869

>  <TPSA>
93.209999

>  <VAdjEq>
0.38983503

>  <VAdjMa>
5.9068904

>  <VDistEq>
3.7317321

>  <VDistMa>
9.3078461

>  <vdw_area>
382.63354

>  <vdw_vol>
508.40573

>  <vsa_acc>
41.00275

>  <vsa_acid>
0

>  <vsa_base>
0

>  <vsa_don>
11.365152

>  <vsa_hyd>
285.40759

>  <vsa_other>
25.899061

>  <vsa_pol>
52.367901

>  <Weight>
376.41599

>  <weinerPath>
2326

>  <weinerPol>
40

>  <zagreb>
138

$$$$