O=C1C=C2CC[C@@H]3[C@@H]([C@]2(C=C1)C)[C@@H](O)C[C@]1([C@H]3CC[C@]1(O)C(=O)COC(=O)C)C
  MOE2013           2D

 29 32  0  0  1  0  0  0  0  0999 V2000
    0.0000    0.0000    0.0000 O   0  0  0  0  0  0  0  0  0  0  0  0
    1.5000   -0.0040    0.0000 C   0  0  0  0  0  0  0  0  0  0  0  0
    2.2470   -1.3050    0.0000 C   0  0  0  0  0  0  0  0  0  0  0  0
    3.7470   -1.3090    0.0000 C   0  0  0  0  0  0  0  0  0  0  0  0
    4.4930   -2.6100    0.0000 C   0  0  0  0  0  0  0  0  0  0  0  0
    5.9930   -2.6140    0.0000 C   0  0  0  0  0  0  0  0  0  0  0  0
    6.7470   -1.3170    0.0000 C   0  0  2  0  0  0  0  0  0  0  0  0
    6.0000   -0.0160    0.0000 C   0  0  1  0  0  0  0  0  0  0  0  0
    4.5000   -0.0120    0.0000 C   0  0  1  0  0  0  0  0  0  0  0  0
    3.7530    1.2890    0.0000 C   0  0  0  0  0  0  0  0  0  0  0  0
    2.2530    1.2930    0.0000 C   0  0  0  0  0  0  0  0  0  0  0  0
    3.0010   -0.0600    0.0000 C   0  0  0  0  0  0  0  0  0  0  0  0
    6.7530    1.2810    0.0000 C   0  0  1  0  0  0  0  0  0  0  0  0
    6.0070    2.5820    0.0000 O   0  0  0  0  0  0  0  0  0  0  0  0
    8.2530    1.2780    0.0000 C   0  0  0  0  0  0  0  0  0  0  0  0
    9.0000   -0.0230    0.0000 C   0  0  1  0  0  0  0  0  0  0  0  0
    8.2470   -1.3210    0.0000 C   0  0  1  0  0  0  0  0  0  0  0  0
    9.2470   -2.4380    0.0000 C   0  0  0  0  0  0  0  0  0  0  0  0
   10.6190   -1.8310    0.0000 C   0  0  0  0  0  0  0  0  0  0  0  0
   10.4660   -0.3390    0.0000 C   0  0  1  0  0  0  0  0  0  0  0  0
   10.8960    1.0980    0.0000 O   0  0  0  0  0  0  0  0  0  0  0  0
   11.9420   -0.0700    0.0000 C   0  0  0  0  0  0  0  0  0  0  0  0
   12.4460    1.3430    0.0000 O   0  0  0  0  0  0  0  0  0  0  0  0
   12.9130   -1.2130    0.0000 C   0  0  0  0  0  0  0  0  0  0  0  0
   14.3890   -0.9430    0.0000 O   0  0  0  0  0  0  0  0  0  0  0  0
   15.3600   -2.0860    0.0000 C   0  0  0  0  0  0  0  0  0  0  0  0
   14.8560   -3.4990    0.0000 O   0  0  0  0  0  0  0  0  0  0  0  0
   16.8360   -1.8170    0.0000 C   0  0  0  0  0  0  0  0  0  0  0  0
    9.9270    1.1560    0.0000 C   0  0  0  0  0  0  0  0  0  0  0  0
  1  2  2  0  0  0  0
  2  3  1  0  0  0  0
  2 11  1  0  0  0  0
  3  4  2  0  0  0  0
  4  5  1  0  0  0  0
  4  9  1  0  0  0  0
  5  6  1  0  0  0  0
  7  6  1  6  0  0  0
  7  8  1  0  0  0  0
  7 17  1  0  0  0  0
  8  9  1  0  0  0  0
  8 13  1  1  0  0  0
  9 10  1  0  0  0  0
  9 12  1  1  0  0  0
 10 11  2  0  0  0  0
 13 14  1  1  0  0  0
 13 15  1  0  0  0  0
 15 16  1  0  0  0  0
 16 17  1  0  0  0  0
 16 20  1  0  0  0  0
 16 29  1  1  0  0  0
 17 18  1  1  0  0  0
 18 19  1  0  0  0  0
 19 20  1  0  0  0  0
 20 21  1  6  0  0  0
 20 22  1  1  0  0  0
 22 23  2  0  0  0  0
 22 24  1  0  0  0  0
 24 25  1  0  0  0  0
 25 26  1  0  0  0  0
 26 27  2  0  0  0  0
 26 28  1  0  0  0  0
M  END
>  <Index>
894

>  <ID>
HT1731

>  <class>
0

>  <apol>
65.295792

>  <ast_fraglike>
0

>  <ast_fraglike_ext>
0

>  <ast_violation>
2

>  <ast_violation_ext>
3

>  <a_acc>
5

>  <a_acid>
0

>  <a_aro>
0

>  <a_base>
0

>  <a_count>
59

>  <a_don>
2

>  <a_donacc>
7

>  <a_heavy>
29

>  <a_hyd>
20

>  <a_IC>
80.31752

>  <a_ICM>
1.3613139

>  <a_nB>
0

>  <a_nBr>
0

>  <a_nC>
23

>  <a_nCl>
0

>  <a_nF>
0

>  <a_nH>
30

>  <a_nI>
0

>  <a_nN>
0

>  <a_nO>
6

>  <a_nP>
0

>  <a_nS>
0

>  <balabanJ>
1.6033398

>  <BCUT_PEOE_0>
-2.9211445

>  <BCUT_PEOE_1>
-0.49436522

>  <BCUT_PEOE_2>
0.48861822

>  <BCUT_PEOE_3>
2.9750736

>  <BCUT_SLOGP_0>
-2.8993154

>  <BCUT_SLOGP_1>
-0.44244498

>  <BCUT_SLOGP_2>
0.48498726

>  <BCUT_SLOGP_3>
3.0055995

>  <BCUT_SMR_0>
-2.6753659

>  <BCUT_SMR_1>
-0.33699194

>  <BCUT_SMR_2>
0.62740517

>  <BCUT_SMR_3>
3.2150242

>  <bpol>
37.586208

>  <b_1rotN>
3

>  <b_1rotR>
0.09375

>  <b_ar>
0

>  <b_count>
62

>  <b_double>
5

>  <b_heavy>
32

>  <b_max1len>
5

>  <b_rotN>
4

>  <b_rotR>
0.125

>  <b_single>
57

>  <b_triple>
0

>  <chi0>
21.189871

>  <chi0v>
17.311512

>  <chi0v_C>
14.784093

>  <chi0_C>
15.482763

>  <chi1>
13.526346

>  <chi1v>
10.54132

>  <chi1v_C>
8.9543428

>  <chi1_C>
9.8086977

>  <chiral>
7

>  <chiral_u>
0

>  <density>
0.7458688

>  <diameter>
14

>  <FCharge>
0

>  <GCUT_PEOE_0>
-0.80053246

>  <GCUT_PEOE_1>
-0.38709122

>  <GCUT_PEOE_2>
0.019895718

>  <GCUT_PEOE_3>
3.331646

>  <GCUT_SLOGP_0>
-0.94062698

>  <GCUT_SLOGP_1>
-0.33465534

>  <GCUT_SLOGP_2>
-0.00014097495

>  <GCUT_SLOGP_3>
3.3698156

>  <GCUT_SMR_0>
-0.53693348

>  <GCUT_SMR_1>
-0.21579562

>  <GCUT_SMR_2>
0.14356489

>  <GCUT_SMR_3>
3.555871

>  <Kier1>
22.203125

>  <Kier2>
7.5488167

>  <Kier3>
3.2770083

>  <KierA1>
19.028486

>  <KierA2>
6.4320493

>  <KierA3>
2.7802992

>  <KierFlex>
4.2204194

>  <lip_acc>
6

>  <lip_don>
2

>  <lip_druglike>
1

>  <lip_violation>
0

>  <logP(o/w)>
2.3670001

>  <logS>
-3.9749701

>  <mr>
10.609186

>  <mutagenic>
0

>  <nmol>
1

>  <opr_brigid>
20

>  <opr_leadlike>
1

>  <opr_nring>
4

>  <opr_nrot>
3

>  <opr_violation>
0

>  <PC+>
0

>  <PC->
0

>  <PEOE_PC+>
2.4084148

>  <PEOE_PC->
-2.4084148

>  <PEOE_RPC+>
0.10771833

>  <PEOE_RPC->
0.16253239

>  <PEOE_VSA+0>
112.58617

>  <PEOE_VSA+1>
30.497244

>  <PEOE_VSA+2>
14.951293

>  <PEOE_VSA+3>
16.917038

>  <PEOE_VSA+4>
20.648346

>  <PEOE_VSA+5>
14.708499

>  <PEOE_VSA+6>
0

>  <PEOE_VSA-0>
68.016373

>  <PEOE_VSA-1>
51.958797

>  <PEOE_VSA-2>
0

>  <PEOE_VSA-3>
0

>  <PEOE_VSA-4>
0

>  <PEOE_VSA-5>
40.700764

>  <PEOE_VSA-6>
18.038837

>  <PEOE_VSA_FHYD>
0.75812137

>  <PEOE_VSA_FNEG>
0.45939341

>  <PEOE_VSA_FPNEG>
0.15099247

>  <PEOE_VSA_FPOL>
0.24187864

>  <PEOE_VSA_FPOS>
0.54060656

>  <PEOE_VSA_FPPOS>
0.090886176

>  <PEOE_VSA_HYD>
294.92691

>  <PEOE_VSA_NEG>
178.71477

>  <PEOE_VSA_PNEG>
58.739597

>  <PEOE_VSA_POL>
94.096443

>  <PEOE_VSA_POS>
210.30859

>  <PEOE_VSA_PPOS>
35.356846

>  <petitjean>
0.5

>  <petitjeanSC>
1

>  <Q_PC+>
0

>  <Q_PC->
0

>  <Q_RPC+>
0

>  <Q_RPC->
0

>  <Q_VSA_FHYD>
1

>  <Q_VSA_FNEG>
0

>  <Q_VSA_FPNEG>
0

>  <Q_VSA_FPOL>
0

>  <Q_VSA_FPOS>
1

>  <Q_VSA_FPPOS>
0

>  <Q_VSA_HYD>
389.02338

>  <Q_VSA_NEG>
0

>  <Q_VSA_PNEG>
0

>  <Q_VSA_POL>
0

>  <Q_VSA_POS>
389.02338

>  <Q_VSA_PPOS>
0

>  <radius>
7

>  <reactive>
1

>  <rings>
4

>  <RPC+>
0

>  <RPC->
0

>  <rsynth>
1

>  <SlogP>
2.1284001

>  <SlogP_VSA0>
50.770454

>  <SlogP_VSA1>
19.120686

>  <SlogP_VSA2>
89.055183

>  <SlogP_VSA3>
20.926258

>  <SlogP_VSA4>
13.232388

>  <SlogP_VSA5>
3.185575

>  <SlogP_VSA6>
0

>  <SlogP_VSA7>
52.929554

>  <SlogP_VSA8>
94.342026

>  <SlogP_VSA9>
99.978043

>  <SMR>
10.45956

>  <SMR_VSA0>
82.58654

>  <SMR_VSA1>
50.770454

>  <SMR_VSA2>
13.232388

>  <SMR_VSA3>
9.6542244

>  <SMR_VSA4>
0

>  <SMR_VSA5>
147.27158

>  <SMR_VSA6>
40.046944

>  <SMR_VSA7>
99.978043

>  <TPSA>
100.9

>  <VAdjEq>
0.38828552

>  <VAdjMa>
6

>  <VDistEq>
3.4160271

>  <VDistMa>
9.4304848

>  <vdw_area>
389.02338

>  <vdw_vol>
539.6217

>  <vsa_acc>
40.700764

>  <vsa_acid>
0

>  <vsa_base>
0

>  <vsa_don>
0

>  <vsa_hyd>
254.04446

>  <vsa_other>
34.129295

>  <vsa_pol>
67.834602

>  <Weight>
402.487

>  <weinerPath>
2039

>  <weinerPol>
62

>  <zagreb>
168

$$$$