O(C(=O)C(O)(C1CCCCC1)c1ccccc1)CC#CCN(CC)CC
  MOE2013           2D

 26 27  0  0  1  0  0  0  0  0999 V2000
    0.0000    0.0000    0.0000 O   0  0  0  0  0  0  0  0  0  0  0  0
   -1.2930    0.7600    0.0000 C   0  0  0  0  0  0  0  0  0  0  0  0
   -1.2810    2.2600    0.0000 O   0  0  0  0  0  0  0  0  0  0  0  0
   -2.5980    0.0210    0.0000 C   0  0  3  0  0  0  0  0  0  0  0  0
   -1.8580   -1.2840    0.0000 O   0  0  0  0  0  0  0  0  0  0  0  0
   -3.3380    1.3260    0.0000 C   0  0  0  0  0  0  0  0  0  0  0  0
   -2.5770    2.6190    0.0000 C   0  0  0  0  0  0  0  0  0  0  0  0
   -3.3170    3.9240    0.0000 C   0  0  0  0  0  0  0  0  0  0  0  0
   -4.8170    3.9350    0.0000 C   0  0  0  0  0  0  0  0  0  0  0  0
   -5.5770    2.6420    0.0000 C   0  0  0  0  0  0  0  0  0  0  0  0
   -4.8380    1.3370    0.0000 C   0  0  0  0  0  0  0  0  0  0  0  0
   -3.9030   -0.7190    0.0000 C   0  0  0  0  0  0  0  0  0  0  0  0
   -3.9150   -2.2190    0.0000 C   0  0  0  0  0  0  0  0  0  0  0  0
   -5.2200   -2.9590    0.0000 C   0  0  0  0  0  0  0  0  0  0  0  0
   -6.5130   -2.1980    0.0000 C   0  0  0  0  0  0  0  0  0  0  0  0
   -6.5010   -0.6980    0.0000 C   0  0  0  0  0  0  0  0  0  0  0  0
   -5.1960    0.0410    0.0000 C   0  0  0  0  0  0  0  0  0  0  0  0
    1.3050    0.7400    0.0000 C   0  0  0  0  0  0  0  0  0  0  0  0
    2.5980   -0.0210    0.0000 C   0  0  0  0  0  0  0  0  0  0  0  0
    3.8910   -0.7810    0.0000 C   0  0  0  0  0  0  0  0  0  0  0  0
    5.1840   -1.5410    0.0000 C   0  0  0  0  0  0  0  0  0  0  0  0
    6.4890   -0.8010    0.0000 N   0  0  0  0  0  0  0  0  0  0  0  0
    7.7820   -1.5620    0.0000 C   0  0  0  0  0  0  0  0  0  0  0  0
    7.7700   -3.0620    0.0000 C   0  0  0  0  0  0  0  0  0  0  0  0
    6.5010    0.6980    0.0000 C   0  0  0  0  0  0  0  0  0  0  0  0
    7.8060    1.4380    0.0000 C   0  0  0  0  0  0  0  0  0  0  0  0
  1  2  1  0  0  0  0
  1 18  1  0  0  0  0
  2  3  2  0  0  0  0
  2  4  1  0  0  0  0
  4  5  1  0  0  0  0
  4  6  1  0  0  0  0
  4 12  1  0  0  0  0
  6  7  1  0  0  0  0
  6 11  1  0  0  0  0
  7  8  1  0  0  0  0
  8  9  1  0  0  0  0
  9 10  1  0  0  0  0
 10 11  1  0  0  0  0
 12 13  1  0  0  0  0
 12 17  2  0  0  0  0
 13 14  2  0  0  0  0
 14 15  1  0  0  0  0
 15 16  2  0  0  0  0
 16 17  1  0  0  0  0
 18 19  1  0  0  0  0
 19 20  3  0  0  0  0
 20 21  1  0  0  0  0
 21 22  1  0  0  0  0
 22 23  1  0  0  0  0
 22 25  1  0  0  0  0
 23 24  1  0  0  0  0
 25 26  1  0  0  0  0
M  END
>  <Index>
803

>  <ID>
HT1565

>  <class>
0

>  <apol>
62.896584

>  <ast_fraglike>
0

>  <ast_fraglike_ext>
0

>  <ast_violation>
2

>  <ast_violation_ext>
3

>  <a_acc>
3

>  <a_acid>
0

>  <a_aro>
6

>  <a_base>
0

>  <a_count>
57

>  <a_don>
1

>  <a_donacc>
4

>  <a_heavy>
26

>  <a_hyd>
21

>  <a_IC>
76.032265

>  <a_ICM>
1.3338994

>  <a_nB>
0

>  <a_nBr>
0

>  <a_nC>
22

>  <a_nCl>
0

>  <a_nF>
0

>  <a_nH>
31

>  <a_nI>
0

>  <a_nN>
1

>  <a_nO>
3

>  <a_nP>
0

>  <a_nS>
0

>  <balabanJ>
1.8723011

>  <BCUT_PEOE_0>
-2.7979662

>  <BCUT_PEOE_1>
-0.47862205

>  <BCUT_PEOE_2>
0.4465698

>  <BCUT_PEOE_3>
2.7804563

>  <BCUT_SLOGP_0>
-2.6923892

>  <BCUT_SLOGP_1>
-0.40203729

>  <BCUT_SLOGP_2>
0.51628226

>  <BCUT_SLOGP_3>
2.8967831

>  <BCUT_SMR_0>
-2.5559909

>  <BCUT_SMR_1>
-0.22594847

>  <BCUT_SMR_2>
0.70568216

>  <BCUT_SMR_3>
3.0179532

>  <bpol>
38.743416

>  <b_1rotN>
9

>  <b_1rotR>
0.33333334

>  <b_ar>
6

>  <b_count>
58

>  <b_double>
1

>  <b_heavy>
27

>  <b_max1len>
6

>  <b_rotN>
10

>  <b_rotR>
0.37037036

>  <b_single>
50

>  <b_triple>
1

>  <chi0>
18.830215

>  <chi0v>
16.038986

>  <chi0v_C>
14.328063

>  <chi0_C>
15.545759

>  <chi1>
12.623575

>  <chi1v>
9.7563896

>  <chi1v_C>
7.8871756

>  <chi1_C>
9.4132318

>  <chiral>
1

>  <chiral_u>
1

>  <density>
0.67159915

>  <diameter>
13

>  <FCharge>
0

>  <GCUT_PEOE_0>
-0.84782517

>  <GCUT_PEOE_1>
-0.37243715

>  <GCUT_PEOE_2>
0.027316073

>  <GCUT_PEOE_3>
2.8158793

>  <GCUT_SLOGP_0>
-0.95390803

>  <GCUT_SLOGP_1>
-0.27577272

>  <GCUT_SLOGP_2>
0.083936237

>  <GCUT_SLOGP_3>
2.8935184

>  <GCUT_SMR_0>
-0.52965534

>  <GCUT_SMR_1>
-0.15613766

>  <GCUT_SMR_2>
0.1710455

>  <GCUT_SMR_3>
3.0478015

>  <Kier1>
22.29081

>  <Kier2>
11.755102

>  <Kier3>
6.2608695

>  <KierA1>
18.51314

>  <KierA2>
9.6862268

>  <KierA3>
5.1299276

>  <KierFlex>
6.8970175

>  <lip_acc>
4

>  <lip_don>
1

>  <lip_druglike>
1

>  <lip_violation>
0

>  <logP(o/w)>
4.79

>  <logS>
-5.2189898

>  <mr>
10.585919

>  <mutagenic>
0

>  <nmol>
1

>  <opr_brigid>
13

>  <opr_leadlike>
1

>  <opr_nring>
2

>  <opr_nrot>
11

>  <opr_violation>
1

>  <PC+>
0

>  <PC->
0

>  <PEOE_PC+>
2.0478394

>  <PEOE_PC->
-2.0478394

>  <PEOE_RPC+>
0.14642157

>  <PEOE_RPC->
0.18255416

>  <PEOE_VSA+0>
89.573105

>  <PEOE_VSA+1>
51.580799

>  <PEOE_VSA+2>
14.951293

>  <PEOE_VSA+3>
0

>  <PEOE_VSA+4>
10.324173

>  <PEOE_VSA+5>
14.708499

>  <PEOE_VSA+6>
0

>  <PEOE_VSA-0>
45.995815

>  <PEOE_VSA-1>
156.4908

>  <PEOE_VSA-2>
0

>  <PEOE_VSA-3>
0

>  <PEOE_VSA-4>
0

>  <PEOE_VSA-5>
16.070677

>  <PEOE_VSA-6>
7.7675405

>  <PEOE_VSA_FHYD>
0.88006043

>  <PEOE_VSA_FNEG>
0.55544919

>  <PEOE_VSA_FPNEG>
0.058504045

>  <PEOE_VSA_FPOL>
0.11993954

>  <PEOE_VSA_FPOS>
0.44455078

>  <PEOE_VSA_FPPOS>
0.061435491

>  <PEOE_VSA_HYD>
358.59183

>  <PEOE_VSA_NEG>
226.32483

>  <PEOE_VSA_PNEG>
23.838217

>  <PEOE_VSA_POL>
48.870888

>  <PEOE_VSA_POS>
181.13786

>  <PEOE_VSA_PPOS>
25.032671

>  <petitjean>
0.46153846

>  <petitjeanSC>
0.85714287

>  <Q_PC+>
0

>  <Q_PC->
0

>  <Q_RPC+>
0

>  <Q_RPC->
0

>  <Q_VSA_FHYD>
1

>  <Q_VSA_FNEG>
0

>  <Q_VSA_FPNEG>
0

>  <Q_VSA_FPOL>
0

>  <Q_VSA_FPOS>
1

>  <Q_VSA_FPPOS>
0

>  <Q_VSA_HYD>
407.46271

>  <Q_VSA_NEG>
0

>  <Q_VSA_PNEG>
0

>  <Q_VSA_POL>
0

>  <Q_VSA_POS>
407.46271

>  <Q_VSA_PPOS>
0

>  <radius>
7

>  <reactive>
0

>  <rings>
2

>  <RPC+>
0

>  <RPC->
0

>  <rsynth>
1

>  <SlogP>
3.654408

>  <SlogP_VSA0>
25.385227

>  <SlogP_VSA1>
10.869778

>  <SlogP_VSA2>
34.862103

>  <SlogP_VSA3>
110.30614

>  <SlogP_VSA4>
7.5963712

>  <SlogP_VSA5>
0

>  <SlogP_VSA6>
0

>  <SlogP_VSA7>
88.215919

>  <SlogP_VSA8>
94.342026

>  <SlogP_VSA9>
66.652031

>  <SMR>
10.35538

>  <SMR_VSA0>
34.862103

>  <SMR_VSA1>
28.509541

>  <SMR_VSA2>
4.4107962

>  <SMR_VSA3>
37.246723

>  <SMR_VSA4>
0

>  <SMR_VSA5>
182.55795

>  <SMR_VSA6>
83.990456

>  <SMR_VSA7>
66.652031

>  <TPSA>
49.77

>  <VAdjEq>
0.40176207

>  <VAdjMa>
5.7548876

>  <VDistEq>
3.5556591

>  <VDistMa>
9.0971508

>  <vdw_area>
407.46271

>  <vdw_vol>
532.30261

>  <vsa_acc>
13.566921

>  <vsa_acid>
0

>  <vsa_base>
0

>  <vsa_don>
0

>  <vsa_hyd>
335.89291

>  <vsa_other>
17.212255

>  <vsa_pol>
27.133842

>  <Weight>
357.49399

>  <weinerPath>
1833

>  <weinerPol>
40

>  <zagreb>
124

$$$$