O=C1N(N(C)C(=C1)C)c1ccccc1
  MOE2013           2D

 14 15  0  0  1  0  0  0  0  0999 V2000
    0.0000    0.0000    0.0000 O   0  0  0  0  0  0  0  0  0  0  0  0
    0.6290    1.3620    0.0000 C   0  0  0  0  0  0  0  0  0  0  0  0
   -0.1040    2.6710    0.0000 N   0  0  0  0  0  0  0  0  0  0  0  0
    0.9150    3.7720    0.0000 N   0  0  3  0  0  0  0  0  0  0  0  0
    0.6230    5.2430    0.0000 C   0  0  0  0  0  0  0  0  0  0  0  0
    2.2770    3.1430    0.0000 C   0  0  0  0  0  0  0  0  0  0  0  0
    2.1000    1.6540    0.0000 C   0  0  0  0  0  0  0  0  0  0  0  0
    3.5860    3.8760    0.0000 C   0  0  0  0  0  0  0  0  0  0  0  0
   -1.5930    2.8480    0.0000 C   0  0  0  0  0  0  0  0  0  0  0  0
   -2.4910    1.6460    0.0000 C   0  0  0  0  0  0  0  0  0  0  0  0
   -3.9810    1.8230    0.0000 C   0  0  0  0  0  0  0  0  0  0  0  0
   -4.5720    3.2020    0.0000 C   0  0  0  0  0  0  0  0  0  0  0  0
   -3.6740    4.4030    0.0000 C   0  0  0  0  0  0  0  0  0  0  0  0
   -2.1850    4.2260    0.0000 C   0  0  0  0  0  0  0  0  0  0  0  0
  1  2  2  0  0  0  0
  2  3  1  0  0  0  0
  2  7  1  0  0  0  0
  3  4  1  0  0  0  0
  3  9  1  0  0  0  0
  4  5  1  0  0  0  0
  4  6  1  0  0  0  0
  6  7  2  0  0  0  0
  6  8  1  0  0  0  0
  9 10  1  0  0  0  0
  9 14  2  0  0  0  0
 10 11  2  0  0  0  0
 11 12  1  0  0  0  0
 12 13  2  0  0  0  0
 13 14  1  0  0  0  0
M  END
>  <Index>
81

>  <ID>
HT0167

>  <class>
0

>  <apol>
30.363516

>  <ast_fraglike>
1

>  <ast_fraglike_ext>
1

>  <ast_violation>
0

>  <ast_violation_ext>
0

>  <a_acc>
1

>  <a_acid>
0

>  <a_aro>
6

>  <a_base>
0

>  <a_count>
26

>  <a_don>
0

>  <a_donacc>
1

>  <a_heavy>
14

>  <a_hyd>
10

>  <a_IC>
39.138134

>  <a_ICM>
1.5053129

>  <a_nB>
0

>  <a_nBr>
0

>  <a_nC>
11

>  <a_nCl>
0

>  <a_nF>
0

>  <a_nH>
12

>  <a_nI>
0

>  <a_nN>
2

>  <a_nO>
1

>  <a_nP>
0

>  <a_nS>
0

>  <balabanJ>
2.0237472

>  <BCUT_PEOE_0>
-2.4457886

>  <BCUT_PEOE_1>
-0.52845645

>  <BCUT_PEOE_2>
0.65356702

>  <BCUT_PEOE_3>
2.4528544

>  <BCUT_SLOGP_0>
-2.5251591

>  <BCUT_SLOGP_1>
-0.46693248

>  <BCUT_SLOGP_2>
0.66655129

>  <BCUT_SLOGP_3>
2.4593034

>  <BCUT_SMR_0>
-2.1358466

>  <BCUT_SMR_1>
-0.36508006

>  <BCUT_SMR_2>
0.80882454

>  <BCUT_SMR_3>
2.7715025

>  <bpol>
16.716484

>  <b_1rotN>
1

>  <b_1rotR>
0.06666667

>  <b_ar>
6

>  <b_count>
27

>  <b_double>
2

>  <b_heavy>
15

>  <b_max1len>
2

>  <b_rotN>
1

>  <b_rotR>
0.06666667

>  <b_single>
19

>  <b_triple>
0

>  <chi0>
10.129392

>  <chi0v>
8.266777

>  <chi0v_C>
6.9641018

>  <chi0_C>
7.9746914

>  <chi1>
6.6983771

>  <chi1v>
4.5101919

>  <chi1v_C>
2.9880338

>  <chi1_C>
4.2103434

>  <chiral>
0

>  <chiral_u>
0

>  <density>
0.70395142

>  <diameter>
7

>  <FCharge>
0

>  <GCUT_PEOE_0>
-0.84599674

>  <GCUT_PEOE_1>
-0.38083988

>  <GCUT_PEOE_2>
0.04880999

>  <GCUT_PEOE_3>
2.3278968

>  <GCUT_SLOGP_0>
-1.023582

>  <GCUT_SLOGP_1>
-0.30995849

>  <GCUT_SLOGP_2>
0.10136857

>  <GCUT_SLOGP_3>
2.3957412

>  <GCUT_SMR_0>
-0.49451387

>  <GCUT_SMR_1>
-0.20442577

>  <GCUT_SMR_2>
0.18134202

>  <GCUT_SMR_3>
2.6248901

>  <Kier1>
10.515555

>  <Kier2>
4.2448978

>  <Kier3>
2.0204082

>  <KierA1>
7.0165081

>  <KierA2>
2.733803

>  <KierA3>
1.2660744

>  <KierFlex>
1.3701252

>  <lip_acc>
3

>  <lip_don>
0

>  <lip_druglike>
1

>  <lip_violation>
0

>  <logP(o/w)>
1.351

>  <logS>
-1.98142

>  <mr>
5.5186868

>  <mutagenic>
0

>  <nmol>
1

>  <opr_brigid>
11

>  <opr_leadlike>
1

>  <opr_nring>
2

>  <opr_nrot>
1

>  <opr_violation>
0

>  <PC+>
0

>  <PC->
0

>  <PEOE_PC+>
0.97174633

>  <PEOE_PC->
-0.97174633

>  <PEOE_RPC+>
0.27543396

>  <PEOE_RPC->
0.27398217

>  <PEOE_VSA+0>
67.785461

>  <PEOE_VSA+1>
32.291866

>  <PEOE_VSA+2>
0

>  <PEOE_VSA+3>
0

>  <PEOE_VSA+4>
0

>  <PEOE_VSA+5>
12.949531

>  <PEOE_VSA+6>
0

>  <PEOE_VSA-0>
43.257484

>  <PEOE_VSA-1>
36.764713

>  <PEOE_VSA-2>
0

>  <PEOE_VSA-3>
0

>  <PEOE_VSA-4>
0

>  <PEOE_VSA-5>
13.566921

>  <PEOE_VSA-6>
0

>  <PEOE_VSA_FHYD>
0.87166309

>  <PEOE_VSA_FNEG>
0.45296168

>  <PEOE_VSA_FPNEG>
0.065662496

>  <PEOE_VSA_FPOL>
0.12833689

>  <PEOE_VSA_FPOS>
0.54703832

>  <PEOE_VSA_FPPOS>
0.062674396

>  <PEOE_VSA_HYD>
180.09952

>  <PEOE_VSA_NEG>
93.589119

>  <PEOE_VSA_PNEG>
13.566921

>  <PEOE_VSA_POL>
26.516451

>  <PEOE_VSA_POS>
113.02686

>  <PEOE_VSA_PPOS>
12.949531

>  <petitjean>
0.42857143

>  <petitjeanSC>
0.75

>  <Q_PC+>
0

>  <Q_PC->
0

>  <Q_RPC+>
0

>  <Q_RPC->
0

>  <Q_VSA_FHYD>
1

>  <Q_VSA_FNEG>
0

>  <Q_VSA_FPNEG>
0

>  <Q_VSA_FPOL>
0

>  <Q_VSA_FPOS>
1

>  <Q_VSA_FPPOS>
0

>  <Q_VSA_HYD>
206.61598

>  <Q_VSA_NEG>
0

>  <Q_VSA_PNEG>
0

>  <Q_VSA_POL>
0

>  <Q_VSA_POS>
206.61598

>  <Q_VSA_PPOS>
0

>  <radius>
4

>  <reactive>
0

>  <rings>
2

>  <RPC+>
0

>  <RPC->
0

>  <rsynth>
1

>  <SlogP>
1.7838

>  <SlogP_VSA0>
3.0017917

>  <SlogP_VSA1>
8.2605753

>  <SlogP_VSA2>
23.862217

>  <SlogP_VSA3>
0

>  <SlogP_VSA4>
0

>  <SlogP_VSA5>
35.653934

>  <SlogP_VSA6>
0

>  <SlogP_VSA7>
105.85911

>  <SlogP_VSA8>
0

>  <SlogP_VSA9>
36.082764

>  <SMR>
5.5447998

>  <SMR_VSA0>
23.862217

>  <SMR_VSA1>
3.0017917

>  <SMR_VSA2>
3.0017917

>  <SMR_VSA3>
2.7567475

>  <SMR_VSA4>
2.7567475

>  <SMR_VSA5>
105.85911

>  <SMR_VSA6>
5.2587838

>  <SMR_VSA7>
66.223206

>  <TPSA>
23.549999

>  <VAdjEq>
0.61744827

>  <VAdjMa>
4.9068904

>  <VDistEq>
2.5538397

>  <VDistMa>
7.3288894

>  <vdw_area>
206.61598

>  <vdw_vol>
267.39062

>  <vsa_acc>
13.566921

>  <vsa_acid>
0

>  <vsa_base>
0

>  <vsa_don>
0

>  <vsa_hyd>
171.55798

>  <vsa_other>
12.949531

>  <vsa_pol>
13.566921

>  <Weight>
188.23

>  <weinerPath>
284

>  <weinerPol>
20

>  <zagreb>
72

$$$$