O[C@@H]1CC(C[C@@H](O)C1)=CC=C/1[C@@H]2CC[C@H]([C@@H](C=C[C@@H](C(O)(C)C)C)C)[C@]2(CCC1)C
  MOE2013           2D

 30 32  0  0  1  0  0  0  0  0999 V2000
    0.0000    0.0000    0.0000 O   0  0  0  0  0  0  0  0  0  0  0  0
    1.2980   -0.7530    0.0000 C   0  0  2  0  0  0  0  0  0  0  0  0
    2.5980   -0.0050    0.0000 C   0  0  0  0  0  0  0  0  0  0  0  0
    3.8960   -0.7580    0.0000 C   0  0  0  0  0  0  0  0  0  0  0  0
    3.8930   -2.2580    0.0000 C   0  0  0  0  0  0  0  0  0  0  0  0
    2.5920   -3.0050    0.0000 C   0  0  1  0  0  0  0  0  0  0  0  0
    2.5890   -4.5050    0.0000 O   0  0  0  0  0  0  0  0  0  0  0  0
    1.2950   -2.2530    0.0000 C   0  0  0  0  0  0  0  0  0  0  0  0
    5.1960   -0.0100    0.0000 C   0  0  0  0  0  0  0  0  0  0  0  0
    6.4940   -0.7630    0.0000 C   0  0  0  0  0  0  0  0  0  0  0  0
    7.7940   -0.0150    0.0000 C   0  0  0  0  0  0  0  0  0  0  0  0
    9.0920   -0.7680    0.0000 C   0  0  2  0  0  0  0  0  0  0  0  0
    9.4010   -2.2350    0.0000 C   0  0  0  0  0  0  0  0  0  0  0  0
   10.8920   -2.3950    0.0000 C   0  0  0  0  0  0  0  0  0  0  0  0
   11.5050   -1.0260    0.0000 C   0  0  2  0  0  0  0  0  0  0  0  0
   12.9730   -0.7170    0.0000 C   0  0  1  0  0  0  0  0  0  0  0  0
   13.9740   -1.8340    0.0000 C   0  0  0  0  0  0  0  0  0  0  0  0
   15.4420   -1.5240    0.0000 C   0  0  0  0  0  0  0  0  0  0  0  0
   16.4440   -2.6410    0.0000 C   0  0  1  0  0  0  0  0  0  0  0  0
   17.9120   -2.3320    0.0000 C   0  0  0  0  0  0  0  0  0  0  0  0
   19.3790   -2.0230    0.0000 O   0  0  0  0  0  0  0  0  0  0  0  0
   17.6030   -0.8640    0.0000 C   0  0  0  0  0  0  0  0  0  0  0  0
   18.2210   -3.8000    0.0000 C   0  0  0  0  0  0  0  0  0  0  0  0
   15.9780   -4.0670    0.0000 C   0  0  0  0  0  0  0  0  0  0  0  0
   13.4390    0.7090    0.0000 C   0  0  0  0  0  0  0  0  0  0  0  0
   10.3920   -0.0200    0.0000 C   0  0  1  0  0  0  0  0  0  0  0  0
   10.3950    1.4800    0.0000 C   0  0  0  0  0  0  0  0  0  0  0  0
    9.0980    2.2320    0.0000 C   0  0  0  0  0  0  0  0  0  0  0  0
    7.7970    1.4850    0.0000 C   0  0  0  0  0  0  0  0  0  0  0  0
   11.7640    0.5870    0.0000 C   0  0  0  0  0  0  0  0  0  0  0  0
  2  1  1  6  0  0  0
  2  3  1  0  0  0  0
  2  8  1  0  0  0  0
  3  4  1  0  0  0  0
  4  5  1  0  0  0  0
  4  9  2  3  0  0  0
  5  6  1  0  0  0  0
  6  7  1  1  0  0  0
  6  8  1  0  0  0  0
  9 10  1  0  0  0  0
 10 11  2  3  0  0  0
 11 29  1  0  0  0  0
 12 11  1  1  0  0  0
 12 13  1  0  0  0  0
 12 26  1  0  0  0  0
 13 14  1  0  0  0  0
 15 14  1  1  0  0  0
 15 16  1  0  0  0  0
 15 26  1  0  0  0  0
 16 17  1  0  0  0  0
 16 25  1  6  0  0  0
 17 18  2  3  0  0  0
 18 19  1  0  0  0  0
 19 20  1  0  0  0  0
 19 24  1  1  0  0  0
 20 21  1  0  0  0  0
 20 22  1  0  0  0  0
 20 23  1  0  0  0  0
 26 27  1  0  0  0  0
 26 30  1  1  0  0  0
 27 28  1  0  0  0  0
 28 29  1  0  0  0  0
M  END
>  <Index>
818

>  <ID>
HT1596

>  <class>
0

>  <apol>
79.264893

>  <ast_fraglike>
0

>  <ast_fraglike_ext>
0

>  <ast_violation>
2

>  <ast_violation_ext>
3

>  <a_acc>
3

>  <a_acid>
0

>  <a_aro>
0

>  <a_base>
0

>  <a_count>
74

>  <a_don>
3

>  <a_donacc>
6

>  <a_heavy>
30

>  <a_hyd>
27

>  <a_IC>
86.147705

>  <a_ICM>
1.1641582

>  <a_nB>
0

>  <a_nBr>
0

>  <a_nC>
27

>  <a_nCl>
0

>  <a_nF>
0

>  <a_nH>
44

>  <a_nI>
0

>  <a_nN>
0

>  <a_nO>
3

>  <a_nP>
0

>  <a_nS>
0

>  <balabanJ>
1.5523938

>  <BCUT_PEOE_0>
-2.823293

>  <BCUT_PEOE_1>
-0.45992476

>  <BCUT_PEOE_2>
0.55361581

>  <BCUT_PEOE_3>
2.8890393

>  <BCUT_SLOGP_0>
-2.7239873

>  <BCUT_SLOGP_1>
-0.4554134

>  <BCUT_SLOGP_2>
0.48366815

>  <BCUT_SLOGP_3>
2.9955726

>  <BCUT_SMR_0>
-2.5628922

>  <BCUT_SMR_1>
-0.36495131

>  <BCUT_SMR_2>
0.63937145

>  <BCUT_SMR_3>
3.151166

>  <bpol>
48.101109

>  <b_1rotN>
5

>  <b_1rotR>
0.15625

>  <b_ar>
0

>  <b_count>
76

>  <b_double>
3

>  <b_heavy>
32

>  <b_max1len>
5

>  <b_rotN>
5

>  <b_rotR>
0.15625

>  <b_single>
73

>  <b_triple>
0

>  <chi0>
22.104084

>  <chi0v>
19.771997

>  <chi0v_C>
18.430357

>  <chi0_C>
19.104084

>  <chi1>
14.002874

>  <chi1v>
12.157125

>  <chi1v_C>
11.417121

>  <chi1_C>
12.348174

>  <chiral>
7

>  <chiral_u>
0

>  <density>
0.65135831

>  <diameter>
15

>  <FCharge>
0

>  <GCUT_PEOE_0>
-0.80553341

>  <GCUT_PEOE_1>
-0.32984447

>  <GCUT_PEOE_2>
0.057139695

>  <GCUT_PEOE_3>
3.2042263

>  <GCUT_SLOGP_0>
-0.88139886

>  <GCUT_SLOGP_1>
-0.29782194

>  <GCUT_SLOGP_2>
-0.0074013155

>  <GCUT_SLOGP_3>
3.3109996

>  <GCUT_SMR_0>
-0.54038429

>  <GCUT_SMR_1>
-0.19632819

>  <GCUT_SMR_2>
0.14031659

>  <GCUT_SMR_3>
3.4401684

>  <Kier1>
24.638672

>  <Kier2>
9.8680553

>  <Kier3>
5.8800001

>  <KierA1>
22.724497

>  <KierA2>
9.0750866

>  <KierA3>
5.3964286

>  <KierFlex>
6.8742256

>  <lip_acc>
3

>  <lip_don>
3

>  <lip_druglike>
1

>  <lip_violation>
1

>  <logP(o/w)>
4.3390002

>  <logS>
-6.9417

>  <mr>
12.262245

>  <mutagenic>
0

>  <nmol>
1

>  <opr_brigid>
19

>  <opr_leadlike>
1

>  <opr_nring>
3

>  <opr_nrot>
8

>  <opr_violation>
1

>  <PC+>
0

>  <PC->
0

>  <PEOE_PC+>
2.1574078

>  <PEOE_PC->
-2.1574078

>  <PEOE_RPC+>
0.097412974

>  <PEOE_RPC->
0.18141602

>  <PEOE_VSA+0>
149.28851

>  <PEOE_VSA+1>
35.402172

>  <PEOE_VSA+2>
0

>  <PEOE_VSA+3>
0

>  <PEOE_VSA+4>
30.972517

>  <PEOE_VSA+5>
0

>  <PEOE_VSA+6>
0

>  <PEOE_VSA-0>
107.10586

>  <PEOE_VSA-1>
109.67973

>  <PEOE_VSA-2>
0

>  <PEOE_VSA-3>
0

>  <PEOE_VSA-4>
0

>  <PEOE_VSA-5>
0

>  <PEOE_VSA-6>
23.30262

>  <PEOE_VSA_FHYD>
0.88091063

>  <PEOE_VSA_FNEG>
0.5267964

>  <PEOE_VSA_FPNEG>
0.051130112

>  <PEOE_VSA_FPOL>
0.11908935

>  <PEOE_VSA_FPOS>
0.4732036

>  <PEOE_VSA_FPPOS>
0.067959234

>  <PEOE_VSA_HYD>
401.47629

>  <PEOE_VSA_NEG>
240.08821

>  <PEOE_VSA_PNEG>
23.30262

>  <PEOE_VSA_POL>
54.275139

>  <PEOE_VSA_POS>
215.66321

>  <PEOE_VSA_PPOS>
30.972517

>  <petitjean>
0.46666667

>  <petitjeanSC>
0.875

>  <Q_PC+>
0

>  <Q_PC->
0

>  <Q_RPC+>
0

>  <Q_RPC->
0

>  <Q_VSA_FHYD>
1

>  <Q_VSA_FNEG>
0

>  <Q_VSA_FPNEG>
0

>  <Q_VSA_FPOL>
0

>  <Q_VSA_FPOS>
1

>  <Q_VSA_FPPOS>
0

>  <Q_VSA_HYD>
455.7514

>  <Q_VSA_NEG>
0

>  <Q_VSA_PNEG>
0

>  <Q_VSA_POL>
0

>  <Q_VSA_POS>
455.7514

>  <Q_VSA_PPOS>
0

>  <radius>
8

>  <reactive>
0

>  <rings>
3

>  <RPC+>
0

>  <RPC->
0

>  <rsynth>
0

>  <SlogP>
5.5605998

>  <SlogP_VSA0>
76.155678

>  <SlogP_VSA1>
0

>  <SlogP_VSA2>
12.937299

>  <SlogP_VSA3>
0

>  <SlogP_VSA4>
17.643185

>  <SlogP_VSA5>
6.37115

>  <SlogP_VSA6>
0

>  <SlogP_VSA7>
70.572739

>  <SlogP_VSA8>
150.94725

>  <SlogP_VSA9>
166.63008

>  <SMR>
12.39684

>  <SMR_VSA0>
0

>  <SMR_VSA1>
76.155678

>  <SMR_VSA2>
17.643185

>  <SMR_VSA3>
19.308449

>  <SMR_VSA4>
0

>  <SMR_VSA5>
221.51997

>  <SMR_VSA6>
0

>  <SMR_VSA7>
166.63008

>  <TPSA>
60.689999

>  <VAdjEq>
0.37005648

>  <VAdjMa>
6

>  <VDistEq>
3.7268162

>  <VDistMa>
9.5025415

>  <vdw_area>
455.7514

>  <vdw_vol>
639.65717

>  <vsa_acc>
0

>  <vsa_acid>
0

>  <vsa_base>
0

>  <vsa_don>
0

>  <vsa_hyd>
366.91245

>  <vsa_other>
0

>  <vsa_pol>
40.700764

>  <Weight>
416.646

>  <weinerPath>
2688

>  <weinerPol>
49

>  <zagreb>
160

$$$$