O1c2cc(CCC)c(cc2OC1)COCCOCCOCCCC
  MOE2013           2D

 24 25  0  0  0  0  0  0  0  0999 V2000
    0.0000    0.0000    0.0000 O   0  0  0  0  0  0  0  0  0  0  0  0
    1.1700    0.9380    0.0000 C   0  0  0  0  0  0  0  0  0  0  0  0
    1.2560    2.4360    0.0000 C   0  0  0  0  0  0  0  0  0  0  0  0
    2.5960    3.1100    0.0000 C   0  0  0  0  0  0  0  0  0  0  0  0
    2.6820    4.6070    0.0000 C   0  0  0  0  0  0  0  0  0  0  0  0
    1.4290    5.4310    0.0000 C   0  0  0  0  0  0  0  0  0  0  0  0
    1.5150    6.9280    0.0000 C   0  0  0  0  0  0  0  0  0  0  0  0
    3.8500    2.2870    0.0000 C   0  0  0  0  0  0  0  0  0  0  0  0
    3.7640    0.7890    0.0000 C   0  0  0  0  0  0  0  0  0  0  0  0
    2.4240    0.1150    0.0000 C   0  0  0  0  0  0  0  0  0  0  0  0
    2.0290   -1.3320    0.0000 O   0  0  0  0  0  0  0  0  0  0  0  0
    0.5310   -1.4030    0.0000 C   0  0  0  0  0  0  0  0  0  0  0  0
    5.1900    2.9610    0.0000 C   0  0  0  0  0  0  0  0  0  0  0  0
    6.4440    2.1380    0.0000 O   0  0  0  0  0  0  0  0  0  0  0  0
    7.7840    2.8120    0.0000 C   0  0  0  0  0  0  0  0  0  0  0  0
    9.0380    1.9890    0.0000 C   0  0  0  0  0  0  0  0  0  0  0  0
   10.3780    2.6630    0.0000 O   0  0  0  0  0  0  0  0  0  0  0  0
   11.6320    1.8400    0.0000 C   0  0  0  0  0  0  0  0  0  0  0  0
   12.9720    2.5140    0.0000 C   0  0  0  0  0  0  0  0  0  0  0  0
   14.2250    1.6910    0.0000 O   0  0  0  0  0  0  0  0  0  0  0  0
   15.5650    2.3650    0.0000 C   0  0  0  0  0  0  0  0  0  0  0  0
   16.8190    1.5420    0.0000 C   0  0  0  0  0  0  0  0  0  0  0  0
   18.1590    2.2160    0.0000 C   0  0  0  0  0  0  0  0  0  0  0  0
   19.4130    1.3930    0.0000 C   0  0  0  0  0  0  0  0  0  0  0  0
  1  2  1  0  0  0  0
  1 12  1  0  0  0  0
  2  3  1  0  0  0  0
  2 10  2  0  0  0  0
  3  4  2  0  0  0  0
  4  5  1  0  0  0  0
  4  8  1  0  0  0  0
  5  6  1  0  0  0  0
  6  7  1  0  0  0  0
  8  9  2  0  0  0  0
  8 13  1  0  0  0  0
  9 10  1  0  0  0  0
 10 11  1  0  0  0  0
 11 12  1  0  0  0  0
 13 14  1  0  0  0  0
 14 15  1  0  0  0  0
 15 16  1  0  0  0  0
 16 17  1  0  0  0  0
 17 18  1  0  0  0  0
 18 19  1  0  0  0  0
 19 20  1  0  0  0  0
 20 21  1  0  0  0  0
 21 22  1  0  0  0  0
 22 23  1  0  0  0  0
 23 24  1  0  0  0  0
M  END
>  <Index>
868

>  <ID>
HT1684

>  <class>
0

>  <apol>
57.453789

>  <ast_fraglike>
0

>  <ast_fraglike_ext>
0

>  <ast_violation>
3

>  <ast_violation_ext>
4

>  <a_acc>
5

>  <a_acid>
0

>  <a_aro>
6

>  <a_base>
0

>  <a_count>
54

>  <a_don>
0

>  <a_donacc>
5

>  <a_heavy>
24

>  <a_hyd>
18

>  <a_IC>
71.236946

>  <a_ICM>
1.3192027

>  <a_nB>
0

>  <a_nBr>
0

>  <a_nC>
19

>  <a_nCl>
0

>  <a_nF>
0

>  <a_nH>
30

>  <a_nI>
0

>  <a_nN>
0

>  <a_nO>
5

>  <a_nP>
0

>  <a_nS>
0

>  <balabanJ>
1.5201147

>  <BCUT_PEOE_0>
-2.6046917

>  <BCUT_PEOE_1>
-0.22678332

>  <BCUT_PEOE_2>
0.1803326

>  <BCUT_PEOE_3>
2.5565455

>  <BCUT_SLOGP_0>
-2.6258988

>  <BCUT_SLOGP_1>
-0.064465381

>  <BCUT_SLOGP_2>
0.23909813

>  <BCUT_SLOGP_3>
2.6433578

>  <BCUT_SMR_0>
-2.3630805

>  <BCUT_SMR_1>
0.021466974

>  <BCUT_SMR_2>
0.25485116

>  <BCUT_SMR_3>
2.7919374

>  <bpol>
42.376209

>  <b_1rotN>
13

>  <b_1rotR>
0.51999998

>  <b_ar>
6

>  <b_count>
55

>  <b_double>
0

>  <b_heavy>
25

>  <b_max1len>
13

>  <b_rotN>
13

>  <b_rotR>
0.51999998

>  <b_single>
49

>  <b_triple>
0

>  <chi0>
17.037323

>  <chi0v>
14.974116

>  <chi0v_C>
12.932875

>  <chi0_C>
13.501789

>  <chi1>
11.846867

>  <chi1v>
8.9936705

>  <chi1v_C>
6.276021

>  <chi1_C>
7.0303698

>  <chiral>
0

>  <chiral_u>
0

>  <density>
0.69658732

>  <diameter>
16

>  <FCharge>
0

>  <GCUT_PEOE_0>
-0.81239653

>  <GCUT_PEOE_1>
-0.34000814

>  <GCUT_PEOE_2>
-0.090022519

>  <GCUT_PEOE_3>
2.5872869

>  <GCUT_SLOGP_0>
-0.94359767

>  <GCUT_SLOGP_1>
-0.22138217

>  <GCUT_SLOGP_2>
-0.012728354

>  <GCUT_SLOGP_3>
2.6905336

>  <GCUT_SMR_0>
-0.52890694

>  <GCUT_SMR_1>
-0.11696392

>  <GCUT_SMR_2>
-0.0045013884

>  <GCUT_SMR_3>
2.8304877

>  <Kier1>
20.313601

>  <Kier2>
12.368889

>  <Kier3>
7.4243975

>  <KierA1>
18.342997

>  <KierA2>
11.117121

>  <KierA3>
6.6507168

>  <KierFlex>
8.4967213

>  <lip_acc>
5

>  <lip_don>
0

>  <lip_druglike>
1

>  <lip_violation>
0

>  <logP(o/w)>
3.68748

>  <logS>
-4.29002

>  <mr>
9.4789772

>  <mutagenic>
0

>  <nmol>
1

>  <opr_brigid>
10

>  <opr_leadlike>
1

>  <opr_nring>
2

>  <opr_nrot>
13

>  <opr_violation>
1

>  <PC+>
0

>  <PC->
0

>  <PEOE_PC+>
2.1533935

>  <PEOE_PC->
-2.1533935

>  <PEOE_RPC+>
0.074315734

>  <PEOE_RPC->
0.17530447

>  <PEOE_VSA+0>
74.666695

>  <PEOE_VSA+1>
143.00264

>  <PEOE_VSA+2>
16.917038

>  <PEOE_VSA+3>
21.201273

>  <PEOE_VSA+4>
0

>  <PEOE_VSA+5>
0

>  <PEOE_VSA+6>
0

>  <PEOE_VSA-0>
46.329514

>  <PEOE_VSA-1>
54.89798

>  <PEOE_VSA-2>
0

>  <PEOE_VSA-3>
0

>  <PEOE_VSA-4>
0

>  <PEOE_VSA-5>
0

>  <PEOE_VSA-6>
12.518781

>  <PEOE_VSA_FHYD>
0.96612281

>  <PEOE_VSA_FNEG>
0.3078101

>  <PEOE_VSA_FPNEG>
0.033877216

>  <PEOE_VSA_FPOL>
0.033877216

>  <PEOE_VSA_FPOS>
0.69218987

>  <PEOE_VSA_FPPOS>
0

>  <PEOE_VSA_HYD>
357.01514

>  <PEOE_VSA_NEG>
113.74628

>  <PEOE_VSA_PNEG>
12.518781

>  <PEOE_VSA_POL>
12.518781

>  <PEOE_VSA_POS>
255.78764

>  <PEOE_VSA_PPOS>
0

>  <petitjean>
0.5

>  <petitjeanSC>
1

>  <Q_PC+>
0

>  <Q_PC->
0

>  <Q_RPC+>
0

>  <Q_RPC->
0

>  <Q_VSA_FHYD>
1

>  <Q_VSA_FNEG>
0

>  <Q_VSA_FPNEG>
0

>  <Q_VSA_FPOL>
0

>  <Q_VSA_FPOS>
1

>  <Q_VSA_FPPOS>
0

>  <Q_VSA_HYD>
369.53394

>  <Q_VSA_NEG>
0

>  <Q_VSA_PNEG>
0

>  <Q_VSA_POL>
0

>  <Q_VSA_POS>
369.53394

>  <Q_VSA_PPOS>
0

>  <radius>
8

>  <reactive>
0

>  <rings>
2

>  <RPC+>
0

>  <RPC->
0

>  <rsynth>
1

>  <SlogP>
3.9840701

>  <SlogP_VSA0>
21.999775

>  <SlogP_VSA1>
0

>  <SlogP_VSA2>
32.999664

>  <SlogP_VSA3>
127.6154

>  <SlogP_VSA4>
6.37115

>  <SlogP_VSA5>
18.868406

>  <SlogP_VSA6>
0

>  <SlogP_VSA7>
35.286369

>  <SlogP_VSA8>
56.605217

>  <SlogP_VSA9>
98.065147

>  <SMR>
9.2966995

>  <SMR_VSA0>
32.999664

>  <SMR_VSA1>
21.999775

>  <SMR_VSA2>
0

>  <SMR_VSA3>
16.858006

>  <SMR_VSA4>
0

>  <SMR_VSA5>
131.68625

>  <SMR_VSA6>
127.6154

>  <SMR_VSA7>
66.652031

>  <TPSA>
46.150002

>  <VAdjEq>
0.42571631

>  <VAdjMa>
5.643856

>  <VDistEq>
3.8282332

>  <VDistMa>
8.8107538

>  <vdw_area>
369.53394

>  <vdw_vol>
485.86014

>  <vsa_acc>
12.518781

>  <vsa_acid>
0

>  <vsa_base>
0

>  <vsa_don>
0

>  <vsa_hyd>
307.35284

>  <vsa_other>
28.308455

>  <vsa_pol>
12.518781

>  <Weight>
338.444

>  <weinerPath>
1767

>  <weinerPol>
29

>  <zagreb>
110

$$$$