P(O)(O)(=O)C(P(O)(O)=O)(O)Cc1cccnc1
  MOE2013           2D

 17 17  0  0  0  0  0  0  0  0999 V2000
    0.0000    0.0000    0.0000 P   0  0  0  0  0  0  0  0  0  0  0  0
   -1.2940    0.7580    0.0000 O   0  0  0  0  0  0  0  0  0  0  0  0
    0.7580    1.2940    0.0000 O   0  0  0  0  0  0  0  0  0  0  0  0
    1.2940   -0.7580    0.0000 O   0  0  0  0  0  0  0  0  0  0  0  0
   -0.7580   -1.2940    0.0000 C   0  0  0  0  0  0  0  0  0  0  0  0
   -1.5160   -2.5890    0.0000 P   0  0  0  0  0  0  0  0  0  0  0  0
   -2.2740   -3.8830    0.0000 O   0  0  0  0  0  0  0  0  0  0  0  0
   -2.8100   -1.8310    0.0000 O   0  0  0  0  0  0  0  0  0  0  0  0
   -0.2220   -3.3470    0.0000 O   0  0  0  0  0  0  0  0  0  0  0  0
   -2.0520   -0.5360    0.0000 O   0  0  0  0  0  0  0  0  0  0  0  0
    0.5360   -2.0520    0.0000 C   0  0  0  0  0  0  0  0  0  0  0  0
    1.8400   -1.3100    0.0000 C   0  0  0  0  0  0  0  0  0  0  0  0
    3.1340   -2.0680    0.0000 C   0  0  0  0  0  0  0  0  0  0  0  0
    4.4380   -1.3260    0.0000 C   0  0  0  0  0  0  0  0  0  0  0  0
    4.4470    0.1740    0.0000 C   0  0  0  0  0  0  0  0  0  0  0  0
    3.1530    0.9320    0.0000 N   0  0  0  0  0  0  0  0  0  0  0  0
    1.8490    0.1900    0.0000 C   0  0  0  0  0  0  0  0  0  0  0  0
  1  2  1  0  0  0  0
  1  3  1  0  0  0  0
  1  4  2  0  0  0  0
  1  5  1  0  0  0  0
  5  6  1  0  0  0  0
  5 10  1  0  0  0  0
  5 11  1  0  0  0  0
  6  7  1  0  0  0  0
  6  8  1  0  0  0  0
  6  9  2  0  0  0  0
 11 12  1  0  0  0  0
 12 13  1  0  0  0  0
 12 17  2  0  0  0  0
 13 14  2  0  0  0  0
 14 15  1  0  0  0  0
 15 16  2  0  0  0  0
 16 17  1  0  0  0  0
M  END
>  <Index>
951

>  <ID>
HT1830

>  <class>
0

>  <apol>
33.628723

>  <ast_fraglike>
0

>  <ast_fraglike_ext>
0

>  <ast_violation>
2

>  <ast_violation_ext>
4

>  <a_acc>
8

>  <a_acid>
0

>  <a_aro>
6

>  <a_base>
0

>  <a_count>
28

>  <a_don>
7

>  <a_donacc>
15

>  <a_heavy>
17

>  <a_hyd>
7

>  <a_IC>
55.249222

>  <a_ICM>
1.9731865

>  <a_nB>
0

>  <a_nBr>
0

>  <a_nC>
7

>  <a_nCl>
0

>  <a_nF>
0

>  <a_nH>
11

>  <a_nI>
0

>  <a_nN>
1

>  <a_nO>
7

>  <a_nP>
2

>  <a_nS>
0

>  <balabanJ>
2.8497534

>  <BCUT_PEOE_0>
-2.5096276

>  <BCUT_PEOE_1>
-0.64148861

>  <BCUT_PEOE_2>
0.6754384

>  <BCUT_PEOE_3>
2.8077748

>  <BCUT_SLOGP_0>
-2.6192446

>  <BCUT_SLOGP_1>
-1.231959

>  <BCUT_SLOGP_2>
0.72155833

>  <BCUT_SLOGP_3>
2.8121245

>  <BCUT_SMR_0>
-2.3162332

>  <BCUT_SMR_1>
-0.4807843

>  <BCUT_SMR_2>
0.79399085

>  <BCUT_SMR_3>
2.9944725

>  <bpol>
30.221277

>  <b_1rotN>
4

>  <b_1rotR>
0.23529412

>  <b_ar>
6

>  <b_count>
28

>  <b_double>
0

>  <b_heavy>
17

>  <b_max1len>
6

>  <b_rotN>
4

>  <b_rotR>
0.23529412

>  <b_single>
22

>  <b_triple>
0

>  <chi0>
13.319991

>  <chi0v>
10.199568

>  <chi0v_C>
4.0165076

>  <chi0_C>
4.612884

>  <chi1>
7.5782981

>  <chi1v>
7.528214

>  <chi1v_C>
1.9511237

>  <chi1_C>
2.5782983

>  <chiral>
0

>  <chiral_u>
0

>  <density>
0.9994905

>  <diameter>
7

>  <FCharge>
0

>  <GCUT_PEOE_0>
-0.74925202

>  <GCUT_PEOE_1>
-0.44246921

>  <GCUT_PEOE_2>
0.1888667

>  <GCUT_PEOE_3>
2.4946704

>  <GCUT_SLOGP_0>
-1.3054259

>  <GCUT_SLOGP_1>
-0.53011101

>  <GCUT_SLOGP_2>
0.0067596338

>  <GCUT_SLOGP_3>
2.5138216

>  <GCUT_SMR_0>
-0.49269241

>  <GCUT_SMR_1>
-0.22678891

>  <GCUT_SMR_2>
0.26733077

>  <GCUT_SMR_3>
2.7137654

>  <Kier1>
15.058824

>  <Kier2>
4.9382715

>  <Kier3>
3.2632675

>  <KierA1>
15.813609

>  <KierA2>
5.2022424

>  <KierA3>
3.4463356

>  <KierFlex>
4.83919

>  <lip_acc>
8

>  <lip_don>
5

>  <lip_druglike>
1

>  <lip_violation>
0

>  <logP(o/w)>
-2.75

>  <logS>
1.26789

>  <mr>
6.1686001

>  <mutagenic>
0

>  <nmol>
1

>  <opr_brigid>
6

>  <opr_leadlike>
1

>  <opr_nring>
1

>  <opr_nrot>
4

>  <opr_violation>
0

>  <PC+>
0

>  <PC->
0

>  <PEOE_PC+>
2.4320812

>  <PEOE_PC->
-2.4320812

>  <PEOE_RPC+>
0.14688265

>  <PEOE_RPC->
0.13722315

>  <PEOE_VSA+0>
42.022602

>  <PEOE_VSA+1>
17.061544

>  <PEOE_VSA+2>
49.998005

>  <PEOE_VSA+3>
0

>  <PEOE_VSA+4>
10.324173

>  <PEOE_VSA+5>
0

>  <PEOE_VSA+6>
27.333998

>  <PEOE_VSA-0>
14.463444

>  <PEOE_VSA-1>
12.254904

>  <PEOE_VSA-2>
0

>  <PEOE_VSA-3>
0

>  <PEOE_VSA-4>
31.458273

>  <PEOE_VSA-5>
5.6825762

>  <PEOE_VSA-6>
47.486565

>  <PEOE_VSA_FHYD>
0.52618295

>  <PEOE_VSA_FNEG>
0.43142876

>  <PEOE_VSA_FPNEG>
0.32790384

>  <PEOE_VSA_FPOL>
0.47381705

>  <PEOE_VSA_FPOS>
0.56857121

>  <PEOE_VSA_FPPOS>
0.14591321

>  <PEOE_VSA_HYD>
135.80049

>  <PEOE_VSA_NEG>
111.34576

>  <PEOE_VSA_PNEG>
84.627411

>  <PEOE_VSA_POL>
122.28558

>  <PEOE_VSA_POS>
146.74033

>  <PEOE_VSA_PPOS>
37.658169

>  <petitjean>
0.42857143

>  <petitjeanSC>
0.75

>  <Q_PC+>
0

>  <Q_PC->
0

>  <Q_RPC+>
0

>  <Q_RPC->
0

>  <Q_VSA_FHYD>
1

>  <Q_VSA_FNEG>
0

>  <Q_VSA_FPNEG>
0

>  <Q_VSA_FPOL>
0

>  <Q_VSA_FPOS>
1

>  <Q_VSA_FPPOS>
0

>  <Q_VSA_HYD>
258.08609

>  <Q_VSA_NEG>
0

>  <Q_VSA_PNEG>
0

>  <Q_VSA_POL>
0

>  <Q_VSA_POS>
258.08609

>  <Q_VSA_PPOS>
0

>  <radius>
4

>  <reactive>
1

>  <rings>
1

>  <RPC+>
0

>  <RPC->
0

>  <rsynth>
1

>  <SlogP>
-2.5148301

>  <SlogP_VSA0>
155.48064

>  <SlogP_VSA1>
16.78553

>  <SlogP_VSA2>
0

>  <SlogP_VSA3>
0

>  <SlogP_VSA4>
3.185575

>  <SlogP_VSA5>
18.868406

>  <SlogP_VSA6>
0

>  <SlogP_VSA7>
69.71508

>  <SlogP_VSA8>
0

>  <SlogP_VSA9>
29.598944

>  <SMR>
5.5605998

>  <SMR_VSA0>
44.867531

>  <SMR_VSA1>
127.39863

>  <SMR_VSA2>
0

>  <SMR_VSA3>
3.185575

>  <SMR_VSA4>
0

>  <SMR_VSA5>
88.583488

>  <SMR_VSA6>
0

>  <SMR_VSA7>
29.598944

>  <TPSA>
148.17999

>  <VAdjEq>
0.52255934

>  <VAdjMa>
5.0874629

>  <VDistEq>
2.6952744

>  <VDistMa>
7.9128428

>  <vdw_area>
258.08609

>  <vdw_vol>
283.25732

>  <vsa_acc>
5.6825762

>  <vsa_acid>
0

>  <vsa_base>
0

>  <vsa_don>
0

>  <vsa_hyd>
90.233032

>  <vsa_other>
27.333998

>  <vsa_pol>
113.62431

>  <Weight>
283.11301

>  <weinerPath>
478

>  <weinerPol>
28

>  <zagreb>
88

$$$$