Oc1[nH]c2c(c1)c(ccc2)CCN(CCC)CCC
  MOE2013           2D

 19 20  0  0  0  0  0  0  0  0999 V2000
    0.0000    0.0000    0.0000 O   0  0  0  0  0  0  0  0  0  0  0  0
    1.3010   -0.7470    0.0000 C   0  0  0  0  0  0  0  0  0  0  0  0
    1.4620   -2.2380    0.0000 N   0  0  0  0  0  0  0  0  0  0  0  0
    2.9300   -2.5460    0.0000 C   0  0  0  0  0  0  0  0  0  0  0  0
    3.6760   -1.2450    0.0000 C   0  0  0  0  0  0  0  0  0  0  0  0
    2.6700   -0.1330    0.0000 C   0  0  0  0  0  0  0  0  0  0  0  0
    5.1760   -1.2410    0.0000 C   0  0  0  0  0  0  0  0  0  0  0  0
    5.9300   -2.5380    0.0000 C   0  0  0  0  0  0  0  0  0  0  0  0
    5.1830   -3.8390    0.0000 C   0  0  0  0  0  0  0  0  0  0  0  0
    3.6830   -3.8430    0.0000 C   0  0  0  0  0  0  0  0  0  0  0  0
    5.9230    0.0600    0.0000 C   0  0  0  0  0  0  0  0  0  0  0  0
    7.4230    0.0640    0.0000 C   0  0  0  0  0  0  0  0  0  0  0  0
    8.1690    1.3650    0.0000 N   0  0  0  0  0  0  0  0  0  0  0  0
    9.6690    1.3690    0.0000 C   0  0  0  0  0  0  0  0  0  0  0  0
   10.4230    0.0720    0.0000 C   0  0  0  0  0  0  0  0  0  0  0  0
   11.9230    0.0760    0.0000 C   0  0  0  0  0  0  0  0  0  0  0  0
    7.4160    2.6620    0.0000 C   0  0  0  0  0  0  0  0  0  0  0  0
    8.1630    3.9630    0.0000 C   0  0  0  0  0  0  0  0  0  0  0  0
    7.4090    5.2600    0.0000 C   0  0  0  0  0  0  0  0  0  0  0  0
  1  2  1  0  0  0  0
  2  3  1  0  0  0  0
  2  6  2  0  0  0  0
  3  4  1  0  0  0  0
  4  5  1  0  0  0  0
  4 10  2  0  0  0  0
  5  6  1  0  0  0  0
  5  7  2  0  0  0  0
  7  8  1  0  0  0  0
  7 11  1  0  0  0  0
  8  9  2  0  0  0  0
  9 10  1  0  0  0  0
 11 12  1  0  0  0  0
 12 13  1  0  0  0  0
 13 14  1  0  0  0  0
 13 17  1  0  0  0  0
 14 15  1  0  0  0  0
 15 16  1  0  0  0  0
 17 18  1  0  0  0  0
 18 19  1  0  0  0  0
M  END
>  <Index>
959

>  <ID>
HT1846

>  <class>
0

>  <apol>
47.165031

>  <ast_fraglike>
0

>  <ast_fraglike_ext>
0

>  <ast_violation>
1

>  <ast_violation_ext>
2

>  <a_acc>
2

>  <a_acid>
0

>  <a_aro>
9

>  <a_base>
0

>  <a_count>
43

>  <a_don>
2

>  <a_donacc>
4

>  <a_heavy>
19

>  <a_hyd>
15

>  <a_IC>
57.290283

>  <a_ICM>
1.3323323

>  <a_nB>
0

>  <a_nBr>
0

>  <a_nC>
16

>  <a_nCl>
0

>  <a_nF>
0

>  <a_nH>
24

>  <a_nI>
0

>  <a_nN>
2

>  <a_nO>
1

>  <a_nP>
0

>  <a_nS>
0

>  <balabanJ>
1.8078187

>  <BCUT_PEOE_0>
-2.712852

>  <BCUT_PEOE_1>
-0.43373433

>  <BCUT_PEOE_2>
0.53284955

>  <BCUT_PEOE_3>
2.6094649

>  <BCUT_SLOGP_0>
-2.7492268

>  <BCUT_SLOGP_1>
-0.31114188

>  <BCUT_SLOGP_2>
0.62914836

>  <BCUT_SLOGP_3>
2.6289594

>  <BCUT_SMR_0>
-2.434268

>  <BCUT_SMR_1>
-0.26105979

>  <BCUT_SMR_2>
0.68974036

>  <BCUT_SMR_3>
2.8827367

>  <bpol>
28.876968

>  <b_1rotN>
7

>  <b_1rotR>
0.34999999

>  <b_ar>
10

>  <b_count>
44

>  <b_double>
0

>  <b_heavy>
20

>  <b_max1len>
8

>  <b_rotN>
7

>  <b_rotR>
0.34999999

>  <b_single>
34

>  <b_triple>
0

>  <chi0>
13.664926

>  <chi0v>
11.946469

>  <chi0v_C>
10.552042

>  <chi0_C>
11.380469

>  <chi1>
9.2407131

>  <chi1v>
7.2614241

>  <chi1v_C>
5.5891342

>  <chi1_C>
6.6221218

>  <chiral>
0

>  <chiral_u>
0

>  <density>
0.65740132

>  <diameter>
10

>  <FCharge>
0

>  <GCUT_PEOE_0>
-0.85899001

>  <GCUT_PEOE_1>
-0.32323772

>  <GCUT_PEOE_2>
0.028448081

>  <GCUT_PEOE_3>
2.6439295

>  <GCUT_SLOGP_0>
-0.95489073

>  <GCUT_SLOGP_1>
-0.27874714

>  <GCUT_SLOGP_2>
0.11440921

>  <GCUT_SLOGP_3>
2.7273369

>  <GCUT_SMR_0>
-0.52522135

>  <GCUT_SMR_1>
-0.1437481

>  <GCUT_SMR_2>
0.15178871

>  <GCUT_SMR_3>
2.9095151

>  <Kier1>
15.39

>  <Kier2>
7.6952662

>  <Kier3>
4.2314048

>  <KierA1>
12.537684

>  <KierA2>
6.1925321

>  <KierA3>
3.372556

>  <KierFlex>
4.0863166

>  <lip_acc>
3

>  <lip_don>
2

>  <lip_druglike>
1

>  <lip_violation>
0

>  <logP(o/w)>
4.454

>  <logS>
-2.61497

>  <mr>
7.9799018

>  <mutagenic>
0

>  <nmol>
1

>  <opr_brigid>
10

>  <opr_leadlike>
1

>  <opr_nring>
2

>  <opr_nrot>
7

>  <opr_violation>
0

>  <PC+>
0

>  <PC->
0

>  <PEOE_PC+>
1.4117185

>  <PEOE_PC->
-1.4117185

>  <PEOE_RPC+>
0.15503083

>  <PEOE_RPC->
0.24480315

>  <PEOE_VSA+0>
98.877365

>  <PEOE_VSA+1>
17.061544

>  <PEOE_VSA+2>
12.949531

>  <PEOE_VSA+3>
8.6190128

>  <PEOE_VSA+4>
10.324173

>  <PEOE_VSA+5>
0

>  <PEOE_VSA+6>
0

>  <PEOE_VSA-0>
79.20694

>  <PEOE_VSA-1>
62.005161

>  <PEOE_VSA-2>
0

>  <PEOE_VSA-3>
0

>  <PEOE_VSA-4>
0

>  <PEOE_VSA-5>
0

>  <PEOE_VSA-6>
7.9044313

>  <PEOE_VSA_FHYD>
0.93861353

>  <PEOE_VSA_FNEG>
0.50216353

>  <PEOE_VSA_FPNEG>
0.026618894

>  <PEOE_VSA_FPOL>
0.061386485

>  <PEOE_VSA_FPOS>
0.49783647

>  <PEOE_VSA_FPPOS>
0.034767594

>  <PEOE_VSA_HYD>
278.71954

>  <PEOE_VSA_NEG>
149.11653

>  <PEOE_VSA_PNEG>
7.9044313

>  <PEOE_VSA_POL>
18.228603

>  <PEOE_VSA_POS>
147.83162

>  <PEOE_VSA_PPOS>
10.324173

>  <petitjean>
0.5

>  <petitjeanSC>
1

>  <Q_PC+>
0

>  <Q_PC->
0

>  <Q_RPC+>
0

>  <Q_RPC->
0

>  <Q_VSA_FHYD>
1

>  <Q_VSA_FNEG>
0

>  <Q_VSA_FPNEG>
0

>  <Q_VSA_FPOL>
0

>  <Q_VSA_FPOS>
1

>  <Q_VSA_FPPOS>
0

>  <Q_VSA_HYD>
296.94815

>  <Q_VSA_NEG>
0

>  <Q_VSA_PNEG>
0

>  <Q_VSA_POL>
0

>  <Q_VSA_POS>
296.94815

>  <Q_VSA_PPOS>
0

>  <radius>
5

>  <reactive>
0

>  <rings>
2

>  <RPC+>
0

>  <RPC->
0

>  <rsynth>
0

>  <SlogP>
3.5379701

>  <SlogP_VSA0>
25.385227

>  <SlogP_VSA1>
3.1243138

>  <SlogP_VSA2>
16.78553

>  <SlogP_VSA3>
55.318733

>  <SlogP_VSA4>
3.185575

>  <SlogP_VSA5>
18.868406

>  <SlogP_VSA6>
0

>  <SlogP_VSA7>
75.289841

>  <SlogP_VSA8>
37.736813

>  <SlogP_VSA9>
71.466629

>  <SMR>
8.0689497

>  <SMR_VSA0>
0

>  <SMR_VSA1>
28.509541

>  <SMR_VSA2>
16.78553

>  <SMR_VSA3>
8.0001755

>  <SMR_VSA4>
4.7171016

>  <SMR_VSA5>
127.17796

>  <SMR_VSA6>
55.318733

>  <SMR_VSA7>
66.652031

>  <TPSA>
39.259998

>  <VAdjEq>
0.5023343

>  <VAdjMa>
5.321928

>  <VDistEq>
3.1618545

>  <VDistMa>
8.1913157

>  <vdw_area>
296.94815

>  <vdw_vol>
396.07617

>  <vsa_acc>
0

>  <vsa_acid>
0

>  <vsa_base>
0

>  <vsa_don>
5.6825762

>  <vsa_hyd>
241.49152

>  <vsa_other>
12.949531

>  <vsa_pol>
19.249496

>  <Weight>
260.38098

>  <weinerPath>
759

>  <weinerPol>
25

>  <zagreb>
92

$$$$