S(=O)(=O)(C(C)(C)C)CC(Cc1ccccc1)C(=O)NC(Cc1nc[nH]c1)C(=O)NC(CC1CCCCC1)C(O)C(O)C1CC1
  MOE2013           2D

 44 47  0  0  1  0  0  0  0  0999 V2000
    0.0000    0.0000    0.0000 S   0  0  0  0  0  0  0  0  0  0  0  0
   -0.0020   -1.5000    0.0000 O   0  0  0  0  0  0  0  0  0  0  0  0
    0.0020    1.5000    0.0000 O   0  0  0  0  0  0  0  0  0  0  0  0
    1.5000   -0.0020    0.0000 C   0  0  0  0  0  0  0  0  0  0  0  0
    3.0000   -0.0040    0.0000 C   0  0  0  0  0  0  0  0  0  0  0  0
    1.5020    1.4980    0.0000 C   0  0  0  0  0  0  0  0  0  0  0  0
    1.4980   -1.5020    0.0000 C   0  0  0  0  0  0  0  0  0  0  0  0
   -1.5000    0.0020    0.0000 C   0  0  0  0  0  0  0  0  0  0  0  0
   -2.2520   -1.2960    0.0000 C   0  0  3  0  0  0  0  0  0  0  0  0
   -1.5040   -2.5960    0.0000 C   0  0  0  0  0  0  0  0  0  0  0  0
   -2.2560   -3.8940    0.0000 C   0  0  0  0  0  0  0  0  0  0  0  0
   -1.5080   -5.1940    0.0000 C   0  0  0  0  0  0  0  0  0  0  0  0
   -2.2590   -6.4920    0.0000 C   0  0  0  0  0  0  0  0  0  0  0  0
   -3.7590   -6.4900    0.0000 C   0  0  0  0  0  0  0  0  0  0  0  0
   -4.5070   -5.1900    0.0000 C   0  0  0  0  0  0  0  0  0  0  0  0
   -3.7560   -3.8920    0.0000 C   0  0  0  0  0  0  0  0  0  0  0  0
   -3.7520   -1.2940    0.0000 C   0  0  0  0  0  0  0  0  0  0  0  0
   -4.5000    0.0060    0.0000 O   0  0  0  0  0  0  0  0  0  0  0  0
   -4.5040   -2.5920    0.0000 N   0  0  0  0  0  0  0  0  0  0  0  0
   -6.0040   -2.5890    0.0000 C   0  0  3  0  0  0  0  0  0  0  0  0
   -6.7520   -1.2890    0.0000 C   0  0  0  0  0  0  0  0  0  0  0  0
   -8.2520   -1.2870    0.0000 C   0  0  0  0  0  0  0  0  0  0  0  0
   -9.1320   -0.0720    0.0000 N   0  0  0  0  0  0  0  0  0  0  0  0
  -10.5590   -0.5340    0.0000 C   0  0  0  0  0  0  0  0  0  0  0  0
  -10.5610   -2.0340    0.0000 N   0  0  0  0  0  0  0  0  0  0  0  0
   -9.1350   -2.4990    0.0000 C   0  0  0  0  0  0  0  0  0  0  0  0
   -6.7560   -3.8870    0.0000 C   0  0  0  0  0  0  0  0  0  0  0  0
   -6.0070   -5.1870    0.0000 O   0  0  0  0  0  0  0  0  0  0  0  0
   -8.2560   -3.8850    0.0000 N   0  0  0  0  0  0  0  0  0  0  0  0
   -9.0070   -5.1830    0.0000 C   0  0  3  0  0  0  0  0  0  0  0  0
   -8.2590   -6.4830    0.0000 C   0  0  0  0  0  0  0  0  0  0  0  0
   -9.0110   -7.7810    0.0000 C   0  0  0  0  0  0  0  0  0  0  0  0
  -10.5110   -7.7790    0.0000 C   0  0  0  0  0  0  0  0  0  0  0  0
  -11.2630   -9.0770    0.0000 C   0  0  0  0  0  0  0  0  0  0  0  0
  -10.5150  -10.3770    0.0000 C   0  0  0  0  0  0  0  0  0  0  0  0
   -9.0150  -10.3790    0.0000 C   0  0  0  0  0  0  0  0  0  0  0  0
   -8.2630   -9.0810    0.0000 C   0  0  0  0  0  0  0  0  0  0  0  0
  -10.5070   -5.1810    0.0000 C   0  0  3  0  0  0  0  0  0  0  0  0
  -11.2590   -6.4790    0.0000 O   0  0  0  0  0  0  0  0  0  0  0  0
  -11.2560   -3.8810    0.0000 C   0  0  3  0  0  0  0  0  0  0  0  0
  -10.5040   -2.5830    0.0000 O   0  0  0  0  0  0  0  0  0  0  0  0
  -12.7560   -3.8790    0.0000 C   0  0  0  0  0  0  0  0  0  0  0  0
  -14.0540   -3.1270    0.0000 C   0  0  0  0  0  0  0  0  0  0  0  0
  -14.0560   -4.6270    0.0000 C   0  0  0  0  0  0  0  0  0  0  0  0
  1  2  2  0  0  0  0
  1  3  2  0  0  0  0
  1  4  1  0  0  0  0
  1  8  1  0  0  0  0
  4  5  1  0  0  0  0
  4  6  1  0  0  0  0
  4  7  1  0  0  0  0
  8  9  1  0  0  0  0
  9 10  1  0  0  0  0
  9 17  1  0  0  0  0
 10 11  1  0  0  0  0
 11 12  1  0  0  0  0
 11 16  2  0  0  0  0
 12 13  2  0  0  0  0
 13 14  1  0  0  0  0
 14 15  2  0  0  0  0
 15 16  1  0  0  0  0
 17 18  2  0  0  0  0
 17 19  1  0  0  0  0
 19 20  1  0  0  0  0
 20 21  1  0  0  0  0
 20 27  1  0  0  0  0
 21 22  1  0  0  0  0
 22 23  1  0  0  0  0
 22 26  2  0  0  0  0
 23 24  2  0  0  0  0
 24 25  1  0  0  0  0
 25 26  1  0  0  0  0
 27 28  2  0  0  0  0
 27 29  1  0  0  0  0
 29 30  1  0  0  0  0
 30 31  1  0  0  0  0
 30 38  1  0  0  0  0
 31 32  1  0  0  0  0
 32 33  1  0  0  0  0
 32 37  1  0  0  0  0
 33 34  1  0  0  0  0
 34 35  1  0  0  0  0
 35 36  1  0  0  0  0
 36 37  1  0  0  0  0
 38 39  1  0  0  0  0
 38 40  1  0  0  0  0
 40 41  1  0  0  0  0
 40 42  1  0  0  0  0
 42 43  1  0  0  0  0
 42 44  1  0  0  0  0
 43 44  1  0  0  0  0
M  END
>  <Index>
935

>  <ID>
HT1809

>  <class>
0

>  <apol>
103.53165

>  <ast_fraglike>
0

>  <ast_fraglike_ext>
0

>  <ast_violation>
4

>  <ast_violation_ext>
6

>  <a_acc>
8

>  <a_acid>
0

>  <a_aro>
11

>  <a_base>
0

>  <a_count>
94

>  <a_don>
6

>  <a_donacc>
14

>  <a_heavy>
44

>  <a_hyd>
30

>  <a_IC>
143.96376

>  <a_ICM>
1.5315294

>  <a_nB>
0

>  <a_nBr>
0

>  <a_nC>
33

>  <a_nCl>
0

>  <a_nF>
0

>  <a_nH>
50

>  <a_nI>
0

>  <a_nN>
4

>  <a_nO>
6

>  <a_nP>
0

>  <a_nS>
1

>  <balabanJ>
1.4997869

>  <BCUT_PEOE_0>
-2.8317654

>  <BCUT_PEOE_1>
-0.52067959

>  <BCUT_PEOE_2>
0.58004415

>  <BCUT_PEOE_3>
2.8480847

>  <BCUT_SLOGP_0>
-2.8851578

>  <BCUT_SLOGP_1>
-0.46571377

>  <BCUT_SLOGP_2>
0.63609374

>  <BCUT_SLOGP_3>
2.903928

>  <BCUT_SMR_0>
-2.5798819

>  <BCUT_SMR_1>
-0.39038321

>  <BCUT_SMR_2>
0.71196818

>  <BCUT_SMR_3>
3.08476

>  <bpol>
66.352348

>  <b_1rotN>
15

>  <b_1rotR>
0.31914893

>  <b_ar>
11

>  <b_count>
97

>  <b_double>
2

>  <b_heavy>
47

>  <b_max1len>
7

>  <b_rotN>
18

>  <b_rotR>
0.38297874

>  <b_single>
84

>  <b_triple>
0

>  <chi0>
31.907202

>  <chi0v>
27.060457

>  <chi0v_C>
21.361078

>  <chi0_C>
22.578775

>  <chi1>
20.836338

>  <chi1v>
17.697601

>  <chi1v_C>
12.158051

>  <chi1_C>
13.382143

>  <chiral>
5

>  <chiral_u>
5

>  <density>
0.73553747

>  <diameter>
16

>  <FCharge>
0

>  <GCUT_PEOE_0>
-0.90966153

>  <GCUT_PEOE_1>
-0.37499216

>  <GCUT_PEOE_2>
0.05882284

>  <GCUT_PEOE_3>
3.1662869

>  <GCUT_SLOGP_0>
-1.1640301

>  <GCUT_SLOGP_1>
-0.33246884

>  <GCUT_SLOGP_2>
0.12722404

>  <GCUT_SLOGP_3>
3.1463253

>  <GCUT_SMR_0>
-0.53232223

>  <GCUT_SMR_1>
-0.21605732

>  <GCUT_SMR_2>
0.15837096

>  <GCUT_SMR_3>
3.394675

>  <Kier1>
36.829334

>  <Kier2>
16.897305

>  <Kier3>
10.756098

>  <KierA1>
32.077209

>  <KierA2>
14.667922

>  <KierA3>
9.3153324

>  <KierFlex>
10.693319

>  <lip_acc>
10

>  <lip_don>
5

>  <lip_druglike>
1

>  <lip_violation>
1

>  <logP(o/w)>
3.325

>  <logS>
-6.4275098

>  <mr>
17.290859

>  <mutagenic>
0

>  <nmol>
1

>  <opr_brigid>
20

>  <opr_leadlike>
0

>  <opr_nring>
4

>  <opr_nrot>
18

>  <opr_violation>
3

>  <PC+>
0

>  <PC->
0

>  <PEOE_PC+>
4.5055761

>  <PEOE_PC->
-4.5055761

>  <PEOE_RPC+>
0.05416422

>  <PEOE_RPC->
0.10614902

>  <PEOE_VSA+0>
218.18262

>  <PEOE_VSA+1>
78.641228

>  <PEOE_VSA+2>
20.847048

>  <PEOE_VSA+3>
36.534412

>  <PEOE_VSA+4>
46.547409

>  <PEOE_VSA+5>
0

>  <PEOE_VSA+6>
0

>  <PEOE_VSA-0>
37.013794

>  <PEOE_VSA-1>
104.78108

>  <PEOE_VSA-2>
0

>  <PEOE_VSA-3>
6.5127993

>  <PEOE_VSA-4>
5.6825762

>  <PEOE_VSA-5>
27.133842

>  <PEOE_VSA-6>
47.962276

>  <PEOE_VSA_FHYD>
0.79784346

>  <PEOE_VSA_FNEG>
0.36372206

>  <PEOE_VSA_FPNEG>
0.12825291

>  <PEOE_VSA_FPOL>
0.20215656

>  <PEOE_VSA_FPOS>
0.63627791

>  <PEOE_VSA_FPPOS>
0.07390365

>  <PEOE_VSA_HYD>
502.51297

>  <PEOE_VSA_NEG>
229.08636

>  <PEOE_VSA_PNEG>
80.778694

>  <PEOE_VSA_POL>
127.3261

>  <PEOE_VSA_POS>
400.75272

>  <PEOE_VSA_PPOS>
46.547409

>  <petitjean>
0.5

>  <petitjeanSC>
1

>  <Q_PC+>
0

>  <Q_PC->
0

>  <Q_RPC+>
0

>  <Q_RPC->
0

>  <Q_VSA_FHYD>
1

>  <Q_VSA_FNEG>
0

>  <Q_VSA_FPNEG>
0

>  <Q_VSA_FPOL>
0

>  <Q_VSA_FPOS>
1

>  <Q_VSA_FPPOS>
0

>  <Q_VSA_HYD>
629.83911

>  <Q_VSA_NEG>
0

>  <Q_VSA_PNEG>
0

>  <Q_VSA_POL>
0

>  <Q_VSA_POS>
629.83911

>  <Q_VSA_PPOS>
0

>  <radius>
8

>  <reactive>
0

>  <rings>
4

>  <RPC+>
0

>  <RPC->
0

>  <rsynth>
0.63636363

>  <SlogP>
3.0961399

>  <SlogP_VSA0>
86.791954

>  <SlogP_VSA1>
75.474785

>  <SlogP_VSA2>
92.290466

>  <SlogP_VSA3>
17.233564

>  <SlogP_VSA4>
19.174711

>  <SlogP_VSA5>
37.736813

>  <SlogP_VSA6>
0

>  <SlogP_VSA7>
122.21581

>  <SlogP_VSA8>
150.94725

>  <SlogP_VSA9>
99.978043

>  <SMR>
16.92585

>  <SMR_VSA0>
95.896118

>  <SMR_VSA1>
67.555984

>  <SMR_VSA2>
66.039421

>  <SMR_VSA3>
26.843559

>  <SMR_VSA4>
0

>  <SMR_VSA5>
310.89987

>  <SMR_VSA6>
27.751131

>  <SMR_VSA7>
106.85732

>  <TPSA>
161.48

>  <VAdjEq>
0.28022119

>  <VAdjMa>
6.5545888

>  <VDistEq>
3.8016677

>  <VDistMa>
10.688984

>  <vdw_area>
629.83911

>  <vdw_vol>
857.67346

>  <vsa_acc>
59.150364

>  <vsa_acid>
0

>  <vsa_base>
0

>  <vsa_don>
11.365152

>  <vsa_hyd>
409.28668

>  <vsa_other>
57.202377

>  <vsa_pol>
109.01451

>  <Weight>
630.85101

>  <weinerPath>
6882

>  <weinerPol>
66

>  <zagreb>
228

$$$$