O1[C@@H](C=C[C@@H]1N1C=C(C)C(=O)NC1=O)CO
  MOE2013           2D

 16 17  0  0  1  0  0  0  0  0999 V2000
    0.0000    0.0000    0.0000 O   0  0  0  0  0  0  0  0  0  0  0  0
    1.4380    0.4260    0.0000 C   0  0  1  0  0  0  0  0  0  0  0  0
    1.4780    1.9250    0.0000 C   0  0  0  0  0  0  0  0  0  0  0  0
    0.0640    2.4260    0.0000 C   0  0  0  0  0  0  0  0  0  0  0  0
   -0.8490    1.2360    0.0000 C   0  0  2  0  0  0  0  0  0  0  0  0
   -2.3490    1.2760    0.0000 N   0  0  0  0  0  0  0  0  0  0  0  0
   -3.1330   -0.0030    0.0000 C   0  0  0  0  0  0  0  0  0  0  0  0
   -4.6320    0.0370    0.0000 C   0  0  0  0  0  0  0  0  0  0  0  0
   -5.4160   -1.2420    0.0000 C   0  0  0  0  0  0  0  0  0  0  0  0
   -5.3480    1.3550    0.0000 C   0  0  0  0  0  0  0  0  0  0  0  0
   -6.8470    1.3950    0.0000 O   0  0  0  0  0  0  0  0  0  0  0  0
   -4.5640    2.6340    0.0000 N   0  0  0  0  0  0  0  0  0  0  0  0
   -3.0640    2.5940    0.0000 C   0  0  0  0  0  0  0  0  0  0  0  0
   -2.2800    3.8730    0.0000 O   0  0  0  0  0  0  0  0  0  0  0  0
    2.6280   -0.4880    0.0000 C   0  0  0  0  0  0  0  0  0  0  0  0
    4.0140    0.0860    0.0000 O   0  0  0  0  0  0  0  0  0  0  0  0
  1  2  1  0  0  0  0
  1  5  1  0  0  0  0
  2  3  1  0  0  0  0
  2 15  1  1  0  0  0
  3  4  2  0  0  0  0
  4  5  1  0  0  0  0
  5  6  1  1  0  0  0
  6  7  1  0  0  0  0
  6 13  1  0  0  0  0
  7  8  2  0  0  0  0
  8  9  1  0  0  0  0
  8 10  1  0  0  0  0
 10 11  2  0  0  0  0
 10 12  1  0  0  0  0
 12 13  1  0  0  0  0
 13 14  2  0  0  0  0
 15 16  1  0  0  0  0
M  END
>  <Index>
997

>  <ID>
HT1915

>  <class>
0

>  <apol>
31.009516

>  <ast_fraglike>
0

>  <ast_fraglike_ext>
0

>  <ast_violation>
1

>  <ast_violation_ext>
1

>  <a_acc>
4

>  <a_acid>
0

>  <a_aro>
0

>  <a_base>
0

>  <a_count>
28

>  <a_don>
2

>  <a_donacc>
6

>  <a_heavy>
16

>  <a_hyd>
7

>  <a_IC>
48.367107

>  <a_ICM>
1.7273967

>  <a_nB>
0

>  <a_nBr>
0

>  <a_nC>
10

>  <a_nCl>
0

>  <a_nF>
0

>  <a_nH>
12

>  <a_nI>
0

>  <a_nN>
2

>  <a_nO>
4

>  <a_nP>
0

>  <a_nS>
0

>  <balabanJ>
1.9460999

>  <BCUT_PEOE_0>
-2.4884458

>  <BCUT_PEOE_1>
-0.59814256

>  <BCUT_PEOE_2>
0.57626683

>  <BCUT_PEOE_3>
2.579932

>  <BCUT_SLOGP_0>
-2.655112

>  <BCUT_SLOGP_1>
-0.51746422

>  <BCUT_SLOGP_2>
0.59233481

>  <BCUT_SLOGP_3>
2.4952168

>  <BCUT_SMR_0>
-2.2277255

>  <BCUT_SMR_1>
-0.45896521

>  <BCUT_SMR_2>
0.68409407

>  <BCUT_SMR_3>
2.8320031

>  <bpol>
19.590485

>  <b_1rotN>
2

>  <b_1rotR>
0.11764706

>  <b_ar>
0

>  <b_count>
29

>  <b_double>
4

>  <b_heavy>
17

>  <b_max1len>
4

>  <b_rotN>
2

>  <b_rotR>
0.11764706

>  <b_single>
25

>  <b_triple>
0

>  <chi0>
11.706742

>  <chi0v>
8.7130299

>  <chi0v_C>
6.0938582

>  <chi0_C>
6.7151785

>  <chi1>
7.6133924

>  <chi1v>
4.8828087

>  <chi1v_C>
2.4469235

>  <chi1_C>
3.0436769

>  <chiral>
2

>  <chiral_u>
0

>  <density>
0.81734139

>  <diameter>
9

>  <FCharge>
0

>  <GCUT_PEOE_0>
-0.79576361

>  <GCUT_PEOE_1>
-0.44621676

>  <GCUT_PEOE_2>
0.10635471

>  <GCUT_PEOE_3>
2.4092429

>  <GCUT_SLOGP_0>
-1.1699483

>  <GCUT_SLOGP_1>
-0.39539304

>  <GCUT_SLOGP_2>
0.10893057

>  <GCUT_SLOGP_3>
2.3636696

>  <GCUT_SMR_0>
-0.51762009

>  <GCUT_SMR_1>
-0.22545591

>  <GCUT_SMR_2>
0.15988462

>  <GCUT_SMR_3>
2.6574175

>  <Kier1>
12.456747

>  <Kier2>
5.1041665

>  <Kier3>
2.6514049

>  <KierA1>
9.2236729

>  <KierA2>
3.6965046

>  <KierA3>
1.8883283

>  <KierFlex>
2.1309593

>  <lip_acc>
6

>  <lip_don>
2

>  <lip_druglike>
1

>  <lip_violation>
0

>  <logP(o/w)>
-1.0140001

>  <logS>
-0.79949999

>  <mr>
5.5069818

>  <mutagenic>
0

>  <nmol>
1

>  <opr_brigid>
11

>  <opr_leadlike>
1

>  <opr_nring>
2

>  <opr_nrot>
2

>  <opr_violation>
0

>  <PC+>
0

>  <PC->
0

>  <PEOE_PC+>
1.9166439

>  <PEOE_PC->
-1.9166439

>  <PEOE_RPC+>
0.17300071

>  <PEOE_RPC->
0.20459382

>  <PEOE_VSA+0>
31.750612

>  <PEOE_VSA+1>
44.808994

>  <PEOE_VSA+2>
4.9049287

>  <PEOE_VSA+3>
18.014954

>  <PEOE_VSA+4>
10.324173

>  <PEOE_VSA+5>
12.949531

>  <PEOE_VSA+6>
17.440542

>  <PEOE_VSA-0>
31.002581

>  <PEOE_VSA-1>
12.254904

>  <PEOE_VSA-2>
0

>  <PEOE_VSA-3>
0

>  <PEOE_VSA-4>
13.566921

>  <PEOE_VSA-5>
13.703812

>  <PEOE_VSA-6>
10.271297

>  <PEOE_VSA_FHYD>
0.64588839

>  <PEOE_VSA_FNEG>
0.36561984

>  <PEOE_VSA_FPNEG>
0.16987862

>  <PEOE_VSA_FPOL>
0.35411161

>  <PEOE_VSA_FPOS>
0.63438016

>  <PEOE_VSA_FPPOS>
0.18423298

>  <PEOE_VSA_HYD>
142.73697

>  <PEOE_VSA_NEG>
80.799515

>  <PEOE_VSA_PNEG>
37.54203

>  <PEOE_VSA_POL>
78.256279

>  <PEOE_VSA_POS>
140.19374

>  <PEOE_VSA_PPOS>
40.714245

>  <petitjean>
0.44444445

>  <petitjeanSC>
0.80000001

>  <Q_PC+>
0

>  <Q_PC->
0

>  <Q_RPC+>
0

>  <Q_RPC->
0

>  <Q_VSA_FHYD>
1

>  <Q_VSA_FNEG>
0

>  <Q_VSA_FPNEG>
0

>  <Q_VSA_FPOL>
0

>  <Q_VSA_FPOS>
1

>  <Q_VSA_FPPOS>
0

>  <Q_VSA_HYD>
220.99326

>  <Q_VSA_NEG>
0

>  <Q_VSA_PNEG>
0

>  <Q_VSA_POL>
0

>  <Q_VSA_POS>
220.99326

>  <Q_VSA_PPOS>
0

>  <radius>
5

>  <reactive>
0

>  <rings>
2

>  <RPC+>
0

>  <RPC->
0

>  <rsynth>
1

>  <SlogP>
-0.28459999

>  <SlogP_VSA0>
43.395977

>  <SlogP_VSA1>
13.213054

>  <SlogP_VSA2>
47.370575

>  <SlogP_VSA3>
20.926258

>  <SlogP_VSA4>
0

>  <SlogP_VSA5>
3.185575

>  <SlogP_VSA6>
0

>  <SlogP_VSA7>
52.500725

>  <SlogP_VSA8>
0

>  <SlogP_VSA9>
57.188232

>  <SMR>
5.4021502

>  <SMR_VSA0>
58.724319

>  <SMR_VSA1>
28.509541

>  <SMR_VSA2>
18.01075

>  <SMR_VSA3>
15.694046

>  <SMR_VSA4>
0

>  <SMR_VSA5>
52.500725

>  <SMR_VSA6>
31.014997

>  <SMR_VSA7>
33.326015

>  <TPSA>
78.870003

>  <VAdjEq>
0.56510133

>  <VAdjMa>
5.0874629

>  <VDistEq>
2.8623741

>  <VDistMa>
7.6977053

>  <vdw_area>
220.99326

>  <vdw_vol>
274.32355

>  <vsa_acc>
29.637598

>  <vsa_acid>
0

>  <vsa_base>
0

>  <vsa_don>
5.6825762

>  <vsa_hyd>
114.05048

>  <vsa_other>
43.339603

>  <vsa_pol>
48.887096

>  <Weight>
224.21599

>  <weinerPath>
433

>  <weinerPol>
23

>  <zagreb>
82

$$$$