IC1=CN(C=C(I)C1=O)CC(OCCC)=O
  MOE2013           2D

 16 16  0  0  0  0  0  0  0  0999 V2000
    0.0000    0.0000    0.0000 I   0  0  0  0  0  0  0  0  0  0  0  0
    1.2950    0.7580    0.0000 C   0  0  0  0  0  0  0  0  0  0  0  0
    2.5980    0.0150    0.0000 C   0  0  0  0  0  0  0  0  0  0  0  0
    3.8930    0.7730    0.0000 N   0  0  0  0  0  0  0  0  0  0  0  0
    3.8840    2.2730    0.0000 C   0  0  0  0  0  0  0  0  0  0  0  0
    2.5800    3.0150    0.0000 C   0  0  0  0  0  0  0  0  0  0  0  0
    2.5710    4.5150    0.0000 I   0  0  0  0  0  0  0  0  0  0  0  0
    1.2860    2.2580    0.0000 C   0  0  0  0  0  0  0  0  0  0  0  0
   -0.0180    3.0000    0.0000 O   0  0  0  0  0  0  0  0  0  0  0  0
    5.1960    0.0310    0.0000 C   0  0  0  0  0  0  0  0  0  0  0  0
    6.4910    0.7890    0.0000 C   0  0  0  0  0  0  0  0  0  0  0  0
    7.7940    0.0460    0.0000 O   0  0  0  0  0  0  0  0  0  0  0  0
    9.0890    0.8040    0.0000 C   0  0  0  0  0  0  0  0  0  0  0  0
   10.3920    0.0620    0.0000 C   0  0  0  0  0  0  0  0  0  0  0  0
   11.6870    0.8190    0.0000 C   0  0  0  0  0  0  0  0  0  0  0  0
    6.4820    2.2890    0.0000 O   0  0  0  0  0  0  0  0  0  0  0  0
  1  2  1  0  0  0  0
  2  3  2  0  0  0  0
  2  8  1  0  0  0  0
  3  4  1  0  0  0  0
  4  5  1  0  0  0  0
  4 10  1  0  0  0  0
  5  6  2  0  0  0  0
  6  7  1  0  0  0  0
  6  8  1  0  0  0  0
  8  9  2  0  0  0  0
 10 11  1  0  0  0  0
 11 12  1  0  0  0  0
 11 16  2  0  0  0  0
 12 13  1  0  0  0  0
 13 14  1  0  0  0  0
 14 15  1  0  0  0  0
M  END
>  <Index>
914

>  <ID>
HT1767

>  <class>
0

>  <apol>
39.140724

>  <ast_fraglike>
0

>  <ast_fraglike_ext>
0

>  <ast_violation>
1

>  <ast_violation_ext>
2

>  <a_acc>
2

>  <a_acid>
0

>  <a_aro>
0

>  <a_base>
0

>  <a_count>
27

>  <a_don>
0

>  <a_donacc>
2

>  <a_heavy>
16

>  <a_hyd>
10

>  <a_IC>
50.354046

>  <a_ICM>
1.8649647

>  <a_nB>
0

>  <a_nBr>
0

>  <a_nC>
10

>  <a_nCl>
0

>  <a_nF>
0

>  <a_nH>
11

>  <a_nI>
2

>  <a_nN>
1

>  <a_nO>
3

>  <a_nP>
0

>  <a_nS>
0

>  <balabanJ>
2.3320818

>  <BCUT_PEOE_0>
-2.5062778

>  <BCUT_PEOE_1>
-0.57226902

>  <BCUT_PEOE_2>
0.44536611

>  <BCUT_PEOE_3>
2.4915695

>  <BCUT_SLOGP_0>
-2.5495155

>  <BCUT_SLOGP_1>
-0.28912809

>  <BCUT_SLOGP_2>
0.69305772

>  <BCUT_SLOGP_3>
2.5388737

>  <BCUT_SMR_0>
-2.2715313

>  <BCUT_SMR_1>
-0.08653684

>  <BCUT_SMR_2>
1.0433407

>  <BCUT_SMR_3>
2.7545731

>  <bpol>
25.017277

>  <b_1rotN>
4

>  <b_1rotR>
0.25

>  <b_ar>
0

>  <b_count>
27

>  <b_double>
4

>  <b_heavy>
16

>  <b_max1len>
4

>  <b_rotN>
5

>  <b_rotR>
0.3125

>  <b_single>
23

>  <b_triple>
0

>  <chi0>
12.129392

>  <chi0v>
13.018905

>  <chi0v_C>
6.276021

>  <chi0_C>
6.8449349

>  <chi1>
7.5409126

>  <chi1v>
6.9071465

>  <chi1v_C>
2.6380105

>  <chi1_C>
3.0985184

>  <chiral>
0

>  <chiral_u>
0

>  <density>
1.3605897

>  <diameter>
10

>  <FCharge>
0

>  <GCUT_PEOE_0>
-0.80155653

>  <GCUT_PEOE_1>
-0.40264016

>  <GCUT_PEOE_2>
-0.012472352

>  <GCUT_PEOE_3>
2.2437754

>  <GCUT_SLOGP_0>
-0.93010801

>  <GCUT_SLOGP_1>
-0.27864489

>  <GCUT_SLOGP_2>
0.17526737

>  <GCUT_SLOGP_3>
2.2742052

>  <GCUT_SMR_0>
-0.52368754

>  <GCUT_SMR_1>
-0.11062709

>  <GCUT_SMR_2>
0.34545773

>  <GCUT_SMR_3>
2.5767913

>  <Kier1>
14.0625

>  <Kier2>
6.6666665

>  <Kier3>
4.4236112

>  <KierA1>
16.467062

>  <KierA2>
7.8908219

>  <KierA3>
5.2780108

>  <KierFlex>
8.1211662

>  <lip_acc>
4

>  <lip_don>
0

>  <lip_druglike>
1

>  <lip_violation>
0

>  <logP(o/w)>
3.2260001

>  <logS>
-5.1985502

>  <mr>
7.9476666

>  <mutagenic>
0

>  <nmol>
1

>  <opr_brigid>
6

>  <opr_leadlike>
1

>  <opr_nring>
1

>  <opr_nrot>
4

>  <opr_violation>
0

>  <PC+>
0

>  <PC->
0

>  <PEOE_PC+>
1.2813504

>  <PEOE_PC->
-1.2813504

>  <PEOE_RPC+>
0.21622895

>  <PEOE_RPC->
0.24522875

>  <PEOE_VSA+0>
54.81876

>  <PEOE_VSA+1>
59.81612

>  <PEOE_VSA+2>
0

>  <PEOE_VSA+3>
0

>  <PEOE_VSA+4>
8.458519

>  <PEOE_VSA+5>
14.708499

>  <PEOE_VSA+6>
0

>  <PEOE_VSA-0>
102.68134

>  <PEOE_VSA-1>
18.747677

>  <PEOE_VSA-2>
0

>  <PEOE_VSA-3>
0

>  <PEOE_VSA-4>
0

>  <PEOE_VSA-5>
27.133842

>  <PEOE_VSA-6>
2.503756

>  <PEOE_VSA_FHYD>
0.81720191

>  <PEOE_VSA_FNEG>
0.52295977

>  <PEOE_VSA_FPNEG>
0.10259892

>  <PEOE_VSA_FPOL>
0.1827981

>  <PEOE_VSA_FPOS>
0.47704023

>  <PEOE_VSA_FPPOS>
0.080199182

>  <PEOE_VSA_HYD>
236.0639

>  <PEOE_VSA_NEG>
151.06662

>  <PEOE_VSA_PNEG>
29.637598

>  <PEOE_VSA_POL>
52.804615

>  <PEOE_VSA_POS>
137.8019

>  <PEOE_VSA_PPOS>
23.167019

>  <petitjean>
0.5

>  <petitjeanSC>
1

>  <Q_PC+>
0

>  <Q_PC->
0

>  <Q_RPC+>
0

>  <Q_RPC->
0

>  <Q_VSA_FHYD>
1

>  <Q_VSA_FNEG>
0

>  <Q_VSA_FPNEG>
0

>  <Q_VSA_FPOL>
0

>  <Q_VSA_FPOS>
1

>  <Q_VSA_FPPOS>
0

>  <Q_VSA_HYD>
288.86853

>  <Q_VSA_NEG>
0

>  <Q_VSA_PNEG>
0

>  <Q_VSA_POL>
0

>  <Q_VSA_POS>
288.86853

>  <Q_VSA_PPOS>
0

>  <radius>
5

>  <reactive>
0

>  <rings>
1

>  <RPC+>
0

>  <RPC->
0

>  <rsynth>
1

>  <SlogP>
2.3771

>  <SlogP_VSA0>
0

>  <SlogP_VSA1>
16.557388

>  <SlogP_VSA2>
58.724319

>  <SlogP_VSA3>
39.365837

>  <SlogP_VSA4>
0

>  <SlogP_VSA5>
3.3192859

>  <SlogP_VSA6>
0

>  <SlogP_VSA7>
34.428715

>  <SlogP_VSA8>
18.868406

>  <SlogP_VSA9>
146.89003

>  <SMR>
7.7168999

>  <SMR_VSA0>
58.724319

>  <SMR_VSA1>
3.1243138

>  <SMR_VSA2>
0

>  <SMR_VSA3>
3.3192859

>  <SMR_VSA4>
0

>  <SMR_VSA5>
53.297119

>  <SMR_VSA6>
52.798912

>  <SMR_VSA7>
146.89003

>  <TPSA>
46.610001

>  <VAdjEq>
0.54356444

>  <VAdjMa>
5

>  <VDistEq>
3.0641525

>  <VDistMa>
7.6734462

>  <vdw_area>
288.86853

>  <vdw_vol>
328.54135

>  <vsa_acc>
27.133842

>  <vsa_acid>
0

>  <vsa_base>
0

>  <vsa_don>
0

>  <vsa_hyd>
228.23415

>  <vsa_other>
25.670774

>  <vsa_pol>
27.133842

>  <Weight>
447.00998

>  <weinerPath>
483

>  <weinerPol>
21

>  <zagreb>
74

$$$$