Clc1cc(N)cc(Cl)c1O
  MOE2013           2D

 10 10  0  0  0  0  0  0  0  0999 V2000
    0.0000    0.0000    0.0000 Cl  0  0  0  0  0  0  0  0  0  0  0  0
    0.7500   -1.2990    0.0000 C   0  0  0  0  0  0  0  0  0  0  0  0
    2.2500   -1.2990    0.0000 C   0  0  0  0  0  0  0  0  0  0  0  0
    3.0000   -2.5980    0.0000 C   0  0  0  0  0  0  0  0  0  0  0  0
    4.5000   -2.5980    0.0000 N   0  0  0  0  0  0  0  0  0  0  0  0
    2.2500   -3.8970    0.0000 C   0  0  0  0  0  0  0  0  0  0  0  0
    0.7500   -3.8970    0.0000 C   0  0  0  0  0  0  0  0  0  0  0  0
    0.0000   -5.1960    0.0000 Cl  0  0  0  0  0  0  0  0  0  0  0  0
    0.0000   -2.5980    0.0000 C   0  0  0  0  0  0  0  0  0  0  0  0
   -1.5000   -2.5980    0.0000 O   0  0  0  0  0  0  0  0  0  0  0  0
  1  2  1  0  0  0  0
  2  3  1  0  0  0  0
  2  9  2  0  0  0  0
  3  4  2  0  0  0  0
  4  5  1  0  0  0  0
  4  6  1  0  0  0  0
  6  7  2  0  0  0  0
  7  8  1  0  0  0  0
  7  9  1  0  0  0  0
  9 10  1  0  0  0  0
M  END
>  <Index>
10

>  <ID>
HT0040

>  <class>
0

>  <apol>
20.155966

>  <ast_fraglike>
1

>  <ast_fraglike_ext>
1

>  <ast_violation>
0

>  <ast_violation_ext>
0

>  <a_acc>
1

>  <a_acid>
0

>  <a_aro>
6

>  <a_base>
0

>  <a_count>
15

>  <a_don>
2

>  <a_donacc>
3

>  <a_heavy>
10

>  <a_hyd>
8

>  <a_IC>
29.483944

>  <a_ICM>
1.9655962

>  <a_nB>
0

>  <a_nBr>
0

>  <a_nC>
6

>  <a_nCl>
2

>  <a_nF>
0

>  <a_nH>
5

>  <a_nI>
0

>  <a_nN>
1

>  <a_nO>
1

>  <a_nP>
0

>  <a_nS>
0

>  <balabanJ>
2.5427721

>  <BCUT_PEOE_0>
-2.2032828

>  <BCUT_PEOE_1>
-0.74319661

>  <BCUT_PEOE_2>
0.74358034

>  <BCUT_PEOE_3>
2.1731102

>  <BCUT_SLOGP_0>
-2.3209033

>  <BCUT_SLOGP_1>
-0.4552688

>  <BCUT_SLOGP_2>
1.0172721

>  <BCUT_SLOGP_3>
2.4222574

>  <BCUT_SMR_0>
-1.8570347

>  <BCUT_SMR_1>
-0.41514689

>  <BCUT_SMR_2>
1.0683144

>  <BCUT_SMR_3>
2.5147641

>  <bpol>
5.6460352

>  <b_1rotN>
0

>  <b_1rotR>
0

>  <b_ar>
6

>  <b_count>
15

>  <b_double>
0

>  <b_heavy>
10

>  <b_max1len>
2

>  <b_rotN>
0

>  <b_rotR>
0

>  <b_single>
9

>  <b_triple>
0

>  <chi0>
7.7236147

>  <chi0v>
6.447051

>  <chi0v_C>
3.1547005

>  <chi0_C>
3.7236147

>  <chi1>
4.6090608

>  <chi1v>
3.3008759

>  <chi1v_C>
1.6547005

>  <chi1_C>
2.2996597

>  <chiral>
0

>  <chiral_u>
0

>  <density>
0.96761858

>  <diameter>
5

>  <FCharge>
0

>  <GCUT_PEOE_0>
-0.8113535

>  <GCUT_PEOE_1>
-0.44232321

>  <GCUT_PEOE_2>
0.10594898

>  <GCUT_PEOE_3>
1.9503618

>  <GCUT_SLOGP_0>
-1.3342224

>  <GCUT_SLOGP_1>
-0.16520363

>  <GCUT_SLOGP_2>
0.41739887

>  <GCUT_SLOGP_3>
2.1950374

>  <GCUT_SMR_0>
-0.42614248

>  <GCUT_SMR_1>
-0.12937978

>  <GCUT_SMR_2>
0.44331008

>  <GCUT_SMR_3>
2.2800415

>  <Kier1>
8.1000004

>  <Kier2>
2.9387755

>  <Kier3>
1.75

>  <KierA1>
8.0006151

>  <KierA2>
2.8983855

>  <KierA3>
1.7238444

>  <KierFlex>
2.3188865

>  <lip_acc>
2

>  <lip_don>
3

>  <lip_druglike>
1

>  <lip_violation>
0

>  <logP(o/w)>
2.1800001

>  <logS>
-2.2123899

>  <mr>
4.1186819

>  <mutagenic>
1

>  <nmol>
1

>  <opr_brigid>
6

>  <opr_leadlike>
1

>  <opr_nring>
1

>  <opr_nrot>
0

>  <opr_violation>
0

>  <PC+>
0

>  <PC->
0

>  <PEOE_PC+>
0.86708516

>  <PEOE_PC->
-0.86708516

>  <PEOE_RPC+>
0.25076064

>  <PEOE_RPC->
0.41172752

>  <PEOE_VSA+0>
6.6995511

>  <PEOE_VSA+1>
17.570265

>  <PEOE_VSA+2>
25.696545

>  <PEOE_VSA+3>
0

>  <PEOE_VSA+4>
10.324173

>  <PEOE_VSA+5>
0

>  <PEOE_VSA+6>
0

>  <PEOE_VSA-0>
24.509808

>  <PEOE_VSA-1>
59.163895

>  <PEOE_VSA-2>
0

>  <PEOE_VSA-3>
0

>  <PEOE_VSA-4>
0

>  <PEOE_VSA-5>
0

>  <PEOE_VSA-6>
14.418659

>  <PEOE_VSA_FHYD>
0.84377837

>  <PEOE_VSA_FNEG>
0.61933684

>  <PEOE_VSA_FPNEG>
0.091036722

>  <PEOE_VSA_FPOL>
0.15622161

>  <PEOE_VSA_FPOS>
0.38066316

>  <PEOE_VSA_FPPOS>
0.065184899

>  <PEOE_VSA_HYD>
133.64006

>  <PEOE_VSA_NEG>
98.092361

>  <PEOE_VSA_PNEG>
14.418659

>  <PEOE_VSA_POL>
24.742832

>  <PEOE_VSA_POS>
60.290535

>  <PEOE_VSA_PPOS>
10.324173

>  <petitjean>
0.40000001

>  <petitjeanSC>
0.66666669

>  <Q_PC+>
0

>  <Q_PC->
0

>  <Q_RPC+>
0

>  <Q_RPC->
0

>  <Q_VSA_FHYD>
1

>  <Q_VSA_FNEG>
0

>  <Q_VSA_FPNEG>
0

>  <Q_VSA_FPOL>
0

>  <Q_VSA_FPOS>
1

>  <Q_VSA_FPPOS>
0

>  <Q_VSA_HYD>
158.38289

>  <Q_VSA_NEG>
0

>  <Q_VSA_PNEG>
0

>  <Q_VSA_POL>
0

>  <Q_VSA_POS>
158.38289

>  <Q_VSA_PPOS>
0

>  <radius>
3

>  <reactive>
0

>  <rings>
1

>  <RPC+>
0

>  <RPC->
0

>  <rsynth>
1

>  <SlogP>
2.2811999

>  <SlogP_VSA0>
58.282413

>  <SlogP_VSA1>
0

>  <SlogP_VSA2>
0

>  <SlogP_VSA3>
0

>  <SlogP_VSA4>
0

>  <SlogP_VSA5>
0

>  <SlogP_VSA6>
7.0012131

>  <SlogP_VSA7>
35.286369

>  <SlogP_VSA8>
0

>  <SlogP_VSA9>
86.297462

>  <SMR>
4.2539201

>  <SMR_VSA0>
0

>  <SMR_VSA1>
25.385227

>  <SMR_VSA2>
0

>  <SMR_VSA3>
12.244641

>  <SMR_VSA4>
2.7567475

>  <SMR_VSA5>
68.183556

>  <SMR_VSA6>
0

>  <SMR_VSA7>
78.297287

>  <TPSA>
46.25

>  <VAdjEq>
0.72192812

>  <VAdjMa>
4.321928

>  <VDistEq>
2.0634208

>  <VDistMa>
6.3502398

>  <vdw_area>
158.38289

>  <vdw_vol>
183.97539

>  <vsa_acc>
0

>  <vsa_acid>
0

>  <vsa_base>
0

>  <vsa_don>
17.742489

>  <vsa_hyd>
114.97845

>  <vsa_other>
0

>  <vsa_pol>
31.30941

>  <Weight>
178.01799

>  <weinerPath>
110

>  <weinerPol>
13

>  <zagreb>
48

$$$$