Fc1ccc(cc1)CNC(=O)C=1N=C(N(C)C(=O)C=1O)C(NC(=O)c1oc(nn1)C)(C)C
  MOE2013           2D

 32 34  0  0  0  0  0  0  0  0999 V2000
    0.0000    0.0000    0.0000 F   0  0  0  0  0  0  0  0  0  0  0  0
    1.3010   -0.7470    0.0000 C   0  0  0  0  0  0  0  0  0  0  0  0
    2.5980    0.0060    0.0000 C   0  0  0  0  0  0  0  0  0  0  0  0
    3.8990   -0.7410    0.0000 C   0  0  0  0  0  0  0  0  0  0  0  0
    3.9020   -2.2410    0.0000 C   0  0  0  0  0  0  0  0  0  0  0  0
    2.6050   -2.9940    0.0000 C   0  0  0  0  0  0  0  0  0  0  0  0
    1.3040   -2.2470    0.0000 C   0  0  0  0  0  0  0  0  0  0  0  0
    5.2030   -2.9880    0.0000 C   0  0  0  0  0  0  0  0  0  0  0  0
    6.5000   -2.2360    0.0000 N   0  0  0  0  0  0  0  0  0  0  0  0
    7.8010   -2.9830    0.0000 C   0  0  0  0  0  0  0  0  0  0  0  0
    7.8040   -4.4830    0.0000 O   0  0  0  0  0  0  0  0  0  0  0  0
    9.0980   -2.2300    0.0000 C   0  0  0  0  0  0  0  0  0  0  0  0
   10.3990   -2.9770    0.0000 N   0  0  0  0  0  0  0  0  0  0  0  0
   11.6960   -2.2240    0.0000 C   0  0  0  0  0  0  0  0  0  0  0  0
   11.6930   -0.7240    0.0000 N   0  0  0  0  0  0  0  0  0  0  0  0
   12.9900    0.0290    0.0000 C   0  0  0  0  0  0  0  0  0  0  0  0
   10.3920    0.0230    0.0000 C   0  0  0  0  0  0  0  0  0  0  0  0
   10.3890    1.5230    0.0000 O   0  0  0  0  0  0  0  0  0  0  0  0
    9.0950   -0.7300    0.0000 C   0  0  0  0  0  0  0  0  0  0  0  0
    7.7940    0.0170    0.0000 O   0  0  0  0  0  0  0  0  0  0  0  0
   12.9970   -2.9710    0.0000 C   0  0  0  0  0  0  0  0  0  0  0  0
   14.2980   -3.7180    0.0000 N   0  0  0  0  0  0  0  0  0  0  0  0
   15.5950   -2.9650    0.0000 C   0  0  0  0  0  0  0  0  0  0  0  0
   15.5920   -1.4650    0.0000 O   0  0  0  0  0  0  0  0  0  0  0  0
   16.8960   -3.7130    0.0000 C   0  0  0  0  0  0  0  0  0  0  0  0
   18.2650   -3.0990    0.0000 O   0  0  0  0  0  0  0  0  0  0  0  0
   19.2710   -4.2120    0.0000 C   0  0  0  0  0  0  0  0  0  0  0  0
   18.5240   -5.5130    0.0000 N   0  0  0  0  0  0  0  0  0  0  0  0
   17.0560   -5.2040    0.0000 N   0  0  0  0  0  0  0  0  0  0  0  0
   20.7620   -4.0520    0.0000 C   0  0  0  0  0  0  0  0  0  0  0  0
   12.2500   -4.2720    0.0000 C   0  0  0  0  0  0  0  0  0  0  0  0
   13.7440   -1.6700    0.0000 C   0  0  0  0  0  0  0  0  0  0  0  0
  1  2  1  0  0  0  0
  2  3  1  0  0  0  0
  2  7  2  0  0  0  0
  3  4  2  0  0  0  0
  4  5  1  0  0  0  0
  5  6  2  0  0  0  0
  5  8  1  0  0  0  0
  6  7  1  0  0  0  0
  8  9  1  0  0  0  0
  9 10  1  0  0  0  0
 10 11  2  0  0  0  0
 10 12  1  0  0  0  0
 12 13  1  0  0  0  0
 12 19  2  0  0  0  0
 13 14  2  0  0  0  0
 14 15  1  0  0  0  0
 14 21  1  0  0  0  0
 15 16  1  0  0  0  0
 15 17  1  0  0  0  0
 17 18  2  0  0  0  0
 17 19  1  0  0  0  0
 19 20  1  0  0  0  0
 21 22  1  0  0  0  0
 21 31  1  0  0  0  0
 21 32  1  0  0  0  0
 22 23  1  0  0  0  0
 23 24  2  0  0  0  0
 23 25  1  0  0  0  0
 25 26  1  0  0  0  0
 25 29  2  0  0  0  0
 26 27  1  0  0  0  0
 27 28  2  0  0  0  0
 27 30  1  0  0  0  0
 28 29  1  0  0  0  0
M  END
>  <Index>
927

>  <ID>
HT1795

>  <class>
0

>  <apol>
60.369652

>  <ast_fraglike>
0

>  <ast_fraglike_ext>
0

>  <ast_violation>
2

>  <ast_violation_ext>
4

>  <a_acc>
7

>  <a_acid>
0

>  <a_aro>
11

>  <a_base>
0

>  <a_count>
53

>  <a_don>
3

>  <a_donacc>
10

>  <a_heavy>
32

>  <a_hyd>
15

>  <a_IC>
97.783142

>  <a_ICM>
1.8449649

>  <a_nB>
0

>  <a_nBr>
0

>  <a_nC>
20

>  <a_nCl>
0

>  <a_nF>
1

>  <a_nH>
21

>  <a_nI>
0

>  <a_nN>
6

>  <a_nO>
5

>  <a_nP>
0

>  <a_nS>
0

>  <balabanJ>
1.6050314

>  <BCUT_PEOE_0>
-2.6088696

>  <BCUT_PEOE_1>
-0.59189212

>  <BCUT_PEOE_2>
0.47164088

>  <BCUT_PEOE_3>
2.6119852

>  <BCUT_SLOGP_0>
-2.775635

>  <BCUT_SLOGP_1>
-0.5018003

>  <BCUT_SLOGP_2>
0.57538384

>  <BCUT_SLOGP_3>
2.5275035

>  <BCUT_SMR_0>
-2.3406034

>  <BCUT_SMR_1>
-0.37368664

>  <BCUT_SMR_2>
0.6999917

>  <BCUT_SMR_3>
2.879709

>  <bpol>
34.890347

>  <b_1rotN>
6

>  <b_1rotR>
0.17647059

>  <b_ar>
11

>  <b_count>
55

>  <b_double>
5

>  <b_heavy>
34

>  <b_max1len>
4

>  <b_rotN>
8

>  <b_rotR>
0.23529412

>  <b_single>
39

>  <b_triple>
0

>  <chi0>
23.629028

>  <chi0v>
17.763533

>  <chi0v_C>
12.516508

>  <chi0_C>
13.809036

>  <chi1>
14.990909

>  <chi1v>
9.4505377

>  <chi1v_C>
4.9249206

>  <chi1_C>
6.2406001

>  <chiral>
0

>  <chiral_u>
0

>  <density>
0.82138151

>  <diameter>
17

>  <FCharge>
0

>  <GCUT_PEOE_0>
-0.82769436

>  <GCUT_PEOE_1>
-0.45195866

>  <GCUT_PEOE_2>
0.0078815576

>  <GCUT_PEOE_3>
2.6776507

>  <GCUT_SLOGP_0>
-1.1619297

>  <GCUT_SLOGP_1>
-0.37100145

>  <GCUT_SLOGP_2>
0.083124854

>  <GCUT_SLOGP_3>
2.6248417

>  <GCUT_SMR_0>
-0.51212955

>  <GCUT_SMR_1>
-0.21406172

>  <GCUT_SMR_2>
0.17523479

>  <GCUT_SMR_3>
2.9334722

>  <Kier1>
26.602076

>  <Kier2>
11.16

>  <Kier3>
6.5759635

>  <KierA1>
18.828453

>  <KierA2>
7.8037853

>  <KierA3>
4.559154

>  <KierFlex>
4.5916624

>  <lip_acc>
11

>  <lip_don>
3

>  <lip_druglike>
1

>  <lip_violation>
1

>  <logP(o/w)>
0.81

>  <logS>
-4.4693098

>  <mr>
11.141069

>  <mutagenic>
0

>  <nmol>
1

>  <opr_brigid>
17

>  <opr_leadlike>
1

>  <opr_nring>
3

>  <opr_nrot>
6

>  <opr_violation>
1

>  <PC+>
0

>  <PC->
0

>  <PEOE_PC+>
3.4444797

>  <PEOE_PC->
-3.4444797

>  <PEOE_RPC+>
0.089840792

>  <PEOE_RPC->
0.12106553

>  <PEOE_VSA+0>
106.36333

>  <PEOE_VSA+1>
25.592316

>  <PEOE_VSA+2>
20.211409

>  <PEOE_VSA+3>
32.396095

>  <PEOE_VSA+4>
23.273705

>  <PEOE_VSA+5>
25.899061

>  <PEOE_VSA+6>
25.899061

>  <PEOE_VSA-0>
64.213699

>  <PEOE_VSA-1>
24.509808

>  <PEOE_VSA-2>
18.842079

>  <PEOE_VSA-3>
0

>  <PEOE_VSA-4>
17.591211

>  <PEOE_VSA-5>
40.700764

>  <PEOE_VSA-6>
10.545078

>  <PEOE_VSA_FHYD>
0.66996223

>  <PEOE_VSA_FNEG>
0.4045583

>  <PEOE_VSA_FPNEG>
0.15786953

>  <PEOE_VSA_FPOL>
0.33003777

>  <PEOE_VSA_FPOS>
0.5954417

>  <PEOE_VSA_FPPOS>
0.17216824

>  <PEOE_VSA_HYD>
292.12872

>  <PEOE_VSA_NEG>
176.40265

>  <PEOE_VSA_PNEG>
68.837051

>  <PEOE_VSA_POL>
143.90887

>  <PEOE_VSA_POS>
259.63498

>  <PEOE_VSA_PPOS>
75.071831

>  <petitjean>
0.47058824

>  <petitjeanSC>
0.8888889

>  <Q_PC+>
0

>  <Q_PC->
0

>  <Q_RPC+>
0

>  <Q_RPC->
0

>  <Q_VSA_FHYD>
1

>  <Q_VSA_FNEG>
0

>  <Q_VSA_FPNEG>
0

>  <Q_VSA_FPOL>
0

>  <Q_VSA_FPOS>
1

>  <Q_VSA_FPPOS>
0

>  <Q_VSA_HYD>
436.03763

>  <Q_VSA_NEG>
0

>  <Q_VSA_PNEG>
0

>  <Q_VSA_POL>
0

>  <Q_VSA_POS>
436.03763

>  <Q_VSA_PPOS>
0

>  <radius>
9

>  <reactive>
0

>  <rings>
3

>  <RPC+>
0

>  <RPC->
0

>  <rsynth>
1

>  <SlogP>
1.24842

>  <SlogP_VSA0>
36.0215

>  <SlogP_VSA1>
54.5546

>  <SlogP_VSA2>
56.845451

>  <SlogP_VSA3>
25.385227

>  <SlogP_VSA4>
37.08778

>  <SlogP_VSA5>
67.190239

>  <SlogP_VSA6>
0

>  <SlogP_VSA7>
70.572739

>  <SlogP_VSA8>
0

>  <SlogP_VSA9>
133.37773

>  <SMR>
10.88917

>  <SMR_VSA0>
81.093994

>  <SMR_VSA1>
68.195969

>  <SMR_VSA2>
70.527748

>  <SMR_VSA3>
21.225739

>  <SMR_VSA4>
0

>  <SMR_VSA5>
89.012314

>  <SMR_VSA6>
18.104271

>  <SMR_VSA7>
132.87523

>  <TPSA>
150.02

>  <VAdjEq>
0.35236704

>  <VAdjMa>
6.0874629

>  <VDistEq>
3.7615516

>  <VDistMa>
9.7053919

>  <vdw_area>
436.03763

>  <vdw_vol>
541.06769

>  <vsa_acc>
65.225418

>  <vsa_acid>
0

>  <vsa_base>
0

>  <vsa_don>
11.365152

>  <vsa_hyd>
243.95439

>  <vsa_other>
78.441971

>  <vsa_pol>
90.157494

>  <Weight>
444.423

>  <weinerPath>
3111

>  <weinerPol>
52

>  <zagreb>
168

$$$$