O1[C@H](CO)[C@@H](O)[C@@H](O)[C@@H]1n1nc(nc1)C(=O)N
  MOE2013           2D

 17 18  0  0  1  0  0  0  0  0999 V2000
    0.0000    0.0000    0.0000 O   0  0  0  0  0  0  0  0  0  0  0  0
   -1.4720    0.2910    0.0000 C   0  0  2  0  0  0  0  0  0  0  0  0
   -2.5720   -0.7290    0.0000 C   0  0  0  0  0  0  0  0  0  0  0  0
   -2.2390   -2.1920    0.0000 O   0  0  0  0  0  0  0  0  0  0  0  0
   -1.6500    1.7800    0.0000 C   0  0  1  0  0  0  0  0  0  0  0  0
   -2.9600    2.5110    0.0000 O   0  0  0  0  0  0  0  0  0  0  0  0
   -0.2880    2.4100    0.0000 C   0  0  1  0  0  0  0  0  0  0  0  0
    0.0020    3.8810    0.0000 O   0  0  0  0  0  0  0  0  0  0  0  0
    0.7310    1.3100    0.0000 C   0  0  2  0  0  0  0  0  0  0  0  0
    2.2210    1.4880    0.0000 N   0  0  0  0  0  0  0  0  0  0  0  0
    3.2400    0.3880    0.0000 N   0  0  0  0  0  0  0  0  0  0  0  0
    4.6020    1.0180    0.0000 C   0  0  0  0  0  0  0  0  0  0  0  0
    4.4230    2.5070    0.0000 N   0  0  0  0  0  0  0  0  0  0  0  0
    2.9520    2.7980    0.0000 C   0  0  0  0  0  0  0  0  0  0  0  0
    5.9110    0.2860    0.0000 C   0  0  0  0  0  0  0  0  0  0  0  0
    7.1990    1.0550    0.0000 O   0  0  0  0  0  0  0  0  0  0  0  0
    5.9330   -1.2130    0.0000 N   0  0  0  0  0  0  0  0  0  0  0  0
  1  2  1  0  0  0  0
  1  9  1  0  0  0  0
  2  3  1  6  0  0  0
  2  5  1  0  0  0  0
  3  4  1  0  0  0  0
  5  6  1  1  0  0  0
  5  7  1  0  0  0  0
  7  8  1  1  0  0  0
  7  9  1  0  0  0  0
  9 10  1  6  0  0  0
 10 11  1  0  0  0  0
 10 14  1  0  0  0  0
 11 12  2  0  0  0  0
 12 13  1  0  0  0  0
 12 15  1  0  0  0  0
 13 14  2  0  0  0  0
 15 16  2  0  0  0  0
 15 17  1  0  0  0  0
M  END
>  <Index>
942

>  <ID>
HT1817

>  <class>
0

>  <apol>
30.491516

>  <ast_fraglike>
0

>  <ast_fraglike_ext>
0

>  <ast_violation>
2

>  <ast_violation_ext>
4

>  <a_acc>
7

>  <a_acid>
0

>  <a_aro>
5

>  <a_base>
0

>  <a_count>
29

>  <a_don>
4

>  <a_donacc>
11

>  <a_heavy>
17

>  <a_hyd>
4

>  <a_IC>
54.252258

>  <a_ICM>
1.8707675

>  <a_nB>
0

>  <a_nBr>
0

>  <a_nC>
8

>  <a_nCl>
0

>  <a_nF>
0

>  <a_nH>
12

>  <a_nI>
0

>  <a_nN>
4

>  <a_nO>
5

>  <a_nP>
0

>  <a_nS>
0

>  <balabanJ>
1.9619101

>  <BCUT_PEOE_0>
-2.5098643

>  <BCUT_PEOE_1>
-0.61844945

>  <BCUT_PEOE_2>
0.67650455

>  <BCUT_PEOE_3>
2.7723846

>  <BCUT_SLOGP_0>
-2.7105503

>  <BCUT_SLOGP_1>
-0.67771316

>  <BCUT_SLOGP_2>
0.51922011

>  <BCUT_SLOGP_3>
2.6304321

>  <BCUT_SMR_0>
-2.3197639

>  <BCUT_SMR_1>
-0.45004457

>  <BCUT_SMR_2>
0.8064968

>  <BCUT_SMR_3>
2.9553559

>  <bpol>
18.632484

>  <b_1rotN>
3

>  <b_1rotR>
0.16666667

>  <b_ar>
5

>  <b_count>
30

>  <b_double>
1

>  <b_heavy>
18

>  <b_max1len>
4

>  <b_rotN>
3

>  <b_rotR>
0.16666667

>  <b_single>
24

>  <b_triple>
0

>  <chi0>
12.576985

>  <chi0v>
8.6709862

>  <chi0v_C>
4.5938582

>  <chi0_C>
4.878315

>  <chi1>
8.0409126

>  <chi1v>
4.8768878

>  <chi1v_C>
1.6582483

>  <chi1_C>
1.7415817

>  <chiral>
4

>  <chiral_u>
0

>  <density>
0.90577805

>  <diameter>
9

>  <FCharge>
0

>  <GCUT_PEOE_0>
-0.81163365

>  <GCUT_PEOE_1>
-0.42226231

>  <GCUT_PEOE_2>
0.1464698

>  <GCUT_PEOE_3>
2.498651

>  <GCUT_SLOGP_0>
-1.3702725

>  <GCUT_SLOGP_1>
-0.54556894

>  <GCUT_SLOGP_2>
0.03618817

>  <GCUT_SLOGP_3>
2.3913195

>  <GCUT_SMR_0>
-0.52613062

>  <GCUT_SMR_1>
-0.24803635

>  <GCUT_SMR_2>
0.23889755

>  <GCUT_SMR_3>
2.6973388

>  <Kier1>
13.432098

>  <Kier2>
5.3254437

>  <Kier3>
2.5599999

>  <KierA1>
10.597024

>  <KierA2>
4.1340575

>  <KierA3>
1.9617859

>  <KierFlex>
2.5769827

>  <lip_acc>
9

>  <lip_don>
5

>  <lip_druglike>
1

>  <lip_violation>
0

>  <logP(o/w)>
-4.2059999

>  <logS>
0.47408

>  <mr>
5.3565021

>  <mutagenic>
0

>  <nmol>
1

>  <opr_brigid>
10

>  <opr_leadlike>
1

>  <opr_nring>
2

>  <opr_nrot>
4

>  <opr_violation>
1

>  <PC+>
0

>  <PC->
0

>  <PEOE_PC+>
2.708411

>  <PEOE_PC->
-2.708411

>  <PEOE_RPC+>
0.10651052

>  <PEOE_RPC->
0.1448696

>  <PEOE_VSA+0>
0

>  <PEOE_VSA+1>
40.54361

>  <PEOE_VSA+2>
40.217098

>  <PEOE_VSA+3>
26.633966

>  <PEOE_VSA+4>
42.163082

>  <PEOE_VSA+5>
12.949531

>  <PEOE_VSA+6>
0

>  <PEOE_VSA-0>
0

>  <PEOE_VSA-1>
0

>  <PEOE_VSA-2>
9.4210396

>  <PEOE_VSA-3>
0

>  <PEOE_VSA-4>
5.6825762

>  <PEOE_VSA-5>
13.566921

>  <PEOE_VSA-6>
32.457497

>  <PEOE_VSA_FHYD>
0.52234912

>  <PEOE_VSA_FNEG>
0.27333802

>  <PEOE_VSA_FPNEG>
0.23121122

>  <PEOE_VSA_FPOL>
0.47765088

>  <PEOE_VSA_FPOS>
0.72666198

>  <PEOE_VSA_FPPOS>
0.24643967

>  <PEOE_VSA_HYD>
116.81571

>  <PEOE_VSA_NEG>
61.128033

>  <PEOE_VSA_PNEG>
51.706993

>  <PEOE_VSA_POL>
106.8196

>  <PEOE_VSA_POS>
162.50729

>  <PEOE_VSA_PPOS>
55.11261

>  <petitjean>
0.44444445

>  <petitjeanSC>
0.80000001

>  <Q_PC+>
0

>  <Q_PC->
0

>  <Q_RPC+>
0

>  <Q_RPC->
0

>  <Q_VSA_FHYD>
1

>  <Q_VSA_FNEG>
0

>  <Q_VSA_FPNEG>
0

>  <Q_VSA_FPOL>
0

>  <Q_VSA_FPOS>
1

>  <Q_VSA_FPPOS>
0

>  <Q_VSA_HYD>
223.63531

>  <Q_VSA_NEG>
0

>  <Q_VSA_PNEG>
0

>  <Q_VSA_POL>
0

>  <Q_VSA_POS>
223.63531

>  <Q_VSA_PPOS>
0

>  <radius>
5

>  <reactive>
0

>  <rings>
2

>  <RPC+>
0

>  <RPC->
0

>  <rsynth>
1

>  <SlogP>
-2.9159999

>  <SlogP_VSA0>
109.05286

>  <SlogP_VSA1>
40.483891

>  <SlogP_VSA2>
30.405836

>  <SlogP_VSA3>
20.926258

>  <SlogP_VSA4>
26.190136

>  <SlogP_VSA5>
0

>  <SlogP_VSA6>
0

>  <SlogP_VSA7>
16.78553

>  <SlogP_VSA8>
6.0398216

>  <SlogP_VSA9>
0

>  <SMR>
5.1660299

>  <SMR_VSA0>
34.862103

>  <SMR_VSA1>
111.38078

>  <SMR_VSA2>
0

>  <SMR_VSA3>
27.773689

>  <SMR_VSA4>
32.897186

>  <SMR_VSA5>
16.78553

>  <SMR_VSA6>
26.185041

>  <SMR_VSA7>
0

>  <TPSA>
143.72

>  <VAdjEq>
0.54234898

>  <VAdjMa>
5.1699252

>  <VDistEq>
2.936435

>  <VDistMa>
7.8728423

>  <vdw_area>
223.63531

>  <vdw_vol>
269.6102

>  <vsa_acc>
31.174294

>  <vsa_acid>
0

>  <vsa_base>
0

>  <vsa_don>
17.742489

>  <vsa_hyd>
47.434032

>  <vsa_other>
61.880142

>  <vsa_pol>
89.617546

>  <Weight>
244.207

>  <weinerPath>
515

>  <weinerPol>
25

>  <zagreb>
88

$$$$