Clc1cc2[C@@H]3[C@@H](c4c(Oc2cc1)cccc4)CN(C3)C
  MOE2013           2D

 20 23  0  0  1  0  0  0  0  0999 V2000
    0.0000    0.0000    0.0000 Cl  0  0  0  0  0  0  0  0  0  0  0  0
   -1.4240   -0.4720    0.0000 C   0  0  0  0  0  0  0  0  0  0  0  0
   -2.5440    0.5250    0.0000 C   0  0  0  0  0  0  0  0  0  0  0  0
   -3.9680    0.0530    0.0000 C   0  0  0  0  0  0  0  0  0  0  0  0
   -4.9270    1.2060    0.0000 C   0  0  2  0  0  0  0  0  0  0  0  0
   -6.4270    1.1770    0.0000 C   0  0  1  0  0  0  0  0  0  0  0  0
   -7.3370   -0.0160    0.0000 C   0  0  0  0  0  0  0  0  0  0  0  0
   -6.9730   -1.4710    0.0000 C   0  0  0  0  0  0  0  0  0  0  0  0
   -5.6090   -2.0960    0.0000 O   0  0  0  0  0  0  0  0  0  0  0  0
   -4.2710   -1.4160    0.0000 C   0  0  0  0  0  0  0  0  0  0  0  0
   -3.1510   -2.4130    0.0000 C   0  0  0  0  0  0  0  0  0  0  0  0
   -1.7270   -1.9410    0.0000 C   0  0  0  0  0  0  0  0  0  0  0  0
   -8.0510   -2.5140    0.0000 C   0  0  0  0  0  0  0  0  0  0  0  0
   -9.4940   -2.1010    0.0000 C   0  0  0  0  0  0  0  0  0  0  0  0
   -9.8580   -0.6460    0.0000 C   0  0  0  0  0  0  0  0  0  0  0  0
   -8.7790    0.3970    0.0000 C   0  0  0  0  0  0  0  0  0  0  0  0
   -6.9190    2.5940    0.0000 C   0  0  0  0  0  0  0  0  0  0  0  0
   -5.7230    3.4990    0.0000 N   0  0  3  0  0  0  0  0  0  0  0  0
   -4.4920    2.6420    0.0000 C   0  0  0  0  0  0  0  0  0  0  0  0
   -5.7530    4.9990    0.0000 C   0  0  0  0  0  0  0  0  0  0  0  0
  1  2  1  0  0  0  0
  2  3  1  0  0  0  0
  2 12  2  0  0  0  0
  3  4  2  0  0  0  0
  4 10  1  0  0  0  0
  5  4  1  6  0  0  0
  5  6  1  0  0  0  0
  5 19  1  0  0  0  0
  6  7  1  0  0  0  0
  6 17  1  1  0  0  0
  7  8  2  0  0  0  0
  7 16  1  0  0  0  0
  8  9  1  0  0  0  0
  8 13  1  0  0  0  0
  9 10  1  0  0  0  0
 10 11  2  0  0  0  0
 11 12  1  0  0  0  0
 13 14  2  0  0  0  0
 14 15  1  0  0  0  0
 15 16  2  0  0  0  0
 17 18  1  0  0  0  0
 18 19  1  0  0  0  0
 18 20  1  0  0  0  0
M  END
>  <Index>
93

>  <ID>
HT0187

>  <class>
0

>  <apol>
44.670689

>  <ast_fraglike>
0

>  <ast_fraglike_ext>
0

>  <ast_violation>
1

>  <ast_violation_ext>
1

>  <a_acc>
1

>  <a_acid>
0

>  <a_aro>
12

>  <a_base>
0

>  <a_count>
36

>  <a_don>
0

>  <a_donacc>
1

>  <a_heavy>
20

>  <a_hyd>
18

>  <a_IC>
52.630432

>  <a_ICM>
1.4619564

>  <a_nB>
0

>  <a_nBr>
0

>  <a_nC>
17

>  <a_nCl>
1

>  <a_nF>
0

>  <a_nH>
16

>  <a_nI>
0

>  <a_nN>
1

>  <a_nO>
1

>  <a_nP>
0

>  <a_nS>
0

>  <balabanJ>
1.6480635

>  <BCUT_PEOE_0>
-2.5254595

>  <BCUT_PEOE_1>
-0.59543437

>  <BCUT_PEOE_2>
0.6274116

>  <BCUT_PEOE_3>
2.7353246

>  <BCUT_SLOGP_0>
-2.6040862

>  <BCUT_SLOGP_1>
-0.47236657

>  <BCUT_SLOGP_2>
0.79044759

>  <BCUT_SLOGP_3>
2.7742476

>  <BCUT_SMR_0>
-2.2668543

>  <BCUT_SMR_1>
-0.43606469

>  <BCUT_SMR_2>
0.83887655

>  <BCUT_SMR_3>
3.0066495

>  <bpol>
21.807312

>  <b_1rotN>
0

>  <b_1rotR>
0

>  <b_ar>
12

>  <b_count>
39

>  <b_double>
0

>  <b_heavy>
23

>  <b_max1len>
2

>  <b_rotN>
0

>  <b_rotR>
0

>  <b_single>
27

>  <b_triple>
0

>  <chi0>
13.68987

>  <chi0v>
12.099721

>  <chi0v_C>
10.110366

>  <chi0_C>
11.405413

>  <chi1>
9.7203465

>  <chi1v>
7.3474283

>  <chi1v_C>
5.2925644

>  <chi1_C>
6.932653

>  <chiral>
2

>  <chiral_u>
0

>  <density>
0.74669641

>  <diameter>
8

>  <FCharge>
0

>  <GCUT_PEOE_0>
-0.86329669

>  <GCUT_PEOE_1>
-0.38588083

>  <GCUT_PEOE_2>
0.05798151

>  <GCUT_PEOE_3>
2.7757475

>  <GCUT_SLOGP_0>
-0.95934427

>  <GCUT_SLOGP_1>
-0.29163447

>  <GCUT_SLOGP_2>
0.16065876

>  <GCUT_SLOGP_3>
2.8959513

>  <GCUT_SMR_0>
-0.51816666

>  <GCUT_SMR_1>
-0.19676091

>  <GCUT_SMR_2>
0.19080326

>  <GCUT_SMR_3>
3.0513804

>  <Kier1>
13.648394

>  <Kier2>
5.3252597

>  <Kier3>
2.390625

>  <KierA1>
11.439782

>  <KierA2>
4.4193363

>  <KierA3>
1.9695359

>  <KierFlex>
2.527812

>  <lip_acc>
2

>  <lip_don>
0

>  <lip_druglike>
1

>  <lip_violation>
0

>  <logP(o/w)>
3.5480001

>  <logS>
-3.91663

>  <mr>
8.1168394

>  <mutagenic>
0

>  <nmol>
1

>  <opr_brigid>
21

>  <opr_leadlike>
1

>  <opr_nring>
4

>  <opr_nrot>
0

>  <opr_violation>
0

>  <PC+>
0

>  <PC->
0

>  <PEOE_PC+>
1.0468655

>  <PEOE_PC->
-1.0468655

>  <PEOE_RPC+>
0.082778007

>  <PEOE_RPC->
0.29491305

>  <PEOE_VSA+0>
69.29287

>  <PEOE_VSA+1>
46.774742

>  <PEOE_VSA+2>
0

>  <PEOE_VSA+3>
0

>  <PEOE_VSA+4>
0

>  <PEOE_VSA+5>
0

>  <PEOE_VSA+6>
0

>  <PEOE_VSA-0>
76.675385

>  <PEOE_VSA-1>
66.346657

>  <PEOE_VSA-2>
0

>  <PEOE_VSA-3>
0

>  <PEOE_VSA-4>
0

>  <PEOE_VSA-5>
0

>  <PEOE_VSA-6>
2.503756

>  <PEOE_VSA_FHYD>
0.99042881

>  <PEOE_VSA_FNEG>
0.55630529

>  <PEOE_VSA_FPNEG>
0.0095711742

>  <PEOE_VSA_FPOL>
0.0095711742

>  <PEOE_VSA_FPOS>
0.44369471

>  <PEOE_VSA_FPPOS>
0

>  <PEOE_VSA_HYD>
259.08966

>  <PEOE_VSA_NEG>
145.5258

>  <PEOE_VSA_PNEG>
2.503756

>  <PEOE_VSA_POL>
2.503756

>  <PEOE_VSA_POS>
116.06761

>  <PEOE_VSA_PPOS>
0

>  <petitjean>
0.375

>  <petitjeanSC>
0.60000002

>  <Q_PC+>
0

>  <Q_PC->
0

>  <Q_RPC+>
0

>  <Q_RPC->
0

>  <Q_VSA_FHYD>
1

>  <Q_VSA_FNEG>
0

>  <Q_VSA_FPNEG>
0

>  <Q_VSA_FPOL>
0

>  <Q_VSA_FPOS>
1

>  <Q_VSA_FPPOS>
0

>  <Q_VSA_HYD>
261.59341

>  <Q_VSA_NEG>
0

>  <Q_VSA_PNEG>
0

>  <Q_VSA_POL>
0

>  <Q_VSA_POS>
261.59341

>  <Q_VSA_PPOS>
0

>  <radius>
5

>  <reactive>
0

>  <rings>
4

>  <RPC+>
0

>  <RPC->
0

>  <rsynth>
0.050000001

>  <SlogP>
4.2585001

>  <SlogP_VSA0>
10.999887

>  <SlogP_VSA1>
3.1243138

>  <SlogP_VSA2>
0

>  <SlogP_VSA3>
36.879158

>  <SlogP_VSA4>
6.37115

>  <SlogP_VSA5>
32.897186

>  <SlogP_VSA6>
12.322199

>  <SlogP_VSA7>
123.50229

>  <SlogP_VSA8>
0

>  <SlogP_VSA9>
49.635502

>  <SMR>
8.0946999

>  <SMR_VSA0>
0

>  <SMR_VSA1>
14.124202

>  <SMR_VSA2>
0

>  <SMR_VSA3>
29.180204

>  <SMR_VSA4>
0

>  <SMR_VSA5>
123.50229

>  <SMR_VSA6>
36.879158

>  <SMR_VSA7>
72.04583

>  <TPSA>
12.47

>  <VAdjEq>
0.51481563

>  <VAdjMa>
5.523562

>  <VDistEq>
2.75244

>  <VDistMa>
8.3975372

>  <vdw_area>
261.59341

>  <vdw_vol>
382.71777

>  <vsa_acc>
0

>  <vsa_acid>
0

>  <vsa_base>
0

>  <vsa_don>
0

>  <vsa_hyd>
245.01083

>  <vsa_other>
2.503756

>  <vsa_pol>
0

>  <Weight>
285.77399

>  <weinerPath>
689

>  <weinerPol>
37

>  <zagreb>
114

$$$$