Oc1c(cccc1C(C)C)C(C)C
  MOE2013           2D

 13 13  0  0  0  0  0  0  0  0999 V2000
    0.0000    0.0000    0.0000 O   0  0  0  0  0  0  0  0  0  0  0  0
    0.0000    1.5000    0.0000 C   0  0  0  0  0  0  0  0  0  0  0  0
   -1.2990    2.2500    0.0000 C   0  0  0  0  0  0  0  0  0  0  0  0
   -1.2990    3.7500    0.0000 C   0  0  0  0  0  0  0  0  0  0  0  0
    0.0000    4.5000    0.0000 C   0  0  0  0  0  0  0  0  0  0  0  0
    1.2990    3.7500    0.0000 C   0  0  0  0  0  0  0  0  0  0  0  0
    1.2990    2.2500    0.0000 C   0  0  0  0  0  0  0  0  0  0  0  0
    2.5980    1.5000    0.0000 C   0  0  0  0  0  0  0  0  0  0  0  0
    2.5980    0.0000    0.0000 C   0  0  0  0  0  0  0  0  0  0  0  0
    3.8970    2.2500    0.0000 C   0  0  0  0  0  0  0  0  0  0  0  0
   -2.5980    1.5000    0.0000 C   0  0  0  0  0  0  0  0  0  0  0  0
   -2.5980    0.0000    0.0000 C   0  0  0  0  0  0  0  0  0  0  0  0
   -3.8970    2.2500    0.0000 C   0  0  0  0  0  0  0  0  0  0  0  0
  1  2  1  0  0  0  0
  2  3  1  0  0  0  0
  2  7  2  0  0  0  0
  3  4  2  0  0  0  0
  3 11  1  0  0  0  0
  4  5  1  0  0  0  0
  5  6  2  0  0  0  0
  6  7  1  0  0  0  0
  7  8  1  0  0  0  0
  8  9  1  0  0  0  0
  8 10  1  0  0  0  0
 11 12  1  0  0  0  0
 11 13  1  0  0  0  0
M  END
>  <Index>
911

>  <ID>
HT1762

>  <class>
0

>  <apol>
33.924274

>  <ast_fraglike>
0

>  <ast_fraglike_ext>
0

>  <ast_violation>
1

>  <ast_violation_ext>
1

>  <a_acc>
1

>  <a_acid>
0

>  <a_aro>
6

>  <a_base>
0

>  <a_count>
31

>  <a_don>
1

>  <a_donacc>
2

>  <a_heavy>
13

>  <a_hyd>
12

>  <a_IC>
35.501884

>  <a_ICM>
1.1452221

>  <a_nB>
0

>  <a_nBr>
0

>  <a_nC>
12

>  <a_nCl>
0

>  <a_nF>
0

>  <a_nH>
18

>  <a_nI>
0

>  <a_nN>
0

>  <a_nO>
1

>  <a_nP>
0

>  <a_nS>
0

>  <balabanJ>
2.6282084

>  <BCUT_PEOE_0>
-2.5656872

>  <BCUT_PEOE_1>
-0.35760164

>  <BCUT_PEOE_2>
0.48118311

>  <BCUT_PEOE_3>
2.5215297

>  <BCUT_SLOGP_0>
-2.4014781

>  <BCUT_SLOGP_1>
-0.29330131

>  <BCUT_SLOGP_2>
0.44190437

>  <BCUT_SLOGP_3>
2.6915472

>  <BCUT_SMR_0>
-2.3018684

>  <BCUT_SMR_1>
-0.21904299

>  <BCUT_SMR_2>
0.59740454

>  <BCUT_SMR_3>
2.794178

>  <bpol>
19.677727

>  <b_1rotN>
2

>  <b_1rotR>
0.15384616

>  <b_ar>
6

>  <b_count>
31

>  <b_double>
0

>  <b_heavy>
13

>  <b_max1len>
4

>  <b_rotN>
2

>  <b_rotR>
0.15384616

>  <b_single>
25

>  <b_triple>
0

>  <chi0>
10.008072

>  <chi0v>
8.8339653

>  <chi0v_C>
8.3867512

>  <chi0_C>
9.0080719

>  <chi1>
6.036581

>  <chi1v>
4.8543749

>  <chi1v_C>
4.6307683

>  <chi1_C>
5.4592309

>  <chiral>
0

>  <chiral_u>
0

>  <density>
0.6278013

>  <diameter>
6

>  <FCharge>
0

>  <GCUT_PEOE_0>
-0.78530598

>  <GCUT_PEOE_1>
-0.31050372

>  <GCUT_PEOE_2>
0.027316008

>  <GCUT_PEOE_3>
2.4777522

>  <GCUT_SLOGP_0>
-0.76212394

>  <GCUT_SLOGP_1>
-0.19434766

>  <GCUT_SLOGP_2>
-0.015624896

>  <GCUT_SLOGP_3>
2.6472328

>  <GCUT_SMR_0>
-0.52217674

>  <GCUT_SMR_1>
-0.14928514

>  <GCUT_SMR_2>
0.13392663

>  <GCUT_SMR_3>
2.7424016

>  <Kier1>
11.076923

>  <Kier2>
4.4814816

>  <Kier3>
2.4793389

>  <KierA1>
9.1026993

>  <KierA2>
3.6170094

>  <KierA3>
1.9706492

>  <KierFlex>
2.5326576

>  <lip_acc>
1

>  <lip_don>
1

>  <lip_druglike>
1

>  <lip_violation>
0

>  <logP(o/w)>
3.8800001

>  <logS>
-3.4047501

>  <mr>
5.5979009

>  <mutagenic>
0

>  <nmol>
1

>  <opr_brigid>
6

>  <opr_leadlike>
1

>  <opr_nring>
1

>  <opr_nrot>
2

>  <opr_violation>
0

>  <PC+>
0

>  <PC->
0

>  <PEOE_PC+>
0.83414561

>  <PEOE_PC->
-0.83414561

>  <PEOE_RPC+>
0.26054966

>  <PEOE_RPC->
0.43070641

>  <PEOE_VSA+0>
59.715405

>  <PEOE_VSA+1>
21.254677

>  <PEOE_VSA+2>
0

>  <PEOE_VSA+3>
0

>  <PEOE_VSA+4>
10.324173

>  <PEOE_VSA+5>
0

>  <PEOE_VSA+6>
0

>  <PEOE_VSA-0>
4.4170794

>  <PEOE_VSA-1>
111.75542

>  <PEOE_VSA-2>
0

>  <PEOE_VSA-3>
0

>  <PEOE_VSA-4>
0

>  <PEOE_VSA-5>
0

>  <PEOE_VSA-6>
7.7675405

>  <PEOE_VSA_FHYD>
0.9159441

>  <PEOE_VSA_FNEG>
0.57583779

>  <PEOE_VSA_FPNEG>
0.036088768

>  <PEOE_VSA_FPOL>
0.084055901

>  <PEOE_VSA_FPOS>
0.42416221

>  <PEOE_VSA_FPPOS>
0.047967136

>  <PEOE_VSA_HYD>
197.14258

>  <PEOE_VSA_NEG>
123.94004

>  <PEOE_VSA_PNEG>
7.7675405

>  <PEOE_VSA_POL>
18.091713

>  <PEOE_VSA_POS>
91.29425

>  <PEOE_VSA_PPOS>
10.324173

>  <petitjean>
0.5

>  <petitjeanSC>
1

>  <Q_PC+>
0

>  <Q_PC->
0

>  <Q_RPC+>
0

>  <Q_RPC->
0

>  <Q_VSA_FHYD>
1

>  <Q_VSA_FNEG>
0

>  <Q_VSA_FPNEG>
0

>  <Q_VSA_FPOL>
0

>  <Q_VSA_FPOS>
1

>  <Q_VSA_FPPOS>
0

>  <Q_VSA_HYD>
215.2343

>  <Q_VSA_NEG>
0

>  <Q_VSA_PNEG>
0

>  <Q_VSA_POL>
0

>  <Q_VSA_POS>
215.2343

>  <Q_VSA_PPOS>
0

>  <radius>
3

>  <reactive>
0

>  <rings>
1

>  <RPC+>
0

>  <RPC->
0

>  <rsynth>
0

>  <SlogP>
3.6389999

>  <SlogP_VSA0>
25.385227

>  <SlogP_VSA1>
0

>  <SlogP_VSA2>
0

>  <SlogP_VSA3>
0

>  <SlogP_VSA4>
6.37115

>  <SlogP_VSA5>
0

>  <SlogP_VSA6>
8.8215923

>  <SlogP_VSA7>
52.929554

>  <SlogP_VSA8>
0

>  <SlogP_VSA9>
138.54749

>  <SMR>
5.62848

>  <SMR_VSA0>
0

>  <SMR_VSA1>
25.385227

>  <SMR_VSA2>
0

>  <SMR_VSA3>
20.436171

>  <SMR_VSA4>
0

>  <SMR_VSA5>
52.929554

>  <SMR_VSA6>
0

>  <SMR_VSA7>
133.30406

>  <TPSA>
20.23

>  <VAdjEq>
0.6193822

>  <VAdjMa>
4.7004399

>  <VDistEq>
2.440851

>  <VDistMa>
7.1213942

>  <vdw_area>
215.2343

>  <vdw_vol>
283.96722

>  <vsa_acc>
0

>  <vsa_acid>
0

>  <vsa_base>
0

>  <vsa_don>
0

>  <vsa_hyd>
182.35196

>  <vsa_other>
0

>  <vsa_pol>
13.566921

>  <Weight>
178.27499

>  <weinerPath>
234

>  <weinerPol>
19

>  <zagreb>
62

$$$$