Oc1c(C=O)c(cnc1C)CO
  MOE2013           2D

 12 12  0  0  0  0  0  0  0  0999 V2000
    0.0000    0.0000    0.0000 O   0  0  0  0  0  0  0  0  0  0  0  0
    1.2980    0.7510    0.0000 C   0  0  0  0  0  0  0  0  0  0  0  0
    2.5980    0.0020    0.0000 C   0  0  0  0  0  0  0  0  0  0  0  0
    2.5990   -1.4980    0.0000 C   0  0  0  0  0  0  0  0  0  0  0  0
    1.3010   -2.2490    0.0000 O   0  0  0  0  0  0  0  0  0  0  0  0
    3.8960    0.7530    0.0000 C   0  0  0  0  0  0  0  0  0  0  0  0
    3.8950    2.2530    0.0000 C   0  0  0  0  0  0  0  0  0  0  0  0
    2.5950    3.0020    0.0000 N   0  0  0  0  0  0  0  0  0  0  0  0
    1.2970    2.2510    0.0000 C   0  0  0  0  0  0  0  0  0  0  0  0
   -0.0030    3.0000    0.0000 C   0  0  0  0  0  0  0  0  0  0  0  0
    5.1960    0.0050    0.0000 C   0  0  0  0  0  0  0  0  0  0  0  0
    6.4950    0.7560    0.0000 O   0  0  0  0  0  0  0  0  0  0  0  0
  1  2  1  0  0  0  0
  2  3  1  0  0  0  0
  2  9  2  0  0  0  0
  3  4  1  0  0  0  0
  3  6  2  0  0  0  0
  4  5  2  0  0  0  0
  6  7  1  0  0  0  0
  6 11  1  0  0  0  0
  7  8  2  0  0  0  0
  8  9  1  0  0  0  0
  9 10  1  0  0  0  0
 11 12  1  0  0  0  0
M  END
>  <Index>
918

>  <ID>
HT1777

>  <class>
0

>  <apol>
23.587137

>  <ast_fraglike>
0

>  <ast_fraglike_ext>
0

>  <ast_violation>
1

>  <ast_violation_ext>
1

>  <a_acc>
4

>  <a_acid>
0

>  <a_aro>
6

>  <a_base>
0

>  <a_count>
21

>  <a_don>
2

>  <a_donacc>
6

>  <a_heavy>
12

>  <a_hyd>
7

>  <a_IC>
34.954453

>  <a_ICM>
1.6644977

>  <a_nB>
0

>  <a_nBr>
0

>  <a_nC>
8

>  <a_nCl>
0

>  <a_nF>
0

>  <a_nH>
9

>  <a_nI>
0

>  <a_nN>
1

>  <a_nO>
3

>  <a_nP>
0

>  <a_nS>
0

>  <balabanJ>
2.6215596

>  <BCUT_PEOE_0>
-2.3067155

>  <BCUT_PEOE_1>
-0.5812481

>  <BCUT_PEOE_2>
0.60609919

>  <BCUT_PEOE_3>
2.3266551

>  <BCUT_SLOGP_0>
-2.2210159

>  <BCUT_SLOGP_1>
-0.5414536

>  <BCUT_SLOGP_2>
0.56934547

>  <BCUT_SLOGP_3>
2.4376423

>  <BCUT_SMR_0>
-2.0436008

>  <BCUT_SMR_1>
-0.35703763

>  <BCUT_SMR_2>
0.79332489

>  <BCUT_SMR_3>
2.5960407

>  <bpol>
12.116863

>  <b_1rotN>
2

>  <b_1rotR>
0.16666667

>  <b_ar>
6

>  <b_count>
21

>  <b_double>
1

>  <b_heavy>
12

>  <b_max1len>
3

>  <b_rotN>
2

>  <b_rotR>
0.16666667

>  <b_single>
14

>  <b_triple>
0

>  <chi0>
9.1378279

>  <chi0v>
6.6116962

>  <chi0v_C>
4.8618073

>  <chi0_C>
5.4307213

>  <chi1>
5.7019072

>  <chi1v>
3.4382463

>  <chi1v_C>
2.1809037

>  <chi1_C>
2.8020952

>  <chiral>
0

>  <chiral_u>
0

>  <density>
0.79110223

>  <diameter>
6

>  <FCharge>
0

>  <GCUT_PEOE_0>
-0.78684998

>  <GCUT_PEOE_1>
-0.44701442

>  <GCUT_PEOE_2>
0.069296874

>  <GCUT_PEOE_3>
2.1722558

>  <GCUT_SLOGP_0>
-0.78147364

>  <GCUT_SLOGP_1>
-0.34469682

>  <GCUT_SLOGP_2>
0.0053006681

>  <GCUT_SLOGP_3>
2.2666287

>  <GCUT_SMR_0>
-0.49546313

>  <GCUT_SMR_1>
-0.22045422

>  <GCUT_SMR_2>
0.24776334

>  <GCUT_SMR_3>
2.4384887

>  <Kier1>
10.083333

>  <Kier2>
4.296875

>  <Kier3>
2.0408163

>  <KierA1>
7.3753104

>  <KierA2>
3.043287

>  <KierA3>
1.4090084

>  <KierFlex>
1.8704321

>  <lip_acc>
4

>  <lip_don>
2

>  <lip_druglike>
1

>  <lip_violation>
0

>  <logP(o/w)>
0.023

>  <logS>
0.14469001

>  <mr>
4.3870053

>  <mutagenic>
0

>  <nmol>
1

>  <opr_brigid>
6

>  <opr_leadlike>
1

>  <opr_nring>
1

>  <opr_nrot>
2

>  <opr_violation>
0

>  <PC+>
0

>  <PC->
0

>  <PEOE_PC+>
1.320377

>  <PEOE_PC->
-1.320377

>  <PEOE_RPC+>
0.16466056

>  <PEOE_RPC->
0.29563242

>  <PEOE_VSA+0>
31.750612

>  <PEOE_VSA+1>
36.65554

>  <PEOE_VSA+2>
12.723906

>  <PEOE_VSA+3>
18.504883

>  <PEOE_VSA+4>
20.648346

>  <PEOE_VSA+5>
0

>  <PEOE_VSA+6>
0

>  <PEOE_VSA-0>
18.747677

>  <PEOE_VSA-1>
0

>  <PEOE_VSA-2>
0

>  <PEOE_VSA-3>
0

>  <PEOE_VSA-4>
0

>  <PEOE_VSA-5>
19.249496

>  <PEOE_VSA-6>
15.535081

>  <PEOE_VSA_FHYD>
0.68108189

>  <PEOE_VSA_FNEG>
0.30798313

>  <PEOE_VSA_FPNEG>
0.20012352

>  <PEOE_VSA_FPOL>
0.31891811

>  <PEOE_VSA_FPOS>
0.6920169

>  <PEOE_VSA_FPPOS>
0.11879458

>  <PEOE_VSA_HYD>
118.38262

>  <PEOE_VSA_NEG>
53.532253

>  <PEOE_VSA_PNEG>
34.784576

>  <PEOE_VSA_POL>
55.432922

>  <PEOE_VSA_POS>
120.28329

>  <PEOE_VSA_PPOS>
20.648346

>  <petitjean>
0.5

>  <petitjeanSC>
1

>  <Q_PC+>
0

>  <Q_PC->
0

>  <Q_RPC+>
0

>  <Q_RPC->
0

>  <Q_VSA_FHYD>
1

>  <Q_VSA_FNEG>
0

>  <Q_VSA_FPNEG>
0

>  <Q_VSA_FPOL>
0

>  <Q_VSA_FPOS>
1

>  <Q_VSA_FPPOS>
0

>  <Q_VSA_HYD>
173.81555

>  <Q_VSA_NEG>
0

>  <Q_VSA_PNEG>
0

>  <Q_VSA_POL>
0

>  <Q_VSA_POS>
173.81555

>  <Q_VSA_PPOS>
0

>  <radius>
3

>  <reactive>
1

>  <rings>
1

>  <RPC+>
0

>  <RPC->
0

>  <rsynth>
1

>  <SlogP>
0.66681999

>  <SlogP_VSA0>
50.770454

>  <SlogP_VSA1>
16.78553

>  <SlogP_VSA2>
20.14522

>  <SlogP_VSA3>
0

>  <SlogP_VSA4>
32.990112

>  <SlogP_VSA5>
0

>  <SlogP_VSA6>
0

>  <SlogP_VSA7>
17.214357

>  <SlogP_VSA8>
0

>  <SlogP_VSA9>
59.495701

>  <SMR>
4.2154102

>  <SMR_VSA0>
23.862217

>  <SMR_VSA1>
67.555984

>  <SMR_VSA2>
0

>  <SMR_VSA3>
14.371325

>  <SMR_VSA4>
0

>  <SMR_VSA5>
38.140617

>  <SMR_VSA6>
0

>  <SMR_VSA7>
53.471233

>  <TPSA>
70.419998

>  <VAdjEq>
0.65002245

>  <VAdjMa>
4.5849624

>  <VDistEq>
2.3217623

>  <VDistMa>
6.889935

>  <vdw_area>
173.81555

>  <vdw_vol>
211.30518

>  <vsa_acc>
19.249496

>  <vsa_acid>
0

>  <vsa_base>
0

>  <vsa_don>
0

>  <vsa_hyd>
91.341583

>  <vsa_other>
22.058474

>  <vsa_pol>
46.383339

>  <Weight>
167.164

>  <weinerPath>
186

>  <weinerPol>
18

>  <zagreb>
56

$$$$