O(C(=O)c1ccccc1O)c1ccccc1C(O)=O
  MOE2013           2D

 19 20  0  0  0  0  0  0  0  0999 V2000
    0.0000    0.0000    0.0000 O   0  0  0  0  0  0  0  0  0  0  0  0
    0.7510   -1.2980    0.0000 C   0  0  0  0  0  0  0  0  0  0  0  0
    0.0020   -2.5980    0.0000 O   0  0  0  0  0  0  0  0  0  0  0  0
    2.2510   -1.2970    0.0000 C   0  0  0  0  0  0  0  0  0  0  0  0
    3.0000    0.0030    0.0000 C   0  0  0  0  0  0  0  0  0  0  0  0
    4.5000    0.0040    0.0000 C   0  0  0  0  0  0  0  0  0  0  0  0
    5.2510   -1.2940    0.0000 C   0  0  0  0  0  0  0  0  0  0  0  0
    4.5020   -2.5940    0.0000 C   0  0  0  0  0  0  0  0  0  0  0  0
    3.0020   -2.5950    0.0000 C   0  0  0  0  0  0  0  0  0  0  0  0
    2.2530   -3.8950    0.0000 O   0  0  0  0  0  0  0  0  0  0  0  0
   -1.5000   -0.0010    0.0000 C   0  0  0  0  0  0  0  0  0  0  0  0
   -2.2490   -1.3010    0.0000 C   0  0  0  0  0  0  0  0  0  0  0  0
   -3.7490   -1.3020    0.0000 C   0  0  0  0  0  0  0  0  0  0  0  0
   -4.5000   -0.0040    0.0000 C   0  0  0  0  0  0  0  0  0  0  0  0
   -3.7510    1.2960    0.0000 C   0  0  0  0  0  0  0  0  0  0  0  0
   -2.2510    1.2970    0.0000 C   0  0  0  0  0  0  0  0  0  0  0  0
   -1.5020    2.5970    0.0000 C   0  0  0  0  0  0  0  0  0  0  0  0
   -0.0020    2.5980    0.0000 O   0  0  0  0  0  0  0  0  0  0  0  0
   -2.2530    3.8950    0.0000 O   0  0  0  0  0  0  0  0  0  0  0  0
  1  2  1  0  0  0  0
  1 11  1  0  0  0  0
  2  3  2  0  0  0  0
  2  4  1  0  0  0  0
  4  5  1  0  0  0  0
  4  9  2  0  0  0  0
  5  6  2  0  0  0  0
  6  7  1  0  0  0  0
  7  8  2  0  0  0  0
  8  9  1  0  0  0  0
  9 10  1  0  0  0  0
 11 12  1  0  0  0  0
 11 16  2  0  0  0  0
 12 13  2  0  0  0  0
 13 14  1  0  0  0  0
 14 15  2  0  0  0  0
 15 16  1  0  0  0  0
 16 17  1  0  0  0  0
 17 18  1  0  0  0  0
 17 19  2  0  0  0  0
M  END
>  <Index>
968

>  <ID>
HT1863

>  <class>
0

>  <apol>
35.317928

>  <ast_fraglike>
0

>  <ast_fraglike_ext>
0

>  <ast_violation>
1

>  <ast_violation_ext>
1

>  <a_acc>
4

>  <a_acid>
0

>  <a_aro>
12

>  <a_base>
0

>  <a_count>
29

>  <a_don>
3

>  <a_donacc>
7

>  <a_heavy>
19

>  <a_hyd>
12

>  <a_IC>
42.749557

>  <a_ICM>
1.4741228

>  <a_nB>
0

>  <a_nBr>
0

>  <a_nC>
14

>  <a_nCl>
0

>  <a_nF>
0

>  <a_nH>
10

>  <a_nI>
0

>  <a_nN>
0

>  <a_nO>
5

>  <a_nP>
0

>  <a_nS>
0

>  <balabanJ>
1.9137154

>  <BCUT_PEOE_0>
-2.2100132

>  <BCUT_PEOE_1>
-0.61466926

>  <BCUT_PEOE_2>
0.6671015

>  <BCUT_PEOE_3>
2.2524157

>  <BCUT_SLOGP_0>
-2.1826582

>  <BCUT_SLOGP_1>
-0.52962041

>  <BCUT_SLOGP_2>
0.74388522

>  <BCUT_SLOGP_3>
2.3619556

>  <BCUT_SMR_0>
-1.9053528

>  <BCUT_SMR_1>
-0.44200078

>  <BCUT_SMR_2>
0.81245047

>  <BCUT_SMR_3>
2.5475433

>  <bpol>
14.76407

>  <b_1rotN>
3

>  <b_1rotR>
0.15000001

>  <b_ar>
12

>  <b_count>
30

>  <b_double>
2

>  <b_heavy>
20

>  <b_max1len>
1

>  <b_rotN>
4

>  <b_rotR>
0.2

>  <b_single>
16

>  <b_triple>
0

>  <chi0>
13.828063

>  <chi0v>
9.7379742

>  <chi0v_C>
7.6188021

>  <chi0_C>
9.1209555

>  <chi1>
9.0922241

>  <chi1v>
5.4184108

>  <chi1v_C>
4.1547008

>  <chi1_C>
5.9663267

>  <chiral>
0

>  <chiral_u>
0

>  <density>
0.80005103

>  <diameter>
9

>  <FCharge>
0

>  <GCUT_PEOE_0>
-0.75839847

>  <GCUT_PEOE_1>
-0.48439625

>  <GCUT_PEOE_2>
0.12464596

>  <GCUT_PEOE_3>
2.2627647

>  <GCUT_SLOGP_0>
-0.89933562

>  <GCUT_SLOGP_1>
-0.35033318

>  <GCUT_SLOGP_2>
0.17327407

>  <GCUT_SLOGP_3>
2.3739283

>  <GCUT_SMR_0>
-0.42790005

>  <GCUT_SMR_1>
-0.22906148

>  <GCUT_SMR_2>
0.2323316

>  <GCUT_SMR_3>
2.5473492

>  <Kier1>
15.39

>  <Kier2>
7.1358023

>  <Kier3>
3.9861591

>  <KierA1>
10.563126

>  <KierA2>
4.7851486

>  <KierA3>
2.6246386

>  <KierFlex>
2.6603227

>  <lip_acc>
5

>  <lip_don>
2

>  <lip_druglike>
1

>  <lip_violation>
0

>  <logP(o/w)>
2.8659999

>  <logS>
-3.10639

>  <mr>
6.7759137

>  <mutagenic>
0

>  <nmol>
1

>  <opr_brigid>
12

>  <opr_leadlike>
1

>  <opr_nring>
2

>  <opr_nrot>
3

>  <opr_violation>
0

>  <PC+>
0

>  <PC->
0

>  <PEOE_PC+>
1.8720967

>  <PEOE_PC->
-1.8720967

>  <PEOE_RPC+>
0.16093396

>  <PEOE_RPC->
0.19179183

>  <PEOE_VSA+0>
0

>  <PEOE_VSA+1>
55.457207

>  <PEOE_VSA+2>
0

>  <PEOE_VSA+3>
0

>  <PEOE_VSA+4>
20.648346

>  <PEOE_VSA+5>
14.708499

>  <PEOE_VSA+6>
14.708499

>  <PEOE_VSA-0>
49.019615

>  <PEOE_VSA-1>
49.019615

>  <PEOE_VSA-2>
0

>  <PEOE_VSA-3>
0

>  <PEOE_VSA-4>
0

>  <PEOE_VSA-5>
29.637598

>  <PEOE_VSA-6>
15.535081

>  <PEOE_VSA_FHYD>
0.61710966

>  <PEOE_VSA_FNEG>
0.57576221

>  <PEOE_VSA_FPNEG>
0.18161005

>  <PEOE_VSA_FPOL>
0.38289034

>  <PEOE_VSA_FPOS>
0.42423776

>  <PEOE_VSA_FPPOS>
0.2012803

>  <PEOE_VSA_HYD>
153.49644

>  <PEOE_VSA_NEG>
143.21191

>  <PEOE_VSA_PNEG>
45.17268

>  <PEOE_VSA_POL>
95.238022

>  <PEOE_VSA_POS>
105.52255

>  <PEOE_VSA_PPOS>
50.065342

>  <petitjean>
0.44444445

>  <petitjeanSC>
0.80000001

>  <Q_PC+>
0

>  <Q_PC->
0

>  <Q_RPC+>
0

>  <Q_RPC->
0

>  <Q_VSA_FHYD>
1

>  <Q_VSA_FNEG>
0

>  <Q_VSA_FPNEG>
0

>  <Q_VSA_FPOL>
0

>  <Q_VSA_FPOS>
1

>  <Q_VSA_FPPOS>
0

>  <Q_VSA_HYD>
248.73447

>  <Q_VSA_NEG>
0

>  <Q_VSA_PNEG>
0

>  <Q_VSA_POL>
0

>  <Q_VSA_POS>
248.73447

>  <Q_VSA_PPOS>
0

>  <radius>
5

>  <reactive>
0

>  <rings>
2

>  <RPC+>
0

>  <RPC->
0

>  <rsynth>
1

>  <SlogP>
2.3096001

>  <SlogP_VSA0>
36.385113

>  <SlogP_VSA1>
15.490929

>  <SlogP_VSA2>
0

>  <SlogP_VSA3>
25.385227

>  <SlogP_VSA4>
54.095581

>  <SlogP_VSA5>
0

>  <SlogP_VSA6>
0

>  <SlogP_VSA7>
141.14548

>  <SlogP_VSA8>
0

>  <SlogP_VSA9>
10.486856

>  <SMR>
6.6466599

>  <SMR_VSA0>
47.724434

>  <SMR_VSA1>
36.385113

>  <SMR_VSA2>
25.385227

>  <SMR_VSA3>
16.858006

>  <SMR_VSA4>
0

>  <SMR_VSA5>
141.14548

>  <SMR_VSA6>
15.490929

>  <SMR_VSA7>
0

>  <TPSA>
83.830002

>  <VAdjEq>
0.5023343

>  <VAdjMa>
5.321928

>  <VDistEq>
3.0322773

>  <VDistMa>
8.2085218

>  <vdw_area>
248.73447

>  <vdw_vol>
322.76566

>  <vsa_acc>
13.566921

>  <vsa_acid>
0

>  <vsa_base>
0

>  <vsa_don>
0

>  <vsa_hyd>
147.80208

>  <vsa_other>
31.920755

>  <vsa_pol>
54.267685

>  <Weight>
258.229

>  <weinerPath>
714

>  <weinerPol>
28

>  <zagreb>
94

$$$$