Fc1c(N2C[C@H](N[C@H](C2)C)C)c(F)c2N(C=C(C(O)=O)C(=O)c2c1N)C1CC1
  MOE2013           2D

 28 31  0  0  1  0  0  0  0  0999 V2000
    0.0000    0.0000    0.0000 F   0  0  0  0  0  0  0  0  0  0  0  0
    0.7570   -1.2950    0.0000 C   0  0  0  0  0  0  0  0  0  0  0  0
    0.0130   -2.5980    0.0000 C   0  0  0  0  0  0  0  0  0  0  0  0
   -1.4870   -2.6060    0.0000 N   0  0  0  0  0  0  0  0  0  0  0  0
   -2.2300   -3.9090    0.0000 C   0  0  0  0  0  0  0  0  0  0  0  0
   -3.7300   -3.9160    0.0000 C   0  0  2  0  0  0  0  0  0  0  0  0
   -4.4870   -2.6210    0.0000 N   0  0  0  0  0  0  0  0  0  0  0  0
   -3.7430   -1.3180    0.0000 C   0  0  2  0  0  0  0  0  0  0  0  0
   -2.2430   -1.3100    0.0000 C   0  0  0  0  0  0  0  0  0  0  0  0
   -4.5000   -0.0230    0.0000 C   0  0  0  0  0  0  0  0  0  0  0  0
   -4.4740   -5.2190    0.0000 C   0  0  0  0  0  0  0  0  0  0  0  0
    0.7700   -3.8930    0.0000 C   0  0  0  0  0  0  0  0  0  0  0  0
    0.0260   -5.1960    0.0000 F   0  0  0  0  0  0  0  0  0  0  0  0
    2.2700   -3.8860    0.0000 C   0  0  0  0  0  0  0  0  0  0  0  0
    3.0260   -5.1810    0.0000 N   0  0  3  0  0  0  0  0  0  0  0  0
    4.5260   -5.1730    0.0000 C   0  0  0  0  0  0  0  0  0  0  0  0
    5.2700   -3.8700    0.0000 C   0  0  0  0  0  0  0  0  0  0  0  0
    6.7700   -3.8630    0.0000 C   0  0  0  0  0  0  0  0  0  0  0  0
    7.5260   -5.1580    0.0000 O   0  0  0  0  0  0  0  0  0  0  0  0
    7.5130   -2.5600    0.0000 O   0  0  0  0  0  0  0  0  0  0  0  0
    4.5130   -2.5750    0.0000 C   0  0  0  0  0  0  0  0  0  0  0  0
    5.2570   -1.2720    0.0000 O   0  0  0  0  0  0  0  0  0  0  0  0
    3.0130   -2.5830    0.0000 C   0  0  0  0  0  0  0  0  0  0  0  0
    2.2570   -1.2880    0.0000 C   0  0  0  0  0  0  0  0  0  0  0  0
    3.0000    0.0150    0.0000 N   0  0  0  0  0  0  0  0  0  0  0  0
    2.2830   -6.4840    0.0000 C   0  0  0  0  0  0  0  0  0  0  0  0
    2.2910   -7.9840    0.0000 C   0  0  0  0  0  0  0  0  0  0  0  0
    0.9880   -7.2400    0.0000 C   0  0  0  0  0  0  0  0  0  0  0  0
  1  2  1  0  0  0  0
  2  3  2  0  0  0  0
  2 24  1  0  0  0  0
  3  4  1  0  0  0  0
  3 12  1  0  0  0  0
  4  5  1  0  0  0  0
  4  9  1  0  0  0  0
  5  6  1  0  0  0  0
  6  7  1  0  0  0  0
  6 11  1  1  0  0  0
  7  8  1  0  0  0  0
  8  9  1  0  0  0  0
  8 10  1  1  0  0  0
 12 13  1  0  0  0  0
 12 14  2  0  0  0  0
 14 15  1  0  0  0  0
 14 23  1  0  0  0  0
 15 16  1  0  0  0  0
 15 26  1  0  0  0  0
 16 17  2  0  0  0  0
 17 18  1  0  0  0  0
 17 21  1  0  0  0  0
 18 19  1  0  0  0  0
 18 20  2  0  0  0  0
 21 22  2  0  0  0  0
 21 23  1  0  0  0  0
 23 24  2  0  0  0  0
 24 25  1  0  0  0  0
 26 27  1  0  0  0  0
 26 28  1  0  0  0  0
 27 28  1  0  0  0  0
M  END
>  <Index>
993

>  <ID>
HT1908

>  <class>
0

>  <apol>
56.029446

>  <ast_fraglike>
0

>  <ast_fraglike_ext>
0

>  <ast_violation>
3

>  <ast_violation_ext>
5

>  <a_acc>
4

>  <a_acid>
0

>  <a_aro>
6

>  <a_base>
0

>  <a_count>
50

>  <a_don>
4

>  <a_donacc>
8

>  <a_heavy>
28

>  <a_hyd>
19

>  <a_IC>
88.619804

>  <a_ICM>
1.7723961

>  <a_nB>
0

>  <a_nBr>
0

>  <a_nC>
19

>  <a_nCl>
0

>  <a_nF>
2

>  <a_nH>
22

>  <a_nI>
0

>  <a_nN>
4

>  <a_nO>
3

>  <a_nP>
0

>  <a_nS>
0

>  <balabanJ>
1.6488504

>  <BCUT_PEOE_0>
-2.7763262

>  <BCUT_PEOE_1>
-0.56345278

>  <BCUT_PEOE_2>
0.54764867

>  <BCUT_PEOE_3>
2.7650313

>  <BCUT_SLOGP_0>
-2.9346011

>  <BCUT_SLOGP_1>
-0.50283325

>  <BCUT_SLOGP_2>
0.62531018

>  <BCUT_SLOGP_3>
2.8104007

>  <BCUT_SMR_0>
-2.4888225

>  <BCUT_SMR_1>
-0.35898575

>  <BCUT_SMR_2>
0.70711988

>  <BCUT_SMR_3>
3.0322769

>  <bpol>
32.332554

>  <b_1rotN>
3

>  <b_1rotR>
0.096774191

>  <b_ar>
6

>  <b_count>
53

>  <b_double>
3

>  <b_heavy>
31

>  <b_max1len>
3

>  <b_rotN>
3

>  <b_rotR>
0.096774191

>  <b_single>
44

>  <b_triple>
0

>  <chi0>
20.325544

>  <chi0v>
15.629245

>  <chi0v_C>
11.637828

>  <chi0_C>
12.463737

>  <chi1>
13.201285

>  <chi1v>
9.2982807

>  <chi1v_C>
5.8263688

>  <chi1_C>
6.6959419

>  <chiral>
2

>  <chiral_u>
0

>  <density>
0.81279165

>  <diameter>
11

>  <FCharge>
0

>  <GCUT_PEOE_0>
-0.84173042

>  <GCUT_PEOE_1>
-0.43126547

>  <GCUT_PEOE_2>
0.06803719

>  <GCUT_PEOE_3>
2.8496916

>  <GCUT_SLOGP_0>
-1.3346509

>  <GCUT_SLOGP_1>
-0.37283126

>  <GCUT_SLOGP_2>
0.15622495

>  <GCUT_SLOGP_3>
2.8709123

>  <GCUT_SMR_0>
-0.5149557

>  <GCUT_SMR_1>
-0.22010073

>  <GCUT_SMR_2>
0.17058685

>  <GCUT_SMR_3>
3.1166115

>  <Kier1>
21.240376

>  <Kier2>
7.921875

>  <Kier3>
3.5496745

>  <KierA1>
16.378984

>  <KierA2>
6.0459499

>  <KierA3>
2.689229

>  <KierFlex>
3.5366616

>  <lip_acc>
7

>  <lip_don>
4

>  <lip_druglike>
1

>  <lip_violation>
0

>  <logP(o/w)>
1.36

>  <logS>
-3.40487

>  <mr>
9.745369

>  <mutagenic>
1

>  <nmol>
1

>  <opr_brigid>
20

>  <opr_leadlike>
1

>  <opr_nring>
4

>  <opr_nrot>
5

>  <opr_violation>
0

>  <PC+>
0

>  <PC->
0

>  <PEOE_PC+>
2.5626056

>  <PEOE_PC->
-2.5626056

>  <PEOE_RPC+>
0.11548004

>  <PEOE_RPC->
0.12775053

>  <PEOE_VSA+0>
125.08001

>  <PEOE_VSA+1>
26.572578

>  <PEOE_VSA+2>
28.065578

>  <PEOE_VSA+3>
18.041691

>  <PEOE_VSA+4>
18.782692

>  <PEOE_VSA+5>
14.708499

>  <PEOE_VSA+6>
0

>  <PEOE_VSA-0>
54.89798

>  <PEOE_VSA-1>
0

>  <PEOE_VSA-2>
0

>  <PEOE_VSA-3>
0

>  <PEOE_VSA-4>
23.817272

>  <PEOE_VSA-5>
33.784962

>  <PEOE_VSA-6>
7.9044313

>  <PEOE_VSA_FHYD>
0.71848071

>  <PEOE_VSA_FNEG>
0.34239355

>  <PEOE_VSA_FPNEG>
0.18628068

>  <PEOE_VSA_FPOL>
0.28151926

>  <PEOE_VSA_FPOS>
0.65760642

>  <PEOE_VSA_FPPOS>
0.095238589

>  <PEOE_VSA_HYD>
252.65784

>  <PEOE_VSA_NEG>
120.40465

>  <PEOE_VSA_PNEG>
65.50666

>  <PEOE_VSA_POL>
98.997856

>  <PEOE_VSA_POS>
231.25105

>  <PEOE_VSA_PPOS>
33.491192

>  <petitjean>
0.45454547

>  <petitjeanSC>
0.83333331

>  <Q_PC+>
0

>  <Q_PC->
0

>  <Q_RPC+>
0

>  <Q_RPC->
0

>  <Q_VSA_FHYD>
1

>  <Q_VSA_FNEG>
0

>  <Q_VSA_FPNEG>
0

>  <Q_VSA_FPOL>
0

>  <Q_VSA_FPOS>
1

>  <Q_VSA_FPPOS>
0

>  <Q_VSA_HYD>
351.6557

>  <Q_VSA_NEG>
0

>  <Q_VSA_PNEG>
0

>  <Q_VSA_POL>
0

>  <Q_VSA_POS>
351.6557

>  <Q_VSA_PPOS>
0

>  <radius>
6

>  <reactive>
0

>  <rings>
4

>  <RPC+>
0

>  <RPC->
0

>  <rsynth>
1

>  <SlogP>
1.8672

>  <SlogP_VSA0>
57.156567

>  <SlogP_VSA1>
13.433075

>  <SlogP_VSA2>
54.050159

>  <SlogP_VSA3>
62.264381

>  <SlogP_VSA4>
27.047791

>  <SlogP_VSA5>
3.185575

>  <SlogP_VSA6>
0

>  <SlogP_VSA7>
17.214357

>  <SlogP_VSA8>
37.736813

>  <SlogP_VSA9>
104.8425

>  <SMR>
10.05934

>  <SMR_VSA0>
47.724434

>  <SMR_VSA1>
29.920227

>  <SMR_VSA2>
67.886642

>  <SMR_VSA3>
18.317057

>  <SMR_VSA4>
8.2702427

>  <SMR_VSA5>
87.848358

>  <SMR_VSA6>
50.312233

>  <SMR_VSA7>
66.652031

>  <TPSA>
98.900002

>  <VAdjEq>
0.39893496

>  <VAdjMa>
5.9541965

>  <VDistEq>
3.2148395

>  <VDistMa>
9.3676682

>  <vdw_area>
351.6557

>  <vdw_vol>
482.78793

>  <vsa_acc>
13.566921

>  <vsa_acid>
0

>  <vsa_base>
0

>  <vsa_don>
17.742489

>  <vsa_hyd>
237.80576

>  <vsa_other>
23.167019

>  <vsa_pol>
64.125832

>  <Weight>
392.40601

>  <weinerPath>
1781

>  <weinerPol>
55

>  <zagreb>
158

$$$$