Fc1cc2c(O[C@@H](C[C@]23NC(=O)NC3=O)C)cc1
  MOE2013           2D

 18 20  0  0  1  0  0  0  0  0999 V2000
    0.0000    0.0000    0.0000 F   0  0  0  0  0  0  0  0  0  0  0  0
   -0.7580    1.2950    0.0000 C   0  0  0  0  0  0  0  0  0  0  0  0
   -2.2580    1.2860    0.0000 C   0  0  0  0  0  0  0  0  0  0  0  0
   -3.0150    2.5800    0.0000 C   0  0  0  0  0  0  0  0  0  0  0  0
   -2.2730    3.8840    0.0000 C   0  0  0  0  0  0  0  0  0  0  0  0
   -3.0310    5.1780    0.0000 O   0  0  0  0  0  0  0  0  0  0  0  0
   -4.5310    5.1690    0.0000 C   0  0  1  0  0  0  0  0  0  0  0  0
   -5.2730    3.8660    0.0000 C   0  0  0  0  0  0  0  0  0  0  0  0
   -4.5150    2.5710    0.0000 C   0  0  2  0  0  0  0  0  0  0  0  0
   -6.0100    2.6930    0.0000 N   0  0  0  0  0  0  0  0  0  0  0  0
   -6.5880    1.3090    0.0000 C   0  0  0  0  0  0  0  0  0  0  0  0
   -8.0480    0.9630    0.0000 O   0  0  0  0  0  0  0  0  0  0  0  0
   -5.4500    0.3310    0.0000 N   0  0  0  0  0  0  0  0  0  0  0  0
   -4.1690    1.1120    0.0000 C   0  0  0  0  0  0  0  0  0  0  0  0
   -2.7850    0.5340    0.0000 O   0  0  0  0  0  0  0  0  0  0  0  0
   -5.2890    6.4640    0.0000 C   0  0  0  0  0  0  0  0  0  0  0  0
   -0.7730    3.8930    0.0000 C   0  0  0  0  0  0  0  0  0  0  0  0
   -0.0160    2.5980    0.0000 C   0  0  0  0  0  0  0  0  0  0  0  0
  1  2  1  0  0  0  0
  2  3  1  0  0  0  0
  2 18  2  0  0  0  0
  3  4  2  0  0  0  0
  4  5  1  0  0  0  0
  4  9  1  0  0  0  0
  5  6  1  0  0  0  0
  5 17  2  0  0  0  0
  6  7  1  0  0  0  0
  7  8  1  0  0  0  0
  7 16  1  1  0  0  0
  8  9  1  0  0  0  0
  9 10  1  1  0  0  0
  9 14  1  6  0  0  0
 10 11  1  0  0  0  0
 11 12  2  0  0  0  0
 11 13  1  0  0  0  0
 13 14  1  0  0  0  0
 14 15  2  0  0  0  0
 17 18  1  0  0  0  0
M  END
>  <Index>
991

>  <ID>
HT1906

>  <class>
0

>  <apol>
33.617722

>  <ast_fraglike>
1

>  <ast_fraglike_ext>
1

>  <ast_violation>
0

>  <ast_violation_ext>
0

>  <a_acc>
3

>  <a_acid>
0

>  <a_aro>
6

>  <a_base>
0

>  <a_count>
29

>  <a_don>
2

>  <a_donacc>
5

>  <a_heavy>
18

>  <a_hyd>
11

>  <a_IC>
53.053265

>  <a_ICM>
1.8294228

>  <a_nB>
0

>  <a_nBr>
0

>  <a_nC>
12

>  <a_nCl>
0

>  <a_nF>
1

>  <a_nH>
11

>  <a_nI>
0

>  <a_nN>
2

>  <a_nO>
3

>  <a_nP>
0

>  <a_nS>
0

>  <balabanJ>
1.9106003

>  <BCUT_PEOE_0>
-2.6295259

>  <BCUT_PEOE_1>
-0.59351164

>  <BCUT_PEOE_2>
0.56253016

>  <BCUT_PEOE_3>
2.7218282

>  <BCUT_SLOGP_0>
-2.6596031

>  <BCUT_SLOGP_1>
-0.44482923

>  <BCUT_SLOGP_2>
0.74813485

>  <BCUT_SLOGP_3>
2.7095253

>  <BCUT_SMR_0>
-2.395098

>  <BCUT_SMR_1>
-0.39932877

>  <BCUT_SMR_2>
0.73642385

>  <BCUT_SMR_3>
2.9618886

>  <bpol>
18.380278

>  <b_1rotN>
0

>  <b_1rotR>
0

>  <b_ar>
6

>  <b_count>
31

>  <b_double>
2

>  <b_heavy>
20

>  <b_max1len>
3

>  <b_rotN>
0

>  <b_rotR>
0

>  <b_single>
23

>  <b_triple>
0

>  <chi0>
12.913849

>  <chi0v>
9.6192169

>  <chi0v_C>
7.0165076

>  <chi0_C>
7.7925286

>  <chi1>
8.5096741

>  <chi1v>
5.6142426

>  <chi1v_C>
3.5771859

>  <chi1_C>
4.3828287

>  <chiral>
2

>  <chiral_u>
0

>  <density>
0.84426045

>  <diameter>
7

>  <FCharge>
0

>  <GCUT_PEOE_0>
-0.79641724

>  <GCUT_PEOE_1>
-0.45093763

>  <GCUT_PEOE_2>
0.068002254

>  <GCUT_PEOE_3>
2.6224897

>  <GCUT_SLOGP_0>
-1.1955004

>  <GCUT_SLOGP_1>
-0.36035657

>  <GCUT_SLOGP_2>
0.19598097

>  <GCUT_SLOGP_3>
2.649246

>  <GCUT_SMR_0>
-0.5187391

>  <GCUT_SMR_1>
-0.21407753

>  <GCUT_SMR_2>
0.15953861

>  <GCUT_SMR_3>
2.867748

>  <Kier1>
13.005

>  <Kier2>
4.528616

>  <Kier3>
2.0767982

>  <KierA1>
9.3954763

>  <KierA2>
3.2032871

>  <KierA3>
1.4461197

>  <KierFlex>
1.6720227

>  <lip_acc>
5

>  <lip_don>
2

>  <lip_druglike>
1

>  <lip_violation>
0

>  <logP(o/w)>
1.357

>  <logS>
-2.93156

>  <mr>
6.128726

>  <mutagenic>
0

>  <nmol>
1

>  <opr_brigid>
16

>  <opr_leadlike>
1

>  <opr_nring>
3

>  <opr_nrot>
0

>  <opr_violation>
0

>  <PC+>
0

>  <PC->
0

>  <PEOE_PC+>
1.768903

>  <PEOE_PC->
-1.768903

>  <PEOE_RPC+>
0.18298492

>  <PEOE_RPC->
0.19293706

>  <PEOE_VSA+0>
32.236782

>  <PEOE_VSA+1>
30.424992

>  <PEOE_VSA+2>
9.0208454

>  <PEOE_VSA+3>
17.238026

>  <PEOE_VSA+4>
0

>  <PEOE_VSA+5>
12.949531

>  <PEOE_VSA+6>
17.440542

>  <PEOE_VSA-0>
55.51239

>  <PEOE_VSA-1>
0

>  <PEOE_VSA-2>
0

>  <PEOE_VSA-3>
0

>  <PEOE_VSA-4>
25.475557

>  <PEOE_VSA-5>
13.703812

>  <PEOE_VSA-6>
2.6406472

>  <PEOE_VSA_FHYD>
0.66668648

>  <PEOE_VSA_FNEG>
0.44927529

>  <PEOE_VSA_FPNEG>
0.19303644

>  <PEOE_VSA_FPOL>
0.33331355

>  <PEOE_VSA_FPOS>
0.55072469

>  <PEOE_VSA_FPPOS>
0.14027712

>  <PEOE_VSA_HYD>
144.43303

>  <PEOE_VSA_NEG>
97.332405

>  <PEOE_VSA_PNEG>
41.820015

>  <PEOE_VSA_POL>
72.210091

>  <PEOE_VSA_POS>
119.31072

>  <PEOE_VSA_PPOS>
30.390074

>  <petitjean>
0.42857143

>  <petitjeanSC>
0.75

>  <Q_PC+>
0

>  <Q_PC->
0

>  <Q_RPC+>
0

>  <Q_RPC->
0

>  <Q_VSA_FHYD>
1

>  <Q_VSA_FNEG>
0

>  <Q_VSA_FPNEG>
0

>  <Q_VSA_FPOL>
0

>  <Q_VSA_FPOS>
1

>  <Q_VSA_FPPOS>
0

>  <Q_VSA_HYD>
216.64313

>  <Q_VSA_NEG>
0

>  <Q_VSA_PNEG>
0

>  <Q_VSA_POL>
0

>  <Q_VSA_POS>
216.64313

>  <Q_VSA_PPOS>
0

>  <radius>
4

>  <reactive>
0

>  <rings>
3

>  <RPC+>
0

>  <RPC->
0

>  <rsynth>
1

>  <SlogP>
1.3429

>  <SlogP_VSA0>
47.021389

>  <SlogP_VSA1>
10.088739

>  <SlogP_VSA2>
39.451885

>  <SlogP_VSA3>
0

>  <SlogP_VSA4>
3.185575

>  <SlogP_VSA5>
0

>  <SlogP_VSA6>
0

>  <SlogP_VSA7>
52.929554

>  <SlogP_VSA8>
18.868406

>  <SlogP_VSA9>
77.391769

>  <SMR>
5.9576402

>  <SMR_VSA0>
47.724434

>  <SMR_VSA1>
25.960001

>  <SMR_VSA2>
45.142521

>  <SMR_VSA3>
14.897653

>  <SMR_VSA4>
0

>  <SMR_VSA5>
71.797958

>  <SMR_VSA6>
10.088739

>  <SMR_VSA7>
33.326015

>  <TPSA>
67.43

>  <VAdjEq>
0.53921634

>  <VAdjMa>
5.321928

>  <VDistEq>
2.6097002

>  <VDistMa>
8.0936518

>  <vdw_area>
216.64313

>  <vdw_vol>
296.38837

>  <vsa_acc>
29.637598

>  <vsa_acid>
0

>  <vsa_base>
0

>  <vsa_don>
11.365152

>  <vsa_hyd>
132.69749

>  <vsa_other>
30.390074

>  <vsa_pol>
41.00275

>  <Weight>
250.22899

>  <weinerPath>
516

>  <weinerPol>
32

>  <zagreb>
102

$$$$