O1c2c(N(c3c1cccc3)CCOc1ccc(cc1)C[C@H](OCC)C(O)=O)cccc2
  MOE2013           2D

 31 34  0  0  1  0  0  0  0  0999 V2000
    0.0000    0.0000    0.0000 O   0  0  0  0  0  0  0  0  0  0  0  0
    0.0060    1.5000    0.0000 C   0  0  0  0  0  0  0  0  0  0  0  0
    1.3080    2.2450    0.0000 C   0  0  0  0  0  0  0  0  0  0  0  0
    2.6040    1.4890    0.0000 N   0  0  0  0  0  0  0  0  0  0  0  0
    2.5980   -0.0110    0.0000 C   0  0  0  0  0  0  0  0  0  0  0  0
    1.2960   -0.7550    0.0000 C   0  0  0  0  0  0  0  0  0  0  0  0
    1.2900   -2.2550    0.0000 C   0  0  0  0  0  0  0  0  0  0  0  0
    2.5860   -3.0110    0.0000 C   0  0  0  0  0  0  0  0  0  0  0  0
    3.8880   -2.2660    0.0000 C   0  0  0  0  0  0  0  0  0  0  0  0
    3.8940   -0.7660    0.0000 C   0  0  0  0  0  0  0  0  0  0  0  0
    3.9060    2.2340    0.0000 C   0  0  0  0  0  0  0  0  0  0  0  0
    5.2020    1.4790    0.0000 C   0  0  0  0  0  0  0  0  0  0  0  0
    6.5040    2.2230    0.0000 O   0  0  0  0  0  0  0  0  0  0  0  0
    7.8000    1.4680    0.0000 C   0  0  0  0  0  0  0  0  0  0  0  0
    9.1020    2.2130    0.0000 C   0  0  0  0  0  0  0  0  0  0  0  0
   10.3980    1.4570    0.0000 C   0  0  0  0  0  0  0  0  0  0  0  0
   10.3920   -0.0430    0.0000 C   0  0  0  0  0  0  0  0  0  0  0  0
    9.0900   -0.7870    0.0000 C   0  0  0  0  0  0  0  0  0  0  0  0
    7.7940   -0.0320    0.0000 C   0  0  0  0  0  0  0  0  0  0  0  0
   11.6880   -0.7980    0.0000 C   0  0  0  0  0  0  0  0  0  0  0  0
   12.9900   -0.0530    0.0000 C   0  0  2  0  0  0  0  0  0  0  0  0
   12.9960    1.4470    0.0000 O   0  0  0  0  0  0  0  0  0  0  0  0
   14.2990    2.1910    0.0000 C   0  0  0  0  0  0  0  0  0  0  0  0
   14.3050    3.6910    0.0000 C   0  0  0  0  0  0  0  0  0  0  0  0
   14.2860   -0.8090    0.0000 C   0  0  0  0  0  0  0  0  0  0  0  0
   15.5880   -0.0640    0.0000 O   0  0  0  0  0  0  0  0  0  0  0  0
   14.2800   -2.3090    0.0000 O   0  0  0  0  0  0  0  0  0  0  0  0
    1.3140    3.7450    0.0000 C   0  0  0  0  0  0  0  0  0  0  0  0
    0.0180    4.5000    0.0000 C   0  0  0  0  0  0  0  0  0  0  0  0
   -1.2840    3.7550    0.0000 C   0  0  0  0  0  0  0  0  0  0  0  0
   -1.2900    2.2550    0.0000 C   0  0  0  0  0  0  0  0  0  0  0  0
  1  2  1  0  0  0  0
  1  6  1  0  0  0  0
  2  3  2  0  0  0  0
  2 31  1  0  0  0  0
  3  4  1  0  0  0  0
  3 28  1  0  0  0  0
  4  5  1  0  0  0  0
  4 11  1  0  0  0  0
  5  6  2  0  0  0  0
  5 10  1  0  0  0  0
  6  7  1  0  0  0  0
  7  8  2  0  0  0  0
  8  9  1  0  0  0  0
  9 10  2  0  0  0  0
 11 12  1  0  0  0  0
 12 13  1  0  0  0  0
 13 14  1  0  0  0  0
 14 15  1  0  0  0  0
 14 19  2  0  0  0  0
 15 16  2  0  0  0  0
 16 17  1  0  0  0  0
 17 18  2  0  0  0  0
 17 20  1  0  0  0  0
 18 19  1  0  0  0  0
 21 20  1  6  0  0  0
 21 22  1  0  0  0  0
 21 25  1  0  0  0  0
 22 23  1  0  0  0  0
 23 24  1  0  0  0  0
 25 26  1  0  0  0  0
 25 27  2  0  0  0  0
 28 29  2  0  0  0  0
 29 30  1  0  0  0  0
 30 31  2  0  0  0  0
M  END
>  <Index>
925

>  <ID>
HT1793

>  <class>
0

>  <apol>
65.779823

>  <ast_fraglike>
0

>  <ast_fraglike_ext>
0

>  <ast_violation>
3

>  <ast_violation_ext>
4

>  <a_acc>
4

>  <a_acid>
0

>  <a_aro>
18

>  <a_base>
0

>  <a_count>
56

>  <a_don>
2

>  <a_donacc>
6

>  <a_heavy>
31

>  <a_hyd>
24

>  <a_IC>
81.409424

>  <a_ICM>
1.4537398

>  <a_nB>
0

>  <a_nBr>
0

>  <a_nC>
25

>  <a_nCl>
0

>  <a_nF>
0

>  <a_nH>
25

>  <a_nI>
0

>  <a_nN>
1

>  <a_nO>
5

>  <a_nP>
0

>  <a_nS>
0

>  <balabanJ>
1.2172948

>  <BCUT_PEOE_0>
-2.52582

>  <BCUT_PEOE_1>
-0.60539246

>  <BCUT_PEOE_2>
0.66565502

>  <BCUT_PEOE_3>
2.5383315

>  <BCUT_SLOGP_0>
-2.6044109

>  <BCUT_SLOGP_1>
-0.51886725

>  <BCUT_SLOGP_2>
0.76599854

>  <BCUT_SLOGP_3>
2.568778

>  <BCUT_SMR_0>
-2.2765098

>  <BCUT_SMR_1>
-0.46476308

>  <BCUT_SMR_2>
0.81416959

>  <BCUT_SMR_3>
2.7792547

>  <bpol>
36.016174

>  <b_1rotN>
9

>  <b_1rotR>
0.2647059

>  <b_ar>
18

>  <b_count>
59

>  <b_double>
1

>  <b_heavy>
34

>  <b_max1len>
6

>  <b_rotN>
9

>  <b_rotR>
0.2647059

>  <b_single>
40

>  <b_triple>
0

>  <chi0>
21.631182

>  <chi0v>
17.361401

>  <chi0v_C>
14.833981

>  <chi0_C>
16.93251

>  <chi1>
15.152199

>  <chi1v>
10.350248

>  <chi1v_C>
7.7336512

>  <chi1_C>
10.28959

>  <chiral>
1

>  <chiral_u>
0

>  <density>
0.72887373

>  <diameter>
16

>  <FCharge>
0

>  <GCUT_PEOE_0>
-0.80141521

>  <GCUT_PEOE_1>
-0.42108363

>  <GCUT_PEOE_2>
0.067945942

>  <GCUT_PEOE_3>
2.6561301

>  <GCUT_SLOGP_0>
-0.95840967

>  <GCUT_SLOGP_1>
-0.33210993

>  <GCUT_SLOGP_2>
0.15365201

>  <GCUT_SLOGP_3>
2.7874043

>  <GCUT_SMR_0>
-0.51705462

>  <GCUT_SMR_1>
-0.21486498

>  <GCUT_SMR_2>
0.18957564

>  <GCUT_SMR_3>
2.9416618

>  <Kier1>
24.134949

>  <Kier2>
11.92344

>  <Kier3>
6.3208814

>  <KierA1>
18.028337

>  <KierA2>
8.8138275

>  <KierA3>
4.6366668

>  <KierFlex>
5.1257629

>  <lip_acc>
6

>  <lip_don>
1

>  <lip_druglike>
1

>  <lip_violation>
1

>  <logP(o/w)>
4.5780001

>  <logS>
-6.03054

>  <mr>
11.882909

>  <mutagenic>
0

>  <nmol>
1

>  <opr_brigid>
22

>  <opr_leadlike>
1

>  <opr_nring>
4

>  <opr_nrot>
9

>  <opr_violation>
1

>  <PC+>
0

>  <PC->
0

>  <PEOE_PC+>
2.4856637

>  <PEOE_PC->
-2.4856637

>  <PEOE_RPC+>
0.11627103

>  <PEOE_RPC->
0.14744776

>  <PEOE_VSA+0>
66.702637

>  <PEOE_VSA+1>
109.32048

>  <PEOE_VSA+2>
21.821968

>  <PEOE_VSA+3>
0

>  <PEOE_VSA+4>
10.324173

>  <PEOE_VSA+5>
14.708499

>  <PEOE_VSA+6>
0

>  <PEOE_VSA-0>
94.485641

>  <PEOE_VSA-1>
73.529427

>  <PEOE_VSA-2>
0

>  <PEOE_VSA-3>
0

>  <PEOE_VSA-4>
0

>  <PEOE_VSA-5>
13.566921

>  <PEOE_VSA-6>
15.278809

>  <PEOE_VSA_FHYD>
0.87163818

>  <PEOE_VSA_FNEG>
0.46900815

>  <PEOE_VSA_FPNEG>
0.06872309

>  <PEOE_VSA_FPOL>
0.12836182

>  <PEOE_VSA_FPOS>
0.53099185

>  <PEOE_VSA_FPPOS>
0.059638727

>  <PEOE_VSA_HYD>
365.86014

>  <PEOE_VSA_NEG>
196.86079

>  <PEOE_VSA_PNEG>
28.84573

>  <PEOE_VSA_POL>
53.878403

>  <PEOE_VSA_POS>
222.87775

>  <PEOE_VSA_PPOS>
25.032671

>  <petitjean>
0.5

>  <petitjeanSC>
1

>  <Q_PC+>
0

>  <Q_PC->
0

>  <Q_RPC+>
0

>  <Q_RPC->
0

>  <Q_VSA_FHYD>
1

>  <Q_VSA_FNEG>
0

>  <Q_VSA_FPNEG>
0

>  <Q_VSA_FPOL>
0

>  <Q_VSA_FPOS>
1

>  <Q_VSA_FPPOS>
0

>  <Q_VSA_HYD>
419.73856

>  <Q_VSA_NEG>
0

>  <Q_VSA_PNEG>
0

>  <Q_VSA_POL>
0

>  <Q_VSA_POS>
419.73856

>  <Q_VSA_PPOS>
0

>  <radius>
8

>  <reactive>
0

>  <rings>
4

>  <RPC+>
0

>  <RPC->
0

>  <rsynth>
0.51612902

>  <SlogP>
5.0415702

>  <SlogP_VSA0>
25.12409

>  <SlogP_VSA1>
7.7454643

>  <SlogP_VSA2>
41.330753

>  <SlogP_VSA3>
85.677322

>  <SlogP_VSA4>
3.185575

>  <SlogP_VSA5>
18.868406

>  <SlogP_VSA6>
0

>  <SlogP_VSA7>
211.71822

>  <SlogP_VSA8>
0

>  <SlogP_VSA9>
54.569794

>  <SMR>
11.86548

>  <SMR_VSA0>
34.862103

>  <SMR_VSA1>
21.999775

>  <SMR_VSA2>
28.509541

>  <SMR_VSA3>
25.384508

>  <SMR_VSA4>
5.513495

>  <SMR_VSA5>
230.58662

>  <SMR_VSA6>
68.03756

>  <SMR_VSA7>
33.326015

>  <TPSA>
68.230003

>  <VAdjEq>
0.36875206

>  <VAdjMa>
6.0874629

>  <VDistEq>
3.8389554

>  <VDistMa>
9.5815048

>  <vdw_area>
419.73856

>  <vdw_vol>
575.51398

>  <vsa_acc>
5.0075121

>  <vsa_acid>
0

>  <vsa_base>
0

>  <vsa_don>
0

>  <vsa_hyd>
348.77707

>  <vsa_other>
17.212255

>  <vsa_pol>
32.141354

>  <Weight>
419.47699

>  <weinerPath>
3124

>  <weinerPol>
49

>  <zagreb>
160

$$$$