O(C(=O)N1CCc2c(cccc2)[C@@H]1c1ccccc1)[C@@H]1C2CCN(C1)CC2
  MOE2013           2D

 27 31  0  0  1  0  0  0  0  0999 V2000
    0.0000    0.0000    0.0000 O   0  0  0  0  0  0  0  0  0  0  0  0
   -0.7480    1.3000    0.0000 C   0  0  0  0  0  0  0  0  0  0  0  0
    0.0030    2.5980    0.0000 O   0  0  0  0  0  0  0  0  0  0  0  0
   -2.2480    1.3020    0.0000 N   0  0  0  0  0  0  0  0  0  0  0  0
   -3.0000    0.0040    0.0000 C   0  0  0  0  0  0  0  0  0  0  0  0
   -4.5000    0.0060    0.0000 C   0  0  0  0  0  0  0  0  0  0  0  0
   -5.2480    1.3060    0.0000 C   0  0  0  0  0  0  0  0  0  0  0  0
   -4.4970    2.6040    0.0000 C   0  0  0  0  0  0  0  0  0  0  0  0
   -5.2450    3.9040    0.0000 C   0  0  0  0  0  0  0  0  0  0  0  0
   -6.7450    3.9060    0.0000 C   0  0  0  0  0  0  0  0  0  0  0  0
   -7.4970    2.6080    0.0000 C   0  0  0  0  0  0  0  0  0  0  0  0
   -6.7480    1.3080    0.0000 C   0  0  0  0  0  0  0  0  0  0  0  0
   -2.9970    2.6020    0.0000 C   0  0  2  0  0  0  0  0  0  0  0  0
   -2.2450    3.9000    0.0000 C   0  0  0  0  0  0  0  0  0  0  0  0
   -0.7450    3.8980    0.0000 C   0  0  0  0  0  0  0  0  0  0  0  0
    0.0070    5.1960    0.0000 C   0  0  0  0  0  0  0  0  0  0  0  0
   -0.7410    6.4960    0.0000 C   0  0  0  0  0  0  0  0  0  0  0  0
   -2.2410    6.4980    0.0000 C   0  0  0  0  0  0  0  0  0  0  0  0
   -2.9930    5.2000    0.0000 C   0  0  0  0  0  0  0  0  0  0  0  0
    1.5000   -0.0020    0.0000 C   0  0  2  0  0  0  0  0  0  0  0  0
    2.7960   -0.9940    0.0000 C   0  0  0  0  0  0  0  0  0  0  0  0
    2.9110   -2.4600    0.0000 C   0  0  0  0  0  0  0  0  0  0  0  0
    3.9660   -1.5590    0.0000 C   0  0  0  0  0  0  0  0  0  0  0  0
    3.8350   -0.1180    0.0000 N   0  0  0  0  0  0  0  0  0  0  0  0
    2.5840    0.8230    0.0000 C   0  0  0  0  0  0  0  0  0  0  0  0
    5.2650    0.6030    0.0000 C   0  0  0  0  0  0  0  0  0  0  0  0
    4.5350   -0.3060    0.0000 C   0  0  0  0  0  0  0  0  0  0  0  0
  1  2  1  0  0  0  0
  2  3  2  0  0  0  0
  2  4  1  0  0  0  0
  4  5  1  0  0  0  0
  4 13  1  0  0  0  0
  5  6  1  0  0  0  0
  6  7  1  0  0  0  0
  7  8  2  0  0  0  0
  7 12  1  0  0  0  0
  8  9  1  0  0  0  0
  8 13  1  0  0  0  0
  9 10  2  0  0  0  0
 10 11  1  0  0  0  0
 11 12  2  0  0  0  0
 13 14  1  6  0  0  0
 14 15  1  0  0  0  0
 14 19  2  0  0  0  0
 15 16  2  0  0  0  0
 16 17  1  0  0  0  0
 17 18  2  0  0  0  0
 18 19  1  0  0  0  0
 20  1  1  1  0  0  0
 20 21  1  0  0  0  0
 20 25  1  0  0  0  0
 21 22  1  0  0  0  0
 21 27  1  0  0  0  0
 22 23  1  0  0  0  0
 23 24  1  0  0  0  0
 24 25  1  0  0  0  0
 24 26  1  0  0  0  0
 26 27  1  0  0  0  0
M  END
>  <Index>
990

>  <ID>
HT1904

>  <class>
0

>  <apol>
61.620617

>  <ast_fraglike>
0

>  <ast_fraglike_ext>
0

>  <ast_violation>
2

>  <ast_violation_ext>
3

>  <a_acc>
2

>  <a_acid>
0

>  <a_aro>
12

>  <a_base>
0

>  <a_count>
53

>  <a_don>
0

>  <a_donacc>
2

>  <a_heavy>
27

>  <a_hyd>
22

>  <a_IC>
73.326424

>  <a_ICM>
1.3835175

>  <a_nB>
0

>  <a_nBr>
0

>  <a_nC>
23

>  <a_nCl>
0

>  <a_nF>
0

>  <a_nH>
26

>  <a_nI>
0

>  <a_nN>
2

>  <a_nO>
2

>  <a_nP>
0

>  <a_nS>
0

>  <balabanJ>
1.3077155

>  <BCUT_PEOE_0>
-2.8768694

>  <BCUT_PEOE_1>
-0.54497367

>  <BCUT_PEOE_2>
0.5899933

>  <BCUT_PEOE_3>
2.8261113

>  <BCUT_SLOGP_0>
-2.9293811

>  <BCUT_SLOGP_1>
-0.46105647

>  <BCUT_SLOGP_2>
0.68728805

>  <BCUT_SLOGP_3>
2.8034556

>  <BCUT_SMR_0>
-2.6191719

>  <BCUT_SMR_1>
-0.41311508

>  <BCUT_SMR_2>
0.72448856

>  <BCUT_SMR_3>
3.0770042

>  <bpol>
35.257381

>  <b_1rotN>
3

>  <b_1rotR>
0.096774191

>  <b_ar>
12

>  <b_count>
57

>  <b_double>
1

>  <b_heavy>
31

>  <b_max1len>
2

>  <b_rotN>
4

>  <b_rotR>
0.12903225

>  <b_single>
44

>  <b_triple>
0

>  <chi0>
18.216969

>  <chi0v>
15.588875

>  <chi0v_C>
13.877951

>  <chi0_C>
15.355161

>  <chi1>
13.292827

>  <chi1v>
10.117683

>  <chi1v_C>
7.727016

>  <chi1_C>
9.5993195

>  <chiral>
2

>  <chiral_u>
0

>  <density>
0.69904965

>  <diameter>
11

>  <FCharge>
0

>  <GCUT_PEOE_0>
-0.8528381

>  <GCUT_PEOE_1>
-0.38199326

>  <GCUT_PEOE_2>
0.060211703

>  <GCUT_PEOE_3>
2.9045234

>  <GCUT_SLOGP_0>
-0.95442325

>  <GCUT_SLOGP_1>
-0.27895236

>  <GCUT_SLOGP_2>
0.13997157

>  <GCUT_SLOGP_3>
2.945951

>  <GCUT_SMR_0>
-0.52139395

>  <GCUT_SMR_1>
-0.2056841

>  <GCUT_SMR_2>
0.15955067

>  <GCUT_SMR_3>
3.1573722

>  <Kier1>
18.992716

>  <Kier2>
8.3935947

>  <Kier3>
3.8959417

>  <KierA1>
14.929017

>  <KierA2>
6.5325789

>  <KierA3>
3.0098493

>  <KierFlex>
3.6120365

>  <lip_acc>
4

>  <lip_don>
0

>  <lip_druglike>
1

>  <lip_violation>
0

>  <logP(o/w)>
4.0939999

>  <logS>
-4.1290498

>  <mr>
10.634214

>  <mutagenic>
0

>  <nmol>
1

>  <opr_brigid>
26

>  <opr_leadlike>
1

>  <opr_nring>
5

>  <opr_nrot>
7

>  <opr_violation>
1

>  <PC+>
0

>  <PC->
0

>  <PEOE_PC+>
1.8418578

>  <PEOE_PC->
-1.8418578

>  <PEOE_RPC+>
0.19779849

>  <PEOE_RPC->
0.16674531

>  <PEOE_VSA+0>
90.36544

>  <PEOE_VSA+1>
54.970135

>  <PEOE_VSA+2>
0

>  <PEOE_VSA+3>
0

>  <PEOE_VSA+4>
0

>  <PEOE_VSA+5>
0

>  <PEOE_VSA+6>
19.199511

>  <PEOE_VSA-0>
59.114208

>  <PEOE_VSA-1>
110.29414

>  <PEOE_VSA-2>
0

>  <PEOE_VSA-3>
0

>  <PEOE_VSA-4>
13.566921

>  <PEOE_VSA-5>
2.503756

>  <PEOE_VSA-6>
0

>  <PEOE_VSA_FHYD>
0.89923209

>  <PEOE_VSA_FNEG>
0.52991873

>  <PEOE_VSA_FPNEG>
0.045914371

>  <PEOE_VSA_FPOL>
0.1007679

>  <PEOE_VSA_FPOS>
0.4700813

>  <PEOE_VSA_FPPOS>
0.054853532

>  <PEOE_VSA_HYD>
314.74393

>  <PEOE_VSA_NEG>
185.47902

>  <PEOE_VSA_PNEG>
16.070677

>  <PEOE_VSA_POL>
35.270187

>  <PEOE_VSA_POS>
164.53508

>  <PEOE_VSA_PPOS>
19.199511

>  <petitjean>
0.45454547

>  <petitjeanSC>
0.83333331

>  <Q_PC+>
0

>  <Q_PC->
0

>  <Q_RPC+>
0

>  <Q_RPC->
0

>  <Q_VSA_FHYD>
1

>  <Q_VSA_FNEG>
0

>  <Q_VSA_FPNEG>
0

>  <Q_VSA_FPOL>
0

>  <Q_VSA_FPOS>
1

>  <Q_VSA_FPPOS>
0

>  <Q_VSA_HYD>
350.0141

>  <Q_VSA_NEG>
0

>  <Q_VSA_PNEG>
0

>  <Q_VSA_POL>
0

>  <Q_VSA_POS>
350.0141

>  <Q_VSA_PPOS>
0

>  <radius>
6

>  <reactive>
0

>  <rings>
5

>  <RPC+>
0

>  <RPC->
0

>  <rsynth>
0.4074074

>  <SlogP>
3.9603701

>  <SlogP_VSA0>
0

>  <SlogP_VSA1>
13.565265

>  <SlogP_VSA2>
17.468536

>  <SlogP_VSA3>
73.758316

>  <SlogP_VSA4>
13.967521

>  <SlogP_VSA5>
18.868406

>  <SlogP_VSA6>
0

>  <SlogP_VSA7>
158.78867

>  <SlogP_VSA8>
41.718781

>  <SlogP_VSA9>
23.862217

>  <SMR>
10.4681

>  <SMR_VSA0>
34.862103

>  <SMR_VSA1>
6.2486277

>  <SMR_VSA2>
4.4107962

>  <SMR_VSA3>
20.007343

>  <SMR_VSA4>
0

>  <SMR_VSA5>
215.39388

>  <SMR_VSA6>
81.074951

>  <SMR_VSA7>
0

>  <TPSA>
32.779999

>  <VAdjEq>
0.41972107

>  <VAdjMa>
5.9541965

>  <VDistEq>
3.3109968

>  <VDistMa>
9.2434607

>  <vdw_area>
350.0141

>  <vdw_vol>
518.52252

>  <vsa_acc>
13.566921

>  <vsa_acid>
0

>  <vsa_base>
0

>  <vsa_don>
0

>  <vsa_hyd>
294.89218

>  <vsa_other>
21.703266

>  <vsa_pol>
13.566921

>  <Weight>
362.47299

>  <weinerPath>
1754

>  <weinerPol>
45

>  <zagreb>
150

$$$$