OC(=O)CC
  MOE2013           2D

  5  4  0  0  0  0  0  0  0  0999 V2000
    0.0000    0.0000    0.0000 O   0  0  0  0  0  0  0  0  0  0  0  0
   -1.2990    0.7500    0.0000 C   0  0  0  0  0  0  0  0  0  0  0  0
   -1.2990    2.2500    0.0000 O   0  0  0  0  0  0  0  0  0  0  0  0
   -2.5980    0.0000    0.0000 C   0  0  0  0  0  0  0  0  0  0  0  0
   -3.8970    0.7500    0.0000 C   0  0  0  0  0  0  0  0  0  0  0  0
  1  2  1  0  0  0  0
  2  3  2  0  0  0  0
  2  4  1  0  0  0  0
  4  5  1  0  0  0  0
M  END
>  <Index>
910

>  <ID>
HT1761

>  <class>
0

>  <apol>
10.884758

>  <ast_fraglike>
1

>  <ast_fraglike_ext>
1

>  <ast_violation>
0

>  <ast_violation_ext>
0

>  <a_acc>
2

>  <a_acid>
0

>  <a_aro>
0

>  <a_base>
0

>  <a_count>
11

>  <a_don>
2

>  <a_donacc>
4

>  <a_heavy>
5

>  <a_hyd>
2

>  <a_IC>
15.789085

>  <a_ICM>
1.4353714

>  <a_nB>
0

>  <a_nBr>
0

>  <a_nC>
3

>  <a_nCl>
0

>  <a_nF>
0

>  <a_nH>
6

>  <a_nI>
0

>  <a_nN>
0

>  <a_nO>
2

>  <a_nP>
0

>  <a_nS>
0

>  <balabanJ>
2.6693285

>  <BCUT_PEOE_0>
-2.3495605

>  <BCUT_PEOE_1>
-0.33723

>  <BCUT_PEOE_2>
0.31112719

>  <BCUT_PEOE_3>
2.3916647

>  <BCUT_SLOGP_0>
-2.3181624

>  <BCUT_SLOGP_1>
-0.2794365

>  <BCUT_SLOGP_2>
0.30330601

>  <BCUT_SLOGP_3>
2.4544773

>  <BCUT_SMR_0>
-2.1368117

>  <BCUT_SMR_1>
-0.16777936

>  <BCUT_SMR_2>
0.42393002

>  <BCUT_SMR_3>
2.607275

>  <bpol>
7.517242

>  <b_1rotN>
1

>  <b_1rotR>
0.25

>  <b_ar>
0

>  <b_count>
10

>  <b_double>
1

>  <b_heavy>
4

>  <b_max1len>
3

>  <b_rotN>
1

>  <b_rotR>
0.25

>  <b_single>
9

>  <b_triple>
0

>  <chi0>
4.2844572

>  <chi0v>
3.0625687

>  <chi0v_C>
2.2071068

>  <chi0_C>
2.284457

>  <chi1>
2.2700555

>  <chi1v>
1.4883912

>  <chi1v_C>
1.0606601

>  <chi1_C>
1.115355

>  <chiral>
0

>  <chiral_u>
0

>  <density>
0.76461029

>  <diameter>
3

>  <FCharge>
0

>  <GCUT_PEOE_0>
-0.73384768

>  <GCUT_PEOE_1>
-0.36203444

>  <GCUT_PEOE_2>
0.019231545

>  <GCUT_PEOE_3>
1.7418233

>  <GCUT_SLOGP_0>
-0.87241584

>  <GCUT_SLOGP_1>
-0.26847681

>  <GCUT_SLOGP_2>
0.01285101

>  <GCUT_SLOGP_3>
1.7760719

>  <GCUT_SMR_0>
-0.50876606

>  <GCUT_SMR_1>
-0.17559813

>  <GCUT_SMR_2>
0.120438

>  <GCUT_SMR_3>
1.9419647

>  <Kier1>
5

>  <Kier2>
2.25

>  <Kier3>
4

>  <KierA1>
4.0214376

>  <KierA2>
1.6858125

>  <KierA3>
2.67325

>  <KierFlex>
1.3558779

>  <lip_acc>
2

>  <lip_don>
1

>  <lip_druglike>
1

>  <lip_violation>
0

>  <logP(o/w)>
0.396

>  <logS>
0.20449001

>  <mr>
1.8725882

>  <mutagenic>
0

>  <nmol>
1

>  <opr_brigid>
0

>  <opr_leadlike>
1

>  <opr_nring>
0

>  <opr_nrot>
1

>  <opr_violation>
0

>  <PC+>
0

>  <PC->
0

>  <PEOE_PC+>
0.65272015

>  <PEOE_PC->
-0.65272015

>  <PEOE_RPC+>
0.39729658

>  <PEOE_RPC->
0.50752872

>  <PEOE_VSA+0>
30.028244

>  <PEOE_VSA+1>
0

>  <PEOE_VSA+2>
0

>  <PEOE_VSA+3>
0

>  <PEOE_VSA+4>
10.324173

>  <PEOE_VSA+5>
14.708499

>  <PEOE_VSA+6>
0

>  <PEOE_VSA-0>
0

>  <PEOE_VSA-1>
18.747677

>  <PEOE_VSA-2>
0

>  <PEOE_VSA-3>
0

>  <PEOE_VSA-4>
0

>  <PEOE_VSA-5>
13.566921

>  <PEOE_VSA-6>
7.7675405

>  <PEOE_VSA_FHYD>
0.51265877

>  <PEOE_VSA_FNEG>
0.42128286

>  <PEOE_VSA_FPNEG>
0.22423561

>  <PEOE_VSA_FPOL>
0.48734123

>  <PEOE_VSA_FPOS>
0.57871711

>  <PEOE_VSA_FPPOS>
0.26310563

>  <PEOE_VSA_HYD>
48.775921

>  <PEOE_VSA_NEG>
40.082138

>  <PEOE_VSA_PNEG>
21.334461

>  <PEOE_VSA_POL>
46.367134

>  <PEOE_VSA_POS>
55.060917

>  <PEOE_VSA_PPOS>
25.032671

>  <petitjean>
0.33333334

>  <petitjeanSC>
0.5

>  <Q_PC+>
0

>  <Q_PC->
0

>  <Q_RPC+>
0

>  <Q_RPC->
0

>  <Q_VSA_FHYD>
1

>  <Q_VSA_FNEG>
0

>  <Q_VSA_FPNEG>
0

>  <Q_VSA_FPOL>
0

>  <Q_VSA_FPOS>
1

>  <Q_VSA_FPPOS>
0

>  <Q_VSA_HYD>
95.143051

>  <Q_VSA_NEG>
0

>  <Q_VSA_PNEG>
0

>  <Q_VSA_POL>
0

>  <Q_VSA_POS>
95.143051

>  <Q_VSA_PPOS>
0

>  <radius>
2

>  <reactive>
0

>  <rings>
0

>  <RPC+>
0

>  <RPC->
0

>  <rsynth>
1

>  <SlogP>
0.48100001

>  <SlogP_VSA0>
0

>  <SlogP_VSA1>
7.7454643

>  <SlogP_VSA2>
23.862217

>  <SlogP_VSA3>
25.385227

>  <SlogP_VSA4>
0

>  <SlogP_VSA5>
0

>  <SlogP_VSA6>
0

>  <SlogP_VSA7>
0

>  <SlogP_VSA8>
18.868406

>  <SlogP_VSA9>
33.326015

>  <SMR>
1.79268

>  <SMR_VSA0>
23.862217

>  <SMR_VSA1>
0

>  <SMR_VSA2>
25.385227

>  <SMR_VSA3>
0

>  <SMR_VSA4>
0

>  <SMR_VSA5>
18.868406

>  <SMR_VSA6>
7.7454643

>  <SMR_VSA7>
33.326015

>  <TPSA>
37.299999

>  <VAdjEq>
0.90438145

>  <VAdjMa>
3

>  <VDistEq>
1.5219281

>  <VDistMa>
4.1971598

>  <vdw_area>
95.143051

>  <vdw_vol>
96.884651

>  <vsa_acc>
0

>  <vsa_acid>
0

>  <vsa_base>
0

>  <vsa_don>
0

>  <vsa_hyd>
45.216946

>  <vsa_other>
14.708499

>  <vsa_pol>
27.133842

>  <Weight>
74.078995

>  <weinerPath>
18

>  <weinerPol>
2

>  <zagreb>
16

$$$$