S1c2c(N(c3c1cccc3)CC(N(C)C)C)cc(cc2)C(=O)CC
  MOE2013           2D

 24 26  0  0  1  0  0  0  0  0999 V2000
    0.0000    0.0000    0.0000 S   0  0  0  0  0  0  0  0  0  0  0  0
    0.7610    1.2930    0.0000 C   0  0  0  0  0  0  0  0  0  0  0  0
    0.0210    2.5980    0.0000 C   0  0  0  0  0  0  0  0  0  0  0  0
   -1.4790    2.6100    0.0000 N   0  0  3  0  0  0  0  0  0  0  0  0
   -2.2390    1.3170    0.0000 C   0  0  0  0  0  0  0  0  0  0  0  0
   -1.5000    0.0120    0.0000 C   0  0  0  0  0  0  0  0  0  0  0  0
   -2.2600   -1.2810    0.0000 C   0  0  0  0  0  0  0  0  0  0  0  0
   -3.7600   -1.2690    0.0000 C   0  0  0  0  0  0  0  0  0  0  0  0
   -4.5000    0.0360    0.0000 C   0  0  0  0  0  0  0  0  0  0  0  0
   -3.7390    1.3290    0.0000 C   0  0  0  0  0  0  0  0  0  0  0  0
   -2.2180    3.9150    0.0000 C   0  0  0  0  0  0  0  0  0  0  0  0
   -3.7180    3.9270    0.0000 C   0  0  3  0  0  0  0  0  0  0  0  0
   -4.4580    5.2320    0.0000 N   0  0  0  0  0  0  0  0  0  0  0  0
   -5.9580    5.2450    0.0000 C   0  0  0  0  0  0  0  0  0  0  0  0
   -3.6970    6.5250    0.0000 C   0  0  0  0  0  0  0  0  0  0  0  0
   -4.4790    2.6340    0.0000 C   0  0  0  0  0  0  0  0  0  0  0  0
    0.7820    3.8910    0.0000 C   0  0  0  0  0  0  0  0  0  0  0  0
    2.2820    3.8790    0.0000 C   0  0  0  0  0  0  0  0  0  0  0  0
    3.0210    2.5740    0.0000 C   0  0  0  0  0  0  0  0  0  0  0  0
    2.2600    1.2810    0.0000 C   0  0  0  0  0  0  0  0  0  0  0  0
    3.0420    5.1720    0.0000 C   0  0  0  0  0  0  0  0  0  0  0  0
    2.3030    6.4770    0.0000 O   0  0  0  0  0  0  0  0  0  0  0  0
    4.5420    5.1590    0.0000 C   0  0  0  0  0  0  0  0  0  0  0  0
    5.3020    6.4520    0.0000 C   0  0  0  0  0  0  0  0  0  0  0  0
  1  2  1  0  0  0  0
  1  6  1  0  0  0  0
  2  3  1  0  0  0  0
  2 20  2  0  0  0  0
  3  4  1  0  0  0  0
  3 17  2  0  0  0  0
  4  5  1  0  0  0  0
  4 11  1  0  0  0  0
  5  6  1  0  0  0  0
  5 10  2  0  0  0  0
  6  7  2  0  0  0  0
  7  8  1  0  0  0  0
  8  9  2  0  0  0  0
  9 10  1  0  0  0  0
 11 12  1  0  0  0  0
 12 13  1  0  0  0  0
 12 16  1  0  0  0  0
 13 14  1  0  0  0  0
 13 15  1  0  0  0  0
 17 18  1  0  0  0  0
 18 19  2  0  0  0  0
 18 21  1  0  0  0  0
 19 20  1  0  0  0  0
 21 22  2  0  0  0  0
 21 23  1  0  0  0  0
 23 24  1  0  0  0  0
M  END
>  <Index>
909

>  <ID>
HT1760

>  <class>
0

>  <apol>
57.105034

>  <ast_fraglike>
0

>  <ast_fraglike_ext>
0

>  <ast_violation>
2

>  <ast_violation_ext>
3

>  <a_acc>
2

>  <a_acid>
0

>  <a_aro>
12

>  <a_base>
0

>  <a_count>
48

>  <a_don>
0

>  <a_donacc>
2

>  <a_heavy>
24

>  <a_hyd>
20

>  <a_IC>
69.60054

>  <a_ICM>
1.4500113

>  <a_nB>
0

>  <a_nBr>
0

>  <a_nC>
20

>  <a_nCl>
0

>  <a_nF>
0

>  <a_nH>
24

>  <a_nI>
0

>  <a_nN>
2

>  <a_nO>
1

>  <a_nP>
0

>  <a_nS>
1

>  <balabanJ>
1.779415

>  <BCUT_PEOE_0>
-2.6862376

>  <BCUT_PEOE_1>
-0.55484229

>  <BCUT_PEOE_2>
0.5777455

>  <BCUT_PEOE_3>
2.5955944

>  <BCUT_SLOGP_0>
-2.7697194

>  <BCUT_SLOGP_1>
-0.4309445

>  <BCUT_SLOGP_2>
0.67427522

>  <BCUT_SLOGP_3>
2.6030078

>  <BCUT_SMR_0>
-2.4000406

>  <BCUT_SMR_1>
-0.36180702

>  <BCUT_SMR_2>
0.75240421

>  <BCUT_SMR_3>
2.8833859

>  <bpol>
33.434967

>  <b_1rotN>
5

>  <b_1rotR>
0.1923077

>  <b_ar>
12

>  <b_count>
50

>  <b_double>
1

>  <b_heavy>
26

>  <b_max1len>
5

>  <b_rotN>
5

>  <b_rotR>
0.1923077

>  <b_single>
37

>  <b_triple>
0

>  <chi0>
17.26722

>  <chi0v>
15.560436

>  <chi0v_C>
13.033015

>  <chi0_C>
14.405413

>  <chi1>
11.507239

>  <chi1v>
9.2065792

>  <chi1v_C>
5.8616428

>  <chi1_C>
7.5504432

>  <chiral>
1

>  <chiral_u>
1

>  <density>
0.7024073

>  <diameter>
10

>  <FCharge>
0

>  <GCUT_PEOE_0>
-0.85931802

>  <GCUT_PEOE_1>
-0.36220855

>  <GCUT_PEOE_2>
0.0019682162

>  <GCUT_PEOE_3>
2.7315066

>  <GCUT_SLOGP_0>
-0.96656042

>  <GCUT_SLOGP_1>
-0.24323978

>  <GCUT_SLOGP_2>
0.14357753

>  <GCUT_SLOGP_3>
2.8506539

>  <GCUT_SMR_0>
-0.5209589

>  <GCUT_SMR_1>
-0.170361

>  <GCUT_SMR_2>
0.17231594

>  <GCUT_SMR_3>
3.0324078

>  <Kier1>
18.781065

>  <Kier2>
8.1314831

>  <Kier3>
4.0655999

>  <KierA1>
15.322177

>  <KierA2>
6.5714965

>  <KierA3>
3.2633348

>  <KierFlex>
4.1954012

>  <lip_acc>
3

>  <lip_don>
0

>  <lip_druglike>
1

>  <lip_violation>
0

>  <logP(o/w)>
4.3800001

>  <logS>
-4.4793401

>  <mr>
10.172298

>  <mutagenic>
0

>  <nmol>
1

>  <opr_brigid>
16

>  <opr_leadlike>
1

>  <opr_nring>
3

>  <opr_nrot>
5

>  <opr_violation>
1

>  <PC+>
0

>  <PC->
0

>  <PEOE_PC+>
1.3929685

>  <PEOE_PC->
-1.3929685

>  <PEOE_RPC+>
0.1169837

>  <PEOE_RPC->
0.21855444

>  <PEOE_VSA+0>
121.52801

>  <PEOE_VSA+1>
29.857702

>  <PEOE_VSA+2>
0

>  <PEOE_VSA+3>
8.458519

>  <PEOE_VSA+4>
0

>  <PEOE_VSA+5>
0

>  <PEOE_VSA+6>
0

>  <PEOE_VSA-0>
114.24467

>  <PEOE_VSA-1>
75.27301

>  <PEOE_VSA-2>
0

>  <PEOE_VSA-3>
0

>  <PEOE_VSA-4>
0

>  <PEOE_VSA-5>
13.566921

>  <PEOE_VSA-6>
0

>  <PEOE_VSA_FHYD>
0.96261823

>  <PEOE_VSA_FNEG>
0.55957144

>  <PEOE_VSA_FPNEG>
0.037381768

>  <PEOE_VSA_FPOL>
0.037381768

>  <PEOE_VSA_FPOS>
0.44042858

>  <PEOE_VSA_FPPOS>
0

>  <PEOE_VSA_HYD>
349.36191

>  <PEOE_VSA_NEG>
203.08459

>  <PEOE_VSA_PNEG>
13.566921

>  <PEOE_VSA_POL>
13.566921

>  <PEOE_VSA_POS>
159.84422

>  <PEOE_VSA_PPOS>
0

>  <petitjean>
0.5

>  <petitjeanSC>
1

>  <Q_PC+>
0

>  <Q_PC->
0

>  <Q_RPC+>
0

>  <Q_RPC->
0

>  <Q_VSA_FHYD>
1

>  <Q_VSA_FNEG>
0

>  <Q_VSA_FPNEG>
0

>  <Q_VSA_FPOL>
0

>  <Q_VSA_FPOS>
1

>  <Q_VSA_FPPOS>
0

>  <Q_VSA_HYD>
362.92883

>  <Q_VSA_NEG>
0

>  <Q_VSA_PNEG>
0

>  <Q_VSA_POL>
0

>  <Q_VSA_POS>
362.92883

>  <Q_VSA_PPOS>
0

>  <radius>
5

>  <reactive>
1

>  <rings>
3

>  <RPC+>
0

>  <RPC->
0

>  <rsynth>
1

>  <SlogP>
4.8320999

>  <SlogP_VSA0>
3.1243138

>  <SlogP_VSA1>
8.8119249

>  <SlogP_VSA2>
3.9819686

>  <SlogP_VSA3>
18.439579

>  <SlogP_VSA4>
27.047791

>  <SlogP_VSA5>
68.895844

>  <SlogP_VSA6>
0

>  <SlogP_VSA7>
123.50229

>  <SlogP_VSA8>
18.868406

>  <SlogP_VSA9>
104.38506

>  <SMR>
10.17845

>  <SMR_VSA0>
23.862217

>  <SMR_VSA1>
3.1243138

>  <SMR_VSA2>
6.2257819

>  <SMR_VSA3>
7.1675434

>  <SMR_VSA4>
5.513495

>  <SMR_VSA5>
142.3707

>  <SMR_VSA6>
24.12719

>  <SMR_VSA7>
164.66594

>  <TPSA>
23.549999

>  <VAdjEq>
0.43739632

>  <VAdjMa>
5.7004399

>  <VDistEq>
3.1322351

>  <VDistMa>
8.9142542

>  <vdw_area>
362.92883

>  <vdw_vol>
484.74866

>  <vsa_acc>
13.566921

>  <vsa_acid>
0

>  <vsa_base>
0

>  <vsa_don>
0

>  <vsa_hyd>
323.82031

>  <vsa_other>
8.458519

>  <vsa_pol>
13.566921

>  <Weight>
340.491

>  <weinerPath>
1250

>  <weinerPol>
41

>  <zagreb>
126

$$$$