S(SCc1cnc(C)c(O)c1CO)Cc1cnc(C)c(O)c1CO
  MOE2013           2D

 24 25  0  0  0  0  0  0  0  0999 V2000
    0.0000    0.0000    0.0000 S   0  0  0  0  0  0  0  0  0  0  0  0
    1.5000   -0.0030    0.0000 S   0  0  0  0  0  0  0  0  0  0  0  0
    2.2520    1.2950    0.0000 C   0  0  0  0  0  0  0  0  0  0  0  0
    3.7520    1.2920    0.0000 C   0  0  0  0  0  0  0  0  0  0  0  0
    4.5000   -0.0080    0.0000 C   0  0  0  0  0  0  0  0  0  0  0  0
    6.0000   -0.0110    0.0000 N   0  0  0  0  0  0  0  0  0  0  0  0
    6.7520    1.2860    0.0000 C   0  0  0  0  0  0  0  0  0  0  0  0
    8.2520    1.2840    0.0000 C   0  0  0  0  0  0  0  0  0  0  0  0
    6.0050    2.5870    0.0000 C   0  0  0  0  0  0  0  0  0  0  0  0
    6.7570    3.8840    0.0000 O   0  0  0  0  0  0  0  0  0  0  0  0
    4.5050    2.5900    0.0000 C   0  0  0  0  0  0  0  0  0  0  0  0
    3.7570    3.8900    0.0000 C   0  0  0  0  0  0  0  0  0  0  0  0
    4.5100    5.1880    0.0000 O   0  0  0  0  0  0  0  0  0  0  0  0
   -0.7520   -1.2980    0.0000 C   0  0  0  0  0  0  0  0  0  0  0  0
   -2.2520   -1.2950    0.0000 C   0  0  0  0  0  0  0  0  0  0  0  0
   -3.0000    0.0060    0.0000 C   0  0  0  0  0  0  0  0  0  0  0  0
   -4.5000    0.0080    0.0000 N   0  0  0  0  0  0  0  0  0  0  0  0
   -5.2520   -1.2890    0.0000 C   0  0  0  0  0  0  0  0  0  0  0  0
   -6.7520   -1.2860    0.0000 C   0  0  0  0  0  0  0  0  0  0  0  0
   -4.5050   -2.5900    0.0000 C   0  0  0  0  0  0  0  0  0  0  0  0
   -5.2570   -3.8870    0.0000 O   0  0  0  0  0  0  0  0  0  0  0  0
   -3.0050   -2.5920    0.0000 C   0  0  0  0  0  0  0  0  0  0  0  0
   -2.2570   -3.8930    0.0000 C   0  0  0  0  0  0  0  0  0  0  0  0
   -3.0100   -5.1910    0.0000 O   0  0  0  0  0  0  0  0  0  0  0  0
  1  2  1  0  0  0  0
  1 14  1  0  0  0  0
  2  3  1  0  0  0  0
  3  4  1  0  0  0  0
  4  5  1  0  0  0  0
  4 11  2  0  0  0  0
  5  6  2  0  0  0  0
  6  7  1  0  0  0  0
  7  8  1  0  0  0  0
  7  9  2  0  0  0  0
  9 10  1  0  0  0  0
  9 11  1  0  0  0  0
 11 12  1  0  0  0  0
 12 13  1  0  0  0  0
 14 15  1  0  0  0  0
 15 16  1  0  0  0  0
 15 22  2  0  0  0  0
 16 17  2  0  0  0  0
 17 18  1  0  0  0  0
 18 19  1  0  0  0  0
 18 20  2  0  0  0  0
 20 21  1  0  0  0  0
 20 22  1  0  0  0  0
 22 23  1  0  0  0  0
 23 24  1  0  0  0  0
M  END
>  <Index>
920

>  <ID>
HT1781

>  <class>
0

>  <apol>
52.703861

>  <ast_fraglike>
0

>  <ast_fraglike_ext>
0

>  <ast_violation>
4

>  <ast_violation_ext>
6

>  <a_acc>
6

>  <a_acid>
0

>  <a_aro>
12

>  <a_base>
0

>  <a_count>
44

>  <a_don>
4

>  <a_donacc>
10

>  <a_heavy>
24

>  <a_hyd>
18

>  <a_IC>
77.776428

>  <a_ICM>
1.7676461

>  <a_nB>
0

>  <a_nBr>
0

>  <a_nC>
16

>  <a_nCl>
0

>  <a_nF>
0

>  <a_nH>
20

>  <a_nI>
0

>  <a_nN>
2

>  <a_nO>
4

>  <a_nP>
0

>  <a_nS>
2

>  <balabanJ>
1.743229

>  <BCUT_PEOE_0>
-2.3993483

>  <BCUT_PEOE_1>
-0.6072365

>  <BCUT_PEOE_2>
0.65565646

>  <BCUT_PEOE_3>
2.4010231

>  <BCUT_SLOGP_0>
-2.2390506

>  <BCUT_SLOGP_1>
-0.5260337

>  <BCUT_SLOGP_2>
0.60082239

>  <BCUT_SLOGP_3>
2.649992

>  <BCUT_SMR_0>
-2.1005886

>  <BCUT_SMR_1>
-0.34378392

>  <BCUT_SMR_2>
0.84013897

>  <BCUT_SMR_3>
2.7533398

>  <bpol>
26.78414

>  <b_1rotN>
7

>  <b_1rotR>
0.28

>  <b_ar>
12

>  <b_count>
45

>  <b_double>
0

>  <b_heavy>
25

>  <b_max1len>
5

>  <b_rotN>
7

>  <b_rotR>
0.28

>  <b_single>
33

>  <b_triple>
0

>  <chi0>
17.689871

>  <chi0v>
15.115899

>  <chi0v_C>
9.9831276

>  <chi0_C>
10.861443

>  <chi1>
11.489601

>  <chi1v>
9.7668953

>  <chi1v_C>
4.4915638

>  <chi1_C>
5.6041903

>  <chiral>
0

>  <chiral_u>
0

>  <density>
0.8171587

>  <diameter>
13

>  <FCharge>
0

>  <GCUT_PEOE_0>
-0.7871812

>  <GCUT_PEOE_1>
-0.42907703

>  <GCUT_PEOE_2>
0.019897565

>  <GCUT_PEOE_3>
2.4724708

>  <GCUT_SLOGP_0>
-0.78073144

>  <GCUT_SLOGP_1>
-0.31263521

>  <GCUT_SLOGP_2>
0.020848934

>  <GCUT_SLOGP_3>
2.651515

>  <GCUT_SMR_0>
-0.49656844

>  <GCUT_SMR_1>
-0.21082923

>  <GCUT_SMR_2>
0.2636565

>  <GCUT_SMR_3>
2.7770033

>  <Kier1>
20.313601

>  <Kier2>
9.6297579

>  <Kier3>
5.0192595

>  <KierA1>
18.686863

>  <KierA2>
8.8250351

>  <KierA3>
4.5872798

>  <KierFlex>
6.8713431

>  <lip_acc>
6

>  <lip_don>
4

>  <lip_druglike>
1

>  <lip_violation>
0

>  <logP(o/w)>
1.752

>  <logS>
-2.15066

>  <mr>
9.7470369

>  <mutagenic>
0

>  <nmol>
1

>  <opr_brigid>
12

>  <opr_leadlike>
1

>  <opr_nring>
2

>  <opr_nrot>
7

>  <opr_violation>
0

>  <PC+>
0

>  <PC->
0

>  <PEOE_PC+>
2.2481306

>  <PEOE_PC->
-2.2481306

>  <PEOE_RPC+>
0.096702881

>  <PEOE_RPC->
0.17362049

>  <PEOE_VSA+0>
101.91752

>  <PEOE_VSA+1>
85.811043

>  <PEOE_VSA+2>
0

>  <PEOE_VSA+3>
0

>  <PEOE_VSA+4>
41.296692

>  <PEOE_VSA+5>
0

>  <PEOE_VSA+6>
0

>  <PEOE_VSA-0>
41.912434

>  <PEOE_VSA-1>
43.473358

>  <PEOE_VSA-2>
0

>  <PEOE_VSA-3>
0

>  <PEOE_VSA-4>
0

>  <PEOE_VSA-5>
11.365152

>  <PEOE_VSA-6>
31.070162

>  <PEOE_VSA_FHYD>
0.76535559

>  <PEOE_VSA_FNEG>
0.35819647

>  <PEOE_VSA_FPNEG>
0.1189176

>  <PEOE_VSA_FPOL>
0.23464441

>  <PEOE_VSA_FPOS>
0.6418035

>  <PEOE_VSA_FPPOS>
0.11572681

>  <PEOE_VSA_HYD>
273.11435

>  <PEOE_VSA_NEG>
127.82111

>  <PEOE_VSA_PNEG>
42.435314

>  <PEOE_VSA_POL>
83.732002

>  <PEOE_VSA_POS>
229.02525

>  <PEOE_VSA_PPOS>
41.296692

>  <petitjean>
0.46153846

>  <petitjeanSC>
0.85714287

>  <Q_PC+>
0

>  <Q_PC->
0

>  <Q_RPC+>
0

>  <Q_RPC->
0

>  <Q_VSA_FHYD>
1

>  <Q_VSA_FNEG>
0

>  <Q_VSA_FPNEG>
0

>  <Q_VSA_FPOL>
0

>  <Q_VSA_FPOS>
1

>  <Q_VSA_FPPOS>
0

>  <Q_VSA_HYD>
356.84637

>  <Q_VSA_NEG>
0

>  <Q_VSA_PNEG>
0

>  <Q_VSA_POL>
0

>  <Q_VSA_POS>
356.84637

>  <Q_VSA_PPOS>
0

>  <radius>
7

>  <reactive>
1

>  <rings>
2

>  <RPC+>
0

>  <RPC->
0

>  <rsynth>
1

>  <SlogP>
3.63644

>  <SlogP_VSA0>
101.54091

>  <SlogP_VSA1>
33.57106

>  <SlogP_VSA2>
0

>  <SlogP_VSA3>
0

>  <SlogP_VSA4>
18.255795

>  <SlogP_VSA5>
0

>  <SlogP_VSA6>
0

>  <SlogP_VSA7>
34.428715

>  <SlogP_VSA8>
0

>  <SlogP_VSA9>
213.82204

>  <SMR>
9.6535196

>  <SMR_VSA0>
0

>  <SMR_VSA1>
135.11197

>  <SMR_VSA2>
0

>  <SMR_VSA3>
28.742651

>  <SMR_VSA4>
0

>  <SMR_VSA5>
110.74836

>  <SMR_VSA6>
0

>  <SMR_VSA7>
127.01553

>  <TPSA>
106.7

>  <VAdjEq>
0.42571631

>  <VAdjMa>
5.643856

>  <VDistEq>
3.4996071

>  <VDistMa>
8.8483238

>  <vdw_area>
356.84637

>  <vdw_vol>
450.92587

>  <vsa_acc>
11.365152

>  <vsa_acid>
0

>  <vsa_base>
0

>  <vsa_don>
0

>  <vsa_hyd>
261.72562

>  <vsa_other>
0

>  <vsa_pol>
65.632835

>  <Weight>
368.478

>  <weinerPath>
1524

>  <weinerPol>
39

>  <zagreb>
118

$$$$