O1c2c3c4c(c(O)c2C)c(O)c(NC(=O)C(C=CC=C(C)/[C@H](O)[C@@H](C)[C@@H](O)[C@@H](C)[C@@H](OC(=O)C)[C@H](C)[C@@H](OC)C=CO[C@]1(C)C3=O)=C)c1NC2(Nc14)CCN(CC2)CC(C)C
  MOE2013           2D

 61 66  0  0  1  0  0  0  0  0999 V2000
    0.0000    0.0000    0.0000 O   0  0  0  0  0  0  0  0  0  0  0  0
    0.4410   -1.4260    0.0000 C   0  0  0  0  0  0  0  0  0  0  0  0
    1.9440   -1.4390    0.0000 C   0  0  0  0  0  0  0  0  0  0  0  0
    2.6970   -2.7070    0.0000 C   0  0  0  0  0  0  0  0  0  0  0  0
    1.9520   -4.0200    0.0000 C   0  0  0  0  0  0  0  0  0  0  0  0
    0.4530   -4.0310    0.0000 C   0  0  0  0  0  0  0  0  0  0  0  0
   -0.2920   -5.3330    0.0000 O   0  0  0  0  0  0  0  0  0  0  0  0
   -0.3010   -2.7310    0.0000 C   0  0  0  0  0  0  0  0  0  0  0  0
   -1.8010   -2.7380    0.0000 C   0  0  0  0  0  0  0  0  0  0  0  0
    2.7110   -5.3080    0.0000 C   0  0  0  0  0  0  0  0  0  0  0  0
    1.9720   -6.6140    0.0000 O   0  0  0  0  0  0  0  0  0  0  0  0
    4.2140   -5.2970    0.0000 C   0  0  0  0  0  0  0  0  0  0  0  0
    4.9110   -6.6410    0.0000 N   0  0  0  0  0  0  0  0  0  0  0  0
    3.9420   -7.8540    0.0000 C   0  0  0  0  0  0  0  0  0  0  0  0
    4.4210   -9.2760    0.0000 O   0  0  0  0  0  0  0  0  0  0  0  0
    2.4740   -7.4850    0.0000 C   0  0  0  0  0  0  0  0  0  0  0  0
    1.4200   -8.4890    0.0000 C   0  0  0  0  0  0  0  0  0  0  0  0
   -0.0190   -8.2430    0.0000 C   0  0  0  0  0  0  0  0  0  0  0  0
   -0.6850   -6.9120    0.0000 C   0  0  0  0  0  0  0  0  0  0  0  0
   -2.1930   -6.8570    0.0000 C   0  0  0  0  0  0  0  0  0  0  0  0
   -2.9700   -8.1400    0.0000 C   0  0  0  0  0  0  0  0  0  0  0  0
   -2.9380   -5.5530    0.0000 C   0  0  2  0  0  0  0  0  0  0  0  0
   -2.2030   -4.2450    0.0000 O   0  0  0  0  0  0  0  0  0  0  0  0
   -4.4510   -5.5950    0.0000 C   0  0  1  0  0  0  0  0  0  0  0  0
   -5.1640   -6.9150    0.0000 C   0  0  0  0  0  0  0  0  0  0  0  0
   -5.2480   -4.3050    0.0000 C   0  0  1  0  0  0  0  0  0  0  0  0
   -6.7470   -4.3480    0.0000 O   0  0  0  0  0  0  0  0  0  0  0  0
   -4.5450   -3.0060    0.0000 C   0  0  1  0  0  0  0  0  0  0  0  0
   -3.0460   -3.0620    0.0000 C   0  0  0  0  0  0  0  0  0  0  0  0
   -5.1380   -1.6790    0.0000 C   0  0  1  0  0  0  0  0  0  0  0  0
   -6.6370   -1.6330    0.0000 O   0  0  0  0  0  0  0  0  0  0  0  0
   -7.3470   -0.3120    0.0000 C   0  0  0  0  0  0  0  0  0  0  0  0
   -8.8460   -0.2660    0.0000 O   0  0  0  0  0  0  0  0  0  0  0  0
   -6.5580    0.9640    0.0000 C   0  0  0  0  0  0  0  0  0  0  0  0
   -4.4670   -0.3960    0.0000 C   0  0  2  0  0  0  0  0  0  0  0  0
   -5.3870    0.7880    0.0000 C   0  0  0  0  0  0  0  0  0  0  0  0
   -3.0390   -0.0590    0.0000 C   0  0  1  0  0  0  0  0  0  0  0  0
   -4.0900    1.0110    0.0000 O   0  0  0  0  0  0  0  0  0  0  0  0
   -3.6890    2.4570    0.0000 C   0  0  0  0  0  0  0  0  0  0  0  0
   -2.6610    1.4230    0.0000 C   0  0  0  0  0  0  0  0  0  0  0  0
   -1.2270    1.8070    0.0000 C   0  0  0  0  0  0  0  0  0  0  0  0
   -0.1410    0.8290    0.0000 O   0  0  0  0  0  0  0  0  0  0  0  0
    1.2260    0.9270    0.0000 C   0  0  1  0  0  0  0  0  0  0  0  0
    1.7070    2.3480    0.0000 C   0  0  0  0  0  0  0  0  0  0  0  0
    2.3850   -0.0420    0.0000 C   0  0  0  0  0  0  0  0  0  0  0  0
    3.8250    0.3790    0.0000 O   0  0  0  0  0  0  0  0  0  0  0  0
    2.8550   -8.9360    0.0000 C   0  0  0  0  0  0  0  0  0  0  0  0
    4.9540   -3.9960    0.0000 C   0  0  0  0  0  0  0  0  0  0  0  0
    6.4180   -3.6550    0.0000 N   0  0  0  0  0  0  0  0  0  0  0  0
    6.5520   -2.1610    0.0000 C   0  0  0  0  0  0  0  0  0  0  0  0
    5.1740   -1.5730    0.0000 N   0  0  0  0  0  0  0  0  0  0  0  0
    4.1920   -2.7020    0.0000 C   0  0  0  0  0  0  0  0  0  0  0  0
    7.8280   -2.9490    0.0000 C   0  0  0  0  0  0  0  0  0  0  0  0
    9.1490   -2.2380    0.0000 C   0  0  0  0  0  0  0  0  0  0  0  0
    9.1930   -0.7390    0.0000 N   0  0  0  0  0  0  0  0  0  0  0  0
    7.9170    0.0490    0.0000 C   0  0  0  0  0  0  0  0  0  0  0  0
    6.5960   -0.6620    0.0000 C   0  0  0  0  0  0  0  0  0  0  0  0
   10.5140   -0.0280    0.0000 C   0  0  0  0  0  0  0  0  0  0  0  0
   11.7900   -0.8160    0.0000 C   0  0  0  0  0  0  0  0  0  0  0  0
   13.1110   -0.1050    0.0000 C   0  0  0  0  0  0  0  0  0  0  0  0
   11.7460   -2.3150    0.0000 C   0  0  0  0  0  0  0  0  0  0  0  0
  1  2  1  0  0  0  0
  1 43  1  0  0  0  0
  2  3  2  0  0  0  0
  2  8  1  0  0  0  0
  3  4  1  0  0  0  0
  3 45  1  0  0  0  0
  4  5  1  0  0  0  0
  4 52  2  0  0  0  0
  5  6  1  0  0  0  0
  5 10  2  0  0  0  0
  6  7  1  0  0  0  0
  6  8  2  0  0  0  0
  8  9  1  0  0  0  0
 10 11  1  0  0  0  0
 10 12  1  0  0  0  0
 12 13  1  0  0  0  0
 12 48  2  0  0  0  0
 13 14  1  0  0  0  0
 14 15  2  0  0  0  0
 14 16  1  0  0  0  0
 16 17  1  0  0  0  0
 16 47  2  0  0  0  0
 17 18  2  3  0  0  0
 18 19  1  0  0  0  0
 19 20  2  3  0  0  0
 20 21  1  0  0  0  0
 20 22  1  0  0  0  0
 22 23  1  1  0  0  0
 22 24  1  0  0  0  0
 24 25  1  1  0  0  0
 24 26  1  0  0  0  0
 26 27  1  1  0  0  0
 26 28  1  0  0  0  0
 28 29  1  6  0  0  0
 28 30  1  0  0  0  0
 30 31  1  1  0  0  0
 30 35  1  0  0  0  0
 31 32  1  0  0  0  0
 32 33  2  0  0  0  0
 32 34  1  0  0  0  0
 35 36  1  6  0  0  0
 35 37  1  0  0  0  0
 37 38  1  1  0  0  0
 37 40  1  0  0  0  0
 38 39  1  0  0  0  0
 40 41  2  3  0  0  0
 41 42  1  0  0  0  0
 42 43  1  0  0  0  0
 43 44  1  1  0  0  0
 43 45  1  0  0  0  0
 45 46  2  0  0  0  0
 48 49  1  0  0  0  0
 48 52  1  0  0  0  0
 49 50  1  0  0  0  0
 50 51  1  0  0  0  0
 50 53  1  0  0  0  0
 50 57  1  0  0  0  0
 51 52  1  0  0  0  0
 53 54  1  0  0  0  0
 54 55  1  0  0  0  0
 55 56  1  0  0  0  0
 55 58  1  0  0  0  0
 56 57  1  0  0  0  0
 58 59  1  0  0  0  0
 59 60  1  0  0  0  0
 59 61  1  0  0  0  0
M  END
>  <Index>
945

>  <ID>
HT1820

>  <class>
0

>  <apol>
135.52316

>  <ast_fraglike>
0

>  <ast_fraglike_ext>
0

>  <ast_violation>
4

>  <ast_violation_ext>
6

>  <a_acc>
11

>  <a_acid>
0

>  <a_aro>
10

>  <a_base>
0

>  <a_count>
123

>  <a_don>
7

>  <a_donacc>
18

>  <a_heavy>
61

>  <a_hyd>
41

>  <a_IC>
184.63152

>  <a_ICM>
1.5010692

>  <a_nB>
0

>  <a_nBr>
0

>  <a_nC>
46

>  <a_nCl>
0

>  <a_nF>
0

>  <a_nH>
62

>  <a_nI>
0

>  <a_nN>
4

>  <a_nO>
11

>  <a_nP>
0

>  <a_nS>
0

>  <balabanJ>
1.3381528

>  <BCUT_PEOE_0>
-2.8151019

>  <BCUT_PEOE_1>
-0.47200987

>  <BCUT_PEOE_2>
0.56193912

>  <BCUT_PEOE_3>
2.7790282

>  <BCUT_SLOGP_0>
-2.8835051

>  <BCUT_SLOGP_1>
-0.39315909

>  <BCUT_SLOGP_2>
0.54034758

>  <BCUT_SLOGP_3>
2.7504842

>  <BCUT_SMR_0>
-2.5423687

>  <BCUT_SMR_1>
-0.31634527

>  <BCUT_SMR_2>
0.67894846

>  <BCUT_SMR_3>
3.0475869

>  <bpol>
82.276833

>  <b_1rotN>
4

>  <b_1rotR>
0.060606062

>  <b_ar>
11

>  <b_count>
128

>  <b_double>
7

>  <b_heavy>
66

>  <b_max1len>
4

>  <b_rotN>
5

>  <b_rotR>
0.075757578

>  <b_single>
110

>  <b_triple>
0

>  <chi0>
44.87722

>  <chi0v>
36.841999

>  <chi0v_C>
30.248194

>  <chi0_C>
32.350124

>  <chi1>
28.645098

>  <chi1v>
21.011538

>  <chi1v_C>
15.055018

>  <chi1_C>
17.491594

>  <chiral>
8

>  <chiral_u>
0

>  <density>
0.73770475

>  <diameter>
21

>  <FCharge>
0

>  <GCUT_PEOE_0>
-0.8587628

>  <GCUT_PEOE_1>
-0.42069331

>  <GCUT_PEOE_2>
0.056947228

>  <GCUT_PEOE_3>
3.3275216

>  <GCUT_SLOGP_0>
-1.0360531

>  <GCUT_SLOGP_1>
-0.28541708

>  <GCUT_SLOGP_2>
0.023078695

>  <GCUT_SLOGP_3>
3.3885808

>  <GCUT_SMR_0>
-0.53289962

>  <GCUT_SMR_1>
-0.1938688

>  <GCUT_SMR_2>
0.16693667

>  <GCUT_SMR_3>
3.5851624

>  <Kier1>
50.413223

>  <Kier2>
20.474463

>  <Kier3>
10.297959

>  <KierA1>
41.584614

>  <KierA2>
16.832335

>  <KierA3>
8.4462891

>  <KierFlex>
11.474854

>  <lip_acc>
15

>  <lip_don>
7

>  <lip_druglike>
0

>  <lip_violation>
4

>  <logP(o/w)>
6.9039998

>  <logS>
-8.1078501

>  <mr>
22.695168

>  <mutagenic>
1

>  <nmol>
1

>  <opr_brigid>
44

>  <opr_leadlike>
0

>  <opr_nring>
5

>  <opr_nrot>
20

>  <opr_violation>
6

>  <PC+>
0

>  <PC->
0

>  <PEOE_PC+>
5.5280252

>  <PEOE_PC->
-5.5280252

>  <PEOE_RPC+>
0.046909045

>  <PEOE_RPC->
0.070743963

>  <PEOE_VSA+0>
292.24173

>  <PEOE_VSA+1>
111.8598

>  <PEOE_VSA+2>
25.696545

>  <PEOE_VSA+3>
8.6190128

>  <PEOE_VSA+4>
50.863754

>  <PEOE_VSA+5>
27.65803

>  <PEOE_VSA+6>
0

>  <PEOE_VSA-0>
100.36401

>  <PEOE_VSA-1>
140.54947

>  <PEOE_VSA-2>
0

>  <PEOE_VSA-3>
0

>  <PEOE_VSA-4>
0

>  <PEOE_VSA-5>
40.974545

>  <PEOE_VSA-6>
41.222076

>  <PEOE_VSA_FHYD>
0.8086797

>  <PEOE_VSA_FNEG>
0.38463244

>  <PEOE_VSA_FPNEG>
0.097847417

>  <PEOE_VSA_FPOL>
0.19132029

>  <PEOE_VSA_FPOS>
0.61536753

>  <PEOE_VSA_FPPOS>
0.093472868

>  <PEOE_VSA_HYD>
679.33057

>  <PEOE_VSA_NEG>
323.11008

>  <PEOE_VSA_PNEG>
82.196625

>  <PEOE_VSA_POL>
160.7184

>  <PEOE_VSA_POS>
516.93884

>  <PEOE_VSA_PPOS>
78.521782

>  <petitjean>
0.42857143

>  <petitjeanSC>
0.75

>  <Q_PC+>
0

>  <Q_PC->
0

>  <Q_RPC+>
0

>  <Q_RPC->
0

>  <Q_VSA_FHYD>
1

>  <Q_VSA_FNEG>
0

>  <Q_VSA_FPNEG>
0

>  <Q_VSA_FPOL>
0

>  <Q_VSA_FPOS>
1

>  <Q_VSA_FPPOS>
0

>  <Q_VSA_HYD>
840.04895

>  <Q_VSA_NEG>
0

>  <Q_VSA_PNEG>
0

>  <Q_VSA_POL>
0

>  <Q_VSA_POS>
840.04895

>  <Q_VSA_PPOS>
0

>  <radius>
12

>  <reactive>
1

>  <rings>
6

>  <RPC+>
0

>  <RPC->
0

>  <rsynth>
0.52459013

>  <SlogP>
6.2541199

>  <SlogP_VSA0>
112.54079

>  <SlogP_VSA1>
75.848427

>  <SlogP_VSA2>
106.59869

>  <SlogP_VSA3>
55.318733

>  <SlogP_VSA4>
47.876549

>  <SlogP_VSA5>
41.755016

>  <SlogP_VSA6>
0

>  <SlogP_VSA7>
95.419701

>  <SlogP_VSA8>
37.736813

>  <SlogP_VSA9>
356.03546

>  <SMR>
23.26148

>  <SMR_VSA0>
104.58631

>  <SMR_VSA1>
115.66511

>  <SMR_VSA2>
17.643185

>  <SMR_VSA3>
54.347179

>  <SMR_VSA4>
67.448425

>  <SMR_VSA5>
128.01059

>  <SMR_VSA6>
74.01059

>  <SMR_VSA7>
367.41879

>  <TPSA>
208.38

>  <VAdjEq>
0.22114268

>  <VAdjMa>
7.044394

>  <VDistEq>
4.0524049

>  <VDistMa>
11.629639

>  <vdw_area>
840.04895

>  <vdw_vol>
1148.1815

>  <vsa_acc>
48.212032

>  <vsa_acid>
0

>  <vsa_base>
0

>  <vsa_don>
17.047728

>  <vsa_hyd>
608.94458

>  <vsa_other>
39.728851

>  <vsa_pol>
119.52744

>  <Weight>
847.01898

>  <weinerPath>
15031

>  <weinerPol>
121

>  <zagreb>
334

$$$$