N(C(CC1CCCCC1)C)C
  MOE2013           2D

 11 11  0  0  1  0  0  0  0  0999 V2000
    0.0000    0.0000    0.0000 N   0  0  0  0  0  0  0  0  0  0  0  0
   -1.5000    0.0060    0.0000 C   0  0  3  0  0  0  0  0  0  0  0  0
   -2.2550   -1.2910    0.0000 C   0  0  0  0  0  0  0  0  0  0  0  0
   -3.7550   -1.2850    0.0000 C   0  0  0  0  0  0  0  0  0  0  0  0
   -4.5000    0.0170    0.0000 C   0  0  0  0  0  0  0  0  0  0  0  0
   -6.0000    0.0230    0.0000 C   0  0  0  0  0  0  0  0  0  0  0  0
   -6.7550   -1.2740    0.0000 C   0  0  0  0  0  0  0  0  0  0  0  0
   -6.0100   -2.5750    0.0000 C   0  0  0  0  0  0  0  0  0  0  0  0
   -4.5100   -2.5810    0.0000 C   0  0  0  0  0  0  0  0  0  0  0  0
   -2.2450    1.3080    0.0000 C   0  0  0  0  0  0  0  0  0  0  0  0
    0.7550    1.2960    0.0000 C   0  0  0  0  0  0  0  0  0  0  0  0
  1  2  1  0  0  0  0
  1 11  1  0  0  0  0
  2  3  1  0  0  0  0
  2 10  1  0  0  0  0
  3  4  1  0  0  0  0
  4  5  1  0  0  0  0
  4  9  1  0  0  0  0
  5  6  1  0  0  0  0
  6  7  1  0  0  0  0
  7  8  1  0  0  0  0
  8  9  1  0  0  0  0
M  END
>  <Index>
913

>  <ID>
HT1766

>  <class>
0

>  <apol>
32.702652

>  <ast_fraglike>
1

>  <ast_fraglike_ext>
0

>  <ast_violation>
0

>  <ast_violation_ext>
1

>  <a_acc>
1

>  <a_acid>
0

>  <a_aro>
0

>  <a_base>
0

>  <a_count>
32

>  <a_don>
1

>  <a_donacc>
2

>  <a_heavy>
11

>  <a_hyd>
10

>  <a_IC>
34.542053

>  <a_ICM>
1.0794392

>  <a_nB>
0

>  <a_nBr>
0

>  <a_nC>
10

>  <a_nCl>
0

>  <a_nF>
0

>  <a_nH>
21

>  <a_nI>
0

>  <a_nN>
1

>  <a_nO>
0

>  <a_nP>
0

>  <a_nS>
0

>  <balabanJ>
2.1324849

>  <BCUT_PEOE_0>
-2.8314831

>  <BCUT_PEOE_1>
-0.31496018

>  <BCUT_PEOE_2>
0.37425965

>  <BCUT_PEOE_3>
2.7626994

>  <BCUT_SLOGP_0>
-2.7751908

>  <BCUT_SLOGP_1>
-0.24774463

>  <BCUT_SLOGP_2>
0.43339261

>  <BCUT_SLOGP_3>
2.8970459

>  <BCUT_SMR_0>
-2.5737767

>  <BCUT_SMR_1>
-0.21917513

>  <BCUT_SMR_2>
0.46322539

>  <BCUT_SMR_3>
3.0207207

>  <bpol>
23.617348

>  <b_1rotN>
3

>  <b_1rotR>
0.27272728

>  <b_ar>
0

>  <b_count>
32

>  <b_double>
0

>  <b_heavy>
11

>  <b_max1len>
6

>  <b_rotN>
3

>  <b_rotR>
0.27272728

>  <b_single>
32

>  <b_triple>
0

>  <chi0>
8.1044483

>  <chi0v>
7.8973413

>  <chi0v_C>
7.3973413

>  <chi0_C>
7.3973413

>  <chi1>
5.3256984

>  <chi1v>
4.9990187

>  <chi1v_C>
4.2103434

>  <chi1_C>
4.2103434

>  <chiral>
1

>  <chiral_u>
1

>  <density>
0.59592319

>  <diameter>
7

>  <FCharge>
0

>  <GCUT_PEOE_0>
-0.85363853

>  <GCUT_PEOE_1>
-0.27011305

>  <GCUT_PEOE_2>
-0.006131066

>  <GCUT_PEOE_3>
2.639782

>  <GCUT_SLOGP_0>
-1.1526954

>  <GCUT_SLOGP_1>
-0.17981243

>  <GCUT_SLOGP_2>
0.074868843

>  <GCUT_SLOGP_3>
2.7398045

>  <GCUT_SMR_0>
-0.53086883

>  <GCUT_SMR_1>
-0.14772604

>  <GCUT_SMR_2>
0.073482066

>  <GCUT_SMR_3>
2.8618217

>  <Kier1>
9.090909

>  <Kier2>
4.7928996

>  <Kier3>
3.2653062

>  <KierA1>
9.090909

>  <KierA2>
4.7928996

>  <KierA3>
3.2653062

>  <KierFlex>
3.9610739

>  <lip_acc>
1

>  <lip_don>
1

>  <lip_druglike>
1

>  <lip_violation>
0

>  <logP(o/w)>
2.948

>  <logS>
-2.6877301

>  <mr>
4.9369445

>  <mutagenic>
0

>  <nmol>
1

>  <opr_brigid>
6

>  <opr_leadlike>
1

>  <opr_nring>
1

>  <opr_nrot>
5

>  <opr_violation>
0

>  <PC+>
0

>  <PC->
0

>  <PEOE_PC+>
0.715321

>  <PEOE_PC->
-0.715321

>  <PEOE_RPC+>
0.17038877

>  <PEOE_RPC->
0.44245535

>  <PEOE_VSA+0>
88.453682

>  <PEOE_VSA+1>
0

>  <PEOE_VSA+2>
8.6190128

>  <PEOE_VSA+3>
0

>  <PEOE_VSA+4>
0

>  <PEOE_VSA+5>
0

>  <PEOE_VSA+6>
0

>  <PEOE_VSA-0>
50.687679

>  <PEOE_VSA-1>
43.506565

>  <PEOE_VSA-2>
0

>  <PEOE_VSA-3>
0

>  <PEOE_VSA-4>
0

>  <PEOE_VSA-5>
0

>  <PEOE_VSA-6>
0.13689101

>  <PEOE_VSA_FHYD>
0.9992848

>  <PEOE_VSA_FNEG>
0.49283829

>  <PEOE_VSA_FPNEG>
0.00071519468

>  <PEOE_VSA_FPOL>
0.00071519468

>  <PEOE_VSA_FPOS>
0.50716174

>  <PEOE_VSA_FPPOS>
0

>  <PEOE_VSA_HYD>
191.26694

>  <PEOE_VSA_NEG>
94.331139

>  <PEOE_VSA_PNEG>
0.13689101

>  <PEOE_VSA_POL>
0.13689101

>  <PEOE_VSA_POS>
97.072693

>  <PEOE_VSA_PPOS>
0

>  <petitjean>
0.42857143

>  <petitjeanSC>
0.75

>  <Q_PC+>
0

>  <Q_PC->
0

>  <Q_RPC+>
0

>  <Q_RPC->
0

>  <Q_VSA_FHYD>
1

>  <Q_VSA_FNEG>
0

>  <Q_VSA_FPNEG>
0

>  <Q_VSA_FPOL>
0

>  <Q_VSA_FPOS>
1

>  <Q_VSA_FPPOS>
0

>  <Q_VSA_HYD>
191.40382

>  <Q_VSA_NEG>
0

>  <Q_VSA_PNEG>
0

>  <Q_VSA_POL>
0

>  <Q_VSA_POS>
191.40382

>  <Q_VSA_PPOS>
0

>  <radius>
4

>  <reactive>
0

>  <rings>
1

>  <RPC+>
0

>  <RPC->
0

>  <rsynth>
0

>  <SlogP>
2.5646999

>  <SlogP_VSA0>
18.01075

>  <SlogP_VSA1>
0

>  <SlogP_VSA2>
3.9819686

>  <SlogP_VSA3>
0

>  <SlogP_VSA4>
4.4107962

>  <SlogP_VSA5>
32.897186

>  <SlogP_VSA6>
0

>  <SlogP_VSA7>
0

>  <SlogP_VSA8>
113.21043

>  <SlogP_VSA9>
33.326015

>  <SMR>
4.9713702

>  <SMR_VSA0>
0

>  <SMR_VSA1>
0

>  <SMR_VSA2>
22.421547

>  <SMR_VSA3>
3.9819686

>  <SMR_VSA4>
0

>  <SMR_VSA5>
113.21043

>  <SMR_VSA6>
0

>  <SMR_VSA7>
66.223206

>  <TPSA>
12.03

>  <VAdjEq>
0.68403846

>  <VAdjMa>
4.4594316

>  <VDistEq>
2.5838199

>  <VDistMa>
6.5752826

>  <vdw_area>
191.40382

>  <vdw_vol>
260.57889

>  <vsa_acc>
0

>  <vsa_acid>
0

>  <vsa_base>
0

>  <vsa_don>
0

>  <vsa_hyd>
167.06697

>  <vsa_other>
0

>  <vsa_pol>
5.6825762

>  <Weight>
155.285

>  <weinerPath>
168

>  <weinerPol>
11

>  <zagreb>
48

$$$$