Clc1cc(ccc1Cl)[C@@H]1CC[C@H](NC)c2c1cccc2
  MOE2013           2D

 20 22  0  0  1  0  0  0  0  0999 V2000
    0.0000    0.0000    0.0000 Cl  0  0  0  0  0  0  0  0  0  0  0  0
   -1.3040    0.7410    0.0000 C   0  0  0  0  0  0  0  0  0  0  0  0
   -2.5980   -0.0180    0.0000 C   0  0  0  0  0  0  0  0  0  0  0  0
   -3.9020    0.7230    0.0000 C   0  0  0  0  0  0  0  0  0  0  0  0
   -3.9120    2.2230    0.0000 C   0  0  0  0  0  0  0  0  0  0  0  0
   -2.6190    2.9820    0.0000 C   0  0  0  0  0  0  0  0  0  0  0  0
   -1.3140    2.2410    0.0000 C   0  0  0  0  0  0  0  0  0  0  0  0
   -0.0210    3.0000    0.0000 Cl  0  0  0  0  0  0  0  0  0  0  0  0
   -5.1960   -0.0360    0.0000 C   0  0  2  0  0  0  0  0  0  0  0  0
   -5.1860   -1.5360    0.0000 C   0  0  0  0  0  0  0  0  0  0  0  0
   -6.4800   -2.2950    0.0000 C   0  0  0  0  0  0  0  0  0  0  0  0
   -7.7840   -1.5540    0.0000 C   0  0  2  0  0  0  0  0  0  0  0  0
   -9.0780   -2.3120    0.0000 N   0  0  0  0  0  0  0  0  0  0  0  0
   -9.0670   -3.8120    0.0000 C   0  0  0  0  0  0  0  0  0  0  0  0
   -7.7940   -0.0540    0.0000 C   0  0  0  0  0  0  0  0  0  0  0  0
   -6.5000    0.7050    0.0000 C   0  0  0  0  0  0  0  0  0  0  0  0
   -6.5110    2.2050    0.0000 C   0  0  0  0  0  0  0  0  0  0  0  0
   -7.8150    2.9460    0.0000 C   0  0  0  0  0  0  0  0  0  0  0  0
   -9.1090    2.1870    0.0000 C   0  0  0  0  0  0  0  0  0  0  0  0
   -9.0980    0.6870    0.0000 C   0  0  0  0  0  0  0  0  0  0  0  0
  1  2  1  0  0  0  0
  2  3  2  0  0  0  0
  2  7  1  0  0  0  0
  3  4  1  0  0  0  0
  4  5  2  0  0  0  0
  5  6  1  0  0  0  0
  6  7  2  0  0  0  0
  7  8  1  0  0  0  0
  9  4  1  6  0  0  0
  9 10  1  0  0  0  0
  9 16  1  0  0  0  0
 10 11  1  0  0  0  0
 11 12  1  0  0  0  0
 12 13  1  6  0  0  0
 12 15  1  0  0  0  0
 13 14  1  0  0  0  0
 15 16  2  0  0  0  0
 15 20  1  0  0  0  0
 16 17  1  0  0  0  0
 17 18  2  0  0  0  0
 18 19  1  0  0  0  0
 19 20  2  0  0  0  0
M  END
>  <Index>
978

>  <ID>
HT1881

>  <class>
0

>  <apol>
46.715481

>  <ast_fraglike>
0

>  <ast_fraglike_ext>
0

>  <ast_violation>
2

>  <ast_violation_ext>
2

>  <a_acc>
1

>  <a_acid>
0

>  <a_aro>
12

>  <a_base>
0

>  <a_count>
37

>  <a_don>
1

>  <a_donacc>
2

>  <a_heavy>
20

>  <a_hyd>
19

>  <a_IC>
51.776039

>  <a_ICM>
1.3993524

>  <a_nB>
0

>  <a_nBr>
0

>  <a_nC>
17

>  <a_nCl>
2

>  <a_nF>
0

>  <a_nH>
17

>  <a_nI>
0

>  <a_nN>
1

>  <a_nO>
0

>  <a_nP>
0

>  <a_nS>
0

>  <balabanJ>
1.703478

>  <BCUT_PEOE_0>
-2.7020254

>  <BCUT_PEOE_1>
-0.6144706

>  <BCUT_PEOE_2>
0.65144861

>  <BCUT_PEOE_3>
2.6538613

>  <BCUT_SLOGP_0>
-2.6478653

>  <BCUT_SLOGP_1>
-0.46937704

>  <BCUT_SLOGP_2>
0.82201278

>  <BCUT_SLOGP_3>
2.7913704

>  <BCUT_SMR_0>
-2.4282811

>  <BCUT_SMR_1>
-0.44236648

>  <BCUT_SMR_2>
0.85428756

>  <BCUT_SMR_3>
2.9295816

>  <bpol>
20.084518

>  <b_1rotN>
2

>  <b_1rotR>
0.090909094

>  <b_ar>
12

>  <b_count>
39

>  <b_double>
0

>  <b_heavy>
22

>  <b_max1len>
4

>  <b_rotN>
2

>  <b_rotR>
0.090909094

>  <b_single>
27

>  <b_triple>
0

>  <chi0>
14.112519

>  <chi0v>
12.878153

>  <chi0v_C>
10.110366

>  <chi0_C>
11.405413

>  <chi1>
9.7027082

>  <chi1v>
7.6704745

>  <chi1v_C>
5.7479062

>  <chi1_C>
7.432653

>  <chiral>
2

>  <chiral_u>
0

>  <density>
0.76503032

>  <diameter>
10

>  <FCharge>
0

>  <GCUT_PEOE_0>
-0.8458606

>  <GCUT_PEOE_1>
-0.40086433

>  <GCUT_PEOE_2>
0.068568178

>  <GCUT_PEOE_3>
2.7051268

>  <GCUT_SLOGP_0>
-1.1205459

>  <GCUT_SLOGP_1>
-0.22158724

>  <GCUT_SLOGP_2>
0.21380687

>  <GCUT_SLOGP_3>
2.8507204

>  <GCUT_SMR_0>
-0.51828492

>  <GCUT_SMR_1>
-0.18307573

>  <GCUT_SMR_2>
0.23931691

>  <GCUT_SMR_3>
2.9873884

>  <Kier1>
14.917356

>  <Kier2>
6.405827

>  <Kier3>
2.9789076

>  <KierA1>
13.46576

>  <KierA2>
5.7496543

>  <KierA3>
2.6626558

>  <KierFlex>
3.8711734

>  <lip_acc>
1

>  <lip_don>
1

>  <lip_druglike>
1

>  <lip_violation>
1

>  <logP(o/w)>
5.4619999

>  <logS>
-5.13728

>  <mr>
8.6061916

>  <mutagenic>
0

>  <nmol>
1

>  <opr_brigid>
17

>  <opr_leadlike>
1

>  <opr_nring>
3

>  <opr_nrot>
3

>  <opr_violation>
1

>  <PC+>
0

>  <PC->
0

>  <PEOE_PC+>
1.0390109

>  <PEOE_PC->
-1.0390109

>  <PEOE_RPC+>
0.11761428

>  <PEOE_RPC->
0.30059782

>  <PEOE_VSA+0>
37.269047

>  <PEOE_VSA+1>
43.162582

>  <PEOE_VSA+2>
8.6190128

>  <PEOE_VSA+3>
0

>  <PEOE_VSA+4>
0

>  <PEOE_VSA+5>
0

>  <PEOE_VSA+6>
0

>  <PEOE_VSA-0>
71.776741

>  <PEOE_VSA-1>
120.43842

>  <PEOE_VSA-2>
0

>  <PEOE_VSA-3>
0

>  <PEOE_VSA-4>
0

>  <PEOE_VSA-5>
0

>  <PEOE_VSA-6>
0.13689101

>  <PEOE_VSA_FHYD>
0.99951357

>  <PEOE_VSA_FNEG>
0.68354732

>  <PEOE_VSA_FPNEG>
0.00048645947

>  <PEOE_VSA_FPOL>
0.00048645947

>  <PEOE_VSA_FPOS>
0.31645271

>  <PEOE_VSA_FPPOS>
0

>  <PEOE_VSA_HYD>
281.26581

>  <PEOE_VSA_NEG>
192.35205

>  <PEOE_VSA_PNEG>
0.13689101

>  <PEOE_VSA_POL>
0.13689101

>  <PEOE_VSA_POS>
89.050644

>  <PEOE_VSA_PPOS>
0

>  <petitjean>
0.5

>  <petitjeanSC>
1

>  <Q_PC+>
0

>  <Q_PC->
0

>  <Q_RPC+>
0

>  <Q_RPC->
0

>  <Q_VSA_FHYD>
1

>  <Q_VSA_FNEG>
0

>  <Q_VSA_FPNEG>
0

>  <Q_VSA_FPOL>
0

>  <Q_VSA_FPOS>
1

>  <Q_VSA_FPPOS>
0

>  <Q_VSA_HYD>
281.40268

>  <Q_VSA_NEG>
0

>  <Q_VSA_PNEG>
0

>  <Q_VSA_POL>
0

>  <Q_VSA_POS>
281.40268

>  <Q_VSA_PPOS>
0

>  <radius>
5

>  <reactive>
0

>  <rings>
3

>  <RPC+>
0

>  <RPC->
0

>  <rsynth>
1

>  <SlogP>
5.2751002

>  <SlogP_VSA0>
18.01075

>  <SlogP_VSA1>
0

>  <SlogP_VSA2>
0

>  <SlogP_VSA3>
0

>  <SlogP_VSA4>
9.5567245

>  <SlogP_VSA5>
32.897186

>  <SlogP_VSA6>
11.412009

>  <SlogP_VSA7>
123.50229

>  <SlogP_VSA8>
41.718781

>  <SlogP_VSA9>
78.297287

>  <SMR>
8.5892696

>  <SMR_VSA0>
0

>  <SMR_VSA1>
0

>  <SMR_VSA2>
18.01075

>  <SMR_VSA3>
24.950703

>  <SMR_VSA4>
0

>  <SMR_VSA5>
161.23911

>  <SMR_VSA6>
0

>  <SMR_VSA7>
111.19447

>  <TPSA>
12.03

>  <VAdjEq>
0.49991596

>  <VAdjMa>
5.4594316

>  <VDistEq>
3.0266428

>  <VDistMa>
8.3624659

>  <vdw_area>
281.40268

>  <vdw_vol>
400.29263

>  <vsa_acc>
0

>  <vsa_acid>
0

>  <vsa_base>
0

>  <vsa_don>
0

>  <vsa_hyd>
259.91299

>  <vsa_other>
0

>  <vsa_pol>
5.6825762

>  <Weight>
306.23599

>  <weinerPath>
770

>  <weinerPol>
34

>  <zagreb>
106

$$$$