O1C([C@@H](O)CO)C(O)=C(O)C1=O
  MOE2013           2D

 12 12  0  0  1  0  0  0  0  0999 V2000
    0.0000    0.0000    0.0000 O   0  0  0  0  0  0  0  0  0  0  0  0
    0.8490    1.2370    0.0000 C   0  0  3  0  0  0  0  0  0  0  0  0
    2.3480    1.2770    0.0000 C   0  0  1  0  0  0  0  0  0  0  0  0
    3.0630    2.5960    0.0000 O   0  0  0  0  0  0  0  0  0  0  0  0
    3.1330   -0.0010    0.0000 C   0  0  0  0  0  0  0  0  0  0  0  0
    4.6320    0.0390    0.0000 O   0  0  0  0  0  0  0  0  0  0  0  0
   -0.0650    2.4260    0.0000 C   0  0  0  0  0  0  0  0  0  0  0  0
    0.3600    3.8650    0.0000 O   0  0  0  0  0  0  0  0  0  0  0  0
   -1.4790    1.9240    0.0000 C   0  0  0  0  0  0  0  0  0  0  0  0
   -2.7160    2.7730    0.0000 O   0  0  0  0  0  0  0  0  0  0  0  0
   -1.4390    0.4250    0.0000 C   0  0  0  0  0  0  0  0  0  0  0  0
   -2.6280   -0.4890    0.0000 O   0  0  0  0  0  0  0  0  0  0  0  0
  1  2  1  0  0  0  0
  1 11  1  0  0  0  0
  2  3  1  0  0  0  0
  2  7  1  0  0  0  0
  3  4  1  1  0  0  0
  3  5  1  0  0  0  0
  5  6  1  0  0  0  0
  7  8  1  0  0  0  0
  7  9  2  0  0  0  0
  9 10  1  0  0  0  0
  9 11  1  0  0  0  0
 11 12  2  0  0  0  0
M  END
>  <Index>
92

>  <ID>
HT0186

>  <class>
0

>  <apol>
20.706345

>  <ast_fraglike>
0

>  <ast_fraglike_ext>
0

>  <ast_violation>
2

>  <ast_violation_ext>
3

>  <a_acc>
5

>  <a_acid>
0

>  <a_aro>
0

>  <a_base>
0

>  <a_count>
20

>  <a_don>
4

>  <a_donacc>
9

>  <a_heavy>
12

>  <a_hyd>
5

>  <a_IC>
31.419012

>  <a_ICM>
1.5709506

>  <a_nB>
0

>  <a_nBr>
0

>  <a_nC>
6

>  <a_nCl>
0

>  <a_nF>
0

>  <a_nH>
8

>  <a_nI>
0

>  <a_nN>
0

>  <a_nO>
6

>  <a_nP>
0

>  <a_nS>
0

>  <balabanJ>
2.5964684

>  <BCUT_PEOE_0>
-2.5009716

>  <BCUT_PEOE_1>
-0.69562441

>  <BCUT_PEOE_2>
0.74367368

>  <BCUT_PEOE_3>
2.6227434

>  <BCUT_SLOGP_0>
-2.6801896

>  <BCUT_SLOGP_1>
-0.82934767

>  <BCUT_SLOGP_2>
0.55678648

>  <BCUT_SLOGP_3>
2.4504216

>  <BCUT_SMR_0>
-2.3007514

>  <BCUT_SMR_1>
-0.57124507

>  <BCUT_SMR_2>
0.82933503

>  <BCUT_SMR_3>
2.8135939

>  <bpol>
11.619656

>  <b_1rotN>
2

>  <b_1rotR>
0.16666667

>  <b_ar>
0

>  <b_count>
20

>  <b_double>
2

>  <b_heavy>
12

>  <b_max1len>
5

>  <b_rotN>
2

>  <b_rotR>
0.16666667

>  <b_single>
18

>  <b_triple>
0

>  <chi0>
9.3009653

>  <chi0v>
5.9671583

>  <chi0v_C>
3.3618073

>  <chi0_C>
3.5938582

>  <chi1>
5.5745859

>  <chi1v>
3.1958475

>  <chi1v_C>
1.5302567

>  <chi1_C>
1.7415817

>  <chiral>
2

>  <chiral_u>
1

>  <density>
0.94384623

>  <diameter>
6

>  <FCharge>
0

>  <GCUT_PEOE_0>
-0.79077744

>  <GCUT_PEOE_1>
-0.45987651

>  <GCUT_PEOE_2>
0.20419729

>  <GCUT_PEOE_3>
2.2362881

>  <GCUT_SLOGP_0>
-0.93982822

>  <GCUT_SLOGP_1>
-0.58208936

>  <GCUT_SLOGP_2>
0.06112713

>  <GCUT_SLOGP_3>
2.1189663

>  <GCUT_SMR_0>
-0.52164072

>  <GCUT_SMR_1>
-0.27547947

>  <GCUT_SMR_2>
0.24744362

>  <GCUT_SMR_3>
2.4318523

>  <Kier1>
10.083333

>  <Kier2>
3.8062284

>  <Kier3>
1.8595041

>  <KierA1>
8.6589355

>  <KierA2>
3.2191904

>  <KierA3>
1.5539644

>  <KierFlex>
2.322897

>  <lip_acc>
6

>  <lip_don>
4

>  <lip_druglike>
1

>  <lip_violation>
0

>  <logP(o/w)>
-1.253

>  <logS>
0.40355

>  <mr>
3.5380616

>  <mutagenic>
0

>  <nmol>
1

>  <opr_brigid>
5

>  <opr_leadlike>
1

>  <opr_nring>
1

>  <opr_nrot>
2

>  <opr_violation>
0

>  <PC+>
0

>  <PC->
0

>  <PEOE_PC+>
2.0448661

>  <PEOE_PC->
-2.0448661

>  <PEOE_RPC+>
0.15636043

>  <PEOE_RPC->
0.19187789

>  <PEOE_VSA+0>
0

>  <PEOE_VSA+1>
32.012836

>  <PEOE_VSA+2>
18.268377

>  <PEOE_VSA+3>
8.458519

>  <PEOE_VSA+4>
41.296692

>  <PEOE_VSA+5>
0

>  <PEOE_VSA+6>
14.708499

>  <PEOE_VSA-0>
0

>  <PEOE_VSA-1>
0

>  <PEOE_VSA-2>
0

>  <PEOE_VSA-3>
0

>  <PEOE_VSA-4>
0

>  <PEOE_VSA-5>
16.070677

>  <PEOE_VSA-6>
31.070162

>  <PEOE_VSA_FHYD>
0.36284682

>  <PEOE_VSA_FNEG>
0.29119816

>  <PEOE_VSA_FPNEG>
0.29119816

>  <PEOE_VSA_FPOL>
0.63715321

>  <PEOE_VSA_FPOS>
0.70880181

>  <PEOE_VSA_FPPOS>
0.34595501

>  <PEOE_VSA_HYD>
58.739735

>  <PEOE_VSA_NEG>
47.140839

>  <PEOE_VSA_PNEG>
47.140839

>  <PEOE_VSA_POL>
103.14603

>  <PEOE_VSA_POS>
114.74493

>  <PEOE_VSA_PPOS>
56.005188

>  <petitjean>
0.5

>  <petitjeanSC>
1

>  <Q_PC+>
0

>  <Q_PC->
0

>  <Q_RPC+>
0

>  <Q_RPC->
0

>  <Q_VSA_FHYD>
1

>  <Q_VSA_FNEG>
0

>  <Q_VSA_FPNEG>
0

>  <Q_VSA_FPOL>
0

>  <Q_VSA_FPOS>
1

>  <Q_VSA_FPPOS>
0

>  <Q_VSA_HYD>
161.88576

>  <Q_VSA_NEG>
0

>  <Q_VSA_PNEG>
0

>  <Q_VSA_POL>
0

>  <Q_VSA_POS>
161.88576

>  <Q_VSA_PPOS>
0

>  <radius>
3

>  <reactive>
0

>  <rings>
1

>  <RPC+>
0

>  <RPC->
0

>  <rsynth>
1

>  <SlogP>
-1.4074

>  <SlogP_VSA0>
50.770454

>  <SlogP_VSA1>
7.7454643

>  <SlogP_VSA2>
47.799404

>  <SlogP_VSA3>
71.696709

>  <SlogP_VSA4>
0

>  <SlogP_VSA5>
10.486856

>  <SlogP_VSA6>
0

>  <SlogP_VSA7>
0

>  <SlogP_VSA8>
0

>  <SlogP_VSA9>
0

>  <SMR>
3.52562

>  <SMR_VSA0>
34.862103

>  <SMR_VSA1>
50.770454

>  <SMR_VSA2>
50.770454

>  <SMR_VSA3>
23.424154

>  <SMR_VSA4>
0

>  <SMR_VSA5>
0

>  <SMR_VSA6>
28.671722

>  <SMR_VSA7>
0

>  <TPSA>
107.22

>  <VAdjEq>
0.65002245

>  <VAdjMa>
4.5849624

>  <VDistEq>
2.3822954

>  <VDistMa>
6.878418

>  <vdw_area>
161.88576

>  <vdw_vol>
186.60243

>  <vsa_acc>
13.566921

>  <vsa_acid>
0

>  <vsa_base>
0

>  <vsa_don>
0

>  <vsa_hyd>
55.892551

>  <vsa_other>
17.212255

>  <vsa_pol>
67.834602

>  <Weight>
176.12399

>  <weinerPath>
188

>  <weinerPol>
17

>  <zagreb>
58

$$$$