Clc1ccc(OC(C(OCC(OC(=O)c2ccccc2OC(=O)C)COC(=O)C(Oc2ccc(Cl)cc2)(C)C)=O)(C)C)cc1
  MOE2013           2D

 44 46  0  0  0  0  0  0  0  0999 V2000
    0.0000    0.0000    0.0000 Cl  0  0  0  0  0  0  0  0  0  0  0  0
   -1.5000    0.0070    0.0000 C   0  0  0  0  0  0  0  0  0  0  0  0
   -2.2560   -1.2880    0.0000 C   0  0  0  0  0  0  0  0  0  0  0  0
   -3.7560   -1.2800    0.0000 C   0  0  0  0  0  0  0  0  0  0  0  0
   -4.5000    0.0220    0.0000 C   0  0  0  0  0  0  0  0  0  0  0  0
   -6.0000    0.0300    0.0000 O   0  0  0  0  0  0  0  0  0  0  0  0
   -6.7560   -1.2650    0.0000 C   0  0  0  0  0  0  0  0  0  0  0  0
   -8.0520   -0.5090    0.0000 C   0  0  0  0  0  0  0  0  0  0  0  0
   -9.3540   -1.2520    0.0000 O   0  0  0  0  0  0  0  0  0  0  0  0
  -10.6500   -0.4960    0.0000 C   0  0  0  0  0  0  0  0  0  0  0  0
  -11.9520   -1.2390    0.0000 C   0  0  0  0  0  0  0  0  0  0  0  0
  -11.9600   -2.7390    0.0000 O   0  0  0  0  0  0  0  0  0  0  0  0
  -13.2630   -3.4830    0.0000 C   0  0  0  0  0  0  0  0  0  0  0  0
  -14.5580   -2.7260    0.0000 O   0  0  0  0  0  0  0  0  0  0  0  0
  -13.2700   -4.9830    0.0000 C   0  0  0  0  0  0  0  0  0  0  0  0
  -11.9750   -5.7390    0.0000 C   0  0  0  0  0  0  0  0  0  0  0  0
  -11.9820   -7.2390    0.0000 C   0  0  0  0  0  0  0  0  0  0  0  0
  -13.2850   -7.9830    0.0000 C   0  0  0  0  0  0  0  0  0  0  0  0
  -14.5800   -7.2260    0.0000 C   0  0  0  0  0  0  0  0  0  0  0  0
  -14.5730   -5.7260    0.0000 C   0  0  0  0  0  0  0  0  0  0  0  0
  -15.8680   -4.9700    0.0000 O   0  0  0  0  0  0  0  0  0  0  0  0
  -17.1710   -5.7130    0.0000 C   0  0  0  0  0  0  0  0  0  0  0  0
  -18.4660   -4.9570    0.0000 O   0  0  0  0  0  0  0  0  0  0  0  0
  -17.1780   -7.2130    0.0000 C   0  0  0  0  0  0  0  0  0  0  0  0
  -13.2480   -0.4830    0.0000 C   0  0  0  0  0  0  0  0  0  0  0  0
  -13.2400    1.0170    0.0000 O   0  0  0  0  0  0  0  0  0  0  0  0
  -14.5360    1.7730    0.0000 C   0  0  0  0  0  0  0  0  0  0  0  0
  -15.8380    1.0300    0.0000 O   0  0  0  0  0  0  0  0  0  0  0  0
  -14.5280    3.2730    0.0000 C   0  0  0  0  0  0  0  0  0  0  0  0
  -16.0280    3.2810    0.0000 O   0  0  0  0  0  0  0  0  0  0  0  0
  -16.7720    4.5840    0.0000 C   0  0  0  0  0  0  0  0  0  0  0  0
  -18.2720    4.5910    0.0000 C   0  0  0  0  0  0  0  0  0  0  0  0
  -19.0150    5.8940    0.0000 C   0  0  0  0  0  0  0  0  0  0  0  0
  -18.2590    7.1890    0.0000 C   0  0  0  0  0  0  0  0  0  0  0  0
  -19.0020    8.4920    0.0000 Cl  0  0  0  0  0  0  0  0  0  0  0  0
  -16.7590    7.1820    0.0000 C   0  0  0  0  0  0  0  0  0  0  0  0
  -16.0150    5.8790    0.0000 C   0  0  0  0  0  0  0  0  0  0  0  0
  -14.5210    4.7730    0.0000 C   0  0  0  0  0  0  0  0  0  0  0  0
  -13.0280    3.2660    0.0000 C   0  0  0  0  0  0  0  0  0  0  0  0
   -8.0440    0.9910    0.0000 O   0  0  0  0  0  0  0  0  0  0  0  0
   -5.4610   -2.0220    0.0000 C   0  0  0  0  0  0  0  0  0  0  0  0
   -7.5130   -2.5610    0.0000 C   0  0  0  0  0  0  0  0  0  0  0  0
   -3.7430    1.3180    0.0000 C   0  0  0  0  0  0  0  0  0  0  0  0
   -2.2430    1.3100    0.0000 C   0  0  0  0  0  0  0  0  0  0  0  0
  1  2  1  0  0  0  0
  2  3  1  0  0  0  0
  2 44  2  0  0  0  0
  3  4  2  0  0  0  0
  4  5  1  0  0  0  0
  5  6  1  0  0  0  0
  5 43  2  0  0  0  0
  6  7  1  0  0  0  0
  7  8  1  0  0  0  0
  7 41  1  0  0  0  0
  7 42  1  0  0  0  0
  8  9  1  0  0  0  0
  8 40  2  0  0  0  0
  9 10  1  0  0  0  0
 10 11  1  0  0  0  0
 11 12  1  0  0  0  0
 11 25  1  0  0  0  0
 12 13  1  0  0  0  0
 13 14  2  0  0  0  0
 13 15  1  0  0  0  0
 15 16  1  0  0  0  0
 15 20  2  0  0  0  0
 16 17  2  0  0  0  0
 17 18  1  0  0  0  0
 18 19  2  0  0  0  0
 19 20  1  0  0  0  0
 20 21  1  0  0  0  0
 21 22  1  0  0  0  0
 22 23  2  0  0  0  0
 22 24  1  0  0  0  0
 25 26  1  0  0  0  0
 26 27  1  0  0  0  0
 27 28  2  0  0  0  0
 27 29  1  0  0  0  0
 29 30  1  0  0  0  0
 29 38  1  0  0  0  0
 29 39  1  0  0  0  0
 30 31  1  0  0  0  0
 31 32  1  0  0  0  0
 31 37  2  0  0  0  0
 32 33  2  0  0  0  0
 33 34  1  0  0  0  0
 34 35  1  0  0  0  0
 34 36  2  0  0  0  0
 36 37  1  0  0  0  0
 43 44  1  0  0  0  0
M  END
>  <Index>
966

>  <ID>
HT1860

>  <class>
0

>  <apol>
90.037376

>  <ast_fraglike>
0

>  <ast_fraglike_ext>
0

>  <ast_violation>
3

>  <ast_violation_ext>
4

>  <a_acc>
6

>  <a_acid>
0

>  <a_aro>
18

>  <a_base>
0

>  <a_count>
76

>  <a_don>
0

>  <a_donacc>
6

>  <a_heavy>
44

>  <a_hyd>
30

>  <a_IC>
119.62321

>  <a_ICM>
1.5739896

>  <a_nB>
0

>  <a_nBr>
0

>  <a_nC>
32

>  <a_nCl>
2

>  <a_nF>
0

>  <a_nH>
32

>  <a_nI>
0

>  <a_nN>
0

>  <a_nO>
10

>  <a_nP>
0

>  <a_nS>
0

>  <balabanJ>
1.6158406

>  <BCUT_PEOE_0>
-2.5599685

>  <BCUT_PEOE_1>
-0.54528141

>  <BCUT_PEOE_2>
0.59626234

>  <BCUT_PEOE_3>
2.6318161

>  <BCUT_SLOGP_0>
-2.7038655

>  <BCUT_SLOGP_1>
-0.4592869

>  <BCUT_SLOGP_2>
0.68157226

>  <BCUT_SLOGP_3>
2.5408423

>  <BCUT_SMR_0>
-2.3480361

>  <BCUT_SMR_1>
-0.40228716

>  <BCUT_SMR_2>
0.7808665

>  <BCUT_SMR_3>
2.836324

>  <bpol>
51.150623

>  <b_1rotN>
13

>  <b_1rotR>
0.28260869

>  <b_ar>
18

>  <b_count>
78

>  <b_double>
4

>  <b_heavy>
46

>  <b_max1len>
4

>  <b_rotN>
17

>  <b_rotR>
0.36956522

>  <b_single>
56

>  <b_triple>
0

>  <chi0>
32.492989

>  <chi0v>
26.270037

>  <chi0v_C>
19.919767

>  <chi0_C>
22.250347

>  <chi1>
20.657541

>  <chi1v>
14.137141

>  <chi1v_C>
9.536581

>  <chi1_C>
12.220346

>  <chiral>
0

>  <chiral_u>
0

>  <density>
0.80794418

>  <diameter>
20

>  <FCharge>
0

>  <GCUT_PEOE_0>
-0.76414692

>  <GCUT_PEOE_1>
-0.38801366

>  <GCUT_PEOE_2>
0.018679734

>  <GCUT_PEOE_3>
2.7574923

>  <GCUT_SLOGP_0>
-0.9345507

>  <GCUT_SLOGP_1>
-0.27093813

>  <GCUT_SLOGP_2>
0.13975437

>  <GCUT_SLOGP_3>
2.7663891

>  <GCUT_SMR_0>
-0.52149761

>  <GCUT_SMR_1>
-0.21232738

>  <GCUT_SMR_2>
0.19305076

>  <GCUT_SMR_3>
2.9885616

>  <Kier1>
38.448013

>  <Kier2>
17.953136

>  <Kier3>
12.8576

>  <KierA1>
31.867195

>  <KierA2>
14.812242

>  <KierA3>
10.57448

>  <KierFlex>
10.727832

>  <lip_acc>
10

>  <lip_don>
0

>  <lip_druglike>
0

>  <lip_violation>
2

>  <logP(o/w)>
6.5099602

>  <logS>
-9.4033298

>  <mr>
16.523338

>  <mutagenic>
0

>  <nmol>
1

>  <opr_brigid>
18

>  <opr_leadlike>
0

>  <opr_nring>
3

>  <opr_nrot>
13

>  <opr_violation>
4

>  <PC+>
0

>  <PC->
0

>  <PEOE_PC+>
3.659781

>  <PEOE_PC->
-3.659781

>  <PEOE_RPC+>
0.081077658

>  <PEOE_RPC->
0.089841314

>  <PEOE_VSA+0>
91.76796

>  <PEOE_VSA+1>
129.99825

>  <PEOE_VSA+2>
4.9049287

>  <PEOE_VSA+3>
0

>  <PEOE_VSA+4>
0

>  <PEOE_VSA+5>
58.833996

>  <PEOE_VSA+6>
0

>  <PEOE_VSA-0>
197.53975

>  <PEOE_VSA-1>
83.673698

>  <PEOE_VSA-2>
0

>  <PEOE_VSA-3>
0

>  <PEOE_VSA-4>
0

>  <PEOE_VSA-5>
56.771439

>  <PEOE_VSA-6>
12.518781

>  <PEOE_VSA_FHYD>
0.79854959

>  <PEOE_VSA_FNEG>
0.55109876

>  <PEOE_VSA_FPNEG>
0.10894538

>  <PEOE_VSA_FPOL>
0.20145038

>  <PEOE_VSA_FPOS>
0.44890124

>  <PEOE_VSA_FPPOS>
0.092505001

>  <PEOE_VSA_HYD>
507.88458

>  <PEOE_VSA_NEG>
350.50366

>  <PEOE_VSA_PNEG>
69.290222

>  <PEOE_VSA_POL>
128.12422

>  <PEOE_VSA_POS>
285.50513

>  <PEOE_VSA_PPOS>
58.833996

>  <petitjean>
0.5

>  <petitjeanSC>
1

>  <Q_PC+>
0

>  <Q_PC->
0

>  <Q_RPC+>
0

>  <Q_RPC->
0

>  <Q_VSA_FHYD>
1

>  <Q_VSA_FNEG>
0

>  <Q_VSA_FPNEG>
0

>  <Q_VSA_FPOL>
0

>  <Q_VSA_FPOS>
1

>  <Q_VSA_FPPOS>
0

>  <Q_VSA_HYD>
636.00879

>  <Q_VSA_NEG>
0

>  <Q_VSA_PNEG>
0

>  <Q_VSA_POL>
0

>  <Q_VSA_POS>
636.00879

>  <Q_VSA_PPOS>
0

>  <radius>
10

>  <reactive>
0

>  <rings>
3

>  <RPC+>
0

>  <RPC->
0

>  <rsynth>
1

>  <SlogP>
6.2456999

>  <SlogP_VSA0>
32.999664

>  <SlogP_VSA1>
30.981857

>  <SlogP_VSA2>
111.05496

>  <SlogP_VSA3>
41.852516

>  <SlogP_VSA4>
27.047791

>  <SlogP_VSA5>
0

>  <SlogP_VSA6>
7.0012131

>  <SlogP_VSA7>
211.71822

>  <SlogP_VSA8>
0

>  <SlogP_VSA9>
260.65765

>  <SMR>
16.119049

>  <SMR_VSA0>
128.44853

>  <SMR_VSA1>
32.999664

>  <SMR_VSA2>
0

>  <SMR_VSA3>
32.385723

>  <SMR_VSA4>
0

>  <SMR_VSA5>
211.71822

>  <SMR_VSA6>
72.834373

>  <SMR_VSA7>
244.92737

>  <TPSA>
123.66

>  <VAdjEq>
0.27577007

>  <VAdjMa>
6.523562

>  <VDistEq>
4.0410609

>  <VDistMa>
10.660224

>  <vdw_area>
636.00879

>  <vdw_vol>
801.42169

>  <vsa_acc>
59.275196

>  <vsa_acid>
0

>  <vsa_base>
0

>  <vsa_don>
0

>  <vsa_hyd>
485.10715

>  <vsa_other>
68.849022

>  <vsa_pol>
59.275196

>  <Weight>
647.50397

>  <weinerPath>
7684

>  <weinerPol>
66

>  <zagreb>
222

$$$$