Oc1ccc(cc1CO)C(O)CNCCCCCCOCCCCc1ccccc1
  MOE2013           2D

 30 31  0  0  1  0  0  0  0  0999 V2000
    0.0000    0.0000    0.0000 O   0  0  0  0  0  0  0  0  0  0  0  0
    1.5000    0.0080    0.0000 C   0  0  0  0  0  0  0  0  0  0  0  0
    2.2430    1.3120    0.0000 C   0  0  0  0  0  0  0  0  0  0  0  0
    3.7430    1.3200    0.0000 C   0  0  0  0  0  0  0  0  0  0  0  0
    4.5000    0.0250    0.0000 C   0  0  0  0  0  0  0  0  0  0  0  0
    3.7570   -1.2780    0.0000 C   0  0  0  0  0  0  0  0  0  0  0  0
    2.2570   -1.2860    0.0000 C   0  0  0  0  0  0  0  0  0  0  0  0
    1.5150   -2.5900    0.0000 C   0  0  0  0  0  0  0  0  0  0  0  0
    2.2720   -3.8840    0.0000 O   0  0  0  0  0  0  0  0  0  0  0  0
    6.0000    0.0340    0.0000 C   0  0  3  0  0  0  0  0  0  0  0  0
    6.7570   -1.2610    0.0000 O   0  0  0  0  0  0  0  0  0  0  0  0
    6.7430    1.3370    0.0000 C   0  0  0  0  0  0  0  0  0  0  0  0
    8.2430    1.3450    0.0000 N   0  0  0  0  0  0  0  0  0  0  0  0
    8.9850    2.6490    0.0000 C   0  0  0  0  0  0  0  0  0  0  0  0
   10.4850    2.6570    0.0000 C   0  0  0  0  0  0  0  0  0  0  0  0
   11.2430    1.3620    0.0000 C   0  0  0  0  0  0  0  0  0  0  0  0
   12.7420    1.3710    0.0000 C   0  0  0  0  0  0  0  0  0  0  0  0
   13.5000    0.0760    0.0000 C   0  0  0  0  0  0  0  0  0  0  0  0
   15.0000    0.0840    0.0000 C   0  0  0  0  0  0  0  0  0  0  0  0
   15.7570   -1.2100    0.0000 O   0  0  0  0  0  0  0  0  0  0  0  0
   17.2570   -1.2020    0.0000 C   0  0  0  0  0  0  0  0  0  0  0  0
   18.0140   -2.4970    0.0000 C   0  0  0  0  0  0  0  0  0  0  0  0
   19.5140   -2.4880    0.0000 C   0  0  0  0  0  0  0  0  0  0  0  0
   20.2720   -3.7830    0.0000 C   0  0  0  0  0  0  0  0  0  0  0  0
   21.7720   -3.7750    0.0000 C   0  0  0  0  0  0  0  0  0  0  0  0
   22.5290   -5.0700    0.0000 C   0  0  0  0  0  0  0  0  0  0  0  0
   24.0290   -5.0610    0.0000 C   0  0  0  0  0  0  0  0  0  0  0  0
   24.7720   -3.7580    0.0000 C   0  0  0  0  0  0  0  0  0  0  0  0
   24.0140   -2.4630    0.0000 C   0  0  0  0  0  0  0  0  0  0  0  0
   22.5140   -2.4710    0.0000 C   0  0  0  0  0  0  0  0  0  0  0  0
  1  2  1  0  0  0  0
  2  3  1  0  0  0  0
  2  7  2  0  0  0  0
  3  4  2  0  0  0  0
  4  5  1  0  0  0  0
  5  6  2  0  0  0  0
  5 10  1  0  0  0  0
  6  7  1  0  0  0  0
  7  8  1  0  0  0  0
  8  9  1  0  0  0  0
 10 11  1  0  0  0  0
 10 12  1  0  0  0  0
 12 13  1  0  0  0  0
 13 14  1  0  0  0  0
 14 15  1  0  0  0  0
 15 16  1  0  0  0  0
 16 17  1  0  0  0  0
 17 18  1  0  0  0  0
 18 19  1  0  0  0  0
 19 20  1  0  0  0  0
 20 21  1  0  0  0  0
 21 22  1  0  0  0  0
 22 23  1  0  0  0  0
 23 24  1  0  0  0  0
 24 25  1  0  0  0  0
 25 26  1  0  0  0  0
 25 30  2  0  0  0  0
 26 27  2  0  0  0  0
 27 28  1  0  0  0  0
 28 29  2  0  0  0  0
 29 30  1  0  0  0  0
M  END
>  <Index>
967

>  <ID>
HT1862

>  <class>
0

>  <apol>
72.97934

>  <ast_fraglike>
0

>  <ast_fraglike_ext>
0

>  <ast_violation>
4

>  <ast_violation_ext>
5

>  <a_acc>
5

>  <a_acid>
0

>  <a_aro>
12

>  <a_base>
0

>  <a_count>
67

>  <a_don>
4

>  <a_donacc>
9

>  <a_heavy>
30

>  <a_hyd>
25

>  <a_IC>
89.581795

>  <a_ICM>
1.3370417

>  <a_nB>
0

>  <a_nBr>
0

>  <a_nC>
25

>  <a_nCl>
0

>  <a_nF>
0

>  <a_nH>
37

>  <a_nI>
0

>  <a_nN>
1

>  <a_nO>
4

>  <a_nP>
0

>  <a_nS>
0

>  <balabanJ>
1.3150004

>  <BCUT_PEOE_0>
-2.6935346

>  <BCUT_PEOE_1>
-0.64940667

>  <BCUT_PEOE_2>
0.69729149

>  <BCUT_PEOE_3>
2.6309104

>  <BCUT_SLOGP_0>
-2.7300138

>  <BCUT_SLOGP_1>
-0.55239946

>  <BCUT_SLOGP_2>
0.67684174

>  <BCUT_SLOGP_3>
2.7293174

>  <BCUT_SMR_0>
-2.4392836

>  <BCUT_SMR_1>
-0.49986199

>  <BCUT_SMR_2>
0.82402879

>  <BCUT_SMR_3>
2.8820307

>  <bpol>
43.024658

>  <b_1rotN>
16

>  <b_1rotR>
0.51612902

>  <b_ar>
12

>  <b_count>
68

>  <b_double>
0

>  <b_heavy>
31

>  <b_max1len>
16

>  <b_rotN>
16

>  <b_rotR>
0.51612902

>  <b_single>
56

>  <b_triple>
0

>  <chi0>
21.4431

>  <chi0v>
17.931322

>  <chi0v_C>
15.681434

>  <chi0_C>
17.028887

>  <chi1>
14.702708

>  <chi1v>
11.135239

>  <chi1v_C>
9.0527477

>  <chi1_C>
10.840901

>  <chiral>
1

>  <chiral_u>
1

>  <density>
0.67689866

>  <diameter>
22

>  <FCharge>
0

>  <GCUT_PEOE_0>
-0.84526294

>  <GCUT_PEOE_1>
-0.39002743

>  <GCUT_PEOE_2>
0.11352224

>  <GCUT_PEOE_3>
2.6868548

>  <GCUT_SLOGP_0>
-1.1526042

>  <GCUT_SLOGP_1>
-0.30570683

>  <GCUT_SLOGP_2>
0.13827541

>  <GCUT_SLOGP_3>
2.7675512

>  <GCUT_SMR_0>
-0.53198856

>  <GCUT_SMR_1>
-0.22480641

>  <GCUT_SMR_2>
0.19305076

>  <GCUT_SMR_3>
2.9213939

>  <Kier1>
26.253902

>  <Kier2>
16.607742

>  <Kier3>
11.448351

>  <KierA1>
22.283039

>  <KierA2>
14.012111

>  <KierA3>
9.6184063

>  <KierFlex>
10.407747

>  <lip_acc>
5

>  <lip_don>
4

>  <lip_druglike>
1

>  <lip_violation>
0

>  <logP(o/w)>
4.7649999

>  <logS>
-3.8279901

>  <mr>
12.277093

>  <mutagenic>
0

>  <nmol>
1

>  <opr_brigid>
12

>  <opr_leadlike>
1

>  <opr_nring>
2

>  <opr_nrot>
16

>  <opr_violation>
1

>  <PC+>
0

>  <PC->
0

>  <PEOE_PC+>
2.608995

>  <PEOE_PC->
-2.608995

>  <PEOE_RPC+>
0.083298706

>  <PEOE_RPC->
0.14961022

>  <PEOE_VSA+0>
122.0804

>  <PEOE_VSA+1>
92.295532

>  <PEOE_VSA+2>
8.6190128

>  <PEOE_VSA+3>
0

>  <PEOE_VSA+4>
30.972517

>  <PEOE_VSA+5>
0

>  <PEOE_VSA+6>
0

>  <PEOE_VSA-0>
85.625778

>  <PEOE_VSA-1>
90.932053

>  <PEOE_VSA-2>
0

>  <PEOE_VSA-3>
0

>  <PEOE_VSA-4>
0

>  <PEOE_VSA-5>
0

>  <PEOE_VSA-6>
25.943268

>  <PEOE_VSA_FHYD>
0.87531281

>  <PEOE_VSA_FNEG>
0.44362551

>  <PEOE_VSA_FPNEG>
0.056834731

>  <PEOE_VSA_FPOL>
0.1246872

>  <PEOE_VSA_FPOS>
0.55637449

>  <PEOE_VSA_FPPOS>
0.067852467

>  <PEOE_VSA_HYD>
399.55276

>  <PEOE_VSA_NEG>
202.5011

>  <PEOE_VSA_PNEG>
25.943268

>  <PEOE_VSA_POL>
56.915787

>  <PEOE_VSA_POS>
253.96747

>  <PEOE_VSA_PPOS>
30.972517

>  <petitjean>
0.5

>  <petitjeanSC>
1

>  <Q_PC+>
0

>  <Q_PC->
0

>  <Q_RPC+>
0

>  <Q_RPC->
0

>  <Q_VSA_FHYD>
1

>  <Q_VSA_FNEG>
0

>  <Q_VSA_FPNEG>
0

>  <Q_VSA_FPOL>
0

>  <Q_VSA_FPOS>
1

>  <Q_VSA_FPPOS>
0

>  <Q_VSA_HYD>
456.46857

>  <Q_VSA_NEG>
0

>  <Q_VSA_PNEG>
0

>  <Q_VSA_POL>
0

>  <Q_VSA_POS>
456.46857

>  <Q_VSA_PPOS>
0

>  <radius>
11

>  <reactive>
0

>  <rings>
2

>  <RPC+>
0

>  <RPC->
0

>  <rsynth>
0.60000002

>  <SlogP>
4.4692702

>  <SlogP_VSA0>
94.166428

>  <SlogP_VSA1>
0

>  <SlogP_VSA2>
10.999887

>  <SlogP_VSA3>
78.731674

>  <SlogP_VSA4>
9.5567245

>  <SlogP_VSA5>
18.868406

>  <SlogP_VSA6>
0

>  <SlogP_VSA7>
141.14548

>  <SlogP_VSA8>
119.67908

>  <SlogP_VSA9>
26.169687

>  <SMR>
12.08421

>  <SMR_VSA0>
10.999887

>  <SMR_VSA1>
76.155678

>  <SMR_VSA2>
18.01075

>  <SMR_VSA3>
21.268803

>  <SMR_VSA4>
0

>  <SMR_VSA5>
294.15057

>  <SMR_VSA6>
78.731674

>  <SMR_VSA7>
0

>  <TPSA>
81.949997

>  <VAdjEq>
0.36176345

>  <VAdjMa>
5.9541965

>  <VDistEq>
4.2995348

>  <VDistMa>
9.4331808

>  <vdw_area>
456.46857

>  <vdw_vol>
613.93829

>  <vsa_acc>
2.503756

>  <vsa_acid>
0

>  <vsa_base>
0

>  <vsa_don>
0

>  <vsa_hyd>
367.44452

>  <vsa_other>
0

>  <vsa_pol>
48.887096

>  <Weight>
415.57401

>  <weinerPath>
3802

>  <weinerPol>
37

>  <zagreb>
136

$$$$