OC(CCN1CCCC1)(C1CCCCC1)c1ccccc1
  MOE2013           2D

 21 23  0  0  1  0  0  0  0  0999 V2000
    0.0000    0.0000    0.0000 O   0  0  0  0  0  0  0  0  0  0  0  0
   -0.7490    1.3000    0.0000 C   0  0  3  0  0  0  0  0  0  0  0  0
    0.5510    2.0490    0.0000 C   0  0  0  0  0  0  0  0  0  0  0  0
    1.8490    1.2980    0.0000 C   0  0  0  0  0  0  0  0  0  0  0  0
    3.1490    2.0470    0.0000 N   0  0  0  0  0  0  0  0  0  0  0  0
    3.3060    3.5380    0.0000 C   0  0  0  0  0  0  0  0  0  0  0  0
    4.7740    3.8490    0.0000 C   0  0  0  0  0  0  0  0  0  0  0  0
    5.5230    2.5500    0.0000 C   0  0  0  0  0  0  0  0  0  0  0  0
    4.5180    1.4360    0.0000 C   0  0  0  0  0  0  0  0  0  0  0  0
   -1.4980    2.5990    0.0000 C   0  0  0  0  0  0  0  0  0  0  0  0
   -2.9980    2.6000    0.0000 C   0  0  0  0  0  0  0  0  0  0  0  0
   -3.7470    3.9000    0.0000 C   0  0  0  0  0  0  0  0  0  0  0  0
   -2.9960    5.1980    0.0000 C   0  0  0  0  0  0  0  0  0  0  0  0
   -1.4960    5.1970    0.0000 C   0  0  0  0  0  0  0  0  0  0  0  0
   -0.7470    3.8980    0.0000 C   0  0  0  0  0  0  0  0  0  0  0  0
   -2.0490    0.5510    0.0000 C   0  0  0  0  0  0  0  0  0  0  0  0
   -2.0500   -0.9490    0.0000 C   0  0  0  0  0  0  0  0  0  0  0  0
   -3.3490   -1.6990    0.0000 C   0  0  0  0  0  0  0  0  0  0  0  0
   -4.6480   -0.9480    0.0000 C   0  0  0  0  0  0  0  0  0  0  0  0
   -4.6470    0.5520    0.0000 C   0  0  0  0  0  0  0  0  0  0  0  0
   -3.3470    1.3010    0.0000 C   0  0  0  0  0  0  0  0  0  0  0  0
  1  2  1  0  0  0  0
  2  3  1  0  0  0  0
  2 10  1  0  0  0  0
  2 16  1  0  0  0  0
  3  4  1  0  0  0  0
  4  5  1  0  0  0  0
  5  6  1  0  0  0  0
  5  9  1  0  0  0  0
  6  7  1  0  0  0  0
  7  8  1  0  0  0  0
  8  9  1  0  0  0  0
 10 11  1  0  0  0  0
 10 15  1  0  0  0  0
 11 12  1  0  0  0  0
 12 13  1  0  0  0  0
 13 14  1  0  0  0  0
 14 15  1  0  0  0  0
 16 17  1  0  0  0  0
 16 21  2  0  0  0  0
 17 18  2  0  0  0  0
 18 19  1  0  0  0  0
 19 20  2  0  0  0  0
 20 21  1  0  0  0  0
M  END
>  <Index>
904

>  <ID>
HT1748

>  <class>
0

>  <apol>
54.678997

>  <ast_fraglike>
0

>  <ast_fraglike_ext>
0

>  <ast_violation>
1

>  <ast_violation_ext>
2

>  <a_acc>
2

>  <a_acid>
0

>  <a_aro>
6

>  <a_base>
0

>  <a_count>
50

>  <a_don>
1

>  <a_donacc>
3

>  <a_heavy>
21

>  <a_hyd>
19

>  <a_IC>
60.600739

>  <a_ICM>
1.2120148

>  <a_nB>
0

>  <a_nBr>
0

>  <a_nC>
19

>  <a_nCl>
0

>  <a_nF>
0

>  <a_nH>
29

>  <a_nI>
0

>  <a_nN>
1

>  <a_nO>
1

>  <a_nP>
0

>  <a_nS>
0

>  <balabanJ>
1.6524439

>  <BCUT_PEOE_0>
-2.8284221

>  <BCUT_PEOE_1>
-0.61040503

>  <BCUT_PEOE_2>
0.66293824

>  <BCUT_PEOE_3>
2.7961109

>  <BCUT_SLOGP_0>
-2.7305708

>  <BCUT_SLOGP_1>
-0.5034737

>  <BCUT_SLOGP_2>
0.71521044

>  <BCUT_SLOGP_3>
2.9193065

>  <BCUT_SMR_0>
-2.5799708

>  <BCUT_SMR_1>
-0.46698055

>  <BCUT_SMR_2>
0.79520559

>  <BCUT_SMR_3>
3.0459754

>  <bpol>
33.683002

>  <b_1rotN>
5

>  <b_1rotR>
0.2173913

>  <b_ar>
6

>  <b_count>
52

>  <b_double>
0

>  <b_heavy>
23

>  <b_max1len>
5

>  <b_rotN>
5

>  <b_rotR>
0.2173913

>  <b_single>
46

>  <b_triple>
0

>  <chi0>
14.545759

>  <chi0v>
13.136703

>  <chi0v_C>
12.242276

>  <chi0_C>
12.968409

>  <chi1>
10.288642

>  <chi1v>
8.7916985

>  <chi1v_C>
7.6194086

>  <chi1_C>
8.5638971

>  <chiral>
1

>  <chiral_u>
1

>  <density>
0.64582902

>  <diameter>
9

>  <FCharge>
0

>  <GCUT_PEOE_0>
-0.86432606

>  <GCUT_PEOE_1>
-0.37648606

>  <GCUT_PEOE_2>
0.072861306

>  <GCUT_PEOE_3>
2.9521832

>  <GCUT_SLOGP_0>
-0.95900351

>  <GCUT_SLOGP_1>
-0.27028045

>  <GCUT_SLOGP_2>
0.13737923

>  <GCUT_SLOGP_3>
3.0490465

>  <GCUT_SMR_0>
-0.53153175

>  <GCUT_SMR_1>
-0.20477475

>  <GCUT_SMR_2>
0.18207878

>  <GCUT_SMR_3>
3.1860173

>  <Kier1>
15.879017

>  <Kier2>
7.5130072

>  <Kier3>
3.8548484

>  <KierA1>
14.119921

>  <KierA2>
6.6393681

>  <KierA3>
3.390408

>  <KierFlex>
4.4641595

>  <lip_acc>
2

>  <lip_don>
1

>  <lip_druglike>
1

>  <lip_violation>
0

>  <logP(o/w)>
4.5669999

>  <logS>
-3.9823101

>  <mr>
8.8069458

>  <mutagenic>
0

>  <nmol>
1

>  <opr_brigid>
17

>  <opr_leadlike>
1

>  <opr_nring>
3

>  <opr_nrot>
8

>  <opr_violation>
0

>  <PC+>
0

>  <PC->
0

>  <PEOE_PC+>
1.3458389

>  <PEOE_PC->
-1.3458389

>  <PEOE_RPC+>
0.15650374

>  <PEOE_RPC->
0.28505388

>  <PEOE_VSA+0>
111.2962

>  <PEOE_VSA+1>
21.326929

>  <PEOE_VSA+2>
0

>  <PEOE_VSA+3>
0

>  <PEOE_VSA+4>
10.324173

>  <PEOE_VSA+5>
0

>  <PEOE_VSA+6>
0

>  <PEOE_VSA-0>
72.099754

>  <PEOE_VSA-1>
87.378456

>  <PEOE_VSA-2>
0

>  <PEOE_VSA-3>
0

>  <PEOE_VSA-4>
0

>  <PEOE_VSA-5>
0

>  <PEOE_VSA-6>
7.7675405

>  <PEOE_VSA_FHYD>
0.94167596

>  <PEOE_VSA_FNEG>
0.53916663

>  <PEOE_VSA_FPNEG>
0.025040986

>  <PEOE_VSA_FPOL>
0.058324043

>  <PEOE_VSA_FPOS>
0.46083334

>  <PEOE_VSA_FPPOS>
0.033283055

>  <PEOE_VSA_HYD>
292.10135

>  <PEOE_VSA_NEG>
167.24576

>  <PEOE_VSA_PNEG>
7.7675405

>  <PEOE_VSA_POL>
18.091713

>  <PEOE_VSA_POS>
142.94731

>  <PEOE_VSA_PPOS>
10.324173

>  <petitjean>
0.44444445

>  <petitjeanSC>
0.80000001

>  <Q_PC+>
0

>  <Q_PC->
0

>  <Q_RPC+>
0

>  <Q_RPC->
0

>  <Q_VSA_FHYD>
1

>  <Q_VSA_FNEG>
0

>  <Q_VSA_FPNEG>
0

>  <Q_VSA_FPOL>
0

>  <Q_VSA_FPOS>
1

>  <Q_VSA_FPPOS>
0

>  <Q_VSA_HYD>
310.19305

>  <Q_VSA_NEG>
0

>  <Q_VSA_PNEG>
0

>  <Q_VSA_POL>
0

>  <Q_VSA_POS>
310.19305

>  <Q_VSA_PPOS>
0

>  <radius>
5

>  <reactive>
0

>  <rings>
3

>  <RPC+>
0

>  <RPC->
0

>  <rsynth>
0.047619049

>  <SlogP>
4.2519002

>  <SlogP_VSA0>
25.385227

>  <SlogP_VSA1>
3.1243138

>  <SlogP_VSA2>
0

>  <SlogP_VSA3>
55.318733

>  <SlogP_VSA4>
7.5963712

>  <SlogP_VSA5>
0

>  <SlogP_VSA6>
0

>  <SlogP_VSA7>
88.215919

>  <SlogP_VSA8>
150.94725

>  <SlogP_VSA9>
0

>  <SMR>
8.7321796

>  <SMR_VSA0>
0

>  <SMR_VSA1>
28.509541

>  <SMR_VSA2>
4.4107962

>  <SMR_VSA3>
3.185575

>  <SMR_VSA4>
0

>  <SMR_VSA5>
239.16316

>  <SMR_VSA6>
55.318733

>  <SMR_VSA7>
0

>  <TPSA>
23.469999

>  <VAdjEq>
0.48250595

>  <VAdjMa>
5.523562

>  <VDistEq>
3.0393119

>  <VDistMa>
8.5177412

>  <vdw_area>
310.19305

>  <vdw_vol>
445.08221

>  <vsa_acc>
0

>  <vsa_acid>
0

>  <vsa_base>
0

>  <vsa_don>
0

>  <vsa_hyd>
270.82602

>  <vsa_other>
0

>  <vsa_pol>
13.566921

>  <Weight>
287.44699

>  <weinerPath>
903

>  <weinerPol>
30

>  <zagreb>
108

$$$$