O1[C@H](CO)[C@@H](O)[C@H](O)[C@@H](O)[C@@H]1Oc1c2c(ccc1)[C@H](c1c(C2=O)c(O)cc(c1)C(O)=O)[C@H]1c2c(C(=O)c3c1cccc3O[C@@H]1O[C@H](CO)[C@@H](O)[C@H](O)[C@H]1O)c(O)cc(c2)C(O)=O
  MOE2013           2D

 62 69  0  0  1  0  0  0  0  0999 V2000
    0.0000    0.0000    0.0000 O   0  0  0  0  0  0  0  0  0  0  0  0
   -1.3050   -0.7400    0.0000 C   0  0  2  0  0  0  0  0  0  0  0  0
   -1.3160   -2.2400    0.0000 C   0  0  0  0  0  0  0  0  0  0  0  0
   -2.6210   -2.9800    0.0000 O   0  0  0  0  0  0  0  0  0  0  0  0
   -2.5980    0.0200    0.0000 C   0  0  1  0  0  0  0  0  0  0  0  0
   -3.9030   -0.7200    0.0000 O   0  0  0  0  0  0  0  0  0  0  0  0
   -2.5870    1.5200    0.0000 C   0  0  2  0  0  0  0  0  0  0  0  0
   -3.8800    2.2800    0.0000 O   0  0  0  0  0  0  0  0  0  0  0  0
   -1.2820    2.2600    0.0000 C   0  0  1  0  0  0  0  0  0  0  0  0
   -1.2700    3.7600    0.0000 O   0  0  0  0  0  0  0  0  0  0  0  0
    0.0110    1.5000    0.0000 C   0  0  2  0  0  0  0  0  0  0  0  0
    1.3160    2.2400    0.0000 O   0  0  0  0  0  0  0  0  0  0  0  0
    2.6090    1.4800    0.0000 C   0  0  0  0  0  0  0  0  0  0  0  0
    3.9140    2.2200    0.0000 C   0  0  0  0  0  0  0  0  0  0  0  0
    5.2070    1.4600    0.0000 C   0  0  0  0  0  0  0  0  0  0  0  0
    5.1960   -0.0400    0.0000 C   0  0  0  0  0  0  0  0  0  0  0  0
    3.8910   -0.7800    0.0000 C   0  0  0  0  0  0  0  0  0  0  0  0
    2.5980   -0.0200    0.0000 C   0  0  0  0  0  0  0  0  0  0  0  0
    6.5120    2.2000    0.0000 C   0  0  2  0  0  0  0  0  0  0  0  0
    6.5240    3.7000    0.0000 C   0  0  0  0  0  0  0  0  0  0  0  0
    5.2300    4.4600    0.0000 C   0  0  0  0  0  0  0  0  0  0  0  0
    3.9260    3.7200    0.0000 C   0  0  0  0  0  0  0  0  0  0  0  0
    2.6320    4.4800    0.0000 O   0  0  0  0  0  0  0  0  0  0  0  0
    5.2420    5.9600    0.0000 C   0  0  0  0  0  0  0  0  0  0  0  0
    3.9490    6.7200    0.0000 O   0  0  0  0  0  0  0  0  0  0  0  0
    6.5470    6.7000    0.0000 C   0  0  0  0  0  0  0  0  0  0  0  0
    7.8400    5.9400    0.0000 C   0  0  0  0  0  0  0  0  0  0  0  0
    7.8280    4.4400    0.0000 C   0  0  0  0  0  0  0  0  0  0  0  0
    9.1450    6.6800    0.0000 C   0  0  0  0  0  0  0  0  0  0  0  0
   10.4380    5.9200    0.0000 O   0  0  0  0  0  0  0  0  0  0  0  0
    9.1560    8.1800    0.0000 O   0  0  0  0  0  0  0  0  0  0  0  0
    7.8050    1.4400    0.0000 C   0  0  1  0  0  0  0  0  0  0  0  0
    7.7940   -0.0600    0.0000 C   0  0  0  0  0  0  0  0  0  0  0  0
    9.0870   -0.8200    0.0000 C   0  0  0  0  0  0  0  0  0  0  0  0
   10.3920   -0.0800    0.0000 C   0  0  0  0  0  0  0  0  0  0  0  0
   11.6850   -0.8390    0.0000 O   0  0  0  0  0  0  0  0  0  0  0  0
   10.4030    1.4200    0.0000 C   0  0  0  0  0  0  0  0  0  0  0  0
    9.1100    2.1800    0.0000 C   0  0  0  0  0  0  0  0  0  0  0  0
    9.1220    3.6800    0.0000 C   0  0  0  0  0  0  0  0  0  0  0  0
   10.4260    4.4200    0.0000 C   0  0  0  0  0  0  0  0  0  0  0  0
   11.7200    3.6600    0.0000 C   0  0  0  0  0  0  0  0  0  0  0  0
   11.7080    2.1600    0.0000 C   0  0  0  0  0  0  0  0  0  0  0  0
   13.0010    1.4010    0.0000 O   0  0  0  0  0  0  0  0  0  0  0  0
   14.3060    2.1410    0.0000 C   0  0  2  0  0  0  0  0  0  0  0  0
   14.3180    3.6410    0.0000 O   0  0  0  0  0  0  0  0  0  0  0  0
   15.6220    4.3810    0.0000 C   0  0  2  0  0  0  0  0  0  0  0  0
   15.6340    5.8810    0.0000 C   0  0  0  0  0  0  0  0  0  0  0  0
   16.9390    6.6210    0.0000 O   0  0  0  0  0  0  0  0  0  0  0  0
   16.9160    3.6210    0.0000 C   0  0  1  0  0  0  0  0  0  0  0  0
   18.2200    4.3610    0.0000 O   0  0  0  0  0  0  0  0  0  0  0  0
   16.9040    2.1210    0.0000 C   0  0  2  0  0  0  0  0  0  0  0  0
   18.1970    1.3610    0.0000 O   0  0  0  0  0  0  0  0  0  0  0  0
   15.5990    1.3810    0.0000 C   0  0  1  0  0  0  0  0  0  0  0  0
   15.5880   -0.1190    0.0000 O   0  0  0  0  0  0  0  0  0  0  0  0
    9.0760   -2.3200    0.0000 C   0  0  0  0  0  0  0  0  0  0  0  0
   10.3690   -3.0790    0.0000 O   0  0  0  0  0  0  0  0  0  0  0  0
    7.7710   -3.0600    0.0000 C   0  0  0  0  0  0  0  0  0  0  0  0
    6.4780   -2.3000    0.0000 C   0  0  0  0  0  0  0  0  0  0  0  0
    6.4890   -0.8000    0.0000 C   0  0  0  0  0  0  0  0  0  0  0  0
    5.1730   -3.0400    0.0000 C   0  0  0  0  0  0  0  0  0  0  0  0
    3.8800   -2.2800    0.0000 O   0  0  0  0  0  0  0  0  0  0  0  0
    5.1620   -4.5400    0.0000 O   0  0  0  0  0  0  0  0  0  0  0  0
  1  2  1  0  0  0  0
  1 11  1  0  0  0  0
  2  3  1  6  0  0  0
  2  5  1  0  0  0  0
  3  4  1  0  0  0  0
  5  6  1  1  0  0  0
  5  7  1  0  0  0  0
  7  8  1  6  0  0  0
  7  9  1  0  0  0  0
  9 10  1  1  0  0  0
  9 11  1  0  0  0  0
 11 12  1  6  0  0  0
 12 13  1  0  0  0  0
 13 14  2  0  0  0  0
 13 18  1  0  0  0  0
 14 15  1  0  0  0  0
 14 22  1  0  0  0  0
 15 16  2  0  0  0  0
 16 17  1  0  0  0  0
 17 18  2  0  0  0  0
 19 15  1  6  0  0  0
 19 20  1  0  0  0  0
 19 32  1  0  0  0  0
 20 21  1  0  0  0  0
 20 28  2  0  0  0  0
 21 22  1  0  0  0  0
 21 24  2  0  0  0  0
 22 23  2  0  0  0  0
 24 25  1  0  0  0  0
 24 26  1  0  0  0  0
 26 27  2  0  0  0  0
 27 28  1  0  0  0  0
 27 29  1  0  0  0  0
 29 30  1  0  0  0  0
 29 31  2  0  0  0  0
 32 33  1  6  0  0  0
 32 38  1  0  0  0  0
 33 34  1  0  0  0  0
 33 59  2  0  0  0  0
 34 35  1  0  0  0  0
 34 55  2  0  0  0  0
 35 36  2  0  0  0  0
 35 37  1  0  0  0  0
 37 38  1  0  0  0  0
 37 42  2  0  0  0  0
 38 39  2  0  0  0  0
 39 40  1  0  0  0  0
 40 41  2  0  0  0  0
 41 42  1  0  0  0  0
 42 43  1  0  0  0  0
 44 43  1  6  0  0  0
 44 45  1  0  0  0  0
 44 53  1  0  0  0  0
 45 46  1  0  0  0  0
 46 47  1  6  0  0  0
 46 49  1  0  0  0  0
 47 48  1  0  0  0  0
 49 50  1  1  0  0  0
 49 51  1  0  0  0  0
 51 52  1  6  0  0  0
 51 53  1  0  0  0  0
 53 54  1  1  0  0  0
 55 56  1  0  0  0  0
 55 57  1  0  0  0  0
 57 58  2  0  0  0  0
 58 59  1  0  0  0  0
 58 60  1  0  0  0  0
 60 61  1  0  0  0  0
 60 62  2  0  0  0  0
M  END
>  <Index>
975

>  <ID>
HT1876

>  <class>
0

>  <apol>
115.29813

>  <ast_fraglike>
0

>  <ast_fraglike_ext>
0

>  <ast_violation>
3

>  <ast_violation_ext>
5

>  <a_acc>
20

>  <a_acid>
0

>  <a_aro>
24

>  <a_base>
0

>  <a_count>
100

>  <a_don>
14

>  <a_donacc>
34

>  <a_heavy>
62

>  <a_hyd>
36

>  <a_IC>
152.04848

>  <a_ICM>
1.5204848

>  <a_nB>
0

>  <a_nBr>
0

>  <a_nC>
42

>  <a_nCl>
0

>  <a_nF>
0

>  <a_nH>
38

>  <a_nI>
0

>  <a_nN>
0

>  <a_nO>
20

>  <a_nP>
0

>  <a_nS>
0

>  <balabanJ>
1.2081107

>  <BCUT_PEOE_0>
-2.7071633

>  <BCUT_PEOE_1>
-0.72679061

>  <BCUT_PEOE_2>
0.76999027

>  <BCUT_PEOE_3>
2.782042

>  <BCUT_SLOGP_0>
-2.9098845

>  <BCUT_SLOGP_1>
-0.79094046

>  <BCUT_SLOGP_2>
0.66584051

>  <BCUT_SLOGP_3>
2.7061012

>  <BCUT_SMR_0>
-2.510056

>  <BCUT_SMR_1>
-0.59747154

>  <BCUT_SMR_2>
0.85868025

>  <BCUT_SMR_3>
2.9626901

>  <bpol>
53.037865

>  <b_1rotN>
9

>  <b_1rotR>
0.13043478

>  <b_ar>
24

>  <b_count>
107

>  <b_double>
4

>  <b_heavy>
69

>  <b_max1len>
4

>  <b_rotN>
9

>  <b_rotR>
0.13043478

>  <b_single>
79

>  <b_triple>
0

>  <chi0>
44.634216

>  <chi0v>
31.748468

>  <chi0v_C>
23.115919

>  <chi0_C>
25.80579

>  <chi1>
29.47858

>  <chi1v>
18.983667

>  <chi1v_C>
13.268632

>  <chi1_C>
16.715477

>  <chiral>
12

>  <chiral_u>
0

>  <density>
0.8562727

>  <diameter>
19

>  <FCharge>
0

>  <GCUT_PEOE_0>
-0.79168862

>  <GCUT_PEOE_1>
-0.49198925

>  <GCUT_PEOE_2>
0.19695427

>  <GCUT_PEOE_3>
3.2542398

>  <GCUT_SLOGP_0>
-0.95538127

>  <GCUT_SLOGP_1>
-0.41197225

>  <GCUT_SLOGP_2>
0.13075632

>  <GCUT_SLOGP_3>
3.3149679

>  <GCUT_SMR_0>
-0.52252495

>  <GCUT_SMR_1>
-0.2816112

>  <GCUT_SMR_2>
0.26118353

>  <GCUT_SMR_3>
3.520124

>  <Kier1>
48.456627

>  <Kier2>
19.544321

>  <Kier3>
8.7278109

>  <KierA1>
38.921249

>  <KierA2>
15.639273

>  <KierA3>
6.9659085

>  <KierFlex>
9.8177423

>  <lip_acc>
20

>  <lip_don>
12

>  <lip_druglike>
0

>  <lip_violation>
3

>  <logP(o/w)>
0.152

>  <logS>
-6.05548

>  <mr>
20.264685

>  <mutagenic>
0

>  <nmol>
1

>  <opr_brigid>
44

>  <opr_leadlike>
0

>  <opr_nring>
8

>  <opr_nrot>
13

>  <opr_violation>
5

>  <PC+>
0

>  <PC->
0

>  <PEOE_PC+>
7.3883896

>  <PEOE_PC->
-7.3883896

>  <PEOE_RPC+>
0.039430216

>  <PEOE_RPC->
0.053105775

>  <PEOE_VSA+0>
12.947851

>  <PEOE_VSA+1>
174.94009

>  <PEOE_VSA+2>
39.239429

>  <PEOE_VSA+3>
39.226856

>  <PEOE_VSA+4>
123.89007

>  <PEOE_VSA+5>
29.416998

>  <PEOE_VSA+6>
0

>  <PEOE_VSA-0>
82.363579

>  <PEOE_VSA-1>
49.019615

>  <PEOE_VSA-2>
0

>  <PEOE_VSA-3>
0

>  <PEOE_VSA-4>
0

>  <PEOE_VSA-5>
54.267685

>  <PEOE_VSA-6>
103.22551

>  <PEOE_VSA_FHYD>
0.56134969

>  <PEOE_VSA_FNEG>
0.40770787

>  <PEOE_VSA_FPNEG>
0.22227921

>  <PEOE_VSA_FPOL>
0.43865028

>  <PEOE_VSA_FPOS>
0.59229213

>  <PEOE_VSA_FPPOS>
0.21637109

>  <PEOE_VSA_HYD>
397.73743

>  <PEOE_VSA_NEG>
288.8764

>  <PEOE_VSA_PNEG>
157.49319

>  <PEOE_VSA_POL>
310.80026

>  <PEOE_VSA_POS>
419.66129

>  <PEOE_VSA_PPOS>
153.30707

>  <petitjean>
0.47368422

>  <petitjeanSC>
0.89999998

>  <Q_PC+>
0

>  <Q_PC->
0

>  <Q_RPC+>
0

>  <Q_RPC->
0

>  <Q_VSA_FHYD>
1

>  <Q_VSA_FNEG>
0

>  <Q_VSA_FPNEG>
0

>  <Q_VSA_FPOL>
0

>  <Q_VSA_FPOS>
1

>  <Q_VSA_FPPOS>
0

>  <Q_VSA_HYD>
708.53766

>  <Q_VSA_NEG>
0

>  <Q_VSA_PNEG>
0

>  <Q_VSA_POL>
0

>  <Q_VSA_POS>
708.53766

>  <Q_VSA_PPOS>
0

>  <radius>
10

>  <reactive>
1

>  <rings>
8

>  <RPC+>
0

>  <RPC->
0

>  <rsynth>
0.74193549

>  <SlogP>
-1.0956

>  <SlogP_VSA0>
275.85205

>  <SlogP_VSA1>
26.86615

>  <SlogP_VSA2>
90.801971

>  <SlogP_VSA3>
92.622971

>  <SlogP_VSA4>
127.30461

>  <SlogP_VSA5>
0

>  <SlogP_VSA6>
8.8215923

>  <SlogP_VSA7>
176.43184

>  <SlogP_VSA8>
0

>  <SlogP_VSA9>
20.973713

>  <SMR>
20.23576

>  <SMR_VSA0>
117.44864

>  <SMR_VSA1>
275.85205

>  <SMR_VSA2>
50.770454

>  <SMR_VSA3>
130.45325

>  <SMR_VSA4>
0

>  <SMR_VSA5>
176.43184

>  <SMR_VSA6>
68.718666

>  <SMR_VSA7>
0

>  <TPSA>
347.95999

>  <VAdjEq>
0.22316766

>  <VAdjMa>
7.1085243

>  <VDistEq>
3.9564242

>  <VDistMa>
11.686922

>  <vdw_area>
708.53766

>  <vdw_vol>
1007.5599

>  <vsa_acc>
37.148865

>  <vsa_acid>
0

>  <vsa_base>
0

>  <vsa_don>
0

>  <vsa_hyd>
330.2066

>  <vsa_other>
75.751038

>  <vsa_pol>
227.08575

>  <Weight>
862.74597

>  <weinerPath>
14775

>  <weinerPol>
132

>  <zagreb>
350

$$$$