Clc1ccc(OC(C(OCCCOC(=O)c2cccnc2)=O)(C)C)cc1
  MOE2013           2D

 26 27  0  0  0  0  0  0  0  0999 V2000
    0.0000    0.0000    0.0000 Cl  0  0  0  0  0  0  0  0  0  0  0  0
   -1.3050   -0.7390    0.0000 C   0  0  0  0  0  0  0  0  0  0  0  0
   -2.5980    0.0220    0.0000 C   0  0  0  0  0  0  0  0  0  0  0  0
   -3.9030   -0.7170    0.0000 C   0  0  0  0  0  0  0  0  0  0  0  0
   -3.9160   -2.2170    0.0000 C   0  0  0  0  0  0  0  0  0  0  0  0
   -5.2210   -2.9560    0.0000 O   0  0  0  0  0  0  0  0  0  0  0  0
   -6.5140   -2.1950    0.0000 C   0  0  0  0  0  0  0  0  0  0  0  0
   -7.8070   -1.4340    0.0000 C   0  0  0  0  0  0  0  0  0  0  0  0
   -9.1120   -2.1730    0.0000 O   0  0  0  0  0  0  0  0  0  0  0  0
  -10.4050   -1.4120    0.0000 C   0  0  0  0  0  0  0  0  0  0  0  0
  -11.7100   -2.1510    0.0000 C   0  0  0  0  0  0  0  0  0  0  0  0
  -13.0030   -1.3910    0.0000 C   0  0  0  0  0  0  0  0  0  0  0  0
  -14.3080   -2.1300    0.0000 O   0  0  0  0  0  0  0  0  0  0  0  0
  -15.6010   -1.3690    0.0000 C   0  0  0  0  0  0  0  0  0  0  0  0
  -15.5880    0.1310    0.0000 O   0  0  0  0  0  0  0  0  0  0  0  0
  -16.9060   -2.1080    0.0000 C   0  0  0  0  0  0  0  0  0  0  0  0
  -16.9180   -3.6080    0.0000 C   0  0  0  0  0  0  0  0  0  0  0  0
  -18.2240   -4.3470    0.0000 C   0  0  0  0  0  0  0  0  0  0  0  0
  -19.5160   -3.5860    0.0000 C   0  0  0  0  0  0  0  0  0  0  0  0
  -19.5040   -2.0860    0.0000 N   0  0  0  0  0  0  0  0  0  0  0  0
  -18.1990   -1.3470    0.0000 C   0  0  0  0  0  0  0  0  0  0  0  0
   -7.7940    0.0660    0.0000 O   0  0  0  0  0  0  0  0  0  0  0  0
   -5.7530   -0.9030    0.0000 C   0  0  0  0  0  0  0  0  0  0  0  0
   -7.2750   -3.4880    0.0000 C   0  0  0  0  0  0  0  0  0  0  0  0
   -2.6230   -2.9780    0.0000 C   0  0  0  0  0  0  0  0  0  0  0  0
   -1.3180   -2.2390    0.0000 C   0  0  0  0  0  0  0  0  0  0  0  0
  1  2  1  0  0  0  0
  2  3  1  0  0  0  0
  2 26  2  0  0  0  0
  3  4  2  0  0  0  0
  4  5  1  0  0  0  0
  5  6  1  0  0  0  0
  5 25  2  0  0  0  0
  6  7  1  0  0  0  0
  7  8  1  0  0  0  0
  7 23  1  0  0  0  0
  7 24  1  0  0  0  0
  8  9  1  0  0  0  0
  8 22  2  0  0  0  0
  9 10  1  0  0  0  0
 10 11  1  0  0  0  0
 11 12  1  0  0  0  0
 12 13  1  0  0  0  0
 13 14  1  0  0  0  0
 14 15  2  0  0  0  0
 14 16  1  0  0  0  0
 16 17  1  0  0  0  0
 16 21  2  0  0  0  0
 17 18  2  0  0  0  0
 18 19  1  0  0  0  0
 19 20  2  0  0  0  0
 20 21  1  0  0  0  0
 25 26  1  0  0  0  0
M  END
>  <Index>
958

>  <ID>
HT1844

>  <class>
0

>  <apol>
54.065861

>  <ast_fraglike>
0

>  <ast_fraglike_ext>
0

>  <ast_violation>
3

>  <ast_violation_ext>
4

>  <a_acc>
4

>  <a_acid>
0

>  <a_aro>
12

>  <a_base>
0

>  <a_count>
46

>  <a_don>
0

>  <a_donacc>
4

>  <a_heavy>
26

>  <a_hyd>
18

>  <a_IC>
75.325027

>  <a_ICM>
1.6375005

>  <a_nB>
0

>  <a_nBr>
0

>  <a_nC>
19

>  <a_nCl>
1

>  <a_nF>
0

>  <a_nH>
20

>  <a_nI>
0

>  <a_nN>
1

>  <a_nO>
5

>  <a_nP>
0

>  <a_nS>
0

>  <balabanJ>
1.5728196

>  <BCUT_PEOE_0>
-2.5445337

>  <BCUT_PEOE_1>
-0.57728201

>  <BCUT_PEOE_2>
0.65271783

>  <BCUT_PEOE_3>
2.5989552

>  <BCUT_SLOGP_0>
-2.6314754

>  <BCUT_SLOGP_1>
-0.48902202

>  <BCUT_SLOGP_2>
0.73873311

>  <BCUT_SLOGP_3>
2.5433433

>  <BCUT_SMR_0>
-2.3253181

>  <BCUT_SMR_1>
-0.44852304

>  <BCUT_SMR_2>
0.78866482

>  <BCUT_SMR_3>
2.8107235

>  <bpol>
31.268141

>  <b_1rotN>
8

>  <b_1rotR>
0.2962963

>  <b_ar>
12

>  <b_count>
47

>  <b_double>
2

>  <b_heavy>
27

>  <b_max1len>
4

>  <b_rotN>
10

>  <b_rotR>
0.37037036

>  <b_single>
33

>  <b_triple>
0

>  <chi0>
18.993353

>  <chi0v>
15.362471

>  <chi0v_C>
11.740123

>  <chi0_C>
13.164926

>  <chi1>
12.381847

>  <chi1v>
8.4508238

>  <chi1v_C>
5.5653839

>  <chi1_C>
7.0714984

>  <chiral>
0

>  <chiral_u>
0

>  <density>
0.7863152

>  <diameter>
17

>  <FCharge>
0

>  <GCUT_PEOE_0>
-0.76586211

>  <GCUT_PEOE_1>
-0.37800694

>  <GCUT_PEOE_2>
0.018891029

>  <GCUT_PEOE_3>
2.494143

>  <GCUT_SLOGP_0>
-0.93330866

>  <GCUT_SLOGP_1>
-0.26386139

>  <GCUT_SLOGP_2>
0.15113848

>  <GCUT_SLOGP_3>
2.5311172

>  <GCUT_SMR_0>
-0.52282405

>  <GCUT_SMR_1>
-0.20015161

>  <GCUT_SMR_2>
0.19305076

>  <GCUT_SMR_3>
2.7288287

>  <Kier1>
22.29081

>  <Kier2>
11.111111

>  <Kier3>
7.8810234

>  <KierA1>
17.995138

>  <KierA2>
8.8882742

>  <KierA3>
6.2632689

>  <KierFlex>
6.1517587

>  <lip_acc>
6

>  <lip_don>
0

>  <lip_druglike>
1

>  <lip_violation>
0

>  <logP(o/w)>
3.60974

>  <logS>
-4.35184

>  <mr>
10.024688

>  <mutagenic>
0

>  <nmol>
1

>  <opr_brigid>
12

>  <opr_leadlike>
1

>  <opr_nring>
2

>  <opr_nrot>
8

>  <opr_violation>
0

>  <PC+>
0

>  <PC->
0

>  <PEOE_PC+>
2.1083925

>  <PEOE_PC->
-2.1083925

>  <PEOE_RPC+>
0.14004996

>  <PEOE_RPC->
0.15594797

>  <PEOE_VSA+0>
72.134666

>  <PEOE_VSA+1>
91.75428

>  <PEOE_VSA+2>
0

>  <PEOE_VSA+3>
0

>  <PEOE_VSA+4>
0

>  <PEOE_VSA+5>
29.416998

>  <PEOE_VSA+6>
0

>  <PEOE_VSA-0>
119.72609

>  <PEOE_VSA-1>
29.581947

>  <PEOE_VSA-2>
0

>  <PEOE_VSA-3>
0

>  <PEOE_VSA-4>
0

>  <PEOE_VSA-5>
32.816418

>  <PEOE_VSA-6>
7.5112681

>  <PEOE_VSA_FHYD>
0.81787127

>  <PEOE_VSA_FNEG>
0.49520788

>  <PEOE_VSA_FPNEG>
0.10531026

>  <PEOE_VSA_FPOL>
0.18212874

>  <PEOE_VSA_FPOS>
0.50479215

>  <PEOE_VSA_FPPOS>
0.076818481

>  <PEOE_VSA_HYD>
313.19699

>  <PEOE_VSA_NEG>
189.63573

>  <PEOE_VSA_PNEG>
40.327686

>  <PEOE_VSA_POL>
69.744682

>  <PEOE_VSA_POS>
193.30594

>  <PEOE_VSA_PPOS>
29.416998

>  <petitjean>
0.47058824

>  <petitjeanSC>
0.8888889

>  <Q_PC+>
0

>  <Q_PC->
0

>  <Q_RPC+>
0

>  <Q_RPC->
0

>  <Q_VSA_FHYD>
1

>  <Q_VSA_FNEG>
0

>  <Q_VSA_FPNEG>
0

>  <Q_VSA_FPOL>
0

>  <Q_VSA_FPOS>
1

>  <Q_VSA_FPPOS>
0

>  <Q_VSA_HYD>
382.94168

>  <Q_VSA_NEG>
0

>  <Q_VSA_PNEG>
0

>  <Q_VSA_POL>
0

>  <Q_VSA_POS>
382.94168

>  <Q_VSA_PPOS>
0

>  <radius>
9

>  <reactive>
0

>  <rings>
2

>  <RPC+>
0

>  <RPC->
0

>  <rsynth>
1

>  <SlogP>
3.6826999

>  <SlogP_VSA0>
10.999887

>  <SlogP_VSA1>
32.276459

>  <SlogP_VSA2>
45.861992

>  <SlogP_VSA3>
41.852516

>  <SlogP_VSA4>
27.047791

>  <SlogP_VSA5>
0

>  <SlogP_VSA6>
3.5006065

>  <SlogP_VSA7>
140.28783

>  <SlogP_VSA8>
18.868406

>  <SlogP_VSA9>
111.04411

>  <SMR>
9.6254501

>  <SMR_VSA0>
69.724205

>  <SMR_VSA1>
27.785418

>  <SMR_VSA2>
0

>  <SMR_VSA3>
11.929609

>  <SMR_VSA4>
0

>  <SMR_VSA5>
159.15622

>  <SMR_VSA6>
57.343445

>  <SMR_VSA7>
105.80067

>  <TPSA>
74.720001

>  <VAdjEq>
0.40176207

>  <VAdjMa>
5.7548876

>  <VDistEq>
3.8476455

>  <VDistMa>
9.0551376

>  <vdw_area>
382.94168

>  <vdw_vol>
480.49942

>  <vsa_acc>
35.320175

>  <vsa_acid>
0

>  <vsa_base>
0

>  <vsa_don>
0

>  <vsa_hyd>
298.96109

>  <vsa_other>
34.424511

>  <vsa_pol>
35.320175

>  <Weight>
377.82401

>  <weinerPath>
2117

>  <weinerPol>
35

>  <zagreb>
126

$$$$