O1c2cc(ccc2OC1)C=CC(O)C(C)(C)C
  MOE2013           2D

 17 18  0  0  1  0  0  0  0  0999 V2000
    0.0000    0.0000    0.0000 O   0  0  0  0  0  0  0  0  0  0  0  0
   -1.4680   -0.3060    0.0000 C   0  0  0  0  0  0  0  0  0  0  0  0
   -2.6790    0.5800    0.0000 C   0  0  0  0  0  0  0  0  0  0  0  0
   -4.0510   -0.0250    0.0000 C   0  0  0  0  0  0  0  0  0  0  0  0
   -4.2140   -1.5160    0.0000 C   0  0  0  0  0  0  0  0  0  0  0  0
   -3.0040   -2.4020    0.0000 C   0  0  0  0  0  0  0  0  0  0  0  0
   -1.6310   -1.7970    0.0000 C   0  0  0  0  0  0  0  0  0  0  0  0
   -0.2630   -2.4130    0.0000 O   0  0  0  0  0  0  0  0  0  0  0  0
    0.7450   -1.3020    0.0000 C   0  0  0  0  0  0  0  0  0  0  0  0
   -5.2610    0.8620    0.0000 C   0  0  0  0  0  0  0  0  0  0  0  0
   -6.6340    0.2570    0.0000 C   0  0  0  0  0  0  0  0  0  0  0  0
   -7.8440    1.1430    0.0000 C   0  0  3  0  0  0  0  0  0  0  0  0
   -7.6820    2.6340    0.0000 O   0  0  0  0  0  0  0  0  0  0  0  0
   -9.2170    0.5380    0.0000 C   0  0  0  0  0  0  0  0  0  0  0  0
   -9.8220    1.9110    0.0000 C   0  0  0  0  0  0  0  0  0  0  0  0
   -8.6120   -0.8340    0.0000 C   0  0  0  0  0  0  0  0  0  0  0  0
  -10.5890   -0.0660    0.0000 C   0  0  0  0  0  0  0  0  0  0  0  0
  1  2  1  0  0  0  0
  1  9  1  0  0  0  0
  2  3  1  0  0  0  0
  2  7  2  0  0  0  0
  3  4  2  0  0  0  0
  4  5  1  0  0  0  0
  4 10  1  0  0  0  0
  5  6  2  0  0  0  0
  6  7  1  0  0  0  0
  7  8  1  0  0  0  0
  8  9  1  0  0  0  0
 10 11  2  3  0  0  0
 11 12  1  0  0  0  0
 12 13  1  0  0  0  0
 12 14  1  0  0  0  0
 14 15  1  0  0  0  0
 14 16  1  0  0  0  0
 14 17  1  0  0  0  0
M  END
>  <Index>
999

>  <ID>
HT1917

>  <class>
0

>  <apol>
39.048275

>  <ast_fraglike>
1

>  <ast_fraglike_ext>
1

>  <ast_violation>
0

>  <ast_violation_ext>
0

>  <a_acc>
3

>  <a_acid>
0

>  <a_aro>
6

>  <a_base>
0

>  <a_count>
35

>  <a_don>
1

>  <a_donacc>
4

>  <a_heavy>
17

>  <a_hyd>
13

>  <a_IC>
46.408398

>  <a_ICM>
1.3259543

>  <a_nB>
0

>  <a_nBr>
0

>  <a_nC>
14

>  <a_nCl>
0

>  <a_nF>
0

>  <a_nH>
18

>  <a_nI>
0

>  <a_nN>
0

>  <a_nO>
3

>  <a_nP>
0

>  <a_nS>
0

>  <balabanJ>
1.7416553

>  <BCUT_PEOE_0>
-2.6903467

>  <BCUT_PEOE_1>
-0.48638958

>  <BCUT_PEOE_2>
0.55594605

>  <BCUT_PEOE_3>
2.6552408

>  <BCUT_SLOGP_0>
-2.6495955

>  <BCUT_SLOGP_1>
-0.46080524

>  <BCUT_SLOGP_2>
0.52557629

>  <BCUT_SLOGP_3>
2.7218828

>  <BCUT_SMR_0>
-2.4458728

>  <BCUT_SMR_1>
-0.34294143

>  <BCUT_SMR_2>
0.72864991

>  <BCUT_SMR_3>
2.9001834

>  <bpol>
23.509726

>  <b_1rotN>
2

>  <b_1rotR>
0.11111111

>  <b_ar>
6

>  <b_count>
36

>  <b_double>
1

>  <b_heavy>
18

>  <b_max1len>
5

>  <b_rotN>
3

>  <b_rotR>
0.16666667

>  <b_single>
29

>  <b_triple>
0

>  <chi0>
12.466255

>  <chi0v>
10.434918

>  <chi0v_C>
9.1712084

>  <chi0_C>
10.052042

>  <chi1>
7.9653449

>  <chi1v>
5.7258482

>  <chi1v_C>
4.4820509

>  <chi1_C>
5.5714984

>  <chiral>
1

>  <chiral_u>
1

>  <density>
0.70074648

>  <diameter>
9

>  <FCharge>
0

>  <GCUT_PEOE_0>
-0.79532784

>  <GCUT_PEOE_1>
-0.36040637

>  <GCUT_PEOE_2>
0.0058404105

>  <GCUT_PEOE_3>
2.501622

>  <GCUT_SLOGP_0>
-0.94356966

>  <GCUT_SLOGP_1>
-0.29109591

>  <GCUT_SLOGP_2>
0.046749491

>  <GCUT_SLOGP_3>
2.6134479

>  <GCUT_SMR_0>
-0.53125077

>  <GCUT_SMR_1>
-0.18898706

>  <GCUT_SMR_2>
0.15396021

>  <GCUT_SMR_3>
2.7562423

>  <Kier1>
13.432098

>  <Kier2>
5.3254437

>  <Kier3>
3.4844444

>  <KierA1>
11.024301

>  <KierA2>
4.3127642

>  <KierA3>
2.7918952

>  <KierFlex>
2.7967772

>  <lip_acc>
3

>  <lip_don>
1

>  <lip_druglike>
1

>  <lip_violation>
0

>  <logP(o/w)>
3.566

>  <logS>
-2.54934

>  <mr>
6.6284895

>  <mutagenic>
0

>  <nmol>
1

>  <opr_brigid>
11

>  <opr_leadlike>
1

>  <opr_nring>
2

>  <opr_nrot>
3

>  <opr_violation>
0

>  <PC+>
0

>  <PC->
0

>  <PEOE_PC+>
1.4335669

>  <PEOE_PC->
-1.4335669

>  <PEOE_RPC+>
0.1466483

>  <PEOE_RPC->
0.27012059

>  <PEOE_VSA+0>
38.388474

>  <PEOE_VSA+1>
39.028015

>  <PEOE_VSA+2>
16.917038

>  <PEOE_VSA+3>
21.201273

>  <PEOE_VSA+4>
10.324173

>  <PEOE_VSA+5>
0

>  <PEOE_VSA+6>
0

>  <PEOE_VSA-0>
26.718348

>  <PEOE_VSA-1>
93.007744

>  <PEOE_VSA-2>
0

>  <PEOE_VSA-3>
0

>  <PEOE_VSA-4>
0

>  <PEOE_VSA-5>
0

>  <PEOE_VSA-6>
12.775052

>  <PEOE_VSA_FHYD>
0.91059291

>  <PEOE_VSA_FNEG>
0.51285446

>  <PEOE_VSA_FPNEG>
0.049446691

>  <PEOE_VSA_FPOL>
0.089407086

>  <PEOE_VSA_FPOS>
0.48714551

>  <PEOE_VSA_FPPOS>
0.039960396

>  <PEOE_VSA_HYD>
235.26089

>  <PEOE_VSA_NEG>
132.50114

>  <PEOE_VSA_PNEG>
12.775052

>  <PEOE_VSA_POL>
23.099226

>  <PEOE_VSA_POS>
125.85898

>  <PEOE_VSA_PPOS>
10.324173

>  <petitjean>
0.44444445

>  <petitjeanSC>
0.80000001

>  <Q_PC+>
0

>  <Q_PC->
0

>  <Q_RPC+>
0

>  <Q_RPC->
0

>  <Q_VSA_FHYD>
1

>  <Q_VSA_FNEG>
0

>  <Q_VSA_FPNEG>
0

>  <Q_VSA_FPOL>
0

>  <Q_VSA_FPOS>
1

>  <Q_VSA_FPPOS>
0

>  <Q_VSA_HYD>
258.36011

>  <Q_VSA_NEG>
0

>  <Q_VSA_PNEG>
0

>  <Q_VSA_POL>
0

>  <Q_VSA_POS>
258.36011

>  <Q_VSA_PPOS>
0

>  <radius>
5

>  <reactive>
0

>  <rings>
2

>  <RPC+>
0

>  <RPC->
0

>  <rsynth>
0.05882353

>  <SlogP>
2.8355

>  <SlogP_VSA0>
47.385002

>  <SlogP_VSA1>
0

>  <SlogP_VSA2>
6.4686494

>  <SlogP_VSA3>
22.984112

>  <SlogP_VSA4>
3.185575

>  <SlogP_VSA5>
0

>  <SlogP_VSA6>
0

>  <SlogP_VSA7>
70.572739

>  <SlogP_VSA8>
17.643185

>  <SlogP_VSA9>
110.4649

>  <SMR>
6.70608

>  <SMR_VSA0>
0

>  <SMR_VSA1>
47.385002

>  <SMR_VSA2>
0

>  <SMR_VSA3>
20.141081

>  <SMR_VSA4>
0

>  <SMR_VSA5>
70.572739

>  <SMR_VSA6>
40.627296

>  <SMR_VSA7>
99.978043

>  <TPSA>
38.689999

>  <VAdjEq>
0.54234898

>  <VAdjMa>
5.1699252

>  <VDistEq>
3.0643876

>  <VDistMa>
7.8427401

>  <vdw_area>
258.36011

>  <vdw_vol>
334.35059

>  <vsa_acc>
5.0075121

>  <vsa_acid>
0

>  <vsa_base>
0

>  <vsa_don>
0

>  <vsa_hyd>
194.85191

>  <vsa_other>
28.308455

>  <vsa_pol>
18.574432

>  <Weight>
234.295

>  <weinerPath>
563

>  <weinerPol>
22

>  <zagreb>
88

$$$$