[nH]1c2ncnc(c2cc1)-c1cn(nc1)[C@H](CC#N)C1CCCC1
  MOE2013           2D

 23 26  0  0  1  0  0  0  0  0999 V2000
    0.0000    0.0000    0.0000 N   0  0  0  0  0  0  0  0  0  0  0  0
   -1.2330   -0.8540    0.0000 C   0  0  0  0  0  0  0  0  0  0  0  0
   -1.4240   -2.3420    0.0000 N   0  0  0  0  0  0  0  0  0  0  0  0
   -2.8080   -2.9210    0.0000 C   0  0  0  0  0  0  0  0  0  0  0  0
   -4.0010   -2.0120    0.0000 N   0  0  0  0  0  0  0  0  0  0  0  0
   -3.8100   -0.5240    0.0000 C   0  0  0  0  0  0  0  0  0  0  0  0
   -2.4260    0.0550    0.0000 C   0  0  0  0  0  0  0  0  0  0  0  0
   -1.9310    1.4710    0.0000 C   0  0  0  0  0  0  0  0  0  0  0  0
   -0.4310    1.4370    0.0000 C   0  0  0  0  0  0  0  0  0  0  0  0
   -5.0030    0.3850    0.0000 C   0  0  0  0  0  0  0  0  0  0  0  0
   -6.4400   -0.0460    0.0000 C   0  0  0  0  0  0  0  0  0  0  0  0
   -7.2940    1.1870    0.0000 N   0  0  0  0  0  0  0  0  0  0  0  0
   -6.3850    2.3800    0.0000 N   0  0  0  0  0  0  0  0  0  0  0  0
   -4.9690    1.8850    0.0000 C   0  0  0  0  0  0  0  0  0  0  0  0
   -8.7940    1.2210    0.0000 C   0  0  2  0  0  0  0  0  0  0  0  0
   -9.5730   -0.0610    0.0000 C   0  0  0  0  0  0  0  0  0  0  0  0
  -11.0730   -0.0270    0.0000 C   0  0  0  0  0  0  0  0  0  0  0  0
  -12.5720    0.0070    0.0000 N   0  0  0  0  0  0  0  0  0  0  0  0
   -9.5140    2.5370    0.0000 C   0  0  0  0  0  0  0  0  0  0  0  0
  -11.0020    2.7270    0.0000 C   0  0  0  0  0  0  0  0  0  0  0  0
  -11.2800    4.2010    0.0000 C   0  0  0  0  0  0  0  0  0  0  0  0
   -9.9650    4.9220    0.0000 C   0  0  0  0  0  0  0  0  0  0  0  0
   -8.8730    3.8930    0.0000 C   0  0  0  0  0  0  0  0  0  0  0  0
  1  2  1  0  0  0  0
  1  9  1  0  0  0  0
  2  3  2  0  0  0  0
  2  7  1  0  0  0  0
  3  4  1  0  0  0  0
  4  5  2  0  0  0  0
  5  6  1  0  0  0  0
  6  7  2  0  0  0  0
  6 10  1  0  0  0  0
  7  8  1  0  0  0  0
  8  9  2  0  0  0  0
 10 11  2  0  0  0  0
 10 14  1  0  0  0  0
 11 12  1  0  0  0  0
 12 13  1  0  0  0  0
 13 14  2  0  0  0  0
 15 12  1  6  0  0  0
 15 16  1  0  0  0  0
 15 19  1  0  0  0  0
 16 17  1  0  0  0  0
 17 18  3  0  0  0  0
 19 20  1  0  0  0  0
 19 23  1  0  0  0  0
 20 21  1  0  0  0  0
 21 22  1  0  0  0  0
 22 23  1  0  0  0  0
M  END
>  <Index>
964

>  <ID>
HT1858

>  <class>
0

>  <apol>
48.522274

>  <ast_fraglike>
0

>  <ast_fraglike_ext>
0

>  <ast_violation>
3

>  <ast_violation_ext>
4

>  <a_acc>
5

>  <a_acid>
0

>  <a_aro>
14

>  <a_base>
0

>  <a_count>
41

>  <a_don>
2

>  <a_donacc>
7

>  <a_heavy>
23

>  <a_hyd>
14

>  <a_IC>
59.60434

>  <a_ICM>
1.4537643

>  <a_nB>
0

>  <a_nBr>
0

>  <a_nC>
17

>  <a_nCl>
0

>  <a_nF>
0

>  <a_nH>
18

>  <a_nI>
0

>  <a_nN>
6

>  <a_nO>
0

>  <a_nP>
0

>  <a_nS>
0

>  <balabanJ>
1.3931485

>  <BCUT_PEOE_0>
-2.6354363

>  <BCUT_PEOE_1>
-0.56596673

>  <BCUT_PEOE_2>
0.58155537

>  <BCUT_PEOE_3>
2.7796166

>  <BCUT_SLOGP_0>
-2.5436056

>  <BCUT_SLOGP_1>
-0.49627987

>  <BCUT_SLOGP_2>
0.65171188

>  <BCUT_SLOGP_3>
2.9112735

>  <BCUT_SMR_0>
-2.3992734

>  <BCUT_SMR_1>
-0.40975866

>  <BCUT_SMR_2>
0.74318999

>  <BCUT_SMR_3>
3.0254917

>  <bpol>
25.617725

>  <b_1rotN>
4

>  <b_1rotR>
0.15384616

>  <b_ar>
15

>  <b_count>
44

>  <b_double>
0

>  <b_heavy>
26

>  <b_max1len>
4

>  <b_rotN>
5

>  <b_rotR>
0.1923077

>  <b_single>
28

>  <b_triple>
1

>  <chi0>
15.648053

>  <chi0v>
12.813054

>  <chi0v_C>
10.076985

>  <chi0_C>
11.242276

>  <chi1>
11.364505

>  <chi1v>
8.0614805

>  <chi1v_C>
5.3609905

>  <chi1_C>
6.2828231

>  <chiral>
1

>  <chiral_u>
0

>  <density>
0.73183405

>  <diameter>
10

>  <FCharge>
0

>  <GCUT_PEOE_0>
-0.84561223

>  <GCUT_PEOE_1>
-0.41549656

>  <GCUT_PEOE_2>
0.087480739

>  <GCUT_PEOE_3>
2.7115877

>  <GCUT_SLOGP_0>
-0.89595747

>  <GCUT_SLOGP_1>
-0.31041595

>  <GCUT_SLOGP_2>
0.16981831

>  <GCUT_SLOGP_3>
2.8191457

>  <GCUT_SMR_0>
-0.53357238

>  <GCUT_SMR_1>
-0.19625992

>  <GCUT_SMR_2>
0.23631305

>  <GCUT_SMR_3>
2.9623241

>  <Kier1>
16.467455

>  <Kier2>
7.4861112

>  <Kier3>
3.3833141

>  <KierA1>
11.53125

>  <KierA2>
5.1495948

>  <KierA3>
2.2959919

>  <KierFlex>
2.5817943

>  <lip_acc>
6

>  <lip_don>
1

>  <lip_druglike>
1

>  <lip_violation>
0

>  <logP(o/w)>
1.405

>  <logS>
-4.4583702

>  <mr>
8.8154745

>  <mutagenic>
0

>  <nmol>
1

>  <opr_brigid>
20

>  <opr_leadlike>
1

>  <opr_nring>
4

>  <opr_nrot>
6

>  <opr_violation>
0

>  <PC+>
0

>  <PC->
0

>  <PEOE_PC+>
1.6925581

>  <PEOE_PC->
-1.6925581

>  <PEOE_RPC+>
0.098525308

>  <PEOE_RPC->
0.20426761

>  <PEOE_VSA+0>
84.828156

>  <PEOE_VSA+1>
76.919174

>  <PEOE_VSA+2>
36.692875

>  <PEOE_VSA+3>
8.6190128

>  <PEOE_VSA+4>
0

>  <PEOE_VSA+5>
0

>  <PEOE_VSA+6>
0

>  <PEOE_VSA-0>
29.65753

>  <PEOE_VSA-1>
17.402626

>  <PEOE_VSA-2>
0

>  <PEOE_VSA-3>
27.163528

>  <PEOE_VSA-4>
11.365152

>  <PEOE_VSA-5>
0

>  <PEOE_VSA-6>
0.13689101

>  <PEOE_VSA_FHYD>
0.96071506

>  <PEOE_VSA_FNEG>
0.29279417

>  <PEOE_VSA_FPNEG>
0.039284952

>  <PEOE_VSA_FPOL>
0.039284952

>  <PEOE_VSA_FPOS>
0.70720583

>  <PEOE_VSA_FPPOS>
0

>  <PEOE_VSA_HYD>
281.2829

>  <PEOE_VSA_NEG>
85.725731

>  <PEOE_VSA_PNEG>
11.502043

>  <PEOE_VSA_POL>
11.502043

>  <PEOE_VSA_POS>
207.05922

>  <PEOE_VSA_PPOS>
0

>  <petitjean>
0.5

>  <petitjeanSC>
1

>  <Q_PC+>
0

>  <Q_PC->
0

>  <Q_RPC+>
0

>  <Q_RPC->
0

>  <Q_VSA_FHYD>
1

>  <Q_VSA_FNEG>
0

>  <Q_VSA_FPNEG>
0

>  <Q_VSA_FPOL>
0

>  <Q_VSA_FPOS>
1

>  <Q_VSA_FPPOS>
0

>  <Q_VSA_HYD>
292.78494

>  <Q_VSA_NEG>
0

>  <Q_VSA_PNEG>
0

>  <Q_VSA_POL>
0

>  <Q_VSA_POS>
292.78494

>  <Q_VSA_PPOS>
0

>  <radius>
5

>  <reactive>
0

>  <rings>
4

>  <RPC+>
0

>  <RPC->
0

>  <rsynth>
1

>  <SlogP>
3.5618839

>  <SlogP_VSA0>
0

>  <SlogP_VSA1>
52.010635

>  <SlogP_VSA2>
16.78553

>  <SlogP_VSA3>
47.661102

>  <SlogP_VSA4>
4.4107962

>  <SlogP_VSA5>
0

>  <SlogP_VSA6>
0

>  <SlogP_VSA7>
96.302383

>  <SlogP_VSA8>
98.323997

>  <SlogP_VSA9>
0

>  <SMR>
8.6445704

>  <SMR_VSA0>
0

>  <SMR_VSA1>
83.069992

>  <SMR_VSA2>
21.196325

>  <SMR_VSA3>
20.583715

>  <SMR_VSA4>
10.230597

>  <SMR_VSA5>
180.41382

>  <SMR_VSA6>
0

>  <SMR_VSA7>
0

>  <TPSA>
83.18

>  <VAdjEq>
0.46357921

>  <VAdjMa>
5.7004399

>  <VDistEq>
3.232656

>  <VDistMa>
8.7570992

>  <vdw_area>
292.78494

>  <vdw_vol>
418.63727

>  <vsa_acc>
32.846104

>  <vsa_acid>
0

>  <vsa_base>
0

>  <vsa_don>
0

>  <vsa_hyd>
175.7742

>  <vsa_other>
56.280586

>  <vsa_pol>
44.211258

>  <Weight>
306.37299

>  <weinerPath>
1191

>  <weinerPol>
33

>  <zagreb>
124

$$$$