O(C(=O)C1(N(C(=O)CC)c2ccccc2)CCN(CC1)CCC(OC)=O)C
  MOE2013           2D

 27 28  0  0  0  0  0  0  0  0999 V2000
    0.0000    0.0000    0.0000 O   0  0  0  0  0  0  0  0  0  0  0  0
    0.0000   -1.5000    0.0000 C   0  0  0  0  0  0  0  0  0  0  0  0
   -1.2990   -2.2500    0.0000 O   0  0  0  0  0  0  0  0  0  0  0  0
    1.3000   -2.2500    0.0000 C   0  0  0  0  0  0  0  0  0  0  0  0
    0.1510   -3.2140    0.0000 N   0  0  0  0  0  0  0  0  0  0  0  0
   -1.3440   -3.0840    0.0000 C   0  0  0  0  0  0  0  0  0  0  0  0
   -2.2040   -4.3130    0.0000 O   0  0  0  0  0  0  0  0  0  0  0  0
   -1.9780   -1.7240    0.0000 C   0  0  0  0  0  0  0  0  0  0  0  0
   -3.4720   -1.5940    0.0000 C   0  0  0  0  0  0  0  0  0  0  0  0
    0.4120   -4.6910    0.0000 C   0  0  0  0  0  0  0  0  0  0  0  0
    1.8210   -5.2040    0.0000 C   0  0  0  0  0  0  0  0  0  0  0  0
    2.0820   -6.6810    0.0000 C   0  0  0  0  0  0  0  0  0  0  0  0
    0.9330   -7.6460    0.0000 C   0  0  0  0  0  0  0  0  0  0  0  0
   -0.4760   -7.1330    0.0000 C   0  0  0  0  0  0  0  0  0  0  0  0
   -0.7370   -5.6560    0.0000 C   0  0  0  0  0  0  0  0  0  0  0  0
    2.0500   -3.5490    0.0000 C   0  0  0  0  0  0  0  0  0  0  0  0
    3.5500   -3.5480    0.0000 C   0  0  0  0  0  0  0  0  0  0  0  0
    4.3000   -2.2490    0.0000 N   0  0  0  0  0  0  0  0  0  0  0  0
    3.5490   -0.9500    0.0000 C   0  0  0  0  0  0  0  0  0  0  0  0
    2.0490   -0.9500    0.0000 C   0  0  0  0  0  0  0  0  0  0  0  0
    5.8000   -2.2490    0.0000 C   0  0  0  0  0  0  0  0  0  0  0  0
    6.5490   -0.9490    0.0000 C   0  0  0  0  0  0  0  0  0  0  0  0
    8.0490   -0.9490    0.0000 C   0  0  0  0  0  0  0  0  0  0  0  0
    8.7990    0.3500    0.0000 O   0  0  0  0  0  0  0  0  0  0  0  0
   10.2990    0.3510    0.0000 C   0  0  0  0  0  0  0  0  0  0  0  0
    8.8000   -2.2480    0.0000 O   0  0  0  0  0  0  0  0  0  0  0  0
   -1.2990    0.7500    0.0000 C   0  0  0  0  0  0  0  0  0  0  0  0
  1  2  1  0  0  0  0
  1 27  1  0  0  0  0
  2  3  2  0  0  0  0
  2  4  1  0  0  0  0
  4  5  1  0  0  0  0
  4 16  1  0  0  0  0
  4 20  1  0  0  0  0
  5  6  1  0  0  0  0
  5 10  1  0  0  0  0
  6  7  2  0  0  0  0
  6  8  1  0  0  0  0
  8  9  1  0  0  0  0
 10 11  1  0  0  0  0
 10 15  2  0  0  0  0
 11 12  2  0  0  0  0
 12 13  1  0  0  0  0
 13 14  2  0  0  0  0
 14 15  1  0  0  0  0
 16 17  1  0  0  0  0
 17 18  1  0  0  0  0
 18 19  1  0  0  0  0
 18 21  1  0  0  0  0
 19 20  1  0  0  0  0
 21 22  1  0  0  0  0
 22 23  1  0  0  0  0
 23 24  1  0  0  0  0
 23 26  2  0  0  0  0
 24 25  1  0  0  0  0
M  END
>  <Index>
934

>  <ID>
HT1808

>  <class>
0

>  <apol>
60.080204

>  <ast_fraglike>
0

>  <ast_fraglike_ext>
0

>  <ast_violation>
2

>  <ast_violation_ext>
3

>  <a_acc>
4

>  <a_acid>
0

>  <a_aro>
6

>  <a_base>
0

>  <a_count>
55

>  <a_don>
0

>  <a_donacc>
4

>  <a_heavy>
27

>  <a_hyd>
17

>  <a_IC>
83.320641

>  <a_ICM>
1.5149208

>  <a_nB>
0

>  <a_nBr>
0

>  <a_nC>
20

>  <a_nCl>
0

>  <a_nF>
0

>  <a_nH>
28

>  <a_nI>
0

>  <a_nN>
2

>  <a_nO>
5

>  <a_nP>
0

>  <a_nS>
0

>  <balabanJ>
2.1448035

>  <BCUT_PEOE_0>
-2.7921171

>  <BCUT_PEOE_1>
-0.47262678

>  <BCUT_PEOE_2>
0.33301875

>  <BCUT_PEOE_3>
2.7809958

>  <BCUT_SLOGP_0>
-2.8826516

>  <BCUT_SLOGP_1>
-0.39779109

>  <BCUT_SLOGP_2>
0.35510355

>  <BCUT_SLOGP_3>
2.7100732

>  <BCUT_SMR_0>
-2.5321999

>  <BCUT_SMR_1>
-0.25326496

>  <BCUT_SMR_2>
0.54770052

>  <BCUT_SMR_3>
3.0309768

>  <bpol>
41.275795

>  <b_1rotN>
8

>  <b_1rotR>
0.2857143

>  <b_ar>
6

>  <b_count>
56

>  <b_double>
3

>  <b_heavy>
28

>  <b_max1len>
3

>  <b_rotN>
10

>  <b_rotR>
0.35714287

>  <b_single>
47

>  <b_triple>
0

>  <chi0>
19.863596

>  <chi0v>
16.272167

>  <chi0v_C>
13.336499

>  <chi0_C>
14.294683

>  <chi1>
12.978729

>  <chi1v>
9.2386246

>  <chi1v_C>
5.7820039

>  <chi1_C>
6.8358817

>  <chiral>
0

>  <chiral_u>
0

>  <density>
0.7272383

>  <diameter>
13

>  <FCharge>
0

>  <GCUT_PEOE_0>
-0.8555032

>  <GCUT_PEOE_1>
-0.42016366

>  <GCUT_PEOE_2>
-0.075868651

>  <GCUT_PEOE_3>
2.9189384

>  <GCUT_SLOGP_0>
-1.0024387

>  <GCUT_SLOGP_1>
-0.28343952

>  <GCUT_SLOGP_2>
0.02567086

>  <GCUT_SLOGP_3>
2.9069684

>  <GCUT_SMR_0>
-0.51910907

>  <GCUT_SMR_1>
-0.17446409

>  <GCUT_SMR_2>
0.12793106

>  <GCUT_SMR_3>
3.1628366

>  <Kier1>
23.280613

>  <Kier2>
11.253463

>  <Kier3>
5.7577853

>  <KierA1>
18.709242

>  <KierA2>
8.9629698

>  <KierA3>
4.5553761

>  <KierFlex>
6.2107544

>  <lip_acc>
7

>  <lip_don>
0

>  <lip_druglike>
1

>  <lip_violation>
0

>  <logP(o/w)>
2.0910001

>  <logS>
-2.83864

>  <mr>
10.336605

>  <mutagenic>
0

>  <nmol>
1

>  <opr_brigid>
12

>  <opr_leadlike>
1

>  <opr_nring>
2

>  <opr_nrot>
9

>  <opr_violation>
0

>  <PC+>
0

>  <PC->
0

>  <PEOE_PC+>
2.3616018

>  <PEOE_PC->
-2.3616018

>  <PEOE_RPC+>
0.12208697

>  <PEOE_RPC->
0.13486189

>  <PEOE_VSA+0>
186.18604

>  <PEOE_VSA+1>
46.919247

>  <PEOE_VSA+2>
0

>  <PEOE_VSA+3>
0

>  <PEOE_VSA+4>
12.949531

>  <PEOE_VSA+5>
29.416998

>  <PEOE_VSA+6>
0

>  <PEOE_VSA-0>
41.912434

>  <PEOE_VSA-1>
55.51239

>  <PEOE_VSA-2>
0

>  <PEOE_VSA-3>
0

>  <PEOE_VSA-4>
0

>  <PEOE_VSA-5>
40.700764

>  <PEOE_VSA-6>
5.0075121

>  <PEOE_VSA_FHYD>
0.78959918

>  <PEOE_VSA_FNEG>
0.34192887

>  <PEOE_VSA_FPNEG>
0.10919192

>  <PEOE_VSA_FPOL>
0.21040079

>  <PEOE_VSA_FPOS>
0.65807116

>  <PEOE_VSA_FPPOS>
0.10120887

>  <PEOE_VSA_HYD>
330.53009

>  <PEOE_VSA_NEG>
143.1331

>  <PEOE_VSA_PNEG>
45.708275

>  <PEOE_VSA_POL>
88.074806

>  <PEOE_VSA_POS>
275.4718

>  <PEOE_VSA_PPOS>
42.366531

>  <petitjean>
0.46153846

>  <petitjeanSC>
0.85714287

>  <Q_PC+>
0

>  <Q_PC->
0

>  <Q_RPC+>
0

>  <Q_RPC->
0

>  <Q_VSA_FHYD>
1

>  <Q_VSA_FNEG>
0

>  <Q_VSA_FPNEG>
0

>  <Q_VSA_FPOL>
0

>  <Q_VSA_FPOS>
1

>  <Q_VSA_FPPOS>
0

>  <Q_VSA_HYD>
418.60489

>  <Q_VSA_NEG>
0

>  <Q_VSA_PNEG>
0

>  <Q_VSA_POL>
0

>  <Q_VSA_POS>
418.60489

>  <Q_VSA_PPOS>
0

>  <radius>
7

>  <reactive>
0

>  <rings>
2

>  <RPC+>
0

>  <RPC->
0

>  <rsynth>
1

>  <SlogP>
2.0002999

>  <SlogP_VSA0>
3.1243138

>  <SlogP_VSA1>
23.874025

>  <SlogP_VSA2>
93.586426

>  <SlogP_VSA3>
55.318733

>  <SlogP_VSA4>
0

>  <SlogP_VSA5>
70.767738

>  <SlogP_VSA6>
0

>  <SlogP_VSA7>
88.215919

>  <SlogP_VSA8>
75.473625

>  <SlogP_VSA9>
36.082764

>  <SMR>
10.1273

>  <SMR_VSA0>
93.586426

>  <SMR_VSA1>
3.1243138

>  <SMR_VSA2>
3.1243138

>  <SMR_VSA3>
0

>  <SMR_VSA4>
2.7567475

>  <SMR_VSA5>
163.68954

>  <SMR_VSA6>
76.068443

>  <SMR_VSA7>
104.09375

>  <TPSA>
76.150002

>  <VAdjEq>
0.39086518

>  <VAdjMa>
5.8073549

>  <VDistEq>
3.4082828

>  <VDistMa>
9.2359428

>  <vdw_area>
418.60489

>  <vdw_vol>
517.6474

>  <vsa_acc>
40.700764

>  <vsa_acid>
0

>  <vsa_base>
0

>  <vsa_don>
0

>  <vsa_hyd>
310.59982

>  <vsa_other>
47.374043

>  <vsa_pol>
40.700764

>  <Weight>
376.453

>  <weinerPath>
1822

>  <weinerPol>
45

>  <zagreb>
132

$$$$