Clc1cc(ccc1OC)CNc1nc(ncc1C(=O)NCc1ncccn1)N1CCC[C@H]1CO
  MOE2013           2D

 34 37  0  0  1  0  0  0  0  0999 V2000
    0.0000    0.0000    0.0000 Cl  0  0  0  0  0  0  0  0  0  0  0  0
   -0.0060   -1.5000    0.0000 C   0  0  0  0  0  0  0  0  0  0  0  0
   -1.3080   -2.2450    0.0000 C   0  0  0  0  0  0  0  0  0  0  0  0
   -1.3130   -3.7450    0.0000 C   0  0  0  0  0  0  0  0  0  0  0  0
   -0.0170   -4.5000    0.0000 C   0  0  0  0  0  0  0  0  0  0  0  0
    1.2850   -3.7550    0.0000 C   0  0  0  0  0  0  0  0  0  0  0  0
    1.2900   -2.2550    0.0000 C   0  0  0  0  0  0  0  0  0  0  0  0
    2.5920   -1.5100    0.0000 O   0  0  0  0  0  0  0  0  0  0  0  0
    3.8880   -2.2650    0.0000 C   0  0  0  0  0  0  0  0  0  0  0  0
   -2.6150   -4.4900    0.0000 C   0  0  0  0  0  0  0  0  0  0  0  0
   -3.9110   -3.7350    0.0000 N   0  0  0  0  0  0  0  0  0  0  0  0
   -5.2130   -4.4800    0.0000 C   0  0  0  0  0  0  0  0  0  0  0  0
   -5.2190   -5.9800    0.0000 N   0  0  0  0  0  0  0  0  0  0  0  0
   -6.5210   -6.7250    0.0000 C   0  0  0  0  0  0  0  0  0  0  0  0
   -7.8170   -5.9700    0.0000 N   0  0  0  0  0  0  0  0  0  0  0  0
   -7.8110   -4.4700    0.0000 C   0  0  0  0  0  0  0  0  0  0  0  0
   -6.5100   -3.7250    0.0000 C   0  0  0  0  0  0  0  0  0  0  0  0
   -6.5040   -2.2250    0.0000 C   0  0  0  0  0  0  0  0  0  0  0  0
   -5.2020   -1.4800    0.0000 O   0  0  0  0  0  0  0  0  0  0  0  0
   -7.8000   -1.4700    0.0000 N   0  0  0  0  0  0  0  0  0  0  0  0
   -7.7940    0.0300    0.0000 C   0  0  0  0  0  0  0  0  0  0  0  0
   -9.0900    0.7850    0.0000 C   0  0  0  0  0  0  0  0  0  0  0  0
  -10.3920    0.0400    0.0000 N   0  0  0  0  0  0  0  0  0  0  0  0
  -11.6880    0.7950    0.0000 C   0  0  0  0  0  0  0  0  0  0  0  0
  -11.6830    2.2950    0.0000 C   0  0  0  0  0  0  0  0  0  0  0  0
  -10.3810    3.0400    0.0000 C   0  0  0  0  0  0  0  0  0  0  0  0
   -9.0850    2.2850    0.0000 N   0  0  0  0  0  0  0  0  0  0  0  0
   -6.5270   -8.2250    0.0000 N   0  0  3  0  0  0  0  0  0  0  0  0
   -5.3170   -9.1110    0.0000 C   0  0  0  0  0  0  0  0  0  0  0  0
   -5.7860  -10.5360    0.0000 C   0  0  0  0  0  0  0  0  0  0  0  0
   -7.2860  -10.5300    0.0000 C   0  0  0  0  0  0  0  0  0  0  0  0
   -7.7440   -9.1020    0.0000 C   0  0  1  0  0  0  0  0  0  0  0  0
   -9.1690   -8.6330    0.0000 C   0  0  0  0  0  0  0  0  0  0  0  0
  -10.2870   -9.6320    0.0000 O   0  0  0  0  0  0  0  0  0  0  0  0
  1  2  1  0  0  0  0
  2  3  2  0  0  0  0
  2  7  1  0  0  0  0
  3  4  1  0  0  0  0
  4  5  2  0  0  0  0
  4 10  1  0  0  0  0
  5  6  1  0  0  0  0
  6  7  2  0  0  0  0
  7  8  1  0  0  0  0
  8  9  1  0  0  0  0
 10 11  1  0  0  0  0
 11 12  1  0  0  0  0
 12 13  2  0  0  0  0
 12 17  1  0  0  0  0
 13 14  1  0  0  0  0
 14 15  2  0  0  0  0
 14 28  1  0  0  0  0
 15 16  1  0  0  0  0
 16 17  2  0  0  0  0
 17 18  1  0  0  0  0
 18 19  2  0  0  0  0
 18 20  1  0  0  0  0
 20 21  1  0  0  0  0
 21 22  1  0  0  0  0
 22 23  1  0  0  0  0
 22 27  2  0  0  0  0
 23 24  2  0  0  0  0
 24 25  1  0  0  0  0
 25 26  2  0  0  0  0
 26 27  1  0  0  0  0
 28 29  1  0  0  0  0
 28 32  1  0  0  0  0
 29 30  1  0  0  0  0
 30 31  1  0  0  0  0
 31 32  1  0  0  0  0
 32 33  1  1  0  0  0
 33 34  1  0  0  0  0
M  END
>  <Index>
98

>  <ID>
HT0205

>  <class>
0

>  <apol>
70.102615

>  <ast_fraglike>
0

>  <ast_fraglike_ext>
0

>  <ast_violation>
2

>  <ast_violation_ext>
4

>  <a_acc>
7

>  <a_acid>
0

>  <a_aro>
18

>  <a_base>
0

>  <a_count>
60

>  <a_don>
3

>  <a_donacc>
10

>  <a_heavy>
34

>  <a_hyd>
20

>  <a_IC>
103.75371

>  <a_ICM>
1.7292284

>  <a_nB>
0

>  <a_nBr>
0

>  <a_nC>
23

>  <a_nCl>
1

>  <a_nF>
0

>  <a_nH>
26

>  <a_nI>
0

>  <a_nN>
7

>  <a_nO>
3

>  <a_nP>
0

>  <a_nS>
0

>  <balabanJ>
1.3430673

>  <BCUT_PEOE_0>
-2.5468235

>  <BCUT_PEOE_1>
-0.65259933

>  <BCUT_PEOE_2>
0.68548793

>  <BCUT_PEOE_3>
2.7225792

>  <BCUT_SLOGP_0>
-2.6639936

>  <BCUT_SLOGP_1>
-0.56935167

>  <BCUT_SLOGP_2>
0.67375833

>  <BCUT_SLOGP_3>
2.7079425

>  <BCUT_SMR_0>
-2.3025432

>  <BCUT_SMR_1>
-0.45821241

>  <BCUT_SMR_2>
0.80923653

>  <BCUT_SMR_3>
2.9845886

>  <bpol>
40.297382

>  <b_1rotN>
9

>  <b_1rotR>
0.24324325

>  <b_ar>
18

>  <b_count>
63

>  <b_double>
1

>  <b_heavy>
37

>  <b_max1len>
4

>  <b_rotN>
10

>  <b_rotR>
0.27027026

>  <b_single>
44

>  <b_triple>
0

>  <chi0>
23.915638

>  <chi0v>
19.495115

>  <chi0v_C>
13.861443

>  <chi0_C>
15.38854

>  <chi1>
16.584049

>  <chi1v>
11.314421

>  <chi1v_C>
5.716979

>  <chi1_C>
7.1742344

>  <chiral>
1

>  <chiral_u>
0

>  <density>
0.78657198

>  <diameter>
16

>  <FCharge>
0

>  <GCUT_PEOE_0>
-0.81968415

>  <GCUT_PEOE_1>
-0.44493702

>  <GCUT_PEOE_2>
0.079606026

>  <GCUT_PEOE_3>
2.7109721

>  <GCUT_SLOGP_0>
-1.1307505

>  <GCUT_SLOGP_1>
-0.36656168

>  <GCUT_SLOGP_2>
0.15534866

>  <GCUT_SLOGP_3>
2.7549403

>  <GCUT_SMR_0>
-0.52699316

>  <GCUT_SMR_1>
-0.21638787

>  <GCUT_SMR_2>
0.20909277

>  <GCUT_SMR_3>
2.9792411

>  <Kier1>
27.046019

>  <Kier2>
13.5168

>  <Kier3>
7.2874198

>  <KierA1>
20.675365

>  <KierA2>
10.24336

>  <KierA3>
5.4888506

>  <KierFlex>
6.2289762

>  <lip_acc>
10

>  <lip_don>
3

>  <lip_druglike>
1

>  <lip_violation>
0

>  <logP(o/w)>
0.93599999

>  <logS>
-4.4757299

>  <mr>
12.935087

>  <mutagenic>
0

>  <nmol>
1

>  <opr_brigid>
23

>  <opr_leadlike>
0

>  <opr_nring>
4

>  <opr_nrot>
10

>  <opr_violation>
2

>  <PC+>
0

>  <PC->
0

>  <PEOE_PC+>
3.0949676

>  <PEOE_PC->
-3.0949676

>  <PEOE_RPC+>
0.083004616

>  <PEOE_RPC->
0.12712681

>  <PEOE_VSA+0>
143.1545

>  <PEOE_VSA+1>
103.04583

>  <PEOE_VSA+2>
31.000139

>  <PEOE_VSA+3>
8.6190128

>  <PEOE_VSA+4>
26.005747

>  <PEOE_VSA+5>
12.949531

>  <PEOE_VSA+6>
0

>  <PEOE_VSA-0>
56.375877

>  <PEOE_VSA-1>
41.836849

>  <PEOE_VSA-2>
0

>  <PEOE_VSA-3>
0

>  <PEOE_VSA-4>
22.730305

>  <PEOE_VSA-5>
13.703812

>  <PEOE_VSA-6>
10.408187

>  <PEOE_VSA_FHYD>
0.81738579

>  <PEOE_VSA_FNEG>
0.30873954

>  <PEOE_VSA_FPNEG>
0.099700585

>  <PEOE_VSA_FPOL>
0.18261418

>  <PEOE_VSA_FPOS>
0.69126046

>  <PEOE_VSA_FPPOS>
0.0829136

>  <PEOE_VSA_HYD>
384.0322

>  <PEOE_VSA_NEG>
145.05504

>  <PEOE_VSA_PNEG>
46.842304

>  <PEOE_VSA_POL>
85.797585

>  <PEOE_VSA_POS>
324.77475

>  <PEOE_VSA_PPOS>
38.955276

>  <petitjean>
0.5

>  <petitjeanSC>
1

>  <Q_PC+>
0

>  <Q_PC->
0

>  <Q_RPC+>
0

>  <Q_RPC->
0

>  <Q_VSA_FHYD>
1

>  <Q_VSA_FNEG>
0

>  <Q_VSA_FPNEG>
0

>  <Q_VSA_FPOL>
0

>  <Q_VSA_FPOS>
1

>  <Q_VSA_FPPOS>
0

>  <Q_VSA_HYD>
469.82977

>  <Q_VSA_NEG>
0

>  <Q_VSA_PNEG>
0

>  <Q_VSA_POL>
0

>  <Q_VSA_POS>
469.82977

>  <Q_VSA_PPOS>
0

>  <radius>
8

>  <reactive>
0

>  <rings>
4

>  <RPC+>
0

>  <RPC->
0

>  <rsynth>
1

>  <SlogP>
2.9646001

>  <SlogP_VSA0>
57.52018

>  <SlogP_VSA1>
90.411652

>  <SlogP_VSA2>
3.9819686

>  <SlogP_VSA3>
39.365837

>  <SlogP_VSA4>
32.561287

>  <SlogP_VSA5>
35.383869

>  <SlogP_VSA6>
3.5006065

>  <SlogP_VSA7>
122.21581

>  <SlogP_VSA8>
37.736813

>  <SlogP_VSA9>
85.498238

>  <SMR>
12.84287

>  <SMR_VSA0>
23.862217

>  <SMR_VSA1>
103.52723

>  <SMR_VSA2>
21.135065

>  <SMR_VSA3>
21.425074

>  <SMR_VSA4>
22.237764

>  <SMR_VSA5>
196.83177

>  <SMR_VSA6>
44.624619

>  <SMR_VSA7>
74.532509

>  <TPSA>
125.39

>  <VAdjEq>
0.34317648

>  <VAdjMa>
6.2094536

>  <VDistEq>
3.7557645

>  <VDistMa>
9.9032993

>  <vdw_area>
469.82977

>  <vdw_vol>
615.27747

>  <vsa_acc>
38.80098

>  <vsa_acid>
0

>  <vsa_base>
0

>  <vsa_don>
11.365152

>  <vsa_hyd>
328.04175

>  <vsa_other>
51.01223

>  <vsa_pol>
63.733055

>  <Weight>
483.95999

>  <weinerPath>
3728

>  <weinerPol>
52

>  <zagreb>
174

$$$$