O(C)c1cc(NC(CCCN)C)c2ncccc2c1
  MOE2013           2D

 19 20  0  0  1  0  0  0  0  0999 V2000
    0.0000    0.0000    0.0000 O   0  0  0  0  0  0  0  0  0  0  0  0
   -1.5000    0.0070    0.0000 C   0  0  0  0  0  0  0  0  0  0  0  0
    0.7560    1.2950    0.0000 C   0  0  0  0  0  0  0  0  0  0  0  0
    2.2560    1.2880    0.0000 C   0  0  0  0  0  0  0  0  0  0  0  0
    3.0120    2.5840    0.0000 C   0  0  0  0  0  0  0  0  0  0  0  0
    4.5120    2.5770    0.0000 N   0  0  0  0  0  0  0  0  0  0  0  0
    5.2560    1.2740    0.0000 C   0  0  3  0  0  0  0  0  0  0  0  0
    6.7560    1.2670    0.0000 C   0  0  0  0  0  0  0  0  0  0  0  0
    7.5000   -0.0360    0.0000 C   0  0  0  0  0  0  0  0  0  0  0  0
    9.0000   -0.0430    0.0000 C   0  0  0  0  0  0  0  0  0  0  0  0
    9.7440   -1.3450    0.0000 N   0  0  0  0  0  0  0  0  0  0  0  0
    4.5000   -0.0210    0.0000 C   0  0  0  0  0  0  0  0  0  0  0  0
    2.2680    3.8860    0.0000 C   0  0  0  0  0  0  0  0  0  0  0  0
    3.0250    5.1820    0.0000 N   0  0  0  0  0  0  0  0  0  0  0  0
    2.2810    6.4840    0.0000 C   0  0  0  0  0  0  0  0  0  0  0  0
    0.7810    6.4920    0.0000 C   0  0  0  0  0  0  0  0  0  0  0  0
    0.0250    5.1960    0.0000 C   0  0  0  0  0  0  0  0  0  0  0  0
    0.7680    3.8940    0.0000 C   0  0  0  0  0  0  0  0  0  0  0  0
    0.0120    2.5980    0.0000 C   0  0  0  0  0  0  0  0  0  0  0  0
  1  2  1  0  0  0  0
  1  3  1  0  0  0  0
  3  4  1  0  0  0  0
  3 19  2  0  0  0  0
  4  5  2  0  0  0  0
  5  6  1  0  0  0  0
  5 13  1  0  0  0  0
  6  7  1  0  0  0  0
  7  8  1  0  0  0  0
  7 12  1  0  0  0  0
  8  9  1  0  0  0  0
  9 10  1  0  0  0  0
 10 11  1  0  0  0  0
 13 14  1  0  0  0  0
 13 18  2  0  0  0  0
 14 15  2  0  0  0  0
 15 16  1  0  0  0  0
 16 17  2  0  0  0  0
 17 18  1  0  0  0  0
 18 19  1  0  0  0  0
M  END
>  <Index>
901

>  <ID>
HT1739

>  <class>
0

>  <apol>
44.504654

>  <ast_fraglike>
1

>  <ast_fraglike_ext>
0

>  <ast_violation>
0

>  <ast_violation_ext>
1

>  <a_acc>
3

>  <a_acid>
0

>  <a_aro>
10

>  <a_base>
0

>  <a_count>
40

>  <a_don>
2

>  <a_donacc>
5

>  <a_heavy>
19

>  <a_hyd>
15

>  <a_IC>
57.280212

>  <a_ICM>
1.4320053

>  <a_nB>
0

>  <a_nBr>
0

>  <a_nC>
15

>  <a_nCl>
0

>  <a_nF>
0

>  <a_nH>
21

>  <a_nI>
0

>  <a_nN>
3

>  <a_nO>
1

>  <a_nP>
0

>  <a_nS>
0

>  <balabanJ>
1.9159743

>  <BCUT_PEOE_0>
-2.6698084

>  <BCUT_PEOE_1>
-0.55507487

>  <BCUT_PEOE_2>
0.5789606

>  <BCUT_PEOE_3>
2.6048124

>  <BCUT_SLOGP_0>
-2.7150195

>  <BCUT_SLOGP_1>
-0.51187962

>  <BCUT_SLOGP_2>
0.63267529

>  <BCUT_SLOGP_3>
2.6508572

>  <BCUT_SMR_0>
-2.403337

>  <BCUT_SMR_1>
-0.38348338

>  <BCUT_SMR_2>
0.69954818

>  <BCUT_SMR_3>
2.8714604

>  <bpol>
26.193348

>  <b_1rotN>
6

>  <b_1rotR>
0.30000001

>  <b_ar>
11

>  <b_count>
41

>  <b_double>
0

>  <b_heavy>
20

>  <b_max1len>
7

>  <b_rotN>
6

>  <b_rotR>
0.30000001

>  <b_single>
30

>  <b_triple>
0

>  <chi0>
13.664926

>  <chi0v>
11.518234

>  <chi0v_C>
9.5854216

>  <chi0_C>
10.543606

>  <chi1>
9.2407131

>  <chi1v>
6.6367426

>  <chi1v_C>
4.5956411

>  <chi1_C>
5.6935067

>  <chiral>
1

>  <chiral_u>
1

>  <density>
0.68249613

>  <diameter>
10

>  <FCharge>
0

>  <GCUT_PEOE_0>
-0.84186625

>  <GCUT_PEOE_1>
-0.37652558

>  <GCUT_PEOE_2>
0.064846165

>  <GCUT_PEOE_3>
2.5607686

>  <GCUT_SLOGP_0>
-1.3632911

>  <GCUT_SLOGP_1>
-0.3142108

>  <GCUT_SLOGP_2>
0.13631539

>  <GCUT_SLOGP_3>
2.6784544

>  <GCUT_SMR_0>
-0.52370775

>  <GCUT_SMR_1>
-0.20614931

>  <GCUT_SMR_2>
0.15489194

>  <GCUT_SMR_3>
2.8439767

>  <Kier1>
15.39

>  <Kier2>
7.6952662

>  <Kier3>
4.2314048

>  <KierA1>
11.889707

>  <KierA2>
5.8529768

>  <KierA3>
3.1792855

>  <KierFlex>
3.6626408

>  <lip_acc>
4

>  <lip_don>
3

>  <lip_druglike>
1

>  <lip_violation>
0

>  <logP(o/w)>
2.2130001

>  <logS>
-2.2423699

>  <mr>
7.7678285

>  <mutagenic>
0

>  <nmol>
1

>  <opr_brigid>
11

>  <opr_leadlike>
1

>  <opr_nring>
2

>  <opr_nrot>
6

>  <opr_violation>
0

>  <PC+>
0

>  <PC->
0

>  <PEOE_PC+>
1.474686

>  <PEOE_PC->
-1.474686

>  <PEOE_RPC+>
0.086817093

>  <PEOE_RPC->
0.23587503

>  <PEOE_VSA+0>
96.451485

>  <PEOE_VSA+1>
49.281158

>  <PEOE_VSA+2>
25.857038

>  <PEOE_VSA+3>
0

>  <PEOE_VSA+4>
0

>  <PEOE_VSA+5>
0

>  <PEOE_VSA+6>
0

>  <PEOE_VSA-0>
86.107338

>  <PEOE_VSA-1>
12.254904

>  <PEOE_VSA-2>
0

>  <PEOE_VSA-3>
0

>  <PEOE_VSA-4>
0

>  <PEOE_VSA-5>
5.8194671

>  <PEOE_VSA-6>
9.1548758

>  <PEOE_VSA_FHYD>
0.94744486

>  <PEOE_VSA_FNEG>
0.39777514

>  <PEOE_VSA_FPNEG>
0.052555148

>  <PEOE_VSA_FPOL>
0.052555148

>  <PEOE_VSA_FPOS>
0.60222489

>  <PEOE_VSA_FPPOS>
0

>  <PEOE_VSA_HYD>
269.95193

>  <PEOE_VSA_NEG>
113.33659

>  <PEOE_VSA_PNEG>
14.974342

>  <PEOE_VSA_POL>
14.974342

>  <PEOE_VSA_POS>
171.58968

>  <PEOE_VSA_PPOS>
0

>  <petitjean>
0.5

>  <petitjeanSC>
1

>  <Q_PC+>
0

>  <Q_PC->
0

>  <Q_RPC+>
0

>  <Q_RPC->
0

>  <Q_VSA_FHYD>
1

>  <Q_VSA_FNEG>
0

>  <Q_VSA_FPNEG>
0

>  <Q_VSA_FPOL>
0

>  <Q_VSA_FPOS>
1

>  <Q_VSA_FPPOS>
0

>  <Q_VSA_HYD>
284.92627

>  <Q_VSA_NEG>
0

>  <Q_VSA_PNEG>
0

>  <Q_VSA_POL>
0

>  <Q_VSA_POS>
284.92627

>  <Q_VSA_PPOS>
0

>  <radius>
5

>  <reactive>
0

>  <rings>
2

>  <RPC+>
0

>  <RPC->
0

>  <rsynth>
1

>  <SlogP>
2.7827001

>  <SlogP_VSA0>
43.897076

>  <SlogP_VSA1>
34.79628

>  <SlogP_VSA2>
3.9819686

>  <SlogP_VSA3>
18.439579

>  <SlogP_VSA4>
0

>  <SlogP_VSA5>
35.383869

>  <SlogP_VSA6>
0

>  <SlogP_VSA7>
92.504196

>  <SlogP_VSA8>
37.736813

>  <SlogP_VSA9>
41.326191

>  <SMR>
7.9668102

>  <SMR_VSA0>
0

>  <SMR_VSA1>
27.785418

>  <SMR_VSA2>
0

>  <SMR_VSA3>
9.2253971

>  <SMR_VSA4>
58.381786

>  <SMR_VSA5>
125.5239

>  <SMR_VSA6>
18.439579

>  <SMR_VSA7>
68.709885

>  <TPSA>
60.169998

>  <VAdjEq>
0.5023343

>  <VAdjMa>
5.321928

>  <VDistEq>
3.106607

>  <VDistMa>
8.2024145

>  <vdw_area>
284.92627

>  <vdw_vol>
380.00653

>  <vsa_acc>
8.1863317

>  <vsa_acid>
0

>  <vsa_base>
0

>  <vsa_don>
5.6825762

>  <vsa_hyd>
231.28258

>  <vsa_other>
0

>  <vsa_pol>
31.611399

>  <Weight>
259.353

>  <weinerPath>
726

>  <weinerPol>
27

>  <zagreb>
92

$$$$