Clc1cc2c(n(cc2C2CCN(CC2)CCN2CCNC2=O)-c2ccc(F)cc2)cc1
  MOE2013           2D

 31 35  0  0  0  0  0  0  0  0999 V2000
    0.0000    0.0000    0.0000 Cl  0  0  0  0  0  0  0  0  0  0  0  0
    0.2760   -1.4740    0.0000 C   0  0  0  0  0  0  0  0  0  0  0  0
   -0.8620   -2.4510    0.0000 C   0  0  0  0  0  0  0  0  0  0  0  0
   -0.5860   -3.9250    0.0000 C   0  0  0  0  0  0  0  0  0  0  0  0
    0.8290   -4.4230    0.0000 C   0  0  0  0  0  0  0  0  0  0  0  0
    0.7930   -5.9230    0.0000 N   0  0  0  0  0  0  0  0  0  0  0  0
   -0.6440   -6.3520    0.0000 C   0  0  0  0  0  0  0  0  0  0  0  0
   -1.4960   -5.1170    0.0000 C   0  0  0  0  0  0  0  0  0  0  0  0
   -2.9960   -5.0810    0.0000 C   0  0  0  0  0  0  0  0  0  0  0  0
   -3.7140   -3.7640    0.0000 C   0  0  0  0  0  0  0  0  0  0  0  0
   -5.2140   -3.7280    0.0000 C   0  0  0  0  0  0  0  0  0  0  0  0
   -5.9950   -5.0090    0.0000 N   0  0  0  0  0  0  0  0  0  0  0  0
   -5.2770   -6.3250    0.0000 C   0  0  0  0  0  0  0  0  0  0  0  0
   -3.7770   -6.3620    0.0000 C   0  0  0  0  0  0  0  0  0  0  0  0
   -7.4950   -4.9720    0.0000 C   0  0  0  0  0  0  0  0  0  0  0  0
   -8.2760   -6.2530    0.0000 C   0  0  0  0  0  0  0  0  0  0  0  0
   -9.7750   -6.2170    0.0000 N   0  0  0  0  0  0  0  0  0  0  0  0
  -10.6280   -4.9820    0.0000 C   0  0  0  0  0  0  0  0  0  0  0  0
  -12.0650   -5.4110    0.0000 C   0  0  0  0  0  0  0  0  0  0  0  0
  -12.1010   -6.9110    0.0000 N   0  0  0  0  0  0  0  0  0  0  0  0
  -10.6860   -7.4090    0.0000 C   0  0  0  0  0  0  0  0  0  0  0  0
  -10.2570   -8.8460    0.0000 O   0  0  0  0  0  0  0  0  0  0  0  0
    1.9850   -6.8330    0.0000 C   0  0  0  0  0  0  0  0  0  0  0  0
    1.7920   -8.3210    0.0000 C   0  0  0  0  0  0  0  0  0  0  0  0
    2.9840   -9.2310    0.0000 C   0  0  0  0  0  0  0  0  0  0  0  0
    4.3690   -8.6550    0.0000 C   0  0  0  0  0  0  0  0  0  0  0  0
    5.5610   -9.5650    0.0000 F   0  0  0  0  0  0  0  0  0  0  0  0
    4.5620   -7.1670    0.0000 C   0  0  0  0  0  0  0  0  0  0  0  0
    3.3700   -6.2560    0.0000 C   0  0  0  0  0  0  0  0  0  0  0  0
    1.9680   -3.4460    0.0000 C   0  0  0  0  0  0  0  0  0  0  0  0
    1.6910   -1.9720    0.0000 C   0  0  0  0  0  0  0  0  0  0  0  0
  1  2  1  0  0  0  0
  2  3  1  0  0  0  0
  2 31  2  0  0  0  0
  3  4  2  0  0  0  0
  4  5  1  0  0  0  0
  4  8  1  0  0  0  0
  5  6  1  0  0  0  0
  5 30  2  0  0  0  0
  6  7  1  0  0  0  0
  6 23  1  0  0  0  0
  7  8  2  0  0  0  0
  8  9  1  0  0  0  0
  9 10  1  0  0  0  0
  9 14  1  0  0  0  0
 10 11  1  0  0  0  0
 11 12  1  0  0  0  0
 12 13  1  0  0  0  0
 12 15  1  0  0  0  0
 13 14  1  0  0  0  0
 15 16  1  0  0  0  0
 16 17  1  0  0  0  0
 17 18  1  0  0  0  0
 17 21  1  0  0  0  0
 18 19  1  0  0  0  0
 19 20  1  0  0  0  0
 20 21  1  0  0  0  0
 21 22  2  0  0  0  0
 23 24  1  0  0  0  0
 23 29  2  0  0  0  0
 24 25  2  0  0  0  0
 25 26  1  0  0  0  0
 26 27  1  0  0  0  0
 26 28  2  0  0  0  0
 28 29  1  0  0  0  0
 30 31  1  0  0  0  0
M  END
>  <Index>
977

>  <ID>
HT1880

>  <class>
0

>  <apol>
67.515617

>  <ast_fraglike>
0

>  <ast_fraglike_ext>
0

>  <ast_violation>
2

>  <ast_violation_ext>
3

>  <a_acc>
2

>  <a_acid>
0

>  <a_aro>
15

>  <a_base>
0

>  <a_count>
57

>  <a_don>
1

>  <a_donacc>
3

>  <a_heavy>
31

>  <a_hyd>
25

>  <a_IC>
92.224197

>  <a_ICM>
1.6179684

>  <a_nB>
0

>  <a_nBr>
0

>  <a_nC>
24

>  <a_nCl>
1

>  <a_nF>
1

>  <a_nH>
26

>  <a_nI>
0

>  <a_nN>
4

>  <a_nO>
1

>  <a_nP>
0

>  <a_nS>
0

>  <balabanJ>
1.164685

>  <BCUT_PEOE_0>
-2.7920873

>  <BCUT_PEOE_1>
-0.61725014

>  <BCUT_PEOE_2>
0.5960806

>  <BCUT_PEOE_3>
2.7234631

>  <BCUT_SLOGP_0>
-2.8292754

>  <BCUT_SLOGP_1>
-0.52244991

>  <BCUT_SLOGP_2>
0.80680841

>  <BCUT_SLOGP_3>
2.767772

>  <BCUT_SMR_0>
-2.5195036

>  <BCUT_SMR_1>
-0.43407214

>  <BCUT_SMR_2>
0.81928778

>  <BCUT_SMR_3>
2.9934971

>  <bpol>
37.604382

>  <b_1rotN>
5

>  <b_1rotR>
0.14285715

>  <b_ar>
16

>  <b_count>
61

>  <b_double>
1

>  <b_heavy>
35

>  <b_max1len>
3

>  <b_rotN>
5

>  <b_rotR>
0.14285715

>  <b_single>
44

>  <b_triple>
0

>  <chi0>
21.371668

>  <chi0v>
18.114754

>  <chi0v_C>
14.353006

>  <chi0_C>
15.93251

>  <chi1>
15.08052

>  <chi1v>
11.277013

>  <chi1v_C>
7.203248

>  <chi1_C>
8.9907312

>  <chiral>
0

>  <chiral_u>
0

>  <density>
0.76068246

>  <diameter>
16

>  <FCharge>
0

>  <GCUT_PEOE_0>
-0.8542133

>  <GCUT_PEOE_1>
-0.40606919

>  <GCUT_PEOE_2>
0.051346395

>  <GCUT_PEOE_3>
2.8969922

>  <GCUT_SLOGP_0>
-1.1678224

>  <GCUT_SLOGP_1>
-0.28191024

>  <GCUT_SLOGP_2>
0.21766125

>  <GCUT_SLOGP_3>
2.9774516

>  <GCUT_SMR_0>
-0.52017105

>  <GCUT_SMR_1>
-0.2116048

>  <GCUT_SMR_2>
0.18431541

>  <GCUT_SMR_3>
3.1703088

>  <Kier1>
22.775511

>  <Kier2>
10.092

>  <Kier3>
5.0865054

>  <KierA1>
18.10586

>  <KierA2>
7.9577661

>  <KierA3>
3.9869587

>  <KierFlex>
4.6478128

>  <lip_acc>
5

>  <lip_don>
1

>  <lip_druglike>
1

>  <lip_violation>
0

>  <logP(o/w)>
4.3660002

>  <logS>
-4.8384199

>  <mr>
12.142734

>  <mutagenic>
0

>  <nmol>
1

>  <opr_brigid>
27

>  <opr_leadlike>
0

>  <opr_nring>
5

>  <opr_nrot>
7

>  <opr_violation>
2

>  <PC+>
0

>  <PC->
0

>  <PEOE_PC+>
2.1385927

>  <PEOE_PC->
-2.1385927

>  <PEOE_RPC+>
0.1491213

>  <PEOE_RPC->
0.15727913

>  <PEOE_VSA+0>
129.8623

>  <PEOE_VSA+1>
66.414955

>  <PEOE_VSA+2>
9.0208454

>  <PEOE_VSA+3>
8.6190128

>  <PEOE_VSA+4>
0

>  <PEOE_VSA+5>
0

>  <PEOE_VSA+6>
17.440542

>  <PEOE_VSA-0>
131.78014

>  <PEOE_VSA-1>
29.581947

>  <PEOE_VSA-2>
0

>  <PEOE_VSA-3>
0

>  <PEOE_VSA-4>
25.475557

>  <PEOE_VSA-5>
0

>  <PEOE_VSA-6>
0.13689101

>  <PEOE_VSA_FHYD>
0.89708418

>  <PEOE_VSA_FNEG>
0.44695231

>  <PEOE_VSA_FPNEG>
0.061225142

>  <PEOE_VSA_FPOL>
0.10291579

>  <PEOE_VSA_FPOS>
0.55304772

>  <PEOE_VSA_FPPOS>
0.041690655

>  <PEOE_VSA_HYD>
375.27921

>  <PEOE_VSA_NEG>
186.97453

>  <PEOE_VSA_PNEG>
25.612448

>  <PEOE_VSA_POL>
43.05299

>  <PEOE_VSA_POS>
231.35765

>  <PEOE_VSA_PPOS>
17.440542

>  <petitjean>
0.5

>  <petitjeanSC>
1

>  <Q_PC+>
0

>  <Q_PC->
0

>  <Q_RPC+>
0

>  <Q_RPC->
0

>  <Q_VSA_FHYD>
1

>  <Q_VSA_FNEG>
0

>  <Q_VSA_FPNEG>
0

>  <Q_VSA_FPOL>
0

>  <Q_VSA_FPOS>
1

>  <Q_VSA_FPPOS>
0

>  <Q_VSA_HYD>
418.33218

>  <Q_VSA_NEG>
0

>  <Q_VSA_PNEG>
0

>  <Q_VSA_POL>
0

>  <Q_VSA_POS>
418.33218

>  <Q_VSA_PPOS>
0

>  <radius>
8

>  <reactive>
0

>  <rings>
5

>  <RPC+>
0

>  <RPC->
0

>  <rsynth>
1

>  <SlogP>
4.6276002

>  <SlogP_VSA0>
18.01075

>  <SlogP_VSA1>
12.977676

>  <SlogP_VSA2>
9.1210184

>  <SlogP_VSA3>
110.63747

>  <SlogP_VSA4>
3.185575

>  <SlogP_VSA5>
0

>  <SlogP_VSA6>
7.9114027

>  <SlogP_VSA7>
148.19049

>  <SlogP_VSA8>
37.736813

>  <SlogP_VSA9>
77.97097

>  <SMR>
12.16297

>  <SMR_VSA0>
23.862217

>  <SMR_VSA1>
23.107834

>  <SMR_VSA2>
27.131769

>  <SMR_VSA3>
11.096977

>  <SMR_VSA4>
7.4738488

>  <SMR_VSA5>
178.45346

>  <SMR_VSA6>
115.46742

>  <SMR_VSA7>
39.148643

>  <TPSA>
40.509998

>  <VAdjEq>
0.37643659

>  <VAdjMa>
6.129283

>  <VDistEq>
3.7712841

>  <VDistMa>
9.595171

>  <vdw_area>
418.33218

>  <vdw_vol>
579.67682

>  <vsa_acc>
13.566921

>  <vsa_acid>
0

>  <vsa_base>
0

>  <vsa_don>
5.6825762

>  <vsa_hyd>
359.42889

>  <vsa_other>
17.440542

>  <vsa_pol>
19.249496

>  <Weight>
440.94998

>  <weinerPath>
2921

>  <weinerPol>
49

>  <zagreb>
170

$$$$