Clc1ccc(OC(C(SCCC(NC(=O)C)C(O)=O)=O)(C)C)cc1
  MOE2013           2D

 24 24  0  0  1  0  0  0  0  0999 V2000
    0.0000    0.0000    0.0000 Cl  0  0  0  0  0  0  0  0  0  0  0  0
   -1.5000    0.0100    0.0000 C   0  0  0  0  0  0  0  0  0  0  0  0
   -2.2410    1.3140    0.0000 C   0  0  0  0  0  0  0  0  0  0  0  0
   -3.7410    1.3240    0.0000 C   0  0  0  0  0  0  0  0  0  0  0  0
   -4.5000    0.0300    0.0000 C   0  0  0  0  0  0  0  0  0  0  0  0
   -6.0000    0.0400    0.0000 O   0  0  0  0  0  0  0  0  0  0  0  0
   -6.7590   -1.2530    0.0000 C   0  0  0  0  0  0  0  0  0  0  0  0
   -8.0530   -0.4950    0.0000 C   0  0  0  0  0  0  0  0  0  0  0  0
   -9.3570   -1.2360    0.0000 S   0  0  0  0  0  0  0  0  0  0  0  0
  -10.6510   -0.4770    0.0000 C   0  0  0  0  0  0  0  0  0  0  0  0
  -11.9550   -1.2180    0.0000 C   0  0  0  0  0  0  0  0  0  0  0  0
  -13.2490   -0.4600    0.0000 C   0  0  3  0  0  0  0  0  0  0  0  0
  -14.5530   -1.2010    0.0000 N   0  0  0  0  0  0  0  0  0  0  0  0
  -14.5630   -2.7010    0.0000 C   0  0  0  0  0  0  0  0  0  0  0  0
  -15.8670   -3.4420    0.0000 O   0  0  0  0  0  0  0  0  0  0  0  0
  -13.2690   -3.4600    0.0000 C   0  0  0  0  0  0  0  0  0  0  0  0
  -13.2380    1.0400    0.0000 C   0  0  0  0  0  0  0  0  0  0  0  0
  -14.5320    1.7990    0.0000 O   0  0  0  0  0  0  0  0  0  0  0  0
  -11.9340    1.7810    0.0000 O   0  0  0  0  0  0  0  0  0  0  0  0
   -8.0420    1.0050    0.0000 O   0  0  0  0  0  0  0  0  0  0  0  0
   -5.4650   -2.0120    0.0000 C   0  0  0  0  0  0  0  0  0  0  0  0
   -7.5170   -2.5470    0.0000 C   0  0  0  0  0  0  0  0  0  0  0  0
   -3.7590   -1.2740    0.0000 C   0  0  0  0  0  0  0  0  0  0  0  0
   -2.2590   -1.2840    0.0000 C   0  0  0  0  0  0  0  0  0  0  0  0
  1  2  1  0  0  0  0
  2  3  1  0  0  0  0
  2 24  2  0  0  0  0
  3  4  2  0  0  0  0
  4  5  1  0  0  0  0
  5  6  1  0  0  0  0
  5 23  2  0  0  0  0
  6  7  1  0  0  0  0
  7  8  1  0  0  0  0
  7 21  1  0  0  0  0
  7 22  1  0  0  0  0
  8  9  1  0  0  0  0
  8 20  2  0  0  0  0
  9 10  1  0  0  0  0
 10 11  1  0  0  0  0
 11 12  1  0  0  0  0
 12 13  1  0  0  0  0
 12 17  1  0  0  0  0
 13 14  1  0  0  0  0
 14 15  2  0  0  0  0
 14 16  1  0  0  0  0
 17 18  1  0  0  0  0
 17 19  2  0  0  0  0
 23 24  1  0  0  0  0
M  END
>  <Index>
976

>  <ID>
HT1877

>  <class>
0

>  <apol>
51.68586

>  <ast_fraglike>
0

>  <ast_fraglike_ext>
0

>  <ast_violation>
2

>  <ast_violation_ext>
4

>  <a_acc>
5

>  <a_acid>
0

>  <a_aro>
6

>  <a_base>
0

>  <a_count>
44

>  <a_don>
3

>  <a_donacc>
8

>  <a_heavy>
24

>  <a_hyd>
15

>  <a_IC>
78.166786

>  <a_ICM>
1.776518

>  <a_nB>
0

>  <a_nBr>
0

>  <a_nC>
16

>  <a_nCl>
1

>  <a_nF>
0

>  <a_nH>
20

>  <a_nI>
0

>  <a_nN>
1

>  <a_nO>
5

>  <a_nP>
0

>  <a_nS>
1

>  <balabanJ>
2.3757079

>  <BCUT_PEOE_0>
-2.5692749

>  <BCUT_PEOE_1>
-0.54225659

>  <BCUT_PEOE_2>
0.49804115

>  <BCUT_PEOE_3>
2.6144195

>  <BCUT_SLOGP_0>
-2.7243462

>  <BCUT_SLOGP_1>
-0.48760176

>  <BCUT_SLOGP_2>
0.57730675

>  <BCUT_SLOGP_3>
2.5797138

>  <BCUT_SMR_0>
-2.3175011

>  <BCUT_SMR_1>
-0.30304265

>  <BCUT_SMR_2>
0.73058856

>  <BCUT_SMR_3>
2.8787999

>  <bpol>
30.014139

>  <b_1rotN>
8

>  <b_1rotR>
0.33333334

>  <b_ar>
6

>  <b_count>
44

>  <b_double>
3

>  <b_heavy>
24

>  <b_max1len>
5

>  <b_rotN>
10

>  <b_rotR>
0.41666666

>  <b_single>
35

>  <b_triple>
0

>  <chi0>
18.328062

>  <chi0v>
15.23981

>  <chi0v_C>
10.300965

>  <chi0_C>
11.206742

>  <chi1>
11.113898

>  <chi1v>
8.5965376

>  <chi1v_C>
4.7682905

>  <chi1_C>
5.7406001

>  <chiral>
1

>  <chiral_u>
1

>  <density>
0.82985699

>  <diameter>
14

>  <FCharge>
0

>  <GCUT_PEOE_0>
-0.8155579

>  <GCUT_PEOE_1>
-0.37296572

>  <GCUT_PEOE_2>
0.03842704

>  <GCUT_PEOE_3>
2.5326526

>  <GCUT_SLOGP_0>
-1.1624414

>  <GCUT_SLOGP_1>
-0.32208434

>  <GCUT_SLOGP_2>
0.096806332

>  <GCUT_SLOGP_3>
2.5698915

>  <GCUT_SMR_0>
-0.51598507

>  <GCUT_SMR_1>
-0.2105438

>  <GCUT_SMR_2>
0.20553413

>  <GCUT_SMR_3>
2.7963314

>  <Kier1>
22.041666

>  <Kier2>
10.222222

>  <Kier3>
8.297143

>  <KierA1>
19.602695

>  <KierA2>
9.0424681

>  <KierA3>
7.3112912

>  <KierFlex>
7.3856978

>  <lip_acc>
6

>  <lip_don>
2

>  <lip_druglike>
1

>  <lip_violation>
0

>  <logP(o/w)>
3.049

>  <logS>
-4.5806999

>  <mr>
9.5175943

>  <mutagenic>
0

>  <nmol>
1

>  <opr_brigid>
6

>  <opr_leadlike>
1

>  <opr_nring>
1

>  <opr_nrot>
9

>  <opr_violation>
0

>  <PC+>
0

>  <PC->
0

>  <PEOE_PC+>
2.2033432

>  <PEOE_PC->
-2.2033432

>  <PEOE_RPC+>
0.12807931

>  <PEOE_RPC->
0.15623905

>  <PEOE_VSA+0>
89.394814

>  <PEOE_VSA+1>
29.78545

>  <PEOE_VSA+2>
3.1459606

>  <PEOE_VSA+3>
8.6190128

>  <PEOE_VSA+4>
33.708286

>  <PEOE_VSA+5>
14.708499

>  <PEOE_VSA+6>
0

>  <PEOE_VSA-0>
95.216286

>  <PEOE_VSA-1>
49.342564

>  <PEOE_VSA-2>
0

>  <PEOE_VSA-3>
0

>  <PEOE_VSA-4>
0

>  <PEOE_VSA-5>
40.700764

>  <PEOE_VSA-6>
10.408187

>  <PEOE_VSA_FHYD>
0.73461914

>  <PEOE_VSA_FNEG>
0.5217393

>  <PEOE_VSA_FPNEG>
0.1362797

>  <PEOE_VSA_FPOL>
0.26538086

>  <PEOE_VSA_FPOS>
0.4782607

>  <PEOE_VSA_FPPOS>
0.12910116

>  <PEOE_VSA_HYD>
275.50409

>  <PEOE_VSA_NEG>
195.6678

>  <PEOE_VSA_PNEG>
51.108952

>  <PEOE_VSA_POL>
99.525734

>  <PEOE_VSA_POS>
179.36203

>  <PEOE_VSA_PPOS>
48.416782

>  <petitjean>
0.5

>  <petitjeanSC>
1

>  <Q_PC+>
0

>  <Q_PC->
0

>  <Q_RPC+>
0

>  <Q_RPC->
0

>  <Q_VSA_FHYD>
1

>  <Q_VSA_FNEG>
0

>  <Q_VSA_FPNEG>
0

>  <Q_VSA_FPOL>
0

>  <Q_VSA_FPOS>
1

>  <Q_VSA_FPPOS>
0

>  <Q_VSA_HYD>
375.02982

>  <Q_VSA_NEG>
0

>  <Q_VSA_PNEG>
0

>  <Q_VSA_POL>
0

>  <Q_VSA_POS>
375.02982

>  <Q_VSA_PPOS>
0

>  <radius>
7

>  <reactive>
0

>  <rings>
1

>  <RPC+>
0

>  <RPC->
0

>  <rsynth>
1

>  <SlogP>
2.7365999

>  <SlogP_VSA0>
29.010639

>  <SlogP_VSA1>
17.057018

>  <SlogP_VSA2>
75.568619

>  <SlogP_VSA3>
42.61879

>  <SlogP_VSA4>
0

>  <SlogP_VSA5>
0

>  <SlogP_VSA6>
3.5006065

>  <SlogP_VSA7>
70.572739

>  <SlogP_VSA8>
18.868406

>  <SlogP_VSA9>
176.58966

>  <SMR>
9.3482504

>  <SMR_VSA0>
71.586647

>  <SMR_VSA1>
10.999887

>  <SMR_VSA2>
43.395977

>  <SMR_VSA3>
12.726004

>  <SMR_VSA4>
0

>  <SMR_VSA5>
89.441139

>  <SMR_VSA6>
34.290581

>  <SMR_VSA7>
171.34624

>  <TPSA>
92.699997

>  <VAdjEq>
0.41381684

>  <VAdjMa>
5.5849624

>  <VDistEq>
3.6031258

>  <VDistMa>
8.8527956

>  <vdw_area>
375.02982

>  <vdw_vol>
450.50775

>  <vsa_acc>
29.637598

>  <vsa_acid>
0

>  <vsa_base>
0

>  <vsa_don>
5.6825762

>  <vsa_hyd>
254.07275

>  <vsa_other>
38.092613

>  <vsa_pol>
62.454014

>  <Weight>
373.85699

>  <weinerPath>
1566

>  <weinerPol>
32

>  <zagreb>
114

$$$$