OC=1[C@]2(O)[C@@H](C[C@H]3C(=C2O)C(=O)c2c(cccc2O)[C@]3(O)C)[C@H](N(C)C)C(=O)C=1C(=O)NCN1CCCC1
  MOE2013           2D

 38 42  0  0  1  0  0  0  0  0999 V2000
    0.0000    0.0000    0.0000 O   0  0  0  0  0  0  0  0  0  0  0  0
   -0.0120   -1.5000    0.0000 C   0  0  0  0  0  0  0  0  0  0  0  0
   -1.3180   -2.2390    0.0000 C   0  0  2  0  0  0  0  0  0  0  0  0
   -1.3050   -0.7390    0.0000 O   0  0  0  0  0  0  0  0  0  0  0  0
   -1.3300   -3.7390    0.0000 C   0  0  1  0  0  0  0  0  0  0  0  0
   -2.6350   -4.4780    0.0000 C   0  0  0  0  0  0  0  0  0  0  0  0
   -3.9280   -3.7180    0.0000 C   0  0  1  0  0  0  0  0  0  0  0  0
   -3.9160   -2.2180    0.0000 C   0  0  0  0  0  0  0  0  0  0  0  0
   -2.6100   -1.4790    0.0000 C   0  0  0  0  0  0  0  0  0  0  0  0
   -2.5980    0.0210    0.0000 O   0  0  0  0  0  0  0  0  0  0  0  0
   -5.2080   -1.4570    0.0000 C   0  0  0  0  0  0  0  0  0  0  0  0
   -5.1960    0.0430    0.0000 O   0  0  0  0  0  0  0  0  0  0  0  0
   -6.5140   -2.1960    0.0000 C   0  0  0  0  0  0  0  0  0  0  0  0
   -6.5260   -3.6960    0.0000 C   0  0  0  0  0  0  0  0  0  0  0  0
   -7.8310   -4.4360    0.0000 C   0  0  0  0  0  0  0  0  0  0  0  0
   -9.1240   -3.6750    0.0000 C   0  0  0  0  0  0  0  0  0  0  0  0
   -9.1120   -2.1750    0.0000 C   0  0  0  0  0  0  0  0  0  0  0  0
   -7.8060   -1.4360    0.0000 C   0  0  0  0  0  0  0  0  0  0  0  0
   -7.7940    0.0640    0.0000 O   0  0  0  0  0  0  0  0  0  0  0  0
   -5.2330   -4.4570    0.0000 C   0  0  1  0  0  0  0  0  0  0  0  0
   -5.9940   -5.7500    0.0000 O   0  0  0  0  0  0  0  0  0  0  0  0
   -4.4940   -5.7620    0.0000 C   0  0  0  0  0  0  0  0  0  0  0  0
   -0.0370   -4.5000    0.0000 C   0  0  2  0  0  0  0  0  0  0  0  0
   -0.0490   -6.0000    0.0000 N   0  0  0  0  0  0  0  0  0  0  0  0
   -1.3550   -6.7390    0.0000 C   0  0  0  0  0  0  0  0  0  0  0  0
    1.2430   -6.7600    0.0000 C   0  0  0  0  0  0  0  0  0  0  0  0
    1.2680   -3.7610    0.0000 C   0  0  0  0  0  0  0  0  0  0  0  0
    2.5610   -4.5210    0.0000 O   0  0  0  0  0  0  0  0  0  0  0  0
    1.2800   -2.2610    0.0000 C   0  0  0  0  0  0  0  0  0  0  0  0
    2.5860   -1.5210    0.0000 C   0  0  0  0  0  0  0  0  0  0  0  0
    2.5980   -0.0210    0.0000 O   0  0  0  0  0  0  0  0  0  0  0  0
    3.8780   -2.2820    0.0000 N   0  0  0  0  0  0  0  0  0  0  0  0
    5.1840   -1.5430    0.0000 C   0  0  0  0  0  0  0  0  0  0  0  0
    6.4760   -2.3030    0.0000 N   0  0  0  0  0  0  0  0  0  0  0  0
    6.6210   -3.7970    0.0000 C   0  0  0  0  0  0  0  0  0  0  0  0
    8.0860   -4.1200    0.0000 C   0  0  0  0  0  0  0  0  0  0  0  0
    8.8460   -2.8280    0.0000 C   0  0  0  0  0  0  0  0  0  0  0  0
    7.8520   -1.7050    0.0000 C   0  0  0  0  0  0  0  0  0  0  0  0
  1  2  1  0  0  0  0
  2  3  1  0  0  0  0
  2 29  2  0  0  0  0
  3  4  1  1  0  0  0
  3  5  1  0  0  0  0
  3  9  1  0  0  0  0
  5  6  1  6  0  0  0
  5 23  1  0  0  0  0
  6  7  1  0  0  0  0
  7  8  1  6  0  0  0
  7 20  1  0  0  0  0
  8  9  2  0  0  0  0
  8 11  1  0  0  0  0
  9 10  1  0  0  0  0
 11 12  2  0  0  0  0
 11 13  1  0  0  0  0
 13 14  1  0  0  0  0
 13 18  2  0  0  0  0
 14 15  2  0  0  0  0
 14 20  1  0  0  0  0
 15 16  1  0  0  0  0
 16 17  2  0  0  0  0
 17 18  1  0  0  0  0
 18 19  1  0  0  0  0
 20 21  1  6  0  0  0
 20 22  1  1  0  0  0
 23 24  1  1  0  0  0
 23 27  1  0  0  0  0
 24 25  1  0  0  0  0
 24 26  1  0  0  0  0
 27 28  2  0  0  0  0
 27 29  1  0  0  0  0
 29 30  1  0  0  0  0
 30 31  2  0  0  0  0
 30 32  1  0  0  0  0
 32 33  1  0  0  0  0
 33 34  1  0  0  0  0
 34 35  1  0  0  0  0
 34 38  1  0  0  0  0
 35 36  1  0  0  0  0
 36 37  1  0  0  0  0
 37 38  1  0  0  0  0
M  END
>  <Index>
956

>  <ID>
HT1841

>  <class>
0

>  <apol>
79.240166

>  <ast_fraglike>
0

>  <ast_fraglike_ext>
0

>  <ast_violation>
3

>  <ast_violation_ext>
5

>  <a_acc>
10

>  <a_acid>
0

>  <a_aro>
6

>  <a_base>
0

>  <a_count>
71

>  <a_don>
8

>  <a_donacc>
18

>  <a_heavy>
38

>  <a_hyd>
23

>  <a_IC>
113.03019

>  <a_ICM>
1.5919745

>  <a_nB>
0

>  <a_nBr>
0

>  <a_nC>
27

>  <a_nCl>
0

>  <a_nF>
0

>  <a_nH>
33

>  <a_nI>
0

>  <a_nN>
3

>  <a_nO>
8

>  <a_nP>
0

>  <a_nS>
0

>  <balabanJ>
1.4934882

>  <BCUT_PEOE_0>
-2.7833145

>  <BCUT_PEOE_1>
-0.54482734

>  <BCUT_PEOE_2>
0.56226254

>  <BCUT_PEOE_3>
2.8347857

>  <BCUT_SLOGP_0>
-2.8557503

>  <BCUT_SLOGP_1>
-0.54515535

>  <BCUT_SLOGP_2>
0.5705626

>  <BCUT_SLOGP_3>
2.8312397

>  <BCUT_SMR_0>
-2.5500426

>  <BCUT_SMR_1>
-0.35791528

>  <BCUT_SMR_2>
0.69074231

>  <BCUT_SMR_3>
3.0644794

>  <bpol>
43.569832

>  <b_1rotN>
4

>  <b_1rotR>
0.095238097

>  <b_ar>
6

>  <b_count>
75

>  <b_double>
5

>  <b_heavy>
42

>  <b_max1len>
4

>  <b_rotN>
5

>  <b_rotR>
0.11904762

>  <b_single>
64

>  <b_triple>
0

>  <chi0>
27.731321

>  <chi0v>
21.561983

>  <chi0v_C>
16.706743

>  <chi0_C>
17.869514

>  <chi1>
17.828165

>  <chi1v>
12.733816

>  <chi1v_C>
8.2985477

>  <chi1_C>
9.7430353

>  <chiral>
5

>  <chiral_u>
0

>  <density>
0.78422213

>  <diameter>
15

>  <FCharge>
0

>  <GCUT_PEOE_0>
-0.85347742

>  <GCUT_PEOE_1>
-0.43824831

>  <GCUT_PEOE_2>
0.077515446

>  <GCUT_PEOE_3>
3.1978364

>  <GCUT_SLOGP_0>
-1.1627301

>  <GCUT_SLOGP_1>
-0.37476784

>  <GCUT_SLOGP_2>
0.052754655

>  <GCUT_SLOGP_3>
3.1902742

>  <GCUT_SMR_0>
-0.52623183

>  <GCUT_SMR_1>
-0.23438028

>  <GCUT_SMR_2>
0.17592566

>  <GCUT_SMR_3>
3.4346538

>  <Kier1>
29.490931

>  <Kier2>
10.682112

>  <Kier3>
4.5359998

>  <KierA1>
24.222681

>  <KierA2>
8.724823

>  <KierA3>
3.6903777

>  <KierFlex>
5.5615425

>  <lip_acc>
11

>  <lip_don>
6

>  <lip_druglike>
0

>  <lip_violation>
3

>  <logP(o/w)>
0.433

>  <logS>
-2.6411901

>  <mr>
13.422332

>  <mutagenic>
0

>  <nmol>
1

>  <opr_brigid>
26

>  <opr_leadlike>
0

>  <opr_nring>
5

>  <opr_nrot>
5

>  <opr_violation>
4

>  <PC+>
0

>  <PC->
0

>  <PEOE_PC+>
3.9217637

>  <PEOE_PC->
-3.9217637

>  <PEOE_RPC+>
0.065967739

>  <PEOE_RPC->
0.097813904

>  <PEOE_VSA+0>
118.1663

>  <PEOE_VSA+1>
65.547188

>  <PEOE_VSA+2>
10.667059

>  <PEOE_VSA+3>
25.536053

>  <PEOE_VSA+4>
51.620865

>  <PEOE_VSA+5>
12.949531

>  <PEOE_VSA+6>
0

>  <PEOE_VSA-0>
105.79244

>  <PEOE_VSA-1>
24.509808

>  <PEOE_VSA-2>
0

>  <PEOE_VSA-3>
0

>  <PEOE_VSA-4>
0

>  <PEOE_VSA-5>
40.700764

>  <PEOE_VSA-6>
38.974594

>  <PEOE_VSA_FHYD>
0.70827889

>  <PEOE_VSA_FNEG>
0.42465651

>  <PEOE_VSA_FPNEG>
0.1611346

>  <PEOE_VSA_FPOL>
0.29172108

>  <PEOE_VSA_FPOS>
0.57534349

>  <PEOE_VSA_FPPOS>
0.13058649

>  <PEOE_VSA_HYD>
350.21884

>  <PEOE_VSA_NEG>
209.9776

>  <PEOE_VSA_PNEG>
79.675354

>  <PEOE_VSA_POL>
144.24574

>  <PEOE_VSA_POS>
284.487

>  <PEOE_VSA_PPOS>
64.570396

>  <petitjean>
0.46666667

>  <petitjeanSC>
0.875

>  <Q_PC+>
0

>  <Q_PC->
0

>  <Q_RPC+>
0

>  <Q_RPC->
0

>  <Q_VSA_FHYD>
1

>  <Q_VSA_FNEG>
0

>  <Q_VSA_FPNEG>
0

>  <Q_VSA_FPOL>
0

>  <Q_VSA_FPOS>
1

>  <Q_VSA_FPPOS>
0

>  <Q_VSA_HYD>
494.4646

>  <Q_VSA_NEG>
0

>  <Q_VSA_PNEG>
0

>  <Q_VSA_POL>
0

>  <Q_VSA_POS>
494.4646

>  <Q_VSA_PPOS>
0

>  <radius>
8

>  <reactive>
0

>  <rings>
5

>  <RPC+>
0

>  <RPC->
0

>  <rsynth>
1

>  <SlogP>
0.78130001

>  <SlogP_VSA0>
94.166428

>  <SlogP_VSA1>
22.882633

>  <SlogP_VSA2>
51.706402

>  <SlogP_VSA3>
105.66036

>  <SlogP_VSA4>
39.054958

>  <SlogP_VSA5>
82.652382

>  <SlogP_VSA6>
0

>  <SlogP_VSA7>
52.929554

>  <SlogP_VSA8>
56.605217

>  <SlogP_VSA9>
38.569443

>  <SMR>
13.42802

>  <SMR_VSA0>
71.586647

>  <SMR_VSA1>
82.404305

>  <SMR_VSA2>
77.602798

>  <SMR_VSA3>
32.454552

>  <SMR_VSA4>
0

>  <SMR_VSA5>
109.53477

>  <SMR_VSA6>
71.523911

>  <SMR_VSA7>
99.120392

>  <TPSA>
170.87

>  <VAdjEq>
0.32014427

>  <VAdjMa>
6.3923173

>  <VDistEq>
3.5879135

>  <VDistMa>
10.237867

>  <vdw_area>
494.4646

>  <vdw_vol>
672.73541

>  <vsa_acc>
13.566921

>  <vsa_acid>
0

>  <vsa_base>
0

>  <vsa_don>
5.6825762

>  <vsa_hyd>
277.9837

>  <vsa_other>
54.657089

>  <vsa_pol>
114.21794

>  <Weight>
527.57397

>  <weinerPath>
4072

>  <weinerPol>
83

>  <zagreb>
218

$$$$