[nH]1cc(c2cc(ccc12)Cn1ncnc1)CCN(C)C
  MOE2013           2D

 20 22  0  0  0  0  0  0  0  0999 V2000
    0.0000    0.0000    0.0000 N   0  0  0  0  0  0  0  0  0  0  0  0
    0.9970   -1.1210    0.0000 C   0  0  0  0  0  0  0  0  0  0  0  0
    0.2400   -2.4150    0.0000 C   0  0  0  0  0  0  0  0  0  0  0  0
   -1.2260   -2.0950    0.0000 C   0  0  0  0  0  0  0  0  0  0  0  0
   -2.4440   -2.9690    0.0000 C   0  0  0  0  0  0  0  0  0  0  0  0
   -3.8110   -2.3510    0.0000 C   0  0  0  0  0  0  0  0  0  0  0  0
   -3.9590   -0.8590    0.0000 C   0  0  0  0  0  0  0  0  0  0  0  0
   -2.7410    0.0160    0.0000 C   0  0  0  0  0  0  0  0  0  0  0  0
   -1.3740   -0.6020    0.0000 C   0  0  0  0  0  0  0  0  0  0  0  0
   -5.0300   -3.2260    0.0000 C   0  0  0  0  0  0  0  0  0  0  0  0
   -6.3970   -2.6080    0.0000 N   0  0  0  0  0  0  0  0  0  0  0  0
   -6.7000   -1.1390    0.0000 N   0  0  0  0  0  0  0  0  0  0  0  0
   -8.1910   -0.9730    0.0000 C   0  0  0  0  0  0  0  0  0  0  0  0
   -8.8090   -2.3400    0.0000 N   0  0  0  0  0  0  0  0  0  0  0  0
   -7.7000   -3.3500    0.0000 C   0  0  0  0  0  0  0  0  0  0  0  0
    0.8420   -3.7890    0.0000 C   0  0  0  0  0  0  0  0  0  0  0  0
    2.3330   -3.9550    0.0000 C   0  0  0  0  0  0  0  0  0  0  0  0
    2.9350   -5.3280    0.0000 N   0  0  0  0  0  0  0  0  0  0  0  0
    2.0460   -6.5370    0.0000 C   0  0  0  0  0  0  0  0  0  0  0  0
    4.4250   -5.4940    0.0000 C   0  0  0  0  0  0  0  0  0  0  0  0
  1  2  1  0  0  0  0
  1  9  1  0  0  0  0
  2  3  2  0  0  0  0
  3  4  1  0  0  0  0
  3 16  1  0  0  0  0
  4  5  1  0  0  0  0
  4  9  2  0  0  0  0
  5  6  2  0  0  0  0
  6  7  1  0  0  0  0
  6 10  1  0  0  0  0
  7  8  2  0  0  0  0
  8  9  1  0  0  0  0
 10 11  1  0  0  0  0
 11 12  1  0  0  0  0
 11 15  1  0  0  0  0
 12 13  2  0  0  0  0
 13 14  1  0  0  0  0
 14 15  2  0  0  0  0
 16 17  1  0  0  0  0
 17 18  1  0  0  0  0
 18 19  1  0  0  0  0
 18 20  1  0  0  0  0
M  END
>  <Index>
953

>  <ID>
HT1836

>  <class>
0

>  <apol>
44.569065

>  <ast_fraglike>
1

>  <ast_fraglike_ext>
0

>  <ast_violation>
0

>  <ast_violation_ext>
1

>  <a_acc>
3

>  <a_acid>
0

>  <a_aro>
14

>  <a_base>
0

>  <a_count>
39

>  <a_don>
1

>  <a_donacc>
4

>  <a_heavy>
20

>  <a_hyd>
13

>  <a_IC>
55.207066

>  <a_ICM>
1.4155657

>  <a_nB>
0

>  <a_nBr>
0

>  <a_nC>
15

>  <a_nCl>
0

>  <a_nF>
0

>  <a_nH>
19

>  <a_nI>
0

>  <a_nN>
5

>  <a_nO>
0

>  <a_nP>
0

>  <a_nS>
0

>  <balabanJ>
1.5027652

>  <BCUT_PEOE_0>
-2.6034243

>  <BCUT_PEOE_1>
-0.42163634

>  <BCUT_PEOE_2>
0.46071231

>  <BCUT_PEOE_3>
2.5025437

>  <BCUT_SLOGP_0>
-2.6762369

>  <BCUT_SLOGP_1>
-0.35285947

>  <BCUT_SLOGP_2>
0.45828593

>  <BCUT_SLOGP_3>
2.5035586

>  <BCUT_SMR_0>
-2.3194113

>  <BCUT_SMR_1>
-0.24294786

>  <BCUT_SMR_2>
0.73370707

>  <BCUT_SMR_3>
2.7830276

>  <bpol>
26.710934

>  <b_1rotN>
5

>  <b_1rotR>
0.22727273

>  <b_ar>
15

>  <b_count>
41

>  <b_double>
0

>  <b_heavy>
22

>  <b_max1len>
5

>  <b_rotN>
5

>  <b_rotR>
0.22727273

>  <b_single>
26

>  <b_triple>
0

>  <chi0>
13.949383

>  <chi0v>
11.874276

>  <chi0v_C>
9.5854216

>  <chi0_C>
10.673362

>  <chi1>
9.7203465

>  <chi1v>
6.7821693

>  <chi1v_C>
3.4838157

>  <chi1_C>
4.5244045

>  <chiral>
0

>  <chiral_u>
0

>  <density>
0.69920993

>  <diameter>
11

>  <FCharge>
0

>  <GCUT_PEOE_0>
-0.86479455

>  <GCUT_PEOE_1>
-0.33271262

>  <GCUT_PEOE_2>
-0.039382249

>  <GCUT_PEOE_3>
2.5504441

>  <GCUT_SLOGP_0>
-0.95486647

>  <GCUT_SLOGP_1>
-0.30850196

>  <GCUT_SLOGP_2>
0.017963018

>  <GCUT_SLOGP_3>
2.6478961

>  <GCUT_SMR_0>
-0.51724976

>  <GCUT_SMR_1>
-0.1573804

>  <GCUT_SMR_2>
0.17643459

>  <GCUT_SMR_3>
2.8426211

>  <Kier1>
14.917356

>  <Kier2>
6.8400002

>  <Kier3>
3.8144045

>  <KierA1>
10.785209

>  <KierA2>
4.8533549

>  <KierA3>
2.6694868

>  <KierFlex>
2.6172223

>  <lip_acc>
5

>  <lip_don>
1

>  <lip_druglike>
1

>  <lip_violation>
0

>  <logP(o/w)>
1.1

>  <logS>
-1.8681099

>  <mr>
7.9581122

>  <mutagenic>
0

>  <nmol>
1

>  <opr_brigid>
15

>  <opr_leadlike>
1

>  <opr_nring>
3

>  <opr_nrot>
5

>  <opr_violation>
0

>  <PC+>
0

>  <PC->
0

>  <PEOE_PC+>
1.5222192

>  <PEOE_PC->
-1.5222192

>  <PEOE_RPC+>
0.10861961

>  <PEOE_RPC->
0.23673762

>  <PEOE_VSA+0>
81.500191

>  <PEOE_VSA+1>
38.784641

>  <PEOE_VSA+2>
51.004627

>  <PEOE_VSA+3>
8.6190128

>  <PEOE_VSA+4>
0

>  <PEOE_VSA+5>
0

>  <PEOE_VSA+6>
0

>  <PEOE_VSA-0>
84.105576

>  <PEOE_VSA-1>
12.254904

>  <PEOE_VSA-2>
0

>  <PEOE_VSA-3>
9.4210396

>  <PEOE_VSA-4>
5.6825762

>  <PEOE_VSA-5>
0

>  <PEOE_VSA-6>
0.13689101

>  <PEOE_VSA_FHYD>
0.9800368

>  <PEOE_VSA_FNEG>
0.38283831

>  <PEOE_VSA_FPNEG>
0.019963218

>  <PEOE_VSA_FPOL>
0.019963218

>  <PEOE_VSA_FPOS>
0.61716169

>  <PEOE_VSA_FPPOS>
0

>  <PEOE_VSA_HYD>
285.69

>  <PEOE_VSA_NEG>
111.60099

>  <PEOE_VSA_PNEG>
5.8194671

>  <PEOE_VSA_POL>
5.8194671

>  <PEOE_VSA_POS>
179.90848

>  <PEOE_VSA_PPOS>
0

>  <petitjean>
0.45454547

>  <petitjeanSC>
0.83333331

>  <Q_PC+>
0

>  <Q_PC->
0

>  <Q_RPC+>
0

>  <Q_RPC->
0

>  <Q_VSA_FHYD>
1

>  <Q_VSA_FNEG>
0

>  <Q_VSA_FPNEG>
0

>  <Q_VSA_FPOL>
0

>  <Q_VSA_FPOS>
1

>  <Q_VSA_FPPOS>
0

>  <Q_VSA_HYD>
291.50946

>  <Q_VSA_NEG>
0

>  <Q_VSA_PNEG>
0

>  <Q_VSA_POL>
0

>  <Q_VSA_POS>
291.50946

>  <Q_VSA_PPOS>
0

>  <radius>
6

>  <reactive>
0

>  <rings>
3

>  <RPC+>
0

>  <RPC->
0

>  <rsynth>
1

>  <SlogP>
2.17817

>  <SlogP_VSA0>
0

>  <SlogP_VSA1>
38.349422

>  <SlogP_VSA2>
16.78553

>  <SlogP_VSA3>
18.439579

>  <SlogP_VSA4>
6.37115

>  <SlogP_VSA5>
84.662781

>  <SlogP_VSA6>
0

>  <SlogP_VSA7>
108.43207

>  <SlogP_VSA8>
0

>  <SlogP_VSA9>
18.439579

>  <SMR>
7.9885702

>  <SMR_VSA0>
0

>  <SMR_VSA1>
38.349422

>  <SMR_VSA2>
16.78553

>  <SMR_VSA3>
6.37115

>  <SMR_VSA4>
4.7171016

>  <SMR_VSA5>
141.02295

>  <SMR_VSA6>
18.439579

>  <SMR_VSA7>
65.794373

>  <TPSA>
49.740002

>  <VAdjEq>
0.49991596

>  <VAdjMa>
5.4594316

>  <VDistEq>
3.2627752

>  <VDistMa>
8.3275146

>  <vdw_area>
291.50946

>  <vdw_vol>
385.22336

>  <vsa_acc>
15.103616

>  <vsa_acid>
0

>  <vsa_base>
0

>  <vsa_don>
5.6825762

>  <vsa_hyd>
205.25659

>  <vsa_other>
49.581036

>  <vsa_pol>
20.786192

>  <Weight>
269.35199

>  <weinerPath>
871

>  <weinerPol>
25

>  <zagreb>
104

$$$$