Clc1ccc(cc1)/C(=NCCCC(=O)N)/c1cc(F)ccc1O
  MOE2013           2D

 23 24  0  0  0  0  0  0  0  0999 V2000
    0.0000    0.0000    0.0000 Cl  0  0  0  0  0  0  0  0  0  0  0  0
    0.0070   -1.5000    0.0000 C   0  0  0  0  0  0  0  0  0  0  0  0
    1.3090   -2.2440    0.0000 C   0  0  0  0  0  0  0  0  0  0  0  0
    1.3160   -3.7440    0.0000 C   0  0  0  0  0  0  0  0  0  0  0  0
    0.0200   -4.5000    0.0000 C   0  0  0  0  0  0  0  0  0  0  0  0
   -1.2820   -3.7560    0.0000 C   0  0  0  0  0  0  0  0  0  0  0  0
   -1.2890   -2.2560    0.0000 C   0  0  0  0  0  0  0  0  0  0  0  0
    0.0270   -6.0000    0.0000 C   0  0  0  0  0  0  0  0  0  0  0  0
   -1.2690   -6.7560    0.0000 N   0  0  0  0  0  0  0  0  0  0  0  0
   -2.5710   -6.0120    0.0000 C   0  0  0  0  0  0  0  0  0  0  0  0
   -3.8670   -6.7670    0.0000 C   0  0  0  0  0  0  0  0  0  0  0  0
   -5.1690   -6.0230    0.0000 C   0  0  0  0  0  0  0  0  0  0  0  0
   -6.4650   -6.7790    0.0000 C   0  0  0  0  0  0  0  0  0  0  0  0
   -6.4580   -8.2790    0.0000 O   0  0  0  0  0  0  0  0  0  0  0  0
   -7.7670   -6.0350    0.0000 N   0  0  0  0  0  0  0  0  0  0  0  0
    1.3290   -6.7440    0.0000 C   0  0  0  0  0  0  0  0  0  0  0  0
    2.6250   -5.9880    0.0000 C   0  0  0  0  0  0  0  0  0  0  0  0
    3.9270   -6.7320    0.0000 C   0  0  0  0  0  0  0  0  0  0  0  0
    5.2230   -5.9770    0.0000 F   0  0  0  0  0  0  0  0  0  0  0  0
    3.9340   -8.2320    0.0000 C   0  0  0  0  0  0  0  0  0  0  0  0
    2.6380   -8.9880    0.0000 C   0  0  0  0  0  0  0  0  0  0  0  0
    1.3360   -8.2440    0.0000 C   0  0  0  0  0  0  0  0  0  0  0  0
    0.0400   -9.0000    0.0000 O   0  0  0  0  0  0  0  0  0  0  0  0
  1  2  1  0  0  0  0
  2  3  1  0  0  0  0
  2  7  2  0  0  0  0
  3  4  2  0  0  0  0
  4  5  1  0  0  0  0
  5  6  2  0  0  0  0
  5  8  1  0  0  0  0
  6  7  1  0  0  0  0
  8  9  2  3  0  0  0
  8 16  1  0  0  0  0
  9 10  1  0  0  0  0
 10 11  1  0  0  0  0
 11 12  1  0  0  0  0
 12 13  1  0  0  0  0
 13 14  2  0  0  0  0
 13 15  1  0  0  0  0
 16 17  1  0  0  0  0
 16 22  2  0  0  0  0
 17 18  2  0  0  0  0
 18 19  1  0  0  0  0
 18 20  1  0  0  0  0
 20 21  2  0  0  0  0
 21 22  1  0  0  0  0
 22 23  1  0  0  0  0
M  END
>  <Index>
906

>  <ID>
HT1750

>  <class>
0

>  <apol>
47.129688

>  <ast_fraglike>
0

>  <ast_fraglike_ext>
0

>  <ast_violation>
2

>  <ast_violation_ext>
3

>  <a_acc>
3

>  <a_acid>
0

>  <a_aro>
12

>  <a_base>
0

>  <a_count>
39

>  <a_don>
2

>  <a_donacc>
5

>  <a_heavy>
23

>  <a_hyd>
17

>  <a_IC>
68.643822

>  <a_ICM>
1.7600979

>  <a_nB>
0

>  <a_nBr>
0

>  <a_nC>
17

>  <a_nCl>
1

>  <a_nF>
1

>  <a_nH>
16

>  <a_nI>
0

>  <a_nN>
2

>  <a_nO>
2

>  <a_nP>
0

>  <a_nS>
0

>  <balabanJ>
1.9565637

>  <BCUT_PEOE_0>
-2.497153

>  <BCUT_PEOE_1>
-0.603499

>  <BCUT_PEOE_2>
0.60290378

>  <BCUT_PEOE_3>
2.5163476

>  <BCUT_SLOGP_0>
-2.5755765

>  <BCUT_SLOGP_1>
-0.54681271

>  <BCUT_SLOGP_2>
0.7972275

>  <BCUT_SLOGP_3>
2.5474968

>  <BCUT_SMR_0>
-2.2643266

>  <BCUT_SMR_1>
-0.42945236

>  <BCUT_SMR_2>
0.85239941

>  <BCUT_SMR_3>
2.7523315

>  <bpol>
20.732311

>  <b_1rotN>
6

>  <b_1rotR>
0.25

>  <b_ar>
12

>  <b_count>
40

>  <b_double>
2

>  <b_heavy>
24

>  <b_max1len>
4

>  <b_rotN>
6

>  <b_rotR>
0.25

>  <b_single>
26

>  <b_triple>
0

>  <chi0>
16.819626

>  <chi0v>
13.054656

>  <chi0v_C>
9.6627722

>  <chi0_C>
11.112519

>  <chi1>
10.969234

>  <chi1v>
7.4251242

>  <chi1v_C>
5.4129543

>  <chi1_C>
7.1742344

>  <chiral>
0

>  <chiral_u>
0

>  <density>
0.7991603

>  <diameter>
11

>  <FCharge>
0

>  <GCUT_PEOE_0>
-0.82283664

>  <GCUT_PEOE_1>
-0.41422969

>  <GCUT_PEOE_2>
0.073031209

>  <GCUT_PEOE_3>
2.4755535

>  <GCUT_SLOGP_0>
-1.3703902

>  <GCUT_SLOGP_1>
-0.29180408

>  <GCUT_SLOGP_2>
0.1644787

>  <GCUT_SLOGP_3>
2.579767

>  <GCUT_SMR_0>
-0.51490784

>  <GCUT_SMR_1>
-0.2110811

>  <GCUT_SMR_2>
0.244331

>  <GCUT_SMR_3>
2.7687631

>  <Kier1>
19.326389

>  <Kier2>
9.4746094

>  <Kier3>
6.094183

>  <KierA1>
14.728172

>  <KierA2>
7.1244473

>  <KierA3>
4.5361919

>  <KierFlex>
4.5621777

>  <lip_acc>
4

>  <lip_don>
3

>  <lip_druglike>
1

>  <lip_violation>
0

>  <logP(o/w)>
3.2449999

>  <logS>
-4.5820298

>  <mr>
8.962656

>  <mutagenic>
0

>  <nmol>
1

>  <opr_brigid>
13

>  <opr_leadlike>
1

>  <opr_nring>
2

>  <opr_nrot>
6

>  <opr_violation>
0

>  <PC+>
0

>  <PC->
0

>  <PEOE_PC+>
1.8543166

>  <PEOE_PC->
-1.8543166

>  <PEOE_RPC+>
0.11782143

>  <PEOE_RPC->
0.19944446

>  <PEOE_VSA+0>
47.892006

>  <PEOE_VSA+1>
53.546543

>  <PEOE_VSA+2>
9.0208454

>  <PEOE_VSA+3>
17.238026

>  <PEOE_VSA+4>
23.273705

>  <PEOE_VSA+5>
0

>  <PEOE_VSA+6>
0

>  <PEOE_VSA-0>
69.97583

>  <PEOE_VSA-1>
54.091755

>  <PEOE_VSA-2>
0

>  <PEOE_VSA-3>
0

>  <PEOE_VSA-4>
11.908636

>  <PEOE_VSA-5>
19.249496

>  <PEOE_VSA-6>
14.418659

>  <PEOE_VSA_FHYD>
0.78525525

>  <PEOE_VSA_FNEG>
0.52912092

>  <PEOE_VSA_FPNEG>
0.14215405

>  <PEOE_VSA_FPOL>
0.21474475

>  <PEOE_VSA_FPOS>
0.47087905

>  <PEOE_VSA_FPPOS>
0.072590701

>  <PEOE_VSA_HYD>
251.76501

>  <PEOE_VSA_NEG>
169.64438

>  <PEOE_VSA_PNEG>
45.576794

>  <PEOE_VSA_POL>
68.850494

>  <PEOE_VSA_POS>
150.97113

>  <PEOE_VSA_PPOS>
23.273705

>  <petitjean>
0.45454547

>  <petitjeanSC>
0.83333331

>  <Q_PC+>
0

>  <Q_PC->
0

>  <Q_RPC+>
0

>  <Q_RPC->
0

>  <Q_VSA_FHYD>
1

>  <Q_VSA_FNEG>
0

>  <Q_VSA_FPNEG>
0

>  <Q_VSA_FPOL>
0

>  <Q_VSA_FPOS>
1

>  <Q_VSA_FPPOS>
0

>  <Q_VSA_HYD>
320.61551

>  <Q_VSA_NEG>
0

>  <Q_VSA_PNEG>
0

>  <Q_VSA_POL>
0

>  <Q_VSA_POS>
320.61551

>  <Q_VSA_PPOS>
0

>  <radius>
6

>  <reactive>
1

>  <rings>
2

>  <RPC+>
0

>  <RPC->
0

>  <rsynth>
1

>  <SlogP>
3.2876

>  <SlogP_VSA0>
58.282413

>  <SlogP_VSA1>
8.0155315

>  <SlogP_VSA2>
32.983234

>  <SlogP_VSA3>
18.439579

>  <SlogP_VSA4>
6.37115

>  <SlogP_VSA5>
16.78553

>  <SlogP_VSA6>
3.5006065

>  <SlogP_VSA7>
123.50229

>  <SlogP_VSA8>
37.736813

>  <SlogP_VSA9>
59.352184

>  <SMR>
8.8451204

>  <SMR_VSA0>
23.862217

>  <SMR_VSA1>
57.130871

>  <SMR_VSA2>
9.1210184

>  <SMR_VSA3>
15.115185

>  <SMR_VSA4>
32.897186

>  <SMR_VSA5>
161.23911

>  <SMR_VSA6>
26.455109

>  <SMR_VSA7>
39.148643

>  <TPSA>
75.68

>  <VAdjEq>
0.43892586

>  <VAdjMa>
5.5849624

>  <VDistEq>
3.2777646

>  <VDistMa>
8.7721729

>  <vdw_area>
320.61551

>  <vdw_vol>
418.91217

>  <vsa_acc>
19.249496

>  <vsa_acid>
0

>  <vsa_base>
0

>  <vsa_don>
17.742489

>  <vsa_hyd>
230.48273

>  <vsa_other>
19.649082

>  <vsa_pol>
50.558907

>  <Weight>
334.77798

>  <weinerPath>
1238

>  <weinerPol>
32

>  <zagreb>
112

$$$$