OC(=O)C(=O)C
  MOE2013           2D

  6  5  0  0  0  0  0  0  0  0999 V2000
    0.0000    0.0000    0.0000 O   0  0  0  0  0  0  0  0  0  0  0  0
   -0.7500   -1.2990    0.0000 C   0  0  0  0  0  0  0  0  0  0  0  0
    0.0000   -2.5980    0.0000 O   0  0  0  0  0  0  0  0  0  0  0  0
   -2.2500   -1.2990    0.0000 C   0  0  0  0  0  0  0  0  0  0  0  0
   -3.0000    0.0000    0.0000 O   0  0  0  0  0  0  0  0  0  0  0  0
   -3.0000   -2.5980    0.0000 C   0  0  0  0  0  0  0  0  0  0  0  0
  1  2  1  0  0  0  0
  2  3  2  0  0  0  0
  2  4  1  0  0  0  0
  4  5  2  0  0  0  0
  4  6  1  0  0  0  0
M  END
>  <Index>
921

>  <ID>
HT1782

>  <class>
0

>  <apol>
10.353172

>  <ast_fraglike>
1

>  <ast_fraglike_ext>
1

>  <ast_violation>
0

>  <ast_violation_ext>
0

>  <a_acc>
3

>  <a_acid>
0

>  <a_aro>
0

>  <a_base>
0

>  <a_count>
10

>  <a_don>
2

>  <a_donacc>
5

>  <a_heavy>
6

>  <a_hyd>
1

>  <a_IC>
15.709506

>  <a_ICM>
1.5709506

>  <a_nB>
0

>  <a_nBr>
0

>  <a_nC>
3

>  <a_nCl>
0

>  <a_nF>
0

>  <a_nH>
4

>  <a_nI>
0

>  <a_nN>
0

>  <a_nO>
3

>  <a_nP>
0

>  <a_nS>
0

>  <balabanJ>
3.1623106

>  <BCUT_PEOE_0>
-2.1182764

>  <BCUT_PEOE_1>
-0.48293906

>  <BCUT_PEOE_2>
0.22963786

>  <BCUT_PEOE_3>
2.2742236

>  <BCUT_SLOGP_0>
-2.2680991

>  <BCUT_SLOGP_1>
-0.44125175

>  <BCUT_SLOGP_2>
0.19505404

>  <BCUT_SLOGP_3>
2.1901784

>  <BCUT_SMR_0>
-1.9119343

>  <BCUT_SMR_1>
-0.24204616

>  <BCUT_SMR_2>
0.43852457

>  <BCUT_SMR_3>
2.492965

>  <bpol>
6.2888279

>  <b_1rotN>
1

>  <b_1rotR>
0.2

>  <b_ar>
0

>  <b_count>
9

>  <b_double>
2

>  <b_heavy>
5

>  <b_max1len>
2

>  <b_rotN>
1

>  <b_rotR>
0.2

>  <b_single>
7

>  <b_triple>
0

>  <chi0>
5.1547008

>  <chi0v>
3.2637103

>  <chi0v_C>
2

>  <chi0_C>
2.1547005

>  <chi1>
2.6427345

>  <chi1v>
1.3818551

>  <chi1v_C>
0.75

>  <chi1_C>
0.91068363

>  <chiral>
0

>  <chiral_u>
0

>  <density>
0.89801019

>  <diameter>
3

>  <FCharge>
0

>  <GCUT_PEOE_0>
-0.68724728

>  <GCUT_PEOE_1>
-0.47916147

>  <GCUT_PEOE_2>
-0.018463343

>  <GCUT_PEOE_3>
1.6566248

>  <GCUT_SLOGP_0>
-0.93031371

>  <GCUT_SLOGP_1>
-0.46115947

>  <GCUT_SLOGP_2>
-0.037

>  <GCUT_SLOGP_3>
1.5426587

>  <GCUT_SMR_0>
-0.46795905

>  <GCUT_SMR_1>
-0.22954196

>  <GCUT_SMR_2>
0.1711949

>  <GCUT_SMR_3>
1.8687913

>  <Kier1>
6

>  <Kier2>
2.2222223

>  <Kier3>
3

>  <KierA1>
4.1817598

>  <KierA2>
1.4128889

>  <KierA3>
1.734

>  <KierFlex>
0.98472703

>  <lip_acc>
3

>  <lip_don>
1

>  <lip_druglike>
1

>  <lip_violation>
0

>  <logP(o/w)>
-0.52399999

>  <logS>
0.07491

>  <mr>
1.9305654

>  <mutagenic>
0

>  <nmol>
1

>  <opr_brigid>
0

>  <opr_leadlike>
1

>  <opr_nring>
0

>  <opr_nrot>
1

>  <opr_violation>
0

>  <PC+>
0

>  <PC->
0

>  <PEOE_PC+>
0.86823821

>  <PEOE_PC->
-0.86823821

>  <PEOE_RPC+>
0.37620157

>  <PEOE_RPC->
0.3747077

>  <PEOE_VSA+0>
31.543835

>  <PEOE_VSA+1>
0

>  <PEOE_VSA+2>
0

>  <PEOE_VSA+3>
0

>  <PEOE_VSA+4>
18.782692

>  <PEOE_VSA+5>
0

>  <PEOE_VSA+6>
14.708499

>  <PEOE_VSA-0>
0

>  <PEOE_VSA-1>
0

>  <PEOE_VSA-2>
0

>  <PEOE_VSA-3>
0

>  <PEOE_VSA-4>
0

>  <PEOE_VSA-5>
27.133842

>  <PEOE_VSA-6>
7.7675405

>  <PEOE_VSA_FHYD>
0.31563908

>  <PEOE_VSA_FNEG>
0.34923589

>  <PEOE_VSA_FPNEG>
0.34923589

>  <PEOE_VSA_FPOL>
0.68436092

>  <PEOE_VSA_FPOS>
0.65076411

>  <PEOE_VSA_FPPOS>
0.33512503

>  <PEOE_VSA_HYD>
31.543835

>  <PEOE_VSA_NEG>
34.901382

>  <PEOE_VSA_PNEG>
34.901382

>  <PEOE_VSA_POL>
68.39257

>  <PEOE_VSA_POS>
65.035027

>  <PEOE_VSA_PPOS>
33.491192

>  <petitjean>
0.33333334

>  <petitjeanSC>
0.5

>  <Q_PC+>
0

>  <Q_PC->
0

>  <Q_RPC+>
0

>  <Q_RPC->
0

>  <Q_VSA_FHYD>
1

>  <Q_VSA_FNEG>
0

>  <Q_VSA_FPNEG>
0

>  <Q_VSA_FPOL>
0

>  <Q_VSA_FPOS>
1

>  <Q_VSA_FPPOS>
0

>  <Q_VSA_HYD>
99.936409

>  <Q_VSA_NEG>
0

>  <Q_VSA_PNEG>
0

>  <Q_VSA_POL>
0

>  <Q_VSA_POS>
99.936409

>  <Q_VSA_PPOS>
0

>  <radius>
2

>  <reactive>
0

>  <rings>
0

>  <RPC+>
0

>  <RPC->
0

>  <rsynth>
1

>  <SlogP>
-0.34

>  <SlogP_VSA0>
0

>  <SlogP_VSA1>
13.433075

>  <SlogP_VSA2>
47.724434

>  <SlogP_VSA3>
25.385227

>  <SlogP_VSA4>
0

>  <SlogP_VSA5>
0

>  <SlogP_VSA6>
0

>  <SlogP_VSA7>
0

>  <SlogP_VSA8>
0

>  <SlogP_VSA9>
33.326015

>  <SMR>
1.8316801

>  <SMR_VSA0>
47.724434

>  <SMR_VSA1>
0

>  <SMR_VSA2>
25.385227

>  <SMR_VSA3>
0

>  <SMR_VSA4>
0

>  <SMR_VSA5>
0

>  <SMR_VSA6>
13.433075

>  <SMR_VSA7>
33.326015

>  <TPSA>
54.369999

>  <VAdjEq>
0.85240519

>  <VAdjMa>
3.321928

>  <VDistEq>
1.5655962

>  <VDistMa>
4.7883415

>  <vdw_area>
99.936409

>  <vdw_vol>
98.063469

>  <vsa_acc>
13.566921

>  <vsa_acid>
0

>  <vsa_base>
0

>  <vsa_don>
0

>  <vsa_hyd>
29.408449

>  <vsa_other>
23.167019

>  <vsa_pol>
40.700764

>  <Weight>
88.061996

>  <weinerPath>
29

>  <weinerPol>
4

>  <zagreb>
22

$$$$