FC(F)(F)c1cc(ccc1)C(=NOCCCCC(O)=O)c1cccnc1
  MOE2013           2D

 26 27  0  0  0  0  0  0  0  0999 V2000
    0.0000    0.0000    0.0000 F   0  0  0  0  0  0  0  0  0  0  0  0
    0.7540    1.2970    0.0000 C   0  0  0  0  0  0  0  0  0  0  0  0
    2.0510    0.5430    0.0000 F   0  0  0  0  0  0  0  0  0  0  0  0
   -0.5430    2.0510    0.0000 F   0  0  0  0  0  0  0  0  0  0  0  0
    1.5080    2.5940    0.0000 C   0  0  0  0  0  0  0  0  0  0  0  0
    3.0080    2.5890    0.0000 C   0  0  0  0  0  0  0  0  0  0  0  0
    3.7620    3.8860    0.0000 C   0  0  0  0  0  0  0  0  0  0  0  0
    3.0160    5.1870    0.0000 C   0  0  0  0  0  0  0  0  0  0  0  0
    1.5160    5.1920    0.0000 C   0  0  0  0  0  0  0  0  0  0  0  0
    0.7620    3.8950    0.0000 C   0  0  0  0  0  0  0  0  0  0  0  0
    5.2620    3.8810    0.0000 C   0  0  0  0  0  0  0  0  0  0  0  0
    6.0080    2.5800    0.0000 N   0  0  0  0  0  0  0  0  0  0  0  0
    7.5080    2.5760    0.0000 O   0  0  0  0  0  0  0  0  0  0  0  0
    8.2540    1.2740    0.0000 C   0  0  0  0  0  0  0  0  0  0  0  0
    9.7540    1.2700    0.0000 C   0  0  0  0  0  0  0  0  0  0  0  0
   10.5000   -0.0320    0.0000 C   0  0  0  0  0  0  0  0  0  0  0  0
   12.0000   -0.0360    0.0000 C   0  0  0  0  0  0  0  0  0  0  0  0
   12.7460   -1.3370    0.0000 C   0  0  0  0  0  0  0  0  0  0  0  0
   11.9920   -2.6340    0.0000 O   0  0  0  0  0  0  0  0  0  0  0  0
   14.2460   -1.3420    0.0000 O   0  0  0  0  0  0  0  0  0  0  0  0
    6.0160    5.1780    0.0000 C   0  0  0  0  0  0  0  0  0  0  0  0
    7.5160    5.1740    0.0000 C   0  0  0  0  0  0  0  0  0  0  0  0
    8.2690    6.4700    0.0000 C   0  0  0  0  0  0  0  0  0  0  0  0
    7.5230    7.7720    0.0000 C   0  0  0  0  0  0  0  0  0  0  0  0
    6.0230    7.7760    0.0000 N   0  0  0  0  0  0  0  0  0  0  0  0
    5.2690    6.4790    0.0000 C   0  0  0  0  0  0  0  0  0  0  0  0
  1  2  1  0  0  0  0
  2  3  1  0  0  0  0
  2  4  1  0  0  0  0
  2  5  1  0  0  0  0
  5  6  1  0  0  0  0
  5 10  2  0  0  0  0
  6  7  2  0  0  0  0
  7  8  1  0  0  0  0
  7 11  1  0  0  0  0
  8  9  2  0  0  0  0
  9 10  1  0  0  0  0
 11 12  2  3  0  0  0
 11 21  1  0  0  0  0
 12 13  1  0  0  0  0
 13 14  1  0  0  0  0
 14 15  1  0  0  0  0
 15 16  1  0  0  0  0
 16 17  1  0  0  0  0
 17 18  1  0  0  0  0
 18 19  1  0  0  0  0
 18 20  2  0  0  0  0
 21 22  1  0  0  0  0
 21 26  2  0  0  0  0
 22 23  2  0  0  0  0
 23 24  1  0  0  0  0
 24 25  2  0  0  0  0
 25 26  1  0  0  0  0
M  END
>  <Index>
944

>  <ID>
HT1819

>  <class>
0

>  <apol>
49.29248

>  <ast_fraglike>
0

>  <ast_fraglike_ext>
0

>  <ast_violation>
3

>  <ast_violation_ext>
4

>  <a_acc>
4

>  <a_acid>
0

>  <a_aro>
12

>  <a_base>
0

>  <a_count>
43

>  <a_don>
2

>  <a_donacc>
6

>  <a_heavy>
26

>  <a_hyd>
19

>  <a_IC>
77.274094

>  <a_ICM>
1.7970719

>  <a_nB>
0

>  <a_nBr>
0

>  <a_nC>
18

>  <a_nCl>
0

>  <a_nF>
3

>  <a_nH>
17

>  <a_nI>
0

>  <a_nN>
2

>  <a_nO>
3

>  <a_nP>
0

>  <a_nS>
0

>  <balabanJ>
1.868006

>  <BCUT_PEOE_0>
-2.5584776

>  <BCUT_PEOE_1>
-0.58312136

>  <BCUT_PEOE_2>
0.6470952

>  <BCUT_PEOE_3>
2.570786

>  <BCUT_SLOGP_0>
-2.5080752

>  <BCUT_SLOGP_1>
-0.4884901

>  <BCUT_SLOGP_2>
0.74943441

>  <BCUT_SLOGP_3>
2.6429467

>  <BCUT_SMR_0>
-2.3379018

>  <BCUT_SMR_1>
-0.45119077

>  <BCUT_SMR_2>
0.79498369

>  <BCUT_SMR_3>
2.7913842

>  <bpol>
26.38752

>  <b_1rotN>
8

>  <b_1rotR>
0.2962963

>  <b_ar>
12

>  <b_count>
44

>  <b_double>
2

>  <b_heavy>
27

>  <b_max1len>
5

>  <b_rotN>
9

>  <b_rotR>
0.33333334

>  <b_single>
30

>  <b_triple>
0

>  <chi0>
18.993353

>  <chi0v>
13.73926

>  <chi0v_C>
10.447229

>  <chi0_C>
11.872033

>  <chi1>
12.376029

>  <chi1v>
7.8748689

>  <chi1v_C>
5.6689377

>  <chi1_C>
7.3130798

>  <chiral>
0

>  <chiral_u>
0

>  <density>
0.82530445

>  <diameter>
13

>  <FCharge>
0

>  <GCUT_PEOE_0>
-0.77141804

>  <GCUT_PEOE_1>
-0.38975346

>  <GCUT_PEOE_2>
0.078652091

>  <GCUT_PEOE_3>
2.4761255

>  <GCUT_SLOGP_0>
-0.87275553

>  <GCUT_SLOGP_1>
-0.31356901

>  <GCUT_SLOGP_2>
0.25918278

>  <GCUT_SLOGP_3>
2.5657504

>  <GCUT_SMR_0>
-0.52572811

>  <GCUT_SMR_1>
-0.20194504

>  <GCUT_SMR_2>
0.17897283

>  <GCUT_SMR_3>
2.7446551

>  <Kier1>
22.29081

>  <Kier2>
11.111111

>  <Kier3>
7.8810234

>  <KierA1>
16.585859

>  <KierA2>
8.1622238

>  <KierA3>
5.7365189

>  <KierFlex>
5.2068267

>  <lip_acc>
5

>  <lip_don>
1

>  <lip_druglike>
1

>  <lip_violation>
0

>  <logP(o/w)>
4.3257599

>  <logS>
-3.76495

>  <mr>
9.2021894

>  <mutagenic>
0

>  <nmol>
1

>  <opr_brigid>
13

>  <opr_leadlike>
1

>  <opr_nring>
2

>  <opr_nrot>
8

>  <opr_violation>
0

>  <PC+>
0

>  <PC->
0

>  <PEOE_PC+>
2.1036215

>  <PEOE_PC->
-2.1036215

>  <PEOE_RPC+>
0.19843853

>  <PEOE_RPC->
0.15747483

>  <PEOE_VSA+0>
72.202538

>  <PEOE_VSA+1>
59.813694

>  <PEOE_VSA+2>
6.6995511

>  <PEOE_VSA+3>
0

>  <PEOE_VSA+4>
10.324173

>  <PEOE_VSA+5>
14.708499

>  <PEOE_VSA+6>
9.0455017

>  <PEOE_VSA-0>
54.167339

>  <PEOE_VSA-1>
36.764713

>  <PEOE_VSA-2>
10.885262

>  <PEOE_VSA-3>
35.725906

>  <PEOE_VSA-4>
5.9023595

>  <PEOE_VSA-5>
19.249496

>  <PEOE_VSA-6>
7.7675405

>  <PEOE_VSA_FHYD>
0.8048178

>  <PEOE_VSA_FNEG>
0.49660408

>  <PEOE_VSA_FPNEG>
0.095903181

>  <PEOE_VSA_FPOL>
0.19518219

>  <PEOE_VSA_FPOS>
0.50339592

>  <PEOE_VSA_FPPOS>
0.099279016

>  <PEOE_VSA_HYD>
276.259

>  <PEOE_VSA_NEG>
170.46262

>  <PEOE_VSA_PNEG>
32.919395

>  <PEOE_VSA_POL>
66.997574

>  <PEOE_VSA_POS>
172.79396

>  <PEOE_VSA_PPOS>
34.078175

>  <petitjean>
0.46153846

>  <petitjeanSC>
0.85714287

>  <Q_PC+>
0

>  <Q_PC->
0

>  <Q_RPC+>
0

>  <Q_RPC->
0

>  <Q_VSA_FHYD>
1

>  <Q_VSA_FNEG>
0

>  <Q_VSA_FPNEG>
0

>  <Q_VSA_FPOL>
0

>  <Q_VSA_FPOS>
1

>  <Q_VSA_FPPOS>
0

>  <Q_VSA_HYD>
343.25656

>  <Q_VSA_NEG>
0

>  <Q_VSA_PNEG>
0

>  <Q_VSA_POL>
0

>  <Q_VSA_POS>
343.25656

>  <Q_VSA_PPOS>
0

>  <radius>
7

>  <reactive>
1

>  <rings>
2

>  <RPC+>
0

>  <RPC->
0

>  <rsynth>
1

>  <SlogP>
4.4358001

>  <SlogP_VSA0>
0

>  <SlogP_VSA1>
27.287741

>  <SlogP_VSA2>
35.080978

>  <SlogP_VSA3>
46.311485

>  <SlogP_VSA4>
9.5567245

>  <SlogP_VSA5>
19.399862

>  <SlogP_VSA6>
7.7595162

>  <SlogP_VSA7>
140.28783

>  <SlogP_VSA8>
56.605217

>  <SlogP_VSA9>
44.880341

>  <SMR>
8.8875799

>  <SMR_VSA0>
35.080978

>  <SMR_VSA1>
81.065735

>  <SMR_VSA2>
33.144741

>  <SMR_VSA3>
9.5567245

>  <SMR_VSA4>
0

>  <SMR_VSA5>
196.89304

>  <SMR_VSA6>
31.428471

>  <SMR_VSA7>
0

>  <TPSA>
71.779999

>  <VAdjEq>
0.40176207

>  <VAdjMa>
5.7548876

>  <VDistEq>
3.5645461

>  <VDistMa>
9.1073828

>  <vdw_area>
343.25656

>  <vdw_vol>
443.88345

>  <vsa_acc>
16.567839

>  <vsa_acid>
0

>  <vsa_base>
0

>  <vsa_don>
0

>  <vsa_hyd>
256.33096

>  <vsa_other>
27.31041

>  <vsa_pol>
43.701679

>  <Weight>
366.33899

>  <weinerPath>
1847

>  <weinerPol>
35

>  <zagreb>
126

$$$$