Clc1cc(Cl)ccc1-n1nc(C(=O)NN2CCCCC2)c(C)c1-c1ccc(Cl)cc1
  MOE2013           2D

 30 33  0  0  0  0  0  0  0  0999 V2000
    0.0000    0.0000    0.0000 Cl  0  0  0  0  0  0  0  0  0  0  0  0
   -1.3040   -0.7410    0.0000 C   0  0  0  0  0  0  0  0  0  0  0  0
   -2.5980    0.0180    0.0000 C   0  0  0  0  0  0  0  0  0  0  0  0
   -3.9020   -0.7240    0.0000 C   0  0  0  0  0  0  0  0  0  0  0  0
   -5.1960    0.0350    0.0000 Cl  0  0  0  0  0  0  0  0  0  0  0  0
   -3.9120   -2.2240    0.0000 C   0  0  0  0  0  0  0  0  0  0  0  0
   -2.6180   -2.9820    0.0000 C   0  0  0  0  0  0  0  0  0  0  0  0
   -1.3140   -2.2410    0.0000 C   0  0  0  0  0  0  0  0  0  0  0  0
   -0.0200   -3.0000    0.0000 N   0  0  0  0  0  0  0  0  0  0  0  0
    1.3540   -2.3990    0.0000 N   0  0  0  0  0  0  0  0  0  0  0  0
    2.3500   -3.5210    0.0000 C   0  0  0  0  0  0  0  0  0  0  0  0
    3.8430   -3.3740    0.0000 C   0  0  0  0  0  0  0  0  0  0  0  0
    4.7160   -4.5930    0.0000 O   0  0  0  0  0  0  0  0  0  0  0  0
    4.4620   -2.0080    0.0000 N   0  0  0  0  0  0  0  0  0  0  0  0
    5.9550   -1.8610    0.0000 N   0  0  0  0  0  0  0  0  0  0  0  0
    6.5750   -0.4950    0.0000 C   0  0  0  0  0  0  0  0  0  0  0  0
    8.0670   -0.3480    0.0000 C   0  0  0  0  0  0  0  0  0  0  0  0
    8.9410   -1.5680    0.0000 C   0  0  0  0  0  0  0  0  0  0  0  0
    8.3210   -2.9340    0.0000 C   0  0  0  0  0  0  0  0  0  0  0  0
    6.8290   -3.0810    0.0000 C   0  0  0  0  0  0  0  0  0  0  0  0
    1.5910   -4.8150    0.0000 C   0  0  0  0  0  0  0  0  0  0  0  0
    2.1920   -6.1890    0.0000 C   0  0  0  0  0  0  0  0  0  0  0  0
    0.1260   -4.4930    0.0000 C   0  0  0  0  0  0  0  0  0  0  0  0
   -0.9950   -5.4890    0.0000 C   0  0  0  0  0  0  0  0  0  0  0  0
   -0.6930   -6.9580    0.0000 C   0  0  0  0  0  0  0  0  0  0  0  0
   -1.8150   -7.9540    0.0000 C   0  0  0  0  0  0  0  0  0  0  0  0
   -3.2380   -7.4810    0.0000 C   0  0  0  0  0  0  0  0  0  0  0  0
   -4.3600   -8.4770    0.0000 Cl  0  0  0  0  0  0  0  0  0  0  0  0
   -3.5400   -6.0120    0.0000 C   0  0  0  0  0  0  0  0  0  0  0  0
   -2.4190   -5.0160    0.0000 C   0  0  0  0  0  0  0  0  0  0  0  0
  1  2  1  0  0  0  0
  2  3  1  0  0  0  0
  2  8  2  0  0  0  0
  3  4  2  0  0  0  0
  4  5  1  0  0  0  0
  4  6  1  0  0  0  0
  6  7  2  0  0  0  0
  7  8  1  0  0  0  0
  8  9  1  0  0  0  0
  9 10  1  0  0  0  0
  9 23  1  0  0  0  0
 10 11  2  0  0  0  0
 11 12  1  0  0  0  0
 11 21  1  0  0  0  0
 12 13  2  0  0  0  0
 12 14  1  0  0  0  0
 14 15  1  0  0  0  0
 15 16  1  0  0  0  0
 15 20  1  0  0  0  0
 16 17  1  0  0  0  0
 17 18  1  0  0  0  0
 18 19  1  0  0  0  0
 19 20  1  0  0  0  0
 21 22  1  0  0  0  0
 21 23  2  0  0  0  0
 23 24  1  0  0  0  0
 24 25  1  0  0  0  0
 24 30  2  0  0  0  0
 25 26  2  0  0  0  0
 26 27  1  0  0  0  0
 27 28  1  0  0  0  0
 27 29  2  0  0  0  0
 29 30  1  0  0  0  0
M  END
>  <Index>
949

>  <ID>
HT1828

>  <class>
0

>  <apol>
64.464653

>  <ast_fraglike>
0

>  <ast_fraglike_ext>
0

>  <ast_violation>
2

>  <ast_violation_ext>
3

>  <a_acc>
3

>  <a_acid>
0

>  <a_aro>
17

>  <a_base>
0

>  <a_count>
51

>  <a_don>
1

>  <a_donacc>
4

>  <a_heavy>
30

>  <a_hyd>
24

>  <a_IC>
86.192642

>  <a_ICM>
1.6900518

>  <a_nB>
0

>  <a_nBr>
0

>  <a_nC>
22

>  <a_nCl>
3

>  <a_nF>
0

>  <a_nH>
21

>  <a_nI>
0

>  <a_nN>
4

>  <a_nO>
1

>  <a_nP>
0

>  <a_nS>
0

>  <balabanJ>
1.4881589

>  <BCUT_PEOE_0>
-2.748678

>  <BCUT_PEOE_1>
-0.64200127

>  <BCUT_PEOE_2>
0.66189045

>  <BCUT_PEOE_3>
2.6758814

>  <BCUT_SLOGP_0>
-2.8028274

>  <BCUT_SLOGP_1>
-0.47823054

>  <BCUT_SLOGP_2>
0.83946329

>  <BCUT_SLOGP_3>
2.7256131

>  <BCUT_SMR_0>
-2.4862952

>  <BCUT_SMR_1>
-0.38298354

>  <BCUT_SMR_2>
0.8892588

>  <BCUT_SMR_3>
2.9337432

>  <bpol>
28.475348

>  <b_1rotN>
4

>  <b_1rotR>
0.12121212

>  <b_ar>
17

>  <b_count>
54

>  <b_double>
1

>  <b_heavy>
33

>  <b_max1len>
2

>  <b_rotN>
5

>  <b_rotR>
0.15151516

>  <b_single>
36

>  <b_triple>
0

>  <chi0>
21.250347

>  <chi0v>
18.728556

>  <chi0v_C>
13.076985

>  <chi0_C>
14.681434

>  <chi1>
14.435561

>  <chi1v>
10.941248

>  <chi1v_C>
7.059401

>  <chi1_C>
9.0100031

>  <chiral>
0

>  <chiral_u>
0

>  <density>
0.82319582

>  <diameter>
13

>  <FCharge>
0

>  <GCUT_PEOE_0>
-0.86569649

>  <GCUT_PEOE_1>
-0.39189649

>  <GCUT_PEOE_2>
0.03408337

>  <GCUT_PEOE_3>
2.6953616

>  <GCUT_SLOGP_0>
-1.1769707

>  <GCUT_SLOGP_1>
-0.26165488

>  <GCUT_SLOGP_2>
0.23120743

>  <GCUT_SLOGP_3>
2.7757652

>  <GCUT_SMR_0>
-0.52419531

>  <GCUT_SMR_1>
-0.17947009

>  <GCUT_SMR_2>
0.28411698

>  <GCUT_SMR_3>
2.9805727

>  <Kier1>
23.168043

>  <Kier2>
10.29244

>  <Kier3>
5.3333335

>  <KierA1>
20.022257

>  <KierA2>
8.848031

>  <KierA3>
4.5677414

>  <KierFlex>
5.9052515

>  <lip_acc>
5

>  <lip_don>
1

>  <lip_druglike>
1

>  <lip_violation>
1

>  <logP(o/w)>
5.3449998

>  <logS>
-7.1233802

>  <mr>
12.212756

>  <mutagenic>
0

>  <nmol>
1

>  <opr_brigid>
23

>  <opr_leadlike>
0

>  <opr_nring>
4

>  <opr_nrot>
6

>  <opr_violation>
2

>  <PC+>
0

>  <PC->
0

>  <PEOE_PC+>
1.8542714

>  <PEOE_PC->
-1.8542714

>  <PEOE_RPC+>
0.15453707

>  <PEOE_RPC->
0.15260531

>  <PEOE_VSA+0>
95.291237

>  <PEOE_VSA+1>
47.77655

>  <PEOE_VSA+2>
0

>  <PEOE_VSA+3>
15.318564

>  <PEOE_VSA+4>
0

>  <PEOE_VSA+5>
12.949531

>  <PEOE_VSA+6>
0

>  <PEOE_VSA-0>
97.42482

>  <PEOE_VSA-1>
121.95696

>  <PEOE_VSA-2>
0

>  <PEOE_VSA-3>
9.4210396

>  <PEOE_VSA-4>
0

>  <PEOE_VSA-5>
17.442276

>  <PEOE_VSA-6>
0

>  <PEOE_VSA_FHYD>
0.92721939

>  <PEOE_VSA_FNEG>
0.58969426

>  <PEOE_VSA_FPNEG>
0.041769803

>  <PEOE_VSA_FPOL>
0.072780631

>  <PEOE_VSA_FPOS>
0.41030577

>  <PEOE_VSA_FPPOS>
0.031010825

>  <PEOE_VSA_HYD>
387.18918

>  <PEOE_VSA_NEG>
246.2451

>  <PEOE_VSA_PNEG>
17.442276

>  <PEOE_VSA_POL>
30.391806

>  <PEOE_VSA_POS>
171.33589

>  <PEOE_VSA_PPOS>
12.949531

>  <petitjean>
0.46153846

>  <petitjeanSC>
0.85714287

>  <Q_PC+>
0

>  <Q_PC->
0

>  <Q_RPC+>
0

>  <Q_RPC->
0

>  <Q_VSA_FHYD>
1

>  <Q_VSA_FNEG>
0

>  <Q_VSA_FPNEG>
0

>  <Q_VSA_FPOL>
0

>  <Q_VSA_FPOS>
1

>  <Q_VSA_FPPOS>
0

>  <Q_VSA_HYD>
417.58099

>  <Q_VSA_NEG>
0

>  <Q_VSA_PNEG>
0

>  <Q_VSA_POL>
0

>  <Q_VSA_POS>
417.58099

>  <Q_VSA_PPOS>
0

>  <radius>
7

>  <reactive>
1

>  <rings>
4

>  <RPC+>
0

>  <RPC->
0

>  <rsynth>
1

>  <SlogP>
5.9386201

>  <SlogP_VSA0>
17.888229

>  <SlogP_VSA1>
26.700153

>  <SlogP_VSA2>
0

>  <SlogP_VSA3>
36.879158

>  <SlogP_VSA4>
29.804539

>  <SlogP_VSA5>
0

>  <SlogP_VSA6>
10.50182

>  <SlogP_VSA7>
132.20135

>  <SlogP_VSA8>
56.605217

>  <SlogP_VSA9>
150.77194

>  <SMR>
12.16572

>  <SMR_VSA0>
23.862217

>  <SMR_VSA1>
21.44137

>  <SMR_VSA2>
17.888229

>  <SMR_VSA3>
16.444141

>  <SMR_VSA4>
8.69907

>  <SMR_VSA5>
180.10751

>  <SMR_VSA6>
42.137939

>  <SMR_VSA7>
150.77194

>  <TPSA>
50.16

>  <VAdjEq>
0.37824166

>  <VAdjMa>
6.044394

>  <VDistEq>
3.4677095

>  <VDistMa>
9.5524988

>  <vdw_area>
417.58099

>  <vdw_vol>
563.40906

>  <vsa_acc>
22.987961

>  <vsa_acid>
0

>  <vsa_base>
0

>  <vsa_don>
9.4210396

>  <vsa_hyd>
354.91321

>  <vsa_other>
12.949531

>  <vsa_pol>
32.409

>  <Weight>
463.79599

>  <weinerPath>
2387

>  <weinerPol>
49

>  <zagreb>
160

$$$$