O1[C@@H](CC(=O)[C@@H](C=C(/C)[C@@H](O)[C@@H](OC)C(=O)[C@@H](C[C@@H](C=CC=CC=C(C)/[C@@H](OC)C[C@H]2O[C@](O)([C@@H](CC2)C)C(=O)C(=O)N2[C@@H](CCCC2)C1=O)C)C)C)[C@@H](C[C@H]1C[C@@H](OC)[C@H](O)CC1)C
  MOE2013           2D

 65 68  0  0  1  0  0  0  0  0999 V2000
    0.0000    0.0000    0.0000 O   0  0  0  0  0  0  0  0  0  0  0  0
    0.4170   -1.4310    0.0000 C   0  0  1  0  0  0  0  0  0  0  0  0
    1.8830   -1.7760    0.0000 C   0  0  0  0  0  0  0  0  0  0  0  0
    2.3290   -3.2060    0.0000 C   0  0  0  0  0  0  0  0  0  0  0  0
    1.3150   -4.3110    0.0000 O   0  0  0  0  0  0  0  0  0  0  0  0
    3.7900   -3.5290    0.0000 C   0  0  1  0  0  0  0  0  0  0  0  0
    4.3460   -4.8620    0.0000 C   0  0  0  0  0  0  0  0  0  0  0  0
    3.5540   -6.1270    0.0000 C   0  0  0  0  0  0  0  0  0  0  0  0
    2.0550   -6.0780    0.0000 C   0  0  0  0  0  0  0  0  0  0  0  0
    4.2680   -7.4560    0.0000 C   0  0  1  0  0  0  0  0  0  0  0  0
    5.7680   -7.4760    0.0000 O   0  0  0  0  0  0  0  0  0  0  0  0
    3.5380   -8.7330    0.0000 C   0  0  1  0  0  0  0  0  0  0  0  0
    4.3160  -10.0150    0.0000 O   0  0  0  0  0  0  0  0  0  0  0  0
    5.8160   -9.9830    0.0000 C   0  0  0  0  0  0  0  0  0  0  0  0
    2.0350   -8.7920    0.0000 C   0  0  0  0  0  0  0  0  0  0  0  0
    1.2270   -7.5280    0.0000 O   0  0  0  0  0  0  0  0  0  0  0  0
    1.3540  -10.1250    0.0000 C   0  0  1  0  0  0  0  0  0  0  0  0
   -0.1470  -10.2180    0.0000 C   0  0  0  0  0  0  0  0  0  0  0  0
   -0.7950  -11.5730    0.0000 C   0  0  1  0  0  0  0  0  0  0  0  0
   -2.2240  -11.7970    0.0000 C   0  0  0  0  0  0  0  0  0  0  0  0
   -3.2570  -10.7150    0.0000 C   0  0  0  0  0  0  0  0  0  0  0  0
   -4.7120  -11.0850    0.0000 C   0  0  0  0  0  0  0  0  0  0  0  0
   -5.7720  -10.0220    0.0000 C   0  0  0  0  0  0  0  0  0  0  0  0
   -7.2190  -10.4140    0.0000 C   0  0  0  0  0  0  0  0  0  0  0  0
   -8.3180   -9.4660    0.0000 C   0  0  0  0  0  0  0  0  0  0  0  0
   -9.6940  -10.0640    0.0000 C   0  0  0  0  0  0  0  0  0  0  0  0
   -8.2610   -8.0230    0.0000 C   0  0  1  0  0  0  0  0  0  0  0  0
   -9.5610   -7.2740    0.0000 O   0  0  0  0  0  0  0  0  0  0  0  0
  -10.8600   -8.0250    0.0000 C   0  0  0  0  0  0  0  0  0  0  0  0
   -6.9940   -7.2210    0.0000 C   0  0  0  0  0  0  0  0  0  0  0  0
   -6.7710   -5.9090    0.0000 C   0  0  1  0  0  0  0  0  0  0  0  0
   -5.6820   -4.9240    0.0000 O   0  0  0  0  0  0  0  0  0  0  0  0
   -5.9940   -3.4650    0.0000 C   0  0  2  0  0  0  0  0  0  0  0  0
   -4.5110   -3.6910    0.0000 O   0  0  0  0  0  0  0  0  0  0  0  0
   -7.4200   -2.9920    0.0000 C   0  0  1  0  0  0  0  0  0  0  0  0
   -8.5360   -4.0060    0.0000 C   0  0  0  0  0  0  0  0  0  0  0  0
   -8.2100   -5.4840    0.0000 C   0  0  0  0  0  0  0  0  0  0  0  0
   -7.7300   -1.5240    0.0000 C   0  0  0  0  0  0  0  0  0  0  0  0
   -5.4260   -2.3040    0.0000 C   0  0  0  0  0  0  0  0  0  0  0  0
   -6.4630   -1.2200    0.0000 O   0  0  0  0  0  0  0  0  0  0  0  0
   -4.0590   -1.7080    0.0000 C   0  0  0  0  0  0  0  0  0  0  0  0
   -2.9310   -2.6970    0.0000 O   0  0  0  0  0  0  0  0  0  0  0  0
   -3.6810   -0.3970    0.0000 N   0  0  0  0  0  0  0  0  0  0  0  0
   -2.5770    0.4800    0.0000 C   0  0  1  0  0  0  0  0  0  0  0  0
   -2.7800    2.0120    0.0000 C   0  0  0  0  0  0  0  0  0  0  0  0
   -4.1770    2.5470    0.0000 C   0  0  0  0  0  0  0  0  0  0  0  0
   -5.3490    1.6030    0.0000 C   0  0  0  0  0  0  0  0  0  0  0  0
   -5.1210    0.1170    0.0000 C   0  0  0  0  0  0  0  0  0  0  0  0
   -1.2490    0.5810    0.0000 C   0  0  0  0  0  0  0  0  0  0  0  0
   -0.9810    2.0570    0.0000 O   0  0  0  0  0  0  0  0  0  0  0  0
    0.1010  -12.7750    0.0000 C   0  0  0  0  0  0  0  0  0  0  0  0
    2.1760  -11.3790    0.0000 C   0  0  0  0  0  0  0  0  0  0  0  0
    4.7520   -2.3780    0.0000 C   0  0  0  0  0  0  0  0  0  0  0  0
   -0.6160   -2.5190    0.0000 C   0  0  1  0  0  0  0  0  0  0  0  0
   -0.1900   -3.9570    0.0000 C   0  0  0  0  0  0  0  0  0  0  0  0
   -1.2220   -5.0450    0.0000 C   0  0  1  0  0  0  0  0  0  0  0  0
   -0.7960   -6.4840    0.0000 C   0  0  0  0  0  0  0  0  0  0  0  0
   -1.8290   -7.5720    0.0000 C   0  0  1  0  0  0  0  0  0  0  0  0
   -1.4030   -9.0100    0.0000 O   0  0  0  0  0  0  0  0  0  0  0  0
   -2.4360  -10.0980    0.0000 C   0  0  0  0  0  0  0  0  0  0  0  0
   -3.2870   -7.2210    0.0000 C   0  0  2  0  0  0  0  0  0  0  0  0
   -4.3200   -8.3090    0.0000 O   0  0  0  0  0  0  0  0  0  0  0  0
   -3.7130   -5.7830    0.0000 C   0  0  0  0  0  0  0  0  0  0  0  0
   -2.6810   -4.6950    0.0000 C   0  0  0  0  0  0  0  0  0  0  0  0
   -2.0740   -2.1690    0.0000 C   0  0  0  0  0  0  0  0  0  0  0  0
  1 49  1  0  0  0  0
  2  1  1  1  0  0  0
  2  3  1  0  0  0  0
  2 54  1  0  0  0  0
  3  4  1  0  0  0  0
  4  5  2  0  0  0  0
  4  6  1  0  0  0  0
  6  7  1  0  0  0  0
  6 53  1  6  0  0  0
  7  8  2  3  0  0  0
  8  9  1  0  0  0  0
  8 10  1  0  0  0  0
 10 11  1  1  0  0  0
 10 12  1  0  0  0  0
 12 13  1  1  0  0  0
 12 15  1  0  0  0  0
 13 14  1  0  0  0  0
 15 16  2  0  0  0  0
 15 17  1  0  0  0  0
 17 18  1  0  0  0  0
 17 52  1  6  0  0  0
 18 19  1  0  0  0  0
 19 20  1  0  0  0  0
 19 51  1  6  0  0  0
 20 21  2  3  0  0  0
 21 22  1  0  0  0  0
 22 23  2  3  0  0  0
 23 24  1  0  0  0  0
 24 25  2  3  0  0  0
 25 26  1  0  0  0  0
 25 27  1  0  0  0  0
 27 28  1  1  0  0  0
 27 30  1  0  0  0  0
 28 29  1  0  0  0  0
 31 30  1  6  0  0  0
 31 32  1  0  0  0  0
 31 37  1  0  0  0  0
 32 33  1  0  0  0  0
 33 34  1  1  0  0  0
 33 35  1  0  0  0  0
 33 39  1  0  0  0  0
 35 36  1  0  0  0  0
 35 38  1  1  0  0  0
 36 37  1  0  0  0  0
 39 40  2  0  0  0  0
 39 41  1  0  0  0  0
 41 42  2  0  0  0  0
 41 43  1  0  0  0  0
 43 44  1  0  0  0  0
 43 48  1  0  0  0  0
 44 45  1  0  0  0  0
 44 49  1  1  0  0  0
 45 46  1  0  0  0  0
 46 47  1  0  0  0  0
 47 48  1  0  0  0  0
 49 50  2  0  0  0  0
 54 55  1  0  0  0  0
 54 65  1  1  0  0  0
 56 55  1  1  0  0  0
 56 57  1  0  0  0  0
 56 64  1  0  0  0  0
 57 58  1  0  0  0  0
 58 59  1  1  0  0  0
 58 61  1  0  0  0  0
 59 60  1  0  0  0  0
 61 62  1  6  0  0  0
 61 63  1  0  0  0  0
 63 64  1  0  0  0  0
M  END
>  <Index>
983

>  <ID>
HT1891

>  <class>
0

>  <apol>
153.96265

>  <ast_fraglike>
0

>  <ast_fraglike_ext>
0

>  <ast_violation>
3

>  <ast_violation_ext>
5

>  <a_acc>
12

>  <a_acid>
0

>  <a_aro>
0

>  <a_base>
0

>  <a_count>
144

>  <a_don>
3

>  <a_donacc>
15

>  <a_heavy>
65

>  <a_hyd>
45

>  <a_IC>
197.07111

>  <a_ICM>
1.3685493

>  <a_nB>
0

>  <a_nBr>
0

>  <a_nC>
51

>  <a_nCl>
0

>  <a_nF>
0

>  <a_nH>
79

>  <a_nI>
0

>  <a_nN>
1

>  <a_nO>
13

>  <a_nP>
0

>  <a_nS>
0

>  <balabanJ>
1.6237953

>  <BCUT_PEOE_0>
-2.8329666

>  <BCUT_PEOE_1>
-0.48721117

>  <BCUT_PEOE_2>
0.51208436

>  <BCUT_PEOE_3>
2.813246

>  <BCUT_SLOGP_0>
-2.8330843

>  <BCUT_SLOGP_1>
-0.42144394

>  <BCUT_SLOGP_2>
0.43149006

>  <BCUT_SLOGP_3>
2.8616648

>  <BCUT_SMR_0>
-2.5944512

>  <BCUT_SMR_1>
-0.34258419

>  <BCUT_SMR_2>
0.63051718

>  <BCUT_SMR_3>
3.0489113

>  <bpol>
102.71336

>  <b_1rotN>
6

>  <b_1rotR>
0.088235296

>  <b_ar>
0

>  <b_count>
147

>  <b_double>
9

>  <b_heavy>
68

>  <b_max1len>
5

>  <b_rotN>
6

>  <b_rotR>
0.088235296

>  <b_single>
138

>  <b_triple>
0

>  <chi0>
48.172268

>  <chi0v>
40.610729

>  <chi0v_C>
34.739395

>  <chi0_C>
36.059383

>  <chi1>
30.749584

>  <chi1v>
23.924021

>  <chi1v_C>
18.553858

>  <chi1_C>
20.208853

>  <chiral>
15

>  <chiral_u>
0

>  <density>
0.71239221

>  <diameter>
21

>  <FCharge>
0

>  <GCUT_PEOE_0>
-0.82385641

>  <GCUT_PEOE_1>
-0.37859389

>  <GCUT_PEOE_2>
0.039430682

>  <GCUT_PEOE_3>
3.3729167

>  <GCUT_SLOGP_0>
-0.98243821

>  <GCUT_SLOGP_1>
-0.30816215

>  <GCUT_SLOGP_2>
-0.0082308864

>  <GCUT_SLOGP_3>
3.3818367

>  <GCUT_SMR_0>
-0.53576142

>  <GCUT_SMR_1>
-0.20535399

>  <GCUT_SMR_2>
0.14012682

>  <GCUT_SMR_3>
3.5895531

>  <Kier1>
57.577854

>  <Kier2>
27.5625

>  <Kier3>
16

>  <KierA1>
50.603405

>  <KierA2>
24.173399

>  <KierA3>
14.012291

>  <KierFlex>
18.819328

>  <lip_acc>
14

>  <lip_don>
3

>  <lip_druglike>
0

>  <lip_violation>
3

>  <logP(o/w)>
6.8740001

>  <logS>
-7.5935502

>  <mr>
24.871212

>  <mutagenic>
0

>  <nmol>
1

>  <opr_brigid>
44

>  <opr_leadlike>
0

>  <opr_nring>
3

>  <opr_nrot>
29

>  <opr_violation>
4

>  <PC+>
0

>  <PC->
0

>  <PEOE_PC+>
5.9145899

>  <PEOE_PC->
-5.9145899

>  <PEOE_RPC+>
0.050079215

>  <PEOE_RPC->
0.065808788

>  <PEOE_VSA+0>
331.65338

>  <PEOE_VSA+1>
122.62852

>  <PEOE_VSA+2>
21.414337

>  <PEOE_VSA+3>
8.458519

>  <PEOE_VSA+4>
32.081062

>  <PEOE_VSA+5>
36.11655

>  <PEOE_VSA+6>
0

>  <PEOE_VSA-0>
128.92557

>  <PEOE_VSA-1>
167.26781

>  <PEOE_VSA-2>
0

>  <PEOE_VSA-3>
0

>  <PEOE_VSA-4>
0

>  <PEOE_VSA-5>
67.834602

>  <PEOE_VSA-6>
35.8214

>  <PEOE_VSA_FHYD>
0.81951976

>  <PEOE_VSA_FNEG>
0.41992086

>  <PEOE_VSA_FPNEG>
0.10885929

>  <PEOE_VSA_FPOL>
0.18048026

>  <PEOE_VSA_FPOS>
0.58007914

>  <PEOE_VSA_FPPOS>
0.071620971

>  <PEOE_VSA_HYD>
780.34814

>  <PEOE_VSA_NEG>
399.8494

>  <PEOE_VSA_PNEG>
103.65601

>  <PEOE_VSA_POL>
171.85362

>  <PEOE_VSA_POS>
552.35236

>  <PEOE_VSA_PPOS>
68.197609

>  <petitjean>
0.33333334

>  <petitjeanSC>
0.5

>  <Q_PC+>
0

>  <Q_PC->
0

>  <Q_RPC+>
0

>  <Q_RPC->
0

>  <Q_VSA_FHYD>
1

>  <Q_VSA_FNEG>
0

>  <Q_VSA_FPNEG>
0

>  <Q_VSA_FPOL>
0

>  <Q_VSA_FPOS>
1

>  <Q_VSA_FPPOS>
0

>  <Q_VSA_HYD>
952.20178

>  <Q_VSA_NEG>
0

>  <Q_VSA_PNEG>
0

>  <Q_VSA_POL>
0

>  <Q_VSA_POS>
952.20178

>  <Q_VSA_PPOS>
0

>  <radius>
14

>  <reactive>
1

>  <rings>
4

>  <RPC+>
0

>  <RPC->
0

>  <rsynth>
0.40000001

>  <SlogP>
6.1806002

>  <SlogP_VSA0>
76.155678

>  <SlogP_VSA1>
33.191395

>  <SlogP_VSA2>
223.57303

>  <SlogP_VSA3>
18.439579

>  <SlogP_VSA4>
26.464777

>  <SlogP_VSA5>
112.52275

>  <SlogP_VSA6>
0

>  <SlogP_VSA7>
105.85911

>  <SlogP_VSA8>
226.42087

>  <SlogP_VSA9>
233.2821

>  <SMR>
24.513741

>  <SMR_VSA0>
174.31052

>  <SMR_VSA1>
79.279991

>  <SMR_VSA2>
26.464777

>  <SMR_VSA3>
55.633663

>  <SMR_VSA4>
0

>  <SMR_VSA5>
332.27997

>  <SMR_VSA6>
48.50666

>  <SMR_VSA7>
339.43372

>  <TPSA>
195.42999

>  <VAdjEq>
0.20525523

>  <VAdjMa>
7.0874629

>  <VDistEq>
4.1533117

>  <VDistMa>
11.824403

>  <vdw_area>
952.20178

>  <vdw_vol>
1283.2635

>  <vsa_acc>
77.849632

>  <vsa_acid>
0

>  <vsa_base>
0

>  <vsa_don>
0

>  <vsa_hyd>
701.26434

>  <vsa_other>
56.645889

>  <vsa_pol>
118.55039

>  <Weight>
914.18695

>  <weinerPath>
19273

>  <weinerPol>
115

>  <zagreb>
328

$$$$