s1cccc1C=CC1=NCCCN1C
  MOE2013           2D

 14 15  0  0  0  0  0  0  0  0999 V2000
    0.0000    0.0000    0.0000 S   0  0  0  0  0  0  0  0  0  0  0  0
    1.2690    0.8000    0.0000 C   0  0  0  0  0  0  0  0  0  0  0  0
    0.9000    2.2540    0.0000 C   0  0  0  0  0  0  0  0  0  0  0  0
   -0.5970    2.3520    0.0000 C   0  0  0  0  0  0  0  0  0  0  0  0
   -1.1530    0.9590    0.0000 C   0  0  0  0  0  0  0  0  0  0  0  0
   -2.6070    0.5900    0.0000 C   0  0  0  0  0  0  0  0  0  0  0  0
   -3.6530    1.6650    0.0000 C   0  0  0  0  0  0  0  0  0  0  0  0
   -5.1070    1.2960    0.0000 C   0  0  0  0  0  0  0  0  0  0  0  0
   -5.5150   -0.1470    0.0000 N   0  0  0  0  0  0  0  0  0  0  0  0
   -6.9690   -0.5160    0.0000 C   0  0  0  0  0  0  0  0  0  0  0  0
   -8.0150    0.5580    0.0000 C   0  0  0  0  0  0  0  0  0  0  0  0
   -7.6080    2.0020    0.0000 C   0  0  0  0  0  0  0  0  0  0  0  0
   -6.1540    2.3710    0.0000 N   0  0  0  0  0  0  0  0  0  0  0  0
   -5.7460    3.8140    0.0000 C   0  0  0  0  0  0  0  0  0  0  0  0
  1  2  1  0  0  0  0
  1  5  1  0  0  0  0
  2  3  2  0  0  0  0
  3  4  1  0  0  0  0
  4  5  2  0  0  0  0
  5  6  1  0  0  0  0
  6  7  2  3  0  0  0
  7  8  1  0  0  0  0
  8  9  2  0  0  0  0
  8 13  1  0  0  0  0
  9 10  1  0  0  0  0
 10 11  1  0  0  0  0
 11 12  1  0  0  0  0
 12 13  1  0  0  0  0
 13 14  1  0  0  0  0
M  END
>  <Index>
916

>  <ID>
HT1773

>  <class>
0

>  <apol>
33.795101

>  <ast_fraglike>
1

>  <ast_fraglike_ext>
1

>  <ast_violation>
0

>  <ast_violation_ext>
0

>  <a_acc>
1

>  <a_acid>
0

>  <a_aro>
5

>  <a_base>
0

>  <a_count>
28

>  <a_don>
0

>  <a_donacc>
1

>  <a_heavy>
14

>  <a_hyd>
11

>  <a_IC>
41.249222

>  <a_ICM>
1.4731865

>  <a_nB>
0

>  <a_nBr>
0

>  <a_nC>
11

>  <a_nCl>
0

>  <a_nF>
0

>  <a_nH>
14

>  <a_nI>
0

>  <a_nN>
2

>  <a_nO>
0

>  <a_nP>
0

>  <a_nS>
1

>  <balabanJ>
1.6865679

>  <BCUT_PEOE_0>
-2.6339543

>  <BCUT_PEOE_1>
-0.54888201

>  <BCUT_PEOE_2>
0.53630227

>  <BCUT_PEOE_3>
2.5600979

>  <BCUT_SLOGP_0>
-2.6872382

>  <BCUT_SLOGP_1>
-0.46992713

>  <BCUT_SLOGP_2>
0.57860047

>  <BCUT_SLOGP_3>
2.5374804

>  <BCUT_SMR_0>
-2.3508413

>  <BCUT_SMR_1>
-0.34221956

>  <BCUT_SMR_2>
0.72866952

>  <BCUT_SMR_3>
2.8356342

>  <bpol>
20.884897

>  <b_1rotN>
2

>  <b_1rotR>
0.13333334

>  <b_ar>
5

>  <b_count>
29

>  <b_double>
2

>  <b_heavy>
15

>  <b_max1len>
2

>  <b_rotN>
2

>  <b_rotR>
0.13333334

>  <b_single>
22

>  <b_triple>
0

>  <chi0>
9.8031187

>  <chi0v>
9.127244

>  <chi0v_C>
7.0080719

>  <chi0_C>
7.8115549

>  <chi1>
6.8601732

>  <chi1v>
5.7123876

>  <chi1v_C>
2.8660254

>  <chi1_C>
3.7247448

>  <chiral>
0

>  <chiral_u>
0

>  <density>
0.71921784

>  <diameter>
8

>  <FCharge>
0

>  <GCUT_PEOE_0>
-0.86977857

>  <GCUT_PEOE_1>
-0.37964982

>  <GCUT_PEOE_2>
0.031144233

>  <GCUT_PEOE_3>
2.3302624

>  <GCUT_SLOGP_0>
-0.95861572

>  <GCUT_SLOGP_1>
-0.24798746

>  <GCUT_SLOGP_2>
0.11965558

>  <GCUT_SLOGP_3>
2.393708

>  <GCUT_SMR_0>
-0.51191491

>  <GCUT_SMR_1>
-0.18786411

>  <GCUT_SMR_2>
0.19313811

>  <GCUT_SMR_3>
2.627157

>  <Kier1>
10.515555

>  <Kier2>
5.1855955

>  <Kier3>
2.994329

>  <KierA1>
8.8370142

>  <KierA2>
4.2947106

>  <KierA3>
2.4522979

>  <KierFlex>
2.710887

>  <lip_acc>
2

>  <lip_don>
0

>  <lip_druglike>
1

>  <lip_violation>
0

>  <logP(o/w)>
2.1210001

>  <logS>
-2.1828899

>  <mr>
6.1627946

>  <mutagenic>
0

>  <nmol>
1

>  <opr_brigid>
12

>  <opr_leadlike>
1

>  <opr_nring>
2

>  <opr_nrot>
3

>  <opr_violation>
0

>  <PC+>
0

>  <PC->
0

>  <PEOE_PC+>
1.0511128

>  <PEOE_PC->
-1.0511128

>  <PEOE_RPC+>
0.15217005

>  <PEOE_RPC->
0.34168547

>  <PEOE_VSA+0>
83.746429

>  <PEOE_VSA+1>
25.592316

>  <PEOE_VSA+2>
11.190562

>  <PEOE_VSA+3>
19.760618

>  <PEOE_VSA+4>
0

>  <PEOE_VSA+5>
0

>  <PEOE_VSA+6>
0

>  <PEOE_VSA-0>
20.956217

>  <PEOE_VSA-1>
40.949314

>  <PEOE_VSA-2>
14.230966

>  <PEOE_VSA-3>
0

>  <PEOE_VSA-4>
0

>  <PEOE_VSA-5>
5.6825762

>  <PEOE_VSA-6>
0

>  <PEOE_VSA_FHYD>
0.97441536

>  <PEOE_VSA_FNEG>
0.36837351

>  <PEOE_VSA_FPNEG>
0.025584629

>  <PEOE_VSA_FPOL>
0.025584629

>  <PEOE_VSA_FPOS>
0.63162649

>  <PEOE_VSA_FPPOS>
0

>  <PEOE_VSA_HYD>
216.42642

>  <PEOE_VSA_NEG>
81.819069

>  <PEOE_VSA_PNEG>
5.6825762

>  <PEOE_VSA_POL>
5.6825762

>  <PEOE_VSA_POS>
140.28992

>  <PEOE_VSA_PPOS>
0

>  <petitjean>
0.5

>  <petitjeanSC>
1

>  <Q_PC+>
0

>  <Q_PC->
0

>  <Q_RPC+>
0

>  <Q_RPC->
0

>  <Q_VSA_FHYD>
1

>  <Q_VSA_FNEG>
0

>  <Q_VSA_FPNEG>
0

>  <Q_VSA_FPOL>
0

>  <Q_VSA_FPOS>
1

>  <Q_VSA_FPPOS>
0

>  <Q_VSA_HYD>
222.10899

>  <Q_VSA_NEG>
0

>  <Q_VSA_PNEG>
0

>  <Q_VSA_POL>
0

>  <Q_VSA_POS>
222.10899

>  <Q_VSA_PPOS>
0

>  <radius>
4

>  <reactive>
0

>  <rings>
2

>  <RPC+>
0

>  <RPC->
0

>  <rsynth>
1

>  <SlogP>
2.4953001

>  <SlogP_VSA0>
0

>  <SlogP_VSA1>
5.4522343

>  <SlogP_VSA2>
0

>  <SlogP_VSA3>
36.879158

>  <SlogP_VSA4>
1.3584013

>  <SlogP_VSA5>
49.682716

>  <SlogP_VSA6>
0

>  <SlogP_VSA7>
68.745567

>  <SlogP_VSA8>
36.511589

>  <SlogP_VSA9>
31.277687

>  <SMR>
6.2902002

>  <SMR_VSA0>
0

>  <SMR_VSA1>
19.909843

>  <SMR_VSA2>
0

>  <SMR_VSA3>
1.3584013

>  <SMR_VSA4>
0

>  <SMR_VSA5>
87.613968

>  <SMR_VSA6>
56.850262

>  <SMR_VSA7>
64.174873

>  <TPSA>
15.6

>  <VAdjEq>
0.61744827

>  <VAdjMa>
4.9068904

>  <VDistEq>
2.8457713

>  <VDistMa>
7.277719

>  <vdw_area>
222.10899

>  <vdw_vol>
286.85745

>  <vsa_acc>
5.6825762

>  <vsa_acid>
0

>  <vsa_base>
0

>  <vsa_don>
0

>  <vsa_hyd>
195.27072

>  <vsa_other>
11.190562

>  <vsa_pol>
5.6825762

>  <Weight>
206.313

>  <weinerPath>
330

>  <weinerPol>
15

>  <zagreb>
68

$$$$