Oc1ccc(cc1)CCN[C@H]([C@H](O)c1ccc(O)cc1)C
  MOE2013           2D

 21 22  0  0  1  0  0  0  0  0999 V2000
    0.0000    0.0000    0.0000 O   0  0  0  0  0  0  0  0  0  0  0  0
    1.2960    0.7560    0.0000 C   0  0  0  0  0  0  0  0  0  0  0  0
    1.2890    2.2560    0.0000 C   0  0  0  0  0  0  0  0  0  0  0  0
    2.5850    3.0120    0.0000 C   0  0  0  0  0  0  0  0  0  0  0  0
    3.8870    2.2670    0.0000 C   0  0  0  0  0  0  0  0  0  0  0  0
    3.8940    0.7670    0.0000 C   0  0  0  0  0  0  0  0  0  0  0  0
    2.5980    0.0120    0.0000 C   0  0  0  0  0  0  0  0  0  0  0  0
    5.1830    3.0230    0.0000 C   0  0  0  0  0  0  0  0  0  0  0  0
    6.4850    2.2790    0.0000 C   0  0  0  0  0  0  0  0  0  0  0  0
    7.7810    3.0350    0.0000 N   0  0  0  0  0  0  0  0  0  0  0  0
    9.0830    2.2900    0.0000 C   0  0  2  0  0  0  0  0  0  0  0  0
   10.3790    3.0460    0.0000 C   0  0  2  0  0  0  0  0  0  0  0  0
   10.3720    4.5460    0.0000 O   0  0  0  0  0  0  0  0  0  0  0  0
   11.6810    2.3020    0.0000 C   0  0  0  0  0  0  0  0  0  0  0  0
   11.6880    0.8020    0.0000 C   0  0  0  0  0  0  0  0  0  0  0  0
   12.9900    0.0580    0.0000 C   0  0  0  0  0  0  0  0  0  0  0  0
   14.2860    0.8140    0.0000 C   0  0  0  0  0  0  0  0  0  0  0  0
   15.5880    0.0690    0.0000 O   0  0  0  0  0  0  0  0  0  0  0  0
   14.2790    2.3140    0.0000 C   0  0  0  0  0  0  0  0  0  0  0  0
   12.9770    3.0580    0.0000 C   0  0  0  0  0  0  0  0  0  0  0  0
    9.0900    0.7900    0.0000 C   0  0  0  0  0  0  0  0  0  0  0  0
  1  2  1  0  0  0  0
  2  3  1  0  0  0  0
  2  7  2  0  0  0  0
  3  4  2  0  0  0  0
  4  5  1  0  0  0  0
  5  6  2  0  0  0  0
  5  8  1  0  0  0  0
  6  7  1  0  0  0  0
  8  9  1  0  0  0  0
  9 10  1  0  0  0  0
 10 11  1  0  0  0  0
 11 12  1  0  0  0  0
 11 21  1  6  0  0  0
 12 13  1  6  0  0  0
 12 14  1  0  0  0  0
 14 15  1  0  0  0  0
 14 20  2  0  0  0  0
 15 16  2  0  0  0  0
 16 17  1  0  0  0  0
 17 18  1  0  0  0  0
 17 19  2  0  0  0  0
 19 20  1  0  0  0  0
M  END
>  <Index>
952

>  <ID>
HT1832

>  <class>
0

>  <apol>
47.428654

>  <ast_fraglike>
0

>  <ast_fraglike_ext>
0

>  <ast_violation>
2

>  <ast_violation_ext>
3

>  <a_acc>
4

>  <a_acid>
0

>  <a_aro>
12

>  <a_base>
0

>  <a_count>
42

>  <a_don>
4

>  <a_donacc>
8

>  <a_heavy>
21

>  <a_hyd>
17

>  <a_IC>
59.99691

>  <a_ICM>
1.4284979

>  <a_nB>
0

>  <a_nBr>
0

>  <a_nC>
17

>  <a_nCl>
0

>  <a_nF>
0

>  <a_nH>
21

>  <a_nI>
0

>  <a_nN>
1

>  <a_nO>
3

>  <a_nP>
0

>  <a_nS>
0

>  <balabanJ>
1.6131296

>  <BCUT_PEOE_0>
-2.6506398

>  <BCUT_PEOE_1>
-0.65138537

>  <BCUT_PEOE_2>
0.70938194

>  <BCUT_PEOE_3>
2.5954943

>  <BCUT_SLOGP_0>
-2.7646379

>  <BCUT_SLOGP_1>
-0.59086096

>  <BCUT_SLOGP_2>
0.80591482

>  <BCUT_SLOGP_3>
2.5895698

>  <BCUT_SMR_0>
-2.3832774

>  <BCUT_SMR_1>
-0.51315069

>  <BCUT_SMR_2>
0.85431087

>  <BCUT_SMR_3>
2.8544917

>  <bpol>
23.617348

>  <b_1rotN>
6

>  <b_1rotR>
0.27272728

>  <b_ar>
12

>  <b_count>
43

>  <b_double>
0

>  <b_heavy>
22

>  <b_max1len>
7

>  <b_rotN>
6

>  <b_rotR>
0.27272728

>  <b_single>
31

>  <b_triple>
0

>  <chi0>
15.242276

>  <chi0v>
12.029357

>  <chi0v_C>
10.187716

>  <chi0_C>
11.53517

>  <chi1>
10.058551

>  <chi1v>
7.0432878

>  <chi1v_C>
5.6956468

>  <chi1_C>
7.4182515

>  <chiral>
2

>  <chiral_u>
0

>  <density>
0.70458156

>  <diameter>
14

>  <FCharge>
0

>  <GCUT_PEOE_0>
-0.84227842

>  <GCUT_PEOE_1>
-0.39803335

>  <GCUT_PEOE_2>
0.10662747

>  <GCUT_PEOE_3>
2.5717847

>  <GCUT_SLOGP_0>
-1.1530176

>  <GCUT_SLOGP_1>
-0.32411036

>  <GCUT_SLOGP_2>
0.16445385

>  <GCUT_SLOGP_3>
2.6420348

>  <GCUT_SMR_0>
-0.51860148

>  <GCUT_SMR_1>
-0.23057838

>  <GCUT_SMR_2>
0.20205276

>  <GCUT_SMR_3>
2.8288734

>  <Kier1>
17.355371

>  <Kier2>
8.5850182

>  <Kier3>
5.6055365

>  <KierA1>
13.657548

>  <KierA2>
6.6689563

>  <KierA3>
4.3112845

>  <KierFlex>
4.3372188

>  <lip_acc>
4

>  <lip_don>
4

>  <lip_druglike>
1

>  <lip_violation>
0

>  <logP(o/w)>
2.836

>  <logS>
-2.35552

>  <mr>
8.3172321

>  <mutagenic>
0

>  <nmol>
1

>  <opr_brigid>
12

>  <opr_leadlike>
1

>  <opr_nring>
2

>  <opr_nrot>
6

>  <opr_violation>
0

>  <PC+>
0

>  <PC->
0

>  <PEOE_PC+>
1.8874135

>  <PEOE_PC->
-1.8874135

>  <PEOE_RPC+>
0.11513814

>  <PEOE_RPC->
0.204322

>  <PEOE_VSA+0>
50.461372

>  <PEOE_VSA+1>
60.210442

>  <PEOE_VSA+2>
8.6190128

>  <PEOE_VSA+3>
0

>  <PEOE_VSA+4>
30.972517

>  <PEOE_VSA+5>
0

>  <PEOE_VSA+6>
0

>  <PEOE_VSA-0>
80.885689

>  <PEOE_VSA-1>
49.019615

>  <PEOE_VSA-2>
0

>  <PEOE_VSA-3>
0

>  <PEOE_VSA-4>
0

>  <PEOE_VSA-5>
0

>  <PEOE_VSA-6>
23.439512

>  <PEOE_VSA_FHYD>
0.82078207

>  <PEOE_VSA_FNEG>
0.50507474

>  <PEOE_VSA_FPNEG>
0.077203169

>  <PEOE_VSA_FPOL>
0.17921795

>  <PEOE_VSA_FPOS>
0.49492526

>  <PEOE_VSA_FPPOS>
0.10201477

>  <PEOE_VSA_HYD>
249.19614

>  <PEOE_VSA_NEG>
153.34482

>  <PEOE_VSA_PNEG>
23.439512

>  <PEOE_VSA_POL>
54.412029

>  <PEOE_VSA_POS>
150.26335

>  <PEOE_VSA_PPOS>
30.972517

>  <petitjean>
0.5

>  <petitjeanSC>
1

>  <Q_PC+>
0

>  <Q_PC->
0

>  <Q_RPC+>
0

>  <Q_RPC->
0

>  <Q_VSA_FHYD>
1

>  <Q_VSA_FNEG>
0

>  <Q_VSA_FPNEG>
0

>  <Q_VSA_FPOL>
0

>  <Q_VSA_FPOS>
1

>  <Q_VSA_FPPOS>
0

>  <Q_VSA_HYD>
303.60815

>  <Q_VSA_NEG>
0

>  <Q_VSA_PNEG>
0

>  <Q_VSA_POL>
0

>  <Q_VSA_POS>
303.60815

>  <Q_VSA_PPOS>
0

>  <radius>
7

>  <reactive>
0

>  <rings>
2

>  <RPC+>
0

>  <RPC->
0

>  <rsynth>
1

>  <SlogP>
2.4474699

>  <SlogP_VSA0>
94.166428

>  <SlogP_VSA1>
0

>  <SlogP_VSA2>
3.9819686

>  <SlogP_VSA3>
18.439579

>  <SlogP_VSA4>
6.37115

>  <SlogP_VSA5>
18.868406

>  <SlogP_VSA6>
0

>  <SlogP_VSA7>
141.14548

>  <SlogP_VSA8>
6.4686494

>  <SlogP_VSA9>
43.81287

>  <SMR>
8.2453098

>  <SMR_VSA0>
0

>  <SMR_VSA1>
76.155678

>  <SMR_VSA2>
18.01075

>  <SMR_VSA3>
27.308624

>  <SMR_VSA4>
0

>  <SMR_VSA5>
160.01389

>  <SMR_VSA6>
18.439579

>  <SMR_VSA7>
33.326015

>  <TPSA>
72.720001

>  <VAdjEq>
0.46827638

>  <VAdjMa>
5.4594316

>  <VDistEq>
3.530153

>  <VDistMa>
8.4403524

>  <vdw_area>
303.60815

>  <vdw_vol>
407.84348

>  <vsa_acc>
0

>  <vsa_acid>
0

>  <vsa_base>
0

>  <vsa_don>
0

>  <vsa_hyd>
228.47659

>  <vsa_other>
0

>  <vsa_pol>
46.383339

>  <Weight>
287.35898

>  <weinerPath>
1114

>  <weinerPol>
28

>  <zagreb>
102

$$$$