O1CCc2c3c(CCC3CCNC(=O)CC)ccc12
  MOE2013           2D

 19 21  0  0  1  0  0  0  0  0999 V2000
    0.0000    0.0000    0.0000 O   0  0  0  0  0  0  0  0  0  0  0  0
    1.2160    0.8780    0.0000 C   0  0  0  0  0  0  0  0  0  0  0  0
    2.4270   -0.0080    0.0000 C   0  0  0  0  0  0  0  0  0  0  0  0
    1.9590   -1.4330    0.0000 C   0  0  0  0  0  0  0  0  0  0  0  0
    2.7040   -2.7350    0.0000 C   0  0  0  0  0  0  0  0  0  0  0  0
    1.9500   -4.0310    0.0000 C   0  0  0  0  0  0  0  0  0  0  0  0
    2.9500   -5.1490    0.0000 C   0  0  0  0  0  0  0  0  0  0  0  0
    4.3220   -4.5440    0.0000 C   0  0  0  0  0  0  0  0  0  0  0  0
    4.1700   -3.0520    0.0000 C   0  0  3  0  0  0  0  0  0  0  0  0
    5.2890   -2.0520    0.0000 C   0  0  0  0  0  0  0  0  0  0  0  0
    6.7140   -2.5200    0.0000 C   0  0  0  0  0  0  0  0  0  0  0  0
    7.8320   -1.5200    0.0000 N   0  0  0  0  0  0  0  0  0  0  0  0
    9.2570   -1.9880    0.0000 C   0  0  0  0  0  0  0  0  0  0  0  0
    9.5640   -3.4570    0.0000 O   0  0  0  0  0  0  0  0  0  0  0  0
   10.3750   -0.9880    0.0000 C   0  0  0  0  0  0  0  0  0  0  0  0
   11.8000   -1.4570    0.0000 C   0  0  0  0  0  0  0  0  0  0  0  0
    0.4500   -4.0260    0.0000 C   0  0  0  0  0  0  0  0  0  0  0  0
   -0.2960   -2.7250    0.0000 C   0  0  0  0  0  0  0  0  0  0  0  0
    0.4590   -1.4280    0.0000 C   0  0  0  0  0  0  0  0  0  0  0  0
  1  2  1  0  0  0  0
  1 19  1  0  0  0  0
  2  3  1  0  0  0  0
  3  4  1  0  0  0  0
  4  5  1  0  0  0  0
  4 19  2  0  0  0  0
  5  6  2  0  0  0  0
  5  9  1  0  0  0  0
  6  7  1  0  0  0  0
  6 17  1  0  0  0  0
  7  8  1  0  0  0  0
  8  9  1  0  0  0  0
  9 10  1  0  0  0  0
 10 11  1  0  0  0  0
 11 12  1  0  0  0  0
 12 13  1  0  0  0  0
 13 14  2  0  0  0  0
 13 15  1  0  0  0  0
 15 16  1  0  0  0  0
 17 18  2  0  0  0  0
 18 19  1  0  0  0  0
M  END
>  <Index>
929

>  <ID>
HT1797

>  <class>
0

>  <apol>
44.866653

>  <ast_fraglike>
1

>  <ast_fraglike_ext>
0

>  <ast_violation>
0

>  <ast_violation_ext>
1

>  <a_acc>
2

>  <a_acid>
0

>  <a_aro>
6

>  <a_base>
0

>  <a_count>
40

>  <a_don>
1

>  <a_donacc>
3

>  <a_heavy>
19

>  <a_hyd>
15

>  <a_IC>
54.638458

>  <a_ICM>
1.3659614

>  <a_nB>
0

>  <a_nBr>
0

>  <a_nC>
16

>  <a_nCl>
0

>  <a_nF>
0

>  <a_nH>
21

>  <a_nI>
0

>  <a_nN>
1

>  <a_nO>
2

>  <a_nP>
0

>  <a_nS>
0

>  <balabanJ>
1.5451281

>  <BCUT_PEOE_0>
-2.6294634

>  <BCUT_PEOE_1>
-0.51052368

>  <BCUT_PEOE_2>
0.41199899

>  <BCUT_PEOE_3>
2.6837339

>  <BCUT_SLOGP_0>
-2.6733177

>  <BCUT_SLOGP_1>
-0.49335518

>  <BCUT_SLOGP_2>
0.50156981

>  <BCUT_SLOGP_3>
2.7896609

>  <BCUT_SMR_0>
-2.3727798

>  <BCUT_SMR_1>
-0.30634844

>  <BCUT_SMR_2>
0.56359196

>  <BCUT_SMR_3>
2.9559436

>  <bpol>
26.491346

>  <b_1rotN>
4

>  <b_1rotR>
0.19047619

>  <b_ar>
6

>  <b_count>
42

>  <b_double>
1

>  <b_heavy>
21

>  <b_max1len>
5

>  <b_rotN>
5

>  <b_rotR>
0.23809524

>  <b_single>
35

>  <b_triple>
0

>  <chi0>
13.242276

>  <chi0v>
11.498295

>  <chi0v_C>
10.181798

>  <chi0_C>
10.828063

>  <chi1>
9.2920246

>  <chi1v>
7.3340993

>  <chi1v_C>
6.0336223

>  <chi1_C>
6.8981781

>  <chiral>
1

>  <chiral_u>
1

>  <density>
0.69438058

>  <diameter>
10

>  <FCharge>
0

>  <GCUT_PEOE_0>
-0.84258181

>  <GCUT_PEOE_1>
-0.40499866

>  <GCUT_PEOE_2>
0.053867068

>  <GCUT_PEOE_3>
2.7301004

>  <GCUT_SLOGP_0>
-1.1615325

>  <GCUT_SLOGP_1>
-0.32841587

>  <GCUT_SLOGP_2>
0.06766203

>  <GCUT_SLOGP_3>
2.824157

>  <GCUT_SMR_0>
-0.52755785

>  <GCUT_SMR_1>
-0.21745445

>  <GCUT_SMR_2>
0.15432075

>  <GCUT_SMR_3>
2.9895041

>  <Kier1>
13.959184

>  <Kier2>
6.1854935

>  <Kier3>
2.8800001

>  <KierA1>
11.292481

>  <KierA2>
4.9406028

>  <KierA3>
2.2776074

>  <KierFlex>
2.9364035

>  <lip_acc>
3

>  <lip_don>
1

>  <lip_druglike>
1

>  <lip_violation>
0

>  <logP(o/w)>
2.401

>  <logS>
-3.1247301

>  <mr>
7.5743232

>  <mutagenic>
0

>  <nmol>
1

>  <opr_brigid>
14

>  <opr_leadlike>
1

>  <opr_nring>
3

>  <opr_nrot>
4

>  <opr_violation>
0

>  <PC+>
0

>  <PC->
0

>  <PEOE_PC+>
1.3193614

>  <PEOE_PC->
-1.3193614

>  <PEOE_RPC+>
0.16727883

>  <PEOE_RPC->
0.26977766

>  <PEOE_VSA+0>
90.139816

>  <PEOE_VSA+1>
40.471355

>  <PEOE_VSA+2>
0

>  <PEOE_VSA+3>
8.6190128

>  <PEOE_VSA+4>
12.949531

>  <PEOE_VSA+5>
0

>  <PEOE_VSA+6>
0

>  <PEOE_VSA-0>
53.685776

>  <PEOE_VSA-1>
31.002581

>  <PEOE_VSA-2>
0

>  <PEOE_VSA-3>
0

>  <PEOE_VSA-4>
0

>  <PEOE_VSA-5>
13.566921

>  <PEOE_VSA-6>
2.6406472

>  <PEOE_VSA_FHYD>
0.88478899

>  <PEOE_VSA_FNEG>
0.39867893

>  <PEOE_VSA_FPNEG>
0.064042389

>  <PEOE_VSA_FPOL>
0.115211

>  <PEOE_VSA_FPOS>
0.60132104

>  <PEOE_VSA_FPPOS>
0.051168621

>  <PEOE_VSA_HYD>
223.91855

>  <PEOE_VSA_NEG>
100.89593

>  <PEOE_VSA_PNEG>
16.207567

>  <PEOE_VSA_POL>
29.157099

>  <PEOE_VSA_POS>
152.17972

>  <PEOE_VSA_PPOS>
12.949531

>  <petitjean>
0.5

>  <petitjeanSC>
1

>  <Q_PC+>
0

>  <Q_PC->
0

>  <Q_RPC+>
0

>  <Q_RPC->
0

>  <Q_VSA_FHYD>
1

>  <Q_VSA_FNEG>
0

>  <Q_VSA_FPNEG>
0

>  <Q_VSA_FPOL>
0

>  <Q_VSA_FPOS>
1

>  <Q_VSA_FPPOS>
0

>  <Q_VSA_HYD>
253.07564

>  <Q_VSA_NEG>
0

>  <Q_VSA_PNEG>
0

>  <Q_VSA_POL>
0

>  <Q_VSA_POS>
253.07564

>  <Q_VSA_PPOS>
0

>  <radius>
5

>  <reactive>
0

>  <rings>
3

>  <RPC+>
0

>  <RPC->
0

>  <rsynth>
1

>  <SlogP>
2.5675399

>  <SlogP_VSA0>
29.010639

>  <SlogP_VSA1>
5.2587838

>  <SlogP_VSA2>
23.862217

>  <SlogP_VSA3>
39.365837

>  <SlogP_VSA4>
9.5567245

>  <SlogP_VSA5>
37.736813

>  <SlogP_VSA6>
4.4107962

>  <SlogP_VSA7>
35.286369

>  <SlogP_VSA8>
56.605217

>  <SlogP_VSA9>
38.569443

>  <SMR>
7.46207

>  <SMR_VSA0>
23.862217

>  <SMR_VSA1>
10.999887

>  <SMR_VSA2>
18.01075

>  <SMR_VSA3>
19.210949

>  <SMR_VSA4>
0

>  <SMR_VSA5>
129.6284

>  <SMR_VSA6>
44.624619

>  <SMR_VSA7>
33.326015

>  <TPSA>
38.330002

>  <VAdjEq>
0.51875818

>  <VAdjMa>
5.3923173

>  <VDistEq>
3.151715

>  <VDistMa>
8.1759748

>  <vdw_area>
253.07564

>  <vdw_vol>
373.49689

>  <vsa_acc>
16.070677

>  <vsa_acid>
0

>  <vsa_base>
0

>  <vsa_don>
5.6825762

>  <vsa_hyd>
199.71857

>  <vsa_other>
12.949531

>  <vsa_pol>
21.753254

>  <Weight>
259.349

>  <weinerPath>
735

>  <weinerPol>
27

>  <zagreb>
100

$$$$