O1CCNCC1C(Oc1ccccc1OCC)c1ccccc1
  MOE2013           2D

 23 25  0  0  1  0  0  0  0  0999 V2000
    0.0000    0.0000    0.0000 O   0  0  0  0  0  0  0  0  0  0  0  0
    0.7550   -1.2960    0.0000 C   0  0  0  0  0  0  0  0  0  0  0  0
    0.0110   -2.5980    0.0000 C   0  0  0  0  0  0  0  0  0  0  0  0
   -1.4890   -2.6040    0.0000 N   0  0  0  0  0  0  0  0  0  0  0  0
   -2.2450   -1.3080    0.0000 C   0  0  0  0  0  0  0  0  0  0  0  0
   -1.5000   -0.0060    0.0000 C   0  0  3  0  0  0  0  0  0  0  0  0
   -2.2550    1.2900    0.0000 C   0  0  3  0  0  0  0  0  0  0  0  0
   -3.7550    1.2840    0.0000 O   0  0  0  0  0  0  0  0  0  0  0  0
   -4.5000   -0.0180    0.0000 C   0  0  0  0  0  0  0  0  0  0  0  0
   -3.7450   -1.3140    0.0000 C   0  0  0  0  0  0  0  0  0  0  0  0
   -4.4890   -2.6160    0.0000 C   0  0  0  0  0  0  0  0  0  0  0  0
   -5.9890   -2.6230    0.0000 C   0  0  0  0  0  0  0  0  0  0  0  0
   -6.7450   -1.3270    0.0000 C   0  0  0  0  0  0  0  0  0  0  0  0
   -6.0000   -0.0240    0.0000 C   0  0  0  0  0  0  0  0  0  0  0  0
   -6.7550    1.2710    0.0000 O   0  0  0  0  0  0  0  0  0  0  0  0
   -8.2550    1.2650    0.0000 C   0  0  0  0  0  0  0  0  0  0  0  0
   -9.0110    2.5610    0.0000 C   0  0  0  0  0  0  0  0  0  0  0  0
   -1.5110    2.5920    0.0000 C   0  0  0  0  0  0  0  0  0  0  0  0
   -2.2660    3.8880    0.0000 C   0  0  0  0  0  0  0  0  0  0  0  0
   -1.5210    5.1900    0.0000 C   0  0  0  0  0  0  0  0  0  0  0  0
   -0.0210    5.1960    0.0000 C   0  0  0  0  0  0  0  0  0  0  0  0
    0.7340    3.9000    0.0000 C   0  0  0  0  0  0  0  0  0  0  0  0
   -0.0110    2.5980    0.0000 C   0  0  0  0  0  0  0  0  0  0  0  0
  1  2  1  0  0  0  0
  1  6  1  0  0  0  0
  2  3  1  0  0  0  0
  3  4  1  0  0  0  0
  4  5  1  0  0  0  0
  5  6  1  0  0  0  0
  6  7  1  0  0  0  0
  7  8  1  0  0  0  0
  7 18  1  0  0  0  0
  8  9  1  0  0  0  0
  9 10  1  0  0  0  0
  9 14  2  0  0  0  0
 10 11  2  0  0  0  0
 11 12  1  0  0  0  0
 12 13  2  0  0  0  0
 13 14  1  0  0  0  0
 14 15  1  0  0  0  0
 15 16  1  0  0  0  0
 16 17  1  0  0  0  0
 18 19  1  0  0  0  0
 18 23  2  0  0  0  0
 19 20  2  0  0  0  0
 20 21  1  0  0  0  0
 21 22  2  0  0  0  0
 22 23  1  0  0  0  0
M  END
>  <Index>
932

>  <ID>
HT1804

>  <class>
0

>  <apol>
52.282238

>  <ast_fraglike>
0

>  <ast_fraglike_ext>
0

>  <ast_violation>
3

>  <ast_violation_ext>
4

>  <a_acc>
4

>  <a_acid>
0

>  <a_aro>
12

>  <a_base>
0

>  <a_count>
46

>  <a_don>
1

>  <a_donacc>
5

>  <a_heavy>
23

>  <a_hyd>
19

>  <a_IC>
64.576416

>  <a_ICM>
1.4038351

>  <a_nB>
0

>  <a_nBr>
0

>  <a_nC>
19

>  <a_nCl>
0

>  <a_nF>
0

>  <a_nH>
23

>  <a_nI>
0

>  <a_nN>
1

>  <a_nO>
3

>  <a_nP>
0

>  <a_nS>
0

>  <balabanJ>
1.6581892

>  <BCUT_PEOE_0>
-2.6945035

>  <BCUT_PEOE_1>
-0.61601597

>  <BCUT_PEOE_2>
0.64136475

>  <BCUT_PEOE_3>
2.6658125

>  <BCUT_SLOGP_0>
-2.8514886

>  <BCUT_SLOGP_1>
-0.53747278

>  <BCUT_SLOGP_2>
0.7313326

>  <BCUT_SLOGP_3>
2.6023149

>  <BCUT_SMR_0>
-2.4411907

>  <BCUT_SMR_1>
-0.44352624

>  <BCUT_SMR_2>
0.78494883

>  <BCUT_SMR_3>
2.9040818

>  <bpol>
31.551762

>  <b_1rotN>
6

>  <b_1rotR>
0.23999999

>  <b_ar>
12

>  <b_count>
48

>  <b_double>
0

>  <b_heavy>
25

>  <b_max1len>
3

>  <b_rotN>
6

>  <b_rotR>
0.23999999

>  <b_single>
36

>  <b_triple>
0

>  <chi0>
15.907567

>  <chi0v>
13.404025

>  <chi0v_C>
11.67928

>  <chi0_C>
13.07914

>  <chi1>
11.381341

>  <chi1v>
8.1395073

>  <chi1v_C>
5.9753976

>  <chi1_C>
7.7483482

>  <chiral>
2

>  <chiral_u>
2

>  <density>
0.69764191

>  <diameter>
10

>  <FCharge>
0

>  <GCUT_PEOE_0>
-0.83780533

>  <GCUT_PEOE_1>
-0.39393863

>  <GCUT_PEOE_2>
0.063488215

>  <GCUT_PEOE_3>
2.6693292

>  <GCUT_SLOGP_0>
-1.1538048

>  <GCUT_SLOGP_1>
-0.29758003

>  <GCUT_SLOGP_2>
0.15540747

>  <GCUT_SLOGP_3>
2.7439449

>  <GCUT_SMR_0>
-0.51525682

>  <GCUT_SMR_1>
-0.21162678

>  <GCUT_SMR_2>
0.16970447

>  <GCUT_SMR_3>
2.9231656

>  <Kier1>
17.811199

>  <Kier2>
9.4746094

>  <Kier3>
4.9886622

>  <KierA1>
14.331991

>  <KierA2>
7.54351

>  <KierA3>
3.9400718

>  <KierFlex>
4.7005877

>  <lip_acc>
4

>  <lip_don>
1

>  <lip_druglike>
1

>  <lip_violation>
0

>  <logP(o/w)>
3.11374

>  <logS>
-3.6391699

>  <mr>
9.1698856

>  <mutagenic>
0

>  <nmol>
1

>  <opr_brigid>
18

>  <opr_leadlike>
1

>  <opr_nring>
3

>  <opr_nrot>
8

>  <opr_violation>
0

>  <PC+>
0

>  <PC->
0

>  <PEOE_PC+>
1.8865855

>  <PEOE_PC->
-1.8865855

>  <PEOE_RPC+>
0.064724438

>  <PEOE_RPC->
0.19671847

>  <PEOE_VSA+0>
56.242352

>  <PEOE_VSA+1>
93.883377

>  <PEOE_VSA+2>
35.345909

>  <PEOE_VSA+3>
0

>  <PEOE_VSA+4>
0

>  <PEOE_VSA+5>
0

>  <PEOE_VSA+6>
0

>  <PEOE_VSA-0>
45.466026

>  <PEOE_VSA-1>
85.784325

>  <PEOE_VSA-2>
0

>  <PEOE_VSA-3>
0

>  <PEOE_VSA-4>
0

>  <PEOE_VSA-5>
0

>  <PEOE_VSA-6>
7.6481595

>  <PEOE_VSA_FHYD>
0.97642154

>  <PEOE_VSA_FNEG>
0.4282099

>  <PEOE_VSA_FPNEG>
0.023578493

>  <PEOE_VSA_FPOL>
0.023578493

>  <PEOE_VSA_FPOS>
0.5717901

>  <PEOE_VSA_FPPOS>
0

>  <PEOE_VSA_HYD>
316.72198

>  <PEOE_VSA_NEG>
138.89851

>  <PEOE_VSA_PNEG>
7.6481595

>  <PEOE_VSA_POL>
7.6481595

>  <PEOE_VSA_POS>
185.47163

>  <PEOE_VSA_PPOS>
0

>  <petitjean>
0.5

>  <petitjeanSC>
1

>  <Q_PC+>
0

>  <Q_PC->
0

>  <Q_RPC+>
0

>  <Q_RPC->
0

>  <Q_VSA_FHYD>
1

>  <Q_VSA_FNEG>
0

>  <Q_VSA_FPNEG>
0

>  <Q_VSA_FPOL>
0

>  <Q_VSA_FPOS>
1

>  <Q_VSA_FPPOS>
0

>  <Q_VSA_HYD>
324.37015

>  <Q_VSA_NEG>
0

>  <Q_VSA_PNEG>
0

>  <Q_VSA_POL>
0

>  <Q_VSA_POS>
324.37015

>  <Q_VSA_PPOS>
0

>  <radius>
5

>  <reactive>
0

>  <rings>
3

>  <RPC+>
0

>  <RPC->
0

>  <rsynth>
0.52173913

>  <SlogP>
3.2893

>  <SlogP_VSA0>
40.010525

>  <SlogP_VSA1>
0

>  <SlogP_VSA2>
17.468536

>  <SlogP_VSA3>
78.731674

>  <SlogP_VSA4>
3.185575

>  <SlogP_VSA5>
0

>  <SlogP_VSA6>
0

>  <SlogP_VSA7>
158.78867

>  <SlogP_VSA8>
6.4686494

>  <SlogP_VSA9>
43.81287

>  <SMR>
9.0142698

>  <SMR_VSA0>
10.999887

>  <SMR_VSA1>
21.999775

>  <SMR_VSA2>
18.01075

>  <SMR_VSA3>
26.60973

>  <SMR_VSA4>
0

>  <SMR_VSA5>
158.78867

>  <SMR_VSA6>
78.731674

>  <SMR_VSA7>
33.326015

>  <TPSA>
39.720001

>  <VAdjEq>
0.45137304

>  <VAdjMa>
5.643856

>  <VDistEq>
3.1264191

>  <VDistMa>
8.7916164

>  <vdw_area>
324.37015

>  <vdw_vol>
449.22327

>  <vsa_acc>
7.5112681

>  <vsa_acid>
0

>  <vsa_base>
0

>  <vsa_don>
0

>  <vsa_hyd>
292.44348

>  <vsa_other>
0

>  <vsa_pol>
13.193845

>  <Weight>
313.397

>  <weinerPath>
1166

>  <weinerPol>
33

>  <zagreb>
114

$$$$