Clc1ccc(OC(C(OCCCOC(=O)C(Oc2ccc(Cl)cc2)(C)C)=O)(C)C)cc1
  MOE2013           2D

 31 32  0  0  0  0  0  0  0  0999 V2000
    0.0000    0.0000    0.0000 Cl  0  0  0  0  0  0  0  0  0  0  0  0
    1.3030    0.7430    0.0000 C   0  0  0  0  0  0  0  0  0  0  0  0
    2.5980   -0.0150    0.0000 C   0  0  0  0  0  0  0  0  0  0  0  0
    3.9010    0.7280    0.0000 C   0  0  0  0  0  0  0  0  0  0  0  0
    3.9100    2.2280    0.0000 C   0  0  0  0  0  0  0  0  0  0  0  0
    5.2130    2.9710    0.0000 O   0  0  0  0  0  0  0  0  0  0  0  0
    6.5080    2.2140    0.0000 C   0  0  0  0  0  0  0  0  0  0  0  0
    7.8030    1.4560    0.0000 C   0  0  0  0  0  0  0  0  0  0  0  0
    9.1060    2.1990    0.0000 O   0  0  0  0  0  0  0  0  0  0  0  0
   10.4010    1.4420    0.0000 C   0  0  0  0  0  0  0  0  0  0  0  0
   11.7040    2.1850    0.0000 C   0  0  0  0  0  0  0  0  0  0  0  0
   12.9990    1.4270    0.0000 C   0  0  0  0  0  0  0  0  0  0  0  0
   14.3020    2.1700    0.0000 O   0  0  0  0  0  0  0  0  0  0  0  0
   15.5970    1.4130    0.0000 C   0  0  0  0  0  0  0  0  0  0  0  0
   15.5880   -0.0870    0.0000 O   0  0  0  0  0  0  0  0  0  0  0  0
   16.9000    2.1550    0.0000 C   0  0  0  0  0  0  0  0  0  0  0  0
   17.6430    0.8520    0.0000 O   0  0  0  0  0  0  0  0  0  0  0  0
   19.1430    0.8440    0.0000 C   0  0  0  0  0  0  0  0  0  0  0  0
   19.9000    2.1390    0.0000 C   0  0  0  0  0  0  0  0  0  0  0  0
   21.4000    2.1300    0.0000 C   0  0  0  0  0  0  0  0  0  0  0  0
   22.1420    0.8270    0.0000 C   0  0  0  0  0  0  0  0  0  0  0  0
   23.6420    0.8190    0.0000 Cl  0  0  0  0  0  0  0  0  0  0  0  0
   21.3850   -0.4680    0.0000 C   0  0  0  0  0  0  0  0  0  0  0  0
   19.8850   -0.4590    0.0000 C   0  0  0  0  0  0  0  0  0  0  0  0
   18.2030    2.8980    0.0000 C   0  0  0  0  0  0  0  0  0  0  0  0
   16.1570    3.4590    0.0000 C   0  0  0  0  0  0  0  0  0  0  0  0
    7.7940   -0.0440    0.0000 O   0  0  0  0  0  0  0  0  0  0  0  0
    5.7500    0.9190    0.0000 C   0  0  0  0  0  0  0  0  0  0  0  0
    7.2650    3.5080    0.0000 C   0  0  0  0  0  0  0  0  0  0  0  0
    2.6150    2.9850    0.0000 C   0  0  0  0  0  0  0  0  0  0  0  0
    1.3120    2.2430    0.0000 C   0  0  0  0  0  0  0  0  0  0  0  0
  1  2  1  0  0  0  0
  2  3  1  0  0  0  0
  2 31  2  0  0  0  0
  3  4  2  0  0  0  0
  4  5  1  0  0  0  0
  5  6  1  0  0  0  0
  5 30  2  0  0  0  0
  6  7  1  0  0  0  0
  7  8  1  0  0  0  0
  7 28  1  0  0  0  0
  7 29  1  0  0  0  0
  8  9  1  0  0  0  0
  8 27  2  0  0  0  0
  9 10  1  0  0  0  0
 10 11  1  0  0  0  0
 11 12  1  0  0  0  0
 12 13  1  0  0  0  0
 13 14  1  0  0  0  0
 14 15  2  0  0  0  0
 14 16  1  0  0  0  0
 16 17  1  0  0  0  0
 16 25  1  0  0  0  0
 16 26  1  0  0  0  0
 17 18  1  0  0  0  0
 18 19  1  0  0  0  0
 18 24  2  0  0  0  0
 19 20  2  0  0  0  0
 20 21  1  0  0  0  0
 21 22  1  0  0  0  0
 21 23  2  0  0  0  0
 23 24  1  0  0  0  0
 30 31  1  0  0  0  0
M  END
>  <Index>
981

>  <ID>
HT1888

>  <class>
0

>  <apol>
66.988617

>  <ast_fraglike>
0

>  <ast_fraglike_ext>
0

>  <ast_violation>
3

>  <ast_violation_ext>
4

>  <a_acc>
4

>  <a_acid>
0

>  <a_aro>
12

>  <a_base>
0

>  <a_count>
57

>  <a_don>
0

>  <a_donacc>
4

>  <a_heavy>
31

>  <a_hyd>
23

>  <a_IC>
88.711601

>  <a_ICM>
1.5563438

>  <a_nB>
0

>  <a_nBr>
0

>  <a_nC>
23

>  <a_nCl>
2

>  <a_nF>
0

>  <a_nH>
26

>  <a_nI>
0

>  <a_nN>
0

>  <a_nO>
6

>  <a_nP>
0

>  <a_nS>
0

>  <balabanJ>
1.6118855

>  <BCUT_PEOE_0>
-2.5593648

>  <BCUT_PEOE_1>
-0.56678259

>  <BCUT_PEOE_2>
0.58075309

>  <BCUT_PEOE_3>
2.6118426

>  <BCUT_SLOGP_0>
-2.6477354

>  <BCUT_SLOGP_1>
-0.33591929

>  <BCUT_SLOGP_2>
0.69703615

>  <BCUT_SLOGP_3>
2.5528963

>  <BCUT_SMR_0>
-2.3394399

>  <BCUT_SMR_1>
-0.32379648

>  <BCUT_SMR_2>
0.80534798

>  <BCUT_SMR_3>
2.8245118

>  <bpol>
38.843384

>  <b_1rotN>
10

>  <b_1rotR>
0.3125

>  <b_ar>
12

>  <b_count>
58

>  <b_double>
2

>  <b_heavy>
32

>  <b_max1len>
4

>  <b_rotN>
12

>  <b_rotR>
0.375

>  <b_single>
44

>  <b_triple>
0

>  <chi0>
23.070704

>  <chi0v>
19.457399

>  <chi0v_C>
14.740123

>  <chi0_C>
16.242277

>  <chi1>
14.492838

>  <chi1v>
10.486971

>  <chi1v_C>
7.1427345

>  <chi1_C>
8.8433371

>  <chiral>
0

>  <chiral_u>
0

>  <density>
0.79622906

>  <diameter>
20

>  <FCharge>
0

>  <GCUT_PEOE_0>
-0.76695085

>  <GCUT_PEOE_1>
-0.37800694

>  <GCUT_PEOE_2>
0.01239455

>  <GCUT_PEOE_3>
2.6040523

>  <GCUT_SLOGP_0>
-0.9345507

>  <GCUT_SLOGP_1>
-0.26386139

>  <GCUT_SLOGP_2>
0.13212726

>  <GCUT_SLOGP_3>
2.6384182

>  <GCUT_SMR_0>
-0.52457893

>  <GCUT_SMR_1>
-0.16124682

>  <GCUT_SMR_2>
0.19513199

>  <GCUT_SMR_3>
2.8340697

>  <Kier1>
27.246094

>  <Kier2>
12.459259

>  <Kier3>
9.408

>  <KierA1>
24.018274

>  <KierA2>
10.935048

>  <KierA3>
8.2305593

>  <KierFlex>
8.4722891

>  <lip_acc>
6

>  <lip_don>
0

>  <lip_druglike>
1

>  <lip_violation>
1

>  <logP(o/w)>
5.8394799

>  <logS>
-7.07551

>  <mr>
12.139608

>  <mutagenic>
0

>  <nmol>
1

>  <opr_brigid>
12

>  <opr_leadlike>
0

>  <opr_nring>
2

>  <opr_nrot>
10

>  <opr_violation>
2

>  <PC+>
0

>  <PC->
0

>  <PEOE_PC+>
2.368432

>  <PEOE_PC->
-2.368432

>  <PEOE_RPC+>
0.12428256

>  <PEOE_RPC->
0.13882583

>  <PEOE_VSA+0>
68.754898

>  <PEOE_VSA+1>
98.004257

>  <PEOE_VSA+2>
0

>  <PEOE_VSA+3>
0

>  <PEOE_VSA+4>
0

>  <PEOE_VSA+5>
29.416998

>  <PEOE_VSA+6>
0

>  <PEOE_VSA-0>
181.73126

>  <PEOE_VSA-1>
59.163895

>  <PEOE_VSA-2>
0

>  <PEOE_VSA-3>
0

>  <PEOE_VSA-4>
0

>  <PEOE_VSA-5>
27.133842

>  <PEOE_VSA-6>
10.015024

>  <PEOE_VSA_FHYD>
0.85963088

>  <PEOE_VSA_FNEG>
0.58631843

>  <PEOE_VSA_FPNEG>
0.078336746

>  <PEOE_VSA_FPOL>
0.14036912

>  <PEOE_VSA_FPOS>
0.4136816

>  <PEOE_VSA_FPPOS>
0.062032364

>  <PEOE_VSA_HYD>
407.6543

>  <PEOE_VSA_NEG>
278.04401

>  <PEOE_VSA_PNEG>
37.148865

>  <PEOE_VSA_POL>
66.565865

>  <PEOE_VSA_POS>
196.17615

>  <PEOE_VSA_PPOS>
29.416998

>  <petitjean>
0.5

>  <petitjeanSC>
1

>  <Q_PC+>
0

>  <Q_PC->
0

>  <Q_RPC+>
0

>  <Q_RPC->
0

>  <Q_VSA_FHYD>
1

>  <Q_VSA_FNEG>
0

>  <Q_VSA_FPNEG>
0

>  <Q_VSA_FPOL>
0

>  <Q_VSA_FPOS>
1

>  <Q_VSA_FPPOS>
0

>  <Q_VSA_HYD>
474.22015

>  <Q_VSA_NEG>
0

>  <Q_VSA_PNEG>
0

>  <Q_VSA_POL>
0

>  <Q_VSA_POS>
474.22015

>  <Q_VSA_PPOS>
0

>  <radius>
10

>  <reactive>
0

>  <rings>
2

>  <RPC+>
0

>  <RPC->
0

>  <rsynth>
1

>  <SlogP>
5.4849

>  <SlogP_VSA0>
21.999775

>  <SlogP_VSA1>
15.490929

>  <SlogP_VSA2>
69.724205

>  <SlogP_VSA3>
41.852516

>  <SlogP_VSA4>
0

>  <SlogP_VSA5>
0

>  <SlogP_VSA6>
7.0012131

>  <SlogP_VSA7>
141.14548

>  <SlogP_VSA8>
18.868406

>  <SlogP_VSA9>
222.08821

>  <SMR>
11.8853

>  <SMR_VSA0>
69.724205

>  <SMR_VSA1>
21.999775

>  <SMR_VSA2>
0

>  <SMR_VSA3>
17.48807

>  <SMR_VSA4>
0

>  <SMR_VSA5>
160.01389

>  <SMR_VSA6>
57.343445

>  <SMR_VSA7>
211.60135

>  <TPSA>
71.059998

>  <VAdjEq>
0.35309514

>  <VAdjMa>
6

>  <VDistEq>
4.0526795

>  <VDistMa>
9.5658989

>  <vdw_area>
474.22015

>  <vdw_vol>
589.47986

>  <vsa_acc>
32.141354

>  <vsa_acid>
0

>  <vsa_base>
0

>  <vsa_don>
0

>  <vsa_hyd>
389.14761

>  <vsa_other>
34.424511

>  <vsa_pol>
32.141354

>  <Weight>
469.36099

>  <weinerPath>
3456

>  <weinerPol>
44

>  <zagreb>
154

$$$$