P(OCc1cnc(C)c(O)c1C=O)(O)(O)=O
  MOE2013           2D

 16 16  0  0  0  0  0  0  0  0999 V2000
    0.0000    0.0000    0.0000 P   0  0  0  0  0  0  0  0  0  0  0  0
   -1.2980    0.7520    0.0000 O   0  0  0  0  0  0  0  0  0  0  0  0
   -2.5980    0.0030    0.0000 C   0  0  0  0  0  0  0  0  0  0  0  0
   -3.8960    0.7550    0.0000 C   0  0  0  0  0  0  0  0  0  0  0  0
   -3.8940    2.2550    0.0000 C   0  0  0  0  0  0  0  0  0  0  0  0
   -5.1930    3.0060    0.0000 N   0  0  0  0  0  0  0  0  0  0  0  0
   -6.4920    2.2580    0.0000 C   0  0  0  0  0  0  0  0  0  0  0  0
   -7.7910    3.0090    0.0000 C   0  0  0  0  0  0  0  0  0  0  0  0
   -6.4940    0.7580    0.0000 C   0  0  0  0  0  0  0  0  0  0  0  0
   -7.7940    0.0090    0.0000 O   0  0  0  0  0  0  0  0  0  0  0  0
   -5.1960    0.0060    0.0000 C   0  0  0  0  0  0  0  0  0  0  0  0
   -5.1980   -1.4940    0.0000 C   0  0  0  0  0  0  0  0  0  0  0  0
   -6.4980   -2.2420    0.0000 O   0  0  0  0  0  0  0  0  0  0  0  0
    0.7520    1.2980    0.0000 O   0  0  0  0  0  0  0  0  0  0  0  0
    1.2980   -0.7520    0.0000 O   0  0  0  0  0  0  0  0  0  0  0  0
   -0.7520   -1.2980    0.0000 O   0  0  0  0  0  0  0  0  0  0  0  0
  1  2  1  0  0  0  0
  1 14  1  0  0  0  0
  1 15  1  0  0  0  0
  1 16  2  0  0  0  0
  2  3  1  0  0  0  0
  3  4  1  0  0  0  0
  4  5  1  0  0  0  0
  4 11  2  0  0  0  0
  5  6  2  0  0  0  0
  6  7  1  0  0  0  0
  7  8  1  0  0  0  0
  7  9  2  0  0  0  0
  9 10  1  0  0  0  0
  9 11  1  0  0  0  0
 11 12  1  0  0  0  0
 12 13  2  0  0  0  0
M  END
>  <Index>
919

>  <ID>
HT1778

>  <class>
0

>  <apol>
30.28993

>  <ast_fraglike>
0

>  <ast_fraglike_ext>
0

>  <ast_violation>
2

>  <ast_violation_ext>
4

>  <a_acc>
7

>  <a_acid>
0

>  <a_aro>
6

>  <a_base>
0

>  <a_count>
26

>  <a_don>
4

>  <a_donacc>
11

>  <a_heavy>
16

>  <a_hyd>
7

>  <a_IC>
49.482376

>  <a_ICM>
1.9031683

>  <a_nB>
0

>  <a_nBr>
0

>  <a_nC>
8

>  <a_nCl>
0

>  <a_nF>
0

>  <a_nH>
10

>  <a_nI>
0

>  <a_nN>
1

>  <a_nO>
6

>  <a_nP>
1

>  <a_nS>
0

>  <balabanJ>
2.5355017

>  <BCUT_PEOE_0>
-2.3504307

>  <BCUT_PEOE_1>
-0.60933489

>  <BCUT_PEOE_2>
0.63853031

>  <BCUT_PEOE_3>
2.4151676

>  <BCUT_SLOGP_0>
-2.2787552

>  <BCUT_SLOGP_1>
-0.61826593

>  <BCUT_SLOGP_2>
0.53529227

>  <BCUT_SLOGP_3>
2.5767288

>  <BCUT_SMR_0>
-2.0888019

>  <BCUT_SMR_1>
-0.4125407

>  <BCUT_SMR_2>
0.79940408

>  <BCUT_SMR_3>
2.6821668

>  <bpol>
23.56407

>  <b_1rotN>
4

>  <b_1rotR>
0.25

>  <b_ar>
6

>  <b_count>
26

>  <b_double>
1

>  <b_heavy>
16

>  <b_max1len>
5

>  <b_rotN>
4

>  <b_rotR>
0.25

>  <b_single>
19

>  <b_triple>
0

>  <chi0>
12.344935

>  <chi0v>
9.2170477

>  <chi0v_C>
4.8618073

>  <chi0_C>
5.4307213

>  <chi1>
7.3483539

>  <chi1v>
5.7061386

>  <chi1v_C>
2.1809037

>  <chi1_C>
2.8020952

>  <chiral>
0

>  <chiral_u>
0

>  <density>
0.92933708

>  <diameter>
8

>  <FCharge>
0

>  <GCUT_PEOE_0>
-0.75104439

>  <GCUT_PEOE_1>
-0.44925168

>  <GCUT_PEOE_2>
0.11768244

>  <GCUT_PEOE_3>
2.2612679

>  <GCUT_SLOGP_0>
-1.2938917

>  <GCUT_SLOGP_1>
-0.40277919

>  <GCUT_SLOGP_2>
-0.0059477254

>  <GCUT_SLOGP_3>
2.3665624

>  <GCUT_SMR_0>
-0.48126316

>  <GCUT_SMR_1>
-0.2261686

>  <GCUT_SMR_2>
0.26403326

>  <GCUT_SMR_3>
2.5258834

>  <Kier1>
14.0625

>  <Kier2>
5.5576558

>  <Kier3>
4.0767999

>  <KierA1>
12.535419

>  <KierA2>
4.9136596

>  <KierA3>
3.5822594

>  <KierFlex>
3.849674

>  <lip_acc>
7

>  <lip_don>
3

>  <lip_druglike>
1

>  <lip_violation>
0

>  <logP(o/w)>
-0.86400002

>  <logS>
0.35710999

>  <mr>
5.6678081

>  <mutagenic>
0

>  <nmol>
1

>  <opr_brigid>
6

>  <opr_leadlike>
1

>  <opr_nring>
1

>  <opr_nrot>
4

>  <opr_violation>
0

>  <PC+>
0

>  <PC->
0

>  <PEOE_PC+>
1.8727646

>  <PEOE_PC->
-1.8727646

>  <PEOE_RPC+>
0.21963267

>  <PEOE_RPC->
0.1908239

>  <PEOE_VSA+0>
31.750612

>  <PEOE_VSA+1>
36.65554

>  <PEOE_VSA+2>
12.723906

>  <PEOE_VSA+3>
39.153229

>  <PEOE_VSA+4>
10.324173

>  <PEOE_VSA+5>
0

>  <PEOE_VSA+6>
18.713068

>  <PEOE_VSA-0>
18.747677

>  <PEOE_VSA-1>
0

>  <PEOE_VSA-2>
15.729136

>  <PEOE_VSA-3>
0

>  <PEOE_VSA-4>
0

>  <PEOE_VSA-5>
43.774982

>  <PEOE_VSA-6>
7.7675405

>  <PEOE_VSA_FHYD>
0.65760261

>  <PEOE_VSA_FNEG>
0.36551112

>  <PEOE_VSA_FPNEG>
0.21901312

>  <PEOE_VSA_FPOL>
0.34239742

>  <PEOE_VSA_FPOS>
0.63448888

>  <PEOE_VSA_FPPOS>
0.12338429

>  <PEOE_VSA_HYD>
154.7601

>  <PEOE_VSA_NEG>
86.019333

>  <PEOE_VSA_PNEG>
51.542522

>  <PEOE_VSA_POL>
80.579765

>  <PEOE_VSA_POS>
149.32053

>  <PEOE_VSA_PPOS>
29.037241

>  <petitjean>
0.5

>  <petitjeanSC>
1

>  <Q_PC+>
0

>  <Q_PC->
0

>  <Q_RPC+>
0

>  <Q_RPC->
0

>  <Q_VSA_FHYD>
1

>  <Q_VSA_FNEG>
0

>  <Q_VSA_FPNEG>
0

>  <Q_VSA_FPOL>
0

>  <Q_VSA_FPOS>
1

>  <Q_VSA_FPPOS>
0

>  <Q_VSA_HYD>
235.33986

>  <Q_VSA_NEG>
0

>  <Q_VSA_PNEG>
0

>  <Q_VSA_POL>
0

>  <Q_VSA_POS>
235.33986

>  <Q_VSA_PPOS>
0

>  <radius>
4

>  <reactive>
1

>  <rings>
1

>  <RPC+>
0

>  <RPC->
0

>  <rsynth>
1

>  <SlogP>
-0.28637999

>  <SlogP_VSA0>
90.43293

>  <SlogP_VSA1>
16.78553

>  <SlogP_VSA2>
27.066851

>  <SlogP_VSA3>
0

>  <SlogP_VSA4>
32.990112

>  <SlogP_VSA5>
0

>  <SlogP_VSA6>
0

>  <SlogP_VSA7>
17.214357

>  <SlogP_VSA8>
0

>  <SlogP_VSA9>
76.190544

>  <SMR>
5.2377901

>  <SMR_VSA0>
53.217613

>  <SMR_VSA1>
84.784691

>  <SMR_VSA2>
0

>  <SMR_VSA3>
14.371325

>  <SMR_VSA4>
0

>  <SMR_VSA5>
38.140617

>  <SMR_VSA6>
0

>  <SMR_VSA7>
70.166077

>  <TPSA>
116.95

>  <VAdjEq>
0.54356444

>  <VAdjMa>
5

>  <VDistEq>
2.8577962

>  <VDistMa>
7.7036967

>  <vdw_area>
235.33986

>  <vdw_vol>
265.93472

>  <vsa_acc>
23.915468

>  <vsa_acid>
0

>  <vsa_base>
0

>  <vsa_don>
0

>  <vsa_hyd>
91.341583

>  <vsa_other>
40.771542

>  <vsa_pol>
84.6698

>  <Weight>
247.14299

>  <weinerPath>
447

>  <weinerPol>
22

>  <zagreb>
78

$$$$