S1C(c2cc(OCC)c(OCCCCC)cc2)C(=O)NC1=O
  MOE2013           2D

 22 23  0  0  1  0  0  0  0  0999 V2000
    0.0000    0.0000    0.0000 S   0  0  0  0  0  0  0  0  0  0  0  0
    1.1320    0.9840    0.0000 C   0  0  3  0  0  0  0  0  0  0  0  0
    2.5940    0.6470    0.0000 C   0  0  0  0  0  0  0  0  0  0  0  0
    3.0320   -0.7870    0.0000 C   0  0  0  0  0  0  0  0  0  0  0  0
    4.4940   -1.1250    0.0000 C   0  0  0  0  0  0  0  0  0  0  0  0
    4.9330   -2.5590    0.0000 O   0  0  0  0  0  0  0  0  0  0  0  0
    3.9100   -3.6560    0.0000 C   0  0  0  0  0  0  0  0  0  0  0  0
    4.3480   -5.0910    0.0000 C   0  0  0  0  0  0  0  0  0  0  0  0
    5.5170   -0.0280    0.0000 C   0  0  0  0  0  0  0  0  0  0  0  0
    6.9780   -0.3650    0.0000 O   0  0  0  0  0  0  0  0  0  0  0  0
    8.0010    0.7320    0.0000 C   0  0  0  0  0  0  0  0  0  0  0  0
    9.4630    0.3950    0.0000 C   0  0  0  0  0  0  0  0  0  0  0  0
   10.4860    1.4920    0.0000 C   0  0  0  0  0  0  0  0  0  0  0  0
   11.9470    1.1550    0.0000 C   0  0  0  0  0  0  0  0  0  0  0  0
   12.9700    2.2520    0.0000 C   0  0  0  0  0  0  0  0  0  0  0  0
    5.0780    1.4070    0.0000 C   0  0  0  0  0  0  0  0  0  0  0  0
    3.6160    1.7440    0.0000 C   0  0  0  0  0  0  0  0  0  0  0  0
    0.5460    2.3650    0.0000 C   0  0  0  0  0  0  0  0  0  0  0  0
    1.3180    3.6510    0.0000 O   0  0  0  0  0  0  0  0  0  0  0  0
   -0.9490    2.2340    0.0000 N   0  0  0  0  0  0  0  0  0  0  0  0
   -1.2860    0.7720    0.0000 C   0  0  0  0  0  0  0  0  0  0  0  0
   -2.6670    0.1860    0.0000 O   0  0  0  0  0  0  0  0  0  0  0  0
  1  2  1  0  0  0  0
  1 21  1  0  0  0  0
  2  3  1  0  0  0  0
  2 18  1  0  0  0  0
  3  4  1  0  0  0  0
  3 17  2  0  0  0  0
  4  5  2  0  0  0  0
  5  6  1  0  0  0  0
  5  9  1  0  0  0  0
  6  7  1  0  0  0  0
  7  8  1  0  0  0  0
  9 10  1  0  0  0  0
  9 16  2  0  0  0  0
 10 11  1  0  0  0  0
 11 12  1  0  0  0  0
 12 13  1  0  0  0  0
 13 14  1  0  0  0  0
 14 15  1  0  0  0  0
 16 17  1  0  0  0  0
 18 19  2  0  0  0  0
 18 20  1  0  0  0  0
 20 21  1  0  0  0  0
 21 22  2  0  0  0  0
M  END
>  <Index>
950

>  <ID>
HT1829

>  <class>
0

>  <apol>
49.370651

>  <ast_fraglike>
0

>  <ast_fraglike_ext>
0

>  <ast_violation>
3

>  <ast_violation_ext>
4

>  <a_acc>
4

>  <a_acid>
0

>  <a_aro>
6

>  <a_base>
0

>  <a_count>
43

>  <a_don>
1

>  <a_donacc>
5

>  <a_heavy>
22

>  <a_hyd>
15

>  <a_IC>
69.090721

>  <a_ICM>
1.6067609

>  <a_nB>
0

>  <a_nBr>
0

>  <a_nC>
16

>  <a_nCl>
0

>  <a_nF>
0

>  <a_nH>
21

>  <a_nI>
0

>  <a_nN>
1

>  <a_nO>
4

>  <a_nP>
0

>  <a_nS>
1

>  <balabanJ>
1.8454927

>  <BCUT_PEOE_0>
-2.6203263

>  <BCUT_PEOE_1>
-0.5280422

>  <BCUT_PEOE_2>
0.38947433

>  <BCUT_PEOE_3>
2.570323

>  <BCUT_SLOGP_0>
-2.5269182

>  <BCUT_SLOGP_1>
-0.49050781

>  <BCUT_SLOGP_2>
0.48874107

>  <BCUT_SLOGP_3>
2.7008481

>  <BCUT_SMR_0>
-2.3769727

>  <BCUT_SMR_1>
-0.3030318

>  <BCUT_SMR_2>
0.60123235

>  <BCUT_SMR_3>
2.8287673

>  <bpol>
31.645348

>  <b_1rotN>
8

>  <b_1rotR>
0.34782609

>  <b_ar>
6

>  <b_count>
44

>  <b_double>
2

>  <b_heavy>
23

>  <b_max1len>
6

>  <b_rotN>
8

>  <b_rotR>
0.34782609

>  <b_single>
36

>  <b_triple>
0

>  <chi0>
15.949383

>  <chi0v>
13.702673

>  <chi0v_C>
10.344935

>  <chi0_C>
11.120955

>  <chi1>
10.651397

>  <chi1v>
8.4429235

>  <chi1v_C>
5.2295976

>  <chi1_C>
6.0472069

>  <chiral>
1

>  <chiral_u>
1

>  <density>
0.76707935

>  <diameter>
13

>  <FCharge>
0

>  <GCUT_PEOE_0>
-0.79437286

>  <GCUT_PEOE_1>
-0.41590625

>  <GCUT_PEOE_2>
0.044721324

>  <GCUT_PEOE_3>
2.5287232

>  <GCUT_SLOGP_0>
-1.1719066

>  <GCUT_SLOGP_1>
-0.31396738

>  <GCUT_SLOGP_2>
0.15726851

>  <GCUT_SLOGP_3>
2.6542203

>  <GCUT_SMR_0>
-0.53050107

>  <GCUT_SMR_1>
-0.21106045

>  <GCUT_SMR_2>
0.14509633

>  <GCUT_SMR_3>
2.7993536

>  <Kier1>
18.340265

>  <Kier2>
9.333333

>  <Kier3>
5.2631578

>  <KierA1>
15.762103

>  <KierA2>
7.9601054

>  <KierA3>
4.4639125

>  <KierFlex>
5.7030907

>  <lip_acc>
5

>  <lip_don>
1

>  <lip_druglike>
1

>  <lip_violation>
0

>  <logP(o/w)>
3.75174

>  <logS>
-5.1023898

>  <mr>
8.8081017

>  <mutagenic>
0

>  <nmol>
1

>  <opr_brigid>
11

>  <opr_leadlike>
1

>  <opr_nring>
2

>  <opr_nrot>
8

>  <opr_violation>
0

>  <PC+>
0

>  <PC->
0

>  <PEOE_PC+>
1.9219468

>  <PEOE_PC->
-1.9219468

>  <PEOE_RPC+>
0.14948715

>  <PEOE_RPC->
0.17814438

>  <PEOE_VSA+0>
51.184631

>  <PEOE_VSA+1>
64.025673

>  <PEOE_VSA+2>
17.54805

>  <PEOE_VSA+3>
8.6190128

>  <PEOE_VSA+4>
12.949531

>  <PEOE_VSA+5>
14.925592

>  <PEOE_VSA+6>
0

>  <PEOE_VSA-0>
73.927956

>  <PEOE_VSA-1>
48.405209

>  <PEOE_VSA-2>
0

>  <PEOE_VSA-3>
0

>  <PEOE_VSA-4>
0

>  <PEOE_VSA-5>
27.270733

>  <PEOE_VSA-6>
5.0075121

>  <PEOE_VSA_FHYD>
0.81426346

>  <PEOE_VSA_FNEG>
0.47739625

>  <PEOE_VSA_FPNEG>
0.099666081

>  <PEOE_VSA_FPOL>
0.18573657

>  <PEOE_VSA_FPOS>
0.52260375

>  <PEOE_VSA_FPPOS>
0.086070485

>  <PEOE_VSA_HYD>
263.71054

>  <PEOE_VSA_NEG>
154.6114

>  <PEOE_VSA_PNEG>
32.278244

>  <PEOE_VSA_POL>
60.15337

>  <PEOE_VSA_POS>
169.25249

>  <PEOE_VSA_PPOS>
27.875124

>  <petitjean>
0.46153846

>  <petitjeanSC>
0.85714287

>  <Q_PC+>
0

>  <Q_PC->
0

>  <Q_RPC+>
0

>  <Q_RPC->
0

>  <Q_VSA_FHYD>
1

>  <Q_VSA_FNEG>
0

>  <Q_VSA_FPNEG>
0

>  <Q_VSA_FPOL>
0

>  <Q_VSA_FPOS>
1

>  <Q_VSA_FPPOS>
0

>  <Q_VSA_HYD>
323.86389

>  <Q_VSA_NEG>
0

>  <Q_VSA_PNEG>
0

>  <Q_VSA_POL>
0

>  <Q_VSA_POS>
323.86389

>  <Q_VSA_PPOS>
0

>  <radius>
7

>  <reactive>
0

>  <rings>
2

>  <RPC+>
0

>  <RPC->
0

>  <rsynth>
1

>  <SlogP>
3.7739

>  <SlogP_VSA0>
40.010525

>  <SlogP_VSA1>
8.8827257

>  <SlogP_VSA2>
23.862217

>  <SlogP_VSA3>
41.852516

>  <SlogP_VSA4>
3.185575

>  <SlogP_VSA5>
0

>  <SlogP_VSA6>
0

>  <SlogP_VSA7>
52.929554

>  <SlogP_VSA8>
59.381172

>  <SlogP_VSA9>
133.22064

>  <SMR>
8.6613703

>  <SMR_VSA0>
47.724434

>  <SMR_VSA1>
21.999775

>  <SMR_VSA2>
18.01075

>  <SMR_VSA3>
16.448387

>  <SMR_VSA4>
0

>  <SMR_VSA5>
109.53477

>  <SMR_VSA6>
50.735245

>  <SMR_VSA7>
98.871574

>  <TPSA>
64.629997

>  <VAdjEq>
0.4530769

>  <VAdjMa>
5.523562

>  <VDistEq>
3.4143164

>  <VDistMa>
8.6099625

>  <vdw_area>
323.86389

>  <vdw_vol>
421.61609

>  <vsa_acc>
32.141354

>  <vsa_acid>
0

>  <vsa_base>
0

>  <vsa_don>
5.6825762

>  <vsa_hyd>
240.85561

>  <vsa_other>
27.875124

>  <vsa_pol>
37.823929

>  <Weight>
323.41299

>  <weinerPath>
1157

>  <weinerPol>
30

>  <zagreb>
106

$$$$