n1c2cc(N)ccc2cc2c1cc(N)cc2
  MOE2013           2D

 16 18  0  0  0  0  0  0  0  0999 V2000
    0.0000    0.0000    0.0000 N   0  0  0  0  0  0  0  0  0  0  0  0
   -1.2990    0.7500    0.0000 C   0  0  0  0  0  0  0  0  0  0  0  0
   -2.5980    0.0000    0.0000 C   0  0  0  0  0  0  0  0  0  0  0  0
   -3.8970    0.7500    0.0000 C   0  0  0  0  0  0  0  0  0  0  0  0
   -5.1960    0.0000    0.0000 N   0  0  0  0  0  0  0  0  0  0  0  0
   -3.8970    2.2500    0.0000 C   0  0  0  0  0  0  0  0  0  0  0  0
   -2.5980    3.0000    0.0000 C   0  0  0  0  0  0  0  0  0  0  0  0
   -1.2990    2.2500    0.0000 C   0  0  0  0  0  0  0  0  0  0  0  0
    0.0000    3.0000    0.0000 C   0  0  0  0  0  0  0  0  0  0  0  0
    1.2990    2.2500    0.0000 C   0  0  0  0  0  0  0  0  0  0  0  0
    1.2990    0.7500    0.0000 C   0  0  0  0  0  0  0  0  0  0  0  0
    2.5980    0.0000    0.0000 C   0  0  0  0  0  0  0  0  0  0  0  0
    3.8970    0.7500    0.0000 C   0  0  0  0  0  0  0  0  0  0  0  0
    5.1960    0.0000    0.0000 N   0  0  0  0  0  0  0  0  0  0  0  0
    3.8970    2.2500    0.0000 C   0  0  0  0  0  0  0  0  0  0  0  0
    2.5980    3.0000    0.0000 C   0  0  0  0  0  0  0  0  0  0  0  0
  1  2  2  0  0  0  0
  1 11  1  0  0  0  0
  2  3  1  0  0  0  0
  2  8  1  0  0  0  0
  3  4  2  0  0  0  0
  4  5  1  0  0  0  0
  4  6  1  0  0  0  0
  6  7  2  0  0  0  0
  7  8  1  0  0  0  0
  8  9  2  0  0  0  0
  9 10  1  0  0  0  0
 10 11  1  0  0  0  0
 10 16  2  0  0  0  0
 11 12  2  0  0  0  0
 12 13  1  0  0  0  0
 13 14  1  0  0  0  0
 13 15  2  0  0  0  0
 15 16  1  0  0  0  0
M  END
>  <Index>
905

>  <ID>
HT1749

>  <class>
0

>  <apol>
33.514725

>  <ast_fraglike>
1

>  <ast_fraglike_ext>
1

>  <ast_violation>
0

>  <ast_violation_ext>
0

>  <a_acc>
1

>  <a_acid>
0

>  <a_aro>
14

>  <a_base>
0

>  <a_count>
27

>  <a_don>
2

>  <a_donacc>
3

>  <a_heavy>
16

>  <a_hyd>
13

>  <a_IC>
37.467609

>  <a_ICM>
1.3876894

>  <a_nB>
0

>  <a_nBr>
0

>  <a_nC>
13

>  <a_nCl>
0

>  <a_nF>
0

>  <a_nH>
11

>  <a_nI>
0

>  <a_nN>
3

>  <a_nO>
0

>  <a_nP>
0

>  <a_nS>
0

>  <balabanJ>
1.6844114

>  <BCUT_PEOE_0>
-2.2510376

>  <BCUT_PEOE_1>
-0.77328849

>  <BCUT_PEOE_2>
0.76200157

>  <BCUT_PEOE_3>
2.1981754

>  <BCUT_SLOGP_0>
-2.3276365

>  <BCUT_SLOGP_1>
-0.67090011

>  <BCUT_SLOGP_2>
0.85208291

>  <BCUT_SLOGP_3>
2.396261

>  <BCUT_SMR_0>
-1.8874704

>  <BCUT_SMR_1>
-0.55843824

>  <BCUT_SMR_2>
0.97769707

>  <BCUT_SMR_3>
2.5640883

>  <bpol>
12.025277

>  <b_1rotN>
0

>  <b_1rotR>
0

>  <b_ar>
16

>  <b_count>
29

>  <b_double>
0

>  <b_heavy>
18

>  <b_max1len>
2

>  <b_rotN>
0

>  <b_rotR>
0

>  <b_single>
13

>  <b_triple>
0

>  <chi0>
11.120955

>  <chi0v>
8.6433659

>  <chi0v_C>
7.0414519

>  <chi0_C>
8.4138489

>  <chi1>
7.7203469

>  <chi1v>
5.0779819

>  <chi1v_C>
4.0534182

>  <chi1_C>
5.7491498

>  <chiral>
0

>  <chiral_u>
0

>  <density>
0.71375281

>  <diameter>
8

>  <FCharge>
0

>  <GCUT_PEOE_0>
-0.81267148

>  <GCUT_PEOE_1>
-0.47981662

>  <GCUT_PEOE_2>
0.10906774

>  <GCUT_PEOE_3>
2.3498521

>  <GCUT_SLOGP_0>
-1.3352356

>  <GCUT_SLOGP_1>
-0.3155793

>  <GCUT_SLOGP_2>
0.20308532

>  <GCUT_SLOGP_3>
2.5327952

>  <GCUT_SMR_0>
-0.40792128

>  <GCUT_SMR_1>
-0.23551686

>  <GCUT_SMR_2>
0.28118664

>  <GCUT_SMR_3>
2.6940908

>  <Kier1>
11.111111

>  <Kier2>
4.3491125

>  <Kier3>
2.2041523

>  <KierA1>
6.9783702

>  <KierA2>
2.636497

>  <KierA3>
1.3008581

>  <KierFlex>
1.1499033

>  <lip_acc>
3

>  <lip_don>
4

>  <lip_druglike>
1

>  <lip_violation>
0

>  <logP(o/w)>
2.309

>  <logS>
-3.2618599

>  <mr>
6.3233776

>  <mutagenic>
1

>  <nmol>
1

>  <opr_brigid>
16

>  <opr_leadlike>
1

>  <opr_nring>
3

>  <opr_nrot>
0

>  <opr_violation>
0

>  <PC+>
0

>  <PC->
0

>  <PEOE_PC+>
1.1195875

>  <PEOE_PC->
-1.1195875

>  <PEOE_RPC+>
0.11068495

>  <PEOE_RPC->
0.26992118

>  <PEOE_VSA+0>
17.816181

>  <PEOE_VSA+1>
43.256805

>  <PEOE_VSA+2>
34.476051

>  <PEOE_VSA+3>
0

>  <PEOE_VSA+4>
0

>  <PEOE_VSA+5>
0

>  <PEOE_VSA+6>
0

>  <PEOE_VSA-0>
61.274521

>  <PEOE_VSA-1>
24.509808

>  <PEOE_VSA-2>
0

>  <PEOE_VSA-3>
0

>  <PEOE_VSA-4>
5.6825762

>  <PEOE_VSA-5>
0

>  <PEOE_VSA-6>
13.302238

>  <PEOE_VSA_FHYD>
0.90522671

>  <PEOE_VSA_FNEG>
0.52301365

>  <PEOE_VSA_FPNEG>
0.0947733

>  <PEOE_VSA_FPOL>
0.0947733

>  <PEOE_VSA_FPOS>
0.47698635

>  <PEOE_VSA_FPPOS>
0

>  <PEOE_VSA_HYD>
181.33336

>  <PEOE_VSA_NEG>
104.76914

>  <PEOE_VSA_PNEG>
18.984816

>  <PEOE_VSA_POL>
18.984816

>  <PEOE_VSA_POS>
95.549042

>  <PEOE_VSA_PPOS>
0

>  <petitjean>
0.5

>  <petitjeanSC>
1

>  <Q_PC+>
0

>  <Q_PC->
0

>  <Q_RPC+>
0

>  <Q_RPC->
0

>  <Q_VSA_FHYD>
1

>  <Q_VSA_FNEG>
0

>  <Q_VSA_FPNEG>
0

>  <Q_VSA_FPOL>
0

>  <Q_VSA_FPOS>
1

>  <Q_VSA_FPPOS>
0

>  <Q_VSA_HYD>
200.31818

>  <Q_VSA_NEG>
0

>  <Q_VSA_PNEG>
0

>  <Q_VSA_POL>
0

>  <Q_VSA_POS>
200.31818

>  <Q_VSA_PPOS>
0

>  <radius>
4

>  <reactive>
0

>  <rings>
3

>  <RPC+>
0

>  <RPC->
0

>  <rsynth>
1

>  <SlogP>
2.5524001

>  <SlogP_VSA0>
65.794373

>  <SlogP_VSA1>
16.78553

>  <SlogP_VSA2>
0

>  <SlogP_VSA3>
0

>  <SlogP_VSA4>
0

>  <SlogP_VSA5>
0

>  <SlogP_VSA6>
0

>  <SlogP_VSA7>
132.93649

>  <SlogP_VSA8>
0

>  <SlogP_VSA9>
5.513495

>  <SMR>
6.8073802

>  <SMR_VSA0>
0

>  <SMR_VSA1>
16.78553

>  <SMR_VSA2>
0

>  <SMR_VSA3>
0

>  <SMR_VSA4>
14.947698

>  <SMR_VSA5>
189.29666

>  <SMR_VSA6>
0

>  <SMR_VSA7>
0

>  <TPSA>
64.93

>  <VAdjEq>
0.58587331

>  <VAdjMa>
5.1699252

>  <VDistEq>
2.7801235

>  <VDistMa>
7.6986814

>  <vdw_area>
200.31818

>  <vdw_vol>
293.17151

>  <vsa_acc>
5.6825762

>  <vsa_acid>
0

>  <vsa_base>
0

>  <vsa_don>
35.484978

>  <vsa_hyd>
141.87474

>  <vsa_other>
0

>  <vsa_pol>
41.167557

>  <Weight>
209.252

>  <weinerPath>
413

>  <weinerPol>
25

>  <zagreb>
88

$$$$