Fc1cccc(F)c1Cn1nnc(c1)C(=O)N
  MOE2013           2D

 17 18  0  0  0  0  0  0  0  0999 V2000
    0.0000    0.0000    0.0000 F   0  0  0  0  0  0  0  0  0  0  0  0
    0.7460    1.3010    0.0000 C   0  0  0  0  0  0  0  0  0  0  0  0
   -0.0080    2.5980    0.0000 C   0  0  0  0  0  0  0  0  0  0  0  0
    0.7390    3.8990    0.0000 C   0  0  0  0  0  0  0  0  0  0  0  0
    2.2390    3.9040    0.0000 C   0  0  0  0  0  0  0  0  0  0  0  0
    2.9920    2.6070    0.0000 C   0  0  0  0  0  0  0  0  0  0  0  0
    4.4920    2.6110    0.0000 F   0  0  0  0  0  0  0  0  0  0  0  0
    2.2460    1.3060    0.0000 C   0  0  0  0  0  0  0  0  0  0  0  0
    3.0000    0.0090    0.0000 C   0  0  0  0  0  0  0  0  0  0  0  0
    4.5000    0.0130    0.0000 N   0  0  0  0  0  0  0  0  0  0  0  0
    5.3780    1.2290    0.0000 N   0  0  0  0  0  0  0  0  0  0  0  0
    6.8060    0.7700    0.0000 N   0  0  0  0  0  0  0  0  0  0  0  0
    6.8100   -0.7300    0.0000 C   0  0  0  0  0  0  0  0  0  0  0  0
    5.3850   -1.1980    0.0000 C   0  0  0  0  0  0  0  0  0  0  0  0
    8.0270   -1.6080    0.0000 C   0  0  0  0  0  0  0  0  0  0  0  0
    9.3950   -0.9940    0.0000 O   0  0  0  0  0  0  0  0  0  0  0  0
    7.8740   -3.1000    0.0000 N   0  0  0  0  0  0  0  0  0  0  0  0
  1  2  1  0  0  0  0
  2  3  1  0  0  0  0
  2  8  2  0  0  0  0
  3  4  2  0  0  0  0
  4  5  1  0  0  0  0
  5  6  2  0  0  0  0
  6  7  1  0  0  0  0
  6  8  1  0  0  0  0
  8  9  1  0  0  0  0
  9 10  1  0  0  0  0
 10 11  1  0  0  0  0
 10 14  1  0  0  0  0
 11 12  2  0  0  0  0
 12 13  1  0  0  0  0
 13 14  2  0  0  0  0
 13 15  1  0  0  0  0
 15 16  2  0  0  0  0
 15 17  1  0  0  0  0
M  END
>  <Index>
963

>  <ID>
HT1856

>  <class>
0

>  <apol>
29.250343

>  <ast_fraglike>
1

>  <ast_fraglike_ext>
1

>  <ast_violation>
0

>  <ast_violation_ext>
0

>  <a_acc>
3

>  <a_acid>
0

>  <a_aro>
11

>  <a_base>
0

>  <a_count>
25

>  <a_don>
1

>  <a_donacc>
4

>  <a_heavy>
17

>  <a_hyd>
11

>  <a_IC>
48.877125

>  <a_ICM>
1.9550849

>  <a_nB>
0

>  <a_nBr>
0

>  <a_nC>
10

>  <a_nCl>
0

>  <a_nF>
2

>  <a_nH>
8

>  <a_nI>
0

>  <a_nN>
4

>  <a_nO>
1

>  <a_nP>
0

>  <a_nS>
0

>  <balabanJ>
1.8527496

>  <BCUT_PEOE_0>
-2.2907526

>  <BCUT_PEOE_1>
-0.6941793

>  <BCUT_PEOE_2>
0.65099704

>  <BCUT_PEOE_3>
2.3460138

>  <BCUT_SLOGP_0>
-2.4558225

>  <BCUT_SLOGP_1>
-0.47511175

>  <BCUT_SLOGP_2>
0.69279015

>  <BCUT_SLOGP_3>
2.4112868

>  <BCUT_SMR_0>
-2.0376179

>  <BCUT_SMR_1>
-0.4780201

>  <BCUT_SMR_2>
0.85428637

>  <BCUT_SMR_3>
2.5983727

>  <bpol>
13.429656

>  <b_1rotN>
3

>  <b_1rotR>
0.16666667

>  <b_ar>
11

>  <b_count>
26

>  <b_double>
1

>  <b_heavy>
18

>  <b_max1len>
2

>  <b_rotN>
3

>  <b_rotR>
0.16666667

>  <b_single>
14

>  <b_triple>
0

>  <chi0>
12.413849

>  <chi0v>
8.5996761

>  <chi0v_C>
5.5165076

>  <chi0_C>
6.4222851

>  <chi1>
8.075387

>  <chi1v>
4.7050428

>  <chi1v_C>
2.6362455

>  <chi1_C>
3.6329932

>  <chiral>
0

>  <chiral_u>
0

>  <density>
0.88218546

>  <diameter>
9

>  <FCharge>
0

>  <GCUT_PEOE_0>
-0.81553614

>  <GCUT_PEOE_1>
-0.45617875

>  <GCUT_PEOE_2>
0.05692175

>  <GCUT_PEOE_3>
2.2482126

>  <GCUT_SLOGP_0>
-1.3703208

>  <GCUT_SLOGP_1>
-0.28620026

>  <GCUT_SLOGP_2>
0.16288343

>  <GCUT_SLOGP_3>
2.296787

>  <GCUT_SMR_0>
-0.48244271

>  <GCUT_SMR_1>
-0.21566439

>  <GCUT_SMR_2>
0.19349518

>  <GCUT_SMR_3>
2.502439

>  <Kier1>
13.432098

>  <Kier2>
5.7600002

>  <Kier3>
3.2632675

>  <KierA1>
8.8148813

>  <KierA2>
3.6694229

>  <KierA3>
2.0298092

>  <KierFlex>
1.902678

>  <lip_acc>
5

>  <lip_don>
2

>  <lip_druglike>
1

>  <lip_violation>
0

>  <logP(o/w)>
0.22

>  <logS>
-1.99809

>  <mr>
5.7231355

>  <mutagenic>
0

>  <nmol>
1

>  <opr_brigid>
11

>  <opr_leadlike>
1

>  <opr_nring>
2

>  <opr_nrot>
3

>  <opr_violation>
0

>  <PC+>
0

>  <PC->
0

>  <PEOE_PC+>
1.5845389

>  <PEOE_PC->
-1.5845389

>  <PEOE_RPC+>
0.17113066

>  <PEOE_RPC->
0.23004399

>  <PEOE_VSA+0>
2.2085397

>  <PEOE_VSA+1>
55.530556

>  <PEOE_VSA+2>
18.041691

>  <PEOE_VSA+3>
23.937576

>  <PEOE_VSA+4>
0

>  <PEOE_VSA+5>
12.949531

>  <PEOE_VSA+6>
0

>  <PEOE_VSA-0>
24.509808

>  <PEOE_VSA-1>
25.414408

>  <PEOE_VSA-2>
9.4210396

>  <PEOE_VSA-3>
0

>  <PEOE_VSA-4>
23.817272

>  <PEOE_VSA-5>
13.566921

>  <PEOE_VSA-6>
6.6511192

>  <PEOE_VSA_FHYD>
0.73624045

>  <PEOE_VSA_FNEG>
0.47850639

>  <PEOE_VSA_FPNEG>
0.20382145

>  <PEOE_VSA_FPOL>
0.26375955

>  <PEOE_VSA_FPOS>
0.52149361

>  <PEOE_VSA_FPPOS>
0.059938084

>  <PEOE_VSA_HYD>
159.06361

>  <PEOE_VSA_NEG>
103.38057

>  <PEOE_VSA_PNEG>
44.035313

>  <PEOE_VSA_POL>
56.984844

>  <PEOE_VSA_POS>
112.66789

>  <PEOE_VSA_PPOS>
12.949531

>  <petitjean>
0.44444445

>  <petitjeanSC>
0.80000001

>  <Q_PC+>
0

>  <Q_PC->
0

>  <Q_RPC+>
0

>  <Q_RPC->
0

>  <Q_VSA_FHYD>
1

>  <Q_VSA_FNEG>
0

>  <Q_VSA_FPNEG>
0

>  <Q_VSA_FPOL>
0

>  <Q_VSA_FPOS>
1

>  <Q_VSA_FPPOS>
0

>  <Q_VSA_HYD>
216.04846

>  <Q_VSA_NEG>
0

>  <Q_VSA_PNEG>
0

>  <Q_VSA_POL>
0

>  <Q_VSA_POS>
216.04846

>  <Q_VSA_PPOS>
0

>  <radius>
5

>  <reactive>
0

>  <rings>
2

>  <RPC+>
0

>  <RPC->
0

>  <rsynth>
1

>  <SlogP>
0.96990001

>  <SlogP_VSA0>
32.897186

>  <SlogP_VSA1>
40.238846

>  <SlogP_VSA2>
18.242037

>  <SlogP_VSA3>
0

>  <SlogP_VSA4>
29.804539

>  <SlogP_VSA5>
0

>  <SlogP_VSA6>
0

>  <SlogP_VSA7>
70.143913

>  <SlogP_VSA8>
0

>  <SlogP_VSA9>
48.359806

>  <SMR>
5.4204898

>  <SMR_VSA0>
23.862217

>  <SMR_VSA1>
64.900291

>  <SMR_VSA2>
18.242037

>  <SMR_VSA3>
5.9423227

>  <SMR_VSA4>
32.897186

>  <SMR_VSA5>
88.583488

>  <SMR_VSA6>
5.2587838

>  <SMR_VSA7>
0

>  <TPSA>
73.800003

>  <VAdjEq>
0.54234898

>  <VAdjMa>
5.1699252

>  <VDistEq>
2.9921749

>  <VDistMa>
7.8642588

>  <vdw_area>
216.04846

>  <vdw_vol>
270.00784

>  <vsa_acc>
36.147465

>  <vsa_acid>
0

>  <vsa_base>
0

>  <vsa_don>
17.742489

>  <vsa_hyd>
138.79155

>  <vsa_other>
12.949531

>  <vsa_pol>
53.889954

>  <Weight>
238.19699

>  <weinerPath>
537

>  <weinerPol>
23

>  <zagreb>
86

$$$$