O=C1NC(=NC=2NC[C@@H](NC1=2)[C@@H](O)[C@@H](O)C)N
  MOE2013           2D

 17 18  0  0  1  0  0  0  0  0999 V2000
    0.0000    0.0000    0.0000 O   0  0  0  0  0  0  0  0  0  0  0  0
   -0.0130   -1.5000    0.0000 C   0  0  0  0  0  0  0  0  0  0  0  0
   -1.3180   -2.2390    0.0000 N   0  0  0  0  0  0  0  0  0  0  0  0
   -1.3310   -3.7390    0.0000 C   0  0  0  0  0  0  0  0  0  0  0  0
   -0.0390   -4.5000    0.0000 N   0  0  0  0  0  0  0  0  0  0  0  0
    1.2670   -3.7610    0.0000 C   0  0  0  0  0  0  0  0  0  0  0  0
    2.5590   -4.5220    0.0000 N   0  0  0  0  0  0  0  0  0  0  0  0
    3.8650   -3.7840    0.0000 C   0  0  0  0  0  0  0  0  0  0  0  0
    3.8780   -2.2840    0.0000 C   0  0  1  0  0  0  0  0  0  0  0  0
    2.5850   -1.5220    0.0000 N   0  0  0  0  0  0  0  0  0  0  0  0
    1.2800   -2.2610    0.0000 C   0  0  0  0  0  0  0  0  0  0  0  0
    5.1830   -1.5450    0.0000 C   0  0  1  0  0  0  0  0  0  0  0  0
    5.1960   -0.0450    0.0000 O   0  0  0  0  0  0  0  0  0  0  0  0
    6.4760   -2.3060    0.0000 C   0  0  1  0  0  0  0  0  0  0  0  0
    7.7810   -1.5670    0.0000 O   0  0  0  0  0  0  0  0  0  0  0  0
    6.4630   -3.8060    0.0000 C   0  0  0  0  0  0  0  0  0  0  0  0
   -2.6370   -4.4770    0.0000 N   0  0  0  0  0  0  0  0  0  0  0  0
  1  2  2  0  0  0  0
  2  3  1  0  0  0  0
  2 11  1  0  0  0  0
  3  4  1  0  0  0  0
  4  5  2  0  0  0  0
  4 17  1  0  0  0  0
  5  6  1  0  0  0  0
  6  7  1  0  0  0  0
  6 11  2  0  0  0  0
  7  8  1  0  0  0  0
  9  8  1  1  0  0  0
  9 10  1  0  0  0  0
  9 12  1  0  0  0  0
 10 11  1  0  0  0  0
 12 13  1  1  0  0  0
 12 14  1  0  0  0  0
 14 15  1  0  0  0  0
 14 16  1  1  0  0  0
M  END
>  <Index>
970

>  <ID>
HT1867

>  <class>
0

>  <apol>
33.747894

>  <ast_fraglike>
0

>  <ast_fraglike_ext>
0

>  <ast_violation>
2

>  <ast_violation_ext>
3

>  <a_acc>
4

>  <a_acid>
0

>  <a_aro>
0

>  <a_base>
0

>  <a_count>
32

>  <a_don>
6

>  <a_donacc>
10

>  <a_heavy>
17

>  <a_hyd>
6

>  <a_IC>
56.502789

>  <a_ICM>
1.7657121

>  <a_nB>
0

>  <a_nBr>
0

>  <a_nC>
9

>  <a_nCl>
0

>  <a_nF>
0

>  <a_nH>
15

>  <a_nI>
0

>  <a_nN>
5

>  <a_nO>
3

>  <a_nP>
0

>  <a_nS>
0

>  <balabanJ>
1.9893526

>  <BCUT_PEOE_0>
-2.6884048

>  <BCUT_PEOE_1>
-0.6147508

>  <BCUT_PEOE_2>
0.64256853

>  <BCUT_PEOE_3>
2.6892276

>  <BCUT_SLOGP_0>
-2.9020476

>  <BCUT_SLOGP_1>
-0.64309782

>  <BCUT_SLOGP_2>
0.57312155

>  <BCUT_SLOGP_3>
2.5243618

>  <BCUT_SMR_0>
-2.4454374

>  <BCUT_SMR_1>
-0.4568598

>  <BCUT_SMR_2>
0.77032954

>  <BCUT_SMR_3>
2.9244511

>  <bpol>
19.996105

>  <b_1rotN>
2

>  <b_1rotR>
0.11111111

>  <b_ar>
0

>  <b_count>
33

>  <b_double>
3

>  <b_heavy>
18

>  <b_max1len>
5

>  <b_rotN>
2

>  <b_rotR>
0.11111111

>  <b_single>
30

>  <b_triple>
0

>  <chi0>
12.576985

>  <chi0v>
9.2663965

>  <chi0v_C>
5.4391575

>  <chi0_C>
5.7485585

>  <chi1>
7.9860711

>  <chi1v>
5.2509046

>  <chi1v_C>
2.1522653

>  <chi1_C>
2.3189318

>  <chiral>
3

>  <chiral_u>
0

>  <density>
0.82826513

>  <diameter>
9

>  <FCharge>
0

>  <GCUT_PEOE_0>
-0.82752216

>  <GCUT_PEOE_1>
-0.43643343

>  <GCUT_PEOE_2>
0.11902986

>  <GCUT_PEOE_3>
2.5533185

>  <GCUT_SLOGP_0>
-1.3711462

>  <GCUT_SLOGP_1>
-0.47848916

>  <GCUT_SLOGP_2>
0.10281164

>  <GCUT_SLOGP_3>
2.4222236

>  <GCUT_SMR_0>
-0.52588755

>  <GCUT_SMR_1>
-0.24148194

>  <GCUT_SMR_2>
0.1878676

>  <GCUT_SMR_3>
2.7906337

>  <Kier1>
13.432098

>  <Kier2>
5.3254437

>  <Kier3>
2.8797061

>  <KierA1>
9.977025

>  <KierA2>
3.8753569

>  <KierA3>
2.0614674

>  <KierFlex>
2.2743843

>  <lip_acc>
8

>  <lip_don>
7

>  <lip_druglike>
1

>  <lip_violation>
1

>  <logP(o/w)>
-1.99

>  <logS>
-0.63897002

>  <mr>
5.7301836

>  <mutagenic>
0

>  <nmol>
1

>  <opr_brigid>
11

>  <opr_leadlike>
1

>  <opr_nring>
2

>  <opr_nrot>
3

>  <opr_violation>
1

>  <PC+>
0

>  <PC->
0

>  <PEOE_PC+>
2.4858301

>  <PEOE_PC->
-2.4858301

>  <PEOE_RPC+>
0.10953489

>  <PEOE_RPC->
0.1566714

>  <PEOE_VSA+0>
34.519257

>  <PEOE_VSA+1>
25.751976

>  <PEOE_VSA+2>
35.128139

>  <PEOE_VSA+3>
25.857038

>  <PEOE_VSA+4>
36.329918

>  <PEOE_VSA+5>
12.949531

>  <PEOE_VSA+6>
0

>  <PEOE_VSA-0>
18.747677

>  <PEOE_VSA-1>
0

>  <PEOE_VSA-2>
0

>  <PEOE_VSA-3>
0

>  <PEOE_VSA-4>
5.6825762

>  <PEOE_VSA-5>
13.977593

>  <PEOE_VSA-6>
22.186199

>  <PEOE_VSA_FHYD>
0.60573763

>  <PEOE_VSA_FNEG>
0.26216447

>  <PEOE_VSA_FPNEG>
0.1810513

>  <PEOE_VSA_FPOL>
0.39426234

>  <PEOE_VSA_FPOS>
0.73783553

>  <PEOE_VSA_FPPOS>
0.21321104

>  <PEOE_VSA_HYD>
140.00409

>  <PEOE_VSA_NEG>
60.594048

>  <PEOE_VSA_PNEG>
41.846371

>  <PEOE_VSA_POL>
91.125824

>  <PEOE_VSA_POS>
170.53586

>  <PEOE_VSA_PPOS>
49.279449

>  <petitjean>
0.44444445

>  <petitjeanSC>
0.80000001

>  <Q_PC+>
0

>  <Q_PC->
0

>  <Q_RPC+>
0

>  <Q_RPC->
0

>  <Q_VSA_FHYD>
1

>  <Q_VSA_FNEG>
0

>  <Q_VSA_FPNEG>
0

>  <Q_VSA_FPOL>
0

>  <Q_VSA_FPOS>
1

>  <Q_VSA_FPPOS>
0

>  <Q_VSA_HYD>
231.12991

>  <Q_VSA_NEG>
0

>  <Q_VSA_PNEG>
0

>  <Q_VSA_POL>
0

>  <Q_VSA_POS>
231.12991

>  <Q_VSA_PPOS>
0

>  <radius>
5

>  <reactive>
0

>  <rings>
2

>  <RPC+>
0

>  <RPC->
0

>  <rsynth>
0.23529412

>  <SlogP>
-3.0969

>  <SlogP_VSA0>
137.69989

>  <SlogP_VSA1>
7.1578765

>  <SlogP_VSA2>
40.781483

>  <SlogP_VSA3>
18.439579

>  <SlogP_VSA4>
0

>  <SlogP_VSA5>
21.870197

>  <SlogP_VSA6>
0

>  <SlogP_VSA7>
0

>  <SlogP_VSA8>
0

>  <SlogP_VSA9>
33.326015

>  <SMR>
5.9405098

>  <SMR_VSA0>
23.862217

>  <SMR_VSA1>
67.555984

>  <SMR_VSA2>
54.032253

>  <SMR_VSA3>
22.003935

>  <SMR_VSA4>
32.897186

>  <SMR_VSA5>
0

>  <SMR_VSA6>
25.597454

>  <SMR_VSA7>
33.326015

>  <TPSA>
132

>  <VAdjEq>
0.54234898

>  <VAdjMa>
5.1699252

>  <VDistEq>
2.9013715

>  <VDistMa>
7.8777251

>  <vdw_area>
231.12991

>  <vdw_vol>
291.27267

>  <vsa_acc>
19.249496

>  <vsa_acid>
0

>  <vsa_base>
0

>  <vsa_don>
34.790218

>  <vsa_hyd>
80.024094

>  <vsa_other>
39.821667

>  <vsa_pol>
81.173553

>  <Weight>
241.25099

>  <weinerPath>
504

>  <weinerPol>
27

>  <zagreb>
88

$$$$