Brc1cc(F)c(cc1)CN1C(=O)[C@@]2(n3c(ccc3)C1=O)CC(=O)NC2=O
  MOE2013           2D

 26 29  0  0  1  0  0  0  0  0999 V2000
    0.0000    0.0000    0.0000 Br  0  0  0  0  0  0  0  0  0  0  0  0
   -1.3000   -0.7480    0.0000 C   0  0  0  0  0  0  0  0  0  0  0  0
   -1.3030   -2.2480    0.0000 C   0  0  0  0  0  0  0  0  0  0  0  0
   -2.6040   -2.9950    0.0000 C   0  0  0  0  0  0  0  0  0  0  0  0
   -2.6070   -4.4950    0.0000 F   0  0  0  0  0  0  0  0  0  0  0  0
   -3.9010   -2.2430    0.0000 C   0  0  0  0  0  0  0  0  0  0  0  0
   -3.8990   -0.7430    0.0000 C   0  0  0  0  0  0  0  0  0  0  0  0
   -2.5980    0.0050    0.0000 C   0  0  0  0  0  0  0  0  0  0  0  0
   -5.2020   -2.9900    0.0000 C   0  0  0  0  0  0  0  0  0  0  0  0
   -6.4990   -2.2380    0.0000 N   0  0  0  0  0  0  0  0  0  0  0  0
   -7.8000   -2.9850    0.0000 C   0  0  0  0  0  0  0  0  0  0  0  0
   -7.2900   -4.3960    0.0000 O   0  0  0  0  0  0  0  0  0  0  0  0
   -9.0980   -2.2330    0.0000 C   0  0  1  0  0  0  0  0  0  0  0  0
   -9.0950   -0.7330    0.0000 N   0  0  0  0  0  0  0  0  0  0  0  0
   -7.7940    0.0150    0.0000 C   0  0  0  0  0  0  0  0  0  0  0  0
   -8.1030    1.4830    0.0000 C   0  0  0  0  0  0  0  0  0  0  0  0
   -9.5950    1.6420    0.0000 C   0  0  0  0  0  0  0  0  0  0  0  0
  -10.2070    0.2730    0.0000 C   0  0  0  0  0  0  0  0  0  0  0  0
   -6.4970   -0.7380    0.0000 C   0  0  0  0  0  0  0  0  0  0  0  0
   -5.1960    0.0100    0.0000 O   0  0  0  0  0  0  0  0  0  0  0  0
  -10.5390   -1.8160    0.0000 C   0  0  0  0  0  0  0  0  0  0  0  0
  -11.3800   -3.0580    0.0000 C   0  0  0  0  0  0  0  0  0  0  0  0
  -12.8790   -3.1080    0.0000 O   0  0  0  0  0  0  0  0  0  0  0  0
  -10.4590   -4.2420    0.0000 N   0  0  0  0  0  0  0  0  0  0  0  0
   -9.0480   -3.7320    0.0000 C   0  0  0  0  0  0  0  0  0  0  0  0
   -8.1690   -4.9470    0.0000 O   0  0  0  0  0  0  0  0  0  0  0  0
  1  2  1  0  0  0  0
  2  3  1  0  0  0  0
  2  8  2  0  0  0  0
  3  4  2  0  0  0  0
  4  5  1  0  0  0  0
  4  6  1  0  0  0  0
  6  7  2  0  0  0  0
  6  9  1  0  0  0  0
  7  8  1  0  0  0  0
  9 10  1  0  0  0  0
 10 11  1  0  0  0  0
 10 19  1  0  0  0  0
 11 12  2  0  0  0  0
 11 13  1  0  0  0  0
 13 14  1  0  0  0  0
 13 21  1  6  0  0  0
 13 25  1  1  0  0  0
 14 15  1  0  0  0  0
 14 18  1  0  0  0  0
 15 16  2  0  0  0  0
 15 19  1  0  0  0  0
 16 17  1  0  0  0  0
 17 18  2  0  0  0  0
 19 20  2  0  0  0  0
 21 22  1  0  0  0  0
 22 23  2  0  0  0  0
 22 24  1  0  0  0  0
 24 25  1  0  0  0  0
 25 26  2  0  0  0  0
M  END
>  <Index>
930

>  <ID>
HT1799

>  <class>
0

>  <apol>
47.369724

>  <ast_fraglike>
0

>  <ast_fraglike_ext>
0

>  <ast_violation>
2

>  <ast_violation_ext>
2

>  <a_acc>
4

>  <a_acid>
0

>  <a_aro>
11

>  <a_base>
0

>  <a_count>
37

>  <a_don>
1

>  <a_donacc>
5

>  <a_heavy>
26

>  <a_hyd>
15

>  <a_IC>
72.454269

>  <a_ICM>
1.9582236

>  <a_nB>
0

>  <a_nBr>
1

>  <a_nC>
17

>  <a_nCl>
0

>  <a_nF>
1

>  <a_nH>
11

>  <a_nI>
0

>  <a_nN>
3

>  <a_nO>
4

>  <a_nP>
0

>  <a_nS>
0

>  <balabanJ>
1.6059662

>  <BCUT_PEOE_0>
-2.4973183

>  <BCUT_PEOE_1>
-0.64768702

>  <BCUT_PEOE_2>
0.66693956

>  <BCUT_PEOE_3>
2.7243221

>  <BCUT_SLOGP_0>
-2.6064377

>  <BCUT_SLOGP_1>
-0.50878584

>  <BCUT_SLOGP_2>
0.84146655

>  <BCUT_SLOGP_3>
2.6127729

>  <BCUT_SMR_0>
-2.2488375

>  <BCUT_SMR_1>
-0.45441607

>  <BCUT_SMR_2>
0.8689335

>  <BCUT_SMR_3>
2.9500942

>  <bpol>
22.970278

>  <b_1rotN>
2

>  <b_1rotR>
0.068965517

>  <b_ar>
11

>  <b_count>
40

>  <b_double>
4

>  <b_heavy>
29

>  <b_max1len>
2

>  <b_rotN>
2

>  <b_rotR>
0.068965517

>  <b_single>
25

>  <b_triple>
0

>  <chi0>
18.637465

>  <chi0v>
14.747661

>  <chi0v_C>
9.378315

>  <chi0_C>
10.775657

>  <chi1>
12.341078

>  <chi1v>
8.4603491

>  <chi1v_C>
4.5040359

>  <chi1_C>
5.9553084

>  <chiral>
1

>  <chiral_u>
0

>  <density>
0.97034144

>  <diameter>
11

>  <FCharge>
0

>  <GCUT_PEOE_0>
-0.83356905

>  <GCUT_PEOE_1>
-0.44803551

>  <GCUT_PEOE_2>
0.058668301

>  <GCUT_PEOE_3>
2.7114112

>  <GCUT_SLOGP_0>
-1.1741315

>  <GCUT_SLOGP_1>
-0.3327949

>  <GCUT_SLOGP_2>
0.20460691

>  <GCUT_SLOGP_3>
2.6854129

>  <GCUT_SMR_0>
-0.48907828

>  <GCUT_SMR_1>
-0.21586163

>  <GCUT_SMR_2>
0.29820755

>  <GCUT_SMR_3>
2.9682167

>  <Kier1>
19.322235

>  <Kier2>
7.1111112

>  <Kier3>
3.0413222

>  <KierA1>
14.541295

>  <KierA2>
5.2862358

>  <KierA3>
2.2410305

>  <KierFlex>
2.9564891

>  <lip_acc>
7

>  <lip_don>
1

>  <lip_druglike>
1

>  <lip_violation>
0

>  <logP(o/w)>
1.862

>  <logS>
-4.19523

>  <mr>
9.2906179

>  <mutagenic>
0

>  <nmol>
1

>  <opr_brigid>
21

>  <opr_leadlike>
1

>  <opr_nring>
4

>  <opr_nrot>
2

>  <opr_violation>
0

>  <PC+>
0

>  <PC->
0

>  <PEOE_PC+>
2.4052606

>  <PEOE_PC->
-2.4052606

>  <PEOE_RPC+>
0.11548949

>  <PEOE_RPC->
0.13308889

>  <PEOE_VSA+0>
29.737434

>  <PEOE_VSA+1>
56.016727

>  <PEOE_VSA+2>
15.720397

>  <PEOE_VSA+3>
8.6190128

>  <PEOE_VSA+4>
12.949531

>  <PEOE_VSA+5>
38.848595

>  <PEOE_VSA+6>
0

>  <PEOE_VSA-0>
49.019615

>  <PEOE_VSA-1>
55.879753

>  <PEOE_VSA-2>
0

>  <PEOE_VSA-3>
0

>  <PEOE_VSA-4>
11.908636

>  <PEOE_VSA-5>
54.404575

>  <PEOE_VSA-6>
0

>  <PEOE_VSA_FHYD>
0.64542234

>  <PEOE_VSA_FNEG>
0.51399094

>  <PEOE_VSA_FPNEG>
0.19907643

>  <PEOE_VSA_FPOL>
0.35457766

>  <PEOE_VSA_FPOS>
0.48600906

>  <PEOE_VSA_FPPOS>
0.15550123

>  <PEOE_VSA_HYD>
214.99294

>  <PEOE_VSA_NEG>
171.21259

>  <PEOE_VSA_PNEG>
66.31321

>  <PEOE_VSA_POL>
118.11134

>  <PEOE_VSA_POS>
161.89169

>  <PEOE_VSA_PPOS>
51.798122

>  <petitjean>
0.45454547

>  <petitjeanSC>
0.83333331

>  <Q_PC+>
0

>  <Q_PC->
0

>  <Q_RPC+>
0

>  <Q_RPC->
0

>  <Q_VSA_FHYD>
1

>  <Q_VSA_FNEG>
0

>  <Q_VSA_FPNEG>
0

>  <Q_VSA_FPOL>
0

>  <Q_VSA_FPOS>
1

>  <Q_VSA_FPPOS>
0

>  <Q_VSA_HYD>
333.10428

>  <Q_VSA_NEG>
0

>  <Q_VSA_PNEG>
0

>  <Q_VSA_POL>
0

>  <Q_VSA_POS>
333.10428

>  <Q_VSA_PPOS>
0

>  <radius>
6

>  <reactive>
0

>  <rings>
4

>  <RPC+>
0

>  <RPC->
0

>  <rsynth>
1

>  <SlogP>
1.892

>  <SlogP_VSA0>
18.01075

>  <SlogP_VSA1>
26.05854

>  <SlogP_VSA2>
80.707664

>  <SlogP_VSA3>
0

>  <SlogP_VSA4>
29.804539

>  <SlogP_VSA5>
3.0551045

>  <SlogP_VSA6>
0

>  <SlogP_VSA7>
105.43027

>  <SlogP_VSA8>
18.868406

>  <SlogP_VSA9>
79.353783

>  <SMR>
8.9475203

>  <SMR_VSA0>
95.448868

>  <SMR_VSA1>
19.983521

>  <SMR_VSA2>
30.186872

>  <SMR_VSA3>
5.9423227

>  <SMR_VSA4>
0

>  <SMR_VSA5>
142.73827

>  <SMR_VSA6>
21.035135

>  <SMR_VSA7>
45.954094

>  <TPSA>
88.480003

>  <VAdjEq>
0.42228913

>  <VAdjMa>
5.8579812

>  <VDistEq>
3.1743417

>  <VDistMa>
9.1427879

>  <vdw_area>
333.10428

>  <vdw_vol>
433.03726

>  <vsa_acc>
54.267685

>  <vsa_acid>
0

>  <vsa_base>
0

>  <vsa_don>
5.6825762

>  <vsa_hyd>
211.16461

>  <vsa_other>
51.798122

>  <vsa_pol>
59.95026

>  <Weight>
420.194

>  <weinerPath>
1478

>  <weinerPol>
50

>  <zagreb>
148

$$$$