O=C1NC(=O)NC(=O)C1(C(CCC)C)CC=C
  MOE2013           2D

 17 17  0  0  1  0  0  0  0  0999 V2000
    0.0000    0.0000    0.0000 O   0  0  0  0  0  0  0  0  0  0  0  0
    1.3010    0.7470    0.0000 C   0  0  0  0  0  0  0  0  0  0  0  0
    2.5980   -0.0070    0.0000 N   0  0  0  0  0  0  0  0  0  0  0  0
    3.8990    0.7400    0.0000 C   0  0  0  0  0  0  0  0  0  0  0  0
    5.1960   -0.0130    0.0000 O   0  0  0  0  0  0  0  0  0  0  0  0
    3.9030    2.2400    0.0000 N   0  0  0  0  0  0  0  0  0  0  0  0
    2.6060    2.9930    0.0000 C   0  0  0  0  0  0  0  0  0  0  0  0
    2.6090    4.4930    0.0000 O   0  0  0  0  0  0  0  0  0  0  0  0
    1.3050    2.2470    0.0000 C   0  0  0  0  0  0  0  0  0  0  0  0
   -0.1950    2.2510    0.0000 C   0  0  3  0  0  0  0  0  0  0  0  0
   -0.9490    0.9530    0.0000 C   0  0  0  0  0  0  0  0  0  0  0  0
   -2.4490    0.9570    0.0000 C   0  0  0  0  0  0  0  0  0  0  0  0
   -3.2020   -0.3400    0.0000 C   0  0  0  0  0  0  0  0  0  0  0  0
   -0.9420    3.5510    0.0000 C   0  0  0  0  0  0  0  0  0  0  0  0
    0.5580    3.5480    0.0000 C   0  0  0  0  0  0  0  0  0  0  0  0
    1.3110    4.8450    0.0000 C   0  0  0  0  0  0  0  0  0  0  0  0
    0.5650    6.1460    0.0000 C   0  0  0  0  0  0  0  0  0  0  0  0
  1  2  2  0  0  0  0
  2  3  1  0  0  0  0
  2  9  1  0  0  0  0
  3  4  1  0  0  0  0
  4  5  2  0  0  0  0
  4  6  1  0  0  0  0
  6  7  1  0  0  0  0
  7  8  2  0  0  0  0
  7  9  1  0  0  0  0
  9 10  1  0  0  0  0
  9 15  1  0  0  0  0
 10 11  1  0  0  0  0
 10 14  1  0  0  0  0
 11 12  1  0  0  0  0
 12 13  1  0  0  0  0
 15 16  1  0  0  0  0
 16 17  2  0  0  0  0
M  END
>  <Index>
973

>  <ID>
HT1873

>  <class>
0

>  <apol>
37.728275

>  <ast_fraglike>
1

>  <ast_fraglike_ext>
0

>  <ast_violation>
0

>  <ast_violation_ext>
1

>  <a_acc>
3

>  <a_acid>
0

>  <a_aro>
0

>  <a_base>
0

>  <a_count>
35

>  <a_don>
2

>  <a_donacc>
5

>  <a_heavy>
17

>  <a_hyd>
9

>  <a_IC>
54.691818

>  <a_ICM>
1.5626234

>  <a_nB>
0

>  <a_nBr>
0

>  <a_nC>
12

>  <a_nCl>
0

>  <a_nF>
0

>  <a_nH>
18

>  <a_nI>
0

>  <a_nN>
2

>  <a_nO>
3

>  <a_nP>
0

>  <a_nS>
0

>  <balabanJ>
2.9531031

>  <BCUT_PEOE_0>
-2.7181702

>  <BCUT_PEOE_1>
-0.52218437

>  <BCUT_PEOE_2>
0.46413714

>  <BCUT_PEOE_3>
2.7619309

>  <BCUT_SLOGP_0>
-2.8167326

>  <BCUT_SLOGP_1>
-0.45794946

>  <BCUT_SLOGP_2>
0.51810694

>  <BCUT_SLOGP_3>
2.780694

>  <BCUT_SMR_0>
-2.4840128

>  <BCUT_SMR_1>
-0.31531173

>  <BCUT_SMR_2>
0.58398992

>  <BCUT_SMR_3>
2.9926615

>  <bpol>
23.871725

>  <b_1rotN>
5

>  <b_1rotR>
0.29411766

>  <b_ar>
0

>  <b_count>
35

>  <b_double>
4

>  <b_heavy>
17

>  <b_max1len>
8

>  <b_rotN>
5

>  <b_rotR>
0.29411766

>  <b_single>
31

>  <b_triple>
0

>  <chi0>
13.052042

>  <chi0v>
10.207872

>  <chi0v_C>
7.9831276

>  <chi0_C>
8.6378279

>  <chi1>
7.9844351

>  <chi1v>
5.763803

>  <chi1v_C>
4.1514306

>  <chi1_C>
4.619391

>  <chiral>
1

>  <chiral_u>
1

>  <density>
0.7369113

>  <diameter>
8

>  <FCharge>
0

>  <GCUT_PEOE_0>
-0.79479033

>  <GCUT_PEOE_1>
-0.44070053

>  <GCUT_PEOE_2>
0.088610202

>  <GCUT_PEOE_3>
2.6991408

>  <GCUT_SLOGP_0>
-1.1839163

>  <GCUT_SLOGP_1>
-0.32327604

>  <GCUT_SLOGP_2>
0.091867693

>  <GCUT_SLOGP_3>
2.6986403

>  <GCUT_SMR_0>
-0.53239864

>  <GCUT_SMR_1>
-0.21699049

>  <GCUT_SMR_2>
0.16090421

>  <GCUT_SMR_3>
2.9231017

>  <Kier1>
15.058824

>  <Kier2>
6.25

>  <Kier3>
2.8797061

>  <KierA1>
11.276384

>  <KierA2>
4.5878906

>  <KierA3>
2.0804636

>  <KierFlex>
3.0432246

>  <lip_acc>
5

>  <lip_don>
2

>  <lip_druglike>
1

>  <lip_violation>
0

>  <logP(o/w)>
1.9220001

>  <logS>
-3.55197

>  <mr>
6.4524984

>  <mutagenic>
0

>  <nmol>
1

>  <opr_brigid>
7

>  <opr_leadlike>
1

>  <opr_nring>
1

>  <opr_nrot>
5

>  <opr_violation>
0

>  <PC+>
0

>  <PC->
0

>  <PEOE_PC+>
1.801343

>  <PEOE_PC->
-1.801343

>  <PEOE_RPC+>
0.18264465

>  <PEOE_RPC->
0.15417702

>  <PEOE_VSA+0>
55.45002

>  <PEOE_VSA+1>
12.796158

>  <PEOE_VSA+2>
0

>  <PEOE_VSA+3>
17.238026

>  <PEOE_VSA+4>
25.899061

>  <PEOE_VSA+5>
0

>  <PEOE_VSA+6>
17.440542

>  <PEOE_VSA-0>
17.402626

>  <PEOE_VSA-1>
58.451572

>  <PEOE_VSA-2>
22.301268

>  <PEOE_VSA-3>
0

>  <PEOE_VSA-4>
13.566921

>  <PEOE_VSA-5>
27.407623

>  <PEOE_VSA-6>
0

>  <PEOE_VSA_FHYD>
0.68534076

>  <PEOE_VSA_FNEG>
0.51923132

>  <PEOE_VSA_FPNEG>
0.15291645

>  <PEOE_VSA_FPOL>
0.31465927

>  <PEOE_VSA_FPOS>
0.48076868

>  <PEOE_VSA_FPPOS>
0.16174281

>  <PEOE_VSA_HYD>
183.63966

>  <PEOE_VSA_NEG>
139.13

>  <PEOE_VSA_PNEG>
40.974545

>  <PEOE_VSA_POL>
84.314148

>  <PEOE_VSA_POS>
128.82381

>  <PEOE_VSA_PPOS>
43.339603

>  <petitjean>
0.5

>  <petitjeanSC>
1

>  <Q_PC+>
0

>  <Q_PC->
0

>  <Q_RPC+>
0

>  <Q_RPC->
0

>  <Q_VSA_FHYD>
1

>  <Q_VSA_FNEG>
0

>  <Q_VSA_FPNEG>
0

>  <Q_VSA_FPOL>
0

>  <Q_VSA_FPOS>
1

>  <Q_VSA_FPPOS>
0

>  <Q_VSA_HYD>
267.95383

>  <Q_VSA_NEG>
0

>  <Q_VSA_PNEG>
0

>  <Q_VSA_POL>
0

>  <Q_VSA_POS>
267.95383

>  <Q_VSA_PPOS>
0

>  <radius>
4

>  <reactive>
0

>  <rings>
1

>  <RPC+>
0

>  <RPC->
0

>  <rsynth>
1

>  <SlogP>
1.3511

>  <SlogP_VSA0>
36.0215

>  <SlogP_VSA1>
15.347524

>  <SlogP_VSA2>
47.724434

>  <SlogP_VSA3>
0

>  <SlogP_VSA4>
4.4107962

>  <SlogP_VSA5>
0

>  <SlogP_VSA6>
0

>  <SlogP_VSA7>
17.643185

>  <SlogP_VSA8>
56.605217

>  <SlogP_VSA9>
122.61504

>  <SMR>
6.3000398

>  <SMR_VSA0>
71.586647

>  <SMR_VSA1>
0

>  <SMR_VSA2>
40.432297

>  <SMR_VSA3>
0

>  <SMR_VSA4>
0

>  <SMR_VSA5>
74.248398

>  <SMR_VSA6>
15.347524

>  <SMR_VSA7>
98.752823

>  <TPSA>
75.269997

>  <VAdjEq>
0.52255934

>  <VAdjMa>
5.0874629

>  <VDistEq>
2.6705234

>  <VDistMa>
7.924077

>  <vdw_area>
267.95383

>  <vdw_vol>
323.35913

>  <vsa_acc>
40.700764

>  <vsa_acid>
0

>  <vsa_base>
0

>  <vsa_don>
11.365152

>  <vsa_hyd>
153.66786

>  <vsa_other>
43.339603

>  <vsa_pol>
52.065914

>  <Weight>
238.28699

>  <weinerPath>
472

>  <weinerPol>
30

>  <zagreb>
82

$$$$