S1c2c(cccc2)C(=Nc2c1cccc2)N1CCN(CC1)CCOCCO
  MOE2013           2D

 27 30  0  0  0  0  0  0  0  0999 V2000
    0.0000    0.0000    0.0000 S   0  0  0  0  0  0  0  0  0  0  0  0
    0.8690   -1.2220    0.0000 C   0  0  0  0  0  0  0  0  0  0  0  0
    2.3670   -1.3060    0.0000 C   0  0  0  0  0  0  0  0  0  0  0  0
    3.0440   -2.6450    0.0000 C   0  0  0  0  0  0  0  0  0  0  0  0
    2.2220   -3.9000    0.0000 C   0  0  0  0  0  0  0  0  0  0  0  0
    0.7250   -3.8170    0.0000 C   0  0  0  0  0  0  0  0  0  0  0  0
    0.0480   -2.4780    0.0000 C   0  0  0  0  0  0  0  0  0  0  0  0
    3.3660   -0.1870    0.0000 C   0  0  0  0  0  0  0  0  0  0  0  0
    3.1160    1.2910    0.0000 N   0  0  0  0  0  0  0  0  0  0  0  0
    1.8010    2.0160    0.0000 C   0  0  0  0  0  0  0  0  0  0  0  0
    0.4160    1.4410    0.0000 C   0  0  0  0  0  0  0  0  0  0  0  0
   -0.7750    2.3540    0.0000 C   0  0  0  0  0  0  0  0  0  0  0  0
   -0.5790    3.8410    0.0000 C   0  0  0  0  0  0  0  0  0  0  0  0
    0.8070    4.4160    0.0000 C   0  0  0  0  0  0  0  0  0  0  0  0
    1.9970    3.5030    0.0000 C   0  0  0  0  0  0  0  0  0  0  0  0
    4.8080   -0.6030    0.0000 N   0  0  0  0  0  0  0  0  0  0  0  0
    5.1680   -2.0590    0.0000 C   0  0  0  0  0  0  0  0  0  0  0  0
    6.6100   -2.4750    0.0000 C   0  0  0  0  0  0  0  0  0  0  0  0
    7.6900   -1.4340    0.0000 N   0  0  0  0  0  0  0  0  0  0  0  0
    7.3300    0.0220    0.0000 C   0  0  0  0  0  0  0  0  0  0  0  0
    5.8880    0.4370    0.0000 C   0  0  0  0  0  0  0  0  0  0  0  0
    9.1310   -1.8500    0.0000 C   0  0  0  0  0  0  0  0  0  0  0  0
   10.2120   -0.8100    0.0000 C   0  0  0  0  0  0  0  0  0  0  0  0
   11.6530   -1.2250    0.0000 O   0  0  0  0  0  0  0  0  0  0  0  0
   12.7340   -0.1850    0.0000 C   0  0  0  0  0  0  0  0  0  0  0  0
   14.1750   -0.6010    0.0000 C   0  0  0  0  0  0  0  0  0  0  0  0
   15.2560    0.4400    0.0000 O   0  0  0  0  0  0  0  0  0  0  0  0
  1  2  1  0  0  0  0
  1 11  1  0  0  0  0
  2  3  1  0  0  0  0
  2  7  2  0  0  0  0
  3  4  2  0  0  0  0
  3  8  1  0  0  0  0
  4  5  1  0  0  0  0
  5  6  2  0  0  0  0
  6  7  1  0  0  0  0
  8  9  2  0  0  0  0
  8 16  1  0  0  0  0
  9 10  1  0  0  0  0
 10 11  1  0  0  0  0
 10 15  2  0  0  0  0
 11 12  2  0  0  0  0
 12 13  1  0  0  0  0
 13 14  2  0  0  0  0
 14 15  1  0  0  0  0
 16 17  1  0  0  0  0
 16 21  1  0  0  0  0
 17 18  1  0  0  0  0
 18 19  1  0  0  0  0
 19 20  1  0  0  0  0
 19 22  1  0  0  0  0
 20 21  1  0  0  0  0
 22 23  1  0  0  0  0
 23 24  1  0  0  0  0
 24 25  1  0  0  0  0
 25 26  1  0  0  0  0
 26 27  1  0  0  0  0
M  END
>  <Index>
922

>  <ID>
HT1786

>  <class>
0

>  <apol>
61.433826

>  <ast_fraglike>
0

>  <ast_fraglike_ext>
0

>  <ast_violation>
2

>  <ast_violation_ext>
3

>  <a_acc>
4

>  <a_acid>
0

>  <a_aro>
12

>  <a_base>
0

>  <a_count>
52

>  <a_don>
1

>  <a_donacc>
5

>  <a_heavy>
27

>  <a_hyd>
21

>  <a_IC>
81.332909

>  <a_ICM>
1.5640944

>  <a_nB>
0

>  <a_nBr>
0

>  <a_nC>
21

>  <a_nCl>
0

>  <a_nF>
0

>  <a_nH>
25

>  <a_nI>
0

>  <a_nN>
3

>  <a_nO>
2

>  <a_nP>
0

>  <a_nS>
1

>  <balabanJ>
1.3488395

>  <BCUT_PEOE_0>
-2.7651496

>  <BCUT_PEOE_1>
-0.60075724

>  <BCUT_PEOE_2>
0.63307065

>  <BCUT_PEOE_3>
2.6697001

>  <BCUT_SLOGP_0>
-2.891181

>  <BCUT_SLOGP_1>
-0.46311706

>  <BCUT_SLOGP_2>
0.68218321

>  <BCUT_SLOGP_3>
2.5552218

>  <BCUT_SMR_0>
-2.4800014

>  <BCUT_SMR_1>
-0.42137501

>  <BCUT_SMR_2>
0.82468188

>  <BCUT_SMR_3>
2.9463594

>  <bpol>
36.806175

>  <b_1rotN>
6

>  <b_1rotR>
0.2

>  <b_ar>
12

>  <b_count>
55

>  <b_double>
1

>  <b_heavy>
30

>  <b_max1len>
7

>  <b_rotN>
6

>  <b_rotR>
0.2

>  <b_single>
42

>  <b_triple>
0

>  <chi0>
18.47648

>  <chi0v>
16.197504

>  <chi0v_C>
12.775657

>  <chi0_C>
14.200459

>  <chi1>
13.347668

>  <chi1v>
10.274982

>  <chi1v_C>
5.9047008

>  <chi1_C>
7.6329932

>  <chiral>
0

>  <chiral_u>
0

>  <density>
0.73366708

>  <diameter>
15

>  <FCharge>
0

>  <GCUT_PEOE_0>
-0.86423558

>  <GCUT_PEOE_1>
-0.40742087

>  <GCUT_PEOE_2>
0.061931245

>  <GCUT_PEOE_3>
2.7650857

>  <GCUT_SLOGP_0>
-0.96714073

>  <GCUT_SLOGP_1>
-0.27853799

>  <GCUT_SLOGP_2>
0.139897

>  <GCUT_SLOGP_3>
2.8115888

>  <GCUT_SMR_0>
-0.51904643

>  <GCUT_SMR_1>
-0.18612812

>  <GCUT_SMR_2>
0.17022376

>  <GCUT_SMR_3>
3.0502119

>  <Kier1>
20.280001

>  <Kier2>
10.15625

>  <Kier3>
5.1358023

>  <KierA1>
16.945499

>  <KierA2>
8.4244232

>  <KierA3>
4.2369428

>  <KierFlex>
5.2872615

>  <lip_acc>
5

>  <lip_don>
1

>  <lip_druglike>
1

>  <lip_violation>
0

>  <logP(o/w)>
2.5339999

>  <logS>
-4.5302401

>  <mr>
11.018388

>  <mutagenic>
0

>  <nmol>
1

>  <opr_brigid>
23

>  <opr_leadlike>
1

>  <opr_nring>
4

>  <opr_nrot>
8

>  <opr_violation>
0

>  <PC+>
0

>  <PC->
0

>  <PEOE_PC+>
2.1545365

>  <PEOE_PC->
-2.1545365

>  <PEOE_RPC+>
0.097233847

>  <PEOE_RPC->
0.18228753

>  <PEOE_VSA+0>
102.13168

>  <PEOE_VSA+1>
128.33038

>  <PEOE_VSA+2>
11.190562

>  <PEOE_VSA+3>
0

>  <PEOE_VSA+4>
10.324173

>  <PEOE_VSA+5>
0

>  <PEOE_VSA+6>
0

>  <PEOE_VSA-0>
36.764713

>  <PEOE_VSA-1>
81.035141

>  <PEOE_VSA-2>
0

>  <PEOE_VSA-3>
0

>  <PEOE_VSA-4>
5.6825762

>  <PEOE_VSA-5>
0

>  <PEOE_VSA-6>
10.271297

>  <PEOE_VSA_FHYD>
0.93187457

>  <PEOE_VSA_FNEG>
0.34675431

>  <PEOE_VSA_FPNEG>
0.041360151

>  <PEOE_VSA_FPOL>
0.068125397

>  <PEOE_VSA_FPOS>
0.65324569

>  <PEOE_VSA_FPPOS>
0.026765248

>  <PEOE_VSA_HYD>
359.45248

>  <PEOE_VSA_NEG>
133.75372

>  <PEOE_VSA_PNEG>
15.953873

>  <PEOE_VSA_POL>
26.278046

>  <PEOE_VSA_POS>
251.97679

>  <PEOE_VSA_PPOS>
10.324173

>  <petitjean>
0.46666667

>  <petitjeanSC>
0.875

>  <Q_PC+>
0

>  <Q_PC->
0

>  <Q_RPC+>
0

>  <Q_RPC->
0

>  <Q_VSA_FHYD>
1

>  <Q_VSA_FNEG>
0

>  <Q_VSA_FPNEG>
0

>  <Q_VSA_FPOL>
0

>  <Q_VSA_FPOS>
1

>  <Q_VSA_FPPOS>
0

>  <Q_VSA_HYD>
385.73053

>  <Q_VSA_NEG>
0

>  <Q_VSA_PNEG>
0

>  <Q_VSA_POL>
0

>  <Q_VSA_POS>
385.73053

>  <Q_VSA_PPOS>
0

>  <radius>
8

>  <reactive>
0

>  <rings>
4

>  <RPC+>
0

>  <RPC->
0

>  <rsynth>
1

>  <SlogP>
2.8559999

>  <SlogP_VSA0>
25.385227

>  <SlogP_VSA1>
8.5765476

>  <SlogP_VSA2>
10.999887

>  <SlogP_VSA3>
154.97667

>  <SlogP_VSA4>
3.185575

>  <SlogP_VSA5>
19.886997

>  <SlogP_VSA6>
0

>  <SlogP_VSA7>
141.14548

>  <SlogP_VSA8>
0

>  <SlogP_VSA9>
34.976288

>  <SMR>
10.91228

>  <SMR_VSA0>
10.999887

>  <SMR_VSA1>
48.419384

>  <SMR_VSA2>
3.1014678

>  <SMR_VSA3>
3.185575

>  <SMR_VSA4>
2.7567475

>  <SMR_VSA5>
141.14548

>  <SMR_VSA6>
157.30458

>  <SMR_VSA7>
32.21954

>  <TPSA>
48.299999

>  <VAdjEq>
0.41024774

>  <VAdjMa>
5.9068904

>  <VDistEq>
3.6005714

>  <VDistMa>
9.1918554

>  <vdw_area>
385.73053

>  <vdw_vol>
522.73846

>  <vsa_acc>
8.1863317

>  <vsa_acid>
0

>  <vsa_base>
0

>  <vsa_don>
0

>  <vsa_hyd>
331.17883

>  <vsa_other>
11.190562

>  <vsa_pol>
21.753254

>  <Weight>
383.51599

>  <weinerPath>
1956

>  <weinerPol>
45

>  <zagreb>
140

$$$$