O=C1c2c(N(C=C1C(O)=O)CC)cc(cc2)-c1ccncc1
  MOE2013           2D

 22 24  0  0  1  0  0  0  0  0999 V2000
    0.0000    0.0000    0.0000 O   0  0  0  0  0  0  0  0  0  0  0  0
    0.7550    1.2960    0.0000 C   0  0  0  0  0  0  0  0  0  0  0  0
    2.2550    1.2910    0.0000 C   0  0  0  0  0  0  0  0  0  0  0  0
    3.0100    2.5870    0.0000 C   0  0  0  0  0  0  0  0  0  0  0  0
    2.2650    3.8890    0.0000 N   0  0  3  0  0  0  0  0  0  0  0  0
    0.7650    3.8940    0.0000 C   0  0  0  0  0  0  0  0  0  0  0  0
    0.0100    2.5980    0.0000 C   0  0  0  0  0  0  0  0  0  0  0  0
   -1.4900    2.6040    0.0000 C   0  0  0  0  0  0  0  0  0  0  0  0
   -2.2450    1.3070    0.0000 O   0  0  0  0  0  0  0  0  0  0  0  0
   -2.2350    3.9050    0.0000 O   0  0  0  0  0  0  0  0  0  0  0  0
    3.0190    5.1850    0.0000 C   0  0  0  0  0  0  0  0  0  0  0  0
    2.2740    6.4870    0.0000 C   0  0  0  0  0  0  0  0  0  0  0  0
    4.5100    2.5810    0.0000 C   0  0  0  0  0  0  0  0  0  0  0  0
    5.2550    1.2790    0.0000 C   0  0  0  0  0  0  0  0  0  0  0  0
    4.5000   -0.0170    0.0000 C   0  0  0  0  0  0  0  0  0  0  0  0
    3.0000   -0.0110    0.0000 C   0  0  0  0  0  0  0  0  0  0  0  0
    6.7550    1.2740    0.0000 C   0  0  0  0  0  0  0  0  0  0  0  0
    7.5000   -0.0280    0.0000 C   0  0  0  0  0  0  0  0  0  0  0  0
    9.0000   -0.0340    0.0000 C   0  0  0  0  0  0  0  0  0  0  0  0
    9.7550    1.2630    0.0000 N   0  0  0  0  0  0  0  0  0  0  0  0
    9.0100    2.5640    0.0000 C   0  0  0  0  0  0  0  0  0  0  0  0
    7.5100    2.5700    0.0000 C   0  0  0  0  0  0  0  0  0  0  0  0
  1  2  2  0  0  0  0
  2  3  1  0  0  0  0
  2  7  1  0  0  0  0
  3  4  1  0  0  0  0
  3 16  2  0  0  0  0
  4  5  1  0  0  0  0
  4 13  2  0  0  0  0
  5  6  1  0  0  0  0
  5 11  1  0  0  0  0
  6  7  2  0  0  0  0
  7  8  1  0  0  0  0
  8  9  1  0  0  0  0
  8 10  2  0  0  0  0
 11 12  1  0  0  0  0
 13 14  1  0  0  0  0
 14 15  2  0  0  0  0
 14 17  1  0  0  0  0
 15 16  1  0  0  0  0
 17 18  1  0  0  0  0
 17 22  2  0  0  0  0
 18 19  2  0  0  0  0
 19 20  1  0  0  0  0
 20 21  2  0  0  0  0
 21 22  1  0  0  0  0
M  END
>  <Index>
961

>  <ID>
HT1849

>  <class>
0

>  <apol>
43.861103

>  <ast_fraglike>
0

>  <ast_fraglike_ext>
0

>  <ast_violation>
1

>  <ast_violation_ext>
1

>  <a_acc>
4

>  <a_acid>
0

>  <a_aro>
12

>  <a_base>
0

>  <a_count>
36

>  <a_don>
2

>  <a_donacc>
6

>  <a_heavy>
22

>  <a_hyd>
15

>  <a_IC>
56.572575

>  <a_ICM>
1.5714605

>  <a_nB>
0

>  <a_nBr>
0

>  <a_nC>
17

>  <a_nCl>
0

>  <a_nF>
0

>  <a_nH>
14

>  <a_nI>
0

>  <a_nN>
2

>  <a_nO>
3

>  <a_nP>
0

>  <a_nS>
0

>  <balabanJ>
1.6985778

>  <BCUT_PEOE_0>
-2.5085957

>  <BCUT_PEOE_1>
-0.62203175

>  <BCUT_PEOE_2>
0.67778689

>  <BCUT_PEOE_3>
2.4538975

>  <BCUT_SLOGP_0>
-2.5319843

>  <BCUT_SLOGP_1>
-0.5535866

>  <BCUT_SLOGP_2>
0.75774574

>  <BCUT_SLOGP_3>
2.5000141

>  <BCUT_SMR_0>
-2.2077346

>  <BCUT_SMR_1>
-0.45260891

>  <BCUT_SMR_2>
0.82733744

>  <BCUT_SMR_3>
2.7671864

>  <bpol>
20.520899

>  <b_1rotN>
3

>  <b_1rotR>
0.125

>  <b_ar>
12

>  <b_count>
38

>  <b_double>
3

>  <b_heavy>
24

>  <b_max1len>
3

>  <b_rotN>
3

>  <b_rotR>
0.125

>  <b_single>
23

>  <b_triple>
0

>  <chi0>
15.68987

>  <chi0v>
11.984046

>  <chi0v_C>
9.8259087

>  <chi0_C>
11.405413

>  <chi1>
10.613392

>  <chi1v>
6.924119

>  <chi1v_C>
4.9778328

>  <chi1_C>
6.7315116

>  <chiral>
0

>  <chiral_u>
0

>  <density>
0.75400633

>  <diameter>
11

>  <FCharge>
0

>  <GCUT_PEOE_0>
-0.81959808

>  <GCUT_PEOE_1>
-0.43960115

>  <GCUT_PEOE_2>
0.11215753

>  <GCUT_PEOE_3>
2.5364189

>  <GCUT_SLOGP_0>
-0.94471425

>  <GCUT_SLOGP_1>
-0.3441276

>  <GCUT_SLOGP_2>
0.15263738

>  <GCUT_SLOGP_3>
2.6391799

>  <GCUT_SMR_0>
-0.50721562

>  <GCUT_SMR_1>
-0.22799462

>  <GCUT_SMR_2>
0.21798328

>  <GCUT_SMR_3>
2.8427105

>  <Kier1>
16.84375

>  <Kier2>
7.2664361

>  <Kier3>
3.4404707

>  <KierA1>
11.34816

>  <KierA2>
4.7945843

>  <KierA3>
2.2359011

>  <KierFlex>
2.4731686

>  <lip_acc>
5

>  <lip_don>
1

>  <lip_druglike>
1

>  <lip_violation>
0

>  <logP(o/w)>
2.0929999

>  <logS>
-3.53949

>  <mr>
8.2656813

>  <mutagenic>
0

>  <nmol>
1

>  <opr_brigid>
17

>  <opr_leadlike>
1

>  <opr_nring>
3

>  <opr_nrot>
3

>  <opr_violation>
0

>  <PC+>
0

>  <PC->
0

>  <PEOE_PC+>
1.6774508

>  <PEOE_PC->
-1.6774508

>  <PEOE_RPC+>
0.17641589

>  <PEOE_RPC->
0.19516174

>  <PEOE_VSA+0>
93.665092

>  <PEOE_VSA+1>
34.123089

>  <PEOE_VSA+2>
2.2085397

>  <PEOE_VSA+3>
0

>  <PEOE_VSA+4>
18.782692

>  <PEOE_VSA+5>
14.708499

>  <PEOE_VSA+6>
0

>  <PEOE_VSA-0>
53.436695

>  <PEOE_VSA-1>
31.002581

>  <PEOE_VSA-2>
0

>  <PEOE_VSA-3>
0

>  <PEOE_VSA-4>
0

>  <PEOE_VSA-5>
32.816418

>  <PEOE_VSA-6>
7.7675405

>  <PEOE_VSA_FHYD>
0.74325031

>  <PEOE_VSA_FNEG>
0.43333936

>  <PEOE_VSA_FPNEG>
0.14066686

>  <PEOE_VSA_FPOL>
0.25674969

>  <PEOE_VSA_FPOS>
0.56666064

>  <PEOE_VSA_FPPOS>
0.11608283

>  <PEOE_VSA_HYD>
214.43599

>  <PEOE_VSA_NEG>
125.02323

>  <PEOE_VSA_PNEG>
40.583958

>  <PEOE_VSA_POL>
74.07515

>  <PEOE_VSA_POS>
163.48792

>  <PEOE_VSA_PPOS>
33.491192

>  <petitjean>
0.45454547

>  <petitjeanSC>
0.83333331

>  <Q_PC+>
0

>  <Q_PC->
0

>  <Q_RPC+>
0

>  <Q_RPC->
0

>  <Q_VSA_FHYD>
1

>  <Q_VSA_FNEG>
0

>  <Q_VSA_FPNEG>
0

>  <Q_VSA_FPOL>
0

>  <Q_VSA_FPOS>
1

>  <Q_VSA_FPPOS>
0

>  <Q_VSA_HYD>
288.51114

>  <Q_VSA_NEG>
0

>  <Q_VSA_PNEG>
0

>  <Q_VSA_POL>
0

>  <Q_VSA_POS>
288.51114

>  <Q_VSA_PPOS>
0

>  <radius>
6

>  <reactive>
0

>  <rings>
3

>  <RPC+>
0

>  <RPC->
0

>  <rsynth>
1

>  <SlogP>
2.7397001

>  <SlogP_VSA0>
3.1243138

>  <SlogP_VSA1>
30.218605

>  <SlogP_VSA2>
23.862217

>  <SlogP_VSA3>
43.824806

>  <SlogP_VSA4>
27.047791

>  <SlogP_VSA5>
3.185575

>  <SlogP_VSA6>
0

>  <SlogP_VSA7>
146.23015

>  <SlogP_VSA8>
0

>  <SlogP_VSA9>
36.082764

>  <SMR>
8.27423

>  <SMR_VSA0>
47.724434

>  <SMR_VSA1>
16.78553

>  <SMR_VSA2>
28.509541

>  <SMR_VSA3>
6.37115

>  <SMR_VSA4>
9.1278973

>  <SMR_VSA5>
139.85899

>  <SMR_VSA6>
31.872654

>  <SMR_VSA7>
33.326015

>  <TPSA>
70.5

>  <VAdjEq>
0.46637034

>  <VAdjMa>
5.5849624

>  <VDistEq>
3.1810288

>  <VDistMa>
8.6321373

>  <vdw_area>
288.51114

>  <vdw_vol>
390.32828

>  <vsa_acc>
19.249496

>  <vsa_acid>
0

>  <vsa_base>
0

>  <vsa_don>
0

>  <vsa_hyd>
205.18266

>  <vsa_other>
23.167019

>  <vsa_pol>
46.383339

>  <Weight>
294.31

>  <weinerPath>
1016

>  <weinerPol>
38

>  <zagreb>
116

$$$$