O(C)c1c(OC)cc(cc1OC)C=CC(O[C@@H]1C[C@H]2[C@H](C[C@H]3N(CCc4c5c([nH]c34)cc(OC)cc5)C2)[C@H](C(OC)=O)[C@H]1OC)=O
  MOE2013           2D

 46 51  0  0  1  0  0  0  0  0999 V2000
    0.0000    0.0000    0.0000 O   0  0  0  0  0  0  0  0  0  0  0  0
   -0.7390    1.3050    0.0000 C   0  0  0  0  0  0  0  0  0  0  0  0
    1.5000   -0.0130    0.0000 C   0  0  0  0  0  0  0  0  0  0  0  0
    2.2610    1.2800    0.0000 C   0  0  0  0  0  0  0  0  0  0  0  0
    1.5220    2.5850    0.0000 O   0  0  0  0  0  0  0  0  0  0  0  0
    2.2830    3.8780    0.0000 C   0  0  0  0  0  0  0  0  0  0  0  0
    3.7610    1.2670    0.0000 C   0  0  0  0  0  0  0  0  0  0  0  0
    4.5000   -0.0390    0.0000 C   0  0  0  0  0  0  0  0  0  0  0  0
    3.7390   -1.3310    0.0000 C   0  0  0  0  0  0  0  0  0  0  0  0
    2.2390   -1.3180    0.0000 C   0  0  0  0  0  0  0  0  0  0  0  0
    1.4780   -2.6110    0.0000 O   0  0  0  0  0  0  0  0  0  0  0  0
    2.2160   -3.9160    0.0000 C   0  0  0  0  0  0  0  0  0  0  0  0
    6.0000   -0.0520    0.0000 C   0  0  0  0  0  0  0  0  0  0  0  0
    6.7390   -1.3570    0.0000 C   0  0  0  0  0  0  0  0  0  0  0  0
    8.2390   -1.3700    0.0000 C   0  0  0  0  0  0  0  0  0  0  0  0
    8.9770   -2.6750    0.0000 O   0  0  0  0  0  0  0  0  0  0  0  0
   10.4770   -2.6880    0.0000 C   0  0  2  0  0  0  0  0  0  0  0  0
   11.2380   -1.3960    0.0000 C   0  0  0  0  0  0  0  0  0  0  0  0
   12.7380   -1.4090    0.0000 C   0  0  1  0  0  0  0  0  0  0  0  0
   13.4770   -2.7140    0.0000 C   0  0  2  0  0  0  0  0  0  0  0  0
   14.9770   -2.7270    0.0000 C   0  0  0  0  0  0  0  0  0  0  0  0
   15.7380   -1.4350    0.0000 C   0  0  1  0  0  0  0  0  0  0  0  0
   14.9990   -0.1290    0.0000 N   0  0  3  0  0  0  0  0  0  0  0  0
   15.7610    1.1630    0.0000 C   0  0  0  0  0  0  0  0  0  0  0  0
   17.2610    1.1510    0.0000 C   0  0  0  0  0  0  0  0  0  0  0  0
   17.9990   -0.1550    0.0000 C   0  0  0  0  0  0  0  0  0  0  0  0
   19.4640   -0.4790    0.0000 C   0  0  0  0  0  0  0  0  0  0  0  0
   19.6080   -1.9720    0.0000 C   0  0  0  0  0  0  0  0  0  0  0  0
   18.2320   -2.5710    0.0000 N   0  0  0  0  0  0  0  0  0  0  0  0
   17.2380   -1.4470    0.0000 C   0  0  0  0  0  0  0  0  0  0  0  0
   20.9730   -2.5940    0.0000 C   0  0  0  0  0  0  0  0  0  0  0  0
   22.1940   -1.7230    0.0000 C   0  0  0  0  0  0  0  0  0  0  0  0
   23.5590   -2.3450    0.0000 O   0  0  0  0  0  0  0  0  0  0  0  0
   24.7800   -1.4740    0.0000 C   0  0  0  0  0  0  0  0  0  0  0  0
   22.0500   -0.2300    0.0000 C   0  0  0  0  0  0  0  0  0  0  0  0
   20.6850    0.3920    0.0000 C   0  0  0  0  0  0  0  0  0  0  0  0
   13.5000   -0.1160    0.0000 C   0  0  0  0  0  0  0  0  0  0  0  0
   12.7160   -4.0070    0.0000 C   0  0  2  0  0  0  0  0  0  0  0  0
   13.4550   -5.3120    0.0000 C   0  0  0  0  0  0  0  0  0  0  0  0
   12.6940   -6.6050    0.0000 O   0  0  0  0  0  0  0  0  0  0  0  0
   13.4320   -7.9100    0.0000 C   0  0  0  0  0  0  0  0  0  0  0  0
   14.9550   -5.3250    0.0000 O   0  0  0  0  0  0  0  0  0  0  0  0
   11.2160   -3.9940    0.0000 C   0  0  1  0  0  0  0  0  0  0  0  0
   10.4550   -5.2860    0.0000 O   0  0  0  0  0  0  0  0  0  0  0  0
    8.9550   -5.2730    0.0000 C   0  0  0  0  0  0  0  0  0  0  0  0
    9.0000   -0.0770    0.0000 O   0  0  0  0  0  0  0  0  0  0  0  0
  1  2  1  0  0  0  0
  1  3  1  0  0  0  0
  3  4  1  0  0  0  0
  3 10  2  0  0  0  0
  4  5  1  0  0  0  0
  4  7  2  0  0  0  0
  5  6  1  0  0  0  0
  7  8  1  0  0  0  0
  8  9  2  0  0  0  0
  8 13  1  0  0  0  0
  9 10  1  0  0  0  0
 10 11  1  0  0  0  0
 11 12  1  0  0  0  0
 13 14  2  3  0  0  0
 14 15  1  0  0  0  0
 15 16  1  0  0  0  0
 15 46  2  0  0  0  0
 17 16  1  6  0  0  0
 17 18  1  0  0  0  0
 17 43  1  0  0  0  0
 18 19  1  0  0  0  0
 19 20  1  0  0  0  0
 19 37  1  6  0  0  0
 20 21  1  6  0  0  0
 20 38  1  0  0  0  0
 21 22  1  0  0  0  0
 22 23  1  0  0  0  0
 22 30  1  1  0  0  0
 23 24  1  0  0  0  0
 23 37  1  0  0  0  0
 24 25  1  0  0  0  0
 25 26  1  0  0  0  0
 26 27  1  0  0  0  0
 26 30  2  0  0  0  0
 27 28  1  0  0  0  0
 27 36  2  0  0  0  0
 28 29  1  0  0  0  0
 28 31  2  0  0  0  0
 29 30  1  0  0  0  0
 31 32  1  0  0  0  0
 32 33  1  0  0  0  0
 32 35  2  0  0  0  0
 33 34  1  0  0  0  0
 35 36  1  0  0  0  0
 38 39  1  6  0  0  0
 38 43  1  0  0  0  0
 39 40  1  0  0  0  0
 39 42  2  0  0  0  0
 40 41  1  0  0  0  0
 43 44  1  1  0  0  0
 44 45  1  0  0  0  0
M  END
>  <Index>
938

>  <ID>
HT1812

>  <class>
0

>  <apol>
99.023308

>  <ast_fraglike>
0

>  <ast_fraglike_ext>
0

>  <ast_violation>
3

>  <ast_violation_ext>
4

>  <a_acc>
8

>  <a_acid>
0

>  <a_aro>
15

>  <a_base>
0

>  <a_count>
88

>  <a_don>
1

>  <a_donacc>
9

>  <a_heavy>
46

>  <a_hyd>
33

>  <a_IC>
131.89842

>  <a_ICM>
1.4988457

>  <a_nB>
0

>  <a_nBr>
0

>  <a_nC>
35

>  <a_nCl>
0

>  <a_nF>
0

>  <a_nH>
42

>  <a_nI>
0

>  <a_nN>
2

>  <a_nO>
9

>  <a_nP>
0

>  <a_nS>
0

>  <balabanJ>
1.1070268

>  <BCUT_PEOE_0>
-2.8981166

>  <BCUT_PEOE_1>
-0.54423082

>  <BCUT_PEOE_2>
0.47576737

>  <BCUT_PEOE_3>
2.8961279

>  <BCUT_SLOGP_0>
-2.9232273

>  <BCUT_SLOGP_1>
-0.4943701

>  <BCUT_SLOGP_2>
0.55802017

>  <BCUT_SLOGP_3>
2.8919988

>  <BCUT_SMR_0>
-2.6560783

>  <BCUT_SMR_1>
-0.34017557

>  <BCUT_SMR_2>
0.67705953

>  <BCUT_SMR_3>
3.1297143

>  <bpol>
63.882694

>  <b_1rotN>
9

>  <b_1rotR>
0.17647059

>  <b_ar>
16

>  <b_count>
93

>  <b_double>
3

>  <b_heavy>
51

>  <b_max1len>
4

>  <b_rotN>
11

>  <b_rotR>
0.21568628

>  <b_single>
74

>  <b_triple>
0

>  <chi0>
32.534439

>  <chi0v>
27.162535

>  <chi0v_C>
22.541088

>  <chi0_C>
24.300236

>  <chi1>
22.328293

>  <chi1v>
15.553438

>  <chi1v_C>
9.6088963

>  <chi1_C>
11.698639

>  <chiral>
6

>  <chiral_u>
0

>  <density>
0.74717194

>  <diameter>
22

>  <FCharge>
0

>  <GCUT_PEOE_0>
-0.85639787

>  <GCUT_PEOE_1>
-0.42163479

>  <GCUT_PEOE_2>
-0.049912483

>  <GCUT_PEOE_3>
3.2447042

>  <GCUT_SLOGP_0>
-0.93145835

>  <GCUT_SLOGP_1>
-0.30092323

>  <GCUT_SLOGP_2>
0.076978743

>  <GCUT_SLOGP_3>
3.2773855

>  <GCUT_SMR_0>
-0.52766114

>  <GCUT_SMR_1>
-0.19629145

>  <GCUT_SMR_2>
0.12516728

>  <GCUT_SMR_3>
3.4832556

>  <Kier1>
35.813148

>  <Kier2>
15.909423

>  <Kier3>
7.2712026

>  <KierA1>
29.473764

>  <KierA2>
13.033883

>  <KierA3>
5.9382391

>  <KierFlex>
8.3512516

>  <lip_acc>
11

>  <lip_don>
1

>  <lip_druglike>
0

>  <lip_violation>
2

>  <logP(o/w)>
4.3252201

>  <logS>
-5.9275999

>  <mr>
17.125362

>  <mutagenic>
0

>  <nmol>
1

>  <opr_brigid>
32

>  <opr_leadlike>
0

>  <opr_nring>
6

>  <opr_nrot>
10

>  <opr_violation>
4

>  <PC+>
0

>  <PC->
0

>  <PEOE_PC+>
3.8759792

>  <PEOE_PC->
-3.8759792

>  <PEOE_RPC+>
0.074028745

>  <PEOE_RPC->
0.097112074

>  <PEOE_VSA+0>
259.68317

>  <PEOE_VSA+1>
140.84514

>  <PEOE_VSA+2>
25.375559

>  <PEOE_VSA+3>
8.6190128

>  <PEOE_VSA+4>
0

>  <PEOE_VSA+5>
29.416998

>  <PEOE_VSA+6>
0

>  <PEOE_VSA-0>
104.05045

>  <PEOE_VSA-1>
0

>  <PEOE_VSA-2>
0

>  <PEOE_VSA-3>
0

>  <PEOE_VSA-4>
0

>  <PEOE_VSA-5>
27.133842

>  <PEOE_VSA-6>
17.663183

>  <PEOE_VSA_FHYD>
0.87889105

>  <PEOE_VSA_FNEG>
0.24290232

>  <PEOE_VSA_FPNEG>
0.073103704

>  <PEOE_VSA_FPOL>
0.12110893

>  <PEOE_VSA_FPOS>
0.75709766

>  <PEOE_VSA_FPPOS>
0.048005231

>  <PEOE_VSA_HYD>
538.5733

>  <PEOE_VSA_NEG>
148.84747

>  <PEOE_VSA_PNEG>
44.797024

>  <PEOE_VSA_POL>
74.214027

>  <PEOE_VSA_POS>
463.93988

>  <PEOE_VSA_PPOS>
29.416998

>  <petitjean>
0.5

>  <petitjeanSC>
1

>  <Q_PC+>
0

>  <Q_PC->
0

>  <Q_RPC+>
0

>  <Q_RPC->
0

>  <Q_VSA_FHYD>
1

>  <Q_VSA_FNEG>
0

>  <Q_VSA_FPNEG>
0

>  <Q_VSA_FPOL>
0

>  <Q_VSA_FPOS>
1

>  <Q_VSA_FPPOS>
0

>  <Q_VSA_HYD>
612.78735

>  <Q_VSA_NEG>
0

>  <Q_VSA_PNEG>
0

>  <Q_VSA_POL>
0

>  <Q_VSA_POS>
612.78735

>  <Q_VSA_PPOS>
0

>  <radius>
11

>  <reactive>
0

>  <rings>
6

>  <RPC+>
0

>  <RPC->
0

>  <rsynth>
0.65217394

>  <SlogP>
4.6661701

>  <SlogP_VSA0>
43.99955

>  <SlogP_VSA1>
18.615242

>  <SlogP_VSA2>
110.44692

>  <SlogP_VSA3>
36.879158

>  <SlogP_VSA4>
22.360285

>  <SlogP_VSA5>
231.17162

>  <SlogP_VSA6>
0

>  <SlogP_VSA7>
110.57621

>  <SlogP_VSA8>
59.361965

>  <SlogP_VSA9>
20.973713

>  <SMR>
17.050871

>  <SMR_VSA0>
80.724098

>  <SMR_VSA1>
47.123867

>  <SMR_VSA2>
30.017918

>  <SMR_VSA3>
47.020878

>  <SMR_VSA4>
4.7171016

>  <SMR_VSA5>
162.46432

>  <SMR_VSA6>
70.013268

>  <SMR_VSA7>
212.30321

>  <TPSA>
117.78

>  <VAdjEq>
0.2787188

>  <VAdjMa>
6.6724253

>  <VDistEq>
4.1505222

>  <VDistMa>
10.748399

>  <vdw_area>
612.78735

>  <vdw_vol>
849.50458

>  <vsa_acc>
39.652622

>  <vsa_acid>
0

>  <vsa_base>
0

>  <vsa_don>
5.6825762

>  <vsa_hyd>
496.73553

>  <vsa_other>
34.424511

>  <vsa_pol>
45.335197

>  <Weight>
634.72601

>  <weinerPath>
8298

>  <weinerPol>
87

>  <zagreb>
250

$$$$