OCC=C(C=CC=C(C=CC=1C(CCCC=1C)(C)C)/C)/C
  MOE2013           2D

 21 21  0  0  0  0  0  0  0  0999 V2000
    0.0000    0.0000    0.0000 O   0  0  0  0  0  0  0  0  0  0  0  0
   -1.3020   -0.7460    0.0000 C   0  0  0  0  0  0  0  0  0  0  0  0
   -2.5980    0.0090    0.0000 C   0  0  0  0  0  0  0  0  0  0  0  0
   -3.9000   -0.7370    0.0000 C   0  0  0  0  0  0  0  0  0  0  0  0
   -5.1960    0.0170    0.0000 C   0  0  0  0  0  0  0  0  0  0  0  0
   -6.4980   -0.7280    0.0000 C   0  0  0  0  0  0  0  0  0  0  0  0
   -7.7940    0.0260    0.0000 C   0  0  0  0  0  0  0  0  0  0  0  0
   -9.0960   -0.7190    0.0000 C   0  0  0  0  0  0  0  0  0  0  0  0
  -10.3920    0.0350    0.0000 C   0  0  0  0  0  0  0  0  0  0  0  0
  -11.6940   -0.7110    0.0000 C   0  0  0  0  0  0  0  0  0  0  0  0
  -12.9900    0.0440    0.0000 C   0  0  0  0  0  0  0  0  0  0  0  0
  -14.2920   -0.7020    0.0000 C   0  0  0  0  0  0  0  0  0  0  0  0
  -15.5880    0.0520    0.0000 C   0  0  0  0  0  0  0  0  0  0  0  0
  -15.5830    1.5520    0.0000 C   0  0  0  0  0  0  0  0  0  0  0  0
  -14.2820    2.2980    0.0000 C   0  0  0  0  0  0  0  0  0  0  0  0
  -12.9850    1.5440    0.0000 C   0  0  0  0  0  0  0  0  0  0  0  0
  -11.6840    2.2890    0.0000 C   0  0  0  0  0  0  0  0  0  0  0  0
  -15.0460   -1.9980    0.0000 C   0  0  0  0  0  0  0  0  0  0  0  0
  -13.5460   -2.0030    0.0000 C   0  0  0  0  0  0  0  0  0  0  0  0
   -9.1010   -2.2190    0.0000 C   0  0  0  0  0  0  0  0  0  0  0  0
   -3.9050   -2.2370    0.0000 C   0  0  0  0  0  0  0  0  0  0  0  0
  1  2  1  0  0  0  0
  2  3  1  0  0  0  0
  3  4  2  3  0  0  0
  4  5  1  0  0  0  0
  4 21  1  0  0  0  0
  5  6  2  3  0  0  0
  6  7  1  0  0  0  0
  7  8  2  3  0  0  0
  8  9  1  0  0  0  0
  8 20  1  0  0  0  0
  9 10  2  3  0  0  0
 10 11  1  0  0  0  0
 11 12  1  0  0  0  0
 11 16  2  0  0  0  0
 12 13  1  0  0  0  0
 12 18  1  0  0  0  0
 12 19  1  0  0  0  0
 13 14  1  0  0  0  0
 14 15  1  0  0  0  0
 15 16  1  0  0  0  0
 16 17  1  0  0  0  0
M  END
>  <Index>
941

>  <ID>
HT1816

>  <class>
0

>  <apol>
56.005791

>  <ast_fraglike>
0

>  <ast_fraglike_ext>
0

>  <ast_violation>
1

>  <ast_violation_ext>
2

>  <a_acc>
1

>  <a_acid>
0

>  <a_aro>
0

>  <a_base>
0

>  <a_count>
51

>  <a_don>
1

>  <a_donacc>
2

>  <a_heavy>
21

>  <a_hyd>
20

>  <a_IC>
55.648411

>  <a_ICM>
1.0911454

>  <a_nB>
0

>  <a_nBr>
0

>  <a_nC>
20

>  <a_nCl>
0

>  <a_nF>
0

>  <a_nH>
30

>  <a_nI>
0

>  <a_nN>
0

>  <a_nO>
1

>  <a_nP>
0

>  <a_nS>
0

>  <balabanJ>
2.2434211

>  <BCUT_PEOE_0>
-2.7535243

>  <BCUT_PEOE_1>
-0.1718549

>  <BCUT_PEOE_2>
0.21257238

>  <BCUT_PEOE_3>
2.6964064

>  <BCUT_SLOGP_0>
-2.6118655

>  <BCUT_SLOGP_1>
-0.05231807

>  <BCUT_SLOGP_2>
0.2820158

>  <BCUT_SLOGP_3>
2.8409042

>  <BCUT_SMR_0>
-2.4876893

>  <BCUT_SMR_1>
-0.035183538

>  <BCUT_SMR_2>
0.37420321

>  <BCUT_SMR_3>
2.9671443

>  <bpol>
32.796211

>  <b_1rotN>
5

>  <b_1rotR>
0.23809524

>  <b_ar>
0

>  <b_count>
51

>  <b_double>
5

>  <b_heavy>
21

>  <b_max1len>
4

>  <b_rotN>
5

>  <b_rotR>
0.23809524

>  <b_single>
46

>  <b_triple>
0

>  <chi0>
15.880469

>  <chi0v>
14.239742

>  <chi0v_C>
13.792529

>  <chi0_C>
14.880469

>  <chi1>
9.8642092

>  <chi1v>
7.8749585

>  <chi1v_C>
7.5587306

>  <chi1_C>
9.1571026

>  <chiral>
0

>  <chiral_u>
0

>  <density>
0.6126191

>  <diameter>
13

>  <FCharge>
0

>  <GCUT_PEOE_0>
-0.79235643

>  <GCUT_PEOE_1>
-0.30934069

>  <GCUT_PEOE_2>
-0.063751973

>  <GCUT_PEOE_3>
2.7222819

>  <GCUT_SLOGP_0>
-0.87303907

>  <GCUT_SLOGP_1>
-0.19357376

>  <GCUT_SLOGP_2>
-0.024743795

>  <GCUT_SLOGP_3>
2.8702264

>  <GCUT_SMR_0>
-0.52744871

>  <GCUT_SMR_1>
-0.10348685

>  <GCUT_SMR_2>
0.049202722

>  <GCUT_SMR_3>
2.9830685

>  <Kier1>
19.047619

>  <Kier2>
9.2091837

>  <Kier3>
6.7429762

>  <KierA1>
15.621073

>  <KierA2>
7.4726057

>  <KierA3>
5.4268918

>  <KierFlex>
5.5585771

>  <lip_acc>
1

>  <lip_don>
1

>  <lip_druglike>
1

>  <lip_violation>
1

>  <logP(o/w)>
4.4299998

>  <logS>
-7.3990502

>  <mr>
9.1380434

>  <mutagenic>
0

>  <nmol>
1

>  <opr_brigid>
10

>  <opr_leadlike>
1

>  <opr_nring>
1

>  <opr_nrot>
6

>  <opr_violation>
1

>  <PC+>
0

>  <PC->
0

>  <PEOE_PC+>
1.3248094

>  <PEOE_PC->
-1.3248094

>  <PEOE_RPC+>
0.15837976

>  <PEOE_RPC->
0.29512462

>  <PEOE_VSA+0>
89.573105

>  <PEOE_VSA+1>
49.074383

>  <PEOE_VSA+2>
0

>  <PEOE_VSA+3>
0

>  <PEOE_VSA+4>
10.324173

>  <PEOE_VSA+5>
0

>  <PEOE_VSA+6>
0

>  <PEOE_VSA-0>
84.555511

>  <PEOE_VSA-1>
117.6504

>  <PEOE_VSA-2>
0

>  <PEOE_VSA-3>
0

>  <PEOE_VSA-4>
0

>  <PEOE_VSA-5>
0

>  <PEOE_VSA-6>
7.7675405

>  <PEOE_VSA_FHYD>
0.94959754

>  <PEOE_VSA_FNEG>
0.58497369

>  <PEOE_VSA_FPNEG>
0.021639911

>  <PEOE_VSA_FPOL>
0.050402451

>  <PEOE_VSA_FPOS>
0.41502631

>  <PEOE_VSA_FPPOS>
0.028762538

>  <PEOE_VSA_HYD>
340.85339

>  <PEOE_VSA_NEG>
209.97345

>  <PEOE_VSA_PNEG>
7.7675405

>  <PEOE_VSA_POL>
18.091713

>  <PEOE_VSA_POS>
148.97166

>  <PEOE_VSA_PPOS>
10.324173

>  <petitjean>
0.46153846

>  <petitjeanSC>
0.85714287

>  <Q_PC+>
0

>  <Q_PC->
0

>  <Q_RPC+>
0

>  <Q_RPC->
0

>  <Q_VSA_FHYD>
1

>  <Q_VSA_FNEG>
0

>  <Q_VSA_FPNEG>
0

>  <Q_VSA_FPOL>
0

>  <Q_VSA_FPOS>
1

>  <Q_VSA_FPPOS>
0

>  <Q_VSA_HYD>
358.9451

>  <Q_VSA_NEG>
0

>  <Q_VSA_PNEG>
0

>  <Q_VSA_POL>
0

>  <Q_VSA_POS>
358.9451

>  <Q_VSA_PPOS>
0

>  <radius>
7

>  <reactive>
0

>  <rings>
1

>  <RPC+>
0

>  <RPC->
0

>  <rsynth>
1

>  <SlogP>
5.5103002

>  <SlogP_VSA0>
25.385227

>  <SlogP_VSA1>
0

>  <SlogP_VSA2>
0

>  <SlogP_VSA3>
20.926258

>  <SlogP_VSA4>
0

>  <SlogP_VSA5>
12.7423

>  <SlogP_VSA6>
0

>  <SlogP_VSA7>
105.85911

>  <SlogP_VSA8>
56.605217

>  <SlogP_VSA9>
166.63008

>  <SMR>
9.3211803

>  <SMR_VSA0>
0

>  <SMR_VSA1>
25.385227

>  <SMR_VSA2>
0

>  <SMR_VSA3>
12.7423

>  <SMR_VSA4>
0

>  <SMR_VSA5>
162.46432

>  <SMR_VSA6>
20.926258

>  <SMR_VSA7>
166.63008

>  <TPSA>
20.23

>  <VAdjEq>
0.45371634

>  <VAdjMa>
5.3923173

>  <VDistEq>
3.4958758

>  <VDistMa>
8.4476404

>  <vdw_area>
358.9451

>  <vdw_vol>
467.59723

>  <vsa_acc>
0

>  <vsa_acid>
0

>  <vsa_base>
0

>  <vsa_don>
0

>  <vsa_hyd>
320.21133

>  <vsa_other>
0

>  <vsa_pol>
13.566921

>  <Weight>
286.45898

>  <weinerPath>
1114

>  <weinerPol>
28

>  <zagreb>
98

$$$$