O1[C@H]2[C@H](O[C@@H]3O[C@@H](CC(=O)[C@]13O)C)[C@@H](O)[C@H](NC)[C@H](O)[C@@H]2NC
  MOE2013           2D

 23 25  0  0  1  0  0  0  0  0999 V2000
    0.0000    0.0000    0.0000 O   0  0  0  0  0  0  0  0  0  0  0  0
   -0.7590    1.2940    0.0000 C   0  0  1  0  0  0  0  0  0  0  0  0
   -0.0170    2.5980    0.0000 C   0  0  2  0  0  0  0  0  0  0  0  0
    1.4830    2.6080    0.0000 O   0  0  0  0  0  0  0  0  0  0  0  0
    2.2410    1.3140    0.0000 C   0  0  2  0  0  0  0  0  0  0  0  0
    3.7410    1.3240    0.0000 O   0  0  0  0  0  0  0  0  0  0  0  0
    4.5000    0.0300    0.0000 C   0  0  1  0  0  0  0  0  0  0  0  0
    3.7590   -1.2740    0.0000 C   0  0  0  0  0  0  0  0  0  0  0  0
    2.2590   -1.2840    0.0000 C   0  0  0  0  0  0  0  0  0  0  0  0
    1.5170   -2.5880    0.0000 O   0  0  0  0  0  0  0  0  0  0  0  0
    1.5000    0.0100    0.0000 C   0  0  2  0  0  0  0  0  0  0  0  0
    0.7590   -1.2940    0.0000 O   0  0  0  0  0  0  0  0  0  0  0  0
    6.0000    0.0400    0.0000 C   0  0  0  0  0  0  0  0  0  0  0  0
   -0.7760    3.8920    0.0000 C   0  0  1  0  0  0  0  0  0  0  0  0
   -0.0350    5.1960    0.0000 O   0  0  0  0  0  0  0  0  0  0  0  0
   -2.2760    3.8820    0.0000 C   0  0  2  0  0  0  0  0  0  0  0  0
   -3.0350    5.1760    0.0000 N   0  0  0  0  0  0  0  0  0  0  0  0
   -4.5350    5.1660    0.0000 C   0  0  0  0  0  0  0  0  0  0  0  0
   -3.0170    2.5780    0.0000 C   0  0  2  0  0  0  0  0  0  0  0  0
   -4.5170    2.5680    0.0000 O   0  0  0  0  0  0  0  0  0  0  0  0
   -2.2590    1.2840    0.0000 C   0  0  2  0  0  0  0  0  0  0  0  0
   -3.0000   -0.0200    0.0000 N   0  0  0  0  0  0  0  0  0  0  0  0
   -4.5000   -0.0300    0.0000 C   0  0  0  0  0  0  0  0  0  0  0  0
  1 11  1  0  0  0  0
  2  1  1  6  0  0  0
  2  3  1  0  0  0  0
  2 21  1  0  0  0  0
  3  4  1  1  0  0  0
  3 14  1  0  0  0  0
  5  4  1  6  0  0  0
  5  6  1  0  0  0  0
  5 11  1  0  0  0  0
  6  7  1  0  0  0  0
  7  8  1  0  0  0  0
  7 13  1  6  0  0  0
  8  9  1  0  0  0  0
  9 10  2  0  0  0  0
  9 11  1  0  0  0  0
 11 12  1  1  0  0  0
 14 15  1  6  0  0  0
 14 16  1  0  0  0  0
 16 17  1  1  0  0  0
 16 19  1  0  0  0  0
 17 18  1  0  0  0  0
 19 20  1  1  0  0  0
 19 21  1  0  0  0  0
 21 22  1  1  0  0  0
 22 23  1  0  0  0  0
M  END
>  <Index>
994

>  <ID>
HT1909

>  <class>
0

>  <apol>
48.457031

>  <ast_fraglike>
0

>  <ast_fraglike_ext>
0

>  <ast_violation>
3

>  <ast_violation_ext>
5

>  <a_acc>
9

>  <a_acid>
0

>  <a_aro>
0

>  <a_base>
0

>  <a_count>
47

>  <a_don>
5

>  <a_donacc>
14

>  <a_heavy>
23

>  <a_hyd>
11

>  <a_IC>
76.072121

>  <a_ICM>
1.6185558

>  <a_nB>
0

>  <a_nBr>
0

>  <a_nC>
14

>  <a_nCl>
0

>  <a_nF>
0

>  <a_nH>
24

>  <a_nI>
0

>  <a_nN>
2

>  <a_nO>
7

>  <a_nP>
0

>  <a_nS>
0

>  <balabanJ>
1.9085897

>  <BCUT_PEOE_0>
-2.8315003

>  <BCUT_PEOE_1>
-0.55223036

>  <BCUT_PEOE_2>
0.6033175

>  <BCUT_PEOE_3>
2.8876503

>  <BCUT_SLOGP_0>
-3.0522342

>  <BCUT_SLOGP_1>
-0.57105941

>  <BCUT_SLOGP_2>
0.51056576

>  <BCUT_SLOGP_3>
2.6826761

>  <BCUT_SMR_0>
-2.6149738

>  <BCUT_SMR_1>
-0.41005924

>  <BCUT_SMR_2>
0.69947028

>  <BCUT_SMR_3>
3.0866668

>  <bpol>
34.262966

>  <b_1rotN>
2

>  <b_1rotR>
0.079999998

>  <b_ar>
0

>  <b_count>
49

>  <b_double>
1

>  <b_heavy>
25

>  <b_max1len>
4

>  <b_rotN>
2

>  <b_rotR>
0.079999998

>  <b_single>
48

>  <b_triple>
0

>  <chi0>
16.938793

>  <chi0v>
13.300543

>  <chi0v_C>
9.3259087

>  <chi0_C>
9.4032593

>  <chi1>
10.828753

>  <chi1v>
7.7819414

>  <chi1v_C>
3.8778272

>  <chi1_C>
3.9711971

>  <chiral>
9

>  <chiral_u>
0

>  <density>
0.81957197

>  <diameter>
9

>  <FCharge>
0

>  <GCUT_PEOE_0>
-0.84464961

>  <GCUT_PEOE_1>
-0.42117536

>  <GCUT_PEOE_2>
0.080898322

>  <GCUT_PEOE_3>
2.9847124

>  <GCUT_SLOGP_0>
-1.1602154

>  <GCUT_SLOGP_1>
-0.4424856

>  <GCUT_SLOGP_2>
0.0011429336

>  <GCUT_SLOGP_3>
2.8422856

>  <GCUT_SMR_0>
-0.52214259

>  <GCUT_SMR_1>
-0.23862317

>  <GCUT_SMR_2>
0.1602391

>  <GCUT_SMR_3>
3.1818931

>  <Kier1>
17.811199

>  <Kier2>
6.3786983

>  <Kier3>
2.7085257

>  <KierA1>
17.102724

>  <KierA2>
6.1132369

>  <KierA3>
2.5920446

>  <KierFlex>
4.545783

>  <lip_acc>
9

>  <lip_don>
5

>  <lip_druglike>
1

>  <lip_violation>
0

>  <logP(o/w)>
-2.046

>  <logS>
0.13158999

>  <mr>
7.7116628

>  <mutagenic>
0

>  <nmol>
1

>  <opr_brigid>
16

>  <opr_leadlike>
1

>  <opr_nring>
3

>  <opr_nrot>
4

>  <opr_violation>
1

>  <PC+>
0

>  <PC->
0

>  <PEOE_PC+>
3.1270216

>  <PEOE_PC->
-3.1270216

>  <PEOE_RPC+>
0.08982455

>  <PEOE_RPC->
0.12424707

>  <PEOE_VSA+0>
55.62056

>  <PEOE_VSA+1>
50.224865

>  <PEOE_VSA+2>
31.952812

>  <PEOE_VSA+3>
8.458519

>  <PEOE_VSA+4>
42.127426

>  <PEOE_VSA+5>
1.1085443

>  <PEOE_VSA+6>
0

>  <PEOE_VSA-0>
65.22506

>  <PEOE_VSA-1>
0

>  <PEOE_VSA-2>
0

>  <PEOE_VSA-3>
0

>  <PEOE_VSA-4>
0

>  <PEOE_VSA-5>
13.566921

>  <PEOE_VSA-6>
31.087671

>  <PEOE_VSA_FHYD>
0.70641726

>  <PEOE_VSA_FNEG>
0.36703336

>  <PEOE_VSA_FPNEG>
0.1491607

>  <PEOE_VSA_FPOL>
0.29358274

>  <PEOE_VSA_FPOS>
0.63296664

>  <PEOE_VSA_FPPOS>
0.14442204

>  <PEOE_VSA_HYD>
211.48181

>  <PEOE_VSA_NEG>
109.87965

>  <PEOE_VSA_PNEG>
44.654591

>  <PEOE_VSA_POL>
87.890564

>  <PEOE_VSA_POS>
189.49272

>  <PEOE_VSA_PPOS>
43.23597

>  <petitjean>
0.44444445

>  <petitjeanSC>
0.80000001

>  <Q_PC+>
0

>  <Q_PC->
0

>  <Q_RPC+>
0

>  <Q_RPC->
0

>  <Q_VSA_FHYD>
1

>  <Q_VSA_FNEG>
0

>  <Q_VSA_FPNEG>
0

>  <Q_VSA_FPOL>
0

>  <Q_VSA_FPOS>
1

>  <Q_VSA_FPPOS>
0

>  <Q_VSA_HYD>
299.37238

>  <Q_VSA_NEG>
0

>  <Q_VSA_PNEG>
0

>  <Q_VSA_POL>
0

>  <Q_VSA_POS>
299.37238

>  <Q_VSA_PPOS>
0

>  <radius>
5

>  <reactive>
1

>  <rings>
3

>  <RPC+>
0

>  <RPC->
0

>  <rsynth>
0.39130434

>  <SlogP>
-2.9256001

>  <SlogP_VSA0>
112.17718

>  <SlogP_VSA1>
5.6876111

>  <SlogP_VSA2>
105.69556

>  <SlogP_VSA3>
0

>  <SlogP_VSA4>
0

>  <SlogP_VSA5>
65.794373

>  <SlogP_VSA6>
0

>  <SlogP_VSA7>
0

>  <SlogP_VSA8>
18.868406

>  <SlogP_VSA9>
33.326015

>  <SMR>
7.6363802

>  <SMR_VSA0>
56.861881

>  <SMR_VSA1>
76.155678

>  <SMR_VSA2>
36.0215

>  <SMR_VSA3>
48.833687

>  <SMR_VSA4>
0

>  <SMR_VSA5>
18.868406

>  <SMR_VSA6>
5.6876111

>  <SMR_VSA7>
99.120392

>  <TPSA>
129.50999

>  <VAdjEq>
0.45137304

>  <VAdjMa>
5.643856

>  <VDistEq>
2.9681425

>  <VDistMa>
8.7970428

>  <vdw_area>
299.37238

>  <vdw_vol>
405.5202

>  <vsa_acc>
21.07819

>  <vsa_acid>
0

>  <vsa_base>
0

>  <vsa_don>
0

>  <vsa_hyd>
168.70757

>  <vsa_other>
24.275562

>  <vsa_pol>
73.144104

>  <Weight>
332.353

>  <weinerPath>
1028

>  <weinerPol>
48

>  <zagreb>
128

$$$$