n1c(Nc2c(cc(cc2C)C=CC#N)C)ccnc1Nc1ccc(cc1)C#N
  MOE2013           2D

 28 30  0  0  0  0  0  0  0  0999 V2000
    0.0000    0.0000    0.0000 N   0  0  0  0  0  0  0  0  0  0  0  0
    1.5000    0.0070    0.0000 C   0  0  0  0  0  0  0  0  0  0  0  0
    2.2560   -1.2890    0.0000 N   0  0  0  0  0  0  0  0  0  0  0  0
    3.7560   -1.2830    0.0000 C   0  0  0  0  0  0  0  0  0  0  0  0
    4.5110   -2.5780    0.0000 C   0  0  0  0  0  0  0  0  0  0  0  0
    6.0110   -2.5720    0.0000 C   0  0  0  0  0  0  0  0  0  0  0  0
    6.7560   -1.2690    0.0000 C   0  0  0  0  0  0  0  0  0  0  0  0
    6.0000    0.0260    0.0000 C   0  0  0  0  0  0  0  0  0  0  0  0
    4.5000    0.0200    0.0000 C   0  0  0  0  0  0  0  0  0  0  0  0
    3.7440    1.3150    0.0000 C   0  0  0  0  0  0  0  0  0  0  0  0
    8.2560   -1.2630    0.0000 C   0  0  0  0  0  0  0  0  0  0  0  0
    9.0110   -2.5590    0.0000 C   0  0  0  0  0  0  0  0  0  0  0  0
   10.5110   -2.5520    0.0000 C   0  0  0  0  0  0  0  0  0  0  0  0
   12.0110   -2.5450    0.0000 N   0  0  0  0  0  0  0  0  0  0  0  0
    3.7670   -3.8810    0.0000 C   0  0  0  0  0  0  0  0  0  0  0  0
    2.2440    1.3090    0.0000 C   0  0  0  0  0  0  0  0  0  0  0  0
    1.4890    2.6050    0.0000 C   0  0  0  0  0  0  0  0  0  0  0  0
   -0.0110    2.5980    0.0000 N   0  0  0  0  0  0  0  0  0  0  0  0
   -0.7560    1.2960    0.0000 C   0  0  0  0  0  0  0  0  0  0  0  0
   -2.2560    1.2890    0.0000 N   0  0  0  0  0  0  0  0  0  0  0  0
   -3.0110    2.5850    0.0000 C   0  0  0  0  0  0  0  0  0  0  0  0
   -2.2670    3.8870    0.0000 C   0  0  0  0  0  0  0  0  0  0  0  0
   -3.0230    5.1830    0.0000 C   0  0  0  0  0  0  0  0  0  0  0  0
   -4.5230    5.1760    0.0000 C   0  0  0  0  0  0  0  0  0  0  0  0
   -5.2670    3.8740    0.0000 C   0  0  0  0  0  0  0  0  0  0  0  0
   -4.5110    2.5780    0.0000 C   0  0  0  0  0  0  0  0  0  0  0  0
   -5.2780    6.4720    0.0000 C   0  0  0  0  0  0  0  0  0  0  0  0
   -6.0340    7.7680    0.0000 N   0  0  0  0  0  0  0  0  0  0  0  0
  1  2  1  0  0  0  0
  1 19  2  0  0  0  0
  2  3  1  0  0  0  0
  2 16  2  0  0  0  0
  3  4  1  0  0  0  0
  4  5  1  0  0  0  0
  4  9  2  0  0  0  0
  5  6  2  0  0  0  0
  5 15  1  0  0  0  0
  6  7  1  0  0  0  0
  7  8  2  0  0  0  0
  7 11  1  0  0  0  0
  8  9  1  0  0  0  0
  9 10  1  0  0  0  0
 11 12  2  3  0  0  0
 12 13  1  0  0  0  0
 13 14  3  0  0  0  0
 16 17  1  0  0  0  0
 17 18  2  0  0  0  0
 18 19  1  0  0  0  0
 19 20  1  0  0  0  0
 20 21  1  0  0  0  0
 21 22  1  0  0  0  0
 21 26  2  0  0  0  0
 22 23  2  0  0  0  0
 23 24  1  0  0  0  0
 24 25  2  0  0  0  0
 24 27  1  0  0  0  0
 25 26  1  0  0  0  0
 27 28  3  0  0  0  0
M  END
>  <Index>
947

>  <ID>
HT1824

>  <class>
0

>  <apol>
57.322273

>  <ast_fraglike>
0

>  <ast_fraglike_ext>
0

>  <ast_violation>
3

>  <ast_violation_ext>
4

>  <a_acc>
4

>  <a_acid>
0

>  <a_aro>
18

>  <a_base>
0

>  <a_count>
46

>  <a_don>
2

>  <a_donacc>
6

>  <a_heavy>
28

>  <a_hyd>
18

>  <a_IC>
65.407928

>  <a_ICM>
1.4219115

>  <a_nB>
0

>  <a_nBr>
0

>  <a_nC>
22

>  <a_nCl>
0

>  <a_nF>
0

>  <a_nH>
18

>  <a_nI>
0

>  <a_nN>
6

>  <a_nO>
0

>  <a_nP>
0

>  <a_nS>
0

>  <balabanJ>
1.4329538

>  <BCUT_PEOE_0>
-2.3851042

>  <BCUT_PEOE_1>
-0.64269167

>  <BCUT_PEOE_2>
0.69467735

>  <BCUT_PEOE_3>
2.3288944

>  <BCUT_SLOGP_0>
-2.2626488

>  <BCUT_SLOGP_1>
-0.53807992

>  <BCUT_SLOGP_2>
0.7684809

>  <BCUT_SLOGP_3>
2.4982588

>  <BCUT_SMR_0>
-2.0647712

>  <BCUT_SMR_1>
-0.45664555

>  <BCUT_SMR_2>
0.85431087

>  <BCUT_SMR_3>
2.6618869

>  <bpol>
24.957726

>  <b_1rotN>
5

>  <b_1rotR>
0.16666667

>  <b_ar>
18

>  <b_count>
48

>  <b_double>
1

>  <b_heavy>
30

>  <b_max1len>
2

>  <b_rotN>
7

>  <b_rotR>
0.23333333

>  <b_single>
27

>  <b_triple>
2

>  <chi0>
19.93251

>  <chi0v>
15.562357

>  <chi0v_C>
12.773502

>  <chi0_C>
15.104083

>  <chi1>
13.58405

>  <chi1v>
8.6349926

>  <chi1v_C>
6.25876

>  <chi1_C>
8.8120985

>  <chiral>
0

>  <chiral_u>
0

>  <density>
0.7102474

>  <diameter>
18

>  <FCharge>
0

>  <GCUT_PEOE_0>
-0.78388506

>  <GCUT_PEOE_1>
-0.47986281

>  <GCUT_PEOE_2>
0.082685202

>  <GCUT_PEOE_3>
2.5067129

>  <GCUT_SLOGP_0>
-0.89938664

>  <GCUT_SLOGP_1>
-0.30394891

>  <GCUT_SLOGP_2>
0.20019634

>  <GCUT_SLOGP_3>
2.6589515

>  <GCUT_SMR_0>
-0.4846575

>  <GCUT_SMR_1>
-0.21478216

>  <GCUT_SMR_2>
0.24058983

>  <GCUT_SMR_3>
2.819016

>  <Kier1>
22.68

>  <Kier2>
11.4075

>  <Kier3>
6.7600002

>  <KierA1>
14.142986

>  <KierA2>
6.9762168

>  <KierA3>
4.0768743

>  <KierFlex>
3.5237336

>  <lip_acc>
6

>  <lip_don>
2

>  <lip_druglike>
1

>  <lip_violation>
0

>  <logP(o/w)>
3.6960001

>  <logS>
-5.9699998

>  <mr>
10.932117

>  <mutagenic>
0

>  <nmol>
1

>  <opr_brigid>
19

>  <opr_leadlike>
1

>  <opr_nring>
3

>  <opr_nrot>
7

>  <opr_violation>
1

>  <PC+>
0

>  <PC->
0

>  <PEOE_PC+>
1.7668748

>  <PEOE_PC->
-1.7668748

>  <PEOE_RPC+>
0.11734582

>  <PEOE_RPC->
0.13716736

>  <PEOE_VSA+0>
67.992241

>  <PEOE_VSA+1>
85.461411

>  <PEOE_VSA+2>
28.428589

>  <PEOE_VSA+3>
0

>  <PEOE_VSA+4>
15.681574

>  <PEOE_VSA+5>
0

>  <PEOE_VSA+6>
0

>  <PEOE_VSA-0>
117.6504

>  <PEOE_VSA-1>
24.509808

>  <PEOE_VSA-2>
0

>  <PEOE_VSA-3>
35.484978

>  <PEOE_VSA-4>
11.638934

>  <PEOE_VSA-5>
0

>  <PEOE_VSA-6>
0

>  <PEOE_VSA_FHYD>
0.9293766

>  <PEOE_VSA_FNEG>
0.48929852

>  <PEOE_VSA_FPNEG>
0.030086588

>  <PEOE_VSA_FPOL>
0.070623383

>  <PEOE_VSA_FPOS>
0.51070148

>  <PEOE_VSA_FPPOS>
0.040536791

>  <PEOE_VSA_HYD>
359.52744

>  <PEOE_VSA_NEG>
189.28412

>  <PEOE_VSA_PNEG>
11.638934

>  <PEOE_VSA_POL>
27.320509

>  <PEOE_VSA_POS>
197.56381

>  <PEOE_VSA_PPOS>
15.681574

>  <petitjean>
0.5

>  <petitjeanSC>
1

>  <Q_PC+>
0

>  <Q_PC->
0

>  <Q_RPC+>
0

>  <Q_RPC->
0

>  <Q_VSA_FHYD>
1

>  <Q_VSA_FNEG>
0

>  <Q_VSA_FPNEG>
0

>  <Q_VSA_FPOL>
0

>  <Q_VSA_FPOS>
1

>  <Q_VSA_FPPOS>
0

>  <Q_VSA_HYD>
386.84793

>  <Q_VSA_NEG>
0

>  <Q_VSA_PNEG>
0

>  <Q_VSA_POL>
0

>  <Q_VSA_POS>
386.84793

>  <Q_VSA_PPOS>
0

>  <radius>
9

>  <reactive>
0

>  <rings>
3

>  <RPC+>
0

>  <RPC->
0

>  <rsynth>
1

>  <SlogP>
4.9891081

>  <SlogP_VSA0>
0

>  <SlogP_VSA1>
69.59256

>  <SlogP_VSA2>
0

>  <SlogP_VSA3>
95.322205

>  <SlogP_VSA4>
12.7423

>  <SlogP_VSA5>
0

>  <SlogP_VSA6>
0

>  <SlogP_VSA7>
158.35983

>  <SlogP_VSA8>
17.643185

>  <SlogP_VSA9>
76.39254

>  <SMR>
11.03174

>  <SMR_VSA0>
0

>  <SMR_VSA1>
95.689774

>  <SMR_VSA2>
0

>  <SMR_VSA3>
45.945793

>  <SMR_VSA4>
45.762009

>  <SMR_VSA5>
158.35983

>  <SMR_VSA6>
17.643185

>  <SMR_VSA7>
66.652031

>  <TPSA>
97.419998

>  <VAdjEq>
0.38983503

>  <VAdjMa>
5.9068904

>  <VDistEq>
3.8098438

>  <VDistMa>
9.2868052

>  <vdw_area>
386.84793

>  <vdw_vol>
515.91602

>  <vsa_acc>
46.850132

>  <vsa_acid>
0

>  <vsa_base>
0

>  <vsa_don>
11.365152

>  <vsa_hyd>
243.62611

>  <vsa_other>
67.471146

>  <vsa_pol>
58.215282

>  <Weight>
366.42798

>  <weinerPath>
2372

>  <weinerPol>
41

>  <zagreb>
140

$$$$