s1cccc1C(SC(C(=O)NCC(O)=O)C)=O
  MOE2013           2D

 17 17  0  0  1  0  0  0  0  0999 V2000
    0.0000    0.0000    0.0000 S   0  0  0  0  0  0  0  0  0  0  0  0
   -1.4670    0.3120    0.0000 C   0  0  0  0  0  0  0  0  0  0  0  0
   -2.2180   -0.9860    0.0000 C   0  0  0  0  0  0  0  0  0  0  0  0
   -1.2140   -2.1010    0.0000 C   0  0  0  0  0  0  0  0  0  0  0  0
    0.1560   -1.4920    0.0000 C   0  0  0  0  0  0  0  0  0  0  0  0
    1.4550   -2.2420    0.0000 C   0  0  0  0  0  0  0  0  0  0  0  0
    2.7540   -1.4930    0.0000 S   0  0  0  0  0  0  0  0  0  0  0  0
    4.0530   -2.2430    0.0000 C   0  0  3  0  0  0  0  0  0  0  0  0
    5.3520   -1.4940    0.0000 C   0  0  0  0  0  0  0  0  0  0  0  0
    5.3530    0.0060    0.0000 O   0  0  0  0  0  0  0  0  0  0  0  0
    6.6510   -2.2440    0.0000 N   0  0  0  0  0  0  0  0  0  0  0  0
    7.9500   -1.4950    0.0000 C   0  0  0  0  0  0  0  0  0  0  0  0
    9.2490   -2.2450    0.0000 C   0  0  0  0  0  0  0  0  0  0  0  0
   10.5490   -1.4960    0.0000 O   0  0  0  0  0  0  0  0  0  0  0  0
    9.2490   -3.7450    0.0000 O   0  0  0  0  0  0  0  0  0  0  0  0
    4.0530   -3.7430    0.0000 C   0  0  0  0  0  0  0  0  0  0  0  0
    1.4550   -3.7420    0.0000 O   0  0  0  0  0  0  0  0  0  0  0  0
  1  2  1  0  0  0  0
  1  5  1  0  0  0  0
  2  3  2  0  0  0  0
  3  4  1  0  0  0  0
  4  5  2  0  0  0  0
  5  6  1  0  0  0  0
  6  7  1  0  0  0  0
  6 17  2  0  0  0  0
  7  8  1  0  0  0  0
  8  9  1  0  0  0  0
  8 16  1  0  0  0  0
  9 10  2  0  0  0  0
  9 11  1  0  0  0  0
 11 12  1  0  0  0  0
 12 13  1  0  0  0  0
 13 14  1  0  0  0  0
 13 15  2  0  0  0  0
M  END
>  <Index>
998

>  <ID>
HT1916

>  <class>
0

>  <apol>
35.042725

>  <ast_fraglike>
0

>  <ast_fraglike_ext>
0

>  <ast_violation>
1

>  <ast_violation_ext>
2

>  <a_acc>
4

>  <a_acid>
0

>  <a_aro>
5

>  <a_base>
0

>  <a_count>
28

>  <a_don>
3

>  <a_donacc>
7

>  <a_heavy>
17

>  <a_hyd>
9

>  <a_IC>
53.332909

>  <a_ICM>
1.9047468

>  <a_nB>
0

>  <a_nBr>
0

>  <a_nC>
10

>  <a_nCl>
0

>  <a_nF>
0

>  <a_nH>
11

>  <a_nI>
0

>  <a_nN>
1

>  <a_nO>
4

>  <a_nP>
0

>  <a_nS>
2

>  <balabanJ>
2.2465079

>  <BCUT_PEOE_0>
-2.445322

>  <BCUT_PEOE_1>
-0.53355575

>  <BCUT_PEOE_2>
0.46214339

>  <BCUT_PEOE_3>
2.500771

>  <BCUT_SLOGP_0>
-2.6682007

>  <BCUT_SLOGP_1>
-0.48339713

>  <BCUT_SLOGP_2>
0.56495237

>  <BCUT_SLOGP_3>
2.4683161

>  <BCUT_SMR_0>
-2.174701

>  <BCUT_SMR_1>
-0.31137523

>  <BCUT_SMR_2>
0.62528366

>  <BCUT_SMR_3>
2.7966416

>  <bpol>
20.119276

>  <b_1rotN>
5

>  <b_1rotR>
0.29411766

>  <b_ar>
5

>  <b_count>
28

>  <b_double>
3

>  <b_heavy>
17

>  <b_max1len>
3

>  <b_rotN>
7

>  <b_rotR>
0.41176471

>  <b_single>
20

>  <b_triple>
0

>  <chi0>
12.836499

>  <chi0v>
10.637956

>  <chi0v_C>
6.0165076

>  <chi0_C>
6.7151785

>  <chi1>
8.0029078

>  <chi1v>
6.5034118

>  <chi1v_C>
2.4249206

>  <chi1_C>
3.0605135

>  <chiral>
1

>  <chiral_u>
1

>  <density>
0.89441442

>  <diameter>
10

>  <FCharge>
0

>  <GCUT_PEOE_0>
-0.81601852

>  <GCUT_PEOE_1>
-0.43476751

>  <GCUT_PEOE_2>
0.10266124

>  <GCUT_PEOE_3>
2.2329099

>  <GCUT_SLOGP_0>
-1.1633716

>  <GCUT_SLOGP_1>
-0.4238641

>  <GCUT_SLOGP_2>
0.12229967

>  <GCUT_SLOGP_3>
2.2648447

>  <GCUT_SMR_0>
-0.49395996

>  <GCUT_SMR_1>
-0.2182181

>  <GCUT_SMR_2>
0.23252797

>  <GCUT_SMR_3>
2.5404284

>  <Kier1>
15.058824

>  <Kier2>
7.4380164

>  <Kier3>
5.4444447

>  <KierA1>
13.483915

>  <KierA2>
6.6112752

>  <KierA3>
4.8110261

>  <KierFlex>
5.243875

>  <lip_acc>
5

>  <lip_don>
2

>  <lip_druglike>
1

>  <lip_violation>
0

>  <logP(o/w)>
1.279

>  <logS>
-3.0399201

>  <mr>
6.8418674

>  <mutagenic>
0

>  <nmol>
1

>  <opr_brigid>
5

>  <opr_leadlike>
1

>  <opr_nring>
1

>  <opr_nrot>
6

>  <opr_violation>
0

>  <PC+>
0

>  <PC->
0

>  <PEOE_PC+>
1.8759376

>  <PEOE_PC->
-1.8759376

>  <PEOE_RPC+>
0.14872141

>  <PEOE_RPC->
0.18433894

>  <PEOE_VSA+0>
17.061544

>  <PEOE_VSA+1>
21.957941

>  <PEOE_VSA+2>
13.192325

>  <PEOE_VSA+3>
28.379631

>  <PEOE_VSA+4>
33.708286

>  <PEOE_VSA+5>
14.708499

>  <PEOE_VSA+6>
0

>  <PEOE_VSA-0>
22.93228

>  <PEOE_VSA-1>
44.270424

>  <PEOE_VSA-2>
14.230966

>  <PEOE_VSA-3>
0

>  <PEOE_VSA-4>
0

>  <PEOE_VSA-5>
40.700764

>  <PEOE_VSA-6>
7.9044313

>  <PEOE_VSA_FHYD>
0.62546587

>  <PEOE_VSA_FNEG>
0.50198931

>  <PEOE_VSA_FPNEG>
0.18763073

>  <PEOE_VSA_FPOL>
0.37453413

>  <PEOE_VSA_FPOS>
0.49801072

>  <PEOE_VSA_FPPOS>
0.1869034

>  <PEOE_VSA_HYD>
162.02512

>  <PEOE_VSA_NEG>
130.03886

>  <PEOE_VSA_PNEG>
48.605194

>  <PEOE_VSA_POL>
97.02198

>  <PEOE_VSA_POS>
129.00822

>  <PEOE_VSA_PPOS>
48.416782

>  <petitjean>
0.5

>  <petitjeanSC>
1

>  <Q_PC+>
0

>  <Q_PC->
0

>  <Q_RPC+>
0

>  <Q_RPC->
0

>  <Q_VSA_FHYD>
1

>  <Q_VSA_FNEG>
0

>  <Q_VSA_FPNEG>
0

>  <Q_VSA_FPOL>
0

>  <Q_VSA_FPOS>
1

>  <Q_VSA_FPPOS>
0

>  <Q_VSA_HYD>
259.04709

>  <Q_VSA_NEG>
0

>  <Q_VSA_PNEG>
0

>  <Q_VSA_POL>
0

>  <Q_VSA_POS>
259.04709

>  <Q_VSA_PPOS>
0

>  <radius>
5

>  <reactive>
0

>  <rings>
1

>  <RPC+>
0

>  <RPC->
0

>  <rsynth>
1

>  <SlogP>
1.2108001

>  <SlogP_VSA0>
18.01075

>  <SlogP_VSA1>
17.057018

>  <SlogP_VSA2>
50.500389

>  <SlogP_VSA3>
43.824806

>  <SlogP_VSA4>
25.220617

>  <SlogP_VSA5>
0

>  <SlogP_VSA6>
0

>  <SlogP_VSA7>
51.102379

>  <SlogP_VSA8>
0

>  <SlogP_VSA9>
96.823242

>  <SMR>
6.6349001

>  <SMR_VSA0>
71.586647

>  <SMR_VSA1>
0

>  <SMR_VSA2>
43.395977

>  <SMR_VSA3>
4.1343565

>  <SMR_VSA4>
0

>  <SMR_VSA5>
51.102379

>  <SMR_VSA6>
35.496597

>  <SMR_VSA7>
96.823242

>  <TPSA>
83.470001

>  <VAdjEq>
0.52255934

>  <VAdjMa>
5.0874629

>  <VDistEq>
3.1743531

>  <VDistMa>
7.8494577

>  <vdw_area>
259.04709

>  <vdw_vol>
305.59995

>  <vsa_acc>
27.133842

>  <vsa_acid>
0

>  <vsa_base>
0

>  <vsa_don>
5.6825762

>  <vsa_hyd>
146.99994

>  <vsa_other>
38.092613

>  <vsa_pol>
59.95026

>  <Weight>
273.33301

>  <weinerPath>
593

>  <weinerPol>
19

>  <zagreb>
78

$$$$