O(CC)C(=O)[C@@H](N[C@H](C(=O)N1Cc2c(C[C@H]1C(O)=O)cccc2)C)CCc1ccccc1
  MOE2013           2D

 32 34  0  0  1  0  0  0  0  0999 V2000
    0.0000    0.0000    0.0000 O   0  0  0  0  0  0  0  0  0  0  0  0
    1.3050   -0.7400    0.0000 C   0  0  0  0  0  0  0  0  0  0  0  0
    2.5980    0.0200    0.0000 C   0  0  0  0  0  0  0  0  0  0  0  0
   -1.2930   -0.7600    0.0000 C   0  0  0  0  0  0  0  0  0  0  0  0
   -1.2810   -2.2600    0.0000 O   0  0  0  0  0  0  0  0  0  0  0  0
   -2.5980   -0.0200    0.0000 C   0  0  1  0  0  0  0  0  0  0  0  0
   -3.8910   -0.7810    0.0000 N   0  0  0  0  0  0  0  0  0  0  0  0
   -5.1960   -0.0410    0.0000 C   0  0  2  0  0  0  0  0  0  0  0  0
   -6.4890   -0.8010    0.0000 C   0  0  0  0  0  0  0  0  0  0  0  0
   -6.4770   -2.3010    0.0000 O   0  0  0  0  0  0  0  0  0  0  0  0
   -7.7940   -0.0610    0.0000 N   0  0  0  0  0  0  0  0  0  0  0  0
   -7.8060    1.4390    0.0000 C   0  0  0  0  0  0  0  0  0  0  0  0
   -9.1110    2.1780    0.0000 C   0  0  0  0  0  0  0  0  0  0  0  0
  -10.4040    1.4180    0.0000 C   0  0  0  0  0  0  0  0  0  0  0  0
  -10.3920   -0.0820    0.0000 C   0  0  0  0  0  0  0  0  0  0  0  0
   -9.0870   -0.8210    0.0000 C   0  0  1  0  0  0  0  0  0  0  0  0
   -9.0750   -2.3210    0.0000 C   0  0  0  0  0  0  0  0  0  0  0  0
   -7.7700   -3.0610    0.0000 O   0  0  0  0  0  0  0  0  0  0  0  0
  -10.3680   -3.0820    0.0000 O   0  0  0  0  0  0  0  0  0  0  0  0
  -11.7090    2.1580    0.0000 C   0  0  0  0  0  0  0  0  0  0  0  0
  -11.7200    3.6580    0.0000 C   0  0  0  0  0  0  0  0  0  0  0  0
  -10.4270    4.4180    0.0000 C   0  0  0  0  0  0  0  0  0  0  0  0
   -9.1220    3.6780    0.0000 C   0  0  0  0  0  0  0  0  0  0  0  0
   -5.2080    1.4590    0.0000 C   0  0  0  0  0  0  0  0  0  0  0  0
   -2.6100    1.4800    0.0000 C   0  0  0  0  0  0  0  0  0  0  0  0
   -1.3170    2.2400    0.0000 C   0  0  0  0  0  0  0  0  0  0  0  0
   -1.3280    3.7400    0.0000 C   0  0  0  0  0  0  0  0  0  0  0  0
   -2.6330    4.4790    0.0000 C   0  0  0  0  0  0  0  0  0  0  0  0
   -2.6450    5.9790    0.0000 C   0  0  0  0  0  0  0  0  0  0  0  0
   -1.3520    6.7400    0.0000 C   0  0  0  0  0  0  0  0  0  0  0  0
   -0.0470    6.0000    0.0000 C   0  0  0  0  0  0  0  0  0  0  0  0
   -0.0350    4.5000    0.0000 C   0  0  0  0  0  0  0  0  0  0  0  0
  1  2  1  0  0  0  0
  1  4  1  0  0  0  0
  2  3  1  0  0  0  0
  4  5  2  0  0  0  0
  6  4  1  1  0  0  0
  6  7  1  0  0  0  0
  6 25  1  0  0  0  0
  7  8  1  0  0  0  0
  8  9  1  0  0  0  0
  8 24  1  6  0  0  0
  9 10  2  0  0  0  0
  9 11  1  0  0  0  0
 11 12  1  0  0  0  0
 11 16  1  0  0  0  0
 12 13  1  0  0  0  0
 13 14  2  0  0  0  0
 13 23  1  0  0  0  0
 14 15  1  0  0  0  0
 14 20  1  0  0  0  0
 15 16  1  0  0  0  0
 16 17  1  6  0  0  0
 17 18  1  0  0  0  0
 17 19  2  0  0  0  0
 20 21  2  0  0  0  0
 21 22  1  0  0  0  0
 22 23  2  0  0  0  0
 25 26  1  0  0  0  0
 26 27  1  0  0  0  0
 27 28  1  0  0  0  0
 27 32  2  0  0  0  0
 28 29  2  0  0  0  0
 29 30  1  0  0  0  0
 30 31  2  0  0  0  0
 31 32  1  0  0  0  0
M  END
>  <Index>
923

>  <ID>
HT1787

>  <class>
0

>  <apol>
70.213791

>  <ast_fraglike>
0

>  <ast_fraglike_ext>
0

>  <ast_violation>
2

>  <ast_violation_ext>
3

>  <a_acc>
5

>  <a_acid>
0

>  <a_aro>
12

>  <a_base>
0

>  <a_count>
62

>  <a_don>
3

>  <a_donacc>
8

>  <a_heavy>
32

>  <a_hyd>
22

>  <a_IC>
92.247406

>  <a_ICM>
1.4878614

>  <a_nB>
0

>  <a_nBr>
0

>  <a_nC>
25

>  <a_nCl>
0

>  <a_nF>
0

>  <a_nH>
30

>  <a_nI>
0

>  <a_nN>
2

>  <a_nO>
5

>  <a_nP>
0

>  <a_nS>
0

>  <balabanJ>
1.61268

>  <BCUT_PEOE_0>
-2.6651802

>  <BCUT_PEOE_1>
-0.52476841

>  <BCUT_PEOE_2>
0.58691519

>  <BCUT_PEOE_3>
2.6696117

>  <BCUT_SLOGP_0>
-2.828521

>  <BCUT_SLOGP_1>
-0.4580406

>  <BCUT_SLOGP_2>
0.63929456

>  <BCUT_SLOGP_3>
2.6036787

>  <BCUT_SMR_0>
-2.4023335

>  <BCUT_SMR_1>
-0.39733952

>  <BCUT_SMR_2>
0.72012782

>  <BCUT_SMR_3>
2.9252439

>  <bpol>
40.226212

>  <b_1rotN>
10

>  <b_1rotR>
0.29411766

>  <b_ar>
12

>  <b_count>
64

>  <b_double>
3

>  <b_heavy>
34

>  <b_max1len>
7

>  <b_rotN>
11

>  <b_rotR>
0.32352942

>  <b_single>
49

>  <b_triple>
0

>  <chi0>
23.087212

>  <chi0v>
18.491158

>  <chi0v_C>
15.463737

>  <chi0_C>
17.095648

>  <chi1>
15.401086

>  <chi1v>
10.969835

>  <chi1v_C>
8.2656727

>  <chi1_C>
10.292025

>  <chiral>
3

>  <chiral_u>
0

>  <density>
0.72550803

>  <diameter>
15

>  <FCharge>
0

>  <GCUT_PEOE_0>
-0.82246977

>  <GCUT_PEOE_1>
-0.38718373

>  <GCUT_PEOE_2>
0.06158768

>  <GCUT_PEOE_3>
2.8628545

>  <GCUT_SLOGP_0>
-1.1549653

>  <GCUT_SLOGP_1>
-0.32407585

>  <GCUT_SLOGP_2>
0.11834808

>  <GCUT_SLOGP_3>
2.8489535

>  <GCUT_SMR_0>
-0.51983047

>  <GCUT_SMR_1>
-0.20995764

>  <GCUT_SMR_2>
0.16422886

>  <GCUT_SMR_3>
3.108444

>  <Kier1>
26.602076

>  <Kier2>
13.185255

>  <Kier3>
7.4978456

>  <KierA1>
20.448656

>  <KierA2>
10.043689

>  <KierA3>
5.6748672

>  <KierFlex>
6.4181237

>  <lip_acc>
7

>  <lip_don>
2

>  <lip_druglike>
1

>  <lip_violation>
0

>  <logP(o/w)>
3.5539999

>  <logS>
-4.4654002

>  <mr>
12.324724

>  <mutagenic>
0

>  <nmol>
1

>  <opr_brigid>
17

>  <opr_leadlike>
1

>  <opr_nring>
3

>  <opr_nrot>
10

>  <opr_violation>
0

>  <PC+>
0

>  <PC->
0

>  <PEOE_PC+>
2.843797

>  <PEOE_PC->
-2.843797

>  <PEOE_RPC+>
0.099417366

>  <PEOE_RPC->
0.11593942

>  <PEOE_VSA+0>
73.07827

>  <PEOE_VSA+1>
89.489388

>  <PEOE_VSA+2>
11.764974

>  <PEOE_VSA+3>
0

>  <PEOE_VSA+4>
23.273705

>  <PEOE_VSA+5>
29.416998

>  <PEOE_VSA+6>
0

>  <PEOE_VSA-0>
61.523602

>  <PEOE_VSA-1>
110.29414

>  <PEOE_VSA-2>
0

>  <PEOE_VSA-3>
0

>  <PEOE_VSA-4>
0

>  <PEOE_VSA-5>
40.837654

>  <PEOE_VSA-6>
10.271297

>  <PEOE_VSA_FHYD>
0.76930851

>  <PEOE_VSA_FNEG>
0.49544767

>  <PEOE_VSA_FPNEG>
0.11358806

>  <PEOE_VSA_FPOL>
0.23069151

>  <PEOE_VSA_FPOS>
0.50455236

>  <PEOE_VSA_FPPOS>
0.11710346

>  <PEOE_VSA_HYD>
346.15036

>  <PEOE_VSA_NEG>
222.92668

>  <PEOE_VSA_PNEG>
51.108952

>  <PEOE_VSA_POL>
103.79965

>  <PEOE_VSA_POS>
227.02333

>  <PEOE_VSA_PPOS>
52.690701

>  <petitjean>
0.46666667

>  <petitjeanSC>
0.875

>  <Q_PC+>
0

>  <Q_PC->
0

>  <Q_RPC+>
0

>  <Q_RPC->
0

>  <Q_VSA_FHYD>
1

>  <Q_VSA_FNEG>
0

>  <Q_VSA_FPNEG>
0

>  <Q_VSA_FPOL>
0

>  <Q_VSA_FPOS>
1

>  <Q_VSA_FPPOS>
0

>  <Q_VSA_HYD>
449.95001

>  <Q_VSA_NEG>
0

>  <Q_VSA_PNEG>
0

>  <Q_VSA_POL>
0

>  <Q_VSA_POS>
449.95001

>  <Q_VSA_PPOS>
0

>  <radius>
8

>  <reactive>
0

>  <rings>
3

>  <RPC+>
0

>  <RPC->
0

>  <rsynth>
1

>  <SlogP>
2.8334401

>  <SlogP_VSA0>
18.01075

>  <SlogP_VSA1>
23.874025

>  <SlogP_VSA2>
94.53244

>  <SlogP_VSA3>
46.311485

>  <SlogP_VSA4>
9.5567245

>  <SlogP_VSA5>
37.736813

>  <SlogP_VSA6>
0

>  <SlogP_VSA7>
158.78867

>  <SlogP_VSA8>
18.868406

>  <SlogP_VSA9>
85.091606

>  <SMR>
12.01065

>  <SMR_VSA0>
82.58654

>  <SMR_VSA1>
3.1243138

>  <SMR_VSA2>
43.395977

>  <SMR_VSA3>
21.50263

>  <SMR_VSA4>
0

>  <SMR_VSA5>
233.83345

>  <SMR_VSA6>
41.675972

>  <SMR_VSA7>
66.652031

>  <TPSA>
95.940002

>  <VAdjEq>
0.35236704

>  <VAdjMa>
6.0874629

>  <VDistEq>
3.6662519

>  <VDistMa>
9.728898

>  <vdw_area>
449.95001

>  <vdw_vol>
604.43713

>  <vsa_acc>
27.133842

>  <vsa_acid>
0

>  <vsa_base>
0

>  <vsa_don>
0

>  <vsa_hyd>
317.60107

>  <vsa_other>
44.870285

>  <vsa_pol>
59.95026

>  <Weight>
438.52399

>  <weinerPath>
3064

>  <weinerPol>
50

>  <zagreb>
160

$$$$