S(CC[C@H](NC(=O)[C@@H](NC(=O)[C@@H](N)CC(O)=O)Cc1ccc(OS(O)(=O)=O)cc1)C(=O)NCC(=O)N[C@@H](Cc1c2c([nH]c1)cccc2)C(=O)N[C@@H](CCSC)C(=O)N[C@@H](CC(O)=O)C(=O)N[C@@H](Cc1ccccc1)C(=O)N)C
  MOE2013           2D

 78 81  0  0  1  0  0  0  0  0999 V2000
    0.0000    0.0000    0.0000 S   0  0  0  0  0  0  0  0  0  0  0  0
    0.7510    1.2980    0.0000 C   0  0  0  0  0  0  0  0  0  0  0  0
    0.0020    2.5980    0.0000 C   0  0  0  0  0  0  0  0  0  0  0  0
    0.7530    3.8960    0.0000 C   0  0  2  0  0  0  0  0  0  0  0  0
    0.0040    5.1960    0.0000 N   0  0  0  0  0  0  0  0  0  0  0  0
   -1.4960    5.1970    0.0000 C   0  0  0  0  0  0  0  0  0  0  0  0
   -2.2470    3.8990    0.0000 O   0  0  0  0  0  0  0  0  0  0  0  0
   -2.2450    6.4970    0.0000 C   0  0  1  0  0  0  0  0  0  0  0  0
   -3.7450    6.4980    0.0000 N   0  0  0  0  0  0  0  0  0  0  0  0
   -4.4960    5.2000    0.0000 C   0  0  0  0  0  0  0  0  0  0  0  0
   -3.7470    3.9000    0.0000 O   0  0  0  0  0  0  0  0  0  0  0  0
   -5.9960    5.2010    0.0000 C   0  0  1  0  0  0  0  0  0  0  0  0
   -6.7450    6.5010    0.0000 N   0  0  0  0  0  0  0  0  0  0  0  0
   -6.7470    3.9030    0.0000 C   0  0  0  0  0  0  0  0  0  0  0  0
   -8.2470    3.9040    0.0000 C   0  0  0  0  0  0  0  0  0  0  0  0
   -8.9960    5.2040    0.0000 O   0  0  0  0  0  0  0  0  0  0  0  0
   -8.9980    2.6060    0.0000 O   0  0  0  0  0  0  0  0  0  0  0  0
   -1.4930    7.7950    0.0000 C   0  0  0  0  0  0  0  0  0  0  0  0
   -2.2420    9.0950    0.0000 C   0  0  0  0  0  0  0  0  0  0  0  0
   -1.4910   10.3940    0.0000 C   0  0  0  0  0  0  0  0  0  0  0  0
   -2.2400   11.6930    0.0000 C   0  0  0  0  0  0  0  0  0  0  0  0
   -3.7400   11.6950    0.0000 C   0  0  0  0  0  0  0  0  0  0  0  0
   -4.4890   12.9940    0.0000 O   0  0  0  0  0  0  0  0  0  0  0  0
   -3.7380   14.2930    0.0000 S   0  0  0  0  0  0  0  0  0  0  0  0
   -2.9870   15.5910    0.0000 O   0  0  0  0  0  0  0  0  0  0  0  0
   -2.4400   13.5410    0.0000 O   0  0  0  0  0  0  0  0  0  0  0  0
   -5.0360   15.0440    0.0000 O   0  0  0  0  0  0  0  0  0  0  0  0
   -4.4910   10.3960    0.0000 C   0  0  0  0  0  0  0  0  0  0  0  0
   -3.7420    9.0960    0.0000 C   0  0  0  0  0  0  0  0  0  0  0  0
    2.2530    3.8950    0.0000 C   0  0  0  0  0  0  0  0  0  0  0  0
    3.0040    5.1940    0.0000 O   0  0  0  0  0  0  0  0  0  0  0  0
    3.0020    2.5960    0.0000 N   0  0  0  0  0  0  0  0  0  0  0  0
    4.5020    2.5940    0.0000 C   0  0  0  0  0  0  0  0  0  0  0  0
    5.2510    1.2950    0.0000 C   0  0  0  0  0  0  0  0  0  0  0  0
    4.5000   -0.0040    0.0000 O   0  0  0  0  0  0  0  0  0  0  0  0
    6.7510    1.2930    0.0000 N   0  0  0  0  0  0  0  0  0  0  0  0
    7.5020    2.5920    0.0000 C   0  0  1  0  0  0  0  0  0  0  0  0
    6.7530    3.8910    0.0000 C   0  0  0  0  0  0  0  0  0  0  0  0
    7.5040    5.1900    0.0000 C   0  0  0  0  0  0  0  0  0  0  0  0
    6.8950    6.5610    0.0000 C   0  0  0  0  0  0  0  0  0  0  0  0
    8.0110    7.5630    0.0000 C   0  0  0  0  0  0  0  0  0  0  0  0
    9.3090    6.8120    0.0000 N   0  0  0  0  0  0  0  0  0  0  0  0
    8.9960    5.3450    0.0000 C   0  0  0  0  0  0  0  0  0  0  0  0
    7.7000    9.0310    0.0000 C   0  0  0  0  0  0  0  0  0  0  0  0
    6.2740    9.4960    0.0000 C   0  0  0  0  0  0  0  0  0  0  0  0
    5.1590    8.4930    0.0000 C   0  0  0  0  0  0  0  0  0  0  0  0
    5.4690    7.0250    0.0000 C   0  0  0  0  0  0  0  0  0  0  0  0
    9.0020    2.5900    0.0000 C   0  0  0  0  0  0  0  0  0  0  0  0
    9.7510    1.2910    0.0000 O   0  0  0  0  0  0  0  0  0  0  0  0
    9.7530    3.8890    0.0000 N   0  0  0  0  0  0  0  0  0  0  0  0
   11.2530    3.8880    0.0000 C   0  0  1  0  0  0  0  0  0  0  0  0
   12.0040    5.1860    0.0000 C   0  0  0  0  0  0  0  0  0  0  0  0
   13.5040    5.1850    0.0000 C   0  0  0  0  0  0  0  0  0  0  0  0
   14.2550    6.4830    0.0000 S   0  0  0  0  0  0  0  0  0  0  0  0
   13.5070    7.7830    0.0000 C   0  0  0  0  0  0  0  0  0  0  0  0
   12.0020    2.5880    0.0000 C   0  0  0  0  0  0  0  0  0  0  0  0
   11.2510    1.2900    0.0000 O   0  0  0  0  0  0  0  0  0  0  0  0
   13.5020    2.5870    0.0000 N   0  0  0  0  0  0  0  0  0  0  0  0
   14.2510    1.2870    0.0000 C   0  0  1  0  0  0  0  0  0  0  0  0
   13.5000   -0.0110    0.0000 C   0  0  0  0  0  0  0  0  0  0  0  0
   14.2490   -1.3110    0.0000 C   0  0  0  0  0  0  0  0  0  0  0  0
   15.7490   -1.3120    0.0000 O   0  0  0  0  0  0  0  0  0  0  0  0
   13.4980   -2.6090    0.0000 O   0  0  0  0  0  0  0  0  0  0  0  0
   15.7510    1.2860    0.0000 C   0  0  0  0  0  0  0  0  0  0  0  0
   16.5000   -0.0140    0.0000 O   0  0  0  0  0  0  0  0  0  0  0  0
   16.5020    2.5840    0.0000 N   0  0  0  0  0  0  0  0  0  0  0  0
   18.0020    2.5830    0.0000 C   0  0  1  0  0  0  0  0  0  0  0  0
   18.7510    1.2830    0.0000 C   0  0  0  0  0  0  0  0  0  0  0  0
   20.2510    1.2820    0.0000 C   0  0  0  0  0  0  0  0  0  0  0  0
   21.0000   -0.0180    0.0000 C   0  0  0  0  0  0  0  0  0  0  0  0
   22.5000   -0.0190    0.0000 C   0  0  0  0  0  0  0  0  0  0  0  0
   23.2510    1.2790    0.0000 C   0  0  0  0  0  0  0  0  0  0  0  0
   22.5020    2.5790    0.0000 C   0  0  0  0  0  0  0  0  0  0  0  0
   21.0020    2.5800    0.0000 C   0  0  0  0  0  0  0  0  0  0  0  0
   18.7530    3.8810    0.0000 C   0  0  0  0  0  0  0  0  0  0  0  0
   20.2530    3.8800    0.0000 O   0  0  0  0  0  0  0  0  0  0  0  0
   18.0040    5.1810    0.0000 N   0  0  0  0  0  0  0  0  0  0  0  0
    0.7490   -1.3000    0.0000 C   0  0  0  0  0  0  0  0  0  0  0  0
  1  2  1  0  0  0  0
  1 78  1  0  0  0  0
  2  3  1  0  0  0  0
  4  3  1  6  0  0  0
  4  5  1  0  0  0  0
  4 30  1  0  0  0  0
  5  6  1  0  0  0  0
  6  7  2  0  0  0  0
  8  6  1  1  0  0  0
  8  9  1  0  0  0  0
  8 18  1  0  0  0  0
  9 10  1  0  0  0  0
 10 11  2  0  0  0  0
 10 12  1  0  0  0  0
 12 13  1  6  0  0  0
 12 14  1  0  0  0  0
 14 15  1  0  0  0  0
 15 16  1  0  0  0  0
 15 17  2  0  0  0  0
 18 19  1  0  0  0  0
 19 20  1  0  0  0  0
 19 29  2  0  0  0  0
 20 21  2  0  0  0  0
 21 22  1  0  0  0  0
 22 23  1  0  0  0  0
 22 28  2  0  0  0  0
 23 24  1  0  0  0  0
 24 25  1  0  0  0  0
 24 26  2  0  0  0  0
 24 27  2  0  0  0  0
 28 29  1  0  0  0  0
 30 31  2  0  0  0  0
 30 32  1  0  0  0  0
 32 33  1  0  0  0  0
 33 34  1  0  0  0  0
 34 35  2  0  0  0  0
 34 36  1  0  0  0  0
 37 36  1  1  0  0  0
 37 38  1  0  0  0  0
 37 48  1  0  0  0  0
 38 39  1  0  0  0  0
 39 40  1  0  0  0  0
 39 43  2  0  0  0  0
 40 41  2  0  0  0  0
 40 47  1  0  0  0  0
 41 42  1  0  0  0  0
 41 44  1  0  0  0  0
 42 43  1  0  0  0  0
 44 45  2  0  0  0  0
 45 46  1  0  0  0  0
 46 47  2  0  0  0  0
 48 49  2  0  0  0  0
 48 50  1  0  0  0  0
 51 50  1  1  0  0  0
 51 52  1  0  0  0  0
 51 56  1  0  0  0  0
 52 53  1  0  0  0  0
 53 54  1  0  0  0  0
 54 55  1  0  0  0  0
 56 57  2  0  0  0  0
 56 58  1  0  0  0  0
 59 58  1  6  0  0  0
 59 60  1  0  0  0  0
 59 64  1  0  0  0  0
 60 61  1  0  0  0  0
 61 62  1  0  0  0  0
 61 63  2  0  0  0  0
 64 65  2  0  0  0  0
 64 66  1  0  0  0  0
 67 66  1  6  0  0  0
 67 68  1  0  0  0  0
 67 75  1  0  0  0  0
 68 69  1  0  0  0  0
 69 70  1  0  0  0  0
 69 74  2  0  0  0  0
 70 71  2  0  0  0  0
 71 72  1  0  0  0  0
 72 73  2  0  0  0  0
 73 74  1  0  0  0  0
 75 76  2  0  0  0  0
 75 77  1  0  0  0  0
M  END
>  <Index>
982

>  <ID>
HT1890

>  <class>
0

>  <apol>
160.11316

>  <ast_fraglike>
0

>  <ast_fraglike_ext>
0

>  <ast_violation>
3

>  <ast_violation_ext>
5

>  <a_acc>
17

>  <a_acid>
0

>  <a_aro>
21

>  <a_base>
0

>  <a_count>
140

>  <a_don>
17

>  <a_donacc>
34

>  <a_heavy>
78

>  <a_hyd>
41

>  <a_IC>
251.8445

>  <a_ICM>
1.7988893

>  <a_nB>
0

>  <a_nBr>
0

>  <a_nC>
49

>  <a_nCl>
0

>  <a_nF>
0

>  <a_nH>
62

>  <a_nI>
0

>  <a_nN>
10

>  <a_nO>
16

>  <a_nP>
0

>  <a_nS>
3

>  <balabanJ>
1.476764

>  <BCUT_PEOE_0>
-2.6189506

>  <BCUT_PEOE_1>
-0.53561014

>  <BCUT_PEOE_2>
0.56592

>  <BCUT_PEOE_3>
2.6493657

>  <BCUT_SLOGP_0>
-2.870738

>  <BCUT_SLOGP_1>
-0.52994978

>  <BCUT_SLOGP_2>
0.65244353

>  <BCUT_SLOGP_3>
2.5535302

>  <BCUT_SMR_0>
-2.3531706

>  <BCUT_SMR_1>
-0.37002319

>  <BCUT_SMR_2>
0.70971519

>  <BCUT_SMR_3>
2.907047

>  <bpol>
94.270836

>  <b_1rotN>
33

>  <b_1rotR>
0.4074074

>  <b_ar>
22

>  <b_count>
143

>  <b_double>
10

>  <b_heavy>
81

>  <b_max1len>
7

>  <b_rotN>
40

>  <b_rotR>
0.49382716

>  <b_single>
111

>  <b_triple>
0

>  <chi0>
57.527794

>  <chi0v>
44.673225

>  <chi0v_C>
29.195423

>  <chi0_C>
32.249619

>  <chi1>
36.955856

>  <chi1v>
28.015991

>  <chi1v_C>
14.09786

>  <chi1_C>
17.481462

>  <chiral>
7

>  <chiral_u>
0

>  <density>
0.82456863

>  <diameter>
31

>  <FCharge>
0

>  <GCUT_PEOE_0>
-0.86279231

>  <GCUT_PEOE_1>
-0.38890401

>  <GCUT_PEOE_2>
0.076992907

>  <GCUT_PEOE_3>
3.0749896

>  <GCUT_SLOGP_0>
-1.3706774

>  <GCUT_SLOGP_1>
-0.41686451

>  <GCUT_SLOGP_2>
0.15311821

>  <GCUT_SLOGP_3>
2.999645

>  <GCUT_SMR_0>
-0.51024288

>  <GCUT_SMR_1>
-0.22682311

>  <GCUT_SMR_2>
0.20087019

>  <GCUT_SMR_3>
3.3279834

>  <Kier1>
70.486511

>  <Kier2>
36.756363

>  <Kier3>
26.44043

>  <KierA1>
56.18494

>  <KierA2>
29.208242

>  <KierA3>
20.966545

>  <KierFlex>
21.039274

>  <lip_acc>
26

>  <lip_don>
15

>  <lip_druglike>
0

>  <lip_violation>
3

>  <logP(o/w)>
-0.90799999

>  <logS>
-8.8721304

>  <mr>
28.968132

>  <mutagenic>
0

>  <nmol>
1

>  <opr_brigid>
22

>  <opr_leadlike>
0

>  <opr_nring>
4

>  <opr_nrot>
33

>  <opr_violation>
4

>  <PC+>
0

>  <PC->
0

>  <PEOE_PC+>
8.5565262

>  <PEOE_PC->
-8.5565262

>  <PEOE_RPC+>
0.031806652

>  <PEOE_RPC->
0.043023806

>  <PEOE_VSA+0>
154.12721

>  <PEOE_VSA+1>
140.30331

>  <PEOE_VSA+2>
46.437962

>  <PEOE_VSA+3>
86.190132

>  <PEOE_VSA+4>
124.24459

>  <PEOE_VSA+5>
45.929764

>  <PEOE_VSA+6>
0

>  <PEOE_VSA-0>
123.59518

>  <PEOE_VSA-1>
154.56557

>  <PEOE_VSA-2>
0

>  <PEOE_VSA-3>
44.466331

>  <PEOE_VSA-4>
10.208881

>  <PEOE_VSA-5>
135.6692

>  <PEOE_VSA-6>
29.932447

>  <PEOE_VSA_FHYD>
0.68422544

>  <PEOE_VSA_FNEG>
0.45491558

>  <PEOE_VSA_FPNEG>
0.16045929

>  <PEOE_VSA_FPOL>
0.31577456

>  <PEOE_VSA_FPOS>
0.54508442

>  <PEOE_VSA_FPPOS>
0.15531525

>  <PEOE_VSA_HYD>
749.68567

>  <PEOE_VSA_NEG>
498.43762

>  <PEOE_VSA_PNEG>
175.81053

>  <PEOE_VSA_POL>
345.98489

>  <PEOE_VSA_POS>
597.23297

>  <PEOE_VSA_PPOS>
170.17436

>  <petitjean>
0.48387095

>  <petitjeanSC>
0.9375

>  <Q_PC+>
0

>  <Q_PC->
0

>  <Q_RPC+>
0

>  <Q_RPC->
0

>  <Q_VSA_FHYD>
1

>  <Q_VSA_FNEG>
0

>  <Q_VSA_FPNEG>
0

>  <Q_VSA_FPOL>
0

>  <Q_VSA_FPOS>
1

>  <Q_VSA_FPPOS>
0

>  <Q_VSA_HYD>
1095.6705

>  <Q_VSA_NEG>
0

>  <Q_VSA_PNEG>
0

>  <Q_VSA_POL>
0

>  <Q_VSA_POS>
1095.6705

>  <Q_VSA_PPOS>
0

>  <radius>
16

>  <reactive>
0

>  <rings>
4

>  <RPC+>
0

>  <RPC->
0

>  <rsynth>
1

>  <SlogP>
-1.89519

>  <SlogP_VSA0>
223.34579

>  <SlogP_VSA1>
105.73289

>  <SlogP_VSA2>
293.56851

>  <SlogP_VSA3>
103.67716

>  <SlogP_VSA4>
9.5567245

>  <SlogP_VSA5>
119.98756

>  <SlogP_VSA6>
0

>  <SlogP_VSA7>
251.29286

>  <SlogP_VSA8>
75.473625

>  <SlogP_VSA9>
69.68251

>  <SMR>
28.63306

>  <SMR_VSA0>
286.79385

>  <SMR_VSA1>
31.476166

>  <SMR_VSA2>
193.63124

>  <SMR_VSA3>
42.673935

>  <SMR_VSA4>
70.511475

>  <SMR_VSA5>
378.6546

>  <SMR_VSA6>
110.4679

>  <SMR_VSA7>
138.10846

>  <TPSA>
426.79999

>  <VAdjEq>
0.17718469

>  <VAdjMa>
7.3398499

>  <VDistEq>
4.7066641

>  <VDistMa>
12.312852

>  <vdw_area>
1095.6705

>  <vdw_vol>
1386.5273

>  <vsa_acc>
113.48046

>  <vsa_acid>
0

>  <vsa_base>
0

>  <vsa_don>
63.203098

>  <vsa_hyd>
565.51733

>  <vsa_other>
149.52602

>  <vsa_pol>
296.71851

>  <Weight>
1143.287

>  <weinerPath>
36715

>  <weinerPol>
114

>  <zagreb>
382

$$$$