S1CCSC12C[C@H](N(C2)C(=O)[C@@H](N[C@@H](CCc1ccccc1)C(OCC)=O)C)C(O)=O
  MOE2013           2D

 31 33  0  0  1  0  0  0  0  0999 V2000
    0.0000    0.0000    0.0000 S   0  0  0  0  0  0  0  0  0  0  0  0
   -0.6100   -1.3700    0.0000 C   0  0  0  0  0  0  0  0  0  0  0  0
   -2.1020   -1.2140    0.0000 C   0  0  0  0  0  0  0  0  0  0  0  0
   -2.4140    0.2530    0.0000 S   0  0  0  0  0  0  0  0  0  0  0  0
   -1.1150    1.0040    0.0000 C   0  0  0  0  0  0  0  0  0  0  0  0
   -2.2300    2.0070    0.0000 C   0  0  0  0  0  0  0  0  0  0  0  0
   -1.6200    3.3770    0.0000 C   0  0  2  0  0  0  0  0  0  0  0  0
   -0.1280    3.2210    0.0000 N   0  0  0  0  0  0  0  0  0  0  0  0
    0.1840    1.7540    0.0000 C   0  0  0  0  0  0  0  0  0  0  0  0
    0.8760    4.3360    0.0000 C   0  0  0  0  0  0  0  0  0  0  0  0
    0.4120    5.7620    0.0000 O   0  0  0  0  0  0  0  0  0  0  0  0
    2.3430    4.0240    0.0000 C   0  0  1  0  0  0  0  0  0  0  0  0
    3.3460    5.1390    0.0000 N   0  0  0  0  0  0  0  0  0  0  0  0
    4.8140    4.8270    0.0000 C   0  0  1  0  0  0  0  0  0  0  0  0
    5.2770    3.4010    0.0000 C   0  0  0  0  0  0  0  0  0  0  0  0
    6.7450    3.0890    0.0000 C   0  0  0  0  0  0  0  0  0  0  0  0
    7.2080    1.6630    0.0000 C   0  0  0  0  0  0  0  0  0  0  0  0
    6.2050    0.5480    0.0000 C   0  0  0  0  0  0  0  0  0  0  0  0
    6.6690   -0.8790    0.0000 C   0  0  0  0  0  0  0  0  0  0  0  0
    8.1360   -1.1900    0.0000 C   0  0  0  0  0  0  0  0  0  0  0  0
    9.1390   -0.0760    0.0000 C   0  0  0  0  0  0  0  0  0  0  0  0
    8.6760    1.3510    0.0000 C   0  0  0  0  0  0  0  0  0  0  0  0
    5.8170    5.9420    0.0000 C   0  0  0  0  0  0  0  0  0  0  0  0
    5.3530    7.3690    0.0000 O   0  0  0  0  0  0  0  0  0  0  0  0
    6.3570    8.4840    0.0000 C   0  0  0  0  0  0  0  0  0  0  0  0
    5.8930    9.9100    0.0000 C   0  0  0  0  0  0  0  0  0  0  0  0
    7.2840    5.6310    0.0000 O   0  0  0  0  0  0  0  0  0  0  0  0
    2.8070    2.5980    0.0000 C   0  0  0  0  0  0  0  0  0  0  0  0
   -2.3700    4.6760    0.0000 C   0  0  0  0  0  0  0  0  0  0  0  0
   -3.8700    4.6760    0.0000 O   0  0  0  0  0  0  0  0  0  0  0  0
   -1.6200    5.9760    0.0000 O   0  0  0  0  0  0  0  0  0  0  0  0
  1  2  1  0  0  0  0
  1  5  1  0  0  0  0
  2  3  1  0  0  0  0
  3  4  1  0  0  0  0
  4  5  1  0  0  0  0
  5  6  1  0  0  0  0
  5  9  1  0  0  0  0
  6  7  1  0  0  0  0
  7  8  1  0  0  0  0
  7 29  1  1  0  0  0
  8  9  1  0  0  0  0
  8 10  1  0  0  0  0
 10 11  2  0  0  0  0
 10 12  1  0  0  0  0
 12 13  1  0  0  0  0
 12 28  1  1  0  0  0
 13 14  1  0  0  0  0
 14 15  1  6  0  0  0
 14 23  1  0  0  0  0
 15 16  1  0  0  0  0
 16 17  1  0  0  0  0
 17 18  1  0  0  0  0
 17 22  2  0  0  0  0
 18 19  2  0  0  0  0
 19 20  1  0  0  0  0
 20 21  2  0  0  0  0
 21 22  1  0  0  0  0
 23 24  1  0  0  0  0
 23 27  2  0  0  0  0
 24 25  1  0  0  0  0
 25 26  1  0  0  0  0
 29 30  1  0  0  0  0
 29 31  2  0  0  0  0
M  END
>  <Index>
996

>  <ID>
HT1912

>  <class>
0

>  <apol>
70.733788

>  <ast_fraglike>
0

>  <ast_fraglike_ext>
0

>  <ast_violation>
2

>  <ast_violation_ext>
3

>  <a_acc>
5

>  <a_acid>
0

>  <a_aro>
6

>  <a_base>
0

>  <a_count>
61

>  <a_don>
3

>  <a_donacc>
8

>  <a_heavy>
31

>  <a_hyd>
21

>  <a_IC>
100.85112

>  <a_ICM>
1.6532971

>  <a_nB>
0

>  <a_nBr>
0

>  <a_nC>
22

>  <a_nCl>
0

>  <a_nF>
0

>  <a_nH>
30

>  <a_nI>
0

>  <a_nN>
2

>  <a_nO>
5

>  <a_nP>
0

>  <a_nS>
2

>  <balabanJ>
1.6071371

>  <BCUT_PEOE_0>
-2.6334357

>  <BCUT_PEOE_1>
-0.51627588

>  <BCUT_PEOE_2>
0.57930511

>  <BCUT_PEOE_3>
2.8020108

>  <BCUT_SLOGP_0>
-2.8204131

>  <BCUT_SLOGP_1>
-0.46858668

>  <BCUT_SLOGP_2>
0.55952555

>  <BCUT_SLOGP_3>
2.7877908

>  <BCUT_SMR_0>
-2.3800495

>  <BCUT_SMR_1>
-0.38725984

>  <BCUT_SMR_2>
0.71162713

>  <BCUT_SMR_3>
3.1101742

>  <bpol>
44.786209

>  <b_1rotN>
10

>  <b_1rotR>
0.30303031

>  <b_ar>
6

>  <b_count>
63

>  <b_double>
3

>  <b_heavy>
33

>  <b_max1len>
7

>  <b_rotN>
11

>  <b_rotR>
0.33333334

>  <b_single>
54

>  <b_triple>
0

>  <chi0>
22.43251

>  <chi0v>
19.54546

>  <chi0v_C>
14.068549

>  <chi0_C>
15.026733

>  <chi1>
14.848973

>  <chi1v>
12.59928

>  <chi1v_C>
6.938323

>  <chi1_C>
8.0328054

>  <chiral>
3

>  <chiral_u>
0

>  <density>
0.78606278

>  <diameter>
14

>  <FCharge>
0

>  <GCUT_PEOE_0>
-0.82951504

>  <GCUT_PEOE_1>
-0.39002725

>  <GCUT_PEOE_2>
0.058624033

>  <GCUT_PEOE_3>
2.8842976

>  <GCUT_SLOGP_0>
-1.155004

>  <GCUT_SLOGP_1>
-0.33995914

>  <GCUT_SLOGP_2>
0.1382851

>  <GCUT_SLOGP_3>
2.8584547

>  <GCUT_SMR_0>
-0.51999331

>  <GCUT_SMR_1>
-0.19730498

>  <GCUT_SMR_2>
0.19305076

>  <GCUT_SMR_3>
3.1450353

>  <Kier1>
25.619835

>  <Kier2>
11.92344

>  <Kier3>
6.7566791

>  <KierA1>
23.525375

>  <KierA2>
10.916407

>  <KierA3>
6.1726861

>  <KierFlex>
8.284276

>  <lip_acc>
7

>  <lip_don>
2

>  <lip_druglike>
1

>  <lip_violation>
0

>  <logP(o/w)>
3.507

>  <logS>
-5.0528002

>  <mr>
12.460089

>  <mutagenic>
0

>  <nmol>
1

>  <opr_brigid>
16

>  <opr_leadlike>
0

>  <opr_nring>
3

>  <opr_nrot>
11

>  <opr_violation>
2

>  <PC+>
0

>  <PC->
0

>  <PEOE_PC+>
2.8247328

>  <PEOE_PC->
-2.8247328

>  <PEOE_RPC+>
0.099996313

>  <PEOE_RPC->
0.11672445

>  <PEOE_VSA+0>
111.49456

>  <PEOE_VSA+1>
72.427849

>  <PEOE_VSA+2>
11.764974

>  <PEOE_VSA+3>
0

>  <PEOE_VSA+4>
23.273705

>  <PEOE_VSA+5>
29.416998

>  <PEOE_VSA+6>
0

>  <PEOE_VSA-0>
57.106522

>  <PEOE_VSA-1>
61.274521

>  <PEOE_VSA-2>
39.521236

>  <PEOE_VSA-3>
0

>  <PEOE_VSA-4>
0

>  <PEOE_VSA-5>
40.837654

>  <PEOE_VSA-6>
10.271297

>  <PEOE_VSA_FHYD>
0.77306062

>  <PEOE_VSA_FNEG>
0.45696568

>  <PEOE_VSA_FPNEG>
0.11174059

>  <PEOE_VSA_FPOL>
0.2269394

>  <PEOE_VSA_FPOS>
0.54303432

>  <PEOE_VSA_FPPOS>
0.11519881

>  <PEOE_VSA_HYD>
353.58966

>  <PEOE_VSA_NEG>
209.01123

>  <PEOE_VSA_PNEG>
51.108952

>  <PEOE_VSA_POL>
103.79965

>  <PEOE_VSA_POS>
248.37808

>  <PEOE_VSA_PPOS>
52.690701

>  <petitjean>
0.5

>  <petitjeanSC>
1

>  <Q_PC+>
0

>  <Q_PC->
0

>  <Q_RPC+>
0

>  <Q_RPC->
0

>  <Q_VSA_FHYD>
1

>  <Q_VSA_FNEG>
0

>  <Q_VSA_FPNEG>
0

>  <Q_VSA_FPOL>
0

>  <Q_VSA_FPOS>
1

>  <Q_VSA_FPPOS>
0

>  <Q_VSA_HYD>
457.38931

>  <Q_VSA_NEG>
0

>  <Q_VSA_PNEG>
0

>  <Q_VSA_POL>
0

>  <Q_VSA_POS>
457.38931

>  <Q_VSA_PPOS>
0

>  <radius>
7

>  <reactive>
1

>  <rings>
3

>  <RPC+>
0

>  <RPC->
0

>  <rsynth>
1

>  <SlogP>
2.39077

>  <SlogP_VSA0>
18.01075

>  <SlogP_VSA1>
23.874025

>  <SlogP_VSA2>
94.53244

>  <SlogP_VSA3>
99.218193

>  <SlogP_VSA4>
3.185575

>  <SlogP_VSA5>
18.868406

>  <SlogP_VSA6>
0

>  <SlogP_VSA7>
88.215919

>  <SlogP_VSA8>
37.736813

>  <SlogP_VSA9>
131.09111

>  <SMR>
12.31845

>  <SMR_VSA0>
82.58654

>  <SMR_VSA1>
3.1243138

>  <SMR_VSA2>
43.395977

>  <SMR_VSA3>
15.131481

>  <SMR_VSA4>
0

>  <SMR_VSA5>
144.82114

>  <SMR_VSA6>
94.58268

>  <SMR_VSA7>
131.09111

>  <TPSA>
95.940002

>  <VAdjEq>
0.36097246

>  <VAdjMa>
6.044394

>  <VDistEq>
3.6226361

>  <VDistMa>
9.6367254

>  <vdw_area>
457.38931

>  <vdw_vol>
593.62048

>  <vsa_acc>
27.133842

>  <vsa_acid>
0

>  <vsa_base>
0

>  <vsa_don>
0

>  <vsa_hyd>
325.04037

>  <vsa_other>
44.870285

>  <vsa_pol>
59.95026

>  <Weight>
466.62299

>  <weinerPath>
2809

>  <weinerPol>
46

>  <zagreb>
158

$$$$