S(CC1CN2C(CC1=O)C(=O)NC(c1ccccc1)C(OC(C)C(NC(=O)c1ncccc1O)C(=O)NC(CC)C(=O)N1C(CCC1)C(=O)N(C)C(Cc1ccc(N(C)C)cc1)C2=O)=O)C1C2CCN(C1)CC2
  MOE2013           2D

 73 80  0  0  1  0  0  0  0  0999 V2000
    0.0000    0.0000    0.0000 S   0  0  0  0  0  0  0  0  0  0  0  0
    0.2900    1.4720    0.0000 C   0  0  0  0  0  0  0  0  0  0  0  0
    1.7100    1.9560    0.0000 C   0  0  3  0  0  0  0  0  0  0  0  0
    1.9990    3.4290    0.0000 C   0  0  0  0  0  0  0  0  0  0  0  0
    3.4600    3.8920    0.0000 N   0  0  0  0  0  0  0  0  0  0  0  0
    4.5270    2.9500    0.0000 C   0  0  3  0  0  0  0  0  0  0  0  0
    4.2680    1.4490    0.0000 C   0  0  0  0  0  0  0  0  0  0  0  0
    2.8420    0.9640    0.0000 C   0  0  0  0  0  0  0  0  0  0  0  0
    2.5510   -0.5070    0.0000 O   0  0  0  0  0  0  0  0  0  0  0  0
    5.8700    2.8300    0.0000 C   0  0  0  0  0  0  0  0  0  0  0  0
    6.6120    4.1340    0.0000 O   0  0  0  0  0  0  0  0  0  0  0  0
    6.7540    1.6040    0.0000 N   0  0  0  0  0  0  0  0  0  0  0  0
    8.2280    1.7560    0.0000 C   0  0  3  0  0  0  0  0  0  0  0  0
    8.8220    3.1330    0.0000 C   0  0  0  0  0  0  0  0  0  0  0  0
   10.3200    3.0470    0.0000 C   0  0  0  0  0  0  0  0  0  0  0  0
   11.1430    4.3000    0.0000 C   0  0  0  0  0  0  0  0  0  0  0  0
   10.4700    5.6400    0.0000 C   0  0  0  0  0  0  0  0  0  0  0  0
    8.9720    5.7270    0.0000 C   0  0  0  0  0  0  0  0  0  0  0  0
    8.1480    4.4730    0.0000 C   0  0  0  0  0  0  0  0  0  0  0  0
    9.1480    0.5570    0.0000 C   0  0  0  0  0  0  0  0  0  0  0  0
   10.6820    0.9420    0.0000 O   0  0  0  0  0  0  0  0  0  0  0  0
   10.9630    2.3860    0.0000 C   0  0  3  0  0  0  0  0  0  0  0  0
    9.5410    2.8620    0.0000 C   0  0  0  0  0  0  0  0  0  0  0  0
   12.3240    2.9910    0.0000 C   0  0  3  0  0  0  0  0  0  0  0  0
   13.4410    1.9890    0.0000 N   0  0  0  0  0  0  0  0  0  0  0  0
   13.1310    0.5220    0.0000 C   0  0  0  0  0  0  0  0  0  0  0  0
   11.7050    0.0560    0.0000 O   0  0  0  0  0  0  0  0  0  0  0  0
   14.2470   -0.4800    0.0000 C   0  0  0  0  0  0  0  0  0  0  0  0
   13.9380   -1.9480    0.0000 N   0  0  0  0  0  0  0  0  0  0  0  0
   15.0540   -2.9500    0.0000 C   0  0  0  0  0  0  0  0  0  0  0  0
   16.4800   -2.4840    0.0000 C   0  0  0  0  0  0  0  0  0  0  0  0
   16.7890   -1.0160    0.0000 C   0  0  0  0  0  0  0  0  0  0  0  0
   15.6730   -0.0150    0.0000 C   0  0  0  0  0  0  0  0  0  0  0  0
   15.9830    1.4530    0.0000 O   0  0  0  0  0  0  0  0  0  0  0  0
   12.2630    4.6040    0.0000 C   0  0  0  0  0  0  0  0  0  0  0  0
   13.0930    5.8530    0.0000 O   0  0  0  0  0  0  0  0  0  0  0  0
   10.8550    5.1000    0.0000 N   0  0  0  0  0  0  0  0  0  0  0  0
   10.4750    6.5320    0.0000 C   0  0  3  0  0  0  0  0  0  0  0  0
   11.5400    7.5870    0.0000 C   0  0  0  0  0  0  0  0  0  0  0  0
   11.1590    9.0380    0.0000 C   0  0  0  0  0  0  0  0  0  0  0  0
    9.0320    6.9240    0.0000 C   0  0  0  0  0  0  0  0  0  0  0  0
    7.9180    5.9200    0.0000 O   0  0  0  0  0  0  0  0  0  0  0  0
    8.3740    8.0970    0.0000 N   0  0  0  0  0  0  0  0  0  0  0  0
    7.0480    8.6140    0.0000 C   0  0  3  0  0  0  0  0  0  0  0  0
    7.0640   10.0980    0.0000 C   0  0  0  0  0  0  0  0  0  0  0  0
    8.5350   10.5110    0.0000 C   0  0  0  0  0  0  0  0  0  0  0  0
    9.3560    9.2270    0.0000 C   0  0  0  0  0  0  0  0  0  0  0  0
    5.7520    8.1730    0.0000 C   0  0  0  0  0  0  0  0  0  0  0  0
    4.6990    9.2420    0.0000 O   0  0  0  0  0  0  0  0  0  0  0  0
    5.2440    6.7450    0.0000 N   0  0  0  0  0  0  0  0  0  0  0  0
    6.2130    5.6000    0.0000 C   0  0  0  0  0  0  0  0  0  0  0  0
    3.7820    6.4850    0.0000 C   0  0  3  0  0  0  0  0  0  0  0  0
    2.8780    7.6830    0.0000 C   0  0  0  0  0  0  0  0  0  0  0  0
    1.3890    7.4990    0.0000 C   0  0  0  0  0  0  0  0  0  0  0  0
    0.4860    8.6960    0.0000 C   0  0  0  0  0  0  0  0  0  0  0  0
   -1.0030    8.5120    0.0000 C   0  0  0  0  0  0  0  0  0  0  0  0
   -1.5880    7.1310    0.0000 C   0  0  0  0  0  0  0  0  0  0  0  0
   -3.0770    6.9470    0.0000 N   0  0  0  0  0  0  0  0  0  0  0  0
   -3.9800    8.1450    0.0000 C   0  0  0  0  0  0  0  0  0  0  0  0
   -3.6620    5.5660    0.0000 C   0  0  0  0  0  0  0  0  0  0  0  0
   -0.6840    5.9340    0.0000 C   0  0  0  0  0  0  0  0  0  0  0  0
    0.8040    6.1180    0.0000 C   0  0  0  0  0  0  0  0  0  0  0  0
    3.1510    5.1930    0.0000 C   0  0  0  0  0  0  0  0  0  0  0  0
    1.6600    5.3570    0.0000 O   0  0  0  0  0  0  0  0  0  0  0  0
    8.1990   -0.6050    0.0000 O   0  0  0  0  0  0  0  0  0  0  0  0
   -1.4200   -0.4840    0.0000 C   0  0  3  0  0  0  0  0  0  0  0  0
   -2.3280   -1.8410    0.0000 C   0  0  0  0  0  0  0  0  0  0  0  0
   -1.9650   -3.2660    0.0000 C   0  0  0  0  0  0  0  0  0  0  0  0
   -3.2540   -2.7520    0.0000 C   0  0  0  0  0  0  0  0  0  0  0  0
   -3.5940   -1.3450    0.0000 N   0  0  0  0  0  0  0  0  0  0  0  0
   -2.7110   -0.0520    0.0000 C   0  0  0  0  0  0  0  0  0  0  0  0
   -5.1790   -1.1220    0.0000 C   0  0  0  0  0  0  0  0  0  0  0  0
   -4.1960   -1.7490    0.0000 C   0  0  0  0  0  0  0  0  0  0  0  0
  1  2  1  0  0  0  0
  1 66  1  0  0  0  0
  2  3  1  0  0  0  0
  3  4  1  0  0  0  0
  3  8  1  0  0  0  0
  4  5  1  0  0  0  0
  5  6  1  0  0  0  0
  5 63  1  0  0  0  0
  6  7  1  0  0  0  0
  6 10  1  0  0  0  0
  7  8  1  0  0  0  0
  8  9  2  0  0  0  0
 10 11  2  0  0  0  0
 10 12  1  0  0  0  0
 12 13  1  0  0  0  0
 13 14  1  0  0  0  0
 13 20  1  0  0  0  0
 14 15  1  0  0  0  0
 14 19  2  0  0  0  0
 15 16  2  0  0  0  0
 16 17  1  0  0  0  0
 17 18  2  0  0  0  0
 18 19  1  0  0  0  0
 20 21  1  0  0  0  0
 20 65  2  0  0  0  0
 21 22  1  0  0  0  0
 22 23  1  0  0  0  0
 22 24  1  0  0  0  0
 24 25  1  0  0  0  0
 24 35  1  0  0  0  0
 25 26  1  0  0  0  0
 26 27  2  0  0  0  0
 26 28  1  0  0  0  0
 28 29  1  0  0  0  0
 28 33  2  0  0  0  0
 29 30  2  0  0  0  0
 30 31  1  0  0  0  0
 31 32  2  0  0  0  0
 32 33  1  0  0  0  0
 33 34  1  0  0  0  0
 35 36  2  0  0  0  0
 35 37  1  0  0  0  0
 37 38  1  0  0  0  0
 38 39  1  0  0  0  0
 38 41  1  0  0  0  0
 39 40  1  0  0  0  0
 41 42  2  0  0  0  0
 41 43  1  0  0  0  0
 43 44  1  0  0  0  0
 43 47  1  0  0  0  0
 44 45  1  0  0  0  0
 44 48  1  0  0  0  0
 45 46  1  0  0  0  0
 46 47  1  0  0  0  0
 48 49  2  0  0  0  0
 48 50  1  0  0  0  0
 50 51  1  0  0  0  0
 50 52  1  0  0  0  0
 52 53  1  0  0  0  0
 52 63  1  0  0  0  0
 53 54  1  0  0  0  0
 54 55  1  0  0  0  0
 54 62  2  0  0  0  0
 55 56  2  0  0  0  0
 56 57  1  0  0  0  0
 57 58  1  0  0  0  0
 57 61  2  0  0  0  0
 58 59  1  0  0  0  0
 58 60  1  0  0  0  0
 61 62  1  0  0  0  0
 63 64  2  0  0  0  0
 66 67  1  0  0  0  0
 66 71  1  0  0  0  0
 67 68  1  0  0  0  0
 67 73  1  0  0  0  0
 68 69  1  0  0  0  0
 69 70  1  0  0  0  0
 70 71  1  0  0  0  0
 70 72  1  0  0  0  0
 72 73  1  0  0  0  0
M  END
>  <Index>
924

>  <ID>
HT1791

>  <class>
0

>  <apol>
158.77513

>  <ast_fraglike>
0

>  <ast_fraglike_ext>
0

>  <ast_violation>
3

>  <ast_violation_ext>
5

>  <a_acc>
11

>  <a_acid>
0

>  <a_aro>
18

>  <a_base>
0

>  <a_count>
140

>  <a_don>
4

>  <a_donacc>
15

>  <a_heavy>
73

>  <a_hyd>
46

>  <a_IC>
226.34326

>  <a_ICM>
1.6167376

>  <a_nB>
0

>  <a_nBr>
0

>  <a_nC>
53

>  <a_nCl>
0

>  <a_nF>
0

>  <a_nH>
67

>  <a_nI>
0

>  <a_nN>
9

>  <a_nO>
10

>  <a_nP>
0

>  <a_nS>
1

>  <balabanJ>
1.1449941

>  <BCUT_PEOE_0>
-2.8897424

>  <BCUT_PEOE_1>
-0.54878354

>  <BCUT_PEOE_2>
0.57189053

>  <BCUT_PEOE_3>
2.8238595

>  <BCUT_SLOGP_0>
-2.9222636

>  <BCUT_SLOGP_1>
-0.47126099

>  <BCUT_SLOGP_2>
0.56023866

>  <BCUT_SLOGP_3>
2.8279183

>  <BCUT_SMR_0>
-2.6127863

>  <BCUT_SMR_1>
-0.39563224

>  <BCUT_SMR_2>
0.70439023

>  <BCUT_SMR_3>
3.1050649

>  <bpol>
98.304871

>  <b_1rotN>
10

>  <b_1rotR>
0.125

>  <b_ar>
18

>  <b_count>
147

>  <b_double>
8

>  <b_heavy>
80

>  <b_max1len>
5

>  <b_rotN>
11

>  <b_rotR>
0.1375

>  <b_single>
121

>  <b_triple>
0

>  <chi0>
52.086117

>  <chi0v>
42.923569

>  <chi0v_C>
33.394093

>  <chi0_C>
35.956726

>  <chi1>
35.018188

>  <chi1v>
26.388453

>  <chi1v_C>
15.829259

>  <chi1_C>
18.632927

>  <chiral>
9

>  <chiral_u>
9

>  <density>
0.75772685

>  <diameter>
22

>  <FCharge>
0

>  <GCUT_PEOE_0>
-0.85578442

>  <GCUT_PEOE_1>
-0.4122923

>  <GCUT_PEOE_2>
0.056059632

>  <GCUT_PEOE_3>
3.4160254

>  <GCUT_SLOGP_0>
-1.1640904

>  <GCUT_SLOGP_1>
-0.35907698

>  <GCUT_SLOGP_2>
0.081289202

>  <GCUT_SLOGP_3>
3.3640308

>  <GCUT_SMR_0>
-0.52567095

>  <GCUT_SMR_1>
-0.21762545

>  <GCUT_SMR_2>
0.17291886

>  <GCUT_SMR_3>
3.6597369

>  <Kier1>
59.130001

>  <Kier2>
27.444386

>  <Kier3>
14.497042

>  <KierA1>
46.703758

>  <KierA2>
21.602409

>  <KierA3>
11.383915

>  <KierFlex>
13.820735

>  <lip_acc>
19

>  <lip_don>
4

>  <lip_druglike>
0

>  <lip_violation>
2

>  <logP(o/w)>
1.776

>  <logS>
-7.8848901

>  <mr>
27.554922

>  <mutagenic>
0

>  <nmol>
1

>  <opr_brigid>
55

>  <opr_leadlike>
0

>  <opr_nring>
7

>  <opr_nrot>
26

>  <opr_violation>
4

>  <PC+>
0

>  <PC->
0

>  <PEOE_PC+>
6.7597227

>  <PEOE_PC->
-6.7597227

>  <PEOE_RPC+>
0.042850062

>  <PEOE_RPC->
0.052893654

>  <PEOE_VSA+0>
302.64914

>  <PEOE_VSA+1>
85.947266

>  <PEOE_VSA+2>
35.792801

>  <PEOE_VSA+3>
32.556591

>  <PEOE_VSA+4>
75.071831

>  <PEOE_VSA+5>
27.65803

>  <PEOE_VSA+6>
0

>  <PEOE_VSA-0>
188.55296

>  <PEOE_VSA-1>
104.53201

>  <PEOE_VSA-2>
0

>  <PEOE_VSA-3>
19.760618

>  <PEOE_VSA-4>
5.6825762

>  <PEOE_VSA-5>
108.53537

>  <PEOE_VSA-6>
10.68197

>  <PEOE_VSA_FHYD>
0.77178168

>  <PEOE_VSA_FNEG>
0.43887731

>  <PEOE_VSA_FPNEG>
0.12522285

>  <PEOE_VSA_FPOL>
0.22821832

>  <PEOE_VSA_FPOS>
0.56112272

>  <PEOE_VSA_FPPOS>
0.10299547

>  <PEOE_VSA_HYD>
769.79138

>  <PEOE_VSA_NEG>
437.74551

>  <PEOE_VSA_PNEG>
124.89991

>  <PEOE_VSA_POL>
227.62978

>  <PEOE_VSA_POS>
559.67566

>  <PEOE_VSA_PPOS>
102.72986

>  <petitjean>
0.45454547

>  <petitjeanSC>
0.83333331

>  <Q_PC+>
0

>  <Q_PC->
0

>  <Q_RPC+>
0

>  <Q_RPC->
0

>  <Q_VSA_FHYD>
1

>  <Q_VSA_FNEG>
0

>  <Q_VSA_FPNEG>
0

>  <Q_VSA_FPOL>
0

>  <Q_VSA_FPOS>
1

>  <Q_VSA_FPPOS>
0

>  <Q_VSA_HYD>
997.42114

>  <Q_VSA_NEG>
0

>  <Q_VSA_PNEG>
0

>  <Q_VSA_POL>
0

>  <Q_VSA_POS>
997.42114

>  <Q_VSA_PPOS>
0

>  <radius>
12

>  <reactive>
1

>  <rings>
8

>  <RPC+>
0

>  <RPC->
0

>  <rsynth>
0.67123288

>  <SlogP>
2.4189701

>  <SlogP_VSA0>
82.541794

>  <SlogP_VSA1>
74.268562

>  <SlogP_VSA2>
207.18985

>  <SlogP_VSA3>
109.43146

>  <SlogP_VSA4>
41.811707

>  <SlogP_VSA5>
117.55997

>  <SlogP_VSA6>
0

>  <SlogP_VSA7>
211.28938

>  <SlogP_VSA8>
117.1924

>  <SlogP_VSA9>
106.87175

>  <SMR>
27.21604

>  <SMR_VSA0>
201.89761

>  <SMR_VSA1>
54.668011

>  <SMR_VSA2>
65.978157

>  <SMR_VSA3>
47.507744

>  <SMR_VSA4>
2.7567475

>  <SMR_VSA5>
343.36823

>  <SMR_VSA6>
154.41724

>  <SMR_VSA7>
197.56314

>  <TPSA>
231.2

>  <VAdjEq>
0.19451419

>  <VAdjMa>
7.321928

>  <VDistEq>
4.1569362

>  <VDistMa>
12.168939

>  <vdw_area>
997.42114

>  <vdw_vol>
1349.0851

>  <vsa_acc>
114.21794

>  <vsa_acid>
0

>  <vsa_base>
0

>  <vsa_don>
17.047728

>  <vsa_hyd>
687.94263

>  <vsa_other>
103.36796

>  <vsa_pol>
144.8326

>  <Weight>
1022.238

>  <weinerPath>
23970

>  <weinerPol>
131

>  <zagreb>
390

$$$$