O1CCn2c3c(c(C4=C(c5c6c(n(CC[C@H]1CN(C)C)c5)cccc6)C(=O)NC4=O)c2)cccc3
  MOE2013           2D

 35 40  0  0  1  0  0  0  0  0999 V2000
    0.0000    0.0000    0.0000 O   0  0  0  0  0  0  0  0  0  0  0  0
   -0.5780   -1.3860    0.0000 C   0  0  0  0  0  0  0  0  0  0  0  0
   -2.0840   -1.5480    0.0000 C   0  0  0  0  0  0  0  0  0  0  0  0
   -3.0410   -0.5740    0.0000 N   0  0  0  0  0  0  0  0  0  0  0  0
   -4.3820   -1.1810    0.0000 C   0  0  0  0  0  0  0  0  0  0  0  0
   -5.3710   -0.0380    0.0000 C   0  0  0  0  0  0  0  0  0  0  0  0
   -4.5850    1.2470    0.0000 C   0  0  0  0  0  0  0  0  0  0  0  0
   -4.8260    2.2070    0.0000 C   0  0  0  0  0  0  0  0  0  0  0  0
   -3.7270    3.2440    0.0000 C   0  0  0  0  0  0  0  0  0  0  0  0
   -2.4910    3.2540    0.0000 C   0  0  0  0  0  0  0  0  0  0  0  0
   -1.8750    4.6280    0.0000 C   0  0  0  0  0  0  0  0  0  0  0  0
   -0.3730    4.4680    0.0000 C   0  0  0  0  0  0  0  0  0  0  0  0
   -0.1010    3.0110    0.0000 N   0  0  0  0  0  0  0  0  0  0  0  0
    1.2420    2.8020    0.0000 C   0  0  0  0  0  0  0  0  0  0  0  0
    2.0690    1.5740    0.0000 C   0  0  0  0  0  0  0  0  0  0  0  0
    1.4770    0.2090    0.0000 C   0  0  1  0  0  0  0  0  0  0  0  0
    2.3860   -0.9840    0.0000 C   0  0  0  0  0  0  0  0  0  0  0  0
    3.8740   -0.7930    0.0000 N   0  0  0  0  0  0  0  0  0  0  0  0
    4.7830   -1.9860    0.0000 C   0  0  0  0  0  0  0  0  0  0  0  0
    4.4520    0.5910    0.0000 C   0  0  0  0  0  0  0  0  0  0  0  0
   -1.3280    2.2570    0.0000 C   0  0  0  0  0  0  0  0  0  0  0  0
    0.5090    5.6750    0.0000 C   0  0  0  0  0  0  0  0  0  0  0  0
   -0.0960    7.0500    0.0000 C   0  0  0  0  0  0  0  0  0  0  0  0
   -1.5900    7.2120    0.0000 C   0  0  0  0  0  0  0  0  0  0  0  0
   -2.4760    6.0000    0.0000 C   0  0  0  0  0  0  0  0  0  0  0  0
   -4.3700    4.5950    0.0000 C   0  0  0  0  0  0  0  0  0  0  0  0
   -3.6510    5.9110    0.0000 O   0  0  0  0  0  0  0  0  0  0  0  0
   -5.8610    4.4050    0.0000 N   0  0  0  0  0  0  0  0  0  0  0  0
   -6.1420    2.9380    0.0000 C   0  0  0  0  0  0  0  0  0  0  0  0
   -7.5020    2.3040    0.0000 O   0  0  0  0  0  0  0  0  0  0  0  0
   -3.1080    0.8680    0.0000 C   0  0  0  0  0  0  0  0  0  0  0  0
   -6.8370   -0.3250    0.0000 C   0  0  0  0  0  0  0  0  0  0  0  0
   -7.3310   -1.7420    0.0000 C   0  0  0  0  0  0  0  0  0  0  0  0
   -6.3500   -2.8760    0.0000 C   0  0  0  0  0  0  0  0  0  0  0  0
   -4.8750   -2.5930    0.0000 C   0  0  0  0  0  0  0  0  0  0  0  0
  1  2  1  0  0  0  0
  1 16  1  0  0  0  0
  2  3  1  0  0  0  0
  3  4  1  0  0  0  0
  4  5  1  0  0  0  0
  4 31  1  0  0  0  0
  5  6  2  0  0  0  0
  5 35  1  0  0  0  0
  6  7  1  0  0  0  0
  6 32  1  0  0  0  0
  7  8  1  0  0  0  0
  7 31  2  0  0  0  0
  8  9  2  0  0  0  0
  8 29  1  0  0  0  0
  9 10  1  0  0  0  0
  9 26  1  0  0  0  0
 10 11  1  0  0  0  0
 10 21  2  0  0  0  0
 11 12  2  0  0  0  0
 11 25  1  0  0  0  0
 12 13  1  0  0  0  0
 12 22  1  0  0  0  0
 13 14  1  0  0  0  0
 13 21  1  0  0  0  0
 14 15  1  0  0  0  0
 15 16  1  0  0  0  0
 16 17  1  1  0  0  0
 17 18  1  0  0  0  0
 18 19  1  0  0  0  0
 18 20  1  0  0  0  0
 22 23  2  0  0  0  0
 23 24  1  0  0  0  0
 24 25  2  0  0  0  0
 26 27  2  0  0  0  0
 26 28  1  0  0  0  0
 28 29  1  0  0  0  0
 29 30  2  0  0  0  0
 32 33  2  0  0  0  0
 33 34  1  0  0  0  0
 34 35  2  0  0  0  0
M  END
>  <Index>
962

>  <ID>
HT1855

>  <class>
0

>  <apol>
74.756203

>  <ast_fraglike>
0

>  <ast_fraglike_ext>
0

>  <ast_violation>
3

>  <ast_violation_ext>
4

>  <a_acc>
4

>  <a_acid>
0

>  <a_aro>
18

>  <a_base>
0

>  <a_count>
63

>  <a_don>
1

>  <a_donacc>
5

>  <a_heavy>
35

>  <a_hyd>
26

>  <a_IC>
94.601875

>  <a_ICM>
1.5016171

>  <a_nB>
0

>  <a_nBr>
0

>  <a_nC>
28

>  <a_nCl>
0

>  <a_nF>
0

>  <a_nH>
28

>  <a_nI>
0

>  <a_nN>
4

>  <a_nO>
3

>  <a_nP>
0

>  <a_nS>
0

>  <balabanJ>
1.3355132

>  <BCUT_PEOE_0>
-2.6848159

>  <BCUT_PEOE_1>
-0.54191685

>  <BCUT_PEOE_2>
0.5912652

>  <BCUT_PEOE_3>
2.6363602

>  <BCUT_SLOGP_0>
-2.7515626

>  <BCUT_SLOGP_1>
-0.45694143

>  <BCUT_SLOGP_2>
0.69221497

>  <BCUT_SLOGP_3>
2.6410851

>  <BCUT_SMR_0>
-2.4276268

>  <BCUT_SMR_1>
-0.40684479

>  <BCUT_SMR_2>
0.75406528

>  <BCUT_SMR_3>
2.8835697

>  <bpol>
41.041798

>  <b_1rotN>
2

>  <b_1rotR>
0.050000001

>  <b_ar>
20

>  <b_count>
68

>  <b_double>
3

>  <b_heavy>
40

>  <b_max1len>
5

>  <b_rotN>
2

>  <b_rotR>
0.050000001

>  <b_single>
45

>  <b_triple>
0

>  <chi0>
24.10372

>  <chi0v>
19.952772

>  <chi0v_C>
16.886387

>  <chi0_C>
18.957455

>  <chi1>
17.008039

>  <chi1v>
12.037895

>  <chi1v_C>
7.7985473

>  <chi1_C>
10.265986

>  <chiral>
1

>  <chiral_u>
0

>  <density>
0.72708064

>  <diameter>
12

>  <FCharge>
0

>  <GCUT_PEOE_0>
-0.87081397

>  <GCUT_PEOE_1>
-0.40482673

>  <GCUT_PEOE_2>
0.047958549

>  <GCUT_PEOE_3>
2.9843462

>  <GCUT_SLOGP_0>
-1.1736389

>  <GCUT_SLOGP_1>
-0.31363899

>  <GCUT_SLOGP_2>
0.12991126

>  <GCUT_SLOGP_3>
3.0650551

>  <GCUT_SMR_0>
-0.5221867

>  <GCUT_SMR_1>
-0.19187912

>  <GCUT_SMR_2>
0.16849621

>  <GCUT_SMR_3>
3.2758245

>  <Kier1>
25.2875

>  <Kier2>
10.636599

>  <Kier3>
4.8188233

>  <KierA1>
18.403559

>  <KierA2>
7.6634116

>  <KierA3>
3.446558

>  <KierFlex>
4.0295444

>  <lip_acc>
7

>  <lip_don>
1

>  <lip_druglike>
1

>  <lip_violation>
0

>  <logP(o/w)>
4.6199999

>  <logS>
-5.11902

>  <mr>
13.447594

>  <mutagenic>
0

>  <nmol>
1

>  <opr_brigid>
34

>  <opr_leadlike>
0

>  <opr_nring>
5

>  <opr_nrot>
11

>  <opr_violation>
3

>  <PC+>
0

>  <PC->
0

>  <PEOE_PC+>
2.6464353

>  <PEOE_PC->
-2.6464353

>  <PEOE_RPC+>
0.098244369

>  <PEOE_RPC->
0.14112619

>  <PEOE_VSA+0>
146.48669

>  <PEOE_VSA+1>
88.254089

>  <PEOE_VSA+2>
0

>  <PEOE_VSA+3>
8.6190128

>  <PEOE_VSA+4>
0

>  <PEOE_VSA+5>
25.899061

>  <PEOE_VSA+6>
0

>  <PEOE_VSA-0>
79.688499

>  <PEOE_VSA-1>
73.529427

>  <PEOE_VSA-2>
0

>  <PEOE_VSA-3>
0

>  <PEOE_VSA-4>
0

>  <PEOE_VSA-5>
27.270733

>  <PEOE_VSA-6>
2.503756

>  <PEOE_VSA_FHYD>
0.87689686

>  <PEOE_VSA_FNEG>
0.40462554

>  <PEOE_VSA_FPNEG>
0.065836161

>  <PEOE_VSA_FPOL>
0.12310313

>  <PEOE_VSA_FPOS>
0.59537446

>  <PEOE_VSA_FPPOS>
0.057266973

>  <PEOE_VSA_HYD>
396.57773

>  <PEOE_VSA_NEG>
182.99242

>  <PEOE_VSA_PNEG>
29.774488

>  <PEOE_VSA_POL>
55.67355

>  <PEOE_VSA_POS>
269.25885

>  <PEOE_VSA_PPOS>
25.899061

>  <petitjean>
0.33333334

>  <petitjeanSC>
0.5

>  <Q_PC+>
0

>  <Q_PC->
0

>  <Q_RPC+>
0

>  <Q_RPC->
0

>  <Q_VSA_FHYD>
1

>  <Q_VSA_FNEG>
0

>  <Q_VSA_FPNEG>
0

>  <Q_VSA_FPOL>
0

>  <Q_VSA_FPOS>
1

>  <Q_VSA_FPPOS>
0

>  <Q_VSA_HYD>
452.25128

>  <Q_VSA_NEG>
0

>  <Q_VSA_PNEG>
0

>  <Q_VSA_POL>
0

>  <Q_VSA_POS>
452.25128

>  <Q_VSA_PPOS>
0

>  <radius>
8

>  <reactive>
1

>  <rings>
6

>  <RPC+>
0

>  <RPC->
0

>  <rsynth>
1

>  <SlogP>
4.0465002

>  <SlogP_VSA0>
18.01075

>  <SlogP_VSA1>
17.440067

>  <SlogP_VSA2>
65.19297

>  <SlogP_VSA3>
39.365837

>  <SlogP_VSA4>
6.37115

>  <SlogP_VSA5>
65.794373

>  <SlogP_VSA6>
0

>  <SlogP_VSA7>
191.37955

>  <SlogP_VSA8>
18.868406

>  <SlogP_VSA9>
36.879158

>  <SMR>
13.71607

>  <SMR_VSA0>
58.724319

>  <SMR_VSA1>
6.9224992

>  <SMR_VSA2>
18.01075

>  <SMR_VSA3>
12.839799

>  <SMR_VSA4>
15.805352

>  <SMR_VSA5>
231.32175

>  <SMR_VSA6>
49.883404

>  <SMR_VSA7>
65.794373

>  <TPSA>
68.5

>  <VAdjEq>
0.34815767

>  <VAdjMa>
6.321928

>  <VDistEq>
3.3240993

>  <VDistMa>
10.037086

>  <vdw_area>
452.25128

>  <vdw_vol>
644.4361

>  <vsa_acc>
29.637598

>  <vsa_acid>
0

>  <vsa_base>
0

>  <vsa_don>
5.6825762

>  <vsa_hyd>
368.74023

>  <vsa_other>
25.899061

>  <vsa_pol>
35.320175

>  <Weight>
468.55698

>  <weinerPath>
3169

>  <weinerPol>
64

>  <zagreb>
198

$$$$