S=C(N)c1cc(ncc1)CCC
  MOE2013           2D

 12 12  0  0  0  0  0  0  0  0999 V2000
    0.0000    0.0000    0.0000 S   0  0  0  0  0  0  0  0  0  0  0  0
    1.3030    0.7420    0.0000 C   0  0  0  0  0  0  0  0  0  0  0  0
    1.3120    2.2420    0.0000 N   0  0  0  0  0  0  0  0  0  0  0  0
    2.5980   -0.0150    0.0000 C   0  0  0  0  0  0  0  0  0  0  0  0
    3.9010    0.7270    0.0000 C   0  0  0  0  0  0  0  0  0  0  0  0
    5.1960   -0.0300    0.0000 C   0  0  0  0  0  0  0  0  0  0  0  0
    5.1870   -1.5300    0.0000 N   0  0  0  0  0  0  0  0  0  0  0  0
    3.8840   -2.2730    0.0000 C   0  0  0  0  0  0  0  0  0  0  0  0
    2.5890   -1.5150    0.0000 C   0  0  0  0  0  0  0  0  0  0  0  0
    6.4990    0.7120    0.0000 C   0  0  0  0  0  0  0  0  0  0  0  0
    7.7940   -0.0450    0.0000 C   0  0  0  0  0  0  0  0  0  0  0  0
    9.0970    0.6970    0.0000 C   0  0  0  0  0  0  0  0  0  0  0  0
  1  2  2  0  0  0  0
  2  3  1  0  0  0  0
  2  4  1  0  0  0  0
  4  5  1  0  0  0  0
  4  9  2  0  0  0  0
  5  6  2  0  0  0  0
  6  7  1  0  0  0  0
  6 10  1  0  0  0  0
  7  8  2  0  0  0  0
  8  9  1  0  0  0  0
 10 11  1  0  0  0  0
 11 12  1  0  0  0  0
M  END
>  <Index>
915

>  <ID>
HT1769

>  <class>
0

>  <apol>
28.941517

>  <ast_fraglike>
1

>  <ast_fraglike_ext>
1

>  <ast_violation>
0

>  <ast_violation_ext>
0

>  <a_acc>
2

>  <a_acid>
0

>  <a_aro>
6

>  <a_base>
0

>  <a_count>
24

>  <a_don>
1

>  <a_donacc>
3

>  <a_heavy>
12

>  <a_hyd>
8

>  <a_IC>
36.490227

>  <a_ICM>
1.520426

>  <a_nB>
0

>  <a_nBr>
0

>  <a_nC>
9

>  <a_nCl>
0

>  <a_nF>
0

>  <a_nH>
12

>  <a_nI>
0

>  <a_nN>
2

>  <a_nO>
0

>  <a_nP>
0

>  <a_nS>
1

>  <balabanJ>
2.3294644

>  <BCUT_PEOE_0>
-2.5092666

>  <BCUT_PEOE_1>
-0.47589532

>  <BCUT_PEOE_2>
0.48837399

>  <BCUT_PEOE_3>
2.4679971

>  <BCUT_SLOGP_0>
-2.4599104

>  <BCUT_SLOGP_1>
-0.43335426

>  <BCUT_SLOGP_2>
0.59080207

>  <BCUT_SLOGP_3>
2.5821731

>  <BCUT_SMR_0>
-2.2652495

>  <BCUT_SMR_1>
-0.24642827

>  <BCUT_SMR_2>
0.73753566

>  <BCUT_SMR_3>
2.7190208

>  <bpol>
14.918484

>  <b_1rotN>
3

>  <b_1rotR>
0.25

>  <b_ar>
6

>  <b_count>
24

>  <b_double>
1

>  <b_heavy>
12

>  <b_max1len>
4

>  <b_rotN>
3

>  <b_rotR>
0.25

>  <b_single>
17

>  <b_triple>
0

>  <chi0>
8.9746914

>  <chi0v>
7.8955731

>  <chi0v_C>
5.6462646

>  <chi0_C>
6.2675848

>  <chi1>
5.736382

>  <chi1v>
4.3928723

>  <chi1v_C>
3.0100188

>  <chi1_C>
3.6734333

>  <chiral>
0

>  <chiral_u>
0

>  <density>
0.73063946

>  <diameter>
7

>  <FCharge>
0

>  <GCUT_PEOE_0>
-0.82722473

>  <GCUT_PEOE_1>
-0.36281994

>  <GCUT_PEOE_2>
0.031533703

>  <GCUT_PEOE_3>
2.2115948

>  <GCUT_SLOGP_0>
-1.3702571

>  <GCUT_SLOGP_1>
-0.28149512

>  <GCUT_SLOGP_2>
0.12680544

>  <GCUT_SLOGP_3>
2.3031566

>  <GCUT_SMR_0>
-0.52427936

>  <GCUT_SMR_1>
-0.12511799

>  <GCUT_SMR_2>
0.19908535

>  <GCUT_SMR_3>
2.5029581

>  <Kier1>
10.083333

>  <Kier2>
4.8888888

>  <Kier3>
3.1141868

>  <KierA1>
8.1614723

>  <KierA2>
3.8734372

>  <KierA3>
2.4260814

>  <KierFlex>
2.6344125

>  <lip_acc>
2

>  <lip_don>
2

>  <lip_druglike>
1

>  <lip_violation>
0

>  <logP(o/w)>
1.056

>  <logS>
-2.46263

>  <mr>
5.385067

>  <mutagenic>
0

>  <nmol>
1

>  <opr_brigid>
6

>  <opr_leadlike>
1

>  <opr_nring>
1

>  <opr_nrot>
3

>  <opr_violation>
0

>  <PC+>
0

>  <PC->
0

>  <PEOE_PC+>
0.82383925

>  <PEOE_PC->
-0.82383925

>  <PEOE_RPC+>
0.14939025

>  <PEOE_RPC->
0.37814873

>  <PEOE_VSA+0>
53.303169

>  <PEOE_VSA+1>
12.796158

>  <PEOE_VSA+2>
48.622536

>  <PEOE_VSA+3>
0

>  <PEOE_VSA+4>
0

>  <PEOE_VSA+5>
0

>  <PEOE_VSA+6>
0

>  <PEOE_VSA-0>
44.095272

>  <PEOE_VSA-1>
27.44899

>  <PEOE_VSA-2>
0

>  <PEOE_VSA-3>
0

>  <PEOE_VSA-4>
0

>  <PEOE_VSA-5>
5.6825762

>  <PEOE_VSA-6>
6.6511192

>  <PEOE_VSA_FHYD>
0.93789673

>  <PEOE_VSA_FNEG>
0.42234659

>  <PEOE_VSA_FPNEG>
0.062103257

>  <PEOE_VSA_FPOL>
0.062103257

>  <PEOE_VSA_FPOS>
0.57765341

>  <PEOE_VSA_FPPOS>
0

>  <PEOE_VSA_HYD>
186.26613

>  <PEOE_VSA_NEG>
83.87796

>  <PEOE_VSA_PNEG>
12.333695

>  <PEOE_VSA_POL>
12.333695

>  <PEOE_VSA_POS>
114.72186

>  <PEOE_VSA_PPOS>
0

>  <petitjean>
0.42857143

>  <petitjeanSC>
0.75

>  <Q_PC+>
0

>  <Q_PC->
0

>  <Q_RPC+>
0

>  <Q_RPC->
0

>  <Q_VSA_FHYD>
1

>  <Q_VSA_FNEG>
0

>  <Q_VSA_FPNEG>
0

>  <Q_VSA_FPOL>
0

>  <Q_VSA_FPOS>
1

>  <Q_VSA_FPPOS>
0

>  <Q_VSA_HYD>
198.59982

>  <Q_VSA_NEG>
0

>  <Q_VSA_PNEG>
0

>  <Q_VSA_POL>
0

>  <Q_VSA_POS>
198.59982

>  <Q_VSA_PPOS>
0

>  <radius>
4

>  <reactive>
0

>  <rings>
1

>  <RPC+>
0

>  <RPC->
0

>  <rsynth>
1

>  <SlogP>
1.66827

>  <SlogP_VSA0>
32.897186

>  <SlogP_VSA1>
17.498878

>  <SlogP_VSA2>
0

>  <SlogP_VSA3>
0

>  <SlogP_VSA4>
5.9423227

>  <SlogP_VSA5>
18.868406

>  <SlogP_VSA6>
0

>  <SlogP_VSA7>
52.500725

>  <SlogP_VSA8>
18.868406

>  <SlogP_VSA9>
78.518044

>  <SMR>
5.4120402

>  <SMR_VSA0>
0

>  <SMR_VSA1>
16.78553

>  <SMR_VSA2>
0

>  <SMR_VSA3>
5.9423227

>  <SMR_VSA4>
32.897186

>  <SMR_VSA5>
90.237534

>  <SMR_VSA6>
0.71334887

>  <SMR_VSA7>
78.518044

>  <TPSA>
71

>  <VAdjEq>
0.65002245

>  <VAdjMa>
4.5849624

>  <VDistEq>
2.6053088

>  <VDistMa>
6.8477259

>  <vdw_area>
198.59982

>  <vdw_vol>
246.73592

>  <vsa_acc>
37.067089

>  <vsa_acid>
0

>  <vsa_base>
0

>  <vsa_don>
17.742489

>  <vsa_hyd>
121.85002

>  <vsa_other>
8.6756124

>  <vsa_pol>
54.809578

>  <Weight>
180.27499

>  <weinerPath>
206

>  <weinerPol>
14

>  <zagreb>
54

$$$$