S(=O)(=O)(Nc1ccc(cc1)C(O)CNC(C)C)C
  MOE2013           2D

 18 18  0  0  1  0  0  0  0  0999 V2000
    0.0000    0.0000    0.0000 S   0  0  0  0  0  0  0  0  0  0  0  0
    0.7520   -1.2980    0.0000 O   0  0  0  0  0  0  0  0  0  0  0  0
   -0.7520    1.2980    0.0000 O   0  0  0  0  0  0  0  0  0  0  0  0
    1.2980    0.7520    0.0000 N   0  0  0  0  0  0  0  0  0  0  0  0
    2.5980    0.0040    0.0000 C   0  0  0  0  0  0  0  0  0  0  0  0
    3.8960    0.7550    0.0000 C   0  0  0  0  0  0  0  0  0  0  0  0
    5.1960    0.0070    0.0000 C   0  0  0  0  0  0  0  0  0  0  0  0
    5.1980   -1.4930    0.0000 C   0  0  0  0  0  0  0  0  0  0  0  0
    3.9000   -2.2450    0.0000 C   0  0  0  0  0  0  0  0  0  0  0  0
    2.6000   -1.4960    0.0000 C   0  0  0  0  0  0  0  0  0  0  0  0
    6.4980   -2.2410    0.0000 C   0  0  3  0  0  0  0  0  0  0  0  0
    6.5000   -3.7410    0.0000 O   0  0  0  0  0  0  0  0  0  0  0  0
    7.7960   -1.4890    0.0000 C   0  0  0  0  0  0  0  0  0  0  0  0
    9.0960   -2.2370    0.0000 N   0  0  0  0  0  0  0  0  0  0  0  0
   10.3940   -1.4850    0.0000 C   0  0  0  0  0  0  0  0  0  0  0  0
   11.6940   -2.2340    0.0000 C   0  0  0  0  0  0  0  0  0  0  0  0
   10.3920    0.0150    0.0000 C   0  0  0  0  0  0  0  0  0  0  0  0
   -1.2980   -0.7520    0.0000 C   0  0  0  0  0  0  0  0  0  0  0  0
  1  2  2  0  0  0  0
  1  3  2  0  0  0  0
  1  4  1  0  0  0  0
  1 18  1  0  0  0  0
  4  5  1  0  0  0  0
  5  6  1  0  0  0  0
  5 10  2  0  0  0  0
  6  7  2  0  0  0  0
  7  8  1  0  0  0  0
  8  9  2  0  0  0  0
  8 11  1  0  0  0  0
  9 10  1  0  0  0  0
 11 12  1  0  0  0  0
 11 13  1  0  0  0  0
 13 14  1  0  0  0  0
 14 15  1  0  0  0  0
 15 16  1  0  0  0  0
 15 17  1  0  0  0  0
M  END
>  <Index>
992

>  <ID>
HT1907

>  <class>
0

>  <apol>
41.961861

>  <ast_fraglike>
0

>  <ast_fraglike_ext>
0

>  <ast_violation>
1

>  <ast_violation_ext>
2

>  <a_acc>
4

>  <a_acid>
0

>  <a_aro>
6

>  <a_base>
0

>  <a_count>
38

>  <a_don>
3

>  <a_donacc>
7

>  <a_heavy>
18

>  <a_hyd>
12

>  <a_IC>
63.208244

>  <a_ICM>
1.6633749

>  <a_nB>
0

>  <a_nBr>
0

>  <a_nC>
12

>  <a_nCl>
0

>  <a_nF>
0

>  <a_nH>
20

>  <a_nI>
0

>  <a_nN>
2

>  <a_nO>
3

>  <a_nP>
0

>  <a_nS>
1

>  <balabanJ>
2.2672834

>  <BCUT_PEOE_0>
-2.6410863

>  <BCUT_PEOE_1>
-0.55684334

>  <BCUT_PEOE_2>
0.63509738

>  <BCUT_PEOE_3>
2.5641558

>  <BCUT_SLOGP_0>
-2.7466028

>  <BCUT_SLOGP_1>
-0.52218485

>  <BCUT_SLOGP_2>
0.58164102

>  <BCUT_SLOGP_3>
2.5569584

>  <BCUT_SMR_0>
-2.3700676

>  <BCUT_SMR_1>
-0.44943744

>  <BCUT_SMR_2>
0.73339009

>  <BCUT_SMR_3>
2.8354635

>  <bpol>
29.660139

>  <b_1rotN>
6

>  <b_1rotR>
0.33333334

>  <b_ar>
6

>  <b_count>
38

>  <b_double>
0

>  <b_heavy>
18

>  <b_max1len>
7

>  <b_rotN>
6

>  <b_rotR>
0.33333334

>  <b_single>
32

>  <b_triple>
0

>  <chi0>
13.759149

>  <chi0v>
11.659663

>  <chi0v_C>
8.1712084

>  <chi0_C>
8.8449354

>  <chi1>
8.2766752

>  <chi1v>
7.6605358

>  <chi1v_C>
3.6729913

>  <chi1_C>
4.5292754

>  <chiral>
1

>  <chiral_u>
1

>  <density>
0.76681912

>  <diameter>
11

>  <FCharge>
0

>  <GCUT_PEOE_0>
-0.84526527

>  <GCUT_PEOE_1>
-0.3901327

>  <GCUT_PEOE_2>
0.075210169

>  <GCUT_PEOE_3>
2.4772379

>  <GCUT_SLOGP_0>
-1.15263

>  <GCUT_SLOGP_1>
-0.35072175

>  <GCUT_SLOGP_2>
0.093621865

>  <GCUT_SLOGP_3>
2.5421596

>  <GCUT_SMR_0>
-0.52058983

>  <GCUT_SMR_1>
-0.20105891

>  <GCUT_SMR_2>
0.17585924

>  <GCUT_SMR_3>
2.7544038

>  <Kier1>
16.055555

>  <Kier2>
6.9632001

>  <Kier3>
6.6666665

>  <KierA1>
14.836386

>  <KierA2>
6.4029303

>  <KierA3>
6.1080317

>  <KierFlex>
5.2775745

>  <lip_acc>
5

>  <lip_don>
3

>  <lip_druglike>
1

>  <lip_violation>
0

>  <logP(o/w)>
1.012

>  <logS>
-1.41524

>  <mr>
7.2079535

>  <mutagenic>
0

>  <nmol>
1

>  <opr_brigid>
6

>  <opr_leadlike>
1

>  <opr_nring>
1

>  <opr_nrot>
5

>  <opr_violation>
0

>  <PC+>
0

>  <PC->
0

>  <PEOE_PC+>
1.7042737

>  <PEOE_PC->
-1.7042737

>  <PEOE_RPC+>
0.12338798

>  <PEOE_RPC->
0.22643991

>  <PEOE_VSA+0>
64.832367

>  <PEOE_VSA+1>
34.850872

>  <PEOE_VSA+2>
21.415171

>  <PEOE_VSA+3>
20.72374

>  <PEOE_VSA+4>
10.324173

>  <PEOE_VSA+5>
0

>  <PEOE_VSA+6>
0

>  <PEOE_VSA-0>
46.403446

>  <PEOE_VSA-1>
49.019615

>  <PEOE_VSA-2>
0

>  <PEOE_VSA-3>
2.5295215

>  <PEOE_VSA-4>
32.016521

>  <PEOE_VSA-5>
0

>  <PEOE_VSA-6>
7.9044313

>  <PEOE_VSA_FHYD>
0.82675278

>  <PEOE_VSA_FNEG>
0.47539344

>  <PEOE_VSA_FPNEG>
0.13764904

>  <PEOE_VSA_FPOL>
0.17324719

>  <PEOE_VSA_FPOS>
0.52460659

>  <PEOE_VSA_FPPOS>
0.035598159

>  <PEOE_VSA_HYD>
239.77473

>  <PEOE_VSA_NEG>
137.87354

>  <PEOE_VSA_PNEG>
39.920956

>  <PEOE_VSA_POL>
50.245129

>  <PEOE_VSA_POS>
152.14632

>  <PEOE_VSA_PPOS>
10.324173

>  <petitjean>
0.45454547

>  <petitjeanSC>
0.83333331

>  <Q_PC+>
0

>  <Q_PC->
0

>  <Q_RPC+>
0

>  <Q_RPC->
0

>  <Q_VSA_FHYD>
1

>  <Q_VSA_FNEG>
0

>  <Q_VSA_FPNEG>
0

>  <Q_VSA_FPOL>
0

>  <Q_VSA_FPOS>
1

>  <Q_VSA_FPPOS>
0

>  <Q_VSA_HYD>
290.01987

>  <Q_VSA_NEG>
0

>  <Q_VSA_PNEG>
0

>  <Q_VSA_POL>
0

>  <Q_VSA_POS>
290.01987

>  <Q_VSA_PPOS>
0

>  <radius>
6

>  <reactive>
0

>  <rings>
1

>  <RPC+>
0

>  <RPC->
0

>  <rsynth>
1

>  <SlogP>
1.1849999

>  <SlogP_VSA0>
43.395977

>  <SlogP_VSA1>
64.576683

>  <SlogP_VSA2>
10.622711

>  <SlogP_VSA3>
18.439579

>  <SlogP_VSA4>
3.185575

>  <SlogP_VSA5>
31.691174

>  <SlogP_VSA6>
0

>  <SlogP_VSA7>
70.572739

>  <SlogP_VSA8>
6.4686494

>  <SlogP_VSA9>
69.408775

>  <SMR>
7.3118

>  <SMR_VSA0>
48.171688

>  <SMR_VSA1>
25.385227

>  <SMR_VSA2>
18.01075

>  <SMR_VSA3>
13.636193

>  <SMR_VSA4>
19.161745

>  <SMR_VSA5>
70.572739

>  <SMR_VSA6>
18.439579

>  <SMR_VSA7>
104.98395

>  <TPSA>
78.43

>  <VAdjEq>
0.50325835

>  <VAdjMa>
5.1699252

>  <VDistEq>
3.2907286

>  <VDistMa>
7.9957986

>  <vdw_area>
290.01987

>  <vdw_vol>
355.19327

>  <vsa_acc>
32.016521

>  <vsa_acid>
0

>  <vsa_base>
0

>  <vsa_don>
8.0752068

>  <vsa_hyd>
197.80106

>  <vsa_other>
10.105608

>  <vsa_pol>
59.341228

>  <Weight>
272.36899

>  <weinerPath>
706

>  <weinerPol>
21

>  <zagreb>
86

$$$$