OC12CC3(CC(C1)CC(C3)C2)[C@H](N)C(=O)N1[C@@H]2[C@H](C[C@H]1C#N)C2
  MOE2013           2D

 23 27  0  0  1  0  0  0  0  0999 V2000
    0.0000    0.0000    0.0000 O   0  0  0  0  0  0  0  0  0  0  0  0
    0.2120   -1.4850    0.0000 C   0  0  0  0  0  0  0  0  0  0  0  0
    1.6630   -1.8220    0.0000 C   0  0  0  0  0  0  0  0  0  0  0  0
    1.8990   -3.2750    0.0000 C   0  0  0  0  0  0  0  0  0  0  0  0
    0.4960   -3.9800    0.0000 C   0  0  0  0  0  0  0  0  0  0  0  0
   -1.0120   -3.6150    0.0000 C   0  0  3  0  0  0  0  0  0  0  0  0
   -1.2310   -2.1550    0.0000 C   0  0  0  0  0  0  0  0  0  0  0  0
   -1.7500   -4.9440    0.0000 C   0  0  0  0  0  0  0  0  0  0  0  0
   -0.2660   -4.1000    0.0000 C   0  0  3  0  0  0  0  0  0  0  0  0
    1.1380   -4.4470    0.0000 C   0  0  0  0  0  0  0  0  0  0  0  0
   -0.4330   -2.7300    0.0000 C   0  0  0  0  0  0  0  0  0  0  0  0
    3.3670   -3.5840    0.0000 C   0  0  2  0  0  0  0  0  0  0  0  0
    3.8340   -5.0100    0.0000 N   0  0  0  0  0  0  0  0  0  0  0  0
    4.3680   -2.4670    0.0000 C   0  0  0  0  0  0  0  0  0  0  0  0
    3.9010   -1.0420    0.0000 O   0  0  0  0  0  0  0  0  0  0  0  0
    5.8360   -2.7760    0.0000 N   0  0  0  0  0  0  0  0  0  0  0  0
    6.4490   -4.1450    0.0000 C   0  0  2  0  0  0  0  0  0  0  0  0
    7.9410   -3.9850    0.0000 C   0  0  2  0  0  0  0  0  0  0  0  0
    8.2500   -2.5170    0.0000 C   0  0  0  0  0  0  0  0  0  0  0  0
    6.9490   -1.7690    0.0000 C   0  0  1  0  0  0  0  0  0  0  0  0
    6.7890   -0.2780    0.0000 C   0  0  0  0  0  0  0  0  0  0  0  0
    6.6290    1.2140    0.0000 N   0  0  0  0  0  0  0  0  0  0  0  0
    7.3340   -5.3570    0.0000 C   0  0  0  0  0  0  0  0  0  0  0  0
  1  2  1  0  0  0  0
  2  3  1  0  0  0  0
  2  7  1  0  0  0  0
  2 11  1  0  0  0  0
  3  4  1  0  0  0  0
  4  5  1  0  0  0  0
  4 10  1  0  0  0  0
  4 12  1  0  0  0  0
  5  6  1  0  0  0  0
  6  7  1  0  0  0  0
  6  8  1  0  0  0  0
  8  9  1  0  0  0  0
  9 10  1  0  0  0  0
  9 11  1  0  0  0  0
 12 13  1  1  0  0  0
 12 14  1  0  0  0  0
 14 15  2  0  0  0  0
 14 16  1  0  0  0  0
 16 17  1  0  0  0  0
 16 20  1  0  0  0  0
 17 18  1  0  0  0  0
 17 23  1  6  0  0  0
 18 19  1  0  0  0  0
 18 23  1  6  0  0  0
 19 20  1  0  0  0  0
 20 21  1  6  0  0  0
 21 22  3  0  0  0  0
M  END
>  <Index>
971

>  <ID>
HT1871

>  <class>
0

>  <apol>
53.253826

>  <ast_fraglike>
0

>  <ast_fraglike_ext>
0

>  <ast_violation>
2

>  <ast_violation_ext>
3

>  <a_acc>
4

>  <a_acid>
0

>  <a_aro>
0

>  <a_base>
0

>  <a_count>
48

>  <a_don>
2

>  <a_donacc>
6

>  <a_heavy>
23

>  <a_hyd>
16

>  <a_IC>
70.168259

>  <a_ICM>
1.4618387

>  <a_nB>
0

>  <a_nBr>
0

>  <a_nC>
18

>  <a_nCl>
0

>  <a_nF>
0

>  <a_nH>
25

>  <a_nI>
0

>  <a_nN>
3

>  <a_nO>
2

>  <a_nP>
0

>  <a_nS>
0

>  <balabanJ>
1.4052337

>  <BCUT_PEOE_0>
-3.0051031

>  <BCUT_PEOE_1>
-0.51236659

>  <BCUT_PEOE_2>
0.57134265

>  <BCUT_PEOE_3>
2.9835014

>  <BCUT_SLOGP_0>
-2.9816275

>  <BCUT_SLOGP_1>
-0.44293594

>  <BCUT_SLOGP_2>
0.58388978

>  <BCUT_SLOGP_3>
3.0391214

>  <BCUT_SMR_0>
-2.758822

>  <BCUT_SMR_1>
-0.37428021

>  <BCUT_SMR_2>
0.69693935

>  <BCUT_SMR_3>
3.2297525

>  <bpol>
30.268175

>  <b_1rotN>
3

>  <b_1rotR>
0.11111111

>  <b_ar>
0

>  <b_count>
52

>  <b_double>
1

>  <b_heavy>
27

>  <b_max1len>
3

>  <b_rotN>
4

>  <b_rotR>
0.14814815

>  <b_single>
50

>  <b_triple>
1

>  <chi0>
15.982763

>  <chi0v>
13.448195

>  <chi0v_C>
11.120955

>  <chi0_C>
11.405413

>  <chi1>
10.929201

>  <chi1v>
9.1278372

>  <chi1v_C>
7.403162

>  <chi1_C>
7.5673933

>  <chiral>
6

>  <chiral_u>
2

>  <density>
0.7379607

>  <diameter>
9

>  <FCharge>
0

>  <GCUT_PEOE_0>
-0.82624352

>  <GCUT_PEOE_1>
-0.39700893

>  <GCUT_PEOE_2>
0.056258041

>  <GCUT_PEOE_3>
3.1609085

>  <GCUT_SLOGP_0>
-1.363939

>  <GCUT_SLOGP_1>
-0.33473188

>  <GCUT_SLOGP_2>
0.11966349

>  <GCUT_SLOGP_3>
3.1835394

>  <GCUT_SMR_0>
-0.52878922

>  <GCUT_SMR_1>
-0.23034436

>  <GCUT_SMR_2>
0.16207592

>  <GCUT_SMR_3>
3.3825109

>  <Kier1>
15.270233

>  <Kier2>
4.791111

>  <Kier3>
2.0202019

>  <KierA1>
13.402483

>  <KierA2>
4.1788406

>  <KierA3>
1.7536955

>  <KierFlex>
2.4350801

>  <lip_acc>
5

>  <lip_don>
3

>  <lip_druglike>
1

>  <lip_violation>
0

>  <logP(o/w)>
0.852

>  <logS>
-2.375

>  <mr>
8.4691696

>  <mutagenic>
0

>  <nmol>
1

>  <opr_brigid>
19

>  <opr_leadlike>
1

>  <opr_nring>
5

>  <opr_nrot>
3

>  <opr_violation>
1

>  <PC+>
0

>  <PC->
0

>  <PEOE_PC+>
1.8211193

>  <PEOE_PC->
-1.8211193

>  <PEOE_RPC+>
0.13294198

>  <PEOE_RPC->
0.21335028

>  <PEOE_VSA+0>
84.188293

>  <PEOE_VSA+1>
36.241623

>  <PEOE_VSA+2>
20.383986

>  <PEOE_VSA+3>
0

>  <PEOE_VSA+4>
23.273705

>  <PEOE_VSA+5>
0

>  <PEOE_VSA+6>
0

>  <PEOE_VSA-0>
69.610504

>  <PEOE_VSA-1>
0

>  <PEOE_VSA-2>
0

>  <PEOE_VSA-3>
17.742489

>  <PEOE_VSA-4>
0

>  <PEOE_VSA-5>
13.566921

>  <PEOE_VSA-6>
14.418659

>  <PEOE_VSA_FHYD>
0.8165552

>  <PEOE_VSA_FNEG>
0.41276938

>  <PEOE_VSA_FPNEG>
0.10015375

>  <PEOE_VSA_FPOL>
0.18344481

>  <PEOE_VSA_FPOS>
0.58723062

>  <PEOE_VSA_FPPOS>
0.083291061

>  <PEOE_VSA_HYD>
228.1669

>  <PEOE_VSA_NEG>
115.33858

>  <PEOE_VSA_PNEG>
27.98558

>  <PEOE_VSA_POL>
51.259285

>  <PEOE_VSA_POS>
164.08762

>  <PEOE_VSA_PPOS>
23.273705

>  <petitjean>
0.44444445

>  <petitjeanSC>
0.80000001

>  <Q_PC+>
0

>  <Q_PC->
0

>  <Q_RPC+>
0

>  <Q_RPC->
0

>  <Q_VSA_FHYD>
1

>  <Q_VSA_FNEG>
0

>  <Q_VSA_FPNEG>
0

>  <Q_VSA_FPOL>
0

>  <Q_VSA_FPOS>
1

>  <Q_VSA_FPPOS>
0

>  <Q_VSA_HYD>
279.42618

>  <Q_VSA_NEG>
0

>  <Q_VSA_PNEG>
0

>  <Q_VSA_POL>
0

>  <Q_VSA_POS>
279.42618

>  <Q_VSA_PPOS>
0

>  <radius>
5

>  <reactive>
0

>  <rings>
5

>  <RPC+>
0

>  <RPC->
0

>  <rsynth>
0.086956523

>  <SlogP>
1.157984

>  <SlogP_VSA0>
58.282413

>  <SlogP_VSA1>
8.3830976

>  <SlogP_VSA2>
35.808121

>  <SlogP_VSA3>
47.661102

>  <SlogP_VSA4>
13.232388

>  <SlogP_VSA5>
0

>  <SlogP_VSA6>
0

>  <SlogP_VSA7>
0

>  <SlogP_VSA8>
150.94725

>  <SlogP_VSA9>
0

>  <SMR>
8.2799196

>  <SMR_VSA0>
23.862217

>  <SMR_VSA1>
59.568897

>  <SMR_VSA2>
13.232388

>  <SMR_VSA3>
28.547653

>  <SMR_VSA4>
32.897186

>  <SMR_VSA5>
150.94725

>  <SMR_VSA6>
5.2587838

>  <SMR_VSA7>
0

>  <TPSA>
90.349998

>  <VAdjEq>
0.47555268

>  <VAdjMa>
5.7548876

>  <VDistEq>
3.0229986

>  <VDistMa>
8.7794256

>  <vdw_area>
279.42618

>  <vdw_vol>
427.41705

>  <vsa_acc>
31.30941

>  <vsa_acid>
0

>  <vsa_base>
0

>  <vsa_don>
0

>  <vsa_hyd>
153.19223

>  <vsa_other>
33.249039

>  <vsa_pol>
62.61882

>  <Weight>
315.41699

>  <weinerPath>
1058

>  <weinerPol>
41

>  <zagreb>
144

$$$$