S(c1ccccc1C(=O)NC)c1cc2n[nH]c(c2cc1)C=Cc1ncccc1
  MOE2013           2D

 28 31  0  0  0  0  0  0  0  0999 V2000
    0.0000    0.0000    0.0000 S   0  0  0  0  0  0  0  0  0  0  0  0
    0.7440    1.3020    0.0000 C   0  0  0  0  0  0  0  0  0  0  0  0
   -0.0120    2.5980    0.0000 C   0  0  0  0  0  0  0  0  0  0  0  0
    0.7320    3.9010    0.0000 C   0  0  0  0  0  0  0  0  0  0  0  0
    2.2320    3.9070    0.0000 C   0  0  0  0  0  0  0  0  0  0  0  0
    2.9880    2.6120    0.0000 C   0  0  0  0  0  0  0  0  0  0  0  0
    2.2440    1.3090    0.0000 C   0  0  0  0  0  0  0  0  0  0  0  0
    3.0000    0.0140    0.0000 C   0  0  0  0  0  0  0  0  0  0  0  0
    2.2560   -1.2890    0.0000 O   0  0  0  0  0  0  0  0  0  0  0  0
    4.5000    0.0210    0.0000 N   0  0  0  0  0  0  0  0  0  0  0  0
    5.2560   -1.2750    0.0000 C   0  0  0  0  0  0  0  0  0  0  0  0
   -1.5000   -0.0070    0.0000 C   0  0  0  0  0  0  0  0  0  0  0  0
   -2.2440   -1.3090    0.0000 C   0  0  0  0  0  0  0  0  0  0  0  0
   -3.7440   -1.3160    0.0000 C   0  0  0  0  0  0  0  0  0  0  0  0
   -4.7430   -2.4360    0.0000 N   0  0  0  0  0  0  0  0  0  0  0  0
   -6.1160   -1.8320    0.0000 N   0  0  0  0  0  0  0  0  0  0  0  0
   -5.9660   -0.3390    0.0000 C   0  0  0  0  0  0  0  0  0  0  0  0
   -4.5000   -0.0210    0.0000 C   0  0  0  0  0  0  0  0  0  0  0  0
   -3.7560    1.2820    0.0000 C   0  0  0  0  0  0  0  0  0  0  0  0
   -2.2560    1.2890    0.0000 C   0  0  0  0  0  0  0  0  0  0  0  0
   -7.0850    0.6590    0.0000 C   0  0  0  0  0  0  0  0  0  0  0  0
   -8.5090    0.1890    0.0000 C   0  0  0  0  0  0  0  0  0  0  0  0
   -9.6290    1.1880    0.0000 C   0  0  0  0  0  0  0  0  0  0  0  0
   -9.3240    2.6560    0.0000 N   0  0  0  0  0  0  0  0  0  0  0  0
  -10.4430    3.6550    0.0000 C   0  0  0  0  0  0  0  0  0  0  0  0
  -11.8680    3.1850    0.0000 C   0  0  0  0  0  0  0  0  0  0  0  0
  -12.1730    1.7160    0.0000 C   0  0  0  0  0  0  0  0  0  0  0  0
  -11.0530    0.7170    0.0000 C   0  0  0  0  0  0  0  0  0  0  0  0
  1  2  1  0  0  0  0
  1 12  1  0  0  0  0
  2  3  1  0  0  0  0
  2  7  2  0  0  0  0
  3  4  2  0  0  0  0
  4  5  1  0  0  0  0
  5  6  2  0  0  0  0
  6  7  1  0  0  0  0
  7  8  1  0  0  0  0
  8  9  2  0  0  0  0
  8 10  1  0  0  0  0
 10 11  1  0  0  0  0
 12 13  2  0  0  0  0
 12 20  1  0  0  0  0
 13 14  1  0  0  0  0
 14 15  2  0  0  0  0
 14 18  1  0  0  0  0
 15 16  1  0  0  0  0
 16 17  1  0  0  0  0
 17 18  2  0  0  0  0
 17 21  1  0  0  0  0
 18 19  1  0  0  0  0
 19 20  2  0  0  0  0
 21 22  2  3  0  0  0
 22 23  1  0  0  0  0
 23 24  1  0  0  0  0
 23 28  2  0  0  0  0
 24 25  2  0  0  0  0
 25 26  1  0  0  0  0
 26 27  2  0  0  0  0
 27 28  1  0  0  0  0
M  END
>  <Index>
100

>  <ID>
HT0207

>  <class>
0

>  <apol>
58.824272

>  <ast_fraglike>
0

>  <ast_fraglike_ext>
0

>  <ast_violation>
3

>  <ast_violation_ext>
4

>  <a_acc>
4

>  <a_acid>
0

>  <a_aro>
21

>  <a_base>
0

>  <a_count>
46

>  <a_don>
3

>  <a_donacc>
7

>  <a_heavy>
28

>  <a_hyd>
22

>  <a_IC>
72.917702

>  <a_ICM>
1.5851675

>  <a_nB>
0

>  <a_nBr>
0

>  <a_nC>
22

>  <a_nCl>
0

>  <a_nF>
0

>  <a_nH>
18

>  <a_nI>
0

>  <a_nN>
4

>  <a_nO>
1

>  <a_nP>
0

>  <a_nS>
1

>  <balabanJ>
1.2407064

>  <BCUT_PEOE_0>
-2.3310711

>  <BCUT_PEOE_1>
-0.62019992

>  <BCUT_PEOE_2>
0.64496696

>  <BCUT_PEOE_3>
2.2836678

>  <BCUT_SLOGP_0>
-2.5382378

>  <BCUT_SLOGP_1>
-0.51175517

>  <BCUT_SLOGP_2>
0.7005977

>  <BCUT_SLOGP_3>
2.4367888

>  <BCUT_SMR_0>
-2.0254581

>  <BCUT_SMR_1>
-0.44113818

>  <BCUT_SMR_2>
0.78770441

>  <BCUT_SMR_3>
2.6186097

>  <bpol>
25.555725

>  <b_1rotN>
5

>  <b_1rotR>
0.16129032

>  <b_ar>
22

>  <b_count>
49

>  <b_double>
2

>  <b_heavy>
31

>  <b_max1len>
3

>  <b_rotN>
6

>  <b_rotR>
0.19354838

>  <b_single>
25

>  <b_triple>
0

>  <chi0>
19.346724

>  <chi0v>
16.032974

>  <chi0v_C>
12.505553

>  <chi0_C>
14.811191

>  <chi1>
13.741515

>  <chi1v>
9.6226311

>  <chi1v_C>
6.2647429

>  <chi1_C>
9.0075684

>  <chiral>
0

>  <chiral_u>
0

>  <density>
0.74773532

>  <diameter>
16

>  <FCharge>
0

>  <GCUT_PEOE_0>
-0.84003234

>  <GCUT_PEOE_1>
-0.43450168

>  <GCUT_PEOE_2>
0.067784488

>  <GCUT_PEOE_3>
2.4719887

>  <GCUT_SLOGP_0>
-1.1607164

>  <GCUT_SLOGP_1>
-0.28309587

>  <GCUT_SLOGP_2>
0.17214935

>  <GCUT_SLOGP_3>
2.6258111

>  <GCUT_SMR_0>
-0.48520505

>  <GCUT_SMR_1>
-0.18836103

>  <GCUT_SMR_2>
0.20085251

>  <GCUT_SMR_3>
2.8039374

>  <Kier1>
21.240376

>  <Kier2>
10.346939

>  <Kier3>
5.3890305

>  <KierA1>
14.83703

>  <KierA2>
7.1234736

>  <KierA3>
3.6719244

>  <KierFlex>
3.7746856

>  <lip_acc>
5

>  <lip_don>
2

>  <lip_druglike>
1

>  <lip_violation>
0

>  <logP(o/w)>
4.8080001

>  <logS>
-5.95397

>  <mr>
11.426534

>  <mutagenic>
0

>  <nmol>
1

>  <opr_brigid>
23

>  <opr_leadlike>
1

>  <opr_nring>
4

>  <opr_nrot>
5

>  <opr_violation>
1

>  <PC+>
0

>  <PC->
0

>  <PEOE_PC+>
1.957338

>  <PEOE_PC->
-1.957338

>  <PEOE_RPC+>
0.12919469

>  <PEOE_RPC->
0.18137327

>  <PEOE_VSA+0>
63.358505

>  <PEOE_VSA+1>
77.75721

>  <PEOE_VSA+2>
0

>  <PEOE_VSA+3>
17.238026

>  <PEOE_VSA+4>
0

>  <PEOE_VSA+5>
12.949531

>  <PEOE_VSA+6>
0

>  <PEOE_VSA-0>
110.29414

>  <PEOE_VSA-1>
56.52533

>  <PEOE_VSA-2>
0

>  <PEOE_VSA-3>
9.4210396

>  <PEOE_VSA-4>
0

>  <PEOE_VSA-5>
23.124851

>  <PEOE_VSA-6>
0.13689101

>  <PEOE_VSA_FHYD>
0.90234429

>  <PEOE_VSA_FNEG>
0.53802395

>  <PEOE_VSA_FPNEG>
0.062733002

>  <PEOE_VSA_FPOL>
0.097655699

>  <PEOE_VSA_FPOS>
0.46197605

>  <PEOE_VSA_FPPOS>
0.034922704

>  <PEOE_VSA_HYD>
334.59424

>  <PEOE_VSA_NEG>
199.50224

>  <PEOE_VSA_PNEG>
23.261742

>  <PEOE_VSA_POL>
36.211273

>  <PEOE_VSA_POS>
171.30327

>  <PEOE_VSA_PPOS>
12.949531

>  <petitjean>
0.5

>  <petitjeanSC>
1

>  <Q_PC+>
0

>  <Q_PC->
0

>  <Q_RPC+>
0

>  <Q_RPC->
0

>  <Q_VSA_FHYD>
1

>  <Q_VSA_FNEG>
0

>  <Q_VSA_FPNEG>
0

>  <Q_VSA_FPOL>
0

>  <Q_VSA_FPOS>
1

>  <Q_VSA_FPPOS>
0

>  <Q_VSA_HYD>
370.80551

>  <Q_VSA_NEG>
0

>  <Q_VSA_PNEG>
0

>  <Q_VSA_POL>
0

>  <Q_VSA_POS>
370.80551

>  <Q_VSA_PPOS>
0

>  <radius>
8

>  <reactive>
0

>  <rings>
4

>  <RPC+>
0

>  <RPC->
0

>  <rsynth>
0.64285713

>  <SlogP>
4.6391001

>  <SlogP_VSA0>
18.01075

>  <SlogP_VSA1>
38.707321

>  <SlogP_VSA2>
16.663008

>  <SlogP_VSA3>
0

>  <SlogP_VSA4>
32.561287

>  <SlogP_VSA5>
35.998657

>  <SlogP_VSA6>
0

>  <SlogP_VSA7>
198.3633

>  <SlogP_VSA8>
35.286369

>  <SlogP_VSA9>
32.21954

>  <SMR>
11.32149

>  <SMR_VSA0>
23.862217

>  <SMR_VSA1>
33.448536

>  <SMR_VSA2>
37.775227

>  <SMR_VSA3>
8.69907

>  <SMR_VSA4>
4.7171016

>  <SMR_VSA5>
193.64619

>  <SMR_VSA6>
40.545151

>  <SMR_VSA7>
65.11673

>  <TPSA>
70.669998

>  <VAdjEq>
0.39893496

>  <VAdjMa>
5.9541965

>  <VDistEq>
3.7516701

>  <VDistMa>
9.2852774

>  <vdw_area>
370.80551

>  <vdw_vol>
516.86603

>  <vsa_acc>
19.249496

>  <vsa_acid>
0

>  <vsa_base>
0

>  <vsa_don>
5.6825762

>  <vsa_hyd>
296.54645

>  <vsa_other>
12.949531

>  <vsa_pol>
43.774151

>  <Weight>
386.479

>  <weinerPath>
2325

>  <weinerPol>
42

>  <zagreb>
146

$$$$