Clc1c(N2CCN(CC2)CCCCOc2cc3NC(=O)CCc3cc2)cccc1Cl
  MOE2013           2D

 30 33  0  0  0  0  0  0  0  0999 V2000
    0.0000    0.0000    0.0000 Cl  0  0  0  0  0  0  0  0  0  0  0  0
    0.0120    1.5000    0.0000 C   0  0  0  0  0  0  0  0  0  0  0  0
    1.3180    2.2390    0.0000 C   0  0  0  0  0  0  0  0  0  0  0  0
    2.6100    1.4780    0.0000 N   0  0  0  0  0  0  0  0  0  0  0  0
    2.5980   -0.0220    0.0000 C   0  0  0  0  0  0  0  0  0  0  0  0
    3.8910   -0.7820    0.0000 C   0  0  0  0  0  0  0  0  0  0  0  0
    5.1960   -0.0430    0.0000 N   0  0  0  0  0  0  0  0  0  0  0  0
    5.2080    1.4570    0.0000 C   0  0  0  0  0  0  0  0  0  0  0  0
    3.9160    2.2180    0.0000 C   0  0  0  0  0  0  0  0  0  0  0  0
    6.4890   -0.8040    0.0000 C   0  0  0  0  0  0  0  0  0  0  0  0
    7.7940   -0.0650    0.0000 C   0  0  0  0  0  0  0  0  0  0  0  0
    9.0870   -0.8250    0.0000 C   0  0  0  0  0  0  0  0  0  0  0  0
   10.3920   -0.0860    0.0000 C   0  0  0  0  0  0  0  0  0  0  0  0
   11.6850   -0.8470    0.0000 O   0  0  0  0  0  0  0  0  0  0  0  0
   12.9900   -0.1080    0.0000 C   0  0  0  0  0  0  0  0  0  0  0  0
   14.2830   -0.8680    0.0000 C   0  0  0  0  0  0  0  0  0  0  0  0
   15.5880   -0.1290    0.0000 C   0  0  0  0  0  0  0  0  0  0  0  0
   16.8810   -0.8900    0.0000 N   0  0  0  0  0  0  0  0  0  0  0  0
   18.1860   -0.1510    0.0000 C   0  0  0  0  0  0  0  0  0  0  0  0
   19.4790   -0.9110    0.0000 O   0  0  0  0  0  0  0  0  0  0  0  0
   18.1980    1.3490    0.0000 C   0  0  0  0  0  0  0  0  0  0  0  0
   16.9060    2.1100    0.0000 C   0  0  0  0  0  0  0  0  0  0  0  0
   15.6000    1.3710    0.0000 C   0  0  0  0  0  0  0  0  0  0  0  0
   14.3080    2.1320    0.0000 C   0  0  0  0  0  0  0  0  0  0  0  0
   13.0020    1.3920    0.0000 C   0  0  0  0  0  0  0  0  0  0  0  0
    1.3300    3.7390    0.0000 C   0  0  0  0  0  0  0  0  0  0  0  0
    0.0370    4.5000    0.0000 C   0  0  0  0  0  0  0  0  0  0  0  0
   -1.2680    3.7610    0.0000 C   0  0  0  0  0  0  0  0  0  0  0  0
   -1.2800    2.2610    0.0000 C   0  0  0  0  0  0  0  0  0  0  0  0
   -2.5860    1.5210    0.0000 Cl  0  0  0  0  0  0  0  0  0  0  0  0
  1  2  1  0  0  0  0
  2  3  1  0  0  0  0
  2 29  2  0  0  0  0
  3  4  1  0  0  0  0
  3 26  2  0  0  0  0
  4  5  1  0  0  0  0
  4  9  1  0  0  0  0
  5  6  1  0  0  0  0
  6  7  1  0  0  0  0
  7  8  1  0  0  0  0
  7 10  1  0  0  0  0
  8  9  1  0  0  0  0
 10 11  1  0  0  0  0
 11 12  1  0  0  0  0
 12 13  1  0  0  0  0
 13 14  1  0  0  0  0
 14 15  1  0  0  0  0
 15 16  1  0  0  0  0
 15 25  2  0  0  0  0
 16 17  2  0  0  0  0
 17 18  1  0  0  0  0
 17 23  1  0  0  0  0
 18 19  1  0  0  0  0
 19 20  2  0  0  0  0
 19 21  1  0  0  0  0
 21 22  1  0  0  0  0
 22 23  1  0  0  0  0
 23 24  2  0  0  0  0
 24 25  1  0  0  0  0
 26 27  1  0  0  0  0
 27 28  2  0  0  0  0
 28 29  1  0  0  0  0
 29 30  1  0  0  0  0
M  END
>  <Index>
91

>  <ID>
HT0180

>  <class>
0

>  <apol>
67.747414

>  <ast_fraglike>
0

>  <ast_fraglike_ext>
0

>  <ast_violation>
2

>  <ast_violation_ext>
3

>  <a_acc>
3

>  <a_acid>
0

>  <a_aro>
12

>  <a_base>
0

>  <a_count>
57

>  <a_don>
1

>  <a_donacc>
4

>  <a_heavy>
30

>  <a_hyd>
24

>  <a_IC>
91.295959

>  <a_ICM>
1.6016834

>  <a_nB>
0

>  <a_nBr>
0

>  <a_nC>
23

>  <a_nCl>
2

>  <a_nF>
0

>  <a_nH>
27

>  <a_nI>
0

>  <a_nN>
3

>  <a_nO>
2

>  <a_nP>
0

>  <a_nS>
0

>  <balabanJ>
1.0625869

>  <BCUT_PEOE_0>
-2.7748227

>  <BCUT_PEOE_1>
-0.57348496

>  <BCUT_PEOE_2>
0.5247646

>  <BCUT_PEOE_3>
2.6779416

>  <BCUT_SLOGP_0>
-2.8834631

>  <BCUT_SLOGP_1>
-0.45726055

>  <BCUT_SLOGP_2>
0.66251558

>  <BCUT_SLOGP_3>
2.6427305

>  <BCUT_SMR_0>
-2.4866726

>  <BCUT_SMR_1>
-0.31851333

>  <BCUT_SMR_2>
0.73468894

>  <BCUT_SMR_3>
2.9606364

>  <bpol>
37.85059

>  <b_1rotN>
7

>  <b_1rotR>
0.21212122

>  <b_ar>
12

>  <b_count>
60

>  <b_double>
1

>  <b_heavy>
33

>  <b_max1len>
5

>  <b_rotN>
7

>  <b_rotR>
0.21212122

>  <b_single>
47

>  <b_triple>
0

>  <chi0>
20.924074

>  <chi0v>
18.51388

>  <chi0v_C>
14.03517

>  <chi0_C>
15.355161

>  <chi1>
14.597357

>  <chi1v>
11.32472

>  <chi1v_C>
7.1891575

>  <chi1_C>
8.7659864

>  <chiral>
0

>  <chiral_u>
0

>  <density>
0.77227074

>  <diameter>
18

>  <FCharge>
0

>  <GCUT_PEOE_0>
-0.85450834

>  <GCUT_PEOE_1>
-0.4108431

>  <GCUT_PEOE_2>
0.027482498

>  <GCUT_PEOE_3>
2.747231

>  <GCUT_SLOGP_0>
-0.99896419

>  <GCUT_SLOGP_1>
-0.33069906

>  <GCUT_SLOGP_2>
0.16856527

>  <GCUT_SLOGP_3>
2.8001449

>  <GCUT_SMR_0>
-0.52570415

>  <GCUT_SMR_1>
-0.1846987

>  <GCUT_SMR_2>
0.22575636

>  <GCUT_SMR_3>
3.0107307

>  <Kier1>
23.168043

>  <Kier2>
11.227654

>  <Kier3>
6.2925091

>  <KierA1>
20.246986

>  <KierA2>
9.7643719

>  <KierA3>
5.4535723

>  <KierFlex>
6.5899701

>  <lip_acc>
5

>  <lip_don>
1

>  <lip_druglike>
1

>  <lip_violation>
0

>  <logP(o/w)>
4.178

>  <logS>
-5.34374

>  <mr>
12.175571

>  <mutagenic>
0

>  <nmol>
1

>  <opr_brigid>
23

>  <opr_leadlike>
1

>  <opr_nring>
4

>  <opr_nrot>
9

>  <opr_violation>
1

>  <PC+>
0

>  <PC->
0

>  <PEOE_PC+>
2.0199027

>  <PEOE_PC->
-2.0199027

>  <PEOE_RPC+>
0.11166482

>  <PEOE_RPC->
0.17061514

>  <PEOE_VSA+0>
151.64667

>  <PEOE_VSA+1>
66.572395

>  <PEOE_VSA+2>
0

>  <PEOE_VSA+3>
8.6190128

>  <PEOE_VSA+4>
12.949531

>  <PEOE_VSA+5>
0

>  <PEOE_VSA+6>
0

>  <PEOE_VSA-0>
90.524422

>  <PEOE_VSA-1>
83.673698

>  <PEOE_VSA-2>
0

>  <PEOE_VSA-3>
0

>  <PEOE_VSA-4>
0

>  <PEOE_VSA-5>
13.566921

>  <PEOE_VSA-6>
2.6406472

>  <PEOE_VSA_FHYD>
0.93222326

>  <PEOE_VSA_FNEG>
0.44260496

>  <PEOE_VSA_FPNEG>
0.037675083

>  <PEOE_VSA_FPOL>
0.06777674

>  <PEOE_VSA_FPOS>
0.55739504

>  <PEOE_VSA_FPPOS>
0.030101657

>  <PEOE_VSA_HYD>
401.03619

>  <PEOE_VSA_NEG>
190.40569

>  <PEOE_VSA_PNEG>
16.207567

>  <PEOE_VSA_POL>
29.157099

>  <PEOE_VSA_POS>
239.7876

>  <PEOE_VSA_PPOS>
12.949531

>  <petitjean>
0.5

>  <petitjeanSC>
1

>  <Q_PC+>
0

>  <Q_PC->
0

>  <Q_RPC+>
0

>  <Q_RPC->
0

>  <Q_VSA_FHYD>
1

>  <Q_VSA_FNEG>
0

>  <Q_VSA_FPNEG>
0

>  <Q_VSA_FPOL>
0

>  <Q_VSA_FPOS>
1

>  <Q_VSA_FPPOS>
0

>  <Q_VSA_HYD>
430.1933

>  <Q_VSA_NEG>
0

>  <Q_VSA_PNEG>
0

>  <Q_VSA_POL>
0

>  <Q_VSA_POS>
430.1933

>  <Q_VSA_PPOS>
0

>  <radius>
9

>  <reactive>
0

>  <rings>
4

>  <RPC+>
0

>  <RPC->
0

>  <rsynth>
1

>  <SlogP>
4.8592701

>  <SlogP_VSA0>
14.124202

>  <SlogP_VSA1>
26.393848

>  <SlogP_VSA2>
23.862217

>  <SlogP_VSA3>
113.12415

>  <SlogP_VSA4>
3.185575

>  <SlogP_VSA5>
18.868406

>  <SlogP_VSA6>
7.0012131

>  <SlogP_VSA7>
105.85911

>  <SlogP_VSA8>
56.605217

>  <SlogP_VSA9>
89.054214

>  <SMR>
12.32367

>  <SMR_VSA0>
23.862217

>  <SMR_VSA1>
14.124202

>  <SMR_VSA2>
3.1243138

>  <SMR_VSA3>
15.430216

>  <SMR_VSA4>
23.524246

>  <SMR_VSA5>
181.33273

>  <SMR_VSA6>
118.38293

>  <SMR_VSA7>
78.297287

>  <TPSA>
44.810001

>  <VAdjEq>
0.37824166

>  <VAdjMa>
6.044394

>  <VDistEq>
4.0210919

>  <VDistMa>
9.4500141

>  <vdw_area>
430.1933

>  <vdw_vol>
580.61761

>  <vsa_acc>
16.070677

>  <vsa_acid>
0

>  <vsa_base>
0

>  <vsa_don>
5.6825762

>  <vsa_hyd>
373.91049

>  <vsa_other>
12.949531

>  <vsa_pol>
21.753254

>  <Weight>
448.39398

>  <weinerPath>
3204

>  <weinerPol>
46

>  <zagreb>
156

$$$$