O([C@H](CCNC)c1ccccc1)c1ccccc1C
  MOE2013           2D

 19 20  0  0  1  0  0  0  0  0999 V2000
    0.0000    0.0000    0.0000 O   0  0  0  0  0  0  0  0  0  0  0  0
    1.2990    0.7500    0.0000 C   0  0  2  0  0  0  0  0  0  0  0  0
    1.2980    2.2500    0.0000 C   0  0  0  0  0  0  0  0  0  0  0  0
    2.5970    3.0010    0.0000 C   0  0  0  0  0  0  0  0  0  0  0  0
    2.5970    4.5010    0.0000 N   0  0  0  0  0  0  0  0  0  0  0  0
    3.8960    5.2510    0.0000 C   0  0  0  0  0  0  0  0  0  0  0  0
    2.5980    0.0010    0.0000 C   0  0  0  0  0  0  0  0  0  0  0  0
    3.8970    0.7510    0.0000 C   0  0  0  0  0  0  0  0  0  0  0  0
    5.1960    0.0020    0.0000 C   0  0  0  0  0  0  0  0  0  0  0  0
    5.1970   -1.4980    0.0000 C   0  0  0  0  0  0  0  0  0  0  0  0
    3.8980   -2.2490    0.0000 C   0  0  0  0  0  0  0  0  0  0  0  0
    2.5990   -1.4990    0.0000 C   0  0  0  0  0  0  0  0  0  0  0  0
   -1.2990    0.7500    0.0000 C   0  0  0  0  0  0  0  0  0  0  0  0
   -1.3000    2.2500    0.0000 C   0  0  0  0  0  0  0  0  0  0  0  0
   -2.5990    2.9990    0.0000 C   0  0  0  0  0  0  0  0  0  0  0  0
   -3.8980    2.2490    0.0000 C   0  0  0  0  0  0  0  0  0  0  0  0
   -3.8970    0.7490    0.0000 C   0  0  0  0  0  0  0  0  0  0  0  0
   -2.5980   -0.0010    0.0000 C   0  0  0  0  0  0  0  0  0  0  0  0
   -2.5980   -1.5010    0.0000 C   0  0  0  0  0  0  0  0  0  0  0  0
  1 13  1  0  0  0  0
  2  1  1  6  0  0  0
  2  3  1  0  0  0  0
  2  7  1  0  0  0  0
  3  4  1  0  0  0  0
  4  5  1  0  0  0  0
  5  6  1  0  0  0  0
  7  8  1  0  0  0  0
  7 12  2  0  0  0  0
  8  9  2  0  0  0  0
  9 10  1  0  0  0  0
 10 11  2  0  0  0  0
 11 12  1  0  0  0  0
 13 14  1  0  0  0  0
 13 18  2  0  0  0  0
 14 15  2  0  0  0  0
 15 16  1  0  0  0  0
 16 17  2  0  0  0  0
 17 18  1  0  0  0  0
 18 19  1  0  0  0  0
M  END
>  <Index>
96

>  <ID>
HT0193

>  <class>
0

>  <apol>
45.824654

>  <ast_fraglike>
0

>  <ast_fraglike_ext>
0

>  <ast_violation>
1

>  <ast_violation_ext>
2

>  <a_acc>
2

>  <a_acid>
0

>  <a_aro>
12

>  <a_base>
0

>  <a_count>
40

>  <a_don>
1

>  <a_donacc>
3

>  <a_heavy>
19

>  <a_hyd>
17

>  <a_IC>
51.151588

>  <a_ICM>
1.2787898

>  <a_nB>
0

>  <a_nBr>
0

>  <a_nC>
17

>  <a_nCl>
0

>  <a_nF>
0

>  <a_nH>
21

>  <a_nI>
0

>  <a_nN>
1

>  <a_nO>
1

>  <a_nP>
0

>  <a_nS>
0

>  <balabanJ>
1.8823915

>  <BCUT_PEOE_0>
-2.5983801

>  <BCUT_PEOE_1>
-0.58666831

>  <BCUT_PEOE_2>
0.62142622

>  <BCUT_PEOE_3>
2.5549049

>  <BCUT_SLOGP_0>
-2.6833143

>  <BCUT_SLOGP_1>
-0.48093024

>  <BCUT_SLOGP_2>
0.69469035

>  <BCUT_SLOGP_3>
2.6256747

>  <BCUT_SMR_0>
-2.3371725

>  <BCUT_SMR_1>
-0.4264766

>  <BCUT_SMR_2>
0.78375608

>  <BCUT_SMR_3>
2.8078833

>  <bpol>
25.533346

>  <b_1rotN>
6

>  <b_1rotR>
0.30000001

>  <b_ar>
12

>  <b_count>
41

>  <b_double>
0

>  <b_heavy>
20

>  <b_max1len>
6

>  <b_rotN>
6

>  <b_rotR>
0.30000001

>  <b_single>
29

>  <b_triple>
0

>  <chi0>
13.501789

>  <chi0v>
11.595964

>  <chi0v_C>
10.687716

>  <chi0_C>
12.087576

>  <chi1>
9.3088617

>  <chi1v>
6.7283373

>  <chi1v_C>
5.4349575

>  <chi1_C>
7.2852583

>  <chiral>
1

>  <chiral_u>
0

>  <density>
0.6498757

>  <diameter>
9

>  <FCharge>
0

>  <GCUT_PEOE_0>
-0.85377258

>  <GCUT_PEOE_1>
-0.38759273

>  <GCUT_PEOE_2>
0.062176041

>  <GCUT_PEOE_3>
2.5432432

>  <GCUT_SLOGP_0>
-1.1525538

>  <GCUT_SLOGP_1>
-0.26386139

>  <GCUT_SLOGP_2>
0.15261115

>  <GCUT_SLOGP_3>
2.6687181

>  <GCUT_SMR_0>
-0.5177632

>  <GCUT_SMR_1>
-0.20157973

>  <GCUT_SMR_2>
0.16597931

>  <GCUT_SMR_3>
2.8118951

>  <Kier1>
15.39

>  <Kier2>
8.3232002

>  <Kier3>
4.7950053

>  <KierA1>
11.783929

>  <KierA2>
6.2707052

>  <KierA3>
3.5670798

>  <KierFlex>
3.8891339

>  <lip_acc>
2

>  <lip_don>
1

>  <lip_druglike>
1

>  <lip_violation>
0

>  <logP(o/w)>
4.118

>  <logS>
-3.33234

>  <mr>
8.0625906

>  <mutagenic>
0

>  <nmol>
1

>  <opr_brigid>
12

>  <opr_leadlike>
1

>  <opr_nring>
2

>  <opr_nrot>
6

>  <opr_violation>
0

>  <PC+>
0

>  <PC->
0

>  <PEOE_PC+>
1.2636124

>  <PEOE_PC->
-1.2636124

>  <PEOE_RPC+>
0.096259259

>  <PEOE_RPC->
0.26636225

>  <PEOE_VSA+0>
42.653858

>  <PEOE_VSA+1>
56.017307

>  <PEOE_VSA+2>
8.6190128

>  <PEOE_VSA+3>
0

>  <PEOE_VSA+4>
0

>  <PEOE_VSA+5>
0

>  <PEOE_VSA+6>
0

>  <PEOE_VSA-0>
80.551987

>  <PEOE_VSA-1>
98.03923

>  <PEOE_VSA-2>
0

>  <PEOE_VSA-3>
0

>  <PEOE_VSA-4>
0

>  <PEOE_VSA-5>
0

>  <PEOE_VSA-6>
2.6406472

>  <PEOE_VSA_FHYD>
0.99084765

>  <PEOE_VSA_FNEG>
0.62813872

>  <PEOE_VSA_FPNEG>
0.0091523239

>  <PEOE_VSA_FPOL>
0.0091523239

>  <PEOE_VSA_FPOS>
0.37186128

>  <PEOE_VSA_FPPOS>
0

>  <PEOE_VSA_HYD>
285.88141

>  <PEOE_VSA_NEG>
181.23187

>  <PEOE_VSA_PNEG>
2.6406472

>  <PEOE_VSA_POL>
2.6406472

>  <PEOE_VSA_POS>
107.29018

>  <PEOE_VSA_PPOS>
0

>  <petitjean>
0.44444445

>  <petitjeanSC>
0.80000001

>  <Q_PC+>
0

>  <Q_PC->
0

>  <Q_RPC+>
0

>  <Q_RPC->
0

>  <Q_VSA_FHYD>
1

>  <Q_VSA_FNEG>
0

>  <Q_VSA_FPNEG>
0

>  <Q_VSA_FPOL>
0

>  <Q_VSA_FPOS>
1

>  <Q_VSA_FPPOS>
0

>  <Q_VSA_HYD>
288.52203

>  <Q_VSA_NEG>
0

>  <Q_VSA_PNEG>
0

>  <Q_VSA_POL>
0

>  <Q_VSA_POS>
288.52203

>  <Q_VSA_PPOS>
0

>  <radius>
5

>  <reactive>
0

>  <rings>
2

>  <RPC+>
0

>  <RPC->
0

>  <rsynth>
0.42105263

>  <SlogP>
3.8201201

>  <SlogP_VSA0>
29.010639

>  <SlogP_VSA1>
0

>  <SlogP_VSA2>
0

>  <SlogP_VSA3>
18.439579

>  <SlogP_VSA4>
6.37115

>  <SlogP_VSA5>
32.897186

>  <SlogP_VSA6>
0

>  <SlogP_VSA7>
158.78867

>  <SlogP_VSA8>
25.337055

>  <SlogP_VSA9>
38.569443

>  <SMR>
7.9644699

>  <SMR_VSA0>
0

>  <SMR_VSA1>
10.999887

>  <SMR_VSA2>
18.01075

>  <SMR_VSA3>
18.083227

>  <SMR_VSA4>
0

>  <SMR_VSA5>
177.65706

>  <SMR_VSA6>
18.439579

>  <SMR_VSA7>
66.223206

>  <TPSA>
21.26

>  <VAdjEq>
0.5023343

>  <VAdjMa>
5.321928

>  <VDistEq>
3.0158234

>  <VDistMa>
8.2190924

>  <vdw_area>
288.52203

>  <vdw_vol>
392.93823

>  <vsa_acc>
2.503756

>  <vsa_acid>
0

>  <vsa_base>
0

>  <vsa_don>
0

>  <vsa_hyd>
263.02649

>  <vsa_other>
0

>  <vsa_pol>
8.1863317

>  <Weight>
255.36099

>  <weinerPath>
728

>  <weinerPol>
25

>  <zagreb>
90

$$$$