O1C2C3N(C(CC(OC(=O)C(CO)c4ccccc4)C3)C12)C
  MOE2013           2D

 22 25  0  0  1  0  0  0  0  0999 V2000
    0.0000    0.0000    0.0000 O   0  0  0  0  0  0  0  0  0  0  0  0
    0.0620    1.4790    0.0000 C   0  0  3  0  0  0  0  0  0  0  0  0
   -0.5340    2.7880    0.0000 C   0  0  3  0  0  0  0  0  0  0  0  0
    0.5010    3.6030    0.0000 N   0  0  0  0  0  0  0  0  0  0  0  0
    0.2500    2.1050    0.0000 C   0  0  3  0  0  0  0  0  0  0  0  0
   -1.5430    2.1050    0.0000 C   0  0  0  0  0  0  0  0  0  0  0  0
   -2.4980    1.3120    0.0000 C   0  0  0  0  0  0  0  0  0  0  0  0
   -3.2480    0.0130    0.0000 O   0  0  0  0  0  0  0  0  0  0  0  0
   -4.7480    0.0140    0.0000 C   0  0  0  0  0  0  0  0  0  0  0  0
   -5.4980    1.3130    0.0000 O   0  0  0  0  0  0  0  0  0  0  0  0
   -5.4990   -1.2850    0.0000 C   0  0  3  0  0  0  0  0  0  0  0  0
   -4.7490   -2.5840    0.0000 C   0  0  0  0  0  0  0  0  0  0  0  0
   -5.4990   -3.8830    0.0000 O   0  0  0  0  0  0  0  0  0  0  0  0
   -6.9990   -1.2850    0.0000 C   0  0  0  0  0  0  0  0  0  0  0  0
   -7.7490   -2.5840    0.0000 C   0  0  0  0  0  0  0  0  0  0  0  0
   -9.2490   -2.5840    0.0000 C   0  0  0  0  0  0  0  0  0  0  0  0
   -9.9990   -1.2850    0.0000 C   0  0  0  0  0  0  0  0  0  0  0  0
   -9.2480    0.0140    0.0000 C   0  0  0  0  0  0  0  0  0  0  0  0
   -7.7480    0.0140    0.0000 C   0  0  0  0  0  0  0  0  0  0  0  0
   -2.2410    2.8150    0.0000 C   0  0  0  0  0  0  0  0  0  0  0  0
    1.2030    0.7880    0.0000 C   0  0  3  0  0  0  0  0  0  0  0  0
    1.2660    4.8930    0.0000 C   0  0  0  0  0  0  0  0  0  0  0  0
  1  2  1  0  0  0  0
  1 21  1  0  0  0  0
  2  3  1  0  0  0  0
  2 21  1  0  0  0  0
  3  4  1  0  0  0  0
  3 20  1  0  0  0  0
  4  5  1  0  0  0  0
  4 22  1  0  0  0  0
  5  6  1  0  0  0  0
  5 21  1  0  0  0  0
  6  7  1  0  0  0  0
  7  8  1  0  0  0  0
  7 20  1  0  0  0  0
  8  9  1  0  0  0  0
  9 10  2  0  0  0  0
  9 11  1  0  0  0  0
 11 12  1  0  0  0  0
 11 14  1  0  0  0  0
 12 13  1  0  0  0  0
 14 15  1  0  0  0  0
 14 19  2  0  0  0  0
 15 16  2  0  0  0  0
 16 17  1  0  0  0  0
 17 18  2  0  0  0  0
 18 19  1  0  0  0  0
M  END
>  <Index>
972

>  <ID>
HT1872

>  <class>
0

>  <apol>
48.230652

>  <ast_fraglike>
0

>  <ast_fraglike_ext>
0

>  <ast_violation>
2

>  <ast_violation_ext>
3

>  <a_acc>
4

>  <a_acid>
0

>  <a_aro>
6

>  <a_base>
0

>  <a_count>
43

>  <a_don>
1

>  <a_donacc>
5

>  <a_heavy>
22

>  <a_hyd>
16

>  <a_IC>
63.603851

>  <a_ICM>
1.4791594

>  <a_nB>
0

>  <a_nBr>
0

>  <a_nC>
17

>  <a_nCl>
0

>  <a_nF>
0

>  <a_nH>
21

>  <a_nI>
0

>  <a_nN>
1

>  <a_nO>
4

>  <a_nP>
0

>  <a_nS>
0

>  <balabanJ>
1.343833

>  <BCUT_PEOE_0>
-2.754848

>  <BCUT_PEOE_1>
-0.59196448

>  <BCUT_PEOE_2>
0.62115419

>  <BCUT_PEOE_3>
2.9560156

>  <BCUT_SLOGP_0>
-2.8283598

>  <BCUT_SLOGP_1>
-0.56002384

>  <BCUT_SLOGP_2>
0.60254568

>  <BCUT_SLOGP_3>
2.8439181

>  <BCUT_SMR_0>
-2.5054164

>  <BCUT_SMR_1>
-0.49196914

>  <BCUT_SMR_2>
0.76305753

>  <BCUT_SMR_3>
3.1882019

>  <bpol>
29.727346

>  <b_1rotN>
4

>  <b_1rotR>
0.16

>  <b_ar>
6

>  <b_count>
46

>  <b_double>
1

>  <b_heavy>
25

>  <b_max1len>
4

>  <b_rotN>
5

>  <b_rotR>
0.2

>  <b_single>
39

>  <b_triple>
0

>  <chi0>
15.26722

>  <chi0v>
12.591346

>  <chi0v_C>
10.472174

>  <chi0_C>
11.275657

>  <chi1>
10.685872

>  <chi1v>
7.9244695

>  <chi1v_C>
5.5292754

>  <chi1_C>
6.5244045

>  <chiral>
5

>  <chiral_u>
5

>  <density>
0.74934781

>  <diameter>
11

>  <FCharge>
0

>  <GCUT_PEOE_0>
-0.84710985

>  <GCUT_PEOE_1>
-0.38982841

>  <GCUT_PEOE_2>
0.078656815

>  <GCUT_PEOE_3>
2.8152192

>  <GCUT_SLOGP_0>
-0.96741933

>  <GCUT_SLOGP_1>
-0.36579266

>  <GCUT_SLOGP_2>
0.090167448

>  <GCUT_SLOGP_3>
2.7811625

>  <GCUT_SMR_0>
-0.52237231

>  <GCUT_SMR_1>
-0.24366237

>  <GCUT_SMR_2>
0.1894234

>  <GCUT_SMR_3>
3.0371625

>  <Kier1>
15.5232

>  <Kier2>
6.1358657

>  <Kier3>
2.6063101

>  <KierA1>
13.281904

>  <KierA2>
5.2086859

>  <KierA3>
2.1998484

>  <KierFlex>
3.1446028

>  <lip_acc>
5

>  <lip_don>
1

>  <lip_druglike>
1

>  <lip_violation>
0

>  <logP(o/w)>
1.326

>  <logS>
-2.3906901

>  <mr>
8.132266

>  <mutagenic>
1

>  <nmol>
1

>  <opr_brigid>
17

>  <opr_leadlike>
1

>  <opr_nring>
4

>  <opr_nrot>
4

>  <opr_violation>
0

>  <PC+>
0

>  <PC->
0

>  <PEOE_PC+>
1.98905

>  <PEOE_PC->
-1.98905

>  <PEOE_RPC+>
0.13680626

>  <PEOE_RPC->
0.19803701

>  <PEOE_VSA+0>
48.945782

>  <PEOE_VSA+1>
62.510082

>  <PEOE_VSA+2>
9.8098574

>  <PEOE_VSA+3>
0

>  <PEOE_VSA+4>
10.324173

>  <PEOE_VSA+5>
14.708499

>  <PEOE_VSA+6>
0

>  <PEOE_VSA-0>
42.849854

>  <PEOE_VSA-1>
61.274521

>  <PEOE_VSA-2>
0

>  <PEOE_VSA-3>
0

>  <PEOE_VSA-4>
0

>  <PEOE_VSA-5>
13.566921

>  <PEOE_VSA-6>
12.775052

>  <PEOE_VSA_FHYD>
0.81437433

>  <PEOE_VSA_FNEG>
0.471398

>  <PEOE_VSA_FPNEG>
0.095178209

>  <PEOE_VSA_FPOL>
0.18562569

>  <PEOE_VSA_FPOS>
0.528602

>  <PEOE_VSA_FPPOS>
0.090447478

>  <PEOE_VSA_HYD>
225.39009

>  <PEOE_VSA_NEG>
130.46635

>  <PEOE_VSA_PNEG>
26.341974

>  <PEOE_VSA_POL>
51.374645

>  <PEOE_VSA_POS>
146.29839

>  <PEOE_VSA_PPOS>
25.032671

>  <petitjean>
0.45454547

>  <petitjeanSC>
0.83333331

>  <Q_PC+>
0

>  <Q_PC->
0

>  <Q_RPC+>
0

>  <Q_RPC->
0

>  <Q_VSA_FHYD>
1

>  <Q_VSA_FNEG>
0

>  <Q_VSA_FPNEG>
0

>  <Q_VSA_FPOL>
0

>  <Q_VSA_FPOS>
1

>  <Q_VSA_FPPOS>
0

>  <Q_VSA_HYD>
276.76474

>  <Q_VSA_NEG>
0

>  <Q_VSA_PNEG>
0

>  <Q_VSA_POL>
0

>  <Q_VSA_POS>
276.76474

>  <Q_VSA_PPOS>
0

>  <radius>
6

>  <reactive>
1

>  <rings>
4

>  <RPC+>
0

>  <RPC->
0

>  <rsynth>
1

>  <SlogP>
0.9181

>  <SlogP_VSA0>
25.385227

>  <SlogP_VSA1>
10.869778

>  <SlogP_VSA2>
73.23188

>  <SlogP_VSA3>
20.926258

>  <SlogP_VSA4>
3.185575

>  <SlogP_VSA5>
32.897186

>  <SlogP_VSA6>
4.4107962

>  <SlogP_VSA7>
88.215919

>  <SlogP_VSA8>
37.736813

>  <SlogP_VSA9>
0

>  <SMR>
7.9382801

>  <SMR_VSA0>
45.861992

>  <SMR_VSA1>
28.509541

>  <SMR_VSA2>
0

>  <SMR_VSA3>
34.966255

>  <SMR_VSA4>
0

>  <SMR_VSA5>
125.95274

>  <SMR_VSA6>
28.671722

>  <SMR_VSA7>
32.897186

>  <TPSA>
62.299999

>  <VAdjEq>
0.47938794

>  <VAdjMa>
5.643856

>  <VDistEq>
3.267499

>  <VDistMa>
8.6151428

>  <vdw_area>
276.76474

>  <vdw_vol>
404.82938

>  <vsa_acc>
16.070677

>  <vsa_acid>
0

>  <vsa_base>
0

>  <vsa_don>
0

>  <vsa_hyd>
209.80914

>  <vsa_other>
17.212255

>  <vsa_pol>
29.637598

>  <Weight>
303.358

>  <weinerPath>
1081

>  <weinerPol>
35

>  <zagreb>
124

$$$$