O(C)c1ccc(cc1)C(=O)CC(=O)c1ccc(cc1)C(C)(C)C
  MOE2013           2D

 23 24  0  0  0  0  0  0  0  0999 V2000
    0.0000    0.0000    0.0000 O   0  0  0  0  0  0  0  0  0  0  0  0
    1.5000   -0.0020    0.0000 C   0  0  0  0  0  0  0  0  0  0  0  0
   -0.7520   -1.2980    0.0000 C   0  0  0  0  0  0  0  0  0  0  0  0
   -2.2520   -1.2950    0.0000 C   0  0  0  0  0  0  0  0  0  0  0  0
   -3.0040   -2.5930    0.0000 C   0  0  0  0  0  0  0  0  0  0  0  0
   -2.2560   -3.8940    0.0000 C   0  0  0  0  0  0  0  0  0  0  0  0
   -0.7560   -3.8960    0.0000 C   0  0  0  0  0  0  0  0  0  0  0  0
   -0.0040   -2.5980    0.0000 C   0  0  0  0  0  0  0  0  0  0  0  0
   -3.0080   -5.1910    0.0000 C   0  0  0  0  0  0  0  0  0  0  0  0
   -2.2600   -6.4920    0.0000 O   0  0  0  0  0  0  0  0  0  0  0  0
   -4.5080   -5.1890    0.0000 C   0  0  0  0  0  0  0  0  0  0  0  0
   -5.2600   -6.4870    0.0000 C   0  0  0  0  0  0  0  0  0  0  0  0
   -4.5120   -7.7870    0.0000 O   0  0  0  0  0  0  0  0  0  0  0  0
   -6.7600   -6.4840    0.0000 C   0  0  0  0  0  0  0  0  0  0  0  0
   -7.5120   -7.7820    0.0000 C   0  0  0  0  0  0  0  0  0  0  0  0
   -9.0120   -7.7800    0.0000 C   0  0  0  0  0  0  0  0  0  0  0  0
   -9.7600   -6.4800    0.0000 C   0  0  0  0  0  0  0  0  0  0  0  0
   -9.0080   -5.1820    0.0000 C   0  0  0  0  0  0  0  0  0  0  0  0
   -7.5080   -5.1840    0.0000 C   0  0  0  0  0  0  0  0  0  0  0  0
  -11.2600   -6.4770    0.0000 C   0  0  0  0  0  0  0  0  0  0  0  0
  -11.2580   -4.9770    0.0000 C   0  0  0  0  0  0  0  0  0  0  0  0
  -11.2630   -7.9770    0.0000 C   0  0  0  0  0  0  0  0  0  0  0  0
  -12.7600   -6.4750    0.0000 C   0  0  0  0  0  0  0  0  0  0  0  0
  1  2  1  0  0  0  0
  1  3  1  0  0  0  0
  3  4  1  0  0  0  0
  3  8  2  0  0  0  0
  4  5  2  0  0  0  0
  5  6  1  0  0  0  0
  6  7  2  0  0  0  0
  6  9  1  0  0  0  0
  7  8  1  0  0  0  0
  9 10  2  0  0  0  0
  9 11  1  0  0  0  0
 11 12  1  0  0  0  0
 12 13  2  0  0  0  0
 12 14  1  0  0  0  0
 14 15  1  0  0  0  0
 14 19  2  0  0  0  0
 15 16  2  0  0  0  0
 16 17  1  0  0  0  0
 17 18  2  0  0  0  0
 17 20  1  0  0  0  0
 18 19  1  0  0  0  0
 20 21  1  0  0  0  0
 20 22  1  0  0  0  0
 20 23  1  0  0  0  0
M  END
>  <Index>
99

>  <ID>
HT0206

>  <class>
0

>  <apol>
52.275448

>  <ast_fraglike>
0

>  <ast_fraglike_ext>
0

>  <ast_violation>
2

>  <ast_violation_ext>
3

>  <a_acc>
3

>  <a_acid>
0

>  <a_aro>
12

>  <a_base>
0

>  <a_count>
45

>  <a_don>
0

>  <a_donacc>
3

>  <a_heavy>
23

>  <a_hyd>
18

>  <a_IC>
57.832443

>  <a_ICM>
1.2851654

>  <a_nB>
0

>  <a_nBr>
0

>  <a_nC>
20

>  <a_nCl>
0

>  <a_nF>
0

>  <a_nH>
22

>  <a_nI>
0

>  <a_nN>
0

>  <a_nO>
3

>  <a_nP>
0

>  <a_nS>
0

>  <balabanJ>
1.7395974

>  <BCUT_PEOE_0>
-2.6313655

>  <BCUT_PEOE_1>
-0.57795835

>  <BCUT_PEOE_2>
0.50298995

>  <BCUT_PEOE_3>
2.5773914

>  <BCUT_SLOGP_0>
-2.5362844

>  <BCUT_SLOGP_1>
-0.49597207

>  <BCUT_SLOGP_2>
0.59897631

>  <BCUT_SLOGP_3>
2.6790488

>  <BCUT_SMR_0>
-2.3691337

>  <BCUT_SMR_1>
-0.36042181

>  <BCUT_SMR_2>
0.7072295

>  <BCUT_SMR_3>
2.8461285

>  <bpol>
27.882553

>  <b_1rotN>
5

>  <b_1rotR>
0.20833333

>  <b_ar>
12

>  <b_count>
46

>  <b_double>
2

>  <b_heavy>
24

>  <b_max1len>
4

>  <b_rotN>
6

>  <b_rotR>
0.25

>  <b_single>
32

>  <b_triple>
0

>  <chi0>
17.03517

>  <chi0v>
14.050653

>  <chi0v_C>
12.825909

>  <chi0_C>
14.328063

>  <chi1>
10.80788

>  <chi1v>
7.6204619

>  <chi1v_C>
6.5998411

>  <chi1_C>
8.5378246

>  <chiral>
0

>  <chiral_u>
0

>  <density>
0.68626034

>  <diameter>
14

>  <FCharge>
0

>  <GCUT_PEOE_0>
-0.7922259

>  <GCUT_PEOE_1>
-0.38243848

>  <GCUT_PEOE_2>
-0.01369696

>  <GCUT_PEOE_3>
2.5580063

>  <GCUT_SLOGP_0>
-0.88676637

>  <GCUT_SLOGP_1>
-0.26862204

>  <GCUT_SLOGP_2>
0.12660201

>  <GCUT_SLOGP_3>
2.6597645

>  <GCUT_SMR_0>
-0.52149332

>  <GCUT_SMR_1>
-0.202099

>  <GCUT_SMR_2>
0.1403933

>  <GCUT_SMR_3>
2.8314452

>  <Kier1>
19.326389

>  <Kier2>
8.3927336

>  <Kier3>
5.5

>  <KierA1>
14.241593

>  <KierA2>
6.0917997

>  <KierA3>
3.9464934

>  <KierFlex>
3.7720406

>  <lip_acc>
3

>  <lip_don>
0

>  <lip_druglike>
1

>  <lip_violation>
0

>  <logP(o/w)>
4.5190001

>  <logS>
-5.7409201

>  <mr>
9.2442951

>  <mutagenic>
0

>  <nmol>
1

>  <opr_brigid>
12

>  <opr_leadlike>
1

>  <opr_nring>
2

>  <opr_nrot>
6

>  <opr_violation>
0

>  <PC+>
0

>  <PC->
0

>  <PEOE_PC+>
1.5303123

>  <PEOE_PC->
-1.5303123

>  <PEOE_RPC+>
0.11147278

>  <PEOE_RPC->
0.227347

>  <PEOE_VSA+0>
76.333984

>  <PEOE_VSA+1>
64.079079

>  <PEOE_VSA+2>
0

>  <PEOE_VSA+3>
16.917038

>  <PEOE_VSA+4>
0

>  <PEOE_VSA+5>
0

>  <PEOE_VSA+6>
0

>  <PEOE_VSA-0>
51.228157

>  <PEOE_VSA-1>
105.26265

>  <PEOE_VSA-2>
0

>  <PEOE_VSA-3>
0

>  <PEOE_VSA-4>
0

>  <PEOE_VSA-5>
27.133842

>  <PEOE_VSA-6>
2.503756

>  <PEOE_VSA_FHYD>
0.91370833

>  <PEOE_VSA_FNEG>
0.541924

>  <PEOE_VSA_FPNEG>
0.086291641

>  <PEOE_VSA_FPOL>
0.086291641

>  <PEOE_VSA_FPOS>
0.458076

>  <PEOE_VSA_FPPOS>
0

>  <PEOE_VSA_HYD>
313.82089

>  <PEOE_VSA_NEG>
186.1284

>  <PEOE_VSA_PNEG>
29.637598

>  <PEOE_VSA_POL>
29.637598

>  <PEOE_VSA_POS>
157.33009

>  <PEOE_VSA_PPOS>
0

>  <petitjean>
0.5

>  <petitjeanSC>
1

>  <Q_PC+>
0

>  <Q_PC->
0

>  <Q_RPC+>
0

>  <Q_RPC->
0

>  <Q_VSA_FHYD>
1

>  <Q_VSA_FNEG>
0

>  <Q_VSA_FPNEG>
0

>  <Q_VSA_FPOL>
0

>  <Q_VSA_FPOS>
1

>  <Q_VSA_FPPOS>
0

>  <Q_VSA_HYD>
343.4585

>  <Q_VSA_NEG>
0

>  <Q_VSA_PNEG>
0

>  <Q_VSA_POL>
0

>  <Q_VSA_POS>
343.4585

>  <Q_VSA_PPOS>
0

>  <radius>
7

>  <reactive>
1

>  <rings>
2

>  <RPC+>
0

>  <RPC->
0

>  <rsynth>
1

>  <SlogP>
4.4484

>  <SlogP_VSA0>
10.999887

>  <SlogP_VSA1>
11.375222

>  <SlogP_VSA2>
0

>  <SlogP_VSA3>
0

>  <SlogP_VSA4>
57.281158

>  <SlogP_VSA5>
35.383869

>  <SlogP_VSA6>
0

>  <SlogP_VSA7>
141.14548

>  <SlogP_VSA8>
18.868406

>  <SlogP_VSA9>
105.22147

>  <SMR>
9.1414003

>  <SMR_VSA0>
47.724434

>  <SMR_VSA1>
10.999887

>  <SMR_VSA2>
0

>  <SMR_VSA3>
14.800153

>  <SMR_VSA4>
0

>  <SMR_VSA5>
160.01389

>  <SMR_VSA6>
11.375222

>  <SMR_VSA7>
135.36191

>  <TPSA>
43.369999

>  <VAdjEq>
0.43892586

>  <VAdjMa>
5.5849624

>  <VDistEq>
3.5616319

>  <VDistMa>
8.7110453

>  <vdw_area>
343.4585

>  <vdw_vol>
452.29626

>  <vsa_acc>
29.637598

>  <vsa_acid>
0

>  <vsa_base>
0

>  <vsa_don>
0

>  <vsa_hyd>
281.24435

>  <vsa_other>
16.917038

>  <vsa_pol>
29.637598

>  <Weight>
310.39301

>  <weinerPath>
1368

>  <weinerPol>
34

>  <zagreb>
116

$$$$