O(C)c1c(OC)cc(cc1OC)C(O[C@@H]1C[C@H]2[C@H](C[C@H]3N(CCc4c5c([nH]c34)cc(OC)cc5)C2)[C@H](C(OC)=O)[C@H]1OC)=O
  MOE2013           2D

 44 49  0  0  1  0  0  0  0  0999 V2000
    0.0000    0.0000    0.0000 O   0  0  0  0  0  0  0  0  0  0  0  0
   -0.7420   -1.3040    0.0000 C   0  0  0  0  0  0  0  0  0  0  0  0
    1.5000    0.0090    0.0000 C   0  0  0  0  0  0  0  0  0  0  0  0
    2.2420    1.3130    0.0000 C   0  0  0  0  0  0  0  0  0  0  0  0
    1.4840    2.6070    0.0000 O   0  0  0  0  0  0  0  0  0  0  0  0
    2.2260    3.9110    0.0000 C   0  0  0  0  0  0  0  0  0  0  0  0
    3.7420    1.3220    0.0000 C   0  0  0  0  0  0  0  0  0  0  0  0
    4.5000    0.0280    0.0000 C   0  0  0  0  0  0  0  0  0  0  0  0
    3.7580   -1.2760    0.0000 C   0  0  0  0  0  0  0  0  0  0  0  0
    2.2580   -1.2850    0.0000 C   0  0  0  0  0  0  0  0  0  0  0  0
    1.5160   -2.5890    0.0000 O   0  0  0  0  0  0  0  0  0  0  0  0
    2.2740   -3.8830    0.0000 C   0  0  0  0  0  0  0  0  0  0  0  0
    6.0000    0.0370    0.0000 C   0  0  0  0  0  0  0  0  0  0  0  0
    6.7420    1.3410    0.0000 O   0  0  0  0  0  0  0  0  0  0  0  0
    8.2420    1.3500    0.0000 C   0  0  2  0  0  0  0  0  0  0  0  0
    9.0000    0.0560    0.0000 C   0  0  0  0  0  0  0  0  0  0  0  0
   10.5000    0.0650    0.0000 C   0  0  1  0  0  0  0  0  0  0  0  0
   11.2420    1.3690    0.0000 C   0  0  2  0  0  0  0  0  0  0  0  0
   12.7420    1.3780    0.0000 C   0  0  0  0  0  0  0  0  0  0  0  0
   13.5000    0.0840    0.0000 C   0  0  1  0  0  0  0  0  0  0  0  0
   12.7580   -1.2200    0.0000 N   0  0  3  0  0  0  0  0  0  0  0  0
   13.5160   -2.5140    0.0000 C   0  0  0  0  0  0  0  0  0  0  0  0
   15.0160   -2.5050    0.0000 C   0  0  0  0  0  0  0  0  0  0  0  0
   15.7580   -1.2010    0.0000 C   0  0  0  0  0  0  0  0  0  0  0  0
   17.2230   -0.8800    0.0000 C   0  0  0  0  0  0  0  0  0  0  0  0
   17.3710    0.6120    0.0000 C   0  0  0  0  0  0  0  0  0  0  0  0
   15.9960    1.2140    0.0000 N   0  0  0  0  0  0  0  0  0  0  0  0
   15.0000    0.0930    0.0000 C   0  0  0  0  0  0  0  0  0  0  0  0
   18.7370    1.2310    0.0000 C   0  0  0  0  0  0  0  0  0  0  0  0
   19.9560    0.3570    0.0000 C   0  0  0  0  0  0  0  0  0  0  0  0
   21.3230    0.9750    0.0000 O   0  0  0  0  0  0  0  0  0  0  0  0
   22.5420    0.1010    0.0000 C   0  0  0  0  0  0  0  0  0  0  0  0
   19.8080   -1.1360    0.0000 C   0  0  0  0  0  0  0  0  0  0  0  0
   18.4420   -1.7550    0.0000 C   0  0  0  0  0  0  0  0  0  0  0  0
   11.2580   -1.2290    0.0000 C   0  0  0  0  0  0  0  0  0  0  0  0
   10.4840    2.6630    0.0000 C   0  0  2  0  0  0  0  0  0  0  0  0
   11.2260    3.9670    0.0000 C   0  0  0  0  0  0  0  0  0  0  0  0
   12.7260    3.9760    0.0000 O   0  0  0  0  0  0  0  0  0  0  0  0
   13.4680    5.2800    0.0000 C   0  0  0  0  0  0  0  0  0  0  0  0
   10.4680    5.2610    0.0000 O   0  0  0  0  0  0  0  0  0  0  0  0
    8.9840    2.6540    0.0000 C   0  0  1  0  0  0  0  0  0  0  0  0
    8.2260    3.9480    0.0000 O   0  0  0  0  0  0  0  0  0  0  0  0
    6.7260    3.9390    0.0000 C   0  0  0  0  0  0  0  0  0  0  0  0
    6.7580   -1.2570    0.0000 O   0  0  0  0  0  0  0  0  0  0  0  0
  1  2  1  0  0  0  0
  1  3  1  0  0  0  0
  3  4  1  0  0  0  0
  3 10  2  0  0  0  0
  4  5  1  0  0  0  0
  4  7  2  0  0  0  0
  5  6  1  0  0  0  0
  7  8  1  0  0  0  0
  8  9  2  0  0  0  0
  8 13  1  0  0  0  0
  9 10  1  0  0  0  0
 10 11  1  0  0  0  0
 11 12  1  0  0  0  0
 13 14  1  0  0  0  0
 13 44  2  0  0  0  0
 15 14  1  1  0  0  0
 15 16  1  0  0  0  0
 15 41  1  0  0  0  0
 16 17  1  0  0  0  0
 17 18  1  0  0  0  0
 17 35  1  1  0  0  0
 18 19  1  1  0  0  0
 18 36  1  0  0  0  0
 19 20  1  0  0  0  0
 20 21  1  6  0  0  0
 20 28  1  0  0  0  0
 21 22  1  0  0  0  0
 21 35  1  0  0  0  0
 22 23  1  0  0  0  0
 23 24  1  0  0  0  0
 24 25  1  0  0  0  0
 24 28  2  0  0  0  0
 25 26  1  0  0  0  0
 25 34  2  0  0  0  0
 26 27  1  0  0  0  0
 26 29  2  0  0  0  0
 27 28  1  0  0  0  0
 29 30  1  0  0  0  0
 30 31  1  0  0  0  0
 30 33  2  0  0  0  0
 31 32  1  0  0  0  0
 33 34  1  0  0  0  0
 36 37  1  1  0  0  0
 36 41  1  0  0  0  0
 37 38  1  0  0  0  0
 37 40  2  0  0  0  0
 38 39  1  0  0  0  0
 41 42  1  6  0  0  0
 42 43  1  0  0  0  0
M  END
>  <Index>
939

>  <ID>
HT1813

>  <class>
0

>  <apol>
94.169724

>  <ast_fraglike>
0

>  <ast_fraglike_ext>
0

>  <ast_violation>
3

>  <ast_violation_ext>
4

>  <a_acc>
8

>  <a_acid>
0

>  <a_aro>
15

>  <a_base>
0

>  <a_count>
84

>  <a_don>
1

>  <a_donacc>
9

>  <a_heavy>
44

>  <a_hyd>
31

>  <a_IC>
127.08321

>  <a_ICM>
1.5128953

>  <a_nB>
0

>  <a_nBr>
0

>  <a_nC>
33

>  <a_nCl>
0

>  <a_nF>
0

>  <a_nH>
40

>  <a_nI>
0

>  <a_nN>
2

>  <a_nO>
9

>  <a_nP>
0

>  <a_nS>
0

>  <balabanJ>
1.1778709

>  <BCUT_PEOE_0>
-2.8980966

>  <BCUT_PEOE_1>
-0.55399799

>  <BCUT_PEOE_2>
0.46115726

>  <BCUT_PEOE_3>
2.8961813

>  <BCUT_SLOGP_0>
-2.9231892

>  <BCUT_SLOGP_1>
-0.47624907

>  <BCUT_SLOGP_2>
0.54651779

>  <BCUT_SLOGP_3>
2.8920255

>  <BCUT_SMR_0>
-2.6560757

>  <BCUT_SMR_1>
-0.32007954

>  <BCUT_SMR_2>
0.63295615

>  <BCUT_SMR_3>
3.1297386

>  <bpol>
61.696281

>  <b_1rotN>
8

>  <b_1rotR>
0.1632653

>  <b_ar>
16

>  <b_count>
89

>  <b_double>
2

>  <b_heavy>
49

>  <b_max1len>
4

>  <b_rotN>
10

>  <b_rotR>
0.20408164

>  <b_single>
71

>  <b_triple>
0

>  <chi0>
31.120228

>  <chi0v>
26.007835

>  <chi0v_C>
21.386387

>  <chi0_C>
22.886023

>  <chi1>
21.345131

>  <chi1v>
14.892755

>  <chi1v_C>
8.9482126

>  <chi1_C>
10.715476

>  <chiral>
6

>  <chiral_u>
0

>  <density>
0.75468296

>  <diameter>
20

>  <FCharge>
0

>  <GCUT_PEOE_0>
-0.85639793

>  <GCUT_PEOE_1>
-0.42887545

>  <GCUT_PEOE_2>
-0.054629762

>  <GCUT_PEOE_3>
3.2570839

>  <GCUT_SLOGP_0>
-0.93145078

>  <GCUT_SLOGP_1>
-0.31854016

>  <GCUT_SLOGP_2>
0.088644013

>  <GCUT_SLOGP_3>
3.2895894

>  <GCUT_SMR_0>
-0.52767968

>  <GCUT_SMR_1>
-0.19669566

>  <GCUT_SMR_2>
0.1129443

>  <GCUT_SMR_3>
3.4944706

>  <Kier1>
33.884216

>  <Kier2>
14.631945

>  <Kier3>
6.43681

>  <KierA1>
28.163769

>  <KierA2>
12.107005

>  <KierA3>
5.3094001

>  <KierFlex>
7.7495203

>  <lip_acc>
11

>  <lip_don>
1

>  <lip_druglike>
0

>  <lip_violation>
2

>  <logP(o/w)>
3.6812201

>  <logS>
-5.4217801

>  <mr>
16.233934

>  <mutagenic>
0

>  <nmol>
1

>  <opr_brigid>
31

>  <opr_leadlike>
0

>  <opr_nring>
6

>  <opr_nrot>
9

>  <opr_violation>
3

>  <PC+>
0

>  <PC->
0

>  <PEOE_PC+>
3.7948673

>  <PEOE_PC->
-3.7948673

>  <PEOE_RPC+>
0.07755404

>  <PEOE_RPC->
0.099187762

>  <PEOE_VSA+0>
247.42825

>  <PEOE_VSA+1>
134.52292

>  <PEOE_VSA+2>
25.375559

>  <PEOE_VSA+3>
8.6190128

>  <PEOE_VSA+4>
0

>  <PEOE_VSA+5>
29.416998

>  <PEOE_VSA+6>
0

>  <PEOE_VSA-0>
89.586998

>  <PEOE_VSA-1>
0

>  <PEOE_VSA-2>
0

>  <PEOE_VSA-3>
0

>  <PEOE_VSA-4>
0

>  <PEOE_VSA-5>
27.133842

>  <PEOE_VSA-6>
17.663183

>  <PEOE_VSA_FHYD>
0.87198889

>  <PEOE_VSA_FNEG>
0.2317978

>  <PEOE_VSA_FPNEG>
0.077269986

>  <PEOE_VSA_FPOL>
0.12801111

>  <PEOE_VSA_FPOS>
0.76820219

>  <PEOE_VSA_FPPOS>
0.050741117

>  <PEOE_VSA_HYD>
505.53275

>  <PEOE_VSA_NEG>
134.38402

>  <PEOE_VSA_PNEG>
44.797024

>  <PEOE_VSA_POL>
74.214027

>  <PEOE_VSA_POS>
445.36273

>  <PEOE_VSA_PPOS>
29.416998

>  <petitjean>
0.5

>  <petitjeanSC>
1

>  <Q_PC+>
0

>  <Q_PC->
0

>  <Q_RPC+>
0

>  <Q_RPC->
0

>  <Q_VSA_FHYD>
1

>  <Q_VSA_FNEG>
0

>  <Q_VSA_FPNEG>
0

>  <Q_VSA_FPOL>
0

>  <Q_VSA_FPOS>
1

>  <Q_VSA_FPPOS>
0

>  <Q_VSA_HYD>
579.74677

>  <Q_VSA_NEG>
0

>  <Q_VSA_PNEG>
0

>  <Q_VSA_POL>
0

>  <Q_VSA_POS>
579.74677

>  <Q_VSA_PPOS>
0

>  <radius>
10

>  <reactive>
0

>  <rings>
6

>  <RPC+>
0

>  <RPC->
0

>  <rsynth>
0.63636363

>  <SlogP>
4.2665701

>  <SlogP_VSA0>
43.99955

>  <SlogP_VSA1>
18.615242

>  <SlogP_VSA2>
86.584709

>  <SlogP_VSA3>
36.879158

>  <SlogP_VSA4>
46.222504

>  <SlogP_VSA5>
231.17162

>  <SlogP_VSA6>
0

>  <SlogP_VSA7>
92.933022

>  <SlogP_VSA8>
41.718781

>  <SlogP_VSA9>
20.973713

>  <SMR>
16.079821

>  <SMR_VSA0>
80.724098

>  <SMR_VSA1>
47.123867

>  <SMR_VSA2>
30.017918

>  <SMR_VSA3>
47.020878

>  <SMR_VSA4>
4.7171016

>  <SMR_VSA5>
144.82114

>  <SMR_VSA6>
52.370083

>  <SMR_VSA7>
212.30321

>  <TPSA>
117.78

>  <VAdjEq>
0.28902414

>  <VAdjMa>
6.6147099

>  <VDistEq>
3.9888499

>  <VDistMa>
10.635776

>  <vdw_area>
579.74677

>  <vdw_vol>
806.54791

>  <vsa_acc>
39.652622

>  <vsa_acid>
0

>  <vsa_base>
0

>  <vsa_don>
5.6825762

>  <vsa_hyd>
465.11856

>  <vsa_other>
34.424511

>  <vsa_pol>
45.335197

>  <Weight>
608.68799

>  <weinerPath>
6905

>  <weinerPol>
86

>  <zagreb>
242

$$$$