O(CC(O)CN1CCN(CC1)CC(=O)Nc1c(cccc1C)C)c1ccccc1OC
  MOE2013           2D

 31 33  0  0  1  0  0  0  0  0999 V2000
    0.0000    0.0000    0.0000 O   0  0  0  0  0  0  0  0  0  0  0  0
    1.2960   -0.7550    0.0000 C   0  0  0  0  0  0  0  0  0  0  0  0
    2.5980   -0.0100    0.0000 C   0  0  3  0  0  0  0  0  0  0  0  0
    2.6040    1.4900    0.0000 O   0  0  0  0  0  0  0  0  0  0  0  0
    3.8940   -0.7650    0.0000 C   0  0  0  0  0  0  0  0  0  0  0  0
    5.1960   -0.0200    0.0000 N   0  0  0  0  0  0  0  0  0  0  0  0
    5.2020    1.4800    0.0000 C   0  0  0  0  0  0  0  0  0  0  0  0
    6.5040    2.2250    0.0000 C   0  0  0  0  0  0  0  0  0  0  0  0
    7.8000    1.4700    0.0000 N   0  0  0  0  0  0  0  0  0  0  0  0
    7.7940   -0.0300    0.0000 C   0  0  0  0  0  0  0  0  0  0  0  0
    6.4920   -0.7750    0.0000 C   0  0  0  0  0  0  0  0  0  0  0  0
    9.1020    2.2150    0.0000 C   0  0  0  0  0  0  0  0  0  0  0  0
   10.3980    1.4600    0.0000 C   0  0  0  0  0  0  0  0  0  0  0  0
   10.3920   -0.0400    0.0000 O   0  0  0  0  0  0  0  0  0  0  0  0
   11.7000    2.2040    0.0000 N   0  0  0  0  0  0  0  0  0  0  0  0
   12.9960    1.4490    0.0000 C   0  0  0  0  0  0  0  0  0  0  0  0
   12.9900   -0.0510    0.0000 C   0  0  0  0  0  0  0  0  0  0  0  0
   14.2860   -0.8060    0.0000 C   0  0  0  0  0  0  0  0  0  0  0  0
   15.5880   -0.0610    0.0000 C   0  0  0  0  0  0  0  0  0  0  0  0
   15.5940    1.4390    0.0000 C   0  0  0  0  0  0  0  0  0  0  0  0
   14.2980    2.1940    0.0000 C   0  0  0  0  0  0  0  0  0  0  0  0
   14.3040    3.6940    0.0000 C   0  0  0  0  0  0  0  0  0  0  0  0
   11.6880   -0.7950    0.0000 C   0  0  0  0  0  0  0  0  0  0  0  0
   -1.3020   -0.7450    0.0000 C   0  0  0  0  0  0  0  0  0  0  0  0
   -1.3080   -2.2450    0.0000 C   0  0  0  0  0  0  0  0  0  0  0  0
   -2.6100   -2.9900    0.0000 C   0  0  0  0  0  0  0  0  0  0  0  0
   -3.9060   -2.2350    0.0000 C   0  0  0  0  0  0  0  0  0  0  0  0
   -3.9000   -0.7350    0.0000 C   0  0  0  0  0  0  0  0  0  0  0  0
   -2.5980    0.0100    0.0000 C   0  0  0  0  0  0  0  0  0  0  0  0
   -2.5920    1.5100    0.0000 O   0  0  0  0  0  0  0  0  0  0  0  0
   -3.8880    2.2650    0.0000 C   0  0  0  0  0  0  0  0  0  0  0  0
  1  2  1  0  0  0  0
  1 24  1  0  0  0  0
  2  3  1  0  0  0  0
  3  4  1  0  0  0  0
  3  5  1  0  0  0  0
  5  6  1  0  0  0  0
  6  7  1  0  0  0  0
  6 11  1  0  0  0  0
  7  8  1  0  0  0  0
  8  9  1  0  0  0  0
  9 10  1  0  0  0  0
  9 12  1  0  0  0  0
 10 11  1  0  0  0  0
 12 13  1  0  0  0  0
 13 14  2  0  0  0  0
 13 15  1  0  0  0  0
 15 16  1  0  0  0  0
 16 17  1  0  0  0  0
 16 21  2  0  0  0  0
 17 18  2  0  0  0  0
 17 23  1  0  0  0  0
 18 19  1  0  0  0  0
 19 20  2  0  0  0  0
 20 21  1  0  0  0  0
 21 22  1  0  0  0  0
 24 25  1  0  0  0  0
 24 29  2  0  0  0  0
 25 26  2  0  0  0  0
 26 27  1  0  0  0  0
 27 28  2  0  0  0  0
 28 29  1  0  0  0  0
 29 30  1  0  0  0  0
 30 31  1  0  0  0  0
M  END
>  <Index>
931

>  <ID>
HT1801

>  <class>
0

>  <apol>
70.752167

>  <ast_fraglike>
0

>  <ast_fraglike_ext>
0

>  <ast_violation>
2

>  <ast_violation_ext>
3

>  <a_acc>
6

>  <a_acid>
0

>  <a_aro>
12

>  <a_base>
0

>  <a_count>
64

>  <a_don>
2

>  <a_donacc>
8

>  <a_heavy>
31

>  <a_hyd>
23

>  <a_IC>
94.741005

>  <a_ICM>
1.4803282

>  <a_nB>
0

>  <a_nBr>
0

>  <a_nC>
24

>  <a_nCl>
0

>  <a_nF>
0

>  <a_nH>
33

>  <a_nI>
0

>  <a_nN>
3

>  <a_nO>
4

>  <a_nP>
0

>  <a_nS>
0

>  <balabanJ>
1.3074281

>  <BCUT_PEOE_0>
-2.7837427

>  <BCUT_PEOE_1>
-0.49790773

>  <BCUT_PEOE_2>
0.56840682

>  <BCUT_PEOE_3>
2.6996777

>  <BCUT_SLOGP_0>
-2.9203718

>  <BCUT_SLOGP_1>
-0.49645138

>  <BCUT_SLOGP_2>
0.48629269

>  <BCUT_SLOGP_3>
2.5655417

>  <BCUT_SMR_0>
-2.506484

>  <BCUT_SMR_1>
-0.37870806

>  <BCUT_SMR_2>
0.68462682

>  <BCUT_SMR_3>
2.9658904

>  <bpol>
45.485832

>  <b_1rotN>
9

>  <b_1rotR>
0.27272728

>  <b_ar>
12

>  <b_count>
66

>  <b_double>
1

>  <b_heavy>
33

>  <b_max1len>
4

>  <b_rotN>
10

>  <b_rotR>
0.30303031

>  <b_single>
53

>  <b_triple>
0

>  <chi0>
22.216969

>  <chi0v>
18.634935

>  <chi0v_C>
15.568549

>  <chi0_C>
16.940947

>  <chi1>
14.956729

>  <chi1v>
10.706279

>  <chi1v_C>
6.7414174

>  <chi1_C>
8.5124388

>  <chiral>
1

>  <chiral_u>
1

>  <density>
0.70527005

>  <diameter>
18

>  <FCharge>
0

>  <GCUT_PEOE_0>
-0.8492319

>  <GCUT_PEOE_1>
-0.34539157

>  <GCUT_PEOE_2>
0.044410001

>  <GCUT_PEOE_3>
2.7808669

>  <GCUT_SLOGP_0>
-1.0101377

>  <GCUT_SLOGP_1>
-0.32118529

>  <GCUT_SLOGP_2>
0.056711964

>  <GCUT_SLOGP_3>
2.7623024

>  <GCUT_SMR_0>
-0.52169883

>  <GCUT_SMR_1>
-0.20136794

>  <GCUT_SMR_2>
0.15814807

>  <GCUT_SMR_3>
3.0279281

>  <Kier1>
25.619835

>  <Kier2>
13.032024

>  <Kier3>
8.0658436

>  <KierA1>
20.811604

>  <KierA2>
10.5087

>  <KierA3>
6.4691744

>  <KierFlex>
7.0549326

>  <lip_acc>
7

>  <lip_don>
2

>  <lip_druglike>
1

>  <lip_violation>
0

>  <logP(o/w)>
1.76974

>  <logS>
-3.54509

>  <mr>
12.156996

>  <mutagenic>
0

>  <nmol>
1

>  <opr_brigid>
18

>  <opr_leadlike>
1

>  <opr_nring>
3

>  <opr_nrot>
11

>  <opr_violation>
1

>  <PC+>
0

>  <PC->
0

>  <PEOE_PC+>
2.7386615

>  <PEOE_PC->
-2.7386615

>  <PEOE_RPC+>
0.087388381

>  <PEOE_RPC->
0.1417588

>  <PEOE_VSA+0>
165.90501

>  <PEOE_VSA+1>
97.029335

>  <PEOE_VSA+2>
16.917038

>  <PEOE_VSA+3>
8.6190128

>  <PEOE_VSA+4>
23.273705

>  <PEOE_VSA+5>
0

>  <PEOE_VSA+6>
0

>  <PEOE_VSA-0>
66.422241

>  <PEOE_VSA-1>
61.274521

>  <PEOE_VSA-2>
0

>  <PEOE_VSA-3>
0

>  <PEOE_VSA-4>
0

>  <PEOE_VSA-5>
13.566921

>  <PEOE_VSA-6>
12.911943

>  <PEOE_VSA_FHYD>
0.89321643

>  <PEOE_VSA_FNEG>
0.33090597

>  <PEOE_VSA_FPNEG>
0.056831386

>  <PEOE_VSA_FPOL>
0.10678356

>  <PEOE_VSA_FPOS>
0.66909403

>  <PEOE_VSA_FPPOS>
0.049952175

>  <PEOE_VSA_HYD>
416.16714

>  <PEOE_VSA_NEG>
154.17563

>  <PEOE_VSA_PNEG>
26.478865

>  <PEOE_VSA_POL>
49.752567

>  <PEOE_VSA_POS>
311.74411

>  <PEOE_VSA_PPOS>
23.273705

>  <petitjean>
0.5

>  <petitjeanSC>
1

>  <Q_PC+>
0

>  <Q_PC->
0

>  <Q_RPC+>
0

>  <Q_RPC->
0

>  <Q_VSA_FHYD>
1

>  <Q_VSA_FNEG>
0

>  <Q_VSA_FPNEG>
0

>  <Q_VSA_FPOL>
0

>  <Q_VSA_FPOS>
1

>  <Q_VSA_FPPOS>
0

>  <Q_VSA_HYD>
465.91974

>  <Q_VSA_NEG>
0

>  <Q_VSA_PNEG>
0

>  <Q_VSA_POL>
0

>  <Q_VSA_POS>
465.91974

>  <Q_VSA_PPOS>
0

>  <radius>
9

>  <reactive>
0

>  <rings>
3

>  <RPC+>
0

>  <RPC->
0

>  <rsynth>
1

>  <SlogP>
2.3080399

>  <SlogP_VSA0>
47.385002

>  <SlogP_VSA1>
29.518162

>  <SlogP_VSA2>
30.330866

>  <SlogP_VSA3>
131.56372

>  <SlogP_VSA4>
6.37115

>  <SlogP_VSA5>
35.383869

>  <SlogP_VSA6>
0

>  <SlogP_VSA7>
123.50229

>  <SlogP_VSA8>
0

>  <SlogP_VSA9>
79.89563

>  <SMR>
12.19215

>  <SMR_VSA0>
23.862217

>  <SMR_VSA1>
53.633629

>  <SMR_VSA2>
0

>  <SMR_VSA3>
23.326654

>  <SMR_VSA4>
20.767498

>  <SMR_VSA5>
123.50229

>  <SMR_VSA6>
136.82251

>  <SMR_VSA7>
102.0359

>  <TPSA>
74.269997

>  <VAdjEq>
0.36097246

>  <VAdjMa>
6.044394

>  <VDistEq>
4.0079403

>  <VDistMa>
9.5636654

>  <vdw_area>
465.91974

>  <vdw_vol>
606.2146

>  <vsa_acc>
18.574432

>  <vsa_acid>
0

>  <vsa_base>
0

>  <vsa_don>
5.6825762

>  <vsa_hyd>
385.48248

>  <vsa_other>
12.949531

>  <vsa_pol>
37.823929

>  <Weight>
427.54498

>  <weinerPath>
3410

>  <weinerPol>
45

>  <zagreb>
154

$$$$