O1c2c3c4c(c(O)c2C)c(O)c(NC(=O)/C(=C/C=C/[C@H](C)[C@H](O)[C@@H](C)[C@@H](O)[C@@H](C)[C@@H](OC(=O)C)[C@H](C)[C@@H](OC)C=CO[C@]1(C)C3=O)/C)c(C=NN1CCN(CC1)C1CCCC1)c4O
  MOE2013           2D

 63 68  0  0  1  0  0  0  0  0999 V2000
   -0.1300    0.6290    0.0000 O   0  0  0  0  0  0  0  0  0  0  0  0
    1.2310    0.0030    0.0000 C   0  0  0  0  0  0  0  0  0  0  0  0
    2.2540    1.1090    0.0000 C   0  0  0  0  0  0  0  0  0  0  0  0
    3.7060    0.8100    0.0000 C   0  0  0  0  0  0  0  0  0  0  0  0
    4.1510   -0.6390    0.0000 C   0  0  0  0  0  0  0  0  0  0  0  0
    3.1530   -1.7490    0.0000 C   0  0  0  0  0  0  0  0  0  0  0  0
    3.6080   -3.1890    0.0000 O   0  0  0  0  0  0  0  0  0  0  0  0
    1.6880   -1.4370    0.0000 C   0  0  0  0  0  0  0  0  0  0  0  0
    0.6750   -2.5440    0.0000 C   0  0  0  0  0  0  0  0  0  0  0  0
    5.6250   -0.9560    0.0000 C   0  0  0  0  0  0  0  0  0  0  0  0
    6.0470   -2.4140    0.0000 O   0  0  0  0  0  0  0  0  0  0  0  0
    6.6070    0.1240    0.0000 C   0  0  0  0  0  0  0  0  0  0  0  0
    8.0980   -0.1680    0.0000 N   0  0  0  0  0  0  0  0  0  0  0  0
    8.7140    1.4120    0.0000 C   0  0  0  0  0  0  0  0  0  0  0  0
   10.1680    1.2550    0.0000 O   0  0  0  0  0  0  0  0  0  0  0  0
    7.8240    2.4190    0.0000 C   0  0  0  0  0  0  0  0  0  0  0  0
    8.1860    3.9830    0.0000 C   0  0  0  0  0  0  0  0  0  0  0  0
    7.4680    5.0780    0.0000 C   0  0  0  0  0  0  0  0  0  0  0  0
    6.9070    6.3190    0.0000 C   0  0  0  0  0  0  0  0  0  0  0  0
    7.4290    7.6850    0.0000 C   0  0  2  0  0  0  0  0  0  0  0  0
    8.9480    7.7780    0.0000 C   0  0  0  0  0  0  0  0  0  0  0  0
    6.8410    8.9500    0.0000 C   0  0  2  0  0  0  0  0  0  0  0  0
    7.9230    9.9700    0.0000 O   0  0  0  0  0  0  0  0  0  0  0  0
    5.6150    9.6240    0.0000 C   0  0  1  0  0  0  0  0  0  0  0  0
    5.7240   11.1000    0.0000 C   0  0  0  0  0  0  0  0  0  0  0  0
    4.2260    9.0850    0.0000 C   0  0  1  0  0  0  0  0  0  0  0  0
    4.0890    7.5560    0.0000 O   0  0  0  0  0  0  0  0  0  0  0  0
    3.0210    9.9290    0.0000 C   0  0  1  0  0  0  0  0  0  0  0  0
    3.0770   11.3820    0.0000 C   0  0  0  0  0  0  0  0  0  0  0  0
    1.6170    9.3220    0.0000 C   0  0  1  0  0  0  0  0  0  0  0  0
    0.5120   10.2030    0.0000 O   0  0  0  0  0  0  0  0  0  0  0  0
    0.2910   11.6100    0.0000 C   0  0  0  0  0  0  0  0  0  0  0  0
   -1.1570   12.1860    0.0000 O   0  0  0  0  0  0  0  0  0  0  0  0
    1.3880   12.6570    0.0000 C   0  0  0  0  0  0  0  0  0  0  0  0
    1.4780    7.8480    0.0000 C   0  0  2  0  0  0  0  0  0  0  0  0
    2.7240    6.9690    0.0000 C   0  0  0  0  0  0  0  0  0  0  0  0
    0.1390    7.1360    0.0000 C   0  0  1  0  0  0  0  0  0  0  0  0
   -1.1260    7.8780    0.0000 O   0  0  0  0  0  0  0  0  0  0  0  0
   -2.4680    7.2370    0.0000 C   0  0  0  0  0  0  0  0  0  0  0  0
    0.1810    5.6330    0.0000 C   0  0  0  0  0  0  0  0  0  0  0  0
   -0.7930    4.6750    0.0000 C   0  0  0  0  0  0  0  0  0  0  0  0
   -0.9360    3.2800    0.0000 O   0  0  0  0  0  0  0  0  0  0  0  0
    0.0010    2.1550    0.0000 C   0  0  1  0  0  0  0  0  0  0  0  0
   -1.4220    1.6270    0.0000 C   0  0  0  0  0  0  0  0  0  0  0  0
    1.5180    2.3860    0.0000 C   0  0  0  0  0  0  0  0  0  0  0  0
    2.1720    3.7460    0.0000 O   0  0  0  0  0  0  0  0  0  0  0  0
    6.1640    2.6550    0.0000 C   0  0  0  0  0  0  0  0  0  0  0  0
    6.2190    1.5800    0.0000 C   0  0  0  0  0  0  0  0  0  0  0  0
    7.1120    2.8550    0.0000 C   0  0  0  0  0  0  0  0  0  0  0  0
    8.6280    2.8260    0.0000 N   0  0  0  0  0  0  0  0  0  0  0  0
    9.9150    3.4160    0.0000 N   0  0  0  0  0  0  0  0  0  0  0  0
   11.1890    2.4920    0.0000 C   0  0  0  0  0  0  0  0  0  0  0  0
   12.5410    3.0430    0.0000 C   0  0  0  0  0  0  0  0  0  0  0  0
   12.7950    4.5310    0.0000 N   0  0  0  0  0  0  0  0  0  0  0  0
   11.6040    5.4470    0.0000 C   0  0  0  0  0  0  0  0  0  0  0  0
   10.2220    4.8970    0.0000 C   0  0  0  0  0  0  0  0  0  0  0  0
   14.1900    5.0630    0.0000 C   0  0  0  0  0  0  0  0  0  0  0  0
   14.5990    6.5090    0.0000 C   0  0  0  0  0  0  0  0  0  0  0  0
   16.0960    6.5750    0.0000 C   0  0  0  0  0  0  0  0  0  0  0  0
   16.6210    5.1700    0.0000 C   0  0  0  0  0  0  0  0  0  0  0  0
   15.4530    4.2360    0.0000 C   0  0  0  0  0  0  0  0  0  0  0  0
    4.7390    1.9060    0.0000 C   0  0  0  0  0  0  0  0  0  0  0  0
    4.3010    3.3400    0.0000 O   0  0  0  0  0  0  0  0  0  0  0  0
  1  2  1  0  0  0  0
  1 43  1  0  0  0  0
  2  3  1  0  0  0  0
  2  8  2  0  0  0  0
  3  4  2  0  0  0  0
  3 45  1  0  0  0  0
  4  5  1  0  0  0  0
  4 62  1  0  0  0  0
  5  6  2  0  0  0  0
  5 10  1  0  0  0  0
  6  7  1  0  0  0  0
  6  8  1  0  0  0  0
  8  9  1  0  0  0  0
 10 11  1  0  0  0  0
 10 12  2  0  0  0  0
 12 13  1  0  0  0  0
 12 48  1  0  0  0  0
 13 14  1  0  0  0  0
 14 15  2  0  0  0  0
 14 16  1  0  0  0  0
 16 17  2  0  0  0  0
 16 47  1  0  0  0  0
 17 18  1  0  0  0  0
 18 19  2  0  0  0  0
 19 20  1  0  0  0  0
 20 21  1  1  0  0  0
 20 22  1  0  0  0  0
 22 23  1  1  0  0  0
 22 24  1  0  0  0  0
 24 25  1  6  0  0  0
 24 26  1  0  0  0  0
 26 27  1  1  0  0  0
 26 28  1  0  0  0  0
 28 29  1  6  0  0  0
 28 30  1  0  0  0  0
 30 31  1  6  0  0  0
 30 35  1  0  0  0  0
 31 32  1  0  0  0  0
 32 33  2  0  0  0  0
 32 34  1  0  0  0  0
 35 36  1  6  0  0  0
 35 37  1  0  0  0  0
 37 38  1  6  0  0  0
 37 40  1  0  0  0  0
 38 39  1  0  0  0  0
 40 41  2  3  0  0  0
 41 42  1  0  0  0  0
 42 43  1  0  0  0  0
 43 44  1  1  0  0  0
 43 45  1  0  0  0  0
 45 46  2  0  0  0  0
 48 49  1  0  0  0  0
 48 62  2  0  0  0  0
 49 50  2  3  0  0  0
 50 51  1  0  0  0  0
 51 52  1  0  0  0  0
 51 56  1  0  0  0  0
 52 53  1  0  0  0  0
 53 54  1  0  0  0  0
 54 55  1  0  0  0  0
 54 57  1  0  0  0  0
 55 56  1  0  0  0  0
 57 58  1  0  0  0  0
 57 61  1  0  0  0  0
 58 59  1  0  0  0  0
 59 60  1  0  0  0  0
 60 61  1  0  0  0  0
 62 63  1  0  0  0  0
M  END
>  <Index>
946

>  <ID>
HT1822

>  <class>
0

>  <apol>
139.41875

>  <ast_fraglike>
0

>  <ast_fraglike_ext>
0

>  <ast_violation>
4

>  <ast_violation_ext>
6

>  <a_acc>
13

>  <a_acid>
0

>  <a_aro>
10

>  <a_base>
0

>  <a_count>
127

>  <a_don>
6

>  <a_donacc>
19

>  <a_heavy>
63

>  <a_hyd>
42

>  <a_IC>
191.47772

>  <a_ICM>
1.5076987

>  <a_nB>
0

>  <a_nBr>
0

>  <a_nC>
47

>  <a_nCl>
0

>  <a_nF>
0

>  <a_nH>
64

>  <a_nI>
0

>  <a_nN>
4

>  <a_nO>
12

>  <a_nP>
0

>  <a_nS>
0

>  <balabanJ>
1.2841268

>  <BCUT_PEOE_0>
-2.7796512

>  <BCUT_PEOE_1>
-0.51731867

>  <BCUT_PEOE_2>
0.55118895

>  <BCUT_PEOE_3>
2.7886617

>  <BCUT_SLOGP_0>
-2.876797

>  <BCUT_SLOGP_1>
-0.45400146

>  <BCUT_SLOGP_2>
0.55008316

>  <BCUT_SLOGP_3>
2.8413699

>  <BCUT_SMR_0>
-2.5531604

>  <BCUT_SMR_1>
-0.35558882

>  <BCUT_SMR_2>
0.71041095

>  <BCUT_SMR_3>
3.0392323

>  <bpol>
85.123245

>  <b_1rotN>
5

>  <b_1rotR>
0.073529415

>  <b_ar>
11

>  <b_count>
132

>  <b_double>
7

>  <b_heavy>
68

>  <b_max1len>
4

>  <b_rotN>
6

>  <b_rotR>
0.088235296

>  <b_single>
114

>  <b_triple>
0

>  <chi0>
46.075893

>  <chi0v>
37.752556

>  <chi0v_C>
30.817108

>  <chi0_C>
32.678551

>  <chi1>
29.803364

>  <chi1v>
21.915998

>  <chi1v_C>
15.703248

>  <chi1_C>
17.946283

>  <chiral>
9

>  <chiral_u>
0

>  <density>
0.74262714

>  <diameter>
23

>  <FCharge>
0

>  <GCUT_PEOE_0>
-0.85240132

>  <GCUT_PEOE_1>
-0.4194141

>  <GCUT_PEOE_2>
0.050862476

>  <GCUT_PEOE_3>
3.271029

>  <GCUT_SLOGP_0>
-0.99771678

>  <GCUT_SLOGP_1>
-0.30363902

>  <GCUT_SLOGP_2>
0.040534638

>  <GCUT_SLOGP_3>
3.3187113

>  <GCUT_SMR_0>
-0.53389138

>  <GCUT_SMR_1>
-0.19737215

>  <GCUT_SMR_2>
0.16594547

>  <GCUT_SMR_3>
3.5145118

>  <Kier1>
52.372837

>  <Kier2>
22.615625

>  <Kier3>
11.387755

>  <KierA1>
43.76738

>  <KierA2>
18.84267

>  <KierA3>
9.4679985

>  <KierFlex>
13.090385

>  <lip_acc>
16

>  <lip_don>
6

>  <lip_druglike>
0

>  <lip_violation>
4

>  <logP(o/w)>
6.0929999

>  <logS>
-7.2214298

>  <mr>
23.374615

>  <mutagenic>
1

>  <nmol>
1

>  <opr_brigid>
45

>  <opr_leadlike>
0

>  <opr_nring>
5

>  <opr_nrot>
22

>  <opr_violation>
6

>  <PC+>
0

>  <PC->
0

>  <PEOE_PC+>
5.7061791

>  <PEOE_PC->
-5.7061791

>  <PEOE_RPC+>
0.045444489

>  <PEOE_RPC->
0.068537109

>  <PEOE_VSA+0>
318.94202

>  <PEOE_VSA+1>
128.30783

>  <PEOE_VSA+2>
8.458519

>  <PEOE_VSA+3>
8.6190128

>  <PEOE_VSA+4>
61.187927

>  <PEOE_VSA+5>
27.65803

>  <PEOE_VSA+6>
0

>  <PEOE_VSA-0>
85.900566

>  <PEOE_VSA-1>
129.15805

>  <PEOE_VSA-2>
0

>  <PEOE_VSA-3>
0

>  <PEOE_VSA-4>
9.4210396

>  <PEOE_VSA-5>
40.700764

>  <PEOE_VSA-6>
48.989616

>  <PEOE_VSA_FHYD>
0.78329533

>  <PEOE_VSA_FNEG>
0.36222106

>  <PEOE_VSA_FPNEG>
0.11427011

>  <PEOE_VSA_FPOL>
0.2167047

>  <PEOE_VSA_FPOS>
0.63777894

>  <PEOE_VSA_FPPOS>
0.10243458

>  <PEOE_VSA_HYD>
679.38599

>  <PEOE_VSA_NEG>
314.17004

>  <PEOE_VSA_PNEG>
99.11142

>  <PEOE_VSA_POL>
187.95738

>  <PEOE_VSA_POS>
553.17334

>  <PEOE_VSA_PPOS>
88.845955

>  <petitjean>
0.43478259

>  <petitjeanSC>
0.76923078

>  <Q_PC+>
0

>  <Q_PC->
0

>  <Q_RPC+>
0

>  <Q_RPC->
0

>  <Q_VSA_FHYD>
1

>  <Q_VSA_FNEG>
0

>  <Q_VSA_FPNEG>
0

>  <Q_VSA_FPOL>
0

>  <Q_VSA_FPOS>
1

>  <Q_VSA_FPPOS>
0

>  <Q_VSA_HYD>
867.34338

>  <Q_VSA_NEG>
0

>  <Q_VSA_PNEG>
0

>  <Q_VSA_POL>
0

>  <Q_VSA_POS>
867.34338

>  <Q_VSA_PPOS>
0

>  <radius>
13

>  <reactive>
1

>  <rings>
6

>  <RPC+>
0

>  <RPC->
0

>  <rsynth>
0.58730161

>  <SlogP>
5.6482201

>  <SlogP_VSA0>
137.92603

>  <SlogP_VSA1>
42.828716

>  <SlogP_VSA2>
127.79502

>  <SlogP_VSA3>
73.758316

>  <SlogP_VSA4>
51.062126

>  <SlogP_VSA5>
55.232449

>  <SlogP_VSA6>
0

>  <SlogP_VSA7>
95.419701

>  <SlogP_VSA8>
75.473625

>  <SlogP_VSA9>
290.33859

>  <SMR>
23.68112

>  <SMR_VSA0>
104.58631

>  <SMR_VSA1>
160.71513

>  <SMR_VSA2>
17.643185

>  <SMR_VSA3>
63.572578

>  <SMR_VSA4>
25.913427

>  <SMR_VSA5>
165.74739

>  <SMR_VSA6>
92.450172

>  <SMR_VSA7>
319.20633

>  <TPSA>
220.14999

>  <VAdjEq>
0.21535175

>  <VAdjMa>
7.0874629

>  <VDistEq>
4.1783767

>  <VDistMa>
11.712808

>  <vdw_area>
867.34338

>  <vdw_vol>
1181.0032

>  <vsa_acc>
57.633072

>  <vsa_acid>
0

>  <vsa_base>
0

>  <vsa_don>
5.6825762

>  <vsa_hyd>
603.80316

>  <vsa_other>
60.028355

>  <vsa_pol>
131.15025

>  <Weight>
877.04498

>  <weinerPath>
17129

>  <weinerPol>
121

>  <zagreb>
338

$$$$