S(CC(O[C@@H]1C[C@](C=C)(C)[C@@H](O)[C@@H]([C@]23[C@H]([C@@]1(C)[C@@H](CC2)C)C(=O)CC3)C)=O)C1C[C@@H]2N([C@H](C1)CC2)C
  MOE2013           2D

 36 40  0  0  1  0  0  0  0  0999 V2000
    0.0000    0.0000    0.0000 S   0  0  0  0  0  0  0  0  0  0  0  0
   -1.2950   -0.7570    0.0000 C   0  0  0  0  0  0  0  0  0  0  0  0
   -2.5980   -0.0140    0.0000 C   0  0  0  0  0  0  0  0  0  0  0  0
   -3.8930   -0.7710    0.0000 O   0  0  0  0  0  0  0  0  0  0  0  0
   -5.1960   -0.0280    0.0000 C   0  0  2  0  0  0  0  0  0  0  0  0
   -5.0980    1.5190    0.0000 C   0  0  0  0  0  0  0  0  0  0  0  0
   -6.1160    2.6130    0.0000 C   0  0  2  0  0  0  0  0  0  0  0  0
   -6.1730    4.1120    0.0000 C   0  0  0  0  0  0  0  0  0  0  0  0
   -4.9040    4.9110    0.0000 C   0  0  0  0  0  0  0  0  0  0  0  0
   -4.9390    3.5430    0.0000 C   0  0  0  0  0  0  0  0  0  0  0  0
   -7.5990    2.7960    0.0000 C   0  0  1  0  0  0  0  0  0  0  0  0
   -8.0190    4.2360    0.0000 O   0  0  0  0  0  0  0  0  0  0  0  0
   -8.7920    1.8090    0.0000 C   0  0  1  0  0  0  0  0  0  0  0  0
   -8.7520    0.3310    0.0000 C   0  0  2  0  0  0  0  0  0  0  0  0
   -7.9180   -0.9170    0.0000 C   0  0  2  0  0  0  0  0  0  0  0  0
   -6.4180   -0.8600    0.0000 C   0  0  2  0  0  0  0  0  0  0  0  0
   -5.8980   -2.2670    0.0000 C   0  0  0  0  0  0  0  0  0  0  0  0
   -5.7510    0.4920    0.0000 C   0  0  1  0  0  0  0  0  0  0  0  0
   -6.5600    1.7440    0.0000 C   0  0  0  0  0  0  0  0  0  0  0  0
   -8.0480    1.6650    0.0000 C   0  0  0  0  0  0  0  0  0  0  0  0
   -4.2540    0.5790    0.0000 C   0  0  0  0  0  0  0  0  0  0  0  0
   -8.8460   -2.0950    0.0000 C   0  0  0  0  0  0  0  0  0  0  0  0
   -8.4390   -3.5380    0.0000 O   0  0  0  0  0  0  0  0  0  0  0  0
  -10.2540   -1.5760    0.0000 C   0  0  0  0  0  0  0  0  0  0  0  0
  -10.1950   -0.0770    0.0000 C   0  0  0  0  0  0  0  0  0  0  0  0
  -10.1580    2.4300    0.0000 C   0  0  0  0  0  0  0  0  0  0  0  0
   -2.6060    1.4860    0.0000 O   0  0  0  0  0  0  0  0  0  0  0  0
    1.3030   -0.7430    0.0000 C   0  0  0  0  0  0  0  0  0  0  0  0
    2.5270   -0.9450    0.0000 C   0  0  0  0  0  0  0  0  0  0  0  0
    4.0760   -0.0400    0.0000 C   0  0  2  0  0  0  0  0  0  0  0  0
    5.0470   -1.2080    0.0000 N   0  0  0  0  0  0  0  0  0  0  0  0
    3.7440   -1.0270    0.0000 C   0  0  2  0  0  0  0  0  0  0  0  0
    2.2840   -1.9120    0.0000 C   0  0  0  0  0  0  0  0  0  0  0  0
    3.5980    0.4050    0.0000 C   0  0  0  0  0  0  0  0  0  0  0  0
    4.2340    1.5770    0.0000 C   0  0  0  0  0  0  0  0  0  0  0  0
    6.3580   -1.9360    0.0000 C   0  0  0  0  0  0  0  0  0  0  0  0
  1  2  1  0  0  0  0
  1 28  1  0  0  0  0
  2  3  1  0  0  0  0
  3  4  1  0  0  0  0
  3 27  2  0  0  0  0
  5  4  1  1  0  0  0
  5  6  1  0  0  0  0
  5 16  1  0  0  0  0
  6  7  1  0  0  0  0
  7  8  1  6  0  0  0
  7 10  1  1  0  0  0
  7 11  1  0  0  0  0
  8  9  2  0  0  0  0
 11 12  1  6  0  0  0
 11 13  1  0  0  0  0
 13 14  1  0  0  0  0
 13 26  1  1  0  0  0
 14 15  1  0  0  0  0
 14 20  1  0  0  0  0
 14 25  1  6  0  0  0
 15 16  1  0  0  0  0
 15 22  1  6  0  0  0
 16 17  1  6  0  0  0
 16 18  1  0  0  0  0
 18 19  1  0  0  0  0
 18 21  1  1  0  0  0
 19 20  1  0  0  0  0
 22 23  2  0  0  0  0
 22 24  1  0  0  0  0
 24 25  1  0  0  0  0
 28 29  1  0  0  0  0
 28 33  1  0  0  0  0
 30 29  1  1  0  0  0
 30 31  1  0  0  0  0
 30 35  1  0  0  0  0
 31 36  1  0  0  0  0
 32 31  1  6  0  0  0
 32 33  1  0  0  0  0
 32 34  1  0  0  0  0
 34 35  1  0  0  0  0
M  END
>  <Index>
940

>  <ID>
HT1815

>  <class>
0

>  <apol>
91.347275

>  <ast_fraglike>
0

>  <ast_fraglike_ext>
0

>  <ast_violation>
3

>  <ast_violation_ext>
4

>  <a_acc>
4

>  <a_acid>
0

>  <a_aro>
0

>  <a_base>
0

>  <a_count>
83

>  <a_don>
1

>  <a_donacc>
5

>  <a_heavy>
36

>  <a_hyd>
29

>  <a_IC>
112.85588

>  <a_ICM>
1.3597094

>  <a_nB>
0

>  <a_nBr>
0

>  <a_nC>
30

>  <a_nCl>
0

>  <a_nF>
0

>  <a_nH>
47

>  <a_nI>
0

>  <a_nN>
1

>  <a_nO>
4

>  <a_nP>
0

>  <a_nS>
1

>  <balabanJ>
1.3785586

>  <BCUT_PEOE_0>
-2.9419613

>  <BCUT_PEOE_1>
-0.42624599

>  <BCUT_PEOE_2>
0.27977946

>  <BCUT_PEOE_3>
2.9774363

>  <BCUT_SLOGP_0>
-2.9202323

>  <BCUT_SLOGP_1>
-0.36634877

>  <BCUT_SLOGP_2>
0.35201716

>  <BCUT_SLOGP_3>
3.0130792

>  <BCUT_SMR_0>
-2.701365

>  <BCUT_SMR_1>
-0.20827474

>  <BCUT_SMR_2>
0.52461272

>  <BCUT_SMR_3>
3.2200503

>  <bpol>
59.472729

>  <b_1rotN>
5

>  <b_1rotR>
0.125

>  <b_ar>
0

>  <b_count>
87

>  <b_double>
3

>  <b_heavy>
40

>  <b_max1len>
4

>  <b_rotN>
6

>  <b_rotR>
0.15000001

>  <b_single>
84

>  <b_triple>
0

>  <chi0>
26.043242

>  <chi0v>
23.818243

>  <chi0v_C>
20.474327

>  <chi0_C>
21.051678

>  <chi1>
16.958035

>  <chi1v>
15.382454

>  <chi1v_C>
11.739436

>  <chi1_C>
12.257221

>  <chiral>
10

>  <chiral_u>
0

>  <density>
0.70616949

>  <diameter>
14

>  <FCharge>
0

>  <GCUT_PEOE_0>
-0.86029488

>  <GCUT_PEOE_1>
-0.37858984

>  <GCUT_PEOE_2>
-0.0410011

>  <GCUT_PEOE_3>
3.5153377

>  <GCUT_SLOGP_0>
-0.95909756

>  <GCUT_SLOGP_1>
-0.3155874

>  <GCUT_SLOGP_2>
-0.0069933319

>  <GCUT_SLOGP_3>
3.559797

>  <GCUT_SMR_0>
-0.54033214

>  <GCUT_SMR_1>
-0.1995609

>  <GCUT_SMR_2>
0.14975689

>  <GCUT_SMR_3>
3.7387719

>  <Kier1>
27.5625

>  <Kier2>
9.8779297

>  <Kier3>
4.317338

>  <KierA1>
26.728432

>  <KierA2>
9.5703964

>  <KierA3>
4.1802902

>  <KierFlex>
7.1056023

>  <lip_acc>
5

>  <lip_don>
1

>  <lip_druglike>
0

>  <lip_violation>
2

>  <logP(o/w)>
5.1869998

>  <logS>
-5.7584

>  <mr>
14.492792

>  <mutagenic>
0

>  <nmol>
1

>  <opr_brigid>
26

>  <opr_leadlike>
0

>  <opr_nring>
5

>  <opr_nrot>
10

>  <opr_violation>
3

>  <PC+>
0

>  <PC->
0

>  <PEOE_PC+>
2.4689844

>  <PEOE_PC->
-2.4689844

>  <PEOE_RPC+>
0.11031319

>  <PEOE_RPC->
0.15822592

>  <PEOE_VSA+0>
190.50507

>  <PEOE_VSA+1>
41.814163

>  <PEOE_VSA+2>
8.458519

>  <PEOE_VSA+3>
0

>  <PEOE_VSA+4>
10.324173

>  <PEOE_VSA+5>
14.708499

>  <PEOE_VSA+6>
0

>  <PEOE_VSA-0>
92.849197

>  <PEOE_VSA-1>
87.245613

>  <PEOE_VSA-2>
42.061886

>  <PEOE_VSA-3>
0

>  <PEOE_VSA-4>
0

>  <PEOE_VSA-5>
27.133842

>  <PEOE_VSA-6>
10.271297

>  <PEOE_VSA_FHYD>
0.88115513

>  <PEOE_VSA_FNEG>
0.49405318

>  <PEOE_VSA_FPNEG>
0.071197398

>  <PEOE_VSA_FPOL>
0.1188449

>  <PEOE_VSA_FPOS>
0.50594682

>  <PEOE_VSA_FPPOS>
0.047647495

>  <PEOE_VSA_HYD>
462.93445

>  <PEOE_VSA_NEG>
259.56183

>  <PEOE_VSA_PNEG>
37.40514

>  <PEOE_VSA_POL>
62.437809

>  <PEOE_VSA_POS>
265.81042

>  <PEOE_VSA_PPOS>
25.032671

>  <petitjean>
0.5

>  <petitjeanSC>
1

>  <Q_PC+>
0

>  <Q_PC->
0

>  <Q_RPC+>
0

>  <Q_RPC->
0

>  <Q_VSA_FHYD>
1

>  <Q_VSA_FNEG>
0

>  <Q_VSA_FPNEG>
0

>  <Q_VSA_FPOL>
0

>  <Q_VSA_FPOS>
1

>  <Q_VSA_FPPOS>
0

>  <Q_VSA_HYD>
525.37225

>  <Q_VSA_NEG>
0

>  <Q_VSA_PNEG>
0

>  <Q_VSA_POL>
0

>  <Q_VSA_POS>
525.37225

>  <Q_VSA_PPOS>
0

>  <radius>
7

>  <reactive>
1

>  <rings>
5

>  <RPC+>
0

>  <RPC->
0

>  <rsynth>
0.083333336

>  <SlogP>
5.2512999

>  <SlogP_VSA0>
25.385227

>  <SlogP_VSA1>
16.557388

>  <SlogP_VSA2>
82.401512

>  <SlogP_VSA3>
17.233564

>  <SlogP_VSA4>
13.232388

>  <SlogP_VSA5>
32.897186

>  <SlogP_VSA6>
0

>  <SlogP_VSA7>
17.643185

>  <SlogP_VSA8>
169.81564

>  <SlogP_VSA9>
197.62439

>  <SMR>
14.46948

>  <SMR_VSA0>
58.724319

>  <SMR_VSA1>
28.509541

>  <SMR_VSA2>
13.232388

>  <SMR_VSA3>
23.677191

>  <SMR_VSA4>
0

>  <SMR_VSA5>
187.45883

>  <SMR_VSA6>
30.666639

>  <SMR_VSA7>
230.52158

>  <TPSA>
66.839996

>  <VAdjEq>
0.33426812

>  <VAdjMa>
6.321928

>  <VDistEq>
3.585537

>  <VDistMa>
10.063506

>  <vdw_area>
525.37225

>  <vdw_vol>
733.21631

>  <vsa_acc>
27.133842

>  <vsa_acid>
0

>  <vsa_base>
0

>  <vsa_don>
0

>  <vsa_hyd>
417.69818

>  <vsa_other>
25.670774

>  <vsa_pol>
40.700764

>  <Weight>
517.77496

>  <weinerPath>
3724

>  <weinerPol>
78

>  <zagreb>
208

$$$$