Brc1c2cc(ccc2oc1-c1ccccc1NS(=O)(=O)C(F)(F)F)Cn1c(C(=O)N)c(nc1CC)C1CC1
  MOE2013           2D

 38 42  0  0  0  0  0  0  0  0999 V2000
    0.0000    0.0000    0.0000 Br  0  0  0  0  0  0  0  0  0  0  0  0
   -0.4830   -1.4200    0.0000 C   0  0  0  0  0  0  0  0  0  0  0  0
    0.3820   -2.6460    0.0000 C   0  0  0  0  0  0  0  0  0  0  0  0
    1.8720   -2.8230    0.0000 C   0  0  0  0  0  0  0  0  0  0  0  0
    2.4630   -4.2010    0.0000 C   0  0  0  0  0  0  0  0  0  0  0  0
    1.5650   -5.4030    0.0000 C   0  0  0  0  0  0  0  0  0  0  0  0
    0.0760   -5.2250    0.0000 C   0  0  0  0  0  0  0  0  0  0  0  0
   -0.5160   -3.8470    0.0000 C   0  0  0  0  0  0  0  0  0  0  0  0
   -1.9360   -3.3640    0.0000 O   0  0  0  0  0  0  0  0  0  0  0  0
   -1.9160   -1.8640    0.0000 C   0  0  0  0  0  0  0  0  0  0  0  0
   -3.1170   -0.9660    0.0000 C   0  0  0  0  0  0  0  0  0  0  0  0
   -2.9400    0.5230    0.0000 C   0  0  0  0  0  0  0  0  0  0  0  0
   -4.1410    1.4210    0.0000 C   0  0  0  0  0  0  0  0  0  0  0  0
   -5.5200    0.8300    0.0000 C   0  0  0  0  0  0  0  0  0  0  0  0
   -5.6970   -0.6600    0.0000 C   0  0  0  0  0  0  0  0  0  0  0  0
   -4.4960   -1.5580    0.0000 C   0  0  0  0  0  0  0  0  0  0  0  0
   -4.6730   -3.0470    0.0000 N   0  0  0  0  0  0  0  0  0  0  0  0
   -6.0510   -3.6390    0.0000 S   0  0  0  0  0  0  0  0  0  0  0  0
   -6.6420   -2.2600    0.0000 O   0  0  0  0  0  0  0  0  0  0  0  0
   -5.4600   -5.0170    0.0000 O   0  0  0  0  0  0  0  0  0  0  0  0
   -7.4300   -4.2300    0.0000 C   0  0  0  0  0  0  0  0  0  0  0  0
   -6.8380   -5.6080    0.0000 F   0  0  0  0  0  0  0  0  0  0  0  0
   -8.8080   -4.8210    0.0000 F   0  0  0  0  0  0  0  0  0  0  0  0
   -8.0210   -2.8520    0.0000 F   0  0  0  0  0  0  0  0  0  0  0  0
    3.9530   -4.3780    0.0000 C   0  0  0  0  0  0  0  0  0  0  0  0
    4.5440   -5.7570    0.0000 N   0  0  0  0  0  0  0  0  0  0  0  0
    6.0070   -6.0880    0.0000 C   0  0  0  0  0  0  0  0  0  0  0  0
    7.1350   -5.1000    0.0000 C   0  0  0  0  0  0  0  0  0  0  0  0
    8.5550   -5.5830    0.0000 O   0  0  0  0  0  0  0  0  0  0  0  0
    6.8430   -3.6290    0.0000 N   0  0  0  0  0  0  0  0  0  0  0  0
    6.1440   -7.5820    0.0000 C   0  0  0  0  0  0  0  0  0  0  0  0
    4.7650   -8.1740    0.0000 N   0  0  0  0  0  0  0  0  0  0  0  0
    3.7770   -7.0450    0.0000 C   0  0  0  0  0  0  0  0  0  0  0  0
    2.2830   -7.1820    0.0000 C   0  0  0  0  0  0  0  0  0  0  0  0
    1.6540   -8.5440    0.0000 C   0  0  0  0  0  0  0  0  0  0  0  0
    7.4320   -8.3500    0.0000 C   0  0  0  0  0  0  0  0  0  0  0  0
    8.9320   -8.3700    0.0000 C   0  0  0  0  0  0  0  0  0  0  0  0
    8.1650   -9.6590    0.0000 C   0  0  0  0  0  0  0  0  0  0  0  0
  1  2  1  0  0  0  0
  2  3  1  0  0  0  0
  2 10  2  0  0  0  0
  3  4  1  0  0  0  0
  3  8  2  0  0  0  0
  4  5  2  0  0  0  0
  5  6  1  0  0  0  0
  5 25  1  0  0  0  0
  6  7  2  0  0  0  0
  7  8  1  0  0  0  0
  8  9  1  0  0  0  0
  9 10  1  0  0  0  0
 10 11  1  0  0  0  0
 11 12  1  0  0  0  0
 11 16  2  0  0  0  0
 12 13  2  0  0  0  0
 13 14  1  0  0  0  0
 14 15  2  0  0  0  0
 15 16  1  0  0  0  0
 16 17  1  0  0  0  0
 17 18  1  0  0  0  0
 18 19  2  0  0  0  0
 18 20  2  0  0  0  0
 18 21  1  0  0  0  0
 21 22  1  0  0  0  0
 21 23  1  0  0  0  0
 21 24  1  0  0  0  0
 25 26  1  0  0  0  0
 26 27  1  0  0  0  0
 26 33  1  0  0  0  0
 27 28  1  0  0  0  0
 27 31  2  0  0  0  0
 28 29  2  0  0  0  0
 28 30  1  0  0  0  0
 31 32  1  0  0  0  0
 31 36  1  0  0  0  0
 32 33  2  0  0  0  0
 33 34  1  0  0  0  0
 34 35  1  0  0  0  0
 36 37  1  0  0  0  0
 36 38  1  0  0  0  0
 37 38  1  0  0  0  0
M  END
>  <Index>
969

>  <ID>
HT1866

>  <class>
0

>  <apol>
73.898445

>  <ast_fraglike>
0

>  <ast_fraglike_ext>
0

>  <ast_violation>
3

>  <ast_violation_ext>
5

>  <a_acc>
4

>  <a_acid>
0

>  <a_aro>
20

>  <a_base>
0

>  <a_count>
60

>  <a_don>
2

>  <a_donacc>
6

>  <a_heavy>
38

>  <a_hyd>
25

>  <a_IC>
119.45465

>  <a_ICM>
1.9909108

>  <a_nB>
0

>  <a_nBr>
1

>  <a_nC>
25

>  <a_nCl>
0

>  <a_nF>
3

>  <a_nH>
22

>  <a_nI>
0

>  <a_nN>
4

>  <a_nO>
4

>  <a_nP>
0

>  <a_nS>
1

>  <balabanJ>
1.2464809

>  <BCUT_PEOE_0>
-2.4234779

>  <BCUT_PEOE_1>
-0.57439917

>  <BCUT_PEOE_2>
0.62812686

>  <BCUT_PEOE_3>
2.7527547

>  <BCUT_SLOGP_0>
-2.5211368

>  <BCUT_SLOGP_1>
-0.46495816

>  <BCUT_SLOGP_2>
0.71182323

>  <BCUT_SLOGP_3>
2.8914905

>  <BCUT_SMR_0>
-2.1689048

>  <BCUT_SMR_1>
-0.42531431

>  <BCUT_SMR_2>
0.80729002

>  <BCUT_SMR_3>
3.0028422

>  <bpol>
41.599552

>  <b_1rotN>
8

>  <b_1rotR>
0.19047619

>  <b_ar>
21

>  <b_count>
64

>  <b_double>
1

>  <b_heavy>
42

>  <b_max1len>
4

>  <b_rotN>
9

>  <b_rotR>
0.21428572

>  <b_single>
42

>  <b_triple>
0

>  <chi0>
27.405048

>  <chi0v>
22.374599

>  <chi0v_C>
14.447229

>  <chi0_C>
16.206377

>  <chi1>
17.908016

>  <chi1v>
13.970144

>  <chi1v_C>
7.8347692

>  <chi1_C>
9.9562559

>  <chiral>
0

>  <chiral_u>
0

>  <density>
0.9332794

>  <diameter>
16

>  <FCharge>
0

>  <GCUT_PEOE_0>
-0.83328682

>  <GCUT_PEOE_1>
-0.40102103

>  <GCUT_PEOE_2>
0.060943071

>  <GCUT_PEOE_3>
2.763304

>  <GCUT_SLOGP_0>
-1.3703951

>  <GCUT_SLOGP_1>
-0.32538378

>  <GCUT_SLOGP_2>
0.20055082

>  <GCUT_SLOGP_3>
2.8841724

>  <GCUT_SMR_0>
-0.51332384

>  <GCUT_SMR_1>
-0.19433868

>  <GCUT_SMR_2>
0.20057401

>  <GCUT_SMR_3>
3.0578687

>  <Kier1>
29.490931

>  <Kier2>
11.349586

>  <Kier3>
5.7265496

>  <KierA1>
24.815628

>  <KierA2>
9.5036545

>  <KierA3>
4.7787862

>  <KierFlex>
6.2062936

>  <lip_acc>
8

>  <lip_don>
3

>  <lip_druglike>
0

>  <lip_violation>
2

>  <logP(o/w)>
5.6147599

>  <logS>
-8.77283

>  <mr>
14.019598

>  <mutagenic>
0

>  <nmol>
1

>  <opr_brigid>
24

>  <opr_leadlike>
0

>  <opr_nring>
5

>  <opr_nrot>
7

>  <opr_violation>
3

>  <PC+>
0

>  <PC->
0

>  <PEOE_PC+>
3.0623856

>  <PEOE_PC->
-3.0623856

>  <PEOE_RPC+>
0.22402912

>  <PEOE_RPC->
0.14814925

>  <PEOE_VSA+0>
62.471806

>  <PEOE_VSA+1>
69.151573

>  <PEOE_VSA+2>
44.912762

>  <PEOE_VSA+3>
17.238026

>  <PEOE_VSA+4>
0

>  <PEOE_VSA+5>
12.949531

>  <PEOE_VSA+6>
11.021564

>  <PEOE_VSA-0>
87.745827

>  <PEOE_VSA-1>
115.74811

>  <PEOE_VSA-2>
0

>  <PEOE_VSA-3>
2.5295215

>  <PEOE_VSA-4>
37.6991

>  <PEOE_VSA-5>
13.566921

>  <PEOE_VSA-6>
9.1548758

>  <PEOE_VSA_FHYD>
0.82570463

>  <PEOE_VSA_FNEG>
0.55028927

>  <PEOE_VSA_FPNEG>
0.12478768

>  <PEOE_VSA_FPOL>
0.17429534

>  <PEOE_VSA_FPOS>
0.44971073

>  <PEOE_VSA_FPPOS>
0.049507663

>  <PEOE_VSA_HYD>
399.79761

>  <PEOE_VSA_NEG>
266.44434

>  <PEOE_VSA_PNEG>
60.420895

>  <PEOE_VSA_POL>
84.391991

>  <PEOE_VSA_POS>
217.74525

>  <PEOE_VSA_PPOS>
23.971094

>  <petitjean>
0.5

>  <petitjeanSC>
1

>  <Q_PC+>
0

>  <Q_PC->
0

>  <Q_RPC+>
0

>  <Q_RPC->
0

>  <Q_VSA_FHYD>
1

>  <Q_VSA_FNEG>
0

>  <Q_VSA_FPNEG>
0

>  <Q_VSA_FPOL>
0

>  <Q_VSA_FPOS>
1

>  <Q_VSA_FPPOS>
0

>  <Q_VSA_HYD>
484.18961

>  <Q_VSA_NEG>
0

>  <Q_VSA_PNEG>
0

>  <Q_VSA_POL>
0

>  <Q_VSA_POS>
484.18961

>  <Q_VSA_PPOS>
0

>  <radius>
8

>  <reactive>
0

>  <rings>
5

>  <RPC+>
0

>  <RPC->
0

>  <rsynth>
1

>  <SlogP>
6.1736698

>  <SlogP_VSA0>
32.897186

>  <SlogP_VSA1>
94.644768

>  <SlogP_VSA2>
6.6407428

>  <SlogP_VSA3>
0

>  <SlogP_VSA4>
34.889206

>  <SlogP_VSA5>
31.430857

>  <SlogP_VSA6>
4.4107962

>  <SlogP_VSA7>
139.54587

>  <SlogP_VSA8>
37.736813

>  <SlogP_VSA9>
145.35678

>  <SMR>
13.93524

>  <SMR_VSA0>
81.541252

>  <SMR_VSA1>
63.56496

>  <SMR_VSA2>
9.1797791

>  <SMR_VSA3>
15.437786

>  <SMR_VSA4>
68.102501

>  <SMR_VSA5>
198.54709

>  <SMR_VSA6>
5.2587838

>  <SMR_VSA7>
85.920853

>  <TPSA>
120.22

>  <VAdjEq>
0.32014427

>  <VAdjMa>
6.3923173

>  <VDistEq>
3.8535478

>  <VDistMa>
10.204605

>  <vdw_area>
484.18961

>  <vdw_vol>
655.15106

>  <vsa_acc>
51.266022

>  <vsa_acid>
0

>  <vsa_base>
0

>  <vsa_don>
25.817696

>  <vsa_hyd>
329.35025

>  <vsa_other>
53.666496

>  <vsa_pol>
77.083717

>  <Weight>
611.43896

>  <weinerPath>
4803

>  <weinerPol>
68

>  <zagreb>
214

$$$$