OC(C)C
  MOE2013           2D

  4  3  0  0  0  0  0  0  0  0999 V2000
    0.0000    0.0000    0.0000 O   0  0  0  0  0  0  0  0  0  0  0  0
   -1.5000    0.0000    0.0000 C   0  0  0  0  0  0  0  0  0  0  0  0
   -2.2500    1.2990    0.0000 C   0  0  0  0  0  0  0  0  0  0  0  0
   -2.2500   -1.2990    0.0000 C   0  0  0  0  0  0  0  0  0  0  0  0
  1  2  1  0  0  0  0
  2  3  1  0  0  0  0
  2  4  1  0  0  0  0
M  END
>  <Index>
907

>  <ID>
HT1757

>  <class>
0

>  <apol>
11.416344

>  <ast_fraglike>
1

>  <ast_fraglike_ext>
1

>  <ast_violation>
0

>  <ast_violation_ext>
0

>  <a_acc>
1

>  <a_acid>
0

>  <a_aro>
0

>  <a_base>
0

>  <a_count>
12

>  <a_don>
1

>  <a_donacc>
2

>  <a_heavy>
4

>  <a_hyd>
3

>  <a_IC>
14.264663

>  <a_ICM>
1.1887219

>  <a_nB>
0

>  <a_nBr>
0

>  <a_nC>
3

>  <a_nCl>
0

>  <a_nF>
0

>  <a_nH>
8

>  <a_nI>
0

>  <a_nN>
0

>  <a_nO>
1

>  <a_nP>
0

>  <a_nS>
0

>  <balabanJ>
2.3237901

>  <BCUT_PEOE_0>
-2.4962974

>  <BCUT_PEOE_1>
-0.15415502

>  <BCUT_PEOE_2>
0.22570536

>  <BCUT_PEOE_3>
2.4599912

>  <BCUT_SLOGP_0>
-2.4952579

>  <BCUT_SLOGP_1>
-0.11985429

>  <BCUT_SLOGP_2>
0.24396382

>  <BCUT_SLOGP_3>
2.488915

>  <BCUT_SMR_0>
-2.265475

>  <BCUT_SMR_1>
-0.070924789

>  <BCUT_SMR_2>
0.30224028

>  <BCUT_SMR_3>
2.6853671

>  <bpol>
8.745656

>  <b_1rotN>
0

>  <b_1rotR>
0

>  <b_ar>
0

>  <b_count>
11

>  <b_double>
0

>  <b_heavy>
3

>  <b_max1len>
4

>  <b_rotN>
0

>  <b_rotR>
0

>  <b_single>
11

>  <b_triple>
0

>  <chi0>
3.5773504

>  <chi0v>
3.0245638

>  <chi0v_C>
2.5773504

>  <chi0_C>
2.5773504

>  <chi1>
1.7320508

>  <chi1v>
1.4128994

>  <chi1v_C>
1.1547005

>  <chi1_C>
1.1547005

>  <chiral>
0

>  <chiral_u>
0

>  <density>
0.62792414

>  <diameter>
2

>  <FCharge>
0

>  <GCUT_PEOE_0>
-0.80525428

>  <GCUT_PEOE_1>
-0.20681129

>  <GCUT_PEOE_2>
-0.050055735

>  <GCUT_PEOE_3>
1.820971

>  <GCUT_SLOGP_0>
-0.87444329

>  <GCUT_SLOGP_1>
-0.15509033

>  <GCUT_SLOGP_2>
-0.027411561

>  <GCUT_SLOGP_3>
1.8611689

>  <GCUT_SMR_0>
-0.52670074

>  <GCUT_SMR_1>
-0.11120109

>  <GCUT_SMR_2>
0.020484956

>  <GCUT_SMR_3>
2.0173624

>  <Kier1>
4

>  <Kier2>
1.3333334

>  <Kier3>
0

>  <KierA1>
4

>  <KierA2>
1.3333334

>  <KierA3>
0

>  <KierFlex>
1.3333334

>  <lip_acc>
1

>  <lip_don>
1

>  <lip_druglike>
1

>  <lip_violation>
0

>  <logP(o/w)>
0.39899999

>  <logS>
-0.04242

>  <mr>
1.7529213

>  <mutagenic>
0

>  <nmol>
1

>  <opr_brigid>
0

>  <opr_leadlike>
1

>  <opr_nring>
0

>  <opr_nrot>
0

>  <opr_violation>
0

>  <PC+>
0

>  <PC->
0

>  <PEOE_PC+>
0.47074446

>  <PEOE_PC->
-0.47074446

>  <PEOE_RPC+>
0.44557601

>  <PEOE_RPC->
0.83342326

>  <PEOE_VSA+0>
30.497244

>  <PEOE_VSA+1>
4.2653861

>  <PEOE_VSA+2>
0

>  <PEOE_VSA+3>
0

>  <PEOE_VSA+4>
10.324173

>  <PEOE_VSA+5>
0

>  <PEOE_VSA+6>
0

>  <PEOE_VSA-0>
37.495354

>  <PEOE_VSA-1>
0

>  <PEOE_VSA-2>
0

>  <PEOE_VSA-3>
0

>  <PEOE_VSA-4>
0

>  <PEOE_VSA-5>
0

>  <PEOE_VSA-6>
7.7675405

>  <PEOE_VSA_FHYD>
0.79975903

>  <PEOE_VSA_FNEG>
0.50097448

>  <PEOE_VSA_FPNEG>
0.085971951

>  <PEOE_VSA_FPOL>
0.20024098

>  <PEOE_VSA_FPOS>
0.49902549

>  <PEOE_VSA_FPPOS>
0.11426903

>  <PEOE_VSA_HYD>
72.257988

>  <PEOE_VSA_NEG>
45.262894

>  <PEOE_VSA_PNEG>
7.7675405

>  <PEOE_VSA_POL>
18.091713

>  <PEOE_VSA_POS>
45.086803

>  <PEOE_VSA_PPOS>
10.324173

>  <petitjean>
0.5

>  <petitjeanSC>
1

>  <Q_PC+>
0

>  <Q_PC->
0

>  <Q_RPC+>
0

>  <Q_RPC->
0

>  <Q_VSA_FHYD>
1

>  <Q_VSA_FNEG>
0

>  <Q_VSA_FPNEG>
0

>  <Q_VSA_FPOL>
0

>  <Q_VSA_FPOS>
1

>  <Q_VSA_FPPOS>
0

>  <Q_VSA_HYD>
90.349701

>  <Q_VSA_NEG>
0

>  <Q_VSA_PNEG>
0

>  <Q_VSA_POL>
0

>  <Q_VSA_POS>
90.349701

>  <Q_VSA_PPOS>
0

>  <radius>
1

>  <reactive>
0

>  <rings>
0

>  <RPC+>
0

>  <RPC->
0

>  <rsynth>
1

>  <SlogP>
0.38710001

>  <SlogP_VSA0>
25.385227

>  <SlogP_VSA1>
0

>  <SlogP_VSA2>
6.4686494

>  <SlogP_VSA3>
0

>  <SlogP_VSA4>
0

>  <SlogP_VSA5>
0

>  <SlogP_VSA6>
0

>  <SlogP_VSA7>
0

>  <SlogP_VSA8>
0

>  <SlogP_VSA9>
66.652031

>  <SMR>
1.73548

>  <SMR_VSA0>
0

>  <SMR_VSA1>
25.385227

>  <SMR_VSA2>
0

>  <SMR_VSA3>
6.4686494

>  <SMR_VSA4>
0

>  <SMR_VSA5>
0

>  <SMR_VSA6>
0

>  <SMR_VSA7>
66.652031

>  <TPSA>
20.23

>  <VAdjEq>
0.95443398

>  <VAdjMa>
2.5849626

>  <VDistEq>
1

>  <VDistMa>
3.5032582

>  <vdw_area>
90.349701

>  <vdw_vol>
95.705826

>  <vsa_acc>
0

>  <vsa_acid>
0

>  <vsa_base>
0

>  <vsa_don>
0

>  <vsa_hyd>
67.275421

>  <vsa_other>
0

>  <vsa_pol>
13.566921

>  <Weight>
60.095997

>  <weinerPath>
9

>  <weinerPol>
0

>  <zagreb>
12

$$$$