Clc1c(noc1NS(=O)(=O)c1ccsc1C(=O)Cc1cc2OCOc2cc1C)C
  MOE2013           2D

 29 32  0  0  0  0  0  0  0  0999 V2000
    0.0000    0.0000    0.0000 Cl  0  0  0  0  0  0  0  0  0  0  0  0
    0.1020   -1.4970    0.0000 C   0  0  0  0  0  0  0  0  0  0  0  0
    1.3730   -2.2930    0.0000 C   0  0  0  0  0  0  0  0  0  0  0  0
    1.0080   -3.7480    0.0000 N   0  0  0  0  0  0  0  0  0  0  0  0
   -0.4890   -3.8510    0.0000 O   0  0  0  0  0  0  0  0  0  0  0  0
   -1.0480   -2.4590    0.0000 C   0  0  0  0  0  0  0  0  0  0  0  0
   -2.5030   -2.0940    0.0000 N   0  0  0  0  0  0  0  0  0  0  0  0
   -3.5470   -3.1710    0.0000 S   0  0  0  0  0  0  0  0  0  0  0  0
   -2.4700   -4.2150    0.0000 O   0  0  0  0  0  0  0  0  0  0  0  0
   -4.6240   -2.1270    0.0000 O   0  0  0  0  0  0  0  0  0  0  0  0
   -4.5910   -4.2480    0.0000 C   0  0  0  0  0  0  0  0  0  0  0  0
   -4.3330   -5.7260    0.0000 C   0  0  0  0  0  0  0  0  0  0  0  0
   -5.6580   -6.4280    0.0000 C   0  0  0  0  0  0  0  0  0  0  0  0
   -6.7360   -5.3840    0.0000 S   0  0  0  0  0  0  0  0  0  0  0  0
   -6.0760   -4.0370    0.0000 C   0  0  0  0  0  0  0  0  0  0  0  0
   -6.7780   -2.7110    0.0000 C   0  0  0  0  0  0  0  0  0  0  0  0
   -5.9810   -1.4410    0.0000 O   0  0  0  0  0  0  0  0  0  0  0  0
   -8.2770   -2.6570    0.0000 C   0  0  0  0  0  0  0  0  0  0  0  0
   -8.9790   -1.3310    0.0000 C   0  0  0  0  0  0  0  0  0  0  0  0
   -8.1820   -0.0600    0.0000 C   0  0  0  0  0  0  0  0  0  0  0  0
   -8.8840    1.2650    0.0000 C   0  0  0  0  0  0  0  0  0  0  0  0
   -8.3690    2.6740    0.0000 O   0  0  0  0  0  0  0  0  0  0  0  0
   -9.5490    3.5990    0.0000 C   0  0  0  0  0  0  0  0  0  0  0  0
  -10.7940    2.7630    0.0000 O   0  0  0  0  0  0  0  0  0  0  0  0
  -10.3830    1.3200    0.0000 C   0  0  0  0  0  0  0  0  0  0  0  0
  -11.1800    0.0490    0.0000 C   0  0  0  0  0  0  0  0  0  0  0  0
  -10.4780   -1.2760    0.0000 C   0  0  0  0  0  0  0  0  0  0  0  0
  -11.2750   -2.5470    0.0000 C   0  0  0  0  0  0  0  0  0  0  0  0
    2.7650   -1.7340    0.0000 C   0  0  0  0  0  0  0  0  0  0  0  0
  1  2  1  0  0  0  0
  2  3  1  0  0  0  0
  2  6  2  0  0  0  0
  3  4  2  0  0  0  0
  3 29  1  0  0  0  0
  4  5  1  0  0  0  0
  5  6  1  0  0  0  0
  6  7  1  0  0  0  0
  7  8  1  0  0  0  0
  8  9  2  0  0  0  0
  8 10  2  0  0  0  0
  8 11  1  0  0  0  0
 11 12  1  0  0  0  0
 11 15  2  0  0  0  0
 12 13  2  0  0  0  0
 13 14  1  0  0  0  0
 14 15  1  0  0  0  0
 15 16  1  0  0  0  0
 16 17  2  0  0  0  0
 16 18  1  0  0  0  0
 18 19  1  0  0  0  0
 19 20  1  0  0  0  0
 19 27  2  0  0  0  0
 20 21  2  0  0  0  0
 21 22  1  0  0  0  0
 21 25  1  0  0  0  0
 22 23  1  0  0  0  0
 23 24  1  0  0  0  0
 24 25  1  0  0  0  0
 25 26  2  0  0  0  0
 26 27  1  0  0  0  0
 27 28  1  0  0  0  0
M  END
>  <Index>
986

>  <ID>
HT1894

>  <class>
0

>  <apol>
56.673897

>  <ast_fraglike>
0

>  <ast_fraglike_ext>
0

>  <ast_violation>
3

>  <ast_violation_ext>
5

>  <a_acc>
6

>  <a_acid>
0

>  <a_aro>
16

>  <a_base>
0

>  <a_count>
44

>  <a_don>
1

>  <a_donacc>
7

>  <a_heavy>
29

>  <a_hyd>
17

>  <a_IC>
87.043205

>  <a_ICM>
1.9782547

>  <a_nB>
0

>  <a_nBr>
0

>  <a_nC>
18

>  <a_nCl>
1

>  <a_nF>
0

>  <a_nH>
15

>  <a_nI>
0

>  <a_nN>
2

>  <a_nO>
6

>  <a_nP>
0

>  <a_nS>
2

>  <balabanJ>
1.3689226

>  <BCUT_PEOE_0>
-2.3558278

>  <BCUT_PEOE_1>
-0.4188441

>  <BCUT_PEOE_2>
0.41588649

>  <BCUT_PEOE_3>
2.4787099

>  <BCUT_SLOGP_0>
-2.4288857

>  <BCUT_SLOGP_1>
-0.36229184

>  <BCUT_SLOGP_2>
0.53205478

>  <BCUT_SLOGP_3>
2.5273678

>  <BCUT_SMR_0>
-2.0777688

>  <BCUT_SMR_1>
-0.19741766

>  <BCUT_SMR_2>
0.71775281

>  <BCUT_SMR_3>
2.7965391

>  <bpol>
32.940105

>  <b_1rotN>
6

>  <b_1rotR>
0.1875

>  <b_ar>
16

>  <b_count>
47

>  <b_double>
1

>  <b_heavy>
32

>  <b_max1len>
3

>  <b_rotN>
6

>  <b_rotR>
0.1875

>  <b_single>
30

>  <b_triple>
0

>  <chi0>
20.758783

>  <chi0v>
17.703701

>  <chi0v_C>
10.723615

>  <chi0_C>
12.016144

>  <chi1>
13.758858

>  <chi1v>
11.145015

>  <chi1v_C>
4.9838157

>  <chi1_C>
6.5124388

>  <chiral>
0

>  <chiral_u>
0

>  <density>
0.91459751

>  <diameter>
14

>  <FCharge>
0

>  <GCUT_PEOE_0>
-0.93013233

>  <GCUT_PEOE_1>
-0.37964407

>  <GCUT_PEOE_2>
-0.020638583

>  <GCUT_PEOE_3>
2.5714395

>  <GCUT_SLOGP_0>
-0.94365805

>  <GCUT_SLOGP_1>
-0.37759131

>  <GCUT_SLOGP_2>
0.12247461

>  <GCUT_SLOGP_3>
2.658668

>  <GCUT_SMR_0>
-0.4970277

>  <GCUT_SMR_1>
-0.1677721

>  <GCUT_SMR_2>
0.1976461

>  <GCUT_SMR_3>
2.8577096

>  <Kier1>
22.203125

>  <Kier2>
8.859375

>  <Kier3>
4.6210938

>  <KierA1>
20.210356

>  <KierA2>
8.0360632

>  <KierA3>
4.1808691

>  <KierFlex>
5.6004028

>  <lip_acc>
8

>  <lip_don>
1

>  <lip_druglike>
1

>  <lip_violation>
0

>  <logP(o/w)>
3.2119999

>  <logS>
-5.4219799

>  <mr>
11.032585

>  <mutagenic>
0

>  <nmol>
1

>  <opr_brigid>
20

>  <opr_leadlike>
1

>  <opr_nring>
4

>  <opr_nrot>
5

>  <opr_violation>
1

>  <PC+>
0

>  <PC->
0

>  <PEOE_PC+>
2.3307123

>  <PEOE_PC->
-2.3307123

>  <PEOE_RPC+>
0.12804219

>  <PEOE_RPC->
0.2196708

>  <PEOE_VSA+0>
59.344692

>  <PEOE_VSA+1>
58.299374

>  <PEOE_VSA+2>
16.917038

>  <PEOE_VSA+3>
59.52602

>  <PEOE_VSA+4>
0

>  <PEOE_VSA+5>
4.1846013

>  <PEOE_VSA+6>
0

>  <PEOE_VSA-0>
66.422241

>  <PEOE_VSA-1>
32.111469

>  <PEOE_VSA-2>
46.24749

>  <PEOE_VSA-3>
10.885262

>  <PEOE_VSA-4>
0

>  <PEOE_VSA-5>
13.566921

>  <PEOE_VSA-6>
10.909872

>  <PEOE_VSA_FHYD>
0.92425936

>  <PEOE_VSA_FNEG>
0.47604683

>  <PEOE_VSA_FPNEG>
0.064682409

>  <PEOE_VSA_FPOL>
0.075740643

>  <PEOE_VSA_FPOS>
0.52395314

>  <PEOE_VSA_FPPOS>
0.011058234

>  <PEOE_VSA_HYD>
349.75357

>  <PEOE_VSA_NEG>
180.14325

>  <PEOE_VSA_PNEG>
24.476793

>  <PEOE_VSA_POL>
28.661394

>  <PEOE_VSA_POS>
198.27173

>  <PEOE_VSA_PPOS>
4.1846013

>  <petitjean>
0.5

>  <petitjeanSC>
1

>  <Q_PC+>
0

>  <Q_PC->
0

>  <Q_RPC+>
0

>  <Q_RPC->
0

>  <Q_VSA_FHYD>
1

>  <Q_VSA_FNEG>
0

>  <Q_VSA_FPNEG>
0

>  <Q_VSA_FPOL>
0

>  <Q_VSA_FPOS>
1

>  <Q_VSA_FPPOS>
0

>  <Q_VSA_HYD>
378.41498

>  <Q_VSA_NEG>
0

>  <Q_VSA_PNEG>
0

>  <Q_VSA_POL>
0

>  <Q_VSA_POS>
378.41498

>  <Q_VSA_PPOS>
0

>  <radius>
7

>  <reactive>
1

>  <rings>
4

>  <RPC+>
0

>  <RPC->
0

>  <rsynth>
1

>  <SlogP>
3.96121

>  <SlogP_VSA0>
21.999775

>  <SlogP_VSA1>
89.860893

>  <SlogP_VSA2>
6.6407428

>  <SlogP_VSA3>
22.984112

>  <SlogP_VSA4>
34.348515

>  <SlogP_VSA5>
30.153261

>  <SlogP_VSA6>
3.5006065

>  <SlogP_VSA7>
68.745567

>  <SlogP_VSA8>
0

>  <SlogP_VSA9>
152.58521

>  <SMR>
10.6714

>  <SMR_VSA0>
81.768028

>  <SMR_VSA1>
41.596371

>  <SMR_VSA2>
1.5507339

>  <SMR_VSA3>
24.473761

>  <SMR_VSA4>
21.424992

>  <SMR_VSA5>
87.613968

>  <SMR_VSA6>
28.671722

>  <SMR_VSA7>
143.7191

>  <TPSA>
107.73

>  <VAdjEq>
0.38828552

>  <VAdjMa>
6

>  <VDistEq>
3.5907629

>  <VDistMa>
9.4212799

>  <vdw_area>
378.41498

>  <vdw_vol>
497.38928

>  <vsa_acc>
61.476219

>  <vsa_acid>
0

>  <vsa_base>
0

>  <vsa_don>
8.0752068

>  <vsa_hyd>
230.10062

>  <vsa_other>
65.724472

>  <vsa_pol>
69.551422

>  <Weight>
454.91098

>  <weinerPath>
2310

>  <weinerPol>
46

>  <zagreb>
160

$$$$