Fc1cc(F)c(F)cc1C[C@@H](N)CC(=O)N1CCn2c(nnc2C(F)(F)F)C1
  MOE2013           2D

 28 30  0  0  1  0  0  0  0  0999 V2000
    0.0000    0.0000    0.0000 F   0  0  0  0  0  0  0  0  0  0  0  0
    0.7610   -1.2930    0.0000 C   0  0  0  0  0  0  0  0  0  0  0  0
    2.2610   -1.2800    0.0000 C   0  0  0  0  0  0  0  0  0  0  0  0
    3.0220   -2.5730    0.0000 C   0  0  0  0  0  0  0  0  0  0  0  0
    4.5220   -2.5600    0.0000 F   0  0  0  0  0  0  0  0  0  0  0  0
    2.2830   -3.8780    0.0000 C   0  0  0  0  0  0  0  0  0  0  0  0
    3.0430   -5.1710    0.0000 F   0  0  0  0  0  0  0  0  0  0  0  0
    0.7830   -3.8910    0.0000 C   0  0  0  0  0  0  0  0  0  0  0  0
    0.0220   -2.5980    0.0000 C   0  0  0  0  0  0  0  0  0  0  0  0
   -1.4780   -2.6110    0.0000 C   0  0  0  0  0  0  0  0  0  0  0  0
   -2.2170   -3.9160    0.0000 C   0  0  1  0  0  0  0  0  0  0  0  0
   -1.4560   -5.2090    0.0000 N   0  0  0  0  0  0  0  0  0  0  0  0
   -3.7170   -3.9280    0.0000 C   0  0  0  0  0  0  0  0  0  0  0  0
   -4.4560   -5.2340    0.0000 C   0  0  0  0  0  0  0  0  0  0  0  0
   -3.6950   -6.5260    0.0000 O   0  0  0  0  0  0  0  0  0  0  0  0
   -5.9560   -5.2460    0.0000 N   0  0  0  0  0  0  0  0  0  0  0  0
   -6.7170   -3.9540    0.0000 C   0  0  0  0  0  0  0  0  0  0  0  0
   -8.2170   -3.9660    0.0000 C   0  0  0  0  0  0  0  0  0  0  0  0
   -8.9560   -5.2710    0.0000 N   0  0  0  0  0  0  0  0  0  0  0  0
   -8.1950   -6.5640    0.0000 C   0  0  0  0  0  0  0  0  0  0  0  0
   -9.1900   -7.6870    0.0000 N   0  0  0  0  0  0  0  0  0  0  0  0
  -10.5650   -7.0890    0.0000 N   0  0  0  0  0  0  0  0  0  0  0  0
  -10.4210   -5.5960    0.0000 C   0  0  0  0  0  0  0  0  0  0  0  0
  -11.5440   -4.6010    0.0000 C   0  0  0  0  0  0  0  0  0  0  0  0
  -10.5490   -3.4780    0.0000 F   0  0  0  0  0  0  0  0  0  0  0  0
  -12.5380   -5.7240    0.0000 F   0  0  0  0  0  0  0  0  0  0  0  0
  -12.6670   -3.6070    0.0000 F   0  0  0  0  0  0  0  0  0  0  0  0
   -6.6950   -6.5520    0.0000 C   0  0  0  0  0  0  0  0  0  0  0  0
  1  2  1  0  0  0  0
  2  3  1  0  0  0  0
  2  9  2  0  0  0  0
  3  4  2  0  0  0  0
  4  5  1  0  0  0  0
  4  6  1  0  0  0  0
  6  7  1  0  0  0  0
  6  8  2  0  0  0  0
  8  9  1  0  0  0  0
  9 10  1  0  0  0  0
 10 11  1  0  0  0  0
 11 12  1  1  0  0  0
 11 13  1  0  0  0  0
 13 14  1  0  0  0  0
 14 15  2  0  0  0  0
 14 16  1  0  0  0  0
 16 17  1  0  0  0  0
 16 28  1  0  0  0  0
 17 18  1  0  0  0  0
 18 19  1  0  0  0  0
 19 20  1  0  0  0  0
 19 23  1  0  0  0  0
 20 21  2  0  0  0  0
 20 28  1  0  0  0  0
 21 22  1  0  0  0  0
 22 23  2  0  0  0  0
 23 24  1  0  0  0  0
 24 25  1  0  0  0  0
 24 26  1  0  0  0  0
 24 27  1  0  0  0  0
M  END
>  <Index>
985

>  <ID>
HT1893

>  <class>
0

>  <apol>
47.805897

>  <ast_fraglike>
0

>  <ast_fraglike_ext>
0

>  <ast_violation>
2

>  <ast_violation_ext>
3

>  <a_acc>
4

>  <a_acid>
0

>  <a_aro>
11

>  <a_base>
0

>  <a_count>
43

>  <a_don>
1

>  <a_donacc>
5

>  <a_heavy>
28

>  <a_hyd>
19

>  <a_IC>
83.606613

>  <a_ICM>
1.9443398

>  <a_nB>
0

>  <a_nBr>
0

>  <a_nC>
16

>  <a_nCl>
0

>  <a_nF>
6

>  <a_nH>
15

>  <a_nI>
0

>  <a_nN>
5

>  <a_nO>
1

>  <a_nP>
0

>  <a_nS>
0

>  <balabanJ>
1.4730238

>  <BCUT_PEOE_0>
-2.6425846

>  <BCUT_PEOE_1>
-0.62117016

>  <BCUT_PEOE_2>
0.48721027

>  <BCUT_PEOE_3>
2.6329091

>  <BCUT_SLOGP_0>
-2.7713914

>  <BCUT_SLOGP_1>
-0.48060262

>  <BCUT_SLOGP_2>
0.61537939

>  <BCUT_SLOGP_3>
2.6036317

>  <BCUT_SMR_0>
-2.378206

>  <BCUT_SMR_1>
-0.44134942

>  <BCUT_SMR_2>
0.70085555

>  <BCUT_SMR_3>
2.8853452

>  <bpol>
29.194105

>  <b_1rotN>
5

>  <b_1rotR>
0.16666667

>  <b_ar>
11

>  <b_count>
45

>  <b_double>
1

>  <b_heavy>
30

>  <b_max1len>
4

>  <b_rotN>
6

>  <b_rotR>
0.2

>  <b_single>
33

>  <b_triple>
0

>  <chi0>
20.637465

>  <chi0v>
14.309825

>  <chi0v_C>
9.2675848

>  <chi0_C>
10.068549

>  <chi1>
13.05757

>  <chi1v>
8.2199259

>  <chi1v_C>
4.2818575

>  <chi1_C>
5.1295762

>  <chiral>
1

>  <chiral_u>
0

>  <density>
0.93858397

>  <diameter>
15

>  <FCharge>
0

>  <GCUT_PEOE_0>
-0.83984023

>  <GCUT_PEOE_1>
-0.41790798

>  <GCUT_PEOE_2>
-0.0093184942

>  <GCUT_PEOE_3>
2.668098

>  <GCUT_SLOGP_0>
-1.3635656

>  <GCUT_SLOGP_1>
-0.31972858

>  <GCUT_SLOGP_2>
0.26019999

>  <GCUT_SLOGP_3>
2.6616964

>  <GCUT_SMR_0>
-0.51577204

>  <GCUT_SMR_1>
-0.21566331

>  <GCUT_SMR_2>
0.16720198

>  <GCUT_SMR_3>
2.8970904

>  <Kier1>
22.68

>  <Kier2>
9.0133333

>  <Kier3>
5.3890305

>  <KierA1>
17.269564

>  <KierA2>
6.7890162

>  <KierA3>
4.027832

>  <KierFlex>
4.1872621

>  <lip_acc>
6

>  <lip_don>
2

>  <lip_druglike>
1

>  <lip_violation>
0

>  <logP(o/w)>
1.8117599

>  <logS>
-3.0741501

>  <mr>
8.705246

>  <mutagenic>
0

>  <nmol>
1

>  <opr_brigid>
16

>  <opr_leadlike>
1

>  <opr_nring>
3

>  <opr_nrot>
5

>  <opr_violation>
0

>  <PC+>
0

>  <PC->
0

>  <PEOE_PC+>
2.6284335

>  <PEOE_PC->
-2.6284335

>  <PEOE_RPC+>
0.17212197

>  <PEOE_RPC->
0.12677571

>  <PEOE_VSA+0>
71.813759

>  <PEOE_VSA+1>
47.315414

>  <PEOE_VSA+2>
26.258871

>  <PEOE_VSA+3>
29.232254

>  <PEOE_VSA+4>
24.140093

>  <PEOE_VSA+5>
0

>  <PEOE_VSA+6>
9.0455017

>  <PEOE_VSA-0>
23.164757

>  <PEOE_VSA-1>
0

>  <PEOE_VSA-2>
18.842079

>  <PEOE_VSA-3>
35.725906

>  <PEOE_VSA-4>
35.725906

>  <PEOE_VSA-5>
13.566921

>  <PEOE_VSA-6>
6.6511192

>  <PEOE_VSA_FHYD>
0.73899239

>  <PEOE_VSA_FNEG>
0.39145976

>  <PEOE_VSA_FPNEG>
0.16382664

>  <PEOE_VSA_FPOL>
0.26100758

>  <PEOE_VSA_FPOS>
0.60854024

>  <PEOE_VSA_FPPOS>
0.097180933

>  <PEOE_VSA_HYD>
252.35304

>  <PEOE_VSA_NEG>
133.6767

>  <PEOE_VSA_PNEG>
55.943947

>  <PEOE_VSA_POL>
89.129539

>  <PEOE_VSA_POS>
207.80589

>  <PEOE_VSA_PPOS>
33.185596

>  <petitjean>
0.46666667

>  <petitjeanSC>
0.875

>  <Q_PC+>
0

>  <Q_PC->
0

>  <Q_RPC+>
0

>  <Q_RPC->
0

>  <Q_VSA_FHYD>
1

>  <Q_VSA_FNEG>
0

>  <Q_VSA_FPNEG>
0

>  <Q_VSA_FPOL>
0

>  <Q_VSA_FPOS>
1

>  <Q_VSA_FPPOS>
0

>  <Q_VSA_HYD>
341.48257

>  <Q_VSA_NEG>
0

>  <Q_VSA_PNEG>
0

>  <Q_VSA_POL>
0

>  <Q_VSA_POS>
341.48257

>  <Q_VSA_PPOS>
0

>  <radius>
8

>  <reactive>
0

>  <rings>
3

>  <RPC+>
0

>  <RPC->
0

>  <rsynth>
1

>  <SlogP>
2.86077

>  <SlogP_VSA0>
32.897186

>  <SlogP_VSA1>
43.608204

>  <SlogP_VSA2>
55.207241

>  <SlogP_VSA3>
18.439579

>  <SlogP_VSA4>
7.8414154

>  <SlogP_VSA5>
18.868406

>  <SlogP_VSA6>
7.7595162

>  <SlogP_VSA7>
35.286369

>  <SlogP_VSA8>
18.868406

>  <SlogP_VSA9>
126.63984

>  <SMR>
8.3580399

>  <SMR_VSA0>
23.862217

>  <SMR_VSA1>
128.11011

>  <SMR_VSA2>
35.12257

>  <SMR_VSA3>
11.823384

>  <SMR_VSA4>
32.897186

>  <SMR_VSA5>
109.90234

>  <SMR_VSA6>
23.698362

>  <SMR_VSA7>
0

>  <TPSA>
77.040001

>  <VAdjEq>
0.38983503

>  <VAdjMa>
5.9068904

>  <VDistEq>
3.7107129

>  <VDistMa>
9.2888651

>  <vdw_area>
341.48257

>  <vdw_vol>
433.97076

>  <vsa_acc>
32.409

>  <vsa_acid>
0

>  <vsa_base>
0

>  <vsa_don>
0

>  <vsa_hyd>
240.60043

>  <vsa_other>
35.330658

>  <vsa_pol>
50.151489

>  <Weight>
407.31799

>  <weinerPath>
2281

>  <weinerPol>
45

>  <zagreb>
150

$$$$