Clc1ccc(NC(=O)Nc2ccc(Oc3cc(ncc3)C(=O)NC)cc2F)cc1C(F)(F)F
  MOE2013           2D

 33 35  0  0  0  0  0  0  0  0999 V2000
    0.0000    0.0000    0.0000 Cl  0  0  0  0  0  0  0  0  0  0  0  0
    1.2960    0.7550    0.0000 C   0  0  0  0  0  0  0  0  0  0  0  0
    2.5980    0.0100    0.0000 C   0  0  0  0  0  0  0  0  0  0  0  0
    3.8940    0.7650    0.0000 C   0  0  0  0  0  0  0  0  0  0  0  0
    3.8880    2.2650    0.0000 C   0  0  0  0  0  0  0  0  0  0  0  0
    5.1850    3.0200    0.0000 N   0  0  0  0  0  0  0  0  0  0  0  0
    6.4870    2.2750    0.0000 C   0  0  0  0  0  0  0  0  0  0  0  0
    6.4920    0.7750    0.0000 O   0  0  0  0  0  0  0  0  0  0  0  0
    7.7830    3.0300    0.0000 N   0  0  0  0  0  0  0  0  0  0  0  0
    9.0850    2.2850    0.0000 C   0  0  0  0  0  0  0  0  0  0  0  0
    9.0900    0.7850    0.0000 C   0  0  0  0  0  0  0  0  0  0  0  0
   10.3920    0.0400    0.0000 C   0  0  0  0  0  0  0  0  0  0  0  0
   11.6880    0.7950    0.0000 C   0  0  0  0  0  0  0  0  0  0  0  0
   12.9900    0.0500    0.0000 O   0  0  0  0  0  0  0  0  0  0  0  0
   14.2860    0.8050    0.0000 C   0  0  0  0  0  0  0  0  0  0  0  0
   15.5880    0.0600    0.0000 C   0  0  0  0  0  0  0  0  0  0  0  0
   16.8840    0.8150    0.0000 C   0  0  0  0  0  0  0  0  0  0  0  0
   16.8790    2.3150    0.0000 N   0  0  0  0  0  0  0  0  0  0  0  0
   15.5770    3.0600    0.0000 C   0  0  0  0  0  0  0  0  0  0  0  0
   14.2810    2.3050    0.0000 C   0  0  0  0  0  0  0  0  0  0  0  0
   18.1860    0.0700    0.0000 C   0  0  0  0  0  0  0  0  0  0  0  0
   19.4830    0.8250    0.0000 O   0  0  0  0  0  0  0  0  0  0  0  0
   18.1920   -1.4300    0.0000 N   0  0  0  0  0  0  0  0  0  0  0  0
   19.4940   -2.1750    0.0000 C   0  0  0  0  0  0  0  0  0  0  0  0
   11.6830    2.2950    0.0000 C   0  0  0  0  0  0  0  0  0  0  0  0
   10.3810    3.0400    0.0000 C   0  0  0  0  0  0  0  0  0  0  0  0
   10.3750    4.5400    0.0000 F   0  0  0  0  0  0  0  0  0  0  0  0
    2.5870    3.0100    0.0000 C   0  0  0  0  0  0  0  0  0  0  0  0
    1.2900    2.2550    0.0000 C   0  0  0  0  0  0  0  0  0  0  0  0
   -0.0120    3.0000    0.0000 C   0  0  0  0  0  0  0  0  0  0  0  0
   -0.7570    1.6980    0.0000 F   0  0  0  0  0  0  0  0  0  0  0  0
   -1.3130    3.7450    0.0000 F   0  0  0  0  0  0  0  0  0  0  0  0
    0.7330    4.3020    0.0000 F   0  0  0  0  0  0  0  0  0  0  0  0
  1  2  1  0  0  0  0
  2  3  1  0  0  0  0
  2 29  2  0  0  0  0
  3  4  2  0  0  0  0
  4  5  1  0  0  0  0
  5  6  1  0  0  0  0
  5 28  2  0  0  0  0
  6  7  1  0  0  0  0
  7  8  2  0  0  0  0
  7  9  1  0  0  0  0
  9 10  1  0  0  0  0
 10 11  1  0  0  0  0
 10 26  2  0  0  0  0
 11 12  2  0  0  0  0
 12 13  1  0  0  0  0
 13 14  1  0  0  0  0
 13 25  2  0  0  0  0
 14 15  1  0  0  0  0
 15 16  1  0  0  0  0
 15 20  2  0  0  0  0
 16 17  2  0  0  0  0
 17 18  1  0  0  0  0
 17 21  1  0  0  0  0
 18 19  2  0  0  0  0
 19 20  1  0  0  0  0
 21 22  2  0  0  0  0
 21 23  1  0  0  0  0
 23 24  1  0  0  0  0
 25 26  1  0  0  0  0
 26 27  1  0  0  0  0
 28 29  1  0  0  0  0
 29 30  1  0  0  0  0
 30 31  1  0  0  0  0
 30 32  1  0  0  0  0
 30 33  1  0  0  0  0
M  END
>  <Index>
933

>  <ID>
HT1806

>  <class>
0

>  <apol>
58.175896

>  <ast_fraglike>
0

>  <ast_fraglike_ext>
0

>  <ast_violation>
2

>  <ast_violation_ext>
3

>  <a_acc>
3

>  <a_acid>
0

>  <a_aro>
18

>  <a_base>
0

>  <a_count>
48

>  <a_don>
3

>  <a_donacc>
6

>  <a_heavy>
33

>  <a_hyd>
24

>  <a_IC>
96.481285

>  <a_ICM>
2.0100269

>  <a_nB>
0

>  <a_nBr>
0

>  <a_nC>
21

>  <a_nCl>
1

>  <a_nF>
4

>  <a_nH>
15

>  <a_nI>
0

>  <a_nN>
4

>  <a_nO>
3

>  <a_nP>
0

>  <a_nS>
0

>  <balabanJ>
1.4104328

>  <BCUT_PEOE_0>
-2.3187721

>  <BCUT_PEOE_1>
-0.62969285

>  <BCUT_PEOE_2>
0.64729255

>  <BCUT_PEOE_3>
2.3728251

>  <BCUT_SLOGP_0>
-2.5390074

>  <BCUT_SLOGP_1>
-0.53280079

>  <BCUT_SLOGP_2>
0.77244598

>  <BCUT_SLOGP_3>
2.4953487

>  <BCUT_SMR_0>
-2.0203989

>  <BCUT_SMR_1>
-0.45773143

>  <BCUT_SMR_2>
0.84557331

>  <BCUT_SMR_3>
2.6296957

>  <bpol>
28.762106

>  <b_1rotN>
5

>  <b_1rotR>
0.14285715

>  <b_ar>
18

>  <b_count>
50

>  <b_double>
2

>  <b_heavy>
35

>  <b_max1len>
3

>  <b_rotN>
9

>  <b_rotR>
0.25714287

>  <b_single>
30

>  <b_triple>
0

>  <chi0>
24.172998

>  <chi0v>
17.513863

>  <chi0v_C>
11.696153

>  <chi0_C>
13.637464

>  <chi1>
15.5619

>  <chi1v>
9.5466042

>  <chi1v_C>
5.1754265

>  <chi1_C>
7.2794065

>  <chiral>
0

>  <chiral_u>
0

>  <density>
0.89766347

>  <diameter>
18

>  <FCharge>
0

>  <GCUT_PEOE_0>
-0.83794934

>  <GCUT_PEOE_1>
-0.47592652

>  <GCUT_PEOE_2>
0.075228781

>  <GCUT_PEOE_3>
2.438997

>  <GCUT_SLOGP_0>
-1.1606871

>  <GCUT_SLOGP_1>
-0.32755971

>  <GCUT_SLOGP_2>
0.26019999

>  <GCUT_SLOGP_3>
2.5733852

>  <GCUT_SMR_0>
-0.48513886

>  <GCUT_SMR_1>
-0.21716903

>  <GCUT_SMR_2>
0.20045786

>  <GCUT_SMR_3>
2.7270927

>  <Kier1>
27.585306

>  <Kier2>
12.3008

>  <Kier3>
8

>  <KierA1>
20.033482

>  <KierA2>
8.8373623

>  <KierA3>
5.7024179

>  <KierFlex>
5.3649435

>  <lip_acc>
7

>  <lip_don>
3

>  <lip_druglike>
1

>  <lip_violation>
1

>  <logP(o/w)>
3.91976

>  <logS>
-6.16149

>  <mr>
11.389225

>  <mutagenic>
0

>  <nmol>
1

>  <opr_brigid>
18

>  <opr_leadlike>
0

>  <opr_nring>
3

>  <opr_nrot>
5

>  <opr_violation>
2

>  <PC+>
0

>  <PC->
0

>  <PEOE_PC+>
3.0011289

>  <PEOE_PC->
-3.0011289

>  <PEOE_RPC+>
0.1395561

>  <PEOE_RPC->
0.11788417

>  <PEOE_VSA+0>
71.735214

>  <PEOE_VSA+1>
68.733353

>  <PEOE_VSA+2>
15.720397

>  <PEOE_VSA+3>
25.857038

>  <PEOE_VSA+4>
0

>  <PEOE_VSA+5>
12.949531

>  <PEOE_VSA+6>
26.486044

>  <PEOE_VSA-0>
85.784325

>  <PEOE_VSA-1>
29.581947

>  <PEOE_VSA-2>
0

>  <PEOE_VSA-3>
35.725906

>  <PEOE_VSA-4>
31.158133

>  <PEOE_VSA-5>
13.566921

>  <PEOE_VSA-6>
2.9144292

>  <PEOE_VSA_FHYD>
0.79278362

>  <PEOE_VSA_FNEG>
0.47293052

>  <PEOE_VSA_FPNEG>
0.11336978

>  <PEOE_VSA_FPOL>
0.20721635

>  <PEOE_VSA_FPOS>
0.52706951

>  <PEOE_VSA_FPPOS>
0.093846582

>  <PEOE_VSA_HYD>
333.13818

>  <PEOE_VSA_NEG>
198.73166

>  <PEOE_VSA_PNEG>
47.639484

>  <PEOE_VSA_POL>
87.075058

>  <PEOE_VSA_POS>
221.48158

>  <PEOE_VSA_PPOS>
39.435577

>  <petitjean>
0.5

>  <petitjeanSC>
1

>  <Q_PC+>
0

>  <Q_PC->
0

>  <Q_RPC+>
0

>  <Q_RPC->
0

>  <Q_VSA_FHYD>
1

>  <Q_VSA_FNEG>
0

>  <Q_VSA_FPNEG>
0

>  <Q_VSA_FPOL>
0

>  <Q_VSA_FPOS>
1

>  <Q_VSA_FPPOS>
0

>  <Q_VSA_HYD>
420.21326

>  <Q_VSA_NEG>
0

>  <Q_VSA_PNEG>
0

>  <Q_VSA_POL>
0

>  <Q_VSA_POS>
420.21326

>  <Q_VSA_PPOS>
0

>  <radius>
9

>  <reactive>
0

>  <rings>
3

>  <RPC+>
0

>  <RPC->
0

>  <rsynth>
1

>  <SlogP>
6.0002999

>  <SlogP_VSA0>
29.010639

>  <SlogP_VSA1>
62.895771

>  <SlogP_VSA2>
9.1210184

>  <SlogP_VSA3>
0

>  <SlogP_VSA4>
29.804539

>  <SlogP_VSA5>
32.897186

>  <SlogP_VSA6>
11.260122

>  <SlogP_VSA7>
158.35983

>  <SlogP_VSA8>
0

>  <SlogP_VSA9>
138.85167

>  <SMR>
11.33136

>  <SMR_VSA0>
47.724434

>  <SMR_VSA1>
87.62587

>  <SMR_VSA2>
34.891285

>  <SMR_VSA3>
19.929785

>  <SMR_VSA4>
41.534996

>  <SMR_VSA5>
158.35983

>  <SMR_VSA6>
10.088739

>  <SMR_VSA7>
72.04583

>  <TPSA>
92.349998

>  <VAdjEq>
0.3442024

>  <VAdjMa>
6.129283

>  <VDistEq>
3.9986145

>  <VDistMa>
9.75599

>  <vdw_area>
420.21326

>  <vdw_vol>
537.86414

>  <vsa_acc>
32.816418

>  <vsa_acid>
0

>  <vsa_base>
0

>  <vsa_don>
17.047728

>  <vsa_hyd>
319.69373

>  <vsa_other>
32.893829

>  <vsa_pol>
49.864147

>  <Weight>
482.82098

>  <weinerPath>
3824

>  <weinerPol>
51

>  <zagreb>
170

$$$$