O=C1NC(=O)N=C2N(c3cc(C)c(cc3N=C12)C)C[C@H](O)[C@H](O)[C@H](O)CO
  MOE2013           2D

 27 29  0  0  1  0  0  0  0  0999 V2000
    0.0000    0.0000    0.0000 O   0  0  0  0  0  0  0  0  0  0  0  0
    0.7450   -1.3020    0.0000 C   0  0  0  0  0  0  0  0  0  0  0  0
    2.2450   -1.3080    0.0000 N   0  0  0  0  0  0  0  0  0  0  0  0
    2.9890   -2.6100    0.0000 C   0  0  0  0  0  0  0  0  0  0  0  0
    4.4890   -2.6160    0.0000 O   0  0  0  0  0  0  0  0  0  0  0  0
    2.2340   -3.9060    0.0000 N   0  0  0  0  0  0  0  0  0  0  0  0
    0.7340   -3.9000    0.0000 C   0  0  0  0  0  0  0  0  0  0  0  0
   -0.0210   -5.1960    0.0000 N   0  0  0  0  0  0  0  0  0  0  0  0
   -1.5210   -5.1900    0.0000 C   0  0  0  0  0  0  0  0  0  0  0  0
   -2.2760   -6.4860    0.0000 C   0  0  0  0  0  0  0  0  0  0  0  0
   -3.7760   -6.4800    0.0000 C   0  0  0  0  0  0  0  0  0  0  0  0
   -4.5320   -7.7760    0.0000 C   0  0  0  0  0  0  0  0  0  0  0  0
   -4.5210   -5.1780    0.0000 C   0  0  0  0  0  0  0  0  0  0  0  0
   -3.7660   -3.8820    0.0000 C   0  0  0  0  0  0  0  0  0  0  0  0
   -2.2660   -3.8880    0.0000 C   0  0  0  0  0  0  0  0  0  0  0  0
   -1.5110   -2.5920    0.0000 N   0  0  0  0  0  0  0  0  0  0  0  0
   -0.0110   -2.5980    0.0000 C   0  0  0  0  0  0  0  0  0  0  0  0
   -6.0210   -5.1720    0.0000 C   0  0  0  0  0  0  0  0  0  0  0  0
    0.7230   -6.4980    0.0000 C   0  0  0  0  0  0  0  0  0  0  0  0
    2.2230   -6.5040    0.0000 C   0  0  2  0  0  0  0  0  0  0  0  0
    2.9790   -5.2080    0.0000 O   0  0  0  0  0  0  0  0  0  0  0  0
    2.9680   -7.8060    0.0000 C   0  0  2  0  0  0  0  0  0  0  0  0
    2.2130   -9.1020    0.0000 O   0  0  0  0  0  0  0  0  0  0  0  0
    4.4680   -7.8130    0.0000 C   0  0  2  0  0  0  0  0  0  0  0  0
    5.2230   -6.5170    0.0000 O   0  0  0  0  0  0  0  0  0  0  0  0
    5.2130   -9.1150    0.0000 C   0  0  0  0  0  0  0  0  0  0  0  0
    6.7130   -9.1210    0.0000 O   0  0  0  0  0  0  0  0  0  0  0  0
  1  2  2  0  0  0  0
  2  3  1  0  0  0  0
  2 17  1  0  0  0  0
  3  4  1  0  0  0  0
  4  5  2  0  0  0  0
  4  6  1  0  0  0  0
  6  7  2  0  0  0  0
  7  8  1  0  0  0  0
  7 17  1  0  0  0  0
  8  9  1  0  0  0  0
  8 19  1  0  0  0  0
  9 10  1  0  0  0  0
  9 15  2  0  0  0  0
 10 11  2  0  0  0  0
 11 12  1  0  0  0  0
 11 13  1  0  0  0  0
 13 14  2  0  0  0  0
 13 18  1  0  0  0  0
 14 15  1  0  0  0  0
 15 16  1  0  0  0  0
 16 17  2  0  0  0  0
 19 20  1  0  0  0  0
 20 21  1  6  0  0  0
 20 22  1  0  0  0  0
 22 23  1  1  0  0  0
 22 24  1  0  0  0  0
 24 25  1  6  0  0  0
 24 26  1  0  0  0  0
 26 27  1  0  0  0  0
M  END
>  <Index>
943

>  <ID>
HT1818

>  <class>
0

>  <apol>
52.467861

>  <ast_fraglike>
0

>  <ast_fraglike_ext>
0

>  <ast_violation>
3

>  <ast_violation_ext>
5

>  <a_acc>
8

>  <a_acid>
0

>  <a_aro>
6

>  <a_base>
0

>  <a_count>
47

>  <a_don>
5

>  <a_donacc>
13

>  <a_heavy>
27

>  <a_hyd>
13

>  <a_IC>
81.63047

>  <a_ICM>
1.7368186

>  <a_nB>
0

>  <a_nBr>
0

>  <a_nC>
17

>  <a_nCl>
0

>  <a_nF>
0

>  <a_nH>
20

>  <a_nI>
0

>  <a_nN>
4

>  <a_nO>
6

>  <a_nP>
0

>  <a_nS>
0

>  <balabanJ>
1.8318633

>  <BCUT_PEOE_0>
-2.6422694

>  <BCUT_PEOE_1>
-0.62805891

>  <BCUT_PEOE_2>
0.63818932

>  <BCUT_PEOE_3>
2.6822796

>  <BCUT_SLOGP_0>
-2.8361907

>  <BCUT_SLOGP_1>
-0.65420026

>  <BCUT_SLOGP_2>
0.53626537

>  <BCUT_SLOGP_3>
2.5363755

>  <BCUT_SMR_0>
-2.419152

>  <BCUT_SMR_1>
-0.43298697

>  <BCUT_SMR_2>
0.80107641

>  <BCUT_SMR_3>
2.9013417

>  <bpol>
29.060141

>  <b_1rotN>
5

>  <b_1rotR>
0.1724138

>  <b_ar>
6

>  <b_count>
49

>  <b_double>
4

>  <b_heavy>
29

>  <b_max1len>
7

>  <b_rotN>
5

>  <b_rotR>
0.1724138

>  <b_single>
39

>  <b_triple>
0

>  <chi0>
19.877951

>  <chi0v>
14.747956

>  <chi0v_C>
10.300965

>  <chi0_C>
11.17928

>  <chi1>
12.722453

>  <chi1v>
8.2948055

>  <chi1v_C>
4.6378636

>  <chi1_C>
5.6041903

>  <chiral>
3

>  <chiral_u>
0

>  <density>
0.81937075

>  <diameter>
11

>  <FCharge>
0

>  <GCUT_PEOE_0>
-0.82960212

>  <GCUT_PEOE_1>
-0.45778766

>  <GCUT_PEOE_2>
0.11300486

>  <GCUT_PEOE_3>
2.7400076

>  <GCUT_SLOGP_0>
-1.1704826

>  <GCUT_SLOGP_1>
-0.46408653

>  <GCUT_SLOGP_2>
0.026157906

>  <GCUT_SLOGP_3>
2.7364149

>  <GCUT_SMR_0>
-0.52599502

>  <GCUT_SMR_1>
-0.23169312

>  <GCUT_SMR_2>
0.22149152

>  <GCUT_SMR_3>
3.0150979

>  <Kier1>
21.702734

>  <Kier2>
8.7885342

>  <Kier3>
4.4518433

>  <KierA1>
16.455555

>  <KierA2>
6.5876555

>  <KierA3>
3.3085999

>  <KierFlex>
4.0149455

>  <lip_acc>
10

>  <lip_don>
5

>  <lip_druglike>
1

>  <lip_violation>
0

>  <logP(o/w)>
-1.212

>  <logS>
-3.0825901

>  <mr>
9.2935705

>  <mutagenic>
0

>  <nmol>
1

>  <opr_brigid>
16

>  <opr_leadlike>
1

>  <opr_nring>
3

>  <opr_nrot>
5

>  <opr_violation>
1

>  <PC+>
0

>  <PC->
0

>  <PEOE_PC+>
3.2978964

>  <PEOE_PC->
-3.2978964

>  <PEOE_RPC+>
0.10628451

>  <PEOE_RPC->
0.1189777

>  <PEOE_VSA+0>
25.592316

>  <PEOE_VSA+1>
79.93119

>  <PEOE_VSA+2>
14.714787

>  <PEOE_VSA+3>
26.509127

>  <PEOE_VSA+4>
41.296692

>  <PEOE_VSA+5>
12.949531

>  <PEOE_VSA+6>
17.440542

>  <PEOE_VSA-0>
66.422241

>  <PEOE_VSA-1>
0

>  <PEOE_VSA-2>
0

>  <PEOE_VSA-3>
5.6825762

>  <PEOE_VSA-4>
19.249496

>  <PEOE_VSA-5>
13.703812

>  <PEOE_VSA-6>
31.070162

>  <PEOE_VSA_FHYD>
0.61724591

>  <PEOE_VSA_FNEG>
0.38393316

>  <PEOE_VSA_FPNEG>
0.18057035

>  <PEOE_VSA_FPOL>
0.38275409

>  <PEOE_VSA_FPOS>
0.61606687

>  <PEOE_VSA_FPPOS>
0.20218372

>  <PEOE_VSA_HYD>
218.85225

>  <PEOE_VSA_NEG>
136.12828

>  <PEOE_VSA_PNEG>
64.023468

>  <PEOE_VSA_POL>
135.71024

>  <PEOE_VSA_POS>
218.43419

>  <PEOE_VSA_PPOS>
71.686768

>  <petitjean>
0.45454547

>  <petitjeanSC>
0.83333331

>  <Q_PC+>
0

>  <Q_PC->
0

>  <Q_RPC+>
0

>  <Q_RPC->
0

>  <Q_VSA_FHYD>
1

>  <Q_VSA_FNEG>
0

>  <Q_VSA_FPNEG>
0

>  <Q_VSA_FPOL>
0

>  <Q_VSA_FPOS>
1

>  <Q_VSA_FPPOS>
0

>  <Q_VSA_HYD>
354.56247

>  <Q_VSA_NEG>
0

>  <Q_VSA_PNEG>
0

>  <Q_VSA_POL>
0

>  <Q_VSA_POS>
354.56247

>  <Q_VSA_PPOS>
0

>  <radius>
6

>  <reactive>
0

>  <rings>
3

>  <RPC+>
0

>  <RPC->
0

>  <rsynth>
1

>  <SlogP>
-1.08076

>  <SlogP_VSA0>
122.67597

>  <SlogP_VSA1>
15.173408

>  <SlogP_VSA2>
43.268166

>  <SlogP_VSA3>
39.365837

>  <SlogP_VSA4>
6.37115

>  <SlogP_VSA5>
33.57106

>  <SlogP_VSA6>
0

>  <SlogP_VSA7>
35.286369

>  <SlogP_VSA8>
0

>  <SlogP_VSA9>
96.02774

>  <SMR>
9.6436901

>  <SMR_VSA0>
47.724434

>  <SMR_VSA1>
135.11197

>  <SMR_VSA2>
21.135065

>  <SMR_VSA3>
25.777098

>  <SMR_VSA4>
5.513495

>  <SMR_VSA5>
35.286369

>  <SMR_VSA6>
54.539246

>  <SMR_VSA7>
66.652031

>  <TPSA>
155.05

>  <VAdjEq>
0.40063059

>  <VAdjMa>
5.8579812

>  <VDistEq>
3.218976

>  <VDistMa>
9.2616816

>  <vdw_area>
354.56247

>  <vdw_vol>
459.33908

>  <vsa_acc>
38.498993

>  <vsa_acid>
0

>  <vsa_base>
0

>  <vsa_don>
5.6825762

>  <vsa_hyd>
175.98361

>  <vsa_other>
48.280186

>  <vsa_pol>
98.449257

>  <Weight>
376.36899

>  <weinerPath>
1698

>  <weinerPol>
49

>  <zagreb>
144

$$$$