N(CCCCNCCCN)CCCN
  MOE2013           2D

 14 13  0  0  0  0  0  0  0  0999 V2000
    0.0000    0.0000    0.0000 N   0  0  0  0  0  0  0  0  0  0  0  0
    1.2930    0.7610    0.0000 C   0  0  0  0  0  0  0  0  0  0  0  0
    2.5980    0.0220    0.0000 C   0  0  0  0  0  0  0  0  0  0  0  0
    3.8910    0.7830    0.0000 C   0  0  0  0  0  0  0  0  0  0  0  0
    5.1960    0.0440    0.0000 C   0  0  0  0  0  0  0  0  0  0  0  0
    6.4890    0.8050    0.0000 N   0  0  0  0  0  0  0  0  0  0  0  0
    7.7940    0.0660    0.0000 C   0  0  0  0  0  0  0  0  0  0  0  0
    9.0870    0.8280    0.0000 C   0  0  0  0  0  0  0  0  0  0  0  0
   10.3920    0.0890    0.0000 C   0  0  0  0  0  0  0  0  0  0  0  0
   11.6850    0.8500    0.0000 N   0  0  0  0  0  0  0  0  0  0  0  0
   -1.3050    0.7390    0.0000 C   0  0  0  0  0  0  0  0  0  0  0  0
   -2.5980   -0.0220    0.0000 C   0  0  0  0  0  0  0  0  0  0  0  0
   -3.9030    0.7170    0.0000 C   0  0  0  0  0  0  0  0  0  0  0  0
   -5.1960   -0.0440    0.0000 N   0  0  0  0  0  0  0  0  0  0  0  0
  1  2  1  0  0  0  0
  1 11  1  0  0  0  0
  2  3  1  0  0  0  0
  3  4  1  0  0  0  0
  4  5  1  0  0  0  0
  5  6  1  0  0  0  0
  6  7  1  0  0  0  0
  7  8  1  0  0  0  0
  8  9  1  0  0  0  0
  9 10  1  0  0  0  0
 11 12  1  0  0  0  0
 12 13  1  0  0  0  0
 13 14  1  0  0  0  0
M  END
>  <Index>
995

>  <ID>
HT1910

>  <class>
0

>  <apol>
39.336617

>  <ast_fraglike>
0

>  <ast_fraglike_ext>
0

>  <ast_violation>
2

>  <ast_violation_ext>
3

>  <a_acc>
4

>  <a_acid>
0

>  <a_aro>
0

>  <a_base>
0

>  <a_count>
40

>  <a_don>
4

>  <a_donacc>
8

>  <a_heavy>
14

>  <a_hyd>
10

>  <a_IC>
49.446411

>  <a_ICM>
1.2361603

>  <a_nB>
0

>  <a_nBr>
0

>  <a_nC>
10

>  <a_nCl>
0

>  <a_nF>
0

>  <a_nH>
26

>  <a_nI>
0

>  <a_nN>
4

>  <a_nO>
0

>  <a_nP>
0

>  <a_nS>
0

>  <balabanJ>
2.7847655

>  <BCUT_PEOE_0>
-2.6962643

>  <BCUT_PEOE_1>
-0.61223197

>  <BCUT_PEOE_2>
0.64545763

>  <BCUT_PEOE_3>
2.6074655

>  <BCUT_SLOGP_0>
-2.8040104

>  <BCUT_SLOGP_1>
-0.60356981

>  <BCUT_SLOGP_2>
0.66647756

>  <BCUT_SLOGP_3>
2.6122253

>  <BCUT_SMR_0>
-2.4242318

>  <BCUT_SMR_1>
-0.49274918

>  <BCUT_SMR_2>
0.75528693

>  <BCUT_SMR_3>
2.8728981

>  <bpol>
28.423382

>  <b_1rotN>
11

>  <b_1rotR>
0.84615386

>  <b_ar>
0

>  <b_count>
39

>  <b_double>
0

>  <b_heavy>
13

>  <b_max1len>
15

>  <b_rotN>
11

>  <b_rotR>
0.84615386

>  <b_single>
39

>  <b_triple>
0

>  <chi0>
10.485281

>  <chi0v>
9.2257681

>  <chi0v_C>
7.0710678

>  <chi0_C>
7.0710678

>  <chi1>
6.9142137

>  <chi1v>
5.73071

>  <chi1v_C>
3.5

>  <chi1_C>
3.5

>  <chiral>
0

>  <chiral_u>
0

>  <density>
0.63212425

>  <diameter>
13

>  <FCharge>
0

>  <GCUT_PEOE_0>
-0.85586035

>  <GCUT_PEOE_1>
-0.3844198

>  <GCUT_PEOE_2>
0.11774547

>  <GCUT_PEOE_3>
2.4760227

>  <GCUT_SLOGP_0>
-1.3634658

>  <GCUT_SLOGP_1>
-0.33082253

>  <GCUT_SLOGP_2>
0.18793082

>  <GCUT_SLOGP_3>
2.4634767

>  <GCUT_SMR_0>
-0.52624899

>  <GCUT_SMR_1>
-0.22361815

>  <GCUT_SMR_2>
0.18722202

>  <GCUT_SMR_3>
2.7022378

>  <Kier1>
14

>  <Kier2>
13

>  <Kier3>
13.090909

>  <KierA1>
14

>  <KierA2>
13

>  <KierA3>
13.090909

>  <KierFlex>
13

>  <lip_acc>
4

>  <lip_don>
6

>  <lip_druglike>
1

>  <lip_violation>
1

>  <logP(o/w)>
-0.55599999

>  <logS>
0.68577999

>  <mr>
6.0343351

>  <mutagenic>
0

>  <nmol>
1

>  <opr_brigid>
0

>  <opr_leadlike>
0

>  <opr_nring>
0

>  <opr_nrot>
11

>  <opr_violation>
2

>  <PC+>
0

>  <PC->
0

>  <PEOE_PC+>
1.4519711

>  <PEOE_PC->
-1.4519711

>  <PEOE_RPC+>
0.083979502

>  <PEOE_RPC->
0.22723421

>  <PEOE_VSA+0>
85.307716

>  <PEOE_VSA+1>
0

>  <PEOE_VSA+2>
51.714077

>  <PEOE_VSA+3>
0

>  <PEOE_VSA+4>
0

>  <PEOE_VSA+5>
0

>  <PEOE_VSA+6>
0

>  <PEOE_VSA-0>
113.9592

>  <PEOE_VSA-1>
0

>  <PEOE_VSA-2>
0

>  <PEOE_VSA-3>
0

>  <PEOE_VSA-4>
0

>  <PEOE_VSA-5>
0

>  <PEOE_VSA-6>
13.576021

>  <PEOE_VSA_FHYD>
0.94868398

>  <PEOE_VSA_FNEG>
0.48207083

>  <PEOE_VSA_FPNEG>
0.051316049

>  <PEOE_VSA_FPOL>
0.051316049

>  <PEOE_VSA_FPOS>
0.5179292

>  <PEOE_VSA_FPPOS>
0

>  <PEOE_VSA_HYD>
250.981

>  <PEOE_VSA_NEG>
127.53522

>  <PEOE_VSA_PNEG>
13.576021

>  <PEOE_VSA_POL>
13.576021

>  <PEOE_VSA_POS>
137.0218

>  <PEOE_VSA_PPOS>
0

>  <petitjean>
0.46153846

>  <petitjeanSC>
0.85714287

>  <Q_PC+>
0

>  <Q_PC->
0

>  <Q_RPC+>
0

>  <Q_RPC->
0

>  <Q_VSA_FHYD>
1

>  <Q_VSA_FNEG>
0

>  <Q_VSA_FPNEG>
0

>  <Q_VSA_FPOL>
0

>  <Q_VSA_FPOS>
1

>  <Q_VSA_FPPOS>
0

>  <Q_VSA_HYD>
264.55701

>  <Q_VSA_NEG>
0

>  <Q_VSA_PNEG>
0

>  <Q_VSA_POL>
0

>  <Q_VSA_POS>
264.55701

>  <Q_VSA_PPOS>
0

>  <radius>
7

>  <reactive>
0

>  <rings>
0

>  <RPC+>
0

>  <RPC->
0

>  <rsynth>
1

>  <SlogP>
-0.35659999

>  <SlogP_VSA0>
101.81588

>  <SlogP_VSA1>
0

>  <SlogP_VSA2>
0

>  <SlogP_VSA3>
110.63747

>  <SlogP_VSA4>
0

>  <SlogP_VSA5>
0

>  <SlogP_VSA6>
0

>  <SlogP_VSA7>
0

>  <SlogP_VSA8>
75.473625

>  <SlogP_VSA9>
0

>  <SMR>
6.2316198

>  <SMR_VSA0>
0

>  <SMR_VSA1>
0

>  <SMR_VSA2>
36.0215

>  <SMR_VSA3>
0

>  <SMR_VSA4>
65.794373

>  <SMR_VSA5>
75.473625

>  <SMR_VSA6>
110.63747

>  <SMR_VSA7>
0

>  <TPSA>
76.099998

>  <VAdjEq>
0.56466961

>  <VAdjMa>
4.7004399

>  <VDistEq>
3.4698451

>  <VDistMa>
7.213769

>  <vdw_area>
264.55701

>  <vdw_vol>
320.1048

>  <vsa_acc>
0

>  <vsa_acid>
0

>  <vsa_base>
0

>  <vsa_don>
0

>  <vsa_hyd>
185.03102

>  <vsa_other>
0

>  <vsa_pol>
46.850132

>  <Weight>
202.34599

>  <weinerPath>
455

>  <weinerPol>
11

>  <zagreb>
50

$$$$