O(CC)c1cc(ccc1C(O)=O)CC(=O)N[C@@H](CC(C)C)c1ccccc1N1CCCCC1
  MOE2013           2D

 33 35  0  0  1  0  0  0  0  0999 V2000
    0.0000    0.0000    0.0000 O   0  0  0  0  0  0  0  0  0  0  0  0
   -0.7540   -1.2970    0.0000 C   0  0  0  0  0  0  0  0  0  0  0  0
   -0.0090   -2.5980    0.0000 C   0  0  0  0  0  0  0  0  0  0  0  0
   -0.7460    1.3020    0.0000 C   0  0  0  0  0  0  0  0  0  0  0  0
   -2.2460    1.3060    0.0000 C   0  0  0  0  0  0  0  0  0  0  0  0
   -2.9910    2.6080    0.0000 C   0  0  0  0  0  0  0  0  0  0  0  0
   -2.2370    3.9050    0.0000 C   0  0  0  0  0  0  0  0  0  0  0  0
   -0.7370    3.9000    0.0000 C   0  0  0  0  0  0  0  0  0  0  0  0
    0.0090    2.5980    0.0000 C   0  0  0  0  0  0  0  0  0  0  0  0
    1.5090    2.5930    0.0000 C   0  0  0  0  0  0  0  0  0  0  0  0
    2.2540    1.2920    0.0000 O   0  0  0  0  0  0  0  0  0  0  0  0
    2.2630    3.8900    0.0000 O   0  0  0  0  0  0  0  0  0  0  0  0
   -4.4910    2.6130    0.0000 C   0  0  0  0  0  0  0  0  0  0  0  0
   -5.2460    1.3160    0.0000 C   0  0  0  0  0  0  0  0  0  0  0  0
   -4.5000    0.0150    0.0000 O   0  0  0  0  0  0  0  0  0  0  0  0
   -6.7460    1.3210    0.0000 N   0  0  0  0  0  0  0  0  0  0  0  0
   -7.4910    2.6230    0.0000 C   0  0  1  0  0  0  0  0  0  0  0  0
   -6.7370    3.9190    0.0000 C   0  0  0  0  0  0  0  0  0  0  0  0
   -7.4830    5.2210    0.0000 C   0  0  0  0  0  0  0  0  0  0  0  0
   -6.7290    6.5170    0.0000 C   0  0  0  0  0  0  0  0  0  0  0  0
   -8.9830    5.2260    0.0000 C   0  0  0  0  0  0  0  0  0  0  0  0
   -8.9910    2.6280    0.0000 C   0  0  0  0  0  0  0  0  0  0  0  0
   -9.7370    3.9290    0.0000 C   0  0  0  0  0  0  0  0  0  0  0  0
  -11.2370    3.9340    0.0000 C   0  0  0  0  0  0  0  0  0  0  0  0
  -11.9910    2.6380    0.0000 C   0  0  0  0  0  0  0  0  0  0  0  0
  -11.2460    1.3360    0.0000 C   0  0  0  0  0  0  0  0  0  0  0  0
   -9.7460    1.3310    0.0000 C   0  0  0  0  0  0  0  0  0  0  0  0
   -9.0000    0.0300    0.0000 N   0  0  0  0  0  0  0  0  0  0  0  0
   -9.7540   -1.2670    0.0000 C   0  0  0  0  0  0  0  0  0  0  0  0
   -9.0090   -2.5680    0.0000 C   0  0  0  0  0  0  0  0  0  0  0  0
   -7.5090   -2.5730    0.0000 C   0  0  0  0  0  0  0  0  0  0  0  0
   -6.7540   -1.2770    0.0000 C   0  0  0  0  0  0  0  0  0  0  0  0
   -7.5000    0.0250    0.0000 C   0  0  0  0  0  0  0  0  0  0  0  0
  1  2  1  0  0  0  0
  1  4  1  0  0  0  0
  2  3  1  0  0  0  0
  4  5  2  0  0  0  0
  4  9  1  0  0  0  0
  5  6  1  0  0  0  0
  6  7  2  0  0  0  0
  6 13  1  0  0  0  0
  7  8  1  0  0  0  0
  8  9  2  0  0  0  0
  9 10  1  0  0  0  0
 10 11  1  0  0  0  0
 10 12  2  0  0  0  0
 13 14  1  0  0  0  0
 14 15  2  0  0  0  0
 14 16  1  0  0  0  0
 17 16  1  6  0  0  0
 17 18  1  0  0  0  0
 17 22  1  0  0  0  0
 18 19  1  0  0  0  0
 19 20  1  0  0  0  0
 19 21  1  0  0  0  0
 22 23  1  0  0  0  0
 22 27  2  0  0  0  0
 23 24  2  0  0  0  0
 24 25  1  0  0  0  0
 25 26  2  0  0  0  0
 26 27  1  0  0  0  0
 27 28  1  0  0  0  0
 28 29  1  0  0  0  0
 28 33  1  0  0  0  0
 29 30  1  0  0  0  0
 30 31  1  0  0  0  0
 31 32  1  0  0  0  0
 32 33  1  0  0  0  0
M  END
>  <Index>
937

>  <ID>
HT1811

>  <class>
0

>  <apol>
76.932549

>  <ast_fraglike>
0

>  <ast_fraglike_ext>
0

>  <ast_violation>
3

>  <ast_violation_ext>
4

>  <a_acc>
4

>  <a_acid>
0

>  <a_aro>
12

>  <a_base>
0

>  <a_count>
69

>  <a_don>
3

>  <a_donacc>
7

>  <a_heavy>
33

>  <a_hyd>
25

>  <a_IC>
96.988922

>  <a_ICM>
1.4056365

>  <a_nB>
0

>  <a_nBr>
0

>  <a_nC>
27

>  <a_nCl>
0

>  <a_nF>
0

>  <a_nH>
36

>  <a_nI>
0

>  <a_nN>
2

>  <a_nO>
4

>  <a_nP>
0

>  <a_nS>
0

>  <balabanJ>
1.6058148

>  <BCUT_PEOE_0>
-2.7517073

>  <BCUT_PEOE_1>
-0.57442898

>  <BCUT_PEOE_2>
0.56776315

>  <BCUT_PEOE_3>
2.6752307

>  <BCUT_SLOGP_0>
-2.7426877

>  <BCUT_SLOGP_1>
-0.48905826

>  <BCUT_SLOGP_2>
0.66170824

>  <BCUT_SLOGP_3>
2.7592602

>  <BCUT_SMR_0>
-2.4728057

>  <BCUT_SMR_1>
-0.37777427

>  <BCUT_SMR_2>
0.73989505

>  <BCUT_SMR_3>
2.9546812

>  <bpol>
45.827454

>  <b_1rotN>
10

>  <b_1rotR>
0.2857143

>  <b_ar>
12

>  <b_count>
71

>  <b_double>
2

>  <b_heavy>
35

>  <b_max1len>
6

>  <b_rotN>
11

>  <b_rotR>
0.31428573

>  <b_single>
57

>  <b_triple>
0

>  <chi0>
23.794317

>  <chi0v>
19.972179

>  <chi0v_C>
17.353006

>  <chi0_C>
18.802753

>  <chi1>
15.884249

>  <chi1v>
12.008862

>  <chi1v_C>
9.4894695

>  <chi1_C>
11.277623

>  <chiral>
1

>  <chiral_u>
0

>  <density>
0.69403988

>  <diameter>
15

>  <FCharge>
0

>  <GCUT_PEOE_0>
-0.83838344

>  <GCUT_PEOE_1>
-0.39720371

>  <GCUT_PEOE_2>
0.062224954

>  <GCUT_PEOE_3>
2.9153628

>  <GCUT_SLOGP_0>
-1.1327614

>  <GCUT_SLOGP_1>
-0.31500968

>  <GCUT_SLOGP_2>
0.14844838

>  <GCUT_SLOGP_3>
3.0034089

>  <GCUT_SMR_0>
-0.53313816

>  <GCUT_SMR_1>
-0.2126767

>  <GCUT_SMR_2>
0.16478996

>  <GCUT_SMR_3>
3.1783254

>  <Kier1>
27.585306

>  <Kier2>
13.921231

>  <Kier3>
8.2734842

>  <KierA1>
21.667448

>  <KierA2>
10.847159

>  <KierA3>
6.4088984

>  <KierFlex>
7.1221294

>  <lip_acc>
6

>  <lip_don>
2

>  <lip_druglike>
1

>  <lip_violation>
1

>  <logP(o/w)>
5.8530002

>  <logS>
-5.94835

>  <mr>
13.141317

>  <mutagenic>
0

>  <nmol>
1

>  <opr_brigid>
18

>  <opr_leadlike>
0

>  <opr_nring>
3

>  <opr_nrot>
12

>  <opr_violation>
3

>  <PC+>
0

>  <PC->
0

>  <PEOE_PC+>
2.5875478

>  <PEOE_PC->
-2.5875478

>  <PEOE_RPC+>
0.11352091

>  <PEOE_RPC->
0.13485378

>  <PEOE_VSA+0>
135.45346

>  <PEOE_VSA+1>
80.119484

>  <PEOE_VSA+2>
0

>  <PEOE_VSA+3>
8.6190128

>  <PEOE_VSA+4>
23.273705

>  <PEOE_VSA+5>
14.708499

>  <PEOE_VSA+6>
0

>  <PEOE_VSA-0>
86.033409

>  <PEOE_VSA-1>
95.216286

>  <PEOE_VSA-2>
0

>  <PEOE_VSA-3>
0

>  <PEOE_VSA-4>
0

>  <PEOE_VSA-5>
27.133842

>  <PEOE_VSA-6>
10.408187

>  <PEOE_VSA_FHYD>
0.84297383

>  <PEOE_VSA_FNEG>
0.45490071

>  <PEOE_VSA_FPNEG>
0.078055494

>  <PEOE_VSA_FPOL>
0.15702617

>  <PEOE_VSA_FPOS>
0.54509932

>  <PEOE_VSA_FPPOS>
0.078970678

>  <PEOE_VSA_HYD>
405.44165

>  <PEOE_VSA_NEG>
218.79172

>  <PEOE_VSA_PNEG>
37.54203

>  <PEOE_VSA_POL>
75.524231

>  <PEOE_VSA_POS>
262.17416

>  <PEOE_VSA_PPOS>
37.982204

>  <petitjean>
0.46666667

>  <petitjeanSC>
0.875

>  <Q_PC+>
0

>  <Q_PC->
0

>  <Q_RPC+>
0

>  <Q_RPC->
0

>  <Q_VSA_FHYD>
1

>  <Q_VSA_FNEG>
0

>  <Q_VSA_FPNEG>
0

>  <Q_VSA_FPOL>
0

>  <Q_VSA_FPOS>
1

>  <Q_VSA_FPPOS>
0

>  <Q_VSA_HYD>
480.96588

>  <Q_VSA_NEG>
0

>  <Q_VSA_PNEG>
0

>  <Q_VSA_POL>
0

>  <Q_VSA_POS>
480.96588

>  <Q_VSA_PPOS>
0

>  <radius>
8

>  <reactive>
0

>  <rings>
3

>  <RPC+>
0

>  <RPC->
0

>  <rsynth>
0.63636363

>  <SlogP>
5.3153701

>  <SlogP_VSA0>
32.134953

>  <SlogP_VSA1>
13.004248

>  <SlogP_VSA2>
23.862217

>  <SlogP_VSA3>
83.190643

>  <SlogP_VSA4>
37.829739

>  <SlogP_VSA5>
18.868406

>  <SlogP_VSA6>
0

>  <SlogP_VSA7>
123.50229

>  <SlogP_VSA8>
79.455589

>  <SlogP_VSA9>
107.97822

>  <SMR>
13.123

>  <SMR_VSA0>
47.724434

>  <SMR_VSA1>
10.999887

>  <SMR_VSA2>
50.931087

>  <SMR_VSA3>
18.782122

>  <SMR_VSA4>
2.7567475

>  <SMR_VSA5>
217.84431

>  <SMR_VSA6>
70.809662

>  <SMR_VSA7>
99.978043

>  <TPSA>
78.870003

>  <VAdjEq>
0.3442024

>  <VAdjMa>
6.129283

>  <VDistEq>
3.7242553

>  <VDistMa>
9.8121052

>  <vdw_area>
480.96588

>  <vdw_vol>
652.1167

>  <vsa_acc>
16.070677

>  <vsa_acid>
0

>  <vsa_base>
0

>  <vsa_don>
5.6825762

>  <vsa_hyd>
371.27655

>  <vsa_other>
27.65803

>  <vsa_pol>
48.887096

>  <Weight>
452.595

>  <weinerPath>
3368

>  <weinerPol>
50

>  <zagreb>
164

$$$$