Brc1ccc(OC)c(C(=O)NCC2N(CCC2)CC)c1OC
  MOE2013           2D

 22 23  0  0  1  0  0  0  0  0999 V2000
    0.0000    0.0000    0.0000 Br  0  0  0  0  0  0  0  0  0  0  0  0
    1.2960    0.7560    0.0000 C   0  0  0  0  0  0  0  0  0  0  0  0
    1.2890    2.2560    0.0000 C   0  0  0  0  0  0  0  0  0  0  0  0
    2.5850    3.0110    0.0000 C   0  0  0  0  0  0  0  0  0  0  0  0
    3.8870    2.2670    0.0000 C   0  0  0  0  0  0  0  0  0  0  0  0
    5.1830    3.0230    0.0000 O   0  0  0  0  0  0  0  0  0  0  0  0
    5.1760    4.5230    0.0000 C   0  0  0  0  0  0  0  0  0  0  0  0
    3.8940    0.7670    0.0000 C   0  0  0  0  0  0  0  0  0  0  0  0
    5.1960    0.0230    0.0000 C   0  0  0  0  0  0  0  0  0  0  0  0
    5.2030   -1.4770    0.0000 O   0  0  0  0  0  0  0  0  0  0  0  0
    6.4920    0.7790    0.0000 N   0  0  0  0  0  0  0  0  0  0  0  0
    7.7940    0.0340    0.0000 C   0  0  0  0  0  0  0  0  0  0  0  0
    9.0900    0.7900    0.0000 C   0  0  3  0  0  0  0  0  0  0  0  0
   10.4630    0.1860    0.0000 N   0  0  3  0  0  0  0  0  0  0  0  0
   11.4620    1.3050    0.0000 C   0  0  0  0  0  0  0  0  0  0  0  0
   10.7060    2.6010    0.0000 C   0  0  0  0  0  0  0  0  0  0  0  0
    9.2400    2.2820    0.0000 C   0  0  0  0  0  0  0  0  0  0  0  0
   10.7810   -1.2800    0.0000 C   0  0  0  0  0  0  0  0  0  0  0  0
   12.2100   -1.7370    0.0000 C   0  0  0  0  0  0  0  0  0  0  0  0
    2.5980    0.0110    0.0000 C   0  0  0  0  0  0  0  0  0  0  0  0
    2.6050   -1.4890    0.0000 O   0  0  0  0  0  0  0  0  0  0  0  0
    1.3090   -2.2440    0.0000 C   0  0  0  0  0  0  0  0  0  0  0  0
  1  2  1  0  0  0  0
  2  3  1  0  0  0  0
  2 20  2  0  0  0  0
  3  4  2  0  0  0  0
  4  5  1  0  0  0  0
  5  6  1  0  0  0  0
  5  8  2  0  0  0  0
  6  7  1  0  0  0  0
  8  9  1  0  0  0  0
  8 20  1  0  0  0  0
  9 10  2  0  0  0  0
  9 11  1  0  0  0  0
 11 12  1  0  0  0  0
 12 13  1  0  0  0  0
 13 14  1  0  0  0  0
 13 17  1  0  0  0  0
 14 15  1  0  0  0  0
 14 18  1  0  0  0  0
 15 16  1  0  0  0  0
 16 17  1  0  0  0  0
 18 19  1  0  0  0  0
 20 21  1  0  0  0  0
 21 22  1  0  0  0  0
M  END
>  <Index>
936

>  <ID>
HT1810

>  <class>
0

>  <apol>
51.152241

>  <ast_fraglike>
0

>  <ast_fraglike_ext>
0

>  <ast_violation>
2

>  <ast_violation_ext>
3

>  <a_acc>
4

>  <a_acid>
0

>  <a_aro>
6

>  <a_base>
0

>  <a_count>
45

>  <a_don>
1

>  <a_donacc>
5

>  <a_heavy>
22

>  <a_hyd>
16

>  <a_IC>
72.336578

>  <a_ICM>
1.6074795

>  <a_nB>
0

>  <a_nBr>
1

>  <a_nC>
16

>  <a_nCl>
0

>  <a_nF>
0

>  <a_nH>
23

>  <a_nI>
0

>  <a_nN>
2

>  <a_nO>
3

>  <a_nP>
0

>  <a_nS>
0

>  <balabanJ>
1.9425805

>  <BCUT_PEOE_0>
-2.650641

>  <BCUT_PEOE_1>
-0.53898299

>  <BCUT_PEOE_2>
0.49403608

>  <BCUT_PEOE_3>
2.7408993

>  <BCUT_SLOGP_0>
-2.7789307

>  <BCUT_SLOGP_1>
-0.37387282

>  <BCUT_SLOGP_2>
0.60005587

>  <BCUT_SLOGP_3>
2.7281659

>  <BCUT_SMR_0>
-2.3720016

>  <BCUT_SMR_1>
-0.22916694

>  <BCUT_SMR_2>
0.69736946

>  <BCUT_SMR_3>
3.007549

>  <bpol>
33.863762

>  <b_1rotN>
6

>  <b_1rotR>
0.26086956

>  <b_ar>
6

>  <b_count>
46

>  <b_double>
1

>  <b_heavy>
23

>  <b_max1len>
4

>  <b_rotN>
7

>  <b_rotR>
0.30434781

>  <b_single>
39

>  <b_triple>
0

>  <chi0>
16.11252

>  <chi0v>
14.903504

>  <chi0v_C>
10.767585

>  <chi0_C>
11.413849

>  <chi1>
10.616922

>  <chi1v>
8.339344

>  <chi1v_C>
4.4342871

>  <chi1_C>
5.1734333

>  <chiral>
1

>  <chiral_u>
1

>  <density>
0.83442932

>  <diameter>
10

>  <FCharge>
0

>  <GCUT_PEOE_0>
-0.859065

>  <GCUT_PEOE_1>
-0.40143549

>  <GCUT_PEOE_2>
-0.048284236

>  <GCUT_PEOE_3>
2.6663063

>  <GCUT_SLOGP_0>
-1.1616338

>  <GCUT_SLOGP_1>
-0.27962545

>  <GCUT_SLOGP_2>
0.14060093

>  <GCUT_SLOGP_3>
2.6903584

>  <GCUT_SMR_0>
-0.52643836

>  <GCUT_SMR_1>
-0.1289281

>  <GCUT_SMR_2>
0.15394597

>  <GCUT_SMR_3>
2.9172244

>  <Kier1>
18.340265

>  <Kier2>
8.7408953

>  <Kier3>
4.3083901

>  <KierA1>
17.152582

>  <KierA2>
8.1476326

>  <KierA3>
4.0062809

>  <KierFlex>
6.3524065

>  <lip_acc>
5

>  <lip_don>
1

>  <lip_druglike>
1

>  <lip_violation>
0

>  <logP(o/w)>
2.78

>  <logS>
-3.49964

>  <mr>
9.0486689

>  <mutagenic>
0

>  <nmol>
1

>  <opr_brigid>
11

>  <opr_leadlike>
1

>  <opr_nring>
2

>  <opr_nrot>
7

>  <opr_violation>
0

>  <PC+>
0

>  <PC->
0

>  <PEOE_PC+>
1.8588682

>  <PEOE_PC->
-1.8588682

>  <PEOE_RPC+>
0.13832963

>  <PEOE_RPC->
0.18847561

>  <PEOE_VSA+0>
119.77044

>  <PEOE_VSA+1>
53.320919

>  <PEOE_VSA+2>
8.458519

>  <PEOE_VSA+3>
8.6190128

>  <PEOE_VSA+4>
0

>  <PEOE_VSA+5>
12.949531

>  <PEOE_VSA+6>
0

>  <PEOE_VSA-0>
111.92194

>  <PEOE_VSA-1>
18.747677

>  <PEOE_VSA-2>
0

>  <PEOE_VSA-3>
0

>  <PEOE_VSA-4>
0

>  <PEOE_VSA-5>
13.566921

>  <PEOE_VSA-6>
5.1444035

>  <PEOE_VSA_FHYD>
0.91018182

>  <PEOE_VSA_FNEG>
0.42377648

>  <PEOE_VSA_FPNEG>
0.053081866

>  <PEOE_VSA_FPOL>
0.089818195

>  <PEOE_VSA_FPOS>
0.57622355

>  <PEOE_VSA_FPPOS>
0.036736324

>  <PEOE_VSA_HYD>
320.8385

>  <PEOE_VSA_NEG>
149.38094

>  <PEOE_VSA_PNEG>
18.711325

>  <PEOE_VSA_POL>
31.660854

>  <PEOE_VSA_POS>
203.11842

>  <PEOE_VSA_PPOS>
12.949531

>  <petitjean>
0.5

>  <petitjeanSC>
1

>  <Q_PC+>
0

>  <Q_PC->
0

>  <Q_RPC+>
0

>  <Q_RPC->
0

>  <Q_VSA_FHYD>
1

>  <Q_VSA_FNEG>
0

>  <Q_VSA_FPNEG>
0

>  <Q_VSA_FPOL>
0

>  <Q_VSA_FPOS>
1

>  <Q_VSA_FPPOS>
0

>  <Q_VSA_HYD>
352.49936

>  <Q_VSA_NEG>
0

>  <Q_VSA_PNEG>
0

>  <Q_VSA_POL>
0

>  <Q_VSA_POS>
352.49936

>  <Q_VSA_PPOS>
0

>  <radius>
5

>  <reactive>
0

>  <rings>
2

>  <RPC+>
0

>  <RPC->
0

>  <rsynth>
1

>  <SlogP>
2.6803999

>  <SlogP_VSA0>
40.010525

>  <SlogP_VSA1>
8.3830976

>  <SlogP_VSA2>
3.9819686

>  <SlogP_VSA3>
55.318733

>  <SlogP_VSA4>
27.047791

>  <SlogP_VSA5>
73.822838

>  <SlogP_VSA6>
0

>  <SlogP_VSA7>
35.286369

>  <SlogP_VSA8>
37.736813

>  <SlogP_VSA9>
89.766968

>  <SMR>
8.9848204

>  <SMR_VSA0>
23.862217

>  <SMR_VSA1>
25.12409

>  <SMR_VSA2>
21.065855

>  <SMR_VSA3>
17.6544

>  <SMR_VSA4>
0

>  <SMR_VSA5>
73.023178

>  <SMR_VSA6>
60.577518

>  <SMR_VSA7>
150.04785

>  <TPSA>
50.799999

>  <VAdjEq>
0.4530769

>  <VAdjMa>
5.523562

>  <VDistEq>
3.2014139

>  <VDistMa>
8.6349564

>  <vdw_area>
352.49936

>  <vdw_vol>
444.94482

>  <vsa_acc>
18.574432

>  <vsa_acid>
0

>  <vsa_base>
0

>  <vsa_don>
5.6825762

>  <vsa_hyd>
296.56

>  <vsa_other>
12.949531

>  <vsa_pol>
24.25701

>  <Weight>
371.27499

>  <weinerPath>
1080

>  <weinerPol>
34

>  <zagreb>
108

$$$$