O1[C@@H](CO)[C@H](O)[C@@H](O)[C@H](NC)[C@@H]1O[C@@H]1[C@@](O)(C=O)[C@@H](O[C@H]1O[C@H]1[C@H](N=C(N)/N)[C@@H](O)[C@H](N=C(N)/N)[C@@H](O)[C@@H]1O)C
  MOE2013           2D

 40 42  0  0  1  0  0  0  0  0999 V2000
    0.0000    0.0000    0.0000 O   0  0  0  0  0  0  0  0  0  0  0  0
   -1.5000    0.0060    0.0000 C   0  0  1  0  0  0  0  0  0  0  0  0
   -2.2450    1.3080    0.0000 C   0  0  0  0  0  0  0  0  0  0  0  0
   -3.7450    1.3130    0.0000 O   0  0  0  0  0  0  0  0  0  0  0  0
   -2.2550   -1.2900    0.0000 C   0  0  2  0  0  0  0  0  0  0  0  0
   -3.7550   -1.2850    0.0000 O   0  0  0  0  0  0  0  0  0  0  0  0
   -1.5100   -2.5920    0.0000 C   0  0  1  0  0  0  0  0  0  0  0  0
   -2.2650   -3.8880    0.0000 O   0  0  0  0  0  0  0  0  0  0  0  0
   -0.0100   -2.5980    0.0000 C   0  0  2  0  0  0  0  0  0  0  0  0
    0.7350   -3.9000    0.0000 N   0  0  0  0  0  0  0  0  0  0  0  0
   -0.0200   -5.1960    0.0000 C   0  0  0  0  0  0  0  0  0  0  0  0
    0.7450   -1.3020    0.0000 C   0  0  2  0  0  0  0  0  0  0  0  0
    2.2450   -1.3080    0.0000 O   0  0  0  0  0  0  0  0  0  0  0  0
    3.0000   -0.0120    0.0000 C   0  0  2  0  0  0  0  0  0  0  0  0
    2.3950    1.3610    0.0000 C   0  0  1  0  0  0  0  0  0  0  0  0
    0.9690    0.8970    0.0000 O   0  0  0  0  0  0  0  0  0  0  0  0
    1.3250    2.4120    0.0000 C   0  0  0  0  0  0  0  0  0  0  0  0
    1.7000    3.8640    0.0000 O   0  0  0  0  0  0  0  0  0  0  0  0
    3.5140    2.3610    0.0000 C   0  0  1  0  0  0  0  0  0  0  0  0
    4.8100    1.6060    0.0000 O   0  0  0  0  0  0  0  0  0  0  0  0
    4.4920    0.1400    0.0000 C   0  0  1  0  0  0  0  0  0  0  0  0
    5.4920   -0.9790    0.0000 O   0  0  0  0  0  0  0  0  0  0  0  0
    6.9600   -0.6730    0.0000 C   0  0  1  0  0  0  0  0  0  0  0  0
    7.4290    0.7520    0.0000 C   0  0  2  0  0  0  0  0  0  0  0  0
    6.4300    1.8710    0.0000 N   0  0  0  0  0  0  0  0  0  0  0  0
    6.8990    3.2950    0.0000 C   0  0  0  0  0  0  0  0  0  0  0  0
    8.3670    3.6020    0.0000 N   0  0  0  0  0  0  0  0  0  0  0  0
    5.8990    4.4140    0.0000 N   0  0  0  0  0  0  0  0  0  0  0  0
    8.8980    1.0580    0.0000 C   0  0  1  0  0  0  0  0  0  0  0  0
    9.3670    2.4830    0.0000 O   0  0  0  0  0  0  0  0  0  0  0  0
    9.8970   -0.0600    0.0000 C   0  0  2  0  0  0  0  0  0  0  0  0
   11.3650    0.2460    0.0000 N   0  0  0  0  0  0  0  0  0  0  0  0
   12.3650   -0.8730    0.0000 C   0  0  0  0  0  0  0  0  0  0  0  0
   11.8960   -2.2970    0.0000 N   0  0  0  0  0  0  0  0  0  0  0  0
   13.8330   -0.5660    0.0000 N   0  0  0  0  0  0  0  0  0  0  0  0
    9.4280   -1.4850    0.0000 C   0  0  1  0  0  0  0  0  0  0  0  0
   10.4270   -2.6040    0.0000 O   0  0  0  0  0  0  0  0  0  0  0  0
    7.9600   -1.7910    0.0000 C   0  0  2  0  0  0  0  0  0  0  0  0
    7.4910   -3.2160    0.0000 O   0  0  0  0  0  0  0  0  0  0  0  0
    3.3630    3.8530    0.0000 C   0  0  0  0  0  0  0  0  0  0  0  0
  1  2  1  0  0  0  0
  1 12  1  0  0  0  0
  2  3  1  6  0  0  0
  2  5  1  0  0  0  0
  3  4  1  0  0  0  0
  5  6  1  1  0  0  0
  5  7  1  0  0  0  0
  7  8  1  6  0  0  0
  7  9  1  0  0  0  0
  9 10  1  1  0  0  0
  9 12  1  0  0  0  0
 10 11  1  0  0  0  0
 12 13  1  1  0  0  0
 14 13  1  6  0  0  0
 14 15  1  0  0  0  0
 14 21  1  0  0  0  0
 15 16  1  6  0  0  0
 15 17  1  1  0  0  0
 15 19  1  0  0  0  0
 17 18  2  0  0  0  0
 19 20  1  0  0  0  0
 19 40  1  6  0  0  0
 20 21  1  0  0  0  0
 21 22  1  1  0  0  0
 23 22  1  1  0  0  0
 23 24  1  0  0  0  0
 23 38  1  0  0  0  0
 24 25  1  6  0  0  0
 24 29  1  0  0  0  0
 25 26  2  3  0  0  0
 26 27  1  0  0  0  0
 26 28  1  0  0  0  0
 29 30  1  1  0  0  0
 29 31  1  0  0  0  0
 31 32  1  6  0  0  0
 31 36  1  0  0  0  0
 32 33  2  3  0  0  0
 33 34  1  0  0  0  0
 33 35  1  0  0  0  0
 36 37  1  1  0  0  0
 36 38  1  0  0  0  0
 38 39  1  6  0  0  0
M  END
>  <Index>
1000

>  <ID>
HT1918

>  <class>
0

>  <apol>
80.288925

>  <ast_fraglike>
0

>  <ast_fraglike_ext>
0

>  <ast_violation>
3

>  <ast_violation_ext>
5

>  <a_acc>
15

>  <a_acid>
0

>  <a_aro>
0

>  <a_base>
0

>  <a_count>
79

>  <a_don>
12

>  <a_donacc>
27

>  <a_heavy>
40

>  <a_hyd>
16

>  <a_IC>
136.9583

>  <a_ICM>
1.7336493

>  <a_nB>
0

>  <a_nBr>
0

>  <a_nC>
21

>  <a_nCl>
0

>  <a_nF>
0

>  <a_nH>
39

>  <a_nI>
0

>  <a_nN>
7

>  <a_nO>
12

>  <a_nP>
0

>  <a_nS>
0

>  <balabanJ>
1.9215147

>  <BCUT_PEOE_0>
-2.7558362

>  <BCUT_PEOE_1>
-0.56873137

>  <BCUT_PEOE_2>
0.63114846

>  <BCUT_PEOE_3>
2.8646824

>  <BCUT_SLOGP_0>
-2.9646323

>  <BCUT_SLOGP_1>
-0.62954217

>  <BCUT_SLOGP_2>
0.51232654

>  <BCUT_SLOGP_3>
2.6645386

>  <BCUT_SMR_0>
-2.5507896

>  <BCUT_SMR_1>
-0.41766742

>  <BCUT_SMR_2>
0.74956763

>  <BCUT_SMR_3>
3.0501702

>  <bpol>
51.917072

>  <b_1rotN>
9

>  <b_1rotR>
0.21428572

>  <b_ar>
0

>  <b_count>
81

>  <b_double>
3

>  <b_heavy>
42

>  <b_max1len>
4

>  <b_rotN>
9

>  <b_rotR>
0.21428572

>  <b_single>
78

>  <b_triple>
0

>  <chi0>
30.101564

>  <chi0v>
21.742926

>  <chi0v_C>
12.867361

>  <chi0_C>
13.151818

>  <chi1>
18.707869

>  <chi1v>
12.377427

>  <chi1v_C>
5.5182905

>  <chi1_C>
5.583169

>  <chiral>
15

>  <chiral_u>
0

>  <density>
0.852036

>  <diameter>
15

>  <FCharge>
0

>  <GCUT_PEOE_0>
-0.84287369

>  <GCUT_PEOE_1>
-0.43454528

>  <GCUT_PEOE_2>
0.11507112

>  <GCUT_PEOE_3>
3.1576278

>  <GCUT_SLOGP_0>
-1.385445

>  <GCUT_SLOGP_1>
-0.49456924

>  <GCUT_SLOGP_2>
0.054200001

>  <GCUT_SLOGP_3>
3.0158255

>  <GCUT_SMR_0>
-0.52740026

>  <GCUT_SMR_1>
-0.22799084

>  <GCUT_SMR_2>
0.23276901

>  <GCUT_SMR_3>
3.353982

>  <Kier1>
34.489796

>  <Kier2>
14.188965

>  <Kier3>
7.0587926

>  <KierA1>
30.497648

>  <KierA2>
12.505544

>  <KierA3>
6.2071171

>  <KierFlex>
9.5347414

>  <lip_acc>
19

>  <lip_don>
16

>  <lip_druglike>
0

>  <lip_violation>
3

>  <logP(o/w)>
-6.5082598

>  <logS>
0.28092

>  <mr>
12.978786

>  <mutagenic>
0

>  <nmol>
1

>  <opr_brigid>
19

>  <opr_leadlike>
0

>  <opr_nring>
3

>  <opr_nrot>
14

>  <opr_violation>
5

>  <PC+>
0

>  <PC->
0

>  <PEOE_PC+>
6.6923718

>  <PEOE_PC->
-6.6923718

>  <PEOE_RPC+>
0.031520598

>  <PEOE_RPC->
0.058628868

>  <PEOE_VSA+0>
25.592316

>  <PEOE_VSA+1>
91.24836

>  <PEOE_VSA+2>
58.415749

>  <PEOE_VSA+3>
141.12996

>  <PEOE_VSA+4>
72.269211

>  <PEOE_VSA+5>
0

>  <PEOE_VSA+6>
0

>  <PEOE_VSA-0>
41.986366

>  <PEOE_VSA-1>
0

>  <PEOE_VSA-2>
0

>  <PEOE_VSA-3>
0

>  <PEOE_VSA-4>
11.365152

>  <PEOE_VSA-5>
13.566921

>  <PEOE_VSA-6>
91.129173

>  <PEOE_VSA_FHYD>
0.65551609

>  <PEOE_VSA_FNEG>
0.28909218

>  <PEOE_VSA_FPNEG>
0.21229297

>  <PEOE_VSA_FPOL>
0.34448391

>  <PEOE_VSA_FPOS>
0.71090782

>  <PEOE_VSA_FPPOS>
0.13219094

>  <PEOE_VSA_HYD>
358.37274

>  <PEOE_VSA_NEG>
158.04761

>  <PEOE_VSA_PNEG>
116.06125

>  <PEOE_VSA_POL>
188.33046

>  <PEOE_VSA_POS>
388.65558

>  <PEOE_VSA_PPOS>
72.269211

>  <petitjean>
0.46666667

>  <petitjeanSC>
0.875

>  <Q_PC+>
0

>  <Q_PC->
0

>  <Q_RPC+>
0

>  <Q_RPC->
0

>  <Q_VSA_FHYD>
1

>  <Q_VSA_FNEG>
0

>  <Q_VSA_FPNEG>
0

>  <Q_VSA_FPOL>
0

>  <Q_VSA_FPOS>
1

>  <Q_VSA_FPPOS>
0

>  <Q_VSA_HYD>
546.70319

>  <Q_VSA_NEG>
0

>  <Q_VSA_PNEG>
0

>  <Q_VSA_POL>
0

>  <Q_VSA_POS>
546.70319

>  <Q_VSA_PPOS>
0

>  <radius>
8

>  <reactive>
1

>  <rings>
3

>  <RPC+>
0

>  <RPC->
0

>  <rsynth>
0.82499999

>  <SlogP>
-8.1611004

>  <SlogP_VSA0>
327.29608

>  <SlogP_VSA1>
3.7981856

>  <SlogP_VSA2>
175.22374

>  <SlogP_VSA3>
20.926258

>  <SlogP_VSA4>
0

>  <SlogP_VSA5>
66.468246

>  <SlogP_VSA6>
0

>  <SlogP_VSA7>
0

>  <SlogP_VSA8>
0

>  <SlogP_VSA9>
33.326015

>  <SMR>
13.29189

>  <SMR_VSA0>
67.861771

>  <SMR_VSA1>
211.26764

>  <SMR_VSA2>
18.01075

>  <SMR_VSA3>
87.216751

>  <SMR_VSA4>
131.58875

>  <SMR_VSA5>
0

>  <SMR_VSA6>
24.724443

>  <SMR_VSA7>
86.368423

>  <TPSA>
336.42999

>  <VAdjEq>
0.29692331

>  <VAdjMa>
6.3923173

>  <VDistEq>
3.6811557

>  <VDistMa>
10.401274

>  <vdw_area>
546.70319

>  <vdw_vol>
682.57678

>  <vsa_acc>
34.947098

>  <vsa_acid>
0

>  <vsa_base>
0

>  <vsa_don>
70.969955

>  <vsa_hyd>
181.59172

>  <vsa_other>
82.838623

>  <vsa_pol>
206.56808

>  <Weight>
581.58002

>  <weinerPath>
4989

>  <weinerPol>
76

>  <zagreb>
210

$$$$