OC(=O)CCCO
  MOE2013           2D

  7  6  0  0  0  0  0  0  0  0999 V2000
    0.0000    0.0000    0.0000 O   0  0  0  0  0  0  0  0  0  0  0  0
    1.2950   -0.7570    0.0000 C   0  0  0  0  0  0  0  0  0  0  0  0
    1.2870   -2.2570    0.0000 O   0  0  0  0  0  0  0  0  0  0  0  0
    2.5980   -0.0130    0.0000 C   0  0  0  0  0  0  0  0  0  0  0  0
    3.8930   -0.7700    0.0000 C   0  0  0  0  0  0  0  0  0  0  0  0
    5.1960   -0.0270    0.0000 C   0  0  0  0  0  0  0  0  0  0  0  0
    6.4910   -0.7830    0.0000 O   0  0  0  0  0  0  0  0  0  0  0  0
  1  2  1  0  0  0  0
  2  3  2  0  0  0  0
  2  4  1  0  0  0  0
  4  5  1  0  0  0  0
  5  6  1  0  0  0  0
  6  7  1  0  0  0  0
M  END
>  <Index>
988

>  <ID>
HT1898

>  <class>
0

>  <apol>
14.780344

>  <ast_fraglike>
1

>  <ast_fraglike_ext>
1

>  <ast_violation>
0

>  <ast_violation_ext>
0

>  <a_acc>
3

>  <a_acid>
0

>  <a_aro>
0

>  <a_base>
0

>  <a_count>
15

>  <a_don>
3

>  <a_donacc>
6

>  <a_heavy>
7

>  <a_hyd>
3

>  <a_IC>
21.848471

>  <a_ICM>
1.4565648

>  <a_nB>
0

>  <a_nBr>
0

>  <a_nC>
4

>  <a_nCl>
0

>  <a_nF>
0

>  <a_nH>
8

>  <a_nI>
0

>  <a_nN>
0

>  <a_nO>
3

>  <a_nP>
0

>  <a_nS>
0

>  <balabanJ>
2.7140133

>  <BCUT_PEOE_0>
-2.4890018

>  <BCUT_PEOE_1>
-0.57896876

>  <BCUT_PEOE_2>
0.55141455

>  <BCUT_PEOE_3>
2.5151758

>  <BCUT_SLOGP_0>
-2.4967475

>  <BCUT_SLOGP_1>
-0.56815052

>  <BCUT_SLOGP_2>
0.45644084

>  <BCUT_SLOGP_3>
2.5365825

>  <BCUT_SMR_0>
-2.2716243

>  <BCUT_SMR_1>
-0.39851236

>  <BCUT_SMR_2>
0.67038256

>  <BCUT_SMR_3>
2.7290666

>  <bpol>
9.7036562

>  <b_1rotN>
3

>  <b_1rotR>
0.5

>  <b_ar>
0

>  <b_count>
14

>  <b_double>
1

>  <b_heavy>
6

>  <b_max1len>
5

>  <b_rotN>
3

>  <b_rotR>
0.5

>  <b_single>
13

>  <b_triple>
0

>  <chi0>
5.6986704

>  <chi0v>
3.9239957

>  <chi0v_C>
2.6213202

>  <chi0_C>
2.6986706

>  <chi1>
3.2700555

>  <chi1v>
2.097512

>  <chi1v_C>
1.3535534

>  <chi1_C>
1.4082483

>  <chiral>
0

>  <chiral_u>
0

>  <density>
0.80181897

>  <diameter>
5

>  <FCharge>
0

>  <GCUT_PEOE_0>
-0.80035412

>  <GCUT_PEOE_1>
-0.43401119

>  <GCUT_PEOE_2>
0.12374467

>  <GCUT_PEOE_3>
1.9647806

>  <GCUT_SLOGP_0>
-0.87852341

>  <GCUT_SLOGP_1>
-0.38988027

>  <GCUT_SLOGP_2>
0.012362342

>  <GCUT_SLOGP_3>
1.9655517

>  <GCUT_SMR_0>
-0.52218825

>  <GCUT_SMR_1>
-0.24688448

>  <GCUT_SMR_2>
0.21884051

>  <GCUT_SMR_3>
2.1612592

>  <Kier1>
7

>  <Kier2>
4.1666665

>  <Kier3>
6

>  <KierA1>
6.0467501

>  <KierA2>
3.4975834

>  <KierA3>
4.8770623

>  <KierFlex>
3.0212874

>  <lip_acc>
3

>  <lip_don>
2

>  <lip_druglike>
1

>  <lip_violation>
0

>  <logP(o/w)>
-0.36899999

>  <logS>
0.53246999

>  <mr>
2.4897225

>  <mutagenic>
0

>  <nmol>
1

>  <opr_brigid>
0

>  <opr_leadlike>
1

>  <opr_nring>
0

>  <opr_nrot>
3

>  <opr_violation>
0

>  <PC+>
0

>  <PC->
0

>  <PEOE_PC+>
1.0121725

>  <PEOE_PC->
-1.0121725

>  <PEOE_RPC+>
0.25653911

>  <PEOE_RPC->
0.39024401

>  <PEOE_VSA+0>
40.714149

>  <PEOE_VSA+1>
8.5307722

>  <PEOE_VSA+2>
0

>  <PEOE_VSA+3>
0

>  <PEOE_VSA+4>
20.648346

>  <PEOE_VSA+5>
14.708499

>  <PEOE_VSA+6>
0

>  <PEOE_VSA-0>
8.701313

>  <PEOE_VSA-1>
0

>  <PEOE_VSA-2>
0

>  <PEOE_VSA-3>
0

>  <PEOE_VSA-4>
0

>  <PEOE_VSA-5>
13.566921

>  <PEOE_VSA-6>
15.535081

>  <PEOE_VSA_FHYD>
0.47339731

>  <PEOE_VSA_FNEG>
0.3088378

>  <PEOE_VSA_FPNEG>
0.23775157

>  <PEOE_VSA_FPOL>
0.52660269

>  <PEOE_VSA_FPOS>
0.69116223

>  <PEOE_VSA_FPPOS>
0.28885111

>  <PEOE_VSA_HYD>
57.946236

>  <PEOE_VSA_NEG>
37.803314

>  <PEOE_VSA_PNEG>
29.102001

>  <PEOE_VSA_POL>
64.458847

>  <PEOE_VSA_POS>
84.601768

>  <PEOE_VSA_PPOS>
35.356846

>  <petitjean>
0.40000001

>  <petitjeanSC>
0.66666669

>  <Q_PC+>
0

>  <Q_PC->
0

>  <Q_RPC+>
0

>  <Q_RPC->
0

>  <Q_VSA_FHYD>
1

>  <Q_VSA_FNEG>
0

>  <Q_VSA_FPNEG>
0

>  <Q_VSA_FPOL>
0

>  <Q_VSA_FPOS>
1

>  <Q_VSA_FPPOS>
0

>  <Q_VSA_HYD>
122.40508

>  <Q_VSA_NEG>
0

>  <Q_VSA_PNEG>
0

>  <Q_VSA_POL>
0

>  <Q_VSA_POS>
122.40508

>  <Q_VSA_PPOS>
0

>  <radius>
3

>  <reactive>
0

>  <rings>
0

>  <RPC+>
0

>  <RPC->
0

>  <rsynth>
1

>  <SlogP>
-0.1565

>  <SlogP_VSA0>
25.385227

>  <SlogP_VSA1>
7.7454643

>  <SlogP_VSA2>
23.862217

>  <SlogP_VSA3>
46.311485

>  <SlogP_VSA4>
0

>  <SlogP_VSA5>
0

>  <SlogP_VSA6>
0

>  <SlogP_VSA7>
0

>  <SlogP_VSA8>
37.736813

>  <SlogP_VSA9>
0

>  <SMR>
2.39556

>  <SMR_VSA0>
23.862217

>  <SMR_VSA1>
25.385227

>  <SMR_VSA2>
25.385227

>  <SMR_VSA3>
0

>  <SMR_VSA4>
0

>  <SMR_VSA5>
37.736813

>  <SMR_VSA6>
28.671722

>  <SMR_VSA7>
0

>  <TPSA>
57.529999

>  <VAdjEq>
0.80309099

>  <VAdjMa>
3.5849626

>  <VDistEq>
2.2125823

>  <VDistMa>
5.195847

>  <vdw_area>
122.40508

>  <vdw_vol>
129.83604

>  <vsa_acc>
0

>  <vsa_acid>
0

>  <vsa_base>
0

>  <vsa_don>
0

>  <vsa_hyd>
53.675465

>  <vsa_other>
14.708499

>  <vsa_pol>
40.700764

>  <Weight>
104.105

>  <weinerPath>
52

>  <weinerPol>
4

>  <zagreb>
24

$$$$