S(=O)(=O)(N1CCN(CC1)C)c1cc(C=2NC(=O)c3n(nc(c3N=2)CCC)C)c(OCC)cc1
  MOE2013           2D

 33 36  0  0  0  0  0  0  0  0999 V2000
    0.0000    0.0000    0.0000 S   0  0  0  0  0  0  0  0  0  0  0  0
    0.7590   -1.2940    0.0000 O   0  0  0  0  0  0  0  0  0  0  0  0
   -0.7590    1.2940    0.0000 O   0  0  0  0  0  0  0  0  0  0  0  0
    1.2940    0.7590    0.0000 N   0  0  0  0  0  0  0  0  0  0  0  0
    2.5980    0.0190    0.0000 C   0  0  0  0  0  0  0  0  0  0  0  0
    3.8920    0.7780    0.0000 C   0  0  0  0  0  0  0  0  0  0  0  0
    3.8810    2.2780    0.0000 N   0  0  0  0  0  0  0  0  0  0  0  0
    2.5760    3.0190    0.0000 C   0  0  0  0  0  0  0  0  0  0  0  0
    1.2830    2.2590    0.0000 C   0  0  0  0  0  0  0  0  0  0  0  0
    5.1740    3.0370    0.0000 C   0  0  0  0  0  0  0  0  0  0  0  0
   -1.2940   -0.7590    0.0000 C   0  0  0  0  0  0  0  0  0  0  0  0
   -2.5980   -0.0190    0.0000 C   0  0  0  0  0  0  0  0  0  0  0  0
   -3.8920   -0.7780    0.0000 C   0  0  0  0  0  0  0  0  0  0  0  0
   -5.1960   -0.0370    0.0000 C   0  0  0  0  0  0  0  0  0  0  0  0
   -6.4900   -0.7970    0.0000 N   0  0  0  0  0  0  0  0  0  0  0  0
   -7.7940   -0.0560    0.0000 C   0  0  0  0  0  0  0  0  0  0  0  0
   -9.0880   -0.8160    0.0000 O   0  0  0  0  0  0  0  0  0  0  0  0
   -7.8050    1.4440    0.0000 C   0  0  0  0  0  0  0  0  0  0  0  0
   -8.9270    2.4390    0.0000 N   0  0  0  0  0  0  0  0  0  0  0  0
   -8.3270    3.8140    0.0000 N   0  0  0  0  0  0  0  0  0  0  0  0
   -6.8340    3.6680    0.0000 C   0  0  0  0  0  0  0  0  0  0  0  0
   -6.5110    2.2030    0.0000 C   0  0  0  0  0  0  0  0  0  0  0  0
   -5.2070    1.4630    0.0000 N   0  0  0  0  0  0  0  0  0  0  0  0
   -5.8380    4.7900    0.0000 C   0  0  0  0  0  0  0  0  0  0  0  0
   -6.3120    6.2130    0.0000 C   0  0  0  0  0  0  0  0  0  0  0  0
   -5.3160    7.3350    0.0000 C   0  0  0  0  0  0  0  0  0  0  0  0
  -10.3920    2.1170    0.0000 C   0  0  0  0  0  0  0  0  0  0  0  0
   -3.8810   -2.2780    0.0000 C   0  0  0  0  0  0  0  0  0  0  0  0
   -5.1740   -3.0370    0.0000 O   0  0  0  0  0  0  0  0  0  0  0  0
   -5.1640   -4.5370    0.0000 C   0  0  0  0  0  0  0  0  0  0  0  0
   -6.4570   -5.2970    0.0000 C   0  0  0  0  0  0  0  0  0  0  0  0
   -2.5760   -3.0190    0.0000 C   0  0  0  0  0  0  0  0  0  0  0  0
   -1.2830   -2.2590    0.0000 C   0  0  0  0  0  0  0  0  0  0  0  0
  1  2  2  0  0  0  0
  1  3  2  0  0  0  0
  1  4  1  0  0  0  0
  1 11  1  0  0  0  0
  4  5  1  0  0  0  0
  4  9  1  0  0  0  0
  5  6  1  0  0  0  0
  6  7  1  0  0  0  0
  7  8  1  0  0  0  0
  7 10  1  0  0  0  0
  8  9  1  0  0  0  0
 11 12  1  0  0  0  0
 11 33  2  0  0  0  0
 12 13  2  0  0  0  0
 13 14  1  0  0  0  0
 13 28  1  0  0  0  0
 14 15  1  0  0  0  0
 14 23  2  0  0  0  0
 15 16  1  0  0  0  0
 16 17  2  0  0  0  0
 16 18  1  0  0  0  0
 18 19  1  0  0  0  0
 18 22  2  0  0  0  0
 19 20  1  0  0  0  0
 19 27  1  0  0  0  0
 20 21  2  0  0  0  0
 21 22  1  0  0  0  0
 21 24  1  0  0  0  0
 22 23  1  0  0  0  0
 24 25  1  0  0  0  0
 25 26  1  0  0  0  0
 28 29  1  0  0  0  0
 28 32  2  0  0  0  0
 29 30  1  0  0  0  0
 30 31  1  0  0  0  0
 32 33  1  0  0  0  0
M  END
>  <Index>
980

>  <ID>
HT1885

>  <class>
0

>  <apol>
71.431793

>  <ast_fraglike>
0

>  <ast_fraglike_ext>
0

>  <ast_violation>
2

>  <ast_violation_ext>
4

>  <a_acc>
7

>  <a_acid>
0

>  <a_aro>
11

>  <a_base>
0

>  <a_count>
63

>  <a_don>
1

>  <a_donacc>
8

>  <a_heavy>
33

>  <a_hyd>
20

>  <a_IC>
107.74464

>  <a_ICM>
1.7102325

>  <a_nB>
0

>  <a_nBr>
0

>  <a_nC>
22

>  <a_nCl>
0

>  <a_nF>
0

>  <a_nH>
30

>  <a_nI>
0

>  <a_nN>
6

>  <a_nO>
4

>  <a_nP>
0

>  <a_nS>
1

>  <balabanJ>
1.5006738

>  <BCUT_PEOE_0>
-2.7618351

>  <BCUT_PEOE_1>
-0.29733035

>  <BCUT_PEOE_2>
0.26030174

>  <BCUT_PEOE_3>
2.6693728

>  <BCUT_SLOGP_0>
-2.8828821

>  <BCUT_SLOGP_1>
-0.34142372

>  <BCUT_SLOGP_2>
0.33484209

>  <BCUT_SLOGP_3>
2.594017

>  <BCUT_SMR_0>
-2.4669173

>  <BCUT_SMR_1>
-0.012855494

>  <BCUT_SMR_2>
0.47851163

>  <BCUT_SMR_3>
2.976578

>  <bpol>
50.066212

>  <b_1rotN>
7

>  <b_1rotR>
0.19444445

>  <b_ar>
11

>  <b_count>
66

>  <b_double>
2

>  <b_heavy>
36

>  <b_max1len>
4

>  <b_rotN>
7

>  <b_rotR>
0.19444445

>  <b_single>
53

>  <b_triple>
0

>  <chi0>
23.750347

>  <chi0v>
20.275604

>  <chi0v_C>
14.681798

>  <chi0_C>
15.68987

>  <chi1>
15.755588

>  <chi1v>
12.616585

>  <chi1v_C>
6.0058007

>  <chi1_C>
7.1221218

>  <chiral>
0

>  <chiral_u>
0

>  <density>
0.77708441

>  <diameter>
15

>  <FCharge>
0

>  <GCUT_PEOE_0>
-0.8609271

>  <GCUT_PEOE_1>
-0.39078125

>  <GCUT_PEOE_2>
-0.093912028

>  <GCUT_PEOE_3>
2.8225088

>  <GCUT_SLOGP_0>
-1.1688361

>  <GCUT_SLOGP_1>
-0.37522045

>  <GCUT_SLOGP_2>
-0.03391543

>  <GCUT_SLOGP_3>
2.8319857

>  <GCUT_SMR_0>
-0.52436525

>  <GCUT_SMR_1>
-0.11808272

>  <GCUT_SMR_2>
0.097505882

>  <GCUT_SMR_3>
3.0940881

>  <Kier1>
26.074074

>  <Kier2>
10.947668

>  <Kier3>
5.4043913

>  <KierA1>
21.999702

>  <KierA2>
9.1855068

>  <KierA3>
4.5160918

>  <KierFlex>
6.1235886

>  <lip_acc>
10

>  <lip_don>
1

>  <lip_druglike>
1

>  <lip_violation>
0

>  <logP(o/w)>
0.294

>  <logS>
-3.81058

>  <mr>
12.545944

>  <mutagenic>
0

>  <nmol>
1

>  <opr_brigid>
22

>  <opr_leadlike>
0

>  <opr_nring>
4

>  <opr_nrot>
8

>  <opr_violation>
2

>  <PC+>
0

>  <PC->
0

>  <PEOE_PC+>
2.7242982

>  <PEOE_PC->
-2.7242982

>  <PEOE_RPC+>
0.10391778

>  <PEOE_RPC->
0.12636292

>  <PEOE_VSA+0>
174.35312

>  <PEOE_VSA+1>
65.899734

>  <PEOE_VSA+2>
17.890114

>  <PEOE_VSA+3>
15.318564

>  <PEOE_VSA+4>
0

>  <PEOE_VSA+5>
17.134132

>  <PEOE_VSA+6>
0

>  <PEOE_VSA-0>
89.327232

>  <PEOE_VSA-1>
27.44899

>  <PEOE_VSA-2>
0

>  <PEOE_VSA-3>
9.4210396

>  <PEOE_VSA-4>
37.6991

>  <PEOE_VSA-5>
13.566921

>  <PEOE_VSA-6>
2.6406472

>  <PEOE_VSA_FHYD>
0.84907401

>  <PEOE_VSA_FNEG>
0.38263032

>  <PEOE_VSA_FPNEG>
0.11452457

>  <PEOE_VSA_FPOL>
0.15092598

>  <PEOE_VSA_FPOS>
0.61736971

>  <PEOE_VSA_FPPOS>
0.036401417

>  <PEOE_VSA_HYD>
399.65878

>  <PEOE_VSA_NEG>
180.10393

>  <PEOE_VSA_PNEG>
53.906666

>  <PEOE_VSA_POL>
71.040802

>  <PEOE_VSA_POS>
290.59567

>  <PEOE_VSA_PPOS>
17.134132

>  <petitjean>
0.46666667

>  <petitjeanSC>
0.875

>  <Q_PC+>
0

>  <Q_PC->
0

>  <Q_RPC+>
0

>  <Q_RPC->
0

>  <Q_VSA_FHYD>
1

>  <Q_VSA_FNEG>
0

>  <Q_VSA_FPNEG>
0

>  <Q_VSA_FPOL>
0

>  <Q_VSA_FPOS>
1

>  <Q_VSA_FPPOS>
0

>  <Q_VSA_HYD>
470.69958

>  <Q_VSA_NEG>
0

>  <Q_VSA_PNEG>
0

>  <Q_VSA_POL>
0

>  <Q_VSA_POS>
470.69958

>  <Q_VSA_PPOS>
0

>  <radius>
8

>  <reactive>
0

>  <rings>
4

>  <RPC+>
0

>  <RPC->
0

>  <rsynth>
1

>  <SlogP>
1.88827

>  <SlogP_VSA0>
29.010639

>  <SlogP_VSA1>
78.840843

>  <SlogP_VSA2>
6.6407428

>  <SlogP_VSA3>
94.68457

>  <SlogP_VSA4>
32.561287

>  <SlogP_VSA5>
70.10186

>  <SlogP_VSA6>
0

>  <SlogP_VSA7>
52.929554

>  <SlogP_VSA8>
18.868406

>  <SlogP_VSA9>
107.54939

>  <SMR>
12.5014

>  <SMR_VSA0>
72.033905

>  <SMR_VSA1>
50.86787

>  <SMR_VSA2>
19.561485

>  <SMR_VSA3>
13.942498

>  <SMR_VSA4>
2.7567475

>  <SMR_VSA5>
90.666367

>  <SMR_VSA6>
102.27128

>  <SMR_VSA7>
139.08714

>  <TPSA>
109.13

>  <VAdjEq>
0.3512581

>  <VAdjMa>
6.1699252

>  <VDistEq>
3.5908723

>  <VDistMa>
9.8234701

>  <vdw_area>
470.69958

>  <vdw_vol>
610.72644

>  <vsa_acc>
63.190815

>  <vsa_acid>
0

>  <vsa_base>
0

>  <vsa_don>
5.6825762

>  <vsa_hyd>
343.86511

>  <vsa_other>
34.245701

>  <vsa_pol>
68.87339

>  <Weight>
474.586

>  <weinerPath>
3086

>  <weinerPol>
59

>  <zagreb>
178

$$$$