Clc1ccc(OC(C(O[C@@H]2CC3=CC[C@H]4[C@@H]5CC[C@H]([C@@H](CC[C@H](C(C)C)CC)C)[C@]5(CC[C@@H]4[C@]3(CC2)C)C)=O)(C)C)cc1
  MOE2013           2D

 43 47  0  0  1  0  0  0  0  0999 V2000
    0.0000    0.0000    0.0000 Cl  0  0  0  0  0  0  0  0  0  0  0  0
    1.2930   -0.7600    0.0000 C   0  0  0  0  0  0  0  0  0  0  0  0
    2.5980   -0.0190    0.0000 C   0  0  0  0  0  0  0  0  0  0  0  0
    3.8910   -0.7790    0.0000 C   0  0  0  0  0  0  0  0  0  0  0  0
    3.8800   -2.2790    0.0000 C   0  0  0  0  0  0  0  0  0  0  0  0
    5.1740   -3.0380    0.0000 O   0  0  0  0  0  0  0  0  0  0  0  0
    6.4780   -2.2980    0.0000 C   0  0  0  0  0  0  0  0  0  0  0  0
    7.7830   -1.5580    0.0000 C   0  0  0  0  0  0  0  0  0  0  0  0
    9.0760   -2.3170    0.0000 O   0  0  0  0  0  0  0  0  0  0  0  0
   10.3810   -1.5770    0.0000 C   0  0  2  0  0  0  0  0  0  0  0  0
   10.3920   -0.0770    0.0000 C   0  0  0  0  0  0  0  0  0  0  0  0
   11.6970    0.6630    0.0000 C   0  0  0  0  0  0  0  0  0  0  0  0
   11.7080    2.1630    0.0000 C   0  0  0  0  0  0  0  0  0  0  0  0
   13.0120    2.9040    0.0000 C   0  0  0  0  0  0  0  0  0  0  0  0
   14.3060    2.1440    0.0000 C   0  0  1  0  0  0  0  0  0  0  0  0
   15.6100    2.8840    0.0000 C   0  0  2  0  0  0  0  0  0  0  0  0
   15.9330    4.3490    0.0000 C   0  0  0  0  0  0  0  0  0  0  0  0
   17.4260    4.4950    0.0000 C   0  0  0  0  0  0  0  0  0  0  0  0
   18.0260    3.1200    0.0000 C   0  0  2  0  0  0  0  0  0  0  0  0
   19.4910    2.7980    0.0000 C   0  0  1  0  0  0  0  0  0  0  0  0
   20.5030    3.9050    0.0000 C   0  0  0  0  0  0  0  0  0  0  0  0
   21.9670    3.5820    0.0000 C   0  0  0  0  0  0  0  0  0  0  0  0
   22.9790    4.6890    0.0000 C   0  0  2  0  0  0  0  0  0  0  0  0
   24.4440    4.3670    0.0000 C   0  0  0  0  0  0  0  0  0  0  0  0
   25.4560    5.4740    0.0000 C   0  0  0  0  0  0  0  0  0  0  0  0
   24.8970    2.9370    0.0000 C   0  0  0  0  0  0  0  0  0  0  0  0
   22.5260    6.1190    0.0000 C   0  0  0  0  0  0  0  0  0  0  0  0
   23.5380    7.2270    0.0000 C   0  0  0  0  0  0  0  0  0  0  0  0
   19.9440    1.3680    0.0000 C   0  0  0  0  0  0  0  0  0  0  0  0
   16.9040    2.1250    0.0000 C   0  0  1  0  0  0  0  0  0  0  0  0
   16.8930    0.6250    0.0000 C   0  0  0  0  0  0  0  0  0  0  0  0
   15.5880   -0.1150    0.0000 C   0  0  0  0  0  0  0  0  0  0  0  0
   14.2950    0.6440    0.0000 C   0  0  2  0  0  0  0  0  0  0  0  0
   12.9900   -0.0960    0.0000 C   0  0  1  0  0  0  0  0  0  0  0  0
   12.9790   -1.5960    0.0000 C   0  0  0  0  0  0  0  0  0  0  0  0
   11.6740   -2.3370    0.0000 C   0  0  0  0  0  0  0  0  0  0  0  0
   14.2970   -0.8330    0.0000 C   0  0  0  0  0  0  0  0  0  0  0  0
   18.2690    1.5050    0.0000 C   0  0  0  0  0  0  0  0  0  0  0  0
    7.7940   -0.0580    0.0000 O   0  0  0  0  0  0  0  0  0  0  0  0
    5.7380   -0.9930    0.0000 C   0  0  0  0  0  0  0  0  0  0  0  0
    7.2190   -3.6030    0.0000 C   0  0  0  0  0  0  0  0  0  0  0  0
    2.5760   -3.0190    0.0000 C   0  0  0  0  0  0  0  0  0  0  0  0
    1.2820   -2.2600    0.0000 C   0  0  0  0  0  0  0  0  0  0  0  0
  1  2  1  0  0  0  0
  2  3  1  0  0  0  0
  2 43  2  0  0  0  0
  3  4  2  0  0  0  0
  4  5  1  0  0  0  0
  5  6  1  0  0  0  0
  5 42  2  0  0  0  0
  6  7  1  0  0  0  0
  7  8  1  0  0  0  0
  7 40  1  0  0  0  0
  7 41  1  0  0  0  0
  8  9  1  0  0  0  0
  8 39  2  0  0  0  0
 10  9  1  6  0  0  0
 10 11  1  0  0  0  0
 10 36  1  0  0  0  0
 11 12  1  0  0  0  0
 12 13  2  0  0  0  0
 12 34  1  0  0  0  0
 13 14  1  0  0  0  0
 15 14  1  1  0  0  0
 15 16  1  0  0  0  0
 15 33  1  0  0  0  0
 16 17  1  6  0  0  0
 16 30  1  0  0  0  0
 17 18  1  0  0  0  0
 19 18  1  6  0  0  0
 19 20  1  0  0  0  0
 19 30  1  0  0  0  0
 20 21  1  0  0  0  0
 20 29  1  1  0  0  0
 21 22  1  0  0  0  0
 23 22  1  1  0  0  0
 23 24  1  0  0  0  0
 23 27  1  0  0  0  0
 24 25  1  0  0  0  0
 24 26  1  0  0  0  0
 27 28  1  0  0  0  0
 30 31  1  0  0  0  0
 30 38  1  6  0  0  0
 31 32  1  0  0  0  0
 33 32  1  6  0  0  0
 33 34  1  0  0  0  0
 34 35  1  0  0  0  0
 34 37  1  6  0  0  0
 35 36  1  0  0  0  0
 42 43  1  0  0  0  0
M  END
>  <Index>
987

>  <ID>
HT1895

>  <class>
0

>  <apol>
112.56679

>  <ast_fraglike>
0

>  <ast_fraglike_ext>
0

>  <ast_violation>
2

>  <ast_violation_ext>
3

>  <a_acc>
2

>  <a_acid>
0

>  <a_aro>
6

>  <a_base>
0

>  <a_count>
102

>  <a_don>
0

>  <a_donacc>
2

>  <a_heavy>
43

>  <a_hyd>
39

>  <a_IC>
122.62587

>  <a_ICM>
1.2022145

>  <a_nB>
0

>  <a_nBr>
0

>  <a_nC>
39

>  <a_nCl>
1

>  <a_nF>
0

>  <a_nH>
59

>  <a_nI>
0

>  <a_nN>
0

>  <a_nO>
3

>  <a_nP>
0

>  <a_nS>
0

>  <balabanJ>
1.1628665

>  <BCUT_PEOE_0>
-2.949743

>  <BCUT_PEOE_1>
-0.4861815

>  <BCUT_PEOE_2>
0.51433969

>  <BCUT_PEOE_3>
2.9601738

>  <BCUT_SLOGP_0>
-2.8636751

>  <BCUT_SLOGP_1>
-0.30094227

>  <BCUT_SLOGP_2>
0.60283995

>  <BCUT_SLOGP_3>
3.0550923

>  <BCUT_SMR_0>
-2.6908889

>  <BCUT_SMR_1>
-0.27982578

>  <BCUT_SMR_2>
0.63276303

>  <BCUT_SMR_3>
3.2205451

>  <bpol>
69.709213

>  <b_1rotN>
10

>  <b_1rotR>
0.21276596

>  <b_ar>
6

>  <b_count>
106

>  <b_double>
2

>  <b_heavy>
47

>  <b_max1len>
8

>  <b_rotN>
11

>  <b_rotR>
0.23404256

>  <b_single>
98

>  <b_triple>
0

>  <chi0>
31.156126

>  <chi0v>
29.142366

>  <chi0v_C>
26.783728

>  <chi0_C>
27.741911

>  <chi1>
20.279697

>  <chi1v>
18.010847

>  <chi1v_C>
16.391703

>  <chi1_C>
17.546698

>  <chiral>
9

>  <chiral_u>
0

>  <density>
0.6703378

>  <diameter>
23

>  <FCharge>
0

>  <GCUT_PEOE_0>
-0.81111699

>  <GCUT_PEOE_1>
-0.34849298

>  <GCUT_PEOE_2>
0.010908701

>  <GCUT_PEOE_3>
3.5422173

>  <GCUT_SLOGP_0>
-0.93331879

>  <GCUT_SLOGP_1>
-0.24891764

>  <GCUT_SLOGP_2>
0.110775

>  <GCUT_SLOGP_3>
3.6439576

>  <GCUT_SMR_0>
-0.54388726

>  <GCUT_SMR_1>
-0.17207587

>  <GCUT_SMR_2>
0.12537897

>  <GCUT_SMR_3>
3.7677078

>  <Kier1>
34.337708

>  <Kier2>
13.619213

>  <Kier3>
6.9970846

>  <KierA1>
32.230675

>  <KierA2>
12.763721

>  <KierA3>
6.5503383

>  <KierFlex>
9.5670557

>  <lip_acc>
3

>  <lip_don>
0

>  <lip_druglike>
0

>  <lip_violation>
2

>  <logP(o/w)>
11.32074

>  <logS>
-15.21153

>  <mr>
17.87715

>  <mutagenic>
0

>  <nmol>
1

>  <opr_brigid>
26

>  <opr_leadlike>
0

>  <opr_nring>
5

>  <opr_nrot>
10

>  <opr_violation>
3

>  <PC+>
0

>  <PC->
0

>  <PEOE_PC+>
2.4224291

>  <PEOE_PC->
-2.4224291

>  <PEOE_RPC+>
0.12162084

>  <PEOE_RPC->
0.13573128

>  <PEOE_VSA+0>
230.58521

>  <PEOE_VSA+1>
38.955765

>  <PEOE_VSA+2>
0

>  <PEOE_VSA+3>
0

>  <PEOE_VSA+4>
0

>  <PEOE_VSA+5>
14.708499

>  <PEOE_VSA+6>
0

>  <PEOE_VSA-0>
173.52811

>  <PEOE_VSA-1>
165.23277

>  <PEOE_VSA-2>
0

>  <PEOE_VSA-3>
0

>  <PEOE_VSA-4>
0

>  <PEOE_VSA-5>
13.566921

>  <PEOE_VSA-6>
5.0075121

>  <PEOE_VSA_FHYD>
0.94812387

>  <PEOE_VSA_FNEG>
0.55695724

>  <PEOE_VSA_FPNEG>
0.028950863

>  <PEOE_VSA_FPOL>
0.051876124

>  <PEOE_VSA_FPOS>
0.44304273

>  <PEOE_VSA_FPPOS>
0.022925263

>  <PEOE_VSA_HYD>
608.30182

>  <PEOE_VSA_NEG>
357.3353

>  <PEOE_VSA_PNEG>
18.574432

>  <PEOE_VSA_POL>
33.282932

>  <PEOE_VSA_POS>
284.24948

>  <PEOE_VSA_PPOS>
14.708499

>  <petitjean>
0.47826087

>  <petitjeanSC>
0.91666669

>  <Q_PC+>
0

>  <Q_PC->
0

>  <Q_RPC+>
0

>  <Q_RPC->
0

>  <Q_VSA_FHYD>
1

>  <Q_VSA_FNEG>
0

>  <Q_VSA_FPNEG>
0

>  <Q_VSA_FPOL>
0

>  <Q_VSA_FPOS>
1

>  <Q_VSA_FPPOS>
0

>  <Q_VSA_HYD>
641.58478

>  <Q_VSA_NEG>
0

>  <Q_VSA_PNEG>
0

>  <Q_VSA_POL>
0

>  <Q_VSA_POS>
641.58478

>  <Q_VSA_PPOS>
0

>  <radius>
12

>  <reactive>
0

>  <rings>
5

>  <RPC+>
0

>  <RPC->
0

>  <rsynth>
0.30232558

>  <SlogP>
11.0867

>  <SlogP_VSA0>
10.999887

>  <SlogP_VSA1>
7.7454643

>  <SlogP_VSA2>
41.330753

>  <SlogP_VSA3>
0

>  <SlogP_VSA4>
30.875572

>  <SlogP_VSA5>
3.185575

>  <SlogP_VSA6>
3.5006065

>  <SlogP_VSA7>
88.215919

>  <SlogP_VSA8>
207.55246

>  <SlogP_VSA9>
311.00018

>  <SMR>
17.8249

>  <SMR_VSA0>
34.862103

>  <SMR_VSA1>
10.999887

>  <SMR_VSA2>
30.875572

>  <SMR_VSA3>
18.398258

>  <SMR_VSA4>
0

>  <SMR_VSA5>
295.76837

>  <SMR_VSA6>
7.7454643

>  <SMR_VSA7>
305.75677

>  <TPSA>
35.529999

>  <VAdjEq>
0.28994733

>  <VAdjMa>
6.5545888

>  <VDistEq>
4.2274227

>  <VDistMa>
10.520927

>  <vdw_area>
641.58478

>  <vdw_vol>
912.00433

>  <vsa_acc>
16.070677

>  <vsa_acid>
0

>  <vsa_base>
0

>  <vsa_don>
0

>  <vsa_hyd>
556.89056

>  <vsa_other>
17.212255

>  <vsa_pol>
16.070677

>  <Weight>
611.35101

>  <weinerPath>
7402

>  <weinerPol>
81

>  <zagreb>
238

$$$$