Clc1cncc(Cl)c1NC(=O)c1cc(OCC2CC2)c(OC(F)F)cc1
  MOE2013           2D

 26 28  0  0  0  0  0  0  0  0999 V2000
    0.0000    0.0000    0.0000 Cl  0  0  0  0  0  0  0  0  0  0  0  0
   -0.0130    1.5000    0.0000 C   0  0  0  0  0  0  0  0  0  0  0  0
    1.2800    2.2610    0.0000 C   0  0  0  0  0  0  0  0  0  0  0  0
    1.2670    3.7610    0.0000 N   0  0  0  0  0  0  0  0  0  0  0  0
   -0.0380    4.5000    0.0000 C   0  0  0  0  0  0  0  0  0  0  0  0
   -1.3310    3.7390    0.0000 C   0  0  0  0  0  0  0  0  0  0  0  0
   -2.6360    4.4780    0.0000 Cl  0  0  0  0  0  0  0  0  0  0  0  0
   -1.3180    2.2390    0.0000 C   0  0  0  0  0  0  0  0  0  0  0  0
   -2.6110    1.4780    0.0000 N   0  0  0  0  0  0  0  0  0  0  0  0
   -3.9160    2.2170    0.0000 C   0  0  0  0  0  0  0  0  0  0  0  0
   -3.9290    3.7170    0.0000 O   0  0  0  0  0  0  0  0  0  0  0  0
   -5.2090    1.4560    0.0000 C   0  0  0  0  0  0  0  0  0  0  0  0
   -6.5140    2.1950    0.0000 C   0  0  0  0  0  0  0  0  0  0  0  0
   -7.8070    1.4340    0.0000 C   0  0  0  0  0  0  0  0  0  0  0  0
   -9.1120    2.1730    0.0000 O   0  0  0  0  0  0  0  0  0  0  0  0
   -9.1250    3.6730    0.0000 C   0  0  0  0  0  0  0  0  0  0  0  0
  -10.4300    4.4120    0.0000 C   0  0  0  0  0  0  0  0  0  0  0  0
  -11.1910    5.7040    0.0000 C   0  0  0  0  0  0  0  0  0  0  0  0
  -11.9300    4.3990    0.0000 C   0  0  0  0  0  0  0  0  0  0  0  0
   -7.7940   -0.0660    0.0000 C   0  0  0  0  0  0  0  0  0  0  0  0
   -9.0870   -0.8270    0.0000 O   0  0  0  0  0  0  0  0  0  0  0  0
   -9.0740   -2.3270    0.0000 C   0  0  0  0  0  0  0  0  0  0  0  0
   -7.7690   -3.0660    0.0000 F   0  0  0  0  0  0  0  0  0  0  0  0
  -10.3670   -3.0880    0.0000 F   0  0  0  0  0  0  0  0  0  0  0  0
   -6.4890   -0.8050    0.0000 C   0  0  0  0  0  0  0  0  0  0  0  0
   -5.1960   -0.0440    0.0000 C   0  0  0  0  0  0  0  0  0  0  0  0
  1  2  1  0  0  0  0
  2  3  1  0  0  0  0
  2  8  2  0  0  0  0
  3  4  2  0  0  0  0
  4  5  1  0  0  0  0
  5  6  2  0  0  0  0
  6  7  1  0  0  0  0
  6  8  1  0  0  0  0
  8  9  1  0  0  0  0
  9 10  1  0  0  0  0
 10 11  2  0  0  0  0
 10 12  1  0  0  0  0
 12 13  1  0  0  0  0
 12 26  2  0  0  0  0
 13 14  2  0  0  0  0
 14 15  1  0  0  0  0
 14 20  1  0  0  0  0
 15 16  1  0  0  0  0
 16 17  1  0  0  0  0
 17 18  1  0  0  0  0
 17 19  1  0  0  0  0
 18 19  1  0  0  0  0
 20 21  1  0  0  0  0
 20 25  2  0  0  0  0
 21 22  1  0  0  0  0
 22 23  1  0  0  0  0
 22 24  1  0  0  0  0
 25 26  1  0  0  0  0
M  END
>  <Index>
955

>  <ID>
HT1839

>  <class>
0

>  <apol>
49.335102

>  <ast_fraglike>
0

>  <ast_fraglike_ext>
0

>  <ast_violation>
3

>  <ast_violation_ext>
4

>  <a_acc>
4

>  <a_acid>
0

>  <a_aro>
12

>  <a_base>
0

>  <a_count>
40

>  <a_don>
1

>  <a_donacc>
5

>  <a_heavy>
26

>  <a_hyd>
20

>  <a_IC>
79.332397

>  <a_ICM>
1.98331

>  <a_nB>
0

>  <a_nBr>
0

>  <a_nC>
17

>  <a_nCl>
2

>  <a_nF>
2

>  <a_nH>
14

>  <a_nI>
0

>  <a_nN>
2

>  <a_nO>
3

>  <a_nP>
0

>  <a_nS>
0

>  <balabanJ>
1.5486709

>  <BCUT_PEOE_0>
-2.3794129

>  <BCUT_PEOE_1>
-0.65180194

>  <BCUT_PEOE_2>
0.65870357

>  <BCUT_PEOE_3>
2.7813904

>  <BCUT_SLOGP_0>
-2.4164877

>  <BCUT_SLOGP_1>
-0.48055014

>  <BCUT_SLOGP_2>
0.7669785

>  <BCUT_SLOGP_3>
2.8715794

>  <BCUT_SMR_0>
-2.1320882

>  <BCUT_SMR_1>
-0.40708518

>  <BCUT_SMR_2>
0.86602545

>  <BCUT_SMR_3>
3.0260527

>  <bpol>
25.320898

>  <b_1rotN>
7

>  <b_1rotR>
0.25

>  <b_ar>
12

>  <b_count>
42

>  <b_double>
1

>  <b_heavy>
28

>  <b_max1len>
3

>  <b_rotN>
8

>  <b_rotR>
0.2857143

>  <b_single>
29

>  <b_triple>
0

>  <chi0>
18.681435

>  <chi0v>
14.858446

>  <chi0v_C>
9.6627722

>  <chi0_C>
10.853006

>  <chi1>
12.435561

>  <chi1v>
8.5136061

>  <chi1v_C>
4.7901292

>  <chi1_C>
6.0075679

>  <chiral>
0

>  <chiral_u>
0

>  <density>
0.90725172

>  <diameter>
12

>  <FCharge>
0

>  <GCUT_PEOE_0>
-0.79830629

>  <GCUT_PEOE_1>
-0.42560688

>  <GCUT_PEOE_2>
0.056184907

>  <GCUT_PEOE_3>
2.4569638

>  <GCUT_SLOGP_0>
-0.99310213

>  <GCUT_SLOGP_1>
-0.30079961

>  <GCUT_SLOGP_2>
0.26019999

>  <GCUT_SLOGP_3>
2.5782316

>  <GCUT_SMR_0>
-0.49768808

>  <GCUT_SMR_1>
-0.20793448

>  <GCUT_SMR_2>
0.21427944

>  <GCUT_SMR_3>
2.7309279

>  <Kier1>
20.727041

>  <Kier2>
9.4674559

>  <Kier3>
5.5177011

>  <KierA1>
17.749449

>  <KierA2>
8.0544319

>  <KierA3>
4.6722283

>  <KierFlex>
5.498528

>  <lip_acc>
5

>  <lip_don>
1

>  <lip_druglike>
1

>  <lip_violation>
1

>  <logP(o/w)>
3.9366601

>  <logS>
-4.3786502

>  <mr>
9.5481148

>  <mutagenic>
0

>  <nmol>
1

>  <opr_brigid>
15

>  <opr_leadlike>
1

>  <opr_nring>
3

>  <opr_nrot>
7

>  <opr_violation>
1

>  <PC+>
0

>  <PC->
0

>  <PEOE_PC+>
2.1911421

>  <PEOE_PC->
-2.1911421

>  <PEOE_RPC+>
0.16030237

>  <PEOE_RPC->
0.15600364

>  <PEOE_VSA+0>
57.027302

>  <PEOE_VSA+1>
60.548038

>  <PEOE_VSA+2>
21.182425

>  <PEOE_VSA+3>
8.6190128

>  <PEOE_VSA+4>
0

>  <PEOE_VSA+5>
12.949531

>  <PEOE_VSA+6>
18.529541

>  <PEOE_VSA-0>
54.167339

>  <PEOE_VSA-1>
59.163895

>  <PEOE_VSA-2>
0

>  <PEOE_VSA-3>
23.817272

>  <PEOE_VSA-4>
0

>  <PEOE_VSA-5>
21.753254

>  <PEOE_VSA-6>
2.6406472

>  <PEOE_VSA_FHYD>
0.83586001

>  <PEOE_VSA_FNEG>
0.47456884

>  <PEOE_VSA_FPNEG>
0.071662821

>  <PEOE_VSA_FPOL>
0.16414

>  <PEOE_VSA_FPOS>
0.52543116

>  <PEOE_VSA_FPPOS>
0.09247718

>  <PEOE_VSA_HYD>
284.52527

>  <PEOE_VSA_NEG>
161.5424

>  <PEOE_VSA_PNEG>
24.3939

>  <PEOE_VSA_POL>
55.872971

>  <PEOE_VSA_POS>
178.85585

>  <PEOE_VSA_PPOS>
31.479071

>  <petitjean>
0.5

>  <petitjeanSC>
1

>  <Q_PC+>
0

>  <Q_PC->
0

>  <Q_RPC+>
0

>  <Q_RPC->
0

>  <Q_VSA_FHYD>
1

>  <Q_VSA_FNEG>
0

>  <Q_VSA_FPNEG>
0

>  <Q_VSA_FPOL>
0

>  <Q_VSA_FPOS>
1

>  <Q_VSA_FPPOS>
0

>  <Q_VSA_HYD>
340.39825

>  <Q_VSA_NEG>
0

>  <Q_VSA_PNEG>
0

>  <Q_VSA_POL>
0

>  <Q_VSA_POS>
340.39825

>  <Q_VSA_PPOS>
0

>  <radius>
6

>  <reactive>
0

>  <rings>
3

>  <RPC+>
0

>  <RPC->
0

>  <rsynth>
1

>  <SlogP>
5.0309

>  <SlogP_VSA0>
21.999775

>  <SlogP_VSA1>
40.055065

>  <SlogP_VSA2>
18.339535

>  <SlogP_VSA3>
20.926258

>  <SlogP_VSA4>
31.458588

>  <SlogP_VSA5>
0

>  <SlogP_VSA6>
7.0012131

>  <SlogP_VSA7>
87.358269

>  <SlogP_VSA8>
37.736813

>  <SlogP_VSA9>
121.46112

>  <SMR>
9.3503199

>  <SMR_VSA0>
23.862217

>  <SMR_VSA1>
68.705528

>  <SMR_VSA2>
4.4107962

>  <SMR_VSA3>
39.01318

>  <SMR_VSA4>
20.767498

>  <SMR_VSA5>
125.09508

>  <SMR_VSA6>
26.185041

>  <SMR_VSA7>
78.297287

>  <TPSA>
60.450001

>  <VAdjEq>
0.41210872

>  <VAdjMa>
5.8073549

>  <VDistEq>
3.4612992

>  <VDistMa>
9.1162252

>  <vdw_area>
340.39825

>  <vdw_vol>
444.43231

>  <vsa_acc>
24.25701

>  <vsa_acid>
0

>  <vsa_base>
0

>  <vsa_don>
5.6825762

>  <vsa_hyd>
283.83743

>  <vsa_other>
12.949531

>  <vsa_pol>
29.939585

>  <Weight>
403.21198

>  <weinerPath>
1769

>  <weinerPol>
38

>  <zagreb>
134

$$$$