O(C[C@@H](O)CNC(C)C)c1c2c(ccc1)cccc2
  MOE2013           2D

 19 20  0  0  1  0  0  0  0  0999 V2000
    0.0000    0.0000    0.0000 O   0  0  0  0  0  0  0  0  0  0  0  0
    1.2990    0.7500    0.0000 C   0  0  0  0  0  0  0  0  0  0  0  0
    2.5980    0.0000    0.0000 C   0  0  1  0  0  0  0  0  0  0  0  0
    2.5980   -1.5000    0.0000 O   0  0  0  0  0  0  0  0  0  0  0  0
    3.8970    0.7500    0.0000 C   0  0  0  0  0  0  0  0  0  0  0  0
    5.1960    0.0000    0.0000 N   0  0  0  0  0  0  0  0  0  0  0  0
    6.4950    0.7500    0.0000 C   0  0  0  0  0  0  0  0  0  0  0  0
    7.7940    0.0000    0.0000 C   0  0  0  0  0  0  0  0  0  0  0  0
    6.4950    2.2500    0.0000 C   0  0  0  0  0  0  0  0  0  0  0  0
   -1.2990    0.7500    0.0000 C   0  0  0  0  0  0  0  0  0  0  0  0
   -2.5980    0.0000    0.0000 C   0  0  0  0  0  0  0  0  0  0  0  0
   -3.8970    0.7500    0.0000 C   0  0  0  0  0  0  0  0  0  0  0  0
   -3.8970    2.2500    0.0000 C   0  0  0  0  0  0  0  0  0  0  0  0
   -2.5980    3.0000    0.0000 C   0  0  0  0  0  0  0  0  0  0  0  0
   -1.2990    2.2500    0.0000 C   0  0  0  0  0  0  0  0  0  0  0  0
   -5.1960    0.0000    0.0000 C   0  0  0  0  0  0  0  0  0  0  0  0
   -5.1960   -1.5000    0.0000 C   0  0  0  0  0  0  0  0  0  0  0  0
   -3.8970   -2.2500    0.0000 C   0  0  0  0  0  0  0  0  0  0  0  0
   -2.5980   -1.5000    0.0000 C   0  0  0  0  0  0  0  0  0  0  0  0
  1  2  1  0  0  0  0
  1 10  1  0  0  0  0
  2  3  1  0  0  0  0
  3  4  1  6  0  0  0
  3  5  1  0  0  0  0
  5  6  1  0  0  0  0
  6  7  1  0  0  0  0
  7  8  1  0  0  0  0
  7  9  1  0  0  0  0
 10 11  1  0  0  0  0
 10 15  2  0  0  0  0
 11 12  2  0  0  0  0
 11 19  1  0  0  0  0
 12 13  1  0  0  0  0
 12 16  1  0  0  0  0
 13 14  2  0  0  0  0
 14 15  1  0  0  0  0
 16 17  2  0  0  0  0
 17 18  1  0  0  0  0
 18 19  2  0  0  0  0
M  END
>  <Index>
912

>  <ID>
HT1763

>  <class>
0

>  <apol>
44.866653

>  <ast_fraglike>
1

>  <ast_fraglike_ext>
0

>  <ast_violation>
0

>  <ast_violation_ext>
1

>  <a_acc>
3

>  <a_acid>
0

>  <a_aro>
10

>  <a_base>
0

>  <a_count>
40

>  <a_don>
2

>  <a_donacc>
5

>  <a_heavy>
19

>  <a_hyd>
16

>  <a_IC>
54.638458

>  <a_ICM>
1.3659614

>  <a_nB>
0

>  <a_nBr>
0

>  <a_nC>
16

>  <a_nCl>
0

>  <a_nF>
0

>  <a_nH>
21

>  <a_nI>
0

>  <a_nN>
1

>  <a_nO>
2

>  <a_nP>
0

>  <a_nS>
0

>  <balabanJ>
1.7214029

>  <BCUT_PEOE_0>
-2.6556277

>  <BCUT_PEOE_1>
-0.53371018

>  <BCUT_PEOE_2>
0.60639012

>  <BCUT_PEOE_3>
2.598294

>  <BCUT_SLOGP_0>
-2.8162746

>  <BCUT_SLOGP_1>
-0.48806208

>  <BCUT_SLOGP_2>
0.65175492

>  <BCUT_SLOGP_3>
2.5241952

>  <BCUT_SMR_0>
-2.3942652

>  <BCUT_SMR_1>
-0.41052818

>  <BCUT_SMR_2>
0.71554154

>  <BCUT_SMR_3>
2.8450408

>  <bpol>
25.533346

>  <b_1rotN>
6

>  <b_1rotR>
0.30000001

>  <b_ar>
11

>  <b_count>
41

>  <b_double>
0

>  <b_heavy>
20

>  <b_max1len>
7

>  <b_rotN>
6

>  <b_rotR>
0.30000001

>  <b_single>
30

>  <b_triple>
0

>  <chi0>
13.664926

>  <chi0v>
11.465828

>  <chi0v_C>
10.110366

>  <chi0_C>
11.250712

>  <chi1>
9.1647034

>  <chi1v>
6.685791

>  <chi1v_C>
5.2925644

>  <chi1_C>
6.7708569

>  <chiral>
1

>  <chiral_u>
0

>  <density>
0.67726994

>  <diameter>
11

>  <FCharge>
0

>  <GCUT_PEOE_0>
-0.84581339

>  <GCUT_PEOE_1>
-0.3644008

>  <GCUT_PEOE_2>
0.076439716

>  <GCUT_PEOE_3>
2.5032368

>  <GCUT_SLOGP_0>
-1.1534548

>  <GCUT_SLOGP_1>
-0.35613731

>  <GCUT_SLOGP_2>
0.13959073

>  <GCUT_SLOGP_3>
2.586658

>  <GCUT_SMR_0>
-0.52159369

>  <GCUT_SMR_1>
-0.19923459

>  <GCUT_SMR_2>
0.16494144

>  <GCUT_SMR_3>
2.7723877

>  <Kier1>
15.39

>  <Kier2>
7.6952662

>  <Kier3>
4.7950053

>  <KierA1>
12.340882

>  <KierA2>
6.089324

>  <KierA3>
3.7551539

>  <KierFlex>
3.9551384

>  <lip_acc>
3

>  <lip_don>
2

>  <lip_druglike>
1

>  <lip_violation>
0

>  <logP(o/w)>
2.921

>  <logS>
-3.53196

>  <mr>
7.7901144

>  <mutagenic>
0

>  <nmol>
1

>  <opr_brigid>
11

>  <opr_leadlike>
1

>  <opr_nring>
2

>  <opr_nrot>
6

>  <opr_violation>
0

>  <PC+>
0

>  <PC->
0

>  <PEOE_PC+>
1.5277174

>  <PEOE_PC->
-1.5277174

>  <PEOE_RPC+>
0.13741516

>  <PEOE_RPC->
0.2541292

>  <PEOE_VSA+0>
56.935299

>  <PEOE_VSA+1>
70.968605

>  <PEOE_VSA+2>
8.6190128

>  <PEOE_VSA+3>
0

>  <PEOE_VSA+4>
10.324173

>  <PEOE_VSA+5>
0

>  <PEOE_VSA+6>
0

>  <PEOE_VSA-0>
51.958797

>  <PEOE_VSA-1>
73.529427

>  <PEOE_VSA-2>
0

>  <PEOE_VSA-3>
0

>  <PEOE_VSA-4>
0

>  <PEOE_VSA-5>
0

>  <PEOE_VSA-6>
10.408187

>  <PEOE_VSA_FHYD>
0.92667431

>  <PEOE_VSA_FNEG>
0.48063496

>  <PEOE_VSA_FPNEG>
0.036811411

>  <PEOE_VSA_FPOL>
0.073325686

>  <PEOE_VSA_FPOS>
0.51936501

>  <PEOE_VSA_FPPOS>
0.036514271

>  <PEOE_VSA_HYD>
262.01114

>  <PEOE_VSA_NEG>
135.89641

>  <PEOE_VSA_PNEG>
10.408187

>  <PEOE_VSA_POL>
20.732361

>  <PEOE_VSA_POS>
146.84709

>  <PEOE_VSA_PPOS>
10.324173

>  <petitjean>
0.45454547

>  <petitjeanSC>
0.83333331

>  <Q_PC+>
0

>  <Q_PC->
0

>  <Q_RPC+>
0

>  <Q_RPC->
0

>  <Q_VSA_FHYD>
1

>  <Q_VSA_FNEG>
0

>  <Q_VSA_FPNEG>
0

>  <Q_VSA_FPOL>
0

>  <Q_VSA_FPOS>
1

>  <Q_VSA_FPPOS>
0

>  <Q_VSA_HYD>
282.7435

>  <Q_VSA_NEG>
0

>  <Q_VSA_PNEG>
0

>  <Q_VSA_POL>
0

>  <Q_VSA_POS>
282.7435

>  <Q_VSA_PPOS>
0

>  <radius>
6

>  <reactive>
0

>  <rings>
2

>  <RPC+>
0

>  <RPC->
0

>  <rsynth>
1

>  <SlogP>
2.5775001

>  <SlogP_VSA0>
54.395866

>  <SlogP_VSA1>
0

>  <SlogP_VSA2>
10.450618

>  <SlogP_VSA3>
39.365837

>  <SlogP_VSA4>
0

>  <SlogP_VSA5>
0

>  <SlogP_VSA6>
0

>  <SlogP_VSA7>
128.64822

>  <SlogP_VSA8>
0

>  <SlogP_VSA9>
71.895454

>  <SMR>
7.85885

>  <SMR_VSA0>
0

>  <SMR_VSA1>
36.385113

>  <SMR_VSA2>
18.01075

>  <SMR_VSA3>
15.694046

>  <SMR_VSA4>
5.1459289

>  <SMR_VSA5>
123.50229

>  <SMR_VSA6>
39.365837

>  <SMR_VSA7>
66.652031

>  <TPSA>
41.490002

>  <VAdjEq>
0.5023343

>  <VAdjMa>
5.321928

>  <VDistEq>
3.2804704

>  <VDistMa>
8.1682978

>  <vdw_area>
282.7435

>  <vdw_vol>
382.93295

>  <vsa_acc>
2.503756

>  <vsa_acid>
0

>  <vsa_base>
0

>  <vsa_don>
0

>  <vsa_hyd>
239.86801

>  <vsa_other>
0

>  <vsa_pol>
21.753254

>  <Weight>
259.349

>  <weinerPath>
792

>  <weinerPol>
25

>  <zagreb>
92

$$$$