S(=O)(=O)(C)c1ccc(cc1)C=1COC(=O)C=1c1ccccc1
  MOE2013           2D

 22 24  0  0  0  0  0  0  0  0999 V2000
    0.0000    0.0000    0.0000 S   0  0  0  0  0  0  0  0  0  0  0  0
    0.7600    1.2940    0.0000 O   0  0  0  0  0  0  0  0  0  0  0  0
   -0.7600   -1.2940    0.0000 O   0  0  0  0  0  0  0  0  0  0  0  0
    1.2940   -0.7600    0.0000 C   0  0  0  0  0  0  0  0  0  0  0  0
   -1.2940    0.7600    0.0000 C   0  0  0  0  0  0  0  0  0  0  0  0
   -2.5980    0.0190    0.0000 C   0  0  0  0  0  0  0  0  0  0  0  0
   -3.8920    0.7790    0.0000 C   0  0  0  0  0  0  0  0  0  0  0  0
   -3.8810    2.2790    0.0000 C   0  0  0  0  0  0  0  0  0  0  0  0
   -2.5760    3.0190    0.0000 C   0  0  0  0  0  0  0  0  0  0  0  0
   -1.2820    2.2590    0.0000 C   0  0  0  0  0  0  0  0  0  0  0  0
   -5.1740    3.0380    0.0000 C   0  0  0  0  0  0  0  0  0  0  0  0
   -5.3200    4.5310    0.0000 C   0  0  0  0  0  0  0  0  0  0  0  0
   -6.7850    4.8540    0.0000 O   0  0  0  0  0  0  0  0  0  0  0  0
   -7.5440    3.5600    0.0000 C   0  0  0  0  0  0  0  0  0  0  0  0
   -9.0370    3.4140    0.0000 O   0  0  0  0  0  0  0  0  0  0  0  0
   -6.5490    2.4380    0.0000 C   0  0  0  0  0  0  0  0  0  0  0  0
   -6.8710    0.9730    0.0000 C   0  0  0  0  0  0  0  0  0  0  0  0
   -5.7640   -0.0390    0.0000 C   0  0  0  0  0  0  0  0  0  0  0  0
   -6.0870   -1.5040    0.0000 C   0  0  0  0  0  0  0  0  0  0  0  0
   -7.5170   -1.9570    0.0000 C   0  0  0  0  0  0  0  0  0  0  0  0
   -8.6240   -0.9450    0.0000 C   0  0  0  0  0  0  0  0  0  0  0  0
   -8.3010    0.5200    0.0000 C   0  0  0  0  0  0  0  0  0  0  0  0
  1  2  2  0  0  0  0
  1  3  2  0  0  0  0
  1  4  1  0  0  0  0
  1  5  1  0  0  0  0
  5  6  1  0  0  0  0
  5 10  2  0  0  0  0
  6  7  2  0  0  0  0
  7  8  1  0  0  0  0
  8  9  2  0  0  0  0
  8 11  1  0  0  0  0
  9 10  1  0  0  0  0
 11 12  1  0  0  0  0
 11 16  2  0  0  0  0
 12 13  1  0  0  0  0
 13 14  1  0  0  0  0
 14 15  2  0  0  0  0
 14 16  1  0  0  0  0
 16 17  1  0  0  0  0
 17 18  1  0  0  0  0
 17 22  2  0  0  0  0
 18 19  2  0  0  0  0
 19 20  1  0  0  0  0
 20 21  2  0  0  0  0
 21 22  1  0  0  0  0
M  END
>  <Index>
954

>  <ID>
HT1838

>  <class>
0

>  <apol>
45.363102

>  <ast_fraglike>
0

>  <ast_fraglike_ext>
0

>  <ast_violation>
1

>  <ast_violation_ext>
1

>  <a_acc>
3

>  <a_acid>
0

>  <a_aro>
12

>  <a_base>
0

>  <a_count>
36

>  <a_don>
0

>  <a_donacc>
3

>  <a_heavy>
22

>  <a_hyd>
16

>  <a_IC>
55.327461

>  <a_ICM>
1.5368739

>  <a_nB>
0

>  <a_nBr>
0

>  <a_nC>
17

>  <a_nCl>
0

>  <a_nF>
0

>  <a_nH>
14

>  <a_nI>
0

>  <a_nN>
0

>  <a_nO>
4

>  <a_nP>
0

>  <a_nS>
1

>  <balabanJ>
1.6185955

>  <BCUT_PEOE_0>
-2.4206667

>  <BCUT_PEOE_1>
-0.61029458

>  <BCUT_PEOE_2>
0.70238882

>  <BCUT_PEOE_3>
2.4484589

>  <BCUT_SLOGP_0>
-2.4349463

>  <BCUT_SLOGP_1>
-0.51975769

>  <BCUT_SLOGP_2>
0.805125

>  <BCUT_SLOGP_3>
2.4877865

>  <BCUT_SMR_0>
-2.0516729

>  <BCUT_SMR_1>
-0.44635156

>  <BCUT_SMR_2>
0.85431087

>  <BCUT_SMR_3>
2.7951374

>  <bpol>
24.654898

>  <b_1rotN>
3

>  <b_1rotR>
0.125

>  <b_ar>
12

>  <b_count>
38

>  <b_double>
2

>  <b_heavy>
24

>  <b_max1len>
3

>  <b_rotN>
3

>  <b_rotR>
0.125

>  <b_single>
24

>  <b_triple>
0

>  <chi0>
15.742276

>  <chi0v>
12.760997

>  <chi0v_C>
9.9032593

>  <chi0_C>
11.53517

>  <chi1>
10.465345

>  <chi1v>
8.6196451

>  <chi1v_C>
5.0856042

>  <chi1_C>
7.1910715

>  <chiral>
0

>  <chiral_u>
0

>  <density>
0.79159713

>  <diameter>
11

>  <FCharge>
0

>  <GCUT_PEOE_0>
-0.88748926

>  <GCUT_PEOE_1>
-0.4162423

>  <GCUT_PEOE_2>
0.081896432

>  <GCUT_PEOE_3>
2.5126395

>  <GCUT_SLOGP_0>
-0.8480559

>  <GCUT_SLOGP_1>
-0.28540736

>  <GCUT_SLOGP_2>
0.16445385

>  <GCUT_SLOGP_3>
2.6016924

>  <GCUT_SMR_0>
-0.47257969

>  <GCUT_SMR_1>
-0.20170927

>  <GCUT_SMR_2>
0.19305076

>  <GCUT_SMR_3>
2.8128471

>  <Kier1>
16.84375

>  <Kier2>
6.8571429

>  <Kier3>
3.7530863

>  <KierA1>
13.288906

>  <KierA2>
5.3445201

>  <KierA3>
2.8994508

>  <KierFlex>
3.2283101

>  <lip_acc>
4

>  <lip_don>
0

>  <lip_druglike>
1

>  <lip_violation>
0

>  <logP(o/w)>
3.0910001

>  <logS>
-4.34904

>  <mr>
8.4841766

>  <mutagenic>
0

>  <nmol>
1

>  <opr_brigid>
17

>  <opr_leadlike>
1

>  <opr_nring>
3

>  <opr_nrot>
3

>  <opr_violation>
0

>  <PC+>
0

>  <PC->
0

>  <PEOE_PC+>
2.0466154

>  <PEOE_PC->
-2.0466154

>  <PEOE_RPC+>
0.14416148

>  <PEOE_RPC->
0.23098101

>  <PEOE_VSA+0>
24.509808

>  <PEOE_VSA+1>
64.079079

>  <PEOE_VSA+2>
12.796158

>  <PEOE_VSA+3>
20.72374

>  <PEOE_VSA+4>
0

>  <PEOE_VSA+5>
18.893101

>  <PEOE_VSA+6>
0

>  <PEOE_VSA-0>
31.135427

>  <PEOE_VSA-1>
61.274521

>  <PEOE_VSA-2>
6.5127993

>  <PEOE_VSA-3>
0

>  <PEOE_VSA-4>
0

>  <PEOE_VSA-5>
13.566921

>  <PEOE_VSA-6>
34.520279

>  <PEOE_VSA_FHYD>
0.76743907

>  <PEOE_VSA_FNEG>
0.51043022

>  <PEOE_VSA_FPNEG>
0.16696259

>  <PEOE_VSA_FPOL>
0.23256093

>  <PEOE_VSA_FPOS>
0.48956975

>  <PEOE_VSA_FPPOS>
0.065598346

>  <PEOE_VSA_HYD>
221.03152

>  <PEOE_VSA_NEG>
147.00995

>  <PEOE_VSA_PNEG>
48.0872

>  <PEOE_VSA_POL>
66.980301

>  <PEOE_VSA_POS>
141.00188

>  <PEOE_VSA_PPOS>
18.893101

>  <petitjean>
0.45454547

>  <petitjeanSC>
0.83333331

>  <Q_PC+>
0

>  <Q_PC->
0

>  <Q_RPC+>
0

>  <Q_RPC->
0

>  <Q_VSA_FHYD>
1

>  <Q_VSA_FNEG>
0

>  <Q_VSA_FPNEG>
0

>  <Q_VSA_FPOL>
0

>  <Q_VSA_FPOS>
1

>  <Q_VSA_FPPOS>
0

>  <Q_VSA_HYD>
288.01184

>  <Q_VSA_NEG>
0

>  <Q_VSA_PNEG>
0

>  <Q_VSA_POL>
0

>  <Q_VSA_POS>
288.01184

>  <Q_VSA_PPOS>
0

>  <radius>
6

>  <reactive>
0

>  <rings>
3

>  <RPC+>
0

>  <RPC->
0

>  <rsynth>
1

>  <SlogP>
2.5576999

>  <SlogP_VSA0>
0

>  <SlogP_VSA1>
55.917152

>  <SlogP_VSA2>
41.741371

>  <SlogP_VSA3>
20.926258

>  <SlogP_VSA4>
6.37115

>  <SlogP_VSA5>
33.241909

>  <SlogP_VSA6>
0

>  <SlogP_VSA7>
165.15981

>  <SlogP_VSA8>
0

>  <SlogP_VSA9>
0

>  <SMR>
8.3766804

>  <SMR_VSA0>
83.033791

>  <SMR_VSA1>
0

>  <SMR_VSA2>
1.5507339

>  <SMR_VSA3>
6.37115

>  <SMR_VSA4>
6.37115

>  <SMR_VSA5>
158.78867

>  <SMR_VSA6>
28.671722

>  <SMR_VSA7>
38.570442

>  <TPSA>
60.439999

>  <VAdjEq>
0.46637034

>  <VAdjMa>
5.5849624

>  <VDistEq>
3.2554903

>  <VDistMa>
8.6188564

>  <vdw_area>
288.01184

>  <vdw_vol>
397.12247

>  <vsa_acc>
45.583443

>  <vsa_acid>
0

>  <vsa_base>
0

>  <vsa_don>
0

>  <vsa_hyd>
208.73819

>  <vsa_other>
23.725054

>  <vsa_pol>
45.583443

>  <Weight>
314.36099

>  <weinerPath>
1061

>  <weinerPol>
34

>  <zagreb>
118

$$$$