N([C@@H](Cc1ccccc1)C)(CC#C)C
  MOE2013           2D

 14 14  0  0  1  0  0  0  0  0999 V2000
    0.0000    0.0000    0.0000 N   0  0  3  0  0  0  0  0  0  0  0  0
   -1.5000   -0.0120    0.0000 C   0  0  1  0  0  0  0  0  0  0  0  0
   -2.2390   -1.3170    0.0000 C   0  0  0  0  0  0  0  0  0  0  0  0
   -3.7390   -1.3290    0.0000 C   0  0  0  0  0  0  0  0  0  0  0  0
   -4.5000   -0.0360    0.0000 C   0  0  0  0  0  0  0  0  0  0  0  0
   -6.0000   -0.0480    0.0000 C   0  0  0  0  0  0  0  0  0  0  0  0
   -6.7390   -1.3530    0.0000 C   0  0  0  0  0  0  0  0  0  0  0  0
   -5.9790   -2.6460    0.0000 C   0  0  0  0  0  0  0  0  0  0  0  0
   -4.4790   -2.6340    0.0000 C   0  0  0  0  0  0  0  0  0  0  0  0
   -2.2600    1.2810    0.0000 C   0  0  0  0  0  0  0  0  0  0  0  0
    0.7400    1.3050    0.0000 C   0  0  0  0  0  0  0  0  0  0  0  0
    2.2390    1.3170    0.0000 C   0  0  0  0  0  0  0  0  0  0  0  0
    3.7390    1.3290    0.0000 C   0  0  0  0  0  0  0  0  0  0  0  0
    0.7600   -1.2930    0.0000 C   0  0  0  0  0  0  0  0  0  0  0  0
  1  2  1  0  0  0  0
  1 11  1  0  0  0  0
  1 14  1  0  0  0  0
  2  3  1  0  0  0  0
  2 10  1  1  0  0  0
  3  4  1  0  0  0  0
  4  5  1  0  0  0  0
  4  9  2  0  0  0  0
  5  6  2  0  0  0  0
  6  7  1  0  0  0  0
  7  8  2  0  0  0  0
  8  9  1  0  0  0  0
 11 12  1  0  0  0  0
 12 13  3  0  0  0  0
M  END
>  <Index>
974

>  <ID>
HT1874

>  <class>
0

>  <apol>
35.315479

>  <ast_fraglike>
1

>  <ast_fraglike_ext>
0

>  <ast_violation>
0

>  <ast_violation_ext>
1

>  <a_acc>
1

>  <a_acid>
0

>  <a_aro>
6

>  <a_base>
0

>  <a_count>
31

>  <a_don>
0

>  <a_donacc>
1

>  <a_heavy>
14

>  <a_hyd>
13

>  <a_IC>
35.987499

>  <a_ICM>
1.1608871

>  <a_nB>
0

>  <a_nBr>
0

>  <a_nC>
13

>  <a_nCl>
0

>  <a_nF>
0

>  <a_nH>
17

>  <a_nI>
0

>  <a_nN>
1

>  <a_nO>
0

>  <a_nP>
0

>  <a_nS>
0

>  <balabanJ>
2.2126582

>  <BCUT_PEOE_0>
-2.6643507

>  <BCUT_PEOE_1>
-0.51596409

>  <BCUT_PEOE_2>
0.5795843

>  <BCUT_PEOE_3>
2.5807824

>  <BCUT_SLOGP_0>
-2.727324

>  <BCUT_SLOGP_1>
-0.41626218

>  <BCUT_SLOGP_2>
0.67636085

>  <BCUT_SLOGP_3>
2.5611761

>  <BCUT_SMR_0>
-2.3888326

>  <BCUT_SMR_1>
-0.38966149

>  <BCUT_SMR_2>
0.7119301

>  <BCUT_SMR_3>
2.8511963

>  <bpol>
20.56452

>  <b_1rotN>
4

>  <b_1rotR>
0.2857143

>  <b_ar>
6

>  <b_count>
31

>  <b_double>
0

>  <b_heavy>
14

>  <b_max1len>
5

>  <b_rotN>
5

>  <b_rotR>
0.35714287

>  <b_single>
24

>  <b_triple>
1

>  <chi0>
10.388906

>  <chi0v>
8.9028788

>  <chi0v_C>
8.4556656

>  <chi0_C>
9.8115549

>  <chi1>
6.736382

>  <chi1v>
4.9137044

>  <chi1v_C>
3.8920641

>  <chi1_C>
5.4174504

>  <chiral>
1

>  <chiral_u>
0

>  <density>
0.6120984

>  <diameter>
9

>  <FCharge>
0

>  <GCUT_PEOE_0>
-0.84588557

>  <GCUT_PEOE_1>
-0.33847386

>  <GCUT_PEOE_2>
0.058691703

>  <GCUT_PEOE_3>
2.4390728

>  <GCUT_SLOGP_0>
-0.95586294

>  <GCUT_SLOGP_1>
-0.26386139

>  <GCUT_SLOGP_2>
0.13814448

>  <GCUT_SLOGP_3>
2.4900761

>  <GCUT_SMR_0>
-0.52209574

>  <GCUT_SMR_1>
-0.18020897

>  <GCUT_SMR_2>
0.15743586

>  <GCUT_SMR_3>
2.7006249

>  <Kier1>
12.071428

>  <Kier2>
6.4775085

>  <Kier3>
4.3878117

>  <KierA1>
9.0482664

>  <KierA2>
4.7367992

>  <KierA3>
3.1482496

>  <KierFlex>
3.0614157

>  <lip_acc>
1

>  <lip_don>
0

>  <lip_druglike>
1

>  <lip_violation>
0

>  <logP(o/w)>
2.8110001

>  <logS>
-2.5636599

>  <mr>
6.1193409

>  <mutagenic>
0

>  <nmol>
1

>  <opr_brigid>
7

>  <opr_leadlike>
1

>  <opr_nring>
1

>  <opr_nrot>
5

>  <opr_violation>
0

>  <PC+>
0

>  <PC->
0

>  <PEOE_PC+>
0.92017168

>  <PEOE_PC->
-0.92017168

>  <PEOE_RPC+>
0.1334928

>  <PEOE_RPC->
0.31687397

>  <PEOE_VSA+0>
41.534435

>  <PEOE_VSA+1>
43.050026

>  <PEOE_VSA+2>
4.2653861

>  <PEOE_VSA+3>
0

>  <PEOE_VSA+4>
0

>  <PEOE_VSA+5>
0

>  <PEOE_VSA+6>
0

>  <PEOE_VSA-0>
52.896221

>  <PEOE_VSA-1>
77.083015

>  <PEOE_VSA-2>
25.854858

>  <PEOE_VSA-3>
0

>  <PEOE_VSA-4>
0

>  <PEOE_VSA-5>
0

>  <PEOE_VSA-6>
0

>  <PEOE_VSA_FHYD>
1

>  <PEOE_VSA_FNEG>
0.63687915

>  <PEOE_VSA_FPNEG>
0

>  <PEOE_VSA_FPOL>
0

>  <PEOE_VSA_FPOS>
0.36312088

>  <PEOE_VSA_FPPOS>
0

>  <PEOE_VSA_HYD>
244.68394

>  <PEOE_VSA_NEG>
155.83409

>  <PEOE_VSA_PNEG>
0

>  <PEOE_VSA_POL>
0

>  <PEOE_VSA_POS>
88.849846

>  <PEOE_VSA_PPOS>
0

>  <petitjean>
0.44444445

>  <petitjeanSC>
0.80000001

>  <Q_PC+>
0

>  <Q_PC->
0

>  <Q_RPC+>
0

>  <Q_RPC->
0

>  <Q_VSA_FHYD>
1

>  <Q_VSA_FNEG>
0

>  <Q_VSA_FPNEG>
0

>  <Q_VSA_FPOL>
0

>  <Q_VSA_FPOS>
1

>  <Q_VSA_FPPOS>
0

>  <Q_VSA_HYD>
244.68394

>  <Q_VSA_NEG>
0

>  <Q_VSA_PNEG>
0

>  <Q_VSA_POL>
0

>  <Q_VSA_POS>
244.68394

>  <Q_VSA_PPOS>
0

>  <radius>
5

>  <reactive>
0

>  <rings>
1

>  <RPC+>
0

>  <RPC->
0

>  <rsynth>
1

>  <SlogP>
2.1825781

>  <SlogP_VSA0>
0

>  <SlogP_VSA1>
3.1243138

>  <SlogP_VSA2>
3.9819686

>  <SlogP_VSA3>
35.47015

>  <SlogP_VSA4>
34.673759

>  <SlogP_VSA5>
51.765594

>  <SlogP_VSA6>
0

>  <SlogP_VSA7>
88.215919

>  <SlogP_VSA8>
0

>  <SlogP_VSA9>
33.326015

>  <SMR>
6.1071

>  <SMR_VSA0>
0

>  <SMR_VSA1>
3.1243138

>  <SMR_VSA2>
0

>  <SMR_VSA3>
24.198118

>  <SMR_VSA4>
0

>  <SMR_VSA5>
107.08433

>  <SMR_VSA6>
49.927761

>  <SMR_VSA7>
66.223206

>  <TPSA>
3.24

>  <VAdjEq>
0.59167278

>  <VAdjMa>
4.8073549

>  <VDistEq>
2.9175849

>  <VDistMa>
7.2855659

>  <vdw_area>
244.68394

>  <vdw_vol>
305.97369

>  <vsa_acc>
0

>  <vsa_acid>
0

>  <vsa_base>
0

>  <vsa_don>
0

>  <vsa_hyd>
232.58342

>  <vsa_other>
0

>  <vsa_pol>
0

>  <Weight>
187.286

>  <weinerPath>
337

>  <weinerPol>
16

>  <zagreb>
62

$$$$