O(C(=O)c1ccc(N)cc1)CCN(CC)CC
  MOE2013           2D

 17 17  0  0  0  0  0  0  0  0999 V2000
    0.0000    0.0000    0.0000 O   0  0  0  0  0  0  0  0  0  0  0  0
    0.7530   -1.2970    0.0000 C   0  0  0  0  0  0  0  0  0  0  0  0
    0.0060   -2.5980    0.0000 O   0  0  0  0  0  0  0  0  0  0  0  0
    2.2530   -1.2940    0.0000 C   0  0  0  0  0  0  0  0  0  0  0  0
    3.0060   -2.5910    0.0000 C   0  0  0  0  0  0  0  0  0  0  0  0
    4.5060   -2.5880    0.0000 C   0  0  0  0  0  0  0  0  0  0  0  0
    5.2530   -1.2870    0.0000 C   0  0  0  0  0  0  0  0  0  0  0  0
    6.7530   -1.2840    0.0000 N   0  0  0  0  0  0  0  0  0  0  0  0
    4.5000    0.0100    0.0000 C   0  0  0  0  0  0  0  0  0  0  0  0
    3.0000    0.0070    0.0000 C   0  0  0  0  0  0  0  0  0  0  0  0
   -1.5000   -0.0030    0.0000 C   0  0  0  0  0  0  0  0  0  0  0  0
   -2.2530    1.2940    0.0000 C   0  0  0  0  0  0  0  0  0  0  0  0
   -3.7530    1.2910    0.0000 N   0  0  0  0  0  0  0  0  0  0  0  0
   -4.5000   -0.0100    0.0000 C   0  0  0  0  0  0  0  0  0  0  0  0
   -6.0000   -0.0130    0.0000 C   0  0  0  0  0  0  0  0  0  0  0  0
   -4.5060    2.5880    0.0000 C   0  0  0  0  0  0  0  0  0  0  0  0
   -3.7590    3.8890    0.0000 C   0  0  0  0  0  0  0  0  0  0  0  0
  1  2  1  0  0  0  0
  1 11  1  0  0  0  0
  2  3  2  0  0  0  0
  2  4  1  0  0  0  0
  4  5  1  0  0  0  0
  4 10  2  0  0  0  0
  5  6  2  0  0  0  0
  6  7  1  0  0  0  0
  7  8  1  0  0  0  0
  7  9  2  0  0  0  0
  9 10  1  0  0  0  0
 11 12  1  0  0  0  0
 12 13  1  0  0  0  0
 13 14  1  0  0  0  0
 13 16  1  0  0  0  0
 14 15  1  0  0  0  0
 16 17  1  0  0  0  0
M  END
>  <Index>
903

>  <ID>
HT1744

>  <class>
0

>  <apol>
40.019859

>  <ast_fraglike>
1

>  <ast_fraglike_ext>
0

>  <ast_violation>
0

>  <ast_violation_ext>
1

>  <a_acc>
2

>  <a_acid>
0

>  <a_aro>
6

>  <a_base>
0

>  <a_count>
37

>  <a_don>
1

>  <a_donacc>
3

>  <a_heavy>
17

>  <a_hyd>
12

>  <a_IC>
54.205498

>  <a_ICM>
1.4650134

>  <a_nB>
0

>  <a_nBr>
0

>  <a_nC>
13

>  <a_nCl>
0

>  <a_nF>
0

>  <a_nH>
20

>  <a_nI>
0

>  <a_nN>
2

>  <a_nO>
2

>  <a_nP>
0

>  <a_nS>
0

>  <balabanJ>
2.1465437

>  <BCUT_PEOE_0>
-2.6683707

>  <BCUT_PEOE_1>
-0.22727312

>  <BCUT_PEOE_2>
0.12392076

>  <BCUT_PEOE_3>
2.5710793

>  <BCUT_SLOGP_0>
-2.7461231

>  <BCUT_SLOGP_1>
-0.054522671

>  <BCUT_SLOGP_2>
0.25714323

>  <BCUT_SLOGP_3>
2.5215604

>  <BCUT_SMR_0>
-2.3931015

>  <BCUT_SMR_1>
0.055369794

>  <BCUT_SMR_2>
0.21110429

>  <BCUT_SMR_3>
2.8357272

>  <bpol>
26.05814

>  <b_1rotN>
6

>  <b_1rotR>
0.35294119

>  <b_ar>
6

>  <b_count>
37

>  <b_double>
1

>  <b_heavy>
17

>  <b_max1len>
6

>  <b_rotN>
7

>  <b_rotR>
0.41176471

>  <b_single>
30

>  <b_triple>
0

>  <chi0>
12.673362

>  <chi0v>
10.478889

>  <chi0v_C>
8.6378279

>  <chi0_C>
9.3889055

>  <chi1>
8.1682339

>  <chi1v>
5.9198627

>  <chi1v_C>
3.9855807

>  <chi1_C>
4.8805399

>  <chiral>
0

>  <chiral_u>
0

>  <density>
0.68638623

>  <diameter>
11

>  <FCharge>
0

>  <GCUT_PEOE_0>
-0.85589153

>  <GCUT_PEOE_1>
-0.38251999

>  <GCUT_PEOE_2>
-0.036079243

>  <GCUT_PEOE_3>
2.4152577

>  <GCUT_SLOGP_0>
-1.3342789

>  <GCUT_SLOGP_1>
-0.26386139

>  <GCUT_SLOGP_2>
0.054200001

>  <GCUT_SLOGP_3>
2.4288814

>  <GCUT_SMR_0>
-0.52180588

>  <GCUT_SMR_1>
-0.12444669

>  <GCUT_SMR_2>
0.0015694717

>  <GCUT_SMR_3>
2.6612637

>  <Kier1>
15.058824

>  <Kier2>
8.1632652

>  <Kier3>
5.4444447

>  <KierA1>
11.85678

>  <KierA2>
6.3235188

>  <KierA3>
4.1628418

>  <KierFlex>
4.4103866

>  <lip_acc>
4

>  <lip_don>
2

>  <lip_druglike>
1

>  <lip_violation>
0

>  <logP(o/w)>
1.734

>  <logS>
-2.0397999

>  <mr>
6.887661

>  <mutagenic>
1

>  <nmol>
1

>  <opr_brigid>
6

>  <opr_leadlike>
1

>  <opr_nring>
1

>  <opr_nrot>
6

>  <opr_violation>
0

>  <PC+>
0

>  <PC->
0

>  <PEOE_PC+>
1.4663229

>  <PEOE_PC->
-1.4663229

>  <PEOE_RPC+>
0.20039879

>  <PEOE_RPC->
0.21151876

>  <PEOE_VSA+0>
73.285049

>  <PEOE_VSA+1>
40.54361

>  <PEOE_VSA+2>
17.238026

>  <PEOE_VSA+3>
0

>  <PEOE_VSA+4>
0

>  <PEOE_VSA+5>
14.708499

>  <PEOE_VSA+6>
0

>  <PEOE_VSA-0>
75.404266

>  <PEOE_VSA-1>
37.495354

>  <PEOE_VSA-2>
0

>  <PEOE_VSA-3>
0

>  <PEOE_VSA-4>
0

>  <PEOE_VSA-5>
13.566921

>  <PEOE_VSA-6>
9.1548758

>  <PEOE_VSA_FHYD>
0.86698383

>  <PEOE_VSA_FNEG>
0.48195827

>  <PEOE_VSA_FPNEG>
0.080746524

>  <PEOE_VSA_FPOL>
0.13301617

>  <PEOE_VSA_FPOS>
0.51804173

>  <PEOE_VSA_FPPOS>
0.052269641

>  <PEOE_VSA_HYD>
243.96631

>  <PEOE_VSA_NEG>
135.62141

>  <PEOE_VSA_PNEG>
22.721796

>  <PEOE_VSA_POL>
37.430294

>  <PEOE_VSA_POS>
145.77518

>  <PEOE_VSA_PPOS>
14.708499

>  <petitjean>
0.45454547

>  <petitjeanSC>
0.83333331

>  <Q_PC+>
0

>  <Q_PC->
0

>  <Q_RPC+>
0

>  <Q_RPC->
0

>  <Q_VSA_FHYD>
1

>  <Q_VSA_FNEG>
0

>  <Q_VSA_FPNEG>
0

>  <Q_VSA_FPOL>
0

>  <Q_VSA_FPOS>
1

>  <Q_VSA_FPPOS>
0

>  <Q_VSA_HYD>
281.39661

>  <Q_VSA_NEG>
0

>  <Q_VSA_PNEG>
0

>  <Q_VSA_POL>
0

>  <Q_VSA_POS>
281.39661

>  <Q_VSA_PPOS>
0

>  <radius>
6

>  <reactive>
0

>  <rings>
1

>  <RPC+>
0

>  <RPC->
0

>  <rsynth>
1

>  <SlogP>
1.7674

>  <SlogP_VSA0>
32.897186

>  <SlogP_VSA1>
10.869778

>  <SlogP_VSA2>
10.999887

>  <SlogP_VSA3>
76.244995

>  <SlogP_VSA4>
27.047791

>  <SlogP_VSA5>
0

>  <SlogP_VSA6>
0

>  <SlogP_VSA7>
70.572739

>  <SlogP_VSA8>
0

>  <SlogP_VSA9>
69.408775

>  <SMR>
6.8924899

>  <SMR_VSA0>
34.862103

>  <SMR_VSA1>
3.1243138

>  <SMR_VSA2>
0

>  <SMR_VSA3>
3.185575

>  <SMR_VSA4>
2.7567475

>  <SMR_VSA5>
103.46992

>  <SMR_VSA6>
83.990456

>  <SMR_VSA7>
66.652031

>  <TPSA>
55.560001

>  <VAdjEq>
0.52255934

>  <VAdjMa>
5.0874629

>  <VDistEq>
3.2634485

>  <VDistMa>
7.8330927

>  <vdw_area>
281.39661

>  <vdw_vol>
344.28864

>  <vsa_acc>
13.566921

>  <vsa_acid>
0

>  <vsa_base>
0

>  <vsa_don>
17.742489

>  <vsa_hyd>
213.91595

>  <vsa_other>
17.212255

>  <vsa_pol>
31.30941

>  <Weight>
236.315

>  <weinerPath>
618

>  <weinerPol>
21

>  <zagreb>
76

$$$$