Clc1ccc(cc1)C1CCC(CC1)C=1C(=O)C(=O)c2c(cccc2)C=1O
  MOE2013           2D

 26 29  0  0  0  0  0  0  0  0999 V2000
    0.0000    0.0000    0.0000 Cl  0  0  0  0  0  0  0  0  0  0  0  0
   -1.5000    0.0020    0.0000 C   0  0  0  0  0  0  0  0  0  0  0  0
   -2.2520   -1.2960    0.0000 C   0  0  0  0  0  0  0  0  0  0  0  0
   -3.7520   -1.2940    0.0000 C   0  0  0  0  0  0  0  0  0  0  0  0
   -4.5000    0.0060    0.0000 C   0  0  0  0  0  0  0  0  0  0  0  0
   -3.7480    1.3040    0.0000 C   0  0  0  0  0  0  0  0  0  0  0  0
   -2.2480    1.3020    0.0000 C   0  0  0  0  0  0  0  0  0  0  0  0
   -6.0000    0.0080    0.0000 C   0  0  0  0  0  0  0  0  0  0  0  0
   -6.7520   -1.2900    0.0000 C   0  0  0  0  0  0  0  0  0  0  0  0
   -8.2520   -1.2880    0.0000 C   0  0  0  0  0  0  0  0  0  0  0  0
   -9.0000    0.0120    0.0000 C   0  0  0  0  0  0  0  0  0  0  0  0
   -8.2480    1.3100    0.0000 C   0  0  0  0  0  0  0  0  0  0  0  0
   -6.7480    1.3080    0.0000 C   0  0  0  0  0  0  0  0  0  0  0  0
  -10.5000    0.0140    0.0000 C   0  0  0  0  0  0  0  0  0  0  0  0
  -11.2520   -1.2840    0.0000 C   0  0  0  0  0  0  0  0  0  0  0  0
  -10.5030   -2.5840    0.0000 O   0  0  0  0  0  0  0  0  0  0  0  0
  -12.7520   -1.2820    0.0000 C   0  0  0  0  0  0  0  0  0  0  0  0
  -13.5030   -2.5800    0.0000 O   0  0  0  0  0  0  0  0  0  0  0  0
  -13.5000    0.0180    0.0000 C   0  0  0  0  0  0  0  0  0  0  0  0
  -12.7480    1.3160    0.0000 C   0  0  0  0  0  0  0  0  0  0  0  0
  -13.4960    2.6160    0.0000 C   0  0  0  0  0  0  0  0  0  0  0  0
  -14.9960    2.6180    0.0000 C   0  0  0  0  0  0  0  0  0  0  0  0
  -15.7480    1.3200    0.0000 C   0  0  0  0  0  0  0  0  0  0  0  0
  -15.0000    0.0200    0.0000 C   0  0  0  0  0  0  0  0  0  0  0  0
  -11.2480    1.3140    0.0000 C   0  0  0  0  0  0  0  0  0  0  0  0
  -10.4960    2.6120    0.0000 O   0  0  0  0  0  0  0  0  0  0  0  0
  1  2  1  0  0  0  0
  2  3  1  0  0  0  0
  2  7  2  0  0  0  0
  3  4  2  0  0  0  0
  4  5  1  0  0  0  0
  5  6  2  0  0  0  0
  5  8  1  0  0  0  0
  6  7  1  0  0  0  0
  8  9  1  0  0  0  0
  8 13  1  0  0  0  0
  9 10  1  0  0  0  0
 10 11  1  0  0  0  0
 11 12  1  0  0  0  0
 11 14  1  0  0  0  0
 12 13  1  0  0  0  0
 14 15  1  0  0  0  0
 14 25  2  0  0  0  0
 15 16  2  0  0  0  0
 15 17  1  0  0  0  0
 17 18  2  0  0  0  0
 17 19  1  0  0  0  0
 19 20  1  0  0  0  0
 19 24  2  0  0  0  0
 20 21  2  0  0  0  0
 20 25  1  0  0  0  0
 21 22  1  0  0  0  0
 22 23  2  0  0  0  0
 23 24  1  0  0  0  0
 25 26  1  0  0  0  0
M  END
>  <Index>
97

>  <ID>
HT0196

>  <class>
0

>  <apol>
55.975067

>  <ast_fraglike>
0

>  <ast_fraglike_ext>
0

>  <ast_violation>
2

>  <ast_violation_ext>
3

>  <a_acc>
3

>  <a_acid>
0

>  <a_aro>
12

>  <a_base>
0

>  <a_count>
45

>  <a_don>
2

>  <a_donacc>
5

>  <a_heavy>
26

>  <a_hyd>
21

>  <a_IC>
63.560383

>  <a_ICM>
1.4124529

>  <a_nB>
0

>  <a_nBr>
0

>  <a_nC>
22

>  <a_nCl>
1

>  <a_nF>
0

>  <a_nH>
19

>  <a_nI>
0

>  <a_nN>
0

>  <a_nO>
3

>  <a_nP>
0

>  <a_nS>
0

>  <balabanJ>
1.3730165

>  <BCUT_PEOE_0>
-2.7858465

>  <BCUT_PEOE_1>
-0.62147778

>  <BCUT_PEOE_2>
0.65282565

>  <BCUT_PEOE_3>
2.7486122

>  <BCUT_SLOGP_0>
-2.6555307

>  <BCUT_SLOGP_1>
-0.52630264

>  <BCUT_SLOGP_2>
0.78595471

>  <BCUT_SLOGP_3>
2.8827808

>  <BCUT_SMR_0>
-2.5310965

>  <BCUT_SMR_1>
-0.44802362

>  <BCUT_SMR_2>
0.82509559

>  <BCUT_SMR_3>
3.0074692

>  <bpol>
23.106934

>  <b_1rotN>
2

>  <b_1rotR>
0.068965517

>  <b_ar>
12

>  <b_count>
48

>  <b_double>
3

>  <b_heavy>
29

>  <b_max1len>
2

>  <b_rotN>
2

>  <b_rotR>
0.068965517

>  <b_single>
33

>  <b_triple>
0

>  <chi0>
18.258783

>  <chi0v>
14.999534

>  <chi0v_C>
12.60193

>  <chi0_C>
14.258784

>  <chi1>
12.558551

>  <chi1v>
9.3078623

>  <chi1v_C>
8.1090612

>  <chi1_C>
10.249149

>  <chiral>
0

>  <chiral_u>
0

>  <density>
0.76222962

>  <diameter>
14

>  <FCharge>
0

>  <GCUT_PEOE_0>
-0.78712606

>  <GCUT_PEOE_1>
-0.40143669

>  <GCUT_PEOE_2>
0.071422137

>  <GCUT_PEOE_3>
2.8230433

>  <GCUT_SLOGP_0>
-0.8932482

>  <GCUT_SLOGP_1>
-0.27500406

>  <GCUT_SLOGP_2>
0.17337485

>  <GCUT_SLOGP_3>
2.9346921

>  <GCUT_SMR_0>
-0.52577299

>  <GCUT_SMR_1>
-0.22396706

>  <GCUT_SMR_2>
0.21070014

>  <GCUT_SMR_3>
3.0853026

>  <Kier1>
19.322235

>  <Kier2>
8.1632652

>  <Kier3>
3.8058028

>  <KierA1>
15.166095

>  <KierA2>
6.3411374

>  <KierA3>
2.9343884

>  <KierFlex>
3.6988573

>  <lip_acc>
3

>  <lip_don>
1

>  <lip_druglike>
1

>  <lip_violation>
1

>  <logP(o/w)>
5.0900002

>  <logS>
-7.0509

>  <mr>
10.236026

>  <mutagenic>
0

>  <nmol>
1

>  <opr_brigid>
23

>  <opr_leadlike>
1

>  <opr_nring>
4

>  <opr_nrot>
4

>  <opr_violation>
1

>  <PC+>
0

>  <PC->
0

>  <PEOE_PC+>
1.6846262

>  <PEOE_PC->
-1.6846262

>  <PEOE_RPC+>
0.13850382

>  <PEOE_RPC->
0.21299738

>  <PEOE_VSA+0>
53.799225

>  <PEOE_VSA+1>
42.581608

>  <PEOE_VSA+2>
0

>  <PEOE_VSA+3>
0

>  <PEOE_VSA+4>
27.241211

>  <PEOE_VSA+5>
0

>  <PEOE_VSA+6>
0

>  <PEOE_VSA-0>
61.523602

>  <PEOE_VSA-1>
103.11137

>  <PEOE_VSA-2>
0

>  <PEOE_VSA-3>
0

>  <PEOE_VSA-4>
0

>  <PEOE_VSA-5>
27.133842

>  <PEOE_VSA-6>
7.7675405

>  <PEOE_VSA_FHYD>
0.80770236

>  <PEOE_VSA_FNEG>
0.61745679

>  <PEOE_VSA_FPNEG>
0.10800085

>  <PEOE_VSA_FPOL>
0.19229762

>  <PEOE_VSA_FPOS>
0.38254318

>  <PEOE_VSA_FPPOS>
0.084296778

>  <PEOE_VSA_HYD>
261.01581

>  <PEOE_VSA_NEG>
199.53635

>  <PEOE_VSA_PNEG>
34.901382

>  <PEOE_VSA_POL>
62.142593

>  <PEOE_VSA_POS>
123.62205

>  <PEOE_VSA_PPOS>
27.241211

>  <petitjean>
0.5

>  <petitjeanSC>
1

>  <Q_PC+>
0

>  <Q_PC->
0

>  <Q_RPC+>
0

>  <Q_RPC->
0

>  <Q_VSA_FHYD>
1

>  <Q_VSA_FNEG>
0

>  <Q_VSA_FPNEG>
0

>  <Q_VSA_FPOL>
0

>  <Q_VSA_FPOS>
1

>  <Q_VSA_FPPOS>
0

>  <Q_VSA_HYD>
323.15839

>  <Q_VSA_NEG>
0

>  <Q_VSA_PNEG>
0

>  <Q_VSA_POL>
0

>  <Q_VSA_POS>
323.15839

>  <Q_VSA_PPOS>
0

>  <radius>
7

>  <reactive>
0

>  <rings>
4

>  <RPC+>
0

>  <RPC->
0

>  <rsynth>
1

>  <SlogP>
5.3484998

>  <SlogP_VSA0>
0

>  <SlogP_VSA1>
11.375222

>  <SlogP_VSA2>
23.862217

>  <SlogP_VSA3>
25.385227

>  <SlogP_VSA4>
37.829739

>  <SlogP_VSA5>
3.185575

>  <SlogP_VSA6>
7.9114027

>  <SlogP_VSA7>
146.3889

>  <SlogP_VSA8>
75.473625

>  <SlogP_VSA9>
39.148643

>  <SMR>
10.14793

>  <SMR_VSA0>
47.724434

>  <SMR_VSA1>
0

>  <SMR_VSA2>
29.796022

>  <SMR_VSA3>
20.653702

>  <SMR_VSA4>
5.2434282

>  <SMR_VSA5>
216.61909

>  <SMR_VSA6>
11.375222

>  <SMR_VSA7>
39.148643

>  <TPSA>
54.369999

>  <VAdjEq>
0.42228913

>  <VAdjMa>
5.8579812

>  <VDistEq>
3.4968443

>  <VDistMa>
9.0856009

>  <vdw_area>
323.15839

>  <vdw_vol>
481.27753

>  <vsa_acc>
13.566921

>  <vsa_acid>
0

>  <vsa_base>
0

>  <vsa_don>
0

>  <vsa_hyd>
245.51338

>  <vsa_other>
16.917038

>  <vsa_pol>
40.700764

>  <Weight>
366.84399

>  <weinerPath>
1705

>  <weinerPol>
47

>  <zagreb>
142

$$$$