S(=O)(=O)(N(CCC)CCC)c1ccc(cc1)C(O)=O
  MOE2013           2D

 19 19  0  0  0  0  0  0  0  0999 V2000
    0.0000    0.0000    0.0000 S   0  0  0  0  0  0  0  0  0  0  0  0
    0.0000    1.5000    0.0000 O   0  0  0  0  0  0  0  0  0  0  0  0
    0.0000   -1.5000    0.0000 O   0  0  0  0  0  0  0  0  0  0  0  0
   -1.5000    0.0000    0.0000 N   0  0  0  0  0  0  0  0  0  0  0  0
   -2.2500    1.2990    0.0000 C   0  0  0  0  0  0  0  0  0  0  0  0
   -3.7500    1.2990    0.0000 C   0  0  0  0  0  0  0  0  0  0  0  0
   -4.5000    2.5980    0.0000 C   0  0  0  0  0  0  0  0  0  0  0  0
   -2.2500   -1.2990    0.0000 C   0  0  0  0  0  0  0  0  0  0  0  0
   -3.7500   -1.2990    0.0000 C   0  0  0  0  0  0  0  0  0  0  0  0
   -4.5000   -2.5980    0.0000 C   0  0  0  0  0  0  0  0  0  0  0  0
    1.5000    0.0000    0.0000 C   0  0  0  0  0  0  0  0  0  0  0  0
    2.2500    1.2990    0.0000 C   0  0  0  0  0  0  0  0  0  0  0  0
    3.7500    1.2990    0.0000 C   0  0  0  0  0  0  0  0  0  0  0  0
    4.5000    0.0000    0.0000 C   0  0  0  0  0  0  0  0  0  0  0  0
    3.7500   -1.2990    0.0000 C   0  0  0  0  0  0  0  0  0  0  0  0
    2.2500   -1.2990    0.0000 C   0  0  0  0  0  0  0  0  0  0  0  0
    6.0000    0.0000    0.0000 C   0  0  0  0  0  0  0  0  0  0  0  0
    6.7500    1.2990    0.0000 O   0  0  0  0  0  0  0  0  0  0  0  0
    6.7500   -1.2990    0.0000 O   0  0  0  0  0  0  0  0  0  0  0  0
  1  2  2  0  0  0  0
  1  3  2  0  0  0  0
  1  4  1  0  0  0  0
  1 11  1  0  0  0  0
  4  5  1  0  0  0  0
  4  8  1  0  0  0  0
  5  6  1  0  0  0  0
  6  7  1  0  0  0  0
  8  9  1  0  0  0  0
  9 10  1  0  0  0  0
 11 12  1  0  0  0  0
 11 16  2  0  0  0  0
 12 13  2  0  0  0  0
 13 14  1  0  0  0  0
 14 15  2  0  0  0  0
 14 17  1  0  0  0  0
 15 16  1  0  0  0  0
 17 18  1  0  0  0  0
 17 19  2  0  0  0  0
M  END
>  <Index>
902

>  <ID>
HT1741

>  <class>
0

>  <apol>
42.757069

>  <ast_fraglike>
0

>  <ast_fraglike_ext>
0

>  <ast_violation>
1

>  <ast_violation_ext>
2

>  <a_acc>
4

>  <a_acid>
0

>  <a_aro>
6

>  <a_base>
0

>  <a_count>
38

>  <a_don>
2

>  <a_donacc>
6

>  <a_heavy>
19

>  <a_hyd>
12

>  <a_IC>
62.604908

>  <a_ICM>
1.6474975

>  <a_nB>
0

>  <a_nBr>
0

>  <a_nC>
13

>  <a_nCl>
0

>  <a_nF>
0

>  <a_nH>
19

>  <a_nI>
0

>  <a_nN>
1

>  <a_nO>
4

>  <a_nP>
0

>  <a_nS>
1

>  <balabanJ>
2.618134

>  <BCUT_PEOE_0>
-2.6756921

>  <BCUT_PEOE_1>
-0.47099918

>  <BCUT_PEOE_2>
0.45896292

>  <BCUT_PEOE_3>
2.6052015

>  <BCUT_SLOGP_0>
-2.7133632

>  <BCUT_SLOGP_1>
-0.44741479

>  <BCUT_SLOGP_2>
0.48144928

>  <BCUT_SLOGP_3>
2.6236763

>  <BCUT_SMR_0>
-2.3900311

>  <BCUT_SMR_1>
-0.23718813

>  <BCUT_SMR_2>
0.56011349

>  <BCUT_SMR_3>
2.9193022

>  <bpol>
30.184933

>  <b_1rotN>
7

>  <b_1rotR>
0.36842105

>  <b_ar>
6

>  <b_count>
38

>  <b_double>
1

>  <b_heavy>
19

>  <b_max1len>
8

>  <b_rotN>
7

>  <b_rotR>
0.36842105

>  <b_single>
31

>  <b_triple>
0

>  <chi0>
14.466255

>  <chi0v>
11.981745

>  <chi0v_C>
8.6378279

>  <chi0_C>
9.3889055

>  <chi1>
8.9290876

>  <chi1v>
7.705862

>  <chi1v_C>
4.4855809

>  <chi1_C>
5.3805399

>  <chiral>
0

>  <chiral_u>
0

>  <density>
0.77940637

>  <diameter>
10

>  <FCharge>
0

>  <GCUT_PEOE_0>
-0.80605882

>  <GCUT_PEOE_1>
-0.38337439

>  <GCUT_PEOE_2>
0.027909748

>  <GCUT_PEOE_3>
2.5621414

>  <GCUT_SLOGP_0>
-0.93471211

>  <GCUT_SLOGP_1>
-0.36158788

>  <GCUT_SLOGP_2>
0.097302571

>  <GCUT_SLOGP_3>
2.5904768

>  <GCUT_SMR_0>
-0.52522135

>  <GCUT_SMR_1>
-0.17403282

>  <GCUT_SMR_2>
0.11603653

>  <GCUT_SMR_3>
2.8278162

>  <Kier1>
17.052631

>  <Kier2>
7.6952662

>  <Kier3>
4.5

>  <KierA1>
15.483842

>  <KierA2>
6.9478073

>  <KierA3>
4.0449853

>  <KierFlex>
5.6620393

>  <lip_acc>
5

>  <lip_don>
1

>  <lip_druglike>
1

>  <lip_violation>
0

>  <logP(o/w)>
2.2390001

>  <logS>
-2.3257999

>  <mr>
7.5355749

>  <mutagenic>
0

>  <nmol>
1

>  <opr_brigid>
6

>  <opr_leadlike>
1

>  <opr_nring>
1

>  <opr_nrot>
6

>  <opr_violation>
0

>  <PC+>
0

>  <PC->
0

>  <PEOE_PC+>
1.5757164

>  <PEOE_PC->
-1.5757164

>  <PEOE_RPC+>
0.18483287

>  <PEOE_RPC->
0.2078353

>  <PEOE_VSA+0>
96.53936

>  <PEOE_VSA+1>
17.061544

>  <PEOE_VSA+2>
0

>  <PEOE_VSA+3>
0

>  <PEOE_VSA+4>
10.324173

>  <PEOE_VSA+5>
18.893101

>  <PEOE_VSA+6>
0

>  <PEOE_VSA-0>
50.894459

>  <PEOE_VSA-1>
54.89798

>  <PEOE_VSA-2>
0

>  <PEOE_VSA-3>
0

>  <PEOE_VSA-4>
32.016521

>  <PEOE_VSA-5>
13.566921

>  <PEOE_VSA-6>
7.7675405

>  <PEOE_VSA_FHYD>
0.72656041

>  <PEOE_VSA_FNEG>
0.52703202

>  <PEOE_VSA_FPNEG>
0.17668135

>  <PEOE_VSA_FPOL>
0.27343959

>  <PEOE_VSA_FPOS>
0.47296801

>  <PEOE_VSA_FPPOS>
0.096758239

>  <PEOE_VSA_HYD>
219.39334

>  <PEOE_VSA_NEG>
159.14342

>  <PEOE_VSA_PNEG>
53.350983

>  <PEOE_VSA_POL>
82.56826

>  <PEOE_VSA_POS>
142.81818

>  <PEOE_VSA_PPOS>
29.217274

>  <petitjean>
0.5

>  <petitjeanSC>
1

>  <Q_PC+>
0

>  <Q_PC->
0

>  <Q_RPC+>
0

>  <Q_RPC->
0

>  <Q_VSA_FHYD>
1

>  <Q_VSA_FNEG>
0

>  <Q_VSA_FPNEG>
0

>  <Q_VSA_FPOL>
0

>  <Q_VSA_FPOS>
1

>  <Q_VSA_FPPOS>
0

>  <Q_VSA_HYD>
301.96161

>  <Q_VSA_NEG>
0

>  <Q_VSA_PNEG>
0

>  <Q_VSA_POL>
0

>  <Q_VSA_POS>
301.96161

>  <Q_VSA_PPOS>
0

>  <radius>
5

>  <reactive>
0

>  <rings>
1

>  <RPC+>
0

>  <RPC->
0

>  <rsynth>
1

>  <SlogP>
2.1954999

>  <SlogP_VSA0>
0

>  <SlogP_VSA1>
57.435711

>  <SlogP_VSA2>
6.6407428

>  <SlogP_VSA3>
62.264381

>  <SlogP_VSA4>
27.047791

>  <SlogP_VSA5>
1.5507339

>  <SlogP_VSA6>
0

>  <SlogP_VSA7>
70.572739

>  <SlogP_VSA8>
37.736813

>  <SlogP_VSA9>
66.652031

>  <SMR>
7.27421

>  <SMR_VSA0>
72.033905

>  <SMR_VSA1>
1.5185606

>  <SMR_VSA2>
26.935961

>  <SMR_VSA3>
3.185575

>  <SMR_VSA4>
0

>  <SMR_VSA5>
108.30955

>  <SMR_VSA6>
44.624619

>  <SMR_VSA7>
73.29277

>  <TPSA>
74.68

>  <VAdjEq>
0.48546076

>  <VAdjMa>
5.2479277

>  <VDistEq>
3.1189888

>  <VDistMa>
8.1992311

>  <vdw_area>
301.96161

>  <vdw_vol>
366.12994

>  <vsa_acc>
32.016521

>  <vsa_acid>
0

>  <vsa_base>
0

>  <vsa_don>
0

>  <vsa_hyd>
200.66002

>  <vsa_other>
24.814108

>  <vsa_pol>
59.150364

>  <Weight>
285.36398

>  <weinerPath>
728

>  <weinerPol>
29

>  <zagreb>
90

$$$$