O=C(N)c1nccnc1
  MOE2013           2D

  9  9  0  0  0  0  0  0  0  0999 V2000
    0.0000    0.0000    0.0000 O   0  0  0  0  0  0  0  0  0  0  0  0
    0.7500   -1.2990    0.0000 C   0  0  0  0  0  0  0  0  0  0  0  0
    0.0000   -2.5980    0.0000 N   0  0  0  0  0  0  0  0  0  0  0  0
    2.2500   -1.2990    0.0000 C   0  0  0  0  0  0  0  0  0  0  0  0
    3.0000   -2.5980    0.0000 N   0  0  0  0  0  0  0  0  0  0  0  0
    4.5000   -2.5980    0.0000 C   0  0  0  0  0  0  0  0  0  0  0  0
    5.2500   -1.2990    0.0000 C   0  0  0  0  0  0  0  0  0  0  0  0
    4.5000    0.0000    0.0000 N   0  0  0  0  0  0  0  0  0  0  0  0
    3.0000    0.0000    0.0000 C   0  0  0  0  0  0  0  0  0  0  0  0
  1  2  2  0  0  0  0
  2  3  1  0  0  0  0
  2  4  1  0  0  0  0
  4  5  1  0  0  0  0
  4  9  2  0  0  0  0
  5  6  2  0  0  0  0
  6  7  1  0  0  0  0
  7  8  2  0  0  0  0
  8  9  1  0  0  0  0
M  END
>  <Index>
917

>  <ID>
HT1774

>  <class>
0

>  <apol>
16.235966

>  <ast_fraglike>
1

>  <ast_fraglike_ext>
1

>  <ast_violation>
0

>  <ast_violation_ext>
0

>  <a_acc>
3

>  <a_acid>
0

>  <a_aro>
6

>  <a_base>
0

>  <a_count>
14

>  <a_don>
1

>  <a_donacc>
4

>  <a_heavy>
9

>  <a_hyd>
4

>  <a_IC>
25.3288

>  <a_ICM>
1.8092

>  <a_nB>
0

>  <a_nBr>
0

>  <a_nC>
5

>  <a_nCl>
0

>  <a_nF>
0

>  <a_nH>
5

>  <a_nI>
0

>  <a_nN>
3

>  <a_nO>
1

>  <a_nP>
0

>  <a_nS>
0

>  <balabanJ>
2.2906082

>  <BCUT_PEOE_0>
-2.1093996

>  <BCUT_PEOE_1>
-0.587883

>  <BCUT_PEOE_2>
0.59761316

>  <BCUT_PEOE_3>
2.1421463

>  <BCUT_SLOGP_0>
-2.4597814

>  <BCUT_SLOGP_1>
-0.55751079

>  <BCUT_SLOGP_2>
0.61974818

>  <BCUT_SLOGP_3>
2.0696619

>  <BCUT_SMR_0>
-1.8080389

>  <BCUT_SMR_1>
-0.39836586

>  <BCUT_SMR_2>
0.76767749

>  <BCUT_SMR_3>
2.4215951

>  <bpol>
8.4040346

>  <b_1rotN>
1

>  <b_1rotR>
0.11111111

>  <b_ar>
6

>  <b_count>
14

>  <b_double>
1

>  <b_heavy>
9

>  <b_max1len>
2

>  <b_rotN>
1

>  <b_rotR>
0.11111111

>  <b_single>
7

>  <b_triple>
0

>  <chi0>
6.6902347

>  <chi0v>
4.6120768

>  <chi0v_C>
2.7320509

>  <chi0_C>
3.2760208

>  <chi1>
4.3045306

>  <chi1v>
2.3630111

>  <chi1v_C>
0.87200844

>  <chi1_C>
1.2415817

>  <chiral>
0

>  <chiral_u>
0

>  <density>
0.81534106

>  <diameter>
5

>  <FCharge>
0

>  <GCUT_PEOE_0>
-0.81403106

>  <GCUT_PEOE_1>
-0.43961906

>  <GCUT_PEOE_2>
0.1101427

>  <GCUT_PEOE_3>
1.8492908

>  <GCUT_SLOGP_0>
-1.3703061

>  <GCUT_SLOGP_1>
-0.39289713

>  <GCUT_SLOGP_2>
0.15282235

>  <GCUT_SLOGP_3>
1.8165606

>  <GCUT_SMR_0>
-0.42857257

>  <GCUT_SMR_1>
-0.21873356

>  <GCUT_SMR_2>
0.23348944

>  <GCUT_SMR_3>
2.1181548

>  <Kier1>
7.1111112

>  <Kier2>
3.2396693

>  <Kier3>
2

>  <KierA1>
4.2127142

>  <KierA2>
1.772175

>  <KierA3>
1.0101762

>  <KierFlex>
0.8295185

>  <lip_acc>
4

>  <lip_don>
2

>  <lip_druglike>
1

>  <lip_violation>
0

>  <logP(o/w)>
-1.45947

>  <logS>
0.72636002

>  <mr>
3.2390683

>  <mutagenic>
0

>  <nmol>
1

>  <opr_brigid>
6

>  <opr_leadlike>
1

>  <opr_nring>
1

>  <opr_nrot>
1

>  <opr_violation>
0

>  <PC+>
0

>  <PC->
0

>  <PEOE_PC+>
1.1372639

>  <PEOE_PC->
-1.1372639

>  <PEOE_RPC+>
0.23681289

>  <PEOE_RPC->
0.32056201

>  <PEOE_VSA+0>
33.491833

>  <PEOE_VSA+1>
29.542074

>  <PEOE_VSA+2>
6.6995511

>  <PEOE_VSA+3>
17.238026

>  <PEOE_VSA+4>
0

>  <PEOE_VSA+5>
12.949531

>  <PEOE_VSA+6>
0

>  <PEOE_VSA-0>
0

>  <PEOE_VSA-1>
0

>  <PEOE_VSA-2>
0

>  <PEOE_VSA-3>
0

>  <PEOE_VSA-4>
5.6825762

>  <PEOE_VSA-5>
19.249496

>  <PEOE_VSA-6>
6.6511192

>  <PEOE_VSA_FHYD>
0.66135895

>  <PEOE_VSA_FNEG>
0.24016869

>  <PEOE_VSA_FPNEG>
0.24016869

>  <PEOE_VSA_FPOL>
0.33864105

>  <PEOE_VSA_FPOS>
0.75983131

>  <PEOE_VSA_FPPOS>
0.098472372

>  <PEOE_VSA_HYD>
86.971481

>  <PEOE_VSA_NEG>
31.583193

>  <PEOE_VSA_PNEG>
31.583193

>  <PEOE_VSA_POL>
44.532722

>  <PEOE_VSA_POS>
99.921013

>  <PEOE_VSA_PPOS>
12.949531

>  <petitjean>
0.40000001

>  <petitjeanSC>
0.66666669

>  <Q_PC+>
0

>  <Q_PC->
0

>  <Q_RPC+>
0

>  <Q_RPC->
0

>  <Q_VSA_FHYD>
1

>  <Q_VSA_FNEG>
0

>  <Q_VSA_FPNEG>
0

>  <Q_VSA_FPOL>
0

>  <Q_VSA_FPOS>
1

>  <Q_VSA_FPPOS>
0

>  <Q_VSA_HYD>
131.50421

>  <Q_VSA_NEG>
0

>  <Q_VSA_PNEG>
0

>  <Q_VSA_POL>
0

>  <Q_VSA_POS>
131.50421

>  <Q_VSA_PPOS>
0

>  <radius>
3

>  <reactive>
0

>  <rings>
1

>  <RPC+>
0

>  <RPC->
0

>  <rsynth>
1

>  <SlogP>
-0.42449999

>  <SlogP_VSA0>
32.897186

>  <SlogP_VSA1>
38.829842

>  <SlogP_VSA2>
0

>  <SlogP_VSA3>
0

>  <SlogP_VSA4>
26.618963

>  <SlogP_VSA5>
0

>  <SlogP_VSA6>
0

>  <SlogP_VSA7>
51.64307

>  <SlogP_VSA8>
0

>  <SlogP_VSA9>
0

>  <SMR>
3.0549901

>  <SMR_VSA0>
23.862217

>  <SMR_VSA1>
33.57106

>  <SMR_VSA2>
0

>  <SMR_VSA3>
2.7567475

>  <SMR_VSA4>
32.897186

>  <SMR_VSA5>
51.64307

>  <SMR_VSA6>
5.2587838

>  <SMR_VSA7>
0

>  <TPSA>
68.870003

>  <VAdjEq>
0.7642045

>  <VAdjMa>
4.1699252

>  <VDistEq>
2.1498685

>  <VDistMa>
6.0047355

>  <vdw_area>
131.50421

>  <vdw_vol>
150.99817

>  <vsa_acc>
24.932074

>  <vsa_acid>
0

>  <vsa_base>
0

>  <vsa_don>
17.742489

>  <vsa_hyd>
67.598068

>  <vsa_other>
12.949531

>  <vsa_pol>
42.674564

>  <Weight>
123.115

>  <weinerPath>
88

>  <weinerPol>
9

>  <zagreb>
40

$$$$