Clc1c2N(C=C(C(O)=O)C(=O)c2cc(F)c1N1CC2(CC2)[C@H](N)C1)[C@@H]1C[C@@H]1F
  MOE2013           2D

 28 32  0  0  1  0  0  0  0  0999 V2000
    0.0000    0.0000    0.0000 Cl  0  0  0  0  0  0  0  0  0  0  0  0
    0.7420   -1.3040    0.0000 C   0  0  0  0  0  0  0  0  0  0  0  0
    2.2420   -1.3130    0.0000 C   0  0  0  0  0  0  0  0  0  0  0  0
    3.0000   -0.0190    0.0000 N   0  0  3  0  0  0  0  0  0  0  0  0
    4.5000   -0.0280    0.0000 C   0  0  0  0  0  0  0  0  0  0  0  0
    5.2420   -1.3320    0.0000 C   0  0  0  0  0  0  0  0  0  0  0  0
    6.7420   -1.3420    0.0000 C   0  0  0  0  0  0  0  0  0  0  0  0
    7.4830   -2.6450    0.0000 O   0  0  0  0  0  0  0  0  0  0  0  0
    7.5000   -0.0470    0.0000 O   0  0  0  0  0  0  0  0  0  0  0  0
    4.4830   -2.6260    0.0000 C   0  0  0  0  0  0  0  0  0  0  0  0
    5.2250   -3.9300    0.0000 O   0  0  0  0  0  0  0  0  0  0  0  0
    2.9840   -2.6170    0.0000 C   0  0  0  0  0  0  0  0  0  0  0  0
    2.2250   -3.9110    0.0000 C   0  0  0  0  0  0  0  0  0  0  0  0
    0.7250   -3.9020    0.0000 C   0  0  0  0  0  0  0  0  0  0  0  0
   -0.0330   -5.1960    0.0000 F   0  0  0  0  0  0  0  0  0  0  0  0
   -0.0160   -2.5980    0.0000 C   0  0  0  0  0  0  0  0  0  0  0  0
   -1.5160   -2.5890    0.0000 N   0  0  3  0  0  0  0  0  0  0  0  0
   -2.4060   -3.7960    0.0000 C   0  0  0  0  0  0  0  0  0  0  0  0
   -3.8290   -3.3240    0.0000 C   0  0  0  0  0  0  0  0  0  0  0  0
   -4.4480   -4.6900    0.0000 C   0  0  0  0  0  0  0  0  0  0  0  0
   -5.3220   -3.4710    0.0000 C   0  0  0  0  0  0  0  0  0  0  0  0
   -3.8200   -1.8240    0.0000 C   0  0  2  0  0  0  0  0  0  0  0  0
   -5.0280   -0.9350    0.0000 N   0  0  0  0  0  0  0  0  0  0  0  0
   -2.3900   -1.3690    0.0000 C   0  0  0  0  0  0  0  0  0  0  0  0
    2.2580    1.2850    0.0000 C   0  0  2  0  0  0  0  0  0  0  0  0
    0.9640    2.0430    0.0000 C   0  0  0  0  0  0  0  0  0  0  0  0
    2.2680    2.7850    0.0000 C   0  0  2  0  0  0  0  0  0  0  0  0
    3.0260    4.0790    0.0000 F   0  0  0  0  0  0  0  0  0  0  0  0
  1  2  1  0  0  0  0
  2  3  1  0  0  0  0
  2 16  2  0  0  0  0
  3  4  1  0  0  0  0
  3 12  2  0  0  0  0
  4  5  1  0  0  0  0
  5  6  2  0  0  0  0
  6  7  1  0  0  0  0
  6 10  1  0  0  0  0
  7  8  1  0  0  0  0
  7  9  2  0  0  0  0
 10 11  2  0  0  0  0
 10 12  1  0  0  0  0
 12 13  1  0  0  0  0
 13 14  2  0  0  0  0
 14 15  1  0  0  0  0
 14 16  1  0  0  0  0
 16 17  1  0  0  0  0
 17 18  1  0  0  0  0
 17 24  1  0  0  0  0
 18 19  1  0  0  0  0
 19 20  1  0  0  0  0
 19 21  1  0  0  0  0
 19 22  1  0  0  0  0
 20 21  1  0  0  0  0
 22 23  1  6  0  0  0
 22 24  1  0  0  0  0
 25  4  1  6  0  0  0
 25 26  1  0  0  0  0
 25 27  1  0  0  0  0
 26 27  1  0  0  0  0
 27 28  1  6  0  0  0
M  END
>  <Index>
984

>  <ID>
HT1892

>  <class>
0

>  <apol>
54.442272

>  <ast_fraglike>
0

>  <ast_fraglike_ext>
0

>  <ast_violation>
2

>  <ast_violation_ext>
3

>  <a_acc>
4

>  <a_acid>
0

>  <a_aro>
6

>  <a_base>
0

>  <a_count>
46

>  <a_don>
3

>  <a_donacc>
7

>  <a_heavy>
28

>  <a_hyd>
20

>  <a_IC>
86.804802

>  <a_ICM>
1.8870609

>  <a_nB>
0

>  <a_nBr>
0

>  <a_nC>
19

>  <a_nCl>
1

>  <a_nF>
2

>  <a_nH>
18

>  <a_nI>
0

>  <a_nN>
3

>  <a_nO>
3

>  <a_nP>
0

>  <a_nS>
0

>  <balabanJ>
1.4215304

>  <BCUT_PEOE_0>
-2.5115535

>  <BCUT_PEOE_1>
-0.60046566

>  <BCUT_PEOE_2>
0.63750869

>  <BCUT_PEOE_3>
2.9186265

>  <BCUT_SLOGP_0>
-2.7446413

>  <BCUT_SLOGP_1>
-0.55912119

>  <BCUT_SLOGP_2>
0.77226597

>  <BCUT_SLOGP_3>
2.9373114

>  <BCUT_SMR_0>
-2.2501125

>  <BCUT_SMR_1>
-0.40318602

>  <BCUT_SMR_2>
0.83033264

>  <BCUT_SMR_3>
3.1810565

>  <bpol>
27.719727

>  <b_1rotN>
3

>  <b_1rotR>
0.09375

>  <b_ar>
6

>  <b_count>
50

>  <b_double>
3

>  <b_heavy>
32

>  <b_max1len>
3

>  <b_rotN>
3

>  <b_rotR>
0.09375

>  <b_single>
41

>  <b_triple>
0

>  <chi0>
19.955301

>  <chi0v>
15.547595

>  <chi0v_C>
10.922285

>  <chi0_C>
11.8006

>  <chi1>
13.231688

>  <chi1v>
9.5588408

>  <chi1v_C>
6.0234389

>  <chi1_C>
6.9654918

>  <chiral>
3

>  <chiral_u>
0

>  <density>
0.87463593

>  <diameter>
11

>  <FCharge>
0

>  <GCUT_PEOE_0>
-0.83672577

>  <GCUT_PEOE_1>
-0.45447716

>  <GCUT_PEOE_2>
0.12860687

>  <GCUT_PEOE_3>
2.8277986

>  <GCUT_SLOGP_0>
-1.3636643

>  <GCUT_SLOGP_1>
-0.34725353

>  <GCUT_SLOGP_2>
0.20244239

>  <GCUT_SLOGP_3>
2.8665173

>  <GCUT_SMR_0>
-0.50959176

>  <GCUT_SMR_1>
-0.25049111

>  <GCUT_SMR_2>
0.26522917

>  <GCUT_SMR_3>
3.0995221

>  <Kier1>
19.933594

>  <Kier2>
6.75

>  <Kier3>
2.7777777

>  <KierA1>
16.552151

>  <KierA2>
5.5642161

>  <KierA3>
2.277941

>  <KierFlex>
3.2892764

>  <lip_acc>
6

>  <lip_don>
3

>  <lip_druglike>
1

>  <lip_violation>
0

>  <logP(o/w)>
1.683

>  <logS>
-4.0184898

>  <mr>
9.7442465

>  <mutagenic>
0

>  <nmol>
1

>  <opr_brigid>
22

>  <opr_leadlike>
1

>  <opr_nring>
5

>  <opr_nrot>
4

>  <opr_violation>
1

>  <PC+>
0

>  <PC->
0

>  <PEOE_PC+>
2.338969

>  <PEOE_PC->
-2.338969

>  <PEOE_RPC+>
0.12652119

>  <PEOE_RPC->
0.13996519

>  <PEOE_VSA+0>
99.669701

>  <PEOE_VSA+1>
33.860966

>  <PEOE_VSA+2>
33.934666

>  <PEOE_VSA+3>
0

>  <PEOE_VSA+4>
18.782692

>  <PEOE_VSA+5>
14.708499

>  <PEOE_VSA+6>
0

>  <PEOE_VSA-0>
38.358845

>  <PEOE_VSA-1>
29.581947

>  <PEOE_VSA-2>
0

>  <PEOE_VSA-3>
0

>  <PEOE_VSA-4>
23.817272

>  <PEOE_VSA-5>
27.133842

>  <PEOE_VSA-6>
14.418659

>  <PEOE_VSA_FHYD>
0.70424557

>  <PEOE_VSA_FNEG>
0.3988145

>  <PEOE_VSA_FPNEG>
0.1955615

>  <PEOE_VSA_FPOL>
0.2957544

>  <PEOE_VSA_FPOS>
0.6011855

>  <PEOE_VSA_FPPOS>
0.1001929

>  <PEOE_VSA_HYD>
235.40613

>  <PEOE_VSA_NEG>
133.31056

>  <PEOE_VSA_PNEG>
65.369774

>  <PEOE_VSA_POL>
98.860962

>  <PEOE_VSA_POS>
200.95653

>  <PEOE_VSA_PPOS>
33.491192

>  <petitjean>
0.45454547

>  <petitjeanSC>
0.83333331

>  <Q_PC+>
0

>  <Q_PC->
0

>  <Q_RPC+>
0

>  <Q_RPC->
0

>  <Q_VSA_FHYD>
1

>  <Q_VSA_FNEG>
0

>  <Q_VSA_FPNEG>
0

>  <Q_VSA_FPOL>
0

>  <Q_VSA_FPOS>
1

>  <Q_VSA_FPPOS>
0

>  <Q_VSA_HYD>
334.26709

>  <Q_VSA_NEG>
0

>  <Q_VSA_PNEG>
0

>  <Q_VSA_POL>
0

>  <Q_VSA_POS>
334.26709

>  <Q_VSA_PPOS>
0

>  <radius>
6

>  <reactive>
0

>  <rings>
5

>  <RPC+>
0

>  <RPC->
0

>  <rsynth>
0.2857143

>  <SlogP>
2.4881999

>  <SlogP_VSA0>
39.145817

>  <SlogP_VSA1>
13.433075

>  <SlogP_VSA2>
51.293411

>  <SlogP_VSA3>
62.264381

>  <SlogP_VSA4>
27.047791

>  <SlogP_VSA5>
3.185575

>  <SlogP_VSA6>
3.5006065

>  <SlogP_VSA7>
34.85754

>  <SlogP_VSA8>
56.605217

>  <SlogP_VSA9>
74.582367

>  <SMR>
9.9094696

>  <SMR_VSA0>
47.724434

>  <SMR_VSA1>
29.920227

>  <SMR_VSA2>
40.754871

>  <SMR_VSA3>
28.181932

>  <SMR_VSA4>
38.410683

>  <SMR_VSA5>
91.462761

>  <SMR_VSA6>
50.312233

>  <SMR_VSA7>
39.148643

>  <TPSA>
86.870003

>  <VAdjEq>
0.40790597

>  <VAdjMa>
6

>  <VDistEq>
3.2608538

>  <VDistMa>
9.3597536

>  <vdw_area>
334.26709

>  <vdw_vol>
468.56064

>  <vsa_acc>
13.566921

>  <vsa_acid>
0

>  <vsa_base>
0

>  <vsa_don>
0

>  <vsa_hyd>
231.30844

>  <vsa_other>
23.167019

>  <vsa_pol>
58.443253

>  <Weight>
409.81998

>  <weinerPath>
1819

>  <weinerPol>
53

>  <zagreb>
168

$$$$