S1C(Cc2ccc(OCCN(C)c3ncccc3)cc2)C(=O)NC1=O
  MOE2013           2D

 25 27  0  0  1  0  0  0  0  0999 V2000
    0.0000    0.0000    0.0000 S   0  0  0  0  0  0  0  0  0  0  0  0
    0.1490   -1.4930    0.0000 C   0  0  3  0  0  0  0  0  0  0  0  0
    1.4450   -2.2490    0.0000 C   0  0  0  0  0  0  0  0  0  0  0  0
    2.7470   -1.5060    0.0000 C   0  0  0  0  0  0  0  0  0  0  0  0
    2.7550   -0.0060    0.0000 C   0  0  0  0  0  0  0  0  0  0  0  0
    4.0580    0.7380    0.0000 C   0  0  0  0  0  0  0  0  0  0  0  0
    5.3530   -0.0190    0.0000 C   0  0  0  0  0  0  0  0  0  0  0  0
    6.6560    0.7250    0.0000 O   0  0  0  0  0  0  0  0  0  0  0  0
    7.9510   -0.0320    0.0000 C   0  0  0  0  0  0  0  0  0  0  0  0
    9.2540    0.7120    0.0000 C   0  0  0  0  0  0  0  0  0  0  0  0
   10.5490   -0.0450    0.0000 N   0  0  3  0  0  0  0  0  0  0  0  0
   10.5410   -1.5450    0.0000 C   0  0  0  0  0  0  0  0  0  0  0  0
   11.8520    0.6990    0.0000 C   0  0  0  0  0  0  0  0  0  0  0  0
   11.8590    2.1990    0.0000 N   0  0  0  0  0  0  0  0  0  0  0  0
   13.1620    2.9420    0.0000 C   0  0  0  0  0  0  0  0  0  0  0  0
   14.4570    2.1850    0.0000 C   0  0  0  0  0  0  0  0  0  0  0  0
   14.4500    0.6850    0.0000 C   0  0  0  0  0  0  0  0  0  0  0  0
   13.1470   -0.0580    0.0000 C   0  0  0  0  0  0  0  0  0  0  0  0
    5.3450   -1.5190    0.0000 C   0  0  0  0  0  0  0  0  0  0  0  0
    4.0430   -2.2620    0.0000 C   0  0  0  0  0  0  0  0  0  0  0  0
   -1.2240   -2.0960    0.0000 C   0  0  0  0  0  0  0  0  0  0  0  0
   -1.5430   -3.5610    0.0000 O   0  0  0  0  0  0  0  0  0  0  0  0
   -2.2220   -0.9760    0.0000 N   0  0  0  0  0  0  0  0  0  0  0  0
   -1.4660    0.3190    0.0000 C   0  0  0  0  0  0  0  0  0  0  0  0
   -2.0690    1.6930    0.0000 O   0  0  0  0  0  0  0  0  0  0  0  0
  1  2  1  0  0  0  0
  1 24  1  0  0  0  0
  2  3  1  0  0  0  0
  2 21  1  0  0  0  0
  3  4  1  0  0  0  0
  4  5  1  0  0  0  0
  4 20  2  0  0  0  0
  5  6  2  0  0  0  0
  6  7  1  0  0  0  0
  7  8  1  0  0  0  0
  7 19  2  0  0  0  0
  8  9  1  0  0  0  0
  9 10  1  0  0  0  0
 10 11  1  0  0  0  0
 11 12  1  0  0  0  0
 11 13  1  0  0  0  0
 13 14  1  0  0  0  0
 13 18  2  0  0  0  0
 14 15  2  0  0  0  0
 15 16  1  0  0  0  0
 16 17  2  0  0  0  0
 17 18  1  0  0  0  0
 19 20  1  0  0  0  0
 21 22  2  0  0  0  0
 21 23  1  0  0  0  0
 23 24  1  0  0  0  0
 24 25  2  0  0  0  0
M  END
>  <Index>
960

>  <ID>
HT1848

>  <class>
0

>  <apol>
52.955067

>  <ast_fraglike>
0

>  <ast_fraglike_ext>
0

>  <ast_violation>
2

>  <ast_violation_ext>
3

>  <a_acc>
4

>  <a_acid>
0

>  <a_aro>
12

>  <a_base>
0

>  <a_count>
44

>  <a_don>
1

>  <a_donacc>
5

>  <a_heavy>
25

>  <a_hyd>
16

>  <a_IC>
74.935944

>  <a_ICM>
1.7030896

>  <a_nB>
0

>  <a_nBr>
0

>  <a_nC>
18

>  <a_nCl>
0

>  <a_nF>
0

>  <a_nH>
19

>  <a_nI>
0

>  <a_nN>
3

>  <a_nO>
3

>  <a_nP>
0

>  <a_nS>
1

>  <balabanJ>
1.2771747

>  <BCUT_PEOE_0>
-2.5398157

>  <BCUT_PEOE_1>
-0.56078017

>  <BCUT_PEOE_2>
0.61251926

>  <BCUT_PEOE_3>
2.567132

>  <BCUT_SLOGP_0>
-2.664923

>  <BCUT_SLOGP_1>
-0.5087626

>  <BCUT_SLOGP_2>
0.70794332

>  <BCUT_SLOGP_3>
2.5137765

>  <BCUT_SMR_0>
-2.257374

>  <BCUT_SMR_1>
-0.39724946

>  <BCUT_SMR_2>
0.77162588

>  <BCUT_SMR_3>
2.871413

>  <bpol>
30.842934

>  <b_1rotN>
7

>  <b_1rotR>
0.25925925

>  <b_ar>
12

>  <b_count>
46

>  <b_double>
2

>  <b_heavy>
27

>  <b_max1len>
5

>  <b_rotN>
7

>  <b_rotR>
0.25925925

>  <b_single>
32

>  <b_triple>
0

>  <chi0>
17.648054

>  <chi0v>
14.661389

>  <chi0v_C>
10.817472

>  <chi0_C>
12.242276

>  <chi1>
12.114194

>  <chi1v>
8.8499002

>  <chi1v_C>
4.6605191

>  <chi1_C>
6.1910715

>  <chiral>
1

>  <chiral_u>
1

>  <density>
0.77455795

>  <diameter>
16

>  <FCharge>
0

>  <GCUT_PEOE_0>
-0.81894654

>  <GCUT_PEOE_1>
-0.41899627

>  <GCUT_PEOE_2>
0.057094388

>  <GCUT_PEOE_3>
2.4995322

>  <GCUT_SLOGP_0>
-1.1742924

>  <GCUT_SLOGP_1>
-0.38486394

>  <GCUT_SLOGP_2>
0.15855636

>  <GCUT_SLOGP_3>
2.5634079

>  <GCUT_SMR_0>
-0.50243503

>  <GCUT_SMR_1>
-0.20615131

>  <GCUT_SMR_2>
0.16616081

>  <GCUT_SMR_3>
2.7833571

>  <Kier1>
19.753086

>  <Kier2>
9.7962961

>  <Kier3>
6

>  <KierA1>
15.188295

>  <KierA2>
7.4440603

>  <KierA3>
4.5190597

>  <KierFlex>
4.5225034

>  <lip_acc>
6

>  <lip_don>
1

>  <lip_druglike>
1

>  <lip_violation>
0

>  <logP(o/w)>
2.6210001

>  <logS>
-4.00172

>  <mr>
9.8805227

>  <mutagenic>
0

>  <nmol>
1

>  <opr_brigid>
17

>  <opr_leadlike>
1

>  <opr_nring>
3

>  <opr_nrot>
7

>  <opr_violation>
0

>  <PC+>
0

>  <PC->
0

>  <PEOE_PC+>
2.0763395

>  <PEOE_PC->
-2.0763395

>  <PEOE_RPC+>
0.13822363

>  <PEOE_RPC->
0.16539651

>  <PEOE_VSA+0>
59.795944

>  <PEOE_VSA+1>
70.960068

>  <PEOE_VSA+2>
11.190562

>  <PEOE_VSA+3>
8.6190128

>  <PEOE_VSA+4>
12.949531

>  <PEOE_VSA+5>
14.925592

>  <PEOE_VSA+6>
0

>  <PEOE_VSA-0>
83.168159

>  <PEOE_VSA-1>
56.52533

>  <PEOE_VSA-2>
0

>  <PEOE_VSA-3>
0

>  <PEOE_VSA-4>
5.6825762

>  <PEOE_VSA-5>
27.270733

>  <PEOE_VSA-6>
2.503756

>  <PEOE_VSA_FHYD>
0.8208887

>  <PEOE_VSA_FNEG>
0.4953475

>  <PEOE_VSA_FPNEG>
0.10027698

>  <PEOE_VSA_FPOL>
0.17911129

>  <PEOE_VSA_FPOS>
0.5046525

>  <PEOE_VSA_FPPOS>
0.07883431

>  <PEOE_VSA_HYD>
290.25906

>  <PEOE_VSA_NEG>
175.15056

>  <PEOE_VSA_PNEG>
35.457066

>  <PEOE_VSA_POL>
63.332188

>  <PEOE_VSA_POS>
178.4407

>  <PEOE_VSA_PPOS>
27.875124

>  <petitjean>
0.5

>  <petitjeanSC>
1

>  <Q_PC+>
0

>  <Q_PC->
0

>  <Q_RPC+>
0

>  <Q_RPC->
0

>  <Q_VSA_FHYD>
1

>  <Q_VSA_FNEG>
0

>  <Q_VSA_FPNEG>
0

>  <Q_VSA_FPOL>
0

>  <Q_VSA_FPOS>
1

>  <Q_VSA_FPPOS>
0

>  <Q_VSA_HYD>
353.59128

>  <Q_VSA_NEG>
0

>  <Q_VSA_PNEG>
0

>  <Q_VSA_POL>
0

>  <Q_VSA_POS>
353.59128

>  <Q_VSA_PPOS>
0

>  <radius>
8

>  <reactive>
0

>  <rings>
3

>  <RPC+>
0

>  <RPC->
0

>  <rsynth>
1

>  <SlogP>
2.49087

>  <SlogP_VSA0>
32.134953

>  <SlogP_VSA1>
25.668255

>  <SlogP_VSA2>
26.638172

>  <SlogP_VSA3>
39.365837

>  <SlogP_VSA4>
3.185575

>  <SlogP_VSA5>
51.765594

>  <SlogP_VSA6>
0

>  <SlogP_VSA7>
140.71664

>  <SlogP_VSA8>
0

>  <SlogP_VSA9>
63.653107

>  <SMR>
9.8066702

>  <SMR_VSA0>
47.724434

>  <SMR_VSA1>
27.785418

>  <SMR_VSA2>
21.135065

>  <SMR_VSA3>
11.204958

>  <SMR_VSA4>
2.3279202

>  <SMR_VSA5>
159.58505

>  <SMR_VSA6>
48.248562

>  <SMR_VSA7>
65.11673

>  <TPSA>
71.529999

>  <VAdjEq>
0.42433795

>  <VAdjMa>
5.7548876

>  <VDistEq>
3.7898879

>  <VDistMa>
8.9313192

>  <vdw_area>
353.59128

>  <vdw_vol>
461.46835

>  <vsa_acc>
35.320175

>  <vsa_acid>
0

>  <vsa_base>
0

>  <vsa_don>
5.6825762

>  <vsa_hyd>
257.63718

>  <vsa_other>
39.065685

>  <vsa_pol>
41.00275

>  <Weight>
357.43399

>  <weinerPath>
1883

>  <weinerPol>
33

>  <zagreb>
126

$$$$