SC[C@H]1NC(=O)[C@H](CC(=O)C[C@@H](OC(=O)[C@@H](NC(=O)/C(/NC1=O)=C/C)C(C)C)C=CCCS)C(C)C
  MOE2013           2D

 36 36  0  0  1  0  0  0  0  0999 V2000
    0.0000    0.0000    0.0000 S   0  0  0  0  0  0  0  0  0  0  0  0
    1.4400    0.4210    0.0000 C   0  0  0  0  0  0  0  0  0  0  0  0
    2.5240   -0.6150    0.0000 C   0  0  1  0  0  0  0  0  0  0  0  0
    3.8750   -0.0060    0.0000 N   0  0  0  0  0  0  0  0  0  0  0  0
    4.0640    1.4630    0.0000 C   0  0  0  0  0  0  0  0  0  0  0  0
    2.7580    2.2000    0.0000 O   0  0  0  0  0  0  0  0  0  0  0  0
    5.1170    2.2990    0.0000 C   0  0  2  0  0  0  0  0  0  0  0  0
    6.4680    2.5220    0.0000 C   0  0  0  0  0  0  0  0  0  0  0  0
    7.6550    1.6870    0.0000 C   0  0  0  0  0  0  0  0  0  0  0  0
    8.9870    2.3760    0.0000 O   0  0  0  0  0  0  0  0  0  0  0  0
    7.6510    0.2050    0.0000 C   0  0  0  0  0  0  0  0  0  0  0  0
    8.9590   -0.5610    0.0000 C   0  0  1  0  0  0  0  0  0  0  0  0
    8.8610   -2.0870    0.0000 O   0  0  0  0  0  0  0  0  0  0  0  0
    7.4910   -2.6930    0.0000 C   0  0  0  0  0  0  0  0  0  0  0  0
    6.2860   -1.7990    0.0000 O   0  0  0  0  0  0  0  0  0  0  0  0
    7.3100   -4.1800    0.0000 C   0  0  1  0  0  0  0  0  0  0  0  0
    5.8760   -4.7150    0.0000 N   0  0  0  0  0  0  0  0  0  0  0  0
    4.7650   -3.6840    0.0000 C   0  0  0  0  0  0  0  0  0  0  0  0
    5.1010   -2.2220    0.0000 O   0  0  0  0  0  0  0  0  0  0  0  0
    3.3470   -4.1170    0.0000 C   0  0  0  0  0  0  0  0  0  0  0  0
    2.2040   -3.2220    0.0000 N   0  0  0  0  0  0  0  0  0  0  0  0
    2.0290   -1.8640    0.0000 C   0  0  0  0  0  0  0  0  0  0  0  0
    0.5400   -1.6770    0.0000 O   0  0  0  0  0  0  0  0  0  0  0  0
    3.0730   -5.5910    0.0000 C   0  0  0  0  0  0  0  0  0  0  0  0
    1.6590   -6.0910    0.0000 C   0  0  0  0  0  0  0  0  0  0  0  0
    8.4880   -5.1080    0.0000 C   0  0  0  0  0  0  0  0  0  0  0  0
    8.2730   -6.5930    0.0000 C   0  0  0  0  0  0  0  0  0  0  0  0
    9.8810   -4.5520    0.0000 C   0  0  0  0  0  0  0  0  0  0  0  0
   10.2830    0.1440    0.0000 C   0  0  0  0  0  0  0  0  0  0  0  0
   11.5550   -0.6510    0.0000 C   0  0  0  0  0  0  0  0  0  0  0  0
   12.8800    0.0530    0.0000 C   0  0  0  0  0  0  0  0  0  0  0  0
   14.1520   -0.7410    0.0000 C   0  0  0  0  0  0  0  0  0  0  0  0
   15.4760   -0.0370    0.0000 S   0  0  0  0  0  0  0  0  0  0  0  0
    4.5090    3.6700    0.0000 C   0  0  0  0  0  0  0  0  0  0  0  0
    5.3920    4.8830    0.0000 C   0  0  0  0  0  0  0  0  0  0  0  0
    3.0170    3.8300    0.0000 C   0  0  0  0  0  0  0  0  0  0  0  0
  1  2  1  0  0  0  0
  3  2  1  1  0  0  0
  3  4  1  0  0  0  0
  3 22  1  0  0  0  0
  4  5  1  0  0  0  0
  5  6  2  0  0  0  0
  5  7  1  0  0  0  0
  7  8  1  0  0  0  0
  7 34  1  1  0  0  0
  8  9  1  0  0  0  0
  9 10  2  0  0  0  0
  9 11  1  0  0  0  0
 11 12  1  0  0  0  0
 12 13  1  0  0  0  0
 12 29  1  6  0  0  0
 13 14  1  0  0  0  0
 14 15  2  0  0  0  0
 14 16  1  0  0  0  0
 16 17  1  0  0  0  0
 16 26  1  6  0  0  0
 17 18  1  0  0  0  0
 18 19  2  0  0  0  0
 18 20  1  0  0  0  0
 20 21  1  0  0  0  0
 20 24  2  0  0  0  0
 21 22  1  0  0  0  0
 22 23  2  0  0  0  0
 24 25  1  0  0  0  0
 26 27  1  0  0  0  0
 26 28  1  0  0  0  0
 29 30  2  3  0  0  0
 30 31  1  0  0  0  0
 31 32  1  0  0  0  0
 32 33  1  0  0  0  0
 34 35  1  0  0  0  0
 34 36  1  0  0  0  0
M  END
>  <Index>
957

>  <ID>
HT1843

>  <class>
0

>  <apol>
83.916924

>  <ast_fraglike>
0

>  <ast_fraglike_ext>
0

>  <ast_violation>
2

>  <ast_violation_ext>
4

>  <a_acc>
5

>  <a_acid>
0

>  <a_aro>
0

>  <a_base>
0

>  <a_count>
75

>  <a_don>
3

>  <a_donacc>
8

>  <a_heavy>
36

>  <a_hyd>
20

>  <a_IC>
122.66965

>  <a_ICM>
1.6355953

>  <a_nB>
0

>  <a_nBr>
0

>  <a_nC>
25

>  <a_nCl>
0

>  <a_nF>
0

>  <a_nH>
39

>  <a_nI>
0

>  <a_nN>
3

>  <a_nO>
6

>  <a_nP>
0

>  <a_nS>
2

>  <balabanJ>
3.2935433

>  <BCUT_PEOE_0>
-2.67168

>  <BCUT_PEOE_1>
-0.55722141

>  <BCUT_PEOE_2>
0.5124011

>  <BCUT_PEOE_3>
2.6969528

>  <BCUT_SLOGP_0>
-2.7998333

>  <BCUT_SLOGP_1>
-0.49126893

>  <BCUT_SLOGP_2>
0.51257193

>  <BCUT_SLOGP_3>
2.7082148

>  <BCUT_SMR_0>
-2.4342787

>  <BCUT_SMR_1>
-0.36966303

>  <BCUT_SMR_2>
0.66481704

>  <BCUT_SMR_3>
2.9371591

>  <bpol>
55.881073

>  <b_1rotN>
6

>  <b_1rotR>
0.16666667

>  <b_ar>
0

>  <b_count>
75

>  <b_double>
7

>  <b_heavy>
36

>  <b_max1len>
5

>  <b_rotN>
6

>  <b_rotR>
0.16666667

>  <b_single>
68

>  <b_triple>
0

>  <chi0>
27.413485

>  <chi0v>
23.364458

>  <chi0v_C>
16.731686

>  <chi0_C>
17.585058

>  <chi1>
16.941196

>  <chi1v>
13.400049

>  <chi1v_C>
8.4648848

>  <chi1_C>
9.3742456

>  <chiral>
4

>  <chiral_u>
0

>  <density>
0.76625937

>  <diameter>
14

>  <FCharge>
0

>  <GCUT_PEOE_0>
-0.81590718

>  <GCUT_PEOE_1>
-0.4029555

>  <GCUT_PEOE_2>
0.048406664

>  <GCUT_PEOE_3>
2.9747326

>  <GCUT_SLOGP_0>
-1.1655697

>  <GCUT_SLOGP_1>
-0.38273415

>  <GCUT_SLOGP_2>
0.079168677

>  <GCUT_SLOGP_3>
2.9419351

>  <GCUT_SMR_0>
-0.53219831

>  <GCUT_SMR_1>
-0.19524676

>  <GCUT_SMR_2>
0.1754486

>  <GCUT_SMR_3>
3.210568

>  <Kier1>
34.027779

>  <Kier2>
17.560764

>  <Kier3>
11.741459

>  <KierA1>
29.795296

>  <KierA2>
15.315734

>  <KierA3>
10.212019

>  <KierFlex>
12.676023

>  <lip_acc>
9

>  <lip_don>
3

>  <lip_druglike>
1

>  <lip_violation>
1

>  <logP(o/w)>
2.2739999

>  <logS>
-5.5487199

>  <mr>
14.606709

>  <mutagenic>
0

>  <nmol>
1

>  <opr_brigid>
18

>  <opr_leadlike>
0

>  <opr_nring>
0

>  <opr_nrot>
18

>  <opr_violation>
3

>  <PC+>
0

>  <PC->
0

>  <PEOE_PC+>
3.6059623

>  <PEOE_PC->
-3.6059623

>  <PEOE_RPC+>
0.079192527

>  <PEOE_RPC->
0.095284417

>  <PEOE_VSA+0>
147.5108

>  <PEOE_VSA+1>
30.497244

>  <PEOE_VSA+2>
37.012188

>  <PEOE_VSA+3>
25.857038

>  <PEOE_VSA+4>
25.899061

>  <PEOE_VSA+5>
27.65803

>  <PEOE_VSA+6>
0

>  <PEOE_VSA-0>
38.126366

>  <PEOE_VSA-1>
111.75542

>  <PEOE_VSA-2>
0

>  <PEOE_VSA-3>
52.725979

>  <PEOE_VSA-4>
0

>  <PEOE_VSA-5>
67.834602

>  <PEOE_VSA-6>
2.9144292

>  <PEOE_VSA_FHYD>
0.78107071

>  <PEOE_VSA_FNEG>
0.48143896

>  <PEOE_VSA_FPNEG>
0.12460397

>  <PEOE_VSA_FPOL>
0.21892931

>  <PEOE_VSA_FPOS>
0.51856101

>  <PEOE_VSA_FPPOS>
0.094325334

>  <PEOE_VSA_HYD>
443.48505

>  <PEOE_VSA_NEG>
273.35681

>  <PEOE_VSA_PNEG>
70.749031

>  <PEOE_VSA_POL>
124.30612

>  <PEOE_VSA_POS>
294.43436

>  <PEOE_VSA_PPOS>
53.557091

>  <petitjean>
0.35714287

>  <petitjeanSC>
0.55555558

>  <Q_PC+>
0

>  <Q_PC->
0

>  <Q_RPC+>
0

>  <Q_RPC->
0

>  <Q_VSA_FHYD>
1

>  <Q_VSA_FNEG>
0

>  <Q_VSA_FPNEG>
0

>  <Q_VSA_FPOL>
0

>  <Q_VSA_FPOS>
1

>  <Q_VSA_FPPOS>
0

>  <Q_VSA_HYD>
567.7912

>  <Q_VSA_NEG>
0

>  <Q_VSA_PNEG>
0

>  <Q_VSA_POL>
0

>  <Q_VSA_POS>
567.7912

>  <Q_VSA_PPOS>
0

>  <radius>
9

>  <reactive>
1

>  <rings>
1

>  <RPC+>
0

>  <RPC->
0

>  <rsynth>
0.52777779

>  <SlogP>
1.9848

>  <SlogP_VSA0>
54.032253

>  <SlogP_VSA1>
29.209425

>  <SlogP_VSA2>
144.74356

>  <SlogP_VSA3>
34.467129

>  <SlogP_VSA4>
13.232388

>  <SlogP_VSA5>
2.7567475

>  <SlogP_VSA6>
0

>  <SlogP_VSA7>
52.929554

>  <SlogP_VSA8>
148.81944

>  <SlogP_VSA9>
166.63008

>  <SMR>
14.45131

>  <SMR_VSA0>
130.31097

>  <SMR_VSA1>
0

>  <SMR_VSA2>
67.264641

>  <SMR_VSA3>
17.189335

>  <SMR_VSA4>
0

>  <SMR_VSA5>
109.53477

>  <SMR_VSA6>
63.676556

>  <SMR_VSA7>
258.8443

>  <TPSA>
208.27

>  <VAdjEq>
0.30954343

>  <VAdjMa>
6.1699252

>  <VDistEq>
3.4954047

>  <VDistMa>
10.120606

>  <vdw_area>
567.7912

>  <vdw_vol>
706.98511

>  <vsa_acc>
67.834602

>  <vsa_acid>
0

>  <vsa_base>
0

>  <vsa_don>
17.047728

>  <vsa_hyd>
312.64511

>  <vsa_other>
127.28839

>  <vsa_pol>
84.882332

>  <Weight>
541.73401

>  <weinerPath>
3773

>  <weinerPol>
57

>  <zagreb>
168

$$$$