s1c(ccc1N(Cc1cc2c(N=C(NC2=O)C)cc1)C)C(=O)N[C@@H](CCC(O)=O)C(O)=O
  MOE2013           2D

 32 34  0  0  1  0  0  0  0  0999 V2000
    0.0000    0.0000    0.0000 S   0  0  0  0  0  0  0  0  0  0  0  0
   -1.0260    1.0940    0.0000 C   0  0  0  0  0  0  0  0  0  0  0  0
   -0.3020    2.4080    0.0000 C   0  0  0  0  0  0  0  0  0  0  0  0
    1.1710    2.1260    0.0000 C   0  0  0  0  0  0  0  0  0  0  0  0
    1.3580    0.6380    0.0000 C   0  0  0  0  0  0  0  0  0  0  0  0
    2.6720   -0.0860    0.0000 N   0  0  3  0  0  0  0  0  0  0  0  0
    3.9550    0.6900    0.0000 C   0  0  0  0  0  0  0  0  0  0  0  0
    5.2690   -0.0330    0.0000 C   0  0  0  0  0  0  0  0  0  0  0  0
    6.5530    0.7430    0.0000 C   0  0  0  0  0  0  0  0  0  0  0  0
    7.8670    0.0190    0.0000 C   0  0  0  0  0  0  0  0  0  0  0  0
    7.8970   -1.4810    0.0000 C   0  0  0  0  0  0  0  0  0  0  0  0
    9.2110   -2.2040    0.0000 N   0  0  0  0  0  0  0  0  0  0  0  0
   10.4950   -1.4280    0.0000 C   0  0  0  0  0  0  0  0  0  0  0  0
   10.4640    0.0720    0.0000 N   0  0  0  0  0  0  0  0  0  0  0  0
    9.1500    0.7950    0.0000 C   0  0  0  0  0  0  0  0  0  0  0  0
    9.1200    2.2950    0.0000 O   0  0  0  0  0  0  0  0  0  0  0  0
   11.8090   -2.1520    0.0000 C   0  0  0  0  0  0  0  0  0  0  0  0
    6.6130   -2.2570    0.0000 C   0  0  0  0  0  0  0  0  0  0  0  0
    5.3000   -1.5330    0.0000 C   0  0  0  0  0  0  0  0  0  0  0  0
    2.7020   -1.5860    0.0000 C   0  0  0  0  0  0  0  0  0  0  0  0
   -2.5140    0.9070    0.0000 C   0  0  0  0  0  0  0  0  0  0  0  0
   -3.0970   -0.4750    0.0000 O   0  0  0  0  0  0  0  0  0  0  0  0
   -3.4200    2.1030    0.0000 N   0  0  0  0  0  0  0  0  0  0  0  0
   -4.9090    1.9160    0.0000 C   0  0  1  0  0  0  0  0  0  0  0  0
   -5.4910    0.5330    0.0000 C   0  0  0  0  0  0  0  0  0  0  0  0
   -6.9790    0.3470    0.0000 C   0  0  0  0  0  0  0  0  0  0  0  0
   -7.5620   -1.0360    0.0000 C   0  0  0  0  0  0  0  0  0  0  0  0
   -6.6560   -2.2310    0.0000 O   0  0  0  0  0  0  0  0  0  0  0  0
   -9.0500   -1.2230    0.0000 O   0  0  0  0  0  0  0  0  0  0  0  0
   -5.8150    3.1110    0.0000 C   0  0  0  0  0  0  0  0  0  0  0  0
   -5.2320    4.4940    0.0000 O   0  0  0  0  0  0  0  0  0  0  0  0
   -7.3030    2.9240    0.0000 O   0  0  0  0  0  0  0  0  0  0  0  0
  1  2  1  0  0  0  0
  1  5  1  0  0  0  0
  2  3  2  0  0  0  0
  2 21  1  0  0  0  0
  3  4  1  0  0  0  0
  4  5  2  0  0  0  0
  5  6  1  0  0  0  0
  6  7  1  0  0  0  0
  6 20  1  0  0  0  0
  7  8  1  0  0  0  0
  8  9  1  0  0  0  0
  8 19  2  0  0  0  0
  9 10  2  0  0  0  0
 10 11  1  0  0  0  0
 10 15  1  0  0  0  0
 11 12  1  0  0  0  0
 11 18  2  0  0  0  0
 12 13  2  0  0  0  0
 13 14  1  0  0  0  0
 13 17  1  0  0  0  0
 14 15  1  0  0  0  0
 15 16  2  0  0  0  0
 18 19  1  0  0  0  0
 21 22  2  0  0  0  0
 21 23  1  0  0  0  0
 24 23  1  1  0  0  0
 24 25  1  0  0  0  0
 24 30  1  0  0  0  0
 25 26  1  0  0  0  0
 26 27  1  0  0  0  0
 27 28  1  0  0  0  0
 27 29  2  0  0  0  0
 30 31  1  0  0  0  0
 30 32  2  0  0  0  0
M  END
>  <Index>
928

>  <ID>
HT1796

>  <class>
0

>  <apol>
63.741447

>  <ast_fraglike>
0

>  <ast_fraglike_ext>
0

>  <ast_violation>
3

>  <ast_violation_ext>
5

>  <a_acc>
7

>  <a_acid>
0

>  <a_aro>
11

>  <a_base>
0

>  <a_count>
54

>  <a_don>
6

>  <a_donacc>
13

>  <a_heavy>
32

>  <a_hyd>
17

>  <a_IC>
96.90799

>  <a_ICM>
1.7945924

>  <a_nB>
0

>  <a_nBr>
0

>  <a_nC>
21

>  <a_nCl>
0

>  <a_nF>
0

>  <a_nH>
22

>  <a_nI>
0

>  <a_nN>
4

>  <a_nO>
6

>  <a_nP>
0

>  <a_nS>
1

>  <balabanJ>
1.4434834

>  <BCUT_PEOE_0>
-2.5354898

>  <BCUT_PEOE_1>
-0.583341

>  <BCUT_PEOE_2>
0.5853368

>  <BCUT_PEOE_3>
2.5970774

>  <BCUT_SLOGP_0>
-2.7036943

>  <BCUT_SLOGP_1>
-0.49269703

>  <BCUT_SLOGP_2>
0.63859308

>  <BCUT_SLOGP_3>
2.5479715

>  <BCUT_SMR_0>
-2.3075564

>  <BCUT_SMR_1>
-0.38885275

>  <BCUT_SMR_2>
0.74080515

>  <BCUT_SMR_3>
2.82267

>  <bpol>
34.782555

>  <b_1rotN>
9

>  <b_1rotR>
0.2647059

>  <b_ar>
11

>  <b_count>
56

>  <b_double>
5

>  <b_heavy>
34

>  <b_max1len>
5

>  <b_rotN>
10

>  <b_rotR>
0.29411766

>  <b_single>
40

>  <b_triple>
0

>  <chi0>
23.413485

>  <chi0v>
18.232014

>  <chi0v_C>
12.585422

>  <chi0_C>
14.007708

>  <chi1>
15.133938

>  <chi1v>
10.514139

>  <chi1v_C>
5.5527477

>  <chi1_C>
7.084918

>  <chiral>
1

>  <chiral_u>
0

>  <density>
0.8190574

>  <diameter>
18

>  <FCharge>
0

>  <GCUT_PEOE_0>
-0.84499228

>  <GCUT_PEOE_1>
-0.47617656

>  <GCUT_PEOE_2>
0.089883432

>  <GCUT_PEOE_3>
2.6090403

>  <GCUT_SLOGP_0>
-1.1686493

>  <GCUT_SLOGP_1>
-0.3510457

>  <GCUT_SLOGP_2>
0.16035114

>  <GCUT_SLOGP_3>
2.688632

>  <GCUT_SMR_0>
-0.51213861

>  <GCUT_SMR_1>
-0.21514763

>  <GCUT_SMR_2>
0.21242386

>  <GCUT_SMR_3>
2.9053299

>  <Kier1>
26.602076

>  <Kier2>
12.109375

>  <Kier3>
7.4978456

>  <KierA1>
20.066259

>  <KierA2>
9.0454674

>  <KierA3>
5.562242

>  <KierFlex>
5.6721468

>  <lip_acc>
10

>  <lip_don>
4

>  <lip_druglike>
1

>  <lip_violation>
0

>  <logP(o/w)>
1.359

>  <logS>
-4.2335501

>  <mr>
11.850911

>  <mutagenic>
0

>  <nmol>
1

>  <opr_brigid>
16

>  <opr_leadlike>
0

>  <opr_nring>
3

>  <opr_nrot>
9

>  <opr_violation>
2

>  <PC+>
0

>  <PC->
0

>  <PEOE_PC+>
3.2412305

>  <PEOE_PC->
-3.2412305

>  <PEOE_RPC+>
0.087064728

>  <PEOE_RPC->
0.10514295

>  <PEOE_VSA+0>
73.07827

>  <PEOE_VSA+1>
34.500408

>  <PEOE_VSA+2>
14.336523

>  <PEOE_VSA+3>
36.998642

>  <PEOE_VSA+4>
33.597878

>  <PEOE_VSA+5>
42.366531

>  <PEOE_VSA+6>
0

>  <PEOE_VSA-0>
90.266243

>  <PEOE_VSA-1>
36.764713

>  <PEOE_VSA-2>
0

>  <PEOE_VSA-3>
0

>  <PEOE_VSA-4>
5.6825762

>  <PEOE_VSA-5>
54.267685

>  <PEOE_VSA-6>
15.808863

>  <PEOE_VSA_FHYD>
0.65333676

>  <PEOE_VSA_FNEG>
0.46334189

>  <PEOE_VSA_FPNEG>
0.1730971

>  <PEOE_VSA_FPOL>
0.34666327

>  <PEOE_VSA_FPOS>
0.53665811

>  <PEOE_VSA_FPPOS>
0.17356615

>  <PEOE_VSA_HYD>
285.94479

>  <PEOE_VSA_NEG>
202.79007

>  <PEOE_VSA_PNEG>
75.759125

>  <PEOE_VSA_POL>
151.72353

>  <PEOE_VSA_POS>
234.87825

>  <PEOE_VSA_PPOS>
75.964409

>  <petitjean>
0.5

>  <petitjeanSC>
1

>  <Q_PC+>
0

>  <Q_PC->
0

>  <Q_RPC+>
0

>  <Q_RPC->
0

>  <Q_VSA_FHYD>
1

>  <Q_VSA_FNEG>
0

>  <Q_VSA_FPNEG>
0

>  <Q_VSA_FPOL>
0

>  <Q_VSA_FPOS>
1

>  <Q_VSA_FPPOS>
0

>  <Q_VSA_HYD>
437.66833

>  <Q_VSA_NEG>
0

>  <Q_VSA_PNEG>
0

>  <Q_VSA_POL>
0

>  <Q_VSA_POS>
437.66833

>  <Q_VSA_PPOS>
0

>  <radius>
9

>  <reactive>
0

>  <rings>
3

>  <RPC+>
0

>  <RPC->
0

>  <rsynth>
1

>  <SlogP>
2.4920001

>  <SlogP_VSA0>
39.145817

>  <SlogP_VSA1>
28.336416

>  <SlogP_VSA2>
51.706402

>  <SlogP_VSA3>
50.770454

>  <SlogP_VSA4>
55.453983

>  <SlogP_VSA5>
49.682716

>  <SlogP_VSA6>
0

>  <SlogP_VSA7>
88.215919

>  <SlogP_VSA8>
37.736813

>  <SlogP_VSA9>
86.729599

>  <SMR>
11.9068

>  <SMR_VSA0>
95.448868

>  <SMR_VSA1>
16.78553

>  <SMR_VSA2>
89.916267

>  <SMR_VSA3>
11.71152

>  <SMR_VSA4>
3.6863215

>  <SMR_VSA5>
144.3923

>  <SMR_VSA6>
28.336416

>  <SMR_VSA7>
97.500893

>  <TPSA>
148.39999

>  <VAdjEq>
0.35236704

>  <VAdjMa>
6.0874629

>  <VDistEq>
3.9313223

>  <VDistMa>
9.6767235

>  <vdw_area>
437.66833

>  <vdw_vol>
559.78369

>  <vsa_acc>
32.816418

>  <vsa_acid>
0

>  <vsa_base>
0

>  <vsa_don>
11.365152

>  <vsa_hyd>
244.70389

>  <vsa_other>
66.506622

>  <vsa_pol>
98.449257

>  <Weight>
458.495

>  <weinerPath>
3432

>  <weinerPol>
48

>  <zagreb>
164

$$$$