OC(=O)CCCc1ccccc1
  MOE2013           2D

 12 12  0  0  0  0  0  0  0  0999 V2000
    0.0000    0.0000    0.0000 O   0  0  0  0  0  0  0  0  0  0  0  0
   -1.2960   -0.7550    0.0000 C   0  0  0  0  0  0  0  0  0  0  0  0
   -1.2910   -2.2550    0.0000 O   0  0  0  0  0  0  0  0  0  0  0  0
   -2.5980   -0.0090    0.0000 C   0  0  0  0  0  0  0  0  0  0  0  0
   -3.8940   -0.7640    0.0000 C   0  0  0  0  0  0  0  0  0  0  0  0
   -5.1960   -0.0180    0.0000 C   0  0  0  0  0  0  0  0  0  0  0  0
   -6.4930   -0.7730    0.0000 C   0  0  0  0  0  0  0  0  0  0  0  0
   -7.7940   -0.0270    0.0000 C   0  0  0  0  0  0  0  0  0  0  0  0
   -9.0910   -0.7820    0.0000 C   0  0  0  0  0  0  0  0  0  0  0  0
   -9.0850   -2.2820    0.0000 C   0  0  0  0  0  0  0  0  0  0  0  0
   -7.7840   -3.0270    0.0000 C   0  0  0  0  0  0  0  0  0  0  0  0
   -6.4870   -2.2730    0.0000 C   0  0  0  0  0  0  0  0  0  0  0  0
  1  2  1  0  0  0  0
  2  3  2  0  0  0  0
  2  4  1  0  0  0  0
  4  5  1  0  0  0  0
  5  6  1  0  0  0  0
  6  7  1  0  0  0  0
  7  8  1  0  0  0  0
  7 12  2  0  0  0  0
  8  9  2  0  0  0  0
  9 10  1  0  0  0  0
 10 11  2  0  0  0  0
 11 12  1  0  0  0  0
M  END
>  <Index>
989

>  <ID>
HT1899

>  <class>
0

>  <apol>
27.205517

>  <ast_fraglike>
1

>  <ast_fraglike_ext>
0

>  <ast_violation>
0

>  <ast_violation_ext>
1

>  <a_acc>
2

>  <a_acid>
0

>  <a_aro>
6

>  <a_base>
0

>  <a_count>
24

>  <a_don>
2

>  <a_donacc>
4

>  <a_heavy>
12

>  <a_hyd>
9

>  <a_IC>
31.800268

>  <a_ICM>
1.3250113

>  <a_nB>
0

>  <a_nBr>
0

>  <a_nC>
10

>  <a_nCl>
0

>  <a_nF>
0

>  <a_nH>
12

>  <a_nI>
0

>  <a_nN>
0

>  <a_nO>
2

>  <a_nP>
0

>  <a_nS>
0

>  <balabanJ>
1.9952642

>  <BCUT_PEOE_0>
-2.5198531

>  <BCUT_PEOE_1>
-0.56160945

>  <BCUT_PEOE_2>
0.61902255

>  <BCUT_PEOE_3>
2.5219281

>  <BCUT_SLOGP_0>
-2.4538267

>  <BCUT_SLOGP_1>
-0.49749407

>  <BCUT_SLOGP_2>
0.72024673

>  <BCUT_SLOGP_3>
2.5987144

>  <BCUT_SMR_0>
-2.2804005

>  <BCUT_SMR_1>
-0.42652762

>  <BCUT_SMR_2>
0.75969911

>  <BCUT_SMR_3>
2.7625844

>  <bpol>
14.076484

>  <b_1rotN>
4

>  <b_1rotR>
0.33333334

>  <b_ar>
6

>  <b_count>
24

>  <b_double>
1

>  <b_heavy>
12

>  <b_max1len>
4

>  <b_rotN>
4

>  <b_rotR>
0.33333334

>  <b_single>
17

>  <b_triple>
0

>  <chi0>
8.8115549

>  <chi0v>
6.8635335

>  <chi0v_C>
6.0080719

>  <chi0_C>
6.8115549

>  <chi1>
5.7876935

>  <chi1v>
4.0455213

>  <chi1v_C>
3.6177905

>  <chi1_C>
4.6329932

>  <chiral>
0

>  <chiral_u>
0

>  <density>
0.69493246

>  <diameter>
8

>  <FCharge>
0

>  <GCUT_PEOE_0>
-0.77127862

>  <GCUT_PEOE_1>
-0.41079915

>  <GCUT_PEOE_2>
0.082106143

>  <GCUT_PEOE_3>
2.2539954

>  <GCUT_SLOGP_0>
-0.8725825

>  <GCUT_SLOGP_1>
-0.29126349

>  <GCUT_SLOGP_2>
0.14700493

>  <GCUT_SLOGP_3>
2.3617437

>  <GCUT_SMR_0>
-0.51871085

>  <GCUT_SMR_1>
-0.22237411

>  <GCUT_SMR_2>
0.19672312

>  <GCUT_SMR_3>
2.5136502

>  <Kier1>
10.083333

>  <Kier2>
5.6122451

>  <Kier3>
4.5918369

>  <KierA1>
7.4624853

>  <KierA2>
4.0270343

>  <KierA3>
3.215132

>  <KierFlex>
2.504307

>  <lip_acc>
2

>  <lip_don>
1

>  <lip_druglike>
1

>  <lip_violation>
0

>  <logP(o/w)>
2.201

>  <logS>
-1.8128901

>  <mr>
4.8627081

>  <mutagenic>
0

>  <nmol>
1

>  <opr_brigid>
6

>  <opr_leadlike>
1

>  <opr_nring>
1

>  <opr_nrot>
4

>  <opr_violation>
0

>  <PC+>
0

>  <PC->
0

>  <PEOE_PC+>
1.0129637

>  <PEOE_PC->
-1.0129637

>  <PEOE_RPC+>
0.25627521

>  <PEOE_RPC->
0.32702786

>  <PEOE_VSA+0>
34.293629

>  <PEOE_VSA+1>
21.326929

>  <PEOE_VSA+2>
0

>  <PEOE_VSA+3>
0

>  <PEOE_VSA+4>
10.324173

>  <PEOE_VSA+5>
14.708499

>  <PEOE_VSA+6>
0

>  <PEOE_VSA-0>
19.611166

>  <PEOE_VSA-1>
61.274521

>  <PEOE_VSA-2>
0

>  <PEOE_VSA-3>
0

>  <PEOE_VSA-4>
0

>  <PEOE_VSA-5>
13.566921

>  <PEOE_VSA-6>
7.7675405

>  <PEOE_VSA_FHYD>
0.74645227

>  <PEOE_VSA_FNEG>
0.55896682

>  <PEOE_VSA_FPNEG>
0.11666247

>  <PEOE_VSA_FPOL>
0.25354776

>  <PEOE_VSA_FPOS>
0.44103321

>  <PEOE_VSA_FPPOS>
0.13688527

>  <PEOE_VSA_HYD>
136.50624

>  <PEOE_VSA_NEG>
102.22015

>  <PEOE_VSA_PNEG>
21.334461

>  <PEOE_VSA_POL>
46.367134

>  <PEOE_VSA_POS>
80.653229

>  <PEOE_VSA_PPOS>
25.032671

>  <petitjean>
0.5

>  <petitjeanSC>
1

>  <Q_PC+>
0

>  <Q_PC->
0

>  <Q_RPC+>
0

>  <Q_RPC->
0

>  <Q_VSA_FHYD>
1

>  <Q_VSA_FNEG>
0

>  <Q_VSA_FPNEG>
0

>  <Q_VSA_FPOL>
0

>  <Q_VSA_FPOS>
1

>  <Q_VSA_FPPOS>
0

>  <Q_VSA_HYD>
182.87338

>  <Q_VSA_NEG>
0

>  <Q_VSA_PNEG>
0

>  <Q_VSA_POL>
0

>  <Q_VSA_POS>
182.87338

>  <Q_VSA_PPOS>
0

>  <radius>
4

>  <reactive>
0

>  <rings>
1

>  <RPC+>
0

>  <RPC->
0

>  <rsynth>
1

>  <SlogP>
2.0938699

>  <SlogP_VSA0>
0

>  <SlogP_VSA1>
7.7454643

>  <SlogP_VSA2>
23.862217

>  <SlogP_VSA3>
25.385227

>  <SlogP_VSA4>
3.185575

>  <SlogP_VSA5>
18.868406

>  <SlogP_VSA6>
0

>  <SlogP_VSA7>
88.215919

>  <SlogP_VSA8>
37.736813

>  <SlogP_VSA9>
0

>  <SMR>
4.70158

>  <SMR_VSA0>
23.862217

>  <SMR_VSA1>
0

>  <SMR_VSA2>
25.385227

>  <SMR_VSA3>
3.185575

>  <SMR_VSA4>
0

>  <SMR_VSA5>
144.82114

>  <SMR_VSA6>
7.7454643

>  <SMR_VSA7>
0

>  <TPSA>
37.299999

>  <VAdjEq>
0.65002245

>  <VAdjMa>
4.5849624

>  <VDistEq>
2.8430476

>  <VDistMa>
6.8023958

>  <vdw_area>
182.87338

>  <vdw_vol>
236.2877

>  <vsa_acc>
0

>  <vsa_acid>
0

>  <vsa_base>
0

>  <vsa_don>
0

>  <vsa_hyd>
128.6765

>  <vsa_other>
14.708499

>  <vsa_pol>
27.133842

>  <Weight>
164.20399

>  <weinerPath>
233

>  <weinerPol>
11

>  <zagreb>
52

$$$$