O(C(=O)C(NC(=O)C(N)CC(O)=O)Cc1ccccc1)C
  MOE2013           2D

 21 21  0  0  1  0  0  0  0  0999 V2000
    0.0000    0.0000    0.0000 O   0  0  0  0  0  0  0  0  0  0  0  0
   -0.7490   -1.3000    0.0000 C   0  0  0  0  0  0  0  0  0  0  0  0
   -2.2490   -1.3010    0.0000 O   0  0  0  0  0  0  0  0  0  0  0  0
    0.0020   -2.5980    0.0000 C   0  0  3  0  0  0  0  0  0  0  0  0
    1.5020   -2.5970    0.0000 N   0  0  0  0  0  0  0  0  0  0  0  0
    2.2540   -3.8950    0.0000 C   0  0  0  0  0  0  0  0  0  0  0  0
    1.5050   -5.1950    0.0000 O   0  0  0  0  0  0  0  0  0  0  0  0
    3.7540   -3.8940    0.0000 C   0  0  3  0  0  0  0  0  0  0  0  0
    4.5020   -2.5940    0.0000 N   0  0  0  0  0  0  0  0  0  0  0  0
    4.5050   -5.1920    0.0000 C   0  0  0  0  0  0  0  0  0  0  0  0
    6.0050   -5.1910    0.0000 C   0  0  0  0  0  0  0  0  0  0  0  0
    6.7560   -6.4890    0.0000 O   0  0  0  0  0  0  0  0  0  0  0  0
    6.7540   -3.8910    0.0000 O   0  0  0  0  0  0  0  0  0  0  0  0
   -0.7460   -3.8980    0.0000 C   0  0  0  0  0  0  0  0  0  0  0  0
   -2.2460   -3.8990    0.0000 C   0  0  0  0  0  0  0  0  0  0  0  0
   -2.9950   -5.1990    0.0000 C   0  0  0  0  0  0  0  0  0  0  0  0
   -4.4950   -5.2000    0.0000 C   0  0  0  0  0  0  0  0  0  0  0  0
   -5.2460   -3.9020    0.0000 C   0  0  0  0  0  0  0  0  0  0  0  0
   -4.4980   -2.6020    0.0000 C   0  0  0  0  0  0  0  0  0  0  0  0
   -2.9980   -2.6010    0.0000 C   0  0  0  0  0  0  0  0  0  0  0  0
   -0.7510    1.2980    0.0000 C   0  0  0  0  0  0  0  0  0  0  0  0
  1  2  1  0  0  0  0
  1 21  1  0  0  0  0
  2  3  2  0  0  0  0
  2  4  1  0  0  0  0
  4  5  1  0  0  0  0
  4 14  1  0  0  0  0
  5  6  1  0  0  0  0
  6  7  2  0  0  0  0
  6  8  1  0  0  0  0
  8  9  1  0  0  0  0
  8 10  1  0  0  0  0
 10 11  1  0  0  0  0
 11 12  1  0  0  0  0
 11 13  2  0  0  0  0
 14 15  1  0  0  0  0
 15 16  1  0  0  0  0
 15 20  2  0  0  0  0
 16 17  2  0  0  0  0
 17 18  1  0  0  0  0
 18 19  2  0  0  0  0
 19 20  1  0  0  0  0
M  END
>  <Index>
94

>  <ID>
HT0188

>  <class>
0

>  <apol>
42.852276

>  <ast_fraglike>
0

>  <ast_fraglike_ext>
0

>  <ast_violation>
2

>  <ast_violation_ext>
4

>  <a_acc>
5

>  <a_acid>
0

>  <a_aro>
6

>  <a_base>
0

>  <a_count>
39

>  <a_don>
4

>  <a_donacc>
9

>  <a_heavy>
21

>  <a_hyd>
11

>  <a_IC>
64.159424

>  <a_ICM>
1.6451135

>  <a_nB>
0

>  <a_nBr>
0

>  <a_nC>
14

>  <a_nCl>
0

>  <a_nF>
0

>  <a_nH>
18

>  <a_nI>
0

>  <a_nN>
2

>  <a_nO>
5

>  <a_nP>
0

>  <a_nS>
0

>  <balabanJ>
2.5226054

>  <BCUT_PEOE_0>
-2.5432665

>  <BCUT_PEOE_1>
-0.53061908

>  <BCUT_PEOE_2>
0.57760328

>  <BCUT_PEOE_3>
2.5927744

>  <BCUT_SLOGP_0>
-2.8140571

>  <BCUT_SLOGP_1>
-0.4968271

>  <BCUT_SLOGP_2>
0.60162342

>  <BCUT_SLOGP_3>
2.4449298

>  <BCUT_SMR_0>
-2.2914238

>  <BCUT_SMR_1>
-0.39504194

>  <BCUT_SMR_2>
0.70123738

>  <BCUT_SMR_3>
2.8318818

>  <bpol>
24.467726

>  <b_1rotN>
7

>  <b_1rotR>
0.33333334

>  <b_ar>
6

>  <b_count>
39

>  <b_double>
3

>  <b_heavy>
21

>  <b_max1len>
4

>  <b_rotN>
9

>  <b_rotR>
0.42857143

>  <b_single>
30

>  <b_triple>
0

>  <chi0>
15.828063

>  <chi0v>
11.613222

>  <chi0v_C>
8.4556656

>  <chi0_C>
9.4138489

>  <chi1>
9.9347591

>  <chi1v>
6.3319974

>  <chi1v_C>
4.0116372

>  <chi1_C>
5.1161566

>  <chiral>
2

>  <chiral_u>
2

>  <density>
0.77862722

>  <diameter>
11

>  <FCharge>
0

>  <GCUT_PEOE_0>
-0.81466621

>  <GCUT_PEOE_1>
-0.40024006

>  <GCUT_PEOE_2>
0.078257337

>  <GCUT_PEOE_3>
2.5145469

>  <GCUT_SLOGP_0>
-1.3636259

>  <GCUT_SLOGP_1>
-0.37995088

>  <GCUT_SLOGP_2>
0.10073482

>  <GCUT_SLOGP_3>
2.4613974

>  <GCUT_SMR_0>
-0.50168252

>  <GCUT_SMR_1>
-0.22111547

>  <GCUT_SMR_2>
0.17079124

>  <GCUT_SMR_3>
2.7580826

>  <Kier1>
19.047619

>  <Kier2>
9.9039783

>  <Kier3>
7.1999998

>  <KierA1>
14.304854

>  <KierA2>
7.322803

>  <KierA3>
5.2599206

>  <KierFlex>
4.988173

>  <lip_acc>
7

>  <lip_don>
4

>  <lip_druglike>
1

>  <lip_violation>
0

>  <logP(o/w)>
-0.018999999

>  <logS>
-1.56977

>  <mr>
7.6786485

>  <mutagenic>
0

>  <nmol>
1

>  <opr_brigid>
6

>  <opr_leadlike>
1

>  <opr_nring>
1

>  <opr_nrot>
7

>  <opr_violation>
0

>  <PC+>
0

>  <PC->
0

>  <PEOE_PC+>
2.4559705

>  <PEOE_PC->
-2.4559705

>  <PEOE_RPC+>
0.11596914

>  <PEOE_RPC->
0.13944127

>  <PEOE_VSA+0>
50.760513

>  <PEOE_VSA+1>
54.501133

>  <PEOE_VSA+2>
20.383986

>  <PEOE_VSA+3>
8.6190128

>  <PEOE_VSA+4>
23.273705

>  <PEOE_VSA+5>
29.416998

>  <PEOE_VSA+6>
0

>  <PEOE_VSA-0>
2.2085397

>  <PEOE_VSA-1>
61.274521

>  <PEOE_VSA-2>
0

>  <PEOE_VSA-3>
0

>  <PEOE_VSA-4>
0

>  <PEOE_VSA-5>
40.700764

>  <PEOE_VSA-6>
17.059307

>  <PEOE_VSA_FHYD>
0.64162457

>  <PEOE_VSA_FNEG>
0.39339301

>  <PEOE_VSA_FPNEG>
0.18741192

>  <PEOE_VSA_FPOL>
0.35837546

>  <PEOE_VSA_FPOS>
0.60660696

>  <PEOE_VSA_FPPOS>
0.17096354

>  <PEOE_VSA_HYD>
197.74771

>  <PEOE_VSA_NEG>
121.24313

>  <PEOE_VSA_PNEG>
57.760071

>  <PEOE_VSA_POL>
110.45078

>  <PEOE_VSA_POS>
186.95535

>  <PEOE_VSA_PPOS>
52.690701

>  <petitjean>
0.45454547

>  <petitjeanSC>
0.83333331

>  <Q_PC+>
0

>  <Q_PC->
0

>  <Q_RPC+>
0

>  <Q_RPC->
0

>  <Q_VSA_FHYD>
1

>  <Q_VSA_FNEG>
0

>  <Q_VSA_FPNEG>
0

>  <Q_VSA_FPOL>
0

>  <Q_VSA_FPOS>
1

>  <Q_VSA_FPPOS>
0

>  <Q_VSA_HYD>
308.19849

>  <Q_VSA_NEG>
0

>  <Q_VSA_PNEG>
0

>  <Q_VSA_POL>
0

>  <Q_VSA_POS>
308.19849

>  <Q_VSA_PPOS>
0

>  <radius>
6

>  <reactive>
0

>  <rings>
1

>  <RPC+>
0

>  <RPC->
0

>  <rsynth>
1

>  <SlogP>
-0.31112999

>  <SlogP_VSA0>
50.90794

>  <SlogP_VSA1>
20.749712

>  <SlogP_VSA2>
90.550476

>  <SlogP_VSA3>
25.385227

>  <SlogP_VSA4>
3.185575

>  <SlogP_VSA5>
54.252274

>  <SlogP_VSA6>
0

>  <SlogP_VSA7>
88.215919

>  <SlogP_VSA8>
18.868406

>  <SlogP_VSA9>
0

>  <SMR>
7.4320898

>  <SMR_VSA0>
82.58654

>  <SMR_VSA1>
0

>  <SMR_VSA2>
43.395977

>  <SMR_VSA3>
11.149512

>  <SMR_VSA4>
32.897186

>  <SMR_VSA5>
125.95274

>  <SMR_VSA6>
20.749712

>  <SMR_VSA7>
35.383869

>  <TPSA>
118.72

>  <VAdjEq>
0.45371634

>  <VAdjMa>
5.3923173

>  <VDistEq>
3.2524941

>  <VDistMa>
8.5032482

>  <vdw_area>
308.19849

>  <vdw_vol>
377.9819

>  <vsa_acc>
27.133842

>  <vsa_acid>
0

>  <vsa_base>
0

>  <vsa_don>
5.6825762

>  <vsa_hyd>
161.92554

>  <vsa_other>
44.870285

>  <vsa_pol>
77.692749

>  <Weight>
294.30701

>  <weinerPath>
1000

>  <weinerPol>
27

>  <zagreb>
96

$$$$