s1c2c(ccc(O)c2)c(C(=O)c2ccc(OCCN3CCCCC3)cc2)c1-c1ccc(O)cc1
  MOE2013           2D

 34 38  0  0  0  0  0  0  0  0999 V2000
    0.0000    0.0000    0.0000 S   0  0  0  0  0  0  0  0  0  0  0  0
    0.9850    1.1310    0.0000 C   0  0  0  0  0  0  0  0  0  0  0  0
    2.3650    0.5440    0.0000 C   0  0  0  0  0  0  0  0  0  0  0  0
    3.5640    1.4460    0.0000 C   0  0  0  0  0  0  0  0  0  0  0  0
    3.3820    2.9350    0.0000 C   0  0  0  0  0  0  0  0  0  0  0  0
    2.0020    3.5220    0.0000 C   0  0  0  0  0  0  0  0  0  0  0  0
    1.8200    5.0110    0.0000 O   0  0  0  0  0  0  0  0  0  0  0  0
    0.8030    2.6200    0.0000 C   0  0  0  0  0  0  0  0  0  0  0  0
    2.2330   -0.9500    0.0000 C   0  0  0  0  0  0  0  0  0  0  0  0
    3.3650   -1.9350    0.0000 C   0  0  0  0  0  0  0  0  0  0  0  0
    3.0770   -3.4070    0.0000 O   0  0  0  0  0  0  0  0  0  0  0  0
    4.7830   -1.4480    0.0000 C   0  0  0  0  0  0  0  0  0  0  0  0
    5.0710    0.0250    0.0000 C   0  0  0  0  0  0  0  0  0  0  0  0
    6.4890    0.5120    0.0000 C   0  0  0  0  0  0  0  0  0  0  0  0
    7.6210   -0.4730    0.0000 C   0  0  0  0  0  0  0  0  0  0  0  0
    9.0390    0.0140    0.0000 O   0  0  0  0  0  0  0  0  0  0  0  0
   10.1710   -0.9710    0.0000 C   0  0  0  0  0  0  0  0  0  0  0  0
   11.5890   -0.4830    0.0000 C   0  0  0  0  0  0  0  0  0  0  0  0
   12.7210   -1.4680    0.0000 N   0  0  0  0  0  0  0  0  0  0  0  0
   12.4330   -2.9400    0.0000 C   0  0  0  0  0  0  0  0  0  0  0  0
   13.5650   -3.9250    0.0000 C   0  0  0  0  0  0  0  0  0  0  0  0
   14.9830   -3.4380    0.0000 C   0  0  0  0  0  0  0  0  0  0  0  0
   15.2710   -1.9660    0.0000 C   0  0  0  0  0  0  0  0  0  0  0  0
   14.1390   -0.9810    0.0000 C   0  0  0  0  0  0  0  0  0  0  0  0
    7.3330   -1.9450    0.0000 C   0  0  0  0  0  0  0  0  0  0  0  0
    5.9150   -2.4320    0.0000 C   0  0  0  0  0  0  0  0  0  0  0  0
    0.7720   -1.2860    0.0000 C   0  0  0  0  0  0  0  0  0  0  0  0
    0.1840   -2.6670    0.0000 C   0  0  0  0  0  0  0  0  0  0  0  0
   -1.3040   -2.8480    0.0000 C   0  0  0  0  0  0  0  0  0  0  0  0
   -1.8920   -4.2290    0.0000 C   0  0  0  0  0  0  0  0  0  0  0  0
   -0.9900   -5.4270    0.0000 C   0  0  0  0  0  0  0  0  0  0  0  0
   -1.5770   -6.8080    0.0000 O   0  0  0  0  0  0  0  0  0  0  0  0
    0.4990   -5.2460    0.0000 C   0  0  0  0  0  0  0  0  0  0  0  0
    1.0860   -3.8650    0.0000 C   0  0  0  0  0  0  0  0  0  0  0  0
  1  2  1  0  0  0  0
  1 27  1  0  0  0  0
  2  3  1  0  0  0  0
  2  8  2  0  0  0  0
  3  4  2  0  0  0  0
  3  9  1  0  0  0  0
  4  5  1  0  0  0  0
  5  6  2  0  0  0  0
  6  7  1  0  0  0  0
  6  8  1  0  0  0  0
  9 10  1  0  0  0  0
  9 27  2  0  0  0  0
 10 11  2  0  0  0  0
 10 12  1  0  0  0  0
 12 13  1  0  0  0  0
 12 26  2  0  0  0  0
 13 14  2  0  0  0  0
 14 15  1  0  0  0  0
 15 16  1  0  0  0  0
 15 25  2  0  0  0  0
 16 17  1  0  0  0  0
 17 18  1  0  0  0  0
 18 19  1  0  0  0  0
 19 20  1  0  0  0  0
 19 24  1  0  0  0  0
 20 21  1  0  0  0  0
 21 22  1  0  0  0  0
 22 23  1  0  0  0  0
 23 24  1  0  0  0  0
 25 26  1  0  0  0  0
 27 28  1  0  0  0  0
 28 29  1  0  0  0  0
 28 34  2  0  0  0  0
 29 30  2  0  0  0  0
 30 31  1  0  0  0  0
 31 32  1  0  0  0  0
 31 33  2  0  0  0  0
 33 34  1  0  0  0  0
M  END
>  <Index>
926

>  <ID>
HT1794

>  <class>
0

>  <apol>
74.491409

>  <ast_fraglike>
0

>  <ast_fraglike_ext>
0

>  <ast_violation>
3

>  <ast_violation_ext>
4

>  <a_acc>
5

>  <a_acid>
0

>  <a_aro>
21

>  <a_base>
0

>  <a_count>
61

>  <a_don>
2

>  <a_donacc>
7

>  <a_heavy>
34

>  <a_hyd>
28

>  <a_IC>
90.787079

>  <a_ICM>
1.4883127

>  <a_nB>
0

>  <a_nBr>
0

>  <a_nC>
28

>  <a_nCl>
0

>  <a_nF>
0

>  <a_nH>
27

>  <a_nI>
0

>  <a_nN>
1

>  <a_nO>
4

>  <a_nP>
0

>  <a_nS>
1

>  <balabanJ>
1.1457086

>  <BCUT_PEOE_0>
-2.7805812

>  <BCUT_PEOE_1>
-0.64233893

>  <BCUT_PEOE_2>
0.70424193

>  <BCUT_PEOE_3>
2.6924112

>  <BCUT_SLOGP_0>
-2.8066182

>  <BCUT_SLOGP_1>
-0.53807992

>  <BCUT_SLOGP_2>
0.80591482

>  <BCUT_SLOGP_3>
2.738632

>  <BCUT_SMR_0>
-2.5102696

>  <BCUT_SMR_1>
-0.49986199

>  <BCUT_SMR_2>
0.85431087

>  <BCUT_SMR_3>
2.9571297

>  <bpol>
36.650589

>  <b_1rotN>
7

>  <b_1rotR>
0.18421052

>  <b_ar>
22

>  <b_count>
65

>  <b_double>
1

>  <b_heavy>
38

>  <b_max1len>
3

>  <b_rotN>
7

>  <b_rotR>
0.18421052

>  <b_single>
42

>  <b_triple>
0

>  <chi0>
23.492989

>  <chi0v>
19.683483

>  <chi0v_C>
16.3006

>  <chi0_C>
18.501425

>  <chi1>
16.580521

>  <chi1v>
12.448334

>  <chi1v_C>
9.1307678

>  <chi1_C>
11.898979

>  <chiral>
0

>  <chiral_u>
0

>  <density>
0.74162751

>  <diameter>
18

>  <FCharge>
0

>  <GCUT_PEOE_0>
-0.85229588

>  <GCUT_PEOE_1>
-0.40550524

>  <GCUT_PEOE_2>
0.083241425

>  <GCUT_PEOE_3>
2.6990438

>  <GCUT_SLOGP_0>
-0.9613806

>  <GCUT_SLOGP_1>
-0.30844718

>  <GCUT_SLOGP_2>
0.16445385

>  <GCUT_SLOGP_3>
2.8376129

>  <GCUT_SMR_0>
-0.52423668

>  <GCUT_SMR_1>
-0.21605732

>  <GCUT_SMR_2>
0.22760659

>  <GCUT_SMR_3>
3.0021186

>  <Kier1>
25.641273

>  <Kier2>
12.029903

>  <Kier3>
6.2971635

>  <KierA1>
20.49098

>  <KierA2>
9.5444984

>  <KierA3>
4.9708738

>  <KierFlex>
5.7522392

>  <lip_acc>
5

>  <lip_don>
2

>  <lip_druglike>
1

>  <lip_violation>
1

>  <logP(o/w)>
6.5689998

>  <logS>
-7.33182

>  <mr>
13.639584

>  <mutagenic>
0

>  <nmol>
1

>  <opr_brigid>
28

>  <opr_leadlike>
0

>  <opr_nring>
5

>  <opr_nrot>
9

>  <opr_violation>
3

>  <PC+>
0

>  <PC->
0

>  <PEOE_PC+>
2.3940222

>  <PEOE_PC->
-2.3940222

>  <PEOE_RPC+>
0.090773292

>  <PEOE_RPC->
0.15030888

>  <PEOE_VSA+0>
68.794037

>  <PEOE_VSA+1>
95.776871

>  <PEOE_VSA+2>
0

>  <PEOE_VSA+3>
28.219137

>  <PEOE_VSA+4>
20.648346

>  <PEOE_VSA+5>
0

>  <PEOE_VSA+6>
0

>  <PEOE_VSA-0>
146.24359

>  <PEOE_VSA-1>
53.835228

>  <PEOE_VSA-2>
0

>  <PEOE_VSA-3>
0

>  <PEOE_VSA-4>
0

>  <PEOE_VSA-5>
13.566921

>  <PEOE_VSA-6>
18.038837

>  <PEOE_VSA_FHYD>
0.88260746

>  <PEOE_VSA_FNEG>
0.52049565

>  <PEOE_VSA_FPNEG>
0.071004555

>  <PEOE_VSA_FPOL>
0.11739251

>  <PEOE_VSA_FPOS>
0.47950435

>  <PEOE_VSA_FPPOS>
0.046387959

>  <PEOE_VSA_HYD>
392.86887

>  <PEOE_VSA_NEG>
231.68457

>  <PEOE_VSA_PNEG>
31.605757

>  <PEOE_VSA_POL>
52.254105

>  <PEOE_VSA_POS>
213.43839

>  <PEOE_VSA_PPOS>
20.648346

>  <petitjean>
0.5

>  <petitjeanSC>
1

>  <Q_PC+>
0

>  <Q_PC->
0

>  <Q_RPC+>
0

>  <Q_RPC->
0

>  <Q_VSA_FHYD>
1

>  <Q_VSA_FNEG>
0

>  <Q_VSA_FPNEG>
0

>  <Q_VSA_FPOL>
0

>  <Q_VSA_FPOS>
1

>  <Q_VSA_FPPOS>
0

>  <Q_VSA_HYD>
445.12296

>  <Q_VSA_NEG>
0

>  <Q_VSA_PNEG>
0

>  <Q_VSA_POL>
0

>  <Q_VSA_POS>
445.12296

>  <Q_VSA_PPOS>
0

>  <radius>
9

>  <reactive>
1

>  <rings>
5

>  <RPC+>
0

>  <RPC->
0

>  <rsynth>
1

>  <SlogP>
6.0752001

>  <SlogP_VSA0>
61.77034

>  <SlogP_VSA1>
8.8119249

>  <SlogP_VSA2>
0

>  <SlogP_VSA3>
76.244995

>  <SlogP_VSA4>
30.233366

>  <SlogP_VSA5>
0

>  <SlogP_VSA6>
0

>  <SlogP_VSA7>
201.93776

>  <SlogP_VSA8>
56.605217

>  <SlogP_VSA9>
47.007973

>  <SMR>
13.62511

>  <SMR_VSA0>
23.862217

>  <SMR_VSA1>
64.894653

>  <SMR_VSA2>
0

>  <SMR_VSA3>
22.101435

>  <SMR_VSA4>
7.8627315

>  <SMR_VSA5>
250.68024

>  <SMR_VSA6>
81.932602

>  <SMR_VSA7>
31.277687

>  <TPSA>
70

>  <VAdjEq>
0.34983629

>  <VAdjMa>
6.2479277

>  <VDistEq>
3.9078324

>  <VDistMa>
9.8591862

>  <vdw_area>
445.12296

>  <vdw_vol>
638.58606

>  <vsa_acc>
16.070677

>  <vsa_acid>
0

>  <vsa_base>
0

>  <vsa_don>
0

>  <vsa_hyd>
366.61545

>  <vsa_other>
8.458519

>  <vsa_pol>
43.204517

>  <Weight>
473.59299

>  <weinerPath>
3843

>  <weinerPol>
54

>  <zagreb>
182

$$$$