
     RDKit          3D

 43 44  0  0  0  0  0  0  0  0999 V2000
    4.1308   -2.8395    1.2822 O   0  0  0  0  0  0  0  0  0  0  0  0
    3.0498   -1.9659    1.1804 C   0  0  0  0  0  0  0  0  0  0  0  0
    2.3768   -1.6697    2.2078 O   0  0  0  0  0  0  0  0  0  0  0  0
    2.7173   -1.3458   -0.1450 C   0  0  0  0  0  0  0  0  0  0  0  0
    3.6902   -0.2048   -0.4983 C   0  0  0  0  0  0  0  0  0  0  0  0
    3.6082    1.0198    0.4389 C   0  0  0  0  0  0  0  0  0  0  0  0
    2.4510    1.9661    0.1020 C   0  0  0  0  0  0  0  0  0  0  0  0
    1.2103    1.3311    0.3578 O   0  0  0  0  0  0  0  0  0  0  0  0
    0.0188    1.9715    0.1013 N   0  0  0  0  0  0  0  0  0  0  0  0
   -1.1176    1.3497    0.2102 C   0  0  0  0  0  0  0  0  0  0  0  0
   -2.3843    2.0598   -0.1091 C   0  0  0  0  0  0  0  0  0  0  0  0
   -2.3674    3.3477   -0.6722 C   0  0  0  0  0  0  0  0  0  0  0  0
   -3.5641    4.0064   -0.9625 C   0  0  0  0  0  0  0  0  0  0  0  0
   -4.7777    3.3746   -0.6960 C   0  0  0  0  0  0  0  0  0  0  0  0
   -4.7879    2.1316   -0.1508 N   0  0  0  0  0  0  0  0  0  0  0  0
   -3.6386    1.4695    0.1483 C   0  0  0  0  0  0  0  0  0  0  0  0
   -1.1271   -0.0749    0.6013 C   0  0  0  0  0  0  0  0  0  0  0  0
   -0.8557   -0.4410    1.9258 C   0  0  0  0  0  0  0  0  0  0  0  0
   -0.8077   -1.7901    2.2804 C   0  0  0  0  0  0  0  0  0  0  0  0
   -1.0086   -2.7797    1.3142 C   0  0  0  0  0  0  0  0  0  0  0  0
   -1.2696   -2.4252   -0.0227 C   0  0  0  0  0  0  0  0  0  0  0  0
   -1.3476   -1.0668   -0.3659 C   0  0  0  0  0  0  0  0  0  0  0  0
   -1.4995   -3.4725   -1.0818 C   0  0  0  0  0  0  0  0  0  0  0  0
   -0.7243   -3.1900   -2.1932 F   0  0  0  0  0  0  0  0  0  0  0  0
   -2.8323   -3.4667   -1.4521 F   0  0  0  0  0  0  0  0  0  0  0  0
   -1.1694   -4.7390   -0.6292 F   0  0  0  0  0  0  0  0  0  0  0  0
    4.4066   -3.2241    2.1782 H   0  0  0  0  0  0  0  0  0  0  0  0
    1.6629   -0.9976   -0.1571 H   0  0  0  0  0  0  0  0  0  0  0  0
    2.7962   -2.1318   -0.9284 H   0  0  0  0  0  0  0  0  0  0  0  0
    3.5087    0.1132   -1.5466 H   0  0  0  0  0  0  0  0  0  0  0  0
    4.7246   -0.6067   -0.4651 H   0  0  0  0  0  0  0  0  0  0  0  0
    4.5546    1.5928    0.3340 H   0  0  0  0  0  0  0  0  0  0  0  0
    3.5395    0.7042    1.5016 H   0  0  0  0  0  0  0  0  0  0  0  0
    2.5051    2.2663   -0.9662 H   0  0  0  0  0  0  0  0  0  0  0  0
    2.5309    2.8797    0.7302 H   0  0  0  0  0  0  0  0  0  0  0  0
   -1.4307    3.8442   -0.8959 H   0  0  0  0  0  0  0  0  0  0  0  0
   -3.5487    4.9977   -1.3970 H   0  0  0  0  0  0  0  0  0  0  0  0
   -5.7130    3.8726   -0.9178 H   0  0  0  0  0  0  0  0  0  0  0  0
   -3.7109    0.4854    0.5897 H   0  0  0  0  0  0  0  0  0  0  0  0
   -0.6841    0.3158    2.6796 H   0  0  0  0  0  0  0  0  0  0  0  0
   -0.6013   -2.0712    3.3049 H   0  0  0  0  0  0  0  0  0  0  0  0
   -0.9605   -3.8173    1.6160 H   0  0  0  0  0  0  0  0  0  0  0  0
   -1.5537   -0.7795   -1.3907 H   0  0  0  0  0  0  0  0  0  0  0  0
  1  2  1  0
  2  3  2  0
  2  4  1  0
  4  5  1  0
  5  6  1  0
  6  7  1  0
  7  8  1  0
  8  9  1  0
  9 10  2  3
 10 11  1  0
 11 12  2  0
 12 13  1  0
 13 14  2  0
 14 15  1  0
 15 16  2  0
 16 11  1  0
 10 17  1  0
 17 18  2  0
 18 19  1  0
 19 20  2  0
 20 21  1  0
 21 22  2  0
 22 17  1  0
 21 23  1  0
 23 24  1  0
 23 25  1  0
 23 26  1  0
  1 27  1  0
  4 28  1  0
  4 29  1  0
  5 30  1  0
  5 31  1  0
  6 32  1  0
  6 33  1  0
  7 34  1  0
  7 35  1  0
 12 36  1  0
 13 37  1  0
 14 38  1  0
 16 39  1  0
 18 40  1  0
 19 41  1  0
 20 42  1  0
 22 43  1  0
M  END
> <ID>
HT1819

> <Class>
0.0

> <Clusters>
179

> <Fold>
1

$$$$