
     RDKit          3D

 55 58  0  0  0  0  0  0  0  0999 V2000
   -4.5458   -1.7028   -0.1799 C   0  0  0  0  0  0  0  0  0  0  0  0
   -3.0677   -1.4176    0.1575 C   0  0  2  0  0  0  0  0  0  0  0  0
   -2.6803   -2.2616    1.3897 C   0  0  0  0  0  0  0  0  0  0  0  0
   -1.3885   -1.8315    2.1033 C   0  0  0  0  0  0  0  0  0  0  0  0
   -0.4799   -0.8695    1.3161 C   0  0  1  0  0  0  0  0  0  0  0  0
    0.5593   -1.5521    0.3611 C   0  0  1  0  0  0  0  0  0  0  0  0
    0.0139   -2.6006   -0.6207 C   0  0  0  0  0  0  0  0  0  0  0  0
    1.4021   -0.4918   -0.4096 C   0  0  2  0  0  0  0  0  0  0  0  0
    2.7651   -0.5941    0.0098 O   0  0  0  0  0  0  0  0  0  0  0  0
    3.8303   -0.9358   -0.8325 C   0  0  0  0  0  0  0  0  0  0  0  0
    3.6419   -1.1813   -2.0552 O   0  0  0  0  0  0  0  0  0  0  0  0
    5.2184   -0.9665   -0.2770 C   0  0  0  0  0  0  0  0  0  0  0  0
    5.8367    0.4366   -0.3074 C   0  0  0  0  0  0  0  0  0  0  0  0
    7.2353    0.4754    0.2474 C   0  0  0  0  0  0  0  0  0  0  0  0
    7.7943   -0.5683    0.6797 O   0  0  0  0  0  0  0  0  0  0  0  0
    7.9291    1.6807    0.2867 O   0  0  0  0  0  0  0  0  0  0  0  0
    0.9678    0.8271   -0.1480 O   0  0  0  0  0  0  0  0  0  0  0  0
   -0.4132    0.9772   -0.4264 C   0  0  2  0  0  0  0  0  0  0  0  0
   -0.6380    2.3717   -0.5697 O   0  0  0  0  0  0  0  0  0  0  0  0
   -1.8057    2.8628    0.0849 C   0  0  1  0  0  0  0  0  0  0  0  0
   -1.6969    4.3891    0.1282 C   0  0  0  0  0  0  0  0  0  0  0  0
   -3.0707    2.4687   -0.6965 C   0  0  0  0  0  0  0  0  0  0  0  0
   -3.2876    0.9481   -0.8197 C   0  0  0  0  0  0  0  0  0  0  0  0
   -2.7664    0.0921    0.3802 C   0  0  2  0  0  0  0  0  0  0  0  0
   -1.2343    0.3814    0.7416 C   0  0  1  0  0  0  0  0  0  0  0  0
   -1.1492    1.3991    1.7249 O   0  0  0  0  0  0  0  0  0  0  0  0
   -1.9698    2.4065    1.4270 O   0  0  0  0  0  0  0  0  0  0  0  0
   -4.7864   -1.3772   -1.2134 H   0  0  0  0  0  0  0  0  0  0  0  0
   -5.2206   -1.1902    0.5387 H   0  0  0  0  0  0  0  0  0  0  0  0
   -4.7504   -2.7946   -0.1400 H   0  0  0  0  0  0  0  0  0  0  0  0
   -2.4932   -1.7610   -0.7163 H   0  0  0  0  0  0  0  0  0  0  0  0
   -3.5050   -2.2250    2.1373 H   0  0  0  0  0  0  0  0  0  0  0  0
   -2.5960   -3.3267    1.0830 H   0  0  0  0  0  0  0  0  0  0  0  0
   -1.6795   -1.3194    3.0485 H   0  0  0  0  0  0  0  0  0  0  0  0
   -0.8123   -2.7326    2.4080 H   0  0  0  0  0  0  0  0  0  0  0  0
    0.1920   -0.4615    2.1099 H   0  0  0  0  0  0  0  0  0  0  0  0
    1.2478   -2.1248    1.0257 H   0  0  0  0  0  0  0  0  0  0  0  0
    0.8665   -3.1600   -1.0625 H   0  0  0  0  0  0  0  0  0  0  0  0
   -0.5227   -2.1240   -1.4648 H   0  0  0  0  0  0  0  0  0  0  0  0
   -0.6254   -3.3464   -0.1127 H   0  0  0  0  0  0  0  0  0  0  0  0
    1.3409   -0.6608   -1.5099 H   0  0  0  0  0  0  0  0  0  0  0  0
    5.8412   -1.6682   -0.8746 H   0  0  0  0  0  0  0  0  0  0  0  0
    5.1782   -1.3384    0.7698 H   0  0  0  0  0  0  0  0  0  0  0  0
    5.2047    1.1308    0.2881 H   0  0  0  0  0  0  0  0  0  0  0  0
    5.8655    0.8036   -1.3563 H   0  0  0  0  0  0  0  0  0  0  0  0
    7.5081    2.5373   -0.0529 H   0  0  0  0  0  0  0  0  0  0  0  0
   -0.6661    0.4834   -1.3914 H   0  0  0  0  0  0  0  0  0  0  0  0
   -1.6064    4.8035   -0.8991 H   0  0  0  0  0  0  0  0  0  0  0  0
   -0.7959    4.6851    0.7068 H   0  0  0  0  0  0  0  0  0  0  0  0
   -2.5898    4.8334    0.6188 H   0  0  0  0  0  0  0  0  0  0  0  0
   -3.9553    2.9075   -0.1821 H   0  0  0  0  0  0  0  0  0  0  0  0
   -3.0356    2.9064   -1.7187 H   0  0  0  0  0  0  0  0  0  0  0  0
   -4.3830    0.8104   -0.9299 H   0  0  0  0  0  0  0  0  0  0  0  0
   -2.8422    0.5841   -1.7695 H   0  0  0  0  0  0  0  0  0  0  0  0
   -3.3789    0.3823    1.2645 H   0  0  0  0  0  0  0  0  0  0  0  0
  2  1  1  0
  2  3  1  0
  3  4  1  0
  5  4  1  0
  5  6  1  0
  6  7  1  0
  6  8  1  0
  8  9  1  0
  9 10  1  0
 10 11  2  0
 10 12  1  0
 12 13  1  0
 13 14  1  0
 14 15  2  0
 14 16  1  0
  8 17  1  0
 17 18  1  0
 18 19  1  0
 19 20  1  0
 20 21  1  1
 20 22  1  0
 22 23  1  0
 24 23  1  0
 24  2  1  0
 24 25  1  0
 25  5  1  0
 25 18  1  0
 25 26  1  1
 26 27  1  0
 27 20  1  0
  1 28  1  0
  1 29  1  0
  1 30  1  0
  2 31  1  6
  3 32  1  0
  3 33  1  0
  4 34  1  0
  4 35  1  0
  5 36  1  1
  6 37  1  1
  7 38  1  0
  7 39  1  0
  7 40  1  0
  8 41  1  6
 12 42  1  0
 12 43  1  0
 13 44  1  0
 13 45  1  0
 16 46  1  0
 18 47  1  6
 21 48  1  0
 21 49  1  0
 21 50  1  0
 22 51  1  0
 22 52  1  0
 23 53  1  0
 23 54  1  0
 24 55  1  1
M  END
> <ID>
HT0185

> <Class>
0.0

> <Clusters>
55

> <Fold>
1

$$$$