
     RDKit          3D

 28 28  0  0  0  0  0  0  0  0999 V2000
    4.6369   -0.0338   -0.0272 C   0  0  0  0  0  0  0  0  0  0  0  0
    3.1869    0.1817    0.3857 C   0  0  0  0  0  0  0  0  0  0  0  0
    2.3074   -0.6552   -0.4397 N   0  0  0  0  0  0  0  0  0  0  0  0
    0.9622   -0.8125    0.1386 C   0  0  0  0  0  0  0  0  0  0  0  0
    0.1082    0.4723    0.0477 C   0  0  0  0  0  0  0  0  0  0  0  0
    0.5191    1.3907    1.0270 O   0  0  0  0  0  0  0  0  0  0  0  0
   -1.3572    0.1461    0.2478 C   0  0  0  0  0  0  0  0  0  0  0  0
   -1.8176   -0.3406    1.4846 C   0  0  0  0  0  0  0  0  0  0  0  0
   -3.1706   -0.6392    1.6667 C   0  0  0  0  0  0  0  0  0  0  0  0
   -4.0766   -0.4540    0.6198 C   0  0  0  0  0  0  0  0  0  0  0  0
   -3.6339    0.0318   -0.6143 C   0  0  0  0  0  0  0  0  0  0  0  0
   -4.5488    0.2125   -1.6492 O   0  0  0  0  0  0  0  0  0  0  0  0
   -2.2766    0.3324   -0.7997 C   0  0  0  0  0  0  0  0  0  0  0  0
    4.9164   -1.1006    0.1057 H   0  0  0  0  0  0  0  0  0  0  0  0
    5.3028    0.5928    0.6030 H   0  0  0  0  0  0  0  0  0  0  0  0
    4.7787    0.2514   -1.0913 H   0  0  0  0  0  0  0  0  0  0  0  0
    2.9365    1.2567    0.2517 H   0  0  0  0  0  0  0  0  0  0  0  0
    3.0893   -0.0829    1.4620 H   0  0  0  0  0  0  0  0  0  0  0  0
    2.2324   -0.2380   -1.3973 H   0  0  0  0  0  0  0  0  0  0  0  0
    1.0318   -1.1619    1.1926 H   0  0  0  0  0  0  0  0  0  0  0  0
    0.4511   -1.6224   -0.4271 H   0  0  0  0  0  0  0  0  0  0  0  0
    0.2582    0.9186   -0.9634 H   0  0  0  0  0  0  0  0  0  0  0  0
    0.1363    2.2710    0.7725 H   0  0  0  0  0  0  0  0  0  0  0  0
   -1.1291   -0.4859    2.3076 H   0  0  0  0  0  0  0  0  0  0  0  0
   -3.5174   -1.0138    2.6211 H   0  0  0  0  0  0  0  0  0  0  0  0
   -5.1235   -0.6871    0.7673 H   0  0  0  0  0  0  0  0  0  0  0  0
   -4.2611    0.5627   -2.5556 H   0  0  0  0  0  0  0  0  0  0  0  0
   -1.9417    0.7073   -1.7590 H   0  0  0  0  0  0  0  0  0  0  0  0
  1  2  1  0
  2  3  1  0
  3  4  1  0
  4  5  1  0
  5  6  1  0
  5  7  1  0
  7  8  2  0
  8  9  1  0
  9 10  2  0
 10 11  1  0
 11 12  1  0
 11 13  2  0
 13  7  1  0
  1 14  1  0
  1 15  1  0
  1 16  1  0
  2 17  1  0
  2 18  1  0
  3 19  1  0
  4 20  1  0
  4 21  1  0
  5 22  1  0
  6 23  1  0
  8 24  1  0
  9 25  1  0
 10 26  1  0
 12 27  1  0
 13 28  1  0
M  END
> <ID>
HT2779

> <Class>
0.0

> <Clusters>
196

> <Fold>
1

$$$$