
     RDKit          3D

 70 74  0  0  0  0  0  0  0  0999 V2000
   -0.1003   -0.7772   -1.2466 C   0  0  0  0  0  0  0  0  0  0  0  0
   -0.4173    0.2360   -0.0968 C   0  0  2  0  0  0  0  0  0  0  0  0
   -0.9372   -0.5270    1.1415 C   0  0  0  0  0  0  0  0  0  0  0  0
   -2.3395   -1.1364    0.8830 C   0  0  0  0  0  0  0  0  0  0  0  0
   -3.3610   -0.0777    0.3654 C   0  0  1  0  0  0  0  0  0  0  0  0
   -2.8081    0.7066   -0.8742 C   0  0  1  0  0  0  0  0  0  0  0  0
   -3.8219    1.7543   -1.4220 C   0  0  0  0  0  0  0  0  0  0  0  0
   -5.0901    1.9245   -0.5758 C   0  0  0  0  0  0  0  0  0  0  0  0
   -5.7099    0.6003   -0.1810 C   0  0  0  0  0  0  0  0  0  0  0  0
   -7.0329    0.5570    0.0515 C   0  0  0  0  0  0  0  0  0  0  0  0
   -7.6673   -0.5984    0.7037 C   0  0  0  0  0  0  0  0  0  0  0  0
   -8.9225   -0.6438    0.7966 O   0  0  0  0  0  0  0  0  0  0  0  0
   -6.8457   -1.7214    1.2635 C   0  0  0  0  0  0  0  0  0  0  0  0
   -5.3584   -1.3443    1.3745 C   0  0  0  0  0  0  0  0  0  0  0  0
   -4.8173   -0.6107    0.1095 C   0  0  2  0  0  0  0  0  0  0  0  0
   -4.8674   -1.5728   -1.1064 C   0  0  0  0  0  0  0  0  0  0  0  0
   -1.4475    1.3170   -0.4701 C   0  0  2  0  0  0  0  0  0  0  0  0
   -0.7002    2.2284   -1.4384 C   0  0  0  0  0  0  0  0  0  0  0  0
    0.7541    2.2001   -0.9315 C   0  0  0  0  0  0  0  0  0  0  0  0
    0.8196    1.1158    0.1637 C   0  0  2  0  0  0  0  0  0  0  0  0
    2.0406    0.3755    0.0763 O   0  0  0  0  0  0  0  0  0  0  0  0
    2.9588    0.2477    1.1239 C   0  0  0  0  0  0  0  0  0  0  0  0
    2.7708    0.8269    2.2282 O   0  0  0  0  0  0  0  0  0  0  0  0
    4.2016   -0.5554    0.9099 C   0  0  0  0  0  0  0  0  0  0  0  0
    5.2801    0.2995    0.2333 C   0  0  0  0  0  0  0  0  0  0  0  0
    6.5479   -0.5178   -0.0848 C   0  0  0  0  0  0  0  0  0  0  0  0
    7.5799    0.2963   -0.8680 C   0  0  0  0  0  0  0  0  0  0  0  0
    8.9563   -0.1716   -0.3940 C   0  0  0  0  0  0  0  0  0  0  0  0
    8.7204   -1.1948    0.7105 C   0  0  0  0  0  0  0  0  0  0  0  0
    7.2862   -0.9954    1.1613 C   0  0  0  0  0  0  0  0  0  0  0  0
    0.6792   -1.4961   -0.9165 H   0  0  0  0  0  0  0  0  0  0  0  0
   -0.9706   -1.3880   -1.5481 H   0  0  0  0  0  0  0  0  0  0  0  0
    0.2792   -0.2677   -2.1554 H   0  0  0  0  0  0  0  0  0  0  0  0
   -0.2262   -1.3357    1.4187 H   0  0  0  0  0  0  0  0  0  0  0  0
   -1.0046    0.1621    2.0123 H   0  0  0  0  0  0  0  0  0  0  0  0
   -2.6858   -1.5531    1.8511 H   0  0  0  0  0  0  0  0  0  0  0  0
   -2.2623   -1.9857    0.1762 H   0  0  0  0  0  0  0  0  0  0  0  0
   -3.4470    0.6553    1.2022 H   0  0  0  0  0  0  0  0  0  0  0  0
   -2.6248   -0.0009   -1.7047 H   0  0  0  0  0  0  0  0  0  0  0  0
   -4.1358    1.4460   -2.4441 H   0  0  0  0  0  0  0  0  0  0  0  0
   -3.3557    2.7543   -1.5348 H   0  0  0  0  0  0  0  0  0  0  0  0
   -4.8380    2.4871    0.3489 H   0  0  0  0  0  0  0  0  0  0  0  0
   -5.8139    2.5419   -1.1532 H   0  0  0  0  0  0  0  0  0  0  0  0
   -7.6509    1.4214   -0.1626 H   0  0  0  0  0  0  0  0  0  0  0  0
   -6.9675   -2.6174    0.6192 H   0  0  0  0  0  0  0  0  0  0  0  0
   -7.2260   -1.9851    2.2738 H   0  0  0  0  0  0  0  0  0  0  0  0
   -5.2270   -0.6896    2.2648 H   0  0  0  0  0  0  0  0  0  0  0  0
   -4.7907   -2.2812    1.5578 H   0  0  0  0  0  0  0  0  0  0  0  0
   -4.5355   -1.0779   -2.0404 H   0  0  0  0  0  0  0  0  0  0  0  0
   -5.9031   -1.9175   -1.3038 H   0  0  0  0  0  0  0  0  0  0  0  0
   -4.2381   -2.4697   -0.9324 H   0  0  0  0  0  0  0  0  0  0  0  0
   -1.6463    1.9494    0.4307 H   0  0  0  0  0  0  0  0  0  0  0  0
   -0.7651    1.8373   -2.4769 H   0  0  0  0  0  0  0  0  0  0  0  0
   -1.0994    3.2652   -1.4123 H   0  0  0  0  0  0  0  0  0  0  0  0
    1.4405    1.9575   -1.7723 H   0  0  0  0  0  0  0  0  0  0  0  0
    1.0441    3.1876   -0.5103 H   0  0  0  0  0  0  0  0  0  0  0  0
    0.7197    1.6143    1.1556 H   0  0  0  0  0  0  0  0  0  0  0  0
    4.5690   -0.9313    1.8894 H   0  0  0  0  0  0  0  0  0  0  0  0
    3.9577   -1.4314    0.2706 H   0  0  0  0  0  0  0  0  0  0  0  0
    4.8717    0.7036   -0.7205 H   0  0  0  0  0  0  0  0  0  0  0  0
    5.5371    1.1621    0.8884 H   0  0  0  0  0  0  0  0  0  0  0  0
    6.2687   -1.4071   -0.6958 H   0  0  0  0  0  0  0  0  0  0  0  0
    7.4585    0.1303   -1.9612 H   0  0  0  0  0  0  0  0  0  0  0  0
    7.4717    1.3853   -0.6633 H   0  0  0  0  0  0  0  0  0  0  0  0
    9.5318   -0.6257   -1.2310 H   0  0  0  0  0  0  0  0  0  0  0  0
    9.5315    0.6923    0.0079 H   0  0  0  0  0  0  0  0  0  0  0  0
    9.4305   -1.0570    1.5540 H   0  0  0  0  0  0  0  0  0  0  0  0
    8.8390   -2.2216    0.3005 H   0  0  0  0  0  0  0  0  0  0  0  0
    6.8541   -1.9415    1.5532 H   0  0  0  0  0  0  0  0  0  0  0  0
    7.2585   -0.2179    1.9571 H   0  0  0  0  0  0  0  0  0  0  0  0
  2  1  1  6
  2  3  1  0
  3  4  1  0
  5  4  1  0
  5  6  1  0
  6  7  1  0
  7  8  1  0
  8  9  1  0
  9 10  2  0
 10 11  1  0
 11 12  2  0
 11 13  1  0
 13 14  1  0
 14 15  1  0
 15  5  1  0
 15  9  1  0
 15 16  1  6
  6 17  1  0
 17  2  1  0
 17 18  1  0
 18 19  1  0
 19 20  1  0
 20  2  1  0
 20 21  1  0
 21 22  1  0
 22 23  2  0
 22 24  1  0
 24 25  1  0
 25 26  1  0
 26 27  1  0
 27 28  1  0
 28 29  1  0
 29 30  1  0
 30 26  1  0
  1 31  1  0
  1 32  1  0
  1 33  1  0
  3 34  1  0
  3 35  1  0
  4 36  1  0
  4 37  1  0
  5 38  1  1
  6 39  1  6
  7 40  1  0
  7 41  1  0
  8 42  1  0
  8 43  1  0
 10 44  1  0
 13 45  1  0
 13 46  1  0
 14 47  1  0
 14 48  1  0
 16 49  1  0
 16 50  1  0
 16 51  1  0
 17 52  1  1
 18 53  1  0
 18 54  1  0
 19 55  1  0
 19 56  1  0
 20 57  1  1
 24 58  1  0
 24 59  1  0
 25 60  1  0
 25 61  1  0
 26 62  1  0
 27 63  1  0
 27 64  1  0
 28 65  1  0
 28 66  1  0
 29 67  1  0
 29 68  1  0
 30 69  1  0
 30 70  1  0
M  END
> <ID>
HT2018

> <Class>
0.0

> <Clusters>
224

> <Fold>
1

$$$$