
     RDKit          3D

 40 42  0  0  0  0  0  0  0  0999 V2000
    4.9935    0.2227   -1.1257 C   0  0  0  0  0  0  0  0  0  0  0  0
    3.6551    0.9525   -1.1478 C   0  0  0  0  0  0  0  0  0  0  0  0
    2.7802    0.4371   -0.1470 O   0  0  0  0  0  0  0  0  0  0  0  0
    2.1243   -0.7952   -0.2525 C   0  0  0  0  0  0  0  0  0  0  0  0
    2.2958   -1.5292   -1.2642 O   0  0  0  0  0  0  0  0  0  0  0  0
    1.2550   -1.2702    0.8783 C   0  0  2  0  0  0  0  0  0  0  0  0
    0.3472   -2.2955    0.4582 O   0  0  0  0  0  0  0  0  0  0  0  0
   -1.0313   -2.2367    0.6809 C   0  0  0  0  0  0  0  0  0  0  0  0
   -1.6239   -3.1913    1.5144 C   0  0  0  0  0  0  0  0  0  0  0  0
   -2.9795   -3.1011    1.8352 C   0  0  0  0  0  0  0  0  0  0  0  0
   -3.7493   -2.0517    1.3276 C   0  0  0  0  0  0  0  0  0  0  0  0
   -5.4428   -1.9163    1.7643 Cl  0  0  0  0  0  0  0  0  0  0  0  0
   -3.1712   -1.1118    0.4681 C   0  0  0  0  0  0  0  0  0  0  0  0
   -1.8169   -1.2233    0.0951 C   0  0  0  0  0  0  0  0  0  0  0  0
   -1.1845   -0.2510   -0.8850 C   0  0  1  0  0  0  0  0  0  0  0  0
   -2.0680   -0.0683   -2.1360 C   0  0  0  0  0  0  0  0  0  0  0  0
   -0.7646    1.0312   -0.1693 C   0  0  0  0  0  0  0  0  0  0  0  0
   -1.2064    2.2971   -0.6246 C   0  0  0  0  0  0  0  0  0  0  0  0
   -0.8640    3.4686    0.0539 C   0  0  0  0  0  0  0  0  0  0  0  0
   -1.4304    5.0219   -0.5341 Cl  0  0  0  0  0  0  0  0  0  0  0  0
   -0.0812    3.4063    1.2024 C   0  0  0  0  0  0  0  0  0  0  0  0
    0.3728    2.1757    1.6680 C   0  0  0  0  0  0  0  0  0  0  0  0
    0.0660    0.9884    0.9914 C   0  0  0  0  0  0  0  0  0  0  0  0
    0.5839   -0.1944    1.5541 O   0  0  0  0  0  0  0  0  0  0  0  0
    5.4486    0.2973   -0.1155 H   0  0  0  0  0  0  0  0  0  0  0  0
    5.6816    0.6839   -1.8651 H   0  0  0  0  0  0  0  0  0  0  0  0
    4.8585   -0.8474   -1.3862 H   0  0  0  0  0  0  0  0  0  0  0  0
    3.8347    2.0278   -0.9375 H   0  0  0  0  0  0  0  0  0  0  0  0
    3.1840    0.8715   -2.1515 H   0  0  0  0  0  0  0  0  0  0  0  0
    1.9407   -1.7340    1.6171 H   0  0  0  0  0  0  0  0  0  0  0  0
   -1.0234   -3.9843    1.9416 H   0  0  0  0  0  0  0  0  0  0  0  0
   -3.4251   -3.8343    2.4954 H   0  0  0  0  0  0  0  0  0  0  0  0
   -3.7826   -0.3030    0.0918 H   0  0  0  0  0  0  0  0  0  0  0  0
   -0.2655   -0.7030   -1.3013 H   0  0  0  0  0  0  0  0  0  0  0  0
   -3.0140    0.4632   -1.9048 H   0  0  0  0  0  0  0  0  0  0  0  0
   -2.3218   -1.0604   -2.5678 H   0  0  0  0  0  0  0  0  0  0  0  0
   -1.5161    0.5032   -2.9130 H   0  0  0  0  0  0  0  0  0  0  0  0
   -1.8238    2.3996   -1.5043 H   0  0  0  0  0  0  0  0  0  0  0  0
    0.1790    4.3120    1.7354 H   0  0  0  0  0  0  0  0  0  0  0  0
    0.9855    2.1423    2.5602 H   0  0  0  0  0  0  0  0  0  0  0  0
  1  2  1  0
  2  3  1  0
  3  4  1  0
  4  5  2  0
  6  4  1  0
  6  7  1  0
  7  8  1  0
  8  9  2  0
  9 10  1  0
 10 11  2  0
 11 12  1  0
 11 13  1  0
 13 14  2  0
 14  8  1  0
 14 15  1  0
 15 16  1  0
 15 17  1  0
 17 18  2  0
 18 19  1  0
 19 20  1  0
 19 21  2  0
 21 22  1  0
 22 23  2  0
 23 17  1  0
 23 24  1  0
 24  6  1  0
  1 25  1  0
  1 26  1  0
  1 27  1  0
  2 28  1  0
  2 29  1  0
  6 30  1  1
  9 31  1  0
 10 32  1  0
 13 33  1  0
 15 34  1  6
 16 35  1  0
 16 36  1  0
 16 37  1  0
 18 38  1  0
 21 39  1  0
 22 40  1  0
M  END
> <ID>
HT1711

> <Class>
0.0

> <Clusters>
74

> <Fold>
1

$$$$