
     RDKit          3D

 24 25  0  0  0  0  0  0  0  0999 V2000
   -2.3251    1.0619    2.1987 O   0  0  0  0  0  0  0  0  0  0  0  0
   -2.3636    0.5933    0.8857 C   0  0  0  0  0  0  0  0  0  0  0  0
   -3.5962    0.2260    0.3332 C   0  0  0  0  0  0  0  0  0  0  0  0
   -3.6692   -0.2425   -0.9821 C   0  0  0  0  0  0  0  0  0  0  0  0
   -5.2181   -0.6995   -1.6670 Cl  0  0  0  0  0  0  0  0  0  0  0  0
   -2.5081   -0.3375   -1.7537 C   0  0  0  0  0  0  0  0  0  0  0  0
   -1.2739    0.0279   -1.2102 C   0  0  0  0  0  0  0  0  0  0  0  0
   -1.1883    0.4816    0.1194 C   0  0  0  0  0  0  0  0  0  0  0  0
    0.0369    0.8715    0.6820 O   0  0  0  0  0  0  0  0  0  0  0  0
    1.2896    0.3216    0.3687 C   0  0  0  0  0  0  0  0  0  0  0  0
    1.4310   -1.0306    0.0049 C   0  0  0  0  0  0  0  0  0  0  0  0
    2.6936   -1.5550   -0.2852 C   0  0  0  0  0  0  0  0  0  0  0  0
    3.8265   -0.7403   -0.2035 C   0  0  0  0  0  0  0  0  0  0  0  0
    5.4106   -1.4007   -0.5665 Cl  0  0  0  0  0  0  0  0  0  0  0  0
    3.6967    0.5991    0.1765 C   0  0  0  0  0  0  0  0  0  0  0  0
    2.4342    1.1286    0.4683 C   0  0  0  0  0  0  0  0  0  0  0  0
    2.2968    2.8137    0.9462 Cl  0  0  0  0  0  0  0  0  0  0  0  0
   -1.4598    1.3378    2.6473 H   0  0  0  0  0  0  0  0  0  0  0  0
   -4.4974    0.3070    0.9282 H   0  0  0  0  0  0  0  0  0  0  0  0
   -2.5614   -0.6872   -2.7769 H   0  0  0  0  0  0  0  0  0  0  0  0
   -0.3903   -0.0247   -1.8326 H   0  0  0  0  0  0  0  0  0  0  0  0
    0.5691   -1.6836   -0.0360 H   0  0  0  0  0  0  0  0  0  0  0  0
    2.7907   -2.5960   -0.5663 H   0  0  0  0  0  0  0  0  0  0  0  0
    4.5757    1.2275    0.2465 H   0  0  0  0  0  0  0  0  0  0  0  0
  1  2  1  0
  2  3  2  0
  3  4  1  0
  4  5  1  0
  4  6  2  0
  6  7  1  0
  7  8  2  0
  8  2  1  0
  8  9  1  0
  9 10  1  0
 10 11  2  0
 11 12  1  0
 12 13  2  0
 13 14  1  0
 13 15  1  0
 15 16  2  0
 16 10  1  0
 16 17  1  0
  1 18  1  0
  3 19  1  0
  6 20  1  0
  7 21  1  0
 11 22  1  0
 12 23  1  0
 15 24  1  0
M  END
> <ID>
HT2115

> <Class>
0.0

> <Clusters>
74

> <Fold>
1

$$$$