
     RDKit          3D

 59 63  0  0  0  0  0  0  0  0999 V2000
    3.7147   -0.2349    2.5311 O   0  0  0  0  0  0  0  0  0  0  0  0
    2.9434    0.0251    1.3748 C   0  0  0  0  0  0  0  0  0  0  0  0
    1.4792   -0.2361    1.7145 C   0  0  0  0  0  0  0  0  0  0  0  0
    1.0598    0.0146    2.8751 O   0  0  0  0  0  0  0  0  0  0  0  0
    0.5960   -0.7066    0.7351 O   0  0  0  0  0  0  0  0  0  0  0  0
   -0.7840   -1.0034    0.9578 C   0  0  0  0  0  0  0  0  0  0  0  0
   -1.3535   -1.6670   -0.3257 C   0  0  0  0  0  0  0  0  0  0  0  0
   -2.8907   -1.4798   -0.4718 C   0  0  0  0  0  0  0  0  0  0  0  0
   -3.5651   -2.1601    0.7409 C   0  0  0  0  0  0  0  0  0  0  0  0
   -3.7063   -1.0306    1.7694 C   0  0  0  0  0  0  0  0  0  0  0  0
   -3.0849    0.1955    1.0710 C   0  0  0  0  0  0  0  0  0  0  0  0
   -1.5654    0.2702    1.4004 C   0  0  0  0  0  0  0  0  0  0  0  0
   -3.2841   -0.0475   -0.3740 N   0  0  0  0  0  0  0  0  0  0  0  0
   -4.7031    0.1509   -0.7833 C   0  0  0  0  0  0  0  0  0  0  0  0
   -4.7142    0.5240   -2.2639 C   0  0  0  0  0  0  0  0  0  0  0  0
   -3.2795    0.8851   -2.5994 C   0  0  0  0  0  0  0  0  0  0  0  0
   -2.5636    0.8984   -1.2616 C   0  0  0  0  0  0  0  0  0  0  0  0
    3.3987   -0.8653    0.2082 C   0  0  0  0  0  0  0  0  0  0  0  0
    2.8471   -0.6805   -1.0813 C   0  0  0  0  0  0  0  0  0  0  0  0
    3.2511   -1.4807   -2.1528 C   0  0  0  0  0  0  0  0  0  0  0  0
    4.2197   -2.4702   -1.9662 C   0  0  0  0  0  0  0  0  0  0  0  0
    4.7870   -2.6624   -0.7033 C   0  0  0  0  0  0  0  0  0  0  0  0
    4.3867   -1.8695    0.3768 C   0  0  0  0  0  0  0  0  0  0  0  0
    3.1740    1.4888    0.9873 C   0  0  0  0  0  0  0  0  0  0  0  0
    4.4807    2.0238    1.0572 C   0  0  0  0  0  0  0  0  0  0  0  0
    4.7344    3.3392    0.6594 C   0  0  0  0  0  0  0  0  0  0  0  0
    3.6948    4.1370    0.1648 C   0  0  0  0  0  0  0  0  0  0  0  0
    2.4052    3.6195    0.0647 C   0  0  0  0  0  0  0  0  0  0  0  0
    2.1444    2.3066    0.4651 C   0  0  0  0  0  0  0  0  0  0  0  0
    3.4650   -1.1273    2.8874 H   0  0  0  0  0  0  0  0  0  0  0  0
   -0.8524   -1.7494    1.7803 H   0  0  0  0  0  0  0  0  0  0  0  0
   -0.8272   -1.3049   -1.2311 H   0  0  0  0  0  0  0  0  0  0  0  0
   -1.1206   -2.7544   -0.2971 H   0  0  0  0  0  0  0  0  0  0  0  0
   -3.2292   -1.9404   -1.4262 H   0  0  0  0  0  0  0  0  0  0  0  0
   -4.5653   -2.5583    0.4611 H   0  0  0  0  0  0  0  0  0  0  0  0
   -2.9718   -3.0087    1.1512 H   0  0  0  0  0  0  0  0  0  0  0  0
   -4.7823   -0.8434    1.9820 H   0  0  0  0  0  0  0  0  0  0  0  0
   -3.2007   -1.2828    2.7283 H   0  0  0  0  0  0  0  0  0  0  0  0
   -3.5744    1.1357    1.4091 H   0  0  0  0  0  0  0  0  0  0  0  0
   -1.1201    1.1700    0.9247 H   0  0  0  0  0  0  0  0  0  0  0  0
   -1.4446    0.4193    2.4966 H   0  0  0  0  0  0  0  0  0  0  0  0
   -5.3474   -0.7388   -0.6205 H   0  0  0  0  0  0  0  0  0  0  0  0
   -5.1637    0.9906   -0.2124 H   0  0  0  0  0  0  0  0  0  0  0  0
   -5.3950    1.3856   -2.4443 H   0  0  0  0  0  0  0  0  0  0  0  0
   -5.0478   -0.3381   -2.8829 H   0  0  0  0  0  0  0  0  0  0  0  0
   -2.8340    0.1052   -3.2586 H   0  0  0  0  0  0  0  0  0  0  0  0
   -3.2145    1.8768   -3.1005 H   0  0  0  0  0  0  0  0  0  0  0  0
   -1.4821    0.6951   -1.3939 H   0  0  0  0  0  0  0  0  0  0  0  0
   -2.6378    1.9316   -0.8475 H   0  0  0  0  0  0  0  0  0  0  0  0
    2.0976    0.0839   -1.2609 H   0  0  0  0  0  0  0  0  0  0  0  0
    2.8095   -1.3328   -3.1269 H   0  0  0  0  0  0  0  0  0  0  0  0
    4.5343   -3.0912   -2.7958 H   0  0  0  0  0  0  0  0  0  0  0  0
    5.5405   -3.4330   -0.5553 H   0  0  0  0  0  0  0  0  0  0  0  0
    4.8610   -2.0528    1.3376 H   0  0  0  0  0  0  0  0  0  0  0  0
    5.3070    1.4210    1.4192 H   0  0  0  0  0  0  0  0  0  0  0  0
    5.7353    3.7398    0.7314 H   0  0  0  0  0  0  0  0  0  0  0  0
    3.8937    5.1531   -0.1458 H   0  0  0  0  0  0  0  0  0  0  0  0
    1.6042    4.2325   -0.3362 H   0  0  0  0  0  0  0  0  0  0  0  0
    1.1402    1.9322    0.3436 H   0  0  0  0  0  0  0  0  0  0  0  0
  1  2  1  0
  2  3  1  0
  3  4  2  0
  3  5  1  0
  5  6  1  0
  6  7  1  0
  7  8  1  0
  8  9  1  0
  9 10  1  0
 10 11  1  0
 11 12  1  0
 12  6  1  0
 11 13  1  0
 13  8  1  0
 13 14  1  0
 14 15  1  0
 15 16  1  0
 16 17  1  0
 17 13  1  0
  2 18  1  0
 18 19  2  0
 19 20  1  0
 20 21  2  0
 21 22  1  0
 22 23  2  0
 23 18  1  0
  2 24  1  0
 24 25  2  0
 25 26  1  0
 26 27  2  0
 27 28  1  0
 28 29  2  0
 29 24  1  0
  1 30  1  0
  6 31  1  0
  7 32  1  0
  7 33  1  0
  8 34  1  0
  9 35  1  0
  9 36  1  0
 10 37  1  0
 10 38  1  0
 11 39  1  0
 12 40  1  0
 12 41  1  0
 14 42  1  0
 14 43  1  0
 15 44  1  0
 15 45  1  0
 16 46  1  0
 16 47  1  0
 17 48  1  0
 17 49  1  0
 19 50  1  0
 20 51  1  0
 21 52  1  0
 22 53  1  0
 23 54  1  0
 25 55  1  0
 26 56  1  0
 27 57  1  0
 28 58  1  0
 29 59  1  0
M  CHG  1  13   1
M  END
> <ID>
HT2142

> <Class>
0.0

> <Clusters>
155

> <Fold>
1

$$$$