
     RDKit          3D

 31 32  0  0  0  0  0  0  0  0999 V2000
    4.0993    0.3365   -0.7102 C   0  0  0  0  0  0  0  0  0  0  0  0
    3.2070   -0.8698   -0.3905 C   0  0  0  0  0  0  0  0  0  0  0  0
    3.6381   -1.5819    0.8693 C   0  0  0  0  0  0  0  0  0  0  0  0
    3.8161   -2.8285    0.8414 O   0  0  0  0  0  0  0  0  0  0  0  0
    3.8392   -0.9036    2.0702 O   0  0  0  0  0  0  0  0  0  0  0  0
    1.7333   -0.5056   -0.3371 C   0  0  0  0  0  0  0  0  0  0  0  0
    0.8179   -1.1992   -1.1364 C   0  0  0  0  0  0  0  0  0  0  0  0
   -0.5409   -0.8902   -1.0963 C   0  0  0  0  0  0  0  0  0  0  0  0
   -1.0445    0.1250   -0.2539 C   0  0  0  0  0  0  0  0  0  0  0  0
   -2.4762    0.3966   -0.2605 N   0  0  0  0  0  0  0  0  0  0  0  0
   -3.4334   -0.3290   -1.0982 C   0  0  0  0  0  0  0  0  0  0  0  0
   -4.7471    0.2819   -0.7710 C   0  0  0  0  0  0  0  0  0  0  0  0
   -4.6113    1.2381    0.1324 C   0  0  0  0  0  0  0  0  0  0  0  0
   -3.1886    1.3972    0.5323 C   0  0  0  0  0  0  0  0  0  0  0  0
   -0.1097    0.8296    0.5609 C   0  0  0  0  0  0  0  0  0  0  0  0
   -0.5257    2.1277    1.6762 Cl  0  0  0  0  0  0  0  0  0  0  0  0
    1.2535    0.5058    0.5085 C   0  0  0  0  0  0  0  0  0  0  0  0
    5.1578    0.0109   -0.7996 H   0  0  0  0  0  0  0  0  0  0  0  0
    3.7916    0.7851   -1.6790 H   0  0  0  0  0  0  0  0  0  0  0  0
    4.0377    1.1191    0.0729 H   0  0  0  0  0  0  0  0  0  0  0  0
    3.3607   -1.5841   -1.2313 H   0  0  0  0  0  0  0  0  0  0  0  0
    3.7452    0.0997    2.1489 H   0  0  0  0  0  0  0  0  0  0  0  0
    1.1529   -1.9900   -1.7964 H   0  0  0  0  0  0  0  0  0  0  0  0
   -1.1969   -1.4619   -1.7373 H   0  0  0  0  0  0  0  0  0  0  0  0
   -3.2046   -0.1772   -2.1746 H   0  0  0  0  0  0  0  0  0  0  0  0
   -3.4437   -1.4083   -0.8351 H   0  0  0  0  0  0  0  0  0  0  0  0
   -5.6954   -0.0108   -1.2092 H   0  0  0  0  0  0  0  0  0  0  0  0
   -5.4355    1.8247    0.5245 H   0  0  0  0  0  0  0  0  0  0  0  0
   -3.0889    1.1816    1.6168 H   0  0  0  0  0  0  0  0  0  0  0  0
   -2.8486    2.4208    0.2685 H   0  0  0  0  0  0  0  0  0  0  0  0
    1.9409    1.0599    1.1313 H   0  0  0  0  0  0  0  0  0  0  0  0
  1  2  1  0
  2  3  1  0
  3  4  2  0
  3  5  1  0
  2  6  1  0
  6  7  2  0
  7  8  1  0
  8  9  2  0
  9 10  1  0
 10 11  1  0
 11 12  1  0
 12 13  2  0
 13 14  1  0
 14 10  1  0
  9 15  1  0
 15 16  1  0
 15 17  2  0
 17  6  1  0
  1 18  1  0
  1 19  1  0
  1 20  1  0
  2 21  1  0
  5 22  1  0
  7 23  1  0
  8 24  1  0
 11 25  1  0
 11 26  1  0
 12 27  1  0
 13 28  1  0
 14 29  1  0
 14 30  1  0
 17 31  1  0
M  END
> <ID>
HT1697

> <Class>
0.0

> <Clusters>
176

> <Fold>
1

$$$$