
     RDKit          3D

 46 48  0  0  0  0  0  0  0  0999 V2000
    5.2676   -1.6387    1.3144 O   0  0  0  0  0  0  0  0  0  0  0  0
    3.8775   -1.5186    1.4643 C   0  0  0  0  0  0  0  0  0  0  0  0
    3.2573   -0.8169    0.2416 C   0  0  0  0  0  0  0  0  0  0  0  0
    3.7587    0.6306    0.1206 C   0  0  0  0  0  0  0  0  0  0  0  0
    3.0606    1.4556   -0.9830 C   0  0  0  0  0  0  0  0  0  0  0  0
    3.6219    1.2665   -2.3895 C   0  0  0  0  0  0  0  0  0  0  0  0
    2.2219    0.9681   -2.9098 C   0  0  0  0  0  0  0  0  0  0  0  0
    1.6645    1.0259   -1.4783 C   0  0  0  0  0  0  0  0  0  0  0  0
    1.1139   -0.3483   -0.9832 C   0  0  0  0  0  0  0  0  0  0  0  0
    1.7270   -0.8059    0.3530 C   0  0  0  0  0  0  0  0  0  0  0  0
   -0.3644   -0.3467   -0.9698 N   0  0  0  0  0  0  0  0  0  0  0  0
   -0.9656    0.3835    0.1568 C   0  0  0  0  0  0  0  0  0  0  0  0
   -2.3752    0.7621   -0.1944 C   0  0  0  0  0  0  0  0  0  0  0  0
   -2.5593    1.6300   -1.0904 O   0  0  0  0  0  0  0  0  0  0  0  0
   -3.5100    0.1628    0.4630 N   0  0  0  0  0  0  0  0  0  0  0  0
   -3.4424   -1.0778    1.2198 C   0  0  0  0  0  0  0  0  0  0  0  0
   -4.8807   -1.5585    1.3549 C   0  0  0  0  0  0  0  0  0  0  0  0
   -5.7540   -0.3392    1.0769 C   0  0  0  0  0  0  0  0  0  0  0  0
   -4.8800    0.6146    0.2598 C   0  0  1  0  0  0  0  0  0  0  0  0
   -5.0431    2.0061    0.7135 C   0  0  0  0  0  0  0  0  0  0  0  0
   -5.1706    3.0997    1.0698 N   0  0  0  0  0  0  0  0  0  0  0  0
    5.6742   -0.8388    1.7392 H   0  0  0  0  0  0  0  0  0  0  0  0
    3.4559   -2.5428    1.5517 H   0  0  0  0  0  0  0  0  0  0  0  0
    3.6207   -0.9746    2.4039 H   0  0  0  0  0  0  0  0  0  0  0  0
    3.5596   -1.3851   -0.6671 H   0  0  0  0  0  0  0  0  0  0  0  0
    4.8557    0.6409   -0.0584 H   0  0  0  0  0  0  0  0  0  0  0  0
    3.5866    1.1502    1.0893 H   0  0  0  0  0  0  0  0  0  0  0  0
    3.0673    2.5375   -0.7175 H   0  0  0  0  0  0  0  0  0  0  0  0
    4.2945    0.3855   -2.4841 H   0  0  0  0  0  0  0  0  0  0  0  0
    4.0477    2.2017   -2.8148 H   0  0  0  0  0  0  0  0  0  0  0  0
    1.8314    1.7976   -3.5399 H   0  0  0  0  0  0  0  0  0  0  0  0
    2.1657   -0.0166   -3.4219 H   0  0  0  0  0  0  0  0  0  0  0  0
    0.9328    1.8566   -1.3733 H   0  0  0  0  0  0  0  0  0  0  0  0
    1.4137   -1.1354   -1.7111 H   0  0  0  0  0  0  0  0  0  0  0  0
    1.3549   -1.8289    0.5819 H   0  0  0  0  0  0  0  0  0  0  0  0
    1.4271   -0.1349    1.1867 H   0  0  0  0  0  0  0  0  0  0  0  0
   -0.6996   -1.3388   -0.9284 H   0  0  0  0  0  0  0  0  0  0  0  0
   -0.4074    1.3165    0.3835 H   0  0  0  0  0  0  0  0  0  0  0  0
   -0.9423   -0.2431    1.0733 H   0  0  0  0  0  0  0  0  0  0  0  0
   -3.0033   -0.8799    2.2216 H   0  0  0  0  0  0  0  0  0  0  0  0
   -2.8348   -1.8356    0.6783 H   0  0  0  0  0  0  0  0  0  0  0  0
   -5.0849   -2.3404    0.5901 H   0  0  0  0  0  0  0  0  0  0  0  0
   -5.0756   -1.9774    2.3663 H   0  0  0  0  0  0  0  0  0  0  0  0
   -6.0547    0.1129    2.0497 H   0  0  0  0  0  0  0  0  0  0  0  0
   -6.6710   -0.6238    0.5163 H   0  0  0  0  0  0  0  0  0  0  0  0
   -5.1395    0.5417   -0.8190 H   0  0  0  0  0  0  0  0  0  0  0  0
  1  2  1  0
  2  3  1  0
  3  4  1  0
  4  5  1  0
  5  6  1  0
  6  7  1  0
  7  8  1  0
  8  5  1  0
  8  9  1  0
  9 10  1  0
 10  3  1  0
  9 11  1  0
 11 12  1  0
 12 13  1  0
 13 14  2  0
 13 15  1  0
 15 16  1  0
 16 17  1  0
 17 18  1  0
 18 19  1  0
 19 15  1  0
 19 20  1  0
 20 21  3  0
  1 22  1  0
  2 23  1  0
  2 24  1  0
  3 25  1  0
  4 26  1  0
  4 27  1  0
  5 28  1  0
  6 29  1  0
  6 30  1  0
  7 31  1  0
  7 32  1  0
  8 33  1  0
  9 34  1  0
 10 35  1  0
 10 36  1  0
 11 37  1  0
 12 38  1  0
 12 39  1  0
 16 40  1  0
 16 41  1  0
 17 42  1  0
 17 43  1  0
 18 44  1  0
 18 45  1  0
 19 46  1  6
M  END
> <ID>
HT2179

> <Class>
0.0

> <Clusters>
55

> <Fold>
1

$$$$