
     RDKit          3D

 48 50  0  0  0  0  0  0  0  0999 V2000
   -2.3111    2.9205   -1.7357 C   0  0  0  0  0  0  0  0  0  0  0  0
   -2.2861    1.7863   -0.8757 O   0  0  0  0  0  0  0  0  0  0  0  0
   -1.1365    1.0393   -0.5676 C   0  0  0  0  0  0  0  0  0  0  0  0
    0.1186    1.3585   -1.1184 C   0  0  0  0  0  0  0  0  0  0  0  0
    1.2391    0.5750   -0.8381 C   0  0  0  0  0  0  0  0  0  0  0  0
    1.1345   -0.5453    0.0008 C   0  0  0  0  0  0  0  0  0  0  0  0
   -0.1179   -0.8695    0.5482 C   0  0  0  0  0  0  0  0  0  0  0  0
   -1.2483   -0.0753    0.2902 C   0  0  0  0  0  0  0  0  0  0  0  0
   -2.5437   -0.4430    0.9041 C   0  0  0  0  0  0  0  0  0  0  0  0
   -2.8514   -1.6608    1.0204 O   0  0  0  0  0  0  0  0  0  0  0  0
   -3.4380    0.5687    1.3914 N   0  0  0  0  0  0  0  0  0  0  0  0
   -4.8313    0.2828    1.7233 C   0  0  0  0  0  0  0  0  0  0  0  0
   -5.6103   -0.0206    0.4724 C   0  0  0  0  0  0  0  0  0  0  0  0
   -6.1838   -1.2839    0.2675 C   0  0  0  0  0  0  0  0  0  0  0  0
   -6.8933   -1.5455   -0.9062 C   0  0  0  0  0  0  0  0  0  0  0  0
   -7.0239   -0.5396   -1.8656 C   0  0  0  0  0  0  0  0  0  0  0  0
   -6.4640    0.6809   -1.6534 N   0  0  0  0  0  0  0  0  0  0  0  0
   -5.7686    0.9603   -0.5187 C   0  0  0  0  0  0  0  0  0  0  0  0
    2.3142   -1.3951    0.2934 C   0  0  0  0  0  0  0  0  0  0  0  0
    2.1415   -2.6018    0.6197 O   0  0  0  0  0  0  0  0  0  0  0  0
    3.6470   -0.8643    0.2280 N   0  0  0  0  0  0  0  0  0  0  0  0
    4.8168   -1.7347    0.3493 C   0  0  0  0  0  0  0  0  0  0  0  0
    6.0902   -0.9459    0.1947 C   0  0  0  0  0  0  0  0  0  0  0  0
    6.9692   -0.7737    1.2742 C   0  0  0  0  0  0  0  0  0  0  0  0
    8.1433   -0.0368    1.1070 C   0  0  0  0  0  0  0  0  0  0  0  0
    8.4288    0.5221   -0.1402 C   0  0  0  0  0  0  0  0  0  0  0  0
    7.5683    0.3471   -1.1780 N   0  0  0  0  0  0  0  0  0  0  0  0
    6.4186   -0.3663   -1.0405 C   0  0  0  0  0  0  0  0  0  0  0  0
   -1.6548    3.7201   -1.3321 H   0  0  0  0  0  0  0  0  0  0  0  0
   -3.3489    3.3078   -1.7930 H   0  0  0  0  0  0  0  0  0  0  0  0
   -1.9823    2.6330   -2.7565 H   0  0  0  0  0  0  0  0  0  0  0  0
    0.2372    2.2041   -1.7819 H   0  0  0  0  0  0  0  0  0  0  0  0
    2.1785    0.8336   -1.3082 H   0  0  0  0  0  0  0  0  0  0  0  0
   -0.2101   -1.7289    1.2024 H   0  0  0  0  0  0  0  0  0  0  0  0
   -3.0803    1.5385    1.5447 H   0  0  0  0  0  0  0  0  0  0  0  0
   -5.2834    1.1672    2.2223 H   0  0  0  0  0  0  0  0  0  0  0  0
   -4.8744   -0.5622    2.4447 H   0  0  0  0  0  0  0  0  0  0  0  0
   -6.0789   -2.0649    1.0102 H   0  0  0  0  0  0  0  0  0  0  0  0
   -7.3368   -2.5189   -1.0713 H   0  0  0  0  0  0  0  0  0  0  0  0
   -7.5706   -0.7292   -2.7796 H   0  0  0  0  0  0  0  0  0  0  0  0
   -5.3369    1.9446   -0.3892 H   0  0  0  0  0  0  0  0  0  0  0  0
    3.7837    0.1681    0.1408 H   0  0  0  0  0  0  0  0  0  0  0  0
    4.7893   -2.2417    1.3385 H   0  0  0  0  0  0  0  0  0  0  0  0
    4.7802   -2.5195   -0.4369 H   0  0  0  0  0  0  0  0  0  0  0  0
    6.7467   -1.2054    2.2421 H   0  0  0  0  0  0  0  0  0  0  0  0
    8.8253    0.1004    1.9361 H   0  0  0  0  0  0  0  0  0  0  0  0
    9.3349    1.0955   -0.2834 H   0  0  0  0  0  0  0  0  0  0  0  0
    5.7598   -0.4815   -1.8918 H   0  0  0  0  0  0  0  0  0  0  0  0
  1  2  1  0
  2  3  1  0
  3  4  2  0
  4  5  1  0
  5  6  2  0
  6  7  1  0
  7  8  2  0
  8  3  1  0
  8  9  1  0
  9 10  2  0
  9 11  1  0
 11 12  1  0
 12 13  1  0
 13 14  2  0
 14 15  1  0
 15 16  2  0
 16 17  1  0
 17 18  2  0
 18 13  1  0
  6 19  1  0
 19 20  2  0
 19 21  1  0
 21 22  1  0
 22 23  1  0
 23 24  2  0
 24 25  1  0
 25 26  2  0
 26 27  1  0
 27 28  2  0
 28 23  1  0
  1 29  1  0
  1 30  1  0
  1 31  1  0
  4 32  1  0
  5 33  1  0
  7 34  1  0
 11 35  1  0
 12 36  1  0
 12 37  1  0
 14 38  1  0
 15 39  1  0
 16 40  1  0
 18 41  1  0
 21 42  1  0
 22 43  1  0
 22 44  1  0
 24 45  1  0
 25 46  1  0
 26 47  1  0
 28 48  1  0
M  END
> <ID>
HT1669

> <Class>
0.0

> <Clusters>
120

> <Fold>
1

$$$$