
     RDKit          3D

 79 81  0  0  0  0  0  0  0  0999 V2000
   -5.5217    0.8489   -2.9275 C   0  0  0  0  0  0  0  0  0  0  0  0
   -4.5446    0.1303   -2.0997 N   0  0  0  0  0  0  0  0  0  0  0  0
   -3.8996    1.0047   -1.0929 C   0  0  1  0  0  0  0  0  0  0  0  0
   -4.7582    1.0897    0.1894 C   0  0  2  0  0  0  0  0  0  0  0  0
   -5.9500    1.7823   -0.0806 O   0  0  0  0  0  0  0  0  0  0  0  0
   -3.9916    1.8281    1.3030 C   0  0  1  0  0  0  0  0  0  0  0  0
   -4.7044    1.7297    2.5107 O   0  0  0  0  0  0  0  0  0  0  0  0
   -2.5890    1.2111    1.4818 C   0  0  2  0  0  0  0  0  0  0  0  0
   -1.7847    1.9906    2.5340 C   0  0  0  0  0  0  0  0  0  0  0  0
   -0.5246    1.4067    2.7223 O   0  0  0  0  0  0  0  0  0  0  0  0
   -1.8719    1.2436    0.2585 O   0  0  0  0  0  0  0  0  0  0  0  0
   -2.4966    0.4513   -0.7389 C   0  0  1  0  0  0  0  0  0  0  0  0
   -2.6030   -0.9022   -0.3152 O   0  0  0  0  0  0  0  0  0  0  0  0
   -1.6050   -1.7300   -0.8894 C   0  0  1  0  0  0  0  0  0  0  0  0
   -0.2366   -1.5682   -0.2114 C   0  0  2  0  0  0  0  0  0  0  0  0
    0.6112   -0.7771   -1.0321 O   0  0  0  0  0  0  0  0  0  0  0  0
    1.3209    0.2246   -0.3136 C   0  0  2  0  0  0  0  0  0  0  0  0
    1.5978    1.3831   -1.2955 C   0  0  1  0  0  0  0  0  0  0  0  0
    0.3732    1.9099   -1.7374 O   0  0  0  0  0  0  0  0  0  0  0  0
    2.4261    2.5007   -0.6324 C   0  0  2  0  0  0  0  0  0  0  0  0
    2.6787    3.5067   -1.5813 O   0  0  0  0  0  0  0  0  0  0  0  0
    3.7608    1.9431   -0.1058 C   0  0  1  0  0  0  0  0  0  0  0  0
    4.4888    3.0150    0.5827 N   0  0  0  0  0  0  0  0  0  0  0  0
    5.7361    3.3643    0.4358 C   0  0  0  0  0  0  0  0  0  0  0  0
    6.6373    2.6500   -0.4207 N   0  0  0  0  0  0  0  0  0  0  0  0
    6.2232    4.4901    1.1661 N   0  0  0  0  0  0  0  0  0  0  0  0
    3.5023    0.7888    0.8831 C   0  0  2  0  0  0  0  0  0  0  0  0
    4.7179    0.2774    1.3724 O   0  0  0  0  0  0  0  0  0  0  0  0
    2.6570   -0.3368    0.2438 C   0  0  1  0  0  0  0  0  0  0  0  0
    2.3776   -1.3431    1.2733 N   0  0  0  0  0  0  0  0  0  0  0  0
    2.9215   -2.5195    1.4171 C   0  0  0  0  0  0  0  0  0  0  0  0
    3.9743   -2.9876    0.5630 N   0  0  0  0  0  0  0  0  0  0  0  0
    2.4409   -3.3742    2.4546 N   0  0  0  0  0  0  0  0  0  0  0  0
    0.3480   -2.8459   -0.0592 O   0  0  0  0  0  0  0  0  0  0  0  0
   -0.5250   -3.7933   -0.6218 C   0  0  1  0  0  0  0  0  0  0  0  0
   -0.4097   -5.1157    0.1403 C   0  0  0  0  0  0  0  0  0  0  0  0
   -1.9323   -3.1867   -0.6311 C   0  0  1  0  0  0  0  0  0  0  0  0
   -2.5525   -3.3072    0.6345 O   0  0  0  0  0  0  0  0  0  0  0  0
   -2.7991   -3.7537   -1.7415 C   0  0  0  0  0  0  0  0  0  0  0  0
   -3.9233   -4.1742   -1.5151 O   0  0  0  0  0  0  0  0  0  0  0  0
   -6.4448    1.0599   -2.3507 H   0  0  0  0  0  0  0  0  0  0  0  0
   -5.8175    0.2097   -3.7866 H   0  0  0  0  0  0  0  0  0  0  0  0
   -5.0961    1.7941   -3.3340 H   0  0  0  0  0  0  0  0  0  0  0  0
   -3.8164   -0.2275   -2.7633 H   0  0  0  0  0  0  0  0  0  0  0  0
   -3.7515    2.0333   -1.4973 H   0  0  0  0  0  0  0  0  0  0  0  0
   -4.9846    0.0495    0.5294 H   0  0  0  0  0  0  0  0  0  0  0  0
   -6.6404    1.4254    0.5369 H   0  0  0  0  0  0  0  0  0  0  0  0
   -3.8714    2.8998    1.0124 H   0  0  0  0  0  0  0  0  0  0  0  0
   -5.3976    2.4402    2.4966 H   0  0  0  0  0  0  0  0  0  0  0  0
   -2.6894    0.1661    1.8565 H   0  0  0  0  0  0  0  0  0  0  0  0
   -2.3321    2.0237    3.5030 H   0  0  0  0  0  0  0  0  0  0  0  0
   -1.6383    3.0370    2.1906 H   0  0  0  0  0  0  0  0  0  0  0  0
   -0.6706    0.5767    3.2474 H   0  0  0  0  0  0  0  0  0  0  0  0
   -1.8843    0.5645   -1.6627 H   0  0  0  0  0  0  0  0  0  0  0  0
   -1.5123   -1.5680   -1.9918 H   0  0  0  0  0  0  0  0  0  0  0  0
   -0.3998   -1.1529    0.8106 H   0  0  0  0  0  0  0  0  0  0  0  0
    0.7218    0.6517    0.5218 H   0  0  0  0  0  0  0  0  0  0  0  0
    2.1670    0.9741   -2.1658 H   0  0  0  0  0  0  0  0  0  0  0  0
    0.5394    2.3328   -2.6210 H   0  0  0  0  0  0  0  0  0  0  0  0
    1.8341    2.9193    0.2177 H   0  0  0  0  0  0  0  0  0  0  0  0
    2.8225    4.3509   -1.0791 H   0  0  0  0  0  0  0  0  0  0  0  0
    4.3256    1.5608   -0.9805 H   0  0  0  0  0  0  0  0  0  0  0  0
    7.5905    3.0356   -0.5996 H   0  0  0  0  0  0  0  0  0  0  0  0
    6.4376    1.6967   -0.7907 H   0  0  0  0  0  0  0  0  0  0  0  0
    5.5896    5.0249    1.8008 H   0  0  0  0  0  0  0  0  0  0  0  0
    7.2178    4.7934    1.0741 H   0  0  0  0  0  0  0  0  0  0  0  0
    2.9374    1.1952    1.7529 H   0  0  0  0  0  0  0  0  0  0  0  0
    5.2304   -0.0728    0.5977 H   0  0  0  0  0  0  0  0  0  0  0  0
    3.2100   -0.7732   -0.6133 H   0  0  0  0  0  0  0  0  0  0  0  0
    4.5325   -2.3592   -0.0512 H   0  0  0  0  0  0  0  0  0  0  0  0
    4.2807   -3.9828    0.6250 H   0  0  0  0  0  0  0  0  0  0  0  0
    1.6621   -3.0646    3.0787 H   0  0  0  0  0  0  0  0  0  0  0  0
    2.8527   -4.3230    2.5953 H   0  0  0  0  0  0  0  0  0  0  0  0
   -0.1919   -3.9799   -1.6693 H   0  0  0  0  0  0  0  0  0  0  0  0
   -0.5841   -4.9612    1.2260 H   0  0  0  0  0  0  0  0  0  0  0  0
   -1.1440   -5.8513   -0.2516 H   0  0  0  0  0  0  0  0  0  0  0  0
    0.6124   -5.5317    0.0111 H   0  0  0  0  0  0  0  0  0  0  0  0
   -2.8428   -4.2488    0.7552 H   0  0  0  0  0  0  0  0  0  0  0  0
   -2.4245   -3.7738   -2.7604 H   0  0  0  0  0  0  0  0  0  0  0  0
  1  2  1  0
  3  2  1  0
  3  4  1  0
  4  5  1  0
  4  6  1  0
  6  7  1  0
  6  8  1  0
  8  9  1  0
  9 10  1  0
  8 11  1  0
 11 12  1  0
 12  3  1  0
 12 13  1  0
 14 13  1  0
 14 15  1  0
 15 16  1  0
 17 16  1  0
 17 18  1  0
 18 19  1  0
 18 20  1  0
 20 21  1  0
 20 22  1  0
 22 23  1  0
 23 24  2  3
 24 25  1  0
 24 26  1  0
 22 27  1  0
 27 28  1  0
 27 29  1  0
 29 17  1  0
 29 30  1  0
 30 31  2  3
 31 32  1  0
 31 33  1  0
 15 34  1  0
 34 35  1  0
 35 36  1  0
 35 37  1  0
 37 14  1  0
 37 38  1  1
 37 39  1  0
 39 40  2  0
  1 41  1  0
  1 42  1  0
  1 43  1  0
  2 44  1  0
  3 45  1  6
  4 46  1  1
  5 47  1  0
  6 48  1  6
  7 49  1  0
  8 50  1  1
  9 51  1  0
  9 52  1  0
 10 53  1  0
 12 54  1  6
 14 55  1  6
 15 56  1  1
 17 57  1  1
 18 58  1  6
 19 59  1  0
 20 60  1  1
 21 61  1  0
 22 62  1  6
 25 63  1  0
 25 64  1  0
 26 65  1  0
 26 66  1  0
 27 67  1  1
 28 68  1  0
 29 69  1  6
 32 70  1  0
 32 71  1  0
 33 72  1  0
 33 73  1  0
 35 74  1  6
 36 75  1  0
 36 76  1  0
 36 77  1  0
 38 78  1  0
 39 79  1  0
M  END
> <ID>
HT1918

> <Class>
0.0

> <Clusters>
141

> <Fold>
1

$$$$