
     RDKit          3D

 32 33  0  0  0  0  0  0  0  0999 V2000
   -1.3784   -1.9571   -1.2671 C   0  0  0  0  0  0  0  0  0  0  0  0
   -1.4552   -0.5497   -0.6560 C   0  0  0  0  0  0  0  0  0  0  0  0
   -2.9214   -0.1360   -0.4692 C   0  0  0  0  0  0  0  0  0  0  0  0
   -2.9980    1.5367    0.1424 S   0  0  0  0  0  0  0  0  0  0  0  0
   -3.9907    1.6248    1.2672 O   0  0  0  0  0  0  0  0  0  0  0  0
   -3.4046    2.4711   -0.9620 O   0  0  0  0  0  0  0  0  0  0  0  0
   -1.3739    1.9724    0.7296 C   0  0  0  0  0  0  0  0  0  0  0  0
   -0.7362    0.7771    1.4434 C   0  0  0  0  0  0  0  0  0  0  0  0
   -0.7317   -0.4534    0.6320 N   0  0  0  0  0  0  0  0  0  0  0  0
   -0.1170   -1.5892    1.1906 N   0  0  0  0  0  0  0  0  0  0  0  0
    1.1494   -1.8564    1.0596 C   0  0  0  0  0  0  0  0  0  0  0  0
    2.0773   -1.0230    0.2715 C   0  0  0  0  0  0  0  0  0  0  0  0
    1.7367    0.0397   -0.4219 O   0  0  0  0  0  0  0  0  0  0  0  0
    2.8164    0.5167   -0.9932 C   0  0  0  0  0  0  0  0  0  0  0  0
    3.9168   -0.2530   -0.6736 C   0  0  0  0  0  0  0  0  0  0  0  0
    3.4355   -1.2527    0.1468 C   0  0  0  0  0  0  0  0  0  0  0  0
    2.8265    1.6759   -1.8282 N   0  0  0  0  0  0  0  0  0  0  0  0
    1.7662    2.2957   -2.0477 O   0  0  0  0  0  0  0  0  0  0  0  0
    4.0000    2.1170   -2.3941 O   0  0  0  0  0  0  0  0  0  0  0  0
   -1.8362   -2.7067   -0.5865 H   0  0  0  0  0  0  0  0  0  0  0  0
   -1.9164   -1.9824   -2.2387 H   0  0  0  0  0  0  0  0  0  0  0  0
   -0.3200   -2.2339   -1.4579 H   0  0  0  0  0  0  0  0  0  0  0  0
   -0.9798    0.1451   -1.3834 H   0  0  0  0  0  0  0  0  0  0  0  0
   -3.4150   -0.8138    0.2603 H   0  0  0  0  0  0  0  0  0  0  0  0
   -3.4672   -0.1927   -1.4354 H   0  0  0  0  0  0  0  0  0  0  0  0
   -1.4506    2.8329    1.4273 H   0  0  0  0  0  0  0  0  0  0  0  0
   -0.7401    2.2736   -0.1316 H   0  0  0  0  0  0  0  0  0  0  0  0
    0.3083    1.0445    1.7108 H   0  0  0  0  0  0  0  0  0  0  0  0
   -1.2874    0.5822    2.3886 H   0  0  0  0  0  0  0  0  0  0  0  0
    1.5396   -2.7449    1.5383 H   0  0  0  0  0  0  0  0  0  0  0  0
    4.9396   -0.1082   -0.9953 H   0  0  0  0  0  0  0  0  0  0  0  0
    4.0076   -2.0525    0.5983 H   0  0  0  0  0  0  0  0  0  0  0  0
  1  2  1  0
  2  3  1  0
  3  4  1  0
  4  5  2  0
  4  6  2  0
  4  7  1  0
  7  8  1  0
  8  9  1  0
  9  2  1  0
  9 10  1  0
 10 11  2  3
 11 12  1  0
 12 13  1  0
 13 14  1  0
 14 15  2  0
 15 16  1  0
 16 12  2  0
 14 17  1  0
 17 18  2  0
 17 19  1  0
  1 20  1  0
  1 21  1  0
  1 22  1  0
  2 23  1  0
  3 24  1  0
  3 25  1  0
  7 26  1  0
  7 27  1  0
  8 28  1  0
  8 29  1  0
 11 30  1  0
 15 31  1  0
 16 32  1  0
M  CHG  2  17   1  19  -1
M  END
> <ID>
HT1491

> <Class>
0.0

> <Clusters>
180

> <Fold>
1

$$$$