
     RDKit          3D

 37 37  0  0  0  0  0  0  0  0999 V2000
   -1.9506   -1.4644    1.5518 C   0  0  0  0  0  0  0  0  0  0  0  0
   -1.2098   -0.1741    1.1385 C   0  0  0  0  0  0  0  0  0  0  0  0
    0.1245   -0.4229    0.5583 N   0  0  0  0  0  0  0  0  0  0  0  0
    0.5712   -1.3695   -0.2270 C   0  0  0  0  0  0  0  0  0  0  0  0
   -0.2919   -2.3916   -0.7523 N   0  0  0  0  0  0  0  0  0  0  0  0
    0.2050   -3.6324   -1.1766 C   0  0  0  0  0  0  0  0  0  0  0  0
    0.6145   -4.6565   -1.5268 N   0  0  0  0  0  0  0  0  0  0  0  0
    1.9796   -1.4166   -0.5209 N   0  0  0  0  0  0  0  0  0  0  0  0
    2.8348   -0.2645   -0.4714 C   0  0  0  0  0  0  0  0  0  0  0  0
    2.4030    0.9771   -0.9602 C   0  0  0  0  0  0  0  0  0  0  0  0
    3.2675    2.0733   -0.9148 C   0  0  0  0  0  0  0  0  0  0  0  0
    4.5242    1.9301   -0.4163 N   0  0  0  0  0  0  0  0  0  0  0  0
    4.9760    0.7328    0.0430 C   0  0  0  0  0  0  0  0  0  0  0  0
    4.1426   -0.3884    0.0148 C   0  0  0  0  0  0  0  0  0  0  0  0
   -2.0489    0.8608    0.3066 C   0  0  0  0  0  0  0  0  0  0  0  0
   -1.2970    2.2110    0.2668 C   0  0  0  0  0  0  0  0  0  0  0  0
   -2.2857    0.3898   -1.1430 C   0  0  0  0  0  0  0  0  0  0  0  0
   -3.4200    1.1075    0.9773 C   0  0  0  0  0  0  0  0  0  0  0  0
   -2.5895   -1.8655    0.7425 H   0  0  0  0  0  0  0  0  0  0  0  0
   -1.2280   -2.2423    1.8779 H   0  0  0  0  0  0  0  0  0  0  0  0
   -2.6190   -1.2545    2.4143 H   0  0  0  0  0  0  0  0  0  0  0  0
   -1.0013    0.3247    2.1116 H   0  0  0  0  0  0  0  0  0  0  0  0
   -1.2858   -2.1874   -0.9735 H   0  0  0  0  0  0  0  0  0  0  0  0
    2.4266   -2.3434   -0.7000 H   0  0  0  0  0  0  0  0  0  0  0  0
    1.4207    1.0864   -1.3984 H   0  0  0  0  0  0  0  0  0  0  0  0
    2.9425    3.0360   -1.2862 H   0  0  0  0  0  0  0  0  0  0  0  0
    5.9834    0.6501    0.4284 H   0  0  0  0  0  0  0  0  0  0  0  0
    4.5066   -1.3408    0.3793 H   0  0  0  0  0  0  0  0  0  0  0  0
   -1.1282    2.5989    1.2946 H   0  0  0  0  0  0  0  0  0  0  0  0
   -0.3118    2.1052   -0.2284 H   0  0  0  0  0  0  0  0  0  0  0  0
   -1.8791    2.9726   -0.2963 H   0  0  0  0  0  0  0  0  0  0  0  0
   -1.3235    0.2100   -1.6668 H   0  0  0  0  0  0  0  0  0  0  0  0
   -2.8964   -0.5358   -1.1691 H   0  0  0  0  0  0  0  0  0  0  0  0
   -2.8394    1.1643   -1.7168 H   0  0  0  0  0  0  0  0  0  0  0  0
   -4.0517    0.1946    0.9487 H   0  0  0  0  0  0  0  0  0  0  0  0
   -3.2883    1.4117    2.0382 H   0  0  0  0  0  0  0  0  0  0  0  0
   -3.9768    1.9137    0.4520 H   0  0  0  0  0  0  0  0  0  0  0  0
  1  2  1  0
  2  3  1  0
  3  4  2  3
  4  5  1  0
  5  6  1  0
  6  7  3  0
  4  8  1  0
  8  9  1  0
  9 10  2  0
 10 11  1  0
 11 12  2  0
 12 13  1  0
 13 14  2  0
 14  9  1  0
  2 15  1  0
 15 16  1  0
 15 17  1  0
 15 18  1  0
  1 19  1  0
  1 20  1  0
  1 21  1  0
  2 22  1  0
  5 23  1  0
  8 24  1  0
 10 25  1  0
 11 26  1  0
 13 27  1  0
 14 28  1  0
 16 29  1  0
 16 30  1  0
 16 31  1  0
 17 32  1  0
 17 33  1  0
 17 34  1  0
 18 35  1  0
 18 36  1  0
 18 37  1  0
M  END
> <ID>
HT1675

> <Class>
0.0

> <Clusters>
137

> <Fold>
1

$$$$