
     RDKit          3D

 49 50  0  0  0  0  0  0  0  0999 V2000
   -7.3090    1.1858    1.4843 C   0  0  0  0  0  0  0  0  0  0  0  0
   -6.9654    0.3401    0.3915 O   0  0  0  0  0  0  0  0  0  0  0  0
   -5.7046    0.3134   -0.2230 C   0  0  0  0  0  0  0  0  0  0  0  0
   -4.6428    1.1383    0.1951 C   0  0  0  0  0  0  0  0  0  0  0  0
   -3.4042    1.0737   -0.4499 C   0  0  0  0  0  0  0  0  0  0  0  0
   -3.2074    0.1902   -1.5223 C   0  0  0  0  0  0  0  0  0  0  0  0
   -1.8618    0.1062   -2.1988 C   0  0  0  0  0  0  0  0  0  0  0  0
   -0.8461   -0.7112   -1.3797 C   0  0  1  0  0  0  0  0  0  0  0  0
   -1.2610   -2.1917   -1.2951 C   0  0  0  0  0  0  0  0  0  0  0  0
    0.4834   -0.5698   -2.0126 N   0  0  0  0  0  0  0  0  0  0  0  0
    1.5162   -0.0383   -1.1084 C   0  0  0  0  0  0  0  0  0  0  0  0
    1.9863   -1.0813   -0.0655 C   0  0  1  0  0  0  0  0  0  0  0  0
    2.5180   -2.2306   -0.6787 O   0  0  0  0  0  0  0  0  0  0  0  0
    2.9924   -0.4804    0.8979 C   0  0  0  0  0  0  0  0  0  0  0  0
    2.6889   -0.3904    2.2661 C   0  0  0  0  0  0  0  0  0  0  0  0
    3.6131    0.1489    3.1622 C   0  0  0  0  0  0  0  0  0  0  0  0
    4.8514    0.6179    2.7064 C   0  0  0  0  0  0  0  0  0  0  0  0
    5.7683    1.1566    3.6085 O   0  0  0  0  0  0  0  0  0  0  0  0
    5.1657    0.5554    1.3378 C   0  0  0  0  0  0  0  0  0  0  0  0
    6.4482    1.0181    0.8779 N   0  0  0  0  0  0  0  0  0  0  0  0
    6.6592    1.6884   -0.3713 C   0  0  0  0  0  0  0  0  0  0  0  0
    5.6902    2.0689   -1.0804 O   0  0  0  0  0  0  0  0  0  0  0  0
    4.2388   -0.0109    0.4437 C   0  0  0  0  0  0  0  0  0  0  0  0
   -4.2650   -0.6351   -1.9349 C   0  0  0  0  0  0  0  0  0  0  0  0
   -5.5031   -0.5703   -1.2896 C   0  0  0  0  0  0  0  0  0  0  0  0
   -7.2019    2.2514    1.1907 H   0  0  0  0  0  0  0  0  0  0  0  0
   -6.6607    0.9631    2.3579 H   0  0  0  0  0  0  0  0  0  0  0  0
   -8.3649    0.9998    1.7686 H   0  0  0  0  0  0  0  0  0  0  0  0
   -4.7634    1.8302    1.0174 H   0  0  0  0  0  0  0  0  0  0  0  0
   -2.5962    1.7112   -0.1124 H   0  0  0  0  0  0  0  0  0  0  0  0
   -1.4696    1.1383   -2.3345 H   0  0  0  0  0  0  0  0  0  0  0  0
   -1.9634   -0.3300   -3.2173 H   0  0  0  0  0  0  0  0  0  0  0  0
   -0.8425   -0.3053   -0.3416 H   0  0  0  0  0  0  0  0  0  0  0  0
   -0.4829   -2.7781   -0.7635 H   0  0  0  0  0  0  0  0  0  0  0  0
   -1.3953   -2.6196   -2.3116 H   0  0  0  0  0  0  0  0  0  0  0  0
   -2.2105   -2.2983   -0.7297 H   0  0  0  0  0  0  0  0  0  0  0  0
    0.8138   -1.4573   -2.4597 H   0  0  0  0  0  0  0  0  0  0  0  0
    1.1381    0.8726   -0.5925 H   0  0  0  0  0  0  0  0  0  0  0  0
    2.3797    0.2882   -1.7264 H   0  0  0  0  0  0  0  0  0  0  0  0
    1.0952   -1.4054    0.5119 H   0  0  0  0  0  0  0  0  0  0  0  0
    3.2120   -1.9423   -1.3267 H   0  0  0  0  0  0  0  0  0  0  0  0
    1.7376   -0.7433    2.6445 H   0  0  0  0  0  0  0  0  0  0  0  0
    3.3647    0.2034    4.2146 H   0  0  0  0  0  0  0  0  0  0  0  0
    5.5658    1.2166    4.5996 H   0  0  0  0  0  0  0  0  0  0  0  0
    7.2700    0.9387    1.5180 H   0  0  0  0  0  0  0  0  0  0  0  0
    7.6684    1.9049   -0.6957 H   0  0  0  0  0  0  0  0  0  0  0  0
    4.4965   -0.1067   -0.6021 H   0  0  0  0  0  0  0  0  0  0  0  0
   -4.1299   -1.3322   -2.7526 H   0  0  0  0  0  0  0  0  0  0  0  0
   -6.3104   -1.2123   -1.6184 H   0  0  0  0  0  0  0  0  0  0  0  0
  1  2  1  0
  2  3  1  0
  3  4  2  0
  4  5  1  0
  5  6  2  0
  6  7  1  0
  7  8  1  0
  8  9  1  0
  8 10  1  0
 10 11  1  0
 11 12  1  0
 12 13  1  0
 12 14  1  0
 14 15  2  0
 15 16  1  0
 16 17  2  0
 17 18  1  0
 17 19  1  0
 19 20  1  0
 20 21  1  0
 21 22  2  0
 19 23  2  0
 23 14  1  0
  6 24  1  0
 24 25  2  0
 25  3  1  0
  1 26  1  0
  1 27  1  0
  1 28  1  0
  4 29  1  0
  5 30  1  0
  7 31  1  0
  7 32  1  0
  8 33  1  1
  9 34  1  0
  9 35  1  0
  9 36  1  0
 10 37  1  0
 11 38  1  0
 11 39  1  0
 12 40  1  1
 13 41  1  0
 15 42  1  0
 16 43  1  0
 18 44  1  0
 20 45  1  0
 21 46  1  0
 23 47  1  0
 24 48  1  0
 25 49  1  0
M  END
> <ID>
HT0178

> <Class>
0.0

> <Clusters>
21

> <Fold>
1

$$$$