
     RDKit          3D

 37 40  0  0  0  0  0  0  0  0999 V2000
    3.4298   -1.9320   -1.1651 F   0  0  0  0  0  0  0  0  0  0  0  0
    3.5265   -0.8572   -0.3421 C   0  0  0  0  0  0  0  0  0  0  0  0
    4.4018   -0.9136    0.7478 C   0  0  0  0  0  0  0  0  0  0  0  0
    4.5215    0.1788    1.6120 C   0  0  0  0  0  0  0  0  0  0  0  0
    5.7166    0.0948    3.0993 Br  0  0  0  0  0  0  0  0  0  0  0  0
    3.7655    1.3324    1.3864 C   0  0  0  0  0  0  0  0  0  0  0  0
    2.8896    1.3949    0.2992 C   0  0  0  0  0  0  0  0  0  0  0  0
    2.7606    0.3018   -0.5743 C   0  0  0  0  0  0  0  0  0  0  0  0
    1.7942    0.3830   -1.7292 C   0  0  0  0  0  0  0  0  0  0  0  0
    0.4085    0.4235   -1.2350 N   0  0  0  0  0  0  0  0  0  0  0  0
   -0.3360    1.6556   -1.2406 C   0  0  0  0  0  0  0  0  0  0  0  0
    0.1552    2.7150   -1.7169 O   0  0  0  0  0  0  0  0  0  0  0  0
   -1.6753    1.6643   -0.6658 C   0  0  0  0  0  0  0  0  0  0  0  0
   -2.5217    2.7462   -0.5254 C   0  0  0  0  0  0  0  0  0  0  0  0
   -3.6590    2.2588    0.0917 C   0  0  0  0  0  0  0  0  0  0  0  0
   -3.4535    0.9074    0.2986 C   0  0  0  0  0  0  0  0  0  0  0  0
   -2.2367    0.5529   -0.1670 N   0  0  0  0  0  0  0  0  0  0  0  0
   -1.6307   -0.7898   -0.1662 C   0  0  2  0  0  0  0  0  0  0  0  0
   -2.5152   -1.7909   -0.9694 C   0  0  0  0  0  0  0  0  0  0  0  0
   -2.9338   -2.7940    0.0543 C   0  0  0  0  0  0  0  0  0  0  0  0
   -3.6745   -3.7812   -0.1934 O   0  0  0  0  0  0  0  0  0  0  0  0
   -2.4174   -2.5331    1.3431 N   0  0  0  0  0  0  0  0  0  0  0  0
   -1.6471   -1.3549    1.2261 C   0  0  0  0  0  0  0  0  0  0  0  0
   -1.0477   -0.8367    2.2056 O   0  0  0  0  0  0  0  0  0  0  0  0
   -0.2004   -0.7771   -0.7006 C   0  0  0  0  0  0  0  0  0  0  0  0
    0.4579   -1.8545   -0.6846 O   0  0  0  0  0  0  0  0  0  0  0  0
    4.9869   -1.8077    0.9211 H   0  0  0  0  0  0  0  0  0  0  0  0
    3.8552    2.1804    2.0531 H   0  0  0  0  0  0  0  0  0  0  0  0
    2.3097    2.2952    0.1393 H   0  0  0  0  0  0  0  0  0  0  0  0
    1.9131   -0.4726   -2.4281 H   0  0  0  0  0  0  0  0  0  0  0  0
    2.0356    1.2886   -2.3255 H   0  0  0  0  0  0  0  0  0  0  0  0
   -2.3358    3.7678   -0.8297 H   0  0  0  0  0  0  0  0  0  0  0  0
   -4.5400    2.8258    0.3608 H   0  0  0  0  0  0  0  0  0  0  0  0
   -4.1566    0.2253    0.7593 H   0  0  0  0  0  0  0  0  0  0  0  0
   -3.4134   -1.3021   -1.4044 H   0  0  0  0  0  0  0  0  0  0  0  0
   -1.9554   -2.3008   -1.7835 H   0  0  0  0  0  0  0  0  0  0  0  0
   -2.5779   -3.0943    2.2087 H   0  0  0  0  0  0  0  0  0  0  0  0
  1  2  1  0
  2  3  2  0
  3  4  1  0
  4  5  1  0
  4  6  2  0
  6  7  1  0
  7  8  2  0
  8  2  1  0
  8  9  1  0
  9 10  1  0
 10 11  1  0
 11 12  2  0
 11 13  1  0
 13 14  2  0
 14 15  1  0
 15 16  2  0
 16 17  1  0
 17 13  1  0
 17 18  1  0
 18 19  1  0
 19 20  1  0
 20 21  2  0
 20 22  1  0
 22 23  1  0
 18 23  1  1
 23 24  2  0
 18 25  1  0
 25 10  1  0
 25 26  2  0
  3 27  1  0
  6 28  1  0
  7 29  1  0
  9 30  1  0
  9 31  1  0
 14 32  1  0
 15 33  1  0
 16 34  1  0
 19 35  1  0
 19 36  1  0
 22 37  1  0
M  END
> <ID>
HT1799

> <Class>
0.0

> <Clusters>
201

> <Fold>
1

$$$$