
     RDKit          3D

 25 26  0  0  0  0  0  0  0  0999 V2000
    4.8860    0.7586    0.5120 N   0  0  0  0  0  0  0  0  0  0  0  0
    3.8529    0.7769   -0.4737 C   0  0  0  0  0  0  0  0  0  0  0  0
    3.9892    1.4906   -1.5030 O   0  0  0  0  0  0  0  0  0  0  0  0
    2.6351   -0.0278   -0.2979 C   0  0  0  0  0  0  0  0  0  0  0  0
    1.5629   -0.1023   -1.1610 C   0  0  0  0  0  0  0  0  0  0  0  0
    0.6902   -0.9516   -0.5932 N   0  0  0  0  0  0  0  0  0  0  0  0
   -0.6263   -1.3239   -1.0994 C   0  0  0  0  0  0  0  0  0  0  0  0
   -1.6963   -0.5520   -0.3703 C   0  0  0  0  0  0  0  0  0  0  0  0
   -1.9261    0.8018   -0.6820 C   0  0  0  0  0  0  0  0  0  0  0  0
   -1.2046    1.4199   -1.6512 F   0  0  0  0  0  0  0  0  0  0  0  0
   -2.9076    1.5253    0.0027 C   0  0  0  0  0  0  0  0  0  0  0  0
   -3.6636    0.9102    1.0027 C   0  0  0  0  0  0  0  0  0  0  0  0
   -3.4398   -0.4305    1.3230 C   0  0  0  0  0  0  0  0  0  0  0  0
   -2.4605   -1.1626    0.6437 C   0  0  0  0  0  0  0  0  0  0  0  0
   -2.2538   -2.4602    0.9839 F   0  0  0  0  0  0  0  0  0  0  0  0
    1.1931   -1.3670    0.5586 N   0  0  0  0  0  0  0  0  0  0  0  0
    2.3838   -0.8215    0.7636 N   0  0  0  0  0  0  0  0  0  0  0  0
    4.7984    0.1760    1.3739 H   0  0  0  0  0  0  0  0  0  0  0  0
    5.7479    1.3330    0.3797 H   0  0  0  0  0  0  0  0  0  0  0  0
    1.4257    0.4128   -2.1033 H   0  0  0  0  0  0  0  0  0  0  0  0
   -0.7648   -2.4186   -0.9705 H   0  0  0  0  0  0  0  0  0  0  0  0
   -0.6920   -1.1230   -2.1913 H   0  0  0  0  0  0  0  0  0  0  0  0
   -3.0827    2.5651   -0.2417 H   0  0  0  0  0  0  0  0  0  0  0  0
   -4.4220    1.4733    1.5312 H   0  0  0  0  0  0  0  0  0  0  0  0
   -4.0251   -0.9025    2.1018 H   0  0  0  0  0  0  0  0  0  0  0  0
  1  2  1  0
  2  3  2  0
  2  4  1  0
  4  5  2  0
  5  6  1  0
  6  7  1  0
  7  8  1  0
  8  9  2  0
  9 10  1  0
  9 11  1  0
 11 12  2  0
 12 13  1  0
 13 14  2  0
 14  8  1  0
 14 15  1  0
  6 16  1  0
 16 17  2  0
 17  4  1  0
  1 18  1  0
  1 19  1  0
  5 20  1  0
  7 21  1  0
  7 22  1  0
 11 23  1  0
 12 24  1  0
 13 25  1  0
M  END
> <ID>
HT1856

> <Class>
0.0

> <Clusters>
201

> <Fold>
1

$$$$