
     RDKit          3D

 37 39  0  0  0  0  0  0  0  0999 V2000
   -3.5346    1.7408   -2.1113 O   0  0  0  0  0  0  0  0  0  0  0  0
   -3.6447    0.3615   -2.2581 C   0  0  0  0  0  0  0  0  0  0  0  0
   -4.7657   -0.1571   -2.5070 O   0  0  0  0  0  0  0  0  0  0  0  0
   -2.4231   -0.5007   -2.1646 C   0  0  0  0  0  0  0  0  0  0  0  0
   -1.6006   -0.1189   -0.9910 N   0  0  0  0  0  0  0  0  0  0  0  0
   -0.4600    0.6276   -1.1890 C   0  0  0  0  0  0  0  0  0  0  0  0
   -0.1599    1.0113   -2.3556 O   0  0  0  0  0  0  0  0  0  0  0  0
    0.3538    0.9720   -0.1372 N   0  0  0  0  0  0  0  0  0  0  0  0
    1.5985    1.7416   -0.3651 C   0  0  0  0  0  0  0  0  0  0  0  0
    2.8157    0.8655   -0.1816 C   0  0  0  0  0  0  0  0  0  0  0  0
    3.6918    1.0928    0.8945 C   0  0  0  0  0  0  0  0  0  0  0  0
    4.8158    0.2821    1.0756 C   0  0  0  0  0  0  0  0  0  0  0  0
    5.0797   -0.7601    0.1829 C   0  0  0  0  0  0  0  0  0  0  0  0
    6.6161   -1.8668    0.4326 Br  0  0  0  0  0  0  0  0  0  0  0  0
    4.2194   -0.9897   -0.8945 C   0  0  0  0  0  0  0  0  0  0  0  0
    3.0927   -0.1819   -1.0808 C   0  0  0  0  0  0  0  0  0  0  0  0
    2.2819   -0.4186   -2.1416 F   0  0  0  0  0  0  0  0  0  0  0  0
    0.0209    0.6046    1.1380 C   0  0  0  0  0  0  0  0  0  0  0  0
    0.7641    0.9352    2.1057 O   0  0  0  0  0  0  0  0  0  0  0  0
   -1.1439   -0.1318    1.3814 C   0  0  0  0  0  0  0  0  0  0  0  0
   -1.5021   -0.5116    2.6908 C   0  0  0  0  0  0  0  0  0  0  0  0
   -2.6677   -1.2373    2.9229 C   0  0  0  0  0  0  0  0  0  0  0  0
   -3.4916   -1.5914    1.8580 C   0  0  0  0  0  0  0  0  0  0  0  0
   -4.9642   -2.4977    2.1574 Cl  0  0  0  0  0  0  0  0  0  0  0  0
   -3.1498   -1.2244    0.5539 C   0  0  0  0  0  0  0  0  0  0  0  0
   -1.9648   -0.4911    0.2877 C   0  0  0  0  0  0  0  0  0  0  0  0
   -4.3497    2.3377   -2.1840 H   0  0  0  0  0  0  0  0  0  0  0  0
   -1.8661   -0.3980   -3.1193 H   0  0  0  0  0  0  0  0  0  0  0  0
   -2.6876   -1.5790   -2.1206 H   0  0  0  0  0  0  0  0  0  0  0  0
    1.6262    2.6055    0.3359 H   0  0  0  0  0  0  0  0  0  0  0  0
    1.6359    2.1972   -1.3773 H   0  0  0  0  0  0  0  0  0  0  0  0
    3.5033    1.8943    1.5979 H   0  0  0  0  0  0  0  0  0  0  0  0
    5.4806    0.4646    1.9102 H   0  0  0  0  0  0  0  0  0  0  0  0
    4.4250   -1.7937   -1.5897 H   0  0  0  0  0  0  0  0  0  0  0  0
   -0.8833   -0.2472    3.5396 H   0  0  0  0  0  0  0  0  0  0  0  0
   -2.9315   -1.5213    3.9338 H   0  0  0  0  0  0  0  0  0  0  0  0
   -3.8307   -1.5159   -0.2307 H   0  0  0  0  0  0  0  0  0  0  0  0
  1  2  1  0
  2  3  2  0
  2  4  1  0
  4  5  1  0
  5  6  1  0
  6  7  2  0
  6  8  1  0
  8  9  1  0
  9 10  1  0
 10 11  2  0
 11 12  1  0
 12 13  2  0
 13 14  1  0
 13 15  1  0
 15 16  2  0
 16 10  1  0
 16 17  1  0
  8 18  1  0
 18 19  2  0
 18 20  1  0
 20 21  2  0
 21 22  1  0
 22 23  2  0
 23 24  1  0
 23 25  1  0
 25 26  2  0
 26  5  1  0
 26 20  1  0
  1 27  1  0
  4 28  1  0
  4 29  1  0
  9 30  1  0
  9 31  1  0
 11 32  1  0
 12 33  1  0
 15 34  1  0
 21 35  1  0
 22 36  1  0
 25 37  1  0
M  END
> <ID>
HT2210

> <Class>
0.0

> <Clusters>
201

> <Fold>
1

$$$$