
     RDKit          3D

 44 45  0  0  0  0  0  0  0  0999 V2000
   -0.5395    3.1514    2.1292 C   0  0  0  0  0  0  0  0  0  0  0  0
   -1.8416    2.4910    1.6716 C   0  0  0  0  0  0  0  0  0  0  0  0
   -1.7855    1.0236    1.7615 N   0  0  0  0  0  0  0  0  0  0  0  0
   -0.9120    0.3988    0.7429 C   0  0  1  0  0  0  0  0  0  0  0  0
    0.3709   -0.1957    1.4117 C   0  0  0  0  0  0  0  0  0  0  0  0
    1.2930   -0.8767    0.4758 N   0  0  0  0  0  0  0  0  0  0  0  0
    1.8023    0.0268   -0.5756 C   0  0  0  0  0  0  0  0  0  0  0  0
    3.2472   -0.3428   -0.9285 C   0  0  0  0  0  0  0  0  0  0  0  0
    3.8025    0.5699   -2.0267 C   0  0  0  0  0  0  0  0  0  0  0  0
    5.1098    0.1621   -2.3846 O   0  0  0  0  0  0  0  0  0  0  0  0
    6.0719    0.9366   -1.7028 C   0  0  0  0  0  0  0  0  0  0  0  0
    0.4997   -2.2814   -0.1961 S   0  0  0  0  0  0  0  0  0  0  0  0
    1.1227   -2.6876   -1.5027 O   0  0  0  0  0  0  0  0  0  0  0  0
    0.5836   -3.4195    0.7810 O   0  0  0  0  0  0  0  0  0  0  0  0
   -1.1654   -1.8437   -0.4440 C   0  0  0  0  0  0  0  0  0  0  0  0
   -2.3020   -2.7140   -1.3218 S   0  0  0  0  0  0  0  0  0  0  0  0
   -3.5163   -1.5606   -1.1511 C   0  0  0  0  0  0  0  0  0  0  0  0
   -3.0375   -0.4798   -0.4195 C   0  0  0  0  0  0  0  0  0  0  0  0
   -1.7073   -0.6482   -0.0035 C   0  0  0  0  0  0  0  0  0  0  0  0
   -5.1249   -1.7004   -1.8362 S   0  0  0  0  0  0  0  0  0  0  0  0
   -5.0357   -1.6620   -3.3355 O   0  0  0  0  0  0  0  0  0  0  0  0
   -5.9774   -0.5566   -1.3632 O   0  0  0  0  0  0  0  0  0  0  0  0
   -5.8480   -3.1876   -1.3317 N   0  0  0  0  0  0  0  0  0  0  0  0
   -0.2646    2.8018    3.1468 H   0  0  0  0  0  0  0  0  0  0  0  0
    0.2855    2.9218    1.4235 H   0  0  0  0  0  0  0  0  0  0  0  0
   -0.6746    4.2530    2.1577 H   0  0  0  0  0  0  0  0  0  0  0  0
   -2.0866    2.8086    0.6342 H   0  0  0  0  0  0  0  0  0  0  0  0
   -2.6660    2.8511    2.3236 H   0  0  0  0  0  0  0  0  0  0  0  0
   -1.5337    0.7364    2.7368 H   0  0  0  0  0  0  0  0  0  0  0  0
   -0.6000    1.1470   -0.0187 H   0  0  0  0  0  0  0  0  0  0  0  0
    0.9228    0.6138    1.9355 H   0  0  0  0  0  0  0  0  0  0  0  0
    0.0711   -0.9166    2.2046 H   0  0  0  0  0  0  0  0  0  0  0  0
    1.1581   -0.0069   -1.4831 H   0  0  0  0  0  0  0  0  0  0  0  0
    1.8122    1.0816   -0.2176 H   0  0  0  0  0  0  0  0  0  0  0  0
    3.8752   -0.2505   -0.0163 H   0  0  0  0  0  0  0  0  0  0  0  0
    3.3000   -1.3959   -1.2750 H   0  0  0  0  0  0  0  0  0  0  0  0
    3.7384    1.6401   -1.7138 H   0  0  0  0  0  0  0  0  0  0  0  0
    3.1604    0.4685   -2.9278 H   0  0  0  0  0  0  0  0  0  0  0  0
    6.0436    1.9936   -2.0479 H   0  0  0  0  0  0  0  0  0  0  0  0
    5.9329    0.8846   -0.6002 H   0  0  0  0  0  0  0  0  0  0  0  0
    7.0792    0.5337   -1.9339 H   0  0  0  0  0  0  0  0  0  0  0  0
   -3.6269    0.4018   -0.2035 H   0  0  0  0  0  0  0  0  0  0  0  0
   -5.2355   -3.9596   -1.6782 H   0  0  0  0  0  0  0  0  0  0  0  0
   -5.8018   -3.2112   -0.2883 H   0  0  0  0  0  0  0  0  0  0  0  0
  1  2  1  0
  2  3  1  0
  4  3  1  0
  4  5  1  0
  5  6  1  0
  6  7  1  0
  7  8  1  0
  8  9  1  0
  9 10  1  0
 10 11  1  0
  6 12  1  0
 12 13  2  0
 12 14  2  0
 12 15  1  0
 15 16  1  0
 16 17  1  0
 17 18  2  0
 18 19  1  0
 19  4  1  0
 19 15  2  0
 17 20  1  0
 20 21  2  0
 20 22  2  0
 20 23  1  0
  1 24  1  0
  1 25  1  0
  1 26  1  0
  2 27  1  0
  2 28  1  0
  3 29  1  0
  4 30  1  6
  5 31  1  0
  5 32  1  0
  7 33  1  0
  7 34  1  0
  8 35  1  0
  8 36  1  0
  9 37  1  0
  9 38  1  0
 11 39  1  0
 11 40  1  0
 11 41  1  0
 18 42  1  0
 23 43  1  0
 23 44  1  0
M  END
> <ID>
HT0305

> <Class>
0.0

> <Clusters>
84

> <Fold>
1

$$$$