
     RDKit          3D

 25 25  0  0  0  0  0  0  0  0999 V2000
    3.8177    0.2759    0.4610 C   0  0  0  0  0  0  0  0  0  0  0  0
    2.8247   -0.6266    1.0487 N   0  0  0  0  0  0  0  0  0  0  0  0
    1.4534   -0.0967    0.9626 C   0  0  0  0  0  0  0  0  0  0  0  0
    0.8416   -0.2136   -0.4578 C   0  0  2  0  0  0  0  0  0  0  0  0
    1.4111    0.7088   -1.3538 O   0  0  0  0  0  0  0  0  0  0  0  0
   -0.6655   -0.0410   -0.4215 C   0  0  0  0  0  0  0  0  0  0  0  0
   -1.2443    1.1608    0.0284 C   0  0  0  0  0  0  0  0  0  0  0  0
   -2.6336    1.3092    0.0590 C   0  0  0  0  0  0  0  0  0  0  0  0
   -3.4602    0.2636   -0.3577 C   0  0  0  0  0  0  0  0  0  0  0  0
   -2.8988   -0.9382   -0.8073 C   0  0  0  0  0  0  0  0  0  0  0  0
   -3.7128   -1.9888   -1.2250 O   0  0  0  0  0  0  0  0  0  0  0  0
   -1.5077   -1.0884   -0.8384 C   0  0  0  0  0  0  0  0  0  0  0  0
    4.8315   -0.0553    0.7681 H   0  0  0  0  0  0  0  0  0  0  0  0
    3.7727    0.2482   -0.6479 H   0  0  0  0  0  0  0  0  0  0  0  0
    3.6767    1.3171    0.8232 H   0  0  0  0  0  0  0  0  0  0  0  0
    2.8826   -1.5559    0.5706 H   0  0  0  0  0  0  0  0  0  0  0  0
    1.4172    0.9536    1.3272 H   0  0  0  0  0  0  0  0  0  0  0  0
    0.8257   -0.6887    1.6640 H   0  0  0  0  0  0  0  0  0  0  0  0
    1.0740   -1.2302   -0.8430 H   0  0  0  0  0  0  0  0  0  0  0  0
    1.3337    1.6146   -0.9560 H   0  0  0  0  0  0  0  0  0  0  0  0
   -0.6232    1.9831    0.3595 H   0  0  0  0  0  0  0  0  0  0  0  0
   -3.0701    2.2364    0.4072 H   0  0  0  0  0  0  0  0  0  0  0  0
   -4.5353    0.3877   -0.3303 H   0  0  0  0  0  0  0  0  0  0  0  0
   -4.7232   -1.9121   -1.2147 H   0  0  0  0  0  0  0  0  0  0  0  0
   -1.0877   -2.0235   -1.1880 H   0  0  0  0  0  0  0  0  0  0  0  0
  1  2  1  0
  2  3  1  0
  3  4  1  0
  4  5  1  0
  4  6  1  0
  6  7  2  0
  7  8  1  0
  8  9  2  0
  9 10  1  0
 10 11  1  0
 10 12  2  0
 12  6  1  0
  1 13  1  0
  1 14  1  0
  1 15  1  0
  2 16  1  0
  3 17  1  0
  3 18  1  0
  4 19  1  6
  5 20  1  0
  7 21  1  0
  8 22  1  0
  9 23  1  0
 11 24  1  0
 12 25  1  0
M  END
> <ID>
HT1661

> <Class>
0.0

> <Clusters>
196

> <Fold>
1

$$$$