
     RDKit          3D

 48 49  0  0  0  0  0  0  0  0999 V2000
    5.0470    0.0897   -1.9586 C   0  0  0  0  0  0  0  0  0  0  0  0
    4.9401   -0.1749   -0.4586 C   0  0  0  0  0  0  0  0  0  0  0  0
    3.5517   -0.5373   -0.0930 N   0  0  0  0  0  0  0  0  0  0  0  0
    3.5175   -1.3488    1.1455 C   0  0  0  0  0  0  0  0  0  0  0  0
    3.7178   -2.8269    0.8194 C   0  0  0  0  0  0  0  0  0  0  0  0
    2.6757    0.6588    0.0046 C   0  0  0  0  0  0  0  0  0  0  0  0
    1.4528    0.4895   -0.8993 C   0  0  0  0  0  0  0  0  0  0  0  0
    0.3972   -0.9096   -0.3772 S   0  0  0  0  0  0  0  0  0  0  0  0
   -0.4576    0.0094    0.9187 C   0  0  0  0  0  0  0  0  0  0  0  0
    0.0007   -0.0242    2.0504 O   0  0  0  0  0  0  0  0  0  0  0  0
   -1.7110    0.8265    0.6559 C   0  0  0  0  0  0  0  0  0  0  0  0
   -2.1309    0.8403   -0.8049 C   0  0  0  0  0  0  0  0  0  0  0  0
   -2.6580   -0.3101   -1.4257 C   0  0  0  0  0  0  0  0  0  0  0  0
   -3.0329   -0.2803   -2.7719 C   0  0  0  0  0  0  0  0  0  0  0  0
   -2.8880    0.8936   -3.5138 C   0  0  0  0  0  0  0  0  0  0  0  0
   -2.3677    2.0407   -2.9110 C   0  0  0  0  0  0  0  0  0  0  0  0
   -1.9915    2.0169   -1.5648 C   0  0  0  0  0  0  0  0  0  0  0  0
   -2.8743    0.4096    1.5406 C   0  0  0  0  0  0  0  0  0  0  0  0
   -3.7857    1.3845    1.9863 C   0  0  0  0  0  0  0  0  0  0  0  0
   -4.8828    1.0233    2.7739 C   0  0  0  0  0  0  0  0  0  0  0  0
   -5.0890   -0.3146    3.1171 C   0  0  0  0  0  0  0  0  0  0  0  0
   -4.2007   -1.2950    2.6697 C   0  0  0  0  0  0  0  0  0  0  0  0
   -3.1019   -0.9397    1.8819 C   0  0  0  0  0  0  0  0  0  0  0  0
    4.4365    0.9690   -2.2503 H   0  0  0  0  0  0  0  0  0  0  0  0
    4.6976   -0.7991   -2.5258 H   0  0  0  0  0  0  0  0  0  0  0  0
    6.1053    0.2922   -2.2268 H   0  0  0  0  0  0  0  0  0  0  0  0
    5.2891    0.7139    0.1142 H   0  0  0  0  0  0  0  0  0  0  0  0
    5.6437   -1.0034   -0.2262 H   0  0  0  0  0  0  0  0  0  0  0  0
    2.5301   -1.2726    1.6517 H   0  0  0  0  0  0  0  0  0  0  0  0
    4.2876   -1.0089    1.8745 H   0  0  0  0  0  0  0  0  0  0  0  0
    4.7262   -3.0112    0.3957 H   0  0  0  0  0  0  0  0  0  0  0  0
    3.6126   -3.4297    1.7461 H   0  0  0  0  0  0  0  0  0  0  0  0
    2.9507   -3.1607    0.0887 H   0  0  0  0  0  0  0  0  0  0  0  0
    3.1965    1.5856   -0.3251 H   0  0  0  0  0  0  0  0  0  0  0  0
    2.3525    0.8697    1.0480 H   0  0  0  0  0  0  0  0  0  0  0  0
    0.8641    1.4313   -0.9120 H   0  0  0  0  0  0  0  0  0  0  0  0
    1.7940    0.2975   -1.9385 H   0  0  0  0  0  0  0  0  0  0  0  0
   -1.4321    1.8642    0.9479 H   0  0  0  0  0  0  0  0  0  0  0  0
   -2.7676   -1.2338   -0.8742 H   0  0  0  0  0  0  0  0  0  0  0  0
   -3.4333   -1.1697   -3.2410 H   0  0  0  0  0  0  0  0  0  0  0  0
   -3.1778    0.9141   -4.5564 H   0  0  0  0  0  0  0  0  0  0  0  0
   -2.2547    2.9497   -3.4875 H   0  0  0  0  0  0  0  0  0  0  0  0
   -1.5871    2.9169   -1.1185 H   0  0  0  0  0  0  0  0  0  0  0  0
   -3.6479    2.4255    1.7208 H   0  0  0  0  0  0  0  0  0  0  0  0
   -5.5760    1.7813    3.1151 H   0  0  0  0  0  0  0  0  0  0  0  0
   -5.9398   -0.5924    3.7256 H   0  0  0  0  0  0  0  0  0  0  0  0
   -4.3657   -2.3325    2.9303 H   0  0  0  0  0  0  0  0  0  0  0  0
   -2.4330   -1.7184    1.5387 H   0  0  0  0  0  0  0  0  0  0  0  0
  1  2  1  0
  2  3  1  0
  3  4  1  0
  4  5  1  0
  3  6  1  0
  6  7  1  0
  7  8  1  0
  8  9  1  0
  9 10  2  0
  9 11  1  0
 11 12  1  0
 12 13  2  0
 13 14  1  0
 14 15  2  0
 15 16  1  0
 16 17  2  0
 17 12  1  0
 11 18  1  0
 18 19  2  0
 19 20  1  0
 20 21  2  0
 21 22  1  0
 22 23  2  0
 23 18  1  0
  1 24  1  0
  1 25  1  0
  1 26  1  0
  2 27  1  0
  2 28  1  0
  4 29  1  0
  4 30  1  0
  5 31  1  0
  5 32  1  0
  5 33  1  0
  6 34  1  0
  6 35  1  0
  7 36  1  0
  7 37  1  0
 11 38  1  0
 13 39  1  0
 14 40  1  0
 15 41  1  0
 16 42  1  0
 17 43  1  0
 19 44  1  0
 20 45  1  0
 21 46  1  0
 22 47  1  0
 23 48  1  0
M  END
> <ID>
HT3498

> <Class>
0.0

> <Clusters>
79

> <Fold>
1

$$$$