
     RDKit          3D

 59 62  0  0  0  0  0  0  0  0999 V2000
    7.3257   -0.8304    1.6837 C   0  0  0  0  0  0  0  0  0  0  0  0
    6.1504   -0.1893    1.0282 C   0  0  0  0  0  0  0  0  0  0  0  0
    5.5543    0.7582    1.6093 O   0  0  0  0  0  0  0  0  0  0  0  0
    5.7212   -0.6463   -0.2232 O   0  0  0  0  0  0  0  0  0  0  0  0
    4.6010   -0.0958   -0.9166 C   0  0  0  0  0  0  0  0  0  0  0  0
    3.2925   -0.5503   -0.3120 C   0  0  0  0  0  0  0  0  0  0  0  0
    3.3166   -1.3292    0.6297 O   0  0  0  0  0  0  0  0  0  0  0  0
    1.9352   -0.0986   -0.8430 C   0  0  0  0  0  0  0  0  0  0  0  0
    1.9500    0.6273   -2.2047 C   0  0  0  0  0  0  0  0  0  0  0  0
    0.8253    1.6644   -2.1600 C   0  0  0  0  0  0  0  0  0  0  0  0
    0.0658    1.4333   -0.8394 C   0  0  0  0  0  0  0  0  0  0  0  0
   -1.2818    0.6109   -0.9902 C   0  0  0  0  0  0  0  0  0  0  0  0
   -1.5178   -0.1278   -2.3429 C   0  0  0  0  0  0  0  0  0  0  0  0
   -2.6677   -1.1624   -2.2941 C   0  0  0  0  0  0  0  0  0  0  0  0
   -3.6390   -0.8588   -1.1756 C   0  0  0  0  0  0  0  0  0  0  0  0
   -4.9372   -0.6477   -1.4483 C   0  0  0  0  0  0  0  0  0  0  0  0
   -5.8809   -0.2048   -0.4098 C   0  0  0  0  0  0  0  0  0  0  0  0
   -7.1010   -0.0785   -0.6960 O   0  0  0  0  0  0  0  0  0  0  0  0
   -5.4186    0.0738    0.9901 C   0  0  0  0  0  0  0  0  0  0  0  0
   -3.9027    0.3182    1.0445 C   0  0  0  0  0  0  0  0  0  0  0  0
   -3.0906   -0.7526    0.2510 C   0  0  0  0  0  0  0  0  0  0  0  0
   -3.2465   -2.1366    0.9282 C   0  0  0  0  0  0  0  0  0  0  0  0
   -1.5598   -0.3806    0.1709 C   0  0  0  0  0  0  0  0  0  0  0  0
   -0.9471    0.1322    1.4769 C   0  0  0  0  0  0  0  0  0  0  0  0
    0.5731    0.0656    1.3610 C   0  0  0  0  0  0  0  0  0  0  0  0
    1.1454    0.8302    0.1159 C   0  0  0  0  0  0  0  0  0  0  0  0
    2.0587    1.9782    0.6411 C   0  0  0  0  0  0  0  0  0  0  0  0
    8.1229   -0.0743    1.8418 H   0  0  0  0  0  0  0  0  0  0  0  0
    7.7236   -1.6462    1.0442 H   0  0  0  0  0  0  0  0  0  0  0  0
    7.0214   -1.2547    2.6633 H   0  0  0  0  0  0  0  0  0  0  0  0
    4.6443   -0.4397   -1.9709 H   0  0  0  0  0  0  0  0  0  0  0  0
    4.6654    1.0135   -0.9025 H   0  0  0  0  0  0  0  0  0  0  0  0
    1.3344   -1.0245   -0.9962 H   0  0  0  0  0  0  0  0  0  0  0  0
    2.9013    1.1598   -2.4049 H   0  0  0  0  0  0  0  0  0  0  0  0
    1.7827   -0.0978   -3.0307 H   0  0  0  0  0  0  0  0  0  0  0  0
    1.2731    2.6830   -2.1427 H   0  0  0  0  0  0  0  0  0  0  0  0
    0.2003    1.6381   -3.0724 H   0  0  0  0  0  0  0  0  0  0  0  0
   -0.2309    2.4324   -0.4427 H   0  0  0  0  0  0  0  0  0  0  0  0
   -2.0799    1.3854   -0.9522 H   0  0  0  0  0  0  0  0  0  0  0  0
   -1.7726    0.6212   -3.1240 H   0  0  0  0  0  0  0  0  0  0  0  0
   -0.5951   -0.6588   -2.6570 H   0  0  0  0  0  0  0  0  0  0  0  0
   -2.2415   -2.1728   -2.1123 H   0  0  0  0  0  0  0  0  0  0  0  0
   -3.1724   -1.2004   -3.2847 H   0  0  0  0  0  0  0  0  0  0  0  0
   -5.3038   -0.7486   -2.4630 H   0  0  0  0  0  0  0  0  0  0  0  0
   -5.9429    0.9729    1.3801 H   0  0  0  0  0  0  0  0  0  0  0  0
   -5.6929   -0.7824    1.6416 H   0  0  0  0  0  0  0  0  0  0  0  0
   -3.7026    1.3304    0.6330 H   0  0  0  0  0  0  0  0  0  0  0  0
   -3.5943    0.3315    2.1119 H   0  0  0  0  0  0  0  0  0  0  0  0
   -2.9453   -2.0949    1.9956 H   0  0  0  0  0  0  0  0  0  0  0  0
   -2.6212   -2.9004    0.4180 H   0  0  0  0  0  0  0  0  0  0  0  0
   -4.2964   -2.4944    0.8796 H   0  0  0  0  0  0  0  0  0  0  0  0
   -1.0115   -1.3193   -0.0810 H   0  0  0  0  0  0  0  0  0  0  0  0
   -1.2611   -0.5023    2.3322 H   0  0  0  0  0  0  0  0  0  0  0  0
   -1.2658    1.1781    1.6817 H   0  0  0  0  0  0  0  0  0  0  0  0
    0.9959    0.4550    2.3136 H   0  0  0  0  0  0  0  0  0  0  0  0
    0.8668   -1.0063    1.3354 H   0  0  0  0  0  0  0  0  0  0  0  0
    1.4597    2.7117    1.2227 H   0  0  0  0  0  0  0  0  0  0  0  0
    2.5659    2.5214   -0.1826 H   0  0  0  0  0  0  0  0  0  0  0  0
    2.8480    1.5811    1.3139 H   0  0  0  0  0  0  0  0  0  0  0  0
  1  2  1  0
  2  3  2  0
  2  4  1  0
  4  5  1  0
  5  6  1  0
  6  7  2  0
  6  8  1  0
  8  9  1  0
  9 10  1  0
 10 11  1  0
 11 12  1  0
 12 13  1  0
 13 14  1  0
 14 15  1  0
 15 16  2  0
 16 17  1  0
 17 18  2  0
 17 19  1  0
 19 20  1  0
 20 21  1  0
 21 15  1  0
 21 22  1  0
 21 23  1  0
 23 12  1  0
 23 24  1  0
 24 25  1  0
 25 26  1  0
 26  8  1  0
 26 11  1  0
 26 27  1  0
  1 28  1  0
  1 29  1  0
  1 30  1  0
  5 31  1  0
  5 32  1  0
  8 33  1  0
  9 34  1  0
  9 35  1  0
 10 36  1  0
 10 37  1  0
 11 38  1  0
 12 39  1  0
 13 40  1  0
 13 41  1  0
 14 42  1  0
 14 43  1  0
 16 44  1  0
 19 45  1  0
 19 46  1  0
 20 47  1  0
 20 48  1  0
 22 49  1  0
 22 50  1  0
 22 51  1  0
 23 52  1  0
 24 53  1  0
 24 54  1  0
 25 55  1  0
 25 56  1  0
 27 57  1  0
 27 58  1  0
 27 59  1  0
M  END
> <ID>
HT3694

> <Class>
0.0

> <Clusters>
224

> <Fold>
1

$$$$