
     RDKit          3D

 43 44  0  0  0  0  0  0  0  0999 V2000
    4.5488   -0.5926   -1.4974 C   0  0  0  0  0  0  0  0  0  0  0  0
    3.8481    0.4276   -0.7003 N   0  0  0  0  0  0  0  0  0  0  0  0
    4.8012    1.0591    0.2297 C   0  0  0  0  0  0  0  0  0  0  0  0
    2.7171   -0.1850    0.0306 C   0  0  0  0  0  0  0  0  0  0  0  0
    1.6625    0.8699    0.3869 C   0  0  0  0  0  0  0  0  0  0  0  0
    0.5208    0.2494    0.9517 O   0  0  0  0  0  0  0  0  0  0  0  0
   -0.4683   -0.0362   -0.0275 C   0  0  0  0  0  0  0  0  0  0  0  0
   -1.4492    1.1112   -0.2101 C   0  0  0  0  0  0  0  0  0  0  0  0
   -2.4483    1.0080   -1.1959 C   0  0  0  0  0  0  0  0  0  0  0  0
   -3.3609    2.0478   -1.3948 C   0  0  0  0  0  0  0  0  0  0  0  0
   -3.2837    3.2054   -0.6181 C   0  0  0  0  0  0  0  0  0  0  0  0
   -2.2920    3.3265    0.3574 C   0  0  0  0  0  0  0  0  0  0  0  0
   -1.3761    2.2900    0.5609 C   0  0  0  0  0  0  0  0  0  0  0  0
   -1.1928   -1.3156    0.3713 C   0  0  0  0  0  0  0  0  0  0  0  0
   -1.1108   -2.4248   -0.4955 C   0  0  0  0  0  0  0  0  0  0  0  0
   -1.7540   -3.6240   -0.1898 C   0  0  0  0  0  0  0  0  0  0  0  0
   -2.4927   -3.7412    0.9838 C   0  0  0  0  0  0  0  0  0  0  0  0
   -2.5878   -2.6612    1.8604 C   0  0  0  0  0  0  0  0  0  0  0  0
   -1.9355   -1.4462    1.5811 C   0  0  0  0  0  0  0  0  0  0  0  0
   -2.1102   -0.3081    2.5545 C   0  0  0  0  0  0  0  0  0  0  0  0
    5.4039   -0.1377   -2.0429 H   0  0  0  0  0  0  0  0  0  0  0  0
    4.9256   -1.4183   -0.8528 H   0  0  0  0  0  0  0  0  0  0  0  0
    3.8646   -1.0137   -2.2651 H   0  0  0  0  0  0  0  0  0  0  0  0
    4.3112    1.8774    0.7957 H   0  0  0  0  0  0  0  0  0  0  0  0
    5.2197    0.3186    0.9476 H   0  0  0  0  0  0  0  0  0  0  0  0
    5.6386    1.5221   -0.3358 H   0  0  0  0  0  0  0  0  0  0  0  0
    3.0617   -0.7027    0.9548 H   0  0  0  0  0  0  0  0  0  0  0  0
    2.2194   -0.9531   -0.6029 H   0  0  0  0  0  0  0  0  0  0  0  0
    2.0781    1.5553    1.1530 H   0  0  0  0  0  0  0  0  0  0  0  0
    1.4222    1.5016   -0.5009 H   0  0  0  0  0  0  0  0  0  0  0  0
   -0.0015   -0.2034   -1.0286 H   0  0  0  0  0  0  0  0  0  0  0  0
   -2.5203    0.1188   -1.8100 H   0  0  0  0  0  0  0  0  0  0  0  0
   -4.1278    1.9561   -2.1531 H   0  0  0  0  0  0  0  0  0  0  0  0
   -3.9913    4.0096   -0.7733 H   0  0  0  0  0  0  0  0  0  0  0  0
   -2.2328    4.2251    0.9578 H   0  0  0  0  0  0  0  0  0  0  0  0
   -0.6226    2.4115    1.3274 H   0  0  0  0  0  0  0  0  0  0  0  0
   -0.5473   -2.3653   -1.4184 H   0  0  0  0  0  0  0  0  0  0  0  0
   -1.6817   -4.4643   -0.8683 H   0  0  0  0  0  0  0  0  0  0  0  0
   -2.9962   -4.6712    1.2147 H   0  0  0  0  0  0  0  0  0  0  0  0
   -3.1760   -2.7758    2.7628 H   0  0  0  0  0  0  0  0  0  0  0  0
   -2.4937   -0.6689    3.5327 H   0  0  0  0  0  0  0  0  0  0  0  0
   -1.1472    0.1984    2.7586 H   0  0  0  0  0  0  0  0  0  0  0  0
   -2.8429    0.4198    2.1497 H   0  0  0  0  0  0  0  0  0  0  0  0
  1  2  1  0
  2  3  1  0
  2  4  1  0
  4  5  1  0
  5  6  1  0
  6  7  1  0
  7  8  1  0
  8  9  2  0
  9 10  1  0
 10 11  2  0
 11 12  1  0
 12 13  2  0
 13  8  1  0
  7 14  1  0
 14 15  2  0
 15 16  1  0
 16 17  2  0
 17 18  1  0
 18 19  2  0
 19 14  1  0
 19 20  1  0
  1 21  1  0
  1 22  1  0
  1 23  1  0
  3 24  1  0
  3 25  1  0
  3 26  1  0
  4 27  1  0
  4 28  1  0
  5 29  1  0
  5 30  1  0
  7 31  1  0
  9 32  1  0
 10 33  1  0
 11 34  1  0
 12 35  1  0
 13 36  1  0
 15 37  1  0
 16 38  1  0
 17 39  1  0
 18 40  1  0
 20 41  1  0
 20 42  1  0
 20 43  1  0
M  END
> <ID>
HT1545

> <Class>
0.0

> <Clusters>
79

> <Fold>
1

$$$$