
     RDKit          3D

 32 33  0  0  0  0  0  0  0  0999 V2000
   -2.6479   -0.7934   -2.5518 C   0  0  0  0  0  0  0  0  0  0  0  0
   -2.0797   -0.2945   -1.3001 N   0  0  0  0  0  0  0  0  0  0  0  0
   -2.8470    0.4374   -0.2869 C   0  0  0  0  0  0  0  0  0  0  0  0
   -1.8018    0.9828    0.7253 C   0  0  0  0  0  0  0  0  0  0  0  0
   -0.5073    0.4851    0.1850 C   0  0  0  0  0  0  0  0  0  0  0  0
    0.7675    0.6822    0.7113 C   0  0  0  0  0  0  0  0  0  0  0  0
    1.8775    0.1299    0.0475 C   0  0  0  0  0  0  0  0  0  0  0  0
    3.1782    0.4269    0.5727 N   0  0  0  0  0  0  0  0  0  0  0  0
    4.2131    0.5072   -0.1612 N   0  0  0  0  0  0  0  0  0  0  0  0
    5.4989    0.8037    0.3875 C   0  0  0  0  0  0  0  0  0  0  0  0
    6.4945    0.8705   -0.3797 O   0  0  0  0  0  0  0  0  0  0  0  0
    5.6720    1.0245    1.7892 N   0  0  0  0  0  0  0  0  0  0  0  0
    1.6684   -0.6777   -1.1121 C   0  0  0  0  0  0  0  0  0  0  0  0
    2.7023   -1.3682   -1.7472 O   0  0  0  0  0  0  0  0  0  0  0  0
    0.3691   -0.8337   -1.6272 C   0  0  0  0  0  0  0  0  0  0  0  0
   -0.7020   -0.2314   -0.9606 C   0  0  0  0  0  0  0  0  0  0  0  0
   -4.0293   -0.6455    0.5127 S   0  0  0  0  0  0  0  0  0  0  0  0
   -5.1163   -1.0094   -0.4592 O   0  0  0  0  0  0  0  0  0  0  0  0
   -3.3339   -1.8933    0.9809 O   0  0  0  0  0  0  0  0  0  0  0  0
   -4.7067    0.1497    1.8303 O   0  0  0  0  0  0  0  0  0  0  0  0
   -3.2806   -0.0069   -3.0138 H   0  0  0  0  0  0  0  0  0  0  0  0
   -1.8577   -1.0673   -3.2775 H   0  0  0  0  0  0  0  0  0  0  0  0
   -3.2702   -1.6887   -2.3480 H   0  0  0  0  0  0  0  0  0  0  0  0
   -3.3869    1.2843   -0.7635 H   0  0  0  0  0  0  0  0  0  0  0  0
   -1.9540    0.5938    1.7550 H   0  0  0  0  0  0  0  0  0  0  0  0
   -1.8060    2.0939    0.7374 H   0  0  0  0  0  0  0  0  0  0  0  0
    0.8995    1.2770    1.6067 H   0  0  0  0  0  0  0  0  0  0  0  0
    4.8648    0.9759    2.4492 H   0  0  0  0  0  0  0  0  0  0  0  0
    6.6191    1.2398    2.1725 H   0  0  0  0  0  0  0  0  0  0  0  0
    3.6180   -1.4992   -1.3411 H   0  0  0  0  0  0  0  0  0  0  0  0
    0.2115   -1.4471   -2.5031 H   0  0  0  0  0  0  0  0  0  0  0  0
   -5.3271   -0.5083    2.2345 H   0  0  0  0  0  0  0  0  0  0  0  0
  1  2  1  0
  2  3  1  0
  3  4  1  0
  4  5  1  0
  5  6  2  0
  6  7  1  0
  7  8  1  0
  8  9  2  3
  9 10  1  0
 10 11  2  0
 10 12  1  0
  7 13  2  0
 13 14  1  0
 13 15  1  0
 15 16  2  0
 16  2  1  0
 16  5  1  0
  3 17  1  0
 17 18  2  0
 17 19  2  0
 17 20  1  0
  1 21  1  0
  1 22  1  0
  1 23  1  0
  3 24  1  0
  4 25  1  0
  4 26  1  0
  6 27  1  0
 12 28  1  0
 12 29  1  0
 14 30  1  0
 15 31  1  0
 20 32  1  0
M  END
> <ID>
HT3355

> <Class>
0.0

> <Clusters>
132

> <Fold>
1

$$$$