
     RDKit          3D

 25 24  0  0  0  0  0  0  0  0999 V2000
    3.2677    0.2132   -1.1770 C   0  0  0  0  0  0  0  0  0  0  0  0
    2.8349   -0.1824    0.2345 C   0  0  0  0  0  0  0  0  0  0  0  0
    1.4671   -0.8818    0.2628 C   0  0  0  0  0  0  0  0  0  0  0  0
    0.3074    0.0752   -0.0521 C   0  0  0  0  0  0  0  0  0  0  0  0
   -1.0475   -0.6289    0.1219 C   0  0  0  0  0  0  0  0  0  0  0  0
   -2.2398    0.2475   -0.3296 C   0  0  0  0  0  0  0  0  0  0  0  0
   -2.4544    1.4518    0.5950 C   0  0  0  0  0  0  0  0  0  0  0  0
   -3.4707   -0.5450   -0.3774 N   0  0  0  0  0  0  0  0  0  0  0  0
    4.3074    0.6020   -1.1482 H   0  0  0  0  0  0  0  0  0  0  0  0
    2.6121    1.0126   -1.5799 H   0  0  0  0  0  0  0  0  0  0  0  0
    3.2387   -0.6669   -1.8540 H   0  0  0  0  0  0  0  0  0  0  0  0
    3.5944   -0.8810    0.6481 H   0  0  0  0  0  0  0  0  0  0  0  0
    2.8182    0.7185    0.8856 H   0  0  0  0  0  0  0  0  0  0  0  0
    1.4646   -1.7306   -0.4560 H   0  0  0  0  0  0  0  0  0  0  0  0
    1.3186   -1.3027    1.2815 H   0  0  0  0  0  0  0  0  0  0  0  0
    0.3963    0.4352   -1.0992 H   0  0  0  0  0  0  0  0  0  0  0  0
    0.3649    0.9476    0.6329 H   0  0  0  0  0  0  0  0  0  0  0  0
   -1.1795   -0.9264    1.1857 H   0  0  0  0  0  0  0  0  0  0  0  0
   -1.0406   -1.5582   -0.4896 H   0  0  0  0  0  0  0  0  0  0  0  0
   -2.0382    0.6330   -1.3541 H   0  0  0  0  0  0  0  0  0  0  0  0
   -1.6053    2.1619    0.5200 H   0  0  0  0  0  0  0  0  0  0  0  0
   -3.3755    1.9960    0.2961 H   0  0  0  0  0  0  0  0  0  0  0  0
   -2.5641    1.1214    1.6501 H   0  0  0  0  0  0  0  0  0  0  0  0
   -3.3636   -1.2912   -1.1028 H   0  0  0  0  0  0  0  0  0  0  0  0
   -3.6132   -1.0209    0.5438 H   0  0  0  0  0  0  0  0  0  0  0  0
  1  2  1  0
  2  3  1  0
  3  4  1  0
  4  5  1  0
  5  6  1  0
  6  7  1  0
  6  8  1  0
  1  9  1  0
  1 10  1  0
  1 11  1  0
  2 12  1  0
  2 13  1  0
  3 14  1  0
  3 15  1  0
  4 16  1  0
  4 17  1  0
  5 18  1  0
  5 19  1  0
  6 20  1  0
  7 21  1  0
  7 22  1  0
  7 23  1  0
  8 24  1  0
  8 25  1  0
M  END
> <ID>
HT2473

> <Class>
0.0

> <Clusters>
20

> <Fold>
1

$$$$