
     RDKit          3D

104109  0  0  0  0  0  0  0  0999 V2000
   -5.3253    5.0911   -1.7759 C   0  0  0  0  0  0  0  0  0  0  0  0
   -5.3697    3.5638   -1.7222 C   0  0  0  0  0  0  0  0  0  0  0  0
   -4.4196    2.9826   -0.7132 C   0  0  0  0  0  0  0  0  0  0  0  0
   -3.6983    3.7266    0.0012 O   0  0  0  0  0  0  0  0  0  0  0  0
   -4.3498    1.5913   -0.5872 O   0  0  0  0  0  0  0  0  0  0  0  0
   -3.4454    0.9127    0.2872 C   0  0  1  0  0  0  0  0  0  0  0  0
   -3.9146   -0.5380    0.7026 C   0  0  2  0  0  0  0  0  0  0  0  0
   -2.8049   -1.4921    0.1944 C   0  0  0  0  0  0  0  0  0  0  0  0
   -1.5744   -0.6007    0.2711 C   0  0  1  0  0  0  0  0  0  0  0  0
   -0.2233   -1.0873   -0.2946 C   0  0  2  0  0  0  0  0  0  0  0  0
    0.1751   -2.4640    0.2649 C   0  0  0  0  0  0  0  0  0  0  0  0
    1.5652   -2.8719   -0.2383 C   0  0  0  0  0  0  0  0  0  0  0  0
    2.6262   -1.8368    0.1809 C   0  0  1  0  0  0  0  0  0  0  0  0
    4.0623   -2.3190   -0.1643 C   0  0  0  0  0  0  0  0  0  0  0  0
    5.0881   -1.1636   -0.2594 C   0  0  2  0  0  0  0  0  0  0  0  0
    6.3928   -1.6746    0.0304 O   0  0  0  0  0  0  0  0  0  0  0  0
    7.4848   -1.5791   -0.8452 C   0  0  0  0  0  0  0  0  0  0  0  0
    7.3738   -1.0030   -1.9627 O   0  0  0  0  0  0  0  0  0  0  0  0
    8.8069   -2.1277   -0.4349 C   0  0  0  0  0  0  0  0  0  0  0  0
    4.7204   -0.0150    0.7041 C   0  0  2  0  0  0  0  0  0  0  0  0
    3.3512    0.6074    0.2579 C   0  0  0  0  0  0  0  0  0  0  0  0
    2.3126   -0.4066   -0.3711 C   0  0  1  0  0  0  0  0  0  0  0  0
    2.4098   -0.3804   -1.9376 C   0  0  0  0  0  0  0  0  0  0  0  0
    0.8576   -0.0095    0.0849 C   0  0  1  0  0  0  0  0  0  0  0  0
    0.4424    1.4246   -0.3736 C   0  0  0  0  0  0  0  0  0  0  0  0
   -0.9967    1.8114    0.0566 C   0  0  0  0  0  0  0  0  0  0  0  0
   -2.0289    0.7316   -0.3507 C   0  0  2  0  0  0  0  0  0  0  0  0
   -2.1337    0.6862   -1.9113 C   0  0  0  0  0  0  0  0  0  0  0  0
    5.8754    0.9416    0.8087 N   0  0  0  0  0  0  0  0  0  0  0  0
    6.7050    0.6612    2.0037 C   0  0  0  0  0  0  0  0  0  0  0  0
    8.1000    1.2974    1.8576 C   0  0  0  0  0  0  0  0  0  0  0  0
    8.0834    2.5358    0.9506 C   0  0  0  0  0  0  0  0  0  0  0  0
    6.7632    3.2925    1.0981 C   0  0  0  0  0  0  0  0  0  0  0  0
    5.5585    2.3934    0.7281 C   0  0  0  0  0  0  0  0  0  0  0  0
   -5.3467   -0.9693    0.4236 N   0  0  0  0  0  0  0  0  0  0  0  0
   -5.6334   -1.0169   -1.0666 C   0  0  0  0  0  0  0  0  0  0  0  0
   -5.6183   -2.3926   -1.7123 C   0  0  0  0  0  0  0  0  0  0  0  0
   -6.7186   -2.9338   -2.2462 C   0  0  0  0  0  0  0  0  0  0  0  0
   -6.3259   -0.0064    1.0425 C   0  0  0  0  0  0  0  0  0  0  0  0
   -6.2637    0.0744    2.5784 C   0  0  0  0  0  0  0  0  0  0  0  0
   -6.5030   -1.2980    3.1965 C   0  0  0  0  0  0  0  0  0  0  0  0
   -5.5689   -2.3403    2.5909 C   0  0  0  0  0  0  0  0  0  0  0  0
   -5.6199   -2.3155    1.0483 C   0  0  0  0  0  0  0  0  0  0  0  0
   -6.0569    5.4569   -2.5252 H   0  0  0  0  0  0  0  0  0  0  0  0
   -4.3122    5.4380   -2.0737 H   0  0  0  0  0  0  0  0  0  0  0  0
   -5.5880    5.5198   -0.7856 H   0  0  0  0  0  0  0  0  0  0  0  0
   -5.1146    3.1587   -2.7244 H   0  0  0  0  0  0  0  0  0  0  0  0
   -6.4024    3.2405   -1.4713 H   0  0  0  0  0  0  0  0  0  0  0  0
   -3.3604    1.5086    1.2239 H   0  0  0  0  0  0  0  0  0  0  0  0
   -3.7590   -0.5487    1.8013 H   0  0  0  0  0  0  0  0  0  0  0  0
   -2.9671   -1.8332   -0.8451 H   0  0  0  0  0  0  0  0  0  0  0  0
   -2.6898   -2.3735    0.8604 H   0  0  0  0  0  0  0  0  0  0  0  0
   -1.4012   -0.4396    1.3652 H   0  0  0  0  0  0  0  0  0  0  0  0
   -0.3223   -1.2177   -1.3880 H   0  0  0  0  0  0  0  0  0  0  0  0
    0.1703   -2.4450    1.3764 H   0  0  0  0  0  0  0  0  0  0  0  0
   -0.5556   -3.2320   -0.0679 H   0  0  0  0  0  0  0  0  0  0  0  0
    1.5476   -2.9871   -1.3431 H   0  0  0  0  0  0  0  0  0  0  0  0
    1.8224   -3.8614    0.1964 H   0  0  0  0  0  0  0  0  0  0  0  0
    2.5769   -1.7777    1.2929 H   0  0  0  0  0  0  0  0  0  0  0  0
    4.3890   -3.0345    0.6246 H   0  0  0  0  0  0  0  0  0  0  0  0
    4.0699   -2.8780   -1.1248 H   0  0  0  0  0  0  0  0  0  0  0  0
    5.0670   -0.7473   -1.2897 H   0  0  0  0  0  0  0  0  0  0  0  0
    8.6832   -2.8194    0.4207 H   0  0  0  0  0  0  0  0  0  0  0  0
    9.4744   -1.2954   -0.1386 H   0  0  0  0  0  0  0  0  0  0  0  0
    9.2650   -2.6865   -1.2783 H   0  0  0  0  0  0  0  0  0  0  0  0
    4.5297   -0.4703    1.7072 H   0  0  0  0  0  0  0  0  0  0  0  0
    2.9209    1.0753    1.1706 H   0  0  0  0  0  0  0  0  0  0  0  0
    3.4983    1.4374   -0.4565 H   0  0  0  0  0  0  0  0  0  0  0  0
    2.7437    0.6071   -2.3232 H   0  0  0  0  0  0  0  0  0  0  0  0
    1.4396   -0.5804   -2.4341 H   0  0  0  0  0  0  0  0  0  0  0  0
    3.1074   -1.1424   -2.3416 H   0  0  0  0  0  0  0  0  0  0  0  0
    0.8761    0.0269    1.2004 H   0  0  0  0  0  0  0  0  0  0  0  0
    1.1302    2.1711    0.0727 H   0  0  0  0  0  0  0  0  0  0  0  0
    0.5461    1.5286   -1.4723 H   0  0  0  0  0  0  0  0  0  0  0  0
   -1.2635    2.7853   -0.4061 H   0  0  0  0  0  0  0  0  0  0  0  0
   -1.0100    1.9501    1.1598 H   0  0  0  0  0  0  0  0  0  0  0  0
   -1.1625    0.5199   -2.4088 H   0  0  0  0  0  0  0  0  0  0  0  0
   -2.8088   -0.1102   -2.2663 H   0  0  0  0  0  0  0  0  0  0  0  0
   -2.5096    1.6520   -2.3058 H   0  0  0  0  0  0  0  0  0  0  0  0
    6.2026    1.0614    2.9155 H   0  0  0  0  0  0  0  0  0  0  0  0
    6.8397   -0.4309    2.1606 H   0  0  0  0  0  0  0  0  0  0  0  0
    8.4727    1.5819    2.8657 H   0  0  0  0  0  0  0  0  0  0  0  0
    8.8086    0.5577    1.4352 H   0  0  0  0  0  0  0  0  0  0  0  0
    8.9328    3.2045    1.2094 H   0  0  0  0  0  0  0  0  0  0  0  0
    8.2118    2.2245   -0.1093 H   0  0  0  0  0  0  0  0  0  0  0  0
    6.7775    4.1979    0.4504 H   0  0  0  0  0  0  0  0  0  0  0  0
    6.6610    3.6331    2.1521 H   0  0  0  0  0  0  0  0  0  0  0  0
    5.2934    2.6398   -0.3237 H   0  0  0  0  0  0  0  0  0  0  0  0
    4.7086    2.6526    1.3982 H   0  0  0  0  0  0  0  0  0  0  0  0
   -6.6056   -0.5358   -1.3147 H   0  0  0  0  0  0  0  0  0  0  0  0
   -4.9095   -0.4248   -1.6433 H   0  0  0  0  0  0  0  0  0  0  0  0
   -4.6929   -2.9560   -1.7539 H   0  0  0  0  0  0  0  0  0  0  0  0
   -7.6703   -2.4094   -2.2241 H   0  0  0  0  0  0  0  0  0  0  0  0
   -6.6676   -3.9133   -2.7115 H   0  0  0  0  0  0  0  0  0  0  0  0
   -7.3701   -0.3042    0.7838 H   0  0  0  0  0  0  0  0  0  0  0  0
   -6.2204    1.0181    0.6446 H   0  0  0  0  0  0  0  0  0  0  0  0
   -5.3010    0.4990    2.9294 H   0  0  0  0  0  0  0  0  0  0  0  0
   -7.0593    0.7652    2.9344 H   0  0  0  0  0  0  0  0  0  0  0  0
   -7.5563   -1.6000    3.0209 H   0  0  0  0  0  0  0  0  0  0  0  0
   -6.3421   -1.2453    4.2936 H   0  0  0  0  0  0  0  0  0  0  0  0
   -4.5349   -2.1991    2.9666 H   0  0  0  0  0  0  0  0  0  0  0  0
   -5.8895   -3.3454    2.9409 H   0  0  0  0  0  0  0  0  0  0  0  0
   -4.9011   -3.0790    0.6862 H   0  0  0  0  0  0  0  0  0  0  0  0
   -6.6334   -2.6726    0.7490 H   0  0  0  0  0  0  0  0  0  0  0  0
  1  2  1  0
  2  3  1  0
  3  4  2  0
  3  5  1  0
  6  5  1  0
  6  7  1  0
  7  8  1  0
  9  8  1  0
  9 10  1  0
 10 11  1  0
 11 12  1  0
 12 13  1  0
 13 14  1  0
 14 15  1  0
 15 16  1  0
 16 17  1  0
 17 18  2  0
 17 19  1  0
 15 20  1  0
 20 21  1  0
 21 22  1  0
 22 13  1  0
 22 23  1  6
 22 24  1  0
 24 10  1  0
 24 25  1  0
 25 26  1  0
 26 27  1  0
 27  6  1  0
 27  9  1  0
 27 28  1  6
 20 29  1  0
 29 30  1  0
 30 31  1  0
 31 32  1  0
 32 33  1  0
 33 34  1  0
 34 29  1  0
  7 35  1  0
 35 36  1  0
 36 37  1  0
 37 38  2  3
 35 39  1  0
 39 40  1  0
 40 41  1  0
 41 42  1  0
 42 43  1  0
 43 35  1  0
  1 44  1  0
  1 45  1  0
  1 46  1  0
  2 47  1  0
  2 48  1  0
  6 49  1  1
  7 50  1  1
  8 51  1  0
  8 52  1  0
  9 53  1  1
 10 54  1  6
 11 55  1  0
 11 56  1  0
 12 57  1  0
 12 58  1  0
 13 59  1  1
 14 60  1  0
 14 61  1  0
 15 62  1  6
 19 63  1  0
 19 64  1  0
 19 65  1  0
 20 66  1  1
 21 67  1  0
 21 68  1  0
 23 69  1  0
 23 70  1  0
 23 71  1  0
 24 72  1  1
 25 73  1  0
 25 74  1  0
 26 75  1  0
 26 76  1  0
 28 77  1  0
 28 78  1  0
 28 79  1  0
 30 80  1  0
 30 81  1  0
 31 82  1  0
 31 83  1  0
 32 84  1  0
 32 85  1  0
 33 86  1  0
 33 87  1  0
 34 88  1  0
 34 89  1  0
 36 90  1  0
 36 91  1  0
 37 92  1  0
 38 93  1  0
 38 94  1  0
 39 95  1  0
 39 96  1  0
 40 97  1  0
 40 98  1  0
 41 99  1  0
 41100  1  0
 42101  1  0
 42102  1  0
 43103  1  0
 43104  1  0
M  CHG  1  35   1
M  END
> <ID>
HT1802

> <Class>
0.0

> <Clusters>
239

> <Fold>
1

$$$$