
     RDKit          3D

 43 44  0  0  0  0  0  0  0  0999 V2000
    5.3778   -1.6821    0.5849 C   0  0  0  0  0  0  0  0  0  0  0  0
    4.1444   -1.0020    1.1784 C   0  0  0  0  0  0  0  0  0  0  0  0
    3.5092    0.0181    0.2212 C   0  0  0  0  0  0  0  0  0  0  0  0
    2.8160   -0.6500   -0.9771 C   0  0  0  0  0  0  0  0  0  0  0  0
    2.1046    0.3800   -1.8643 C   0  0  0  0  0  0  0  0  0  0  0  0
    1.0840    1.0742   -1.1446 O   0  0  0  0  0  0  0  0  0  0  0  0
   -0.1322    0.5217   -0.7081 C   0  0  0  0  0  0  0  0  0  0  0  0
   -0.5889   -0.7350   -1.1467 C   0  0  0  0  0  0  0  0  0  0  0  0
   -1.8034   -1.2452   -0.6873 C   0  0  0  0  0  0  0  0  0  0  0  0
   -2.5902   -0.5104    0.2140 C   0  0  0  0  0  0  0  0  0  0  0  0
   -2.1388    0.7461    0.6474 C   0  0  0  0  0  0  0  0  0  0  0  0
   -0.9128    1.2668    0.1887 C   0  0  0  0  0  0  0  0  0  0  0  0
   -0.4326    2.5188    0.6045 O   0  0  0  0  0  0  0  0  0  0  0  0
   -1.1056    3.3822    1.5169 C   0  0  0  0  0  0  0  0  0  0  0  0
   -0.2782    4.6397    1.7282 C   0  0  0  0  0  0  0  0  0  0  0  0
   -3.9047   -1.0601    0.7177 C   0  0  0  0  0  0  0  0  0  0  0  0
   -3.6314   -2.6345    1.6331 S   0  0  0  0  0  0  0  0  0  0  0  0
   -4.6770   -3.4972    0.4694 C   0  0  0  0  0  0  0  0  0  0  0  0
   -4.8878   -4.7358    0.5408 O   0  0  0  0  0  0  0  0  0  0  0  0
   -5.2516   -2.6999   -0.5455 N   0  0  0  0  0  0  0  0  0  0  0  0
   -4.8421   -1.3524   -0.4145 C   0  0  0  0  0  0  0  0  0  0  0  0
   -5.2553   -0.4582   -1.1996 O   0  0  0  0  0  0  0  0  0  0  0  0
    5.8594   -2.3136    1.3609 H   0  0  0  0  0  0  0  0  0  0  0  0
    5.0955   -2.3366   -0.2654 H   0  0  0  0  0  0  0  0  0  0  0  0
    6.1128   -0.9235    0.2412 H   0  0  0  0  0  0  0  0  0  0  0  0
    4.4529   -0.4694    2.1040 H   0  0  0  0  0  0  0  0  0  0  0  0
    3.3968   -1.7723    1.4680 H   0  0  0  0  0  0  0  0  0  0  0  0
    4.2836    0.7311   -0.1377 H   0  0  0  0  0  0  0  0  0  0  0  0
    2.7568    0.5999    0.7971 H   0  0  0  0  0  0  0  0  0  0  0  0
    3.5701   -1.1752   -1.6003 H   0  0  0  0  0  0  0  0  0  0  0  0
    2.0866   -1.4045   -0.6148 H   0  0  0  0  0  0  0  0  0  0  0  0
    1.6803   -0.1066   -2.7677 H   0  0  0  0  0  0  0  0  0  0  0  0
    2.8502    1.1232   -2.2186 H   0  0  0  0  0  0  0  0  0  0  0  0
   -0.0179   -1.3263   -1.8478 H   0  0  0  0  0  0  0  0  0  0  0  0
   -2.1337   -2.2155   -1.0373 H   0  0  0  0  0  0  0  0  0  0  0  0
   -2.7450    1.3126    1.3412 H   0  0  0  0  0  0  0  0  0  0  0  0
   -2.0986    3.6652    1.1052 H   0  0  0  0  0  0  0  0  0  0  0  0
   -1.2401    2.8677    2.4930 H   0  0  0  0  0  0  0  0  0  0  0  0
   -0.7982    5.3159    2.4392 H   0  0  0  0  0  0  0  0  0  0  0  0
    0.7165    4.3737    2.1446 H   0  0  0  0  0  0  0  0  0  0  0  0
   -0.1394    5.1693    0.7619 H   0  0  0  0  0  0  0  0  0  0  0  0
   -4.4007   -0.3436    1.4074 H   0  0  0  0  0  0  0  0  0  0  0  0
   -5.8914   -3.0563   -1.2900 H   0  0  0  0  0  0  0  0  0  0  0  0
  1  2  1  0
  2  3  1  0
  3  4  1  0
  4  5  1  0
  5  6  1  0
  6  7  1  0
  7  8  2  0
  8  9  1  0
  9 10  2  0
 10 11  1  0
 11 12  2  0
 12  7  1  0
 12 13  1  0
 13 14  1  0
 14 15  1  0
 10 16  1  0
 16 17  1  0
 17 18  1  0
 18 19  2  0
 18 20  1  0
 20 21  1  0
 21 16  1  0
 21 22  2  0
  1 23  1  0
  1 24  1  0
  1 25  1  0
  2 26  1  0
  2 27  1  0
  3 28  1  0
  3 29  1  0
  4 30  1  0
  4 31  1  0
  5 32  1  0
  5 33  1  0
  8 34  1  0
  9 35  1  0
 11 36  1  0
 14 37  1  0
 14 38  1  0
 15 39  1  0
 15 40  1  0
 15 41  1  0
 16 42  1  0
 20 43  1  0
M  END
> <ID>
HT1829

> <Class>
0.0

> <Clusters>
199

> <Fold>
1

$$$$