
     RDKit          3D

 15 14  0  0  0  0  0  0  0  0999 V2000
    2.6848    0.9389   -0.1027 O   0  0  0  0  0  0  0  0  0  0  0  0
    1.8861    0.4389    0.6735 C   0  0  0  0  0  0  0  0  0  0  0  0
    1.0501   -0.7351    0.2551 C   0  0  0  0  0  0  0  0  0  0  0  0
    0.0810   -0.3785   -0.8845 C   0  0  0  0  0  0  0  0  0  0  0  0
   -1.0070    0.6249   -0.4674 C   0  0  0  0  0  0  0  0  0  0  0  0
   -2.0072    0.0241    0.4781 C   0  0  0  0  0  0  0  0  0  0  0  0
   -2.9213    0.7071    0.9106 O   0  0  0  0  0  0  0  0  0  0  0  0
    1.7908    0.8408    1.6769 H   0  0  0  0  0  0  0  0  0  0  0  0
    1.7262   -1.5484   -0.0859 H   0  0  0  0  0  0  0  0  0  0  0  0
    0.4870   -1.1168    1.1329 H   0  0  0  0  0  0  0  0  0  0  0  0
   -0.4006   -1.3096   -1.2559 H   0  0  0  0  0  0  0  0  0  0  0  0
    0.6576    0.0479   -1.7345 H   0  0  0  0  0  0  0  0  0  0  0  0
   -1.5471    0.9609   -1.3786 H   0  0  0  0  0  0  0  0  0  0  0  0
   -0.5454    1.5206    0.0006 H   0  0  0  0  0  0  0  0  0  0  0  0
   -1.9351   -1.0157    0.7816 H   0  0  0  0  0  0  0  0  0  0  0  0
  1  2  2  0
  2  3  1  0
  3  4  1  0
  4  5  1  0
  5  6  1  0
  6  7  2  0
  2  8  1  0
  3  9  1  0
  3 10  1  0
  4 11  1  0
  4 12  1  0
  5 13  1  0
  5 14  1  0
  6 15  1  0
M  END
> <ID>
HT2408

> <Class>
0.0

> <Clusters>
20

> <Fold>
1

$$$$