
     RDKit          3D

 57 60  0  0  0  0  0  0  0  0999 V2000
    6.5816   -1.1163    1.4560 C   0  0  0  0  0  0  0  0  0  0  0  0
    5.8746   -0.7762    0.1447 C   0  0  0  0  0  0  0  0  0  0  0  0
    4.6754    0.1080    0.3318 C   0  0  0  0  0  0  0  0  0  0  0  0
    4.3429    0.5166    1.4791 O   0  0  0  0  0  0  0  0  0  0  0  0
    3.9378    0.4811   -0.7964 O   0  0  0  0  0  0  0  0  0  0  0  0
    2.7096    1.2105   -0.7325 C   0  0  1  0  0  0  0  0  0  0  0  0
    2.4127    1.8849   -2.0887 C   0  0  0  0  0  0  0  0  0  0  0  0
    0.9007    1.7443   -2.3341 C   0  0  0  0  0  0  0  0  0  0  0  0
    0.3618    1.2093   -1.0144 C   0  0  1  0  0  0  0  0  0  0  0  0
   -1.0201    0.5231   -0.9898 C   0  0  2  0  0  0  0  0  0  0  0  0
   -2.1035    1.4522   -1.5653 C   0  0  0  0  0  0  0  0  0  0  0  0
   -3.4663    0.7675   -1.5368 C   0  0  0  0  0  0  0  0  0  0  0  0
   -3.8127    0.3214   -0.1358 C   0  0  0  0  0  0  0  0  0  0  0  0
   -5.0571    0.5467    0.3247 C   0  0  0  0  0  0  0  0  0  0  0  0
   -5.5133    0.0277    1.6198 C   0  0  0  0  0  0  0  0  0  0  0  0
   -6.6767    0.2922    2.0237 O   0  0  0  0  0  0  0  0  0  0  0  0
   -4.6329   -0.8696    2.4258 C   0  0  0  0  0  0  0  0  0  0  0  0
   -3.1614   -0.5343    2.1723 C   0  0  0  0  0  0  0  0  0  0  0  0
   -2.7854   -0.5065    0.6536 C   0  0  1  0  0  0  0  0  0  0  0  0
   -2.8045   -1.9531    0.0973 C   0  0  0  0  0  0  0  0  0  0  0  0
   -1.3639    0.1644    0.4960 C   0  0  1  0  0  0  0  0  0  0  0  0
   -0.2102   -0.6281    1.1921 C   0  0  0  0  0  0  0  0  0  0  0  0
    1.1805    0.0272    1.0137 C   0  0  0  0  0  0  0  0  0  0  0  0
    1.4812    0.3098   -0.4746 C   0  0  2  0  0  0  0  0  0  0  0  0
    1.6478   -1.0346   -1.2541 C   0  0  0  0  0  0  0  0  0  0  0  0
    5.8895   -1.6532    2.1396 H   0  0  0  0  0  0  0  0  0  0  0  0
    6.9459   -0.1902    1.9499 H   0  0  0  0  0  0  0  0  0  0  0  0
    7.4530   -1.7724    1.2481 H   0  0  0  0  0  0  0  0  0  0  0  0
    6.5926   -0.2656   -0.5317 H   0  0  0  0  0  0  0  0  0  0  0  0
    5.5477   -1.7191   -0.3433 H   0  0  0  0  0  0  0  0  0  0  0  0
    2.7806    2.0084    0.0429 H   0  0  0  0  0  0  0  0  0  0  0  0
    2.9736    1.3893   -2.9115 H   0  0  0  0  0  0  0  0  0  0  0  0
    2.7059    2.9570   -2.0559 H   0  0  0  0  0  0  0  0  0  0  0  0
    0.4450    2.7267   -2.5860 H   0  0  0  0  0  0  0  0  0  0  0  0
    0.7013    1.0264   -3.1594 H   0  0  0  0  0  0  0  0  0  0  0  0
    0.2788    2.1044   -0.3480 H   0  0  0  0  0  0  0  0  0  0  0  0
   -0.9905   -0.3855   -1.6223 H   0  0  0  0  0  0  0  0  0  0  0  0
   -2.1512    2.4008   -0.9854 H   0  0  0  0  0  0  0  0  0  0  0  0
   -1.8642    1.7057   -2.6205 H   0  0  0  0  0  0  0  0  0  0  0  0
   -3.4459   -0.1212   -2.2038 H   0  0  0  0  0  0  0  0  0  0  0  0
   -4.2250    1.4708   -1.9457 H   0  0  0  0  0  0  0  0  0  0  0  0
   -5.7660    1.1090   -0.2719 H   0  0  0  0  0  0  0  0  0  0  0  0
   -4.8414   -1.9267    2.1578 H   0  0  0  0  0  0  0  0  0  0  0  0
   -4.8547   -0.7400    3.5074 H   0  0  0  0  0  0  0  0  0  0  0  0
   -2.9567    0.4592    2.6304 H   0  0  0  0  0  0  0  0  0  0  0  0
   -2.5452   -1.2804    2.7177 H   0  0  0  0  0  0  0  0  0  0  0  0
   -3.8445   -2.3396    0.0452 H   0  0  0  0  0  0  0  0  0  0  0  0
   -2.2274   -2.6449    0.7452 H   0  0  0  0  0  0  0  0  0  0  0  0
   -2.3867   -2.0058   -0.9274 H   0  0  0  0  0  0  0  0  0  0  0  0
   -1.4173    1.1380    1.0373 H   0  0  0  0  0  0  0  0  0  0  0  0
   -0.4019   -0.6869    2.2832 H   0  0  0  0  0  0  0  0  0  0  0  0
   -0.1691   -1.6698    0.8191 H   0  0  0  0  0  0  0  0  0  0  0  0
    1.9539   -0.6476    1.4391 H   0  0  0  0  0  0  0  0  0  0  0  0
    1.2086    0.9739    1.5975 H   0  0  0  0  0  0  0  0  0  0  0  0
    2.4696   -1.6340   -0.8081 H   0  0  0  0  0  0  0  0  0  0  0  0
    1.8996   -0.8639   -2.3211 H   0  0  0  0  0  0  0  0  0  0  0  0
    0.7433   -1.6700   -1.2261 H   0  0  0  0  0  0  0  0  0  0  0  0
  1  2  1  0
  2  3  1  0
  3  4  2  0
  3  5  1  0
  6  5  1  0
  6  7  1  0
  7  8  1  0
  9  8  1  0
  9 10  1  0
 10 11  1  0
 11 12  1  0
 12 13  1  0
 13 14  2  0
 14 15  1  0
 15 16  2  0
 15 17  1  0
 17 18  1  0
 18 19  1  0
 19 13  1  0
 19 20  1  6
 19 21  1  0
 21 10  1  0
 21 22  1  0
 22 23  1  0
 23 24  1  0
 24  6  1  0
 24  9  1  0
 24 25  1  6
  1 26  1  0
  1 27  1  0
  1 28  1  0
  2 29  1  0
  2 30  1  0
  6 31  1  1
  7 32  1  0
  7 33  1  0
  8 34  1  0
  8 35  1  0
  9 36  1  1
 10 37  1  6
 11 38  1  0
 11 39  1  0
 12 40  1  0
 12 41  1  0
 14 42  1  0
 17 43  1  0
 17 44  1  0
 18 45  1  0
 18 46  1  0
 20 47  1  0
 20 48  1  0
 20 49  1  0
 21 50  1  1
 22 51  1  0
 22 52  1  0
 23 53  1  0
 23 54  1  0
 25 55  1  0
 25 56  1  0
 25 57  1  0
M  END
> <ID>
HT2021

> <Class>
0.0

> <Clusters>
224

> <Fold>
1

$$$$