
     RDKit          3D

 48 51  0  0  0  0  0  0  0  0999 V2000
   -2.1603    1.3277    1.5013 C   0  0  0  0  0  0  0  0  0  0  0  0
   -2.1480    0.0279    0.6282 C   0  0  2  0  0  0  0  0  0  0  0  0
   -1.4199   -1.0975    1.4085 C   0  0  0  0  0  0  0  0  0  0  0  0
    0.0830   -0.7792    1.5980 C   0  0  0  0  0  0  0  0  0  0  0  0
    0.8130   -0.4162    0.2680 C   0  0  1  0  0  0  0  0  0  0  0  0
    0.0405    0.6684   -0.5493 C   0  0  1  0  0  0  0  0  0  0  0  0
    0.7219    0.8606   -1.9162 C   0  0  0  0  0  0  0  0  0  0  0  0
    2.1515    1.3662   -1.7327 C   0  0  0  0  0  0  0  0  0  0  0  0
    2.9348    0.4672   -0.8072 C   0  0  0  0  0  0  0  0  0  0  0  0
    4.2308    0.2305   -1.0769 C   0  0  0  0  0  0  0  0  0  0  0  0
    5.0997   -0.4684   -0.1224 C   0  0  0  0  0  0  0  0  0  0  0  0
    6.2913   -0.7316   -0.4340 O   0  0  0  0  0  0  0  0  0  0  0  0
    4.5953   -0.7910    1.2466 C   0  0  0  0  0  0  0  0  0  0  0  0
    3.1019   -1.1091    1.1913 C   0  0  0  0  0  0  0  0  0  0  0  0
    2.2903    0.0251    0.5096 C   0  0  2  0  0  0  0  0  0  0  0  0
   -1.4245    0.2124   -0.7157 C   0  0  2  0  0  0  0  0  0  0  0  0
   -2.3705    1.0683   -1.5532 C   0  0  0  0  0  0  0  0  0  0  0  0
   -3.7837    0.6625   -1.0897 C   0  0  0  0  0  0  0  0  0  0  0  0
   -3.6022   -0.2798    0.1413 C   0  0  2  0  0  0  0  0  0  0  0  0
   -4.5688   -0.0657    1.1474 O   0  0  0  0  0  0  0  0  0  0  0  0
   -3.7559   -1.6815   -0.3098 C   0  0  0  0  0  0  0  0  0  0  0  0
   -3.8840   -2.8222   -0.6798 C   0  0  0  0  0  0  0  0  0  0  0  0
   -1.1519    1.6862    1.7762 H   0  0  0  0  0  0  0  0  0  0  0  0
   -2.6917    1.1386    2.4582 H   0  0  0  0  0  0  0  0  0  0  0  0
   -2.6724    2.1673    0.9879 H   0  0  0  0  0  0  0  0  0  0  0  0
   -1.8978   -1.2425    2.4016 H   0  0  0  0  0  0  0  0  0  0  0  0
   -1.4882   -2.0647    0.8664 H   0  0  0  0  0  0  0  0  0  0  0  0
    0.2159    0.0323    2.3429 H   0  0  0  0  0  0  0  0  0  0  0  0
    0.5454   -1.6881    2.0365 H   0  0  0  0  0  0  0  0  0  0  0  0
    0.8364   -1.3469   -0.3455 H   0  0  0  0  0  0  0  0  0  0  0  0
    0.0778    1.6444   -0.0220 H   0  0  0  0  0  0  0  0  0  0  0  0
    0.7335   -0.0969   -2.4832 H   0  0  0  0  0  0  0  0  0  0  0  0
    0.1647    1.6098   -2.5185 H   0  0  0  0  0  0  0  0  0  0  0  0
    2.6327    1.4432   -2.7326 H   0  0  0  0  0  0  0  0  0  0  0  0
    2.1239    2.3869   -1.2930 H   0  0  0  0  0  0  0  0  0  0  0  0
    4.6707    0.5852   -2.0018 H   0  0  0  0  0  0  0  0  0  0  0  0
    5.1437   -1.6660    1.6581 H   0  0  0  0  0  0  0  0  0  0  0  0
    4.7700    0.0815    1.9124 H   0  0  0  0  0  0  0  0  0  0  0  0
    2.7534   -1.2546    2.2354 H   0  0  0  0  0  0  0  0  0  0  0  0
    2.9572   -2.0647    0.6394 H   0  0  0  0  0  0  0  0  0  0  0  0
    2.2901    0.9063    1.1892 H   0  0  0  0  0  0  0  0  0  0  0  0
   -1.3808   -0.7774   -1.2329 H   0  0  0  0  0  0  0  0  0  0  0  0
   -2.2360    0.8655   -2.6382 H   0  0  0  0  0  0  0  0  0  0  0  0
   -2.1915    2.1490   -1.3620 H   0  0  0  0  0  0  0  0  0  0  0  0
   -4.3503    1.5821   -0.8276 H   0  0  0  0  0  0  0  0  0  0  0  0
   -4.3364    0.1680   -1.9203 H   0  0  0  0  0  0  0  0  0  0  0  0
   -4.7591    0.9042    1.2245 H   0  0  0  0  0  0  0  0  0  0  0  0
   -3.9954   -3.8231   -1.0045 H   0  0  0  0  0  0  0  0  0  0  0  0
  2  1  1  1
  2  3  1  0
  3  4  1  0
  5  4  1  0
  5  6  1  0
  6  7  1  0
  7  8  1  0
  8  9  1  0
  9 10  2  0
 10 11  1  0
 11 12  2  0
 11 13  1  0
 13 14  1  0
 15 14  1  0
 15  5  1  0
 15  9  1  0
  6 16  1  0
 16  2  1  0
 16 17  1  0
 17 18  1  0
 18 19  1  0
 19  2  1  0
 19 20  1  0
 19 21  1  6
 21 22  3  0
  1 23  1  0
  1 24  1  0
  1 25  1  0
  3 26  1  0
  3 27  1  0
  4 28  1  0
  4 29  1  0
  5 30  1  6
  6 31  1  1
  7 32  1  0
  7 33  1  0
  8 34  1  0
  8 35  1  0
 10 36  1  0
 13 37  1  0
 13 38  1  0
 14 39  1  0
 14 40  1  0
 15 41  1  1
 16 42  1  6
 17 43  1  0
 17 44  1  0
 18 45  1  0
 18 46  1  0
 20 47  1  0
 22 48  1  0
M  END
> <ID>
HT1523

> <Class>
0.0

> <Clusters>
183

> <Fold>
1

$$$$