
     RDKit          3D

 70 71  0  0  0  0  0  0  0  0999 V2000
   -9.6362   -0.4705    0.5650 C   0  0  0  0  0  0  0  0  0  0  0  0
   -8.7576   -1.1696    1.5999 C   0  0  0  0  0  0  0  0  0  0  0  0
   -9.5078   -1.3471    2.9177 C   0  0  0  0  0  0  0  0  0  0  0  0
   -7.5888   -0.3795    1.8287 O   0  0  0  0  0  0  0  0  0  0  0  0
   -6.2799   -0.8329    1.6257 C   0  0  0  0  0  0  0  0  0  0  0  0
   -6.0527   -2.0177    1.2548 O   0  0  0  0  0  0  0  0  0  0  0  0
   -5.1388    0.1178    1.8187 C   0  0  0  0  0  0  0  0  0  0  0  0
   -5.0300    1.1107    0.6499 C   0  0  0  0  0  0  0  0  0  0  0  0
   -4.6194    0.4554   -0.6799 C   0  0  0  0  0  0  0  0  0  0  0  0
   -3.1676    0.0509   -0.6663 C   0  0  0  0  0  0  0  0  0  0  0  0
   -2.2756    0.5919   -1.5113 C   0  0  0  0  0  0  0  0  0  0  0  0
   -0.8150    0.2265   -1.4563 C   0  0  0  0  0  0  0  0  0  0  0  0
    0.0682    1.4910   -1.4294 C   0  0  1  0  0  0  0  0  0  0  0  0
   -0.1592    2.4058   -0.2187 C   0  0  1  0  0  0  0  0  0  0  0  0
   -0.2670    1.6636    0.9713 O   0  0  0  0  0  0  0  0  0  0  0  0
    1.0993    3.2641   -0.1599 C   0  0  0  0  0  0  0  0  0  0  0  0
    2.2292    2.4196   -0.7719 C   0  0  1  0  0  0  0  0  0  0  0  0
    3.1896    2.0706    0.1958 O   0  0  0  0  0  0  0  0  0  0  0  0
    1.5686    1.1677   -1.3890 C   0  0  2  0  0  0  0  0  0  0  0  0
    2.1136    0.8609   -2.7715 C   0  0  0  0  0  0  0  0  0  0  0  0
    3.1419    0.0272   -3.0151 C   0  0  0  0  0  0  0  0  0  0  0  0
    3.9018   -0.7103   -1.9381 C   0  0  1  0  0  0  0  0  0  0  0  0
    3.0949   -1.7371   -1.4230 O   0  0  0  0  0  0  0  0  0  0  0  0
    5.1930   -1.3157   -2.5102 C   0  0  0  0  0  0  0  0  0  0  0  0
    5.9871   -1.8973   -1.4751 O   0  0  0  0  0  0  0  0  0  0  0  0
    6.7275   -1.1832   -0.5173 C   0  0  0  0  0  0  0  0  0  0  0  0
    6.8971    0.2142   -0.5724 C   0  0  0  0  0  0  0  0  0  0  0  0
    7.6584    0.8680    0.3984 C   0  0  0  0  0  0  0  0  0  0  0  0
    8.2525    0.1427    1.4337 C   0  0  0  0  0  0  0  0  0  0  0  0
    8.0764   -1.2484    1.5177 C   0  0  0  0  0  0  0  0  0  0  0  0
    7.3310   -1.9038    0.5210 C   0  0  0  0  0  0  0  0  0  0  0  0
    8.7581   -2.0384    2.6069 C   0  0  0  0  0  0  0  0  0  0  0  0
    8.8590   -1.2854    3.7651 F   0  0  0  0  0  0  0  0  0  0  0  0
    8.0429   -3.1869    2.8993 F   0  0  0  0  0  0  0  0  0  0  0  0
   10.0268   -2.3919    2.1861 F   0  0  0  0  0  0  0  0  0  0  0  0
   -9.9441    0.5325    0.9321 H   0  0  0  0  0  0  0  0  0  0  0  0
  -10.5430   -1.0774    0.3563 H   0  0  0  0  0  0  0  0  0  0  0  0
   -9.0692   -0.3450   -0.3830 H   0  0  0  0  0  0  0  0  0  0  0  0
   -8.4951   -2.1768    1.2087 H   0  0  0  0  0  0  0  0  0  0  0  0
   -9.7800   -0.3596    3.3488 H   0  0  0  0  0  0  0  0  0  0  0  0
  -10.4311   -1.9447    2.7593 H   0  0  0  0  0  0  0  0  0  0  0  0
   -8.8623   -1.8857    3.6441 H   0  0  0  0  0  0  0  0  0  0  0  0
   -4.1890   -0.4425    1.9519 H   0  0  0  0  0  0  0  0  0  0  0  0
   -5.3154    0.6882    2.7566 H   0  0  0  0  0  0  0  0  0  0  0  0
   -4.2922    1.9006    0.9132 H   0  0  0  0  0  0  0  0  0  0  0  0
   -6.0115    1.6169    0.5144 H   0  0  0  0  0  0  0  0  0  0  0  0
   -4.8126    1.1841   -1.4980 H   0  0  0  0  0  0  0  0  0  0  0  0
   -5.2444   -0.4376   -0.8880 H   0  0  0  0  0  0  0  0  0  0  0  0
   -2.8412   -0.6881    0.0591 H   0  0  0  0  0  0  0  0  0  0  0  0
   -2.6019    1.3069   -2.2630 H   0  0  0  0  0  0  0  0  0  0  0  0
   -0.5928   -0.4157   -0.5748 H   0  0  0  0  0  0  0  0  0  0  0  0
   -0.5741   -0.3637   -2.3675 H   0  0  0  0  0  0  0  0  0  0  0  0
   -0.1549    2.0922   -2.3419 H   0  0  0  0  0  0  0  0  0  0  0  0
   -1.0566    3.0528   -0.3653 H   0  0  0  0  0  0  0  0  0  0  0  0
   -1.2314    1.4800    1.1114 H   0  0  0  0  0  0  0  0  0  0  0  0
    1.3254    3.5892    0.8794 H   0  0  0  0  0  0  0  0  0  0  0  0
    0.9438    4.1765   -0.7769 H   0  0  0  0  0  0  0  0  0  0  0  0
    2.7357    3.0246   -1.5564 H   0  0  0  0  0  0  0  0  0  0  0  0
    2.7212    1.5956    0.9311 H   0  0  0  0  0  0  0  0  0  0  0  0
    1.7142    0.2982   -0.7119 H   0  0  0  0  0  0  0  0  0  0  0  0
    1.6713    1.3718   -3.6232 H   0  0  0  0  0  0  0  0  0  0  0  0
    3.4579   -0.0876   -4.0491 H   0  0  0  0  0  0  0  0  0  0  0  0
    4.1696    0.0189   -1.1410 H   0  0  0  0  0  0  0  0  0  0  0  0
    3.3559   -1.8613   -0.4727 H   0  0  0  0  0  0  0  0  0  0  0  0
    5.7860   -0.5596   -3.0689 H   0  0  0  0  0  0  0  0  0  0  0  0
    4.9239   -2.1173   -3.2321 H   0  0  0  0  0  0  0  0  0  0  0  0
    6.4577    0.8040   -1.3640 H   0  0  0  0  0  0  0  0  0  0  0  0
    7.7934    1.9401    0.3455 H   0  0  0  0  0  0  0  0  0  0  0  0
    8.8506    0.6677    2.1684 H   0  0  0  0  0  0  0  0  0  0  0  0
    7.2149   -2.9804    0.5468 H   0  0  0  0  0  0  0  0  0  0  0  0
  1  2  1  0
  2  3  1  0
  2  4  1  0
  4  5  1  0
  5  6  2  0
  5  7  1  0
  7  8  1  0
  8  9  1  0
  9 10  1  0
 10 11  2  3
 11 12  1  0
 13 12  1  0
 13 14  1  0
 14 15  1  0
 14 16  1  0
 16 17  1  0
 17 18  1  0
 17 19  1  0
 19 13  1  0
 19 20  1  0
 20 21  2  3
 21 22  1  0
 22 23  1  0
 22 24  1  0
 24 25  1  0
 25 26  1  0
 26 27  2  0
 27 28  1  0
 28 29  2  0
 29 30  1  0
 30 31  2  0
 31 26  1  0
 30 32  1  0
 32 33  1  0
 32 34  1  0
 32 35  1  0
  1 36  1  0
  1 37  1  0
  1 38  1  0
  2 39  1  0
  3 40  1  0
  3 41  1  0
  3 42  1  0
  7 43  1  0
  7 44  1  0
  8 45  1  0
  8 46  1  0
  9 47  1  0
  9 48  1  0
 10 49  1  0
 11 50  1  0
 12 51  1  0
 12 52  1  0
 13 53  1  6
 14 54  1  6
 15 55  1  0
 16 56  1  0
 16 57  1  0
 17 58  1  6
 18 59  1  0
 19 60  1  1
 20 61  1  0
 21 62  1  0
 22 63  1  1
 23 64  1  0
 24 65  1  0
 24 66  1  0
 27 67  1  0
 28 68  1  0
 29 69  1  0
 31 70  1  0
M  END
> <ID>
HT2101

> <Class>
0.0

> <Clusters>
221

> <Fold>
1

$$$$