
     RDKit          3D

 49 50  0  0  0  0  0  0  0  0999 V2000
   -4.4565   -0.9819   -1.8191 C   0  0  0  0  0  0  0  0  0  0  0  0
   -3.9311   -1.0517   -0.3897 C   0  0  0  0  0  0  0  0  0  0  0  0
   -3.6227    0.3184    0.0862 N   0  0  0  0  0  0  0  0  0  0  0  0
   -4.4385    0.7393    1.2440 C   0  0  0  0  0  0  0  0  0  0  0  0
   -5.8587    1.0902    0.8061 C   0  0  0  0  0  0  0  0  0  0  0  0
   -2.1747    0.5483    0.2878 C   0  0  0  0  0  0  0  0  0  0  0  0
   -1.6003   -0.1709    1.5268 C   0  0  0  0  0  0  0  0  0  0  0  0
   -0.1876    0.0064    1.5964 O   0  0  0  0  0  0  0  0  0  0  0  0
    0.7177   -0.6518    0.7498 C   0  0  0  0  0  0  0  0  0  0  0  0
    0.3006   -1.5030   -0.0906 O   0  0  0  0  0  0  0  0  0  0  0  0
    2.1960   -0.3016    0.8392 C   0  0  0  0  0  0  0  0  0  0  0  0
    2.5643   -0.3680    2.2012 O   0  0  0  0  0  0  0  0  0  0  0  0
    2.4921    1.1115    0.3157 C   0  0  0  0  0  0  0  0  0  0  0  0
    1.5871    1.8265   -0.5035 C   0  0  0  0  0  0  0  0  0  0  0  0
    1.9138    3.0989   -0.9826 C   0  0  0  0  0  0  0  0  0  0  0  0
    3.1451    3.6731   -0.6659 C   0  0  0  0  0  0  0  0  0  0  0  0
    4.0580    2.9733    0.1260 C   0  0  0  0  0  0  0  0  0  0  0  0
    3.7390    1.7006    0.6081 C   0  0  0  0  0  0  0  0  0  0  0  0
    3.0283   -1.3127    0.0406 C   0  0  0  0  0  0  0  0  0  0  0  0
    3.0211   -1.2855   -1.3711 C   0  0  0  0  0  0  0  0  0  0  0  0
    3.7651   -2.2107   -2.1083 C   0  0  0  0  0  0  0  0  0  0  0  0
    4.5184   -3.1845   -1.4531 C   0  0  0  0  0  0  0  0  0  0  0  0
    4.5244   -3.2390   -0.0593 C   0  0  0  0  0  0  0  0  0  0  0  0
    3.7834   -2.3161    0.6852 C   0  0  0  0  0  0  0  0  0  0  0  0
   -3.6907   -0.5293   -2.4826 H   0  0  0  0  0  0  0  0  0  0  0  0
   -4.6886   -2.0034   -2.1844 H   0  0  0  0  0  0  0  0  0  0  0  0
   -5.3808   -0.3666   -1.8611 H   0  0  0  0  0  0  0  0  0  0  0  0
   -3.0349   -1.7132   -0.3880 H   0  0  0  0  0  0  0  0  0  0  0  0
   -4.6958   -1.5535    0.2449 H   0  0  0  0  0  0  0  0  0  0  0  0
   -4.0053    1.6527    1.7089 H   0  0  0  0  0  0  0  0  0  0  0  0
   -4.4701   -0.0553    2.0220 H   0  0  0  0  0  0  0  0  0  0  0  0
   -6.4275    1.4863    1.6712 H   0  0  0  0  0  0  0  0  0  0  0  0
   -5.8304    1.8649    0.0120 H   0  0  0  0  0  0  0  0  0  0  0  0
   -6.3845    0.1935    0.4221 H   0  0  0  0  0  0  0  0  0  0  0  0
   -1.6268    0.2290   -0.6252 H   0  0  0  0  0  0  0  0  0  0  0  0
   -1.9884    1.6402    0.3903 H   0  0  0  0  0  0  0  0  0  0  0  0
   -1.8429   -1.2549    1.5253 H   0  0  0  0  0  0  0  0  0  0  0  0
   -2.0396    0.2708    2.4447 H   0  0  0  0  0  0  0  0  0  0  0  0
    2.1078    0.3695    2.6879 H   0  0  0  0  0  0  0  0  0  0  0  0
    0.6342    1.4053   -0.7904 H   0  0  0  0  0  0  0  0  0  0  0  0
    1.2133    3.6371   -1.6084 H   0  0  0  0  0  0  0  0  0  0  0  0
    3.3963    4.6572   -1.0410 H   0  0  0  0  0  0  0  0  0  0  0  0
    5.0175    3.4147    0.3619 H   0  0  0  0  0  0  0  0  0  0  0  0
    4.4689    1.1697    1.2083 H   0  0  0  0  0  0  0  0  0  0  0  0
    2.4340   -0.5492   -1.9036 H   0  0  0  0  0  0  0  0  0  0  0  0
    3.7536   -2.1752   -3.1895 H   0  0  0  0  0  0  0  0  0  0  0  0
    5.0923   -3.9013   -2.0262 H   0  0  0  0  0  0  0  0  0  0  0  0
    5.1013   -4.0012    0.4474 H   0  0  0  0  0  0  0  0  0  0  0  0
    3.8030   -2.3969    1.7632 H   0  0  0  0  0  0  0  0  0  0  0  0
  1  2  1  0
  2  3  1  0
  3  4  1  0
  4  5  1  0
  3  6  1  0
  6  7  1  0
  7  8  1  0
  8  9  1  0
  9 10  2  0
  9 11  1  0
 11 12  1  0
 11 13  1  0
 13 14  2  0
 14 15  1  0
 15 16  2  0
 16 17  1  0
 17 18  2  0
 18 13  1  0
 11 19  1  0
 19 20  2  0
 20 21  1  0
 21 22  2  0
 22 23  1  0
 23 24  2  0
 24 19  1  0
  1 25  1  0
  1 26  1  0
  1 27  1  0
  2 28  1  0
  2 29  1  0
  4 30  1  0
  4 31  1  0
  5 32  1  0
  5 33  1  0
  5 34  1  0
  6 35  1  0
  6 36  1  0
  7 37  1  0
  7 38  1  0
 12 39  1  0
 14 40  1  0
 15 41  1  0
 16 42  1  0
 17 43  1  0
 18 44  1  0
 20 45  1  0
 21 46  1  0
 22 47  1  0
 23 48  1  0
 24 49  1  0
M  END
> <ID>
HT3496

> <Class>
0.0

> <Clusters>
155

> <Fold>
1

$$$$