
     RDKit          3D

 34 36  0  0  0  0  0  0  0  0999 V2000
    2.9341    1.1251   -0.3286 C   0  0  0  0  0  0  0  0  0  0  0  0
    2.2118   -0.1393    0.1805 C   0  0  0  0  0  0  0  0  0  0  0  0
    2.7161   -1.3245   -0.5239 N   0  0  0  0  0  0  0  0  0  0  0  0
    0.6442   -0.0743    0.1167 C   0  0  0  0  0  0  0  0  0  0  0  0
    0.1114    0.0557   -1.3439 C   0  0  0  0  0  0  0  0  0  0  0  0
   -1.4342    0.0834   -1.3519 C   0  0  0  0  0  0  0  0  0  0  0  0
   -1.9785   -1.2230   -0.7367 C   0  0  0  0  0  0  0  0  0  0  0  0
   -1.4846   -1.3520    0.7196 C   0  0  0  0  0  0  0  0  0  0  0  0
   -1.9835   -0.1489    1.5451 C   0  0  0  0  0  0  0  0  0  0  0  0
   -1.4392    1.1563    0.9303 C   0  0  0  0  0  0  0  0  0  0  0  0
   -1.9347    1.2874   -0.5258 C   0  0  0  0  0  0  0  0  0  0  0  0
    0.1050    1.1326    0.9459 C   0  0  0  0  0  0  0  0  0  0  0  0
    0.0581   -1.3815    0.7370 C   0  0  0  0  0  0  0  0  0  0  0  0
    4.0329    0.9745   -0.2682 H   0  0  0  0  0  0  0  0  0  0  0  0
    2.6957    2.0054    0.3014 H   0  0  0  0  0  0  0  0  0  0  0  0
    2.6803    1.3429   -1.3856 H   0  0  0  0  0  0  0  0  0  0  0  0
    2.4904   -0.2445    1.2542 H   0  0  0  0  0  0  0  0  0  0  0  0
    2.7297   -1.1452   -1.5542 H   0  0  0  0  0  0  0  0  0  0  0  0
    3.7068   -1.4915   -0.2319 H   0  0  0  0  0  0  0  0  0  0  0  0
    0.4576   -0.7973   -1.9664 H   0  0  0  0  0  0  0  0  0  0  0  0
    0.4837    0.9880   -1.8183 H   0  0  0  0  0  0  0  0  0  0  0  0
   -1.7971    0.1774   -2.3986 H   0  0  0  0  0  0  0  0  0  0  0  0
   -1.6359   -2.0965   -1.3339 H   0  0  0  0  0  0  0  0  0  0  0  0
   -3.0905   -1.2202   -0.7616 H   0  0  0  0  0  0  0  0  0  0  0  0
   -1.8786   -2.2928    1.1619 H   0  0  0  0  0  0  0  0  0  0  0  0
   -1.6438   -0.2434    2.5999 H   0  0  0  0  0  0  0  0  0  0  0  0
   -3.0956   -0.1297    1.5550 H   0  0  0  0  0  0  0  0  0  0  0  0
   -1.8024    2.0234    1.5238 H   0  0  0  0  0  0  0  0  0  0  0  0
   -3.0461    1.3268   -0.5467 H   0  0  0  0  0  0  0  0  0  0  0  0
   -1.5618    2.2359   -0.9713 H   0  0  0  0  0  0  0  0  0  0  0  0
    0.4661    2.0944    0.5243 H   0  0  0  0  0  0  0  0  0  0  0  0
    0.4664    1.0716    1.9964 H   0  0  0  0  0  0  0  0  0  0  0  0
    0.4119   -1.5025    1.7852 H   0  0  0  0  0  0  0  0  0  0  0  0
    0.4043   -2.2737    0.1701 H   0  0  0  0  0  0  0  0  0  0  0  0
  1  2  1  0
  2  3  1  0
  2  4  1  0
  4  5  1  0
  5  6  1  0
  6  7  1  0
  7  8  1  0
  8  9  1  0
  9 10  1  0
 10 11  1  0
 11  6  1  0
 10 12  1  0
 12  4  1  0
  8 13  1  0
 13  4  1  0
  1 14  1  0
  1 15  1  0
  1 16  1  0
  2 17  1  0
  3 18  1  0
  3 19  1  0
  5 20  1  0
  5 21  1  0
  6 22  1  0
  7 23  1  0
  7 24  1  0
  8 25  1  0
  9 26  1  0
  9 27  1  0
 10 28  1  0
 11 29  1  0
 11 30  1  0
 12 31  1  0
 12 32  1  0
 13 33  1  0
 13 34  1  0
M  END
> <ID>
HT1826

> <Class>
0.0

> <Clusters>
13

> <Fold>
1

$$$$