
     RDKit          3D

 22 22  0  0  0  0  0  0  0  0999 V2000
    3.6390    0.4104   -0.3614 N   0  0  0  0  0  0  0  0  0  0  0  0
    2.8393   -0.7462   -0.0828 C   0  0  0  0  0  0  0  0  0  0  0  0
    3.4111   -1.8935    0.1020 N   0  0  0  0  0  0  0  0  0  0  0  0
    1.4084   -0.6594   -0.0044 N   0  0  0  0  0  0  0  0  0  0  0  0
    0.6802    0.5956   -0.1940 C   0  0  0  0  0  0  0  0  0  0  0  0
   -0.8012    0.3879   -0.0148 C   0  0  0  0  0  0  0  0  0  0  0  0
   -1.3183    0.0826    1.2550 C   0  0  0  0  0  0  0  0  0  0  0  0
   -2.6917   -0.1133    1.4281 C   0  0  0  0  0  0  0  0  0  0  0  0
   -3.5579   -0.0057    0.3369 C   0  0  0  0  0  0  0  0  0  0  0  0
   -3.0521    0.2981   -0.9310 C   0  0  0  0  0  0  0  0  0  0  0  0
   -4.3609    0.4584   -2.5771 I   0  0  0  0  0  0  0  0  0  0  0  0
   -1.6778    0.4948   -1.1079 C   0  0  0  0  0  0  0  0  0  0  0  0
    3.2123    1.3487   -0.5199 H   0  0  0  0  0  0  0  0  0  0  0  0
    4.6793    0.3347   -0.4142 H   0  0  0  0  0  0  0  0  0  0  0  0
    4.4485   -2.0058    0.0545 H   0  0  0  0  0  0  0  0  0  0  0  0
    0.8757   -1.5383    0.1922 H   0  0  0  0  0  0  0  0  0  0  0  0
    0.8958    0.9880   -1.2116 H   0  0  0  0  0  0  0  0  0  0  0  0
    1.0291    1.3470    0.5470 H   0  0  0  0  0  0  0  0  0  0  0  0
   -0.6569   -0.0038    2.1084 H   0  0  0  0  0  0  0  0  0  0  0  0
   -3.0847   -0.3487    2.4088 H   0  0  0  0  0  0  0  0  0  0  0  0
   -4.6202   -0.1585    0.4767 H   0  0  0  0  0  0  0  0  0  0  0  0
   -1.2970    0.7271   -2.0945 H   0  0  0  0  0  0  0  0  0  0  0  0
  1  2  1  0
  2  3  2  3
  2  4  1  0
  4  5  1  0
  5  6  1  0
  6  7  2  0
  7  8  1  0
  8  9  2  0
  9 10  1  0
 10 11  1  0
 10 12  2  0
 12  6  1  0
  1 13  1  0
  1 14  1  0
  3 15  1  0
  4 16  1  0
  5 17  1  0
  5 18  1  0
  7 19  1  0
  8 20  1  0
  9 21  1  0
 12 22  1  0
M  END
> <ID>
HT3224

> <Class>
0.0

> <Clusters>
196

> <Fold>
1

$$$$