
     RDKit          3D

 42 43  0  0  0  0  0  0  0  0999 V2000
   -1.7013   -2.2176   -0.4938 C   0  0  0  0  0  0  0  0  0  0  0  0
   -2.1579   -1.2225    0.5931 C   0  0  0  0  0  0  0  0  0  0  0  0
   -3.6650   -1.3475    0.8855 C   0  0  0  0  0  0  0  0  0  0  0  0
   -4.5159   -0.6371   -0.1704 C   0  0  0  0  0  0  0  0  0  0  0  0
   -4.1030    0.8313   -0.3008 C   0  0  0  0  0  0  0  0  0  0  0  0
   -2.6022    0.9835   -0.6115 C   0  0  0  0  0  0  0  0  0  0  0  0
   -2.2980    0.7231   -2.1013 C   0  0  0  0  0  0  0  0  0  0  0  0
   -1.7905    0.1939    0.3475 N   0  0  0  0  0  0  0  0  0  0  0  0
   -0.4050    0.3618    0.1495 N   0  0  0  0  0  0  0  0  0  0  0  0
    0.3742    1.0688    1.1220 C   0  0  0  0  0  0  0  0  0  0  0  0
   -0.2136    1.6898    2.0493 O   0  0  0  0  0  0  0  0  0  0  0  0
    1.8544    1.0960    1.0484 C   0  0  0  0  0  0  0  0  0  0  0  0
    2.5654    2.1584    1.6278 C   0  0  0  0  0  0  0  0  0  0  0  0
    3.9588    2.1964    1.5627 C   0  0  0  0  0  0  0  0  0  0  0  0
    4.6684    1.1713    0.9299 C   0  0  0  0  0  0  0  0  0  0  0  0
    6.4235    1.2957    0.8725 Cl  0  0  0  0  0  0  0  0  0  0  0  0
    3.9722    0.0838    0.3623 C   0  0  0  0  0  0  0  0  0  0  0  0
    2.5692    0.0577    0.4248 C   0  0  0  0  0  0  0  0  0  0  0  0
    4.8248   -1.2423   -0.4432 S   0  0  0  0  0  0  0  0  0  0  0  0
    3.8914   -2.4010   -0.6578 O   0  0  0  0  0  0  0  0  0  0  0  0
    5.9701   -1.7094    0.4105 O   0  0  0  0  0  0  0  0  0  0  0  0
    5.4182   -0.7118   -1.9784 N   0  0  0  0  0  0  0  0  0  0  0  0
   -2.2814   -2.1262   -1.4274 H   0  0  0  0  0  0  0  0  0  0  0  0
   -0.6201   -2.1199   -0.7136 H   0  0  0  0  0  0  0  0  0  0  0  0
   -1.8566   -3.2532   -0.1231 H   0  0  0  0  0  0  0  0  0  0  0  0
   -1.6358   -1.5357    1.5249 H   0  0  0  0  0  0  0  0  0  0  0  0
   -3.8771   -0.8933    1.8788 H   0  0  0  0  0  0  0  0  0  0  0  0
   -3.9615   -2.4175    0.9438 H   0  0  0  0  0  0  0  0  0  0  0  0
   -5.5838   -0.6863    0.1336 H   0  0  0  0  0  0  0  0  0  0  0  0
   -4.4283   -1.1524   -1.1496 H   0  0  0  0  0  0  0  0  0  0  0  0
   -4.3262    1.3509    0.6574 H   0  0  0  0  0  0  0  0  0  0  0  0
   -4.7147    1.3209   -1.0897 H   0  0  0  0  0  0  0  0  0  0  0  0
   -2.3583    2.0555   -0.4380 H   0  0  0  0  0  0  0  0  0  0  0  0
   -2.6377   -0.2698   -2.4399 H   0  0  0  0  0  0  0  0  0  0  0  0
   -2.8391    1.4728   -2.7172 H   0  0  0  0  0  0  0  0  0  0  0  0
   -1.2213    0.8477   -2.3289 H   0  0  0  0  0  0  0  0  0  0  0  0
    0.0541    0.0071   -0.7172 H   0  0  0  0  0  0  0  0  0  0  0  0
    2.0424    2.9696    2.1192 H   0  0  0  0  0  0  0  0  0  0  0  0
    4.4888    3.0307    2.0046 H   0  0  0  0  0  0  0  0  0  0  0  0
    2.0388   -0.7861    0.0057 H   0  0  0  0  0  0  0  0  0  0  0  0
    6.0759    0.0796   -1.8017 H   0  0  0  0  0  0  0  0  0  0  0  0
    4.6039   -0.3162   -2.4997 H   0  0  0  0  0  0  0  0  0  0  0  0
  1  2  1  0
  2  3  1  0
  3  4  1  0
  4  5  1  0
  5  6  1  0
  6  7  1  0
  6  8  1  0
  8  2  1  0
  8  9  1  0
  9 10  1  0
 10 11  2  0
 10 12  1  0
 12 13  2  0
 13 14  1  0
 14 15  2  0
 15 16  1  0
 15 17  1  0
 17 18  2  0
 18 12  1  0
 17 19  1  0
 19 20  2  0
 19 21  2  0
 19 22  1  0
  1 23  1  0
  1 24  1  0
  1 25  1  0
  2 26  1  0
  3 27  1  0
  3 28  1  0
  4 29  1  0
  4 30  1  0
  5 31  1  0
  5 32  1  0
  6 33  1  0
  7 34  1  0
  7 35  1  0
  7 36  1  0
  9 37  1  0
 13 38  1  0
 14 39  1  0
 18 40  1  0
 22 41  1  0
 22 42  1  0
M  END
> <ID>
HT3584

> <Class>
0.0

> <Clusters>
132

> <Fold>
1

$$$$