
     RDKit          3D

 52 54  0  0  0  0  0  0  0  0999 V2000
    2.0622    1.7665    0.8023 C   0  0  0  0  0  0  0  0  0  0  0  0
    2.1078    0.3309    1.3496 C   0  0  0  0  0  0  0  0  0  0  0  0
    2.5441   -0.6924    0.2715 C   0  0  0  0  0  0  0  0  0  0  0  0
    3.9757   -0.4840   -0.1581 C   0  0  0  0  0  0  0  0  0  0  0  0
    4.2704    0.0184   -1.4375 C   0  0  0  0  0  0  0  0  0  0  0  0
    5.5986    0.2096   -1.8307 C   0  0  0  0  0  0  0  0  0  0  0  0
    6.6410   -0.1027   -0.9539 C   0  0  0  0  0  0  0  0  0  0  0  0
    6.3572   -0.6081    0.3175 C   0  0  0  0  0  0  0  0  0  0  0  0
    5.0305   -0.8004    0.7153 C   0  0  0  0  0  0  0  0  0  0  0  0
    0.8272   -0.0296    1.9937 N   0  0  0  0  0  0  0  0  0  0  0  0
   -0.2770   -0.2835    1.0556 C   0  0  0  0  0  0  0  0  0  0  0  0
   -1.6145   -0.2538    1.8138 C   0  0  0  0  0  0  0  0  0  0  0  0
   -2.8687   -0.1903    0.9033 C   0  0  0  0  0  0  0  0  0  0  0  0
   -3.1726    1.1657    0.2610 C   0  0  0  0  0  0  0  0  0  0  0  0
   -2.3591    2.3093    0.4306 C   0  0  0  0  0  0  0  0  0  0  0  0
   -2.7017    3.5218   -0.1758 C   0  0  0  0  0  0  0  0  0  0  0  0
   -3.8617    3.6206   -0.9447 C   0  0  0  0  0  0  0  0  0  0  0  0
   -4.6882    2.5084   -1.1037 C   0  0  0  0  0  0  0  0  0  0  0  0
   -4.3519    1.2935   -0.5011 C   0  0  0  0  0  0  0  0  0  0  0  0
   -2.8565   -1.3193   -0.1182 C   0  0  0  0  0  0  0  0  0  0  0  0
   -3.4444   -2.5567    0.2013 C   0  0  0  0  0  0  0  0  0  0  0  0
   -3.4232   -3.6098   -0.7179 C   0  0  0  0  0  0  0  0  0  0  0  0
   -2.8113   -3.4422   -1.9622 C   0  0  0  0  0  0  0  0  0  0  0  0
   -2.2173   -2.2214   -2.2895 C   0  0  0  0  0  0  0  0  0  0  0  0
   -2.2360   -1.1649   -1.3747 C   0  0  0  0  0  0  0  0  0  0  0  0
    3.0917    2.1231    0.5861 H   0  0  0  0  0  0  0  0  0  0  0  0
    1.6126    2.4470    1.5562 H   0  0  0  0  0  0  0  0  0  0  0  0
    1.4736    1.8278   -0.1363 H   0  0  0  0  0  0  0  0  0  0  0  0
    2.8788    0.3299    2.1527 H   0  0  0  0  0  0  0  0  0  0  0  0
    1.8701   -0.6193   -0.6100 H   0  0  0  0  0  0  0  0  0  0  0  0
    2.4428   -1.7241    0.6730 H   0  0  0  0  0  0  0  0  0  0  0  0
    3.4740    0.2691   -2.1271 H   0  0  0  0  0  0  0  0  0  0  0  0
    5.8198    0.6004   -2.8155 H   0  0  0  0  0  0  0  0  0  0  0  0
    7.6684    0.0458   -1.2602 H   0  0  0  0  0  0  0  0  0  0  0  0
    7.1654   -0.8522    0.9948 H   0  0  0  0  0  0  0  0  0  0  0  0
    4.8249   -1.1979    1.7014 H   0  0  0  0  0  0  0  0  0  0  0  0
    0.9764   -0.8957    2.5640 H   0  0  0  0  0  0  0  0  0  0  0  0
   -0.1502   -1.2846    0.5869 H   0  0  0  0  0  0  0  0  0  0  0  0
   -0.2900    0.4726    0.2475 H   0  0  0  0  0  0  0  0  0  0  0  0
   -1.6326    0.5942    2.5321 H   0  0  0  0  0  0  0  0  0  0  0  0
   -1.6753   -1.1766    2.4325 H   0  0  0  0  0  0  0  0  0  0  0  0
   -3.7279   -0.3700    1.5886 H   0  0  0  0  0  0  0  0  0  0  0  0
   -1.4621    2.2896    1.0304 H   0  0  0  0  0  0  0  0  0  0  0  0
   -2.0675    4.3891   -0.0442 H   0  0  0  0  0  0  0  0  0  0  0  0
   -4.1238    4.5615   -1.4112 H   0  0  0  0  0  0  0  0  0  0  0  0
   -5.5929    2.5875   -1.6926 H   0  0  0  0  0  0  0  0  0  0  0  0
   -5.0123    0.4450   -0.6321 H   0  0  0  0  0  0  0  0  0  0  0  0
   -3.9160   -2.7080    1.1643 H   0  0  0  0  0  0  0  0  0  0  0  0
   -3.8793   -4.5580   -0.4639 H   0  0  0  0  0  0  0  0  0  0  0  0
   -2.7949   -4.2593   -2.6717 H   0  0  0  0  0  0  0  0  0  0  0  0
   -1.7397   -2.0939   -3.2523 H   0  0  0  0  0  0  0  0  0  0  0  0
   -1.7648   -0.2289   -1.6460 H   0  0  0  0  0  0  0  0  0  0  0  0
  1  2  1  0
  2  3  1  0
  3  4  1  0
  4  5  2  0
  5  6  1  0
  6  7  2  0
  7  8  1  0
  8  9  2  0
  9  4  1  0
  2 10  1  0
 10 11  1  0
 11 12  1  0
 12 13  1  0
 13 14  1  0
 14 15  2  0
 15 16  1  0
 16 17  2  0
 17 18  1  0
 18 19  2  0
 19 14  1  0
 13 20  1  0
 20 21  2  0
 21 22  1  0
 22 23  2  0
 23 24  1  0
 24 25  2  0
 25 20  1  0
  1 26  1  0
  1 27  1  0
  1 28  1  0
  2 29  1  0
  3 30  1  0
  3 31  1  0
  5 32  1  0
  6 33  1  0
  7 34  1  0
  8 35  1  0
  9 36  1  0
 10 37  1  0
 11 38  1  0
 11 39  1  0
 12 40  1  0
 12 41  1  0
 13 42  1  0
 15 43  1  0
 16 44  1  0
 17 45  1  0
 18 46  1  0
 19 47  1  0
 21 48  1  0
 22 49  1  0
 23 50  1  0
 24 51  1  0
 25 52  1  0
M  END
> <ID>
HT1737

> <Class>
0.0

> <Clusters>
57

> <Fold>
1

$$$$