
     RDKit          3D

 16 15  0  0  0  0  0  0  0  0999 V2000
   -2.4784    0.4249    0.3340 C   0  0  0  0  0  0  0  0  0  0  0  0
   -1.2540   -0.4468    0.0712 C   0  0  0  0  0  0  0  0  0  0  0  0
    0.0303    0.3899    0.0669 C   0  0  0  0  0  0  0  0  0  0  0  0
    1.2555   -0.4834   -0.1962 C   0  0  0  0  0  0  0  0  0  0  0  0
    2.4231    0.3233   -0.1930 O   0  0  0  0  0  0  0  0  0  0  0  0
    3.6587   -0.2406   -0.4093 N   0  0  0  0  0  0  0  0  0  0  0  0
    4.6798    0.4749   -0.4049 O   0  0  0  0  0  0  0  0  0  0  0  0
   -2.5789    1.1980   -0.4575 H   0  0  0  0  0  0  0  0  0  0  0  0
   -3.3918   -0.2065    0.3314 H   0  0  0  0  0  0  0  0  0  0  0  0
   -2.3931    0.9219    1.3239 H   0  0  0  0  0  0  0  0  0  0  0  0
   -1.3763   -0.9514   -0.9121 H   0  0  0  0  0  0  0  0  0  0  0  0
   -1.1912   -1.2262    0.8617 H   0  0  0  0  0  0  0  0  0  0  0  0
   -0.0355    1.1694   -0.7237 H   0  0  0  0  0  0  0  0  0  0  0  0
    0.1496    0.8944    1.0509 H   0  0  0  0  0  0  0  0  0  0  0  0
    1.1582   -0.9830   -1.1847 H   0  0  0  0  0  0  0  0  0  0  0  0
    1.3439   -1.2588    0.5956 H   0  0  0  0  0  0  0  0  0  0  0  0
  1  2  1  0
  2  3  1  0
  3  4  1  0
  4  5  1  0
  5  6  1  0
  6  7  2  0
  1  8  1  0
  1  9  1  0
  1 10  1  0
  2 11  1  0
  2 12  1  0
  3 13  1  0
  3 14  1  0
  4 15  1  0
  4 16  1  0
M  END
> <ID>
HT2423

> <Class>
0.0

> <Clusters>
20

> <Fold>
1

$$$$