
     RDKit          3D

 53 56  0  0  0  0  0  0  0  0999 V2000
   -2.5955    1.6887   -1.7212 C   0  0  0  0  0  0  0  0  0  0  0  0
   -2.2489    1.4267   -0.2480 C   0  0  0  0  0  0  0  0  0  0  0  0
   -2.2054   -0.0954    0.1953 C   0  0  0  0  0  0  0  0  0  0  0  0
   -1.5953   -1.0104   -0.9076 C   0  0  0  0  0  0  0  0  0  0  0  0
   -0.0752   -0.7619   -1.0829 C   0  0  0  0  0  0  0  0  0  0  0  0
    0.7094   -1.0740    0.2266 C   0  0  0  0  0  0  0  0  0  0  0  0
    0.1766   -0.2149    1.4105 C   0  0  0  0  0  0  0  0  0  0  0  0
    0.7731    1.2092    1.3930 C   0  0  0  0  0  0  0  0  0  0  0  0
    2.2833    1.1393    1.5693 C   0  0  0  0  0  0  0  0  0  0  0  0
    2.8877    0.3258    0.4527 C   0  0  0  0  0  0  0  0  0  0  0  0
    4.0764    0.6983   -0.0578 C   0  0  0  0  0  0  0  0  0  0  0  0
    4.8309   -0.1745   -0.9873 C   0  0  0  0  0  0  0  0  0  0  0  0
    5.9587    0.2042   -1.5075 N   0  0  0  0  0  0  0  0  0  0  0  0
    6.4969    1.4492   -1.2723 O   0  0  0  0  0  0  0  0  0  0  0  0
    4.3339   -1.5639   -1.2583 C   0  0  0  0  0  0  0  0  0  0  0  0
    2.8069   -1.5850   -1.2216 C   0  0  0  0  0  0  0  0  0  0  0  0
    2.2774   -1.0341    0.1237 C   0  0  0  0  0  0  0  0  0  0  0  0
   -1.3730   -0.3426    1.4783 C   0  0  0  0  0  0  0  0  0  0  0  0
   -2.1557    0.3116    2.5988 C   0  0  0  0  0  0  0  0  0  0  0  0
   -3.6241    0.0566    2.2011 C   0  0  0  0  0  0  0  0  0  0  0  0
   -3.6217   -0.5126    0.7488 C   0  0  0  0  0  0  0  0  0  0  0  0
   -3.7471   -1.9168    0.8316 O   0  0  0  0  0  0  0  0  0  0  0  0
   -4.7831    0.0266   -0.0020 C   0  0  0  0  0  0  0  0  0  0  0  0
   -5.7392    0.4561   -0.5986 C   0  0  0  0  0  0  0  0  0  0  0  0
   -1.7358    1.4376   -2.3759 H   0  0  0  0  0  0  0  0  0  0  0  0
   -2.8190    2.7676   -1.8612 H   0  0  0  0  0  0  0  0  0  0  0  0
   -3.4774    1.1073   -2.0511 H   0  0  0  0  0  0  0  0  0  0  0  0
   -1.3138    1.9483   -0.0610 H   0  0  0  0  0  0  0  0  0  0  0  0
   -2.9803    1.9895    0.3703 H   0  0  0  0  0  0  0  0  0  0  0  0
   -1.7200   -2.0811   -0.6392 H   0  0  0  0  0  0  0  0  0  0  0  0
   -2.1194   -0.8831   -1.8765 H   0  0  0  0  0  0  0  0  0  0  0  0
    0.2539   -1.4414   -1.8957 H   0  0  0  0  0  0  0  0  0  0  0  0
    0.1225    0.2787   -1.4119 H   0  0  0  0  0  0  0  0  0  0  0  0
    0.4666   -2.1354    0.4663 H   0  0  0  0  0  0  0  0  0  0  0  0
    0.5511   -0.6901    2.3477 H   0  0  0  0  0  0  0  0  0  0  0  0
    0.3378    1.8259    2.2069 H   0  0  0  0  0  0  0  0  0  0  0  0
    0.6298    1.7161    0.4250 H   0  0  0  0  0  0  0  0  0  0  0  0
    2.5302    0.6638    2.5433 H   0  0  0  0  0  0  0  0  0  0  0  0
    2.6906    2.1747    1.5853 H   0  0  0  0  0  0  0  0  0  0  0  0
    4.5142    1.6422    0.2442 H   0  0  0  0  0  0  0  0  0  0  0  0
    7.3787    1.7076   -1.6963 H   0  0  0  0  0  0  0  0  0  0  0  0
    4.6795   -1.9072   -2.2580 H   0  0  0  0  0  0  0  0  0  0  0  0
    4.7412   -2.2550   -0.4891 H   0  0  0  0  0  0  0  0  0  0  0  0
    2.4437   -0.9587   -2.0654 H   0  0  0  0  0  0  0  0  0  0  0  0
    2.4508   -2.6276   -1.3702 H   0  0  0  0  0  0  0  0  0  0  0  0
    2.6549   -1.7199    0.9162 H   0  0  0  0  0  0  0  0  0  0  0  0
   -1.4778   -1.4340    1.7091 H   0  0  0  0  0  0  0  0  0  0  0  0
   -1.9148   -0.1463    3.5831 H   0  0  0  0  0  0  0  0  0  0  0  0
   -1.9504    1.4028    2.6373 H   0  0  0  0  0  0  0  0  0  0  0  0
   -4.0938   -0.6640    2.9066 H   0  0  0  0  0  0  0  0  0  0  0  0
   -4.1889    1.0135    2.2730 H   0  0  0  0  0  0  0  0  0  0  0  0
   -3.9239   -2.2720   -0.0795 H   0  0  0  0  0  0  0  0  0  0  0  0
   -6.5772    0.8339   -1.1227 H   0  0  0  0  0  0  0  0  0  0  0  0
  1  2  1  0
  2  3  1  0
  3  4  1  0
  4  5  1  0
  5  6  1  0
  6  7  1  0
  7  8  1  0
  8  9  1  0
  9 10  1  0
 10 11  2  0
 11 12  1  0
 12 13  2  3
 13 14  1  0
 12 15  1  0
 15 16  1  0
 16 17  1  0
 17  6  1  0
 17 10  1  0
  7 18  1  0
 18  3  1  0
 18 19  1  0
 19 20  1  0
 20 21  1  0
 21  3  1  0
 21 22  1  0
 21 23  1  0
 23 24  3  0
  1 25  1  0
  1 26  1  0
  1 27  1  0
  2 28  1  0
  2 29  1  0
  4 30  1  0
  4 31  1  0
  5 32  1  0
  5 33  1  0
  6 34  1  0
  7 35  1  0
  8 36  1  0
  8 37  1  0
  9 38  1  0
  9 39  1  0
 11 40  1  0
 14 41  1  0
 15 42  1  0
 15 43  1  0
 16 44  1  0
 16 45  1  0
 17 46  1  0
 18 47  1  0
 19 48  1  0
 19 49  1  0
 20 50  1  0
 20 51  1  0
 22 52  1  0
 24 53  1  0
M  END
> <ID>
HT1519

> <Class>
0.0

> <Clusters>
183

> <Fold>
1

$$$$