
     RDKit          3D

 50 53  0  0  0  0  0  0  0  0999 V2000
    3.2417   -1.5403    0.2594 C   0  0  0  0  0  0  0  0  0  0  0  0
    2.1783   -0.6282   -0.4139 C   0  0  0  0  0  0  0  0  0  0  0  0
    1.0588   -1.5181   -1.0439 C   0  0  0  0  0  0  0  0  0  0  0  0
    0.1300   -2.1576   -0.0113 C   0  0  0  0  0  0  0  0  0  0  0  0
   -0.5607   -1.1129    0.8829 C   0  0  0  0  0  0  0  0  0  0  0  0
    0.4926   -0.1853    1.5626 C   0  0  0  0  0  0  0  0  0  0  0  0
   -0.1412    0.9245    2.4624 C   0  0  0  0  0  0  0  0  0  0  0  0
   -1.6738    0.9051    2.5001 C   0  0  0  0  0  0  0  0  0  0  0  0
   -2.2452    0.7489    1.1121 C   0  0  0  0  0  0  0  0  0  0  0  0
   -3.3268    1.4493    0.7286 C   0  0  0  0  0  0  0  0  0  0  0  0
   -4.0029    1.1175   -0.5736 C   0  0  0  0  0  0  0  0  0  0  0  0
   -3.2473    1.6403   -1.6350 O   0  0  0  0  0  0  0  0  0  0  0  0
   -4.1387   -0.4162   -0.7076 C   0  0  0  0  0  0  0  0  0  0  0  0
   -2.8510   -1.2053   -0.3349 C   0  0  0  0  0  0  0  0  0  0  0  0
   -1.6907   -0.3112    0.1765 C   0  0  0  0  0  0  0  0  0  0  0  0
    1.5883    0.3865    0.6011 C   0  0  0  0  0  0  0  0  0  0  0  0
    1.2075    1.6408   -0.2149 C   0  0  0  0  0  0  0  0  0  0  0  0
    1.8123    1.4736   -1.6076 C   0  0  0  0  0  0  0  0  0  0  0  0
    2.7951    0.3002   -1.5157 C   0  0  0  0  0  0  0  0  0  0  0  0
    2.8880   -0.3361   -2.7684 O   0  0  0  0  0  0  0  0  0  0  0  0
    4.1286    0.8407   -1.1459 C   0  0  0  0  0  0  0  0  0  0  0  0
    5.2103    1.2824   -0.8479 C   0  0  0  0  0  0  0  0  0  0  0  0
    4.0441   -0.9479    0.7461 H   0  0  0  0  0  0  0  0  0  0  0  0
    2.7922   -2.1660    1.0556 H   0  0  0  0  0  0  0  0  0  0  0  0
    3.7105   -2.2119   -0.4902 H   0  0  0  0  0  0  0  0  0  0  0  0
    0.4366   -0.9359   -1.7539 H   0  0  0  0  0  0  0  0  0  0  0  0
    1.5217   -2.3329   -1.6429 H   0  0  0  0  0  0  0  0  0  0  0  0
    0.7052   -2.8601    0.6270 H   0  0  0  0  0  0  0  0  0  0  0  0
   -0.6192   -2.7863   -0.5337 H   0  0  0  0  0  0  0  0  0  0  0  0
   -1.0474   -1.6952    1.6989 H   0  0  0  0  0  0  0  0  0  0  0  0
    1.0458   -0.8548    2.2610 H   0  0  0  0  0  0  0  0  0  0  0  0
    0.2303    0.8068    3.5041 H   0  0  0  0  0  0  0  0  0  0  0  0
    0.1789    1.9400    2.1513 H   0  0  0  0  0  0  0  0  0  0  0  0
   -2.0116    0.0464    3.1195 H   0  0  0  0  0  0  0  0  0  0  0  0
   -2.0415    1.8343    2.9885 H   0  0  0  0  0  0  0  0  0  0  0  0
   -3.7859    2.1723    1.3971 H   0  0  0  0  0  0  0  0  0  0  0  0
   -5.0168    1.5804   -0.5740 H   0  0  0  0  0  0  0  0  0  0  0  0
   -3.8339    1.6300   -2.4359 H   0  0  0  0  0  0  0  0  0  0  0  0
   -4.9628   -0.7493   -0.0386 H   0  0  0  0  0  0  0  0  0  0  0  0
   -4.4505   -0.6712   -1.7441 H   0  0  0  0  0  0  0  0  0  0  0  0
   -2.5133   -1.7599   -1.2363 H   0  0  0  0  0  0  0  0  0  0  0  0
   -3.1080   -1.9596    0.4413 H   0  0  0  0  0  0  0  0  0  0  0  0
   -1.2703    0.1965   -0.7124 H   0  0  0  0  0  0  0  0  0  0  0  0
    2.4232    0.7146    1.2644 H   0  0  0  0  0  0  0  0  0  0  0  0
    0.1170    1.8071   -0.2864 H   0  0  0  0  0  0  0  0  0  0  0  0
    1.6416    2.5461    0.2651 H   0  0  0  0  0  0  0  0  0  0  0  0
    1.0001    1.2390   -2.3305 H   0  0  0  0  0  0  0  0  0  0  0  0
    2.2959    2.4155   -1.9529 H   0  0  0  0  0  0  0  0  0  0  0  0
    3.5055   -1.1073   -2.6676 H   0  0  0  0  0  0  0  0  0  0  0  0
    6.1595    1.6698   -0.5857 H   0  0  0  0  0  0  0  0  0  0  0  0
  1  2  1  0
  2  3  1  0
  3  4  1  0
  4  5  1  0
  5  6  1  0
  6  7  1  0
  7  8  1  0
  8  9  1  0
  9 10  2  0
 10 11  1  0
 11 12  1  0
 11 13  1  0
 13 14  1  0
 14 15  1  0
 15  5  1  0
 15  9  1  0
  6 16  1  0
 16  2  1  0
 16 17  1  0
 17 18  1  0
 18 19  1  0
 19  2  1  0
 19 20  1  0
 19 21  1  0
 21 22  3  0
  1 23  1  0
  1 24  1  0
  1 25  1  0
  3 26  1  0
  3 27  1  0
  4 28  1  0
  4 29  1  0
  5 30  1  0
  6 31  1  0
  7 32  1  0
  7 33  1  0
  8 34  1  0
  8 35  1  0
 10 36  1  0
 11 37  1  0
 12 38  1  0
 13 39  1  0
 13 40  1  0
 14 41  1  0
 14 42  1  0
 15 43  1  0
 16 44  1  0
 17 45  1  0
 17 46  1  0
 18 47  1  0
 18 48  1  0
 20 49  1  0
 22 50  1  0
M  END
> <ID>
HT3358

> <Class>
0.0

> <Clusters>
183

> <Fold>
1

$$$$