
     RDKit          3D

 36 36  0  0  0  0  0  0  0  0999 V2000
   -4.1205    0.2155    1.6673 C   0  0  0  0  0  0  0  0  0  0  0  0
   -4.2432    0.9097    0.3095 C   0  0  0  0  0  0  0  0  0  0  0  0
   -3.4178    0.2033   -0.7753 C   0  0  0  0  0  0  0  0  0  0  0  0
   -1.9766    0.3114   -0.4925 N   0  0  0  0  0  0  0  0  0  0  0  0
   -1.1572   -0.2254   -1.5975 C   0  0  0  0  0  0  0  0  0  0  0  0
   -1.2420   -1.7599   -1.6687 C   0  0  0  0  0  0  0  0  0  0  0  0
    0.2823    0.1873   -1.4009 C   0  0  0  0  0  0  0  0  0  0  0  0
    0.8272    0.9458   -2.2495 O   0  0  0  0  0  0  0  0  0  0  0  0
    1.0135   -0.2628   -0.2454 N   0  0  0  0  0  0  0  0  0  0  0  0
    2.4203   -0.0282   -0.0358 C   0  0  0  0  0  0  0  0  0  0  0  0
    3.3199   -0.0777   -1.1193 C   0  0  0  0  0  0  0  0  0  0  0  0
    4.6888    0.1101   -0.9151 C   0  0  0  0  0  0  0  0  0  0  0  0
    5.1846    0.3082    0.3735 C   0  0  0  0  0  0  0  0  0  0  0  0
    4.3119    0.3278    1.4632 C   0  0  0  0  0  0  0  0  0  0  0  0
    2.9275    0.1756    1.2721 C   0  0  0  0  0  0  0  0  0  0  0  0
    2.0147    0.2082    2.4682 C   0  0  0  0  0  0  0  0  0  0  0  0
   -4.5442   -0.8077    1.6134 H   0  0  0  0  0  0  0  0  0  0  0  0
   -4.6817    0.7922    2.4323 H   0  0  0  0  0  0  0  0  0  0  0  0
   -3.0590    0.1484    1.9804 H   0  0  0  0  0  0  0  0  0  0  0  0
   -5.3152    0.9114    0.0060 H   0  0  0  0  0  0  0  0  0  0  0  0
   -3.9202    1.9671    0.4040 H   0  0  0  0  0  0  0  0  0  0  0  0
   -3.7244   -0.8648   -0.8099 H   0  0  0  0  0  0  0  0  0  0  0  0
   -3.6573    0.6711   -1.7581 H   0  0  0  0  0  0  0  0  0  0  0  0
   -1.7595    1.3352   -0.4094 H   0  0  0  0  0  0  0  0  0  0  0  0
   -1.5086    0.1902   -2.5719 H   0  0  0  0  0  0  0  0  0  0  0  0
   -1.1090   -2.2093   -0.6592 H   0  0  0  0  0  0  0  0  0  0  0  0
   -2.2255   -2.0759   -2.0775 H   0  0  0  0  0  0  0  0  0  0  0  0
   -0.4586   -2.1633   -2.3507 H   0  0  0  0  0  0  0  0  0  0  0  0
    0.4805   -0.7748    0.4928 H   0  0  0  0  0  0  0  0  0  0  0  0
    2.9724   -0.2907   -2.1219 H   0  0  0  0  0  0  0  0  0  0  0  0
    5.3701    0.0735   -1.7556 H   0  0  0  0  0  0  0  0  0  0  0  0
    6.2486    0.4317    0.5302 H   0  0  0  0  0  0  0  0  0  0  0  0
    4.7204    0.4621    2.4598 H   0  0  0  0  0  0  0  0  0  0  0  0
    1.1163    0.8229    2.2494 H   0  0  0  0  0  0  0  0  0  0  0  0
    2.5172    0.6572    3.3502 H   0  0  0  0  0  0  0  0  0  0  0  0
    1.7044   -0.8255    2.7286 H   0  0  0  0  0  0  0  0  0  0  0  0
  1  2  1  0
  2  3  1  0
  3  4  1  0
  4  5  1  0
  5  6  1  0
  5  7  1  0
  7  8  2  0
  7  9  1  0
  9 10  1  0
 10 11  2  0
 11 12  1  0
 12 13  2  0
 13 14  1  0
 14 15  2  0
 15 10  1  0
 15 16  1  0
  1 17  1  0
  1 18  1  0
  1 19  1  0
  2 20  1  0
  2 21  1  0
  3 22  1  0
  3 23  1  0
  4 24  1  0
  5 25  1  0
  6 26  1  0
  6 27  1  0
  6 28  1  0
  9 29  1  0
 11 30  1  0
 12 31  1  0
 13 32  1  0
 14 33  1  0
 16 34  1  0
 16 35  1  0
 16 36  1  0
M  END
> <ID>
HT1738

> <Class>
0.0

> <Clusters>
228

> <Fold>
1

$$$$