
     RDKit          3D

 82 84  0  0  0  0  0  0  0  0999 V2000
   -3.7757    2.3927   -3.1918 N   0  0  0  0  0  0  0  0  0  0  0  0
   -2.6199    1.9263   -3.9516 C   0  0  0  0  0  0  0  0  0  0  0  0
   -1.6163    3.0619   -4.2039 C   0  0  0  0  0  0  0  0  0  0  0  0
   -1.0319    3.6934   -2.9217 C   0  0  0  0  0  0  0  0  0  0  0  0
   -2.0293    4.3823   -2.2110 O   0  0  0  0  0  0  0  0  0  0  0  0
   -0.3522    2.6686   -2.0448 C   0  0  0  0  0  0  0  0  0  0  0  0
    0.5866    1.9822   -2.5315 O   0  0  0  0  0  0  0  0  0  0  0  0
   -0.7398    2.4807   -0.6729 N   0  0  0  0  0  0  0  0  0  0  0  0
    0.1014    1.7620    0.2907 C   0  0  0  0  0  0  0  0  0  0  0  0
    0.4256    2.6679    1.4844 C   0  0  0  0  0  0  0  0  0  0  0  0
    1.4361    2.0002    2.4608 C   0  0  0  0  0  0  0  0  0  0  0  0
    2.7910    2.4995    2.2097 N   0  0  0  0  0  0  0  0  0  0  0  0
    1.4139    0.4451    2.3971 C   0  0  0  0  0  0  0  0  0  0  0  0
    2.2683   -0.0059    1.3542 O   0  0  0  0  0  0  0  0  0  0  0  0
    3.0178   -1.1519    1.7172 C   0  0  0  0  0  0  0  0  0  0  0  0
    4.3003   -0.7352    2.1524 O   0  0  0  0  0  0  0  0  0  0  0  0
    4.9761   -1.7978    2.8146 C   0  0  0  0  0  0  0  0  0  0  0  0
    6.4313   -1.3722    3.0752 C   0  0  0  0  0  0  0  0  0  0  0  0
    7.1124   -1.0075    1.8321 N   0  0  0  0  0  0  0  0  0  0  0  0
    4.8903   -3.1474    2.0405 C   0  0  0  0  0  0  0  0  0  0  0  0
    4.4731   -2.9178    0.5844 C   0  0  0  0  0  0  0  0  0  0  0  0
    3.1614   -2.1021    0.4936 C   0  0  0  0  0  0  0  0  0  0  0  0
    3.1312   -1.3611   -0.7727 N   0  0  0  0  0  0  0  0  0  0  0  0
   -0.0258   -0.0526    2.1276 C   0  0  0  0  0  0  0  0  0  0  0  0
   -0.0765   -1.4566    2.1669 O   0  0  0  0  0  0  0  0  0  0  0  0
   -0.5755    0.4428    0.7578 C   0  0  0  0  0  0  0  0  0  0  0  0
   -1.9784    0.6408    0.8858 O   0  0  0  0  0  0  0  0  0  0  0  0
   -2.7149   -0.3933    0.2587 C   0  0  0  0  0  0  0  0  0  0  0  0
   -2.6860   -0.1908   -1.1423 O   0  0  0  0  0  0  0  0  0  0  0  0
   -3.1850   -1.3166   -1.8548 C   0  0  0  0  0  0  0  0  0  0  0  0
   -2.0758   -2.3557   -2.1072 C   0  0  0  0  0  0  0  0  0  0  0  0
   -0.9828   -1.7387   -2.7280 O   0  0  0  0  0  0  0  0  0  0  0  0
   -4.4964   -1.9119   -1.2492 C   0  0  0  0  0  0  0  0  0  0  0  0
   -4.2889   -3.1546   -0.6194 O   0  0  0  0  0  0  0  0  0  0  0  0
   -5.1805   -0.8961   -0.2949 C   0  0  0  0  0  0  0  0  0  0  0  0
   -5.7396    0.2222   -1.0683 N   0  0  0  0  0  0  0  0  0  0  0  0
   -4.1760   -0.3805    0.7779 C   0  0  0  0  0  0  0  0  0  0  0  0
   -4.5301    0.9089    1.2183 O   0  0  0  0  0  0  0  0  0  0  0  0
   -4.4186    1.5787   -3.0635 H   0  0  0  0  0  0  0  0  0  0  0  0
   -4.2922    3.0915   -3.7730 H   0  0  0  0  0  0  0  0  0  0  0  0
   -2.1168    1.1013   -3.4036 H   0  0  0  0  0  0  0  0  0  0  0  0
   -2.9577    1.5219   -4.9306 H   0  0  0  0  0  0  0  0  0  0  0  0
   -0.7805    2.6587   -4.8186 H   0  0  0  0  0  0  0  0  0  0  0  0
   -2.1062    3.8533   -4.8126 H   0  0  0  0  0  0  0  0  0  0  0  0
   -0.2463    4.4206   -3.2307 H   0  0  0  0  0  0  0  0  0  0  0  0
   -2.2488    5.1961   -2.7385 H   0  0  0  0  0  0  0  0  0  0  0  0
   -1.6378    2.8932   -0.3303 H   0  0  0  0  0  0  0  0  0  0  0  0
    1.0689    1.5107   -0.1944 H   0  0  0  0  0  0  0  0  0  0  0  0
    0.8215    3.6399    1.1149 H   0  0  0  0  0  0  0  0  0  0  0  0
   -0.5186    2.8894    2.0323 H   0  0  0  0  0  0  0  0  0  0  0  0
    1.1428    2.3054    3.4923 H   0  0  0  0  0  0  0  0  0  0  0  0
    3.4368    2.0657    2.9104 H   0  0  0  0  0  0  0  0  0  0  0  0
    2.8084    3.5248    2.4148 H   0  0  0  0  0  0  0  0  0  0  0  0
    1.7431    0.0943    3.4053 H   0  0  0  0  0  0  0  0  0  0  0  0
    2.5051   -1.7446    2.5163 H   0  0  0  0  0  0  0  0  0  0  0  0
    4.5124   -1.9438    3.8182 H   0  0  0  0  0  0  0  0  0  0  0  0
    6.4231   -0.4920    3.7530 H   0  0  0  0  0  0  0  0  0  0  0  0
    6.9848   -2.1882    3.5895 H   0  0  0  0  0  0  0  0  0  0  0  0
    7.3461   -1.8852    1.3137 H   0  0  0  0  0  0  0  0  0  0  0  0
    8.0254   -0.5701    2.0918 H   0  0  0  0  0  0  0  0  0  0  0  0
    4.1306   -3.7974    2.5297 H   0  0  0  0  0  0  0  0  0  0  0  0
    5.8520   -3.7030    2.0665 H   0  0  0  0  0  0  0  0  0  0  0  0
    5.2944   -2.3765    0.0632 H   0  0  0  0  0  0  0  0  0  0  0  0
    4.3401   -3.8965    0.0775 H   0  0  0  0  0  0  0  0  0  0  0  0
    2.3032   -2.8123    0.5088 H   0  0  0  0  0  0  0  0  0  0  0  0
    3.2902   -2.0401   -1.5540 H   0  0  0  0  0  0  0  0  0  0  0  0
    2.1621   -0.9956   -0.9187 H   0  0  0  0  0  0  0  0  0  0  0  0
   -0.6804    0.3543    2.9377 H   0  0  0  0  0  0  0  0  0  0  0  0
    0.0209   -1.7225    3.1174 H   0  0  0  0  0  0  0  0  0  0  0  0
   -0.3109   -0.3132   -0.0215 H   0  0  0  0  0  0  0  0  0  0  0  0
   -2.2704   -1.3812    0.5319 H   0  0  0  0  0  0  0  0  0  0  0  0
   -3.4647   -0.9322   -2.8600 H   0  0  0  0  0  0  0  0  0  0  0  0
   -1.7443   -2.8179   -1.1528 H   0  0  0  0  0  0  0  0  0  0  0  0
   -2.4708   -3.1578   -2.7698 H   0  0  0  0  0  0  0  0  0  0  0  0
   -0.3010   -2.4495   -2.8571 H   0  0  0  0  0  0  0  0  0  0  0  0
   -5.1927   -2.1188   -2.0903 H   0  0  0  0  0  0  0  0  0  0  0  0
   -3.8347   -3.0043    0.2464 H   0  0  0  0  0  0  0  0  0  0  0  0
   -6.0190   -1.4141    0.2246 H   0  0  0  0  0  0  0  0  0  0  0  0
   -6.3858    0.7635   -0.4466 H   0  0  0  0  0  0  0  0  0  0  0  0
   -6.3523   -0.1560   -1.8267 H   0  0  0  0  0  0  0  0  0  0  0  0
   -4.2147   -1.0747    1.6512 H   0  0  0  0  0  0  0  0  0  0  0  0
   -5.2864    0.7934    1.8518 H   0  0  0  0  0  0  0  0  0  0  0  0
  1  2  1  0
  2  3  1  0
  3  4  1  0
  4  5  1  0
  4  6  1  0
  6  7  2  0
  6  8  1  0
  8  9  1  0
  9 10  1  0
 10 11  1  0
 11 12  1  0
 11 13  1  0
 13 14  1  0
 14 15  1  0
 15 16  1  0
 16 17  1  0
 17 18  1  0
 18 19  1  0
 17 20  1  0
 20 21  1  0
 21 22  1  0
 22 15  1  0
 22 23  1  0
 13 24  1  0
 24 25  1  0
 24 26  1  0
 26  9  1  0
 26 27  1  0
 27 28  1  0
 28 29  1  0
 29 30  1  0
 30 31  1  0
 31 32  1  0
 30 33  1  0
 33 34  1  0
 33 35  1  0
 35 36  1  0
 35 37  1  0
 37 28  1  0
 37 38  1  0
  1 39  1  0
  1 40  1  0
  2 41  1  0
  2 42  1  0
  3 43  1  0
  3 44  1  0
  4 45  1  0
  5 46  1  0
  8 47  1  0
  9 48  1  0
 10 49  1  0
 10 50  1  0
 11 51  1  0
 12 52  1  0
 12 53  1  0
 13 54  1  0
 15 55  1  0
 17 56  1  0
 18 57  1  0
 18 58  1  0
 19 59  1  0
 19 60  1  0
 20 61  1  0
 20 62  1  0
 21 63  1  0
 21 64  1  0
 22 65  1  0
 23 66  1  0
 23 67  1  0
 24 68  1  0
 25 69  1  0
 26 70  1  0
 28 71  1  0
 30 72  1  0
 31 73  1  0
 31 74  1  0
 32 75  1  0
 33 76  1  0
 34 77  1  0
 35 78  1  0
 36 79  1  0
 36 80  1  0
 37 81  1  0
 38 82  1  0
M  END
> <ID>
HT0176

> <Class>
0.0

> <Clusters>
141

> <Fold>
1

$$$$