
     RDKit          3D

 40 43  0  0  0  0  0  0  0  0999 V2000
    1.3734   -0.0592    4.9367 Cl  0  0  0  0  0  0  0  0  0  0  0  0
    0.3565   -0.2852    3.5255 C   0  0  0  0  0  0  0  0  0  0  0  0
   -1.0203   -0.0809    3.6179 C   0  0  0  0  0  0  0  0  0  0  0  0
   -1.8312   -0.2645    2.4976 C   0  0  0  0  0  0  0  0  0  0  0  0
   -1.2760   -0.6506    1.2662 C   0  0  0  0  0  0  0  0  0  0  0  0
   -2.1430   -0.8155    0.1259 N   0  0  0  0  0  0  0  0  0  0  0  0
   -2.9276    0.3303   -0.3512 C   0  0  0  0  0  0  0  0  0  0  0  0
   -2.1663    1.0376   -1.4794 C   0  0  0  0  0  0  0  0  0  0  0  0
   -2.4205    2.5309   -1.6122 C   0  0  0  0  0  0  0  0  0  0  0  0
   -1.1110    2.0320   -1.0200 C   0  0  0  0  0  0  0  0  0  0  0  0
   -2.1087   -2.0311   -0.6464 C   0  0  0  0  0  0  0  0  0  0  0  0
   -3.0435   -2.3016   -1.4484 O   0  0  0  0  0  0  0  0  0  0  0  0
   -0.9437   -2.9635   -0.5391 C   0  0  0  0  0  0  0  0  0  0  0  0
    0.2807   -2.2294   -0.8381 N   0  0  0  0  0  0  0  0  0  0  0  0
    0.7726   -1.2650   -0.1113 C   0  0  0  0  0  0  0  0  0  0  0  0
    2.0165   -0.5935   -0.5723 C   0  0  0  0  0  0  0  0  0  0  0  0
    2.2794    0.7484   -0.2335 C   0  0  0  0  0  0  0  0  0  0  0  0
    3.4421    1.3792   -0.6853 C   0  0  0  0  0  0  0  0  0  0  0  0
    4.3524    0.6831   -1.4832 C   0  0  0  0  0  0  0  0  0  0  0  0
    4.0998   -0.6446   -1.8344 C   0  0  0  0  0  0  0  0  0  0  0  0
    2.9379   -1.2804   -1.3864 C   0  0  0  0  0  0  0  0  0  0  0  0
    0.1231   -0.8568    1.1683 C   0  0  0  0  0  0  0  0  0  0  0  0
    0.9244   -0.6745    2.3103 C   0  0  0  0  0  0  0  0  0  0  0  0
   -1.4648    0.2160    4.5593 H   0  0  0  0  0  0  0  0  0  0  0  0
   -2.8995   -0.1161    2.5911 H   0  0  0  0  0  0  0  0  0  0  0  0
   -3.1515    1.0268    0.4864 H   0  0  0  0  0  0  0  0  0  0  0  0
   -3.9086   -0.0138   -0.7417 H   0  0  0  0  0  0  0  0  0  0  0  0
   -1.9331    0.4993   -2.4228 H   0  0  0  0  0  0  0  0  0  0  0  0
   -3.1096    2.9825   -0.8668 H   0  0  0  0  0  0  0  0  0  0  0  0
   -2.3239    2.9239   -2.6462 H   0  0  0  0  0  0  0  0  0  0  0  0
   -1.0237    2.1816    0.0777 H   0  0  0  0  0  0  0  0  0  0  0  0
   -0.2404    2.1237   -1.7032 H   0  0  0  0  0  0  0  0  0  0  0  0
   -0.8925   -3.4053    0.4794 H   0  0  0  0  0  0  0  0  0  0  0  0
   -1.0511   -3.7918   -1.2713 H   0  0  0  0  0  0  0  0  0  0  0  0
    1.5807    1.3154    0.3682 H   0  0  0  0  0  0  0  0  0  0  0  0
    3.6350    2.4106   -0.4201 H   0  0  0  0  0  0  0  0  0  0  0  0
    5.2518    1.1737   -1.8323 H   0  0  0  0  0  0  0  0  0  0  0  0
    4.8050   -1.1824   -2.4549 H   0  0  0  0  0  0  0  0  0  0  0  0
    2.7653   -2.3117   -1.6677 H   0  0  0  0  0  0  0  0  0  0  0  0
    1.9936   -0.8413    2.2577 H   0  0  0  0  0  0  0  0  0  0  0  0
  1  2  1  0
  2  3  2  0
  3  4  1  0
  4  5  2  0
  5  6  1  0
  6  7  1  0
  7  8  1  0
  8  9  1  0
  9 10  1  0
 10  8  1  0
  6 11  1  0
 11 12  2  0
 11 13  1  0
 13 14  1  0
 14 15  2  0
 15 16  1  0
 16 17  2  0
 17 18  1  0
 18 19  2  0
 19 20  1  0
 20 21  2  0
 21 16  1  0
 15 22  1  0
 22  5  1  0
 22 23  2  0
 23  2  1  0
  3 24  1  0
  4 25  1  0
  7 26  1  0
  7 27  1  0
  8 28  1  0
  9 29  1  0
  9 30  1  0
 10 31  1  0
 10 32  1  0
 13 33  1  0
 13 34  1  0
 17 35  1  0
 18 36  1  0
 19 37  1  0
 20 38  1  0
 21 39  1  0
 23 40  1  0
M  END
> <ID>
HT1726

> <Class>
0.0

> <Clusters>
10

> <Fold>
1

$$$$