
     RDKit          3D

 60 63  0  0  0  0  0  0  0  0999 V2000
    7.5506   -3.6594    1.2996 C   0  0  0  0  0  0  0  0  0  0  0  0
    6.6999   -3.8251    0.1695 O   0  0  0  0  0  0  0  0  0  0  0  0
    5.3469   -3.4512    0.1324 C   0  0  0  0  0  0  0  0  0  0  0  0
    4.6961   -2.8821    1.2452 C   0  0  0  0  0  0  0  0  0  0  0  0
    3.3420   -2.5463    1.1760 C   0  0  0  0  0  0  0  0  0  0  0  0
    2.6144   -2.7737   -0.0007 C   0  0  0  0  0  0  0  0  0  0  0  0
    1.1552   -2.4107   -0.0654 C   0  0  0  0  0  0  0  0  0  0  0  0
    0.9849   -0.9658   -0.2200 N   0  0  0  0  0  0  0  0  0  0  0  0
   -0.3217   -0.3670   -0.1915 C   0  0  0  0  0  0  0  0  0  0  0  0
   -1.4138   -1.1534   -0.3933 N   0  0  0  0  0  0  0  0  0  0  0  0
   -2.6710   -0.6415   -0.4350 C   0  0  0  0  0  0  0  0  0  0  0  0
   -2.8534    0.6955   -0.2840 N   0  0  0  0  0  0  0  0  0  0  0  0
   -1.8043    1.5291   -0.0724 C   0  0  0  0  0  0  0  0  0  0  0  0
   -0.4974    1.0229   -0.0026 C   0  0  0  0  0  0  0  0  0  0  0  0
    0.6193    1.9307    0.3547 C   0  0  0  0  0  0  0  0  0  0  0  0
    1.5374    1.5221    1.1161 O   0  0  0  0  0  0  0  0  0  0  0  0
    0.6264    3.2932   -0.1022 N   0  0  0  0  0  0  0  0  0  0  0  0
    1.5925    4.2631    0.4137 C   0  0  0  0  0  0  0  0  0  0  0  0
    1.2730    5.6439   -0.0756 C   0  0  0  0  0  0  0  0  0  0  0  0
    0.0743    6.2126    0.2297 N   0  0  0  0  0  0  0  0  0  0  0  0
   -0.2308    7.4696   -0.1879 C   0  0  0  0  0  0  0  0  0  0  0  0
    0.6953    8.1991   -0.9321 C   0  0  0  0  0  0  0  0  0  0  0  0
    1.9223    7.6060   -1.2320 C   0  0  0  0  0  0  0  0  0  0  0  0
    2.1889    6.3442   -0.7999 N   0  0  0  0  0  0  0  0  0  0  0  0
   -3.7957   -1.5114   -0.6442 N   0  0  0  0  0  0  0  0  0  0  0  0
   -3.6490   -2.9324   -0.9147 C   0  0  0  0  0  0  0  0  0  0  0  0
   -5.0627   -3.4679   -1.1000 C   0  0  0  0  0  0  0  0  0  0  0  0
   -5.9409   -2.2424   -1.3457 C   0  0  0  0  0  0  0  0  0  0  0  0
   -5.1750   -1.0535   -0.7584 C   0  0  1  0  0  0  0  0  0  0  0  0
   -5.7276   -0.6271    0.6118 C   0  0  0  0  0  0  0  0  0  0  0  0
   -5.5913   -1.6639    1.5451 O   0  0  0  0  0  0  0  0  0  0  0  0
    3.2670   -3.3099   -1.1194 C   0  0  0  0  0  0  0  0  0  0  0  0
    4.6225   -3.6542   -1.0524 C   0  0  0  0  0  0  0  0  0  0  0  0
    5.4044   -4.3438   -2.4679 Cl  0  0  0  0  0  0  0  0  0  0  0  0
    7.1515   -4.2262    2.1688 H   0  0  0  0  0  0  0  0  0  0  0  0
    8.5583   -4.0492    1.0544 H   0  0  0  0  0  0  0  0  0  0  0  0
    7.6383   -2.5837    1.5568 H   0  0  0  0  0  0  0  0  0  0  0  0
    5.2253   -2.7056    2.1711 H   0  0  0  0  0  0  0  0  0  0  0  0
    2.8571   -2.1151    2.0434 H   0  0  0  0  0  0  0  0  0  0  0  0
    0.6594   -2.7401    0.8742 H   0  0  0  0  0  0  0  0  0  0  0  0
    0.6573   -2.9359   -0.9105 H   0  0  0  0  0  0  0  0  0  0  0  0
    1.8219   -0.3742   -0.4325 H   0  0  0  0  0  0  0  0  0  0  0  0
   -1.9999    2.5821    0.0828 H   0  0  0  0  0  0  0  0  0  0  0  0
   -0.0668    3.5904   -0.8256 H   0  0  0  0  0  0  0  0  0  0  0  0
    1.5597    4.2674    1.5256 H   0  0  0  0  0  0  0  0  0  0  0  0
    2.6160    3.9682    0.0924 H   0  0  0  0  0  0  0  0  0  0  0  0
   -1.1908    7.9027    0.0620 H   0  0  0  0  0  0  0  0  0  0  0  0
    0.4703    9.2048   -1.2653 H   0  0  0  0  0  0  0  0  0  0  0  0
    2.6654    8.1512   -1.8020 H   0  0  0  0  0  0  0  0  0  0  0  0
   -3.0590   -3.0755   -1.8448 H   0  0  0  0  0  0  0  0  0  0  0  0
   -3.1442   -3.4371   -0.0638 H   0  0  0  0  0  0  0  0  0  0  0  0
   -5.3936   -3.9856   -0.1718 H   0  0  0  0  0  0  0  0  0  0  0  0
   -5.1154   -4.1781   -1.9564 H   0  0  0  0  0  0  0  0  0  0  0  0
   -6.0545   -2.0951   -2.4422 H   0  0  0  0  0  0  0  0  0  0  0  0
   -6.9517   -2.3723   -0.9036 H   0  0  0  0  0  0  0  0  0  0  0  0
   -5.2336   -0.1921   -1.4612 H   0  0  0  0  0  0  0  0  0  0  0  0
   -6.8009   -0.3548    0.5090 H   0  0  0  0  0  0  0  0  0  0  0  0
   -5.1816    0.2737    0.9679 H   0  0  0  0  0  0  0  0  0  0  0  0
   -5.8881   -1.2922    2.4148 H   0  0  0  0  0  0  0  0  0  0  0  0
    2.7210   -3.4768   -2.0394 H   0  0  0  0  0  0  0  0  0  0  0  0
  1  2  1  0
  2  3  1  0
  3  4  2  0
  4  5  1  0
  5  6  2  0
  6  7  1  0
  7  8  1  0
  8  9  1  0
  9 10  2  0
 10 11  1  0
 11 12  2  0
 12 13  1  0
 13 14  2  0
 14  9  1  0
 14 15  1  0
 15 16  2  0
 15 17  1  0
 17 18  1  0
 18 19  1  0
 19 20  2  0
 20 21  1  0
 21 22  2  0
 22 23  1  0
 23 24  2  0
 24 19  1  0
 11 25  1  0
 25 26  1  0
 26 27  1  0
 27 28  1  0
 28 29  1  0
 29 25  1  0
 29 30  1  0
 30 31  1  0
  6 32  1  0
 32 33  2  0
 33  3  1  0
 33 34  1  0
  1 35  1  0
  1 36  1  0
  1 37  1  0
  4 38  1  0
  5 39  1  0
  7 40  1  0
  7 41  1  0
  8 42  1  0
 13 43  1  0
 17 44  1  0
 18 45  1  0
 18 46  1  0
 21 47  1  0
 22 48  1  0
 23 49  1  0
 26 50  1  0
 26 51  1  0
 27 52  1  0
 27 53  1  0
 28 54  1  0
 28 55  1  0
 29 56  1  6
 30 57  1  0
 30 58  1  0
 31 59  1  0
 32 60  1  0
M  END
> <ID>
HT0205

> <Class>
0.0

> <Clusters>
120

> <Fold>
1

$$$$