
     RDKit          3D

 52 53  0  0  0  0  0  0  0  0999 V2000
   -8.4060    0.5079    1.5530 C   0  0  0  0  0  0  0  0  0  0  0  0
   -7.5106   -0.4009    0.9206 O   0  0  0  0  0  0  0  0  0  0  0  0
   -6.1124   -0.2745    0.9279 C   0  0  0  0  0  0  0  0  0  0  0  0
   -5.4622    0.7918    1.5777 C   0  0  0  0  0  0  0  0  0  0  0  0
   -4.0695    0.8837    1.5645 C   0  0  0  0  0  0  0  0  0  0  0  0
   -3.3017   -0.0906    0.9133 C   0  0  0  0  0  0  0  0  0  0  0  0
   -1.8014    0.0306    0.8709 C   0  0  0  0  0  0  0  0  0  0  0  0
   -1.3631    0.8605   -0.3476 C   0  0  0  0  0  0  0  0  0  0  0  0
    0.0997    0.9115   -0.4968 N   0  0  0  0  0  0  0  0  0  0  0  0
    0.7430    1.7144    0.5554 C   0  0  0  0  0  0  0  0  0  0  0  0
    2.1473    2.1771    0.1238 C   0  0  0  0  0  0  0  0  0  0  0  0
    2.0764    3.0110   -1.0066 O   0  0  0  0  0  0  0  0  0  0  0  0
    3.1113    1.0040   -0.1127 C   0  0  0  0  0  0  0  0  0  0  0  0
    4.4205    1.5083   -0.3660 O   0  0  0  0  0  0  0  0  0  0  0  0
    5.5440    0.7077   -0.6204 C   0  0  0  0  0  0  0  0  0  0  0  0
    6.7701    1.3407   -0.8548 C   0  0  0  0  0  0  0  0  0  0  0  0
    7.9201    0.5881   -1.1050 C   0  0  0  0  0  0  0  0  0  0  0  0
    7.8538   -0.8068   -1.1290 C   0  0  0  0  0  0  0  0  0  0  0  0
    6.6304   -1.4588   -0.9150 C   0  0  0  0  0  0  0  0  0  0  0  0
    6.5660   -2.9576   -0.9019 C   0  0  0  0  0  0  0  0  0  0  0  0
    5.4799   -0.6999   -0.6454 C   0  0  0  0  0  0  0  0  0  0  0  0
   -3.9457   -1.1471    0.2523 C   0  0  0  0  0  0  0  0  0  0  0  0
   -5.3511   -1.2469    0.2602 C   0  0  0  0  0  0  0  0  0  0  0  0
   -6.0271   -2.2949   -0.3848 O   0  0  0  0  0  0  0  0  0  0  0  0
   -5.3890   -3.3475   -1.1006 C   0  0  0  0  0  0  0  0  0  0  0  0
   -8.2103    0.5386    2.6457 H   0  0  0  0  0  0  0  0  0  0  0  0
   -8.2926    1.5223    1.1154 H   0  0  0  0  0  0  0  0  0  0  0  0
   -9.4476    0.1643    1.3881 H   0  0  0  0  0  0  0  0  0  0  0  0
   -6.0248    1.5576    2.0938 H   0  0  0  0  0  0  0  0  0  0  0  0
   -3.5885    1.7170    2.0621 H   0  0  0  0  0  0  0  0  0  0  0  0
   -1.3438   -0.9816    0.8218 H   0  0  0  0  0  0  0  0  0  0  0  0
   -1.4449    0.5099    1.8076 H   0  0  0  0  0  0  0  0  0  0  0  0
   -1.7814    1.8896   -0.2827 H   0  0  0  0  0  0  0  0  0  0  0  0
   -1.7859    0.3992   -1.2668 H   0  0  0  0  0  0  0  0  0  0  0  0
    0.4771   -0.0646   -0.4631 H   0  0  0  0  0  0  0  0  0  0  0  0
    0.1420    2.6244    0.7786 H   0  0  0  0  0  0  0  0  0  0  0  0
    0.8263    1.1220    1.4938 H   0  0  0  0  0  0  0  0  0  0  0  0
    2.5616    2.7823    0.9597 H   0  0  0  0  0  0  0  0  0  0  0  0
    1.7740    2.4580   -1.7736 H   0  0  0  0  0  0  0  0  0  0  0  0
    2.7746    0.4012   -0.9837 H   0  0  0  0  0  0  0  0  0  0  0  0
    3.1346    0.3584    0.7924 H   0  0  0  0  0  0  0  0  0  0  0  0
    6.8322    2.4215   -0.8376 H   0  0  0  0  0  0  0  0  0  0  0  0
    8.8651    1.0869   -1.2772 H   0  0  0  0  0  0  0  0  0  0  0  0
    8.7552   -1.3776   -1.3151 H   0  0  0  0  0  0  0  0  0  0  0  0
    6.7325   -3.3250    0.1322 H   0  0  0  0  0  0  0  0  0  0  0  0
    5.5738   -3.3095   -1.2565 H   0  0  0  0  0  0  0  0  0  0  0  0
    7.3415   -3.3903   -1.5693 H   0  0  0  0  0  0  0  0  0  0  0  0
    4.5447   -1.2106   -0.4577 H   0  0  0  0  0  0  0  0  0  0  0  0
   -3.3464   -1.8838   -0.2659 H   0  0  0  0  0  0  0  0  0  0  0  0
   -4.8047   -2.9329   -1.9491 H   0  0  0  0  0  0  0  0  0  0  0  0
   -4.7241   -3.9226   -0.4221 H   0  0  0  0  0  0  0  0  0  0  0  0
   -6.1627   -4.0325   -1.5038 H   0  0  0  0  0  0  0  0  0  0  0  0
  1  2  1  0
  2  3  1  0
  3  4  2  0
  4  5  1  0
  5  6  2  0
  6  7  1  0
  7  8  1  0
  8  9  1  0
  9 10  1  0
 10 11  1  0
 11 12  1  0
 11 13  1  0
 13 14  1  0
 14 15  1  0
 15 16  2  0
 16 17  1  0
 17 18  2  0
 18 19  1  0
 19 20  1  0
 19 21  2  0
 21 15  1  0
  6 22  1  0
 22 23  2  0
 23  3  1  0
 23 24  1  0
 24 25  1  0
  1 26  1  0
  1 27  1  0
  1 28  1  0
  4 29  1  0
  5 30  1  0
  7 31  1  0
  7 32  1  0
  8 33  1  0
  8 34  1  0
  9 35  1  0
 10 36  1  0
 10 37  1  0
 11 38  1  0
 12 39  1  0
 13 40  1  0
 13 41  1  0
 16 42  1  0
 17 43  1  0
 18 44  1  0
 20 45  1  0
 20 46  1  0
 20 47  1  0
 21 48  1  0
 22 49  1  0
 25 50  1  0
 25 51  1  0
 25 52  1  0
M  END
> <ID>
HT0279

> <Class>
0.0

> <Clusters>
169

> <Fold>
1

$$$$