
     RDKit          3D

 49 52  0  0  0  0  0  0  0  0999 V2000
   -4.5146   -0.0547    0.6204 C   0  0  0  0  0  0  0  0  0  0  0  0
   -3.4733    0.3046   -0.4687 C   0  0  1  0  0  0  0  0  0  0  0  0
   -4.0842    0.0322   -1.7141 O   0  0  0  0  0  0  0  0  0  0  0  0
   -3.0980    1.7975   -0.3048 C   0  0  0  0  0  0  0  0  0  0  0  0
   -1.8150    1.8369    0.5292 C   0  0  0  0  0  0  0  0  0  0  0  0
   -1.3822    0.3799    0.7803 C   0  0  0  0  0  0  0  0  0  0  0  0
    0.1692    0.2312    0.8740 C   0  0  0  0  0  0  0  0  0  0  0  0
    0.6089   -0.9579    1.7454 C   0  0  0  0  0  0  0  0  0  0  0  0
    2.0692   -0.7808    2.1631 C   0  0  0  0  0  0  0  0  0  0  0  0
    2.9512   -0.3133    1.0279 C   0  0  0  0  0  0  0  0  0  0  0  0
    4.2577   -0.1250    1.2843 C   0  0  0  0  0  0  0  0  0  0  0  0
    5.2037    0.2802    0.2315 C   0  0  0  0  0  0  0  0  0  0  0  0
    6.4194    0.4458    0.5160 O   0  0  0  0  0  0  0  0  0  0  0  0
    4.7423    0.4420   -1.1853 C   0  0  0  0  0  0  0  0  0  0  0  0
    3.2580    0.8121   -1.2234 C   0  0  0  0  0  0  0  0  0  0  0  0
    2.4123   -0.1858   -0.3995 C   0  0  0  0  0  0  0  0  0  0  0  0
    0.8865    0.1854   -0.4994 C   0  0  0  0  0  0  0  0  0  0  0  0
    0.1778   -0.7704   -1.4783 C   0  0  0  0  0  0  0  0  0  0  0  0
   -1.3020   -0.4204   -1.6419 C   0  0  0  0  0  0  0  0  0  0  0  0
   -2.1070   -0.4573   -0.3046 C   0  0  0  0  0  0  0  0  0  0  0  0
   -2.3190   -1.9313    0.1328 C   0  0  0  0  0  0  0  0  0  0  0  0
   -4.8552   -1.1059    0.5136 H   0  0  0  0  0  0  0  0  0  0  0  0
   -5.4171    0.5841    0.5089 H   0  0  0  0  0  0  0  0  0  0  0  0
   -4.1128    0.0956    1.6439 H   0  0  0  0  0  0  0  0  0  0  0  0
   -3.6437    0.5583   -2.4290 H   0  0  0  0  0  0  0  0  0  0  0  0
   -2.8987    2.2781   -1.2873 H   0  0  0  0  0  0  0  0  0  0  0  0
   -3.9019    2.3913    0.1842 H   0  0  0  0  0  0  0  0  0  0  0  0
   -1.0361    2.4039   -0.0254 H   0  0  0  0  0  0  0  0  0  0  0  0
   -1.9944    2.3572    1.4959 H   0  0  0  0  0  0  0  0  0  0  0  0
   -1.8037    0.1088    1.7742 H   0  0  0  0  0  0  0  0  0  0  0  0
    0.5308    1.1464    1.3996 H   0  0  0  0  0  0  0  0  0  0  0  0
   -0.0117   -1.0243    2.6651 H   0  0  0  0  0  0  0  0  0  0  0  0
    0.5057   -1.9154    1.1971 H   0  0  0  0  0  0  0  0  0  0  0  0
    2.1158   -0.0298    2.9826 H   0  0  0  0  0  0  0  0  0  0  0  0
    2.4517   -1.7460    2.5612 H   0  0  0  0  0  0  0  0  0  0  0  0
    4.6367   -0.2604    2.2911 H   0  0  0  0  0  0  0  0  0  0  0  0
    5.3325    1.2393   -1.6867 H   0  0  0  0  0  0  0  0  0  0  0  0
    4.9058   -0.5126   -1.7303 H   0  0  0  0  0  0  0  0  0  0  0  0
    3.1286    1.8399   -0.8161 H   0  0  0  0  0  0  0  0  0  0  0  0
    2.9153    0.8134   -2.2812 H   0  0  0  0  0  0  0  0  0  0  0  0
    2.5735   -1.1894   -0.8547 H   0  0  0  0  0  0  0  0  0  0  0  0
    0.7919    1.2076   -0.9311 H   0  0  0  0  0  0  0  0  0  0  0  0
    0.6630   -0.6854   -2.4756 H   0  0  0  0  0  0  0  0  0  0  0  0
    0.2962   -1.8257   -1.1593 H   0  0  0  0  0  0  0  0  0  0  0  0
   -1.3477    0.5920   -2.0984 H   0  0  0  0  0  0  0  0  0  0  0  0
   -1.7531   -1.1260   -2.3738 H   0  0  0  0  0  0  0  0  0  0  0  0
   -1.3819   -2.5151    0.1192 H   0  0  0  0  0  0  0  0  0  0  0  0
   -2.7214   -1.9972    1.1653 H   0  0  0  0  0  0  0  0  0  0  0  0
   -3.0289   -2.4339   -0.5582 H   0  0  0  0  0  0  0  0  0  0  0  0
  1  2  1  0
  2  3  1  6
  2  4  1  0
  4  5  1  0
  5  6  1  0
  6  7  1  0
  7  8  1  0
  8  9  1  0
  9 10  1  0
 10 11  2  0
 11 12  1  0
 12 13  2  0
 12 14  1  0
 14 15  1  0
 15 16  1  0
 16 10  1  0
 16 17  1  0
 17  7  1  0
 17 18  1  0
 18 19  1  0
 19 20  1  0
 20  2  1  0
 20  6  1  0
 20 21  1  0
  1 22  1  0
  1 23  1  0
  1 24  1  0
  3 25  1  0
  4 26  1  0
  4 27  1  0
  5 28  1  0
  5 29  1  0
  6 30  1  0
  7 31  1  0
  8 32  1  0
  8 33  1  0
  9 34  1  0
  9 35  1  0
 11 36  1  0
 14 37  1  0
 14 38  1  0
 15 39  1  0
 15 40  1  0
 16 41  1  0
 17 42  1  0
 18 43  1  0
 18 44  1  0
 19 45  1  0
 19 46  1  0
 21 47  1  0
 21 48  1  0
 21 49  1  0
M  END
> <ID>
HT3291

> <Class>
0.0

> <Clusters>
183

> <Fold>
1

$$$$