
     RDKit          3D

 29 30  0  0  0  0  0  0  0  0999 V2000
   -4.3982   -2.1205    0.2905 O   0  0  0  0  0  0  0  0  0  0  0  0
   -3.0560   -1.7581    0.2097 C   0  0  0  0  0  0  0  0  0  0  0  0
   -2.1806   -2.6602    0.1185 O   0  0  0  0  0  0  0  0  0  0  0  0
   -2.6706   -0.3279    0.2755 C   0  0  0  0  0  0  0  0  0  0  0  0
   -3.5549    0.5861    0.8733 C   0  0  0  0  0  0  0  0  0  0  0  0
   -3.2005    1.9272    1.0113 C   0  0  0  0  0  0  0  0  0  0  0  0
   -1.9612    2.3566    0.5452 C   0  0  0  0  0  0  0  0  0  0  0  0
   -1.1182    1.4755   -0.0507 N   0  0  0  0  0  0  0  0  0  0  0  0
   -1.4257    0.1558   -0.2004 C   0  0  0  0  0  0  0  0  0  0  0  0
   -0.5175   -0.6943   -0.9202 N   0  0  0  0  0  0  0  0  0  0  0  0
    0.9105   -0.5221   -0.9026 C   0  0  0  0  0  0  0  0  0  0  0  0
    1.6699   -0.9496   -2.0010 C   0  0  0  0  0  0  0  0  0  0  0  0
    3.0572   -0.7938   -2.0043 C   0  0  0  0  0  0  0  0  0  0  0  0
    3.7035   -0.2296   -0.9025 C   0  0  0  0  0  0  0  0  0  0  0  0
    2.9677    0.1615    0.2292 C   0  0  0  0  0  0  0  0  0  0  0  0
    1.5677    0.0269    0.2145 C   0  0  0  0  0  0  0  0  0  0  0  0
    3.6576    0.8023    1.4076 C   0  0  0  0  0  0  0  0  0  0  0  0
    3.6635    2.1744    1.2400 F   0  0  0  0  0  0  0  0  0  0  0  0
    4.9635    0.3560    1.5160 F   0  0  0  0  0  0  0  0  0  0  0  0
    2.9972    0.4945    2.5845 F   0  0  0  0  0  0  0  0  0  0  0  0
   -4.6771   -3.0939    0.2616 H   0  0  0  0  0  0  0  0  0  0  0  0
   -4.5142    0.2597    1.2557 H   0  0  0  0  0  0  0  0  0  0  0  0
   -3.8793    2.6268    1.4817 H   0  0  0  0  0  0  0  0  0  0  0  0
   -1.6720    3.3941    0.6462 H   0  0  0  0  0  0  0  0  0  0  0  0
   -0.9203   -1.3828   -1.5954 H   0  0  0  0  0  0  0  0  0  0  0  0
    1.1832   -1.3880   -2.8632 H   0  0  0  0  0  0  0  0  0  0  0  0
    3.6331   -1.1071   -2.8656 H   0  0  0  0  0  0  0  0  0  0  0  0
    4.7784   -0.1036   -0.9339 H   0  0  0  0  0  0  0  0  0  0  0  0
    0.9933    0.3343    1.0788 H   0  0  0  0  0  0  0  0  0  0  0  0
  1  2  1  0
  2  3  2  0
  2  4  1  0
  4  5  2  0
  5  6  1  0
  6  7  2  0
  7  8  1  0
  8  9  2  0
  9  4  1  0
  9 10  1  0
 10 11  1  0
 11 12  2  0
 12 13  1  0
 13 14  2  0
 14 15  1  0
 15 16  2  0
 16 11  1  0
 15 17  1  0
 17 18  1  0
 17 19  1  0
 17 20  1  0
  1 21  1  0
  5 22  1  0
  6 23  1  0
  7 24  1  0
 10 25  1  0
 12 26  1  0
 13 27  1  0
 14 28  1  0
 16 29  1  0
M  END
> <ID>
HT1490

> <Class>
0.0

> <Clusters>
179

> <Fold>
1

$$$$