
     RDKit          3D

 46 49  0  0  0  0  0  0  0  0999 V2000
   -2.5202    0.4243   -1.5358 C   0  0  0  0  0  0  0  0  0  0  0  0
   -2.3161    0.4674    0.0141 C   0  0  2  0  0  0  0  0  0  0  0  0
   -1.5966    1.7702    0.4185 C   0  0  0  0  0  0  0  0  0  0  0  0
   -0.1417    1.7922   -0.1080 C   0  0  0  0  0  0  0  0  0  0  0  0
    0.6788    0.5181    0.2628 C   0  0  1  0  0  0  0  0  0  0  0  0
   -0.0946   -0.8060   -0.0429 C   0  0  1  0  0  0  0  0  0  0  0  0
    0.6702   -2.0632    0.4632 C   0  0  0  0  0  0  0  0  0  0  0  0
    2.1536   -1.8338    0.8044 C   0  0  0  0  0  0  0  0  0  0  0  0
    2.8142   -0.7865   -0.0600 C   0  0  0  0  0  0  0  0  0  0  0  0
    4.1265   -0.8863   -0.3280 C   0  0  0  0  0  0  0  0  0  0  0  0
    4.8757    0.2486   -0.8952 C   0  0  0  0  0  0  0  0  0  0  0  0
    6.0805    0.0937   -1.2274 O   0  0  0  0  0  0  0  0  0  0  0  0
    4.2184    1.5874   -1.0873 C   0  0  0  0  0  0  0  0  0  0  0  0
    2.9266    1.7062   -0.2630 C   0  0  0  0  0  0  0  0  0  0  0  0
    2.0430    0.4578   -0.4764 C   0  0  2  0  0  0  0  0  0  0  0  0
   -1.5054   -0.7090    0.5726 C   0  0  2  0  0  0  0  0  0  0  0  0
   -2.4460   -1.9042    0.4688 C   0  0  0  0  0  0  0  0  0  0  0  0
   -3.8421   -1.3022    0.7102 C   0  0  0  0  0  0  0  0  0  0  0  0
   -3.6663    0.2332    0.7194 C   0  0  2  0  0  0  0  0  0  0  0  0
   -4.7293    0.8809    0.0684 O   0  0  0  0  0  0  0  0  0  0  0  0
   -1.5721    0.4674   -2.1031 H   0  0  0  0  0  0  0  0  0  0  0  0
   -3.1224    1.2978   -1.8647 H   0  0  0  0  0  0  0  0  0  0  0  0
   -3.0573   -0.4921   -1.8563 H   0  0  0  0  0  0  0  0  0  0  0  0
   -1.5749    1.8686    1.5267 H   0  0  0  0  0  0  0  0  0  0  0  0
   -2.1481    2.6497    0.0209 H   0  0  0  0  0  0  0  0  0  0  0  0
   -0.1380    1.9432   -1.2078 H   0  0  0  0  0  0  0  0  0  0  0  0
    0.3471    2.6836    0.3389 H   0  0  0  0  0  0  0  0  0  0  0  0
    0.8711    0.5702    1.3592 H   0  0  0  0  0  0  0  0  0  0  0  0
   -0.1839   -0.9199   -1.1436 H   0  0  0  0  0  0  0  0  0  0  0  0
    0.6032   -2.8548   -0.3156 H   0  0  0  0  0  0  0  0  0  0  0  0
    0.1886   -2.4809    1.3738 H   0  0  0  0  0  0  0  0  0  0  0  0
    2.6904   -2.8059    0.7368 H   0  0  0  0  0  0  0  0  0  0  0  0
    2.2278   -1.4931    1.8601 H   0  0  0  0  0  0  0  0  0  0  0  0
    4.6784   -1.7723   -0.0365 H   0  0  0  0  0  0  0  0  0  0  0  0
    3.9831    1.7158   -2.1660 H   0  0  0  0  0  0  0  0  0  0  0  0
    4.9198    2.3949   -0.7857 H   0  0  0  0  0  0  0  0  0  0  0  0
    3.1754    1.8143    0.8160 H   0  0  0  0  0  0  0  0  0  0  0  0
    2.4026    2.6254   -0.5962 H   0  0  0  0  0  0  0  0  0  0  0  0
    1.8391    0.3763   -1.5684 H   0  0  0  0  0  0  0  0  0  0  0  0
   -1.3520   -0.5448    1.6686 H   0  0  0  0  0  0  0  0  0  0  0  0
   -2.2100   -2.6744    1.2346 H   0  0  0  0  0  0  0  0  0  0  0  0
   -2.3848   -2.3648   -0.5413 H   0  0  0  0  0  0  0  0  0  0  0  0
   -4.2543   -1.6451    1.6842 H   0  0  0  0  0  0  0  0  0  0  0  0
   -4.5336   -1.6193   -0.1012 H   0  0  0  0  0  0  0  0  0  0  0  0
   -3.6033    0.5866    1.7766 H   0  0  0  0  0  0  0  0  0  0  0  0
   -5.5211    0.7844    0.6593 H   0  0  0  0  0  0  0  0  0  0  0  0
  2  1  1  6
  2  3  1  0
  3  4  1  0
  5  4  1  0
  5  6  1  0
  6  7  1  0
  7  8  1  0
  8  9  1  0
  9 10  2  0
 10 11  1  0
 11 12  2  0
 11 13  1  0
 13 14  1  0
 15 14  1  0
 15  5  1  0
 15  9  1  0
  6 16  1  0
 16  2  1  0
 16 17  1  0
 17 18  1  0
 18 19  1  0
 19  2  1  0
 19 20  1  0
  1 21  1  0
  1 22  1  0
  1 23  1  0
  3 24  1  0
  3 25  1  0
  4 26  1  0
  4 27  1  0
  5 28  1  1
  6 29  1  6
  7 30  1  0
  7 31  1  0
  8 32  1  0
  8 33  1  0
 10 34  1  0
 13 35  1  0
 13 36  1  0
 14 37  1  0
 14 38  1  0
 15 39  1  6
 16 40  1  1
 17 41  1  0
 17 42  1  0
 18 43  1  0
 18 44  1  0
 19 45  1  1
 20 46  1  0
M  END
> <ID>
HT1462

> <Class>
0.0

> <Clusters>
183

> <Fold>
1

$$$$