
     RDKit          3D

 34 35  0  0  0  0  0  0  0  0999 V2000
   -5.9445    0.0858   -0.2737 C   0  0  0  0  0  0  0  0  0  0  0  0
   -4.4842    0.0887    0.0697 C   0  0  0  0  0  0  0  0  0  0  0  0
   -3.5442   -0.5130   -0.7801 C   0  0  0  0  0  0  0  0  0  0  0  0
   -2.1861   -0.5034   -0.4489 C   0  0  0  0  0  0  0  0  0  0  0  0
   -1.7439    0.1169    0.7336 C   0  0  0  0  0  0  0  0  0  0  0  0
   -2.6922    0.7041    1.5891 C   0  0  0  0  0  0  0  0  0  0  0  0
   -4.0500    0.6944    1.2567 C   0  0  0  0  0  0  0  0  0  0  0  0
   -0.3080    0.1214    1.1041 C   0  0  0  0  0  0  0  0  0  0  0  0
    0.0081    0.1320    2.3244 O   0  0  0  0  0  0  0  0  0  0  0  0
    0.7648    0.1489    0.0816 C   0  0  0  0  0  0  0  0  0  0  0  0
    0.6677    0.7855   -1.1444 C   0  0  0  0  0  0  0  0  0  0  0  0
    1.8966    0.6586   -1.7561 C   0  0  0  0  0  0  0  0  0  0  0  0
    2.6992   -0.0532   -0.8850 C   0  0  0  0  0  0  0  0  0  0  0  0
    4.1526   -0.3637   -1.1332 C   0  0  0  0  0  0  0  0  0  0  0  0
    5.0768    0.4870   -0.3055 C   0  0  0  0  0  0  0  0  0  0  0  0
    4.6296    1.4004    0.4394 O   0  0  0  0  0  0  0  0  0  0  0  0
    6.4504    0.2750   -0.3665 O   0  0  0  0  0  0  0  0  0  0  0  0
    2.0079   -0.3679    0.2367 N   0  0  0  0  0  0  0  0  0  0  0  0
    2.5214   -1.0628    1.4198 C   0  0  0  0  0  0  0  0  0  0  0  0
   -6.1356   -0.4292   -1.2392 H   0  0  0  0  0  0  0  0  0  0  0  0
   -6.3106    1.1310   -0.3543 H   0  0  0  0  0  0  0  0  0  0  0  0
   -6.5140   -0.4376    0.5230 H   0  0  0  0  0  0  0  0  0  0  0  0
   -3.8606   -0.9956   -1.6965 H   0  0  0  0  0  0  0  0  0  0  0  0
   -1.4855   -0.9975   -1.1099 H   0  0  0  0  0  0  0  0  0  0  0  0
   -2.3816    1.1815    2.5103 H   0  0  0  0  0  0  0  0  0  0  0  0
   -4.7642    1.1593    1.9253 H   0  0  0  0  0  0  0  0  0  0  0  0
   -0.1883    1.3194   -1.5360 H   0  0  0  0  0  0  0  0  0  0  0  0
    2.1805    1.0628   -2.7188 H   0  0  0  0  0  0  0  0  0  0  0  0
    4.3439   -1.4350   -0.9168 H   0  0  0  0  0  0  0  0  0  0  0  0
    4.3914   -0.2006   -2.2059 H   0  0  0  0  0  0  0  0  0  0  0  0
    6.8417   -0.4481   -0.9583 H   0  0  0  0  0  0  0  0  0  0  0  0
    3.4300   -1.6503    1.1802 H   0  0  0  0  0  0  0  0  0  0  0  0
    1.7598   -1.7729    1.8051 H   0  0  0  0  0  0  0  0  0  0  0  0
    2.7710   -0.3219    2.2077 H   0  0  0  0  0  0  0  0  0  0  0  0
  1  2  1  0
  2  3  2  0
  3  4  1  0
  4  5  2  0
  5  6  1  0
  6  7  2  0
  7  2  1  0
  5  8  1  0
  8  9  2  0
  8 10  1  0
 10 11  2  0
 11 12  1  0
 12 13  2  0
 13 14  1  0
 14 15  1  0
 15 16  2  0
 15 17  1  0
 13 18  1  0
 18 10  1  0
 18 19  1  0
  1 20  1  0
  1 21  1  0
  1 22  1  0
  3 23  1  0
  4 24  1  0
  6 25  1  0
  7 26  1  0
 11 27  1  0
 12 28  1  0
 14 29  1  0
 14 30  1  0
 17 31  1  0
 19 32  1  0
 19 33  1  0
 19 34  1  0
M  END
> <ID>
HT2084

> <Class>
0.0

> <Clusters>
231

> <Fold>
1

$$$$