
     RDKit          3D

 31 30  0  0  0  0  0  0  0  0999 V2000
   -2.5100    1.0766    1.6149 C   0  0  0  0  0  0  0  0  0  0  0  0
   -1.5528    0.1627    0.8307 C   0  0  0  0  0  0  0  0  0  0  0  0
   -2.2068   -0.3501   -0.4791 C   0  0  0  0  0  0  0  0  0  0  0  0
   -3.4615   -1.2103   -0.2517 C   0  0  0  0  0  0  0  0  0  0  0  0
   -4.5912   -0.4098   -0.0286 O   0  0  0  0  0  0  0  0  0  0  0  0
   -0.2372    0.9276    0.5403 C   0  0  0  0  0  0  0  0  0  0  0  0
    0.9079    0.0086    0.0817 C   0  0  0  0  0  0  0  0  0  0  0  0
    2.2302    0.7810   -0.0106 C   0  0  0  0  0  0  0  0  0  0  0  0
    3.3519   -0.1222   -0.4716 C   0  0  0  0  0  0  0  0  0  0  0  0
    4.3200   -0.4962    0.3783 C   0  0  0  0  0  0  0  0  0  0  0  0
    3.3972   -0.5981   -1.8987 C   0  0  0  0  0  0  0  0  0  0  0  0
   -3.3812    0.5017    1.9900 H   0  0  0  0  0  0  0  0  0  0  0  0
   -2.0015    1.5018    2.5064 H   0  0  0  0  0  0  0  0  0  0  0  0
   -2.8668    1.9122    0.9752 H   0  0  0  0  0  0  0  0  0  0  0  0
   -1.3152   -0.7094    1.4800 H   0  0  0  0  0  0  0  0  0  0  0  0
   -1.4804   -0.9906   -1.0195 H   0  0  0  0  0  0  0  0  0  0  0  0
   -2.4507    0.5042   -1.1483 H   0  0  0  0  0  0  0  0  0  0  0  0
   -3.6334   -1.8587   -1.1413 H   0  0  0  0  0  0  0  0  0  0  0  0
   -3.3133   -1.8833    0.6194 H   0  0  0  0  0  0  0  0  0  0  0  0
   -4.8511   -0.0311   -0.9088 H   0  0  0  0  0  0  0  0  0  0  0  0
   -0.4175    1.7114   -0.2285 H   0  0  0  0  0  0  0  0  0  0  0  0
    0.0930    1.4422    1.4701 H   0  0  0  0  0  0  0  0  0  0  0  0
    1.0268   -0.8274    0.8058 H   0  0  0  0  0  0  0  0  0  0  0  0
    0.6719   -0.4170   -0.9152 H   0  0  0  0  0  0  0  0  0  0  0  0
    2.4656    1.2199    0.9846 H   0  0  0  0  0  0  0  0  0  0  0  0
    2.1279    1.6240   -0.7280 H   0  0  0  0  0  0  0  0  0  0  0  0
    5.1293   -1.1409    0.0482 H   0  0  0  0  0  0  0  0  0  0  0  0
    4.3157   -0.1694    1.4136 H   0  0  0  0  0  0  0  0  0  0  0  0
    3.3197   -1.7055   -1.9281 H   0  0  0  0  0  0  0  0  0  0  0  0
    4.3527   -0.2855   -2.3707 H   0  0  0  0  0  0  0  0  0  0  0  0
    2.5608   -0.1683   -2.4891 H   0  0  0  0  0  0  0  0  0  0  0  0
  1  2  1  0
  2  3  1  0
  3  4  1  0
  4  5  1  0
  2  6  1  0
  6  7  1  0
  7  8  1  0
  8  9  1  0
  9 10  2  3
  9 11  1  0
  1 12  1  0
  1 13  1  0
  1 14  1  0
  2 15  1  0
  3 16  1  0
  3 17  1  0
  4 18  1  0
  4 19  1  0
  5 20  1  0
  6 21  1  0
  6 22  1  0
  7 23  1  0
  7 24  1  0
  8 25  1  0
  8 26  1  0
 10 27  1  0
 10 28  1  0
 11 29  1  0
 11 30  1  0
 11 31  1  0
M  END
> <ID>
HT2659

> <Class>
0.0

> <Clusters>
82

> <Fold>
1

$$$$