
     RDKit          3D

 69 71  0  0  0  0  0  0  0  0999 V2000
    5.1740    1.2301    2.7679 N   0  0  0  0  0  0  0  0  0  0  0  0
    5.6739    1.3004    1.3978 C   0  0  0  0  0  0  0  0  0  0  0  0
    5.5461   -0.0686    0.7051 C   0  0  1  0  0  0  0  0  0  0  0  0
    4.1997   -0.5391    0.7467 O   0  0  0  0  0  0  0  0  0  0  0  0
    3.4444   -0.1172   -0.3756 C   0  0  2  0  0  0  0  0  0  0  0  0
    2.0805   -0.4256   -0.1267 O   0  0  0  0  0  0  0  0  0  0  0  0
    1.2058    0.6355   -0.4803 C   0  0  2  0  0  0  0  0  0  0  0  0
    1.1026    1.6412    0.6938 C   0  0  1  0  0  0  0  0  0  0  0  0
    0.2405    2.7682    0.3255 N   0  0  0  0  0  0  0  0  0  0  0  0
    0.5711    0.9501    1.9771 C   0  0  0  0  0  0  0  0  0  0  0  0
   -0.3503   -0.2645    1.7046 C   0  0  1  0  0  0  0  0  0  0  0  0
   -1.2455   -0.4679    2.8488 N   0  0  0  0  0  0  0  0  0  0  0  0
   -1.1406   -0.0881    0.3870 C   0  0  2  0  0  0  0  0  0  0  0  0
   -1.9811   -1.2176    0.1884 O   0  0  0  0  0  0  0  0  0  0  0  0
   -3.3402   -0.8421    0.0649 C   0  0  1  0  0  0  0  0  0  0  0  0
   -3.5269   -0.0774   -1.1140 O   0  0  0  0  0  0  0  0  0  0  0  0
   -4.8095    0.5447   -1.1549 C   0  0  2  0  0  0  0  0  0  0  0  0
   -4.7366    1.9559   -0.5518 C   0  0  0  0  0  0  0  0  0  0  0  0
   -3.7776    2.7130   -1.2368 O   0  0  0  0  0  0  0  0  0  0  0  0
   -5.9483   -0.3025   -0.5063 C   0  0  1  0  0  0  0  0  0  0  0  0
   -7.1930   -0.0040   -1.0915 O   0  0  0  0  0  0  0  0  0  0  0  0
   -5.6170   -1.8041   -0.6217 C   0  0  2  0  0  0  0  0  0  0  0  0
   -6.6728   -2.6067    0.0013 N   0  0  0  0  0  0  0  0  0  0  0  0
   -4.2241   -2.1113    0.0042 C   0  0  1  0  0  0  0  0  0  0  0  0
   -3.5893   -3.1416   -0.7125 O   0  0  0  0  0  0  0  0  0  0  0  0
   -0.1848    0.0365   -0.8315 C   0  0  1  0  0  0  0  0  0  0  0  0
   -0.8039    0.8426   -1.8064 O   0  0  0  0  0  0  0  0  0  0  0  0
    3.9411   -0.8491   -1.6583 C   0  0  2  0  0  0  0  0  0  0  0  0
    3.2536   -2.1258   -1.8766 N   0  0  0  0  0  0  0  0  0  0  0  0
    5.4651   -1.0934   -1.6105 C   0  0  0  0  0  0  0  0  0  0  0  0
    6.1562   -0.0424   -0.7311 C   0  0  2  0  0  0  0  0  0  0  0  0
    7.5478   -0.2444   -0.6990 O   0  0  0  0  0  0  0  0  0  0  0  0
    5.4354    2.1224    3.2472 H   0  0  0  0  0  0  0  0  0  0  0  0
    4.1283    1.2129    2.7348 H   0  0  0  0  0  0  0  0  0  0  0  0
    6.7467    1.5927    1.4187 H   0  0  0  0  0  0  0  0  0  0  0  0
    5.1200    2.0844    0.8347 H   0  0  0  0  0  0  0  0  0  0  0  0
    6.1396   -0.7894    1.3099 H   0  0  0  0  0  0  0  0  0  0  0  0
    3.6028    0.9797   -0.5225 H   0  0  0  0  0  0  0  0  0  0  0  0
    1.5732    1.1613   -1.3944 H   0  0  0  0  0  0  0  0  0  0  0  0
    2.1167    2.0428    0.9188 H   0  0  0  0  0  0  0  0  0  0  0  0
    0.6364    3.2223   -0.5289 H   0  0  0  0  0  0  0  0  0  0  0  0
    0.2945    3.4892    1.0805 H   0  0  0  0  0  0  0  0  0  0  0  0
    0.0413    1.6982    2.6080 H   0  0  0  0  0  0  0  0  0  0  0  0
    1.4373    0.5947    2.5787 H   0  0  0  0  0  0  0  0  0  0  0  0
    0.2877   -1.1727    1.6059 H   0  0  0  0  0  0  0  0  0  0  0  0
   -1.9655    0.2920    2.8693 H   0  0  0  0  0  0  0  0  0  0  0  0
   -1.7492   -1.3778    2.7265 H   0  0  0  0  0  0  0  0  0  0  0  0
   -1.7059    0.8723    0.4850 H   0  0  0  0  0  0  0  0  0  0  0  0
   -3.6395   -0.2629    0.9717 H   0  0  0  0  0  0  0  0  0  0  0  0
   -5.0560    0.6674   -2.2334 H   0  0  0  0  0  0  0  0  0  0  0  0
   -4.4693    1.8973    0.5259 H   0  0  0  0  0  0  0  0  0  0  0  0
   -5.7290    2.4514   -0.6445 H   0  0  0  0  0  0  0  0  0  0  0  0
   -3.7198    3.5834   -0.7623 H   0  0  0  0  0  0  0  0  0  0  0  0
   -6.0200   -0.0520    0.5758 H   0  0  0  0  0  0  0  0  0  0  0  0
   -7.1675   -0.3189   -2.0351 H   0  0  0  0  0  0  0  0  0  0  0  0
   -5.5887   -2.0551   -1.7064 H   0  0  0  0  0  0  0  0  0  0  0  0
   -6.4446   -3.6188   -0.1334 H   0  0  0  0  0  0  0  0  0  0  0  0
   -6.6902   -2.4223    1.0307 H   0  0  0  0  0  0  0  0  0  0  0  0
   -4.3538   -2.4659    1.0498 H   0  0  0  0  0  0  0  0  0  0  0  0
   -3.3685   -2.7902   -1.6146 H   0  0  0  0  0  0  0  0  0  0  0  0
   -0.0117   -0.9906   -1.2417 H   0  0  0  0  0  0  0  0  0  0  0  0
   -0.8235    0.3306   -2.6576 H   0  0  0  0  0  0  0  0  0  0  0  0
    3.7278   -0.1870   -2.5277 H   0  0  0  0  0  0  0  0  0  0  0  0
    3.2452   -2.6734   -0.9847 H   0  0  0  0  0  0  0  0  0  0  0  0
    2.2598   -1.9348   -2.1433 H   0  0  0  0  0  0  0  0  0  0  0  0
    5.8831   -1.0598   -2.6404 H   0  0  0  0  0  0  0  0  0  0  0  0
    5.6770   -2.1037   -1.1916 H   0  0  0  0  0  0  0  0  0  0  0  0
    5.9747    0.9533   -1.1960 H   0  0  0  0  0  0  0  0  0  0  0  0
    7.7143   -1.1577   -0.3447 H   0  0  0  0  0  0  0  0  0  0  0  0
  1  2  1  0
  3  2  1  0
  3  4  1  0
  4  5  1  0
  5  6  1  0
  7  6  1  0
  7  8  1  0
  8  9  1  0
  8 10  1  0
 10 11  1  0
 11 12  1  0
 11 13  1  0
 13 14  1  0
 15 14  1  0
 15 16  1  0
 16 17  1  0
 17 18  1  0
 18 19  1  0
 17 20  1  0
 20 21  1  0
 20 22  1  0
 22 23  1  0
 22 24  1  0
 24 15  1  0
 24 25  1  0
 13 26  1  0
 26  7  1  0
 26 27  1  0
  5 28  1  0
 28 29  1  0
 28 30  1  0
 30 31  1  0
 31  3  1  0
 31 32  1  0
  1 33  1  0
  1 34  1  0
  2 35  1  0
  2 36  1  0
  3 37  1  1
  5 38  1  6
  7 39  1  6
  8 40  1  1
  9 41  1  0
  9 42  1  0
 10 43  1  0
 10 44  1  0
 11 45  1  6
 12 46  1  0
 12 47  1  0
 13 48  1  1
 15 49  1  1
 17 50  1  6
 18 51  1  0
 18 52  1  0
 19 53  1  0
 20 54  1  1
 21 55  1  0
 22 56  1  6
 23 57  1  0
 23 58  1  0
 24 59  1  1
 25 60  1  0
 26 61  1  6
 27 62  1  0
 28 63  1  6
 29 64  1  0
 29 65  1  0
 30 66  1  0
 30 67  1  0
 31 68  1  6
 32 69  1  0
M  END
> <ID>
HT2073

> <Class>
0.0

> <Clusters>
141

> <Fold>
1

$$$$