
     RDKit          3D

 87 90  0  0  0  0  0  0  0  0999 V2000
    6.5712    2.8748    2.3860 N   0  0  0  0  0  0  0  0  0  0  0  0
    5.8030    1.8427    1.6840 C   0  0  0  0  0  0  0  0  0  0  0  0
    6.6859    0.9945    0.7242 C   0  0  2  0  0  0  0  0  0  0  0  0
    6.0115    0.7059   -0.4983 O   0  0  0  0  0  0  0  0  0  0  0  0
    5.0232   -0.3132   -0.3951 C   0  0  2  0  0  0  0  0  0  0  0  0
    3.9533    0.1159    0.4372 O   0  0  0  0  0  0  0  0  0  0  0  0
    2.7000    0.0897   -0.2267 C   0  0  1  0  0  0  0  0  0  0  0  0
    1.5760    0.0199    0.7784 C   0  0  1  0  0  0  0  0  0  0  0  0
    1.9219    0.6110    2.0113 O   0  0  0  0  0  0  0  0  0  0  0  0
    0.4653    0.8030    0.0843 C   0  0  2  0  0  0  0  0  0  0  0  0
   -0.2752   -0.0519   -0.7729 O   0  0  0  0  0  0  0  0  0  0  0  0
   -1.3553   -0.6923   -0.1042 C   0  0  2  0  0  0  0  0  0  0  0  0
   -1.2221   -2.2341   -0.2613 C   0  0  1  0  0  0  0  0  0  0  0  0
   -1.7686   -2.8554    0.8768 O   0  0  0  0  0  0  0  0  0  0  0  0
   -1.9138   -2.7936   -1.5384 C   0  0  2  0  0  0  0  0  0  0  0  0
   -1.1952   -3.9743   -2.0250 N   0  0  0  0  0  0  0  0  0  0  0  0
   -1.9698   -1.7319   -2.6455 C   0  0  0  0  0  0  0  0  0  0  0  0
   -2.8031   -0.5018   -2.2158 C   0  0  2  0  0  0  0  0  0  0  0  0
   -2.4057    0.6590   -3.0182 N   0  0  0  0  0  0  0  0  0  0  0  0
   -2.6830   -0.1766   -0.6938 C   0  0  1  0  0  0  0  0  0  0  0  0
   -3.7530   -0.7973    0.0075 O   0  0  0  0  0  0  0  0  0  0  0  0
   -4.7338    0.1362    0.4230 C   0  0  1  0  0  0  0  0  0  0  0  0
   -5.4188    0.6514   -0.7062 O   0  0  0  0  0  0  0  0  0  0  0  0
   -6.2479    1.7638   -0.3742 C   0  0  2  0  0  0  0  0  0  0  0  0
   -5.4858    3.0761   -0.6023 C   0  0  0  0  0  0  0  0  0  0  0  0
   -5.0296    3.1295   -1.9244 O   0  0  0  0  0  0  0  0  0  0  0  0
   -6.8723    1.6963    1.0546 C   0  0  1  0  0  0  0  0  0  0  0  0
   -8.1128    2.3546    1.0744 O   0  0  0  0  0  0  0  0  0  0  0  0
   -7.0737    0.2302    1.4581 C   0  0  2  0  0  0  0  0  0  0  0  0
   -7.5894    0.1742    2.7625 O   0  0  0  0  0  0  0  0  0  0  0  0
   -5.7426   -0.5578    1.3767 C   0  0  1  0  0  0  0  0  0  0  0  0
   -6.0254   -1.9376    0.9667 N   0  0  0  0  0  0  0  0  0  0  0  0
    1.0719    1.8004   -0.7038 O   0  0  0  0  0  0  0  0  0  0  0  0
    2.4063    1.4089   -0.9592 C   0  0  2  0  0  0  0  0  0  0  0  0
    2.6185    1.3025   -2.4787 C   0  0  0  0  0  0  0  0  0  0  0  0
    2.2309    2.4940   -3.1082 O   0  0  0  0  0  0  0  0  0  0  0  0
    5.6149   -1.6355    0.1270 C   0  0  2  0  0  0  0  0  0  0  0  0
    4.5738   -2.6652    0.2081 N   0  0  0  0  0  0  0  0  0  0  0  0
    6.2933   -1.4091    1.4899 C   0  0  1  0  0  0  0  0  0  0  0  0
    6.9074   -2.5900    1.9469 O   0  0  0  0  0  0  0  0  0  0  0  0
    7.3218   -0.2708    1.3608 C   0  0  2  0  0  0  0  0  0  0  0  0
    7.8755    0.0320    2.6176 O   0  0  0  0  0  0  0  0  0  0  0  0
    6.9303    3.5627    1.6828 H   0  0  0  0  0  0  0  0  0  0  0  0
    7.3972    2.4460    2.8594 H   0  0  0  0  0  0  0  0  0  0  0  0
    5.0062    2.3574    1.1026 H   0  0  0  0  0  0  0  0  0  0  0  0
    5.3024    1.1949    2.4340 H   0  0  0  0  0  0  0  0  0  0  0  0
    7.5447    1.6378    0.4322 H   0  0  0  0  0  0  0  0  0  0  0  0
    4.7022   -0.5249   -1.4405 H   0  0  0  0  0  0  0  0  0  0  0  0
    2.5847   -0.7962   -0.8997 H   0  0  0  0  0  0  0  0  0  0  0  0
    1.2869   -1.0336    0.9688 H   0  0  0  0  0  0  0  0  0  0  0  0
    2.1568    1.5630    1.8479 H   0  0  0  0  0  0  0  0  0  0  0  0
   -0.1831    1.3216    0.8295 H   0  0  0  0  0  0  0  0  0  0  0  0
   -1.3727   -0.4789    0.9920 H   0  0  0  0  0  0  0  0  0  0  0  0
   -0.1346   -2.4732   -0.3093 H   0  0  0  0  0  0  0  0  0  0  0  0
   -1.4355   -3.7880    0.8904 H   0  0  0  0  0  0  0  0  0  0  0  0
   -2.9612   -3.0865   -1.2926 H   0  0  0  0  0  0  0  0  0  0  0  0
   -1.7236   -4.3714   -2.8337 H   0  0  0  0  0  0  0  0  0  0  0  0
   -1.2211   -4.7135   -1.2836 H   0  0  0  0  0  0  0  0  0  0  0  0
   -0.9321   -1.4262   -2.9020 H   0  0  0  0  0  0  0  0  0  0  0  0
   -2.4224   -2.1660   -3.5628 H   0  0  0  0  0  0  0  0  0  0  0  0
   -3.8700   -0.7263   -2.4423 H   0  0  0  0  0  0  0  0  0  0  0  0
   -3.0950    1.4260   -2.8418 H   0  0  0  0  0  0  0  0  0  0  0  0
   -2.5125    0.4196   -4.0305 H   0  0  0  0  0  0  0  0  0  0  0  0
   -2.6713    0.9346   -0.5605 H   0  0  0  0  0  0  0  0  0  0  0  0
   -4.2361    0.9542    1.0024 H   0  0  0  0  0  0  0  0  0  0  0  0
   -7.0906    1.7490   -1.1008 H   0  0  0  0  0  0  0  0  0  0  0  0
   -6.1602    3.9404   -0.4122 H   0  0  0  0  0  0  0  0  0  0  0  0
   -4.6236    3.1414    0.0946 H   0  0  0  0  0  0  0  0  0  0  0  0
   -4.5481    3.9934   -2.0201 H   0  0  0  0  0  0  0  0  0  0  0  0
   -6.1858    2.1614    1.7992 H   0  0  0  0  0  0  0  0  0  0  0  0
   -7.9229    3.3274    1.1615 H   0  0  0  0  0  0  0  0  0  0  0  0
   -7.8125   -0.2087    0.7479 H   0  0  0  0  0  0  0  0  0  0  0  0
   -7.9112   -0.7557    2.9015 H   0  0  0  0  0  0  0  0  0  0  0  0
   -5.2768   -0.5818    2.3890 H   0  0  0  0  0  0  0  0  0  0  0  0
   -6.2452   -1.9565   -0.0570 H   0  0  0  0  0  0  0  0  0  0  0  0
   -5.1784   -2.5336    1.1253 H   0  0  0  0  0  0  0  0  0  0  0  0
    3.0777    2.2028   -0.5618 H   0  0  0  0  0  0  0  0  0  0  0  0
    3.6856    1.0883   -2.7126 H   0  0  0  0  0  0  0  0  0  0  0  0
    1.9994    0.4732   -2.8842 H   0  0  0  0  0  0  0  0  0  0  0  0
    2.9310    3.1680   -2.8956 H   0  0  0  0  0  0  0  0  0  0  0  0
    6.3836   -1.9697   -0.6063 H   0  0  0  0  0  0  0  0  0  0  0  0
    5.0201   -3.5862    0.4185 H   0  0  0  0  0  0  0  0  0  0  0  0
    3.9216   -2.4480    0.9955 H   0  0  0  0  0  0  0  0  0  0  0  0
    5.5261   -1.1154    2.2402 H   0  0  0  0  0  0  0  0  0  0  0  0
    7.5998   -2.8529    1.2850 H   0  0  0  0  0  0  0  0  0  0  0  0
    8.1377   -0.6044    0.6739 H   0  0  0  0  0  0  0  0  0  0  0  0
    8.5833   -0.6437    2.7902 H   0  0  0  0  0  0  0  0  0  0  0  0
  1  2  1  0
  3  2  1  0
  3  4  1  0
  4  5  1  0
  5  6  1  0
  7  6  1  0
  7  8  1  0
  8  9  1  0
  8 10  1  0
 10 11  1  0
 12 11  1  0
 12 13  1  0
 13 14  1  0
 13 15  1  0
 15 16  1  0
 15 17  1  0
 17 18  1  0
 18 19  1  0
 18 20  1  0
 20 12  1  0
 20 21  1  0
 22 21  1  0
 22 23  1  0
 23 24  1  0
 24 25  1  0
 25 26  1  0
 24 27  1  0
 27 28  1  0
 27 29  1  0
 29 30  1  0
 29 31  1  0
 31 22  1  0
 31 32  1  0
 10 33  1  0
 33 34  1  0
 34  7  1  0
 34 35  1  0
 35 36  1  0
  5 37  1  0
 37 38  1  0
 37 39  1  0
 39 40  1  0
 39 41  1  0
 41  3  1  0
 41 42  1  0
  1 43  1  0
  1 44  1  0
  2 45  1  0
  2 46  1  0
  3 47  1  6
  5 48  1  6
  7 49  1  6
  8 50  1  1
  9 51  1  0
 10 52  1  1
 12 53  1  1
 13 54  1  6
 14 55  1  0
 15 56  1  1
 16 57  1  0
 16 58  1  0
 17 59  1  0
 17 60  1  0
 18 61  1  1
 19 62  1  0
 19 63  1  0
 20 64  1  6
 22 65  1  1
 24 66  1  6
 25 67  1  0
 25 68  1  0
 26 69  1  0
 27 70  1  1
 28 71  1  0
 29 72  1  6
 30 73  1  0
 31 74  1  1
 32 75  1  0
 32 76  1  0
 34 77  1  1
 35 78  1  0
 35 79  1  0
 36 80  1  0
 37 81  1  6
 38 82  1  0
 38 83  1  0
 39 84  1  1
 40 85  1  0
 41 86  1  6
 42 87  1  0
M  END
> <ID>
HT1597

> <Class>
0.0

> <Clusters>
141

> <Fold>
1

$$$$