
     RDKit          3D

 15 15  0  0  0  0  0  0  0  0999 V2000
   -2.3436    1.6836    0.3655 O   0  0  0  0  0  0  0  0  0  0  0  0
   -2.8516    0.4982   -0.1153 N   0  0  0  0  0  0  0  0  0  0  0  0
   -2.0996   -0.5190   -0.4048 C   0  0  0  0  0  0  0  0  0  0  0  0
   -0.6347   -0.5008   -0.2466 C   0  0  0  0  0  0  0  0  0  0  0  0
    0.0645    0.5209    0.1944 O   0  0  0  0  0  0  0  0  0  0  0  0
    1.3300    0.1743    0.2004 C   0  0  0  0  0  0  0  0  0  0  0  0
    1.4821   -1.1223   -0.2515 C   0  0  0  0  0  0  0  0  0  0  0  0
    0.2060   -1.5589   -0.5412 C   0  0  0  0  0  0  0  0  0  0  0  0
    2.3861    1.0401    0.6221 N   0  0  0  0  0  0  0  0  0  0  0  0
    3.5718    0.6507    0.6045 O   0  0  0  0  0  0  0  0  0  0  0  0
    2.0971    2.3138    1.0515 O   0  0  0  0  0  0  0  0  0  0  0  0
   -2.9668    2.4520    0.5786 H   0  0  0  0  0  0  0  0  0  0  0  0
   -2.5686   -1.4198   -0.7787 H   0  0  0  0  0  0  0  0  0  0  0  0
    2.4028   -1.6807   -0.3576 H   0  0  0  0  0  0  0  0  0  0  0  0
   -0.0757   -2.5321   -0.9214 H   0  0  0  0  0  0  0  0  0  0  0  0
  1  2  1  0
  2  3  2  3
  3  4  1  0
  4  5  1  0
  5  6  1  0
  6  7  2  0
  7  8  1  0
  8  4  2  0
  6  9  1  0
  9 10  2  0
  9 11  1  0
  1 12  1  0
  3 13  1  0
  7 14  1  0
  8 15  1  0
M  CHG  2   9   1  11  -1
M  END
> <ID>
HT2656

> <Class>
0.0

> <Clusters>
180

> <Fold>
1

$$$$