
     RDKit          3D

 97102  0  0  0  0  0  0  0  0999 V2000
   -5.1411    3.0367    3.8971 C   0  0  0  0  0  0  0  0  0  0  0  0
   -4.2040    2.5244    2.8581 C   0  0  0  0  0  0  0  0  0  0  0  0
   -3.2523    3.2521    2.4639 O   0  0  0  0  0  0  0  0  0  0  0  0
   -4.3952    1.2436    2.3278 O   0  0  0  0  0  0  0  0  0  0  0  0
   -3.5446    0.6632    1.3374 C   0  0  1  0  0  0  0  0  0  0  0  0
   -2.1964    0.2542    1.9904 C   0  0  0  0  0  0  0  0  0  0  0  0
   -1.9082   -1.2573    1.9001 C   0  0  2  0  0  0  0  0  0  0  0  0
   -0.6275   -1.6622    2.6924 C   0  0  0  0  0  0  0  0  0  0  0  0
    0.6156   -1.9541    1.8393 C   0  0  0  0  0  0  0  0  0  0  0  0
    0.6423   -1.0883    0.5823 C   0  0  2  0  0  0  0  0  0  0  0  0
   -0.5773   -1.3605   -0.3469 C   0  0  2  0  0  0  0  0  0  0  0  0
   -0.6409   -0.1957   -1.3818 C   0  0  0  0  0  0  0  0  0  0  0  0
    0.7296    0.4390   -1.7279 C   0  0  0  0  0  0  0  0  0  0  0  0
    1.9449   -0.5372   -1.6157 C   0  0  2  0  0  0  0  0  0  0  0  0
    1.8819   -1.5489   -2.7900 C   0  0  0  0  0  0  0  0  0  0  0  0
    1.9501   -1.2893   -0.2393 C   0  0  1  0  0  0  0  0  0  0  0  0
    3.2063   -0.8131    0.4979 C   0  0  0  0  0  0  0  0  0  0  0  0
    4.2036   -0.5009   -0.6259 C   0  0  1  0  0  0  0  0  0  0  0  0
    3.3227    0.2108   -1.6821 C   0  0  2  0  0  0  0  0  0  0  0  0
    3.1703    1.5967   -1.3661 O   0  0  0  0  0  0  0  0  0  0  0  0
    3.2713    2.6331   -2.3018 C   0  0  0  0  0  0  0  0  0  0  0  0
    3.4622    2.3901   -3.5243 O   0  0  0  0  0  0  0  0  0  0  0  0
    3.1924    4.0461   -1.8350 C   0  0  0  0  0  0  0  0  0  0  0  0
    5.5221    0.1456   -0.2268 N   0  0  0  0  0  0  0  0  0  0  0  0
    6.2357    0.5329   -1.4779 C   0  0  0  0  0  0  0  0  0  0  0  0
    5.3521    1.3413    0.6638 C   0  0  0  0  0  0  0  0  0  0  0  0
    6.6802    1.9126    1.1936 C   0  0  0  0  0  0  0  0  0  0  0  0
    7.4680    0.8431    1.9419 C   0  0  0  0  0  0  0  0  0  0  0  0
    7.6738   -0.3855    1.0628 C   0  0  0  0  0  0  0  0  0  0  0  0
    6.3341   -0.8940    0.4911 C   0  0  0  0  0  0  0  0  0  0  0  0
   -1.9413   -1.7433    0.4114 C   0  0  1  0  0  0  0  0  0  0  0  0
   -2.0813   -3.2977    0.4449 C   0  0  0  0  0  0  0  0  0  0  0  0
   -3.2556   -1.2155   -0.3159 C   0  0  0  0  0  0  0  0  0  0  0  0
   -4.2804   -0.5071    0.6209 C   0  0  2  0  0  0  0  0  0  0  0  0
   -5.4891    0.0346   -0.0840 N   0  0  0  0  0  0  0  0  0  0  0  0
   -6.6532    0.2303    0.8350 C   0  0  0  0  0  0  0  0  0  0  0  0
   -7.8903   -0.6004    0.4600 C   0  0  0  0  0  0  0  0  0  0  0  0
   -8.3423   -0.3123   -0.9773 C   0  0  0  0  0  0  0  0  0  0  0  0
   -7.1609   -0.0538   -1.9251 C   0  0  0  0  0  0  0  0  0  0  0  0
   -5.8538   -0.6242   -1.3650 C   0  0  0  0  0  0  0  0  0  0  0  0
   -5.9154    2.2740    4.1244 H   0  0  0  0  0  0  0  0  0  0  0  0
   -4.5790    3.2678    4.8257 H   0  0  0  0  0  0  0  0  0  0  0  0
   -5.6399    3.9577    3.5298 H   0  0  0  0  0  0  0  0  0  0  0  0
   -3.3349    1.4329    0.5595 H   0  0  0  0  0  0  0  0  0  0  0  0
   -1.3783    0.8315    1.5142 H   0  0  0  0  0  0  0  0  0  0  0  0
   -2.1998    0.5483    3.0633 H   0  0  0  0  0  0  0  0  0  0  0  0
   -2.7401   -1.7488    2.4534 H   0  0  0  0  0  0  0  0  0  0  0  0
   -0.3722   -0.8716    3.4326 H   0  0  0  0  0  0  0  0  0  0  0  0
   -0.8431   -2.5751    3.2911 H   0  0  0  0  0  0  0  0  0  0  0  0
    1.5115   -1.7436    2.4617 H   0  0  0  0  0  0  0  0  0  0  0  0
    0.6766   -3.0270    1.5659 H   0  0  0  0  0  0  0  0  0  0  0  0
    0.6123   -0.0322    0.9298 H   0  0  0  0  0  0  0  0  0  0  0  0
   -0.3141   -2.2565   -0.9483 H   0  0  0  0  0  0  0  0  0  0  0  0
   -1.1051   -0.5665   -2.3221 H   0  0  0  0  0  0  0  0  0  0  0  0
   -1.2644    0.6316   -0.9799 H   0  0  0  0  0  0  0  0  0  0  0  0
    0.6860    0.8858   -2.7457 H   0  0  0  0  0  0  0  0  0  0  0  0
    0.8652    1.2855   -1.0201 H   0  0  0  0  0  0  0  0  0  0  0  0
    0.9489   -2.1451   -2.7764 H   0  0  0  0  0  0  0  0  0  0  0  0
    2.7391   -2.2547   -2.7483 H   0  0  0  0  0  0  0  0  0  0  0  0
    1.9251   -1.0142   -3.7633 H   0  0  0  0  0  0  0  0  0  0  0  0
    2.0743   -2.3837   -0.4146 H   0  0  0  0  0  0  0  0  0  0  0  0
    3.5755   -1.6058    1.1807 H   0  0  0  0  0  0  0  0  0  0  0  0
    2.9477    0.0959    1.0765 H   0  0  0  0  0  0  0  0  0  0  0  0
    4.4454   -1.4895   -1.0893 H   0  0  0  0  0  0  0  0  0  0  0  0
    3.7906    0.0976   -2.6864 H   0  0  0  0  0  0  0  0  0  0  0  0
    2.6829    4.6731   -2.5969 H   0  0  0  0  0  0  0  0  0  0  0  0
    4.2175    4.4355   -1.6631 H   0  0  0  0  0  0  0  0  0  0  0  0
    2.6195    4.0984   -0.8851 H   0  0  0  0  0  0  0  0  0  0  0  0
    5.7387    1.3869   -1.9818 H   0  0  0  0  0  0  0  0  0  0  0  0
    7.2779    0.8577   -1.3027 H   0  0  0  0  0  0  0  0  0  0  0  0
    6.2817   -0.3181   -2.1942 H   0  0  0  0  0  0  0  0  0  0  0  0
    4.8361    2.1704    0.1461 H   0  0  0  0  0  0  0  0  0  0  0  0
    4.7586    1.0860    1.5643 H   0  0  0  0  0  0  0  0  0  0  0  0
    7.2900    2.3394    0.3705 H   0  0  0  0  0  0  0  0  0  0  0  0
    6.4593    2.7474    1.8935 H   0  0  0  0  0  0  0  0  0  0  0  0
    6.9177    0.5523    2.8640 H   0  0  0  0  0  0  0  0  0  0  0  0
    8.4560    1.2527    2.2450 H   0  0  0  0  0  0  0  0  0  0  0  0
    8.4023   -0.1658    0.2560 H   0  0  0  0  0  0  0  0  0  0  0  0
    8.1264   -1.1910    1.6805 H   0  0  0  0  0  0  0  0  0  0  0  0
    5.7652   -1.3031    1.3532 H   0  0  0  0  0  0  0  0  0  0  0  0
    6.5556   -1.7545   -0.1812 H   0  0  0  0  0  0  0  0  0  0  0  0
   -3.0350   -3.5953    0.9336 H   0  0  0  0  0  0  0  0  0  0  0  0
   -1.2676   -3.7991    0.9973 H   0  0  0  0  0  0  0  0  0  0  0  0
   -2.0882   -3.7143   -0.5860 H   0  0  0  0  0  0  0  0  0  0  0  0
   -3.7652   -2.0644   -0.8186 H   0  0  0  0  0  0  0  0  0  0  0  0
   -3.0536   -0.5216   -1.1417 H   0  0  0  0  0  0  0  0  0  0  0  0
   -4.6114   -1.2638    1.3663 H   0  0  0  0  0  0  0  0  0  0  0  0
   -6.9295    1.3065    0.8209 H   0  0  0  0  0  0  0  0  0  0  0  0
   -6.4112   -0.0212    1.8896 H   0  0  0  0  0  0  0  0  0  0  0  0
   -7.6468   -1.6806    0.5667 H   0  0  0  0  0  0  0  0  0  0  0  0
   -8.7211   -0.3731    1.1625 H   0  0  0  0  0  0  0  0  0  0  0  0
   -9.0119    0.5752   -0.9833 H   0  0  0  0  0  0  0  0  0  0  0  0
   -8.9347   -1.1784   -1.3446 H   0  0  0  0  0  0  0  0  0  0  0  0
   -7.0364    1.0420   -2.0717 H   0  0  0  0  0  0  0  0  0  0  0  0
   -7.3716   -0.5066   -2.9186 H   0  0  0  0  0  0  0  0  0  0  0  0
   -5.0700   -0.4334   -2.1275 H   0  0  0  0  0  0  0  0  0  0  0  0
   -5.9665   -1.7228   -1.2261 H   0  0  0  0  0  0  0  0  0  0  0  0
  1  2  1  0
  2  3  2  0
  2  4  1  0
  5  4  1  0
  5  6  1  0
  7  6  1  0
  7  8  1  0
  8  9  1  0
 10  9  1  0
 10 11  1  0
 11 12  1  0
 12 13  1  0
 13 14  1  0
 14 15  1  6
 14 16  1  0
 16 10  1  0
 16 17  1  0
 17 18  1  0
 18 19  1  0
 19 14  1  0
 19 20  1  0
 20 21  1  0
 21 22  2  0
 21 23  1  0
 18 24  1  0
 24 25  1  0
 24 26  1  0
 26 27  1  0
 27 28  1  0
 28 29  1  0
 29 30  1  0
 30 24  1  0
 11 31  1  0
 31  7  1  0
 31 32  1  1
 31 33  1  0
 33 34  1  0
 34  5  1  0
 34 35  1  0
 35 36  1  0
 36 37  1  0
 37 38  1  0
 38 39  1  0
 39 40  1  0
 40 35  1  0
  1 41  1  0
  1 42  1  0
  1 43  1  0
  5 44  1  6
  6 45  1  0
  6 46  1  0
  7 47  1  1
  8 48  1  0
  8 49  1  0
  9 50  1  0
  9 51  1  0
 10 52  1  1
 11 53  1  6
 12 54  1  0
 12 55  1  0
 13 56  1  0
 13 57  1  0
 15 58  1  0
 15 59  1  0
 15 60  1  0
 16 61  1  6
 17 62  1  0
 17 63  1  0
 18 64  1  6
 19 65  1  6
 23 66  1  0
 23 67  1  0
 23 68  1  0
 25 69  1  0
 25 70  1  0
 25 71  1  0
 26 72  1  0
 26 73  1  0
 27 74  1  0
 27 75  1  0
 28 76  1  0
 28 77  1  0
 29 78  1  0
 29 79  1  0
 30 80  1  0
 30 81  1  0
 32 82  1  0
 32 83  1  0
 32 84  1  0
 33 85  1  0
 33 86  1  0
 34 87  1  1
 36 88  1  0
 36 89  1  0
 37 90  1  0
 37 91  1  0
 38 92  1  0
 38 93  1  0
 39 94  1  0
 39 95  1  0
 40 96  1  0
 40 97  1  0
M  CHG  1  24   1
M  END
> <ID>
HT2170

> <Class>
0.0

> <Clusters>
239

> <Fold>
1

$$$$