
     RDKit          3D

 28 29  0  0  0  0  0  0  0  0999 V2000
   -0.8318    1.5015    1.3759 O   0  0  0  0  0  0  0  0  0  0  0  0
   -1.4900    0.4308    0.7641 C   0  0  0  0  0  0  0  0  0  0  0  0
   -0.7218   -0.5646    0.1237 C   0  0  0  0  0  0  0  0  0  0  0  0
   -1.3637   -1.6324   -0.5209 C   0  0  0  0  0  0  0  0  0  0  0  0
   -2.7564   -1.7045   -0.5517 C   0  0  0  0  0  0  0  0  0  0  0  0
   -3.5466   -3.0360   -1.3765 Cl  0  0  0  0  0  0  0  0  0  0  0  0
   -3.5212   -0.7240    0.0819 C   0  0  0  0  0  0  0  0  0  0  0  0
   -2.9025    0.3379    0.7619 C   0  0  0  0  0  0  0  0  0  0  0  0
   -3.7149    1.2866    1.4703 N   0  0  0  0  0  0  0  0  0  0  0  0
   -4.8267    1.6224    1.0123 O   0  0  0  0  0  0  0  0  0  0  0  0
   -3.3943    1.6409    2.7604 O   0  0  0  0  0  0  0  0  0  0  0  0
    0.7579   -0.4988    0.1162 C   0  0  0  0  0  0  0  0  0  0  0  0
    1.4943   -1.5587    0.6652 C   0  0  0  0  0  0  0  0  0  0  0  0
    2.8889   -1.5300    0.6547 C   0  0  0  0  0  0  0  0  0  0  0  0
    3.7977   -2.8616    1.3466 Cl  0  0  0  0  0  0  0  0  0  0  0  0
    3.5614   -0.4357    0.1087 C   0  0  0  0  0  0  0  0  0  0  0  0
    2.8482    0.6418   -0.4402 C   0  0  0  0  0  0  0  0  0  0  0  0
    1.4329    0.5918   -0.4715 C   0  0  0  0  0  0  0  0  0  0  0  0
    0.6818    1.5793   -1.1162 O   0  0  0  0  0  0  0  0  0  0  0  0
    3.5728    1.7763   -0.9409 N   0  0  0  0  0  0  0  0  0  0  0  0
    3.1916    2.9340   -0.6719 O   0  0  0  0  0  0  0  0  0  0  0  0
    4.8155    1.6018   -1.5052 O   0  0  0  0  0  0  0  0  0  0  0  0
   -1.3120    2.3201    1.7247 H   0  0  0  0  0  0  0  0  0  0  0  0
   -0.7796   -2.3989   -1.0163 H   0  0  0  0  0  0  0  0  0  0  0  0
   -4.6011   -0.8052    0.0703 H   0  0  0  0  0  0  0  0  0  0  0  0
    0.9822   -2.4065    1.1047 H   0  0  0  0  0  0  0  0  0  0  0  0
    4.6439   -0.4147    0.1326 H   0  0  0  0  0  0  0  0  0  0  0  0
    1.0935    2.3066   -1.6853 H   0  0  0  0  0  0  0  0  0  0  0  0
  1  2  1  0
  2  3  2  0
  3  4  1  0
  4  5  2  0
  5  6  1  0
  5  7  1  0
  7  8  2  0
  8  2  1  0
  8  9  1  0
  9 10  2  0
  9 11  1  0
  3 12  1  0
 12 13  2  0
 13 14  1  0
 14 15  1  0
 14 16  2  0
 16 17  1  0
 17 18  2  0
 18 12  1  0
 18 19  1  0
 17 20  1  0
 20 21  2  0
 20 22  1  0
  1 23  1  0
  4 24  1  0
  7 25  1  0
 13 26  1  0
 16 27  1  0
 19 28  1  0
M  CHG  4   9   1  11  -1  20   1  22  -1
M  END
> <ID>
HT1485

> <Class>
0.0

> <Clusters>
74

> <Fold>
1

$$$$