
     RDKit          3D

 27 26  0  0  0  0  0  0  0  0999 V2000
   -3.5427   -0.7873   -0.1630 C   0  0  0  0  0  0  0  0  0  0  0  0
   -2.1925   -0.0989   -0.3443 C   0  0  0  0  0  0  0  0  0  0  0  0
   -1.1975   -0.5456    0.7405 C   0  0  0  0  0  0  0  0  0  0  0  0
    0.2368    0.0175    0.5937 C   0  0  0  0  0  0  0  0  0  0  0  0
    0.9640   -0.5238   -0.6627 C   0  0  0  0  0  0  0  0  0  0  0  0
    2.4466   -0.1159   -0.7535 C   0  0  0  0  0  0  0  0  0  0  0  0
    3.3120   -0.7615    0.3284 C   0  0  0  0  0  0  0  0  0  0  0  0
    0.2712    1.5278    0.6951 C   0  0  0  0  0  0  0  0  0  0  0  0
    0.6545    2.0623    1.7700 O   0  0  0  0  0  0  0  0  0  0  0  0
   -0.0973    2.3647   -0.4043 N   0  0  0  0  0  0  0  0  0  0  0  0
   -3.4299   -1.8889   -0.2518 H   0  0  0  0  0  0  0  0  0  0  0  0
   -4.2463   -0.4390   -0.9484 H   0  0  0  0  0  0  0  0  0  0  0  0
   -3.9714   -0.5412    0.8319 H   0  0  0  0  0  0  0  0  0  0  0  0
   -2.3556    0.9970   -0.2813 H   0  0  0  0  0  0  0  0  0  0  0  0
   -1.8076   -0.3495   -1.3542 H   0  0  0  0  0  0  0  0  0  0  0  0
   -1.5957   -0.2414    1.7341 H   0  0  0  0  0  0  0  0  0  0  0  0
   -1.1398   -1.6568    0.7433 H   0  0  0  0  0  0  0  0  0  0  0  0
    0.7823   -0.3819    1.4765 H   0  0  0  0  0  0  0  0  0  0  0  0
    0.8981   -1.6340   -0.6757 H   0  0  0  0  0  0  0  0  0  0  0  0
    0.4586   -0.1662   -1.5827 H   0  0  0  0  0  0  0  0  0  0  0  0
    2.8345   -0.4392   -1.7439 H   0  0  0  0  0  0  0  0  0  0  0  0
    2.5516    0.9889   -0.7042 H   0  0  0  0  0  0  0  0  0  0  0  0
    3.0789   -0.3346    1.3256 H   0  0  0  0  0  0  0  0  0  0  0  0
    3.1567   -1.8611    0.3482 H   0  0  0  0  0  0  0  0  0  0  0  0
    4.3824   -0.5604    0.1123 H   0  0  0  0  0  0  0  0  0  0  0  0
   -0.0666    3.4033   -0.3024 H   0  0  0  0  0  0  0  0  0  0  0  0
   -0.3853    1.9659   -1.3239 H   0  0  0  0  0  0  0  0  0  0  0  0
  1  2  1  0
  2  3  1  0
  3  4  1  0
  4  5  1  0
  5  6  1  0
  6  7  1  0
  4  8  1  0
  8  9  2  0
  8 10  1  0
  1 11  1  0
  1 12  1  0
  1 13  1  0
  2 14  1  0
  2 15  1  0
  3 16  1  0
  3 17  1  0
  4 18  1  0
  5 19  1  0
  5 20  1  0
  6 21  1  0
  6 22  1  0
  7 23  1  0
  7 24  1  0
  7 25  1  0
 10 26  1  0
 10 27  1  0
M  END
> <ID>
HT2602

> <Class>
0.0

> <Clusters>
82

> <Fold>
1

$$$$