
     RDKit          3D

 88 91  0  0  0  0  0  0  0  0999 V2000
    6.2514    1.0284   -0.6568 S   0  0  0  0  0  0  0  0  0  0  0  0
    5.7097    1.9341    0.6505 O   0  0  0  0  0  0  0  0  0  0  0  0
    5.7912   -0.6856   -0.4466 C   0  0  0  0  0  0  0  0  0  0  0  0
    8.0197    1.2039   -0.8249 C   0  0  0  0  0  0  0  0  0  0  0  0
    8.7403    0.7285    0.4419 C   0  0  0  0  0  0  0  0  0  0  0  0
   10.2737    0.7398    0.2952 C   0  0  0  0  0  0  0  0  0  0  0  0
   10.9244    2.1519    0.2680 C   0  0  0  0  0  0  0  0  0  0  0  0
   10.0136    3.1360    0.6203 F   0  0  0  0  0  0  0  0  0  0  0  0
   11.9520    2.1855    1.1973 F   0  0  0  0  0  0  0  0  0  0  0  0
   11.5191    2.4924   -1.1065 C   0  0  0  0  0  0  0  0  0  0  0  0
   12.0731    3.7595   -1.0685 F   0  0  0  0  0  0  0  0  0  0  0  0
   10.5415    2.4653   -2.0838 F   0  0  0  0  0  0  0  0  0  0  0  0
   12.5118    1.5857   -1.4359 F   0  0  0  0  0  0  0  0  0  0  0  0
    4.4085   -0.9798   -1.0378 C   0  0  0  0  0  0  0  0  0  0  0  0
    3.2730   -0.3298   -0.2286 C   0  0  0  0  0  0  0  0  0  0  0  0
    1.8842   -0.6458   -0.8086 C   0  0  0  0  0  0  0  0  0  0  0  0
    1.4374   -2.0914   -0.5209 C   0  0  0  0  0  0  0  0  0  0  0  0
   -0.0299   -2.3410   -0.9318 C   0  0  0  0  0  0  0  0  0  0  0  0
   -1.0112   -2.3723    0.2539 C   0  0  0  0  0  0  0  0  0  0  0  0
   -1.1668   -1.0009    0.9304 C   0  0  0  0  0  0  0  0  0  0  0  0
   -2.1510   -0.9881    2.1195 C   0  0  0  0  0  0  0  0  0  0  0  0
   -3.6859   -1.0670    1.8443 C   0  0  1  0  0  0  0  0  0  0  0  0
   -4.3031   -0.0001    0.8804 C   0  0  2  0  0  0  0  0  0  0  0  0
   -4.1840   -2.5209    1.5593 C   0  0  0  0  0  0  0  0  0  0  0  0
   -4.2366   -0.5120   -0.5836 C   0  0  2  0  0  0  0  0  0  0  0  0
   -3.7862    1.4635    1.0657 C   0  0  1  0  0  0  0  0  0  0  0  0
   -5.0476   -2.7103    0.3220 C   0  0  0  0  0  0  0  0  0  0  0  0
   -4.3966    0.6200   -1.6332 C   0  0  0  0  0  0  0  0  0  0  0  0
   -5.1642   -1.7155   -0.6822 C   0  0  0  0  0  0  0  0  0  0  0  0
   -4.4827    2.4809    0.1004 C   0  0  2  0  0  0  0  0  0  0  0  0
   -4.0461    1.9959    2.4937 C   0  0  0  0  0  0  0  0  0  0  0  0
   -5.7864   -3.8994    0.2127 C   0  0  0  0  0  0  0  0  0  0  0  0
   -5.2226    1.7848   -1.0871 C   0  0  0  0  0  0  0  0  0  0  0  0
   -6.1118   -1.9021   -1.7132 C   0  0  0  0  0  0  0  0  0  0  0  0
   -3.4190    3.4557   -0.4795 C   0  0  0  0  0  0  0  0  0  0  0  0
   -5.4428    3.2959    1.0049 C   0  0  2  0  0  0  0  0  0  0  0  0
   -4.7513    3.3356    2.3573 C   0  0  0  0  0  0  0  0  0  0  0  0
   -6.6806   -4.0896   -0.8440 C   0  0  0  0  0  0  0  0  0  0  0  0
   -6.8504   -3.0835   -1.7934 C   0  0  0  0  0  0  0  0  0  0  0  0
   -6.6862    2.6571    1.1645 O   0  0  0  0  0  0  0  0  0  0  0  0
   -7.4131   -5.2688   -0.9519 O   0  0  0  0  0  0  0  0  0  0  0  0
    5.8176   -0.9475    0.6324 H   0  0  0  0  0  0  0  0  0  0  0  0
    6.5418   -1.3140   -0.9710 H   0  0  0  0  0  0  0  0  0  0  0  0
    8.3524    0.6086   -1.7015 H   0  0  0  0  0  0  0  0  0  0  0  0
    8.2376    2.2745   -1.0121 H   0  0  0  0  0  0  0  0  0  0  0  0
    8.4298   -0.3171    0.6558 H   0  0  0  0  0  0  0  0  0  0  0  0
    8.4337    1.3463    1.3131 H   0  0  0  0  0  0  0  0  0  0  0  0
   10.5570    0.1450   -0.6016 H   0  0  0  0  0  0  0  0  0  0  0  0
   10.6847    0.1814    1.1656 H   0  0  0  0  0  0  0  0  0  0  0  0
    4.2749   -2.0817   -1.0426 H   0  0  0  0  0  0  0  0  0  0  0  0
    4.3726   -0.6276   -2.0914 H   0  0  0  0  0  0  0  0  0  0  0  0
    3.3222   -0.6576    0.8326 H   0  0  0  0  0  0  0  0  0  0  0  0
    3.4021    0.7734   -0.2460 H   0  0  0  0  0  0  0  0  0  0  0  0
    1.1583    0.0637   -0.3598 H   0  0  0  0  0  0  0  0  0  0  0  0
    1.8829   -0.4630   -1.9058 H   0  0  0  0  0  0  0  0  0  0  0  0
    2.0807   -2.7827   -1.1060 H   0  0  0  0  0  0  0  0  0  0  0  0
    1.5884   -2.3358    0.5539 H   0  0  0  0  0  0  0  0  0  0  0  0
   -0.3712   -1.5971   -1.6856 H   0  0  0  0  0  0  0  0  0  0  0  0
   -0.0850   -3.3348   -1.4288 H   0  0  0  0  0  0  0  0  0  0  0  0
   -1.9858   -2.7075   -0.1491 H   0  0  0  0  0  0  0  0  0  0  0  0
   -0.6765   -3.1262    0.9996 H   0  0  0  0  0  0  0  0  0  0  0  0
   -1.4122   -0.2199    0.1865 H   0  0  0  0  0  0  0  0  0  0  0  0
   -0.1780   -0.7224    1.3523 H   0  0  0  0  0  0  0  0  0  0  0  0
   -1.8705   -1.8061    2.8191 H   0  0  0  0  0  0  0  0  0  0  0  0
   -1.9579   -0.0521    2.6867 H   0  0  0  0  0  0  0  0  0  0  0  0
   -4.1223   -0.8283    2.8395 H   0  0  0  0  0  0  0  0  0  0  0  0
   -5.3878    0.0494    1.1420 H   0  0  0  0  0  0  0  0  0  0  0  0
   -3.3459   -3.2444    1.5277 H   0  0  0  0  0  0  0  0  0  0  0  0
   -4.7942   -2.8413    2.4331 H   0  0  0  0  0  0  0  0  0  0  0  0
   -3.2344   -0.9239   -0.7843 H   0  0  0  0  0  0  0  0  0  0  0  0
   -2.6917    1.4724    0.8864 H   0  0  0  0  0  0  0  0  0  0  0  0
   -3.3860    0.9931   -1.8996 H   0  0  0  0  0  0  0  0  0  0  0  0
   -4.7978    0.2771   -2.6023 H   0  0  0  0  0  0  0  0  0  0  0  0
   -3.0931    2.1169    3.0537 H   0  0  0  0  0  0  0  0  0  0  0  0
   -4.7091    1.3212    3.0755 H   0  0  0  0  0  0  0  0  0  0  0  0
   -5.6814   -4.6723    0.9647 H   0  0  0  0  0  0  0  0  0  0  0  0
   -6.2063    1.3703   -0.7859 H   0  0  0  0  0  0  0  0  0  0  0  0
   -5.4240    2.5140   -1.9015 H   0  0  0  0  0  0  0  0  0  0  0  0
   -6.3057   -1.1579   -2.4670 H   0  0  0  0  0  0  0  0  0  0  0  0
   -2.6502    2.9197   -1.0717 H   0  0  0  0  0  0  0  0  0  0  0  0
   -2.8835    3.9938    0.3294 H   0  0  0  0  0  0  0  0  0  0  0  0
   -3.8965    4.2131   -1.1371 H   0  0  0  0  0  0  0  0  0  0  0  0
   -5.5890    4.3376    0.6309 H   0  0  0  0  0  0  0  0  0  0  0  0
   -4.0042    4.1578    2.3782 H   0  0  0  0  0  0  0  0  0  0  0  0
   -5.4751    3.5020    3.1844 H   0  0  0  0  0  0  0  0  0  0  0  0
   -7.5603   -3.2193   -2.5996 H   0  0  0  0  0  0  0  0  0  0  0  0
   -7.3106    3.0685    0.5111 H   0  0  0  0  0  0  0  0  0  0  0  0
   -7.3191   -6.0154   -0.2731 H   0  0  0  0  0  0  0  0  0  0  0  0
  1  2  1  0
  1  3  1  0
  1  4  1  0
  4  5  1  0
  5  6  1  0
  6  7  1  0
  7  8  1  0
  7  9  1  0
  7 10  1  0
 10 11  1  0
 10 12  1  0
 10 13  1  0
 14  3  1  0
 15 14  1  0
 16 15  1  0
 17 16  1  0
 18 17  1  0
 19 18  1  0
 20 19  1  0
 21 20  1  0
 22 21  1  0
 23 22  1  0
 22 24  1  0
 25 23  1  0
 23 26  1  0
 24 27  1  0
 25 28  1  0
 29 25  1  0
 26 30  1  0
 26 31  1  0
 27 32  2  0
 29 27  1  0
 33 28  1  0
 34 29  2  0
 30 35  1  6
 30 33  1  0
 36 30  1  0
 31 37  1  0
 32 38  1  0
 39 34  1  0
 37 36  1  0
 36 40  1  0
 38 41  1  0
 38 39  2  0
  3 42  1  0
  3 43  1  0
  4 44  1  0
  4 45  1  0
  5 46  1  0
  5 47  1  0
  6 48  1  0
  6 49  1  0
 14 50  1  0
 14 51  1  0
 15 52  1  0
 15 53  1  0
 16 54  1  0
 16 55  1  0
 17 56  1  0
 17 57  1  0
 18 58  1  0
 18 59  1  0
 19 60  1  0
 19 61  1  0
 20 62  1  0
 20 63  1  0
 21 64  1  0
 21 65  1  0
 22 66  1  1
 23 67  1  1
 24 68  1  0
 24 69  1  0
 25 70  1  6
 26 71  1  6
 28 72  1  0
 28 73  1  0
 31 74  1  0
 31 75  1  0
 32 76  1  0
 33 77  1  0
 33 78  1  0
 34 79  1  0
 35 80  1  0
 35 81  1  0
 35 82  1  0
 36 83  1  6
 37 84  1  0
 37 85  1  0
 39 86  1  0
 40 87  1  0
 41 88  1  0
M  CHG  2   1   1   2  -1
M  END
> <ID>
HT3952

> <Class>
0.0

> <Clusters>
112

> <Fold>
1

$$$$