
     RDKit          3D

 36 38  0  0  0  0  0  0  0  0999 V2000
   -0.8301    3.3754   -0.3340 O   0  0  0  0  0  0  0  0  0  0  0  0
   -1.9105    2.9974   -1.1257 C   0  0  0  0  0  0  0  0  0  0  0  0
   -3.0057    3.6132   -1.0310 O   0  0  0  0  0  0  0  0  0  0  0  0
   -1.7617    1.8745   -2.1046 C   0  0  0  0  0  0  0  0  0  0  0  0
   -1.3097    0.6160   -1.4091 C   0  0  0  0  0  0  0  0  0  0  0  0
   -0.0179    0.2310   -1.5756 N   0  0  0  0  0  0  0  0  0  0  0  0
    0.4988   -0.8542   -0.9956 N   0  0  0  0  0  0  0  0  0  0  0  0
    1.9194   -1.1458   -1.2187 C   0  0  0  0  0  0  0  0  0  0  0  0
    2.7422   -0.6562   -0.0536 C   0  0  0  0  0  0  0  0  0  0  0  0
    2.8196    0.7221    0.2099 C   0  0  0  0  0  0  0  0  0  0  0  0
    3.5695    1.1947    1.2905 C   0  0  0  0  0  0  0  0  0  0  0  0
    4.2506    0.2969    2.1170 C   0  0  0  0  0  0  0  0  0  0  0  0
    5.2738    0.9448    3.5937 Br  0  0  0  0  0  0  0  0  0  0  0  0
    4.1822   -1.0760    1.8615 C   0  0  0  0  0  0  0  0  0  0  0  0
    3.4330   -1.5554    0.7816 C   0  0  0  0  0  0  0  0  0  0  0  0
    3.3804   -2.8931    0.5588 F   0  0  0  0  0  0  0  0  0  0  0  0
   -0.2670   -1.6394   -0.1774 C   0  0  0  0  0  0  0  0  0  0  0  0
    0.2363   -2.6557    0.3794 O   0  0  0  0  0  0  0  0  0  0  0  0
   -1.6154   -1.3085    0.0422 C   0  0  0  0  0  0  0  0  0  0  0  0
   -2.4349   -2.0968    0.8742 C   0  0  0  0  0  0  0  0  0  0  0  0
   -3.7712   -1.7522    1.0800 C   0  0  0  0  0  0  0  0  0  0  0  0
   -4.3061   -0.6233    0.4619 C   0  0  0  0  0  0  0  0  0  0  0  0
   -3.5087    0.1701   -0.3652 C   0  0  0  0  0  0  0  0  0  0  0  0
   -2.1541   -0.1593   -0.5844 C   0  0  0  0  0  0  0  0  0  0  0  0
   -0.9132    4.1361    0.3297 H   0  0  0  0  0  0  0  0  0  0  0  0
   -1.0021    2.1791   -2.8566 H   0  0  0  0  0  0  0  0  0  0  0  0
   -2.7069    1.6928   -2.6598 H   0  0  0  0  0  0  0  0  0  0  0  0
    2.2720   -0.6406   -2.1451 H   0  0  0  0  0  0  0  0  0  0  0  0
    2.0579   -2.2350   -1.3923 H   0  0  0  0  0  0  0  0  0  0  0  0
    2.2984    1.4308   -0.4217 H   0  0  0  0  0  0  0  0  0  0  0  0
    3.6203    2.2585    1.4843 H   0  0  0  0  0  0  0  0  0  0  0  0
    4.7092   -1.7725    2.5010 H   0  0  0  0  0  0  0  0  0  0  0  0
   -2.0462   -2.9799    1.3664 H   0  0  0  0  0  0  0  0  0  0  0  0
   -4.3944   -2.3632    1.7204 H   0  0  0  0  0  0  0  0  0  0  0  0
   -5.3438   -0.3613    0.6239 H   0  0  0  0  0  0  0  0  0  0  0  0
   -3.9642    1.0348   -0.8260 H   0  0  0  0  0  0  0  0  0  0  0  0
  1  2  1  0
  2  3  2  0
  2  4  1  0
  4  5  1  0
  5  6  2  0
  6  7  1  0
  7  8  1  0
  8  9  1  0
  9 10  2  0
 10 11  1  0
 11 12  2  0
 12 13  1  0
 12 14  1  0
 14 15  2  0
 15  9  1  0
 15 16  1  0
  7 17  1  0
 17 18  2  0
 17 19  1  0
 19 20  2  0
 20 21  1  0
 21 22  2  0
 22 23  1  0
 23 24  2  0
 24  5  1  0
 24 19  1  0
  1 25  1  0
  4 26  1  0
  4 27  1  0
  8 28  1  0
  8 29  1  0
 10 30  1  0
 11 31  1  0
 14 32  1  0
 20 33  1  0
 21 34  1  0
 22 35  1  0
 23 36  1  0
M  END
> <ID>
HT1709

> <Class>
0.0

> <Clusters>
201

> <Fold>
1

$$$$