
     RDKit          3D

 54 56  0  0  0  0  0  0  0  0999 V2000
    4.0238   -1.6622    1.1386 C   0  0  0  0  0  0  0  0  0  0  0  0
    4.1925   -0.2612    0.5241 C   0  0  0  0  0  0  0  0  0  0  0  0
    3.2472    0.7905    1.0321 N   0  0  0  0  0  0  0  0  0  0  0  0
    3.5241    1.0396    2.4721 C   0  0  0  0  0  0  0  0  0  0  0  0
    3.4919    2.0761    0.3059 C   0  0  0  0  0  0  0  0  0  0  0  0
    3.0424    2.0536   -1.1694 C   0  0  0  0  0  0  0  0  0  0  0  0
    1.5859    1.6097   -1.2987 C   0  0  0  0  0  0  0  0  0  0  0  0
    1.3480    0.2882   -0.5668 C   0  0  0  0  0  0  0  0  0  0  0  0
    1.8094    0.4084    0.8964 C   0  0  0  0  0  0  0  0  0  0  0  0
   -0.0498   -0.0008   -0.5825 O   0  0  0  0  0  0  0  0  0  0  0  0
   -0.6170   -1.1504   -1.1486 C   0  0  0  0  0  0  0  0  0  0  0  0
    0.1102   -2.0109   -1.7179 O   0  0  0  0  0  0  0  0  0  0  0  0
   -2.1153   -1.3664   -1.0397 C   0  0  0  0  0  0  0  0  0  0  0  0
   -2.4676   -2.5664   -1.6932 O   0  0  0  0  0  0  0  0  0  0  0  0
   -2.9352   -0.2282   -1.6686 C   0  0  0  0  0  0  0  0  0  0  0  0
   -4.3297   -0.1906   -1.4586 C   0  0  0  0  0  0  0  0  0  0  0  0
   -5.1143    0.8101   -2.0380 C   0  0  0  0  0  0  0  0  0  0  0  0
   -4.5261    1.7763   -2.8546 C   0  0  0  0  0  0  0  0  0  0  0  0
   -3.1537    1.7364   -3.1034 C   0  0  0  0  0  0  0  0  0  0  0  0
   -2.3626    0.7380   -2.5273 C   0  0  0  0  0  0  0  0  0  0  0  0
   -2.4277   -1.4887    0.4540 C   0  0  0  0  0  0  0  0  0  0  0  0
   -2.4503   -0.3395    1.2747 C   0  0  0  0  0  0  0  0  0  0  0  0
   -2.6959   -0.4460    2.6460 C   0  0  0  0  0  0  0  0  0  0  0  0
   -2.9105   -1.6977    3.2239 C   0  0  0  0  0  0  0  0  0  0  0  0
   -2.8734   -2.8467    2.4326 C   0  0  0  0  0  0  0  0  0  0  0  0
   -2.6274   -2.7480    1.0598 C   0  0  0  0  0  0  0  0  0  0  0  0
    3.0520   -2.1147    0.8554 H   0  0  0  0  0  0  0  0  0  0  0  0
    4.8182   -2.3256    0.7359 H   0  0  0  0  0  0  0  0  0  0  0  0
    4.1363   -1.6516    2.2402 H   0  0  0  0  0  0  0  0  0  0  0  0
    4.1072   -0.3887   -0.5724 H   0  0  0  0  0  0  0  0  0  0  0  0
    5.2449    0.0572    0.7028 H   0  0  0  0  0  0  0  0  0  0  0  0
    2.9433    1.9094    2.8541 H   0  0  0  0  0  0  0  0  0  0  0  0
    3.2303    0.1750    3.1042 H   0  0  0  0  0  0  0  0  0  0  0  0
    4.6025    1.2541    2.6457 H   0  0  0  0  0  0  0  0  0  0  0  0
    2.9425    2.9125    0.7979 H   0  0  0  0  0  0  0  0  0  0  0  0
    4.5719    2.3470    0.3413 H   0  0  0  0  0  0  0  0  0  0  0  0
    3.1419    3.0775   -1.5902 H   0  0  0  0  0  0  0  0  0  0  0  0
    3.6977    1.3977   -1.7785 H   0  0  0  0  0  0  0  0  0  0  0  0
    1.3309    1.4894   -2.3739 H   0  0  0  0  0  0  0  0  0  0  0  0
    0.9225    2.3969   -0.8760 H   0  0  0  0  0  0  0  0  0  0  0  0
    1.9186   -0.5169   -1.0753 H   0  0  0  0  0  0  0  0  0  0  0  0
    1.1657    1.1751    1.3891 H   0  0  0  0  0  0  0  0  0  0  0  0
    1.5893   -0.5408    1.4294 H   0  0  0  0  0  0  0  0  0  0  0  0
   -2.2882   -2.4519   -2.6645 H   0  0  0  0  0  0  0  0  0  0  0  0
   -4.8109   -0.9385   -0.8406 H   0  0  0  0  0  0  0  0  0  0  0  0
   -6.1813    0.8326   -1.8574 H   0  0  0  0  0  0  0  0  0  0  0  0
   -5.1358    2.5493   -3.3043 H   0  0  0  0  0  0  0  0  0  0  0  0
   -2.7019    2.4762   -3.7517 H   0  0  0  0  0  0  0  0  0  0  0  0
   -1.3091    0.7257   -2.7691 H   0  0  0  0  0  0  0  0  0  0  0  0
   -2.2766    0.6422    0.8521 H   0  0  0  0  0  0  0  0  0  0  0  0
   -2.7156    0.4438    3.2620 H   0  0  0  0  0  0  0  0  0  0  0  0
   -3.0989   -1.7781    4.2867 H   0  0  0  0  0  0  0  0  0  0  0  0
   -3.0296   -3.8177    2.8847 H   0  0  0  0  0  0  0  0  0  0  0  0
   -2.5869   -3.6604    0.4796 H   0  0  0  0  0  0  0  0  0  0  0  0
  1  2  1  0
  2  3  1  0
  3  4  1  0
  3  5  1  0
  5  6  1  0
  6  7  1  0
  7  8  1  0
  8  9  1  0
  9  3  1  0
  8 10  1  0
 10 11  1  0
 11 12  2  0
 11 13  1  0
 13 14  1  0
 13 15  1  0
 15 16  2  0
 16 17  1  0
 17 18  2  0
 18 19  1  0
 19 20  2  0
 20 15  1  0
 13 21  1  0
 21 22  2  0
 22 23  1  0
 23 24  2  0
 24 25  1  0
 25 26  2  0
 26 21  1  0
  1 27  1  0
  1 28  1  0
  1 29  1  0
  2 30  1  0
  2 31  1  0
  4 32  1  0
  4 33  1  0
  4 34  1  0
  5 35  1  0
  5 36  1  0
  6 37  1  0
  6 38  1  0
  7 39  1  0
  7 40  1  0
  8 41  1  0
  9 42  1  0
  9 43  1  0
 14 44  1  0
 16 45  1  0
 17 46  1  0
 18 47  1  0
 19 48  1  0
 20 49  1  0
 22 50  1  0
 23 51  1  0
 24 52  1  0
 25 53  1  0
 26 54  1  0
M  CHG  1   3   1
M  END
> <ID>
HT3614

> <Class>
0.0

> <Clusters>
155

> <Fold>
1

$$$$