
     RDKit          3D

101106  0  0  0  0  0  0  0  0999 V2000
   -7.1386    2.9725   -2.4635 C   0  0  0  0  0  0  0  0  0  0  0  0
   -6.4265    1.6725   -2.2987 C   0  0  0  0  0  0  0  0  0  0  0  0
   -6.7109    0.7005   -3.0514 O   0  0  0  0  0  0  0  0  0  0  0  0
   -5.4702    1.5443   -1.2848 O   0  0  0  0  0  0  0  0  0  0  0  0
   -4.7040    0.3529   -1.0514 C   0  0  1  0  0  0  0  0  0  0  0  0
   -3.5705    0.3221   -2.1052 C   0  0  0  0  0  0  0  0  0  0  0  0
   -2.1785    0.5746   -1.5143 C   0  0  2  0  0  0  0  0  0  0  0  0
   -1.1280    0.6573   -2.6401 C   0  0  0  0  0  0  0  0  0  0  0  0
    0.2597    0.9783   -2.0842 C   0  0  0  0  0  0  0  0  0  0  0  0
    0.6973   -0.0590   -1.0347 C   0  0  2  0  0  0  0  0  0  0  0  0
   -0.3681   -0.1568    0.1103 C   0  0  2  0  0  0  0  0  0  0  0  0
    0.1144   -1.0823    1.2786 C   0  0  0  0  0  0  0  0  0  0  0  0
    1.5288   -0.7179    1.7936 C   0  0  0  0  0  0  0  0  0  0  0  0
    2.5534   -0.6617    0.6351 C   0  0  1  0  0  0  0  0  0  0  0  0
    2.7607   -2.0948    0.0464 C   0  0  0  0  0  0  0  0  0  0  0  0
    2.0415    0.3548   -0.3922 C   0  0  1  0  0  0  0  0  0  0  0  0
    3.2471    0.6483   -1.2741 C   0  0  0  0  0  0  0  0  0  0  0  0
    4.4059    0.7601   -0.2438 C   0  0  1  0  0  0  0  0  0  0  0  0
    3.9195   -0.0379    1.0281 C   0  0  2  0  0  0  0  0  0  0  0  0
    4.8392   -1.0279    1.4937 O   0  0  0  0  0  0  0  0  0  0  0  0
    5.2764   -1.1416    2.8202 C   0  0  0  0  0  0  0  0  0  0  0  0
    4.8534   -0.3601    3.7162 O   0  0  0  0  0  0  0  0  0  0  0  0
    6.2930   -2.1745    3.1665 C   0  0  0  0  0  0  0  0  0  0  0  0
    5.8034    0.5045   -0.7779 N   0  0  0  0  0  0  0  0  0  0  0  0
    5.9513   -0.8787   -1.3143 C   0  0  0  0  0  0  0  0  0  0  0  0
    6.0388    1.4707   -1.9013 C   0  0  0  0  0  0  0  0  0  0  0  0
    7.4764    1.4402   -2.4706 C   0  0  0  0  0  0  0  0  0  0  0  0
    8.5527    1.2762   -1.3932 C   0  0  0  0  0  0  0  0  0  0  0  0
    8.0064    1.6182   -0.0149 C   0  0  0  0  0  0  0  0  0  0  0  0
    6.8008    0.7250    0.3378 C   0  0  0  0  0  0  0  0  0  0  0  0
   -1.8212   -0.4833   -0.4270 C   0  0  2  0  0  0  0  0  0  0  0  0
   -1.8915   -1.9372   -0.9943 C   0  0  0  0  0  0  0  0  0  0  0  0
   -2.8594   -0.3655    0.7398 C   0  0  0  0  0  0  0  0  0  0  0  0
   -4.2409    0.3464    0.4593 C   0  0  2  0  0  0  0  0  0  0  0  0
   -5.3223   -0.0983    1.4408 N   0  0  0  0  0  0  0  0  0  0  0  0
   -4.8426    0.1960    2.8286 C   0  0  0  0  0  0  0  0  0  0  0  0
   -5.5931   -1.5818    1.3175 C   0  0  0  0  0  0  0  0  0  0  0  0
   -7.0844   -1.9796    1.3309 C   0  0  0  0  0  0  0  0  0  0  0  0
   -7.8555   -1.1983    2.3912 C   0  0  0  0  0  0  0  0  0  0  0  0
   -7.7432    0.3172    2.1690 C   0  0  0  0  0  0  0  0  0  0  0  0
   -6.5761    0.7025    1.2294 C   0  0  0  0  0  0  0  0  0  0  0  0
   -7.6800    3.2101   -1.5248 H   0  0  0  0  0  0  0  0  0  0  0  0
   -6.3961    3.7733   -2.6697 H   0  0  0  0  0  0  0  0  0  0  0  0
   -7.8691    2.9203   -3.3013 H   0  0  0  0  0  0  0  0  0  0  0  0
   -5.3540   -0.5311   -1.2369 H   0  0  0  0  0  0  0  0  0  0  0  0
   -3.7625    1.0974   -2.8832 H   0  0  0  0  0  0  0  0  0  0  0  0
   -3.5973   -0.6391   -2.6613 H   0  0  0  0  0  0  0  0  0  0  0  0
   -2.2000    1.5808   -1.0326 H   0  0  0  0  0  0  0  0  0  0  0  0
   -1.4125    1.4636   -3.3504 H   0  0  0  0  0  0  0  0  0  0  0  0
   -1.0949   -0.2860   -3.2240 H   0  0  0  0  0  0  0  0  0  0  0  0
    0.2499    1.9980   -1.6409 H   0  0  0  0  0  0  0  0  0  0  0  0
    0.9801    0.9859   -2.9299 H   0  0  0  0  0  0  0  0  0  0  0  0
    0.8096   -1.0309   -1.5546 H   0  0  0  0  0  0  0  0  0  0  0  0
   -0.4300    0.8644    0.5566 H   0  0  0  0  0  0  0  0  0  0  0  0
   -0.5807   -1.0009    2.1397 H   0  0  0  0  0  0  0  0  0  0  0  0
    0.1105   -2.1471    0.9809 H   0  0  0  0  0  0  0  0  0  0  0  0
    1.8538   -1.4655    2.5498 H   0  0  0  0  0  0  0  0  0  0  0  0
    1.4718    0.2679    2.3061 H   0  0  0  0  0  0  0  0  0  0  0  0
    1.8268   -2.5548   -0.3273 H   0  0  0  0  0  0  0  0  0  0  0  0
    3.1583   -2.7770    0.8264 H   0  0  0  0  0  0  0  0  0  0  0  0
    3.4664   -2.0969   -0.8013 H   0  0  0  0  0  0  0  0  0  0  0  0
    1.8377    1.3175    0.1431 H   0  0  0  0  0  0  0  0  0  0  0  0
    3.3756   -0.1662   -2.0120 H   0  0  0  0  0  0  0  0  0  0  0  0
    3.1098    1.6047   -1.8241 H   0  0  0  0  0  0  0  0  0  0  0  0
    4.3745    1.8305    0.0775 H   0  0  0  0  0  0  0  0  0  0  0  0
    3.7405    0.7123    1.8354 H   0  0  0  0  0  0  0  0  0  0  0  0
    6.2776   -2.9937    2.4149 H   0  0  0  0  0  0  0  0  0  0  0  0
    6.0744   -2.6013    4.1663 H   0  0  0  0  0  0  0  0  0  0  0  0
    7.3044   -1.7153    3.1759 H   0  0  0  0  0  0  0  0  0  0  0  0
    7.0007   -1.0844   -1.6124 H   0  0  0  0  0  0  0  0  0  0  0  0
    5.3362   -1.0506   -2.2201 H   0  0  0  0  0  0  0  0  0  0  0  0
    5.7053   -1.6593   -0.5703 H   0  0  0  0  0  0  0  0  0  0  0  0
    5.3435    1.2794   -2.7487 H   0  0  0  0  0  0  0  0  0  0  0  0
    5.8344    2.5126   -1.5596 H   0  0  0  0  0  0  0  0  0  0  0  0
    7.5707    0.6204   -3.2120 H   0  0  0  0  0  0  0  0  0  0  0  0
    7.6500    2.3908   -3.0179 H   0  0  0  0  0  0  0  0  0  0  0  0
    8.9349    0.2327   -1.3868 H   0  0  0  0  0  0  0  0  0  0  0  0
    9.4123    1.9434   -1.6204 H   0  0  0  0  0  0  0  0  0  0  0  0
    8.8067    1.4744    0.7468 H   0  0  0  0  0  0  0  0  0  0  0  0
    7.7009    2.6899    0.0114 H   0  0  0  0  0  0  0  0  0  0  0  0
    6.3289    1.2034    1.2260 H   0  0  0  0  0  0  0  0  0  0  0  0
    7.2017   -0.2430    0.7187 H   0  0  0  0  0  0  0  0  0  0  0  0
   -1.6076   -2.6892   -0.2317 H   0  0  0  0  0  0  0  0  0  0  0  0
   -1.2296   -2.0824   -1.8723 H   0  0  0  0  0  0  0  0  0  0  0  0
   -2.9302   -2.2087   -1.2793 H   0  0  0  0  0  0  0  0  0  0  0  0
   -2.3951    0.2236    1.5614 H   0  0  0  0  0  0  0  0  0  0  0  0
   -3.0152   -1.3718    1.1835 H   0  0  0  0  0  0  0  0  0  0  0  0
   -4.0285    1.4248    0.6621 H   0  0  0  0  0  0  0  0  0  0  0  0
   -4.5977    1.2752    2.9540 H   0  0  0  0  0  0  0  0  0  0  0  0
   -3.9410   -0.3953    3.1003 H   0  0  0  0  0  0  0  0  0  0  0  0
   -5.5905   -0.0743    3.5994 H   0  0  0  0  0  0  0  0  0  0  0  0
   -5.0950   -2.1567    2.1342 H   0  0  0  0  0  0  0  0  0  0  0  0
   -5.1568   -2.0090    0.3876 H   0  0  0  0  0  0  0  0  0  0  0  0
   -7.1758   -3.0703    1.5359 H   0  0  0  0  0  0  0  0  0  0  0  0
   -7.5336   -1.7903    0.3310 H   0  0  0  0  0  0  0  0  0  0  0  0
   -8.9260   -1.4997    2.3659 H   0  0  0  0  0  0  0  0  0  0  0  0
   -7.4630   -1.4635    3.3961 H   0  0  0  0  0  0  0  0  0  0  0  0
   -8.6894    0.6917    1.7169 H   0  0  0  0  0  0  0  0  0  0  0  0
   -7.6429    0.8370    3.1476 H   0  0  0  0  0  0  0  0  0  0  0  0
   -6.3729    1.7930    1.3343 H   0  0  0  0  0  0  0  0  0  0  0  0
   -6.9751    0.5372    0.2077 H   0  0  0  0  0  0  0  0  0  0  0  0
  1  2  1  0
  2  3  2  0
  2  4  1  0
  5  4  1  0
  5  6  1  0
  7  6  1  0
  7  8  1  0
  8  9  1  0
 10  9  1  0
 10 11  1  0
 11 12  1  0
 12 13  1  0
 13 14  1  0
 14 15  1  6
 14 16  1  0
 16 10  1  0
 16 17  1  0
 17 18  1  0
 18 19  1  0
 19 14  1  0
 19 20  1  0
 20 21  1  0
 21 22  2  0
 21 23  1  0
 18 24  1  0
 24 25  1  0
 24 26  1  0
 26 27  1  0
 27 28  1  0
 28 29  1  0
 29 30  1  0
 30 24  1  0
 11 31  1  0
 31  7  1  0
 31 32  1  6
 31 33  1  0
 33 34  1  0
 34  5  1  0
 34 35  1  0
 35 36  1  0
 35 37  1  0
 37 38  1  0
 38 39  1  0
 39 40  1  0
 40 41  1  0
 41 35  1  0
  1 42  1  0
  1 43  1  0
  1 44  1  0
  5 45  1  1
  6 46  1  0
  6 47  1  0
  7 48  1  1
  8 49  1  0
  8 50  1  0
  9 51  1  0
  9 52  1  0
 10 53  1  6
 11 54  1  1
 12 55  1  0
 12 56  1  0
 13 57  1  0
 13 58  1  0
 15 59  1  0
 15 60  1  0
 15 61  1  0
 16 62  1  1
 17 63  1  0
 17 64  1  0
 18 65  1  1
 19 66  1  1
 23 67  1  0
 23 68  1  0
 23 69  1  0
 25 70  1  0
 25 71  1  0
 25 72  1  0
 26 73  1  0
 26 74  1  0
 27 75  1  0
 27 76  1  0
 28 77  1  0
 28 78  1  0
 29 79  1  0
 29 80  1  0
 30 81  1  0
 30 82  1  0
 32 83  1  0
 32 84  1  0
 32 85  1  0
 33 86  1  0
 33 87  1  0
 34 88  1  1
 36 89  1  0
 36 90  1  0
 36 91  1  0
 37 92  1  0
 37 93  1  0
 38 94  1  0
 38 95  1  0
 39 96  1  0
 39 97  1  0
 40 98  1  0
 40 99  1  0
 41100  1  0
 41101  1  0
M  CHG  2  24   1  35   1
M  END
> <ID>
HT1585

> <Class>
0.0

> <Clusters>
239

> <Fold>
1

$$$$