
     RDKit          3D

 27 29  0  0  0  0  0  0  0  0999 V2000
    0.9990    3.1539    0.4474 Br  0  0  0  0  0  0  0  0  0  0  0  0
    1.2345    1.2475    0.3625 C   0  0  0  0  0  0  0  0  0  0  0  0
    0.1477    0.3772    0.5896 C   0  0  0  0  0  0  0  0  0  0  0  0
   -1.1389    0.9025    0.9537 N   0  0  0  0  0  0  0  0  0  0  0  0
   -2.3745    0.3860    0.4424 C   0  0  0  0  0  0  0  0  0  0  0  0
   -3.5097    0.6862    0.9687 N   0  0  0  0  0  0  0  0  0  0  0  0
   -4.5813    0.0539    0.2082 C   0  0  0  0  0  0  0  0  0  0  0  0
   -3.8777   -0.6785   -0.9463 C   0  0  0  0  0  0  0  0  0  0  0  0
   -2.4704   -0.4222   -0.7152 N   0  0  0  0  0  0  0  0  0  0  0  0
    0.3474   -1.0136    0.5166 C   0  0  0  0  0  0  0  0  0  0  0  0
    1.6013   -1.5378    0.1954 C   0  0  0  0  0  0  0  0  0  0  0  0
    2.6745   -0.6788   -0.0452 C   0  0  0  0  0  0  0  0  0  0  0  0
    3.9001   -1.1770   -0.3587 N   0  0  0  0  0  0  0  0  0  0  0  0
    4.9547   -0.3528   -0.5933 C   0  0  0  0  0  0  0  0  0  0  0  0
    4.7798    1.0305   -0.5111 C   0  0  0  0  0  0  0  0  0  0  0  0
    3.5572    1.5345   -0.1974 N   0  0  0  0  0  0  0  0  0  0  0  0
    2.4949    0.7176    0.0393 C   0  0  0  0  0  0  0  0  0  0  0  0
   -1.1839    1.7093    1.6159 H   0  0  0  0  0  0  0  0  0  0  0  0
   -5.1292   -0.6631    0.8564 H   0  0  0  0  0  0  0  0  0  0  0  0
   -5.2784    0.8286   -0.1770 H   0  0  0  0  0  0  0  0  0  0  0  0
   -4.0760   -1.7711   -0.9122 H   0  0  0  0  0  0  0  0  0  0  0  0
   -4.1824   -0.2592   -1.9291 H   0  0  0  0  0  0  0  0  0  0  0  0
   -1.6900   -0.6986   -1.3509 H   0  0  0  0  0  0  0  0  0  0  0  0
   -0.4677   -1.6948    0.7252 H   0  0  0  0  0  0  0  0  0  0  0  0
    1.7369   -2.6109    0.1412 H   0  0  0  0  0  0  0  0  0  0  0  0
    5.9221   -0.7684   -0.8417 H   0  0  0  0  0  0  0  0  0  0  0  0
    5.6100    1.6991   -0.6952 H   0  0  0  0  0  0  0  0  0  0  0  0
  1  2  1  0
  2  3  2  0
  3  4  1  0
  4  5  1  0
  5  6  2  0
  6  7  1  0
  7  8  1  0
  8  9  1  0
  9  5  1  0
  3 10  1  0
 10 11  2  0
 11 12  1  0
 12 13  2  0
 13 14  1  0
 14 15  2  0
 15 16  1  0
 16 17  2  0
 17  2  1  0
 17 12  1  0
  4 18  1  0
  7 19  1  0
  7 20  1  0
  8 21  1  0
  8 22  1  0
  9 23  1  0
 10 24  1  0
 11 25  1  0
 14 26  1  0
 15 27  1  0
M  END
> <ID>
HT0304

> <Class>
0.0

> <Clusters>
60

> <Fold>
1

$$$$