
     RDKit          3D

 39 42  0  0  0  0  0  0  0  0999 V2000
   -5.0415   -2.0470   -0.7133 O   0  0  0  0  0  0  0  0  0  0  0  0
   -3.7608   -1.5003   -0.6745 C   0  0  0  0  0  0  0  0  0  0  0  0
   -2.9377   -1.7484    0.4254 C   0  0  0  0  0  0  0  0  0  0  0  0
   -1.6503   -1.2080    0.4778 C   0  0  0  0  0  0  0  0  0  0  0  0
   -1.1488   -0.4277   -0.5858 C   0  0  0  0  0  0  0  0  0  0  0  0
   -2.0069   -0.1564   -1.6748 C   0  0  0  0  0  0  0  0  0  0  0  0
   -3.2941   -0.6993   -1.7223 C   0  0  0  0  0  0  0  0  0  0  0  0
    0.2451    0.2051   -0.4801 C   0  0  0  0  0  0  0  0  0  0  0  0
    0.7920    0.6766   -1.8130 C   0  0  0  0  0  0  0  0  0  0  0  0
    1.0727   -0.0862   -2.7760 O   0  0  0  0  0  0  0  0  0  0  0  0
    0.9590    2.0878   -1.8824 N   0  0  0  0  0  0  0  0  0  0  0  0
    0.5292    2.5677   -0.6242 C   0  0  0  0  0  0  0  0  0  0  0  0
    0.4972    3.9016   -0.2202 C   0  0  0  0  0  0  0  0  0  0  0  0
    0.0280    4.1960    1.0697 C   0  0  0  0  0  0  0  0  0  0  0  0
   -0.3989    3.1613    1.9243 C   0  0  0  0  0  0  0  0  0  0  0  0
   -0.3596    1.8247    1.4954 C   0  0  0  0  0  0  0  0  0  0  0  0
    0.1150    1.5462    0.2083 C   0  0  0  0  0  0  0  0  0  0  0  0
    1.2836   -0.7268    0.1579 C   0  0  0  0  0  0  0  0  0  0  0  0
    1.3634   -2.0694   -0.2678 C   0  0  0  0  0  0  0  0  0  0  0  0
    2.3232   -2.9343    0.2640 C   0  0  0  0  0  0  0  0  0  0  0  0
    3.2394   -2.4699    1.2136 C   0  0  0  0  0  0  0  0  0  0  0  0
    4.1997   -3.3235    1.7519 O   0  0  0  0  0  0  0  0  0  0  0  0
    3.1960   -1.1352    1.6213 C   0  0  0  0  0  0  0  0  0  0  0  0
    2.2377   -0.2657    1.0925 C   0  0  0  0  0  0  0  0  0  0  0  0
   -5.6635   -1.8834   -1.4964 H   0  0  0  0  0  0  0  0  0  0  0  0
   -3.2990   -2.3550    1.2461 H   0  0  0  0  0  0  0  0  0  0  0  0
   -1.0446   -1.3992    1.3545 H   0  0  0  0  0  0  0  0  0  0  0  0
   -1.6932    0.4814   -2.4901 H   0  0  0  0  0  0  0  0  0  0  0  0
   -3.9318   -0.4882   -2.5714 H   0  0  0  0  0  0  0  0  0  0  0  0
    1.3111    2.6467   -2.6908 H   0  0  0  0  0  0  0  0  0  0  0  0
    0.8243    4.6911   -0.8842 H   0  0  0  0  0  0  0  0  0  0  0  0
   -0.0067    5.2233    1.4084 H   0  0  0  0  0  0  0  0  0  0  0  0
   -0.7593    3.3972    2.9171 H   0  0  0  0  0  0  0  0  0  0  0  0
   -0.6838    1.0287    2.1522 H   0  0  0  0  0  0  0  0  0  0  0  0
    0.6781   -2.4493   -1.0153 H   0  0  0  0  0  0  0  0  0  0  0  0
    2.3575   -3.9640   -0.0684 H   0  0  0  0  0  0  0  0  0  0  0  0
    4.2583   -4.2965    1.4748 H   0  0  0  0  0  0  0  0  0  0  0  0
    3.9129   -0.7674    2.3446 H   0  0  0  0  0  0  0  0  0  0  0  0
    2.2571    0.7658    1.4155 H   0  0  0  0  0  0  0  0  0  0  0  0
  1  2  1  0
  2  3  2  0
  3  4  1  0
  4  5  2  0
  5  6  1  0
  6  7  2  0
  7  2  1  0
  5  8  1  0
  8  9  1  0
  9 10  2  0
  9 11  1  0
 11 12  1  0
 12 13  2  0
 13 14  1  0
 14 15  2  0
 15 16  1  0
 16 17  2  0
 17  8  1  0
 17 12  1  0
  8 18  1  0
 18 19  2  0
 19 20  1  0
 20 21  2  0
 21 22  1  0
 21 23  1  0
 23 24  2  0
 24 18  1  0
  1 25  1  0
  3 26  1  0
  4 27  1  0
  6 28  1  0
  7 29  1  0
 11 30  1  0
 13 31  1  0
 14 32  1  0
 15 33  1  0
 16 34  1  0
 19 35  1  0
 20 36  1  0
 22 37  1  0
 23 38  1  0
 24 39  1  0
M  END
> <ID>
HT1573

> <Class>
0.0

> <Clusters>
193

> <Fold>
1

$$$$