
     RDKit          3D

 49 52  0  0  0  0  0  0  0  0999 V2000
    2.1355   -1.8530   -1.5512 C   0  0  0  0  0  0  0  0  0  0  0  0
    1.9900   -1.2475   -0.1268 C   0  0  0  0  0  0  0  0  0  0  0  0
    0.8409   -1.9872    0.6321 C   0  0  0  0  0  0  0  0  0  0  0  0
   -0.5656   -1.6403    0.1197 C   0  0  0  0  0  0  0  0  0  0  0  0
   -0.8385   -0.1247    0.1365 C   0  0  0  0  0  0  0  0  0  0  0  0
    0.2736    0.6315   -0.6380 C   0  0  0  0  0  0  0  0  0  0  0  0
    0.0396    2.1560   -0.5755 C   0  0  0  0  0  0  0  0  0  0  0  0
   -1.3163    2.5293   -1.1784 C   0  0  0  0  0  0  0  0  0  0  0  0
   -2.4132    1.7312   -0.5180 C   0  0  0  0  0  0  0  0  0  0  0  0
   -3.5420    2.3481   -0.1053 C   0  0  0  0  0  0  0  0  0  0  0  0
   -4.6824    1.6038    0.5329 C   0  0  0  0  0  0  0  0  0  0  0  0
   -4.7341    0.1622    0.0361 C   0  0  0  0  0  0  0  0  0  0  0  0
   -3.3836   -0.5049    0.2915 C   0  0  0  0  0  0  0  0  0  0  0  0
   -2.2374    0.2141   -0.4646 C   0  0  0  0  0  0  0  0  0  0  0  0
    1.7084    0.2667   -0.1764 C   0  0  0  0  0  0  0  0  0  0  0  0
    2.1049    0.7840    1.2110 C   0  0  0  0  0  0  0  0  0  0  0  0
    3.2399   -0.1317    1.6937 C   0  0  0  0  0  0  0  0  0  0  0  0
    3.3211   -1.3158    0.7007 C   0  0  0  0  0  0  0  0  0  0  0  0
    3.4221   -2.5400    1.3864 O   0  0  0  0  0  0  0  0  0  0  0  0
    4.5243   -1.1456   -0.1582 C   0  0  0  0  0  0  0  0  0  0  0  0
    5.5107   -1.0237   -0.8486 C   0  0  0  0  0  0  0  0  0  0  0  0
    2.4961   -2.9006   -1.4812 H   0  0  0  0  0  0  0  0  0  0  0  0
    2.8492   -1.2726   -2.1681 H   0  0  0  0  0  0  0  0  0  0  0  0
    1.1753   -1.8532   -2.1001 H   0  0  0  0  0  0  0  0  0  0  0  0
    0.9847   -3.0883    0.5454 H   0  0  0  0  0  0  0  0  0  0  0  0
    0.8768   -1.7516    1.7224 H   0  0  0  0  0  0  0  0  0  0  0  0
   -1.2900   -2.1459    0.7908 H   0  0  0  0  0  0  0  0  0  0  0  0
   -0.7180   -2.0536   -0.8956 H   0  0  0  0  0  0  0  0  0  0  0  0
   -0.8357    0.2129    1.1939 H   0  0  0  0  0  0  0  0  0  0  0  0
    0.2001    0.3366   -1.7069 H   0  0  0  0  0  0  0  0  0  0  0  0
    0.8385    2.6818   -1.1431 H   0  0  0  0  0  0  0  0  0  0  0  0
    0.0762    2.5111    0.4797 H   0  0  0  0  0  0  0  0  0  0  0  0
   -1.3158    2.3069   -2.2666 H   0  0  0  0  0  0  0  0  0  0  0  0
   -1.4760    3.6242   -1.0586 H   0  0  0  0  0  0  0  0  0  0  0  0
   -3.6448    3.4218   -0.2263 H   0  0  0  0  0  0  0  0  0  0  0  0
   -5.6415    2.1118    0.2965 H   0  0  0  0  0  0  0  0  0  0  0  0
   -4.5421    1.6122    1.6371 H   0  0  0  0  0  0  0  0  0  0  0  0
   -4.9738    0.1428   -1.0493 H   0  0  0  0  0  0  0  0  0  0  0  0
   -5.5315   -0.3889    0.5789 H   0  0  0  0  0  0  0  0  0  0  0  0
   -3.1840   -0.5087    1.3861 H   0  0  0  0  0  0  0  0  0  0  0  0
   -3.4447   -1.5608   -0.0503 H   0  0  0  0  0  0  0  0  0  0  0  0
   -2.2676   -0.1405   -1.5167 H   0  0  0  0  0  0  0  0  0  0  0  0
    2.4183    0.7330   -0.9035 H   0  0  0  0  0  0  0  0  0  0  0  0
    1.2540    0.7160    1.9283 H   0  0  0  0  0  0  0  0  0  0  0  0
    2.4288    1.8463    1.1632 H   0  0  0  0  0  0  0  0  0  0  0  0
    3.0236   -0.4832    2.7276 H   0  0  0  0  0  0  0  0  0  0  0  0
    4.2019    0.4406    1.7385 H   0  0  0  0  0  0  0  0  0  0  0  0
    4.2668   -2.5397    1.9147 H   0  0  0  0  0  0  0  0  0  0  0  0
    6.3777   -0.9228   -1.4567 H   0  0  0  0  0  0  0  0  0  0  0  0
  1  2  1  0
  2  3  1  0
  3  4  1  0
  4  5  1  0
  5  6  1  0
  6  7  1  0
  7  8  1  0
  8  9  1  0
  9 10  2  0
 10 11  1  0
 11 12  1  0
 12 13  1  0
 13 14  1  0
 14  5  1  0
 14  9  1  0
  6 15  1  0
 15  2  1  0
 15 16  1  0
 16 17  1  0
 17 18  1  0
 18  2  1  0
 18 19  1  0
 18 20  1  0
 20 21  3  0
  1 22  1  0
  1 23  1  0
  1 24  1  0
  3 25  1  0
  3 26  1  0
  4 27  1  0
  4 28  1  0
  5 29  1  0
  6 30  1  0
  7 31  1  0
  7 32  1  0
  8 33  1  0
  8 34  1  0
 10 35  1  0
 11 36  1  0
 11 37  1  0
 12 38  1  0
 12 39  1  0
 13 40  1  0
 13 41  1  0
 14 42  1  0
 15 43  1  0
 16 44  1  0
 16 45  1  0
 17 46  1  0
 17 47  1  0
 19 48  1  0
 21 49  1  0
M  END
> <ID>
HT3263

> <Class>
0.0

> <Clusters>
183

> <Fold>
1

$$$$