
     RDKit          3D

 41 44  0  0  0  0  0  0  0  0999 V2000
   -4.4425    3.5438    0.1397 O   0  0  0  0  0  0  0  0  0  0  0  0
   -3.2933    2.8771    0.5555 C   0  0  0  0  0  0  0  0  0  0  0  0
   -2.1918    3.1467    0.0072 O   0  0  0  0  0  0  0  0  0  0  0  0
   -3.3491    1.8704    1.6677 C   0  0  0  0  0  0  0  0  0  0  0  0
   -2.7616    0.5506    1.2345 C   0  0  0  0  0  0  0  0  0  0  0  0
   -1.5407    0.2110    1.7237 N   0  0  0  0  0  0  0  0  0  0  0  0
   -0.9167   -0.9234    1.3998 N   0  0  0  0  0  0  0  0  0  0  0  0
    0.4181   -1.1587    1.9632 C   0  0  0  0  0  0  0  0  0  0  0  0
    1.4977   -0.6625    1.0461 C   0  0  0  0  0  0  0  0  0  0  0  0
    2.8152   -0.8162    1.3273 N   0  0  0  0  0  0  0  0  0  0  0  0
    3.5916   -0.2754    0.3536 C   0  0  0  0  0  0  0  0  0  0  0  0
    4.9869   -0.2851    0.3633 C   0  0  0  0  0  0  0  0  0  0  0  0
    5.6862    0.3224   -0.7047 C   0  0  0  0  0  0  0  0  0  0  0  0
    4.9585    0.8901   -1.7804 C   0  0  0  0  0  0  0  0  0  0  0  0
    3.5552    0.8922   -1.7746 C   0  0  0  0  0  0  0  0  0  0  0  0
    2.9025    0.3065   -0.6959 C   0  0  0  0  0  0  0  0  0  0  0  0
    1.2549    0.1553   -0.4235 S   0  0  0  0  0  0  0  0  0  0  0  0
    7.1927    0.2820   -0.7459 C   0  0  0  0  0  0  0  0  0  0  0  0
    7.6921    1.3836   -1.4189 F   0  0  0  0  0  0  0  0  0  0  0  0
    7.5992   -0.8669   -1.3981 F   0  0  0  0  0  0  0  0  0  0  0  0
    7.7176    0.2833    0.5349 F   0  0  0  0  0  0  0  0  0  0  0  0
   -1.4865   -1.8078    0.5243 C   0  0  0  0  0  0  0  0  0  0  0  0
   -0.8755   -2.8662    0.2035 O   0  0  0  0  0  0  0  0  0  0  0  0
   -2.7516   -1.5295   -0.0214 C   0  0  0  0  0  0  0  0  0  0  0  0
   -3.3718   -2.4204   -0.9196 C   0  0  0  0  0  0  0  0  0  0  0  0
   -4.6285   -2.1271   -1.4502 C   0  0  0  0  0  0  0  0  0  0  0  0
   -5.2809   -0.9482   -1.0937 C   0  0  0  0  0  0  0  0  0  0  0  0
   -4.6808   -0.0530   -0.2061 C   0  0  0  0  0  0  0  0  0  0  0  0
   -3.4088   -0.3288    0.3389 C   0  0  0  0  0  0  0  0  0  0  0  0
   -5.3411    3.3669    0.5722 H   0  0  0  0  0  0  0  0  0  0  0  0
   -2.7665    2.2760    2.5230 H   0  0  0  0  0  0  0  0  0  0  0  0
   -4.3883    1.7262    2.0314 H   0  0  0  0  0  0  0  0  0  0  0  0
    0.5126   -0.6341    2.9388 H   0  0  0  0  0  0  0  0  0  0  0  0
    0.5717   -2.2415    2.1621 H   0  0  0  0  0  0  0  0  0  0  0  0
    5.5157   -0.7574    1.1819 H   0  0  0  0  0  0  0  0  0  0  0  0
    5.4772    1.3280   -2.6238 H   0  0  0  0  0  0  0  0  0  0  0  0
    2.9973    1.3311   -2.5915 H   0  0  0  0  0  0  0  0  0  0  0  0
   -2.8888   -3.3445   -1.2129 H   0  0  0  0  0  0  0  0  0  0  0  0
   -5.0987   -2.8171   -2.1391 H   0  0  0  0  0  0  0  0  0  0  0  0
   -6.2566   -0.7265   -1.5067 H   0  0  0  0  0  0  0  0  0  0  0  0
   -5.2225    0.8473    0.0451 H   0  0  0  0  0  0  0  0  0  0  0  0
  1  2  1  0
  2  3  2  0
  2  4  1  0
  4  5  1  0
  5  6  2  0
  6  7  1  0
  7  8  1  0
  8  9  1  0
  9 10  2  0
 10 11  1  0
 11 12  2  0
 12 13  1  0
 13 14  2  0
 14 15  1  0
 15 16  2  0
 16 11  1  0
 16 17  1  0
 17  9  1  0
 13 18  1  0
 18 19  1  0
 18 20  1  0
 18 21  1  0
  7 22  1  0
 22 23  2  0
 22 24  1  0
 24 25  2  0
 25 26  1  0
 26 27  2  0
 27 28  1  0
 28 29  2  0
 29  5  1  0
 29 24  1  0
  1 30  1  0
  4 31  1  0
  4 32  1  0
  8 33  1  0
  8 34  1  0
 12 35  1  0
 14 36  1  0
 15 37  1  0
 25 38  1  0
 26 39  1  0
 27 40  1  0
 28 41  1  0
M  END
> <ID>
HT2223

> <Class>
0.0

> <Clusters>
201

> <Fold>
1

$$$$