
     RDKit          3D

105110  0  0  0  0  0  0  0  0999 V2000
   -7.6676    3.6747    2.0313 C   0  0  0  0  0  0  0  0  0  0  0  0
   -6.5256    3.3734    1.1193 C   0  0  0  0  0  0  0  0  0  0  0  0
   -6.3095    4.1104    0.1169 O   0  0  0  0  0  0  0  0  0  0  0  0
   -5.7211    2.2571    1.3787 O   0  0  0  0  0  0  0  0  0  0  0  0
   -4.5433    1.9385    0.6348 C   0  0  1  0  0  0  0  0  0  0  0  0
   -3.3311    2.6790    1.2522 C   0  0  0  0  0  0  0  0  0  0  0  0
   -2.0343    1.8336    1.2936 C   0  0  2  0  0  0  0  0  0  0  0  0
   -0.8141    2.7218    1.6058 C   0  0  0  0  0  0  0  0  0  0  0  0
    0.4493    1.8759    1.7880 C   0  0  0  0  0  0  0  0  0  0  0  0
    0.7335    1.0301    0.5348 C   0  0  2  0  0  0  0  0  0  0  0  0
   -0.5023    0.1260    0.1956 C   0  0  2  0  0  0  0  0  0  0  0  0
   -0.2100   -0.8649   -0.9806 C   0  0  0  0  0  0  0  0  0  0  0  0
    1.1132   -1.6523   -0.8096 C   0  0  0  0  0  0  0  0  0  0  0  0
    2.3006   -0.7072   -0.5118 C   0  0  1  0  0  0  0  0  0  0  0  0
    2.5810    0.1868   -1.7629 C   0  0  0  0  0  0  0  0  0  0  0  0
    1.9438    0.0955    0.7519 C   0  0  1  0  0  0  0  0  0  0  0  0
    3.2746    0.6516    1.2433 C   0  0  0  0  0  0  0  0  0  0  0  0
    4.1951   -0.5814    1.0835 C   0  0  1  0  0  0  0  0  0  0  0  0
    3.5991   -1.4411   -0.0681 C   0  0  2  0  0  0  0  0  0  0  0  0
    4.5355   -1.5969   -1.1415 O   0  0  0  0  0  0  0  0  0  0  0  0
    5.0910   -2.8176   -1.5316 C   0  0  0  0  0  0  0  0  0  0  0  0
    4.7419   -3.8979   -0.9829 O   0  0  0  0  0  0  0  0  0  0  0  0
    6.0959   -2.8378   -2.6331 C   0  0  0  0  0  0  0  0  0  0  0  0
    5.6504   -0.3119    0.9197 N   0  0  0  0  0  0  0  0  0  0  0  0
    6.3572   -0.2438    2.2117 C   0  0  0  0  0  0  0  0  0  0  0  0
    7.8363    0.1833    2.0418 C   0  0  0  0  0  0  0  0  0  0  0  0
    8.3499   -0.0200    0.6576 N   0  0  0  0  0  0  0  0  0  0  0  0
    8.4049   -1.4720    0.3315 C   0  0  0  0  0  0  0  0  0  0  0  0
    9.7368    0.5028    0.5931 C   0  0  0  0  0  0  0  0  0  0  0  0
    7.5065    0.7153   -0.3405 C   0  0  0  0  0  0  0  0  0  0  0  0
    6.0215    0.8217    0.0601 C   0  0  0  0  0  0  0  0  0  0  0  0
   -1.8360    0.9500    0.0167 C   0  0  2  0  0  0  0  0  0  0  0  0
   -1.7711    1.8329   -1.2687 C   0  0  0  0  0  0  0  0  0  0  0  0
   -3.0498   -0.0441   -0.0966 C   0  0  0  0  0  0  0  0  0  0  0  0
   -4.3540    0.4047    0.6324 C   0  0  2  0  0  0  0  0  0  0  0  0
   -5.5693   -0.2983    0.1332 N   0  0  0  0  0  0  0  0  0  0  0  0
   -6.0026    0.0804   -1.2372 C   0  0  0  0  0  0  0  0  0  0  0  0
   -6.5404   -1.1093   -2.0633 C   0  0  0  0  0  0  0  0  0  0  0  0
   -7.4459   -2.0035   -1.2814 N   0  0  0  0  0  0  0  0  0  0  0  0
   -8.7604   -1.3331   -1.0989 C   0  0  0  0  0  0  0  0  0  0  0  0
   -7.6778   -3.2331   -2.0803 C   0  0  0  0  0  0  0  0  0  0  0  0
   -6.8748   -2.3782    0.0612 C   0  0  0  0  0  0  0  0  0  0  0  0
   -5.5026   -1.7541    0.3436 C   0  0  0  0  0  0  0  0  0  0  0  0
   -8.2324    4.5629    1.6756 H   0  0  0  0  0  0  0  0  0  0  0  0
   -7.2814    3.8759    3.0530 H   0  0  0  0  0  0  0  0  0  0  0  0
   -8.3570    2.8012    2.0675 H   0  0  0  0  0  0  0  0  0  0  0  0
   -4.6684    2.2780   -0.4140 H   0  0  0  0  0  0  0  0  0  0  0  0
   -3.1570    3.6166    0.6799 H   0  0  0  0  0  0  0  0  0  0  0  0
   -3.5729    2.9879    2.2949 H   0  0  0  0  0  0  0  0  0  0  0  0
   -2.1383    1.1407    2.1603 H   0  0  0  0  0  0  0  0  0  0  0  0
   -0.6568    3.4745    0.8035 H   0  0  0  0  0  0  0  0  0  0  0  0
   -0.9980    3.2803    2.5497 H   0  0  0  0  0  0  0  0  0  0  0  0
    1.3042    2.5594    1.9775 H   0  0  0  0  0  0  0  0  0  0  0  0
    0.3270    1.2192    2.6779 H   0  0  0  0  0  0  0  0  0  0  0  0
    0.9527    1.7344   -0.2903 H   0  0  0  0  0  0  0  0  0  0  0  0
   -0.6600   -0.5222    1.0906 H   0  0  0  0  0  0  0  0  0  0  0  0
   -0.1923   -0.3365   -1.9523 H   0  0  0  0  0  0  0  0  0  0  0  0
   -1.0300   -1.6094   -1.0548 H   0  0  0  0  0  0  0  0  0  0  0  0
    0.9833   -2.3796    0.0224 H   0  0  0  0  0  0  0  0  0  0  0  0
    1.3140   -2.2424   -1.7304 H   0  0  0  0  0  0  0  0  0  0  0  0
    3.3593    0.9425   -1.5677 H   0  0  0  0  0  0  0  0  0  0  0  0
    1.6964    0.7495   -2.1102 H   0  0  0  0  0  0  0  0  0  0  0  0
    2.9070   -0.4375   -2.6207 H   0  0  0  0  0  0  0  0  0  0  0  0
    1.6278   -0.6285    1.5462 H   0  0  0  0  0  0  0  0  0  0  0  0
    3.5678    1.5228    0.6233 H   0  0  0  0  0  0  0  0  0  0  0  0
    3.2211    0.9680    2.3087 H   0  0  0  0  0  0  0  0  0  0  0  0
    4.0508   -1.1922    2.0082 H   0  0  0  0  0  0  0  0  0  0  0  0
    3.3291   -2.4363    0.3508 H   0  0  0  0  0  0  0  0  0  0  0  0
    6.5703   -3.8360   -2.7088 H   0  0  0  0  0  0  0  0  0  0  0  0
    5.5936   -2.6011   -3.5914 H   0  0  0  0  0  0  0  0  0  0  0  0
    6.8799   -2.0782   -2.4351 H   0  0  0  0  0  0  0  0  0  0  0  0
    6.3332   -1.2523    2.6812 H   0  0  0  0  0  0  0  0  0  0  0  0
    5.8440    0.4664    2.8992 H   0  0  0  0  0  0  0  0  0  0  0  0
    7.9073    1.2630    2.3143 H   0  0  0  0  0  0  0  0  0  0  0  0
    8.4586   -0.3745    2.7782 H   0  0  0  0  0  0  0  0  0  0  0  0
    9.0087   -2.0281    1.0815 H   0  0  0  0  0  0  0  0  0  0  0  0
    7.4000   -1.9380    0.3069 H   0  0  0  0  0  0  0  0  0  0  0  0
    8.8668   -1.6427   -0.6676 H   0  0  0  0  0  0  0  0  0  0  0  0
    9.7712    1.5799    0.8738 H   0  0  0  0  0  0  0  0  0  0  0  0
   10.4027   -0.0509    1.2937 H   0  0  0  0  0  0  0  0  0  0  0  0
   10.1556    0.4025   -0.4368 H   0  0  0  0  0  0  0  0  0  0  0  0
    7.5763    0.2365   -1.3420 H   0  0  0  0  0  0  0  0  0  0  0  0
    7.8706    1.7575   -0.4881 H   0  0  0  0  0  0  0  0  0  0  0  0
    5.8539    1.7836    0.5967 H   0  0  0  0  0  0  0  0  0  0  0  0
    5.4238    0.8260   -0.8689 H   0  0  0  0  0  0  0  0  0  0  0  0
   -1.7610    1.2110   -2.1868 H   0  0  0  0  0  0  0  0  0  0  0  0
   -2.6496    2.4977   -1.3620 H   0  0  0  0  0  0  0  0  0  0  0  0
   -0.8775    2.4843   -1.2919 H   0  0  0  0  0  0  0  0  0  0  0  0
   -3.2483   -0.2833   -1.1621 H   0  0  0  0  0  0  0  0  0  0  0  0
   -2.7739   -1.0171    0.3650 H   0  0  0  0  0  0  0  0  0  0  0  0
   -4.2348    0.1287    1.7070 H   0  0  0  0  0  0  0  0  0  0  0  0
   -5.1853    0.5532   -1.8193 H   0  0  0  0  0  0  0  0  0  0  0  0
   -6.8013    0.8472   -1.1478 H   0  0  0  0  0  0  0  0  0  0  0  0
   -5.6578   -1.6798   -2.4382 H   0  0  0  0  0  0  0  0  0  0  0  0
   -7.0576   -0.7111   -2.9694 H   0  0  0  0  0  0  0  0  0  0  0  0
   -8.6600   -0.4165   -0.4821 H   0  0  0  0  0  0  0  0  0  0  0  0
   -9.2065   -1.0433   -2.0752 H   0  0  0  0  0  0  0  0  0  0  0  0
   -9.4834   -2.0082   -0.5875 H   0  0  0  0  0  0  0  0  0  0  0  0
   -8.0974   -2.9912   -3.0830 H   0  0  0  0  0  0  0  0  0  0  0  0
   -6.7278   -3.7937   -2.2336 H   0  0  0  0  0  0  0  0  0  0  0  0
   -8.3895   -3.9168   -1.5666 H   0  0  0  0  0  0  0  0  0  0  0  0
   -7.5493   -2.0735    0.8956 H   0  0  0  0  0  0  0  0  0  0  0  0
   -6.7630   -3.4808    0.1785 H   0  0  0  0  0  0  0  0  0  0  0  0
   -4.7358   -2.2192   -0.3150 H   0  0  0  0  0  0  0  0  0  0  0  0
   -5.2273   -1.9777    1.3982 H   0  0  0  0  0  0  0  0  0  0  0  0
  1  2  1  0
  2  3  2  0
  2  4  1  0
  5  4  1  0
  5  6  1  0
  7  6  1  0
  7  8  1  0
  8  9  1  0
 10  9  1  0
 10 11  1  0
 11 12  1  0
 12 13  1  0
 13 14  1  0
 14 15  1  6
 14 16  1  0
 16 10  1  0
 16 17  1  0
 17 18  1  0
 18 19  1  0
 19 14  1  0
 19 20  1  0
 20 21  1  0
 21 22  2  0
 21 23  1  0
 18 24  1  0
 24 25  1  0
 25 26  1  0
 26 27  1  0
 27 28  1  0
 27 29  1  0
 27 30  1  0
 30 31  1  0
 31 24  1  0
 11 32  1  0
 32  7  1  0
 32 33  1  6
 32 34  1  0
 34 35  1  0
 35  5  1  0
 35 36  1  0
 36 37  1  0
 37 38  1  0
 38 39  1  0
 39 40  1  0
 39 41  1  0
 39 42  1  0
 42 43  1  0
 43 36  1  0
  1 44  1  0
  1 45  1  0
  1 46  1  0
  5 47  1  6
  6 48  1  0
  6 49  1  0
  7 50  1  1
  8 51  1  0
  8 52  1  0
  9 53  1  0
  9 54  1  0
 10 55  1  6
 11 56  1  1
 12 57  1  0
 12 58  1  0
 13 59  1  0
 13 60  1  0
 15 61  1  0
 15 62  1  0
 15 63  1  0
 16 64  1  1
 17 65  1  0
 17 66  1  0
 18 67  1  1
 19 68  1  1
 23 69  1  0
 23 70  1  0
 23 71  1  0
 25 72  1  0
 25 73  1  0
 26 74  1  0
 26 75  1  0
 28 76  1  0
 28 77  1  0
 28 78  1  0
 29 79  1  0
 29 80  1  0
 29 81  1  0
 30 82  1  0
 30 83  1  0
 31 84  1  0
 31 85  1  0
 33 86  1  0
 33 87  1  0
 33 88  1  0
 34 89  1  0
 34 90  1  0
 35 91  1  1
 37 92  1  0
 37 93  1  0
 38 94  1  0
 38 95  1  0
 40 96  1  0
 40 97  1  0
 40 98  1  0
 41 99  1  0
 41100  1  0
 41101  1  0
 42102  1  0
 42103  1  0
 43104  1  0
 43105  1  0
M  CHG  2  27   1  39   1
M  END
> <ID>
HT1681

> <Class>
0.0

> <Clusters>
239

> <Fold>
1

$$$$