
     RDKit          3D

 68 73  0  0  0  0  0  0  0  0999 V2000
    4.3178   -2.8692    1.4035 O   0  0  0  0  0  0  0  0  0  0  0  0
    4.8135   -1.7688    1.0454 C   0  0  0  0  0  0  0  0  0  0  0  0
    4.3961   -1.0673   -0.0185 N   0  0  0  0  0  0  0  0  0  0  0  0
    5.8071   -1.1759    1.6566 O   0  0  0  0  0  0  0  0  0  0  0  0
    6.0943   -0.0689    1.0349 N   0  0  0  0  0  0  0  0  0  0  0  0
    5.2207    0.0015    0.0048 C   0  0  0  0  0  0  0  0  0  0  0  0
    5.2089    1.0981   -0.9925 C   0  0  0  0  0  0  0  0  0  0  0  0
    6.3512    1.7587   -1.2590 C   0  0  0  0  0  0  0  0  0  0  0  0
    3.9706    1.4414   -1.7629 C   0  0  0  0  0  0  0  0  0  0  0  0
    6.3838    2.8533   -2.2911 C   0  0  0  0  0  0  0  0  0  0  0  0
    2.6225    1.1460   -1.2198 C   0  0  0  0  0  0  0  0  0  0  0  0
    4.0846    2.1326   -2.9129 C   0  0  0  0  0  0  0  0  0  0  0  0
    5.4383    2.5117   -3.4490 C   0  0  0  0  0  0  0  0  0  0  0  0
    1.6321    0.5740   -2.0362 C   0  0  0  0  0  0  0  0  0  0  0  0
    2.3235    1.4278    0.1237 C   0  0  0  0  0  0  0  0  0  0  0  0
    0.3722    0.2731   -1.5125 C   0  0  0  0  0  0  0  0  0  0  0  0
    1.0615    1.1328    0.6449 C   0  0  0  0  0  0  0  0  0  0  0  0
    0.0782    0.5513   -0.1692 C   0  0  0  0  0  0  0  0  0  0  0  0
   -1.2663    0.1790    0.3968 C   0  0  0  0  0  0  0  0  0  0  0  0
   -1.3676   -1.2797    0.5462 N   0  0  0  0  0  0  0  0  0  0  0  0
   -2.0919   -2.1931   -0.1459 C   0  0  0  0  0  0  0  0  0  0  0  0
   -0.5383   -2.0321    1.3154 C   0  0  0  0  0  0  0  0  0  0  0  0
   -3.1245   -2.0369   -1.0989 C   0  0  0  0  0  0  0  0  0  0  0  0
   -1.6355   -3.4425    0.1963 C   0  0  0  0  0  0  0  0  0  0  0  0
    0.3931   -1.4709    2.1961 O   0  0  0  0  0  0  0  0  0  0  0  0
   -0.6695   -3.3675    1.1260 N   0  0  0  0  0  0  0  0  0  0  0  0
   -3.5940   -3.2027   -1.7438 C   0  0  0  0  0  0  0  0  0  0  0  0
   -3.8366   -0.7751   -1.3349 C   0  0  0  0  0  0  0  0  0  0  0  0
   -2.1079   -4.6017   -0.4096 C   0  0  0  0  0  0  0  0  0  0  0  0
    1.2472   -2.2488    3.0301 C   0  0  0  0  0  0  0  0  0  0  0  0
   -3.0872   -4.4720   -1.4039 C   0  0  0  0  0  0  0  0  0  0  0  0
   -4.0378   -0.3807   -2.5157 O   0  0  0  0  0  0  0  0  0  0  0  0
   -4.3511   -0.0613   -0.2486 O   0  0  0  0  0  0  0  0  0  0  0  0
    0.4765   -2.7902    4.2280 C   0  0  0  0  0  0  0  0  0  0  0  0
   -5.0170    1.1879   -0.3970 C   0  0  0  0  0  0  0  0  0  0  0  0
   -5.4780    1.6788    0.9372 C   0  0  0  0  0  0  0  0  0  0  0  0
   -6.1083    2.8782    1.2114 C   0  0  0  0  0  0  0  0  0  0  0  0
   -5.3543    1.0227    2.0687 O   0  0  0  0  0  0  0  0  0  0  0  0
   -6.4425    3.9665    0.2452 C   0  0  0  0  0  0  0  0  0  0  0  0
   -6.3470    2.9225    2.5016 O   0  0  0  0  0  0  0  0  0  0  0  0
   -5.8856    1.7935    2.9904 C   0  0  0  0  0  0  0  0  0  0  0  0
   -5.9460    1.4839    4.2092 O   0  0  0  0  0  0  0  0  0  0  0  0
    3.6490   -1.3168   -0.7038 H   0  0  0  0  0  0  0  0  0  0  0  0
    7.2737    1.4981   -0.7538 H   0  0  0  0  0  0  0  0  0  0  0  0
    7.4193    2.9836   -2.6710 H   0  0  0  0  0  0  0  0  0  0  0  0
    6.0594    3.8049   -1.8169 H   0  0  0  0  0  0  0  0  0  0  0  0
    3.2028    2.4626   -3.4494 H   0  0  0  0  0  0  0  0  0  0  0  0
    5.3438    3.3819   -4.1335 H   0  0  0  0  0  0  0  0  0  0  0  0
    5.8510    1.6545   -4.0242 H   0  0  0  0  0  0  0  0  0  0  0  0
    1.8426    0.3382   -3.0720 H   0  0  0  0  0  0  0  0  0  0  0  0
    3.0678    1.8777    0.7689 H   0  0  0  0  0  0  0  0  0  0  0  0
   -0.3728   -0.1864   -2.1509 H   0  0  0  0  0  0  0  0  0  0  0  0
    0.8556    1.3484    1.6860 H   0  0  0  0  0  0  0  0  0  0  0  0
   -1.4328    0.6600    1.3852 H   0  0  0  0  0  0  0  0  0  0  0  0
   -2.0245    0.5859   -0.2875 H   0  0  0  0  0  0  0  0  0  0  0  0
   -4.3876   -3.1373   -2.4785 H   0  0  0  0  0  0  0  0  0  0  0  0
   -1.7191   -5.5738   -0.1347 H   0  0  0  0  0  0  0  0  0  0  0  0
    2.0704   -1.5996    3.3966 H   0  0  0  0  0  0  0  0  0  0  0  0
    1.6980   -3.0846    2.4523 H   0  0  0  0  0  0  0  0  0  0  0  0
   -3.4725   -5.3543   -1.8977 H   0  0  0  0  0  0  0  0  0  0  0  0
   -0.3351   -3.4687    3.8917 H   0  0  0  0  0  0  0  0  0  0  0  0
    0.0342   -1.9502    4.8044 H   0  0  0  0  0  0  0  0  0  0  0  0
    1.1643   -3.3581    4.8893 H   0  0  0  0  0  0  0  0  0  0  0  0
   -4.3177    1.9310   -0.8368 H   0  0  0  0  0  0  0  0  0  0  0  0
   -5.8980    1.0695   -1.0640 H   0  0  0  0  0  0  0  0  0  0  0  0
   -6.9006    3.5350   -0.6687 H   0  0  0  0  0  0  0  0  0  0  0  0
   -5.5171    4.5135   -0.0299 H   0  0  0  0  0  0  0  0  0  0  0  0
   -7.1609    4.6745    0.7083 H   0  0  0  0  0  0  0  0  0  0  0  0
  1  2  2  0
  2  3  1  0
  4  2  1  0
  5  4  1  0
  6  5  2  0
  7  6  1  0
  3  6  1  0
  8  7  2  0
  7  9  1  0
 10  8  1  0
 11  9  1  0
  9 12  2  0
 13 10  1  0
 14 11  2  0
 11 15  1  0
 12 13  1  0
 16 14  1  0
 15 17  2  0
 18 16  2  0
 17 18  1  0
 19 18  1  0
 20 19  1  0
 21 20  1  0
 20 22  1  0
 23 21  2  0
 21 24  1  0
 25 22  1  0
 22 26  2  0
 27 23  1  0
 23 28  1  0
 26 24  1  0
 24 29  2  0
 30 25  1  0
 31 27  2  0
 28 32  2  0
 28 33  1  0
 29 31  1  0
 34 30  1  0
 33 35  1  0
 35 36  1  0
 36 37  2  0
 38 36  1  0
 37 39  1  0
 37 40  1  0
 41 38  1  0
 40 41  1  0
 41 42  2  0
  3 43  1  0
  8 44  1  0
 10 45  1  0
 10 46  1  0
 12 47  1  0
 13 48  1  0
 13 49  1  0
 14 50  1  0
 15 51  1  0
 16 52  1  0
 17 53  1  0
 19 54  1  0
 19 55  1  0
 27 56  1  0
 29 57  1  0
 30 58  1  0
 30 59  1  0
 31 60  1  0
 34 61  1  0
 34 62  1  0
 34 63  1  0
 35 64  1  0
 35 65  1  0
 39 66  1  0
 39 67  1  0
 39 68  1  0
M  END
> <ID>
HT0217

> <Class>
0.0

> <Clusters>
29

> <Fold>
1

$$$$