
     RDKit          3D

 88 91  0  0  0  0  0  0  0  0999 V2000
    6.2055   -1.6975   -1.5100 N   0  0  0  0  0  0  0  0  0  0  0  0
    6.7832   -0.3868   -1.8377 C   0  0  0  0  0  0  0  0  0  0  0  0
    6.3861    0.7108   -0.8142 C   0  0  1  0  0  0  0  0  0  0  0  0
    5.0206    0.6125   -0.4136 O   0  0  0  0  0  0  0  0  0  0  0  0
    4.7224   -0.2584    0.6825 C   0  0  2  0  0  0  0  0  0  0  0  0
    3.8025    0.3981    1.5366 O   0  0  0  0  0  0  0  0  0  0  0  0
    2.5113    0.4308    0.9628 C   0  0  1  0  0  0  0  0  0  0  0  0
    1.6908   -0.7792    1.3297 C   0  0  1  0  0  0  0  0  0  0  0  0
    2.0402   -1.2428    2.6086 O   0  0  0  0  0  0  0  0  0  0  0  0
    0.2736   -0.2270    1.3482 C   0  0  2  0  0  0  0  0  0  0  0  0
   -0.3046   -0.3952    0.0631 O   0  0  0  0  0  0  0  0  0  0  0  0
   -1.6429   -0.8704    0.1372 C   0  0  2  0  0  0  0  0  0  0  0  0
   -1.6490   -2.4387    0.1923 C   0  0  1  0  0  0  0  0  0  0  0  0
   -2.7142   -2.9011    0.9872 O   0  0  0  0  0  0  0  0  0  0  0  0
   -1.7539   -3.1011   -1.2090 C   0  0  2  0  0  0  0  0  0  0  0  0
   -1.1504   -4.4379   -1.1814 N   0  0  0  0  0  0  0  0  0  0  0  0
   -1.0943   -2.2267   -2.2877 C   0  0  0  0  0  0  0  0  0  0  0  0
   -1.8209   -0.8625   -2.4243 C   0  0  2  0  0  0  0  0  0  0  0  0
   -0.9267    0.1447   -3.0105 N   0  0  0  0  0  0  0  0  0  0  0  0
   -2.4312   -0.3440   -1.0840 C   0  0  1  0  0  0  0  0  0  0  0  0
   -3.7851   -0.7901   -1.0033 O   0  0  0  0  0  0  0  0  0  0  0  0
   -4.7150    0.2097   -0.6020 C   0  0  1  0  0  0  0  0  0  0  0  0
   -5.8606    0.0868   -1.4236 O   0  0  0  0  0  0  0  0  0  0  0  0
   -6.8191    1.1235   -1.2153 C   0  0  2  0  0  0  0  0  0  0  0  0
   -6.7709    2.1480   -2.3637 C   0  0  0  0  0  0  0  0  0  0  0  0
   -5.4941    2.8582   -2.3993 N   0  0  0  0  0  0  0  0  0  0  0  0
   -6.7906    1.7818    0.1945 C   0  0  1  0  0  0  0  0  0  0  0  0
   -8.0482    2.3545    0.4563 O   0  0  0  0  0  0  0  0  0  0  0  0
   -6.4542    0.7068    1.2410 C   0  0  2  0  0  0  0  0  0  0  0  0
   -6.3555    1.2860    2.5193 O   0  0  0  0  0  0  0  0  0  0  0  0
   -5.1065    0.0101    0.8886 C   0  0  1  0  0  0  0  0  0  0  0  0
   -5.1630   -1.4155    1.2285 N   0  0  0  0  0  0  0  0  0  0  0  0
    0.3328    1.1533    1.6382 O   0  0  0  0  0  0  0  0  0  0  0  0
    1.6922    1.5479    1.5859 C   0  0  2  0  0  0  0  0  0  0  0  0
    1.8361    2.8646    0.8097 C   0  0  0  0  0  0  0  0  0  0  0  0
    1.0353    3.8551    1.4020 O   0  0  0  0  0  0  0  0  0  0  0  0
    5.9373   -0.6928    1.5353 C   0  0  2  0  0  0  0  0  0  0  0  0
    5.4984   -1.2377    2.8287 N   0  0  0  0  0  0  0  0  0  0  0  0
    6.8428    0.5215    1.7273 C   0  0  1  0  0  0  0  0  0  0  0  0
    7.8791    0.2049    2.6230 O   0  0  0  0  0  0  0  0  0  0  0  0
    7.4117    0.9291    0.3479 C   0  0  2  0  0  0  0  0  0  0  0  0
    7.8717    2.2645    0.3276 O   0  0  0  0  0  0  0  0  0  0  0  0
    6.8084   -2.4393   -1.9531 H   0  0  0  0  0  0  0  0  0  0  0  0
    5.2722   -1.7667   -1.9948 H   0  0  0  0  0  0  0  0  0  0  0  0
    7.8889   -0.4624   -1.9259 H   0  0  0  0  0  0  0  0  0  0  0  0
    6.4261   -0.0763   -2.8475 H   0  0  0  0  0  0  0  0  0  0  0  0
    6.4277    1.6432   -1.4236 H   0  0  0  0  0  0  0  0  0  0  0  0
    4.2610   -1.1963    0.2883 H   0  0  0  0  0  0  0  0  0  0  0  0
    2.5256    0.5579   -0.1476 H   0  0  0  0  0  0  0  0  0  0  0  0
    1.8196   -1.5861    0.5689 H   0  0  0  0  0  0  0  0  0  0  0  0
    1.7533   -2.1928    2.6633 H   0  0  0  0  0  0  0  0  0  0  0  0
   -0.2882   -0.7416    2.1583 H   0  0  0  0  0  0  0  0  0  0  0  0
   -2.1592   -0.4489    1.0308 H   0  0  0  0  0  0  0  0  0  0  0  0
   -0.6980   -2.7721    0.6644 H   0  0  0  0  0  0  0  0  0  0  0  0
   -2.5170   -2.6341    1.9222 H   0  0  0  0  0  0  0  0  0  0  0  0
   -2.8311   -3.2169   -1.4812 H   0  0  0  0  0  0  0  0  0  0  0  0
   -1.3276   -4.9001   -2.0997 H   0  0  0  0  0  0  0  0  0  0  0  0
   -0.1141   -4.3622   -1.0800 H   0  0  0  0  0  0  0  0  0  0  0  0
   -1.1202   -2.7520   -3.2643 H   0  0  0  0  0  0  0  0  0  0  0  0
   -0.0201   -2.0807   -2.0245 H   0  0  0  0  0  0  0  0  0  0  0  0
   -2.6654   -1.0020   -3.1360 H   0  0  0  0  0  0  0  0  0  0  0  0
   -0.0634    0.2330   -2.4276 H   0  0  0  0  0  0  0  0  0  0  0  0
   -0.6206   -0.1858   -3.9534 H   0  0  0  0  0  0  0  0  0  0  0  0
   -2.3247    0.7645   -1.0845 H   0  0  0  0  0  0  0  0  0  0  0  0
   -4.3093    1.2458   -0.7209 H   0  0  0  0  0  0  0  0  0  0  0  0
   -7.8066    0.6230   -1.2997 H   0  0  0  0  0  0  0  0  0  0  0  0
   -6.9255    1.6094   -3.3267 H   0  0  0  0  0  0  0  0  0  0  0  0
   -7.6067    2.8763   -2.2643 H   0  0  0  0  0  0  0  0  0  0  0  0
   -5.3812    3.2595   -3.3542 H   0  0  0  0  0  0  0  0  0  0  0  0
   -5.5594    3.6780   -1.7440 H   0  0  0  0  0  0  0  0  0  0  0  0
   -6.0047    2.5661    0.2381 H   0  0  0  0  0  0  0  0  0  0  0  0
   -7.9371    2.9684    1.2314 H   0  0  0  0  0  0  0  0  0  0  0  0
   -7.2789   -0.0433    1.2249 H   0  0  0  0  0  0  0  0  0  0  0  0
   -7.2644    1.2870    2.9099 H   0  0  0  0  0  0  0  0  0  0  0  0
   -4.2902    0.4769    1.4882 H   0  0  0  0  0  0  0  0  0  0  0  0
   -6.0024   -1.8596    0.7974 H   0  0  0  0  0  0  0  0  0  0  0  0
   -5.2522   -1.4981    2.2654 H   0  0  0  0  0  0  0  0  0  0  0  0
    2.0300    1.7335    2.6305 H   0  0  0  0  0  0  0  0  0  0  0  0
    2.9020    3.1763    0.8242 H   0  0  0  0  0  0  0  0  0  0  0  0
    1.5103    2.7205   -0.2399 H   0  0  0  0  0  0  0  0  0  0  0  0
    1.4363    4.7342    1.1663 H   0  0  0  0  0  0  0  0  0  0  0  0
    6.5041   -1.4958    1.0095 H   0  0  0  0  0  0  0  0  0  0  0  0
    6.3256   -1.6572    3.3143 H   0  0  0  0  0  0  0  0  0  0  0  0
    4.8578   -2.0482    2.6374 H   0  0  0  0  0  0  0  0  0  0  0  0
    6.2342    1.3530    2.1556 H   0  0  0  0  0  0  0  0  0  0  0  0
    8.3901    1.0415    2.7951 H   0  0  0  0  0  0  0  0  0  0  0  0
    8.3059    0.2852    0.1658 H   0  0  0  0  0  0  0  0  0  0  0  0
    7.7661    2.6876    1.2206 H   0  0  0  0  0  0  0  0  0  0  0  0
  1  2  1  0
  3  2  1  0
  3  4  1  0
  4  5  1  0
  5  6  1  0
  7  6  1  0
  7  8  1  0
  8  9  1  0
  8 10  1  0
 10 11  1  0
 12 11  1  0
 12 13  1  0
 13 14  1  0
 13 15  1  0
 15 16  1  0
 15 17  1  0
 17 18  1  0
 18 19  1  0
 18 20  1  0
 20 12  1  0
 20 21  1  0
 22 21  1  0
 22 23  1  0
 23 24  1  0
 24 25  1  0
 25 26  1  0
 24 27  1  0
 27 28  1  0
 27 29  1  0
 29 30  1  0
 29 31  1  0
 31 22  1  0
 31 32  1  0
 10 33  1  0
 33 34  1  0
 34  7  1  0
 34 35  1  0
 35 36  1  0
  5 37  1  0
 37 38  1  0
 37 39  1  0
 39 40  1  0
 39 41  1  0
 41  3  1  0
 41 42  1  0
  1 43  1  0
  1 44  1  0
  2 45  1  0
  2 46  1  0
  3 47  1  6
  5 48  1  6
  7 49  1  6
  8 50  1  6
  9 51  1  0
 10 52  1  1
 12 53  1  1
 13 54  1  1
 14 55  1  0
 15 56  1  6
 16 57  1  0
 16 58  1  0
 17 59  1  0
 17 60  1  0
 18 61  1  6
 19 62  1  0
 19 63  1  0
 20 64  1  6
 22 65  1  1
 24 66  1  6
 25 67  1  0
 25 68  1  0
 26 69  1  0
 26 70  1  0
 27 71  1  6
 28 72  1  0
 29 73  1  1
 30 74  1  0
 31 75  1  1
 32 76  1  0
 32 77  1  0
 34 78  1  1
 35 79  1  0
 35 80  1  0
 36 81  1  0
 37 82  1  6
 38 83  1  0
 38 84  1  0
 39 85  1  1
 40 86  1  0
 41 87  1  6
 42 88  1  0
M  END
> <ID>
HT1474

> <Class>
0.0

> <Clusters>
141

> <Fold>
1

$$$$