
     RDKit          3D

 38 40  0  0  0  0  0  0  0  0999 V2000
   -3.7412    0.7930    1.5340 C   0  0  0  0  0  0  0  0  0  0  0  0
   -3.1427    1.4584    0.2989 C   0  0  0  0  0  0  0  0  0  0  0  0
   -2.6802    0.4436   -0.6632 N   0  0  0  0  0  0  0  0  0  0  0  0
   -3.3613    0.2245   -1.9190 C   0  0  0  0  0  0  0  0  0  0  0  0
   -2.7574   -0.3507   -2.8654 O   0  0  0  0  0  0  0  0  0  0  0  0
   -4.7713    0.6804   -2.1447 C   0  0  0  0  0  0  0  0  0  0  0  0
   -1.5386   -0.3726   -0.3318 C   0  0  0  0  0  0  0  0  0  0  0  0
   -1.6429   -1.7719   -0.3620 C   0  0  0  0  0  0  0  0  0  0  0  0
   -0.5462   -2.5682   -0.0275 C   0  0  0  0  0  0  0  0  0  0  0  0
    0.6656   -1.9773    0.3367 C   0  0  0  0  0  0  0  0  0  0  0  0
    0.7937   -0.5787    0.3636 C   0  0  0  0  0  0  0  0  0  0  0  0
   -0.3166    0.2178    0.0319 C   0  0  0  0  0  0  0  0  0  0  0  0
    2.0777    0.0523    0.7532 C   0  0  0  0  0  0  0  0  0  0  0  0
    2.1077    1.1406    1.6477 C   0  0  0  0  0  0  0  0  0  0  0  0
    3.3489    1.7069    1.9964 C   0  0  0  0  0  0  0  0  0  0  0  0
    4.5071    1.2150    1.4709 N   0  0  0  0  0  0  0  0  0  0  0  0
    4.4379    0.1693    0.6123 C   0  0  0  0  0  0  0  0  0  0  0  0
    5.4585   -0.4591   -0.0536 C   0  0  0  0  0  0  0  0  0  0  0  0
    4.8182   -1.4215   -0.8234 C   0  0  0  0  0  0  0  0  0  0  0  0
    3.4801   -1.3563   -0.6143 N   0  0  0  0  0  0  0  0  0  0  0  0
    3.2713   -0.3892    0.2670 N   0  0  0  0  0  0  0  0  0  0  0  0
    6.8659   -0.1735    0.0056 C   0  0  0  0  0  0  0  0  0  0  0  0
    7.9990    0.0565    0.0534 N   0  0  0  0  0  0  0  0  0  0  0  0
   -2.9695    0.1930    2.0611 H   0  0  0  0  0  0  0  0  0  0  0  0
   -4.5819    0.1296    1.2400 H   0  0  0  0  0  0  0  0  0  0  0  0
   -4.1230    1.5702    2.2290 H   0  0  0  0  0  0  0  0  0  0  0  0
   -3.9042    2.1277   -0.1513 H   0  0  0  0  0  0  0  0  0  0  0  0
   -2.2999    2.1127    0.6042 H   0  0  0  0  0  0  0  0  0  0  0  0
   -5.2196    0.1348   -3.0021 H   0  0  0  0  0  0  0  0  0  0  0  0
   -5.3880    0.4771   -1.2446 H   0  0  0  0  0  0  0  0  0  0  0  0
   -4.7823    1.7670   -2.3703 H   0  0  0  0  0  0  0  0  0  0  0  0
   -2.5799   -2.2431   -0.6307 H   0  0  0  0  0  0  0  0  0  0  0  0
   -0.6379   -3.6466   -0.0423 H   0  0  0  0  0  0  0  0  0  0  0  0
    1.4961   -2.6132    0.6160 H   0  0  0  0  0  0  0  0  0  0  0  0
   -0.2195    1.2958    0.0256 H   0  0  0  0  0  0  0  0  0  0  0  0
    1.1965    1.5353    2.0795 H   0  0  0  0  0  0  0  0  0  0  0  0
    3.3857    2.5397    2.6858 H   0  0  0  0  0  0  0  0  0  0  0  0
    5.2941   -2.1195   -1.4993 H   0  0  0  0  0  0  0  0  0  0  0  0
  1  2  1  0
  2  3  1  0
  3  4  1  0
  4  5  2  0
  4  6  1  0
  3  7  1  0
  7  8  2  0
  8  9  1  0
  9 10  2  0
 10 11  1  0
 11 12  2  0
 12  7  1  0
 11 13  1  0
 13 14  2  0
 14 15  1  0
 15 16  2  0
 16 17  1  0
 17 18  2  0
 18 19  1  0
 19 20  2  0
 20 21  1  0
 21 13  1  0
 21 17  1  0
 18 22  1  0
 22 23  3  0
  1 24  1  0
  1 25  1  0
  1 26  1  0
  2 27  1  0
  2 28  1  0
  6 29  1  0
  6 30  1  0
  6 31  1  0
  8 32  1  0
  9 33  1  0
 10 34  1  0
 12 35  1  0
 14 36  1  0
 15 37  1  0
 19 38  1  0
M  END
> <ID>
HT2208

> <Class>
0.0

> <Clusters>
172

> <Fold>
1

$$$$