
     RDKit          3D

 69 73  0  0  0  0  0  0  0  0999 V2000
   -6.2218    0.8598    1.3507 C   0  0  0  0  0  0  0  0  0  0  0  0
   -5.1717    1.2441    0.3546 C   0  0  0  0  0  0  0  0  0  0  0  0
   -4.2798    0.4072   -0.3134 C   0  0  0  0  0  0  0  0  0  0  0  0
   -4.2070   -1.0529   -0.1490 C   0  0  0  0  0  0  0  0  0  0  0  0
   -5.1094   -1.8829   -0.8280 C   0  0  0  0  0  0  0  0  0  0  0  0
   -5.0371   -3.2707   -0.6735 C   0  0  0  0  0  0  0  0  0  0  0  0
   -4.0637   -3.8360    0.1630 C   0  0  0  0  0  0  0  0  0  0  0  0
   -3.9800   -5.2175    0.3216 O   0  0  0  0  0  0  0  0  0  0  0  0
   -3.1676   -3.0057    0.8467 C   0  0  0  0  0  0  0  0  0  0  0  0
   -3.2422   -1.6177    0.6966 C   0  0  0  0  0  0  0  0  0  0  0  0
   -3.4723    1.1266   -1.1374 N   0  0  0  0  0  0  0  0  0  0  0  0
   -2.4317    0.5921   -2.0252 C   0  0  0  0  0  0  0  0  0  0  0  0
   -1.1948    0.2352   -1.2444 C   0  0  0  0  0  0  0  0  0  0  0  0
   -0.5247    1.2121   -0.4925 C   0  0  0  0  0  0  0  0  0  0  0  0
    0.6145    0.8770    0.2440 C   0  0  0  0  0  0  0  0  0  0  0  0
    1.1094   -0.4315    0.2326 C   0  0  0  0  0  0  0  0  0  0  0  0
    2.2577   -0.7151    0.9846 O   0  0  0  0  0  0  0  0  0  0  0  0
    2.9306   -1.9718    0.9878 C   0  0  0  0  0  0  0  0  0  0  0  0
    4.1862   -1.9044    1.8752 C   0  0  0  0  0  0  0  0  0  0  0  0
    5.3230   -1.1629    1.2773 N   0  0  0  0  0  0  0  0  0  0  0  0
    5.8412   -1.7939    0.0435 C   0  0  0  0  0  0  0  0  0  0  0  0
    7.3569   -1.5763   -0.0532 C   0  0  0  0  0  0  0  0  0  0  0  0
    7.7733   -0.2738   -0.7636 C   0  0  0  0  0  0  0  0  0  0  0  0
    6.8668    0.9502   -0.5345 C   0  0  0  0  0  0  0  0  0  0  0  0
    6.3339    1.0857    0.9010 C   0  0  0  0  0  0  0  0  0  0  0  0
    5.0446    0.2787    1.1180 C   0  0  0  0  0  0  0  0  0  0  0  0
    0.4453   -1.4105   -0.5297 C   0  0  0  0  0  0  0  0  0  0  0  0
   -0.6952   -1.0767   -1.2648 C   0  0  0  0  0  0  0  0  0  0  0  0
   -3.8415    2.4190   -0.9796 C   0  0  0  0  0  0  0  0  0  0  0  0
   -3.3055    3.5567   -1.5941 C   0  0  0  0  0  0  0  0  0  0  0  0
   -3.8614    4.8083   -1.2724 C   0  0  0  0  0  0  0  0  0  0  0  0
   -4.9305    4.9070   -0.3550 C   0  0  0  0  0  0  0  0  0  0  0  0
   -5.4664    6.1585   -0.0603 O   0  0  0  0  0  0  0  0  0  0  0  0
   -5.4482    3.7470    0.2545 C   0  0  0  0  0  0  0  0  0  0  0  0
   -4.8772    2.5197   -0.0814 C   0  0  0  0  0  0  0  0  0  0  0  0
   -6.2245   -0.2363    1.5253 H   0  0  0  0  0  0  0  0  0  0  0  0
   -6.0242    1.3740    2.3147 H   0  0  0  0  0  0  0  0  0  0  0  0
   -7.2198    1.1637    0.9723 H   0  0  0  0  0  0  0  0  0  0  0  0
   -5.8640   -1.4560   -1.4769 H   0  0  0  0  0  0  0  0  0  0  0  0
   -5.7366   -3.9047   -1.2035 H   0  0  0  0  0  0  0  0  0  0  0  0
   -4.6095   -5.8452   -0.1651 H   0  0  0  0  0  0  0  0  0  0  0  0
   -2.4136   -3.4366    1.4938 H   0  0  0  0  0  0  0  0  0  0  0  0
   -2.5441   -0.9844    1.2312 H   0  0  0  0  0  0  0  0  0  0  0  0
   -2.8336   -0.2968   -2.5594 H   0  0  0  0  0  0  0  0  0  0  0  0
   -2.1654    1.3278   -2.8111 H   0  0  0  0  0  0  0  0  0  0  0  0
   -0.8864    2.2318   -0.4715 H   0  0  0  0  0  0  0  0  0  0  0  0
    1.1193    1.6400    0.8237 H   0  0  0  0  0  0  0  0  0  0  0  0
    2.2471   -2.7430    1.4057 H   0  0  0  0  0  0  0  0  0  0  0  0
    3.1960   -2.2667   -0.0491 H   0  0  0  0  0  0  0  0  0  0  0  0
    3.9171   -1.4549    2.8564 H   0  0  0  0  0  0  0  0  0  0  0  0
    4.5135   -2.9427    2.1041 H   0  0  0  0  0  0  0  0  0  0  0  0
    5.6750   -2.8950    0.0749 H   0  0  0  0  0  0  0  0  0  0  0  0
    5.3212   -1.4174   -0.8664 H   0  0  0  0  0  0  0  0  0  0  0  0
    7.8092   -2.4274   -0.6086 H   0  0  0  0  0  0  0  0  0  0  0  0
    7.7976   -1.5974    0.9677 H   0  0  0  0  0  0  0  0  0  0  0  0
    7.8248   -0.4633   -1.8594 H   0  0  0  0  0  0  0  0  0  0  0  0
    8.8062   -0.0194   -0.4378 H   0  0  0  0  0  0  0  0  0  0  0  0
    6.0242    0.9308   -1.2591 H   0  0  0  0  0  0  0  0  0  0  0  0
    7.4588    1.8594   -0.7776 H   0  0  0  0  0  0  0  0  0  0  0  0
    7.1081    0.7965    1.6444 H   0  0  0  0  0  0  0  0  0  0  0  0
    6.0952    2.1580    1.0771 H   0  0  0  0  0  0  0  0  0  0  0  0
    4.3374    0.4621    0.2796 H   0  0  0  0  0  0  0  0  0  0  0  0
    4.5677    0.6686    2.0448 H   0  0  0  0  0  0  0  0  0  0  0  0
    0.7986   -2.4318   -0.5574 H   0  0  0  0  0  0  0  0  0  0  0  0
   -1.1957   -1.8470   -1.8387 H   0  0  0  0  0  0  0  0  0  0  0  0
   -2.4829    3.4949   -2.2922 H   0  0  0  0  0  0  0  0  0  0  0  0
   -3.4654    5.7039   -1.7347 H   0  0  0  0  0  0  0  0  0  0  0  0
   -6.2390    6.2648    0.5877 H   0  0  0  0  0  0  0  0  0  0  0  0
   -6.2664    3.8048    0.9615 H   0  0  0  0  0  0  0  0  0  0  0  0
  1  2  1  0
  2  3  2  0
  3  4  1  0
  4  5  2  0
  5  6  1  0
  6  7  2  0
  7  8  1  0
  7  9  1  0
  9 10  2  0
 10  4  1  0
  3 11  1  0
 11 12  1  0
 12 13  1  0
 13 14  2  0
 14 15  1  0
 15 16  2  0
 16 17  1  0
 17 18  1  0
 18 19  1  0
 19 20  1  0
 20 21  1  0
 21 22  1  0
 22 23  1  0
 23 24  1  0
 24 25  1  0
 25 26  1  0
 26 20  1  0
 16 27  1  0
 27 28  2  0
 28 13  1  0
 11 29  1  0
 29 30  2  0
 30 31  1  0
 31 32  2  0
 32 33  1  0
 32 34  1  0
 34 35  2  0
 35  2  1  0
 35 29  1  0
  1 36  1  0
  1 37  1  0
  1 38  1  0
  5 39  1  0
  6 40  1  0
  8 41  1  0
  9 42  1  0
 10 43  1  0
 12 44  1  0
 12 45  1  0
 14 46  1  0
 15 47  1  0
 18 48  1  0
 18 49  1  0
 19 50  1  0
 19 51  1  0
 21 52  1  0
 21 53  1  0
 22 54  1  0
 22 55  1  0
 23 56  1  0
 23 57  1  0
 24 58  1  0
 24 59  1  0
 25 60  1  0
 25 61  1  0
 26 62  1  0
 26 63  1  0
 27 64  1  0
 28 65  1  0
 30 66  1  0
 31 67  1  0
 33 68  1  0
 34 69  1  0
M  END
> <ID>
HT0229

> <Class>
0.0

> <Clusters>
29

> <Fold>
1

$$$$