
     RDKit          3D

 40 41  0  0  0  0  0  0  0  0999 V2000
    3.8361    1.2648   -2.9073 C   0  0  0  0  0  0  0  0  0  0  0  0
    3.5462    0.0967   -2.0596 N   0  0  0  0  0  0  0  0  0  0  0  0
    4.7990   -0.3878   -1.4532 C   0  0  0  0  0  0  0  0  0  0  0  0
    2.5560    0.4565   -1.0213 C   0  0  0  0  0  0  0  0  0  0  0  0
    1.8381   -0.7868   -0.4962 C   0  0  0  0  0  0  0  0  0  0  0  0
    0.7632   -0.3857    0.3489 O   0  0  0  0  0  0  0  0  0  0  0  0
   -0.1311   -1.2650    0.9801 C   0  0  0  0  0  0  0  0  0  0  0  0
   -0.0056   -2.6636    0.8577 C   0  0  0  0  0  0  0  0  0  0  0  0
   -0.9167   -3.5134    1.4884 C   0  0  0  0  0  0  0  0  0  0  0  0
   -1.9630   -2.9829    2.2426 C   0  0  0  0  0  0  0  0  0  0  0  0
   -2.1000   -1.6000    2.3728 C   0  0  0  0  0  0  0  0  0  0  0  0
   -1.1840   -0.7314    1.7551 C   0  0  0  0  0  0  0  0  0  0  0  0
   -1.3791    0.7590    1.8872 C   0  0  0  0  0  0  0  0  0  0  0  0
   -2.3627    1.2535    0.8601 C   0  0  0  0  0  0  0  0  0  0  0  0
   -3.7121    1.4451    1.2039 C   0  0  0  0  0  0  0  0  0  0  0  0
   -4.6266    1.8923    0.2452 C   0  0  0  0  0  0  0  0  0  0  0  0
   -4.2025    2.1494   -1.0614 C   0  0  0  0  0  0  0  0  0  0  0  0
   -2.8632    1.9588   -1.4119 C   0  0  0  0  0  0  0  0  0  0  0  0
   -1.9452    1.5119   -0.4568 C   0  0  0  0  0  0  0  0  0  0  0  0
    2.9145    1.5940   -3.4334 H   0  0  0  0  0  0  0  0  0  0  0  0
    4.2330    2.1116   -2.3040 H   0  0  0  0  0  0  0  0  0  0  0  0
    4.5769    0.9988   -3.6919 H   0  0  0  0  0  0  0  0  0  0  0  0
    5.5311   -0.6527   -2.2462 H   0  0  0  0  0  0  0  0  0  0  0  0
    5.2530    0.3809   -0.7884 H   0  0  0  0  0  0  0  0  0  0  0  0
    4.6175   -1.3128   -0.8692 H   0  0  0  0  0  0  0  0  0  0  0  0
    3.0312    1.0063   -0.1769 H   0  0  0  0  0  0  0  0  0  0  0  0
    1.7729    1.1239   -1.4494 H   0  0  0  0  0  0  0  0  0  0  0  0
    2.5427   -1.4177    0.0850 H   0  0  0  0  0  0  0  0  0  0  0  0
    1.4372   -1.3681   -1.3553 H   0  0  0  0  0  0  0  0  0  0  0  0
    0.7919   -3.1046    0.2757 H   0  0  0  0  0  0  0  0  0  0  0  0
   -0.8139   -4.5863    1.3878 H   0  0  0  0  0  0  0  0  0  0  0  0
   -2.6719   -3.6442    2.7242 H   0  0  0  0  0  0  0  0  0  0  0  0
   -2.9231   -1.2037    2.9551 H   0  0  0  0  0  0  0  0  0  0  0  0
   -1.7436    0.9935    2.9119 H   0  0  0  0  0  0  0  0  0  0  0  0
   -0.4159    1.3034    1.7818 H   0  0  0  0  0  0  0  0  0  0  0  0
   -4.0567    1.2442    2.2108 H   0  0  0  0  0  0  0  0  0  0  0  0
   -5.6646    2.0382    0.5150 H   0  0  0  0  0  0  0  0  0  0  0  0
   -4.9117    2.4952   -1.8022 H   0  0  0  0  0  0  0  0  0  0  0  0
   -2.5357    2.1578   -2.4241 H   0  0  0  0  0  0  0  0  0  0  0  0
   -0.9112    1.3713   -0.7437 H   0  0  0  0  0  0  0  0  0  0  0  0
  1  2  1  0
  2  3  1  0
  2  4  1  0
  4  5  1  0
  5  6  1  0
  6  7  1  0
  7  8  2  0
  8  9  1  0
  9 10  2  0
 10 11  1  0
 11 12  2  0
 12  7  1  0
 12 13  1  0
 13 14  1  0
 14 15  2  0
 15 16  1  0
 16 17  2  0
 17 18  1  0
 18 19  2  0
 19 14  1  0
  1 20  1  0
  1 21  1  0
  1 22  1  0
  3 23  1  0
  3 24  1  0
  3 25  1  0
  4 26  1  0
  4 27  1  0
  5 28  1  0
  5 29  1  0
  8 30  1  0
  9 31  1  0
 10 32  1  0
 11 33  1  0
 13 34  1  0
 13 35  1  0
 15 36  1  0
 16 37  1  0
 17 38  1  0
 18 39  1  0
 19 40  1  0
M  END
> <ID>
HT3120

> <Class>
0.0

> <Clusters>
79

> <Fold>
1

$$$$