
     RDKit          3D

 69 72  0  0  0  0  0  0  0  0999 V2000
    9.5510   -1.4123   -0.8393 C   0  0  0  0  0  0  0  0  0  0  0  0
    8.4293   -0.6664   -1.5621 C   0  0  0  0  0  0  0  0  0  0  0  0
    7.1530   -0.5418   -0.7152 C   0  0  0  0  0  0  0  0  0  0  0  0
    6.4064   -1.8798   -0.5749 C   0  0  0  0  0  0  0  0  0  0  0  0
    5.1276   -1.7556    0.2692 C   0  0  0  0  0  0  0  0  0  0  0  0
    3.9841   -1.0653   -0.4880 C   0  0  0  0  0  0  0  0  0  0  0  0
    2.7362   -1.0431    0.3378 C   0  0  0  0  0  0  0  0  0  0  0  0
    2.1726   -2.1272    0.6517 O   0  0  0  0  0  0  0  0  0  0  0  0
    2.2103    0.1845    0.7544 O   0  0  0  0  0  0  0  0  0  0  0  0
    0.9649    0.3170    1.4439 C   0  0  1  0  0  0  0  0  0  0  0  0
    0.9052    1.6642    2.1947 C   0  0  0  0  0  0  0  0  0  0  0  0
   -0.5266    2.2018    2.0305 C   0  0  0  0  0  0  0  0  0  0  0  0
   -1.2847    1.0431    1.3971 C   0  0  1  0  0  0  0  0  0  0  0  0
   -2.6186    1.3232    0.6737 C   0  0  2  0  0  0  0  0  0  0  0  0
   -3.6083    2.0409    1.6085 C   0  0  0  0  0  0  0  0  0  0  0  0
   -4.9252    2.3119    0.8881 C   0  0  0  0  0  0  0  0  0  0  0  0
   -5.5125    1.0302    0.3457 C   0  0  0  0  0  0  0  0  0  0  0  0
   -6.8285    0.8013    0.5118 C   0  0  0  0  0  0  0  0  0  0  0  0
   -7.5005   -0.3521   -0.0985 C   0  0  0  0  0  0  0  0  0  0  0  0
   -8.7263   -0.5461    0.1159 O   0  0  0  0  0  0  0  0  0  0  0  0
   -6.7565   -1.2541   -1.0271 C   0  0  0  0  0  0  0  0  0  0  0  0
   -5.2766   -1.3056   -0.6413 C   0  0  0  0  0  0  0  0  0  0  0  0
   -4.6224    0.1094   -0.5049 C   0  0  1  0  0  0  0  0  0  0  0  0
   -4.4817    0.7432   -1.9124 C   0  0  0  0  0  0  0  0  0  0  0  0
   -3.2232   -0.0462    0.2115 C   0  0  1  0  0  0  0  0  0  0  0  0
   -2.1927   -0.9025   -0.5935 C   0  0  0  0  0  0  0  0  0  0  0  0
   -0.8196   -1.0320    0.1088 C   0  0  0  0  0  0  0  0  0  0  0  0
   -0.2538    0.3521    0.4952 C   0  0  2  0  0  0  0  0  0  0  0  0
    0.1100    1.1624   -0.7907 C   0  0  0  0  0  0  0  0  0  0  0  0
    9.7509   -0.9507    0.1511 H   0  0  0  0  0  0  0  0  0  0  0  0
   10.4791   -1.3592   -1.4464 H   0  0  0  0  0  0  0  0  0  0  0  0
    9.2905   -2.4822   -0.7038 H   0  0  0  0  0  0  0  0  0  0  0  0
    8.2028   -1.1745   -2.5247 H   0  0  0  0  0  0  0  0  0  0  0  0
    8.7925    0.3570   -1.8006 H   0  0  0  0  0  0  0  0  0  0  0  0
    7.4069   -0.1398    0.2901 H   0  0  0  0  0  0  0  0  0  0  0  0
    6.4919    0.1960   -1.2156 H   0  0  0  0  0  0  0  0  0  0  0  0
    6.1573   -2.2854   -1.5802 H   0  0  0  0  0  0  0  0  0  0  0  0
    7.0693   -2.6141   -0.0705 H   0  0  0  0  0  0  0  0  0  0  0  0
    5.3469   -1.2047    1.2105 H   0  0  0  0  0  0  0  0  0  0  0  0
    4.8028   -2.7821    0.5492 H   0  0  0  0  0  0  0  0  0  0  0  0
    3.7756   -1.6020   -1.4386 H   0  0  0  0  0  0  0  0  0  0  0  0
    4.2665   -0.0202   -0.7324 H   0  0  0  0  0  0  0  0  0  0  0  0
    0.8555   -0.5018    2.1927 H   0  0  0  0  0  0  0  0  0  0  0  0
    1.1464    1.5147    3.2699 H   0  0  0  0  0  0  0  0  0  0  0  0
    1.6301    2.3911    1.7667 H   0  0  0  0  0  0  0  0  0  0  0  0
   -0.5389    3.0907    1.3627 H   0  0  0  0  0  0  0  0  0  0  0  0
   -0.9638    2.4781    3.0148 H   0  0  0  0  0  0  0  0  0  0  0  0
   -1.5269    0.3540    2.2447 H   0  0  0  0  0  0  0  0  0  0  0  0
   -2.4347    1.9896   -0.1915 H   0  0  0  0  0  0  0  0  0  0  0  0
   -3.1838    3.0149    1.9344 H   0  0  0  0  0  0  0  0  0  0  0  0
   -3.8003    1.4275    2.5169 H   0  0  0  0  0  0  0  0  0  0  0  0
   -4.7459    3.0124    0.0441 H   0  0  0  0  0  0  0  0  0  0  0  0
   -5.6191    2.8172    1.5956 H   0  0  0  0  0  0  0  0  0  0  0  0
   -7.4323    1.4875    1.0941 H   0  0  0  0  0  0  0  0  0  0  0  0
   -6.8733   -0.8868   -2.0682 H   0  0  0  0  0  0  0  0  0  0  0  0
   -7.1820   -2.2799   -0.9754 H   0  0  0  0  0  0  0  0  0  0  0  0
   -4.7478   -1.9124   -1.4068 H   0  0  0  0  0  0  0  0  0  0  0  0
   -5.1972   -1.8533    0.3243 H   0  0  0  0  0  0  0  0  0  0  0  0
   -5.4779    1.0151   -2.3215 H   0  0  0  0  0  0  0  0  0  0  0  0
   -4.0112    0.0390   -2.6295 H   0  0  0  0  0  0  0  0  0  0  0  0
   -3.8765    1.6708   -1.8878 H   0  0  0  0  0  0  0  0  0  0  0  0
   -3.4149   -0.6228    1.1467 H   0  0  0  0  0  0  0  0  0  0  0  0
   -2.5850   -1.9315   -0.7276 H   0  0  0  0  0  0  0  0  0  0  0  0
   -2.0420   -0.4839   -1.6075 H   0  0  0  0  0  0  0  0  0  0  0  0
   -0.9390   -1.6648    1.0160 H   0  0  0  0  0  0  0  0  0  0  0  0
   -0.1154   -1.5571   -0.5714 H   0  0  0  0  0  0  0  0  0  0  0  0
    0.8569    0.6039   -1.3941 H   0  0  0  0  0  0  0  0  0  0  0  0
    0.5509    2.1504   -0.5446 H   0  0  0  0  0  0  0  0  0  0  0  0
   -0.7576    1.3436   -1.4520 H   0  0  0  0  0  0  0  0  0  0  0  0
  1  2  1  0
  2  3  1  0
  3  4  1  0
  4  5  1  0
  5  6  1  0
  6  7  1  0
  7  8  2  0
  7  9  1  0
 10  9  1  0
 10 11  1  0
 11 12  1  0
 13 12  1  0
 13 14  1  0
 14 15  1  0
 15 16  1  0
 16 17  1  0
 17 18  2  0
 18 19  1  0
 19 20  2  0
 19 21  1  0
 21 22  1  0
 22 23  1  0
 23 17  1  0
 23 24  1  6
 23 25  1  0
 25 14  1  0
 25 26  1  0
 26 27  1  0
 27 28  1  0
 28 10  1  0
 28 13  1  0
 28 29  1  6
  1 30  1  0
  1 31  1  0
  1 32  1  0
  2 33  1  0
  2 34  1  0
  3 35  1  0
  3 36  1  0
  4 37  1  0
  4 38  1  0
  5 39  1  0
  5 40  1  0
  6 41  1  0
  6 42  1  0
 10 43  1  1
 11 44  1  0
 11 45  1  0
 12 46  1  0
 12 47  1  0
 13 48  1  1
 14 49  1  6
 15 50  1  0
 15 51  1  0
 16 52  1  0
 16 53  1  0
 18 54  1  0
 21 55  1  0
 21 56  1  0
 22 57  1  0
 22 58  1  0
 24 59  1  0
 24 60  1  0
 24 61  1  0
 25 62  1  1
 26 63  1  0
 26 64  1  0
 27 65  1  0
 27 66  1  0
 29 67  1  0
 29 68  1  0
 29 69  1  0
M  END
> <ID>
HT2019

> <Class>
0.0

> <Clusters>
224

> <Fold>
1

$$$$