
     RDKit          3D

 52 55  0  0  0  0  0  0  0  0999 V2000
   -4.1028   -2.2970   -1.7419 O   0  0  0  0  0  0  0  0  0  0  0  0
   -4.4035   -1.1122   -1.0534 C   0  0  0  0  0  0  0  0  0  0  0  0
   -3.2463   -0.1062   -1.1829 C   0  0  0  0  0  0  0  0  0  0  0  0
   -2.0613   -0.7412   -0.7158 O   0  0  0  0  0  0  0  0  0  0  0  0
   -0.9754    0.1654   -0.6242 C   0  0  0  0  0  0  0  0  0  0  0  0
   -1.2073    1.2072    0.5197 C   0  0  0  0  0  0  0  0  0  0  0  0
   -0.4783    0.8876    1.6774 O   0  0  0  0  0  0  0  0  0  0  0  0
   -2.7126    1.3542    0.8486 C   0  0  0  0  0  0  0  0  0  0  0  0
   -3.1319    0.3613    1.7519 O   0  0  0  0  0  0  0  0  0  0  0  0
   -3.5361    1.2463   -0.4457 C   0  0  0  0  0  0  0  0  0  0  0  0
   -4.9051    1.4101   -0.1664 O   0  0  0  0  0  0  0  0  0  0  0  0
    0.3731   -0.6293   -0.5389 C   0  0  0  0  0  0  0  0  0  0  0  0
    0.5193   -1.6342    0.6297 C   0  0  0  0  0  0  0  0  0  0  0  0
   -0.5619   -2.0511    1.4393 C   0  0  0  0  0  0  0  0  0  0  0  0
   -0.3973   -3.0440    2.4030 C   0  0  0  0  0  0  0  0  0  0  0  0
    0.8453   -3.6357    2.5968 C   0  0  0  0  0  0  0  0  0  0  0  0
    1.9458   -3.2327    1.8410 C   0  0  0  0  0  0  0  0  0  0  0  0
    3.1847   -3.8002    2.1488 O   0  0  0  0  0  0  0  0  0  0  0  0
    1.7807   -2.2523    0.8304 C   0  0  0  0  0  0  0  0  0  0  0  0
    2.9040   -1.7963   -0.0071 C   0  0  0  0  0  0  0  0  0  0  0  0
    3.7720   -2.6089   -0.4251 O   0  0  0  0  0  0  0  0  0  0  0  0
    2.9054   -0.3933   -0.4582 C   0  0  0  0  0  0  0  0  0  0  0  0
    4.1056    0.3378   -0.6268 C   0  0  0  0  0  0  0  0  0  0  0  0
    5.3575   -0.1835   -0.2913 O   0  0  0  0  0  0  0  0  0  0  0  0
    4.0568    1.6438   -1.1128 C   0  0  0  0  0  0  0  0  0  0  0  0
    2.8342    2.2463   -1.4171 C   0  0  0  0  0  0  0  0  0  0  0  0
    2.7965    3.6668   -1.9138 C   0  0  0  0  0  0  0  0  0  0  0  0
    2.7365    4.5534   -0.8305 O   0  0  0  0  0  0  0  0  0  0  0  0
    1.6421    1.5446   -1.1985 C   0  0  0  0  0  0  0  0  0  0  0  0
    1.6516    0.2234   -0.6955 C   0  0  0  0  0  0  0  0  0  0  0  0
   -3.5620   -2.8579   -1.1267 H   0  0  0  0  0  0  0  0  0  0  0  0
   -4.6123   -1.3262    0.0204 H   0  0  0  0  0  0  0  0  0  0  0  0
   -5.3240   -0.6829   -1.5032 H   0  0  0  0  0  0  0  0  0  0  0  0
   -3.1329    0.1057   -2.2712 H   0  0  0  0  0  0  0  0  0  0  0  0
   -0.9401    0.7182   -1.5909 H   0  0  0  0  0  0  0  0  0  0  0  0
   -0.8583    2.1974    0.1471 H   0  0  0  0  0  0  0  0  0  0  0  0
   -0.4596    1.7044    2.2415 H   0  0  0  0  0  0  0  0  0  0  0  0
   -2.8861    2.3637    1.2924 H   0  0  0  0  0  0  0  0  0  0  0  0
   -2.9048    0.6822    2.6634 H   0  0  0  0  0  0  0  0  0  0  0  0
   -3.2103    2.0713   -1.1244 H   0  0  0  0  0  0  0  0  0  0  0  0
   -5.0467    2.3722    0.0351 H   0  0  0  0  0  0  0  0  0  0  0  0
    0.3699   -1.2737   -1.4464 H   0  0  0  0  0  0  0  0  0  0  0  0
   -1.5439   -1.6258    1.3559 H   0  0  0  0  0  0  0  0  0  0  0  0
   -1.2393   -3.3512    3.0102 H   0  0  0  0  0  0  0  0  0  0  0  0
    0.9625   -4.3916    3.3630 H   0  0  0  0  0  0  0  0  0  0  0  0
    4.0626   -3.4676    1.7748 H   0  0  0  0  0  0  0  0  0  0  0  0
    5.4851   -1.0538    0.2065 H   0  0  0  0  0  0  0  0  0  0  0  0
    4.9802    2.1964   -1.2410 H   0  0  0  0  0  0  0  0  0  0  0  0
    3.7110    3.8869   -2.5048 H   0  0  0  0  0  0  0  0  0  0  0  0
    1.9288    3.8246   -2.5946 H   0  0  0  0  0  0  0  0  0  0  0  0
    1.8025    4.5287   -0.4948 H   0  0  0  0  0  0  0  0  0  0  0  0
    0.7262    2.0487   -1.4532 H   0  0  0  0  0  0  0  0  0  0  0  0
  1  2  1  0
  2  3  1  0
  3  4  1  0
  4  5  1  0
  5  6  1  0
  6  7  1  0
  6  8  1  0
  8  9  1  0
  8 10  1  0
 10  3  1  0
 10 11  1  0
  5 12  1  0
 12 13  1  0
 13 14  2  0
 14 15  1  0
 15 16  2  0
 16 17  1  0
 17 18  1  0
 17 19  2  0
 19 13  1  0
 19 20  1  0
 20 21  2  0
 20 22  1  0
 22 23  2  0
 23 24  1  0
 23 25  1  0
 25 26  2  0
 26 27  1  0
 27 28  1  0
 26 29  1  0
 29 30  2  0
 30 12  1  0
 30 22  1  0
  1 31  1  0
  2 32  1  0
  2 33  1  0
  3 34  1  0
  5 35  1  0
  6 36  1  0
  7 37  1  0
  8 38  1  0
  9 39  1  0
 10 40  1  0
 11 41  1  0
 12 42  1  0
 14 43  1  0
 15 44  1  0
 16 45  1  0
 18 46  1  0
 24 47  1  0
 25 48  1  0
 27 49  1  0
 27 50  1  0
 28 51  1  0
 29 52  1  0
M  END
> <ID>
HT2251

> <Class>
0.0

> <Clusters>
68

> <Fold>
1

$$$$