
     RDKit          3D

 32 32  0  0  0  0  0  0  0  0999 V2000
    4.7520    0.9069   -1.7317 C   0  0  0  0  0  0  0  0  0  0  0  0
    4.1080   -0.0266   -0.7108 C   0  0  0  0  0  0  0  0  0  0  0  0
    2.6076    0.2557   -0.5706 C   0  0  0  0  0  0  0  0  0  0  0  0
    1.9634   -0.6939    0.4504 C   0  0  0  0  0  0  0  0  0  0  0  0
    0.4879   -0.3592    0.7193 C   0  0  0  0  0  0  0  0  0  0  0  0
   -0.4239   -0.7070   -0.4675 C   0  0  0  0  0  0  0  0  0  0  0  0
   -1.8745   -0.4876   -0.1125 C   0  0  0  0  0  0  0  0  0  0  0  0
   -2.7052   -1.5902    0.1508 C   0  0  0  0  0  0  0  0  0  0  0  0
   -4.0488   -1.4010    0.4842 C   0  0  0  0  0  0  0  0  0  0  0  0
   -4.5810   -0.1114    0.5566 C   0  0  0  0  0  0  0  0  0  0  0  0
   -5.9222    0.0610    0.8914 O   0  0  0  0  0  0  0  0  0  0  0  0
   -3.7631    0.9944    0.2916 C   0  0  0  0  0  0  0  0  0  0  0  0
   -2.4135    0.8135   -0.0451 C   0  0  0  0  0  0  0  0  0  0  0  0
   -1.6102    1.9207   -0.3182 O   0  0  0  0  0  0  0  0  0  0  0  0
    4.6323    1.9653   -1.4162 H   0  0  0  0  0  0  0  0  0  0  0  0
    4.2865    0.7667   -2.7306 H   0  0  0  0  0  0  0  0  0  0  0  0
    5.8362    0.6804   -1.8105 H   0  0  0  0  0  0  0  0  0  0  0  0
    4.2624   -1.0783   -1.0373 H   0  0  0  0  0  0  0  0  0  0  0  0
    4.6101    0.1146    0.2712 H   0  0  0  0  0  0  0  0  0  0  0  0
    2.4619    1.3081   -0.2412 H   0  0  0  0  0  0  0  0  0  0  0  0
    2.1240    0.1236   -1.5619 H   0  0  0  0  0  0  0  0  0  0  0  0
    2.0544   -1.7456    0.1004 H   0  0  0  0  0  0  0  0  0  0  0  0
    2.5136   -0.6115    1.4135 H   0  0  0  0  0  0  0  0  0  0  0  0
    0.1581   -0.9474    1.6041 H   0  0  0  0  0  0  0  0  0  0  0  0
    0.3910    0.7172    0.9790 H   0  0  0  0  0  0  0  0  0  0  0  0
   -0.2567   -1.7686   -0.7544 H   0  0  0  0  0  0  0  0  0  0  0  0
   -0.1714   -0.0851   -1.3519 H   0  0  0  0  0  0  0  0  0  0  0  0
   -2.3118   -2.5982    0.1050 H   0  0  0  0  0  0  0  0  0  0  0  0
   -4.6773   -2.2587    0.6879 H   0  0  0  0  0  0  0  0  0  0  0  0
   -6.3387    0.9828    0.9521 H   0  0  0  0  0  0  0  0  0  0  0  0
   -4.1762    1.9939    0.3446 H   0  0  0  0  0  0  0  0  0  0  0  0
   -1.9750    2.8652   -0.2769 H   0  0  0  0  0  0  0  0  0  0  0  0
  1  2  1  0
  2  3  1  0
  3  4  1  0
  4  5  1  0
  5  6  1  0
  6  7  1  0
  7  8  2  0
  8  9  1  0
  9 10  2  0
 10 11  1  0
 10 12  1  0
 12 13  2  0
 13  7  1  0
 13 14  1  0
  1 15  1  0
  1 16  1  0
  1 17  1  0
  2 18  1  0
  2 19  1  0
  3 20  1  0
  3 21  1  0
  4 22  1  0
  4 23  1  0
  5 24  1  0
  5 25  1  0
  6 26  1  0
  6 27  1  0
  8 28  1  0
  9 29  1  0
 11 30  1  0
 12 31  1  0
 14 32  1  0
M  END
> <ID>
HT2830

> <Class>
0.0

> <Clusters>
21

> <Fold>
1

$$$$