
     RDKit          3D

 34 35  0  0  0  0  0  0  0  0999 V2000
   -0.6452    3.3788    1.1888 C   0  0  0  0  0  0  0  0  0  0  0  0
   -1.0884    2.1234    0.5066 C   0  0  0  0  0  0  0  0  0  0  0  0
   -2.3564    1.5791    0.5565 C   0  0  0  0  0  0  0  0  0  0  0  0
   -2.3035    0.4074   -0.1765 C   0  0  0  0  0  0  0  0  0  0  0  0
   -3.4542   -0.5460   -0.3369 C   0  0  0  0  0  0  0  0  0  0  0  0
   -3.2261   -1.7818    0.4736 C   0  0  0  0  0  0  0  0  0  0  0  0
   -3.1647   -1.7113    1.7306 O   0  0  0  0  0  0  0  0  0  0  0  0
   -3.0846   -3.0117   -0.1613 O   0  0  0  0  0  0  0  0  0  0  0  0
   -1.0570    0.2168   -0.6713 N   0  0  0  0  0  0  0  0  0  0  0  0
   -0.6131   -0.9141   -1.4902 C   0  0  0  0  0  0  0  0  0  0  0  0
   -0.3038    1.2561   -0.2368 C   0  0  0  0  0  0  0  0  0  0  0  0
    1.1419    1.4290   -0.4934 C   0  0  0  0  0  0  0  0  0  0  0  0
    1.5490    2.5380   -0.9334 O   0  0  0  0  0  0  0  0  0  0  0  0
    2.1195    0.3477   -0.2220 C   0  0  0  0  0  0  0  0  0  0  0  0
    1.8386   -0.6620    0.7179 C   0  0  0  0  0  0  0  0  0  0  0  0
    2.7695   -1.6739    0.9697 C   0  0  0  0  0  0  0  0  0  0  0  0
    3.9934   -1.6853    0.2948 C   0  0  0  0  0  0  0  0  0  0  0  0
    5.1599   -2.9561    0.6127 Cl  0  0  0  0  0  0  0  0  0  0  0  0
    4.2882   -0.6800   -0.6306 C   0  0  0  0  0  0  0  0  0  0  0  0
    3.3595    0.3337   -0.8857 C   0  0  0  0  0  0  0  0  0  0  0  0
   -1.4873    3.8344    1.7514 H   0  0  0  0  0  0  0  0  0  0  0  0
   -0.2851    4.1078    0.4336 H   0  0  0  0  0  0  0  0  0  0  0  0
    0.1768    3.1474    1.8981 H   0  0  0  0  0  0  0  0  0  0  0  0
   -3.2142    1.9788    1.0820 H   0  0  0  0  0  0  0  0  0  0  0  0
   -4.4002   -0.0655   -0.0063 H   0  0  0  0  0  0  0  0  0  0  0  0
   -3.5734   -0.8092   -1.4085 H   0  0  0  0  0  0  0  0  0  0  0  0
   -2.9268   -3.8572    0.3737 H   0  0  0  0  0  0  0  0  0  0  0  0
   -1.4053   -1.2063   -2.2094 H   0  0  0  0  0  0  0  0  0  0  0  0
   -0.3770   -1.7796   -0.8371 H   0  0  0  0  0  0  0  0  0  0  0  0
    0.2848   -0.6430   -2.0833 H   0  0  0  0  0  0  0  0  0  0  0  0
    0.9037   -0.6661    1.2641 H   0  0  0  0  0  0  0  0  0  0  0  0
    2.5395   -2.4464    1.6924 H   0  0  0  0  0  0  0  0  0  0  0  0
    5.2361   -0.6829   -1.1536 H   0  0  0  0  0  0  0  0  0  0  0  0
    3.6060    1.1000   -1.6102 H   0  0  0  0  0  0  0  0  0  0  0  0
  1  2  1  0
  2  3  1  0
  3  4  2  0
  4  5  1  0
  5  6  1  0
  6  7  2  0
  6  8  1  0
  4  9  1  0
  9 10  1  0
  9 11  1  0
 11  2  2  0
 11 12  1  0
 12 13  2  0
 12 14  1  0
 14 15  2  0
 15 16  1  0
 16 17  2  0
 17 18  1  0
 17 19  1  0
 19 20  2  0
 20 14  1  0
  1 21  1  0
  1 22  1  0
  1 23  1  0
  3 24  1  0
  5 25  1  0
  5 26  1  0
  8 27  1  0
 10 28  1  0
 10 29  1  0
 10 30  1  0
 15 31  1  0
 16 32  1  0
 19 33  1  0
 20 34  1  0
M  END
> <ID>
HT2221

> <Class>
0.0

> <Clusters>
231

> <Fold>
1

$$$$