
     RDKit          3D

 62 66  0  0  0  0  0  0  0  0999 V2000
   -3.0753    2.2518    1.4626 C   0  0  0  0  0  0  0  0  0  0  0  0
   -3.5708    1.1090    0.5687 C   0  0  0  0  0  0  0  0  0  0  0  0
   -5.0075    1.4064    0.1213 C   0  0  0  0  0  0  0  0  0  0  0  0
   -3.5524   -0.0921    1.3115 O   0  0  0  0  0  0  0  0  0  0  0  0
   -2.7106   -0.9707    0.6250 C   0  0  2  0  0  0  0  0  0  0  0  0
   -1.3496   -1.0970    1.3502 C   0  0  0  0  0  0  0  0  0  0  0  0
   -0.3841   -0.3195    0.4663 C   0  0  1  0  0  0  0  0  0  0  0  0
    1.1389   -0.5431    0.6102 C   0  0  2  0  0  0  0  0  0  0  0  0
    1.5738   -0.3607    2.0820 C   0  0  0  0  0  0  0  0  0  0  0  0
    3.0866   -0.5055    2.2393 C   0  0  0  0  0  0  0  0  0  0  0  0
    3.7882    0.4517    1.3087 C   0  0  0  0  0  0  0  0  0  0  0  0
    4.6389    1.3599    1.8134 C   0  0  0  0  0  0  0  0  0  0  0  0
    5.2733    2.3550    0.9513 C   0  0  0  0  0  0  0  0  0  0  0  0
    6.0770    3.1935    1.4372 O   0  0  0  0  0  0  0  0  0  0  0  0
    4.9601    2.3787   -0.4746 C   0  0  0  0  0  0  0  0  0  0  0  0
    4.1225    1.4850   -0.9998 C   0  0  0  0  0  0  0  0  0  0  0  0
    3.4587    0.3672   -0.1919 C   0  0  1  0  0  0  0  0  0  0  0  0
    4.0459   -0.9654   -0.7216 C   0  0  0  0  0  0  0  0  0  0  0  0
    1.8846    0.4829   -0.3276 C   0  0  2  0  0  0  0  0  0  0  0  0
    1.5628    1.7583    0.1301 F   0  0  0  0  0  0  0  0  0  0  0  0
    1.3407    0.4231   -1.8039 C   0  0  1  0  0  0  0  0  0  0  0  0
    1.8065   -0.7141   -2.4794 O   0  0  0  0  0  0  0  0  0  0  0  0
   -0.2136    0.4904   -1.8830 C   0  0  0  0  0  0  0  0  0  0  0  0
   -0.9050   -0.5459   -0.9571 C   0  0  1  0  0  0  0  0  0  0  0  0
   -0.6509   -2.0012   -1.4795 C   0  0  0  0  0  0  0  0  0  0  0  0
   -2.4398   -0.3393   -0.7442 C   0  0  2  0  0  0  0  0  0  0  0  0
   -2.7384    1.0195   -0.5709 O   0  0  0  0  0  0  0  0  0  0  0  0
   -3.2919   -0.8543   -1.9085 C   0  0  0  0  0  0  0  0  0  0  0  0
   -3.1117   -0.3710   -3.0157 O   0  0  0  0  0  0  0  0  0  0  0  0
   -4.3508   -1.9162   -1.7657 C   0  0  0  0  0  0  0  0  0  0  0  0
   -3.7537   -3.1813   -1.7515 O   0  0  0  0  0  0  0  0  0  0  0  0
   -3.0321    3.2017    0.8881 H   0  0  0  0  0  0  0  0  0  0  0  0
   -3.7545    2.3888    2.3313 H   0  0  0  0  0  0  0  0  0  0  0  0
   -2.0627    2.0307    1.8556 H   0  0  0  0  0  0  0  0  0  0  0  0
   -5.0417    2.3470   -0.4690 H   0  0  0  0  0  0  0  0  0  0  0  0
   -5.6764    1.5108    1.0034 H   0  0  0  0  0  0  0  0  0  0  0  0
   -5.3962    0.5852   -0.5139 H   0  0  0  0  0  0  0  0  0  0  0  0
   -3.1771   -1.9752    0.5769 H   0  0  0  0  0  0  0  0  0  0  0  0
   -1.3883   -0.6692    2.3764 H   0  0  0  0  0  0  0  0  0  0  0  0
   -1.0392   -2.1629    1.4169 H   0  0  0  0  0  0  0  0  0  0  0  0
   -0.5513    0.7495    0.7294 H   0  0  0  0  0  0  0  0  0  0  0  0
    1.3864   -1.5841    0.3331 H   0  0  0  0  0  0  0  0  0  0  0  0
    1.2603    0.6383    2.4581 H   0  0  0  0  0  0  0  0  0  0  0  0
    1.0840   -1.1302    2.7170 H   0  0  0  0  0  0  0  0  0  0  0  0
    3.3544   -0.3220    3.3033 H   0  0  0  0  0  0  0  0  0  0  0  0
    3.3903   -1.5470    2.0011 H   0  0  0  0  0  0  0  0  0  0  0  0
    4.8498    1.3878    2.8762 H   0  0  0  0  0  0  0  0  0  0  0  0
    5.4177    3.1251   -1.1121 H   0  0  0  0  0  0  0  0  0  0  0  0
    3.9577    1.5253   -2.0691 H   0  0  0  0  0  0  0  0  0  0  0  0
    3.4670   -1.8479   -0.3883 H   0  0  0  0  0  0  0  0  0  0  0  0
    5.0884   -1.0921   -0.3565 H   0  0  0  0  0  0  0  0  0  0  0  0
    4.1051   -0.9847   -1.8291 H   0  0  0  0  0  0  0  0  0  0  0  0
    1.7114    1.3288   -2.3359 H   0  0  0  0  0  0  0  0  0  0  0  0
    1.7244   -0.5289   -3.4517 H   0  0  0  0  0  0  0  0  0  0  0  0
   -0.5410    0.3445   -2.9346 H   0  0  0  0  0  0  0  0  0  0  0  0
   -0.5227    1.5191   -1.5979 H   0  0  0  0  0  0  0  0  0  0  0  0
   -1.2336   -2.7505   -0.9064 H   0  0  0  0  0  0  0  0  0  0  0  0
    0.4019   -2.3233   -1.4231 H   0  0  0  0  0  0  0  0  0  0  0  0
   -0.9515   -2.0852   -2.5442 H   0  0  0  0  0  0  0  0  0  0  0  0
   -4.9480   -1.7523   -0.8420 H   0  0  0  0  0  0  0  0  0  0  0  0
   -5.0543   -1.8547   -2.6256 H   0  0  0  0  0  0  0  0  0  0  0  0
   -4.4806   -3.8273   -1.5494 H   0  0  0  0  0  0  0  0  0  0  0  0
  1  2  1  0
  2  3  1  0
  2  4  1  0
  4  5  1  0
  5  6  1  0
  7  6  1  0
  7  8  1  0
  8  9  1  0
  9 10  1  0
 10 11  1  0
 11 12  2  0
 12 13  1  0
 13 14  2  0
 13 15  1  0
 15 16  2  0
 16 17  1  0
 17 11  1  0
 17 18  1  6
 17 19  1  0
 19  8  1  0
 19 20  1  1
 19 21  1  0
 21 22  1  0
 21 23  1  0
 23 24  1  0
 24  7  1  0
 24 25  1  6
 24 26  1  0
 26  5  1  0
 26 27  1  0
 27  2  1  0
 26 28  1  6
 28 29  2  0
 28 30  1  0
 30 31  1  0
  1 32  1  0
  1 33  1  0
  1 34  1  0
  3 35  1  0
  3 36  1  0
  3 37  1  0
  5 38  1  6
  6 39  1  0
  6 40  1  0
  7 41  1  1
  8 42  1  6
  9 43  1  0
  9 44  1  0
 10 45  1  0
 10 46  1  0
 12 47  1  0
 15 48  1  0
 16 49  1  0
 18 50  1  0
 18 51  1  0
 18 52  1  0
 21 53  1  6
 22 54  1  0
 23 55  1  0
 23 56  1  0
 25 57  1  0
 25 58  1  0
 25 59  1  0
 30 60  1  0
 30 61  1  0
 31 62  1  0
M  END
> <ID>
HT2106

> <Class>
0.0

> <Clusters>
234

> <Fold>
1

$$$$