
     RDKit          3D

 41 43  0  0  0  0  0  0  0  0999 V2000
   -0.2726   -0.3503    2.3266 O   0  0  0  0  0  0  0  0  0  0  0  0
   -0.2588   -0.0126    0.9513 C   0  0  0  0  0  0  0  0  0  0  0  0
    1.2038   -0.2065    0.3835 C   0  0  0  0  0  0  0  0  0  0  0  0
    1.7856   -1.6096    0.7232 C   0  0  0  0  0  0  0  0  0  0  0  0
    2.7536   -2.1219   -0.3526 C   0  0  0  0  0  0  0  0  0  0  0  0
    3.5880   -0.9744   -0.9184 C   0  0  0  0  0  0  0  0  0  0  0  0
    2.6971    0.1313   -1.5229 C   0  0  0  0  0  0  0  0  0  0  0  0
    1.2964    0.0643   -1.0661 N   0  0  0  0  0  0  0  0  0  0  0  0
   -1.3410   -0.9088    0.3103 C   0  0  0  0  0  0  0  0  0  0  0  0
   -2.6408   -0.8721    0.8643 C   0  0  0  0  0  0  0  0  0  0  0  0
   -3.6750   -1.6463    0.3331 C   0  0  0  0  0  0  0  0  0  0  0  0
   -3.4357   -2.4770   -0.7598 C   0  0  0  0  0  0  0  0  0  0  0  0
   -2.1613   -2.5356   -1.3221 C   0  0  0  0  0  0  0  0  0  0  0  0
   -1.1212   -1.7626   -0.7968 C   0  0  0  0  0  0  0  0  0  0  0  0
   -0.6484    1.4735    0.8086 C   0  0  0  0  0  0  0  0  0  0  0  0
   -1.4532    1.9319   -0.2623 C   0  0  0  0  0  0  0  0  0  0  0  0
   -1.7712    3.2865   -0.3916 C   0  0  0  0  0  0  0  0  0  0  0  0
   -1.2819    4.2126    0.5285 C   0  0  0  0  0  0  0  0  0  0  0  0
   -0.4634    3.7880    1.5745 C   0  0  0  0  0  0  0  0  0  0  0  0
   -0.1408    2.4349    1.7110 C   0  0  0  0  0  0  0  0  0  0  0  0
    0.5719   -0.0590    2.7580 H   0  0  0  0  0  0  0  0  0  0  0  0
    1.8535    0.5375    0.9041 H   0  0  0  0  0  0  0  0  0  0  0  0
    2.3292   -1.5466    1.6917 H   0  0  0  0  0  0  0  0  0  0  0  0
    0.9843   -2.3655    0.8615 H   0  0  0  0  0  0  0  0  0  0  0  0
    3.4237   -2.8932    0.0847 H   0  0  0  0  0  0  0  0  0  0  0  0
    2.1812   -2.5987   -1.1782 H   0  0  0  0  0  0  0  0  0  0  0  0
    4.2814   -1.3660   -1.6940 H   0  0  0  0  0  0  0  0  0  0  0  0
    4.2078   -0.5444   -0.1007 H   0  0  0  0  0  0  0  0  0  0  0  0
    2.7041    0.0323   -2.6297 H   0  0  0  0  0  0  0  0  0  0  0  0
    3.1324    1.1265   -1.2773 H   0  0  0  0  0  0  0  0  0  0  0  0
    0.8676    0.9923   -1.2818 H   0  0  0  0  0  0  0  0  0  0  0  0
   -2.8559   -0.2308    1.7104 H   0  0  0  0  0  0  0  0  0  0  0  0
   -4.6641   -1.6003    0.7702 H   0  0  0  0  0  0  0  0  0  0  0  0
   -4.2375   -3.0769   -1.1705 H   0  0  0  0  0  0  0  0  0  0  0  0
   -1.9766   -3.1845   -2.1686 H   0  0  0  0  0  0  0  0  0  0  0  0
   -0.1596   -1.8597   -1.2682 H   0  0  0  0  0  0  0  0  0  0  0  0
   -1.8266    1.2499   -1.0144 H   0  0  0  0  0  0  0  0  0  0  0  0
   -2.3920    3.6193   -1.2134 H   0  0  0  0  0  0  0  0  0  0  0  0
   -1.5275    5.2616    0.4242 H   0  0  0  0  0  0  0  0  0  0  0  0
   -0.0713    4.5103    2.2789 H   0  0  0  0  0  0  0  0  0  0  0  0
    0.5147    2.1508    2.5218 H   0  0  0  0  0  0  0  0  0  0  0  0
  1  2  1  0
  2  3  1  0
  3  4  1  0
  4  5  1  0
  5  6  1  0
  6  7  1  0
  7  8  1  0
  8  3  1  0
  2  9  1  0
  9 10  2  0
 10 11  1  0
 11 12  2  0
 12 13  1  0
 13 14  2  0
 14  9  1  0
  2 15  1  0
 15 16  2  0
 16 17  1  0
 17 18  2  0
 18 19  1  0
 19 20  2  0
 20 15  1  0
  1 21  1  0
  3 22  1  0
  4 23  1  0
  4 24  1  0
  5 25  1  0
  5 26  1  0
  6 27  1  0
  6 28  1  0
  7 29  1  0
  7 30  1  0
  8 31  1  0
 10 32  1  0
 11 33  1  0
 12 34  1  0
 13 35  1  0
 14 36  1  0
 16 37  1  0
 17 38  1  0
 18 39  1  0
 19 40  1  0
 20 41  1  0
M  END
> <ID>
HT3182

> <Class>
0.0

> <Clusters>
155

> <Fold>
1

$$$$