
     RDKit          3D

 51 54  0  0  0  0  0  0  0  0999 V2000
   -1.1595    2.2386    1.8159 C   0  0  0  0  0  0  0  0  0  0  0  0
   -0.8655    2.0701    0.3106 C   0  0  0  0  0  0  0  0  0  0  0  0
   -2.1752    1.9846   -0.4913 C   0  0  0  0  0  0  0  0  0  0  0  0
   -2.8614    0.6409   -0.3604 C   0  0  0  0  0  0  0  0  0  0  0  0
   -2.1959   -0.4844    0.0251 C   0  0  0  0  0  0  0  0  0  0  0  0
   -3.0117   -1.7461    0.2432 C   0  0  0  0  0  0  0  0  0  0  0  0
   -3.9311   -2.0083   -0.9561 C   0  0  0  0  0  0  0  0  0  0  0  0
   -4.6733   -0.7564   -1.3502 C   0  0  0  0  0  0  0  0  0  0  0  0
   -5.5627   -0.8180   -2.1848 O   0  0  0  0  0  0  0  0  0  0  0  0
   -4.3362    0.5657   -0.7071 C   0  0  0  0  0  0  0  0  0  0  0  0
   -0.7012   -0.4816    0.3574 C   0  0  0  0  0  0  0  0  0  0  0  0
    0.0315   -1.6883   -0.2854 C   0  0  0  0  0  0  0  0  0  0  0  0
    1.5244   -1.4338   -0.5894 C   0  0  0  0  0  0  0  0  0  0  0  0
    2.2302   -0.4780    0.4289 C   0  0  0  0  0  0  0  0  0  0  0  0
    2.3081   -1.1924    1.8058 C   0  0  0  0  0  0  0  0  0  0  0  0
    1.4548    0.8842    0.5292 C   0  0  0  0  0  0  0  0  0  0  0  0
    2.3112    1.9302   -0.2148 C   0  0  0  0  0  0  0  0  0  0  0  0
    3.4130    1.1673   -0.9270 C   0  0  0  0  0  0  0  0  0  0  0  0
    3.6628   -0.0617   -0.0648 C   0  0  0  0  0  0  0  0  0  0  0  0
    4.4841    0.3444    1.0111 O   0  0  0  0  0  0  0  0  0  0  0  0
    4.3651   -1.0992   -0.8618 C   0  0  0  0  0  0  0  0  0  0  0  0
    4.9375   -1.9410   -1.5081 C   0  0  0  0  0  0  0  0  0  0  0  0
    0.0024    0.8336   -0.0438 C   0  0  0  0  0  0  0  0  0  0  0  0
   -1.6834    1.3555    2.2351 H   0  0  0  0  0  0  0  0  0  0  0  0
   -1.8080    3.1263    1.9745 H   0  0  0  0  0  0  0  0  0  0  0  0
   -0.2294    2.4191    2.3896 H   0  0  0  0  0  0  0  0  0  0  0  0
   -0.3386    2.9904   -0.0213 H   0  0  0  0  0  0  0  0  0  0  0  0
   -2.8666    2.7908   -0.1613 H   0  0  0  0  0  0  0  0  0  0  0  0
   -1.9633    2.1624   -1.5680 H   0  0  0  0  0  0  0  0  0  0  0  0
   -3.6349   -1.6085    1.1539 H   0  0  0  0  0  0  0  0  0  0  0  0
   -2.3735   -2.6352    0.4190 H   0  0  0  0  0  0  0  0  0  0  0  0
   -3.3274   -2.3594   -1.8207 H   0  0  0  0  0  0  0  0  0  0  0  0
   -4.6598   -2.8031   -0.6872 H   0  0  0  0  0  0  0  0  0  0  0  0
   -4.9332    0.6736    0.2230 H   0  0  0  0  0  0  0  0  0  0  0  0
   -4.6086    1.3958   -1.3950 H   0  0  0  0  0  0  0  0  0  0  0  0
   -0.6314   -0.5856    1.4608 H   0  0  0  0  0  0  0  0  0  0  0  0
   -0.4646   -1.9725   -1.2402 H   0  0  0  0  0  0  0  0  0  0  0  0
   -0.0468   -2.5637    0.3954 H   0  0  0  0  0  0  0  0  0  0  0  0
    2.0434   -2.4170   -0.6210 H   0  0  0  0  0  0  0  0  0  0  0  0
    1.5990   -1.0043   -1.6123 H   0  0  0  0  0  0  0  0  0  0  0  0
    2.7188   -0.5202    2.5887 H   0  0  0  0  0  0  0  0  0  0  0  0
    1.3129   -1.5247    2.1586 H   0  0  0  0  0  0  0  0  0  0  0  0
    2.9588   -2.0902    1.7349 H   0  0  0  0  0  0  0  0  0  0  0  0
    1.4108    1.1844    1.5963 H   0  0  0  0  0  0  0  0  0  0  0  0
    1.7399    2.5357   -0.9509 H   0  0  0  0  0  0  0  0  0  0  0  0
    2.7669    2.6294    0.5213 H   0  0  0  0  0  0  0  0  0  0  0  0
    3.0576    0.8784   -1.9422 H   0  0  0  0  0  0  0  0  0  0  0  0
    4.3276    1.7915   -1.0365 H   0  0  0  0  0  0  0  0  0  0  0  0
    4.8544   -0.4640    1.4550 H   0  0  0  0  0  0  0  0  0  0  0  0
    5.4391   -2.6801   -2.0753 H   0  0  0  0  0  0  0  0  0  0  0  0
    0.0887    0.8251   -1.1565 H   0  0  0  0  0  0  0  0  0  0  0  0
  1  2  1  0
  2  3  1  0
  3  4  1  0
  4  5  2  0
  5  6  1  0
  6  7  1  0
  7  8  1  0
  8  9  2  0
  8 10  1  0
 10  4  1  0
  5 11  1  0
 11 12  1  0
 12 13  1  0
 13 14  1  0
 14 15  1  0
 14 16  1  0
 16 17  1  0
 17 18  1  0
 18 19  1  0
 19 14  1  0
 19 20  1  0
 19 21  1  0
 21 22  3  0
 16 23  1  0
 23  2  1  0
 23 11  1  0
  1 24  1  0
  1 25  1  0
  1 26  1  0
  2 27  1  0
  3 28  1  0
  3 29  1  0
  6 30  1  0
  6 31  1  0
  7 32  1  0
  7 33  1  0
 10 34  1  0
 10 35  1  0
 11 36  1  0
 12 37  1  0
 12 38  1  0
 13 39  1  0
 13 40  1  0
 15 41  1  0
 15 42  1  0
 15 43  1  0
 16 44  1  0
 17 45  1  0
 17 46  1  0
 18 47  1  0
 18 48  1  0
 20 49  1  0
 22 50  1  0
 23 51  1  0
M  END
> <ID>
HT2055

> <Class>
0.0

> <Clusters>
183

> <Fold>
1

$$$$