
     RDKit          3D

 38 39  0  0  0  0  0  0  0  0999 V2000
   -4.7548   -1.3749   -1.1428 C   0  0  0  0  0  0  0  0  0  0  0  0
   -4.1738   -0.4931   -0.1866 O   0  0  0  0  0  0  0  0  0  0  0  0
   -2.8275   -0.0882   -0.1697 C   0  0  0  0  0  0  0  0  0  0  0  0
   -1.9365   -0.5543   -1.1485 C   0  0  0  0  0  0  0  0  0  0  0  0
   -0.6056   -0.1659   -1.1508 C   0  0  0  0  0  0  0  0  0  0  0  0
   -0.1082    0.7070   -0.1721 C   0  0  0  0  0  0  0  0  0  0  0  0
    1.2564    1.1003   -0.1761 C   0  0  0  0  0  0  0  0  0  0  0  0
    1.7209    2.0043    0.7850 C   0  0  0  0  0  0  0  0  0  0  0  0
    0.8621    2.5050    1.7549 C   0  0  0  0  0  0  0  0  0  0  0  0
   -0.4743    2.1144    1.7830 C   0  0  0  0  0  0  0  0  0  0  0  0
   -0.9924    1.2092    0.8266 C   0  0  0  0  0  0  0  0  0  0  0  0
   -2.3645    0.7995    0.8399 C   0  0  0  0  0  0  0  0  0  0  0  0
   -3.3134    1.3164    1.9230 C   0  0  0  0  0  0  0  0  0  0  0  0
   -3.4090    2.6938    1.8335 F   0  0  0  0  0  0  0  0  0  0  0  0
   -2.8252    0.9693    3.1704 F   0  0  0  0  0  0  0  0  0  0  0  0
   -4.5941    0.8057    1.8292 F   0  0  0  0  0  0  0  0  0  0  0  0
    2.2257    0.5757   -1.1644 C   0  0  0  0  0  0  0  0  0  0  0  0
    2.8103    1.6158   -2.2949 S   0  0  0  0  0  0  0  0  0  0  0  0
    2.6713   -0.8027   -1.1163 N   0  0  0  0  0  0  0  0  0  0  0  0
    3.2990   -1.4122   -2.2952 C   0  0  0  0  0  0  0  0  0  0  0  0
    2.4838   -1.6083    0.1037 C   0  0  0  0  0  0  0  0  0  0  0  0
    3.3705   -1.1365    1.2181 C   0  0  0  0  0  0  0  0  0  0  0  0
    4.3014   -0.3139    1.0014 O   0  0  0  0  0  0  0  0  0  0  0  0
    3.1731   -1.6334    2.5019 O   0  0  0  0  0  0  0  0  0  0  0  0
   -4.2550   -2.3657   -1.1024 H   0  0  0  0  0  0  0  0  0  0  0  0
   -4.6708   -0.9426   -2.1623 H   0  0  0  0  0  0  0  0  0  0  0  0
   -5.8293   -1.5106   -0.9035 H   0  0  0  0  0  0  0  0  0  0  0  0
   -2.2659   -1.2283   -1.9271 H   0  0  0  0  0  0  0  0  0  0  0  0
    0.0307   -0.5555   -1.9348 H   0  0  0  0  0  0  0  0  0  0  0  0
    2.7595    2.3133    0.7905 H   0  0  0  0  0  0  0  0  0  0  0  0
    1.2361    3.2002    2.4958 H   0  0  0  0  0  0  0  0  0  0  0  0
   -1.0859    2.5417    2.5626 H   0  0  0  0  0  0  0  0  0  0  0  0
    3.5252   -2.4870   -2.1347 H   0  0  0  0  0  0  0  0  0  0  0  0
    2.6161   -1.3304   -3.1672 H   0  0  0  0  0  0  0  0  0  0  0  0
    4.2542   -0.8944   -2.5235 H   0  0  0  0  0  0  0  0  0  0  0  0
    2.7037   -2.6809   -0.0806 H   0  0  0  0  0  0  0  0  0  0  0  0
    1.4249   -1.5580    0.4307 H   0  0  0  0  0  0  0  0  0  0  0  0
    3.7613   -1.3349    3.2707 H   0  0  0  0  0  0  0  0  0  0  0  0
  1  2  1  0
  2  3  1  0
  3  4  2  0
  4  5  1  0
  5  6  2  0
  6  7  1  0
  7  8  2  0
  8  9  1  0
  9 10  2  0
 10 11  1  0
 11  6  1  0
 11 12  2  0
 12  3  1  0
 12 13  1  0
 13 14  1  0
 13 15  1  0
 13 16  1  0
  7 17  1  0
 17 18  2  0
 17 19  1  0
 19 20  1  0
 19 21  1  0
 21 22  1  0
 22 23  2  0
 22 24  1  0
  1 25  1  0
  1 26  1  0
  1 27  1  0
  4 28  1  0
  5 29  1  0
  8 30  1  0
  9 31  1  0
 10 32  1  0
 20 33  1  0
 20 34  1  0
 20 35  1  0
 21 36  1  0
 21 37  1  0
 24 38  1  0
M  END
> <ID>
HT2087

> <Class>
0.0

> <Clusters>
179

> <Fold>
1

$$$$