
     RDKit          3D

 72 76  0  0  0  0  0  0  0  0999 V2000
    0.7520   -4.4635    0.6266 C   0  0  0  0  0  0  0  0  0  0  0  0
    0.5523   -3.2648   -0.3023 C   0  0  0  0  0  0  0  0  0  0  0  0
    0.0193   -2.0093    0.4409 C   0  0  0  0  0  0  0  0  0  0  0  0
   -1.5055   -2.1180    0.6659 C   0  0  0  0  0  0  0  0  0  0  0  0
   -2.2286   -1.8171   -0.5839 N   0  0  0  0  0  0  0  0  0  0  0  0
   -3.6250   -2.3121   -0.5041 C   0  0  0  0  0  0  0  0  0  0  0  0
   -4.5274   -1.6569   -1.5445 C   0  0  0  0  0  0  0  0  0  0  0  0
   -4.5331   -0.1848   -1.2794 C   0  0  0  0  0  0  0  0  0  0  0  0
   -5.7294    0.5431   -1.2696 C   0  0  0  0  0  0  0  0  0  0  0  0
   -5.7209    1.9215   -0.9940 C   0  0  0  0  0  0  0  0  0  0  0  0
   -6.8993    2.6849   -0.9726 O   0  0  0  0  0  0  0  0  0  0  0  0
   -8.2027    2.1653   -1.2151 C   0  0  0  0  0  0  0  0  0  0  0  0
   -4.5048    2.5676   -0.7330 C   0  0  0  0  0  0  0  0  0  0  0  0
   -4.5295    3.9478   -0.4734 O   0  0  0  0  0  0  0  0  0  0  0  0
   -3.3807    4.7385   -0.1850 C   0  0  0  0  0  0  0  0  0  0  0  0
   -3.3051    1.8290   -0.7393 C   0  0  0  0  0  0  0  0  0  0  0  0
   -3.3127    0.4402   -0.9827 C   0  0  0  0  0  0  0  0  0  0  0  0
   -2.0377   -0.4073   -1.0645 C   0  0  0  0  0  0  0  0  0  0  0  0
   -0.7983    0.2732   -0.4251 C   0  0  0  0  0  0  0  0  0  0  0  0
    0.3961   -0.6982   -0.3337 C   0  0  0  0  0  0  0  0  0  0  0  0
    1.5985    0.0416    0.3128 C   0  0  0  0  0  0  0  0  0  0  0  0
    2.9326   -0.7367    0.2360 C   0  0  0  0  0  0  0  0  0  0  0  0
    3.2609   -1.0387   -1.1690 N   0  0  0  0  0  0  0  0  0  0  0  0
    4.4340   -1.9300   -1.3214 C   0  0  0  0  0  0  0  0  0  0  0  0
    5.4414   -1.8914   -0.1445 C   0  0  0  0  0  0  0  0  0  0  0  0
    5.3778   -0.5943    0.6163 C   0  0  0  0  0  0  0  0  0  0  0  0
    6.5401    0.0220    1.0955 C   0  0  0  0  0  0  0  0  0  0  0  0
    6.4572    1.2168    1.8205 C   0  0  0  0  0  0  0  0  0  0  0  0
    7.6148    1.8289    2.2989 O   0  0  0  0  0  0  0  0  0  0  0  0
    5.2100    1.8055    2.0697 C   0  0  0  0  0  0  0  0  0  0  0  0
    5.1736    3.0054    2.7978 O   0  0  0  0  0  0  0  0  0  0  0  0
    3.9843    3.7194    3.1207 C   0  0  0  0  0  0  0  0  0  0  0  0
    4.0412    1.1854    1.5844 C   0  0  0  0  0  0  0  0  0  0  0  0
    4.1214   -0.0209    0.8598 C   0  0  0  0  0  0  0  0  0  0  0  0
   -0.2079   -4.7914    1.0737 H   0  0  0  0  0  0  0  0  0  0  0  0
    1.4668   -4.2070    1.4371 H   0  0  0  0  0  0  0  0  0  0  0  0
    1.1707   -5.3127    0.0467 H   0  0  0  0  0  0  0  0  0  0  0  0
    1.5350   -3.0515   -0.7690 H   0  0  0  0  0  0  0  0  0  0  0  0
   -0.1384   -3.5475   -1.1264 H   0  0  0  0  0  0  0  0  0  0  0  0
    0.4817   -1.9779    1.4529 H   0  0  0  0  0  0  0  0  0  0  0  0
   -1.8226   -1.4144    1.4686 H   0  0  0  0  0  0  0  0  0  0  0  0
   -1.7605   -3.1368    1.0297 H   0  0  0  0  0  0  0  0  0  0  0  0
   -3.6272   -3.4103   -0.6747 H   0  0  0  0  0  0  0  0  0  0  0  0
   -4.0561   -2.1243    0.5071 H   0  0  0  0  0  0  0  0  0  0  0  0
   -5.5506   -2.0868   -1.4772 H   0  0  0  0  0  0  0  0  0  0  0  0
   -4.1272   -1.8506   -2.5633 H   0  0  0  0  0  0  0  0  0  0  0  0
   -6.6590    0.0316   -1.4803 H   0  0  0  0  0  0  0  0  0  0  0  0
   -8.2606    1.7424   -2.2404 H   0  0  0  0  0  0  0  0  0  0  0  0
   -8.9428    2.9872   -1.1280 H   0  0  0  0  0  0  0  0  0  0  0  0
   -8.4488    1.3849   -0.4643 H   0  0  0  0  0  0  0  0  0  0  0  0
   -3.6961    5.7890   -0.0212 H   0  0  0  0  0  0  0  0  0  0  0  0
   -2.8841    4.3687    0.7367 H   0  0  0  0  0  0  0  0  0  0  0  0
   -2.6731    4.7105   -1.0402 H   0  0  0  0  0  0  0  0  0  0  0  0
   -2.3753    2.3420   -0.5547 H   0  0  0  0  0  0  0  0  0  0  0  0
   -1.8073   -0.4820   -2.1500 H   0  0  0  0  0  0  0  0  0  0  0  0
   -1.0508    0.6475    0.5921 H   0  0  0  0  0  0  0  0  0  0  0  0
   -0.5006    1.1443   -1.0503 H   0  0  0  0  0  0  0  0  0  0  0  0
    0.6631   -0.9453   -1.3861 H   0  0  0  0  0  0  0  0  0  0  0  0
    1.3492    0.2432    1.3776 H   0  0  0  0  0  0  0  0  0  0  0  0
    1.7390    1.0215   -0.1958 H   0  0  0  0  0  0  0  0  0  0  0  0
    2.7984   -1.6910    0.7910 H   0  0  0  0  0  0  0  0  0  0  0  0
    3.4586   -0.1386   -1.6687 H   0  0  0  0  0  0  0  0  0  0  0  0
    4.9709   -1.6661   -2.2597 H   0  0  0  0  0  0  0  0  0  0  0  0
    4.0730   -2.9727   -1.4490 H   0  0  0  0  0  0  0  0  0  0  0  0
    5.1923   -2.7109    0.5641 H   0  0  0  0  0  0  0  0  0  0  0  0
    6.4682   -2.0835   -0.5254 H   0  0  0  0  0  0  0  0  0  0  0  0
    7.5083   -0.4275    0.9115 H   0  0  0  0  0  0  0  0  0  0  0  0
    8.5323    1.4310    2.1349 H   0  0  0  0  0  0  0  0  0  0  0  0
    3.4618    4.0314    2.1918 H   0  0  0  0  0  0  0  0  0  0  0  0
    3.3157    3.0869    3.7423 H   0  0  0  0  0  0  0  0  0  0  0  0
    4.2524    4.6274    3.6989 H   0  0  0  0  0  0  0  0  0  0  0  0
    3.0845    1.6471    1.7686 H   0  0  0  0  0  0  0  0  0  0  0  0
  1  2  1  0
  2  3  1  0
  3  4  1  0
  4  5  1  0
  5  6  1  0
  6  7  1  0
  7  8  1  0
  8  9  2  0
  9 10  1  0
 10 11  1  0
 11 12  1  0
 10 13  2  0
 13 14  1  0
 14 15  1  0
 13 16  1  0
 16 17  2  0
 17  8  1  0
 17 18  1  0
 18  5  1  0
 18 19  1  0
 19 20  1  0
 20  3  1  0
 20 21  1  0
 21 22  1  0
 22 23  1  0
 23 24  1  0
 24 25  1  0
 25 26  1  0
 26 27  2  0
 27 28  1  0
 28 29  1  0
 28 30  2  0
 30 31  1  0
 31 32  1  0
 30 33  1  0
 33 34  2  0
 34 22  1  0
 34 26  1  0
  1 35  1  0
  1 36  1  0
  1 37  1  0
  2 38  1  0
  2 39  1  0
  3 40  1  0
  4 41  1  0
  4 42  1  0
  6 43  1  0
  6 44  1  0
  7 45  1  0
  7 46  1  0
  9 47  1  0
 12 48  1  0
 12 49  1  0
 12 50  1  0
 15 51  1  0
 15 52  1  0
 15 53  1  0
 16 54  1  0
 18 55  1  0
 19 56  1  0
 19 57  1  0
 20 58  1  0
 21 59  1  0
 21 60  1  0
 22 61  1  0
 23 62  1  0
 24 63  1  0
 24 64  1  0
 25 65  1  0
 25 66  1  0
 27 67  1  0
 29 68  1  0
 32 69  1  0
 32 70  1  0
 32 71  1  0
 33 72  1  0
M  END
> <ID>
HT2279

> <Class>
0.0

> <Clusters>
242

> <Fold>
1

$$$$