
     RDKit          3D

 29 30  0  0  0  0  0  0  0  0999 V2000
   -2.7034   -2.5558   -0.0626 O   0  0  0  0  0  0  0  0  0  0  0  0
   -3.1516   -1.2808   -0.4088 C   0  0  0  0  0  0  0  0  0  0  0  0
   -4.4666   -1.1073   -0.8650 C   0  0  0  0  0  0  0  0  0  0  0  0
   -4.9260    0.1593   -1.2297 C   0  0  0  0  0  0  0  0  0  0  0  0
   -4.0774    1.2642   -1.1368 C   0  0  0  0  0  0  0  0  0  0  0  0
   -4.6620    2.8574   -1.5814 Cl  0  0  0  0  0  0  0  0  0  0  0  0
   -2.7652    1.1029   -0.6806 C   0  0  0  0  0  0  0  0  0  0  0  0
   -2.2855   -0.1694   -0.3169 C   0  0  0  0  0  0  0  0  0  0  0  0
   -0.8970   -0.3286    0.1780 C   0  0  0  0  0  0  0  0  0  0  0  0
   -0.6622   -1.1587    1.0982 O   0  0  0  0  0  0  0  0  0  0  0  0
    0.1730    0.4678   -0.3625 N   0  0  0  0  0  0  0  0  0  0  0  0
    1.5442    0.3373    0.0504 C   0  0  0  0  0  0  0  0  0  0  0  0
    2.1284   -0.9314    0.1986 C   0  0  0  0  0  0  0  0  0  0  0  0
    3.4689   -1.0568    0.5708 C   0  0  0  0  0  0  0  0  0  0  0  0
    4.2580    0.0849    0.7924 C   0  0  0  0  0  0  0  0  0  0  0  0
    3.6781    1.3539    0.6272 C   0  0  0  0  0  0  0  0  0  0  0  0
    2.3353    1.4834    0.2529 C   0  0  0  0  0  0  0  0  0  0  0  0
    1.6581    3.0981    0.0804 Cl  0  0  0  0  0  0  0  0  0  0  0  0
    5.6396   -0.0404    1.1769 N   0  0  0  0  0  0  0  0  0  0  0  0
    6.1601   -1.1656    1.3252 O   0  0  0  0  0  0  0  0  0  0  0  0
    6.4109    1.0794    1.3894 O   0  0  0  0  0  0  0  0  0  0  0  0
   -3.3072   -3.3672   -0.1258 H   0  0  0  0  0  0  0  0  0  0  0  0
   -5.1334   -1.9568   -0.9405 H   0  0  0  0  0  0  0  0  0  0  0  0
   -5.9428    0.2811   -1.5809 H   0  0  0  0  0  0  0  0  0  0  0  0
   -2.1352    1.9780   -0.5863 H   0  0  0  0  0  0  0  0  0  0  0  0
   -0.0498    1.1988   -1.0736 H   0  0  0  0  0  0  0  0  0  0  0  0
    1.5540   -1.8275    0.0028 H   0  0  0  0  0  0  0  0  0  0  0  0
    3.8902   -2.0481    0.6773 H   0  0  0  0  0  0  0  0  0  0  0  0
    4.2665    2.2480    0.7893 H   0  0  0  0  0  0  0  0  0  0  0  0
  1  2  1  0
  2  3  2  0
  3  4  1  0
  4  5  2  0
  5  6  1  0
  5  7  1  0
  7  8  2  0
  8  2  1  0
  8  9  1  0
  9 10  2  0
  9 11  1  0
 11 12  1  0
 12 13  2  0
 13 14  1  0
 14 15  2  0
 15 16  1  0
 16 17  2  0
 17 12  1  0
 17 18  1  0
 15 19  1  0
 19 20  2  0
 19 21  1  0
  1 22  1  0
  3 23  1  0
  4 24  1  0
  7 25  1  0
 11 26  1  0
 13 27  1  0
 14 28  1  0
 16 29  1  0
M  CHG  2  19   1  21  -1
M  END
> <ID>
HT1486

> <Class>
0.0

> <Clusters>
74

> <Fold>
1

$$$$