
     RDKit          3D

 36 38  0  0  0  0  0  0  0  0999 V2000
    0.5150    4.6010   -1.8267 Cl  0  0  0  0  0  0  0  0  0  0  0  0
    0.2710    2.9114   -1.4243 C   0  0  0  0  0  0  0  0  0  0  0  0
   -0.0892    2.5482   -0.1264 C   0  0  0  0  0  0  0  0  0  0  0  0
   -0.2790    1.2041    0.1971 C   0  0  0  0  0  0  0  0  0  0  0  0
   -0.0968    0.1960   -0.7708 C   0  0  0  0  0  0  0  0  0  0  0  0
   -0.2916   -1.2650   -0.3846 C   0  0  0  0  0  0  0  0  0  0  0  0
   -1.7752   -1.6579   -0.4961 C   0  0  0  0  0  0  0  0  0  0  0  0
   -2.6207   -0.8833    0.4137 N   0  0  0  0  0  0  0  0  0  0  0  0
   -2.7116   -1.0110    1.7478 C   0  0  0  0  0  0  0  0  0  0  0  0
   -3.6461   -0.1047    2.1953 C   0  0  0  0  0  0  0  0  0  0  0  0
   -4.1479    0.5830    1.1485 N   0  0  0  0  0  0  0  0  0  0  0  0
   -3.5026    0.0775    0.0766 C   0  0  0  0  0  0  0  0  0  0  0  0
    0.1645   -1.5036    0.9425 O   0  0  0  0  0  0  0  0  0  0  0  0
    1.5133   -1.9407    0.9696 C   0  0  0  0  0  0  0  0  0  0  0  0
    2.4633   -0.8020    0.7186 C   0  0  0  0  0  0  0  0  0  0  0  0
    3.2418   -0.6966   -0.4443 C   0  0  0  0  0  0  0  0  0  0  0  0
    4.0059    0.4618   -0.4986 C   0  0  0  0  0  0  0  0  0  0  0  0
    3.7191    1.3519    0.8993 S   0  0  0  0  0  0  0  0  0  0  0  0
    2.6277    0.2757    1.5835 C   0  0  0  0  0  0  0  0  0  0  0  0
    1.8272    0.5129    3.1262 Cl  0  0  0  0  0  0  0  0  0  0  0  0
    0.2422    0.5769   -2.0916 C   0  0  0  0  0  0  0  0  0  0  0  0
    0.4408   -0.5976   -3.3889 Cl  0  0  0  0  0  0  0  0  0  0  0  0
    0.4302    1.9290   -2.4039 C   0  0  0  0  0  0  0  0  0  0  0  0
   -0.2214    3.3066    0.6346 H   0  0  0  0  0  0  0  0  0  0  0  0
   -0.5586    0.9501    1.2111 H   0  0  0  0  0  0  0  0  0  0  0  0
    0.2363   -1.9194   -1.1142 H   0  0  0  0  0  0  0  0  0  0  0  0
   -1.8911   -2.7403   -0.2701 H   0  0  0  0  0  0  0  0  0  0  0  0
   -2.1130   -1.5047   -1.5453 H   0  0  0  0  0  0  0  0  0  0  0  0
   -2.1483   -1.7120    2.3498 H   0  0  0  0  0  0  0  0  0  0  0  0
   -3.9488    0.0434    3.2231 H   0  0  0  0  0  0  0  0  0  0  0  0
   -3.6735    0.4142   -0.9378 H   0  0  0  0  0  0  0  0  0  0  0  0
    1.6931   -2.7834    0.2640 H   0  0  0  0  0  0  0  0  0  0  0  0
    1.7246   -2.3503    1.9794 H   0  0  0  0  0  0  0  0  0  0  0  0
    3.2344   -1.4332   -1.2372 H   0  0  0  0  0  0  0  0  0  0  0  0
    4.6658    0.7447   -1.3073 H   0  0  0  0  0  0  0  0  0  0  0  0
    0.6992    2.2173   -3.4124 H   0  0  0  0  0  0  0  0  0  0  0  0
  1  2  1  0
  2  3  2  0
  3  4  1  0
  4  5  2  0
  5  6  1  0
  6  7  1  0
  7  8  1  0
  8  9  1  0
  9 10  2  0
 10 11  1  0
 11 12  2  0
 12  8  1  0
  6 13  1  0
 13 14  1  0
 14 15  1  0
 15 16  1  0
 16 17  2  0
 17 18  1  0
 18 19  1  0
 19 15  2  0
 19 20  1  0
  5 21  1  0
 21 22  1  0
 21 23  2  0
 23  2  1  0
  3 24  1  0
  4 25  1  0
  6 26  1  0
  7 27  1  0
  7 28  1  0
  9 29  1  0
 10 30  1  0
 12 31  1  0
 14 32  1  0
 14 33  1  0
 16 34  1  0
 17 35  1  0
 23 36  1  0
M  END
> <ID>
HT2066

> <Class>
0.0

> <Clusters>
93

> <Fold>
1

$$$$