
     RDKit          3D

 46 47  0  0  0  0  0  0  0  0999 V2000
   -3.3579    3.1263    1.0384 O   0  0  0  0  0  0  0  0  0  0  0  0
   -2.6929    1.9556    0.6404 C   0  0  0  0  0  0  0  0  0  0  0  0
   -2.1839    2.1403   -0.8070 C   0  0  0  0  0  0  0  0  0  0  0  0
   -1.4878    0.9599   -1.3494 N   0  0  0  0  0  0  0  0  0  0  0  0
   -0.2228    0.6799   -0.6578 C   0  0  0  0  0  0  0  0  0  0  0  0
    0.6195   -0.2860   -1.4990 C   0  0  0  0  0  0  0  0  0  0  0  0
    1.8924   -0.7504   -0.7738 C   0  0  0  0  0  0  0  0  0  0  0  0
    2.9350    0.3690   -0.6305 C   0  0  0  0  0  0  0  0  0  0  0  0
    4.2222   -0.1655   -0.0566 C   0  0  0  0  0  0  0  0  0  0  0  0
    4.2810   -0.5761    1.2859 C   0  0  0  0  0  0  0  0  0  0  0  0
    5.4746   -1.0687    1.8220 C   0  0  0  0  0  0  0  0  0  0  0  0
    6.6214   -1.1535    1.0261 C   0  0  0  0  0  0  0  0  0  0  0  0
    7.8037   -1.6466    1.5733 O   0  0  0  0  0  0  0  0  0  0  0  0
    6.5706   -0.7414   -0.3123 C   0  0  0  0  0  0  0  0  0  0  0  0
    5.3782   -0.2482   -0.8511 C   0  0  0  0  0  0  0  0  0  0  0  0
   -3.6308    0.7717    0.7634 C   0  0  0  0  0  0  0  0  0  0  0  0
   -3.2690   -0.3395    1.5428 C   0  0  0  0  0  0  0  0  0  0  0  0
   -4.1285   -1.4357    1.6525 C   0  0  0  0  0  0  0  0  0  0  0  0
   -5.3625   -1.4345    0.9891 C   0  0  0  0  0  0  0  0  0  0  0  0
   -6.2221   -2.5263    1.0954 O   0  0  0  0  0  0  0  0  0  0  0  0
   -5.7359   -0.3290    0.2146 C   0  0  0  0  0  0  0  0  0  0  0  0
   -6.9653   -0.3295   -0.4419 O   0  0  0  0  0  0  0  0  0  0  0  0
   -4.8729    0.7706    0.1042 C   0  0  0  0  0  0  0  0  0  0  0  0
   -3.4601    3.0777    2.0253 H   0  0  0  0  0  0  0  0  0  0  0  0
   -1.8059    1.8170    1.3001 H   0  0  0  0  0  0  0  0  0  0  0  0
   -3.0426    2.3759   -1.4718 H   0  0  0  0  0  0  0  0  0  0  0  0
   -1.5104    3.0246   -0.8493 H   0  0  0  0  0  0  0  0  0  0  0  0
   -2.1094    0.1200   -1.2905 H   0  0  0  0  0  0  0  0  0  0  0  0
   -0.4242    0.2178    0.3334 H   0  0  0  0  0  0  0  0  0  0  0  0
    0.3475    1.6224   -0.5095 H   0  0  0  0  0  0  0  0  0  0  0  0
    0.8861    0.1931   -2.4664 H   0  0  0  0  0  0  0  0  0  0  0  0
    0.0072   -1.1858   -1.7278 H   0  0  0  0  0  0  0  0  0  0  0  0
    2.3399   -1.5804   -1.3639 H   0  0  0  0  0  0  0  0  0  0  0  0
    1.6248   -1.1559    0.2265 H   0  0  0  0  0  0  0  0  0  0  0  0
    2.5548    1.1691    0.0392 H   0  0  0  0  0  0  0  0  0  0  0  0
    3.1188    0.8257   -1.6278 H   0  0  0  0  0  0  0  0  0  0  0  0
    3.4034   -0.5116    1.9172 H   0  0  0  0  0  0  0  0  0  0  0  0
    5.5089   -1.3834    2.8573 H   0  0  0  0  0  0  0  0  0  0  0  0
    8.6514   -1.7203    1.0230 H   0  0  0  0  0  0  0  0  0  0  0  0
    7.4537   -0.8029   -0.9354 H   0  0  0  0  0  0  0  0  0  0  0  0
    5.3569    0.0639   -1.8879 H   0  0  0  0  0  0  0  0  0  0  0  0
   -2.3194   -0.3617    2.0627 H   0  0  0  0  0  0  0  0  0  0  0  0
   -3.8342   -2.2865    2.2537 H   0  0  0  0  0  0  0  0  0  0  0  0
   -5.9793   -3.3400    1.6485 H   0  0  0  0  0  0  0  0  0  0  0  0
   -7.2635    0.4552   -1.0097 H   0  0  0  0  0  0  0  0  0  0  0  0
   -5.1709    1.6236   -0.4927 H   0  0  0  0  0  0  0  0  0  0  0  0
  1  2  1  0
  2  3  1  0
  3  4  1  0
  4  5  1  0
  5  6  1  0
  6  7  1  0
  7  8  1  0
  8  9  1  0
  9 10  2  0
 10 11  1  0
 11 12  2  0
 12 13  1  0
 12 14  1  0
 14 15  2  0
 15  9  1  0
  2 16  1  0
 16 17  2  0
 17 18  1  0
 18 19  2  0
 19 20  1  0
 19 21  1  0
 21 22  1  0
 21 23  2  0
 23 16  1  0
  1 24  1  0
  2 25  1  0
  3 26  1  0
  3 27  1  0
  4 28  1  0
  5 29  1  0
  5 30  1  0
  6 31  1  0
  6 32  1  0
  7 33  1  0
  7 34  1  0
  8 35  1  0
  8 36  1  0
 10 37  1  0
 11 38  1  0
 13 39  1  0
 14 40  1  0
 15 41  1  0
 17 42  1  0
 18 43  1  0
 20 44  1  0
 22 45  1  0
 23 46  1  0
M  END
> <ID>
HT0177

> <Class>
0.0

> <Clusters>
21

> <Fold>
1

$$$$