
     RDKit          3D

 34 36  0  0  0  0  0  0  0  0999 V2000
    7.4449   -0.8147    1.1323 C   0  0  0  0  0  0  0  0  0  0  0  0
    6.0731   -1.0331    1.4446 O   0  0  0  0  0  0  0  0  0  0  0  0
    5.0008   -0.5317    0.6924 C   0  0  0  0  0  0  0  0  0  0  0  0
    5.1941    0.2559   -0.4732 C   0  0  0  0  0  0  0  0  0  0  0  0
    4.0936    0.7407   -1.2008 C   0  0  0  0  0  0  0  0  0  0  0  0
    2.8074    0.4345   -0.7584 C   0  0  0  0  0  0  0  0  0  0  0  0
    1.6677    0.8437   -1.3722 N   0  0  0  0  0  0  0  0  0  0  0  0
    0.5708    0.3917   -0.7156 C   0  0  0  0  0  0  0  0  0  0  0  0
   -0.7604    0.6999   -1.1578 N   0  0  0  0  0  0  0  0  0  0  0  0
   -1.9697    0.2178   -0.5500 C   0  0  0  0  0  0  0  0  0  0  0  0
   -1.9246   -0.6102    0.3992 O   0  0  0  0  0  0  0  0  0  0  0  0
   -3.2377    0.6487   -1.0688 N   0  0  0  0  0  0  0  0  0  0  0  0
   -4.4990    0.4110   -0.4201 C   0  0  0  0  0  0  0  0  0  0  0  0
   -4.6180    0.4209    0.9826 C   0  0  0  0  0  0  0  0  0  0  0  0
   -5.8620    0.2109    1.5862 C   0  0  0  0  0  0  0  0  0  0  0  0
   -6.9973    0.0034    0.7988 C   0  0  0  0  0  0  0  0  0  0  0  0
   -6.8923    0.0145   -0.5942 C   0  0  0  0  0  0  0  0  0  0  0  0
   -5.6505    0.2250   -1.2017 C   0  0  0  0  0  0  0  0  0  0  0  0
    0.9808   -0.5265    0.6542 S   0  0  0  0  0  0  0  0  0  0  0  0
    2.6242   -0.3336    0.3786 C   0  0  0  0  0  0  0  0  0  0  0  0
    3.6941   -0.8270    1.1194 C   0  0  0  0  0  0  0  0  0  0  0  0
    7.6809   -1.2373    0.1328 H   0  0  0  0  0  0  0  0  0  0  0  0
    7.6724    0.2721    1.1511 H   0  0  0  0  0  0  0  0  0  0  0  0
    8.0749   -1.3229    1.8907 H   0  0  0  0  0  0  0  0  0  0  0  0
    6.1886    0.4971   -0.8223 H   0  0  0  0  0  0  0  0  0  0  0  0
    4.2443    1.3412   -2.0889 H   0  0  0  0  0  0  0  0  0  0  0  0
   -0.8514    1.3305   -1.9858 H   0  0  0  0  0  0  0  0  0  0  0  0
   -3.2492    1.0896   -2.0163 H   0  0  0  0  0  0  0  0  0  0  0  0
   -3.7596    0.6159    1.6113 H   0  0  0  0  0  0  0  0  0  0  0  0
   -5.9474    0.2184    2.6652 H   0  0  0  0  0  0  0  0  0  0  0  0
   -7.9594   -0.1573    1.2679 H   0  0  0  0  0  0  0  0  0  0  0  0
   -7.7736   -0.1378   -1.2039 H   0  0  0  0  0  0  0  0  0  0  0  0
   -5.5825    0.2334   -2.2823 H   0  0  0  0  0  0  0  0  0  0  0  0
    3.5221   -1.4251    2.0052 H   0  0  0  0  0  0  0  0  0  0  0  0
  1  2  1  0
  2  3  1  0
  3  4  2  0
  4  5  1  0
  5  6  2  0
  6  7  1  0
  7  8  2  0
  8  9  1  0
  9 10  1  0
 10 11  2  0
 10 12  1  0
 12 13  1  0
 13 14  2  0
 14 15  1  0
 15 16  2  0
 16 17  1  0
 17 18  2  0
 18 13  1  0
  8 19  1  0
 19 20  1  0
 20  6  1  0
 20 21  2  0
 21  3  1  0
  1 22  1  0
  1 23  1  0
  1 24  1  0
  4 25  1  0
  5 26  1  0
  9 27  1  0
 12 28  1  0
 14 29  1  0
 15 30  1  0
 16 31  1  0
 17 32  1  0
 18 33  1  0
 21 34  1  0
M  END
> <ID>
HT3350

> <Class>
0.0

> <Clusters>
176

> <Fold>
1

$$$$