
     RDKit          3D

 53 55  0  0  0  0  0  0  0  0999 V2000
    5.7378    0.4100   -0.3761 C   0  0  0  0  0  0  0  0  0  0  0  0
    4.6263   -0.5106   -0.9289 C   0  0  0  0  0  0  0  0  0  0  0  0
    4.8528   -0.6633   -2.4492 C   0  0  0  0  0  0  0  0  0  0  0  0
    3.2577    0.0193   -0.6308 N   0  0  0  0  0  0  0  0  0  0  0  0
    3.0680    0.2444    0.8271 C   0  0  0  0  0  0  0  0  0  0  0  0
    1.6844    0.8318    1.1294 C   0  0  0  0  0  0  0  0  0  0  0  0
    0.5856   -0.1044    0.6161 C   0  0  0  0  0  0  0  0  0  0  0  0
    0.8010   -0.3633   -0.8771 C   0  0  0  0  0  0  0  0  0  0  0  0
    2.2103   -0.9144   -1.1243 C   0  0  0  0  0  0  0  0  0  0  0  0
   -0.7614    0.4444    0.8728 N   0  0  0  0  0  0  0  0  0  0  0  0
   -1.7359   -0.2962    1.6311 C   0  0  0  0  0  0  0  0  0  0  0  0
   -2.4821    0.3117    2.4471 O   0  0  0  0  0  0  0  0  0  0  0  0
   -1.9250   -1.7767    1.4396 C   0  0  0  0  0  0  0  0  0  0  0  0
   -3.3177   -2.0658    0.9462 C   0  0  0  0  0  0  0  0  0  0  0  0
   -4.2623   -2.6799    1.7865 C   0  0  0  0  0  0  0  0  0  0  0  0
   -5.5558   -2.9370    1.3212 C   0  0  0  0  0  0  0  0  0  0  0  0
   -5.9149   -2.5843    0.0171 C   0  0  0  0  0  0  0  0  0  0  0  0
   -4.9808   -1.9743   -0.8249 C   0  0  0  0  0  0  0  0  0  0  0  0
   -3.6863   -1.7156   -0.3642 C   0  0  0  0  0  0  0  0  0  0  0  0
   -1.1307    1.7505    0.4003 C   0  0  0  0  0  0  0  0  0  0  0  0
   -0.9300    2.8783    1.2102 C   0  0  0  0  0  0  0  0  0  0  0  0
   -1.3111    4.1450    0.7575 C   0  0  0  0  0  0  0  0  0  0  0  0
   -1.9052    4.2901   -0.5013 C   0  0  0  0  0  0  0  0  0  0  0  0
   -2.3834    5.8796   -1.0683 Cl  0  0  0  0  0  0  0  0  0  0  0  0
   -2.1224    3.1651   -1.3048 C   0  0  0  0  0  0  0  0  0  0  0  0
   -1.7417    1.8979   -0.8532 C   0  0  0  0  0  0  0  0  0  0  0  0
    5.8281    0.3022    0.7250 H   0  0  0  0  0  0  0  0  0  0  0  0
    6.7331    0.1332   -0.7849 H   0  0  0  0  0  0  0  0  0  0  0  0
    5.5299    1.4705   -0.6356 H   0  0  0  0  0  0  0  0  0  0  0  0
    4.7562   -1.5136   -0.4612 H   0  0  0  0  0  0  0  0  0  0  0  0
    4.3238   -1.5556   -2.8425 H   0  0  0  0  0  0  0  0  0  0  0  0
    5.9261   -0.8256   -2.6853 H   0  0  0  0  0  0  0  0  0  0  0  0
    4.5051    0.2448   -2.9862 H   0  0  0  0  0  0  0  0  0  0  0  0
    3.7906    0.9947    1.2065 H   0  0  0  0  0  0  0  0  0  0  0  0
    3.2133   -0.7023    1.3961 H   0  0  0  0  0  0  0  0  0  0  0  0
    1.5722    0.9697    2.2270 H   0  0  0  0  0  0  0  0  0  0  0  0
    1.6092    1.8273    0.6400 H   0  0  0  0  0  0  0  0  0  0  0  0
    0.7056   -1.0684    1.1593 H   0  0  0  0  0  0  0  0  0  0  0  0
    0.0482   -1.0957   -1.2408 H   0  0  0  0  0  0  0  0  0  0  0  0
    0.6792    0.5781   -1.4552 H   0  0  0  0  0  0  0  0  0  0  0  0
    2.3143   -1.9149   -0.6454 H   0  0  0  0  0  0  0  0  0  0  0  0
    2.2861   -1.0456   -2.2221 H   0  0  0  0  0  0  0  0  0  0  0  0
   -1.2047   -2.1902    0.7042 H   0  0  0  0  0  0  0  0  0  0  0  0
   -1.7344   -2.2832    2.4106 H   0  0  0  0  0  0  0  0  0  0  0  0
   -4.0005   -2.9552    2.8006 H   0  0  0  0  0  0  0  0  0  0  0  0
   -6.2804   -3.4085    1.9728 H   0  0  0  0  0  0  0  0  0  0  0  0
   -6.9166   -2.7838   -0.3407 H   0  0  0  0  0  0  0  0  0  0  0  0
   -5.2597   -1.7022   -1.8348 H   0  0  0  0  0  0  0  0  0  0  0  0
   -2.9704   -1.2445   -1.0262 H   0  0  0  0  0  0  0  0  0  0  0  0
   -0.4779    2.7721    2.1883 H   0  0  0  0  0  0  0  0  0  0  0  0
   -1.1469    5.0113    1.3858 H   0  0  0  0  0  0  0  0  0  0  0  0
   -2.5874    3.2714   -2.2767 H   0  0  0  0  0  0  0  0  0  0  0  0
   -1.9190    1.0318   -1.4777 H   0  0  0  0  0  0  0  0  0  0  0  0
  1  2  1  0
  2  3  1  0
  2  4  1  0
  4  5  1  0
  5  6  1  0
  6  7  1  0
  7  8  1  0
  8  9  1  0
  9  4  1  0
  7 10  1  0
 10 11  1  0
 11 12  2  0
 11 13  1  0
 13 14  1  0
 14 15  2  0
 15 16  1  0
 16 17  2  0
 17 18  1  0
 18 19  2  0
 19 14  1  0
 10 20  1  0
 20 21  2  0
 21 22  1  0
 22 23  2  0
 23 24  1  0
 23 25  1  0
 25 26  2  0
 26 20  1  0
  1 27  1  0
  1 28  1  0
  1 29  1  0
  2 30  1  0
  3 31  1  0
  3 32  1  0
  3 33  1  0
  5 34  1  0
  5 35  1  0
  6 36  1  0
  6 37  1  0
  7 38  1  0
  8 39  1  0
  8 40  1  0
  9 41  1  0
  9 42  1  0
 13 43  1  0
 13 44  1  0
 15 45  1  0
 16 46  1  0
 17 47  1  0
 18 48  1  0
 19 49  1  0
 21 50  1  0
 22 51  1  0
 25 52  1  0
 26 53  1  0
M  END
> <ID>
HT3683

> <Class>
0.0

> <Clusters>
50

> <Fold>
1

$$$$