
     RDKit          3D

 30 30  0  0  0  0  0  0  0  0999 V2000
    3.2996    0.7391   -0.0000 C   0  0  0  0  0  0  0  0  0  0  0  0
    2.6987   -0.5062   -0.6653 C   0  0  0  0  0  0  0  0  0  0  0  0
    3.2844   -0.7215   -1.9920 N   0  0  0  0  0  0  0  0  0  0  0  0
    1.1988   -0.3816   -0.7549 C   0  0  0  0  0  0  0  0  0  0  0  0
    0.6304   -0.3273   -1.8806 O   0  0  0  0  0  0  0  0  0  0  0  0
    0.4146   -0.3468    0.4457 N   0  0  0  0  0  0  0  0  0  0  0  0
   -0.9997   -0.1002    0.4284 C   0  0  0  0  0  0  0  0  0  0  0  0
   -1.8921   -1.1173    0.8343 C   0  0  0  0  0  0  0  0  0  0  0  0
   -1.3763   -2.4565    1.2857 C   0  0  0  0  0  0  0  0  0  0  0  0
   -3.2742   -0.8739    0.8188 C   0  0  0  0  0  0  0  0  0  0  0  0
   -3.7694    0.3594    0.3967 C   0  0  0  0  0  0  0  0  0  0  0  0
   -2.8929    1.3707    0.0050 C   0  0  0  0  0  0  0  0  0  0  0  0
   -1.5053    1.1631    0.0379 C   0  0  0  0  0  0  0  0  0  0  0  0
   -0.5876    2.2880   -0.3607 C   0  0  0  0  0  0  0  0  0  0  0  0
    2.9065    0.8546    1.0324 H   0  0  0  0  0  0  0  0  0  0  0  0
    3.0500    1.6521   -0.5825 H   0  0  0  0  0  0  0  0  0  0  0  0
    4.4044    0.6427    0.0603 H   0  0  0  0  0  0  0  0  0  0  0  0
    2.9296   -1.3918   -0.0331 H   0  0  0  0  0  0  0  0  0  0  0  0
    4.3038   -0.9266   -1.8776 H   0  0  0  0  0  0  0  0  0  0  0  0
    3.2064    0.1575   -2.5549 H   0  0  0  0  0  0  0  0  0  0  0  0
    0.8587   -0.6359    1.3461 H   0  0  0  0  0  0  0  0  0  0  0  0
   -0.6726   -2.8662    0.5305 H   0  0  0  0  0  0  0  0  0  0  0  0
   -0.8474   -2.3438    2.2552 H   0  0  0  0  0  0  0  0  0  0  0  0
   -2.2009   -3.1891    1.4177 H   0  0  0  0  0  0  0  0  0  0  0  0
   -3.9725   -1.6421    1.1272 H   0  0  0  0  0  0  0  0  0  0  0  0
   -4.8375    0.5343    0.3787 H   0  0  0  0  0  0  0  0  0  0  0  0
   -3.2984    2.3237   -0.3123 H   0  0  0  0  0  0  0  0  0  0  0  0
   -0.3126    2.1850   -1.4306 H   0  0  0  0  0  0  0  0  0  0  0  0
   -1.0802    3.2730   -0.2152 H   0  0  0  0  0  0  0  0  0  0  0  0
    0.3336    2.2834    0.2592 H   0  0  0  0  0  0  0  0  0  0  0  0
  1  2  1  0
  2  3  1  0
  2  4  1  0
  4  5  2  0
  4  6  1  0
  6  7  1  0
  7  8  2  0
  8  9  1  0
  8 10  1  0
 10 11  2  0
 11 12  1  0
 12 13  2  0
 13  7  1  0
 13 14  1  0
  1 15  1  0
  1 16  1  0
  1 17  1  0
  2 18  1  0
  3 19  1  0
  3 20  1  0
  6 21  1  0
  9 22  1  0
  9 23  1  0
  9 24  1  0
 10 25  1  0
 11 26  1  0
 12 27  1  0
 14 28  1  0
 14 29  1  0
 14 30  1  0
M  END
> <ID>
HT2074

> <Class>
0.0

> <Clusters>
228

> <Fold>
1

$$$$