
     RDKit          3D

 91 92  0  0  0  0  0  0  0  0999 V2000
    7.8105    2.5742    2.0011 N   0  0  0  0  0  0  0  0  0  0  0  0
    6.4378    2.2397    2.3792 C   0  0  0  0  0  0  0  0  0  0  0  0
    6.2754    0.7237    2.5279 C   0  0  0  0  0  0  0  0  0  0  0  0
    6.5356   -0.0146    1.1980 C   0  0  0  0  0  0  0  0  0  0  0  0
    6.1875   -1.5292    1.2253 C   0  0  0  0  0  0  0  0  0  0  0  0
    6.8396   -2.2184    2.3481 N   0  0  0  0  0  0  0  0  0  0  0  0
    4.6656   -1.8144    1.2484 C   0  0  0  0  0  0  0  0  0  0  0  0
    3.9447   -1.3913   -0.0052 C   0  0  0  0  0  0  0  0  0  0  0  0
    4.5877   -1.1493   -1.0664 O   0  0  0  0  0  0  0  0  0  0  0  0
    2.5140   -1.3123    0.0008 N   0  0  0  0  0  0  0  0  0  0  0  0
    1.7540   -0.8454   -1.1588 C   0  0  0  0  0  0  0  0  0  0  0  0
    0.5673    0.0191   -0.7105 C   0  0  0  0  0  0  0  0  0  0  0  0
   -0.1045    0.5834   -1.8783 N   0  0  0  0  0  0  0  0  0  0  0  0
   -1.4957    0.3886   -2.1365 C   0  0  0  0  0  0  0  0  0  0  0  0
   -1.8441   -0.1764   -3.2112 O   0  0  0  0  0  0  0  0  0  0  0  0
   -2.5380    0.9894   -1.2155 C   0  0  0  0  0  0  0  0  0  0  0  0
   -3.8854    0.4896   -1.5395 N   0  0  0  0  0  0  0  0  0  0  0  0
   -4.8973    0.2387   -0.5494 C   0  0  0  0  0  0  0  0  0  0  0  0
   -6.1111    0.3388   -0.8751 O   0  0  0  0  0  0  0  0  0  0  0  0
   -4.5528   -0.1384    0.8416 C   0  0  0  0  0  0  0  0  0  0  0  0
   -4.6210    0.7606    1.8339 C   0  0  0  0  0  0  0  0  0  0  0  0
   -5.0182    2.1271    1.6364 N   0  0  0  0  0  0  0  0  0  0  0  0
   -5.1698    3.0223    2.7509 C   0  0  0  0  0  0  0  0  0  0  0  0
   -4.7764    2.6978    3.8962 O   0  0  0  0  0  0  0  0  0  0  0  0
   -5.7827    4.3058    2.5563 N   0  0  0  0  0  0  0  0  0  0  0  0
   -4.2947   -1.5219    1.1828 N   0  0  0  0  0  0  0  0  0  0  0  0
   -3.6138   -2.4496    0.3184 C   0  0  0  0  0  0  0  0  0  0  0  0
   -3.6787   -2.3188   -0.9345 O   0  0  0  0  0  0  0  0  0  0  0  0
   -2.8214   -3.5769    0.9414 C   0  0  0  0  0  0  0  0  0  0  0  0
   -1.6122   -3.0422    1.7370 C   0  0  0  0  0  0  0  0  0  0  0  0
   -0.9741   -4.0802    2.4311 O   0  0  0  0  0  0  0  0  0  0  0  0
   -2.4330   -4.6108   -0.0310 N   0  0  0  0  0  0  0  0  0  0  0  0
   -1.2055   -4.6224   -0.7874 C   0  0  0  0  0  0  0  0  0  0  0  0
   -0.5352   -5.6974   -0.8583 O   0  0  0  0  0  0  0  0  0  0  0  0
   -0.7667   -3.4402   -1.6264 C   0  0  0  0  0  0  0  0  0  0  0  0
   -1.0516   -3.7243   -3.1144 C   0  0  0  0  0  0  0  0  0  0  0  0
   -2.4005   -4.0729   -3.3051 O   0  0  0  0  0  0  0  0  0  0  0  0
    0.6560   -3.1500   -1.3969 N   0  0  0  0  0  0  0  0  0  0  0  0
    1.2908   -2.0094   -1.9957 C   0  0  0  0  0  0  0  0  0  0  0  0
    1.4193   -1.9499   -3.2474 O   0  0  0  0  0  0  0  0  0  0  0  0
   -2.5346    2.5393   -1.2993 C   0  0  0  0  0  0  0  0  0  0  0  0
   -2.8166    3.0683   -2.7333 C   0  0  0  0  0  0  0  0  0  0  0  0
   -2.4733    4.5596   -2.8585 C   0  0  0  0  0  0  0  0  0  0  0  0
   -3.4167    5.3559   -2.1865 O   0  0  0  0  0  0  0  0  0  0  0  0
   -1.1226    4.8316   -2.3674 N   0  0  0  0  0  0  0  0  0  0  0  0
   -0.5679    4.1512   -1.4045 C   0  0  0  0  0  0  0  0  0  0  0  0
    0.7475    4.4889   -0.9645 N   0  0  0  0  0  0  0  0  0  0  0  0
   -1.2735    3.0741   -0.7695 N   0  0  0  0  0  0  0  0  0  0  0  0
    8.4191    2.4757    2.8437 H   0  0  0  0  0  0  0  0  0  0  0  0
    7.8277    3.5847    1.7244 H   0  0  0  0  0  0  0  0  0  0  0  0
    5.7259    2.6152    1.6076 H   0  0  0  0  0  0  0  0  0  0  0  0
    6.1892    2.7244    3.3486 H   0  0  0  0  0  0  0  0  0  0  0  0
    6.9849    0.3702    3.3107 H   0  0  0  0  0  0  0  0  0  0  0  0
    5.2444    0.5245    2.8861 H   0  0  0  0  0  0  0  0  0  0  0  0
    7.6222    0.0837    0.9460 H   0  0  0  0  0  0  0  0  0  0  0  0
    5.9717    0.4902    0.3811 H   0  0  0  0  0  0  0  0  0  0  0  0
    6.5923   -1.9785    0.2913 H   0  0  0  0  0  0  0  0  0  0  0  0
    7.8566   -1.9818    2.3568 H   0  0  0  0  0  0  0  0  0  0  0  0
    6.4302   -1.8985    3.2498 H   0  0  0  0  0  0  0  0  0  0  0  0
    4.4994   -2.9069    1.3848 H   0  0  0  0  0  0  0  0  0  0  0  0
    4.1899   -1.3150    2.1168 H   0  0  0  0  0  0  0  0  0  0  0  0
    1.9971   -1.6428    0.8531 H   0  0  0  0  0  0  0  0  0  0  0  0
    2.4067   -0.1947   -1.7834 H   0  0  0  0  0  0  0  0  0  0  0  0
   -0.1393   -0.5805   -0.0993 H   0  0  0  0  0  0  0  0  0  0  0  0
    0.9458    0.8499   -0.0778 H   0  0  0  0  0  0  0  0  0  0  0  0
    0.4700    1.0223   -2.6354 H   0  0  0  0  0  0  0  0  0  0  0  0
   -2.2714    0.6934   -0.1747 H   0  0  0  0  0  0  0  0  0  0  0  0
   -4.2055    0.5354   -2.5340 H   0  0  0  0  0  0  0  0  0  0  0  0
   -4.3925    0.4255    2.8400 H   0  0  0  0  0  0  0  0  0  0  0  0
   -5.3296    2.4472    0.6984 H   0  0  0  0  0  0  0  0  0  0  0  0
   -6.0487    4.6234    1.6008 H   0  0  0  0  0  0  0  0  0  0  0  0
   -6.0219    4.9195    3.3751 H   0  0  0  0  0  0  0  0  0  0  0  0
   -4.4714   -1.8314    2.1691 H   0  0  0  0  0  0  0  0  0  0  0  0
   -3.5073   -4.0629    1.6790 H   0  0  0  0  0  0  0  0  0  0  0  0
   -1.9505   -2.2551    2.4501 H   0  0  0  0  0  0  0  0  0  0  0  0
   -0.8756   -2.5639    1.0602 H   0  0  0  0  0  0  0  0  0  0  0  0
   -1.5326   -4.2699    3.2296 H   0  0  0  0  0  0  0  0  0  0  0  0
   -2.9278   -5.5248    0.0473 H   0  0  0  0  0  0  0  0  0  0  0  0
   -1.3303   -2.5418   -1.3357 H   0  0  0  0  0  0  0  0  0  0  0  0
   -0.3758   -4.5287   -3.4921 H   0  0  0  0  0  0  0  0  0  0  0  0
   -0.8621   -2.8040   -3.7138 H   0  0  0  0  0  0  0  0  0  0  0  0
   -2.4718   -5.0504   -3.1569 H   0  0  0  0  0  0  0  0  0  0  0  0
    1.1185   -3.5492   -0.5436 H   0  0  0  0  0  0  0  0  0  0  0  0
   -3.3508    2.9078   -0.6382 H   0  0  0  0  0  0  0  0  0  0  0  0
   -2.2002    2.5332   -3.4830 H   0  0  0  0  0  0  0  0  0  0  0  0
   -3.8847    2.9151   -2.9999 H   0  0  0  0  0  0  0  0  0  0  0  0
   -2.4936    4.8252   -3.9393 H   0  0  0  0  0  0  0  0  0  0  0  0
   -3.2581    5.2582   -1.2062 H   0  0  0  0  0  0  0  0  0  0  0  0
    1.2996    5.2212   -1.4666 H   0  0  0  0  0  0  0  0  0  0  0  0
    1.1849    4.0033   -0.1459 H   0  0  0  0  0  0  0  0  0  0  0  0
   -0.9181    2.7204    0.1475 H   0  0  0  0  0  0  0  0  0  0  0  0
  1  2  1  0
  2  3  1  0
  3  4  1  0
  4  5  1  0
  5  6  1  0
  5  7  1  0
  7  8  1  0
  8  9  2  0
  8 10  1  0
 10 11  1  0
 11 12  1  0
 12 13  1  0
 13 14  1  0
 14 15  2  0
 14 16  1  0
 16 17  1  0
 17 18  1  0
 18 19  2  0
 18 20  1  0
 20 21  2  3
 21 22  1  0
 22 23  1  0
 23 24  2  0
 23 25  1  0
 20 26  1  0
 26 27  1  0
 27 28  2  0
 27 29  1  0
 29 30  1  0
 30 31  1  0
 29 32  1  0
 32 33  1  0
 33 34  2  0
 33 35  1  0
 35 36  1  0
 36 37  1  0
 35 38  1  0
 38 39  1  0
 39 11  1  0
 39 40  2  0
 16 41  1  0
 41 42  1  0
 42 43  1  0
 43 44  1  0
 43 45  1  0
 45 46  2  0
 46 47  1  0
 46 48  1  0
 48 41  1  0
  1 49  1  0
  1 50  1  0
  2 51  1  0
  2 52  1  0
  3 53  1  0
  3 54  1  0
  4 55  1  0
  4 56  1  0
  5 57  1  0
  6 58  1  0
  6 59  1  0
  7 60  1  0
  7 61  1  0
 10 62  1  0
 11 63  1  0
 12 64  1  0
 12 65  1  0
 13 66  1  0
 16 67  1  0
 17 68  1  0
 21 69  1  0
 22 70  1  0
 25 71  1  0
 25 72  1  0
 26 73  1  0
 29 74  1  0
 30 75  1  0
 30 76  1  0
 31 77  1  0
 32 78  1  0
 35 79  1  0
 36 80  1  0
 36 81  1  0
 37 82  1  0
 38 83  1  0
 41 84  1  0
 42 85  1  0
 42 86  1  0
 43 87  1  0
 44 88  1  0
 47 89  1  0
 47 90  1  0
 48 91  1  0
M  END
> <ID>
HT3987

> <Class>
0.0

> <Clusters>
42

> <Fold>
1

$$$$