
     RDKit          3D

102106  0  0  0  0  0  0  0  0999 V2000
   10.1533   -1.4665    1.6777 C   0  0  0  0  0  0  0  0  0  0  0  0
    8.9436   -1.1445    0.7857 C   0  0  0  0  0  0  0  0  0  0  0  0
    8.4716    0.3428    0.8312 C   0  0  2  0  0  0  0  0  0  0  0  0
    6.9255    0.4242    0.5888 C   0  0  0  0  0  0  0  0  0  0  0  0
    6.4509   -0.1538   -0.7672 C   0  0  0  0  0  0  0  0  0  0  0  0
    5.0456   -0.8010   -0.7573 C   0  0  1  0  0  0  0  0  0  0  0  0
    5.0688   -2.1100    0.0487 C   0  0  0  0  0  0  0  0  0  0  0  0
    3.9151    0.1746   -0.2715 C   0  0  1  0  0  0  0  0  0  0  0  0
    3.9808    1.5677   -0.9605 C   0  0  0  0  0  0  0  0  0  0  0  0
    2.5491    2.0885   -1.0758 C   0  0  0  0  0  0  0  0  0  0  0  0
    1.7111    1.0714   -0.3185 C   0  0  1  0  0  0  0  0  0  0  0  0
    0.2181    1.0048   -0.6783 C   0  0  2  0  0  0  0  0  0  0  0  0
   -0.4488    2.3668   -0.4357 C   0  0  0  0  0  0  0  0  0  0  0  0
   -1.9469    2.2961   -0.4700 C   0  0  0  0  0  0  0  0  0  0  0  0
   -2.6542    1.1462   -0.3689 C   0  0  0  0  0  0  0  0  0  0  0  0
   -4.1555    1.2220   -0.2303 C   0  0  0  0  0  0  0  0  0  0  0  0
   -4.6319    0.5831    1.0934 C   0  0  2  0  0  0  0  0  0  0  0  0
   -3.5992   -0.3765    1.7200 C   0  0  0  0  0  0  0  0  0  0  0  0
   -2.8350   -1.1697    0.6487 C   0  0  0  0  0  0  0  0  0  0  0  0
   -1.9958   -0.2454   -0.3165 C   0  0  1  0  0  0  0  0  0  0  0  0
   -2.0853   -0.8436   -1.7505 C   0  0  0  0  0  0  0  0  0  0  0  0
   -0.4997   -0.0909    0.1741 C   0  0  1  0  0  0  0  0  0  0  0  0
    0.3089   -1.4351    0.2824 C   0  0  0  0  0  0  0  0  0  0  0  0
    1.8292   -1.2430    0.5201 C   0  0  0  0  0  0  0  0  0  0  0  0
    2.4351   -0.2720   -0.5197 C   0  0  2  0  0  0  0  0  0  0  0  0
    2.2815   -0.8591   -1.9571 C   0  0  0  0  0  0  0  0  0  0  0  0
   -5.8470   -0.1232    0.8392 O   0  0  0  0  0  0  0  0  0  0  0  0
   -7.0927    0.2309    1.3783 C   0  0  0  0  0  0  0  0  0  0  0  0
   -7.1730    1.0702    2.3224 O   0  0  0  0  0  0  0  0  0  0  0  0
   -8.3487   -0.4098    0.8420 C   0  0  0  0  0  0  0  0  0  0  0  0
   -8.4198   -1.8623    1.3464 C   0  0  0  0  0  0  0  0  0  0  0  0
   -8.3021   -0.3921   -0.6991 C   0  0  0  0  0  0  0  0  0  0  0  0
   -9.4804    0.3475    1.3026 O   0  0  0  0  0  0  0  0  0  0  0  0
  -10.7986    0.1136    0.8993 C   0  0  0  0  0  0  0  0  0  0  0  0
  -11.5784   -0.8535    1.5463 C   0  0  0  0  0  0  0  0  0  0  0  0
  -12.9045   -1.0609    1.1580 C   0  0  0  0  0  0  0  0  0  0  0  0
  -13.4649   -0.2969    0.1249 C   0  0  0  0  0  0  0  0  0  0  0  0
  -15.1333   -0.5578   -0.3571 Cl  0  0  0  0  0  0  0  0  0  0  0  0
  -12.6916    0.6762   -0.5155 C   0  0  0  0  0  0  0  0  0  0  0  0
  -11.3664    0.8844   -0.1297 C   0  0  0  0  0  0  0  0  0  0  0  0
    9.3361    1.4089    0.0353 C   0  0  0  0  0  0  0  0  0  0  0  0
   10.7941    0.9978   -0.2208 C   0  0  0  0  0  0  0  0  0  0  0  0
    8.7327    1.9204   -1.2905 C   0  0  0  0  0  0  0  0  0  0  0  0
   10.1610   -0.8250    2.5825 H   0  0  0  0  0  0  0  0  0  0  0  0
   11.1011   -1.3434    1.1222 H   0  0  0  0  0  0  0  0  0  0  0  0
   10.0936   -2.5258    2.0148 H   0  0  0  0  0  0  0  0  0  0  0  0
    9.1562   -1.4673   -0.2560 H   0  0  0  0  0  0  0  0  0  0  0  0
    8.1136   -1.7763    1.1542 H   0  0  0  0  0  0  0  0  0  0  0  0
    8.5711    0.6549    1.8966 H   0  0  0  0  0  0  0  0  0  0  0  0
    6.6033    1.4862    0.6840 H   0  0  0  0  0  0  0  0  0  0  0  0
    6.4226   -0.1134    1.4170 H   0  0  0  0  0  0  0  0  0  0  0  0
    7.1654   -0.8920   -1.1664 H   0  0  0  0  0  0  0  0  0  0  0  0
    6.4329    0.6413   -1.5332 H   0  0  0  0  0  0  0  0  0  0  0  0
    4.8661   -1.0804   -1.8158 H   0  0  0  0  0  0  0  0  0  0  0  0
    4.9037   -1.9258    1.1298 H   0  0  0  0  0  0  0  0  0  0  0  0
    4.2964   -2.8052   -0.3220 H   0  0  0  0  0  0  0  0  0  0  0  0
    6.0363   -2.6445   -0.0720 H   0  0  0  0  0  0  0  0  0  0  0  0
    4.0535    0.3469    0.8246 H   0  0  0  0  0  0  0  0  0  0  0  0
    4.4055    1.4907   -1.9839 H   0  0  0  0  0  0  0  0  0  0  0  0
    4.6090    2.2706   -0.3743 H   0  0  0  0  0  0  0  0  0  0  0  0
    2.4586    3.1055   -0.6314 H   0  0  0  0  0  0  0  0  0  0  0  0
    2.2346    2.1265   -2.1455 H   0  0  0  0  0  0  0  0  0  0  0  0
    1.7745    1.3553    0.7631 H   0  0  0  0  0  0  0  0  0  0  0  0
    0.1324    0.7967   -1.7630 H   0  0  0  0  0  0  0  0  0  0  0  0
   -0.1427    2.7841    0.5491 H   0  0  0  0  0  0  0  0  0  0  0  0
   -0.1228    3.0724   -1.2206 H   0  0  0  0  0  0  0  0  0  0  0  0
   -2.4738    3.2458   -0.4676 H   0  0  0  0  0  0  0  0  0  0  0  0
   -4.6042    0.6891   -1.0953 H   0  0  0  0  0  0  0  0  0  0  0  0
   -4.5245    2.2657   -0.2817 H   0  0  0  0  0  0  0  0  0  0  0  0
   -4.7949    1.4073    1.8255 H   0  0  0  0  0  0  0  0  0  0  0  0
   -4.1201   -1.0878    2.4055 H   0  0  0  0  0  0  0  0  0  0  0  0
   -2.8714    0.2056    2.3265 H   0  0  0  0  0  0  0  0  0  0  0  0
   -2.2046   -1.9181    1.1594 H   0  0  0  0  0  0  0  0  0  0  0  0
   -3.5890   -1.7533    0.0697 H   0  0  0  0  0  0  0  0  0  0  0  0
   -1.6281   -1.8481   -1.8131 H   0  0  0  0  0  0  0  0  0  0  0  0
   -1.6231   -0.1896   -2.5161 H   0  0  0  0  0  0  0  0  0  0  0  0
   -3.1445   -0.9625   -2.0570 H   0  0  0  0  0  0  0  0  0  0  0  0
   -0.5418    0.2996    1.2203 H   0  0  0  0  0  0  0  0  0  0  0  0
    0.1677   -2.0690   -0.6137 H   0  0  0  0  0  0  0  0  0  0  0  0
   -0.0584   -2.0336    1.1364 H   0  0  0  0  0  0  0  0  0  0  0  0
    1.9922   -0.8606    1.5507 H   0  0  0  0  0  0  0  0  0  0  0  0
    2.3177   -2.2382    0.4688 H   0  0  0  0  0  0  0  0  0  0  0  0
    2.7577   -1.8608   -2.0057 H   0  0  0  0  0  0  0  0  0  0  0  0
    1.2282   -1.0101   -2.2657 H   0  0  0  0  0  0  0  0  0  0  0  0
    2.7492   -0.2052   -2.7248 H   0  0  0  0  0  0  0  0  0  0  0  0
   -7.5190   -2.4320    1.0343 H   0  0  0  0  0  0  0  0  0  0  0  0
   -9.3095   -2.3839    0.9259 H   0  0  0  0  0  0  0  0  0  0  0  0
   -8.4852   -1.8825    2.4562 H   0  0  0  0  0  0  0  0  0  0  0  0
   -9.2071   -0.8824   -1.1223 H   0  0  0  0  0  0  0  0  0  0  0  0
   -8.2572    0.6578   -1.0721 H   0  0  0  0  0  0  0  0  0  0  0  0
   -7.4169   -0.9461   -1.0817 H   0  0  0  0  0  0  0  0  0  0  0  0
  -11.1573   -1.4386    2.3543 H   0  0  0  0  0  0  0  0  0  0  0  0
  -13.4993   -1.8094    1.6657 H   0  0  0  0  0  0  0  0  0  0  0  0
  -13.1207    1.2705   -1.3120 H   0  0  0  0  0  0  0  0  0  0  0  0
  -10.7764    1.6405   -0.6280 H   0  0  0  0  0  0  0  0  0  0  0  0
    9.3959    2.3105    0.6792 H   0  0  0  0  0  0  0  0  0  0  0  0
   11.3421    0.8848    0.7474 H   0  0  0  0  0  0  0  0  0  0  0  0
   11.3284    1.7683   -0.8198 H   0  0  0  0  0  0  0  0  0  0  0  0
   10.8510    0.0568   -0.7933 H   0  0  0  0  0  0  0  0  0  0  0  0
    7.7424    2.3868   -1.1178 H   0  0  0  0  0  0  0  0  0  0  0  0
    9.3719    2.7248   -1.7179 H   0  0  0  0  0  0  0  0  0  0  0  0
    8.6600    1.0957   -2.0392 H   0  0  0  0  0  0  0  0  0  0  0  0
  1  2  1  0
  3  2  1  0
  3  4  1  0
  4  5  1  0
  5  6  1  0
  6  7  1  0
  8  6  1  0
  8  9  1  0
  9 10  1  0
 11 10  1  0
 11 12  1  0
 12 13  1  0
 13 14  1  0
 14 15  2  0
 15 16  1  0
 16 17  1  0
 17 18  1  0
 18 19  1  0
 19 20  1  0
 20 15  1  0
 20 21  1  6
 20 22  1  0
 22 12  1  0
 22 23  1  0
 23 24  1  0
 24 25  1  0
 25  8  1  0
 25 11  1  0
 25 26  1  6
 17 27  1  0
 27 28  1  0
 28 29  2  0
 28 30  1  0
 30 31  1  0
 30 32  1  0
 30 33  1  0
 33 34  1  0
 34 35  2  0
 35 36  1  0
 36 37  2  0
 37 38  1  0
 37 39  1  0
 39 40  2  0
 40 34  1  0
  3 41  1  0
 41 42  1  0
 41 43  1  0
  1 44  1  0
  1 45  1  0
  1 46  1  0
  2 47  1  0
  2 48  1  0
  3 49  1  1
  4 50  1  0
  4 51  1  0
  5 52  1  0
  5 53  1  0
  6 54  1  6
  7 55  1  0
  7 56  1  0
  7 57  1  0
  8 58  1  1
  9 59  1  0
  9 60  1  0
 10 61  1  0
 10 62  1  0
 11 63  1  1
 12 64  1  6
 13 65  1  0
 13 66  1  0
 14 67  1  0
 16 68  1  0
 16 69  1  0
 17 70  1  1
 18 71  1  0
 18 72  1  0
 19 73  1  0
 19 74  1  0
 21 75  1  0
 21 76  1  0
 21 77  1  0
 22 78  1  1
 23 79  1  0
 23 80  1  0
 24 81  1  0
 24 82  1  0
 26 83  1  0
 26 84  1  0
 26 85  1  0
 31 86  1  0
 31 87  1  0
 31 88  1  0
 32 89  1  0
 32 90  1  0
 32 91  1  0
 35 92  1  0
 36 93  1  0
 39 94  1  0
 40 95  1  0
 41 96  1  0
 42 97  1  0
 42 98  1  0
 42 99  1  0
 43100  1  0
 43101  1  0
 43102  1  0
M  END
> <ID>
HT1895

> <Class>
0.0

> <Clusters>
224

> <Fold>
1

$$$$