
     RDKit          3D

 30 32  0  0  0  0  0  0  0  0999 V2000
   -3.9610   -1.5580   -1.2354 N   0  0  0  0  0  0  0  0  0  0  0  0
   -3.1547   -1.8603   -0.0964 C   0  0  0  0  0  0  0  0  0  0  0  0
   -3.5059   -2.7878    0.6809 O   0  0  0  0  0  0  0  0  0  0  0  0
   -1.9268   -1.1545    0.1430 N   0  0  0  0  0  0  0  0  0  0  0  0
   -0.7727   -1.7016    0.5942 C   0  0  0  0  0  0  0  0  0  0  0  0
   -0.6288   -3.0589    0.8790 O   0  0  0  0  0  0  0  0  0  0  0  0
    0.2310   -0.7410    0.6986 C   0  0  0  0  0  0  0  0  0  0  0  0
    1.6079   -0.9430    1.1866 C   0  0  0  0  0  0  0  0  0  0  0  0
    1.7950   -1.6328    2.2240 O   0  0  0  0  0  0  0  0  0  0  0  0
    2.7707   -0.3702    0.4860 C   0  0  0  0  0  0  0  0  0  0  0  0
    2.7977    0.1218   -0.8159 C   0  0  0  0  0  0  0  0  0  0  0  0
    4.0639    0.5678   -1.2129 C   0  0  0  0  0  0  0  0  0  0  0  0
    5.0396    0.4205   -0.2361 C   0  0  0  0  0  0  0  0  0  0  0  0
    4.3252   -0.2672    1.1215 S   0  0  0  0  0  0  0  0  0  0  0  0
   -0.3660    0.4486    0.3143 C   0  0  0  0  0  0  0  0  0  0  0  0
    0.1243    1.7564    0.3111 C   0  0  0  0  0  0  0  0  0  0  0  0
   -0.7499    2.7902   -0.0666 C   0  0  0  0  0  0  0  0  0  0  0  0
   -0.1782    4.4479   -0.0942 Cl  0  0  0  0  0  0  0  0  0  0  0  0
   -2.0906    2.5034   -0.4004 C   0  0  0  0  0  0  0  0  0  0  0  0
   -2.5687    1.1823   -0.3636 C   0  0  0  0  0  0  0  0  0  0  0  0
   -1.6728    0.1640   -0.0169 C   0  0  0  0  0  0  0  0  0  0  0  0
   -4.8739   -2.0445   -1.3766 H   0  0  0  0  0  0  0  0  0  0  0  0
   -3.6106   -0.9211   -1.9843 H   0  0  0  0  0  0  0  0  0  0  0  0
    0.2562   -3.4487    1.1776 H   0  0  0  0  0  0  0  0  0  0  0  0
    1.9353    0.1491   -1.4686 H   0  0  0  0  0  0  0  0  0  0  0  0
    4.2654    0.9807   -2.1923 H   0  0  0  0  0  0  0  0  0  0  0  0
    6.0810    0.6946   -0.3367 H   0  0  0  0  0  0  0  0  0  0  0  0
    1.1414    1.9758    0.6072 H   0  0  0  0  0  0  0  0  0  0  0  0
   -2.7646    3.3066   -0.6693 H   0  0  0  0  0  0  0  0  0  0  0  0
   -3.6094    0.9799   -0.5726 H   0  0  0  0  0  0  0  0  0  0  0  0
  1  2  1  0
  2  3  2  0
  2  4  1  0
  4  5  1  0
  5  6  1  0
  5  7  2  0
  7  8  1  0
  8  9  2  0
  8 10  1  0
 10 11  2  0
 11 12  1  0
 12 13  2  0
 13 14  1  0
 14 10  1  0
  7 15  1  0
 15 16  2  0
 16 17  1  0
 17 18  1  0
 17 19  2  0
 19 20  1  0
 20 21  2  0
 21  4  1  0
 21 15  1  0
  1 22  1  0
  1 23  1  0
  6 24  1  0
 11 25  1  0
 12 26  1  0
 13 27  1  0
 16 28  1  0
 19 29  1  0
 20 30  1  0
M  END
> <ID>
HT2001

> <Class>
0.0

> <Clusters>
74

> <Fold>
1

$$$$