
     RDKit          3D

 44 46  0  0  0  0  0  0  0  0999 V2000
    6.3616   -2.8591    0.0971 C   0  0  0  0  0  0  0  0  0  0  0  0
    5.6890   -1.6226    0.3076 O   0  0  0  0  0  0  0  0  0  0  0  0
    4.3475   -1.3769   -0.0290 C   0  0  0  0  0  0  0  0  0  0  0  0
    3.8128   -0.1748    0.2761 C   0  0  0  0  0  0  0  0  0  0  0  0
    2.4242    0.0333    0.0337 N   0  0  0  0  0  0  0  0  0  0  0  0
    1.3957   -0.8664   -0.4119 C   0  0  0  0  0  0  0  0  0  0  0  0
    2.1162   -1.9041   -1.7163 S   0  0  0  0  0  0  0  0  0  0  0  0
    3.4852   -2.4894   -0.6302 C   0  0  0  0  0  0  0  0  0  0  0  0
    0.5402    0.2008   -0.8717 C   0  0  0  0  0  0  0  0  0  0  0  0
   -0.7228    0.2692   -0.1344 N   0  0  0  0  0  0  0  0  0  0  0  0
   -1.7849   -0.6658   -0.3829 C   0  0  0  0  0  0  0  0  0  0  0  0
   -1.6320   -1.5657   -1.2537 O   0  0  0  0  0  0  0  0  0  0  0  0
   -3.1006   -0.5869    0.3593 C   0  0  0  0  0  0  0  0  0  0  0  0
   -2.9173   -0.6064    1.8139 N   0  0  0  0  0  0  0  0  0  0  0  0
   -3.9122    0.6231   -0.0805 C   0  0  0  0  0  0  0  0  0  0  0  0
   -5.0087    0.4521   -0.8546 C   0  0  0  0  0  0  0  0  0  0  0  0
   -5.8050    1.6319   -1.3578 C   0  0  0  0  0  0  0  0  0  0  0  0
   -5.7417    2.7843   -0.3898 C   0  0  0  0  0  0  0  0  0  0  0  0
   -4.6574    2.9687    0.3768 C   0  0  0  0  0  0  0  0  0  0  0  0
   -3.4753    2.0387    0.2672 C   0  0  0  0  0  0  0  0  0  0  0  0
    1.5538    1.1700   -0.3408 C   0  0  0  0  0  0  0  0  0  0  0  0
    1.6496    2.4239   -0.2883 O   0  0  0  0  0  0  0  0  0  0  0  0
    4.6128    0.9387    0.8290 C   0  0  0  0  0  0  0  0  0  0  0  0
    4.0843    1.7229    1.6599 O   0  0  0  0  0  0  0  0  0  0  0  0
    5.9243    1.1752    0.4204 O   0  0  0  0  0  0  0  0  0  0  0  0
    5.8262   -3.6802    0.6190 H   0  0  0  0  0  0  0  0  0  0  0  0
    6.4337   -3.0756   -0.9892 H   0  0  0  0  0  0  0  0  0  0  0  0
    7.3890   -2.7860    0.5087 H   0  0  0  0  0  0  0  0  0  0  0  0
    0.9911   -1.4628    0.4375 H   0  0  0  0  0  0  0  0  0  0  0  0
    4.1071   -3.1624   -1.2522 H   0  0  0  0  0  0  0  0  0  0  0  0
    3.0572   -3.0958    0.1957 H   0  0  0  0  0  0  0  0  0  0  0  0
    0.4077    0.2811   -1.9730 H   0  0  0  0  0  0  0  0  0  0  0  0
   -0.8690    1.0505    0.5420 H   0  0  0  0  0  0  0  0  0  0  0  0
   -3.6734   -1.5076    0.1007 H   0  0  0  0  0  0  0  0  0  0  0  0
   -2.2160    0.1070    2.1116 H   0  0  0  0  0  0  0  0  0  0  0  0
   -2.5254   -1.5384    2.0836 H   0  0  0  0  0  0  0  0  0  0  0  0
   -5.3298   -0.5433   -1.1482 H   0  0  0  0  0  0  0  0  0  0  0  0
   -5.3914    1.9583   -2.3351 H   0  0  0  0  0  0  0  0  0  0  0  0
   -6.8631    1.3285   -1.5041 H   0  0  0  0  0  0  0  0  0  0  0  0
   -6.5802    3.4697   -0.3141 H   0  0  0  0  0  0  0  0  0  0  0  0
   -4.6265    3.7974    1.0777 H   0  0  0  0  0  0  0  0  0  0  0  0
   -2.9200    2.0684    1.2251 H   0  0  0  0  0  0  0  0  0  0  0  0
   -2.8065    2.4116   -0.5372 H   0  0  0  0  0  0  0  0  0  0  0  0
    6.3499    0.6648   -0.3434 H   0  0  0  0  0  0  0  0  0  0  0  0
  1  2  1  0
  2  3  1  0
  3  4  2  0
  4  5  1  0
  5  6  1  0
  6  7  1  0
  7  8  1  0
  8  3  1  0
  6  9  1  0
  9 10  1  0
 10 11  1  0
 11 12  2  0
 11 13  1  0
 13 14  1  0
 13 15  1  0
 15 16  2  0
 16 17  1  0
 17 18  1  0
 18 19  2  0
 19 20  1  0
 20 15  1  0
  9 21  1  0
 21  5  1  0
 21 22  2  0
  4 23  1  0
 23 24  2  0
 23 25  1  0
  1 26  1  0
  1 27  1  0
  1 28  1  0
  6 29  1  0
  8 30  1  0
  8 31  1  0
  9 32  1  0
 10 33  1  0
 13 34  1  0
 14 35  1  0
 14 36  1  0
 16 37  1  0
 17 38  1  0
 17 39  1  0
 18 40  1  0
 19 41  1  0
 20 42  1  0
 20 43  1  0
 25 44  1  0
M  END
> <ID>
HT1645

> <Class>
0.0

> <Clusters>
46

> <Fold>
1

$$$$