
     RDKit          3D

 64 67  0  0  0  0  0  0  0  0999 V2000
    6.9888   -0.9292   -0.3370 C   0  0  0  0  0  0  0  0  0  0  0  0
    5.9965    0.1576   -0.8207 C   0  0  0  0  0  0  0  0  0  0  0  0
    6.6357    1.5351   -0.5557 C   0  0  0  0  0  0  0  0  0  0  0  0
    5.8013   -0.0320   -2.3419 C   0  0  0  0  0  0  0  0  0  0  0  0
    4.6281    0.0836   -0.1128 C   0  0  0  0  0  0  0  0  0  0  0  0
    4.3524   -0.8420    0.9214 C   0  0  0  0  0  0  0  0  0  0  0  0
    3.0904   -0.9006    1.5151 C   0  0  0  0  0  0  0  0  0  0  0  0
    2.0596   -0.0564    1.0842 C   0  0  0  0  0  0  0  0  0  0  0  0
    0.6799   -0.1834    1.6811 C   0  0  0  0  0  0  0  0  0  0  0  0
    0.1997   -1.5831    1.6160 N   0  0  0  0  0  0  0  0  0  0  0  0
    0.0066   -2.0689    0.2337 C   0  0  0  0  0  0  0  0  0  0  0  0
   -1.1848   -1.3830   -0.4706 C   0  0  0  0  0  0  0  0  0  0  0  0
   -2.1651   -0.8111    0.4882 N   0  0  0  0  0  0  0  0  0  0  0  0
   -2.3230   -1.7302    1.6345 C   0  0  0  0  0  0  0  0  0  0  0  0
   -1.0107   -1.8049    2.4410 C   0  0  0  0  0  0  0  0  0  0  0  0
   -3.4697   -0.5318   -0.1733 C   0  0  0  0  0  0  0  0  0  0  0  0
   -3.3160    0.3630   -1.3970 C   0  0  0  0  0  0  0  0  0  0  0  0
   -2.5270    1.5302   -1.3551 C   0  0  0  0  0  0  0  0  0  0  0  0
   -2.4072    2.3445   -2.4842 C   0  0  0  0  0  0  0  0  0  0  0  0
   -3.0732    2.0087   -3.6648 C   0  0  0  0  0  0  0  0  0  0  0  0
   -3.8599    0.8562   -3.7185 C   0  0  0  0  0  0  0  0  0  0  0  0
   -3.9833    0.0371   -2.5919 C   0  0  0  0  0  0  0  0  0  0  0  0
   -4.4597    0.1286    0.7741 C   0  0  0  0  0  0  0  0  0  0  0  0
   -5.7836   -0.3446    0.8477 C   0  0  0  0  0  0  0  0  0  0  0  0
   -6.7045    0.2555    1.7111 C   0  0  0  0  0  0  0  0  0  0  0  0
   -6.3167    1.3385    2.5055 C   0  0  0  0  0  0  0  0  0  0  0  0
   -7.4740    2.0948    3.5855 Cl  0  0  0  0  0  0  0  0  0  0  0  0
   -5.0027    1.8169    2.4429 C   0  0  0  0  0  0  0  0  0  0  0  0
   -4.0777    1.2161    1.5851 C   0  0  0  0  0  0  0  0  0  0  0  0
    2.3222    0.8857    0.0818 C   0  0  0  0  0  0  0  0  0  0  0  0
    3.5895    0.9602   -0.5033 C   0  0  0  0  0  0  0  0  0  0  0  0
    6.5833   -1.9474   -0.5291 H   0  0  0  0  0  0  0  0  0  0  0  0
    7.9555   -0.8450   -0.8797 H   0  0  0  0  0  0  0  0  0  0  0  0
    7.2071   -0.8164    0.7478 H   0  0  0  0  0  0  0  0  0  0  0  0
    6.0074    2.3592   -0.9542 H   0  0  0  0  0  0  0  0  0  0  0  0
    7.6314    1.6079   -1.0451 H   0  0  0  0  0  0  0  0  0  0  0  0
    6.7697    1.6979    0.5353 H   0  0  0  0  0  0  0  0  0  0  0  0
    6.7842   -0.1012   -2.8603 H   0  0  0  0  0  0  0  0  0  0  0  0
    5.2502    0.8230   -2.7931 H   0  0  0  0  0  0  0  0  0  0  0  0
    5.2288   -0.9634   -2.5463 H   0  0  0  0  0  0  0  0  0  0  0  0
    5.0933   -1.5389    1.2843 H   0  0  0  0  0  0  0  0  0  0  0  0
    2.9105   -1.6252    2.2999 H   0  0  0  0  0  0  0  0  0  0  0  0
    0.7593    0.1424    2.7411 H   0  0  0  0  0  0  0  0  0  0  0  0
   -0.0369    0.5073    1.1851 H   0  0  0  0  0  0  0  0  0  0  0  0
    0.9324   -1.9402   -0.3670 H   0  0  0  0  0  0  0  0  0  0  0  0
   -0.1785   -3.1654    0.2685 H   0  0  0  0  0  0  0  0  0  0  0  0
   -1.6696   -2.1230   -1.1473 H   0  0  0  0  0  0  0  0  0  0  0  0
   -0.7765   -0.5647   -1.1014 H   0  0  0  0  0  0  0  0  0  0  0  0
   -2.6040   -2.7477    1.2772 H   0  0  0  0  0  0  0  0  0  0  0  0
   -3.1245   -1.3922    2.3255 H   0  0  0  0  0  0  0  0  0  0  0  0
   -0.9367   -2.8136    2.9036 H   0  0  0  0  0  0  0  0  0  0  0  0
   -1.0604   -1.0833    3.2882 H   0  0  0  0  0  0  0  0  0  0  0  0
   -3.9039   -1.5046   -0.5056 H   0  0  0  0  0  0  0  0  0  0  0  0
   -1.9844    1.8002   -0.4597 H   0  0  0  0  0  0  0  0  0  0  0  0
   -1.7952    3.2350   -2.4426 H   0  0  0  0  0  0  0  0  0  0  0  0
   -2.9799    2.6416   -4.5369 H   0  0  0  0  0  0  0  0  0  0  0  0
   -4.3771    0.5968   -4.6339 H   0  0  0  0  0  0  0  0  0  0  0  0
   -4.6019   -0.8493   -2.6513 H   0  0  0  0  0  0  0  0  0  0  0  0
   -6.1066   -1.1772    0.2364 H   0  0  0  0  0  0  0  0  0  0  0  0
   -7.7209   -0.1180    1.7583 H   0  0  0  0  0  0  0  0  0  0  0  0
   -4.6954    2.6528    3.0604 H   0  0  0  0  0  0  0  0  0  0  0  0
   -3.0613    1.5887    1.5709 H   0  0  0  0  0  0  0  0  0  0  0  0
    1.5413    1.5562   -0.2578 H   0  0  0  0  0  0  0  0  0  0  0  0
    3.7474    1.6969   -1.2793 H   0  0  0  0  0  0  0  0  0  0  0  0
  1  2  1  0
  2  3  1  0
  2  4  1  0
  2  5  1  0
  5  6  2  0
  6  7  1  0
  7  8  2  0
  8  9  1  0
  9 10  1  0
 10 11  1  0
 11 12  1  0
 12 13  1  0
 13 14  1  0
 14 15  1  0
 15 10  1  0
 13 16  1  0
 16 17  1  0
 17 18  2  0
 18 19  1  0
 19 20  2  0
 20 21  1  0
 21 22  2  0
 22 17  1  0
 16 23  1  0
 23 24  2  0
 24 25  1  0
 25 26  2  0
 26 27  1  0
 26 28  1  0
 28 29  2  0
 29 23  1  0
  8 30  1  0
 30 31  2  0
 31  5  1  0
  1 32  1  0
  1 33  1  0
  1 34  1  0
  3 35  1  0
  3 36  1  0
  3 37  1  0
  4 38  1  0
  4 39  1  0
  4 40  1  0
  6 41  1  0
  7 42  1  0
  9 43  1  0
  9 44  1  0
 11 45  1  0
 11 46  1  0
 12 47  1  0
 12 48  1  0
 14 49  1  0
 14 50  1  0
 15 51  1  0
 15 52  1  0
 16 53  1  0
 18 54  1  0
 19 55  1  0
 20 56  1  0
 21 57  1  0
 22 58  1  0
 24 59  1  0
 25 60  1  0
 28 61  1  0
 29 62  1  0
 30 63  1  0
 31 64  1  0
M  END
> <ID>
HT0321

> <Class>
0.0

> <Clusters>
50

> <Fold>
1

$$$$