
     RDKit          3D

 61 63  0  0  0  0  0  0  0  0999 V2000
   -5.5978    0.6663    0.7671 C   0  0  0  0  0  0  0  0  0  0  0  0
   -4.7028   -0.4740    1.2443 C   0  0  0  0  0  0  0  0  0  0  0  0
   -3.9257   -1.0246    0.1230 N   0  0  0  0  0  0  0  0  0  0  0  0
   -4.5401   -2.0845   -0.6929 C   0  0  0  0  0  0  0  0  0  0  0  0
   -4.0262   -3.4574   -0.2650 C   0  0  0  0  0  0  0  0  0  0  0  0
   -2.5884   -0.5618   -0.1974 C   0  0  0  0  0  0  0  0  0  0  0  0
   -1.9276   -1.1649   -1.0879 O   0  0  0  0  0  0  0  0  0  0  0  0
   -1.9296    0.5933    0.5454 C   0  0  0  0  0  0  0  0  0  0  0  0
   -1.1725    0.0837    1.8032 C   0  0  0  0  0  0  0  0  0  0  0  0
    0.2803    0.3610    1.7436 N   0  0  0  0  0  0  0  0  0  0  0  0
    0.9516   -0.2558    2.8989 C   0  0  0  0  0  0  0  0  0  0  0  0
    2.3938    0.2321    2.9712 C   0  0  0  0  0  0  0  0  0  0  0  0
    3.0992    0.0266    1.6598 C   0  0  0  0  0  0  0  0  0  0  0  0
    4.5005    0.0178    1.6332 C   0  0  0  0  0  0  0  0  0  0  0  0
    5.1953   -0.2283    0.4356 C   0  0  0  0  0  0  0  0  0  0  0  0
    6.5981   -0.2466    0.3776 O   0  0  0  0  0  0  0  0  0  0  0  0
    7.4556   -0.0165    1.4911 C   0  0  0  0  0  0  0  0  0  0  0  0
    4.4780   -0.4727   -0.7427 C   0  0  0  0  0  0  0  0  0  0  0  0
    5.1995   -0.7353   -1.9184 O   0  0  0  0  0  0  0  0  0  0  0  0
    4.6089   -1.0017   -3.1866 C   0  0  0  0  0  0  0  0  0  0  0  0
    3.0714   -0.4475   -0.7193 C   0  0  0  0  0  0  0  0  0  0  0  0
    2.3720   -0.1577    0.4660 C   0  0  0  0  0  0  0  0  0  0  0  0
    0.8446   -0.1252    0.4607 C   0  0  0  0  0  0  0  0  0  0  0  0
    0.3207    0.7707   -0.6925 C   0  0  0  0  0  0  0  0  0  0  0  0
   -1.0200    1.4563   -0.3609 C   0  0  0  0  0  0  0  0  0  0  0  0
   -1.7063    1.7848   -1.5728 O   0  0  0  0  0  0  0  0  0  0  0  0
   -2.0737    3.0832   -1.9445 C   0  0  0  0  0  0  0  0  0  0  0  0
   -1.8295    4.0687   -1.1968 O   0  0  0  0  0  0  0  0  0  0  0  0
   -2.8178    3.2933   -3.2188 C   0  0  0  0  0  0  0  0  0  0  0  0
   -6.3444    0.2866    0.0378 H   0  0  0  0  0  0  0  0  0  0  0  0
   -4.9949    1.4606    0.2801 H   0  0  0  0  0  0  0  0  0  0  0  0
   -6.1364    1.1052    1.6331 H   0  0  0  0  0  0  0  0  0  0  0  0
   -4.0394   -0.1267    2.0625 H   0  0  0  0  0  0  0  0  0  0  0  0
   -5.3389   -1.2698    1.6903 H   0  0  0  0  0  0  0  0  0  0  0  0
   -5.6475   -2.0715   -0.5812 H   0  0  0  0  0  0  0  0  0  0  0  0
   -4.3234   -1.9138   -1.7703 H   0  0  0  0  0  0  0  0  0  0  0  0
   -2.9276   -3.5282   -0.4124 H   0  0  0  0  0  0  0  0  0  0  0  0
   -4.5188   -4.2455   -0.8741 H   0  0  0  0  0  0  0  0  0  0  0  0
   -4.2609   -3.6347    0.8061 H   0  0  0  0  0  0  0  0  0  0  0  0
   -2.7269    1.2870    0.8826 H   0  0  0  0  0  0  0  0  0  0  0  0
   -1.5952    0.6012    2.6930 H   0  0  0  0  0  0  0  0  0  0  0  0
   -1.3533   -1.0065    1.9560 H   0  0  0  0  0  0  0  0  0  0  0  0
    0.9315   -1.3676    2.8216 H   0  0  0  0  0  0  0  0  0  0  0  0
    0.4429    0.0361    3.8446 H   0  0  0  0  0  0  0  0  0  0  0  0
    2.9142   -0.3333    3.7747 H   0  0  0  0  0  0  0  0  0  0  0  0
    2.4161    1.3125    3.2301 H   0  0  0  0  0  0  0  0  0  0  0  0
    5.0419    0.1884    2.5545 H   0  0  0  0  0  0  0  0  0  0  0  0
    7.2797   -0.7844    2.2737 H   0  0  0  0  0  0  0  0  0  0  0  0
    8.5108   -0.0865    1.1562 H   0  0  0  0  0  0  0  0  0  0  0  0
    7.2806    0.9992    1.9044 H   0  0  0  0  0  0  0  0  0  0  0  0
    3.9949   -0.1354   -3.5119 H   0  0  0  0  0  0  0  0  0  0  0  0
    3.9818   -1.9165   -3.1312 H   0  0  0  0  0  0  0  0  0  0  0  0
    5.4124   -1.1668   -3.9329 H   0  0  0  0  0  0  0  0  0  0  0  0
    2.5133   -0.6457   -1.6235 H   0  0  0  0  0  0  0  0  0  0  0  0
    0.5032   -1.1714    0.2801 H   0  0  0  0  0  0  0  0  0  0  0  0
    1.0558    1.5733   -0.9265 H   0  0  0  0  0  0  0  0  0  0  0  0
    0.2149    0.1553   -1.6121 H   0  0  0  0  0  0  0  0  0  0  0  0
   -0.7781    2.3809    0.2120 H   0  0  0  0  0  0  0  0  0  0  0  0
   -2.5290    4.2638   -3.6748 H   0  0  0  0  0  0  0  0  0  0  0  0
   -3.9083    3.2940   -3.0131 H   0  0  0  0  0  0  0  0  0  0  0  0
   -2.5828    2.4769   -3.9335 H   0  0  0  0  0  0  0  0  0  0  0  0
  1  2  1  0
  2  3  1  0
  3  4  1  0
  4  5  1  0
  3  6  1  0
  6  7  2  0
  6  8  1  0
  8  9  1  0
  9 10  1  0
 10 11  1  0
 11 12  1  0
 12 13  1  0
 13 14  2  0
 14 15  1  0
 15 16  1  0
 16 17  1  0
 15 18  2  0
 18 19  1  0
 19 20  1  0
 18 21  1  0
 21 22  2  0
 22 13  1  0
 22 23  1  0
 23 10  1  0
 23 24  1  0
 24 25  1  0
 25  8  1  0
 25 26  1  0
 26 27  1  0
 27 28  2  0
 27 29  1  0
  1 30  1  0
  1 31  1  0
  1 32  1  0
  2 33  1  0
  2 34  1  0
  4 35  1  0
  4 36  1  0
  5 37  1  0
  5 38  1  0
  5 39  1  0
  8 40  1  0
  9 41  1  0
  9 42  1  0
 11 43  1  0
 11 44  1  0
 12 45  1  0
 12 46  1  0
 14 47  1  0
 17 48  1  0
 17 49  1  0
 17 50  1  0
 20 51  1  0
 20 52  1  0
 20 53  1  0
 21 54  1  0
 23 55  1  0
 24 56  1  0
 24 57  1  0
 25 58  1  0
 29 59  1  0
 29 60  1  0
 29 61  1  0
M  END
> <ID>
HT0254

> <Class>
0.0

> <Clusters>
242

> <Fold>
1

$$$$