
     RDKit          3D

 39 41  0  0  0  0  0  0  0  0999 V2000
    4.7717   -0.8663    3.2599 Cl  0  0  0  0  0  0  0  0  0  0  0  0
    4.0668   -0.7519    1.6577 C   0  0  0  0  0  0  0  0  0  0  0  0
    3.8292    0.5006    1.0868 C   0  0  0  0  0  0  0  0  0  0  0  0
    3.2636    0.5939   -0.1870 C   0  0  0  0  0  0  0  0  0  0  0  0
    2.9386   -0.5666   -0.9103 C   0  0  0  0  0  0  0  0  0  0  0  0
    2.2693   -0.4319   -2.2538 C   0  0  0  0  0  0  0  0  0  0  0  0
    0.8599   -0.5001   -2.0968 O   0  0  0  0  0  0  0  0  0  0  0  0
    0.1796    0.5113   -1.4536 N   0  0  0  0  0  0  0  0  0  0  0  0
   -1.0884    0.4384   -1.1847 C   0  0  0  0  0  0  0  0  0  0  0  0
   -1.8735   -0.8239   -1.4405 C   0  0  0  0  0  0  0  0  0  0  0  0
   -1.8878   -1.6511   -0.2362 N   0  0  0  0  0  0  0  0  0  0  0  0
   -0.8424   -2.2725    0.3335 C   0  0  0  0  0  0  0  0  0  0  0  0
   -1.2983   -2.9189    1.4597 C   0  0  0  0  0  0  0  0  0  0  0  0
   -2.6234   -2.7051    1.5992 N   0  0  0  0  0  0  0  0  0  0  0  0
   -2.9490   -1.9268    0.5459 C   0  0  0  0  0  0  0  0  0  0  0  0
   -1.7065    1.5274   -0.4081 C   0  0  0  0  0  0  0  0  0  0  0  0
   -1.2407    1.7840    0.8916 C   0  0  0  0  0  0  0  0  0  0  0  0
   -1.8186    2.7954    1.6626 C   0  0  0  0  0  0  0  0  0  0  0  0
   -2.8620    3.5644    1.1406 C   0  0  0  0  0  0  0  0  0  0  0  0
   -3.5853    4.8349    2.1099 Cl  0  0  0  0  0  0  0  0  0  0  0  0
   -3.3238    3.3259   -0.1575 C   0  0  0  0  0  0  0  0  0  0  0  0
   -2.7511    2.3135   -0.9375 C   0  0  0  0  0  0  0  0  0  0  0  0
   -3.3252    2.0998   -2.5880 Cl  0  0  0  0  0  0  0  0  0  0  0  0
    3.1674   -1.8305   -0.3226 C   0  0  0  0  0  0  0  0  0  0  0  0
    2.7470   -3.3286   -1.1473 Cl  0  0  0  0  0  0  0  0  0  0  0  0
    3.7349   -1.9135    0.9549 C   0  0  0  0  0  0  0  0  0  0  0  0
    4.0765    1.4029    1.6314 H   0  0  0  0  0  0  0  0  0  0  0  0
    3.0720    1.5736   -0.6072 H   0  0  0  0  0  0  0  0  0  0  0  0
    2.5426    0.5299   -2.7402 H   0  0  0  0  0  0  0  0  0  0  0  0
    2.6002   -1.2418   -2.9360 H   0  0  0  0  0  0  0  0  0  0  0  0
   -2.9147   -0.5630   -1.7247 H   0  0  0  0  0  0  0  0  0  0  0  0
   -1.4474   -1.4034   -2.2868 H   0  0  0  0  0  0  0  0  0  0  0  0
    0.1735   -2.2510   -0.0346 H   0  0  0  0  0  0  0  0  0  0  0  0
   -0.7006   -3.5085    2.1417 H   0  0  0  0  0  0  0  0  0  0  0  0
   -3.9507   -1.5614    0.3595 H   0  0  0  0  0  0  0  0  0  0  0  0
   -0.4373    1.1907    1.3122 H   0  0  0  0  0  0  0  0  0  0  0  0
   -1.4555    2.9791    2.6657 H   0  0  0  0  0  0  0  0  0  0  0  0
   -4.1231    3.9332   -0.5636 H   0  0  0  0  0  0  0  0  0  0  0  0
    3.9125   -2.8824    1.4046 H   0  0  0  0  0  0  0  0  0  0  0  0
  1  2  1  0
  2  3  2  0
  3  4  1  0
  4  5  2  0
  5  6  1  0
  6  7  1  0
  7  8  1  0
  8  9  2  0
  9 10  1  0
 10 11  1  0
 11 12  1  0
 12 13  2  0
 13 14  1  0
 14 15  2  0
 15 11  1  0
  9 16  1  0
 16 17  2  0
 17 18  1  0
 18 19  2  0
 19 20  1  0
 19 21  1  0
 21 22  2  0
 22 16  1  0
 22 23  1  0
  5 24  1  0
 24 25  1  0
 24 26  2  0
 26  2  1  0
  3 27  1  0
  4 28  1  0
  6 29  1  0
  6 30  1  0
 10 31  1  0
 10 32  1  0
 12 33  1  0
 13 34  1  0
 15 35  1  0
 17 36  1  0
 18 37  1  0
 21 38  1  0
 26 39  1  0
M  END
> <ID>
HT1559

> <Class>
0.0

> <Clusters>
93

> <Fold>
1

$$$$