
     RDKit          3D

 70 74  0  0  0  0  0  0  0  0999 V2000
    0.4258    2.9183    0.2268 C   0  0  0  0  0  0  0  0  0  0  0  0
    0.2618    1.4179    0.5947 C   0  0  0  0  0  0  0  0  0  0  0  0
    0.1143    0.5450   -0.6893 C   0  0  0  0  0  0  0  0  0  0  0  0
   -1.2787    0.5881   -1.3178 C   0  0  0  0  0  0  0  0  0  0  0  0
   -2.3727    0.1818   -0.2991 C   0  0  0  0  0  0  0  0  0  0  0  0
   -2.3872    1.1305    0.9580 C   0  0  0  0  0  0  0  0  0  0  0  0
   -2.8270    2.5802    0.5762 C   0  0  0  0  0  0  0  0  0  0  0  0
   -3.4275    0.6148    2.0333 C   0  0  0  0  0  0  0  0  0  0  0  0
   -4.4338   -0.4205    1.5068 C   0  0  0  0  0  0  0  0  0  0  0  0
   -4.9359   -0.0348    0.1136 C   0  0  0  0  0  0  0  0  0  0  0  0
   -6.1097   -0.8429   -0.2283 N   0  0  0  0  0  0  0  0  0  0  0  0
   -6.0156   -2.0114   -1.0373 C   0  0  0  0  0  0  0  0  0  0  0  0
   -7.0219   -2.7490   -1.2054 O   0  0  0  0  0  0  0  0  0  0  0  0
   -4.7436   -2.3558   -1.6559 C   0  0  0  0  0  0  0  0  0  0  0  0
   -3.7076   -1.5237   -1.5789 C   0  0  0  0  0  0  0  0  0  0  0  0
   -3.7859   -0.1256   -0.9597 C   0  0  0  0  0  0  0  0  0  0  0  0
   -4.1262    0.8498   -2.1141 C   0  0  0  0  0  0  0  0  0  0  0  0
   -0.9272    1.1913    1.5869 C   0  0  0  0  0  0  0  0  0  0  0  0
   -0.5160   -0.0446    2.4186 C   0  0  0  0  0  0  0  0  0  0  0  0
    0.9807   -0.2484    2.2375 C   0  0  0  0  0  0  0  0  0  0  0  0
    1.4933    0.9443    1.4271 C   0  0  0  0  0  0  0  0  0  0  0  0
    2.7643    0.6430    0.6332 C   0  0  0  0  0  0  0  0  0  0  0  0
    3.1244    1.4404   -0.2740 O   0  0  0  0  0  0  0  0  0  0  0  0
    3.5877   -0.5028    0.9241 N   0  0  0  0  0  0  0  0  0  0  0  0
    4.6799   -0.8989    0.0805 C   0  0  0  0  0  0  0  0  0  0  0  0
    5.7177    0.0100   -0.1801 C   0  0  0  0  0  0  0  0  0  0  0  0
    6.8196   -0.3591   -0.9651 C   0  0  0  0  0  0  0  0  0  0  0  0
    6.8985   -1.6724   -1.4518 C   0  0  0  0  0  0  0  0  0  0  0  0
    5.8750   -2.5862   -1.1949 C   0  0  0  0  0  0  0  0  0  0  0  0
    4.7459   -2.2111   -0.4443 C   0  0  0  0  0  0  0  0  0  0  0  0
    3.6435   -3.2138   -0.1759 C   0  0  0  0  0  0  0  0  0  0  0  0
    3.7506   -4.3220   -0.9981 F   0  0  0  0  0  0  0  0  0  0  0  0
    2.4086   -2.6345   -0.4029 F   0  0  0  0  0  0  0  0  0  0  0  0
    3.7136   -3.6335    1.1395 F   0  0  0  0  0  0  0  0  0  0  0  0
    7.9339    0.6295   -1.1985 C   0  0  0  0  0  0  0  0  0  0  0  0
    8.6811    0.7554   -0.0429 F   0  0  0  0  0  0  0  0  0  0  0  0
    8.7654    0.2206   -2.2266 F   0  0  0  0  0  0  0  0  0  0  0  0
    7.4066    1.8638   -1.5318 F   0  0  0  0  0  0  0  0  0  0  0  0
   -0.2809    3.2377   -0.5575 H   0  0  0  0  0  0  0  0  0  0  0  0
    1.4304    3.1320   -0.1837 H   0  0  0  0  0  0  0  0  0  0  0  0
    0.2902    3.5687    1.1167 H   0  0  0  0  0  0  0  0  0  0  0  0
    0.8507    0.8682   -1.4565 H   0  0  0  0  0  0  0  0  0  0  0  0
    0.3446   -0.5188   -0.4618 H   0  0  0  0  0  0  0  0  0  0  0  0
   -1.4643    1.5851   -1.7609 H   0  0  0  0  0  0  0  0  0  0  0  0
   -1.2736   -0.1253   -2.1676 H   0  0  0  0  0  0  0  0  0  0  0  0
   -2.0283   -0.7982    0.1003 H   0  0  0  0  0  0  0  0  0  0  0  0
   -2.3933    2.9471   -0.3642 H   0  0  0  0  0  0  0  0  0  0  0  0
   -2.5597    3.2992    1.3782 H   0  0  0  0  0  0  0  0  0  0  0  0
   -3.9210    2.6680    0.4486 H   0  0  0  0  0  0  0  0  0  0  0  0
   -2.9542    0.1664    2.9254 H   0  0  0  0  0  0  0  0  0  0  0  0
   -4.0051    1.4646    2.4616 H   0  0  0  0  0  0  0  0  0  0  0  0
   -3.9616   -1.4275    1.4736 H   0  0  0  0  0  0  0  0  0  0  0  0
   -5.2905   -0.4773    2.2141 H   0  0  0  0  0  0  0  0  0  0  0  0
   -5.3001    1.0113    0.1774 H   0  0  0  0  0  0  0  0  0  0  0  0
   -7.0246   -0.6151    0.2237 H   0  0  0  0  0  0  0  0  0  0  0  0
   -4.6377   -3.3005   -2.1745 H   0  0  0  0  0  0  0  0  0  0  0  0
   -2.7935   -1.8313   -2.0700 H   0  0  0  0  0  0  0  0  0  0  0  0
   -4.0902    1.9061   -1.7831 H   0  0  0  0  0  0  0  0  0  0  0  0
   -5.1499    0.6491   -2.4991 H   0  0  0  0  0  0  0  0  0  0  0  0
   -3.4265    0.7296   -2.9683 H   0  0  0  0  0  0  0  0  0  0  0  0
   -0.9203    2.0299    2.3205 H   0  0  0  0  0  0  0  0  0  0  0  0
   -1.0499   -0.9642    2.0994 H   0  0  0  0  0  0  0  0  0  0  0  0
   -0.7340    0.1240    3.4970 H   0  0  0  0  0  0  0  0  0  0  0  0
    1.1316   -1.2031    1.6870 H   0  0  0  0  0  0  0  0  0  0  0  0
    1.4993   -0.3128    3.2199 H   0  0  0  0  0  0  0  0  0  0  0  0
    1.7531    1.7469    2.1553 H   0  0  0  0  0  0  0  0  0  0  0  0
    3.3807   -1.1066    1.7470 H   0  0  0  0  0  0  0  0  0  0  0  0
    5.6759    1.0032    0.2510 H   0  0  0  0  0  0  0  0  0  0  0  0
    7.7537   -1.9994   -2.0292 H   0  0  0  0  0  0  0  0  0  0  0  0
    5.9734   -3.5907   -1.5858 H   0  0  0  0  0  0  0  0  0  0  0  0
  1  2  1  0
  2  3  1  0
  3  4  1  0
  4  5  1  0
  5  6  1  0
  6  7  1  0
  6  8  1  0
  8  9  1  0
  9 10  1  0
 10 11  1  0
 11 12  1  0
 12 13  2  0
 12 14  1  0
 14 15  2  0
 15 16  1  0
 16  5  1  0
 16 10  1  0
 16 17  1  0
  6 18  1  0
 18  2  1  0
 18 19  1  0
 19 20  1  0
 20 21  1  0
 21  2  1  0
 21 22  1  0
 22 23  2  0
 22 24  1  0
 24 25  1  0
 25 26  2  0
 26 27  1  0
 27 28  2  0
 28 29  1  0
 29 30  2  0
 30 25  1  0
 30 31  1  0
 31 32  1  0
 31 33  1  0
 31 34  1  0
 27 35  1  0
 35 36  1  0
 35 37  1  0
 35 38  1  0
  1 39  1  0
  1 40  1  0
  1 41  1  0
  3 42  1  0
  3 43  1  0
  4 44  1  0
  4 45  1  0
  5 46  1  0
  7 47  1  0
  7 48  1  0
  7 49  1  0
  8 50  1  0
  8 51  1  0
  9 52  1  0
  9 53  1  0
 10 54  1  0
 11 55  1  0
 14 56  1  0
 15 57  1  0
 17 58  1  0
 17 59  1  0
 17 60  1  0
 18 61  1  0
 19 62  1  0
 19 63  1  0
 20 64  1  0
 20 65  1  0
 21 66  1  0
 24 67  1  0
 26 68  1  0
 28 69  1  0
 29 70  1  0
M  END
> <ID>
HT3920

> <Class>
0.0

> <Clusters>
90

> <Fold>
1

$$$$