
     RDKit          3D

 40 41  0  0  0  0  0  0  0  0999 V2000
    5.1339    0.1878    0.7565 C   0  0  0  0  0  0  0  0  0  0  0  0
    3.9820   -0.4195    0.0700 N   0  0  0  0  0  0  0  0  0  0  0  0
    4.0407   -1.8843    0.2230 C   0  0  0  0  0  0  0  0  0  0  0  0
    2.7181    0.1225    0.6159 C   0  0  0  0  0  0  0  0  0  0  0  0
    1.5926    0.0182   -0.4136 C   0  0  0  0  0  0  0  0  0  0  0  0
    0.4458    0.6729    0.0920 O   0  0  0  0  0  0  0  0  0  0  0  0
   -0.6677    0.4742   -0.7655 C   0  0  0  0  0  0  0  0  0  0  0  0
   -1.3310   -0.8523   -0.4587 C   0  0  0  0  0  0  0  0  0  0  0  0
   -1.7279   -1.1653    0.8542 C   0  0  0  0  0  0  0  0  0  0  0  0
   -2.3374   -2.3920    1.1337 C   0  0  0  0  0  0  0  0  0  0  0  0
   -2.5555   -3.3155    0.1082 C   0  0  0  0  0  0  0  0  0  0  0  0
   -2.1640   -3.0141   -1.1988 C   0  0  0  0  0  0  0  0  0  0  0  0
   -1.5539   -1.7885   -1.4834 C   0  0  0  0  0  0  0  0  0  0  0  0
   -1.6782    1.5889   -0.5866 C   0  0  0  0  0  0  0  0  0  0  0  0
   -1.7077    2.3829    0.5773 C   0  0  0  0  0  0  0  0  0  0  0  0
   -2.6677    3.3889    0.7229 C   0  0  0  0  0  0  0  0  0  0  0  0
   -3.6112    3.6107   -0.2841 C   0  0  0  0  0  0  0  0  0  0  0  0
   -4.9224    4.9842   -0.0801 Br  0  0  0  0  0  0  0  0  0  0  0  0
   -3.5975    2.8223   -1.4379 C   0  0  0  0  0  0  0  0  0  0  0  0
   -2.6398    1.8153   -1.5880 C   0  0  0  0  0  0  0  0  0  0  0  0
    6.0852   -0.2245    0.3554 H   0  0  0  0  0  0  0  0  0  0  0  0
    5.1544    1.2834    0.5713 H   0  0  0  0  0  0  0  0  0  0  0  0
    5.0912    0.0044    1.8536 H   0  0  0  0  0  0  0  0  0  0  0  0
    3.9870   -2.1833    1.2938 H   0  0  0  0  0  0  0  0  0  0  0  0
    3.2113   -2.3698   -0.3307 H   0  0  0  0  0  0  0  0  0  0  0  0
    4.9855   -2.2767   -0.2114 H   0  0  0  0  0  0  0  0  0  0  0  0
    2.8312    1.2033    0.8623 H   0  0  0  0  0  0  0  0  0  0  0  0
    2.4225   -0.3980    1.5555 H   0  0  0  0  0  0  0  0  0  0  0  0
    1.9284    0.5094   -1.3548 H   0  0  0  0  0  0  0  0  0  0  0  0
    1.3780   -1.0546   -0.6133 H   0  0  0  0  0  0  0  0  0  0  0  0
   -0.3491    0.5113   -1.8362 H   0  0  0  0  0  0  0  0  0  0  0  0
   -1.5632   -0.4605    1.6594 H   0  0  0  0  0  0  0  0  0  0  0  0
   -2.6403   -2.6268    2.1459 H   0  0  0  0  0  0  0  0  0  0  0  0
   -3.0274   -4.2648    0.3263 H   0  0  0  0  0  0  0  0  0  0  0  0
   -2.3334   -3.7305   -1.9921 H   0  0  0  0  0  0  0  0  0  0  0  0
   -1.2573   -1.5709   -2.5018 H   0  0  0  0  0  0  0  0  0  0  0  0
   -0.9979    2.2229    1.3785 H   0  0  0  0  0  0  0  0  0  0  0  0
   -2.6798    3.9929    1.6211 H   0  0  0  0  0  0  0  0  0  0  0  0
   -4.3299    2.9871   -2.2177 H   0  0  0  0  0  0  0  0  0  0  0  0
   -2.6480    1.2084   -2.4852 H   0  0  0  0  0  0  0  0  0  0  0  0
  1  2  1  0
  2  3  1  0
  2  4  1  0
  4  5  1  0
  5  6  1  0
  6  7  1  0
  7  8  1  0
  8  9  2  0
  9 10  1  0
 10 11  2  0
 11 12  1  0
 12 13  2  0
 13  8  1  0
  7 14  1  0
 14 15  2  0
 15 16  1  0
 16 17  2  0
 17 18  1  0
 17 19  1  0
 19 20  2  0
 20 14  1  0
  1 21  1  0
  1 22  1  0
  1 23  1  0
  3 24  1  0
  3 25  1  0
  3 26  1  0
  4 27  1  0
  4 28  1  0
  5 29  1  0
  5 30  1  0
  7 31  1  0
  9 32  1  0
 10 33  1  0
 11 34  1  0
 12 35  1  0
 13 36  1  0
 15 37  1  0
 16 38  1  0
 19 39  1  0
 20 40  1  0
M  END
> <ID>
HT0312

> <Class>
0.0

> <Clusters>
79

> <Fold>
1

$$$$