
     RDKit          3D

 38 41  0  0  0  0  0  0  0  0999 V2000
    5.4201   -0.6253   -0.1110 O   0  0  0  0  0  0  0  0  0  0  0  0
    4.0471   -0.5045    0.0909 C   0  0  0  0  0  0  0  0  0  0  0  0
    3.2620    0.1368   -0.8699 C   0  0  0  0  0  0  0  0  0  0  0  0
    1.8836    0.2659   -0.6808 C   0  0  0  0  0  0  0  0  0  0  0  0
    1.2678   -0.2312    0.4861 C   0  0  0  0  0  0  0  0  0  0  0  0
    2.0676   -0.8961    1.4376 C   0  0  0  0  0  0  0  0  0  0  0  0
    3.4462   -1.0232    1.2439 C   0  0  0  0  0  0  0  0  0  0  0  0
   -0.2456   -0.1271    0.6648 C   0  0  0  0  0  0  0  0  0  0  0  0
   -0.6168   -0.3549    2.0351 O   0  0  0  0  0  0  0  0  0  0  0  0
   -1.4079   -1.4901    2.1484 C   0  0  0  0  0  0  0  0  0  0  0  0
   -1.8768   -1.9226    3.2333 O   0  0  0  0  0  0  0  0  0  0  0  0
   -1.5904   -2.0824    0.8515 C   0  0  0  0  0  0  0  0  0  0  0  0
   -2.2759   -3.2324    0.4654 C   0  0  0  0  0  0  0  0  0  0  0  0
   -2.2577   -3.5847   -0.8938 C   0  0  0  0  0  0  0  0  0  0  0  0
   -1.5576   -2.7914   -1.8250 C   0  0  0  0  0  0  0  0  0  0  0  0
   -0.8718   -1.6390   -1.4042 C   0  0  0  0  0  0  0  0  0  0  0  0
   -0.9076   -1.2952   -0.0474 C   0  0  0  0  0  0  0  0  0  0  0  0
   -0.7848    1.2470    0.2627 C   0  0  0  0  0  0  0  0  0  0  0  0
   -1.9358    1.4083   -0.5397 C   0  0  0  0  0  0  0  0  0  0  0  0
   -2.4139    2.6848   -0.8500 C   0  0  0  0  0  0  0  0  0  0  0  0
   -1.7716    3.8198   -0.3505 C   0  0  0  0  0  0  0  0  0  0  0  0
   -2.2599    5.0845   -0.6710 O   0  0  0  0  0  0  0  0  0  0  0  0
   -0.6490    3.6750    0.4718 C   0  0  0  0  0  0  0  0  0  0  0  0
   -0.1675    2.4013    0.7851 C   0  0  0  0  0  0  0  0  0  0  0  0
    6.0163   -1.0863    0.5664 H   0  0  0  0  0  0  0  0  0  0  0  0
    3.7200    0.5321   -1.7677 H   0  0  0  0  0  0  0  0  0  0  0  0
    1.2964    0.7569   -1.4464 H   0  0  0  0  0  0  0  0  0  0  0  0
    1.6318   -1.3236    2.3309 H   0  0  0  0  0  0  0  0  0  0  0  0
    4.0458   -1.5308    1.9888 H   0  0  0  0  0  0  0  0  0  0  0  0
   -2.8033   -3.8388    1.1902 H   0  0  0  0  0  0  0  0  0  0  0  0
   -2.7808   -4.4716   -1.2270 H   0  0  0  0  0  0  0  0  0  0  0  0
   -1.5469   -3.0716   -2.8702 H   0  0  0  0  0  0  0  0  0  0  0  0
   -0.3362   -1.0290   -2.1188 H   0  0  0  0  0  0  0  0  0  0  0  0
   -2.4790    0.5577   -0.9259 H   0  0  0  0  0  0  0  0  0  0  0  0
   -3.2917    2.7916   -1.4748 H   0  0  0  0  0  0  0  0  0  0  0  0
   -1.8173    5.9269   -0.3226 H   0  0  0  0  0  0  0  0  0  0  0  0
   -0.1518    4.5484    0.8742 H   0  0  0  0  0  0  0  0  0  0  0  0
    0.6930    2.3146    1.4370 H   0  0  0  0  0  0  0  0  0  0  0  0
  1  2  1  0
  2  3  2  0
  3  4  1  0
  4  5  2  0
  5  6  1  0
  6  7  2  0
  7  2  1  0
  5  8  1  0
  8  9  1  0
  9 10  1  0
 10 11  2  0
 10 12  1  0
 12 13  2  0
 13 14  1  0
 14 15  2  0
 15 16  1  0
 16 17  2  0
 17  8  1  0
 17 12  1  0
  8 18  1  0
 18 19  2  0
 19 20  1  0
 20 21  2  0
 21 22  1  0
 21 23  1  0
 23 24  2  0
 24 18  1  0
  1 25  1  0
  3 26  1  0
  4 27  1  0
  6 28  1  0
  7 29  1  0
 13 30  1  0
 14 31  1  0
 15 32  1  0
 16 33  1  0
 19 34  1  0
 20 35  1  0
 22 36  1  0
 23 37  1  0
 24 38  1  0
M  END
> <ID>
HT1652

> <Class>
0.0

> <Clusters>
193

> <Fold>
1

$$$$