
     RDKit          3D

 91 96  0  0  0  0  0  0  0  0999 V2000
   -1.1769    2.6991   -1.5200 C   0  0  0  0  0  0  0  0  0  0  0  0
   -0.7194    2.2348   -0.1267 C   0  0  0  0  0  0  0  0  0  0  0  0
    0.7274    1.6612   -0.2227 C   0  0  0  0  0  0  0  0  0  0  0  0
    1.0588    0.6543    0.9207 C   0  0  0  0  0  0  0  0  0  0  0  0
    0.0628   -0.5608    0.9356 C   0  0  0  0  0  0  0  0  0  0  0  0
    0.6900   -1.8168    0.3260 C   0  0  0  0  0  0  0  0  0  0  0  0
    1.9185   -2.2695    1.1274 C   0  0  0  0  0  0  0  0  0  0  0  0
    2.7282   -1.1089    1.7801 C   0  0  0  0  0  0  0  0  0  0  0  0
    4.2008   -1.5371    2.0102 C   0  0  0  0  0  0  0  0  0  0  0  0
    5.1888   -1.1585    0.8738 C   0  0  0  0  0  0  0  0  0  0  0  0
    6.1051   -2.2095    0.7012 O   0  0  0  0  0  0  0  0  0  0  0  0
    4.4784   -0.8563   -0.4780 C   0  0  0  0  0  0  0  0  0  0  0  0
    3.3075    0.1626   -0.3667 C   0  0  0  0  0  0  0  0  0  0  0  0
    2.5964    0.2547    1.0279 C   0  0  0  0  0  0  0  0  0  0  0  0
    3.2890    1.3718    1.8674 C   0  0  0  0  0  0  0  0  0  0  0  0
    5.3963   -0.4219   -1.5669 N   0  0  0  0  0  0  0  0  0  0  0  0
    6.3277    0.6859   -1.2630 C   0  0  0  0  0  0  0  0  0  0  0  0
    7.7765    0.1847   -1.0804 C   0  0  0  0  0  0  0  0  0  0  0  0
    8.2714   -0.6772   -2.1028 O   0  0  0  0  0  0  0  0  0  0  0  0
    7.2879   -1.0793   -3.0392 C   0  0  0  0  0  0  0  0  0  0  0  0
    5.9923   -1.5248   -2.3494 C   0  0  0  0  0  0  0  0  0  0  0  0
   -1.2875   -0.2151    0.2453 C   0  0  0  0  0  0  0  0  0  0  0  0
   -2.4803   -1.0601    0.6930 C   0  0  0  0  0  0  0  0  0  0  0  0
   -3.7221   -0.1246    0.6671 C   0  0  0  0  0  0  0  0  0  0  0  0
   -3.1865    1.2904    0.2746 C   0  0  0  0  0  0  0  0  0  0  0  0
   -3.7662    2.2962    1.1154 O   0  0  0  0  0  0  0  0  0  0  0  0
   -4.3729    3.4704    0.6544 C   0  0  0  0  0  0  0  0  0  0  0  0
   -4.4810    3.7084   -0.5790 O   0  0  0  0  0  0  0  0  0  0  0  0
   -4.9525    4.4241    1.6412 C   0  0  0  0  0  0  0  0  0  0  0  0
   -1.6832    1.2151    0.5588 C   0  0  0  0  0  0  0  0  0  0  0  0
   -4.8696   -0.6727   -0.1569 N   0  0  0  0  0  0  0  0  0  0  0  0
   -5.3823   -1.9583    0.4391 C   0  0  0  0  0  0  0  0  0  0  0  0
   -5.7844   -1.8620    1.9002 C   0  0  0  0  0  0  0  0  0  0  0  0
   -5.1339   -2.5333    2.8559 C   0  0  0  0  0  0  0  0  0  0  0  0
   -4.4851   -0.9416   -1.5725 C   0  0  0  0  0  0  0  0  0  0  0  0
   -5.7069   -0.6957   -2.4569 C   0  0  0  0  0  0  0  0  0  0  0  0
   -6.7294   -0.0067   -1.5756 C   0  0  0  0  0  0  0  0  0  0  0  0
   -5.9953    0.2931   -0.2773 C   0  0  0  0  0  0  0  0  0  0  0  0
   -0.3897    3.3255   -1.9925 H   0  0  0  0  0  0  0  0  0  0  0  0
   -1.3758    1.8285   -2.1795 H   0  0  0  0  0  0  0  0  0  0  0  0
   -2.0882    3.3240   -1.4434 H   0  0  0  0  0  0  0  0  0  0  0  0
   -0.6828    3.1399    0.5204 H   0  0  0  0  0  0  0  0  0  0  0  0
    0.8324    1.1417   -1.1988 H   0  0  0  0  0  0  0  0  0  0  0  0
    1.4498    2.5060   -0.2174 H   0  0  0  0  0  0  0  0  0  0  0  0
    0.8119    1.2099    1.8560 H   0  0  0  0  0  0  0  0  0  0  0  0
   -0.1520   -0.7923    2.0049 H   0  0  0  0  0  0  0  0  0  0  0  0
   -0.0516   -2.6450    0.3197 H   0  0  0  0  0  0  0  0  0  0  0  0
    0.9701   -1.6279   -0.7308 H   0  0  0  0  0  0  0  0  0  0  0  0
    2.5520   -2.8949    0.4666 H   0  0  0  0  0  0  0  0  0  0  0  0
    1.5776   -2.9485    1.9412 H   0  0  0  0  0  0  0  0  0  0  0  0
    2.2800   -0.9656    2.7910 H   0  0  0  0  0  0  0  0  0  0  0  0
    4.2396   -2.6339    2.2010 H   0  0  0  0  0  0  0  0  0  0  0  0
    4.5630   -1.0692    2.9539 H   0  0  0  0  0  0  0  0  0  0  0  0
    5.7520   -0.2597    1.1992 H   0  0  0  0  0  0  0  0  0  0  0  0
    6.7339   -2.1795    1.4707 H   0  0  0  0  0  0  0  0  0  0  0  0
    4.0125   -1.8145   -0.7958 H   0  0  0  0  0  0  0  0  0  0  0  0
    3.6503    1.1762   -0.6681 H   0  0  0  0  0  0  0  0  0  0  0  0
    2.5879   -0.1326   -1.1528 H   0  0  0  0  0  0  0  0  0  0  0  0
    3.1193    2.3686    1.4110 H   0  0  0  0  0  0  0  0  0  0  0  0
    2.8847    1.3958    2.9028 H   0  0  0  0  0  0  0  0  0  0  0  0
    4.3817    1.2427    1.9459 H   0  0  0  0  0  0  0  0  0  0  0  0
    6.3074    1.3984   -2.1138 H   0  0  0  0  0  0  0  0  0  0  0  0
    6.0082    1.2738   -0.3778 H   0  0  0  0  0  0  0  0  0  0  0  0
    8.4447    1.0694   -1.0156 H   0  0  0  0  0  0  0  0  0  0  0  0
    7.8576   -0.3442   -0.1094 H   0  0  0  0  0  0  0  0  0  0  0  0
    7.6905   -1.9334   -3.6226 H   0  0  0  0  0  0  0  0  0  0  0  0
    7.0879   -0.2536   -3.7560 H   0  0  0  0  0  0  0  0  0  0  0  0
    6.2159   -2.4055   -1.7145 H   0  0  0  0  0  0  0  0  0  0  0  0
    5.2656   -1.8452   -3.1255 H   0  0  0  0  0  0  0  0  0  0  0  0
   -1.1837   -0.3207   -0.8588 H   0  0  0  0  0  0  0  0  0  0  0  0
   -2.5671   -1.9388    0.0224 H   0  0  0  0  0  0  0  0  0  0  0  0
   -2.3336   -1.4435    1.7282 H   0  0  0  0  0  0  0  0  0  0  0  0
   -4.0598   -0.0173    1.7234 H   0  0  0  0  0  0  0  0  0  0  0  0
   -3.3714    1.5051   -0.7924 H   0  0  0  0  0  0  0  0  0  0  0  0
   -5.9937    4.1209    1.8806 H   0  0  0  0  0  0  0  0  0  0  0  0
   -4.9559    5.4530    1.2257 H   0  0  0  0  0  0  0  0  0  0  0  0
   -4.3466    4.4167    2.5713 H   0  0  0  0  0  0  0  0  0  0  0  0
   -1.5684    1.3532    1.6609 H   0  0  0  0  0  0  0  0  0  0  0  0
   -6.2741   -2.3220   -0.1189 H   0  0  0  0  0  0  0  0  0  0  0  0
   -4.6312   -2.7720    0.3272 H   0  0  0  0  0  0  0  0  0  0  0  0
   -6.6399   -1.2606    2.1876 H   0  0  0  0  0  0  0  0  0  0  0  0
   -5.4562   -2.4539    3.8886 H   0  0  0  0  0  0  0  0  0  0  0  0
   -4.2772   -3.1601    2.6230 H   0  0  0  0  0  0  0  0  0  0  0  0
   -3.6626   -0.2845   -1.9229 H   0  0  0  0  0  0  0  0  0  0  0  0
   -4.1171   -1.9789   -1.7313 H   0  0  0  0  0  0  0  0  0  0  0  0
   -6.1130   -1.6593   -2.8359 H   0  0  0  0  0  0  0  0  0  0  0  0
   -5.4386   -0.0502   -3.3226 H   0  0  0  0  0  0  0  0  0  0  0  0
   -7.5860   -0.6890   -1.3775 H   0  0  0  0  0  0  0  0  0  0  0  0
   -7.1114    0.9255   -2.0496 H   0  0  0  0  0  0  0  0  0  0  0  0
   -5.6420    1.3351   -0.3575 H   0  0  0  0  0  0  0  0  0  0  0  0
   -6.6952    0.2702    0.5839 H   0  0  0  0  0  0  0  0  0  0  0  0
  1  2  1  0
  2  3  1  0
  3  4  1  0
  4  5  1  0
  5  6  1  0
  6  7  1  0
  7  8  1  0
  8  9  1  0
  9 10  1  0
 10 11  1  0
 10 12  1  0
 12 13  1  0
 13 14  1  0
 14  4  1  0
 14  8  1  0
 14 15  1  0
 12 16  1  0
 16 17  1  0
 17 18  1  0
 18 19  1  0
 19 20  1  0
 20 21  1  0
 21 16  1  0
  5 22  1  0
 22 23  1  0
 23 24  1  0
 24 25  1  0
 25 26  1  0
 26 27  1  0
 27 28  2  0
 27 29  1  0
 25 30  1  0
 30  2  1  0
 30 22  1  0
 24 31  1  0
 31 32  1  0
 32 33  1  0
 33 34  2  3
 31 35  1  0
 35 36  1  0
 36 37  1  0
 37 38  1  0
 38 31  1  0
  1 39  1  0
  1 40  1  0
  1 41  1  0
  2 42  1  0
  3 43  1  0
  3 44  1  0
  4 45  1  0
  5 46  1  0
  6 47  1  0
  6 48  1  0
  7 49  1  0
  7 50  1  0
  8 51  1  0
  9 52  1  0
  9 53  1  0
 10 54  1  0
 11 55  1  0
 12 56  1  0
 13 57  1  0
 13 58  1  0
 15 59  1  0
 15 60  1  0
 15 61  1  0
 17 62  1  0
 17 63  1  0
 18 64  1  0
 18 65  1  0
 20 66  1  0
 20 67  1  0
 21 68  1  0
 21 69  1  0
 22 70  1  0
 23 71  1  0
 23 72  1  0
 24 73  1  0
 25 74  1  0
 29 75  1  0
 29 76  1  0
 29 77  1  0
 30 78  1  0
 32 79  1  0
 32 80  1  0
 33 81  1  0
 34 82  1  0
 34 83  1  0
 35 84  1  0
 35 85  1  0
 36 86  1  0
 36 87  1  0
 37 88  1  0
 37 89  1  0
 38 90  1  0
 38 91  1  0
M  CHG  1  31   1
M  END
> <ID>
HT3907

> <Class>
0.0

> <Clusters>
239

> <Fold>
1

$$$$