
     RDKit          3D

 72 74  0  0  0  0  0  0  0  0999 V2000
    7.5085   -1.1046   -0.0508 C   0  0  0  0  0  0  0  0  0  0  0  0
    6.1769   -1.8517    0.0964 C   0  0  0  0  0  0  0  0  0  0  0  0
    6.0793   -3.0065   -0.9109 C   0  0  0  0  0  0  0  0  0  0  0  0
    4.9545   -0.9069    0.0302 C   0  0  0  0  0  0  0  0  0  0  0  0
    4.8767   -0.0440   -1.2478 C   0  0  0  0  0  0  0  0  0  0  0  0
    3.4900    0.5993   -1.4584 C   0  0  0  0  0  0  0  0  0  0  0  0
    3.1035    1.6792   -0.4025 C   0  0  1  0  0  0  0  0  0  0  0  0
    3.9032    2.9725   -0.6631 C   0  0  0  0  0  0  0  0  0  0  0  0
    1.5693    2.0165   -0.3232 C   0  0  1  0  0  0  0  0  0  0  0  0
    0.7844    2.0521   -1.6566 C   0  0  0  0  0  0  0  0  0  0  0  0
   -0.6725    1.6969   -1.3039 C   0  0  0  0  0  0  0  0  0  0  0  0
   -0.7049    1.6483    0.2277 C   0  0  1  0  0  0  0  0  0  0  0  0
   -1.7932    0.8986    0.9667 C   0  0  0  0  0  0  0  0  0  0  0  0
   -2.9311    0.5282    0.3362 C   0  0  0  0  0  0  0  0  0  0  0  0
   -4.1299   -0.0212    1.0206 C   0  0  0  0  0  0  0  0  0  0  0  0
   -5.2037   -0.5381    0.3791 C   0  0  0  0  0  0  0  0  0  0  0  0
   -5.2371   -0.6935   -1.1356 C   0  0  0  0  0  0  0  0  0  0  0  0
   -6.1631   -1.8277   -1.6245 C   0  0  1  0  0  0  0  0  0  0  0  0
   -5.5480   -3.0771   -1.4293 O   0  0  0  0  0  0  0  0  0  0  0  0
   -7.5192   -1.8029   -0.9066 C   0  0  0  0  0  0  0  0  0  0  0  0
   -7.3379   -1.9641    0.6035 C   0  0  0  0  0  0  0  0  0  0  0  0
   -6.4486   -0.8712    1.1366 C   0  0  0  0  0  0  0  0  0  0  0  0
   -6.8336   -0.1757    2.2186 C   0  0  0  0  0  0  0  0  0  0  0  0
   -1.6389    0.8517    2.4840 C   0  0  0  0  0  0  0  0  0  0  0  0
   -0.1746    0.7691    2.9995 C   0  0  0  0  0  0  0  0  0  0  0  0
    0.8787    1.4894    2.1287 C   0  0  0  0  0  0  0  0  0  0  0  0
    0.6893    1.1633    0.6289 C   0  0  2  0  0  0  0  0  0  0  0  0
    0.8689   -0.3639    0.3770 C   0  0  0  0  0  0  0  0  0  0  0  0
    8.3521   -1.7984    0.1498 H   0  0  0  0  0  0  0  0  0  0  0  0
    7.5643   -0.2703    0.6782 H   0  0  0  0  0  0  0  0  0  0  0  0
    7.6293   -0.7018   -1.0785 H   0  0  0  0  0  0  0  0  0  0  0  0
    6.1722   -2.3102    1.1111 H   0  0  0  0  0  0  0  0  0  0  0  0
    5.0962   -3.5165   -0.8191 H   0  0  0  0  0  0  0  0  0  0  0  0
    6.8744   -3.7538   -0.7041 H   0  0  0  0  0  0  0  0  0  0  0  0
    6.2081   -2.6515   -1.9544 H   0  0  0  0  0  0  0  0  0  0  0  0
    4.9920   -0.2390    0.9172 H   0  0  0  0  0  0  0  0  0  0  0  0
    4.0341   -1.5222    0.1210 H   0  0  0  0  0  0  0  0  0  0  0  0
    5.0758   -0.6785   -2.1356 H   0  0  0  0  0  0  0  0  0  0  0  0
    5.6660    0.7339   -1.2268 H   0  0  0  0  0  0  0  0  0  0  0  0
    2.7493   -0.2188   -1.4936 H   0  0  0  0  0  0  0  0  0  0  0  0
    3.4842    1.0626   -2.4691 H   0  0  0  0  0  0  0  0  0  0  0  0
    3.4035    1.3258    0.6045 H   0  0  0  0  0  0  0  0  0  0  0  0
    3.6368    3.4013   -1.6527 H   0  0  0  0  0  0  0  0  0  0  0  0
    3.6888    3.7278    0.1226 H   0  0  0  0  0  0  0  0  0  0  0  0
    4.9946    2.7853   -0.6331 H   0  0  0  0  0  0  0  0  0  0  0  0
    1.5000    3.0555    0.0806 H   0  0  0  0  0  0  0  0  0  0  0  0
    0.8425    3.0662   -2.1102 H   0  0  0  0  0  0  0  0  0  0  0  0
    1.1585    1.3175   -2.3971 H   0  0  0  0  0  0  0  0  0  0  0  0
   -1.3767    2.4631   -1.6957 H   0  0  0  0  0  0  0  0  0  0  0  0
   -0.9312    0.7063   -1.7381 H   0  0  0  0  0  0  0  0  0  0  0  0
   -0.8223    2.7096    0.5551 H   0  0  0  0  0  0  0  0  0  0  0  0
   -3.0085    0.7142   -0.7231 H   0  0  0  0  0  0  0  0  0  0  0  0
   -4.1639    0.0296    2.0976 H   0  0  0  0  0  0  0  0  0  0  0  0
   -5.5801    0.2682   -1.5746 H   0  0  0  0  0  0  0  0  0  0  0  0
   -4.2262   -0.9095   -1.5389 H   0  0  0  0  0  0  0  0  0  0  0  0
   -6.3584   -1.6742   -2.7132 H   0  0  0  0  0  0  0  0  0  0  0  0
   -4.9054   -3.2048   -2.1747 H   0  0  0  0  0  0  0  0  0  0  0  0
   -8.0378   -0.8414   -1.1191 H   0  0  0  0  0  0  0  0  0  0  0  0
   -8.1595   -2.6270   -1.2916 H   0  0  0  0  0  0  0  0  0  0  0  0
   -8.3386   -1.9554    1.0893 H   0  0  0  0  0  0  0  0  0  0  0  0
   -6.8701   -2.9480    0.8220 H   0  0  0  0  0  0  0  0  0  0  0  0
   -6.2656    0.6667    2.5888 H   0  0  0  0  0  0  0  0  0  0  0  0
   -7.7490   -0.4210    2.7429 H   0  0  0  0  0  0  0  0  0  0  0  0
   -2.1208    1.7596    2.9070 H   0  0  0  0  0  0  0  0  0  0  0  0
   -2.1577   -0.0368    2.9008 H   0  0  0  0  0  0  0  0  0  0  0  0
    0.1153   -0.2989    3.1033 H   0  0  0  0  0  0  0  0  0  0  0  0
   -0.1346    1.1905    4.0271 H   0  0  0  0  0  0  0  0  0  0  0  0
    0.7951    2.5855    2.3025 H   0  0  0  0  0  0  0  0  0  0  0  0
    1.8939    1.1807    2.4602 H   0  0  0  0  0  0  0  0  0  0  0  0
    1.8761   -0.6911    0.7014 H   0  0  0  0  0  0  0  0  0  0  0  0
    0.7261   -0.6269   -0.6887 H   0  0  0  0  0  0  0  0  0  0  0  0
    0.1303   -0.9701    0.9350 H   0  0  0  0  0  0  0  0  0  0  0  0
  1  2  1  0
  2  3  1  0
  2  4  1  0
  4  5  1  0
  5  6  1  0
  6  7  1  0
  7  8  1  0
  9  7  1  0
  9 10  1  0
 10 11  1  0
 12 11  1  0
 12 13  1  0
 13 14  2  3
 14 15  1  0
 15 16  2  3
 16 17  1  0
 17 18  1  0
 18 19  1  0
 18 20  1  0
 20 21  1  0
 21 22  1  0
 22 16  1  0
 22 23  2  3
 13 24  1  0
 24 25  1  0
 25 26  1  0
 26 27  1  0
 27  9  1  0
 27 12  1  0
 27 28  1  1
  1 29  1  0
  1 30  1  0
  1 31  1  0
  2 32  1  0
  3 33  1  0
  3 34  1  0
  3 35  1  0
  4 36  1  0
  4 37  1  0
  5 38  1  0
  5 39  1  0
  6 40  1  0
  6 41  1  0
  7 42  1  1
  8 43  1  0
  8 44  1  0
  8 45  1  0
  9 46  1  1
 10 47  1  0
 10 48  1  0
 11 49  1  0
 11 50  1  0
 12 51  1  1
 14 52  1  0
 15 53  1  0
 17 54  1  0
 17 55  1  0
 18 56  1  6
 19 57  1  0
 20 58  1  0
 20 59  1  0
 21 60  1  0
 21 61  1  0
 23 62  1  0
 23 63  1  0
 24 64  1  0
 24 65  1  0
 25 66  1  0
 25 67  1  0
 26 68  1  0
 26 69  1  0
 28 70  1  0
 28 71  1  0
 28 72  1  0
M  END
> <ID>
HT2190

> <Class>
0.0

> <Clusters>
41

> <Fold>
1

$$$$