
     RDKit          3D

 37 39  0  0  0  0  0  0  0  0999 V2000
   -0.8737   -2.9459   -1.4832 C   0  0  0  0  0  0  0  0  0  0  0  0
   -1.7111   -1.9862   -0.6362 C   0  0  0  0  0  0  0  0  0  0  0  0
   -1.2435   -0.5166   -0.7819 C   0  0  0  0  0  0  0  0  0  0  0  0
    0.1770   -0.3260   -0.2511 C   0  0  0  0  0  0  0  0  0  0  0  0
    0.4665   -0.4386    1.1275 C   0  0  0  0  0  0  0  0  0  0  0  0
   -0.5431   -0.7187    2.0431 O   0  0  0  0  0  0  0  0  0  0  0  0
    1.7070   -0.2737    1.5756 O   0  0  0  0  0  0  0  0  0  0  0  0
    2.7324    0.0032    0.7806 C   0  0  0  0  0  0  0  0  0  0  0  0
    4.0099    0.1621    1.3297 C   0  0  0  0  0  0  0  0  0  0  0  0
    5.0979    0.4546    0.5031 C   0  0  0  0  0  0  0  0  0  0  0  0
    4.9149    0.5898   -0.8755 C   0  0  0  0  0  0  0  0  0  0  0  0
    3.6430    0.4331   -1.4349 C   0  0  0  0  0  0  0  0  0  0  0  0
    2.5401    0.1382   -0.6107 C   0  0  0  0  0  0  0  0  0  0  0  0
    1.2441   -0.0293   -1.1259 C   0  0  0  0  0  0  0  0  0  0  0  0
    1.0396    0.0823   -2.3665 O   0  0  0  0  0  0  0  0  0  0  0  0
   -2.1812    0.5135   -0.1620 C   0  0  0  0  0  0  0  0  0  0  0  0
   -3.1980    0.1759    0.7582 C   0  0  0  0  0  0  0  0  0  0  0  0
   -4.0209    1.1677    1.3008 C   0  0  0  0  0  0  0  0  0  0  0  0
   -3.8437    2.5039    0.9378 C   0  0  0  0  0  0  0  0  0  0  0  0
   -2.8414    2.8531    0.0317 C   0  0  0  0  0  0  0  0  0  0  0  0
   -2.0154    1.8668   -0.5141 C   0  0  0  0  0  0  0  0  0  0  0  0
   -0.9028   -2.6465   -2.5524 H   0  0  0  0  0  0  0  0  0  0  0  0
   -1.2834   -3.9739   -1.3927 H   0  0  0  0  0  0  0  0  0  0  0  0
    0.1802   -2.9576   -1.1336 H   0  0  0  0  0  0  0  0  0  0  0  0
   -1.6640   -2.3196    0.4215 H   0  0  0  0  0  0  0  0  0  0  0  0
   -2.7668   -2.0684   -0.9762 H   0  0  0  0  0  0  0  0  0  0  0  0
   -1.2725   -0.3115   -1.8747 H   0  0  0  0  0  0  0  0  0  0  0  0
   -0.3392   -0.7968    3.0319 H   0  0  0  0  0  0  0  0  0  0  0  0
    4.1594    0.0589    2.3971 H   0  0  0  0  0  0  0  0  0  0  0  0
    6.0843    0.5768    0.9316 H   0  0  0  0  0  0  0  0  0  0  0  0
    5.7604    0.8165   -1.5121 H   0  0  0  0  0  0  0  0  0  0  0  0
    3.5260    0.5424   -2.5061 H   0  0  0  0  0  0  0  0  0  0  0  0
   -3.3592   -0.8451    1.0733 H   0  0  0  0  0  0  0  0  0  0  0  0
   -4.7961    0.8994    2.0069 H   0  0  0  0  0  0  0  0  0  0  0  0
   -4.4821    3.2690    1.3605 H   0  0  0  0  0  0  0  0  0  0  0  0
   -2.7031    3.8895   -0.2478 H   0  0  0  0  0  0  0  0  0  0  0  0
   -1.2413    2.1577   -1.2139 H   0  0  0  0  0  0  0  0  0  0  0  0
  1  2  1  0
  2  3  1  0
  3  4  1  0
  4  5  2  0
  5  6  1  0
  5  7  1  0
  7  8  1  0
  8  9  2  0
  9 10  1  0
 10 11  2  0
 11 12  1  0
 12 13  2  0
 13  8  1  0
 13 14  1  0
 14  4  1  0
 14 15  2  0
  3 16  1  0
 16 17  2  0
 17 18  1  0
 18 19  2  0
 19 20  1  0
 20 21  2  0
 21 16  1  0
  1 22  1  0
  1 23  1  0
  1 24  1  0
  2 25  1  0
  2 26  1  0
  3 27  1  0
  6 28  1  0
  9 29  1  0
 10 30  1  0
 11 31  1  0
 12 32  1  0
 17 33  1  0
 18 34  1  0
 19 35  1  0
 20 36  1  0
 21 37  1  0
M  END
> <ID>
HT1656

> <Class>
0.0

> <Clusters>
194

> <Fold>
1

$$$$