
     RDKit          3D

 20 20  0  0  0  0  0  0  0  0999 V2000
    3.7484    1.3653    0.5723 N   0  0  0  0  0  0  0  0  0  0  0  0
    3.8342    0.4938   -0.5569 C   0  0  0  0  0  0  0  0  0  0  0  0
    4.9471    0.3137   -1.1186 O   0  0  0  0  0  0  0  0  0  0  0  0
    2.6743   -0.1768   -1.0583 N   0  0  0  0  0  0  0  0  0  0  0  0
    1.4213    0.0050   -0.4524 N   0  0  0  0  0  0  0  0  0  0  0  0
    0.3579   -0.5925   -0.8901 C   0  0  0  0  0  0  0  0  0  0  0  0
   -0.9376   -0.3825   -0.2358 C   0  0  0  0  0  0  0  0  0  0  0  0
   -2.0509   -0.9571   -0.6295 O   0  0  0  0  0  0  0  0  0  0  0  0
   -3.0157   -0.5576    0.1655 C   0  0  0  0  0  0  0  0  0  0  0  0
   -2.5304    0.3131    1.1226 C   0  0  0  0  0  0  0  0  0  0  0  0
   -1.1806    0.4267    0.8618 C   0  0  0  0  0  0  0  0  0  0  0  0
   -4.3746   -0.9814    0.0363 N   0  0  0  0  0  0  0  0  0  0  0  0
   -5.2473   -0.5650    0.8253 O   0  0  0  0  0  0  0  0  0  0  0  0
   -4.7271   -1.8555   -0.9647 O   0  0  0  0  0  0  0  0  0  0  0  0
    4.6035    1.8481    0.9273 H   0  0  0  0  0  0  0  0  0  0  0  0
    2.8408    1.5346    1.0589 H   0  0  0  0  0  0  0  0  0  0  0  0
    2.7740   -0.8075   -1.8868 H   0  0  0  0  0  0  0  0  0  0  0  0
    0.4126   -1.2551   -1.7455 H   0  0  0  0  0  0  0  0  0  0  0  0
   -3.0861    0.8039    1.9107 H   0  0  0  0  0  0  0  0  0  0  0  0
   -0.4637    1.0269    1.4068 H   0  0  0  0  0  0  0  0  0  0  0  0
  1  2  1  0
  2  3  2  0
  2  4  1  0
  4  5  1  0
  5  6  2  3
  6  7  1  0
  7  8  1  0
  8  9  1  0
  9 10  2  0
 10 11  1  0
 11  7  2  0
  9 12  1  0
 12 13  2  0
 12 14  1  0
  1 15  1  0
  1 16  1  0
  4 17  1  0
  6 18  1  0
 10 19  1  0
 11 20  1  0
M  CHG  2  12   1  14  -1
M  END
> <ID>
HT1508

> <Class>
0.0

> <Clusters>
180

> <Fold>
1

$$$$