
     RDKit          3D

 75 79  0  0  0  0  0  0  0  0999 V2000
    0.3324   -2.5407    2.3867 C   0  0  0  0  0  0  0  0  0  0  0  0
    0.8414   -3.2716    1.1442 C   0  0  0  0  0  0  0  0  0  0  0  0
    0.0954   -2.9564   -0.1835 C   0  0  0  0  0  0  0  0  0  0  0  0
   -1.3645   -3.5024   -0.1964 C   0  0  0  0  0  0  0  0  0  0  0  0
   -2.3428   -2.4684   -0.5938 N   0  0  0  0  0  0  0  0  0  0  0  0
   -3.7135   -3.0321   -0.7437 C   0  0  0  0  0  0  0  0  0  0  0  0
   -4.7124   -2.5008    0.2850 C   0  0  0  0  0  0  0  0  0  0  0  0
   -4.6803   -1.0048    0.2643 C   0  0  0  0  0  0  0  0  0  0  0  0
   -5.8601   -0.2504    0.2784 C   0  0  0  0  0  0  0  0  0  0  0  0
   -5.8043    1.1543    0.3222 C   0  0  0  0  0  0  0  0  0  0  0  0
   -6.9637    1.9463    0.3333 O   0  0  0  0  0  0  0  0  0  0  0  0
   -8.2916    1.4338    0.3017 C   0  0  0  0  0  0  0  0  0  0  0  0
   -4.5584    1.7967    0.3696 C   0  0  0  0  0  0  0  0  0  0  0  0
   -4.5365    3.1993    0.4386 O   0  0  0  0  0  0  0  0  0  0  0  0
   -3.3519    3.9883    0.4850 C   0  0  0  0  0  0  0  0  0  0  0  0
   -3.3764    1.0304    0.3526 C   0  0  0  0  0  0  0  0  0  0  0  0
   -3.4310   -0.3734    0.2462 C   0  0  0  0  0  0  0  0  0  0  0  0
   -2.1936   -1.2664    0.2704 C   0  0  0  0  0  0  0  0  0  0  0  0
   -0.8907   -0.5370   -0.1309 C   0  0  0  0  0  0  0  0  0  0  0  0
    0.1881   -1.4871   -0.7136 C   0  0  0  0  0  0  0  0  0  0  0  0
    1.6157   -0.8916   -0.6075 C   0  0  0  0  0  0  0  0  0  0  0  0
    1.8139    0.5046   -1.2692 C   0  0  0  0  0  0  0  0  0  0  0  0
    1.5064    0.5415   -2.7136 N   0  0  0  0  0  0  0  0  0  0  0  0
    2.4980   -0.1733   -3.5213 C   0  0  0  0  0  0  0  0  0  0  0  0
    3.8571    0.5258   -3.4361 C   0  0  0  0  0  0  0  0  0  0  0  0
    4.1935    0.9849   -2.0389 C   0  0  0  0  0  0  0  0  0  0  0  0
    5.4881    1.4528   -1.7736 C   0  0  0  0  0  0  0  0  0  0  0  0
    5.8398    1.9113   -0.4907 C   0  0  0  0  0  0  0  0  0  0  0  0
    7.1311    2.3753   -0.1931 O   0  0  0  0  0  0  0  0  0  0  0  0
    8.2043    2.4324   -1.1274 C   0  0  0  0  0  0  0  0  0  0  0  0
    4.8815    1.9120    0.5321 C   0  0  0  0  0  0  0  0  0  0  0  0
    5.2621    2.3755    1.8016 O   0  0  0  0  0  0  0  0  0  0  0  0
    4.3971    2.4377    2.9313 C   0  0  0  0  0  0  0  0  0  0  0  0
    3.5782    1.4557    0.2645 C   0  0  0  0  0  0  0  0  0  0  0  0
    3.2258    0.9945   -1.0138 C   0  0  0  0  0  0  0  0  0  0  0  0
   -0.7040   -2.8461    2.6327 H   0  0  0  0  0  0  0  0  0  0  0  0
    0.3892   -1.4435    2.2623 H   0  0  0  0  0  0  0  0  0  0  0  0
    0.9729   -2.8125    3.2518 H   0  0  0  0  0  0  0  0  0  0  0  0
    0.7689   -4.3645    1.3372 H   0  0  0  0  0  0  0  0  0  0  0  0
    1.9253   -3.0606    1.0259 H   0  0  0  0  0  0  0  0  0  0  0  0
    0.6479   -3.5623   -0.9395 H   0  0  0  0  0  0  0  0  0  0  0  0
   -1.4108   -4.3428   -0.9254 H   0  0  0  0  0  0  0  0  0  0  0  0
   -1.6493   -3.9300    0.7904 H   0  0  0  0  0  0  0  0  0  0  0  0
   -3.7188   -4.1443   -0.6933 H   0  0  0  0  0  0  0  0  0  0  0  0
   -4.0823   -2.7684   -1.7584 H   0  0  0  0  0  0  0  0  0  0  0  0
   -5.7288   -2.8885    0.0548 H   0  0  0  0  0  0  0  0  0  0  0  0
   -4.4229   -2.8590    1.2965 H   0  0  0  0  0  0  0  0  0  0  0  0
   -6.8129   -0.7623    0.2720 H   0  0  0  0  0  0  0  0  0  0  0  0
   -8.4764    0.7974    1.1927 H   0  0  0  0  0  0  0  0  0  0  0  0
   -9.0071    2.2812    0.3161 H   0  0  0  0  0  0  0  0  0  0  0  0
   -8.4532    0.8481   -0.6278 H   0  0  0  0  0  0  0  0  0  0  0  0
   -2.7657    3.7435    1.3961 H   0  0  0  0  0  0  0  0  0  0  0  0
   -3.6321    5.0610    0.5208 H   0  0  0  0  0  0  0  0  0  0  0  0
   -2.7391    3.8114   -0.4242 H   0  0  0  0  0  0  0  0  0  0  0  0
   -2.4223    1.5286    0.4307 H   0  0  0  0  0  0  0  0  0  0  0  0
   -2.0949   -1.5842    1.3302 H   0  0  0  0  0  0  0  0  0  0  0  0
   -0.4987    0.0183    0.7477 H   0  0  0  0  0  0  0  0  0  0  0  0
   -1.1155    0.2118   -0.9219 H   0  0  0  0  0  0  0  0  0  0  0  0
   -0.0422   -1.5869   -1.7963 H   0  0  0  0  0  0  0  0  0  0  0  0
    2.3463   -1.6155   -1.0254 H   0  0  0  0  0  0  0  0  0  0  0  0
    1.8657   -0.7857    0.4691 H   0  0  0  0  0  0  0  0  0  0  0  0
    1.1270    1.2257   -0.7752 H   0  0  0  0  0  0  0  0  0  0  0  0
    0.5514    0.1702   -2.9110 H   0  0  0  0  0  0  0  0  0  0  0  0
    2.1682   -0.1779   -4.5831 H   0  0  0  0  0  0  0  0  0  0  0  0
    2.5839   -1.2345   -3.2067 H   0  0  0  0  0  0  0  0  0  0  0  0
    4.6388   -0.1777   -3.7964 H   0  0  0  0  0  0  0  0  0  0  0  0
    3.8559    1.4128   -4.1059 H   0  0  0  0  0  0  0  0  0  0  0  0
    6.2168    1.4536   -2.5735 H   0  0  0  0  0  0  0  0  0  0  0  0
    7.9402    3.1042   -1.9712 H   0  0  0  0  0  0  0  0  0  0  0  0
    9.1049    2.8352   -0.6204 H   0  0  0  0  0  0  0  0  0  0  0  0
    8.4360    1.4145   -1.5060 H   0  0  0  0  0  0  0  0  0  0  0  0
    4.9608    2.8402    3.7975 H   0  0  0  0  0  0  0  0  0  0  0  0
    4.0296    1.4216    3.1877 H   0  0  0  0  0  0  0  0  0  0  0  0
    3.5408    3.1127    2.7203 H   0  0  0  0  0  0  0  0  0  0  0  0
    2.8284    1.4582    1.0443 H   0  0  0  0  0  0  0  0  0  0  0  0
  1  2  1  0
  2  3  1  0
  3  4  1  0
  4  5  1  0
  5  6  1  0
  6  7  1  0
  7  8  1  0
  8  9  2  0
  9 10  1  0
 10 11  1  0
 11 12  1  0
 10 13  2  0
 13 14  1  0
 14 15  1  0
 13 16  1  0
 16 17  2  0
 17  8  1  0
 17 18  1  0
 18  5  1  0
 18 19  1  0
 19 20  1  0
 20  3  1  0
 20 21  1  0
 21 22  1  0
 22 23  1  0
 23 24  1  0
 24 25  1  0
 25 26  1  0
 26 27  2  0
 27 28  1  0
 28 29  1  0
 29 30  1  0
 28 31  2  0
 31 32  1  0
 32 33  1  0
 31 34  1  0
 34 35  2  0
 35 22  1  0
 35 26  1  0
  1 36  1  0
  1 37  1  0
  1 38  1  0
  2 39  1  0
  2 40  1  0
  3 41  1  0
  4 42  1  0
  4 43  1  0
  6 44  1  0
  6 45  1  0
  7 46  1  0
  7 47  1  0
  9 48  1  0
 12 49  1  0
 12 50  1  0
 12 51  1  0
 15 52  1  0
 15 53  1  0
 15 54  1  0
 16 55  1  0
 18 56  1  0
 19 57  1  0
 19 58  1  0
 20 59  1  0
 21 60  1  0
 21 61  1  0
 22 62  1  0
 23 63  1  0
 24 64  1  0
 24 65  1  0
 25 66  1  0
 25 67  1  0
 27 68  1  0
 30 69  1  0
 30 70  1  0
 30 71  1  0
 33 72  1  0
 33 73  1  0
 33 74  1  0
 34 75  1  0
M  END
> <ID>
HT2284

> <Class>
0.0

> <Clusters>
242

> <Fold>
1

$$$$