
     RDKit          3D

 39 39  0  0  0  0  0  0  0  0999 V2000
   -1.7077   -1.8630    2.1628 C   0  0  0  0  0  0  0  0  0  0  0  0
   -0.6926   -0.7553    1.8744 C   0  0  0  0  0  0  0  0  0  0  0  0
   -0.3735   -0.6285    0.3607 C   0  0  2  0  0  0  0  0  0  0  0  0
    0.7962    0.3553    0.0319 C   0  0  1  0  0  0  0  0  0  0  0  0
    0.5489    1.7992    0.5072 C   0  0  0  0  0  0  0  0  0  0  0  0
    2.1518   -0.1619    0.5754 C   0  0  0  0  0  0  0  0  0  0  0  0
    3.2810    0.5670   -0.0482 N   0  0  0  0  0  0  0  0  0  0  0  0
    3.7197   -0.0957   -1.2894 C   0  0  0  0  0  0  0  0  0  0  0  0
    4.4160    0.6612    0.8840 C   0  0  0  0  0  0  0  0  0  0  0  0
   -1.6086   -0.3269   -0.4840 C   0  0  0  0  0  0  0  0  0  0  0  0
   -1.8489   -1.0773   -1.6505 C   0  0  0  0  0  0  0  0  0  0  0  0
   -2.9733   -0.8242   -2.4404 C   0  0  0  0  0  0  0  0  0  0  0  0
   -3.8736    0.1788   -2.0781 C   0  0  0  0  0  0  0  0  0  0  0  0
   -3.6522    0.9347   -0.9209 C   0  0  0  0  0  0  0  0  0  0  0  0
   -4.5439    1.9379   -0.5480 O   0  0  0  0  0  0  0  0  0  0  0  0
   -2.5266    0.6830   -0.1288 C   0  0  0  0  0  0  0  0  0  0  0  0
   -1.3438   -2.8345    1.7658 H   0  0  0  0  0  0  0  0  0  0  0  0
   -1.8486   -1.9601    3.2599 H   0  0  0  0  0  0  0  0  0  0  0  0
   -2.6908   -1.6251    1.7053 H   0  0  0  0  0  0  0  0  0  0  0  0
   -1.0767    0.1985    2.2893 H   0  0  0  0  0  0  0  0  0  0  0  0
    0.2335   -1.0067    2.4313 H   0  0  0  0  0  0  0  0  0  0  0  0
   -0.0119   -1.6358    0.0520 H   0  0  0  0  0  0  0  0  0  0  0  0
    0.8732    0.3937   -1.0765 H   0  0  0  0  0  0  0  0  0  0  0  0
   -0.3377    2.2346    0.0061 H   0  0  0  0  0  0  0  0  0  0  0  0
    1.4129    2.4432    0.2387 H   0  0  0  0  0  0  0  0  0  0  0  0
    0.4167    1.8456    1.6076 H   0  0  0  0  0  0  0  0  0  0  0  0
    2.1545   -0.0185    1.6796 H   0  0  0  0  0  0  0  0  0  0  0  0
    2.2498   -1.2586    0.4054 H   0  0  0  0  0  0  0  0  0  0  0  0
    4.5075    0.5107   -1.7859 H   0  0  0  0  0  0  0  0  0  0  0  0
    4.1235   -1.1125   -1.0845 H   0  0  0  0  0  0  0  0  0  0  0  0
    2.8782   -0.1836   -2.0073 H   0  0  0  0  0  0  0  0  0  0  0  0
    5.2666    1.1939    0.4060 H   0  0  0  0  0  0  0  0  0  0  0  0
    4.1249    1.2532    1.7782 H   0  0  0  0  0  0  0  0  0  0  0  0
    4.7540   -0.3484    1.2089 H   0  0  0  0  0  0  0  0  0  0  0  0
   -1.1623   -1.8576   -1.9544 H   0  0  0  0  0  0  0  0  0  0  0  0
   -3.1462   -1.4069   -3.3361 H   0  0  0  0  0  0  0  0  0  0  0  0
   -4.7420    0.3677   -2.6963 H   0  0  0  0  0  0  0  0  0  0  0  0
   -5.3685    2.1453   -1.0993 H   0  0  0  0  0  0  0  0  0  0  0  0
   -2.3795    1.2771    0.7624 H   0  0  0  0  0  0  0  0  0  0  0  0
  1  2  1  0
  3  2  1  0
  3  4  1  0
  4  5  1  0
  4  6  1  0
  6  7  1  0
  7  8  1  0
  7  9  1  0
  3 10  1  0
 10 11  2  0
 11 12  1  0
 12 13  2  0
 13 14  1  0
 14 15  1  0
 14 16  2  0
 16 10  1  0
  1 17  1  0
  1 18  1  0
  1 19  1  0
  2 20  1  0
  2 21  1  0
  3 22  1  6
  4 23  1  6
  5 24  1  0
  5 25  1  0
  5 26  1  0
  6 27  1  0
  6 28  1  0
  8 29  1  0
  8 30  1  0
  8 31  1  0
  9 32  1  0
  9 33  1  0
  9 34  1  0
 11 35  1  0
 12 36  1  0
 13 37  1  0
 15 38  1  0
 16 39  1  0
M  END
> <ID>
HT1980

> <Class>
0.0

> <Clusters>
196

> <Fold>
1

$$$$