
     RDKit          3D

 63 64  0  0  0  0  0  0  0  0999 V2000
    9.8515    0.8068   -1.5229 C   0  0  0  0  0  0  0  0  0  0  0  0
    8.5948    0.8095   -2.7838 S   0  0  0  0  0  0  0  0  0  0  0  0
    8.6302    2.1203   -3.5182 O   0  0  0  0  0  0  0  0  0  0  0  0
    8.8454   -0.3045   -3.7624 O   0  0  0  0  0  0  0  0  0  0  0  0
    7.0367    0.6075   -2.0541 N   0  0  0  0  0  0  0  0  0  0  0  0
    6.6096   -0.6500   -1.5157 C   0  0  0  0  0  0  0  0  0  0  0  0
    7.3689   -1.6546   -1.5664 O   0  0  0  0  0  0  0  0  0  0  0  0
    5.2734   -0.7690   -0.8468 C   0  0  0  0  0  0  0  0  0  0  0  0
    5.4227   -0.6482    0.6754 C   0  0  0  0  0  0  0  0  0  0  0  0
    4.0697   -0.7434    1.3913 C   0  0  0  0  0  0  0  0  0  0  0  0
    3.2633    0.5193    1.2030 C   0  0  0  0  0  0  0  0  0  0  0  0
    2.1121    0.6257    0.5114 C   0  0  0  0  0  0  0  0  0  0  0  0
    1.4058   -0.4986   -0.2159 C   0  0  0  0  0  0  0  0  0  0  0  0
    0.2439   -1.1322    0.5852 C   0  0  2  0  0  0  0  0  0  0  0  0
   -0.8111   -0.1065    1.0639 C   0  0  1  0  0  0  0  0  0  0  0  0
   -2.2074   -0.6228    0.7850 C   0  0  0  0  0  0  0  0  0  0  0  0
   -3.0708    0.0507    0.0094 C   0  0  0  0  0  0  0  0  0  0  0  0
   -4.4464   -0.4959   -0.2872 C   0  0  1  0  0  0  0  0  0  0  0  0
   -5.2151   -0.5096    0.8861 O   0  0  0  0  0  0  0  0  0  0  0  0
   -5.1491    0.3657   -1.3401 C   0  0  0  0  0  0  0  0  0  0  0  0
   -6.4076   -0.2139   -1.6887 O   0  0  0  0  0  0  0  0  0  0  0  0
   -7.6649    0.3266   -1.3770 C   0  0  0  0  0  0  0  0  0  0  0  0
   -8.7654   -0.0635   -2.1519 C   0  0  0  0  0  0  0  0  0  0  0  0
  -10.0385    0.4480   -1.8840 C   0  0  0  0  0  0  0  0  0  0  0  0
  -10.2248    1.3462   -0.8301 C   0  0  0  0  0  0  0  0  0  0  0  0
   -9.1388    1.7283   -0.0390 C   0  0  0  0  0  0  0  0  0  0  0  0
   -7.8631    1.2204   -0.3054 C   0  0  0  0  0  0  0  0  0  0  0  0
   -0.6045    0.0657    2.5920 C   0  0  2  0  0  0  0  0  0  0  0  0
    0.1421    1.2274    2.8529 O   0  0  0  0  0  0  0  0  0  0  0  0
    0.1765   -1.1583    3.0785 C   0  0  0  0  0  0  0  0  0  0  0  0
    0.7023   -1.7830    1.8423 C   0  0  0  0  0  0  0  0  0  0  0  0
    1.3925   -2.7905    1.8568 O   0  0  0  0  0  0  0  0  0  0  0  0
    9.6761    1.6486   -0.8213 H   0  0  0  0  0  0  0  0  0  0  0  0
    9.8124   -0.1528   -0.9627 H   0  0  0  0  0  0  0  0  0  0  0  0
   10.8515    0.9196   -1.9917 H   0  0  0  0  0  0  0  0  0  0  0  0
    6.4082    1.4394   -1.9907 H   0  0  0  0  0  0  0  0  0  0  0  0
    4.8247   -1.7540   -1.1022 H   0  0  0  0  0  0  0  0  0  0  0  0
    4.5951    0.0235   -1.2300 H   0  0  0  0  0  0  0  0  0  0  0  0
    6.0715   -1.4758    1.0391 H   0  0  0  0  0  0  0  0  0  0  0  0
    5.9216    0.3122    0.9362 H   0  0  0  0  0  0  0  0  0  0  0  0
    3.5404   -1.6548    1.0585 H   0  0  0  0  0  0  0  0  0  0  0  0
    4.2502   -0.8653    2.4804 H   0  0  0  0  0  0  0  0  0  0  0  0
    3.6591    1.4227    1.6579 H   0  0  0  0  0  0  0  0  0  0  0  0
    1.6494    1.6071    0.4608 H   0  0  0  0  0  0  0  0  0  0  0  0
    2.1140   -1.2806   -0.5580 H   0  0  0  0  0  0  0  0  0  0  0  0
    0.9777   -0.0703   -1.1481 H   0  0  0  0  0  0  0  0  0  0  0  0
   -0.2230   -1.9102   -0.0620 H   0  0  0  0  0  0  0  0  0  0  0  0
   -0.6755    0.8720    0.5488 H   0  0  0  0  0  0  0  0  0  0  0  0
   -2.5036   -1.5743    1.2215 H   0  0  0  0  0  0  0  0  0  0  0  0
   -2.7662    0.9961   -0.4351 H   0  0  0  0  0  0  0  0  0  0  0  0
   -4.3459   -1.5266   -0.7006 H   0  0  0  0  0  0  0  0  0  0  0  0
   -4.9935   -1.3481    1.3718 H   0  0  0  0  0  0  0  0  0  0  0  0
   -5.2579    1.4113   -0.9819 H   0  0  0  0  0  0  0  0  0  0  0  0
   -4.5259    0.4058   -2.2592 H   0  0  0  0  0  0  0  0  0  0  0  0
   -8.6299   -0.7565   -2.9731 H   0  0  0  0  0  0  0  0  0  0  0  0
  -10.8795    0.1495   -2.4955 H   0  0  0  0  0  0  0  0  0  0  0  0
  -11.2109    1.7421   -0.6236 H   0  0  0  0  0  0  0  0  0  0  0  0
   -9.2856    2.4149    0.7850 H   0  0  0  0  0  0  0  0  0  0  0  0
   -7.0482    1.5104    0.3429 H   0  0  0  0  0  0  0  0  0  0  0  0
   -1.5748    0.1239    3.1414 H   0  0  0  0  0  0  0  0  0  0  0  0
   -0.4773    1.9958    2.7391 H   0  0  0  0  0  0  0  0  0  0  0  0
    1.0114   -0.8744    3.7567 H   0  0  0  0  0  0  0  0  0  0  0  0
   -0.4994   -1.8746    3.5944 H   0  0  0  0  0  0  0  0  0  0  0  0
  1  2  1  0
  2  3  2  0
  2  4  2  0
  2  5  1  0
  5  6  1  0
  6  7  2  0
  6  8  1  0
  8  9  1  0
  9 10  1  0
 10 11  1  0
 11 12  2  0
 12 13  1  0
 14 13  1  0
 14 15  1  0
 15 16  1  0
 16 17  2  0
 17 18  1  0
 18 19  1  0
 18 20  1  0
 20 21  1  0
 21 22  1  0
 22 23  2  0
 23 24  1  0
 24 25  2  0
 25 26  1  0
 26 27  2  0
 27 22  1  0
 15 28  1  0
 28 29  1  0
 28 30  1  0
 30 31  1  0
 31 14  1  0
 31 32  2  0
  1 33  1  0
  1 34  1  0
  1 35  1  0
  5 36  1  0
  8 37  1  0
  8 38  1  0
  9 39  1  0
  9 40  1  0
 10 41  1  0
 10 42  1  0
 11 43  1  0
 12 44  1  0
 13 45  1  0
 13 46  1  0
 14 47  1  6
 15 48  1  6
 16 49  1  0
 17 50  1  0
 18 51  1  6
 19 52  1  0
 20 53  1  0
 20 54  1  0
 23 55  1  0
 24 56  1  0
 25 57  1  0
 26 58  1  0
 27 59  1  0
 28 60  1  1
 29 61  1  0
 30 62  1  0
 30 63  1  0
M  END
> <ID>
HT1963

> <Class>
0.0

> <Clusters>
221

> <Fold>
1

$$$$