
     RDKit          3D

 48 51  0  0  0  0  0  0  0  0999 V2000
   -2.0380   -0.7345    1.7420 C   0  0  0  0  0  0  0  0  0  0  0  0
   -2.1342   -0.5370    0.1903 C   0  0  2  0  0  0  0  0  0  0  0  0
   -1.4750   -1.7500   -0.5191 C   0  0  0  0  0  0  0  0  0  0  0  0
    0.0479   -1.8018   -0.2498 C   0  0  0  0  0  0  0  0  0  0  0  0
    0.7728   -0.4636   -0.5807 C   0  0  1  0  0  0  0  0  0  0  0  0
    0.0696    0.7774    0.0529 C   0  0  1  0  0  0  0  0  0  0  0  0
    0.7368    2.1036   -0.4170 C   0  0  0  0  0  0  0  0  0  0  0  0
    2.1793    1.9326   -0.9384 C   0  0  0  0  0  0  0  0  0  0  0  0
    2.8963    0.7658   -0.2947 C   0  0  0  0  0  0  0  0  0  0  0  0
    2.2471   -0.4243   -0.1745 C   0  0  0  0  0  0  0  0  0  0  0  0
    2.9418   -1.6044    0.4880 C   0  0  0  0  0  0  0  0  0  0  0  0
    4.4391   -1.6045    0.1869 C   0  0  0  0  0  0  0  0  0  0  0  0
    5.0266   -0.2809    0.5697 C   0  0  0  0  0  0  0  0  0  0  0  0
    6.0998   -0.2344    1.1510 O   0  0  0  0  0  0  0  0  0  0  0  0
    4.2932    0.9940    0.2536 C   0  0  0  0  0  0  0  0  0  0  0  0
   -1.4311    0.7371   -0.3032 C   0  0  2  0  0  0  0  0  0  0  0  0
   -2.3236    1.8794    0.1675 C   0  0  0  0  0  0  0  0  0  0  0  0
   -3.7498    1.2971    0.1260 C   0  0  0  0  0  0  0  0  0  0  0  0
   -3.6168   -0.2228   -0.1830 C   0  0  2  0  0  0  0  0  0  0  0  0
   -4.5128   -0.9840    0.5932 O   0  0  0  0  0  0  0  0  0  0  0  0
   -3.9035   -0.4671   -1.6189 C   0  0  0  0  0  0  0  0  0  0  0  0
   -4.1393   -0.6628   -2.7852 C   0  0  0  0  0  0  0  0  0  0  0  0
   -2.5260    0.0929    2.2971 H   0  0  0  0  0  0  0  0  0  0  0  0
   -1.0013   -0.8064    2.1173 H   0  0  0  0  0  0  0  0  0  0  0  0
   -2.5438   -1.6784    2.0372 H   0  0  0  0  0  0  0  0  0  0  0  0
   -1.9464   -2.6955   -0.1737 H   0  0  0  0  0  0  0  0  0  0  0  0
   -1.6179   -1.6927   -1.6193 H   0  0  0  0  0  0  0  0  0  0  0  0
    0.2321   -2.0942    0.8043 H   0  0  0  0  0  0  0  0  0  0  0  0
    0.4714   -2.6074   -0.8879 H   0  0  0  0  0  0  0  0  0  0  0  0
    0.7340   -0.3532   -1.6885 H   0  0  0  0  0  0  0  0  0  0  0  0
    0.1969    0.7351    1.1552 H   0  0  0  0  0  0  0  0  0  0  0  0
    0.7432    2.8192    0.4345 H   0  0  0  0  0  0  0  0  0  0  0  0
    0.1436    2.5796   -1.2283 H   0  0  0  0  0  0  0  0  0  0  0  0
    2.7438    2.8782   -0.7863 H   0  0  0  0  0  0  0  0  0  0  0  0
    2.1436    1.7453   -2.0338 H   0  0  0  0  0  0  0  0  0  0  0  0
    2.7797   -1.5486    1.5864 H   0  0  0  0  0  0  0  0  0  0  0  0
    2.5340   -2.5686    0.1246 H   0  0  0  0  0  0  0  0  0  0  0  0
    4.9365   -2.4290    0.7429 H   0  0  0  0  0  0  0  0  0  0  0  0
    4.5973   -1.7677   -0.9012 H   0  0  0  0  0  0  0  0  0  0  0  0
    4.2081    1.5996    1.1810 H   0  0  0  0  0  0  0  0  0  0  0  0
    4.8901    1.5689   -0.4862 H   0  0  0  0  0  0  0  0  0  0  0  0
   -1.4805    0.7555   -1.4196 H   0  0  0  0  0  0  0  0  0  0  0  0
   -2.2349    2.7607   -0.5043 H   0  0  0  0  0  0  0  0  0  0  0  0
   -2.0546    2.1846    1.2024 H   0  0  0  0  0  0  0  0  0  0  0  0
   -4.2350    1.4530    1.1148 H   0  0  0  0  0  0  0  0  0  0  0  0
   -4.3657    1.8275   -0.6347 H   0  0  0  0  0  0  0  0  0  0  0  0
   -5.4290   -0.6385    0.4226 H   0  0  0  0  0  0  0  0  0  0  0  0
   -4.3454   -0.8346   -3.8087 H   0  0  0  0  0  0  0  0  0  0  0  0
  2  1  1  1
  2  3  1  0
  3  4  1  0
  5  4  1  0
  5  6  1  0
  6  7  1  0
  7  8  1  0
  8  9  1  0
  9 10  2  0
 10  5  1  0
 10 11  1  0
 11 12  1  0
 12 13  1  0
 13 14  2  0
 13 15  1  0
 15  9  1  0
  6 16  1  0
 16  2  1  0
 16 17  1  0
 17 18  1  0
 18 19  1  0
 19  2  1  0
 19 20  1  0
 19 21  1  6
 21 22  3  0
  1 23  1  0
  1 24  1  0
  1 25  1  0
  3 26  1  0
  3 27  1  0
  4 28  1  0
  4 29  1  0
  5 30  1  6
  6 31  1  1
  7 32  1  0
  7 33  1  0
  8 34  1  0
  8 35  1  0
 11 36  1  0
 11 37  1  0
 12 38  1  0
 12 39  1  0
 15 40  1  0
 15 41  1  0
 16 42  1  6
 17 43  1  0
 17 44  1  0
 18 45  1  0
 18 46  1  0
 20 47  1  0
 22 48  1  0
M  END
> <ID>
HT1524

> <Class>
0.0

> <Clusters>
183

> <Fold>
1

$$$$