
     RDKit          3D

 43 44  0  0  0  0  0  0  0  0999 V2000
   -1.8038    3.1733   -0.0977 C   0  0  0  0  0  0  0  0  0  0  0  0
   -2.5208    1.9218    0.4120 C   0  0  0  0  0  0  0  0  0  0  0  0
   -1.9972    0.6251   -0.2705 C   0  0  0  0  0  0  0  0  0  0  0  0
   -0.5229    0.3768    0.0620 C   0  0  0  0  0  0  0  0  0  0  0  0
   -0.0483    0.3708    1.3887 C   0  0  0  0  0  0  0  0  0  0  0  0
    1.3019    0.1440    1.6645 C   0  0  0  0  0  0  0  0  0  0  0  0
    2.2100   -0.0770    0.6213 C   0  0  0  0  0  0  0  0  0  0  0  0
    3.5683   -0.3070    0.8917 C   0  0  0  0  0  0  0  0  0  0  0  0
    4.4761   -0.5268   -0.1627 C   0  0  0  0  0  0  0  0  0  0  0  0
    5.8418   -0.7612    0.0570 O   0  0  0  0  0  0  0  0  0  0  0  0
    6.4550   -0.8034    1.3414 C   0  0  0  0  0  0  0  0  0  0  0  0
    4.0105   -0.5131   -1.4823 C   0  0  0  0  0  0  0  0  0  0  0  0
    2.6606   -0.2845   -1.7604 C   0  0  0  0  0  0  0  0  0  0  0  0
    1.7522   -0.0652   -0.7152 C   0  0  0  0  0  0  0  0  0  0  0  0
    0.3951    0.1646   -0.9849 C   0  0  0  0  0  0  0  0  0  0  0  0
   -2.9219   -0.6393   -0.0367 C   0  0  0  0  0  0  0  0  0  0  0  0
   -2.2815   -1.8909   -0.6804 C   0  0  0  0  0  0  0  0  0  0  0  0
   -3.1452   -0.9253    1.4667 C   0  0  0  0  0  0  0  0  0  0  0  0
   -4.2856   -0.4627   -0.6978 C   0  0  0  0  0  0  0  0  0  0  0  0
   -4.5078    0.4832   -1.5025 O   0  0  0  0  0  0  0  0  0  0  0  0
   -5.2966   -1.3904   -0.4547 O   0  0  0  0  0  0  0  0  0  0  0  0
   -0.7220    3.1335    0.1491 H   0  0  0  0  0  0  0  0  0  0  0  0
   -1.9263    3.2685   -1.1975 H   0  0  0  0  0  0  0  0  0  0  0  0
   -2.2396    4.0732    0.3853 H   0  0  0  0  0  0  0  0  0  0  0  0
   -3.6042    2.0532    0.2148 H   0  0  0  0  0  0  0  0  0  0  0  0
   -2.4055    1.8736    1.5137 H   0  0  0  0  0  0  0  0  0  0  0  0
   -2.0453    0.8272   -1.3650 H   0  0  0  0  0  0  0  0  0  0  0  0
   -0.7129    0.5530    2.2206 H   0  0  0  0  0  0  0  0  0  0  0  0
    1.6363    0.1450    2.6952 H   0  0  0  0  0  0  0  0  0  0  0  0
    3.9112   -0.3138    1.9184 H   0  0  0  0  0  0  0  0  0  0  0  0
    6.3312    0.1728    1.8560 H   0  0  0  0  0  0  0  0  0  0  0  0
    6.0085   -1.6170    1.9513 H   0  0  0  0  0  0  0  0  0  0  0  0
    7.5388   -1.0053    1.2191 H   0  0  0  0  0  0  0  0  0  0  0  0
    4.7013   -0.6812   -2.2989 H   0  0  0  0  0  0  0  0  0  0  0  0
    2.3279   -0.2795   -2.7916 H   0  0  0  0  0  0  0  0  0  0  0  0
    0.0499    0.1683   -2.0125 H   0  0  0  0  0  0  0  0  0  0  0  0
   -1.3280   -2.1599   -0.1779 H   0  0  0  0  0  0  0  0  0  0  0  0
   -2.0739   -1.7116   -1.7576 H   0  0  0  0  0  0  0  0  0  0  0  0
   -2.9559   -2.7712   -0.5988 H   0  0  0  0  0  0  0  0  0  0  0  0
   -3.6303   -0.0662    1.9744 H   0  0  0  0  0  0  0  0  0  0  0  0
   -2.1933   -1.1656    1.9788 H   0  0  0  0  0  0  0  0  0  0  0  0
   -3.8048   -1.8090    1.6058 H   0  0  0  0  0  0  0  0  0  0  0  0
   -6.2031   -1.3008   -0.8979 H   0  0  0  0  0  0  0  0  0  0  0  0
  1  2  1  0
  2  3  1  0
  3  4  1  0
  4  5  2  0
  5  6  1  0
  6  7  2  0
  7  8  1  0
  8  9  2  0
  9 10  1  0
 10 11  1  0
  9 12  1  0
 12 13  2  0
 13 14  1  0
 14  7  1  0
 14 15  2  0
 15  4  1  0
  3 16  1  0
 16 17  1  0
 16 18  1  0
 16 19  1  0
 19 20  2  0
 19 21  1  0
  1 22  1  0
  1 23  1  0
  1 24  1  0
  2 25  1  0
  2 26  1  0
  3 27  1  0
  5 28  1  0
  6 29  1  0
  8 30  1  0
 11 31  1  0
 11 32  1  0
 11 33  1  0
 12 34  1  0
 13 35  1  0
 15 36  1  0
 17 37  1  0
 17 38  1  0
 17 39  1  0
 18 40  1  0
 18 41  1  0
 18 42  1  0
 21 43  1  0
M  END
> <ID>
HT3278

> <Class>
0.0

> <Clusters>
176

> <Fold>
1

$$$$