
     RDKit          3D

 34 36  0  0  0  0  0  0  0  0999 V2000
   -0.9880   -2.7705    0.5748 C   0  0  0  0  0  0  0  0  0  0  0  0
   -0.9230   -1.9686   -0.7214 C   0  0  0  0  0  0  0  0  0  0  0  0
   -1.4393   -0.5711   -0.5284 C   0  0  0  0  0  0  0  0  0  0  0  0
   -2.5528   -0.1399   -1.0947 O   0  0  0  0  0  0  0  0  0  0  0  0
   -2.7572    1.0912   -0.6936 C   0  0  0  0  0  0  0  0  0  0  0  0
   -3.8127    1.9317   -1.0399 C   0  0  0  0  0  0  0  0  0  0  0  0
   -3.8315    3.2256   -0.4875 C   0  0  0  0  0  0  0  0  0  0  0  0
   -2.8045    3.6451    0.3872 C   0  0  0  0  0  0  0  0  0  0  0  0
   -1.7503    2.7741    0.7183 C   0  0  0  0  0  0  0  0  0  0  0  0
   -1.7630    1.4955    0.1588 C   0  0  0  0  0  0  0  0  0  0  0  0
   -0.8840    0.4381    0.2696 C   0  0  0  0  0  0  0  0  0  0  0  0
    0.3381    0.3907    1.0958 C   0  0  0  0  0  0  0  0  0  0  0  0
    0.2884    0.8263    2.2776 O   0  0  0  0  0  0  0  0  0  0  0  0
    1.6155   -0.1389    0.5699 C   0  0  0  0  0  0  0  0  0  0  0  0
    2.5298   -0.7602    1.4346 C   0  0  0  0  0  0  0  0  0  0  0  0
    3.7447   -1.2587    0.9509 C   0  0  0  0  0  0  0  0  0  0  0  0
    4.9314   -2.1099    2.1918 Br  0  0  0  0  0  0  0  0  0  0  0  0
    4.0634   -1.1278   -0.4154 C   0  0  0  0  0  0  0  0  0  0  0  0
    5.2642   -1.6152   -0.9348 O   0  0  0  0  0  0  0  0  0  0  0  0
    3.1579   -0.4925   -1.2777 C   0  0  0  0  0  0  0  0  0  0  0  0
    3.5609   -0.2907   -3.1376 Br  0  0  0  0  0  0  0  0  0  0  0  0
    1.9467    0.0036   -0.7870 C   0  0  0  0  0  0  0  0  0  0  0  0
   -0.6586   -3.8131    0.3816 H   0  0  0  0  0  0  0  0  0  0  0  0
   -0.3206   -2.3305    1.3444 H   0  0  0  0  0  0  0  0  0  0  0  0
   -2.0291   -2.7926    0.9619 H   0  0  0  0  0  0  0  0  0  0  0  0
    0.1168   -1.9491   -1.1034 H   0  0  0  0  0  0  0  0  0  0  0  0
   -1.5485   -2.4808   -1.4837 H   0  0  0  0  0  0  0  0  0  0  0  0
   -4.5928    1.6003   -1.7126 H   0  0  0  0  0  0  0  0  0  0  0  0
   -4.6371    3.9042   -0.7359 H   0  0  0  0  0  0  0  0  0  0  0  0
   -2.8272    4.6438    0.8034 H   0  0  0  0  0  0  0  0  0  0  0  0
   -0.9566    3.0926    1.3811 H   0  0  0  0  0  0  0  0  0  0  0  0
    2.2933   -0.8717    2.4858 H   0  0  0  0  0  0  0  0  0  0  0  0
    5.9594   -2.0826   -0.3676 H   0  0  0  0  0  0  0  0  0  0  0  0
    1.2661    0.5015   -1.4665 H   0  0  0  0  0  0  0  0  0  0  0  0
  1  2  1  0
  2  3  1  0
  3  4  1  0
  4  5  1  0
  5  6  2  0
  6  7  1  0
  7  8  2  0
  8  9  1  0
  9 10  2  0
 10  5  1  0
 10 11  1  0
 11  3  2  0
 11 12  1  0
 12 13  2  0
 12 14  1  0
 14 15  2  0
 15 16  1  0
 16 17  1  0
 16 18  2  0
 18 19  1  0
 18 20  1  0
 20 21  1  0
 20 22  2  0
 22 14  1  0
  1 23  1  0
  1 24  1  0
  1 25  1  0
  2 26  1  0
  2 27  1  0
  6 28  1  0
  7 29  1  0
  8 30  1  0
  9 31  1  0
 15 32  1  0
 19 33  1  0
 22 34  1  0
M  END
> <ID>
HT0245

> <Class>
0.0

> <Clusters>
194

> <Fold>
1

$$$$