
     RDKit          3D

 44 45  0  0  0  0  0  0  0  0999 V2000
   -2.0752   -2.4868    1.2394 C   0  0  0  0  0  0  0  0  0  0  0  0
   -1.5989   -1.9159   -0.1066 C   0  0  0  0  0  0  0  0  0  0  0  0
   -2.7482   -1.2634   -0.9499 C   0  0  0  0  0  0  0  0  0  0  0  0
   -2.3027   -0.9780   -2.2524 O   0  0  0  0  0  0  0  0  0  0  0  0
   -3.4006   -0.0366   -0.3318 C   0  0  0  0  0  0  0  0  0  0  0  0
   -4.3435   -0.1898    0.7028 C   0  0  0  0  0  0  0  0  0  0  0  0
   -4.9778    0.9246    1.2592 C   0  0  0  0  0  0  0  0  0  0  0  0
   -4.6983    2.2039    0.7757 C   0  0  0  0  0  0  0  0  0  0  0  0
   -3.7933    2.3699   -0.2740 C   0  0  0  0  0  0  0  0  0  0  0  0
   -3.1573    1.2585   -0.8350 C   0  0  0  0  0  0  0  0  0  0  0  0
   -0.3595   -1.1054    0.0672 N   0  0  0  0  0  0  0  0  0  0  0  0
   -0.5094    0.1817    0.7749 C   0  0  0  0  0  0  0  0  0  0  0  0
    0.4408   -0.9658   -1.1670 C   0  0  0  0  0  0  0  0  0  0  0  0
    1.8868   -0.7541   -0.8181 C   0  0  0  0  0  0  0  0  0  0  0  0
    2.5461    0.3507   -1.1904 C   0  0  0  0  0  0  0  0  0  0  0  0
    3.9712    0.6086   -0.8696 C   0  0  0  0  0  0  0  0  0  0  0  0
    4.6370   -0.0308    0.1970 C   0  0  0  0  0  0  0  0  0  0  0  0
    5.9790    0.2569    0.4660 C   0  0  0  0  0  0  0  0  0  0  0  0
    6.6680    1.1870   -0.3150 C   0  0  0  0  0  0  0  0  0  0  0  0
    6.0147    1.8375   -1.3634 C   0  0  0  0  0  0  0  0  0  0  0  0
    4.6730    1.5548   -1.6368 C   0  0  0  0  0  0  0  0  0  0  0  0
   -2.4177   -1.7008    1.9387 H   0  0  0  0  0  0  0  0  0  0  0  0
   -2.9116   -3.1998    1.0771 H   0  0  0  0  0  0  0  0  0  0  0  0
   -1.2427   -3.0390    1.7253 H   0  0  0  0  0  0  0  0  0  0  0  0
   -1.3150   -2.8329   -0.6719 H   0  0  0  0  0  0  0  0  0  0  0  0
   -3.5585   -2.0262   -1.0409 H   0  0  0  0  0  0  0  0  0  0  0  0
   -2.1900   -1.8461   -2.7214 H   0  0  0  0  0  0  0  0  0  0  0  0
   -4.6006   -1.1742    1.0717 H   0  0  0  0  0  0  0  0  0  0  0  0
   -5.6939    0.7948    2.0603 H   0  0  0  0  0  0  0  0  0  0  0  0
   -5.1913    3.0655    1.2070 H   0  0  0  0  0  0  0  0  0  0  0  0
   -3.5860    3.3611   -0.6562 H   0  0  0  0  0  0  0  0  0  0  0  0
   -2.4617    1.4173   -1.6490 H   0  0  0  0  0  0  0  0  0  0  0  0
   -0.6855    1.0204    0.0714 H   0  0  0  0  0  0  0  0  0  0  0  0
    0.4277    0.4008    1.3280 H   0  0  0  0  0  0  0  0  0  0  0  0
   -1.3240    0.1619    1.5233 H   0  0  0  0  0  0  0  0  0  0  0  0
    0.3935   -1.8935   -1.7771 H   0  0  0  0  0  0  0  0  0  0  0  0
    0.0500   -0.1374   -1.7992 H   0  0  0  0  0  0  0  0  0  0  0  0
    2.3818   -1.5403   -0.2653 H   0  0  0  0  0  0  0  0  0  0  0  0
    2.0265    1.0893   -1.7904 H   0  0  0  0  0  0  0  0  0  0  0  0
    4.1262   -0.7328    0.8410 H   0  0  0  0  0  0  0  0  0  0  0  0
    6.4834   -0.2371    1.2865 H   0  0  0  0  0  0  0  0  0  0  0  0
    7.7062    1.4084   -0.1036 H   0  0  0  0  0  0  0  0  0  0  0  0
    6.5476    2.5628   -1.9647 H   0  0  0  0  0  0  0  0  0  0  0  0
    4.1838    2.0702   -2.4546 H   0  0  0  0  0  0  0  0  0  0  0  0
  1  2  1  0
  2  3  1  0
  3  4  1  0
  3  5  1  0
  5  6  2  0
  6  7  1  0
  7  8  2  0
  8  9  1  0
  9 10  2  0
 10  5  1  0
  2 11  1  0
 11 12  1  0
 11 13  1  0
 13 14  1  0
 14 15  2  3
 15 16  1  0
 16 17  2  0
 17 18  1  0
 18 19  2  0
 19 20  1  0
 20 21  2  0
 21 16  1  0
  1 22  1  0
  1 23  1  0
  1 24  1  0
  2 25  1  0
  3 26  1  0
  4 27  1  0
  6 28  1  0
  7 29  1  0
  8 30  1  0
  9 31  1  0
 10 32  1  0
 12 33  1  0
 12 34  1  0
 12 35  1  0
 13 36  1  0
 13 37  1  0
 14 38  1  0
 15 39  1  0
 17 40  1  0
 18 41  1  0
 19 42  1  0
 20 43  1  0
 21 44  1  0
M  END
> <ID>
HT3245

> <Class>
0.0

> <Clusters>
79

> <Fold>
1

$$$$