
     RDKit          3D

 31 32  0  0  0  0  0  0  0  0999 V2000
   -5.2239    0.9713   -1.5666 C   0  0  0  0  0  0  0  0  0  0  0  0
   -4.6244   -0.2947   -1.3111 O   0  0  0  0  0  0  0  0  0  0  0  0
   -3.2835   -0.4773   -0.9408 C   0  0  0  0  0  0  0  0  0  0  0  0
   -2.8293   -1.7826   -0.7209 C   0  0  0  0  0  0  0  0  0  0  0  0
   -1.5041   -2.0243   -0.3505 C   0  0  0  0  0  0  0  0  0  0  0  0
   -0.6092   -0.9565   -0.1937 C   0  0  0  0  0  0  0  0  0  0  0  0
    0.7237   -1.1900    0.1782 C   0  0  0  0  0  0  0  0  0  0  0  0
    1.6203   -0.1185    0.3370 C   0  0  0  0  0  0  0  0  0  0  0  0
    1.1639    1.1941    0.1128 C   0  0  0  0  0  0  0  0  0  0  0  0
   -0.1611    1.4343   -0.2578 C   0  0  0  0  0  0  0  0  0  0  0  0
   -1.0562    0.3669   -0.4130 C   0  0  0  0  0  0  0  0  0  0  0  0
   -2.3896    0.6001   -0.7853 C   0  0  0  0  0  0  0  0  0  0  0  0
    3.0618   -0.3867    0.7405 C   0  0  2  0  0  0  0  0  0  0  0  0
    3.4073    0.3308    2.0511 C   0  0  0  0  0  0  0  0  0  0  0  0
    4.0470   -0.0185   -0.3424 C   0  0  0  0  0  0  0  0  0  0  0  0
    3.6657    0.5105   -1.4222 O   0  0  0  0  0  0  0  0  0  0  0  0
    5.3997   -0.2857   -0.1521 O   0  0  0  0  0  0  0  0  0  0  0  0
   -6.2887    0.8201   -1.8381 H   0  0  0  0  0  0  0  0  0  0  0  0
   -5.1755    1.6073   -0.6575 H   0  0  0  0  0  0  0  0  0  0  0  0
   -4.7092    1.4738   -2.4127 H   0  0  0  0  0  0  0  0  0  0  0  0
   -3.5098   -2.6164   -0.8384 H   0  0  0  0  0  0  0  0  0  0  0  0
   -1.1799   -3.0452   -0.1868 H   0  0  0  0  0  0  0  0  0  0  0  0
    1.0635   -2.2058    0.3446 H   0  0  0  0  0  0  0  0  0  0  0  0
    1.8378    2.0348    0.2175 H   0  0  0  0  0  0  0  0  0  0  0  0
   -0.4850    2.4548   -0.4248 H   0  0  0  0  0  0  0  0  0  0  0  0
   -2.7240    1.6161   -0.9517 H   0  0  0  0  0  0  0  0  0  0  0  0
    3.1902   -1.4756    0.9283 H   0  0  0  0  0  0  0  0  0  0  0  0
    3.4196    1.4329    1.9140 H   0  0  0  0  0  0  0  0  0  0  0  0
    2.6632    0.0732    2.8352 H   0  0  0  0  0  0  0  0  0  0  0  0
    4.4090    0.0105    2.4098 H   0  0  0  0  0  0  0  0  0  0  0  0
    6.0809   -0.0537   -0.8651 H   0  0  0  0  0  0  0  0  0  0  0  0
  1  2  1  0
  2  3  1  0
  3  4  2  0
  4  5  1  0
  5  6  2  0
  6  7  1  0
  7  8  2  0
  8  9  1  0
  9 10  2  0
 10 11  1  0
 11  6  1  0
 11 12  2  0
 12  3  1  0
  8 13  1  0
 13 14  1  0
 13 15  1  0
 15 16  2  0
 15 17  1  0
  1 18  1  0
  1 19  1  0
  1 20  1  0
  4 21  1  0
  5 22  1  0
  7 23  1  0
  9 24  1  0
 10 25  1  0
 12 26  1  0
 13 27  1  1
 14 28  1  0
 14 29  1  0
 14 30  1  0
 17 31  1  0
M  END
> <ID>
HT1464

> <Class>
0.0

> <Clusters>
176

> <Fold>
1

$$$$