
     RDKit          3D

 60 64  0  0  0  0  0  0  0  0999 V2000
   -2.1355   -1.2720    2.9460 C   0  0  0  0  0  0  0  0  0  0  0  0
   -1.8644    0.0455    2.2255 C   0  0  0  0  0  0  0  0  0  0  0  0
   -3.0498    0.4887    1.4084 C   0  0  0  0  0  0  0  0  0  0  0  0
   -3.8876    1.4513    1.8493 N   0  0  0  0  0  0  0  0  0  0  0  0
   -4.8218    1.5554    0.8838 C   0  0  0  0  0  0  0  0  0  0  0  0
   -5.9426    2.5554    0.9088 C   0  0  0  0  0  0  0  0  0  0  0  0
   -6.5056    2.8803    2.2853 C   0  0  0  0  0  0  0  0  0  0  0  0
   -7.2819    1.9794    1.3423 C   0  0  0  0  0  0  0  0  0  0  0  0
   -4.5258    0.6822   -0.1454 C   0  0  0  0  0  0  0  0  0  0  0  0
   -5.3338    0.5034   -1.3731 C   0  0  0  0  0  0  0  0  0  0  0  0
   -6.5900    0.4448   -1.2859 O   0  0  0  0  0  0  0  0  0  0  0  0
   -4.7231    0.4428   -2.6620 N   0  0  0  0  0  0  0  0  0  0  0  0
   -3.3998    0.0047    0.1857 N   0  0  0  0  0  0  0  0  0  0  0  0
   -2.7656   -1.0960   -0.5575 C   0  0  0  0  0  0  0  0  0  0  0  0
   -1.3380   -0.7728   -0.9195 C   0  0  0  0  0  0  0  0  0  0  0  0
   -1.0045    0.4801   -1.4987 C   0  0  0  0  0  0  0  0  0  0  0  0
    0.3258    0.7834   -1.8368 C   0  0  0  0  0  0  0  0  0  0  0  0
    1.2966   -0.1814   -1.5920 C   0  0  0  0  0  0  0  0  0  0  0  0
    2.5833   -0.0936   -1.8173 O   0  0  0  0  0  0  0  0  0  0  0  0
    3.1405   -1.2274   -1.4278 C   0  0  0  0  0  0  0  0  0  0  0  0
    2.1645   -2.0927   -0.9237 C   0  0  0  0  0  0  0  0  0  0  0  0
    2.3940   -3.8014   -0.0876 Br  0  0  0  0  0  0  0  0  0  0  0  0
    0.9842   -1.3935   -1.0416 C   0  0  0  0  0  0  0  0  0  0  0  0
   -0.3215   -1.7271   -0.6884 C   0  0  0  0  0  0  0  0  0  0  0  0
    4.5943   -1.4823   -1.5170 C   0  0  0  0  0  0  0  0  0  0  0  0
    5.0676   -2.7411   -1.9288 C   0  0  0  0  0  0  0  0  0  0  0  0
    6.4403   -2.9840   -2.0284 C   0  0  0  0  0  0  0  0  0  0  0  0
    7.3548   -1.9735   -1.7277 C   0  0  0  0  0  0  0  0  0  0  0  0
    6.8985   -0.7157   -1.3281 C   0  0  0  0  0  0  0  0  0  0  0  0
    5.5242   -0.4613   -1.2230 C   0  0  0  0  0  0  0  0  0  0  0  0
    5.0855    0.8265   -0.7877 N   0  0  0  0  0  0  0  0  0  0  0  0
    4.8892    1.1644    0.8992 S   0  0  0  0  0  0  0  0  0  0  0  0
    3.9327    2.3132    1.0606 O   0  0  0  0  0  0  0  0  0  0  0  0
    4.3223   -0.0422    1.5981 O   0  0  0  0  0  0  0  0  0  0  0  0
    6.4620    1.5963    1.6186 C   0  0  0  0  0  0  0  0  0  0  0  0
    7.2909    0.4913    1.6183 F   0  0  0  0  0  0  0  0  0  0  0  0
    6.2750    2.0242    2.9196 F   0  0  0  0  0  0  0  0  0  0  0  0
    7.0459    2.6103    0.8804 F   0  0  0  0  0  0  0  0  0  0  0  0
   -3.0731   -1.2025    3.5377 H   0  0  0  0  0  0  0  0  0  0  0  0
   -2.2135   -2.1103    2.2265 H   0  0  0  0  0  0  0  0  0  0  0  0
   -1.2960   -1.4896    3.6406 H   0  0  0  0  0  0  0  0  0  0  0  0
   -0.9560   -0.0360    1.5973 H   0  0  0  0  0  0  0  0  0  0  0  0
   -1.6553    0.8203    2.9956 H   0  0  0  0  0  0  0  0  0  0  0  0
   -5.9865    3.3687    0.1551 H   0  0  0  0  0  0  0  0  0  0  0  0
   -6.9347    3.8999    2.3804 H   0  0  0  0  0  0  0  0  0  0  0  0
   -6.0631    2.3386    3.1481 H   0  0  0  0  0  0  0  0  0  0  0  0
   -7.2796    0.9085    1.6421 H   0  0  0  0  0  0  0  0  0  0  0  0
   -8.1651    2.4666    0.8772 H   0  0  0  0  0  0  0  0  0  0  0  0
   -5.3070    0.2677   -3.5101 H   0  0  0  0  0  0  0  0  0  0  0  0
   -3.7086    0.6440   -2.7894 H   0  0  0  0  0  0  0  0  0  0  0  0
   -3.3174   -1.3162   -1.4915 H   0  0  0  0  0  0  0  0  0  0  0  0
   -2.8263   -2.0257    0.0439 H   0  0  0  0  0  0  0  0  0  0  0  0
   -1.7668    1.2277   -1.6653 H   0  0  0  0  0  0  0  0  0  0  0  0
    0.5882    1.7411   -2.2641 H   0  0  0  0  0  0  0  0  0  0  0  0
   -0.5442   -2.6907   -0.2497 H   0  0  0  0  0  0  0  0  0  0  0  0
    4.3770   -3.5302   -2.1975 H   0  0  0  0  0  0  0  0  0  0  0  0
    6.7946   -3.9565   -2.3461 H   0  0  0  0  0  0  0  0  0  0  0  0
    8.4178   -2.1632   -1.8075 H   0  0  0  0  0  0  0  0  0  0  0  0
    7.6144    0.0630   -1.1013 H   0  0  0  0  0  0  0  0  0  0  0  0
    4.7205    1.5090   -1.4911 H   0  0  0  0  0  0  0  0  0  0  0  0
  1  2  1  0
  2  3  1  0
  3  4  2  0
  4  5  1  0
  5  6  1  0
  6  7  1  0
  7  8  1  0
  8  6  1  0
  5  9  2  0
  9 10  1  0
 10 11  2  0
 10 12  1  0
  9 13  1  0
 13  3  1  0
 13 14  1  0
 14 15  1  0
 15 16  2  0
 16 17  1  0
 17 18  2  0
 18 19  1  0
 19 20  1  0
 20 21  2  0
 21 22  1  0
 21 23  1  0
 23 18  1  0
 23 24  2  0
 24 15  1  0
 20 25  1  0
 25 26  2  0
 26 27  1  0
 27 28  2  0
 28 29  1  0
 29 30  2  0
 30 25  1  0
 30 31  1  0
 31 32  1  0
 32 33  2  0
 32 34  2  0
 32 35  1  0
 35 36  1  0
 35 37  1  0
 35 38  1  0
  1 39  1  0
  1 40  1  0
  1 41  1  0
  2 42  1  0
  2 43  1  0
  6 44  1  0
  7 45  1  0
  7 46  1  0
  8 47  1  0
  8 48  1  0
 12 49  1  0
 12 50  1  0
 14 51  1  0
 14 52  1  0
 16 53  1  0
 17 54  1  0
 24 55  1  0
 26 56  1  0
 27 57  1  0
 28 58  1  0
 29 59  1  0
 31 60  1  0
M  END
> <ID>
HT1866

> <Class>
0.0

> <Clusters>
201

> <Fold>
1

$$$$