
     RDKit          3D

 58 61  0  0  0  0  0  0  0  0999 V2000
   -2.0461    2.4604   -0.0363 C   0  0  0  0  0  0  0  0  0  0  0  0
   -1.5775    1.2114   -0.7896 C   0  0  0  0  0  0  0  0  0  0  0  0
   -1.6401   -0.2064   -0.0790 C   0  0  0  0  0  0  0  0  0  0  0  0
   -1.0296   -1.2555   -1.0994 C   0  0  0  0  0  0  0  0  0  0  0  0
    0.4655   -1.6268   -0.8446 C   0  0  0  0  0  0  0  0  0  0  0  0
    1.2713   -0.4620   -0.2155 C   0  0  0  0  0  0  0  0  0  0  0  0
    0.6793   -0.0670    1.1671 C   0  0  0  0  0  0  0  0  0  0  0  0
    1.1789    1.3376    1.5217 C   0  0  0  0  0  0  0  0  0  0  0  0
    2.7119    1.3220    1.6713 C   0  0  0  0  0  0  0  0  0  0  0  0
    3.4348    0.5453    0.5778 C   0  0  0  0  0  0  0  0  0  0  0  0
    4.7164    0.8634    0.3241 C   0  0  0  0  0  0  0  0  0  0  0  0
    5.5458    0.0901   -0.6144 C   0  0  0  0  0  0  0  0  0  0  0  0
    6.7810    0.4455   -0.7959 N   0  0  0  0  0  0  0  0  0  0  0  0
    7.6361   -0.2638   -1.6087 O   0  0  0  0  0  0  0  0  0  0  0  0
    4.9899   -1.1560   -1.2490 C   0  0  0  0  0  0  0  0  0  0  0  0
    3.4709   -1.0585   -1.3936 C   0  0  0  0  0  0  0  0  0  0  0  0
    2.7949   -0.7045   -0.0473 C   0  0  0  0  0  0  0  0  0  0  0  0
   -0.8509   -0.3238    1.2378 C   0  0  0  0  0  0  0  0  0  0  0  0
   -1.6994    0.2783    2.3499 C   0  0  0  0  0  0  0  0  0  0  0  0
   -3.1476    0.0778    1.8802 C   0  0  0  0  0  0  0  0  0  0  0  0
   -3.1028   -0.5073    0.4343 C   0  0  0  0  0  0  0  0  0  0  0  0
   -4.0796    0.1121   -0.4152 O   0  0  0  0  0  0  0  0  0  0  0  0
   -5.4615    0.1255   -0.1780 C   0  0  0  0  0  0  0  0  0  0  0  0
   -5.9552   -0.4597    0.8238 O   0  0  0  0  0  0  0  0  0  0  0  0
   -6.3621    0.8055   -1.1513 C   0  0  0  0  0  0  0  0  0  0  0  0
   -3.3942   -1.9615    0.5157 C   0  0  0  0  0  0  0  0  0  0  0  0
   -3.6375   -3.1406    0.5892 C   0  0  0  0  0  0  0  0  0  0  0  0
   -3.1077    2.3928    0.2624 H   0  0  0  0  0  0  0  0  0  0  0  0
   -1.9690    3.3327   -0.7195 H   0  0  0  0  0  0  0  0  0  0  0  0
   -1.3980    2.6864    0.8279 H   0  0  0  0  0  0  0  0  0  0  0  0
   -0.5672    1.4384   -1.1602 H   0  0  0  0  0  0  0  0  0  0  0  0
   -2.1957    1.1571   -1.7127 H   0  0  0  0  0  0  0  0  0  0  0  0
   -1.1169   -0.8721   -2.1400 H   0  0  0  0  0  0  0  0  0  0  0  0
   -1.5888   -2.2089   -1.1251 H   0  0  0  0  0  0  0  0  0  0  0  0
    0.9013   -1.9256   -1.8193 H   0  0  0  0  0  0  0  0  0  0  0  0
    0.5219   -2.5110   -0.1722 H   0  0  0  0  0  0  0  0  0  0  0  0
    1.2016    0.3828   -0.9260 H   0  0  0  0  0  0  0  0  0  0  0  0
    1.1143   -0.7466    1.9394 H   0  0  0  0  0  0  0  0  0  0  0  0
    0.7458    1.6762    2.4853 H   0  0  0  0  0  0  0  0  0  0  0  0
    0.8923    2.0663    0.7347 H   0  0  0  0  0  0  0  0  0  0  0  0
    3.0639    2.3770    1.6972 H   0  0  0  0  0  0  0  0  0  0  0  0
    2.9738    0.8615    2.6488 H   0  0  0  0  0  0  0  0  0  0  0  0
    5.1715    1.7095    0.8272 H   0  0  0  0  0  0  0  0  0  0  0  0
    8.5930    0.0435   -1.7272 H   0  0  0  0  0  0  0  0  0  0  0  0
    5.2502   -2.0303   -0.6141 H   0  0  0  0  0  0  0  0  0  0  0  0
    5.4298   -1.3103   -2.2579 H   0  0  0  0  0  0  0  0  0  0  0  0
    3.2247   -0.2881   -2.1581 H   0  0  0  0  0  0  0  0  0  0  0  0
    3.1113   -2.0428   -1.7586 H   0  0  0  0  0  0  0  0  0  0  0  0
    2.9509   -1.5582    0.6495 H   0  0  0  0  0  0  0  0  0  0  0  0
   -0.8948   -1.4151    1.4859 H   0  0  0  0  0  0  0  0  0  0  0  0
   -1.5192   -0.2534    3.3107 H   0  0  0  0  0  0  0  0  0  0  0  0
   -1.4938    1.3499    2.5207 H   0  0  0  0  0  0  0  0  0  0  0  0
   -3.6896    1.0449    1.9135 H   0  0  0  0  0  0  0  0  0  0  0  0
   -3.6819   -0.5950    2.5891 H   0  0  0  0  0  0  0  0  0  0  0  0
   -5.7957    1.5747   -1.7172 H   0  0  0  0  0  0  0  0  0  0  0  0
   -6.7708    0.0574   -1.8618 H   0  0  0  0  0  0  0  0  0  0  0  0
   -7.1996    1.2995   -0.6150 H   0  0  0  0  0  0  0  0  0  0  0  0
   -3.8503   -4.1750    0.6534 H   0  0  0  0  0  0  0  0  0  0  0  0
  1  2  1  0
  2  3  1  0
  3  4  1  0
  4  5  1  0
  5  6  1  0
  6  7  1  0
  7  8  1  0
  8  9  1  0
  9 10  1  0
 10 11  2  0
 11 12  1  0
 12 13  2  3
 13 14  1  0
 12 15  1  0
 15 16  1  0
 16 17  1  0
 17  6  1  0
 17 10  1  0
  7 18  1  0
 18  3  1  0
 18 19  1  0
 19 20  1  0
 20 21  1  0
 21  3  1  0
 21 22  1  0
 22 23  1  0
 23 24  2  0
 23 25  1  0
 21 26  1  0
 26 27  3  0
  1 28  1  0
  1 29  1  0
  1 30  1  0
  2 31  1  0
  2 32  1  0
  4 33  1  0
  4 34  1  0
  5 35  1  0
  5 36  1  0
  6 37  1  0
  7 38  1  0
  8 39  1  0
  8 40  1  0
  9 41  1  0
  9 42  1  0
 11 43  1  0
 14 44  1  0
 15 45  1  0
 15 46  1  0
 16 47  1  0
 16 48  1  0
 17 49  1  0
 18 50  1  0
 19 51  1  0
 19 52  1  0
 20 53  1  0
 20 54  1  0
 25 55  1  0
 25 56  1  0
 25 57  1  0
 27 58  1  0
M  END
> <ID>
HT1526

> <Class>
0.0

> <Clusters>
183

> <Fold>
1

$$$$