
     RDKit          3D

 48 49  0  0  0  0  0  0  0  0999 V2000
    3.7274   -0.8797    2.7865 C   0  0  0  0  0  0  0  0  0  0  0  0
    4.1902   -0.1901    1.5029 C   0  0  0  0  0  0  0  0  0  0  0  0
    3.7735   -0.9368    0.2925 N   0  0  0  0  0  0  0  0  0  0  0  0
    4.4866   -0.4595   -0.9141 C   0  0  0  0  0  0  0  0  0  0  0  0
    5.7976   -1.2205   -1.0888 C   0  0  0  0  0  0  0  0  0  0  0  0
    2.3039   -0.9922    0.0906 C   0  0  0  0  0  0  0  0  0  0  0  0
    1.6400    0.3818   -0.0882 C   0  0  0  0  0  0  0  0  0  0  0  0
    0.2839    0.1950   -0.4770 O   0  0  0  0  0  0  0  0  0  0  0  0
   -0.5937    1.2605   -0.7052 C   0  0  0  0  0  0  0  0  0  0  0  0
   -0.1785    2.4499   -0.6349 O   0  0  0  0  0  0  0  0  0  0  0  0
   -2.0320    0.9985   -1.0856 C   0  0  0  0  0  0  0  0  0  0  0  0
   -3.0134    1.7948   -0.2426 C   0  0  0  0  0  0  0  0  0  0  0  0
   -4.1799    2.3088   -0.8400 C   0  0  0  0  0  0  0  0  0  0  0  0
   -5.1173    3.0119   -0.0774 C   0  0  0  0  0  0  0  0  0  0  0  0
   -4.9074    3.2020    1.2902 C   0  0  0  0  0  0  0  0  0  0  0  0
   -3.7608    2.6867    1.8990 C   0  0  0  0  0  0  0  0  0  0  0  0
   -2.8194    1.9831    1.1415 C   0  0  0  0  0  0  0  0  0  0  0  0
   -2.3846   -0.4786   -1.0448 C   0  0  0  0  0  0  0  0  0  0  0  0
   -2.8306   -1.1289   -2.2110 C   0  0  0  0  0  0  0  0  0  0  0  0
   -3.1664   -2.4861   -2.1818 C   0  0  0  0  0  0  0  0  0  0  0  0
   -3.0625   -3.2087   -0.9909 C   0  0  0  0  0  0  0  0  0  0  0  0
   -2.6240   -2.5755    0.1740 C   0  0  0  0  0  0  0  0  0  0  0  0
   -2.2889   -1.2181    0.1514 C   0  0  0  0  0  0  0  0  0  0  0  0
    4.2544   -0.4355    3.6581 H   0  0  0  0  0  0  0  0  0  0  0  0
    2.6378   -0.7348    2.9392 H   0  0  0  0  0  0  0  0  0  0  0  0
    3.9591   -1.9654    2.7454 H   0  0  0  0  0  0  0  0  0  0  0  0
    3.8308    0.8606    1.4813 H   0  0  0  0  0  0  0  0  0  0  0  0
    5.2996   -0.1438    1.5488 H   0  0  0  0  0  0  0  0  0  0  0  0
    3.8864   -0.6329   -1.8356 H   0  0  0  0  0  0  0  0  0  0  0  0
    4.6917    0.6339   -0.8596 H   0  0  0  0  0  0  0  0  0  0  0  0
    6.4948   -1.0034   -0.2534 H   0  0  0  0  0  0  0  0  0  0  0  0
    5.6004   -2.3133   -1.1234 H   0  0  0  0  0  0  0  0  0  0  0  0
    6.2830   -0.9142   -2.0395 H   0  0  0  0  0  0  0  0  0  0  0  0
    2.0821   -1.6172   -0.8024 H   0  0  0  0  0  0  0  0  0  0  0  0
    1.8227   -1.5228    0.9381 H   0  0  0  0  0  0  0  0  0  0  0  0
    1.6602    0.9426    0.8701 H   0  0  0  0  0  0  0  0  0  0  0  0
    2.1656    0.9697   -0.8702 H   0  0  0  0  0  0  0  0  0  0  0  0
   -2.1205    1.3564   -2.1363 H   0  0  0  0  0  0  0  0  0  0  0  0
   -4.3662    2.1607   -1.8967 H   0  0  0  0  0  0  0  0  0  0  0  0
   -6.0094    3.4062   -0.5469 H   0  0  0  0  0  0  0  0  0  0  0  0
   -5.6354    3.7451    1.8791 H   0  0  0  0  0  0  0  0  0  0  0  0
   -3.6019    2.8302    2.9600 H   0  0  0  0  0  0  0  0  0  0  0  0
   -1.9404    1.5899    1.6366 H   0  0  0  0  0  0  0  0  0  0  0  0
   -2.9212   -0.5869   -3.1442 H   0  0  0  0  0  0  0  0  0  0  0  0
   -3.5081   -2.9777   -3.0834 H   0  0  0  0  0  0  0  0  0  0  0  0
   -3.3218   -4.2595   -0.9711 H   0  0  0  0  0  0  0  0  0  0  0  0
   -2.5424   -3.1367    1.0961 H   0  0  0  0  0  0  0  0  0  0  0  0
   -1.9446   -0.7496    1.0638 H   0  0  0  0  0  0  0  0  0  0  0  0
  1  2  1  0
  2  3  1  0
  3  4  1  0
  4  5  1  0
  3  6  1  0
  6  7  1  0
  7  8  1  0
  8  9  1  0
  9 10  2  0
  9 11  1  0
 11 12  1  0
 12 13  2  0
 13 14  1  0
 14 15  2  0
 15 16  1  0
 16 17  2  0
 17 12  1  0
 11 18  1  0
 18 19  2  0
 19 20  1  0
 20 21  2  0
 21 22  1  0
 22 23  2  0
 23 18  1  0
  1 24  1  0
  1 25  1  0
  1 26  1  0
  2 27  1  0
  2 28  1  0
  4 29  1  0
  4 30  1  0
  5 31  1  0
  5 32  1  0
  5 33  1  0
  6 34  1  0
  6 35  1  0
  7 36  1  0
  7 37  1  0
 11 38  1  0
 13 39  1  0
 14 40  1  0
 15 41  1  0
 16 42  1  0
 17 43  1  0
 19 44  1  0
 20 45  1  0
 21 46  1  0
 22 47  1  0
 23 48  1  0
M  END
> <ID>
HT3413

> <Class>
0.0

> <Clusters>
79

> <Fold>
1

$$$$