
     RDKit          3D

 67 68  0  0  0  0  0  0  0  0999 V2000
   -6.2497   -4.8169   -1.9359 O   0  0  0  0  0  0  0  0  0  0  0  0
   -7.4001   -4.3305   -1.3004 C   0  0  0  0  0  0  0  0  0  0  0  0
   -7.2808   -2.8622   -0.9527 C   0  0  0  0  0  0  0  0  0  0  0  0
   -6.1032   -2.1394   -1.2355 C   0  0  0  0  0  0  0  0  0  0  0  0
   -6.0005   -0.7721   -0.9231 C   0  0  0  0  0  0  0  0  0  0  0  0
   -7.0843   -0.1261   -0.3112 C   0  0  0  0  0  0  0  0  0  0  0  0
   -8.2523   -0.8293   -0.0222 C   0  0  0  0  0  0  0  0  0  0  0  0
   -8.3611   -2.1889   -0.3321 C   0  0  0  0  0  0  0  0  0  0  0  0
   -9.5535   -2.8399   -0.0082 O   0  0  0  0  0  0  0  0  0  0  0  0
   -4.7237   -0.0118   -1.2054 C   0  0  0  0  0  0  0  0  0  0  0  0
   -4.3192   -0.2577   -2.5281 O   0  0  0  0  0  0  0  0  0  0  0  0
   -3.6204   -0.4441   -0.2235 C   0  0  0  0  0  0  0  0  0  0  0  0
   -2.4220    0.3896   -0.3969 N   0  0  0  0  0  0  0  0  0  0  0  0
   -2.4459    1.5736    0.4762 C   0  0  0  0  0  0  0  0  0  0  0  0
   -1.5660    2.6926   -0.1021 C   0  0  0  0  0  0  0  0  0  0  0  0
   -0.0916    2.3027   -0.3052 C   0  0  0  0  0  0  0  0  0  0  0  0
    0.6600    2.1010    1.0165 C   0  0  0  0  0  0  0  0  0  0  0  0
    2.1354    1.7797    0.7542 C   0  0  0  0  0  0  0  0  0  0  0  0
    2.9137    1.5955    2.0579 C   0  0  0  0  0  0  0  0  0  0  0  0
    4.2454    1.2131    1.7673 O   0  0  0  0  0  0  0  0  0  0  0  0
    5.1139    2.3263    1.8369 C   0  0  0  0  0  0  0  0  0  0  0  0
    6.4821    1.9529    1.2523 C   0  0  0  0  0  0  0  0  0  0  0  0
    6.5573    2.1127   -0.2783 C   0  0  0  0  0  0  0  0  0  0  0  0
    5.6885    1.1199   -1.0662 C   0  0  0  0  0  0  0  0  0  0  0  0
    6.1050   -0.3130   -0.8498 C   0  0  0  0  0  0  0  0  0  0  0  0
    7.3693   -0.7558   -1.2783 C   0  0  0  0  0  0  0  0  0  0  0  0
    7.7677   -2.0778   -1.0536 C   0  0  0  0  0  0  0  0  0  0  0  0
    6.9044   -2.9707   -0.4135 C   0  0  0  0  0  0  0  0  0  0  0  0
    5.6368   -2.5453   -0.0085 C   0  0  0  0  0  0  0  0  0  0  0  0
    5.2313   -1.2249   -0.2348 C   0  0  0  0  0  0  0  0  0  0  0  0
   -6.4096   -5.7835   -2.0970 H   0  0  0  0  0  0  0  0  0  0  0  0
   -8.2713   -4.4674   -1.9779 H   0  0  0  0  0  0  0  0  0  0  0  0
   -7.5721   -4.9059   -0.3638 H   0  0  0  0  0  0  0  0  0  0  0  0
   -5.2551   -2.6321   -1.6930 H   0  0  0  0  0  0  0  0  0  0  0  0
   -7.0258    0.9247   -0.0530 H   0  0  0  0  0  0  0  0  0  0  0  0
   -9.0802   -0.3152    0.4498 H   0  0  0  0  0  0  0  0  0  0  0  0
   -9.7139   -3.8232   -0.1881 H   0  0  0  0  0  0  0  0  0  0  0  0
   -4.9153    1.0792   -1.0807 H   0  0  0  0  0  0  0  0  0  0  0  0
   -3.6884    0.4650   -2.7786 H   0  0  0  0  0  0  0  0  0  0  0  0
   -3.9898   -0.4061    0.8274 H   0  0  0  0  0  0  0  0  0  0  0  0
   -3.3597   -1.5062   -0.4341 H   0  0  0  0  0  0  0  0  0  0  0  0
   -1.5941   -0.1884   -0.1211 H   0  0  0  0  0  0  0  0  0  0  0  0
   -2.1168    1.3064    1.5050 H   0  0  0  0  0  0  0  0  0  0  0  0
   -3.4769    1.9821    0.5606 H   0  0  0  0  0  0  0  0  0  0  0  0
   -1.9879    2.9940   -1.0859 H   0  0  0  0  0  0  0  0  0  0  0  0
   -1.6247    3.5826    0.5645 H   0  0  0  0  0  0  0  0  0  0  0  0
   -0.0151    1.3885   -0.9294 H   0  0  0  0  0  0  0  0  0  0  0  0
    0.3999    3.1235   -0.8703 H   0  0  0  0  0  0  0  0  0  0  0  0
    0.5864    3.0265    1.6284 H   0  0  0  0  0  0  0  0  0  0  0  0
    0.2062    1.2608    1.5839 H   0  0  0  0  0  0  0  0  0  0  0  0
    2.5964    2.6024    0.1680 H   0  0  0  0  0  0  0  0  0  0  0  0
    2.2067    0.8441    0.1577 H   0  0  0  0  0  0  0  0  0  0  0  0
    2.8384    2.5124    2.6890 H   0  0  0  0  0  0  0  0  0  0  0  0
    2.4458    0.7746    2.6395 H   0  0  0  0  0  0  0  0  0  0  0  0
    5.2574    2.6078    2.9051 H   0  0  0  0  0  0  0  0  0  0  0  0
    4.7069    3.2116    1.2935 H   0  0  0  0  0  0  0  0  0  0  0  0
    7.2433    2.6326    1.6964 H   0  0  0  0  0  0  0  0  0  0  0  0
    6.7612    0.9192    1.5532 H   0  0  0  0  0  0  0  0  0  0  0  0
    7.6173    1.9975   -0.5899 H   0  0  0  0  0  0  0  0  0  0  0  0
    6.2616    3.1470   -0.5534 H   0  0  0  0  0  0  0  0  0  0  0  0
    4.6218    1.2702   -0.8014 H   0  0  0  0  0  0  0  0  0  0  0  0
    5.7786    1.3530   -2.1486 H   0  0  0  0  0  0  0  0  0  0  0  0
    8.0485   -0.0765   -1.7788 H   0  0  0  0  0  0  0  0  0  0  0  0
    8.7482   -2.4090   -1.3708 H   0  0  0  0  0  0  0  0  0  0  0  0
    7.2211   -3.9923   -0.2299 H   0  0  0  0  0  0  0  0  0  0  0  0
    4.9695   -3.2383    0.4885 H   0  0  0  0  0  0  0  0  0  0  0  0
    4.2451   -0.9146    0.0890 H   0  0  0  0  0  0  0  0  0  0  0  0
  1  2  1  0
  2  3  1  0
  3  4  2  0
  4  5  1  0
  5  6  2  0
  6  7  1  0
  7  8  2  0
  8  3  1  0
  8  9  1  0
  5 10  1  0
 10 11  1  0
 10 12  1  0
 12 13  1  0
 13 14  1  0
 14 15  1  0
 15 16  1  0
 16 17  1  0
 17 18  1  0
 18 19  1  0
 19 20  1  0
 20 21  1  0
 21 22  1  0
 22 23  1  0
 23 24  1  0
 24 25  1  0
 25 26  2  0
 26 27  1  0
 27 28  2  0
 28 29  1  0
 29 30  2  0
 30 25  1  0
  1 31  1  0
  2 32  1  0
  2 33  1  0
  4 34  1  0
  6 35  1  0
  7 36  1  0
  9 37  1  0
 10 38  1  0
 11 39  1  0
 12 40  1  0
 12 41  1  0
 13 42  1  0
 14 43  1  0
 14 44  1  0
 15 45  1  0
 15 46  1  0
 16 47  1  0
 16 48  1  0
 17 49  1  0
 17 50  1  0
 18 51  1  0
 18 52  1  0
 19 53  1  0
 19 54  1  0
 21 55  1  0
 21 56  1  0
 22 57  1  0
 22 58  1  0
 23 59  1  0
 23 60  1  0
 24 61  1  0
 24 62  1  0
 26 63  1  0
 27 64  1  0
 28 65  1  0
 29 66  1  0
 30 67  1  0
M  END
> <ID>
HT1862

> <Class>
0.0

> <Clusters>
21

> <Fold>
1

$$$$