
     RDKit          3D

 79 83  0  0  0  0  0  0  0  0999 V2000
    6.9287    2.8200    0.1519 C   0  0  0  0  0  0  0  0  0  0  0  0
    7.3496    1.3902    0.5594 C   0  0  0  0  0  0  0  0  0  0  0  0
    8.4213    1.5029    1.6658 C   0  0  0  0  0  0  0  0  0  0  0  0
    7.9802    0.6591   -0.6467 C   0  0  0  0  0  0  0  0  0  0  0  0
    6.1445    0.5884    1.1419 C   0  0  0  0  0  0  0  0  0  0  0  0
    4.9435    0.3762    0.2529 C   0  0  0  0  0  0  0  0  0  0  0  0
    4.9194    0.7764   -0.9425 O   0  0  0  0  0  0  0  0  0  0  0  0
    3.8367   -0.2873    0.7894 O   0  0  0  0  0  0  0  0  0  0  0  0
    2.6426   -0.5220    0.0471 C   0  0  0  0  0  0  0  0  0  0  0  0
    1.6154   -1.2143    0.9066 C   0  0  0  0  0  0  0  0  0  0  0  0
    1.8895   -1.4774    2.0697 O   0  0  0  0  0  0  0  0  0  0  0  0
    0.2282   -1.5473    0.3501 C   0  0  1  0  0  0  0  0  0  0  0  0
    0.3541   -1.8774   -1.0064 O   0  0  0  0  0  0  0  0  0  0  0  0
    0.2713   -3.2850   -1.0903 C   0  0  0  0  0  0  0  0  0  0  0  0
   -0.6243   -3.6561   -2.2761 C   0  0  0  0  0  0  0  0  0  0  0  0
    1.6746   -3.8689   -1.3052 C   0  0  0  0  0  0  0  0  0  0  0  0
   -0.2806   -3.8348    0.0850 O   0  0  0  0  0  0  0  0  0  0  0  0
   -0.4123   -2.7834    0.9947 C   0  0  2  0  0  0  0  0  0  0  0  0
   -1.9057   -2.4629    1.2204 C   0  0  0  0  0  0  0  0  0  0  0  0
   -2.1345   -1.2007    0.4027 C   0  0  1  0  0  0  0  0  0  0  0  0
   -3.4035   -0.3524    0.6474 C   0  0  2  0  0  0  0  0  0  0  0  0
   -4.6704   -1.2316    0.5381 C   0  0  0  0  0  0  0  0  0  0  0  0
   -5.9440   -0.4050    0.7080 C   0  0  0  0  0  0  0  0  0  0  0  0
   -5.9449    0.7429   -0.2704 C   0  0  0  0  0  0  0  0  0  0  0  0
   -6.9647    0.8746   -1.1351 C   0  0  0  0  0  0  0  0  0  0  0  0
   -6.9636    1.9329   -2.1437 C   0  0  0  0  0  0  0  0  0  0  0  0
   -7.9312    2.0493   -2.9402 O   0  0  0  0  0  0  0  0  0  0  0  0
   -5.8258    2.8432   -2.2322 C   0  0  0  0  0  0  0  0  0  0  0  0
   -4.8001    2.7302   -1.3882 C   0  0  0  0  0  0  0  0  0  0  0  0
   -4.7428    1.7031   -0.2554 C   0  0  1  0  0  0  0  0  0  0  0  0
   -4.8114    2.5080    1.0672 C   0  0  0  0  0  0  0  0  0  0  0  0
   -3.4401    0.8148   -0.4118 C   0  0  2  0  0  0  0  0  0  0  0  0
   -3.5403    0.2182   -1.6659 F   0  0  0  0  0  0  0  0  0  0  0  0
   -2.0866    1.6198   -0.4493 C   0  0  1  0  0  0  0  0  0  0  0  0
   -1.9724    2.4952    0.6398 O   0  0  0  0  0  0  0  0  0  0  0  0
   -0.8313    0.7016   -0.5325 C   0  0  0  0  0  0  0  0  0  0  0  0
   -0.8288   -0.4098    0.5508 C   0  0  2  0  0  0  0  0  0  0  0  0
   -0.6523    0.2201    1.9741 C   0  0  0  0  0  0  0  0  0  0  0  0
    7.8202    3.4271   -0.1166 H   0  0  0  0  0  0  0  0  0  0  0  0
    6.4052    3.3267    0.9910 H   0  0  0  0  0  0  0  0  0  0  0  0
    6.2579    2.8177   -0.7307 H   0  0  0  0  0  0  0  0  0  0  0  0
    9.3123    2.0582    1.3005 H   0  0  0  0  0  0  0  0  0  0  0  0
    8.7560    0.4950    1.9938 H   0  0  0  0  0  0  0  0  0  0  0  0
    8.0199    2.0423    2.5515 H   0  0  0  0  0  0  0  0  0  0  0  0
    8.2626   -0.3786   -0.3706 H   0  0  0  0  0  0  0  0  0  0  0  0
    8.8952    1.1894   -0.9867 H   0  0  0  0  0  0  0  0  0  0  0  0
    7.2887    0.6123   -1.5097 H   0  0  0  0  0  0  0  0  0  0  0  0
    5.7825    1.1028    2.0583 H   0  0  0  0  0  0  0  0  0  0  0  0
    6.4983   -0.4163    1.4608 H   0  0  0  0  0  0  0  0  0  0  0  0
    2.2342    0.4479   -0.3020 H   0  0  0  0  0  0  0  0  0  0  0  0
    2.8768   -1.1553   -0.8345 H   0  0  0  0  0  0  0  0  0  0  0  0
   -0.6775   -4.7600   -2.3955 H   0  0  0  0  0  0  0  0  0  0  0  0
   -1.6544   -3.2763   -2.1159 H   0  0  0  0  0  0  0  0  0  0  0  0
   -0.2282   -3.2110   -3.2134 H   0  0  0  0  0  0  0  0  0  0  0  0
    2.3223   -3.6435   -0.4326 H   0  0  0  0  0  0  0  0  0  0  0  0
    1.6248   -4.9731   -1.4199 H   0  0  0  0  0  0  0  0  0  0  0  0
    2.1399   -3.4319   -2.2145 H   0  0  0  0  0  0  0  0  0  0  0  0
    0.0514   -3.0767    1.9607 H   0  0  0  0  0  0  0  0  0  0  0  0
   -2.5605   -3.2935    0.8753 H   0  0  0  0  0  0  0  0  0  0  0  0
   -2.1079   -2.2720    2.2968 H   0  0  0  0  0  0  0  0  0  0  0  0
   -2.2097   -1.5537   -0.6512 H   0  0  0  0  0  0  0  0  0  0  0  0
   -3.3841    0.0478    1.6766 H   0  0  0  0  0  0  0  0  0  0  0  0
   -4.6551   -2.0119    1.3299 H   0  0  0  0  0  0  0  0  0  0  0  0
   -4.6985   -1.7486   -0.4462 H   0  0  0  0  0  0  0  0  0  0  0  0
   -6.8236   -1.0704    0.5655 H   0  0  0  0  0  0  0  0  0  0  0  0
   -5.9987   -0.0104    1.7441 H   0  0  0  0  0  0  0  0  0  0  0  0
   -7.7986    0.1826   -1.1161 H   0  0  0  0  0  0  0  0  0  0  0  0
   -5.8203    3.6226   -2.9847 H   0  0  0  0  0  0  0  0  0  0  0  0
   -4.0024    3.4576   -1.4724 H   0  0  0  0  0  0  0  0  0  0  0  0
   -4.5604    1.8951    1.9534 H   0  0  0  0  0  0  0  0  0  0  0  0
   -5.8390    2.9051    1.2171 H   0  0  0  0  0  0  0  0  0  0  0  0
   -4.1404    3.3911    1.0554 H   0  0  0  0  0  0  0  0  0  0  0  0
   -2.0833    2.2235   -1.3865 H   0  0  0  0  0  0  0  0  0  0  0  0
   -1.2825    3.1690    0.4014 H   0  0  0  0  0  0  0  0  0  0  0  0
   -0.8208    0.2431   -1.5438 H   0  0  0  0  0  0  0  0  0  0  0  0
    0.0856    1.3195   -0.4530 H   0  0  0  0  0  0  0  0  0  0  0  0
    0.2557    0.8598    1.9996 H   0  0  0  0  0  0  0  0  0  0  0  0
   -0.5379   -0.5597    2.7556 H   0  0  0  0  0  0  0  0  0  0  0  0
   -1.4936    0.8558    2.2943 H   0  0  0  0  0  0  0  0  0  0  0  0
  1  2  1  0
  2  3  1  0
  2  4  1  0
  2  5  1  0
  5  6  1  0
  6  7  2  0
  6  8  1  0
  8  9  1  0
  9 10  1  0
 10 11  2  0
 12 10  1  1
 12 13  1  0
 13 14  1  0
 14 15  1  0
 14 16  1  0
 14 17  1  0
 17 18  1  0
 18 12  1  0
 18 19  1  0
 20 19  1  0
 20 21  1  0
 21 22  1  0
 22 23  1  0
 23 24  1  0
 24 25  2  0
 25 26  1  0
 26 27  2  0
 26 28  1  0
 28 29  2  0
 29 30  1  0
 30 24  1  0
 30 31  1  1
 30 32  1  0
 32 21  1  0
 32 33  1  6
 32 34  1  0
 34 35  1  0
 34 36  1  0
 36 37  1  0
 37 12  1  0
 37 20  1  0
 37 38  1  1
  1 39  1  0
  1 40  1  0
  1 41  1  0
  3 42  1  0
  3 43  1  0
  3 44  1  0
  4 45  1  0
  4 46  1  0
  4 47  1  0
  5 48  1  0
  5 49  1  0
  9 50  1  0
  9 51  1  0
 15 52  1  0
 15 53  1  0
 15 54  1  0
 16 55  1  0
 16 56  1  0
 16 57  1  0
 18 58  1  1
 19 59  1  0
 19 60  1  0
 20 61  1  6
 21 62  1  1
 22 63  1  0
 22 64  1  0
 23 65  1  0
 23 66  1  0
 25 67  1  0
 28 68  1  0
 29 69  1  0
 31 70  1  0
 31 71  1  0
 31 72  1  0
 34 73  1  6
 35 74  1  0
 36 75  1  0
 36 76  1  0
 38 77  1  0
 38 78  1  0
 38 79  1  0
M  END
> <ID>
HT2108

> <Class>
0.0

> <Clusters>
234

> <Fold>
1

$$$$