
     RDKit          3D

 33 35  0  0  0  0  0  0  0  0999 V2000
   -1.3007   -0.5247   -2.5622 O   0  0  0  0  0  0  0  0  0  0  0  0
   -1.4321   -0.4992   -1.3090 C   0  0  0  0  0  0  0  0  0  0  0  0
   -0.7367   -1.5517   -0.4577 C   0  0  0  0  0  0  0  0  0  0  0  0
   -2.2116    0.5771   -0.6892 C   0  0  0  0  0  0  0  0  0  0  0  0
   -2.8084    1.9615   -1.4327 S   0  0  0  0  0  0  0  0  0  0  0  0
   -2.5979    0.5860    0.6304 C   0  0  0  0  0  0  0  0  0  0  0  0
   -3.5575    2.5874   -0.0564 C   0  0  0  0  0  0  0  0  0  0  0  0
   -3.3508    1.7052    0.9988 C   0  0  0  0  0  0  0  0  0  0  0  0
   -2.2055   -0.7528    1.6730 S   0  0  0  0  0  0  0  0  0  0  0  0
   -1.5729   -2.0511    0.6716 N   0  0  0  0  0  0  0  0  0  0  0  0
   -3.4424   -1.2021    2.4011 O   0  0  0  0  0  0  0  0  0  0  0  0
   -1.1720   -0.3226    2.6748 O   0  0  0  0  0  0  0  0  0  0  0  0
   -2.6811   -2.8820    0.1770 C   0  0  0  0  0  0  0  0  0  0  0  0
    0.6077   -1.0535    0.0248 C   0  0  0  0  0  0  0  0  0  0  0  0
    0.9665   -1.2698    1.2142 O   0  0  0  0  0  0  0  0  0  0  0  0
    1.5147   -0.4226   -0.8963 N   0  0  0  0  0  0  0  0  0  0  0  0
    2.7005    0.2863   -0.4979 C   0  0  0  0  0  0  0  0  0  0  0  0
    3.5832    0.7747   -1.4726 C   0  0  0  0  0  0  0  0  0  0  0  0
    2.9695    0.5121    0.8195 N   0  0  0  0  0  0  0  0  0  0  0  0
    4.7253    1.4746   -1.0778 C   0  0  0  0  0  0  0  0  0  0  0  0
    4.0761    1.1914    1.2237 C   0  0  0  0  0  0  0  0  0  0  0  0
    4.9767    1.6856    0.2785 C   0  0  0  0  0  0  0  0  0  0  0  0
   -0.4961   -2.4093   -1.1260 H   0  0  0  0  0  0  0  0  0  0  0  0
   -4.1140    3.5132   -0.0033 H   0  0  0  0  0  0  0  0  0  0  0  0
   -3.7423    1.8642    1.9948 H   0  0  0  0  0  0  0  0  0  0  0  0
   -3.4109   -2.2757   -0.4031 H   0  0  0  0  0  0  0  0  0  0  0  0
   -2.2966   -3.7025   -0.4659 H   0  0  0  0  0  0  0  0  0  0  0  0
   -3.2033   -3.3638    1.0300 H   0  0  0  0  0  0  0  0  0  0  0  0
    1.2965   -0.4793   -1.9165 H   0  0  0  0  0  0  0  0  0  0  0  0
    3.3884    0.6137   -2.5254 H   0  0  0  0  0  0  0  0  0  0  0  0
    5.4135    1.8537   -1.8222 H   0  0  0  0  0  0  0  0  0  0  0  0
    4.2554    1.3486    2.2789 H   0  0  0  0  0  0  0  0  0  0  0  0
    5.8590    2.2274    0.5939 H   0  0  0  0  0  0  0  0  0  0  0  0
  1  2  2  0
  2  3  1  0
  2  4  1  0
  4  5  1  0
  6  4  2  0
  5  7  1  0
  8  6  1  0
  6  9  1  0
  7  8  2  0
  9 10  1  0
  9 11  2  0
  9 12  2  0
 13 10  1  0
 10  3  1  0
  3 14  1  0
 14 15  2  0
 14 16  1  0
 16 17  1  0
 17 18  2  0
 19 17  1  0
 18 20  1  0
 21 19  2  0
 20 22  2  0
 22 21  1  0
  3 23  1  0
  7 24  1  0
  8 25  1  0
 13 26  1  0
 13 27  1  0
 13 28  1  0
 16 29  1  0
 18 30  1  0
 20 31  1  0
 21 32  1  0
 22 33  1  0
M  END
> <ID>
HT2006

> <Class>
0.0

> <Clusters>
200

> <Fold>
1

$$$$