
     RDKit          3D

 56 59  0  0  0  0  0  0  0  0999 V2000
    7.9978    1.3865   -1.9961 C   0  0  0  0  0  0  0  0  0  0  0  0
    6.6460    1.4907   -1.3078 C   0  0  0  0  0  0  0  0  0  0  0  0
    6.6667    0.7181   -0.1249 O   0  0  0  0  0  0  0  0  0  0  0  0
    5.3828    0.6764    0.4756 C   0  0  1  0  0  0  0  0  0  0  0  0
    4.6694   -0.6287    0.0697 C   0  0  0  0  0  0  0  0  0  0  0  0
    3.2730   -0.7118    0.6375 C   0  0  0  0  0  0  0  0  0  0  0  0
    2.9676   -1.6403    1.6443 C   0  0  0  0  0  0  0  0  0  0  0  0
    1.6745   -1.7110    2.1697 C   0  0  0  0  0  0  0  0  0  0  0  0
    0.6646   -0.8653    1.6964 C   0  0  0  0  0  0  0  0  0  0  0  0
   -0.6152   -0.9824    2.2626 O   0  0  0  0  0  0  0  0  0  0  0  0
   -1.7928   -0.3157    1.8068 C   0  0  0  0  0  0  0  0  0  0  0  0
   -2.3062   -0.9514    0.5092 C   0  0  0  0  0  0  0  0  0  0  0  0
   -3.6728   -0.4857    0.2035 N   0  0  0  0  0  0  0  0  0  0  0  0
   -4.8265   -1.2546    0.6421 C   0  0  0  0  0  0  0  0  0  0  0  0
   -4.7420   -2.2270    1.6636 C   0  0  0  0  0  0  0  0  0  0  0  0
   -5.8691   -2.9652    2.0361 C   0  0  0  0  0  0  0  0  0  0  0  0
   -7.0937   -2.7440    1.4054 C   0  0  0  0  0  0  0  0  0  0  0  0
   -7.1990   -1.7731    0.4090 C   0  0  0  0  0  0  0  0  0  0  0  0
   -6.0788   -1.0234    0.0359 C   0  0  0  0  0  0  0  0  0  0  0  0
   -6.2162   -0.0326   -0.9363 O   0  0  0  0  0  0  0  0  0  0  0  0
   -5.1640    0.8194   -1.2722 C   0  0  0  0  0  0  0  0  0  0  0  0
   -5.3934    1.8644   -2.1732 C   0  0  0  0  0  0  0  0  0  0  0  0
   -4.3665    2.7528   -2.4935 C   0  0  0  0  0  0  0  0  0  0  0  0
   -3.1085    2.6033   -1.9093 C   0  0  0  0  0  0  0  0  0  0  0  0
   -2.8680    1.5563   -1.0148 C   0  0  0  0  0  0  0  0  0  0  0  0
   -3.8892    0.6344   -0.6976 C   0  0  0  0  0  0  0  0  0  0  0  0
    0.9704    0.0671    0.6868 C   0  0  0  0  0  0  0  0  0  0  0  0
    2.2634    0.1384    0.1605 C   0  0  0  0  0  0  0  0  0  0  0  0
    5.5628    0.7331    1.9699 C   0  0  0  0  0  0  0  0  0  0  0  0
    6.2912   -0.1165    2.5486 O   0  0  0  0  0  0  0  0  0  0  0  0
    4.9323    1.7164    2.7281 O   0  0  0  0  0  0  0  0  0  0  0  0
    8.7975    1.7608   -1.3222 H   0  0  0  0  0  0  0  0  0  0  0  0
    8.2088    0.3283   -2.2598 H   0  0  0  0  0  0  0  0  0  0  0  0
    7.9947    1.9956   -2.9247 H   0  0  0  0  0  0  0  0  0  0  0  0
    6.4571    2.5608   -1.0655 H   0  0  0  0  0  0  0  0  0  0  0  0
    5.8655    1.1266   -2.0138 H   0  0  0  0  0  0  0  0  0  0  0  0
    4.7438    1.5432    0.1785 H   0  0  0  0  0  0  0  0  0  0  0  0
    5.2796   -1.4989    0.3991 H   0  0  0  0  0  0  0  0  0  0  0  0
    4.6030   -0.6905   -1.0376 H   0  0  0  0  0  0  0  0  0  0  0  0
    3.7310   -2.3050    2.0291 H   0  0  0  0  0  0  0  0  0  0  0  0
    1.4543   -2.4300    2.9486 H   0  0  0  0  0  0  0  0  0  0  0  0
   -2.5674   -0.4194    2.5944 H   0  0  0  0  0  0  0  0  0  0  0  0
   -1.6072    0.7712    1.6831 H   0  0  0  0  0  0  0  0  0  0  0  0
   -2.2832   -2.0584    0.5942 H   0  0  0  0  0  0  0  0  0  0  0  0
   -1.6179   -0.7321   -0.3326 H   0  0  0  0  0  0  0  0  0  0  0  0
   -3.8179   -2.4203    2.1881 H   0  0  0  0  0  0  0  0  0  0  0  0
   -5.7926   -3.7102    2.8177 H   0  0  0  0  0  0  0  0  0  0  0  0
   -7.9639   -3.3185    1.6957 H   0  0  0  0  0  0  0  0  0  0  0  0
   -8.1545   -1.5940   -0.0674 H   0  0  0  0  0  0  0  0  0  0  0  0
   -6.3729    1.9935   -2.6158 H   0  0  0  0  0  0  0  0  0  0  0  0
   -4.5488    3.5640   -3.1865 H   0  0  0  0  0  0  0  0  0  0  0  0
   -2.3169    3.3019   -2.1482 H   0  0  0  0  0  0  0  0  0  0  0  0
   -1.8868    1.4878   -0.5733 H   0  0  0  0  0  0  0  0  0  0  0  0
    0.2240    0.7457    0.3044 H   0  0  0  0  0  0  0  0  0  0  0  0
    2.4782    0.8581   -0.6198 H   0  0  0  0  0  0  0  0  0  0  0  0
    4.3318    2.4111    2.3007 H   0  0  0  0  0  0  0  0  0  0  0  0
  1  2  1  0
  2  3  1  0
  3  4  1  0
  4  5  1  0
  5  6  1  0
  6  7  2  0
  7  8  1  0
  8  9  2  0
  9 10  1  0
 10 11  1  0
 11 12  1  0
 12 13  1  0
 13 14  1  0
 14 15  2  0
 15 16  1  0
 16 17  2  0
 17 18  1  0
 18 19  2  0
 19 14  1  0
 19 20  1  0
 20 21  1  0
 21 22  2  0
 22 23  1  0
 23 24  2  0
 24 25  1  0
 25 26  2  0
 26 13  1  0
 26 21  1  0
  9 27  1  0
 27 28  2  0
 28  6  1  0
  4 29  1  0
 29 30  2  0
 29 31  1  0
  1 32  1  0
  1 33  1  0
  1 34  1  0
  2 35  1  0
  2 36  1  0
  4 37  1  6
  5 38  1  0
  5 39  1  0
  7 40  1  0
  8 41  1  0
 11 42  1  0
 11 43  1  0
 12 44  1  0
 12 45  1  0
 15 46  1  0
 16 47  1  0
 17 48  1  0
 18 49  1  0
 22 50  1  0
 23 51  1  0
 24 52  1  0
 25 53  1  0
 27 54  1  0
 28 55  1  0
 31 56  1  0
M  END
> <ID>
HT1793

> <Class>
0.0

> <Clusters>
222

> <Fold>
1

$$$$