
     RDKit          3D

 75 75  0  0  0  0  0  0  0  0999 V2000
   -3.1921    4.6923    1.6363 C   0  0  0  0  0  0  0  0  0  0  0  0
   -2.1149    3.7336    2.0401 C   0  0  0  0  0  0  0  0  0  0  0  0
   -1.6592    2.7690    1.2277 C   0  0  0  0  0  0  0  0  0  0  0  0
   -2.1981    2.6258   -0.0985 N   0  0  0  0  0  0  0  0  0  0  0  0
   -3.0225    1.5279   -0.5279 C   0  0  0  0  0  0  0  0  0  0  0  0
   -3.6677    1.6544   -1.6072 O   0  0  0  0  0  0  0  0  0  0  0  0
   -3.1745    0.2517    0.2812 C   0  0  1  0  0  0  0  0  0  0  0  0
   -4.0302    0.4622    1.5469 C   0  0  0  0  0  0  0  0  0  0  0  0
   -5.6880    1.1208    1.1597 S   0  0  0  0  0  0  0  0  0  0  0  0
   -3.7792   -0.8147   -0.5340 N   0  0  0  0  0  0  0  0  0  0  0  0
   -3.2330   -2.1304   -0.7310 C   0  0  0  0  0  0  0  0  0  0  0  0
   -3.6710   -2.8239   -1.6912 O   0  0  0  0  0  0  0  0  0  0  0  0
   -2.0990   -2.6868    0.1160 C   0  0  2  0  0  0  0  0  0  0  0  0
   -0.7813   -2.4705   -0.6803 C   0  0  0  0  0  0  0  0  0  0  0  0
    0.4654   -2.2842    0.1547 C   0  0  0  0  0  0  0  0  0  0  0  0
    0.4011   -2.0979    1.3609 O   0  0  0  0  0  0  0  0  0  0  0  0
    1.8094   -2.2897   -0.5247 C   0  0  0  0  0  0  0  0  0  0  0  0
    2.4321   -0.8862   -0.5397 C   0  0  2  0  0  0  0  0  0  0  0  0
    1.4899    0.0569   -1.0595 O   0  0  0  0  0  0  0  0  0  0  0  0
    1.7518    1.4260   -1.1196 C   0  0  0  0  0  0  0  0  0  0  0  0
    2.4834    1.8728   -2.0475 O   0  0  0  0  0  0  0  0  0  0  0  0
    1.0780    2.3727   -0.1509 C   0  0  1  0  0  0  0  0  0  0  0  0
    0.6276    1.6338    1.0396 N   0  0  0  0  0  0  0  0  0  0  0  0
   -0.6165    1.8456    1.7230 C   0  0  0  0  0  0  0  0  0  0  0  0
   -0.8034    1.2639    2.8234 O   0  0  0  0  0  0  0  0  0  0  0  0
    2.0185    3.5469    0.2498 C   0  0  0  0  0  0  0  0  0  0  0  0
    3.2606    3.0833    1.0346 C   0  0  0  0  0  0  0  0  0  0  0  0
    1.2642    4.6256    1.0417 C   0  0  0  0  0  0  0  0  0  0  0  0
    3.7153   -0.8818   -1.3358 C   0  0  0  0  0  0  0  0  0  0  0  0
    3.7304   -1.0516   -2.6704 C   0  0  0  0  0  0  0  0  0  0  0  0
    5.0147   -1.0342   -3.4513 C   0  0  0  0  0  0  0  0  0  0  0  0
    5.8324   -2.3030   -3.1934 C   0  0  0  0  0  0  0  0  0  0  0  0
    7.3347   -2.3120   -4.2190 S   0  0  0  0  0  0  0  0  0  0  0  0
   -2.3541   -4.1894    0.4695 C   0  0  0  0  0  0  0  0  0  0  0  0
   -3.6703   -4.3567    1.2498 C   0  0  0  0  0  0  0  0  0  0  0  0
   -1.2072   -4.8040    1.2902 C   0  0  0  0  0  0  0  0  0  0  0  0
   -3.4195    5.3786    2.4787 H   0  0  0  0  0  0  0  0  0  0  0  0
   -2.8549    5.3009    0.7707 H   0  0  0  0  0  0  0  0  0  0  0  0
   -4.1142    4.1361    1.3710 H   0  0  0  0  0  0  0  0  0  0  0  0
   -1.7086    3.8253    3.0403 H   0  0  0  0  0  0  0  0  0  0  0  0
   -2.1851    3.4736   -0.7128 H   0  0  0  0  0  0  0  0  0  0  0  0
   -2.1537   -0.0416    0.5924 H   0  0  0  0  0  0  0  0  0  0  0  0
   -4.1530   -0.5059    2.0795 H   0  0  0  0  0  0  0  0  0  0  0  0
   -3.5237    1.1554    2.2488 H   0  0  0  0  0  0  0  0  0  0  0  0
   -6.0149    1.2322    2.5269 H   0  0  0  0  0  0  0  0  0  0  0  0
   -4.6641   -0.5935   -1.0480 H   0  0  0  0  0  0  0  0  0  0  0  0
   -2.0645   -2.1374    1.0766 H   0  0  0  0  0  0  0  0  0  0  0  0
   -0.6300   -3.3251   -1.3777 H   0  0  0  0  0  0  0  0  0  0  0  0
   -0.8628   -1.5564   -1.3131 H   0  0  0  0  0  0  0  0  0  0  0  0
    1.6940   -2.6606   -1.5669 H   0  0  0  0  0  0  0  0  0  0  0  0
    2.4864   -2.9934    0.0075 H   0  0  0  0  0  0  0  0  0  0  0  0
    2.6801   -0.6106    0.5108 H   0  0  0  0  0  0  0  0  0  0  0  0
    0.2144    2.7981   -0.6958 H   0  0  0  0  0  0  0  0  0  0  0  0
    1.3177    1.0076    1.5135 H   0  0  0  0  0  0  0  0  0  0  0  0
    2.3722    4.0375   -0.6876 H   0  0  0  0  0  0  0  0  0  0  0  0
    3.9685    3.9328    1.1542 H   0  0  0  0  0  0  0  0  0  0  0  0
    3.7921    2.2716    0.4924 H   0  0  0  0  0  0  0  0  0  0  0  0
    2.9787    2.7191    2.0470 H   0  0  0  0  0  0  0  0  0  0  0  0
    1.9228    5.5086    1.2091 H   0  0  0  0  0  0  0  0  0  0  0  0
    0.3692    4.9673    0.4753 H   0  0  0  0  0  0  0  0  0  0  0  0
    0.9375    4.2319    2.0295 H   0  0  0  0  0  0  0  0  0  0  0  0
    4.6489   -0.7390   -0.8013 H   0  0  0  0  0  0  0  0  0  0  0  0
    2.7944   -1.1488   -3.2123 H   0  0  0  0  0  0  0  0  0  0  0  0
    4.7638   -0.9846   -4.5317 H   0  0  0  0  0  0  0  0  0  0  0  0
    5.6012   -0.1277   -3.1889 H   0  0  0  0  0  0  0  0  0  0  0  0
    6.1307   -2.3643   -2.1246 H   0  0  0  0  0  0  0  0  0  0  0  0
    5.2227   -3.1991   -3.4492 H   0  0  0  0  0  0  0  0  0  0  0  0
    7.9220   -1.2374   -3.5227 H   0  0  0  0  0  0  0  0  0  0  0  0
   -2.4413   -4.7761   -0.4724 H   0  0  0  0  0  0  0  0  0  0  0  0
   -4.5398   -4.0498    0.6292 H   0  0  0  0  0  0  0  0  0  0  0  0
   -3.6574   -3.7456    2.1789 H   0  0  0  0  0  0  0  0  0  0  0  0
   -3.8172   -5.4217    1.5265 H   0  0  0  0  0  0  0  0  0  0  0  0
   -0.2800   -4.8682    0.6769 H   0  0  0  0  0  0  0  0  0  0  0  0
   -1.4683   -5.8366    1.6041 H   0  0  0  0  0  0  0  0  0  0  0  0
   -1.0119   -4.2017    2.2022 H   0  0  0  0  0  0  0  0  0  0  0  0
  1  2  1  0
  2  3  2  0
  3  4  1  0
  4  5  1  0
  5  6  2  0
  5  7  1  0
  7  8  1  0
  8  9  1  0
  7 10  1  0
 10 11  1  0
 11 12  2  0
 11 13  1  0
 13 14  1  0
 14 15  1  0
 15 16  2  0
 15 17  1  0
 17 18  1  0
 18 19  1  0
 19 20  1  0
 20 21  2  0
 20 22  1  0
 22 23  1  0
 23 24  1  0
 24  3  1  0
 24 25  2  0
 22 26  1  0
 26 27  1  0
 26 28  1  0
 18 29  1  0
 29 30  2  0
 30 31  1  0
 31 32  1  0
 32 33  1  0
 13 34  1  0
 34 35  1  0
 34 36  1  0
  1 37  1  0
  1 38  1  0
  1 39  1  0
  2 40  1  0
  4 41  1  0
  7 42  1  1
  8 43  1  0
  8 44  1  0
  9 45  1  0
 10 46  1  0
 13 47  1  1
 14 48  1  0
 14 49  1  0
 17 50  1  0
 17 51  1  0
 18 52  1  1
 22 53  1  6
 23 54  1  0
 26 55  1  0
 27 56  1  0
 27 57  1  0
 27 58  1  0
 28 59  1  0
 28 60  1  0
 28 61  1  0
 29 62  1  0
 30 63  1  0
 31 64  1  0
 31 65  1  0
 32 66  1  0
 32 67  1  0
 33 68  1  0
 34 69  1  0
 35 70  1  0
 35 71  1  0
 35 72  1  0
 36 73  1  0
 36 74  1  0
 36 75  1  0
M  END
> <ID>
HT1843

> <Class>
0.0

> <Clusters>
42

> <Fold>
1

$$$$