
     RDKit          3D

 39 41  0  0  0  0  0  0  0  0999 V2000
    4.3332    3.5345    1.7210 Cl  0  0  0  0  0  0  0  0  0  0  0  0
    3.5603    2.0501    1.1967 C   0  0  0  0  0  0  0  0  0  0  0  0
    2.7151    1.3553    2.0677 C   0  0  0  0  0  0  0  0  0  0  0  0
    2.0883    0.1786    1.6470 C   0  0  0  0  0  0  0  0  0  0  0  0
    2.2989   -0.3101    0.3464 C   0  0  0  0  0  0  0  0  0  0  0  0
    1.5963   -1.5538   -0.1280 C   0  0  0  0  0  0  0  0  0  0  0  0
    0.4139   -1.1511   -1.4630 S   0  0  0  0  0  0  0  0  0  0  0  0
   -0.9076   -0.4507   -0.3942 C   0  0  0  0  0  0  0  0  0  0  0  0
   -1.5407    0.7886   -1.0493 C   0  0  0  0  0  0  0  0  0  0  0  0
   -0.5615    1.8715   -1.1531 N   0  0  0  0  0  0  0  0  0  0  0  0
   -0.0200    2.5752   -0.1451 C   0  0  0  0  0  0  0  0  0  0  0  0
    0.8541    3.4882   -0.6897 C   0  0  0  0  0  0  0  0  0  0  0  0
    0.8609    3.3630   -2.0330 N   0  0  0  0  0  0  0  0  0  0  0  0
   -0.0175    2.3688   -2.2803 C   0  0  0  0  0  0  0  0  0  0  0  0
   -1.9431   -1.5084   -0.0397 C   0  0  0  0  0  0  0  0  0  0  0  0
   -2.1608   -1.7954    1.3233 C   0  0  0  0  0  0  0  0  0  0  0  0
   -3.0982   -2.7525    1.7150 C   0  0  0  0  0  0  0  0  0  0  0  0
   -3.8367   -3.4430    0.7551 C   0  0  0  0  0  0  0  0  0  0  0  0
   -5.0137   -4.6456    1.2506 Cl  0  0  0  0  0  0  0  0  0  0  0  0
   -3.6352   -3.1788   -0.6005 C   0  0  0  0  0  0  0  0  0  0  0  0
   -2.6971   -2.2221   -1.0100 C   0  0  0  0  0  0  0  0  0  0  0  0
   -2.5062   -1.9873   -2.7453 Cl  0  0  0  0  0  0  0  0  0  0  0  0
    3.1551    0.3893   -0.5201 C   0  0  0  0  0  0  0  0  0  0  0  0
    3.7816    1.5648   -0.0960 C   0  0  0  0  0  0  0  0  0  0  0  0
    2.5385    1.7289    3.0682 H   0  0  0  0  0  0  0  0  0  0  0  0
    1.4297   -0.3426    2.3306 H   0  0  0  0  0  0  0  0  0  0  0  0
    1.0679   -2.0705    0.7023 H   0  0  0  0  0  0  0  0  0  0  0  0
    2.3504   -2.2620   -0.5311 H   0  0  0  0  0  0  0  0  0  0  0  0
   -0.4432   -0.0851    0.5442 H   0  0  0  0  0  0  0  0  0  0  0  0
   -2.4013    1.1395   -0.4387 H   0  0  0  0  0  0  0  0  0  0  0  0
   -1.9268    0.5445   -2.0591 H   0  0  0  0  0  0  0  0  0  0  0  0
   -0.2385    2.4329    0.9053 H   0  0  0  0  0  0  0  0  0  0  0  0
    1.4547    4.2009   -0.1407 H   0  0  0  0  0  0  0  0  0  0  0  0
   -0.2489    2.0093   -3.2747 H   0  0  0  0  0  0  0  0  0  0  0  0
   -1.6034   -1.2761    2.0933 H   0  0  0  0  0  0  0  0  0  0  0  0
   -3.2492   -2.9564    2.7677 H   0  0  0  0  0  0  0  0  0  0  0  0
   -4.2085   -3.7231   -1.3408 H   0  0  0  0  0  0  0  0  0  0  0  0
    3.3277    0.0294   -1.5268 H   0  0  0  0  0  0  0  0  0  0  0  0
    4.4317    2.1013   -0.7751 H   0  0  0  0  0  0  0  0  0  0  0  0
  1  2  1  0
  2  3  2  0
  3  4  1  0
  4  5  2  0
  5  6  1  0
  6  7  1  0
  7  8  1  0
  8  9  1  0
  9 10  1  0
 10 11  1  0
 11 12  2  0
 12 13  1  0
 13 14  2  0
 14 10  1  0
  8 15  1  0
 15 16  2  0
 16 17  1  0
 17 18  2  0
 18 19  1  0
 18 20  1  0
 20 21  2  0
 21 15  1  0
 21 22  1  0
  5 23  1  0
 23 24  2  0
 24  2  1  0
  3 25  1  0
  4 26  1  0
  6 27  1  0
  6 28  1  0
  8 29  1  0
  9 30  1  0
  9 31  1  0
 11 32  1  0
 12 33  1  0
 14 34  1  0
 16 35  1  0
 17 36  1  0
 20 37  1  0
 23 38  1  0
 24 39  1  0
M  END
> <ID>
HT1931

> <Class>
0.0

> <Clusters>
93

> <Fold>
1

$$$$