
     RDKit          3D

 49 50  0  0  0  0  0  0  0  0999 V2000
   -4.5222    2.0297   -0.8619 C   0  0  0  0  0  0  0  0  0  0  0  0
   -3.5559    1.0235   -0.3508 N   0  0  0  0  0  0  0  0  0  0  0  0
   -2.3011    1.1540   -1.1606 C   0  0  0  0  0  0  0  0  0  0  0  0
   -1.1553    0.1936   -0.7661 C   0  0  0  0  0  0  0  0  0  0  0  0
    0.0650    0.3990   -1.6768 C   0  0  0  0  0  0  0  0  0  0  0  0
    1.1990   -0.5970   -1.3826 C   0  0  0  0  0  0  0  0  0  0  0  0
    1.8358   -0.3763    0.0147 C   0  0  0  0  0  0  0  0  0  0  0  0
    3.1748   -1.0219    0.2090 N   0  0  0  0  0  0  0  0  0  0  0  0
    3.1445   -2.4503   -0.1917 C   0  0  0  0  0  0  0  0  0  0  0  0
    4.2432   -0.2854   -0.5081 C   0  0  0  0  0  0  0  0  0  0  0  0
    4.7603    0.8075    0.4236 C   0  0  0  0  0  0  0  0  0  0  0  0
    4.2607    0.4368    1.8080 C   0  0  0  0  0  0  0  0  0  0  0  0
    3.5717   -0.9081    1.6335 C   0  0  0  0  0  0  0  0  0  0  0  0
   -4.1464   -0.3358   -0.4555 C   0  0  0  0  0  0  0  0  0  0  0  0
   -3.7967   -1.1117    0.8103 C   0  0  0  0  0  0  0  0  0  0  0  0
   -3.2407   -0.0982    1.7933 C   0  0  0  0  0  0  0  0  0  0  0  0
   -3.3144    1.2558    1.0963 C   0  0  0  0  0  0  0  0  0  0  0  0
   -5.4927    1.9774   -0.3161 H   0  0  0  0  0  0  0  0  0  0  0  0
   -4.1230    3.0625   -0.7370 H   0  0  0  0  0  0  0  0  0  0  0  0
   -4.7361    1.8632   -1.9424 H   0  0  0  0  0  0  0  0  0  0  0  0
   -2.5335    0.9848   -2.2375 H   0  0  0  0  0  0  0  0  0  0  0  0
   -1.9114    2.1955   -1.0825 H   0  0  0  0  0  0  0  0  0  0  0  0
   -1.4855   -0.8604   -0.8573 H   0  0  0  0  0  0  0  0  0  0  0  0
   -0.8496    0.3905    0.2797 H   0  0  0  0  0  0  0  0  0  0  0  0
   -0.2479    0.2605   -2.7352 H   0  0  0  0  0  0  0  0  0  0  0  0
    0.4446    1.4394   -1.5722 H   0  0  0  0  0  0  0  0  0  0  0  0
    0.7974   -1.6313   -1.4529 H   0  0  0  0  0  0  0  0  0  0  0  0
    1.9538   -0.4855   -2.1859 H   0  0  0  0  0  0  0  0  0  0  0  0
    1.9124    0.7180    0.2088 H   0  0  0  0  0  0  0  0  0  0  0  0
    1.1151   -0.7788    0.7618 H   0  0  0  0  0  0  0  0  0  0  0  0
    4.0967   -2.9667    0.0616 H   0  0  0  0  0  0  0  0  0  0  0  0
    2.3167   -2.9854    0.3231 H   0  0  0  0  0  0  0  0  0  0  0  0
    3.0129   -2.5570   -1.2901 H   0  0  0  0  0  0  0  0  0  0  0  0
    3.9013    0.1635   -1.4633 H   0  0  0  0  0  0  0  0  0  0  0  0
    5.0969   -0.9596   -0.7542 H   0  0  0  0  0  0  0  0  0  0  0  0
    5.8707    0.8529    0.3999 H   0  0  0  0  0  0  0  0  0  0  0  0
    4.3518    1.7961    0.1210 H   0  0  0  0  0  0  0  0  0  0  0  0
    3.5293    1.1942    2.1655 H   0  0  0  0  0  0  0  0  0  0  0  0
    5.0981    0.3681    2.5358 H   0  0  0  0  0  0  0  0  0  0  0  0
    2.7116   -1.0086    2.3337 H   0  0  0  0  0  0  0  0  0  0  0  0
    4.3078   -1.6974    1.9144 H   0  0  0  0  0  0  0  0  0  0  0  0
   -5.2587   -0.3010   -0.5278 H   0  0  0  0  0  0  0  0  0  0  0  0
   -3.7997   -0.8824   -1.3618 H   0  0  0  0  0  0  0  0  0  0  0  0
   -4.6988   -1.6101    1.2282 H   0  0  0  0  0  0  0  0  0  0  0  0
   -3.0372   -1.8932    0.5924 H   0  0  0  0  0  0  0  0  0  0  0  0
   -3.8377   -0.0908    2.7327 H   0  0  0  0  0  0  0  0  0  0  0  0
   -2.1882   -0.3501    2.0508 H   0  0  0  0  0  0  0  0  0  0  0  0
   -2.3914    1.8496    1.2839 H   0  0  0  0  0  0  0  0  0  0  0  0
   -4.1483    1.8270    1.5680 H   0  0  0  0  0  0  0  0  0  0  0  0
  1  2  1  0
  2  3  1  0
  3  4  1  0
  4  5  1  0
  5  6  1  0
  6  7  1  0
  7  8  1  0
  8  9  1  0
  8 10  1  0
 10 11  1  0
 11 12  1  0
 12 13  1  0
 13  8  1  0
  2 14  1  0
 14 15  1  0
 15 16  1  0
 16 17  1  0
 17  2  1  0
  1 18  1  0
  1 19  1  0
  1 20  1  0
  3 21  1  0
  3 22  1  0
  4 23  1  0
  4 24  1  0
  5 25  1  0
  5 26  1  0
  6 27  1  0
  6 28  1  0
  7 29  1  0
  7 30  1  0
  9 31  1  0
  9 32  1  0
  9 33  1  0
 10 34  1  0
 10 35  1  0
 11 36  1  0
 11 37  1  0
 12 38  1  0
 12 39  1  0
 13 40  1  0
 13 41  1  0
 14 42  1  0
 14 43  1  0
 15 44  1  0
 15 45  1  0
 16 46  1  0
 16 47  1  0
 17 48  1  0
 17 49  1  0
M  CHG  2   2   1   8   1
M  END
> <ID>
HT1624

> <Class>
0.0

> <Clusters>
224

> <Fold>
1

$$$$