
     RDKit          3D

 47 49  0  0  0  0  0  0  0  0999 V2000
    3.0371   -3.5433    1.9707 C   0  0  0  0  0  0  0  0  0  0  0  0
    2.5127   -2.2629    2.2579 O   0  0  0  0  0  0  0  0  0  0  0  0
    1.9029   -1.6819    1.1135 C   0  0  2  0  0  0  0  0  0  0  0  0
    2.8465   -1.4240    0.0144 N   0  0  0  0  0  0  0  0  0  0  0  0
    4.0822   -0.7191    0.2080 C   0  0  0  0  0  0  0  0  0  0  0  0
    4.3896   -0.2717    1.3460 O   0  0  0  0  0  0  0  0  0  0  0  0
    5.0019   -0.4909   -0.9490 C   0  0  0  0  0  0  0  0  0  0  0  0
    4.3082    0.7866   -2.0593 S   0  0  0  0  0  0  0  0  0  0  0  0
    5.2053    2.2161   -1.3600 C   0  0  0  0  0  0  0  0  0  0  0  0
    4.6238    2.6125   -0.0756 C   0  0  0  0  0  0  0  0  0  0  0  0
    4.1667    2.9292    0.9393 N   0  0  0  0  0  0  0  0  0  0  0  0
    1.0685   -0.5456    1.4691 C   0  0  1  0  0  0  0  0  0  0  0  0
    1.2445    1.0015    0.5169 S   0  0  0  0  0  0  0  0  0  0  0  0
   -0.4045    1.6109    1.0503 C   0  0  0  0  0  0  0  0  0  0  0  0
   -1.5607    0.7062    0.6390 C   0  0  0  0  0  0  0  0  0  0  0  0
   -1.4221   -0.6477    0.6708 C   0  0  0  0  0  0  0  0  0  0  0  0
   -0.1424   -1.1802    1.0155 N   0  0  0  0  0  0  0  0  0  0  0  0
    0.6461   -2.3836    0.6643 C   0  0  0  0  0  0  0  0  0  0  0  0
    0.3814   -3.5003    0.1466 O   0  0  0  0  0  0  0  0  0  0  0  0
   -2.4932   -1.6104    0.3197 C   0  0  0  0  0  0  0  0  0  0  0  0
   -3.4117   -1.3099   -0.4876 O   0  0  0  0  0  0  0  0  0  0  0  0
   -2.4587   -2.8917    0.8611 O   0  0  0  0  0  0  0  0  0  0  0  0
   -2.8682    1.3900    0.3152 C   0  0  0  0  0  0  0  0  0  0  0  0
   -3.0306    1.5940   -1.4899 S   0  0  0  0  0  0  0  0  0  0  0  0
   -4.5859    2.4781   -1.3670 C   0  0  0  0  0  0  0  0  0  0  0  0
   -4.6908    3.8133   -1.2449 N   0  0  0  0  0  0  0  0  0  0  0  0
   -5.9950    4.0476   -1.1650 N   0  0  0  0  0  0  0  0  0  0  0  0
   -6.6682    2.9077   -1.2342 N   0  0  0  0  0  0  0  0  0  0  0  0
   -5.8057    1.9177   -1.3734 N   0  0  0  0  0  0  0  0  0  0  0  0
   -6.1535    0.5039   -1.4132 C   0  0  0  0  0  0  0  0  0  0  0  0
    3.6361   -3.8786    2.8418 H   0  0  0  0  0  0  0  0  0  0  0  0
    2.2224   -4.2839    1.8287 H   0  0  0  0  0  0  0  0  0  0  0  0
    3.7157   -3.5364    1.0903 H   0  0  0  0  0  0  0  0  0  0  0  0
    2.6417   -1.8170   -0.9326 H   0  0  0  0  0  0  0  0  0  0  0  0
    6.0185   -0.2203   -0.5934 H   0  0  0  0  0  0  0  0  0  0  0  0
    5.0948   -1.4365   -1.5228 H   0  0  0  0  0  0  0  0  0  0  0  0
    6.2838    1.9881   -1.2346 H   0  0  0  0  0  0  0  0  0  0  0  0
    5.1124    3.0671   -2.0655 H   0  0  0  0  0  0  0  0  0  0  0  0
    1.0217   -0.3501    2.5645 H   0  0  0  0  0  0  0  0  0  0  0  0
   -0.4107    1.7244    2.1551 H   0  0  0  0  0  0  0  0  0  0  0  0
   -0.5379    2.6224    0.6115 H   0  0  0  0  0  0  0  0  0  0  0  0
   -3.1680   -3.5756    0.6256 H   0  0  0  0  0  0  0  0  0  0  0  0
   -3.7301    0.8325    0.7381 H   0  0  0  0  0  0  0  0  0  0  0  0
   -2.8903    2.3975    0.7843 H   0  0  0  0  0  0  0  0  0  0  0  0
   -7.2206    0.3832   -1.6955 H   0  0  0  0  0  0  0  0  0  0  0  0
   -5.9896    0.0523   -0.4127 H   0  0  0  0  0  0  0  0  0  0  0  0
   -5.5259   -0.0210   -2.1637 H   0  0  0  0  0  0  0  0  0  0  0  0
  1  2  1  0
  3  2  1  1
  3  4  1  0
  4  5  1  0
  5  6  2  0
  5  7  1  0
  7  8  1  0
  8  9  1  0
  9 10  1  0
 10 11  3  0
  3 12  1  0
 12 13  1  0
 13 14  1  0
 14 15  1  0
 15 16  2  0
 16 17  1  0
 17 12  1  0
 17 18  1  0
 18  3  1  0
 18 19  2  0
 16 20  1  0
 20 21  2  0
 20 22  1  0
 15 23  1  0
 23 24  1  0
 24 25  1  0
 25 26  2  0
 26 27  1  0
 27 28  2  0
 28 29  1  0
 29 25  1  0
 29 30  1  0
  1 31  1  0
  1 32  1  0
  1 33  1  0
  4 34  1  0
  7 35  1  0
  7 36  1  0
  9 37  1  0
  9 38  1  0
 12 39  1  1
 14 40  1  0
 14 41  1  0
 22 42  1  0
 23 43  1  0
 23 44  1  0
 30 45  1  0
 30 46  1  0
 30 47  1  0
M  END
> <ID>
HT0407

> <Class>
0.0

> <Clusters>
44

> <Fold>
1

$$$$