
     RDKit          3D

 57 60  0  0  0  0  0  0  0  0999 V2000
    9.1103    1.4349   -1.3831 N   0  0  0  0  0  0  0  0  0  0  0  0
    8.3105    0.4136   -0.7807 C   0  0  0  0  0  0  0  0  0  0  0  0
    8.7851   -0.7500   -0.6796 O   0  0  0  0  0  0  0  0  0  0  0  0
    6.9505    0.6985   -0.2611 C   0  0  0  0  0  0  0  0  0  0  0  0
    6.3781   -0.1400    0.7066 C   0  0  0  0  0  0  0  0  0  0  0  0
    5.0965    0.1284    1.1915 C   0  0  0  0  0  0  0  0  0  0  0  0
    4.3846    1.1989    0.7274 N   0  0  0  0  0  0  0  0  0  0  0  0
    3.0329    1.4553    1.2475 C   0  0  0  0  0  0  0  0  0  0  0  0
    2.0568    0.4107    0.7379 C   0  0  0  0  0  0  0  0  0  0  0  0
    1.3270   -0.3924    1.5580 C   0  0  0  0  0  0  0  0  0  0  0  0
    0.2876   -1.1792    0.9703 N   0  0  0  0  0  0  0  0  0  0  0  0
   -0.0840   -1.3955   -0.4045 C   0  0  2  0  0  0  0  0  0  0  0  0
    0.1201    0.1844   -1.2943 S   0  0  0  0  0  0  0  0  0  0  0  0
    1.8769    0.3255   -0.7737 C   0  0  0  0  0  0  0  0  0  0  0  0
   -1.4173   -1.8399   -0.0621 C   0  0  2  0  0  0  0  0  0  0  0  0
   -2.4782   -0.8804   -0.3822 N   0  0  0  0  0  0  0  0  0  0  0  0
   -3.5466   -1.1901   -1.2871 C   0  0  0  0  0  0  0  0  0  0  0  0
   -3.5792   -2.3102   -1.8679 O   0  0  0  0  0  0  0  0  0  0  0  0
   -4.6581   -0.1900   -1.4871 C   0  0  0  0  0  0  0  0  0  0  0  0
   -5.5877   -0.1790   -0.2926 C   0  0  0  0  0  0  0  0  0  0  0  0
   -5.8178    1.0186    0.4091 C   0  0  0  0  0  0  0  0  0  0  0  0
   -6.6701    1.0371    1.5179 C   0  0  0  0  0  0  0  0  0  0  0  0
   -7.3000   -0.1370    1.9385 C   0  0  0  0  0  0  0  0  0  0  0  0
   -7.0798   -1.3325    1.2503 C   0  0  0  0  0  0  0  0  0  0  0  0
   -6.2292   -1.3566    0.1403 C   0  0  0  0  0  0  0  0  0  0  0  0
   -5.5796   -0.4655   -3.0064 S   0  0  0  0  0  0  0  0  0  0  0  0
   -4.6567   -0.3343   -4.1866 O   0  0  0  0  0  0  0  0  0  0  0  0
   -6.1931   -1.8380   -3.0109 O   0  0  0  0  0  0  0  0  0  0  0  0
   -6.8056    0.6782   -3.1309 O   0  0  0  0  0  0  0  0  0  0  0  0
   -1.0215   -1.7418    1.3795 C   0  0  0  0  0  0  0  0  0  0  0  0
   -1.5870   -1.9900    2.4762 O   0  0  0  0  0  0  0  0  0  0  0  0
    1.4654   -0.4029    3.0293 C   0  0  0  0  0  0  0  0  0  0  0  0
    0.4360   -0.3892    3.7548 O   0  0  0  0  0  0  0  0  0  0  0  0
    2.7203   -0.4841    3.6256 O   0  0  0  0  0  0  0  0  0  0  0  0
    4.9196    2.0199   -0.2271 C   0  0  0  0  0  0  0  0  0  0  0  0
    6.1997    1.7850   -0.7346 C   0  0  0  0  0  0  0  0  0  0  0  0
    8.8314    2.4399   -1.3570 H   0  0  0  0  0  0  0  0  0  0  0  0
   10.0426    1.1947   -1.7865 H   0  0  0  0  0  0  0  0  0  0  0  0
    6.9206   -0.9936    1.0943 H   0  0  0  0  0  0  0  0  0  0  0  0
    4.6745   -0.5318    1.9377 H   0  0  0  0  0  0  0  0  0  0  0  0
    2.6666    2.4522    0.9160 H   0  0  0  0  0  0  0  0  0  0  0  0
    3.0723    1.5272    2.3514 H   0  0  0  0  0  0  0  0  0  0  0  0
    0.5312   -2.2066   -0.8551 H   0  0  0  0  0  0  0  0  0  0  0  0
    2.4391   -0.5545   -1.1525 H   0  0  0  0  0  0  0  0  0  0  0  0
    2.3024    1.2239   -1.2678 H   0  0  0  0  0  0  0  0  0  0  0  0
   -1.6384   -2.8853   -0.3698 H   0  0  0  0  0  0  0  0  0  0  0  0
   -2.4695    0.0616    0.0734 H   0  0  0  0  0  0  0  0  0  0  0  0
   -4.1807    0.8086   -1.5974 H   0  0  0  0  0  0  0  0  0  0  0  0
   -5.3391    1.9395    0.0988 H   0  0  0  0  0  0  0  0  0  0  0  0
   -6.8415    1.9629    2.0521 H   0  0  0  0  0  0  0  0  0  0  0  0
   -7.9582   -0.1204    2.7981 H   0  0  0  0  0  0  0  0  0  0  0  0
   -7.5666   -2.2422    1.5786 H   0  0  0  0  0  0  0  0  0  0  0  0
   -6.0643   -2.2942   -0.3746 H   0  0  0  0  0  0  0  0  0  0  0  0
   -6.3400    1.5529   -3.1232 H   0  0  0  0  0  0  0  0  0  0  0  0
    2.8164   -0.5049    4.6336 H   0  0  0  0  0  0  0  0  0  0  0  0
    4.3553    2.8614   -0.6114 H   0  0  0  0  0  0  0  0  0  0  0  0
    6.5795    2.4382   -1.5084 H   0  0  0  0  0  0  0  0  0  0  0  0
  1  2  1  0
  2  3  2  0
  2  4  1  0
  4  5  2  0
  5  6  1  0
  6  7  2  0
  7  8  1  0
  8  9  1  0
  9 10  2  0
 10 11  1  0
 11 12  1  0
 12 13  1  0
 13 14  1  0
 14  9  1  0
 12 15  1  0
 15 16  1  0
 16 17  1  0
 17 18  2  0
 17 19  1  0
 19 20  1  0
 20 21  2  0
 21 22  1  0
 22 23  2  0
 23 24  1  0
 24 25  2  0
 25 20  1  0
 19 26  1  0
 26 27  2  0
 26 28  2  0
 26 29  1  0
 15 30  1  0
 30 11  1  0
 30 31  2  0
 10 32  1  0
 32 33  2  0
 32 34  1  0
  7 35  1  0
 35 36  2  0
 36  4  1  0
  1 37  1  0
  1 38  1  0
  5 39  1  0
  6 40  1  0
  8 41  1  0
  8 42  1  0
 12 43  1  6
 14 44  1  0
 14 45  1  0
 15 46  1  6
 16 47  1  0
 19 48  1  0
 21 49  1  0
 22 50  1  0
 23 51  1  0
 24 52  1  0
 25 53  1  0
 29 54  1  0
 34 55  1  0
 35 56  1  0
 36 57  1  0
M  CHG  1   7   1
M  END
> <ID>
HT0421

> <Class>
0.0

> <Clusters>
46

> <Fold>
1

$$$$