
     RDKit          3D

 91 92  0  0  0  0  0  0  0  0999 V2000
    4.8550    2.6684    2.4729 N   0  0  0  0  0  0  0  0  0  0  0  0
    5.6074    1.9091    1.4811 C   0  0  0  0  0  0  0  0  0  0  0  0
    4.8304    1.8493    0.1595 C   0  0  0  0  0  0  0  0  0  0  0  0
    5.6798    1.3256   -1.0145 C   0  0  0  0  0  0  0  0  0  0  0  0
    6.1814   -0.1347   -0.8823 C   0  0  0  0  0  0  0  0  0  0  0  0
    7.2158   -0.3538   -1.8963 N   0  0  0  0  0  0  0  0  0  0  0  0
    5.0479   -1.1800   -1.0527 C   0  0  0  0  0  0  0  0  0  0  0  0
    4.2404   -1.3948    0.2038 C   0  0  0  0  0  0  0  0  0  0  0  0
    4.8409   -1.6906    1.2705 O   0  0  0  0  0  0  0  0  0  0  0  0
    2.8093   -1.2602    0.2291 N   0  0  0  0  0  0  0  0  0  0  0  0
    1.9261   -1.6836   -0.8592 C   0  0  0  0  0  0  0  0  0  0  0  0
    0.7934   -0.6540   -1.0734 C   0  0  0  0  0  0  0  0  0  0  0  0
   -0.1168   -1.0072   -2.1692 N   0  0  0  0  0  0  0  0  0  0  0  0
   -0.0169   -2.2067   -2.9370 C   0  0  0  0  0  0  0  0  0  0  0  0
    0.7274   -2.2277   -3.9519 O   0  0  0  0  0  0  0  0  0  0  0  0
   -0.7935   -3.4299   -2.5078 C   0  0  0  0  0  0  0  0  0  0  0  0
   -0.4762   -4.6698   -3.3628 C   0  0  0  0  0  0  0  0  0  0  0  0
   -1.0628   -5.8145   -2.8055 O   0  0  0  0  0  0  0  0  0  0  0  0
   -2.2321   -3.1419   -2.5620 N   0  0  0  0  0  0  0  0  0  0  0  0
   -3.0910   -3.1490   -1.4134 C   0  0  0  0  0  0  0  0  0  0  0  0
   -4.3087   -3.4431   -1.5689 O   0  0  0  0  0  0  0  0  0  0  0  0
   -2.5709   -2.8284   -0.0271 C   0  0  0  0  0  0  0  0  0  0  0  0
   -2.1630   -4.0691    0.6376 N   0  0  0  0  0  0  0  0  0  0  0  0
   -3.6074   -2.0663    0.8263 C   0  0  0  0  0  0  0  0  0  0  0  0
   -3.9581   -0.7912    0.1983 N   0  0  0  0  0  0  0  0  0  0  0  0
   -3.8486    0.5138    0.7945 C   0  0  0  0  0  0  0  0  0  0  0  0
   -4.5690    1.4379    0.3261 O   0  0  0  0  0  0  0  0  0  0  0  0
   -2.8214    0.8603    1.8636 C   0  0  0  0  0  0  0  0  0  0  0  0
   -1.5806    1.3262    1.2300 N   0  0  0  0  0  0  0  0  0  0  0  0
   -1.5349    2.3541    0.2269 C   0  0  0  0  0  0  0  0  0  0  0  0
   -2.2857    3.3664    0.3205 O   0  0  0  0  0  0  0  0  0  0  0  0
   -0.6030    2.2301   -0.9123 C   0  0  0  0  0  0  0  0  0  0  0  0
   -0.9772    2.4985   -2.1778 C   0  0  0  0  0  0  0  0  0  0  0  0
   -2.3293    2.8140   -2.5508 N   0  0  0  0  0  0  0  0  0  0  0  0
   -2.6672    3.2799   -3.8663 C   0  0  0  0  0  0  0  0  0  0  0  0
   -1.7976    3.3091   -4.7797 O   0  0  0  0  0  0  0  0  0  0  0  0
   -3.9966    3.7233   -4.1428 N   0  0  0  0  0  0  0  0  0  0  0  0
    0.7546    1.8547   -0.6535 N   0  0  0  0  0  0  0  0  0  0  0  0
    1.3405    0.7278   -1.3085 C   0  0  0  0  0  0  0  0  0  0  0  0
    2.3135    0.9000   -2.0874 O   0  0  0  0  0  0  0  0  0  0  0  0
   -3.3637    1.9106    2.8709 C   0  0  0  0  0  0  0  0  0  0  0  0
   -4.5770    1.4010    3.6812 C   0  0  0  0  0  0  0  0  0  0  0  0
   -4.1521    0.4086    4.7675 C   0  0  0  0  0  0  0  0  0  0  0  0
   -3.0372    0.9277    5.5583 N   0  0  0  0  0  0  0  0  0  0  0  0
   -2.1823    1.8011    5.1145 C   0  0  0  0  0  0  0  0  0  0  0  0
   -1.1268    2.2457    5.9663 N   0  0  0  0  0  0  0  0  0  0  0  0
   -2.2936    2.3211    3.7815 N   0  0  0  0  0  0  0  0  0  0  0  0
    4.8646    3.6755    2.1912 H   0  0  0  0  0  0  0  0  0  0  0  0
    5.3831    2.6134    3.3761 H   0  0  0  0  0  0  0  0  0  0  0  0
    5.7650    0.8806    1.8672 H   0  0  0  0  0  0  0  0  0  0  0  0
    6.6030    2.3819    1.3240 H   0  0  0  0  0  0  0  0  0  0  0  0
    3.9148    1.2338    0.2790 H   0  0  0  0  0  0  0  0  0  0  0  0
    4.4953    2.8779   -0.1033 H   0  0  0  0  0  0  0  0  0  0  0  0
    6.5561    1.9994   -1.1275 H   0  0  0  0  0  0  0  0  0  0  0  0
    5.0823    1.4243   -1.9468 H   0  0  0  0  0  0  0  0  0  0  0  0
    6.6740   -0.2677    0.1043 H   0  0  0  0  0  0  0  0  0  0  0  0
    7.6274   -1.3093   -1.7681 H   0  0  0  0  0  0  0  0  0  0  0  0
    6.7720   -0.3228   -2.8417 H   0  0  0  0  0  0  0  0  0  0  0  0
    4.4168   -0.8727   -1.9069 H   0  0  0  0  0  0  0  0  0  0  0  0
    5.4937   -2.1673   -1.3077 H   0  0  0  0  0  0  0  0  0  0  0  0
    2.3613   -1.1045    1.1595 H   0  0  0  0  0  0  0  0  0  0  0  0
    1.4824   -2.6611   -0.5781 H   0  0  0  0  0  0  0  0  0  0  0  0
    2.4823   -1.8376   -1.8031 H   0  0  0  0  0  0  0  0  0  0  0  0
    0.1943   -0.6388   -0.1399 H   0  0  0  0  0  0  0  0  0  0  0  0
   -0.9985   -0.4566   -2.2700 H   0  0  0  0  0  0  0  0  0  0  0  0
   -0.4859   -3.6694   -1.4724 H   0  0  0  0  0  0  0  0  0  0  0  0
    0.6263   -4.8282   -3.3897 H   0  0  0  0  0  0  0  0  0  0  0  0
   -0.8191   -4.5231   -4.4104 H   0  0  0  0  0  0  0  0  0  0  0  0
   -2.0122   -5.8267   -3.1010 H   0  0  0  0  0  0  0  0  0  0  0  0
   -2.6795   -3.0724   -3.5052 H   0  0  0  0  0  0  0  0  0  0  0  0
   -1.6822   -2.1707   -0.1275 H   0  0  0  0  0  0  0  0  0  0  0  0
   -3.0137   -4.6367    0.8615 H   0  0  0  0  0  0  0  0  0  0  0  0
   -1.7026   -3.8241    1.5467 H   0  0  0  0  0  0  0  0  0  0  0  0
   -3.2133   -1.9327    1.8496 H   0  0  0  0  0  0  0  0  0  0  0  0
   -4.5293   -2.6750    0.9347 H   0  0  0  0  0  0  0  0  0  0  0  0
   -4.4668   -0.8425   -0.7122 H   0  0  0  0  0  0  0  0  0  0  0  0
   -2.5648   -0.0311    2.4619 H   0  0  0  0  0  0  0  0  0  0  0  0
   -0.7047    0.7917    1.4269 H   0  0  0  0  0  0  0  0  0  0  0  0
   -0.2230    2.4619   -2.9529 H   0  0  0  0  0  0  0  0  0  0  0  0
   -3.1118    2.6828   -1.8745 H   0  0  0  0  0  0  0  0  0  0  0  0
   -4.7106    3.7525   -3.3776 H   0  0  0  0  0  0  0  0  0  0  0  0
   -4.2587    4.0611   -5.0933 H   0  0  0  0  0  0  0  0  0  0  0  0
    1.3907    2.5864   -0.2643 H   0  0  0  0  0  0  0  0  0  0  0  0
   -3.7076    2.8131    2.3209 H   0  0  0  0  0  0  0  0  0  0  0  0
   -5.3391    0.9362    3.0212 H   0  0  0  0  0  0  0  0  0  0  0  0
   -5.0720    2.2663    4.1763 H   0  0  0  0  0  0  0  0  0  0  0  0
   -5.0134    0.2180    5.4402 H   0  0  0  0  0  0  0  0  0  0  0  0
   -3.8607   -0.5624    4.3151 H   0  0  0  0  0  0  0  0  0  0  0  0
   -0.4515    2.9699    5.6349 H   0  0  0  0  0  0  0  0  0  0  0  0
   -1.0190    1.8514    6.9300 H   0  0  0  0  0  0  0  0  0  0  0  0
   -1.5680    2.9874    3.4354 H   0  0  0  0  0  0  0  0  0  0  0  0
  1  2  1  0
  2  3  1  0
  3  4  1  0
  4  5  1  0
  5  6  1  0
  5  7  1  0
  7  8  1  0
  8  9  2  0
  8 10  1  0
 10 11  1  0
 11 12  1  0
 12 13  1  0
 13 14  1  0
 14 15  2  0
 14 16  1  0
 16 17  1  0
 17 18  1  0
 16 19  1  0
 19 20  1  0
 20 21  2  0
 20 22  1  0
 22 23  1  0
 22 24  1  0
 24 25  1  0
 25 26  1  0
 26 27  2  0
 26 28  1  0
 28 29  1  0
 29 30  1  0
 30 31  2  0
 30 32  1  0
 32 33  2  3
 33 34  1  0
 34 35  1  0
 35 36  2  0
 35 37  1  0
 32 38  1  0
 38 39  1  0
 39 12  1  0
 39 40  2  0
 28 41  1  0
 41 42  1  0
 42 43  1  0
 43 44  1  0
 44 45  2  0
 45 46  1  0
 45 47  1  0
 47 41  1  0
  1 48  1  0
  1 49  1  0
  2 50  1  0
  2 51  1  0
  3 52  1  0
  3 53  1  0
  4 54  1  0
  4 55  1  0
  5 56  1  0
  6 57  1  0
  6 58  1  0
  7 59  1  0
  7 60  1  0
 10 61  1  0
 11 62  1  0
 11 63  1  0
 12 64  1  0
 13 65  1  0
 16 66  1  0
 17 67  1  0
 17 68  1  0
 18 69  1  0
 19 70  1  0
 22 71  1  0
 23 72  1  0
 23 73  1  0
 24 74  1  0
 24 75  1  0
 25 76  1  0
 28 77  1  0
 29 78  1  0
 33 79  1  0
 34 80  1  0
 37 81  1  0
 37 82  1  0
 38 83  1  0
 41 84  1  0
 42 85  1  0
 42 86  1  0
 43 87  1  0
 43 88  1  0
 46 89  1  0
 46 90  1  0
 47 91  1  0
M  END
> <ID>
HT0364

> <Class>
0.0

> <Clusters>
42

> <Fold>
1

$$$$