
     RDKit          3D

 53 56  0  0  0  0  0  0  0  0999 V2000
   -6.5288    1.7484    0.6096 O   0  0  0  0  0  0  0  0  0  0  0  0
   -5.5687    0.7439    0.8169 C   0  0  2  0  0  0  0  0  0  0  0  0
   -4.4070    1.2635    1.6242 C   0  0  0  0  0  0  0  0  0  0  0  0
   -4.3084    2.4968    1.8701 O   0  0  0  0  0  0  0  0  0  0  0  0
   -3.4037    0.3530    2.0951 N   0  0  0  0  0  0  0  0  0  0  0  0
   -2.1899    0.8251    2.7657 C   0  0  2  0  0  0  0  0  0  0  0  0
   -1.0957    1.1447    1.8728 C   0  0  2  0  0  0  0  0  0  0  0  0
   -1.3512    0.9492    0.0777 S   0  0  0  0  0  0  0  0  0  0  0  0
    0.4540    0.8735   -0.2529 C   0  0  0  0  0  0  0  0  0  0  0  0
    1.1720   -0.2754    0.4514 C   0  0  0  0  0  0  0  0  0  0  0  0
    0.8126   -0.6397    1.7150 C   0  0  0  0  0  0  0  0  0  0  0  0
   -0.2987    0.0296    2.3132 N   0  0  0  0  0  0  0  0  0  0  0  0
   -1.3631   -0.3115    3.2860 C   0  0  0  0  0  0  0  0  0  0  0  0
   -1.5256   -1.2059    4.1569 O   0  0  0  0  0  0  0  0  0  0  0  0
    1.4630   -1.7189    2.4985 C   0  0  0  0  0  0  0  0  0  0  0  0
    2.0515   -2.6814    1.9386 O   0  0  0  0  0  0  0  0  0  0  0  0
    1.3907   -1.6867    3.8878 O   0  0  0  0  0  0  0  0  0  0  0  0
    2.3561   -0.8807   -0.2712 C   0  0  0  0  0  0  0  0  0  0  0  0
    3.9125   -0.4232    0.5655 S   0  0  0  0  0  0  0  0  0  0  0  0
    4.9367   -1.3331   -0.5909 C   0  0  0  0  0  0  0  0  0  0  0  0
    5.2983   -2.6186   -0.4315 N   0  0  0  0  0  0  0  0  0  0  0  0
    6.0539   -2.8949   -1.4868 N   0  0  0  0  0  0  0  0  0  0  0  0
    6.1566   -1.8269   -2.2657 N   0  0  0  0  0  0  0  0  0  0  0  0
    5.4575   -0.8438   -1.7282 N   0  0  0  0  0  0  0  0  0  0  0  0
    5.3792    0.5120   -2.2600 C   0  0  0  0  0  0  0  0  0  0  0  0
    6.7038    1.5057   -1.6004 S   0  0  0  0  0  0  0  0  0  0  0  0
    6.5450    1.6371   -0.1121 O   0  0  0  0  0  0  0  0  0  0  0  0
    6.6633    2.8734   -2.2214 O   0  0  0  0  0  0  0  0  0  0  0  0
    8.1809    0.7769   -1.9356 O   0  0  0  0  0  0  0  0  0  0  0  0
   -5.0729    0.2465   -0.5189 C   0  0  0  0  0  0  0  0  0  0  0  0
   -4.5592    1.1484   -1.4681 C   0  0  0  0  0  0  0  0  0  0  0  0
   -4.0728    0.6832   -2.6931 C   0  0  0  0  0  0  0  0  0  0  0  0
   -4.0945   -0.6831   -2.9817 C   0  0  0  0  0  0  0  0  0  0  0  0
   -4.6036   -1.5871   -2.0458 C   0  0  0  0  0  0  0  0  0  0  0  0
   -5.0917   -1.1267   -0.8200 C   0  0  0  0  0  0  0  0  0  0  0  0
   -7.0106    1.8678    1.4701 H   0  0  0  0  0  0  0  0  0  0  0  0
   -6.0354   -0.0943    1.3860 H   0  0  0  0  0  0  0  0  0  0  0  0
   -3.5455   -0.6723    1.9423 H   0  0  0  0  0  0  0  0  0  0  0  0
   -2.3901    1.5854    3.5522 H   0  0  0  0  0  0  0  0  0  0  0  0
   -0.6018    2.1096    2.1241 H   0  0  0  0  0  0  0  0  0  0  0  0
    0.5757    0.7933   -1.3530 H   0  0  0  0  0  0  0  0  0  0  0  0
    0.9193    1.8320    0.0606 H   0  0  0  0  0  0  0  0  0  0  0  0
    1.8151   -2.4163    4.4484 H   0  0  0  0  0  0  0  0  0  0  0  0
    2.4111   -0.5023   -1.3135 H   0  0  0  0  0  0  0  0  0  0  0  0
    2.2473   -1.9810   -0.3522 H   0  0  0  0  0  0  0  0  0  0  0  0
    4.4042    0.9742   -1.9989 H   0  0  0  0  0  0  0  0  0  0  0  0
    5.4654    0.4831   -3.3666 H   0  0  0  0  0  0  0  0  0  0  0  0
    8.3039    0.8844   -2.9130 H   0  0  0  0  0  0  0  0  0  0  0  0
   -4.5274    2.2094   -1.2545 H   0  0  0  0  0  0  0  0  0  0  0  0
   -3.6760    1.3829   -3.4180 H   0  0  0  0  0  0  0  0  0  0  0  0
   -3.7142   -1.0417   -3.9299 H   0  0  0  0  0  0  0  0  0  0  0  0
   -4.6178   -2.6456   -2.2703 H   0  0  0  0  0  0  0  0  0  0  0  0
   -5.4749   -1.8421   -0.1041 H   0  0  0  0  0  0  0  0  0  0  0  0
  2  1  1  0
  2  3  1  0
  3  4  2  0
  3  5  1  0
  6  5  1  0
  6  7  1  0
  7  8  1  0
  8  9  1  0
  9 10  1  0
 10 11  2  0
 11 12  1  0
 12  7  1  0
 12 13  1  0
 13  6  1  0
 13 14  2  0
 11 15  1  0
 15 16  2  0
 15 17  1  0
 10 18  1  0
 18 19  1  0
 19 20  1  0
 20 21  2  0
 21 22  1  0
 22 23  2  0
 23 24  1  0
 24 20  1  0
 24 25  1  0
 25 26  1  0
 26 27  2  0
 26 28  2  0
 26 29  1  0
  2 30  1  0
 30 31  2  0
 31 32  1  0
 32 33  2  0
 33 34  1  0
 34 35  2  0
 35 30  1  0
  1 36  1  0
  2 37  1  1
  5 38  1  0
  6 39  1  1
  7 40  1  6
  9 41  1  0
  9 42  1  0
 17 43  1  0
 18 44  1  0
 18 45  1  0
 25 46  1  0
 25 47  1  0
 29 48  1  0
 31 49  1  0
 32 50  1  0
 33 51  1  0
 34 52  1  0
 35 53  1  0
M  END
> <ID>
HT0409

> <Class>
0.0

> <Clusters>
44

> <Fold>
1

$$$$