
     RDKit          3D

 57 60  0  0  0  0  0  0  0  0999 V2000
    7.2764   -1.0785   -1.0343 C   0  0  0  0  0  0  0  0  0  0  0  0
    6.2810   -0.0621   -0.6642 N   0  0  0  0  0  0  0  0  0  0  0  0
    6.8490    0.8302    0.3614 C   0  0  0  0  0  0  0  0  0  0  0  0
    5.8497    0.7035   -1.8552 C   0  0  0  0  0  0  0  0  0  0  0  0
    4.4125    1.2031   -1.6825 C   0  0  0  0  0  0  0  0  0  0  0  0
    3.4919    0.0767   -1.5491 N   0  0  0  0  0  0  0  0  0  0  0  0
    2.9939   -0.6129   -2.5584 N   0  0  0  0  0  0  0  0  0  0  0  0
    2.2172   -1.5721   -2.0745 N   0  0  0  0  0  0  0  0  0  0  0  0
    2.2021   -1.5209   -0.7485 N   0  0  0  0  0  0  0  0  0  0  0  0
    2.9961   -0.4824   -0.4321 C   0  0  0  0  0  0  0  0  0  0  0  0
    3.3472    0.0397    1.2496 S   0  0  0  0  0  0  0  0  0  0  0  0
    2.0085    1.2847    1.3135 C   0  0  0  0  0  0  0  0  0  0  0  0
    0.6369    0.6452    1.2479 C   0  0  0  0  0  0  0  0  0  0  0  0
    0.1730   -0.2240    2.1745 C   0  0  0  0  0  0  0  0  0  0  0  0
   -1.0400   -0.8972    1.8595 N   0  0  0  0  0  0  0  0  0  0  0  0
   -1.5492   -1.4085    0.6109 C   0  0  2  0  0  0  0  0  0  0  0  0
   -0.9566   -0.3945   -0.8136 S   0  0  0  0  0  0  0  0  0  0  0  0
   -0.3006    1.0444    0.1200 C   0  0  0  0  0  0  0  0  0  0  0  0
   -2.9310   -1.2860    1.0286 C   0  0  2  0  0  0  0  0  0  0  0  0
   -3.6817   -0.2242    0.3529 N   0  0  0  0  0  0  0  0  0  0  0  0
   -4.2587   -0.4164   -0.9466 C   0  0  0  0  0  0  0  0  0  0  0  0
   -4.1417   -1.5248   -1.5329 O   0  0  0  0  0  0  0  0  0  0  0  0
   -5.0216    0.6918   -1.6044 C   0  0  0  0  0  0  0  0  0  0  0  0
   -6.4914    0.4098   -1.5536 C   0  0  0  0  0  0  0  0  0  0  0  0
   -7.2554    0.1511   -2.6906 C   0  0  0  0  0  0  0  0  0  0  0  0
   -8.8424   -0.1195   -2.2021 S   0  0  0  0  0  0  0  0  0  0  0  0
   -8.4822    0.1080   -0.5774 C   0  0  0  0  0  0  0  0  0  0  0  0
   -9.4306    0.0087    0.4783 N   0  0  0  0  0  0  0  0  0  0  0  0
   -7.1771    0.3862   -0.3782 N   0  0  0  0  0  0  0  0  0  0  0  0
   -2.4285   -0.8391    2.3692 C   0  0  0  0  0  0  0  0  0  0  0  0
   -2.9656   -0.4983    3.4544 O   0  0  0  0  0  0  0  0  0  0  0  0
    0.8505   -0.5557    3.4532 C   0  0  0  0  0  0  0  0  0  0  0  0
    1.6587    0.2466    3.9885 O   0  0  0  0  0  0  0  0  0  0  0  0
    0.5673   -1.7523    4.1086 O   0  0  0  0  0  0  0  0  0  0  0  0
    6.8358   -1.8000   -1.7528 H   0  0  0  0  0  0  0  0  0  0  0  0
    7.5837   -1.6602   -0.1383 H   0  0  0  0  0  0  0  0  0  0  0  0
    8.1766   -0.6124   -1.4914 H   0  0  0  0  0  0  0  0  0  0  0  0
    6.1245    1.6271    0.6357 H   0  0  0  0  0  0  0  0  0  0  0  0
    7.0646    0.2529    1.2868 H   0  0  0  0  0  0  0  0  0  0  0  0
    7.7895    1.3078    0.0057 H   0  0  0  0  0  0  0  0  0  0  0  0
    6.5239    1.5684   -2.0496 H   0  0  0  0  0  0  0  0  0  0  0  0
    5.8698    0.0690   -2.7710 H   0  0  0  0  0  0  0  0  0  0  0  0
    4.3347    1.8716   -0.8008 H   0  0  0  0  0  0  0  0  0  0  0  0
    4.1259    1.8047   -2.5722 H   0  0  0  0  0  0  0  0  0  0  0  0
    2.1043    1.8882    2.2378 H   0  0  0  0  0  0  0  0  0  0  0  0
    2.1568    1.9961    0.4740 H   0  0  0  0  0  0  0  0  0  0  0  0
   -1.2496   -2.4724    0.4804 H   0  0  0  0  0  0  0  0  0  0  0  0
   -1.1594    1.6052    0.5478 H   0  0  0  0  0  0  0  0  0  0  0  0
    0.2034    1.7182   -0.6052 H   0  0  0  0  0  0  0  0  0  0  0  0
   -3.4901   -2.2458    1.0853 H   0  0  0  0  0  0  0  0  0  0  0  0
   -3.8429    0.6849    0.8443 H   0  0  0  0  0  0  0  0  0  0  0  0
   -4.6785    0.7889   -2.6586 H   0  0  0  0  0  0  0  0  0  0  0  0
   -4.8177    1.6565   -1.0965 H   0  0  0  0  0  0  0  0  0  0  0  0
   -6.8907    0.1239   -3.7083 H   0  0  0  0  0  0  0  0  0  0  0  0
   -9.1343    0.1396    1.4718 H   0  0  0  0  0  0  0  0  0  0  0  0
  -10.4246   -0.2325    0.2697 H   0  0  0  0  0  0  0  0  0  0  0  0
   -0.0631   -2.4399    3.7135 H   0  0  0  0  0  0  0  0  0  0  0  0
  1  2  1  0
  2  3  1  0
  2  4  1  0
  4  5  1  0
  5  6  1  0
  6  7  1  0
  7  8  2  0
  8  9  1  0
  9 10  2  0
 10  6  1  0
 10 11  1  0
 11 12  1  0
 12 13  1  0
 13 14  2  0
 14 15  1  0
 15 16  1  0
 16 17  1  0
 17 18  1  0
 18 13  1  0
 16 19  1  0
 19 20  1  0
 20 21  1  0
 21 22  2  0
 21 23  1  0
 23 24  1  0
 24 25  2  0
 25 26  1  0
 26 27  1  0
 27 28  1  0
 27 29  2  0
 29 24  1  0
 19 30  1  0
 30 15  1  0
 30 31  2  0
 14 32  1  0
 32 33  2  0
 32 34  1  0
  1 35  1  0
  1 36  1  0
  1 37  1  0
  3 38  1  0
  3 39  1  0
  3 40  1  0
  4 41  1  0
  4 42  1  0
  5 43  1  0
  5 44  1  0
 12 45  1  0
 12 46  1  0
 16 47  1  6
 18 48  1  0
 18 49  1  0
 19 50  1  1
 20 51  1  0
 23 52  1  0
 23 53  1  0
 25 54  1  0
 28 55  1  0
 28 56  1  0
 34 57  1  0
M  END
> <ID>
HT0414

> <Class>
0.0

> <Clusters>
44

> <Fold>
1

$$$$