
     RDKit          3D

 42 44  0  0  0  0  0  0  0  0999 V2000
   -6.1248   -2.9324    0.0142 Cl  0  0  0  0  0  0  0  0  0  0  0  0
   -4.6495   -2.0693   -0.3801 C   0  0  0  0  0  0  0  0  0  0  0  0
   -3.5795   -2.7467   -0.9739 C   0  0  0  0  0  0  0  0  0  0  0  0
   -2.4021   -2.0606   -1.2874 C   0  0  0  0  0  0  0  0  0  0  0  0
   -2.2894   -0.6872   -1.0155 C   0  0  0  0  0  0  0  0  0  0  0  0
   -1.0122    0.0503   -1.3168 C   0  0  0  0  0  0  0  0  0  0  0  0
   -0.1271    0.1223   -0.0610 C   0  0  0  0  0  0  0  0  0  0  0  0
    1.1886    0.9119   -0.2511 C   0  0  0  0  0  0  0  0  0  0  0  0
    0.9678    2.3879   -0.6315 C   0  0  0  0  0  0  0  0  0  0  0  0
    0.1005    3.0649    0.3324 N   0  0  0  0  0  0  0  0  0  0  0  0
   -1.1213    3.5722    0.1035 C   0  0  0  0  0  0  0  0  0  0  0  0
   -1.5765    4.1217    1.2807 C   0  0  0  0  0  0  0  0  0  0  0  0
   -0.6438    3.9670    2.2436 N   0  0  0  0  0  0  0  0  0  0  0  0
    0.3675    3.3196    1.6280 C   0  0  0  0  0  0  0  0  0  0  0  0
    2.2755    0.1282   -1.5084 S   0  0  0  0  0  0  0  0  0  0  0  0
    3.0626   -1.0354   -0.3734 C   0  0  0  0  0  0  0  0  0  0  0  0
    2.6340   -2.3772   -0.3169 C   0  0  0  0  0  0  0  0  0  0  0  0
    1.3678   -2.9870   -1.3749 Cl  0  0  0  0  0  0  0  0  0  0  0  0
    3.2444   -3.2689    0.5721 C   0  0  0  0  0  0  0  0  0  0  0  0
    4.2867   -2.8403    1.3951 C   0  0  0  0  0  0  0  0  0  0  0  0
    4.7334   -1.5200    1.3272 C   0  0  0  0  0  0  0  0  0  0  0  0
    4.1332   -0.6163    0.4435 C   0  0  0  0  0  0  0  0  0  0  0  0
    4.7435    1.0339    0.3883 Cl  0  0  0  0  0  0  0  0  0  0  0  0
   -3.3644   -0.0153   -0.4096 C   0  0  0  0  0  0  0  0  0  0  0  0
   -4.5403   -0.7039   -0.0972 C   0  0  0  0  0  0  0  0  0  0  0  0
   -3.6578   -3.8044   -1.1908 H   0  0  0  0  0  0  0  0  0  0  0  0
   -1.5816   -2.5994   -1.7429 H   0  0  0  0  0  0  0  0  0  0  0  0
   -0.4664   -0.4577   -2.1405 H   0  0  0  0  0  0  0  0  0  0  0  0
   -1.2697    1.0698   -1.6705 H   0  0  0  0  0  0  0  0  0  0  0  0
    0.1202   -0.9090    0.2685 H   0  0  0  0  0  0  0  0  0  0  0  0
   -0.7064    0.5836    0.7683 H   0  0  0  0  0  0  0  0  0  0  0  0
    1.7180    0.9088    0.7264 H   0  0  0  0  0  0  0  0  0  0  0  0
    0.5381    2.4630   -1.6534 H   0  0  0  0  0  0  0  0  0  0  0  0
    1.9493    2.9095   -0.6567 H   0  0  0  0  0  0  0  0  0  0  0  0
   -1.6447    3.5413   -0.8434 H   0  0  0  0  0  0  0  0  0  0  0  0
   -2.5313    4.6077    1.4295 H   0  0  0  0  0  0  0  0  0  0  0  0
    1.2878    3.0387    2.1237 H   0  0  0  0  0  0  0  0  0  0  0  0
    2.9166   -4.2997    0.6198 H   0  0  0  0  0  0  0  0  0  0  0  0
    4.7559   -3.5353    2.0794 H   0  0  0  0  0  0  0  0  0  0  0  0
    5.5500   -1.1997    1.9618 H   0  0  0  0  0  0  0  0  0  0  0  0
   -3.2891    1.0401   -0.1771 H   0  0  0  0  0  0  0  0  0  0  0  0
   -5.3637   -0.1764    0.3672 H   0  0  0  0  0  0  0  0  0  0  0  0
  1  2  1  0
  2  3  2  0
  3  4  1  0
  4  5  2  0
  5  6  1  0
  6  7  1  0
  7  8  1  0
  8  9  1  0
  9 10  1  0
 10 11  1  0
 11 12  2  0
 12 13  1  0
 13 14  2  0
 14 10  1  0
  8 15  1  0
 15 16  1  0
 16 17  2  0
 17 18  1  0
 17 19  1  0
 19 20  2  0
 20 21  1  0
 21 22  2  0
 22 16  1  0
 22 23  1  0
  5 24  1  0
 24 25  2  0
 25  2  1  0
  3 26  1  0
  4 27  1  0
  6 28  1  0
  6 29  1  0
  7 30  1  0
  7 31  1  0
  8 32  1  0
  9 33  1  0
  9 34  1  0
 11 35  1  0
 12 36  1  0
 14 37  1  0
 19 38  1  0
 20 39  1  0
 21 40  1  0
 24 41  1  0
 25 42  1  0
M  END
> <ID>
HT0340

> <Class>
0.0

> <Clusters>
93

> <Fold>
1

$$$$