
     RDKit          3D

 63 67  0  0  0  0  0  0  0  0999 V2000
   -4.1899   -0.7225   -1.6872 O   0  0  0  0  0  0  0  0  0  0  0  0
   -4.1259   -0.5500   -0.2899 C   0  0  0  0  0  0  0  0  0  0  0  0
   -3.0754    0.4869    0.0471 C   0  0  0  0  0  0  0  0  0  0  0  0
   -2.8193    0.7593    1.2543 O   0  0  0  0  0  0  0  0  0  0  0  0
   -2.4035    1.1552   -0.9809 O   0  0  0  0  0  0  0  0  0  0  0  0
   -1.3575    2.1016   -0.7514 C   0  0  1  0  0  0  0  0  0  0  0  0
   -0.0727    1.3939   -0.2272 C   0  0  0  0  0  0  0  0  0  0  0  0
    1.0837    1.6087   -1.1490 N   0  0  0  0  0  0  0  0  0  0  0  0
    2.3015    0.8671   -0.6938 C   0  0  0  0  0  0  0  0  0  0  0  0
    2.7288    1.1191    0.7734 C   0  0  0  0  0  0  0  0  0  0  0  0
    4.0778    0.4674    1.0807 C   0  0  0  0  0  0  0  0  0  0  0  0
    3.9767   -0.9498    0.9517 O   0  0  0  0  0  0  0  0  0  0  0  0
    5.0397   -1.8409    1.1539 C   0  0  0  0  0  0  0  0  0  0  0  0
    4.8045   -3.2096    0.9689 C   0  0  0  0  0  0  0  0  0  0  0  0
    5.8382   -4.1363    1.1432 C   0  0  0  0  0  0  0  0  0  0  0  0
    7.1166   -3.7014    1.4996 C   0  0  0  0  0  0  0  0  0  0  0  0
    7.3567   -2.3397    1.7109 C   0  0  0  0  0  0  0  0  0  0  0  0
    6.3259   -1.4098    1.5388 C   0  0  0  0  0  0  0  0  0  0  0  0
    0.7141    1.0865   -2.5033 C   0  0  0  0  0  0  0  0  0  0  0  0
   -0.5135    1.8231   -3.0905 C   0  0  0  0  0  0  0  0  0  0  0  0
   -1.0274    2.8415   -2.0632 C   0  0  0  0  0  0  0  0  0  0  0  0
    0.1093    3.8400   -1.7852 C   0  0  0  0  0  0  0  0  0  0  0  0
    1.3543    3.0750   -1.2648 C   0  0  0  0  0  0  0  0  0  0  0  0
   -5.4997   -0.1453    0.2194 C   0  0  0  0  0  0  0  0  0  0  0  0
   -5.9187    1.1344    0.5870 C   0  0  0  0  0  0  0  0  0  0  0  0
   -7.2790    1.2051    0.9128 C   0  0  0  0  0  0  0  0  0  0  0  0
   -7.9493   -0.0046    0.7868 C   0  0  0  0  0  0  0  0  0  0  0  0
   -6.8483   -1.1591    0.2611 S   0  0  0  0  0  0  0  0  0  0  0  0
   -3.7168   -1.8621    0.3457 C   0  0  0  0  0  0  0  0  0  0  0  0
   -3.2404   -2.9934   -0.3161 C   0  0  0  0  0  0  0  0  0  0  0  0
   -2.9401   -4.0591    0.5430 C   0  0  0  0  0  0  0  0  0  0  0  0
   -3.1688   -3.7809    1.8829 C   0  0  0  0  0  0  0  0  0  0  0  0
   -3.7439   -2.2057    1.9973 S   0  0  0  0  0  0  0  0  0  0  0  0
   -4.5376    0.1200   -2.0883 H   0  0  0  0  0  0  0  0  0  0  0  0
   -1.7098    2.8506   -0.0060 H   0  0  0  0  0  0  0  0  0  0  0  0
   -0.2578    0.3036   -0.0916 H   0  0  0  0  0  0  0  0  0  0  0  0
    0.1455    1.8145    0.7786 H   0  0  0  0  0  0  0  0  0  0  0  0
    2.1351   -0.2294   -0.8017 H   0  0  0  0  0  0  0  0  0  0  0  0
    3.1595    1.1215   -1.3572 H   0  0  0  0  0  0  0  0  0  0  0  0
    2.8260    2.2024    0.9806 H   0  0  0  0  0  0  0  0  0  0  0  0
    1.9786    0.6917    1.4718 H   0  0  0  0  0  0  0  0  0  0  0  0
    4.8504    0.8578    0.3831 H   0  0  0  0  0  0  0  0  0  0  0  0
    4.3697    0.7230    2.1223 H   0  0  0  0  0  0  0  0  0  0  0  0
    3.8192   -3.5549    0.6804 H   0  0  0  0  0  0  0  0  0  0  0  0
    5.6502   -5.1916    0.9879 H   0  0  0  0  0  0  0  0  0  0  0  0
    7.9164   -4.4196    1.6295 H   0  0  0  0  0  0  0  0  0  0  0  0
    8.3457   -2.0042    1.9945 H   0  0  0  0  0  0  0  0  0  0  0  0
    6.5377   -0.3620    1.7080 H   0  0  0  0  0  0  0  0  0  0  0  0
    0.4779   -0.0009   -2.4485 H   0  0  0  0  0  0  0  0  0  0  0  0
    1.5683    1.1933   -3.2103 H   0  0  0  0  0  0  0  0  0  0  0  0
   -1.3155    1.0962   -3.3446 H   0  0  0  0  0  0  0  0  0  0  0  0
   -0.2330    2.3460   -4.0311 H   0  0  0  0  0  0  0  0  0  0  0  0
   -1.9241    3.3715   -2.4521 H   0  0  0  0  0  0  0  0  0  0  0  0
   -0.2245    4.5886   -1.0331 H   0  0  0  0  0  0  0  0  0  0  0  0
    0.3632    4.3937   -2.7155 H   0  0  0  0  0  0  0  0  0  0  0  0
    1.6276    3.5104   -0.2816 H   0  0  0  0  0  0  0  0  0  0  0  0
    2.2103    3.2594   -1.9528 H   0  0  0  0  0  0  0  0  0  0  0  0
   -5.2693    2.0005    0.6117 H   0  0  0  0  0  0  0  0  0  0  0  0
   -7.7653    2.1184    1.2253 H   0  0  0  0  0  0  0  0  0  0  0  0
   -9.0019   -0.1673    0.9794 H   0  0  0  0  0  0  0  0  0  0  0  0
   -3.1102   -3.0539   -1.3881 H   0  0  0  0  0  0  0  0  0  0  0  0
   -2.5670   -5.0140    0.1942 H   0  0  0  0  0  0  0  0  0  0  0  0
   -3.0025   -4.4601    2.7086 H   0  0  0  0  0  0  0  0  0  0  0  0
  1  2  1  0
  2  3  1  0
  3  4  2  0
  3  5  1  0
  6  5  1  0
  6  7  1  0
  7  8  1  0
  8  9  1  0
  9 10  1  0
 10 11  1  0
 11 12  1  0
 12 13  1  0
 13 14  2  0
 14 15  1  0
 15 16  2  0
 16 17  1  0
 17 18  2  0
 18 13  1  0
  8 19  1  0
 19 20  1  0
 20 21  1  0
 21  6  1  0
 21 22  1  0
 22 23  1  0
 23  8  1  0
  2 24  1  0
 24 25  2  0
 25 26  1  0
 26 27  2  0
 27 28  1  0
 28 24  1  0
  2 29  1  0
 29 30  2  0
 30 31  1  0
 31 32  2  0
 32 33  1  0
 33 29  1  0
  1 34  1  0
  6 35  1  1
  7 36  1  0
  7 37  1  0
  9 38  1  0
  9 39  1  0
 10 40  1  0
 10 41  1  0
 11 42  1  0
 11 43  1  0
 14 44  1  0
 15 45  1  0
 16 46  1  0
 17 47  1  0
 18 48  1  0
 19 49  1  0
 19 50  1  0
 20 51  1  0
 20 52  1  0
 21 53  1  0
 22 54  1  0
 22 55  1  0
 23 56  1  0
 23 57  1  0
 25 58  1  0
 26 59  1  0
 27 60  1  0
 30 61  1  0
 31 62  1  0
 32 63  1  0
M  CHG  1   8   1
M  END
> <ID>
HT0068

> <Class>
0.0

> <Clusters>
155

> <Fold>
1

$$$$