
     RDKit          3D

 56 59  0  0  0  0  0  0  0  0999 V2000
   -3.8169    1.1588   -3.1363 N   0  0  0  0  0  0  0  0  0  0  0  0
   -3.5093    1.2595   -1.7101 C   0  0  0  0  0  0  0  0  0  0  0  0
   -4.7370    1.5410   -0.8570 C   0  0  0  0  0  0  0  0  0  0  0  0
   -6.0143    1.6923   -1.4404 C   0  0  0  0  0  0  0  0  0  0  0  0
   -7.1386    1.9361   -0.6507 C   0  0  0  0  0  0  0  0  0  0  0  0
   -7.0161    2.0287    0.7328 C   0  0  0  0  0  0  0  0  0  0  0  0
   -5.7685    1.8762    1.3342 C   0  0  0  0  0  0  0  0  0  0  0  0
   -4.6194    1.6408    0.5572 C   0  0  0  0  0  0  0  0  0  0  0  0
   -3.3032    1.4222    1.2775 C   0  0  0  0  0  0  0  0  0  0  0  0
   -3.0009   -0.0343    1.4979 C   0  0  0  0  0  0  0  0  0  0  0  0
   -3.8426   -0.9225    1.1812 O   0  0  0  0  0  0  0  0  0  0  0  0
   -1.7455   -0.4120    2.0772 N   0  0  0  0  0  0  0  0  0  0  0  0
   -1.3796   -1.8187    2.2664 C   0  0  0  0  0  0  0  0  0  0  0  0
   -0.7622   -2.4414    1.1147 C   0  0  0  0  0  0  0  0  0  0  0  0
   -0.6779   -1.4902   -0.4672 S   0  0  0  0  0  0  0  0  0  0  0  0
    0.9321   -0.6555   -0.1821 C   0  0  0  0  0  0  0  0  0  0  0  0
    2.0401   -1.6381    0.1525 C   0  0  0  0  0  0  0  0  0  0  0  0
    1.8494   -2.4761    1.1984 C   0  0  0  0  0  0  0  0  0  0  0  0
    0.5351   -2.5192    1.7466 N   0  0  0  0  0  0  0  0  0  0  0  0
   -0.0676   -1.9598    2.9785 C   0  0  0  0  0  0  0  0  0  0  0  0
    0.3600   -1.6677    4.1261 O   0  0  0  0  0  0  0  0  0  0  0  0
    2.8727   -3.3779    1.7803 C   0  0  0  0  0  0  0  0  0  0  0  0
    2.5086   -4.2880    2.5720 O   0  0  0  0  0  0  0  0  0  0  0  0
    4.2275   -3.2268    1.5087 O   0  0  0  0  0  0  0  0  0  0  0  0
    3.3164   -1.5694   -0.6483 C   0  0  0  0  0  0  0  0  0  0  0  0
    4.5097   -0.4677    0.1816 S   0  0  0  0  0  0  0  0  0  0  0  0
    5.7320   -0.6278   -1.1193 C   0  0  0  0  0  0  0  0  0  0  0  0
    6.6634   -1.5966   -1.1717 N   0  0  0  0  0  0  0  0  0  0  0  0
    7.3682   -1.3339   -2.2644 N   0  0  0  0  0  0  0  0  0  0  0  0
    6.8959   -0.2484   -2.8617 N   0  0  0  0  0  0  0  0  0  0  0  0
    5.8661    0.2000   -2.1670 N   0  0  0  0  0  0  0  0  0  0  0  0
    5.1158    1.4172   -2.4696 C   0  0  0  0  0  0  0  0  0  0  0  0
    5.6229    2.5765   -1.6653 C   0  0  0  0  0  0  0  0  0  0  0  0
    5.0611    3.6993   -1.7711 O   0  0  0  0  0  0  0  0  0  0  0  0
    6.7092    2.4270   -0.8071 O   0  0  0  0  0  0  0  0  0  0  0  0
   -2.9665    0.7914   -3.6213 H   0  0  0  0  0  0  0  0  0  0  0  0
   -3.9697    2.1254   -3.5062 H   0  0  0  0  0  0  0  0  0  0  0  0
   -3.0606    0.2994   -1.3763 H   0  0  0  0  0  0  0  0  0  0  0  0
   -2.7597    2.0663   -1.5599 H   0  0  0  0  0  0  0  0  0  0  0  0
   -6.1589    1.6185   -2.5105 H   0  0  0  0  0  0  0  0  0  0  0  0
   -8.1104    2.0470   -1.1131 H   0  0  0  0  0  0  0  0  0  0  0  0
   -7.8927    2.2093    1.3420 H   0  0  0  0  0  0  0  0  0  0  0  0
   -5.6995    1.9344    2.4140 H   0  0  0  0  0  0  0  0  0  0  0  0
   -3.3201    1.9263    2.2664 H   0  0  0  0  0  0  0  0  0  0  0  0
   -2.4694    1.8857    0.7134 H   0  0  0  0  0  0  0  0  0  0  0  0
   -1.0995    0.3416    2.4030 H   0  0  0  0  0  0  0  0  0  0  0  0
   -2.1823   -2.4185    2.7483 H   0  0  0  0  0  0  0  0  0  0  0  0
   -1.1636   -3.4628    0.9333 H   0  0  0  0  0  0  0  0  0  0  0  0
    0.8187    0.0633    0.6573 H   0  0  0  0  0  0  0  0  0  0  0  0
    1.1791   -0.0627   -1.0873 H   0  0  0  0  0  0  0  0  0  0  0  0
    4.9151   -3.8463    1.9220 H   0  0  0  0  0  0  0  0  0  0  0  0
    3.1026   -1.1635   -1.6590 H   0  0  0  0  0  0  0  0  0  0  0  0
    3.7437   -2.5811   -0.8063 H   0  0  0  0  0  0  0  0  0  0  0  0
    5.2134    1.6567   -3.5509 H   0  0  0  0  0  0  0  0  0  0  0  0
    4.0386    1.2560   -2.2474 H   0  0  0  0  0  0  0  0  0  0  0  0
    7.0549    3.2099   -0.2644 H   0  0  0  0  0  0  0  0  0  0  0  0
  1  2  1  0
  2  3  1  0
  3  4  2  0
  4  5  1  0
  5  6  2  0
  6  7  1  0
  7  8  2  0
  8  3  1  0
  8  9  1  0
  9 10  1  0
 10 11  2  0
 10 12  1  0
 12 13  1  0
 13 14  1  0
 14 15  1  0
 15 16  1  0
 16 17  1  0
 17 18  2  0
 18 19  1  0
 19 14  1  0
 19 20  1  0
 20 13  1  0
 20 21  2  0
 18 22  1  0
 22 23  2  0
 22 24  1  0
 17 25  1  0
 25 26  1  0
 26 27  1  0
 27 28  2  0
 28 29  1  0
 29 30  2  0
 30 31  1  0
 31 27  1  0
 31 32  1  0
 32 33  1  0
 33 34  2  0
 33 35  1  0
  1 36  1  0
  1 37  1  0
  2 38  1  0
  2 39  1  0
  4 40  1  0
  5 41  1  0
  6 42  1  0
  7 43  1  0
  9 44  1  0
  9 45  1  0
 12 46  1  0
 13 47  1  0
 14 48  1  0
 16 49  1  0
 16 50  1  0
 24 51  1  0
 25 52  1  0
 25 53  1  0
 32 54  1  0
 32 55  1  0
 35 56  1  0
M  END
> <ID>
HT0411

> <Class>
0.0

> <Clusters>
44

> <Fold>
1

$$$$