
     RDKit          3D

 73 75  0  0  0  0  0  0  0  0999 V2000
    3.7312   -0.7175   -2.2588 C   0  0  0  0  0  0  0  0  0  0  0  0
    2.8159   -0.1137   -1.1744 C   0  0  2  0  0  0  0  0  0  0  0  0
    3.2617   -0.6314    0.2231 C   0  0  0  0  0  0  0  0  0  0  0  0
    4.5925   -0.0041    0.7061 C   0  0  0  0  0  0  0  0  0  0  0  0
    5.7164   -1.0527    0.8239 C   0  0  0  0  0  0  0  0  0  0  0  0
    7.1269   -0.4371    1.0496 C   0  0  0  0  0  0  0  0  0  0  0  0
    8.1640   -1.5727    1.1443 C   0  0  0  0  0  0  0  0  0  0  0  0
    7.1719    0.3806    2.3533 C   0  0  0  0  0  0  0  0  0  0  0  0
    7.4698    0.4167   -0.0172 O   0  0  0  0  0  0  0  0  0  0  0  0
    1.3099   -0.3714   -1.5441 C   0  0  1  0  0  0  0  0  0  0  0  0
    0.6824   -1.7051   -1.0705 C   0  0  0  0  0  0  0  0  0  0  0  0
   -0.8282   -1.4371   -0.9213 C   0  0  0  0  0  0  0  0  0  0  0  0
   -1.0298   -0.0175   -1.4635 C   0  0  0  0  0  0  0  0  0  0  0  0
   -2.2387    0.8089   -1.0819 C   0  0  0  0  0  0  0  0  0  0  0  0
   -3.3093    0.2475   -0.4800 C   0  0  0  0  0  0  0  0  0  0  0  0
   -4.5951    0.9463   -0.2446 C   0  0  0  0  0  0  0  0  0  0  0  0
   -5.5677    0.4851    0.5731 C   0  0  0  0  0  0  0  0  0  0  0  0
   -6.9251    1.1610    0.5118 C   0  0  0  0  0  0  0  0  0  0  0  0
   -8.0742    0.3081    1.1097 C   0  0  2  0  0  0  0  0  0  0  0  0
   -8.3351    0.6436    2.4528 O   0  0  0  0  0  0  0  0  0  0  0  0
   -7.8004   -1.2004    0.9663 C   0  0  0  0  0  0  0  0  0  0  0  0
   -6.5400   -1.6201    1.7375 C   0  0  0  0  0  0  0  0  0  0  0  0
   -5.3886   -0.6695    1.5046 C   0  0  0  0  0  0  0  0  0  0  0  0
   -4.2870   -0.7987    2.2532 C   0  0  0  0  0  0  0  0  0  0  0  0
   -2.2580    2.2297   -1.6388 C   0  0  0  0  0  0  0  0  0  0  0  0
   -0.8718    2.9255   -1.6992 C   0  0  0  0  0  0  0  0  0  0  0  0
    0.3211    1.9919   -2.0055 C   0  0  0  0  0  0  0  0  0  0  0  0
    0.2764    0.7113   -1.1376 C   0  0  2  0  0  0  0  0  0  0  0  0
    0.3790    1.0735    0.3751 C   0  0  0  0  0  0  0  0  0  0  0  0
    3.6201   -1.8226   -2.2901 H   0  0  0  0  0  0  0  0  0  0  0  0
    4.7971   -0.4671   -2.0685 H   0  0  0  0  0  0  0  0  0  0  0  0
    3.4787   -0.3048   -3.2593 H   0  0  0  0  0  0  0  0  0  0  0  0
    2.9713    0.9872   -1.2060 H   0  0  0  0  0  0  0  0  0  0  0  0
    2.4969   -0.4011    0.9850 H   0  0  0  0  0  0  0  0  0  0  0  0
    3.3375   -1.7420    0.2060 H   0  0  0  0  0  0  0  0  0  0  0  0
    4.4222    0.4523    1.7058 H   0  0  0  0  0  0  0  0  0  0  0  0
    4.9134    0.8188    0.0304 H   0  0  0  0  0  0  0  0  0  0  0  0
    5.7385   -1.6622   -0.1064 H   0  0  0  0  0  0  0  0  0  0  0  0
    5.4726   -1.7404    1.6638 H   0  0  0  0  0  0  0  0  0  0  0  0
    9.1879   -1.1561    1.2504 H   0  0  0  0  0  0  0  0  0  0  0  0
    7.9503   -2.2261    2.0177 H   0  0  0  0  0  0  0  0  0  0  0  0
    8.1437   -2.1970    0.2246 H   0  0  0  0  0  0  0  0  0  0  0  0
    6.8334   -0.2339    3.2186 H   0  0  0  0  0  0  0  0  0  0  0  0
    6.5313    1.2832    2.2783 H   0  0  0  0  0  0  0  0  0  0  0  0
    8.2078    0.7305    2.5509 H   0  0  0  0  0  0  0  0  0  0  0  0
    7.4168   -0.1122   -0.8606 H   0  0  0  0  0  0  0  0  0  0  0  0
    1.2650   -0.4098   -2.6596 H   0  0  0  0  0  0  0  0  0  0  0  0
    1.0775   -2.0404   -0.0902 H   0  0  0  0  0  0  0  0  0  0  0  0
    0.8703   -2.5099   -1.8154 H   0  0  0  0  0  0  0  0  0  0  0  0
   -1.4252   -2.1735   -1.5031 H   0  0  0  0  0  0  0  0  0  0  0  0
   -1.1137   -1.5004    0.1514 H   0  0  0  0  0  0  0  0  0  0  0  0
   -1.1091   -0.1326   -2.5722 H   0  0  0  0  0  0  0  0  0  0  0  0
   -3.2646   -0.7944   -0.2036 H   0  0  0  0  0  0  0  0  0  0  0  0
   -4.8161    1.8205   -0.8457 H   0  0  0  0  0  0  0  0  0  0  0  0
   -7.1736    1.3691   -0.5558 H   0  0  0  0  0  0  0  0  0  0  0  0
   -6.8687    2.1430    1.0347 H   0  0  0  0  0  0  0  0  0  0  0  0
   -8.9995    0.5358    0.5371 H   0  0  0  0  0  0  0  0  0  0  0  0
   -7.4698    0.6859    2.9372 H   0  0  0  0  0  0  0  0  0  0  0  0
   -7.6665   -1.4421   -0.1141 H   0  0  0  0  0  0  0  0  0  0  0  0
   -8.6753   -1.7810    1.3358 H   0  0  0  0  0  0  0  0  0  0  0  0
   -6.7770   -1.6550    2.8240 H   0  0  0  0  0  0  0  0  0  0  0  0
   -6.2449   -2.6438    1.4232 H   0  0  0  0  0  0  0  0  0  0  0  0
   -3.4823   -0.0787    2.1989 H   0  0  0  0  0  0  0  0  0  0  0  0
   -4.1909   -1.6133    2.9602 H   0  0  0  0  0  0  0  0  0  0  0  0
   -2.6905    2.1905   -2.6636 H   0  0  0  0  0  0  0  0  0  0  0  0
   -2.9070    2.8868   -1.0227 H   0  0  0  0  0  0  0  0  0  0  0  0
   -0.9079    3.7211   -2.4774 H   0  0  0  0  0  0  0  0  0  0  0  0
   -0.6833    3.4527   -0.7392 H   0  0  0  0  0  0  0  0  0  0  0  0
    0.2958    1.7258   -3.0863 H   0  0  0  0  0  0  0  0  0  0  0  0
    1.2683    2.5441   -1.8228 H   0  0  0  0  0  0  0  0  0  0  0  0
   -0.4657    1.7090    0.7112 H   0  0  0  0  0  0  0  0  0  0  0  0
    1.3173    1.6313    0.5790 H   0  0  0  0  0  0  0  0  0  0  0  0
    0.3475    0.1717    1.0205 H   0  0  0  0  0  0  0  0  0  0  0  0
  2  1  1  0
  2  3  1  0
  3  4  1  0
  4  5  1  0
  5  6  1  0
  6  7  1  0
  6  8  1  0
  6  9  1  0
 10  2  1  0
 10 11  1  0
 11 12  1  0
 12 13  1  0
 13 14  1  0
 14 15  2  3
 15 16  1  0
 16 17  2  3
 17 18  1  0
 18 19  1  0
 19 20  1  0
 19 21  1  0
 21 22  1  0
 22 23  1  0
 23 17  1  0
 23 24  2  3
 14 25  1  0
 25 26  1  0
 26 27  1  0
 27 28  1  0
 28 10  1  0
 28 13  1  0
 28 29  1  1
  1 30  1  0
  1 31  1  0
  1 32  1  0
  2 33  1  1
  3 34  1  0
  3 35  1  0
  4 36  1  0
  4 37  1  0
  5 38  1  0
  5 39  1  0
  7 40  1  0
  7 41  1  0
  7 42  1  0
  8 43  1  0
  8 44  1  0
  8 45  1  0
  9 46  1  0
 10 47  1  6
 11 48  1  0
 11 49  1  0
 12 50  1  0
 12 51  1  0
 13 52  1  0
 15 53  1  0
 16 54  1  0
 18 55  1  0
 18 56  1  0
 19 57  1  6
 20 58  1  0
 21 59  1  0
 21 60  1  0
 22 61  1  0
 22 62  1  0
 24 63  1  0
 24 64  1  0
 25 65  1  0
 25 66  1  0
 26 67  1  0
 26 68  1  0
 27 69  1  0
 27 70  1  0
 29 71  1  0
 29 72  1  0
 29 73  1  0
M  END
> <ID>
HT0349

> <Class>
0.0

> <Clusters>
41

> <Fold>
1

$$$$