
     RDKit          3D

 66 70  0  0  0  0  0  0  0  0999 V2000
   -5.5833   -0.1782    2.5938 O   0  0  0  0  0  0  0  0  0  0  0  0
   -5.7239    0.9202    1.9844 C   0  0  0  0  0  0  0  0  0  0  0  0
   -6.2221    2.0273    2.6726 C   0  0  0  0  0  0  0  0  0  0  0  0
   -6.4189    3.2363    1.9910 C   0  0  0  0  0  0  0  0  0  0  0  0
   -6.1301    3.3169    0.6599 N   0  0  0  0  0  0  0  0  0  0  0  0
   -5.6428    2.2511   -0.0299 C   0  0  0  0  0  0  0  0  0  0  0  0
   -5.3934    1.0356    0.6197 C   0  0  0  0  0  0  0  0  0  0  0  0
   -6.8669    4.4537    2.7405 C   0  0  0  0  0  0  0  0  0  0  0  0
   -4.7240   -0.0527   -0.1262 C   0  0  0  0  0  0  0  0  0  0  0  0
   -5.0770   -0.3037   -1.3099 O   0  0  0  0  0  0  0  0  0  0  0  0
   -3.5906   -0.7244    0.4320 N   0  0  0  0  0  0  0  0  0  0  0  0
   -2.3237   -0.7880   -0.3021 C   0  0  1  0  0  0  0  0  0  0  0  0
   -1.1928   -1.0834    0.6453 C   0  0  0  0  0  0  0  0  0  0  0  0
   -2.3534   -1.8287   -1.3976 C   0  0  0  0  0  0  0  0  0  0  0  0
   -1.1261   -2.2143    1.2031 O   0  0  0  0  0  0  0  0  0  0  0  0
   -0.1941   -0.0870    0.9185 N   0  0  0  0  0  0  0  0  0  0  0  0
   -3.1722   -2.9724   -1.3056 C   0  0  0  0  0  0  0  0  0  0  0  0
   -1.4851   -1.6978   -2.4972 C   0  0  0  0  0  0  0  0  0  0  0  0
    0.9587   -0.3800    1.7778 C   0  0  1  0  0  0  0  0  0  0  0  0
   -3.1432   -3.9469   -2.3078 C   0  0  0  0  0  0  0  0  0  0  0  0
   -1.4547   -2.6753   -3.4978 C   0  0  0  0  0  0  0  0  0  0  0  0
    2.1683   -0.7024    1.0537 C   0  0  1  0  0  0  0  0  0  0  0  0
    1.6325    0.8735    2.2366 C   0  0  0  0  0  0  0  0  0  0  0  0
   -2.2837   -3.8005   -3.4060 C   0  0  0  0  0  0  0  0  0  0  0  0
    2.0966   -0.8432   -0.7637 S   0  0  0  0  0  0  0  0  0  0  0  0
    2.7978    0.5511    1.3752 N   0  0  0  0  0  0  0  0  0  0  0  0
    1.3317    1.8077    3.0274 O   0  0  0  0  0  0  0  0  0  0  0  0
   -2.2403   -4.7686   -4.4045 O   0  0  0  0  0  0  0  0  0  0  0  0
    3.9130   -0.6272   -0.9037 C   0  0  0  0  0  0  0  0  0  0  0  0
    3.8863    1.2467    0.7567 C   0  0  0  0  0  0  0  0  0  0  0  0
    4.4014    0.7241   -0.3922 C   0  0  0  0  0  0  0  0  0  0  0  0
    4.2961    2.5603    1.3085 C   0  0  0  0  0  0  0  0  0  0  0  0
    5.3882    1.4791   -1.2595 C   0  0  0  0  0  0  0  0  0  0  0  0
    5.4965    2.9450    1.2463 O   0  0  0  0  0  0  0  0  0  0  0  0
    3.3534    3.3836    1.9054 O   0  0  0  0  0  0  0  0  0  0  0  0
    7.1230    1.2682   -0.7030 S   0  0  0  0  0  0  0  0  0  0  0  0
    7.2412   -0.4721   -1.1386 C   0  0  0  0  0  0  0  0  0  0  0  0
    7.4072   -0.9311   -2.3925 N   0  0  0  0  0  0  0  0  0  0  0  0
    7.1451   -1.4974   -0.2772 N   0  0  0  0  0  0  0  0  0  0  0  0
    7.4069   -2.2528   -2.2700 N   0  0  0  0  0  0  0  0  0  0  0  0
    7.2532   -2.5965   -0.9956 N   0  0  0  0  0  0  0  0  0  0  0  0
    7.0267   -1.4543    1.1735 C   0  0  0  0  0  0  0  0  0  0  0  0
   -6.4427    1.9528    3.7312 H   0  0  0  0  0  0  0  0  0  0  0  0
   -6.2671    4.2221    0.1511 H   0  0  0  0  0  0  0  0  0  0  0  0
   -5.3995    2.3661   -1.0808 H   0  0  0  0  0  0  0  0  0  0  0  0
   -5.9815    4.9711    3.1689 H   0  0  0  0  0  0  0  0  0  0  0  0
   -7.4026    5.1551    2.0629 H   0  0  0  0  0  0  0  0  0  0  0  0
   -7.5594    4.1726    3.5638 H   0  0  0  0  0  0  0  0  0  0  0  0
   -3.6086   -0.9941    1.4425 H   0  0  0  0  0  0  0  0  0  0  0  0
   -2.1542    0.2111   -0.7636 H   0  0  0  0  0  0  0  0  0  0  0  0
   -0.2522    0.8393    0.4327 H   0  0  0  0  0  0  0  0  0  0  0  0
   -3.8312   -3.1147   -0.4579 H   0  0  0  0  0  0  0  0  0  0  0  0
   -0.8224   -0.8443   -2.5714 H   0  0  0  0  0  0  0  0  0  0  0  0
    0.7176   -1.0537    2.6287 H   0  0  0  0  0  0  0  0  0  0  0  0
   -3.7824   -4.8164   -2.2276 H   0  0  0  0  0  0  0  0  0  0  0  0
   -0.7780   -2.5679   -4.3322 H   0  0  0  0  0  0  0  0  0  0  0  0
    2.7261   -1.5474    1.5225 H   0  0  0  0  0  0  0  0  0  0  0  0
   -2.8181   -5.5970   -4.3713 H   0  0  0  0  0  0  0  0  0  0  0  0
    4.2016   -0.7768   -1.9689 H   0  0  0  0  0  0  0  0  0  0  0  0
    4.4107   -1.4294   -0.3205 H   0  0  0  0  0  0  0  0  0  0  0  0
    5.3185    1.1530   -2.3131 H   0  0  0  0  0  0  0  0  0  0  0  0
    5.1362    2.5611   -1.2720 H   0  0  0  0  0  0  0  0  0  0  0  0
    3.6198    4.2723    2.3139 H   0  0  0  0  0  0  0  0  0  0  0  0
    6.4440   -0.5651    1.4902 H   0  0  0  0  0  0  0  0  0  0  0  0
    6.5044   -2.3653    1.5343 H   0  0  0  0  0  0  0  0  0  0  0  0
    8.0395   -1.4058    1.6238 H   0  0  0  0  0  0  0  0  0  0  0  0
  1  2  2  0
  2  3  1  0
  3  4  2  0
  4  5  1  0
  5  6  1  0
  6  7  2  0
  7  2  1  0
  8  4  1  0
  7  9  1  0
  9 10  2  0
  9 11  1  0
 11 12  1  0
 12 13  1  0
 12 14  1  0
 13 15  2  0
 13 16  1  0
 14 17  2  0
 18 14  1  0
 19 16  1  0
 17 20  1  0
 21 18  2  0
 19 22  1  0
 23 19  1  0
 20 24  2  0
 24 21  1  0
 22 25  1  0
 26 22  1  0
 26 23  1  0
 23 27  2  0
 24 28  1  0
 25 29  1  0
 30 26  1  0
 29 31  1  0
 31 30  2  0
 30 32  1  0
 31 33  1  0
 32 34  2  0
 32 35  1  0
 33 36  1  0
 36 37  1  0
 37 38  2  0
 39 37  1  0
 38 40  1  0
 41 39  1  0
 39 42  1  0
 40 41  2  0
  3 43  1  0
  5 44  1  0
  6 45  1  0
  8 46  1  0
  8 47  1  0
  8 48  1  0
 11 49  1  0
 12 50  1  6
 16 51  1  0
 17 52  1  0
 18 53  1  0
 19 54  1  1
 20 55  1  0
 21 56  1  0
 22 57  1  1
 28 58  1  0
 29 59  1  0
 29 60  1  0
 33 61  1  0
 33 62  1  0
 35 63  1  0
 42 64  1  0
 42 65  1  0
 42 66  1  0
M  END
> <ID>
HT0416

> <Class>
0.0

> <Clusters>
44

> <Fold>
1

$$$$