
     RDKit          3D

 91 95  0  0  0  0  0  0  0  0999 V2000
    3.8599   -3.4344    1.6008 C   0  0  0  0  0  0  0  0  0  0  0  0
    3.6970   -2.1290    0.7701 C   0  0  0  0  0  0  0  0  0  0  0  0
    4.4176   -2.3816   -0.5823 C   0  0  0  0  0  0  0  0  0  0  0  0
    4.4207   -0.9752    1.5584 C   0  0  2  0  0  0  0  0  0  0  0  0
    3.4555   -0.2396    2.4911 C   0  0  0  0  0  0  0  0  0  0  0  0
    2.3104    0.4615    1.7327 C   0  0  0  0  0  0  0  0  0  0  0  0
    1.7437   -0.3102    0.4712 C   0  0  1  0  0  0  0  0  0  0  0  0
    2.3232    0.3571   -0.8166 C   0  0  0  0  0  0  0  0  0  0  0  0
    2.1444   -1.8309    0.6002 C   0  0  1  0  0  0  0  0  0  0  0  0
    1.4269   -2.7267   -0.4396 C   0  0  0  0  0  0  0  0  0  0  0  0
   -0.1007   -2.6408   -0.2938 C   0  0  0  0  0  0  0  0  0  0  0  0
   -0.6533   -1.1942   -0.4678 C   0  0  2  0  0  0  0  0  0  0  0  0
   -0.4749   -0.8001   -1.9773 C   0  0  0  0  0  0  0  0  0  0  0  0
    0.1517   -0.2278    0.4894 C   0  0  2  0  0  0  0  0  0  0  0  0
   -0.4525    1.1664    0.4344 C   0  0  0  0  0  0  0  0  0  0  0  0
    0.2233    2.1746    0.7686 O   0  0  0  0  0  0  0  0  0  0  0  0
   -1.8465    1.3764   -0.0134 C   0  0  0  0  0  0  0  0  0  0  0  0
   -2.6914    0.3592   -0.3210 C   0  0  0  0  0  0  0  0  0  0  0  0
   -3.9865    0.5970   -1.1325 C   0  0  2  0  0  0  0  0  0  0  0  0
   -4.5496    2.0533   -1.1180 C   0  0  0  0  0  0  0  0  0  0  0  0
   -5.3375    2.4553    0.1785 C   0  0  2  0  0  0  0  0  0  0  0  0
   -4.6412    3.6433    0.8802 C   0  0  0  0  0  0  0  0  0  0  0  0
   -5.3867    1.2732    1.1885 C   0  0  0  0  0  0  0  0  0  0  0  0
   -5.8558   -0.0503    0.5583 C   0  0  0  0  0  0  0  0  0  0  0  0
   -5.1322   -0.4341   -0.7889 C   0  0  1  0  0  0  0  0  0  0  0  0
   -6.1998   -0.3975   -1.9234 C   0  0  0  0  0  0  0  0  0  0  0  0
   -4.5942   -1.9148   -0.7280 C   0  0  0  0  0  0  0  0  0  0  0  0
   -3.0809   -2.0625   -0.9360 C   0  0  0  0  0  0  0  0  0  0  0  0
   -2.2184   -1.0829   -0.0796 C   0  0  1  0  0  0  0  0  0  0  0  0
   -2.4949   -1.4006    1.4280 C   0  0  0  0  0  0  0  0  0  0  0  0
   -6.7432    2.9232   -0.1978 C   0  0  0  0  0  0  0  0  0  0  0  0
   -7.7649    2.4102    0.3339 O   0  0  0  0  0  0  0  0  0  0  0  0
   -6.9257    3.9497   -1.1255 O   0  0  0  0  0  0  0  0  0  0  0  0
    5.0225   -0.0209    0.6792 O   0  0  0  0  0  0  0  0  0  0  0  0
    6.4017    0.1700    0.5320 C   0  0  0  0  0  0  0  0  0  0  0  0
    7.2270   -0.5873    1.1098 O   0  0  0  0  0  0  0  0  0  0  0  0
    6.8887    1.2469   -0.3885 C   0  0  0  0  0  0  0  0  0  0  0  0
    7.9811    2.1006    0.2726 C   0  0  0  0  0  0  0  0  0  0  0  0
    8.4469    3.2343   -0.5989 C   0  0  0  0  0  0  0  0  0  0  0  0
    7.9191    3.4549   -1.7246 O   0  0  0  0  0  0  0  0  0  0  0  0
    9.4813    4.0509   -0.1519 O   0  0  0  0  0  0  0  0  0  0  0  0
    3.3983   -4.3065    1.0921 H   0  0  0  0  0  0  0  0  0  0  0  0
    4.9349   -3.6795    1.7537 H   0  0  0  0  0  0  0  0  0  0  0  0
    3.3939   -3.3323    2.6052 H   0  0  0  0  0  0  0  0  0  0  0  0
    5.4956   -2.5887   -0.4073 H   0  0  0  0  0  0  0  0  0  0  0  0
    3.9997   -3.2646   -1.1066 H   0  0  0  0  0  0  0  0  0  0  0  0
    4.3596   -1.5124   -1.2615 H   0  0  0  0  0  0  0  0  0  0  0  0
    5.2123   -1.4098    2.2097 H   0  0  0  0  0  0  0  0  0  0  0  0
    3.0314   -0.9617    3.2227 H   0  0  0  0  0  0  0  0  0  0  0  0
    4.0178    0.5164    3.0802 H   0  0  0  0  0  0  0  0  0  0  0  0
    1.5134    0.6370    2.4875 H   0  0  0  0  0  0  0  0  0  0  0  0
    2.6571    1.4803    1.4515 H   0  0  0  0  0  0  0  0  0  0  0  0
    1.6389    1.1298   -1.2221 H   0  0  0  0  0  0  0  0  0  0  0  0
    3.2807    0.8798   -0.6400 H   0  0  0  0  0  0  0  0  0  0  0  0
    2.5275   -0.3676   -1.6202 H   0  0  0  0  0  0  0  0  0  0  0  0
    1.6903   -2.1437    1.5701 H   0  0  0  0  0  0  0  0  0  0  0  0
    1.7368   -2.4817   -1.4739 H   0  0  0  0  0  0  0  0  0  0  0  0
    1.7044   -3.7885   -0.2802 H   0  0  0  0  0  0  0  0  0  0  0  0
   -0.5505   -3.3219   -1.0464 H   0  0  0  0  0  0  0  0  0  0  0  0
   -0.3584   -3.0485    0.7024 H   0  0  0  0  0  0  0  0  0  0  0  0
    0.5664   -0.7631   -2.3039 H   0  0  0  0  0  0  0  0  0  0  0  0
   -0.9153   -1.5583   -2.6518 H   0  0  0  0  0  0  0  0  0  0  0  0
   -0.9217    0.1819   -2.2252 H   0  0  0  0  0  0  0  0  0  0  0  0
   -0.0697   -0.5828    1.5110 H   0  0  0  0  0  0  0  0  0  0  0  0
   -2.1109    2.4033   -0.1798 H   0  0  0  0  0  0  0  0  0  0  0  0
   -3.6804    0.4130   -2.1866 H   0  0  0  0  0  0  0  0  0  0  0  0
   -3.7703    2.7949   -1.3798 H   0  0  0  0  0  0  0  0  0  0  0  0
   -5.2083    2.1486   -2.0065 H   0  0  0  0  0  0  0  0  0  0  0  0
   -4.5244    4.5069    0.1895 H   0  0  0  0  0  0  0  0  0  0  0  0
   -3.6345    3.3591    1.2511 H   0  0  0  0  0  0  0  0  0  0  0  0
   -5.2378    3.9819    1.7557 H   0  0  0  0  0  0  0  0  0  0  0  0
   -6.0525    1.5243    2.0444 H   0  0  0  0  0  0  0  0  0  0  0  0
   -4.3796    1.1120    1.6323 H   0  0  0  0  0  0  0  0  0  0  0  0
   -5.7373   -0.8276    1.3392 H   0  0  0  0  0  0  0  0  0  0  0  0
   -6.9568    0.0024    0.4175 H   0  0  0  0  0  0  0  0  0  0  0  0
   -6.9654   -1.1889   -1.7652 H   0  0  0  0  0  0  0  0  0  0  0  0
   -5.7290   -0.5670   -2.9158 H   0  0  0  0  0  0  0  0  0  0  0  0
   -6.7503    0.5653   -1.9511 H   0  0  0  0  0  0  0  0  0  0  0  0
   -4.8792   -2.4343    0.2090 H   0  0  0  0  0  0  0  0  0  0  0  0
   -5.0712   -2.5493   -1.5085 H   0  0  0  0  0  0  0  0  0  0  0  0
   -2.8084   -3.1144   -0.7055 H   0  0  0  0  0  0  0  0  0  0  0  0
   -2.9099   -1.9091   -2.0180 H   0  0  0  0  0  0  0  0  0  0  0  0
   -3.5701   -1.3699    1.6627 H   0  0  0  0  0  0  0  0  0  0  0  0
   -2.0714   -0.6466    2.1182 H   0  0  0  0  0  0  0  0  0  0  0  0
   -2.1489   -2.4096    1.7179 H   0  0  0  0  0  0  0  0  0  0  0  0
   -6.1421    4.4031   -1.5787 H   0  0  0  0  0  0  0  0  0  0  0  0
    7.2843    0.7739   -1.3138 H   0  0  0  0  0  0  0  0  0  0  0  0
    6.0301    1.8967   -0.6666 H   0  0  0  0  0  0  0  0  0  0  0  0
    8.8589    1.4578    0.5026 H   0  0  0  0  0  0  0  0  0  0  0  0
    7.5949    2.5230    1.2272 H   0  0  0  0  0  0  0  0  0  0  0  0
    9.8150    4.8201   -0.7187 H   0  0  0  0  0  0  0  0  0  0  0  0
  1  2  1  0
  2  3  1  0
  2  4  1  0
  4  5  1  0
  5  6  1  0
  6  7  1  0
  7  8  1  6
  7  9  1  0
  9  2  1  0
  9 10  1  0
 10 11  1  0
 11 12  1  0
 12 13  1  6
 12 14  1  0
 14  7  1  0
 14 15  1  0
 15 16  2  0
 15 17  1  0
 17 18  2  0
 18 19  1  0
 19 20  1  0
 20 21  1  0
 21 22  1  0
 21 23  1  0
 23 24  1  0
 24 25  1  0
 25 19  1  0
 25 26  1  6
 25 27  1  0
 27 28  1  0
 28 29  1  0
 29 12  1  0
 29 18  1  0
 29 30  1  1
 21 31  1  6
 31 32  2  0
 31 33  1  0
  4 34  1  0
 34 35  1  0
 35 36  2  0
 35 37  1  0
 37 38  1  0
 38 39  1  0
 39 40  2  0
 39 41  1  0
  1 42  1  0
  1 43  1  0
  1 44  1  0
  3 45  1  0
  3 46  1  0
  3 47  1  0
  4 48  1  1
  5 49  1  0
  5 50  1  0
  6 51  1  0
  6 52  1  0
  8 53  1  0
  8 54  1  0
  8 55  1  0
  9 56  1  1
 10 57  1  0
 10 58  1  0
 11 59  1  0
 11 60  1  0
 13 61  1  0
 13 62  1  0
 13 63  1  0
 14 64  1  1
 17 65  1  0
 19 66  1  6
 20 67  1  0
 20 68  1  0
 22 69  1  0
 22 70  1  0
 22 71  1  0
 23 72  1  0
 23 73  1  0
 24 74  1  0
 24 75  1  0
 26 76  1  0
 26 77  1  0
 26 78  1  0
 27 79  1  0
 27 80  1  0
 28 81  1  0
 28 82  1  0
 30 83  1  0
 30 84  1  0
 30 85  1  0
 33 86  1  0
 37 87  1  0
 37 88  1  0
 38 89  1  0
 38 90  1  0
 41 91  1  0
M  END
> <ID>
HT0375

> <Class>
0.0

> <Clusters>
224

> <Fold>
1

$$$$