
     RDKit          3D

 42 44  0  0  0  0  0  0  0  0999 V2000
    4.7026    0.3910    0.4459 C   0  0  0  0  0  0  0  0  0  0  0  0
    3.6928    0.0158   -0.5560 N   0  0  0  0  0  0  0  0  0  0  0  0
    2.8811    1.1856   -0.9715 C   0  0  0  0  0  0  0  0  0  0  0  0
    1.5041    1.2099   -0.2916 C   0  0  0  0  0  0  0  0  0  0  0  0
    0.6986    0.0062   -0.6310 N   0  0  0  0  0  0  0  0  0  0  0  0
    1.5426   -1.2094   -0.8159 C   0  0  0  0  0  0  0  0  0  0  0  0
    2.8794   -1.1192   -0.0662 C   0  0  0  0  0  0  0  0  0  0  0  0
   -0.4023   -0.2192    0.3491 C   0  0  0  0  0  0  0  0  0  0  0  0
   -1.2152    1.0415    0.6088 C   0  0  0  0  0  0  0  0  0  0  0  0
   -1.8039    1.7573   -0.4518 C   0  0  0  0  0  0  0  0  0  0  0  0
   -2.5544    2.9088   -0.1977 C   0  0  0  0  0  0  0  0  0  0  0  0
   -2.7281    3.3569    1.1137 C   0  0  0  0  0  0  0  0  0  0  0  0
   -2.1504    2.6546    2.1738 C   0  0  0  0  0  0  0  0  0  0  0  0
   -1.3981    1.5027    1.9254 C   0  0  0  0  0  0  0  0  0  0  0  0
   -1.3620   -1.3070   -0.1097 C   0  0  0  0  0  0  0  0  0  0  0  0
   -1.9434   -2.1671    0.8388 C   0  0  0  0  0  0  0  0  0  0  0  0
   -2.8418   -3.1604    0.4385 C   0  0  0  0  0  0  0  0  0  0  0  0
   -3.1734   -3.3036   -0.9119 C   0  0  0  0  0  0  0  0  0  0  0  0
   -4.3012   -4.5505   -1.4118 Cl  0  0  0  0  0  0  0  0  0  0  0  0
   -2.6066   -2.4505   -1.8631 C   0  0  0  0  0  0  0  0  0  0  0  0
   -1.7084   -1.4555   -1.4669 C   0  0  0  0  0  0  0  0  0  0  0  0
    5.2968   -0.4992    0.7463 H   0  0  0  0  0  0  0  0  0  0  0  0
    4.2243    0.8317    1.3488 H   0  0  0  0  0  0  0  0  0  0  0  0
    5.4112    1.1288    0.0123 H   0  0  0  0  0  0  0  0  0  0  0  0
    2.7314    1.1359   -2.0715 H   0  0  0  0  0  0  0  0  0  0  0  0
    3.4050    2.1478   -0.7715 H   0  0  0  0  0  0  0  0  0  0  0  0
    0.9698    2.1198   -0.6381 H   0  0  0  0  0  0  0  0  0  0  0  0
    1.6525    1.2957    0.8090 H   0  0  0  0  0  0  0  0  0  0  0  0
    1.7502   -1.3302   -1.9008 H   0  0  0  0  0  0  0  0  0  0  0  0
    1.0278   -2.1404   -0.4945 H   0  0  0  0  0  0  0  0  0  0  0  0
    2.6662   -1.0278    1.0238 H   0  0  0  0  0  0  0  0  0  0  0  0
    3.4449   -2.0627   -0.2252 H   0  0  0  0  0  0  0  0  0  0  0  0
    0.0595   -0.5504    1.3089 H   0  0  0  0  0  0  0  0  0  0  0  0
   -1.6707    1.4341   -1.4751 H   0  0  0  0  0  0  0  0  0  0  0  0
   -3.0000    3.4555   -1.0187 H   0  0  0  0  0  0  0  0  0  0  0  0
   -3.3096    4.2487    1.3083 H   0  0  0  0  0  0  0  0  0  0  0  0
   -2.2861    3.0026    3.1897 H   0  0  0  0  0  0  0  0  0  0  0  0
   -0.9610    0.9707    2.7610 H   0  0  0  0  0  0  0  0  0  0  0  0
   -1.7041   -2.0657    1.8902 H   0  0  0  0  0  0  0  0  0  0  0  0
   -3.2810   -3.8164    1.1792 H   0  0  0  0  0  0  0  0  0  0  0  0
   -2.8610   -2.5571   -2.9100 H   0  0  0  0  0  0  0  0  0  0  0  0
   -1.2780   -0.8094   -2.2207 H   0  0  0  0  0  0  0  0  0  0  0  0
  1  2  1  0
  2  3  1  0
  3  4  1  0
  4  5  1  0
  5  6  1  0
  6  7  1  0
  7  2  1  0
  5  8  1  0
  8  9  1  0
  9 10  2  0
 10 11  1  0
 11 12  2  0
 12 13  1  0
 13 14  2  0
 14  9  1  0
  8 15  1  0
 15 16  2  0
 16 17  1  0
 17 18  2  0
 18 19  1  0
 18 20  1  0
 20 21  2  0
 21 15  1  0
  1 22  1  0
  1 23  1  0
  1 24  1  0
  3 25  1  0
  3 26  1  0
  4 27  1  0
  4 28  1  0
  6 29  1  0
  6 30  1  0
  7 31  1  0
  7 32  1  0
  8 33  1  0
 10 34  1  0
 11 35  1  0
 12 36  1  0
 13 37  1  0
 14 38  1  0
 16 39  1  0
 17 40  1  0
 20 41  1  0
 21 42  1  0
M  END
> <ID>
HT0448

> <Class>
0.0

> <Clusters>
50

> <Fold>
1

$$$$