
     RDKit          3D

 47 49  0  0  0  0  0  0  0  0999 V2000
   -6.6352    1.4463    0.0565 C   0  0  0  0  0  0  0  0  0  0  0  0
   -5.8234    0.5104    0.8857 C   0  0  0  0  0  0  0  0  0  0  0  0
   -5.3112    0.9102    1.9668 O   0  0  0  0  0  0  0  0  0  0  0  0
   -5.6403   -0.8061    0.4495 O   0  0  0  0  0  0  0  0  0  0  0  0
   -4.8391   -1.7572    1.1487 C   0  0  0  0  0  0  0  0  0  0  0  0
   -3.3745   -1.3866    1.0691 C   0  0  0  0  0  0  0  0  0  0  0  0
   -2.7038   -1.2443   -0.0970 C   0  0  0  0  0  0  0  0  0  0  0  0
   -1.3893   -0.7078   -0.0067 N   0  0  0  0  0  0  0  0  0  0  0  0
   -0.8537    0.3389    0.8310 C   0  0  0  0  0  0  0  0  0  0  0  0
   -1.7123    0.3956    2.4578 S   0  0  0  0  0  0  0  0  0  0  0  0
   -2.5953   -1.2145    2.3624 C   0  0  0  0  0  0  0  0  0  0  0  0
    0.4660   -0.2397    0.8554 C   0  0  0  0  0  0  0  0  0  0  0  0
    1.4686    0.6158    0.2162 N   0  0  0  0  0  0  0  0  0  0  0  0
    2.5915    1.1465    0.9394 C   0  0  0  0  0  0  0  0  0  0  0  0
    2.7102    0.9127    2.1732 O   0  0  0  0  0  0  0  0  0  0  0  0
    3.6743    1.9388    0.2470 C   0  0  0  0  0  0  0  0  0  0  0  0
    3.1189    2.8149   -0.7898 N   0  0  0  0  0  0  0  0  0  0  0  0
    4.7495    1.0211   -0.3090 C   0  0  0  0  0  0  0  0  0  0  0  0
    6.0786    1.1457    0.1364 C   0  0  0  0  0  0  0  0  0  0  0  0
    7.0758    0.3029   -0.3640 C   0  0  0  0  0  0  0  0  0  0  0  0
    6.7593   -0.6719   -1.3125 C   0  0  0  0  0  0  0  0  0  0  0  0
    5.4439   -0.8075   -1.7618 C   0  0  0  0  0  0  0  0  0  0  0  0
    4.4427    0.0324   -1.2653 C   0  0  0  0  0  0  0  0  0  0  0  0
   -0.0323   -1.2941   -0.0843 C   0  0  0  0  0  0  0  0  0  0  0  0
    0.4747   -2.2969   -0.6511 O   0  0  0  0  0  0  0  0  0  0  0  0
   -3.2423   -1.5462   -1.4445 C   0  0  0  0  0  0  0  0  0  0  0  0
   -2.6059   -1.1565   -2.4600 O   0  0  0  0  0  0  0  0  0  0  0  0
   -4.4129   -2.2765   -1.6225 O   0  0  0  0  0  0  0  0  0  0  0  0
   -6.1712    1.5474   -0.9466 H   0  0  0  0  0  0  0  0  0  0  0  0
   -7.6635    1.0442   -0.0555 H   0  0  0  0  0  0  0  0  0  0  0  0
   -6.6880    2.4482    0.5334 H   0  0  0  0  0  0  0  0  0  0  0  0
   -5.1874   -1.8207    2.2018 H   0  0  0  0  0  0  0  0  0  0  0  0
   -4.9934   -2.7653    0.7130 H   0  0  0  0  0  0  0  0  0  0  0  0
   -0.9142    1.3229    0.3136 H   0  0  0  0  0  0  0  0  0  0  0  0
   -3.2604   -1.2891    3.2474 H   0  0  0  0  0  0  0  0  0  0  0  0
   -1.8471   -2.0315    2.4445 H   0  0  0  0  0  0  0  0  0  0  0  0
    0.7818   -0.6657    1.8330 H   0  0  0  0  0  0  0  0  0  0  0  0
    1.3365    0.8678   -0.7890 H   0  0  0  0  0  0  0  0  0  0  0  0
    4.1258    2.5995    1.0225 H   0  0  0  0  0  0  0  0  0  0  0  0
    2.9036    2.2700   -1.6554 H   0  0  0  0  0  0  0  0  0  0  0  0
    3.8530    3.5111   -1.0562 H   0  0  0  0  0  0  0  0  0  0  0  0
    6.3458    1.8942    0.8718 H   0  0  0  0  0  0  0  0  0  0  0  0
    8.0952    0.4055   -0.0150 H   0  0  0  0  0  0  0  0  0  0  0  0
    7.5328   -1.3234   -1.6982 H   0  0  0  0  0  0  0  0  0  0  0  0
    5.1993   -1.5648   -2.4956 H   0  0  0  0  0  0  0  0  0  0  0  0
    3.4310   -0.0935   -1.6266 H   0  0  0  0  0  0  0  0  0  0  0  0
   -4.7621   -2.4832   -2.5506 H   0  0  0  0  0  0  0  0  0  0  0  0
  1  2  1  0
  2  3  2  0
  2  4  1  0
  4  5  1  0
  5  6  1  0
  6  7  2  0
  7  8  1  0
  8  9  1  0
  9 10  1  0
 10 11  1  0
 11  6  1  0
  9 12  1  0
 12 13  1  0
 13 14  1  0
 14 15  2  0
 14 16  1  0
 16 17  1  0
 16 18  1  0
 18 19  2  0
 19 20  1  0
 20 21  2  0
 21 22  1  0
 22 23  2  0
 23 18  1  0
 12 24  1  0
 24  8  1  0
 24 25  2  0
  7 26  1  0
 26 27  2  0
 26 28  1  0
  1 29  1  0
  1 30  1  0
  1 31  1  0
  5 32  1  0
  5 33  1  0
  9 34  1  0
 11 35  1  0
 11 36  1  0
 12 37  1  0
 13 38  1  0
 16 39  1  0
 17 40  1  0
 17 41  1  0
 19 42  1  0
 20 43  1  0
 21 44  1  0
 22 45  1  0
 23 46  1  0
 28 47  1  0
M  END
> <ID>
HT0432

> <Class>
0.0

> <Clusters>
46

> <Fold>
1

$$$$