
     RDKit          3D

 33 33  0  0  0  0  0  0  0  0999 V2000
    4.1914   -0.7346    1.1799 C   0  0  0  0  0  0  0  0  0  0  0  0
    4.9456    0.1082    0.1925 C   0  0  0  0  0  0  0  0  0  0  0  0
    4.4661    1.2496   -0.3332 C   0  0  0  0  0  0  0  0  0  0  0  0
    3.1217    1.8370    0.0077 C   0  0  0  0  0  0  0  0  0  0  0  0
    2.0173    1.0502   -0.6424 C   0  0  0  0  0  0  0  0  0  0  0  0
    1.0101    0.5255    0.0695 C   0  0  0  0  0  0  0  0  0  0  0  0
   -0.0797   -0.2590   -0.6082 C   0  0  0  0  0  0  0  0  0  0  0  0
   -1.1023   -0.7778    0.4079 C   0  0  0  0  0  0  0  0  0  0  0  0
   -2.1799   -1.5830   -0.2715 C   0  0  0  0  0  0  0  0  0  0  0  0
   -2.2770   -2.7771   -0.0346 O   0  0  0  0  0  0  0  0  0  0  0  0
   -3.1372   -0.9565   -1.2528 C   0  0  0  0  0  0  0  0  0  0  0  0
   -3.3542    0.4102   -0.9918 O   0  0  0  0  0  0  0  0  0  0  0  0
   -4.4437   -0.4509   -0.7437 C   0  0  0  0  0  0  0  0  0  0  0  0
   -4.7352   -0.5163    0.7259 C   0  0  0  0  0  0  0  0  0  0  0  0
   -4.7931   -1.6330    1.3058 O   0  0  0  0  0  0  0  0  0  0  0  0
   -4.9841    0.6791    1.4640 N   0  0  0  0  0  0  0  0  0  0  0  0
    4.8212   -1.5940    1.4911 H   0  0  0  0  0  0  0  0  0  0  0  0
    3.2647   -1.1317    0.7176 H   0  0  0  0  0  0  0  0  0  0  0  0
    3.9388   -0.1391    2.0820 H   0  0  0  0  0  0  0  0  0  0  0  0
    5.9379   -0.2196   -0.1037 H   0  0  0  0  0  0  0  0  0  0  0  0
    5.0995    1.8020   -1.0215 H   0  0  0  0  0  0  0  0  0  0  0  0
    3.0003    1.8993    1.1111 H   0  0  0  0  0  0  0  0  0  0  0  0
    3.0785    2.8740   -0.3871 H   0  0  0  0  0  0  0  0  0  0  0  0
    2.0392    0.9215   -1.7218 H   0  0  0  0  0  0  0  0  0  0  0  0
    0.9847    0.6602    1.1483 H   0  0  0  0  0  0  0  0  0  0  0  0
    0.3744   -1.1205   -1.1459 H   0  0  0  0  0  0  0  0  0  0  0  0
   -0.5854    0.3967   -1.3500 H   0  0  0  0  0  0  0  0  0  0  0  0
   -0.5805   -1.4143    1.1571 H   0  0  0  0  0  0  0  0  0  0  0  0
   -1.5678    0.0734    0.9506 H   0  0  0  0  0  0  0  0  0  0  0  0
   -3.0498   -1.1693   -2.3383 H   0  0  0  0  0  0  0  0  0  0  0  0
   -5.2673   -0.2535   -1.4607 H   0  0  0  0  0  0  0  0  0  0  0  0
   -4.9598    1.6102    0.9921 H   0  0  0  0  0  0  0  0  0  0  0  0
   -5.1944    0.6336    2.4857 H   0  0  0  0  0  0  0  0  0  0  0  0
  1  2  1  0
  2  3  2  3
  3  4  1  0
  4  5  1  0
  5  6  2  3
  6  7  1  0
  7  8  1  0
  8  9  1  0
  9 10  2  0
  9 11  1  0
 11 12  1  0
 12 13  1  0
 13 11  1  0
 13 14  1  0
 14 15  2  0
 14 16  1  0
  1 17  1  0
  1 18  1  0
  1 19  1  0
  2 20  1  0
  3 21  1  0
  4 22  1  0
  4 23  1  0
  5 24  1  0
  6 25  1  0
  7 26  1  0
  7 27  1  0
  8 28  1  0
  8 29  1  0
 11 30  1  0
 13 31  1  0
 16 32  1  0
 16 33  1  0
M  END
> <ID>
HT0437

> <Class>
0.0

> <Clusters>
130

> <Fold>
1

$$$$