
     RDKit          3D

 26 28  0  0  0  0  0  0  0  0999 V2000
    2.6805   -2.4255   -0.0825 O   0  0  0  0  0  0  0  0  0  0  0  0
    2.5754   -1.0390    0.0330 C   0  0  0  0  0  0  0  0  0  0  0  0
    3.7441   -0.2747    0.1476 C   0  0  0  0  0  0  0  0  0  0  0  0
    3.6728    1.1107    0.2644 C   0  0  0  0  0  0  0  0  0  0  0  0
    2.4345    1.7489    0.2681 C   0  0  0  0  0  0  0  0  0  0  0  0
    1.2465    1.0046    0.1543 C   0  0  0  0  0  0  0  0  0  0  0  0
   -0.0632    1.6944    0.1595 C   0  0  0  0  0  0  0  0  0  0  0  0
   -0.1101    2.9513    0.2662 O   0  0  0  0  0  0  0  0  0  0  0  0
   -1.3183    0.9186    0.0402 C   0  0  0  0  0  0  0  0  0  0  0  0
   -2.5588    1.5815    0.0459 C   0  0  0  0  0  0  0  0  0  0  0  0
   -3.7464    0.8620   -0.0657 C   0  0  0  0  0  0  0  0  0  0  0  0
   -3.7143   -0.5247   -0.1842 C   0  0  0  0  0  0  0  0  0  0  0  0
   -2.4916   -1.2089   -0.1925 C   0  0  0  0  0  0  0  0  0  0  0  0
   -2.4931   -2.5989   -0.3127 O   0  0  0  0  0  0  0  0  0  0  0  0
   -1.2755   -0.4896   -0.0797 C   0  0  0  0  0  0  0  0  0  0  0  0
    0.0441   -1.1818   -0.0847 C   0  0  0  0  0  0  0  0  0  0  0  0
    0.0909   -2.4371   -0.1912 O   0  0  0  0  0  0  0  0  0  0  0  0
    1.3088   -0.4029    0.0353 C   0  0  0  0  0  0  0  0  0  0  0  0
    3.5789   -2.8943   -0.0857 H   0  0  0  0  0  0  0  0  0  0  0  0
    4.7132   -0.7575    0.1462 H   0  0  0  0  0  0  0  0  0  0  0  0
    4.5812    1.6928    0.3525 H   0  0  0  0  0  0  0  0  0  0  0  0
    2.4076    2.8274    0.3602 H   0  0  0  0  0  0  0  0  0  0  0  0
   -2.6123    2.6592    0.1368 H   0  0  0  0  0  0  0  0  0  0  0  0
   -4.6959    1.3818   -0.0602 H   0  0  0  0  0  0  0  0  0  0  0  0
   -4.6449   -1.0712   -0.2702 H   0  0  0  0  0  0  0  0  0  0  0  0
   -3.3544   -3.1267   -0.3942 H   0  0  0  0  0  0  0  0  0  0  0  0
  1  2  1  0
  2  3  2  0
  3  4  1  0
  4  5  2  0
  5  6  1  0
  6  7  1  0
  7  8  2  0
  7  9  1  0
  9 10  2  0
 10 11  1  0
 11 12  2  0
 12 13  1  0
 13 14  1  0
 13 15  2  0
 15  9  1  0
 15 16  1  0
 16 17  2  0
 16 18  1  0
 18  2  1  0
 18  6  2  0
  1 19  1  0
  3 20  1  0
  4 21  1  0
  5 22  1  0
 10 23  1  0
 11 24  1  0
 12 25  1  0
 14 26  1  0
M  END
> <ID>
HT0589

> <Class>
0.0

> <Clusters>
68

> <Fold>
1

$$$$