
     RDKit          3D

 59 61  0  0  0  0  0  0  0  0999 V2000
   -4.7186   -2.2249   -1.8715 C   0  0  0  0  0  0  0  0  0  0  0  0
   -4.0136   -2.5655   -0.5618 C   0  0  0  0  0  0  0  0  0  0  0  0
   -3.4483   -1.3955    0.0306 O   0  0  0  0  0  0  0  0  0  0  0  0
   -4.1631   -0.3447    0.6351 C   0  0  0  0  0  0  0  0  0  0  0  0
   -5.5401   -0.4438    0.9086 C   0  0  0  0  0  0  0  0  0  0  0  0
   -6.2482    0.6314    1.4640 C   0  0  0  0  0  0  0  0  0  0  0  0
   -7.6670    0.5109    1.6334 N   0  0  0  0  0  0  0  0  0  0  0  0
   -5.5632    1.8239    1.7885 C   0  0  0  0  0  0  0  0  0  0  0  0
   -4.1916    1.9229    1.5117 C   0  0  0  0  0  0  0  0  0  0  0  0
   -3.4821    0.8465    0.9574 C   0  0  0  0  0  0  0  0  0  0  0  0
   -2.0337    0.9994    0.6906 C   0  0  0  0  0  0  0  0  0  0  0  0
   -1.5920    2.1115    0.2914 O   0  0  0  0  0  0  0  0  0  0  0  0
   -1.1277   -0.0942    0.9045 N   0  0  0  0  0  0  0  0  0  0  0  0
    0.2303   -0.1011    0.3482 C   0  0  0  0  0  0  0  0  0  0  0  0
    0.1783   -0.3181   -1.1672 C   0  0  0  0  0  0  0  0  0  0  0  0
    1.5870   -0.2670   -1.7962 C   0  0  0  0  0  0  0  0  0  0  0  0
    2.6799   -0.6680   -0.8730 N   0  0  0  0  0  0  0  0  0  0  0  0
    3.4186    0.4650   -0.2641 C   0  0  0  0  0  0  0  0  0  0  0  0
    4.9263    0.1529   -0.2083 C   0  0  0  0  0  0  0  0  0  0  0  0
    5.5072   -0.1515   -1.6277 C   0  0  0  0  0  0  0  0  0  0  0  0
    6.8983    0.4660   -1.8980 C   0  0  0  0  0  0  0  0  0  0  0  0
    7.7266    0.5593   -0.6450 C   0  0  0  0  0  0  0  0  0  0  0  0
    7.1605    0.9898    0.4888 C   0  0  0  0  0  0  0  0  0  0  0  0
    5.6875    1.2907    0.5055 C   0  0  0  0  0  0  0  0  0  0  0  0
    2.2528   -1.6806    0.1145 C   0  0  0  0  0  0  0  0  0  0  0  0
    1.0926   -1.1971    1.0126 C   0  0  0  0  0  0  0  0  0  0  0  0
   -6.2286    2.9274    2.4245 N   0  0  0  0  0  0  0  0  0  0  0  0
   -7.0200    2.7255    3.3686 O   0  0  0  0  0  0  0  0  0  0  0  0
   -5.8241    4.2160    2.1626 O   0  0  0  0  0  0  0  0  0  0  0  0
   -5.0441   -3.1595   -2.3731 H   0  0  0  0  0  0  0  0  0  0  0  0
   -5.6104   -1.5926   -1.6865 H   0  0  0  0  0  0  0  0  0  0  0  0
   -4.0234   -1.6796   -2.5430 H   0  0  0  0  0  0  0  0  0  0  0  0
   -3.1865   -3.2714   -0.7869 H   0  0  0  0  0  0  0  0  0  0  0  0
   -4.7017   -3.0770    0.1444 H   0  0  0  0  0  0  0  0  0  0  0  0
   -6.0817   -1.3483    0.6717 H   0  0  0  0  0  0  0  0  0  0  0  0
   -8.2757    1.3407    1.8062 H   0  0  0  0  0  0  0  0  0  0  0  0
   -8.1431   -0.4066    1.4810 H   0  0  0  0  0  0  0  0  0  0  0  0
   -3.6638    2.8345    1.7668 H   0  0  0  0  0  0  0  0  0  0  0  0
   -1.4431   -0.8815    1.5163 H   0  0  0  0  0  0  0  0  0  0  0  0
    0.7002    0.8862    0.5510 H   0  0  0  0  0  0  0  0  0  0  0  0
   -0.2845   -1.3085   -1.3753 H   0  0  0  0  0  0  0  0  0  0  0  0
   -0.4624    0.4541   -1.6452 H   0  0  0  0  0  0  0  0  0  0  0  0
    1.7600    0.7446   -2.2229 H   0  0  0  0  0  0  0  0  0  0  0  0
    1.6023   -0.9551   -2.6679 H   0  0  0  0  0  0  0  0  0  0  0  0
    3.2878    1.4038   -0.8454 H   0  0  0  0  0  0  0  0  0  0  0  0
    3.0524    0.6800    0.7631 H   0  0  0  0  0  0  0  0  0  0  0  0
    5.0642   -0.7582    0.4156 H   0  0  0  0  0  0  0  0  0  0  0  0
    4.8183    0.2090   -2.4232 H   0  0  0  0  0  0  0  0  0  0  0  0
    5.5776   -1.2548   -1.7484 H   0  0  0  0  0  0  0  0  0  0  0  0
    6.7630    1.4938   -2.2996 H   0  0  0  0  0  0  0  0  0  0  0  0
    7.4387   -0.1286   -2.6649 H   0  0  0  0  0  0  0  0  0  0  0  0
    8.7721    0.2648   -0.6569 H   0  0  0  0  0  0  0  0  0  0  0  0
    7.7402    1.0370    1.4058 H   0  0  0  0  0  0  0  0  0  0  0  0
    5.3412    1.3871    1.5587 H   0  0  0  0  0  0  0  0  0  0  0  0
    5.5086    2.2574   -0.0167 H   0  0  0  0  0  0  0  0  0  0  0  0
    3.1090   -1.9943    0.7477 H   0  0  0  0  0  0  0  0  0  0  0  0
    1.9288   -2.5916   -0.4350 H   0  0  0  0  0  0  0  0  0  0  0  0
    1.5003   -0.8021    1.9684 H   0  0  0  0  0  0  0  0  0  0  0  0
    0.4714   -2.0836    1.2661 H   0  0  0  0  0  0  0  0  0  0  0  0
  1  2  1  0
  2  3  1  0
  3  4  1  0
  4  5  2  0
  5  6  1  0
  6  7  1  0
  6  8  2  0
  8  9  1  0
  9 10  2  0
 10  4  1  0
 10 11  1  0
 11 12  2  0
 11 13  1  0
 13 14  1  0
 14 15  1  0
 15 16  1  0
 16 17  1  0
 17 18  1  0
 18 19  1  0
 19 20  1  0
 20 21  1  0
 21 22  1  0
 22 23  2  0
 23 24  1  0
 24 19  1  0
 17 25  1  0
 25 26  1  0
 26 14  1  0
  8 27  1  0
 27 28  2  0
 27 29  1  0
  1 30  1  0
  1 31  1  0
  1 32  1  0
  2 33  1  0
  2 34  1  0
  5 35  1  0
  7 36  1  0
  7 37  1  0
  9 38  1  0
 13 39  1  0
 14 40  1  0
 15 41  1  0
 15 42  1  0
 16 43  1  0
 16 44  1  0
 18 45  1  0
 18 46  1  0
 19 47  1  0
 20 48  1  0
 20 49  1  0
 21 50  1  0
 21 51  1  0
 22 52  1  0
 23 53  1  0
 24 54  1  0
 24 55  1  0
 25 56  1  0
 25 57  1  0
 26 58  1  0
 26 59  1  0
M  CHG  2  27   1  29  -1
M  END
> <ID>
HT0490

> <Class>
0.0

> <Clusters>
120

> <Fold>
1

$$$$