
     RDKit          3D

 43 46  0  0  0  0  0  0  0  0999 V2000
    6.5338    1.1931    0.4512 O   0  0  0  0  0  0  0  0  0  0  0  0
    5.6017    1.8590   -0.3408 C   0  0  0  0  0  0  0  0  0  0  0  0
    5.9919    2.7744   -1.1151 O   0  0  0  0  0  0  0  0  0  0  0  0
    4.1695    1.4941   -0.2732 C   0  0  0  0  0  0  0  0  0  0  0  0
    3.7366    0.4766    0.5937 C   0  0  0  0  0  0  0  0  0  0  0  0
    2.3847    0.1284    0.6591 C   0  0  0  0  0  0  0  0  0  0  0  0
    1.4418    0.7814   -0.1513 C   0  0  0  0  0  0  0  0  0  0  0  0
    1.8689    1.8116   -1.0011 C   0  0  0  0  0  0  0  0  0  0  0  0
    3.2205    2.1615   -1.0676 C   0  0  0  0  0  0  0  0  0  0  0  0
    0.0463    0.4394   -0.0868 N   0  0  0  0  0  0  0  0  0  0  0  0
   -0.9227    1.3368   -0.1131 N   0  0  0  0  0  0  0  0  0  0  0  0
   -2.0744    0.6456    0.0056 C   0  0  0  0  0  0  0  0  0  0  0  0
   -1.8666   -0.6845    0.1235 N   0  0  0  0  0  0  0  0  0  0  0  0
   -0.5235   -0.7778    0.0578 C   0  0  0  0  0  0  0  0  0  0  0  0
    0.1865   -2.0729    0.0033 C   0  0  0  0  0  0  0  0  0  0  0  0
    1.0757   -2.3215   -1.0568 C   0  0  0  0  0  0  0  0  0  0  0  0
    1.7304   -3.5507   -1.1593 C   0  0  0  0  0  0  0  0  0  0  0  0
    1.4974   -4.5480   -0.2118 C   0  0  0  0  0  0  0  0  0  0  0  0
    0.6136   -4.3161    0.8443 C   0  0  0  0  0  0  0  0  0  0  0  0
   -0.0405   -3.0839    0.9665 C   0  0  0  0  0  0  0  0  0  0  0  0
   -0.8844   -2.8898    2.0619 O   0  0  0  0  0  0  0  0  0  0  0  0
   -3.4044    1.2891    0.0859 C   0  0  0  0  0  0  0  0  0  0  0  0
   -3.4970    2.5628    0.6771 C   0  0  0  0  0  0  0  0  0  0  0  0
   -4.7375    3.1809    0.8478 C   0  0  0  0  0  0  0  0  0  0  0  0
   -5.9021    2.5378    0.4309 C   0  0  0  0  0  0  0  0  0  0  0  0
   -5.8275    1.2835   -0.1764 C   0  0  0  0  0  0  0  0  0  0  0  0
   -4.5893    0.6592   -0.3750 C   0  0  0  0  0  0  0  0  0  0  0  0
   -4.5789   -0.5577   -1.0599 O   0  0  0  0  0  0  0  0  0  0  0  0
    7.5168    1.4349    0.4125 H   0  0  0  0  0  0  0  0  0  0  0  0
    4.4408   -0.0476    1.2275 H   0  0  0  0  0  0  0  0  0  0  0  0
    2.0739   -0.6395    1.3551 H   0  0  0  0  0  0  0  0  0  0  0  0
    1.1544    2.3353   -1.6237 H   0  0  0  0  0  0  0  0  0  0  0  0
    3.5216    2.9542   -1.7411 H   0  0  0  0  0  0  0  0  0  0  0  0
    1.2521   -1.5674   -1.8142 H   0  0  0  0  0  0  0  0  0  0  0  0
    2.4131   -3.7330   -1.9792 H   0  0  0  0  0  0  0  0  0  0  0  0
    2.0027   -5.5016   -0.2948 H   0  0  0  0  0  0  0  0  0  0  0  0
    0.4438   -5.0932    1.5787 H   0  0  0  0  0  0  0  0  0  0  0  0
   -1.3289   -2.0043    2.2659 H   0  0  0  0  0  0  0  0  0  0  0  0
   -2.6091    3.0710    1.0334 H   0  0  0  0  0  0  0  0  0  0  0  0
   -4.7963    4.1559    1.3142 H   0  0  0  0  0  0  0  0  0  0  0  0
   -6.8633    3.0156    0.5697 H   0  0  0  0  0  0  0  0  0  0  0  0
   -6.7356    0.8022   -0.5169 H   0  0  0  0  0  0  0  0  0  0  0  0
   -3.7369   -0.9949   -1.4075 H   0  0  0  0  0  0  0  0  0  0  0  0
  1  2  1  0
  2  3  2  0
  2  4  1  0
  4  5  2  0
  5  6  1  0
  6  7  2  0
  7  8  1  0
  8  9  2  0
  9  4  1  0
  7 10  1  0
 10 11  1  0
 11 12  2  0
 12 13  1  0
 13 14  2  0
 14 10  1  0
 14 15  1  0
 15 16  2  0
 16 17  1  0
 17 18  2  0
 18 19  1  0
 19 20  2  0
 20 15  1  0
 20 21  1  0
 12 22  1  0
 22 23  2  0
 23 24  1  0
 24 25  2  0
 25 26  1  0
 26 27  2  0
 27 22  1  0
 27 28  1  0
  1 29  1  0
  5 30  1  0
  6 31  1  0
  8 32  1  0
  9 33  1  0
 16 34  1  0
 17 35  1  0
 18 36  1  0
 19 37  1  0
 21 38  1  0
 23 39  1  0
 24 40  1  0
 25 41  1  0
 26 42  1  0
 28 43  1  0
M  END
> <ID>
HT0599

> <Class>
0.0

> <Clusters>
193

> <Fold>
1

$$$$