
     RDKit          3D

 43 46  0  0  0  0  0  0  0  0999 V2000
   -5.1355   -0.3733    1.0176 C   0  0  0  0  0  0  0  0  0  0  0  0
   -3.9217    0.2977    1.5173 N   0  0  0  0  0  0  0  0  0  0  0  0
   -4.2546    1.6729    1.9221 C   0  0  0  0  0  0  0  0  0  0  0  0
   -2.8639    0.3075    0.4833 C   0  0  0  0  0  0  0  0  0  0  0  0
   -2.0870   -0.9842    0.4901 C   0  0  0  0  0  0  0  0  0  0  0  0
   -2.3528   -2.0123    1.3241 N   0  0  0  0  0  0  0  0  0  0  0  0
   -1.3885   -2.9078    1.1668 N   0  0  0  0  0  0  0  0  0  0  0  0
   -0.5517   -2.4142    0.2358 C   0  0  0  0  0  0  0  0  0  0  0  0
    0.7695   -3.0061   -0.1111 C   0  0  0  0  0  0  0  0  0  0  0  0
    1.8153   -2.1092    0.3659 N   0  0  0  0  0  0  0  0  0  0  0  0
    2.0035   -0.8763   -0.0225 C   0  0  0  0  0  0  0  0  0  0  0  0
    3.1083   -0.1094    0.6103 C   0  0  0  0  0  0  0  0  0  0  0  0
    2.9997    1.2814    0.8034 C   0  0  0  0  0  0  0  0  0  0  0  0
    4.0376    1.9955    1.4096 C   0  0  0  0  0  0  0  0  0  0  0  0
    5.1897    1.3314    1.8362 C   0  0  0  0  0  0  0  0  0  0  0  0
    5.3048   -0.0493    1.6610 C   0  0  0  0  0  0  0  0  0  0  0  0
    4.2699   -0.7687    1.0555 C   0  0  0  0  0  0  0  0  0  0  0  0
    1.1660   -0.2405   -1.0921 C   0  0  0  0  0  0  0  0  0  0  0  0
    1.8117    0.5381   -2.0722 C   0  0  0  0  0  0  0  0  0  0  0  0
    1.0833    1.1666   -3.0838 C   0  0  0  0  0  0  0  0  0  0  0  0
    1.9116    2.1326   -4.2912 Cl  0  0  0  0  0  0  0  0  0  0  0  0
   -0.3002    1.0111   -3.1452 C   0  0  0  0  0  0  0  0  0  0  0  0
   -0.9594    0.2349   -2.1927 C   0  0  0  0  0  0  0  0  0  0  0  0
   -0.2485   -0.3780   -1.1469 C   0  0  0  0  0  0  0  0  0  0  0  0
   -0.9508   -1.2117   -0.2065 N   0  0  0  0  0  0  0  0  0  0  0  0
   -5.8845   -0.4596    1.8339 H   0  0  0  0  0  0  0  0  0  0  0  0
   -5.5888    0.1870    0.1693 H   0  0  0  0  0  0  0  0  0  0  0  0
   -4.9012   -1.4042    0.6780 H   0  0  0  0  0  0  0  0  0  0  0  0
   -3.3714    2.1551    2.3936 H   0  0  0  0  0  0  0  0  0  0  0  0
   -4.5792    2.2825    1.0491 H   0  0  0  0  0  0  0  0  0  0  0  0
   -5.0652    1.6664    2.6828 H   0  0  0  0  0  0  0  0  0  0  0  0
   -2.1295    1.1201    0.6823 H   0  0  0  0  0  0  0  0  0  0  0  0
   -3.3003    0.4921   -0.5209 H   0  0  0  0  0  0  0  0  0  0  0  0
    0.8841   -3.9956    0.3788 H   0  0  0  0  0  0  0  0  0  0  0  0
    0.8530   -3.1400   -1.2110 H   0  0  0  0  0  0  0  0  0  0  0  0
    2.1079    1.8141    0.4978 H   0  0  0  0  0  0  0  0  0  0  0  0
    3.9461    3.0644    1.5530 H   0  0  0  0  0  0  0  0  0  0  0  0
    5.9916    1.8862    2.3058 H   0  0  0  0  0  0  0  0  0  0  0  0
    6.1971   -0.5633    1.9943 H   0  0  0  0  0  0  0  0  0  0  0  0
    4.3824   -1.8378    0.9242 H   0  0  0  0  0  0  0  0  0  0  0  0
    2.8891    0.6512   -2.0566 H   0  0  0  0  0  0  0  0  0  0  0  0
   -0.8652    1.4760   -3.9431 H   0  0  0  0  0  0  0  0  0  0  0  0
   -2.0223    0.0769   -2.3014 H   0  0  0  0  0  0  0  0  0  0  0  0
  1  2  1  0
  2  3  1  0
  2  4  1  0
  4  5  1  0
  5  6  2  0
  6  7  1  0
  7  8  2  0
  8  9  1  0
  9 10  1  0
 10 11  2  0
 11 12  1  0
 12 13  2  0
 13 14  1  0
 14 15  2  0
 15 16  1  0
 16 17  2  0
 17 12  1  0
 11 18  1  0
 18 19  2  0
 19 20  1  0
 20 21  1  0
 20 22  2  0
 22 23  1  0
 23 24  2  0
 24 18  1  0
 24 25  1  0
 25  5  1  0
 25  8  1  0
  1 26  1  0
  1 27  1  0
  1 28  1  0
  3 29  1  0
  3 30  1  0
  3 31  1  0
  4 32  1  0
  4 33  1  0
  9 34  1  0
  9 35  1  0
 13 36  1  0
 14 37  1  0
 15 38  1  0
 16 39  1  0
 17 40  1  0
 19 41  1  0
 22 42  1  0
 23 43  1  0
M  END
> <ID>
HT0078

> <Class>
0.0

> <Clusters>
10

> <Fold>
1

$$$$