
     RDKit          3D

 35 36  0  0  0  0  0  0  0  0999 V2000
   -3.8825   -3.1344    0.0291 C   0  0  0  0  0  0  0  0  0  0  0  0
   -2.6881   -2.3997   -0.2184 O   0  0  0  0  0  0  0  0  0  0  0  0
   -2.5468   -1.0198   -0.0061 C   0  0  0  0  0  0  0  0  0  0  0  0
   -3.5969   -0.2239    0.4807 C   0  0  0  0  0  0  0  0  0  0  0  0
   -3.4094    1.1428    0.6824 C   0  0  0  0  0  0  0  0  0  0  0  0
   -2.1728    1.7400    0.3997 C   0  0  0  0  0  0  0  0  0  0  0  0
   -1.9969    3.1128    0.6190 C   0  0  0  0  0  0  0  0  0  0  0  0
   -0.7699    3.7146    0.3541 C   0  0  0  0  0  0  0  0  0  0  0  0
    0.2915    2.9589   -0.1401 C   0  0  0  0  0  0  0  0  0  0  0  0
    0.1450    1.5827   -0.3900 C   0  0  0  0  0  0  0  0  0  0  0  0
    1.3469    0.8259   -0.9162 C   0  0  0  0  0  0  0  0  0  0  0  0
    2.1004    0.1342    0.2252 C   0  0  0  0  0  0  0  0  0  0  0  0
    3.2533   -0.6073   -0.2847 N   0  0  0  0  0  0  0  0  0  0  0  0
    4.1197   -1.3372    0.5922 C   0  0  0  0  0  0  0  0  0  0  0  0
    3.8959   -1.3639    1.8329 O   0  0  0  0  0  0  0  0  0  0  0  0
    5.2835   -2.0896    0.0342 C   0  0  0  0  0  0  0  0  0  0  0  0
   -1.1001    0.9546   -0.1020 C   0  0  0  0  0  0  0  0  0  0  0  0
   -1.3109   -0.4290   -0.2926 C   0  0  0  0  0  0  0  0  0  0  0  0
   -3.7115   -4.2005   -0.2249 H   0  0  0  0  0  0  0  0  0  0  0  0
   -4.1584   -3.0642    1.1025 H   0  0  0  0  0  0  0  0  0  0  0  0
   -4.7079   -2.7457   -0.6041 H   0  0  0  0  0  0  0  0  0  0  0  0
   -4.5627   -0.6529    0.7100 H   0  0  0  0  0  0  0  0  0  0  0  0
   -4.2336    1.7346    1.0634 H   0  0  0  0  0  0  0  0  0  0  0  0
   -2.8083    3.7203    1.0026 H   0  0  0  0  0  0  0  0  0  0  0  0
   -0.6393    4.7740    0.5342 H   0  0  0  0  0  0  0  0  0  0  0  0
    1.2361    3.4536   -0.3309 H   0  0  0  0  0  0  0  0  0  0  0  0
    2.0432    1.5253   -1.4300 H   0  0  0  0  0  0  0  0  0  0  0  0
    1.0412    0.0891   -1.6879 H   0  0  0  0  0  0  0  0  0  0  0  0
    2.4514    0.9008    0.9502 H   0  0  0  0  0  0  0  0  0  0  0  0
    1.4221   -0.5685    0.7552 H   0  0  0  0  0  0  0  0  0  0  0  0
    3.4600   -0.6144   -1.3099 H   0  0  0  0  0  0  0  0  0  0  0  0
    5.8965   -1.4137   -0.5978 H   0  0  0  0  0  0  0  0  0  0  0  0
    5.9193   -2.4899    0.8524 H   0  0  0  0  0  0  0  0  0  0  0  0
    4.9154   -2.9344   -0.5843 H   0  0  0  0  0  0  0  0  0  0  0  0
   -0.5255   -1.0751   -0.6567 H   0  0  0  0  0  0  0  0  0  0  0  0
  1  2  1  0
  2  3  1  0
  3  4  2  0
  4  5  1  0
  5  6  2  0
  6  7  1  0
  7  8  2  0
  8  9  1  0
  9 10  2  0
 10 11  1  0
 11 12  1  0
 12 13  1  0
 13 14  1  0
 14 15  2  0
 14 16  1  0
 10 17  1  0
 17  6  1  0
 17 18  2  0
 18  3  1  0
  1 19  1  0
  1 20  1  0
  1 21  1  0
  4 22  1  0
  5 23  1  0
  7 24  1  0
  8 25  1  0
  9 26  1  0
 11 27  1  0
 11 28  1  0
 12 29  1  0
 12 30  1  0
 13 31  1  0
 16 32  1  0
 16 33  1  0
 16 34  1  0
 18 35  1  0
M  END
> <ID>
HT0081

> <Class>
0.0

> <Clusters>
176

> <Fold>
1

$$$$