
     RDKit          3D

 69 72  0  0  0  0  0  0  0  0999 V2000
   -5.0984   -2.0491    0.3668 C   0  0  0  0  0  0  0  0  0  0  0  0
   -3.9949   -1.1436    0.9497 C   0  0  2  0  0  0  0  0  0  0  0  0
   -4.6235    0.1347    1.5795 C   0  0  0  0  0  0  0  0  0  0  0  0
   -5.3259    1.1135    0.6242 C   0  0  0  0  0  0  0  0  0  0  0  0
   -6.1415    2.1164    1.3931 C   0  0  0  0  0  0  0  0  0  0  0  0
   -7.1289    1.7330    2.0736 O   0  0  0  0  0  0  0  0  0  0  0  0
   -5.8277    3.4725    1.3527 O   0  0  0  0  0  0  0  0  0  0  0  0
   -2.7889   -1.0497   -0.0530 C   0  0  1  0  0  0  0  0  0  0  0  0
   -3.0512   -0.4603   -1.4600 C   0  0  0  0  0  0  0  0  0  0  0  0
   -1.6864    0.0392   -1.9753 C   0  0  0  0  0  0  0  0  0  0  0  0
   -0.6763   -0.5015   -0.9657 C   0  0  1  0  0  0  0  0  0  0  0  0
    0.7440    0.1221   -0.9507 C   0  0  2  0  0  0  0  0  0  0  0  0
    1.4696   -0.0462   -2.3296 C   0  0  2  0  0  0  0  0  0  0  0  0
    1.1080   -1.2539   -2.9528 O   0  0  0  0  0  0  0  0  0  0  0  0
    3.0120   -0.0010   -2.2081 C   0  0  0  0  0  0  0  0  0  0  0  0
    3.4666    0.8614   -1.0158 C   0  0  2  0  0  0  0  0  0  0  0  0
    4.9787    1.2357   -1.1109 C   0  0  0  0  0  0  0  0  0  0  0  0
    5.8969    0.5320   -0.0977 C   0  0  2  0  0  0  0  0  0  0  0  0
    7.2019    0.4469   -0.6088 O   0  0  0  0  0  0  0  0  0  0  0  0
    5.3859   -0.8674    0.2019 C   0  0  0  0  0  0  0  0  0  0  0  0
    4.0483   -0.8024    0.9428 C   0  0  0  0  0  0  0  0  0  0  0  0
    3.0052    0.2333    0.3639 C   0  0  1  0  0  0  0  0  0  0  0  0
    2.8841    1.4263    1.3574 C   0  0  0  0  0  0  0  0  0  0  0  0
    1.6046   -0.5120    0.1911 C   0  0  1  0  0  0  0  0  0  0  0  0
    0.8387   -0.7347    1.5452 C   0  0  0  0  0  0  0  0  0  0  0  0
   -0.6057   -1.2984    1.4062 C   0  0  2  0  0  0  0  0  0  0  0  0
   -0.6219   -2.6747    1.0977 O   0  0  0  0  0  0  0  0  0  0  0  0
   -1.4162   -0.4535    0.3838 C   0  0  2  0  0  0  0  0  0  0  0  0
   -1.5705    1.0065    0.9163 C   0  0  0  0  0  0  0  0  0  0  0  0
   -4.6948   -3.0621    0.1555 H   0  0  0  0  0  0  0  0  0  0  0  0
   -5.5006   -1.6304   -0.5796 H   0  0  0  0  0  0  0  0  0  0  0  0
   -5.9348   -2.1697    1.0876 H   0  0  0  0  0  0  0  0  0  0  0  0
   -3.5923   -1.7069    1.8218 H   0  0  0  0  0  0  0  0  0  0  0  0
   -3.8966    0.6822    2.1992 H   0  0  0  0  0  0  0  0  0  0  0  0
   -5.3774   -0.2189    2.3183 H   0  0  0  0  0  0  0  0  0  0  0  0
   -6.0004    0.5755   -0.0737 H   0  0  0  0  0  0  0  0  0  0  0  0
   -4.5735    1.6712    0.0392 H   0  0  0  0  0  0  0  0  0  0  0  0
   -5.0641    3.8207    0.7838 H   0  0  0  0  0  0  0  0  0  0  0  0
   -2.5722   -2.1243   -0.2619 H   0  0  0  0  0  0  0  0  0  0  0  0
   -3.7743    0.3695   -1.4602 H   0  0  0  0  0  0  0  0  0  0  0  0
   -3.4496   -1.2486   -2.1374 H   0  0  0  0  0  0  0  0  0  0  0  0
   -1.6605    1.1498   -1.9899 H   0  0  0  0  0  0  0  0  0  0  0  0
   -1.4807   -0.3435   -2.9980 H   0  0  0  0  0  0  0  0  0  0  0  0
   -0.5383   -1.5746   -1.2325 H   0  0  0  0  0  0  0  0  0  0  0  0
    0.6579    1.2127   -0.7738 H   0  0  0  0  0  0  0  0  0  0  0  0
    1.1422    0.8061   -2.9716 H   0  0  0  0  0  0  0  0  0  0  0  0
    1.3283   -1.1622   -3.9181 H   0  0  0  0  0  0  0  0  0  0  0  0
    3.4181    0.4052   -3.1609 H   0  0  0  0  0  0  0  0  0  0  0  0
    3.4137   -1.0295   -2.0914 H   0  0  0  0  0  0  0  0  0  0  0  0
    2.9294    1.8292   -1.1572 H   0  0  0  0  0  0  0  0  0  0  0  0
    5.0897    2.3323   -0.9574 H   0  0  0  0  0  0  0  0  0  0  0  0
    5.3597    1.0408   -2.1384 H   0  0  0  0  0  0  0  0  0  0  0  0
    5.9164    1.1084    0.8573 H   0  0  0  0  0  0  0  0  0  0  0  0
    7.5899    1.3589   -0.5538 H   0  0  0  0  0  0  0  0  0  0  0  0
    5.2806   -1.4488   -0.7396 H   0  0  0  0  0  0  0  0  0  0  0  0
    6.1244   -1.4017    0.8398 H   0  0  0  0  0  0  0  0  0  0  0  0
    4.2647   -0.5851    2.0123 H   0  0  0  0  0  0  0  0  0  0  0  0
    3.6480   -1.8385    0.9551 H   0  0  0  0  0  0  0  0  0  0  0  0
    2.7579    1.0870    2.4067 H   0  0  0  0  0  0  0  0  0  0  0  0
    2.0241    2.0772    1.0905 H   0  0  0  0  0  0  0  0  0  0  0  0
    3.7975    2.0565    1.3416 H   0  0  0  0  0  0  0  0  0  0  0  0
    1.8204   -1.5366   -0.1842 H   0  0  0  0  0  0  0  0  0  0  0  0
    1.4305   -1.4186    2.1914 H   0  0  0  0  0  0  0  0  0  0  0  0
    0.7477    0.2151    2.1046 H   0  0  0  0  0  0  0  0  0  0  0  0
   -1.0958   -1.2013    2.3988 H   0  0  0  0  0  0  0  0  0  0  0  0
    0.1658   -2.8979    0.5432 H   0  0  0  0  0  0  0  0  0  0  0  0
   -1.8245    1.0057    1.9922 H   0  0  0  0  0  0  0  0  0  0  0  0
   -2.3283    1.5806    0.3512 H   0  0  0  0  0  0  0  0  0  0  0  0
   -0.6349    1.5899    0.8721 H   0  0  0  0  0  0  0  0  0  0  0  0
  2  1  1  0
  2  3  1  0
  3  4  1  0
  4  5  1  0
  5  6  2  0
  5  7  1  0
  8  2  1  0
  8  9  1  0
  9 10  1  0
 11 10  1  0
 11 12  1  0
 12 13  1  0
 13 14  1  0
 13 15  1  0
 16 15  1  0
 16 17  1  0
 17 18  1  0
 18 19  1  0
 18 20  1  0
 20 21  1  0
 21 22  1  0
 22 16  1  0
 22 23  1  1
 22 24  1  0
 24 12  1  0
 24 25  1  0
 25 26  1  0
 26 27  1  0
 26 28  1  0
 28  8  1  0
 28 11  1  0
 28 29  1  1
  1 30  1  0
  1 31  1  0
  1 32  1  0
  2 33  1  1
  3 34  1  0
  3 35  1  0
  4 36  1  0
  4 37  1  0
  7 38  1  0
  8 39  1  6
  9 40  1  0
  9 41  1  0
 10 42  1  0
 10 43  1  0
 11 44  1  6
 12 45  1  1
 13 46  1  6
 14 47  1  0
 15 48  1  0
 15 49  1  0
 16 50  1  6
 17 51  1  0
 17 52  1  0
 18 53  1  1
 19 54  1  0
 20 55  1  0
 20 56  1  0
 21 57  1  0
 21 58  1  0
 23 59  1  0
 23 60  1  0
 23 61  1  0
 24 62  1  6
 25 63  1  0
 25 64  1  0
 26 65  1  1
 27 66  1  0
 29 67  1  0
 29 68  1  0
 29 69  1  0
M  END
> <ID>
HT0475

> <Class>
0.0

> <Clusters>
55

> <Fold>
1

$$$$