
     RDKit          3D

 59 62  0  0  0  0  0  0  0  0999 V2000
    7.4229   -0.2713   -1.3184 C   0  0  0  0  0  0  0  0  0  0  0  0
    6.5501   -0.9846   -0.3435 C   0  0  0  0  0  0  0  0  0  0  0  0
    6.7439   -2.2099   -0.1090 O   0  0  0  0  0  0  0  0  0  0  0  0
    5.5091   -0.2942    0.2825 O   0  0  0  0  0  0  0  0  0  0  0  0
    4.6271   -0.9085    1.2145 C   0  0  0  0  0  0  0  0  0  0  0  0
    3.4881    0.0249    1.5213 C   0  0  0  0  0  0  0  0  0  0  0  0
    3.3538    0.4107    2.6736 O   0  0  0  0  0  0  0  0  0  0  0  0
    2.5097    0.5409    0.4582 C   0  0  1  0  0  0  0  0  0  0  0  0
    2.5379    1.9521    0.4856 O   0  0  0  0  0  0  0  0  0  0  0  0
    2.7933    0.0686   -1.0031 C   0  0  0  0  0  0  0  0  0  0  0  0
    1.4290   -0.0710   -1.7044 C   0  0  0  0  0  0  0  0  0  0  0  0
    0.4090    0.3939   -0.6718 C   0  0  1  0  0  0  0  0  0  0  0  0
   -1.0501   -0.1094   -0.8025 C   0  0  2  0  0  0  0  0  0  0  0  0
   -1.6391    0.2507   -2.1773 C   0  0  0  0  0  0  0  0  0  0  0  0
   -3.0681   -0.2702   -2.2991 C   0  0  0  0  0  0  0  0  0  0  0  0
   -3.9290    0.2541   -1.1726 C   0  0  0  0  0  0  0  0  0  0  0  0
   -5.1595    0.7144   -1.4637 C   0  0  0  0  0  0  0  0  0  0  0  0
   -6.1030    1.1241   -0.4178 C   0  0  0  0  0  0  0  0  0  0  0  0
   -7.2220    1.6004   -0.7395 O   0  0  0  0  0  0  0  0  0  0  0  0
   -5.7680    0.9187    1.0216 C   0  0  0  0  0  0  0  0  0  0  0  0
   -4.2570    1.0316    1.2295 C   0  0  0  0  0  0  0  0  0  0  0  0
   -3.4313    0.1043    0.2762 C   0  0  1  0  0  0  0  0  0  0  0  0
   -3.6241   -1.3761    0.6925 C   0  0  0  0  0  0  0  0  0  0  0  0
   -1.9147    0.5446    0.3284 C   0  0  1  0  0  0  0  0  0  0  0  0
   -1.2097    0.4162    1.6844 C   0  0  0  0  0  0  0  0  0  0  0  0
   -1.7851   -0.0035    2.6748 O   0  0  0  0  0  0  0  0  0  0  0  0
    0.2514    0.7988    1.7905 C   0  0  0  0  0  0  0  0  0  0  0  0
    1.0474    0.0541    0.6910 C   0  0  2  0  0  0  0  0  0  0  0  0
    1.0272   -1.4814    1.0070 C   0  0  0  0  0  0  0  0  0  0  0  0
    7.3138   -0.7349   -2.3190 H   0  0  0  0  0  0  0  0  0  0  0  0
    8.4826   -0.3382   -0.9923 H   0  0  0  0  0  0  0  0  0  0  0  0
    7.1324    0.7998   -1.3825 H   0  0  0  0  0  0  0  0  0  0  0  0
    5.1882   -1.1478    2.1438 H   0  0  0  0  0  0  0  0  0  0  0  0
    4.2240   -1.8612    0.8068 H   0  0  0  0  0  0  0  0  0  0  0  0
    3.4713    2.2424    0.2976 H   0  0  0  0  0  0  0  0  0  0  0  0
    3.2920   -0.9210   -1.0412 H   0  0  0  0  0  0  0  0  0  0  0  0
    3.4394    0.7933   -1.5473 H   0  0  0  0  0  0  0  0  0  0  0  0
    1.3852    0.5607   -2.6185 H   0  0  0  0  0  0  0  0  0  0  0  0
    1.2428   -1.1304   -1.9869 H   0  0  0  0  0  0  0  0  0  0  0  0
    0.3645    1.5062   -0.7723 H   0  0  0  0  0  0  0  0  0  0  0  0
   -1.0570   -1.2143   -0.7194 H   0  0  0  0  0  0  0  0  0  0  0  0
   -1.6293    1.3529   -2.3274 H   0  0  0  0  0  0  0  0  0  0  0  0
   -1.0309   -0.2098   -2.9843 H   0  0  0  0  0  0  0  0  0  0  0  0
   -3.0598   -1.3804   -2.2607 H   0  0  0  0  0  0  0  0  0  0  0  0
   -3.4684    0.0210   -3.2945 H   0  0  0  0  0  0  0  0  0  0  0  0
   -5.4875    0.7818   -2.4941 H   0  0  0  0  0  0  0  0  0  0  0  0
   -6.1312   -0.0791    1.3444 H   0  0  0  0  0  0  0  0  0  0  0  0
   -6.2795    1.6879    1.6399 H   0  0  0  0  0  0  0  0  0  0  0  0
   -4.0464    0.8046    2.2938 H   0  0  0  0  0  0  0  0  0  0  0  0
   -3.9703    2.0939    1.0628 H   0  0  0  0  0  0  0  0  0  0  0  0
   -4.6556   -1.7139    0.4620 H   0  0  0  0  0  0  0  0  0  0  0  0
   -2.9364   -2.0521    0.1500 H   0  0  0  0  0  0  0  0  0  0  0  0
   -3.4677   -1.5254    1.7780 H   0  0  0  0  0  0  0  0  0  0  0  0
   -1.9051    1.6384    0.1159 H   0  0  0  0  0  0  0  0  0  0  0  0
    0.3297    1.9005    1.6679 H   0  0  0  0  0  0  0  0  0  0  0  0
    0.6482    0.5429    2.7973 H   0  0  0  0  0  0  0  0  0  0  0  0
    1.5491   -2.0750    0.2313 H   0  0  0  0  0  0  0  0  0  0  0  0
    1.5237   -1.6842    1.9780 H   0  0  0  0  0  0  0  0  0  0  0  0
   -0.0012   -1.8818    1.1063 H   0  0  0  0  0  0  0  0  0  0  0  0
  1  2  1  0
  2  3  2  0
  2  4  1  0
  4  5  1  0
  5  6  1  0
  6  7  2  0
  6  8  1  0
  8  9  1  6
  8 10  1  0
 10 11  1  0
 12 11  1  0
 12 13  1  0
 13 14  1  0
 14 15  1  0
 15 16  1  0
 16 17  2  0
 17 18  1  0
 18 19  2  0
 18 20  1  0
 20 21  1  0
 21 22  1  0
 22 16  1  0
 22 23  1  1
 22 24  1  0
 24 13  1  0
 24 25  1  0
 25 26  2  0
 25 27  1  0
 27 28  1  0
 28  8  1  0
 28 12  1  0
 28 29  1  1
  1 30  1  0
  1 31  1  0
  1 32  1  0
  5 33  1  0
  5 34  1  0
  9 35  1  0
 10 36  1  0
 10 37  1  0
 11 38  1  0
 11 39  1  0
 12 40  1  1
 13 41  1  1
 14 42  1  0
 14 43  1  0
 15 44  1  0
 15 45  1  0
 17 46  1  0
 20 47  1  0
 20 48  1  0
 21 49  1  0
 21 50  1  0
 23 51  1  0
 23 52  1  0
 23 53  1  0
 24 54  1  6
 27 55  1  0
 27 56  1  0
 29 57  1  0
 29 58  1  0
 29 59  1  0
M  END
> <ID>
HT0550

> <Class>
0.0

> <Clusters>
129

> <Fold>
1

$$$$