
     RDKit          3D

 59 64  0  0  0  0  0  0  0  0999 V2000
   -3.2115   -3.7515    2.1565 C   0  0  0  0  0  0  0  0  0  0  0  0
   -2.8509   -2.5372    1.5059 O   0  0  0  0  0  0  0  0  0  0  0  0
   -1.5403   -2.1452    1.1873 C   0  0  0  0  0  0  0  0  0  0  0  0
   -0.4535   -2.9793    1.5130 C   0  0  0  0  0  0  0  0  0  0  0  0
    0.8506   -2.6090    1.2086 C   0  0  0  0  0  0  0  0  0  0  0  0
    1.1102   -1.3947    0.5698 C   0  0  0  0  0  0  0  0  0  0  0  0
    0.0367   -0.5545    0.2348 C   0  0  0  0  0  0  0  0  0  0  0  0
   -1.3083   -0.8988    0.5319 C   0  0  0  0  0  0  0  0  0  0  0  0
   -2.4837    0.0496    0.1564 C   0  0  0  0  0  0  0  0  0  0  0  0
   -2.0059    1.3625   -0.5557 C   0  0  0  0  0  0  0  0  0  0  0  0
   -3.1989    2.2762   -0.9099 C   0  0  0  0  0  0  0  0  0  0  0  0
   -3.9482    2.6653    0.3791 C   0  0  0  0  0  0  0  0  0  0  0  0
   -4.4556    1.3894    1.0783 C   0  0  0  0  0  0  0  0  0  0  0  0
   -5.4089    0.6257    0.1333 C   0  0  0  0  0  0  0  0  0  0  0  0
   -4.6625    0.2483   -1.1650 C   0  0  0  0  0  0  0  0  0  0  0  0
   -4.1548    1.5272   -1.8586 C   0  0  0  0  0  0  0  0  0  0  0  0
   -3.4649   -0.6661   -0.8250 C   0  0  0  0  0  0  0  0  0  0  0  0
   -3.2560    0.4869    1.4413 C   0  0  0  0  0  0  0  0  0  0  0  0
    2.5064   -1.0002    0.2504 C   0  0  0  0  0  0  0  0  0  0  0  0
    3.4082   -1.9400   -0.2790 C   0  0  0  0  0  0  0  0  0  0  0  0
    4.7216   -1.5738   -0.5830 C   0  0  0  0  0  0  0  0  0  0  0  0
    5.1592   -0.2606   -0.3605 C   0  0  0  0  0  0  0  0  0  0  0  0
    6.4777    0.1146   -0.6637 C   0  0  0  0  0  0  0  0  0  0  0  0
    6.9166    1.4319   -0.4361 C   0  0  0  0  0  0  0  0  0  0  0  0
    6.0101    2.3734    0.0826 C   0  0  0  0  0  0  0  0  0  0  0  0
    4.6969    2.0072    0.3873 C   0  0  0  0  0  0  0  0  0  0  0  0
    4.2617    0.6931    0.1707 C   0  0  0  0  0  0  0  0  0  0  0  0
    2.9439    0.3180    0.4734 C   0  0  0  0  0  0  0  0  0  0  0  0
    8.3059    1.8425   -0.7551 C   0  0  0  0  0  0  0  0  0  0  0  0
    8.5660    3.0573   -0.9643 O   0  0  0  0  0  0  0  0  0  0  0  0
    9.3491    0.9192   -0.8160 O   0  0  0  0  0  0  0  0  0  0  0  0
   -2.7470   -3.7979    3.1640 H   0  0  0  0  0  0  0  0  0  0  0  0
   -2.8935   -4.6220    1.5448 H   0  0  0  0  0  0  0  0  0  0  0  0
   -4.3141   -3.7846    2.2731 H   0  0  0  0  0  0  0  0  0  0  0  0
   -0.6056   -3.9262    2.0118 H   0  0  0  0  0  0  0  0  0  0  0  0
    1.6619   -3.2689    1.4904 H   0  0  0  0  0  0  0  0  0  0  0  0
    0.2808    0.3613   -0.2782 H   0  0  0  0  0  0  0  0  0  0  0  0
   -1.3142    1.9318    0.1048 H   0  0  0  0  0  0  0  0  0  0  0  0
   -1.4644    1.1178   -1.4967 H   0  0  0  0  0  0  0  0  0  0  0  0
   -2.8260    3.1956   -1.4119 H   0  0  0  0  0  0  0  0  0  0  0  0
   -4.8044    3.3323    0.1356 H   0  0  0  0  0  0  0  0  0  0  0  0
   -3.2713    3.2289    1.0584 H   0  0  0  0  0  0  0  0  0  0  0  0
   -5.0012    1.6703    2.0054 H   0  0  0  0  0  0  0  0  0  0  0  0
   -5.7872   -0.2921    0.6350 H   0  0  0  0  0  0  0  0  0  0  0  0
   -6.2910    1.2589   -0.1075 H   0  0  0  0  0  0  0  0  0  0  0  0
   -5.3565   -0.2893   -1.8473 H   0  0  0  0  0  0  0  0  0  0  0  0
   -3.6279    1.2655   -2.8026 H   0  0  0  0  0  0  0  0  0  0  0  0
   -5.0135    2.1807   -2.1283 H   0  0  0  0  0  0  0  0  0  0  0  0
   -2.9287   -0.9421   -1.7602 H   0  0  0  0  0  0  0  0  0  0  0  0
   -3.8687   -1.6062   -0.4033 H   0  0  0  0  0  0  0  0  0  0  0  0
   -3.6460   -0.3779    2.0110 H   0  0  0  0  0  0  0  0  0  0  0  0
   -2.5703    1.0347    2.1255 H   0  0  0  0  0  0  0  0  0  0  0  0
    3.0913   -2.9570   -0.4741 H   0  0  0  0  0  0  0  0  0  0  0  0
    5.3942   -2.3174   -0.9939 H   0  0  0  0  0  0  0  0  0  0  0  0
    7.1463   -0.6170   -1.0988 H   0  0  0  0  0  0  0  0  0  0  0  0
    6.3208    3.3950    0.2640 H   0  0  0  0  0  0  0  0  0  0  0  0
    4.0220    2.7524    0.7917 H   0  0  0  0  0  0  0  0  0  0  0  0
    2.2633    1.0477    0.8972 H   0  0  0  0  0  0  0  0  0  0  0  0
    9.2340   -0.0517   -0.5563 H   0  0  0  0  0  0  0  0  0  0  0  0
  1  2  1  0
  2  3  1  0
  3  4  2  0
  4  5  1  0
  5  6  2  0
  6  7  1  0
  7  8  2  0
  8  3  1  0
  8  9  1  0
  9 10  1  0
 10 11  1  0
 11 12  1  0
 12 13  1  0
 13 14  1  0
 14 15  1  0
 15 16  1  0
 16 11  1  0
 15 17  1  0
 17  9  1  0
 13 18  1  0
 18  9  1  0
  6 19  1  0
 19 20  2  0
 20 21  1  0
 21 22  2  0
 22 23  1  0
 23 24  2  0
 24 25  1  0
 25 26  2  0
 26 27  1  0
 27 22  1  0
 27 28  2  0
 28 19  1  0
 24 29  1  0
 29 30  2  0
 29 31  1  0
  1 32  1  0
  1 33  1  0
  1 34  1  0
  4 35  1  0
  5 36  1  0
  7 37  1  0
 10 38  1  0
 10 39  1  0
 11 40  1  0
 12 41  1  0
 12 42  1  0
 13 43  1  0
 14 44  1  0
 14 45  1  0
 15 46  1  0
 16 47  1  0
 16 48  1  0
 17 49  1  0
 17 50  1  0
 18 51  1  0
 18 52  1  0
 20 53  1  0
 21 54  1  0
 23 55  1  0
 25 56  1  0
 26 57  1  0
 28 58  1  0
 31 59  1  0
M  END
> <ID>
HT0071

> <Class>
0.0

> <Clusters>
176

> <Fold>
1

$$$$