
     RDKit          3D

 23 24  0  0  0  0  0  0  0  0999 V2000
   -1.4349    1.3325    2.7235 Cl  0  0  0  0  0  0  0  0  0  0  0  0
   -1.9974    0.6249    1.2150 C   0  0  0  0  0  0  0  0  0  0  0  0
   -3.2689    0.9659    0.7407 C   0  0  0  0  0  0  0  0  0  0  0  0
   -3.7376    0.4313   -0.4606 C   0  0  0  0  0  0  0  0  0  0  0  0
   -2.9418   -0.4537   -1.1903 C   0  0  0  0  0  0  0  0  0  0  0  0
   -1.6678   -0.8031   -0.7279 C   0  0  0  0  0  0  0  0  0  0  0  0
   -0.7368   -1.9845   -1.6409 Cl  0  0  0  0  0  0  0  0  0  0  0  0
   -1.1798   -0.2507    0.4752 C   0  0  0  0  0  0  0  0  0  0  0  0
    0.1223   -0.5978    0.9683 N   0  0  0  0  0  0  0  0  0  0  0  0
    1.3245   -0.2723    0.2606 C   0  0  0  0  0  0  0  0  0  0  0  0
    1.3336    0.3942   -0.8415 N   0  0  0  0  0  0  0  0  0  0  0  0
    2.7103    0.5738   -1.2874 C   0  0  0  0  0  0  0  0  0  0  0  0
    3.5740   -0.1115   -0.2148 C   0  0  0  0  0  0  0  0  0  0  0  0
    2.6068   -0.6238    0.7349 N   0  0  0  0  0  0  0  0  0  0  0  0
   -3.8948    1.6473    1.3028 H   0  0  0  0  0  0  0  0  0  0  0  0
   -4.7226    0.6967   -0.8224 H   0  0  0  0  0  0  0  0  0  0  0  0
   -3.3214   -0.8772   -2.1115 H   0  0  0  0  0  0  0  0  0  0  0  0
    0.2082   -0.9564    1.9456 H   0  0  0  0  0  0  0  0  0  0  0  0
    2.9458    1.6575   -1.3553 H   0  0  0  0  0  0  0  0  0  0  0  0
    2.8503    0.0907   -2.2781 H   0  0  0  0  0  0  0  0  0  0  0  0
    4.1620   -0.9491   -0.6474 H   0  0  0  0  0  0  0  0  0  0  0  0
    4.2468    0.6179    0.2849 H   0  0  0  0  0  0  0  0  0  0  0  0
    2.8192   -1.1526    1.6096 H   0  0  0  0  0  0  0  0  0  0  0  0
  1  2  1  0
  2  3  2  0
  3  4  1  0
  4  5  2  0
  5  6  1  0
  6  7  1  0
  6  8  2  0
  8  2  1  0
  8  9  1  0
  9 10  1  0
 10 11  2  0
 11 12  1  0
 12 13  1  0
 13 14  1  0
 14 10  1  0
  3 15  1  0
  4 16  1  0
  5 17  1  0
  9 18  1  0
 12 19  1  0
 12 20  1  0
 13 21  1  0
 13 22  1  0
 14 23  1  0
M  END
> <ID>
HT0531

> <Class>
0.0

> <Clusters>
60

> <Fold>
1

$$$$