
     RDKit          3D

 33 34  0  0  0  0  0  0  0  0999 V2000
   -2.5748   -2.1744    0.3231 C   0  0  0  0  0  0  0  0  0  0  0  0
   -1.1245   -1.8150   -0.0281 C   0  0  0  0  0  0  0  0  0  0  0  0
   -0.8021   -0.2917    0.0903 C   0  0  0  0  0  0  0  0  0  0  0  0
   -1.0523    0.1385    1.5316 C   0  0  0  0  0  0  0  0  0  0  0  0
   -0.3573   -0.3685    2.4542 O   0  0  0  0  0  0  0  0  0  0  0  0
   -2.0585    1.0949    1.8746 N   0  0  0  0  0  0  0  0  0  0  0  0
   -2.8643    1.7152    0.8779 C   0  0  0  0  0  0  0  0  0  0  0  0
   -3.7487    2.5473    1.2121 O   0  0  0  0  0  0  0  0  0  0  0  0
   -2.6683    1.3991   -0.4966 N   0  0  0  0  0  0  0  0  0  0  0  0
   -1.6772    0.4553   -0.9107 C   0  0  0  0  0  0  0  0  0  0  0  0
   -1.5292    0.2322   -2.1435 O   0  0  0  0  0  0  0  0  0  0  0  0
    0.6713    0.0324   -0.2384 C   0  0  0  0  0  0  0  0  0  0  0  0
    1.0739    1.3302   -0.1967 C   0  0  0  0  0  0  0  0  0  0  0  0
    2.4817    1.7793   -0.4929 C   0  0  0  0  0  0  0  0  0  0  0  0
    3.5016    0.6662   -0.2633 C   0  0  0  0  0  0  0  0  0  0  0  0
    3.0451   -0.6001   -0.9789 C   0  0  0  0  0  0  0  0  0  0  0  0
    1.7026   -1.0812   -0.4160 C   0  0  0  0  0  0  0  0  0  0  0  0
   -2.8045   -1.9110    1.3767 H   0  0  0  0  0  0  0  0  0  0  0  0
   -3.2866   -1.6521   -0.3496 H   0  0  0  0  0  0  0  0  0  0  0  0
   -2.7221   -3.2681    0.2008 H   0  0  0  0  0  0  0  0  0  0  0  0
   -0.4605   -2.4003    0.6450 H   0  0  0  0  0  0  0  0  0  0  0  0
   -0.9384   -2.1626   -1.0678 H   0  0  0  0  0  0  0  0  0  0  0  0
   -2.2046    1.3458    2.8784 H   0  0  0  0  0  0  0  0  0  0  0  0
   -3.2579    1.8718   -1.2184 H   0  0  0  0  0  0  0  0  0  0  0  0
    0.3425    2.1132   -0.0154 H   0  0  0  0  0  0  0  0  0  0  0  0
    2.7334    2.6451    0.1560 H   0  0  0  0  0  0  0  0  0  0  0  0
    2.5305    2.1167   -1.5507 H   0  0  0  0  0  0  0  0  0  0  0  0
    3.6082    0.4683    0.8263 H   0  0  0  0  0  0  0  0  0  0  0  0
    4.4909    0.9828   -0.6585 H   0  0  0  0  0  0  0  0  0  0  0  0
    3.8083   -1.3973   -0.8467 H   0  0  0  0  0  0  0  0  0  0  0  0
    2.9443   -0.3988   -2.0686 H   0  0  0  0  0  0  0  0  0  0  0  0
    1.8782   -1.5559    0.5735 H   0  0  0  0  0  0  0  0  0  0  0  0
    1.3193   -1.8573   -1.1090 H   0  0  0  0  0  0  0  0  0  0  0  0
  1  2  1  0
  2  3  1  0
  3  4  1  0
  4  5  2  0
  4  6  1  0
  6  7  1  0
  7  8  2  0
  7  9  1  0
  9 10  1  0
 10  3  1  0
 10 11  2  0
  3 12  1  0
 12 13  2  0
 13 14  1  0
 14 15  1  0
 15 16  1  0
 16 17  1  0
 17 12  1  0
  1 18  1  0
  1 19  1  0
  1 20  1  0
  2 21  1  0
  2 22  1  0
  6 23  1  0
  9 24  1  0
 13 25  1  0
 14 26  1  0
 14 27  1  0
 15 28  1  0
 15 29  1  0
 16 30  1  0
 16 31  1  0
 17 32  1  0
 17 33  1  0
M  END
> <ID>
HT0563

> <Class>
0.0

> <Clusters>
64

> <Fold>
1

$$$$