
     RDKit          3D

 57 59  0  0  0  0  0  0  0  0999 V2000
    5.5177   -1.9371    2.4516 C   0  0  0  0  0  0  0  0  0  0  0  0
    5.7639   -0.4841    2.0567 C   0  0  0  0  0  0  0  0  0  0  0  0
    4.5500    0.0896    1.4334 N   0  0  0  0  0  0  0  0  0  0  0  0
    4.3307    1.5037    1.8274 C   0  0  0  0  0  0  0  0  0  0  0  0
    5.3858    2.4778    1.2853 C   0  0  0  0  0  0  0  0  0  0  0  0
    4.5269   -0.1412   -0.0311 C   0  0  0  0  0  0  0  0  0  0  0  0
    3.1410    0.1041   -0.6313 C   0  0  0  0  0  0  0  0  0  0  0  0
    2.1557   -0.5987    0.1225 O   0  0  0  0  0  0  0  0  0  0  0  0
    0.7813   -0.5780   -0.1540 C   0  0  0  0  0  0  0  0  0  0  0  0
    0.2391    0.1418   -1.2353 C   0  0  0  0  0  0  0  0  0  0  0  0
   -1.1395    0.1364   -1.4641 C   0  0  0  0  0  0  0  0  0  0  0  0
   -1.9994   -0.5754   -0.6109 C   0  0  0  0  0  0  0  0  0  0  0  0
   -1.4538   -1.3083    0.4542 C   0  0  0  0  0  0  0  0  0  0  0  0
   -0.0751   -1.3034    0.6815 C   0  0  0  0  0  0  0  0  0  0  0  0
   -3.4666   -0.5904   -0.8480 C   0  0  0  0  0  0  0  0  0  0  0  0
   -4.1803    0.5548   -0.9955 C   0  0  0  0  0  0  0  0  0  0  0  0
   -5.8623    0.5120   -1.5358 Cl  0  0  0  0  0  0  0  0  0  0  0  0
   -3.6028    1.8956   -0.7374 C   0  0  0  0  0  0  0  0  0  0  0  0
   -3.7254    2.9112   -1.7002 C   0  0  0  0  0  0  0  0  0  0  0  0
   -3.1844    4.1784   -1.4617 C   0  0  0  0  0  0  0  0  0  0  0  0
   -2.5265    4.4445   -0.2579 C   0  0  0  0  0  0  0  0  0  0  0  0
   -2.4135    3.4455    0.7123 C   0  0  0  0  0  0  0  0  0  0  0  0
   -2.9538    2.1775    0.4787 C   0  0  0  0  0  0  0  0  0  0  0  0
   -4.1178   -1.9180   -0.9615 C   0  0  0  0  0  0  0  0  0  0  0  0
   -5.1784   -2.2714   -0.1089 C   0  0  0  0  0  0  0  0  0  0  0  0
   -5.7640   -3.5377   -0.2004 C   0  0  0  0  0  0  0  0  0  0  0  0
   -5.2891   -4.4633   -1.1335 C   0  0  0  0  0  0  0  0  0  0  0  0
   -4.2242   -4.1258   -1.9733 C   0  0  0  0  0  0  0  0  0  0  0  0
   -3.6357   -2.8606   -1.8852 C   0  0  0  0  0  0  0  0  0  0  0  0
    5.3272   -2.5640    1.5563 H   0  0  0  0  0  0  0  0  0  0  0  0
    4.6435   -2.0021    3.1338 H   0  0  0  0  0  0  0  0  0  0  0  0
    6.4108   -2.3372    2.9764 H   0  0  0  0  0  0  0  0  0  0  0  0
    6.0400    0.0620    2.9867 H   0  0  0  0  0  0  0  0  0  0  0  0
    6.6396   -0.4247    1.3714 H   0  0  0  0  0  0  0  0  0  0  0  0
    3.3234    1.8389    1.5046 H   0  0  0  0  0  0  0  0  0  0  0  0
    4.3154    1.5777    2.9371 H   0  0  0  0  0  0  0  0  0  0  0  0
    5.2605    2.6273    0.1933 H   0  0  0  0  0  0  0  0  0  0  0  0
    5.2560    3.4655    1.7756 H   0  0  0  0  0  0  0  0  0  0  0  0
    6.4134    2.1176    1.4980 H   0  0  0  0  0  0  0  0  0  0  0  0
    4.7863   -1.2000   -0.2485 H   0  0  0  0  0  0  0  0  0  0  0  0
    5.2838    0.4805   -0.5543 H   0  0  0  0  0  0  0  0  0  0  0  0
    3.1355   -0.2598   -1.6817 H   0  0  0  0  0  0  0  0  0  0  0  0
    2.9148    1.1912   -0.6395 H   0  0  0  0  0  0  0  0  0  0  0  0
    0.8731    0.7050   -1.9061 H   0  0  0  0  0  0  0  0  0  0  0  0
   -1.5363    0.6843   -2.3098 H   0  0  0  0  0  0  0  0  0  0  0  0
   -2.0980   -1.8726    1.1174 H   0  0  0  0  0  0  0  0  0  0  0  0
    0.3307   -1.8645    1.5138 H   0  0  0  0  0  0  0  0  0  0  0  0
   -4.2249    2.7182   -2.6416 H   0  0  0  0  0  0  0  0  0  0  0  0
   -3.2739    4.9540   -2.2112 H   0  0  0  0  0  0  0  0  0  0  0  0
   -2.1080    5.4257   -0.0754 H   0  0  0  0  0  0  0  0  0  0  0  0
   -1.9102    3.6545    1.6474 H   0  0  0  0  0  0  0  0  0  0  0  0
   -2.8705    1.4181    1.2463 H   0  0  0  0  0  0  0  0  0  0  0  0
   -5.5440   -1.5701    0.6312 H   0  0  0  0  0  0  0  0  0  0  0  0
   -6.5826   -3.8034    0.4559 H   0  0  0  0  0  0  0  0  0  0  0  0
   -5.7426   -5.4436   -1.2021 H   0  0  0  0  0  0  0  0  0  0  0  0
   -3.8532   -4.8457   -2.6913 H   0  0  0  0  0  0  0  0  0  0  0  0
   -2.8093   -2.6129   -2.5402 H   0  0  0  0  0  0  0  0  0  0  0  0
  1  2  1  0
  2  3  1  0
  3  4  1  0
  4  5  1  0
  3  6  1  0
  6  7  1  0
  7  8  1  0
  8  9  1  0
  9 10  2  0
 10 11  1  0
 11 12  2  0
 12 13  1  0
 13 14  2  0
 14  9  1  0
 12 15  1  0
 15 16  2  3
 16 17  1  0
 16 18  1  0
 18 19  2  0
 19 20  1  0
 20 21  2  0
 21 22  1  0
 22 23  2  0
 23 18  1  0
 15 24  1  0
 24 25  2  0
 25 26  1  0
 26 27  2  0
 27 28  1  0
 28 29  2  0
 29 24  1  0
  1 30  1  0
  1 31  1  0
  1 32  1  0
  2 33  1  0
  2 34  1  0
  4 35  1  0
  4 36  1  0
  5 37  1  0
  5 38  1  0
  5 39  1  0
  6 40  1  0
  6 41  1  0
  7 42  1  0
  7 43  1  0
 10 44  1  0
 11 45  1  0
 13 46  1  0
 14 47  1  0
 19 48  1  0
 20 49  1  0
 21 50  1  0
 22 51  1  0
 23 52  1  0
 25 53  1  0
 26 54  1  0
 27 55  1  0
 28 56  1  0
 29 57  1  0
M  END
> <ID>
HT0527

> <Class>
0.0

> <Clusters>
222

> <Fold>
1

$$$$