
     RDKit          3D

 45 46  0  0  0  0  0  0  0  0999 V2000
   -0.5594   -3.5581    0.4646 C   0  0  0  0  0  0  0  0  0  0  0  0
   -0.1477   -2.1907    1.0326 C   0  0  0  0  0  0  0  0  0  0  0  0
   -1.2888   -1.1327    1.0828 C   0  0  0  0  0  0  0  0  0  0  0  0
   -2.2895   -1.1778   -0.0890 C   0  0  0  0  0  0  0  0  0  0  0  0
   -3.2209    0.0061   -0.0447 C   0  0  0  0  0  0  0  0  0  0  0  0
   -2.7495    1.2869   -0.3795 C   0  0  0  0  0  0  0  0  0  0  0  0
   -3.6108    2.3875   -0.3445 C   0  0  0  0  0  0  0  0  0  0  0  0
   -4.9504    2.2213    0.0211 C   0  0  0  0  0  0  0  0  0  0  0  0
   -5.7973    3.3269    0.0520 O   0  0  0  0  0  0  0  0  0  0  0  0
   -5.4278    0.9458    0.3517 C   0  0  0  0  0  0  0  0  0  0  0  0
   -4.5686   -0.1569    0.3174 C   0  0  0  0  0  0  0  0  0  0  0  0
    1.1010   -1.6935    0.4158 N   0  0  0  0  0  0  0  0  0  0  0  0
    0.9559   -1.1992   -0.9621 C   0  0  0  0  0  0  0  0  0  0  0  0
    2.3338   -0.9586   -1.5909 C   0  0  0  0  0  0  0  0  0  0  0  0
    3.0695    0.1774   -0.9241 C   0  0  0  0  0  0  0  0  0  0  0  0
    2.6170    1.4978   -1.0745 C   0  0  0  0  0  0  0  0  0  0  0  0
    3.2942    2.5506   -0.4542 C   0  0  0  0  0  0  0  0  0  0  0  0
    4.4320    2.3009    0.3196 C   0  0  0  0  0  0  0  0  0  0  0  0
    5.0867    3.3716    0.9275 O   0  0  0  0  0  0  0  0  0  0  0  0
    4.8967    0.9834    0.4720 C   0  0  0  0  0  0  0  0  0  0  0  0
    6.0307    0.7275    1.2415 O   0  0  0  0  0  0  0  0  0  0  0  0
    4.2157   -0.0723   -0.1518 C   0  0  0  0  0  0  0  0  0  0  0  0
    0.2938   -4.2657    0.5357 H   0  0  0  0  0  0  0  0  0  0  0  0
   -0.8720   -3.4933   -0.5967 H   0  0  0  0  0  0  0  0  0  0  0  0
   -1.4044   -3.9719    1.0552 H   0  0  0  0  0  0  0  0  0  0  0  0
    0.1047   -2.3975    2.0979 H   0  0  0  0  0  0  0  0  0  0  0  0
   -0.8384   -0.1196    1.1655 H   0  0  0  0  0  0  0  0  0  0  0  0
   -1.8699   -1.2906    2.0187 H   0  0  0  0  0  0  0  0  0  0  0  0
   -2.8751   -2.1207   -0.0262 H   0  0  0  0  0  0  0  0  0  0  0  0
   -1.7728   -1.1826   -1.0687 H   0  0  0  0  0  0  0  0  0  0  0  0
   -1.7160    1.4313   -0.6696 H   0  0  0  0  0  0  0  0  0  0  0  0
   -3.2373    3.3702   -0.6030 H   0  0  0  0  0  0  0  0  0  0  0  0
   -6.7727    3.2395    0.3125 H   0  0  0  0  0  0  0  0  0  0  0  0
   -6.4635    0.8081    0.6351 H   0  0  0  0  0  0  0  0  0  0  0  0
   -4.9541   -1.1347    0.5780 H   0  0  0  0  0  0  0  0  0  0  0  0
    1.4640   -0.9110    1.0101 H   0  0  0  0  0  0  0  0  0  0  0  0
    0.4369   -1.9506   -1.5914 H   0  0  0  0  0  0  0  0  0  0  0  0
    0.3717   -0.2540   -0.9812 H   0  0  0  0  0  0  0  0  0  0  0  0
    2.2080   -0.7203   -2.6694 H   0  0  0  0  0  0  0  0  0  0  0  0
    2.9232   -1.9001   -1.5330 H   0  0  0  0  0  0  0  0  0  0  0  0
    1.7405    1.7119   -1.6734 H   0  0  0  0  0  0  0  0  0  0  0  0
    2.9343    3.5644   -0.5759 H   0  0  0  0  0  0  0  0  0  0  0  0
    5.9142    3.2429    1.4973 H   0  0  0  0  0  0  0  0  0  0  0  0
    6.3857   -0.2132    1.3674 H   0  0  0  0  0  0  0  0  0  0  0  0
    4.5762   -1.0861   -0.0274 H   0  0  0  0  0  0  0  0  0  0  0  0
  1  2  1  0
  2  3  1  0
  3  4  1  0
  4  5  1  0
  5  6  2  0
  6  7  1  0
  7  8  2  0
  8  9  1  0
  8 10  1  0
 10 11  2  0
 11  5  1  0
  2 12  1  0
 12 13  1  0
 13 14  1  0
 14 15  1  0
 15 16  2  0
 16 17  1  0
 17 18  2  0
 18 19  1  0
 18 20  1  0
 20 21  1  0
 20 22  2  0
 22 15  1  0
  1 23  1  0
  1 24  1  0
  1 25  1  0
  2 26  1  0
  3 27  1  0
  3 28  1  0
  4 29  1  0
  4 30  1  0
  6 31  1  0
  7 32  1  0
  9 33  1  0
 10 34  1  0
 11 35  1  0
 12 36  1  0
 13 37  1  0
 13 38  1  0
 14 39  1  0
 14 40  1  0
 16 41  1  0
 17 42  1  0
 19 43  1  0
 21 44  1  0
 22 45  1  0
M  END
> <ID>
HT0701

> <Class>
0.0

> <Clusters>
21

> <Fold>
1

$$$$