
     RDKit          3D

 35 36  0  0  0  0  0  0  0  0999 V2000
   -1.6528    3.4135   -0.2066 C   0  0  0  0  0  0  0  0  0  0  0  0
   -0.9183    2.4065   -1.0975 C   0  0  0  0  0  0  0  0  0  0  0  0
   -1.4568    1.0396   -0.9764 N   0  0  0  0  0  0  0  0  0  0  0  0
   -1.0318    0.3365    0.2521 C   0  0  1  0  0  0  0  0  0  0  0  0
   -1.9048   -0.9251    0.4803 C   0  0  0  0  0  0  0  0  0  0  0  0
   -1.8825   -1.9053   -0.7169 C   0  0  2  0  0  0  0  0  0  0  0  0
   -2.7970   -3.1042   -0.4564 C   0  0  0  0  0  0  0  0  0  0  0  0
   -0.2054   -2.4496   -1.0625 S   0  0  0  0  0  0  0  0  0  0  0  0
   -0.0192   -2.6172   -2.5439 O   0  0  0  0  0  0  0  0  0  0  0  0
    0.0888   -3.7450   -0.3588 O   0  0  0  0  0  0  0  0  0  0  0  0
    0.8664   -1.2084   -0.4636 C   0  0  0  0  0  0  0  0  0  0  0  0
    2.5353   -1.3391   -0.3203 S   0  0  0  0  0  0  0  0  0  0  0  0
    2.7191    0.1045    0.5262 C   0  0  0  0  0  0  0  0  0  0  0  0
    1.4755    0.6882    0.7317 C   0  0  0  0  0  0  0  0  0  0  0  0
    0.4277   -0.0510    0.1632 C   0  0  0  0  0  0  0  0  0  0  0  0
    4.2454    0.7338    1.1147 S   0  0  0  0  0  0  0  0  0  0  0  0
    5.3629    0.2464    0.2358 O   0  0  0  0  0  0  0  0  0  0  0  0
    4.2152    2.2358    1.0774 O   0  0  0  0  0  0  0  0  0  0  0  0
    4.5035    0.1977    2.7375 N   0  0  0  0  0  0  0  0  0  0  0  0
   -1.4525    3.2177    0.8659 H   0  0  0  0  0  0  0  0  0  0  0  0
   -1.2948    4.4386   -0.4393 H   0  0  0  0  0  0  0  0  0  0  0  0
   -2.7469    3.3743   -0.3937 H   0  0  0  0  0  0  0  0  0  0  0  0
   -1.0379    2.7311   -2.1534 H   0  0  0  0  0  0  0  0  0  0  0  0
    0.1696    2.4350   -0.8819 H   0  0  0  0  0  0  0  0  0  0  0  0
   -2.5026    1.0918   -1.0112 H   0  0  0  0  0  0  0  0  0  0  0  0
   -1.1763    0.9895    1.1394 H   0  0  0  0  0  0  0  0  0  0  0  0
   -1.5570   -1.4490    1.3988 H   0  0  0  0  0  0  0  0  0  0  0  0
   -2.9528   -0.6024    0.6671 H   0  0  0  0  0  0  0  0  0  0  0  0
   -2.2655   -1.3816   -1.6189 H   0  0  0  0  0  0  0  0  0  0  0  0
   -3.8446   -2.7621   -0.3195 H   0  0  0  0  0  0  0  0  0  0  0  0
   -2.7686   -3.7996   -1.3221 H   0  0  0  0  0  0  0  0  0  0  0  0
   -2.4789   -3.6506    0.4571 H   0  0  0  0  0  0  0  0  0  0  0  0
    1.3320    1.6126    1.2763 H   0  0  0  0  0  0  0  0  0  0  0  0
    5.4465    0.5420    3.0265 H   0  0  0  0  0  0  0  0  0  0  0  0
    4.5588   -0.8450    2.7091 H   0  0  0  0  0  0  0  0  0  0  0  0
  1  2  1  0
  2  3  1  0
  4  3  1  0
  4  5  1  0
  5  6  1  0
  6  7  1  0
  6  8  1  0
  8  9  2  0
  8 10  2  0
  8 11  1  0
 11 12  1  0
 12 13  1  0
 13 14  2  0
 14 15  1  0
 15  4  1  0
 15 11  2  0
 13 16  1  0
 16 17  2  0
 16 18  2  0
 16 19  1  0
  1 20  1  0
  1 21  1  0
  1 22  1  0
  2 23  1  0
  2 24  1  0
  3 25  1  0
  4 26  1  1
  5 27  1  0
  5 28  1  0
  6 29  1  6
  7 30  1  0
  7 31  1  0
  7 32  1  0
 14 33  1  0
 19 34  1  0
 19 35  1  0
M  END
> <ID>
HT0711

> <Class>
0.0

> <Clusters>
84

> <Fold>
1

$$$$