
     RDKit          3D

 35 36  0  0  0  0  0  0  0  0999 V2000
   -0.1056   -2.0472    1.4149 C   0  0  0  0  0  0  0  0  0  0  0  0
   -0.4179   -1.2404    0.1460 C   0  0  2  0  0  0  0  0  0  0  0  0
   -0.0216    0.2471    0.3205 C   0  0  0  0  0  0  0  0  0  0  0  0
    1.4346    0.3756    0.5623 N   0  0  0  0  0  0  0  0  0  0  0  0
    1.7192    1.5274    1.4473 C   0  0  0  0  0  0  0  0  0  0  0  0
    3.1963    1.6590    1.6983 C   0  0  0  0  0  0  0  0  0  0  0  0
    3.6105    2.2686    2.7198 O   0  0  0  0  0  0  0  0  0  0  0  0
    4.1305    1.1175    0.7621 N   0  0  0  0  0  0  0  0  0  0  0  0
    3.6512    0.5149   -0.4401 C   0  0  0  0  0  0  0  0  0  0  0  0
    4.4634    0.0540   -1.2854 O   0  0  0  0  0  0  0  0  0  0  0  0
    2.1776    0.4922   -0.7122 C   0  0  0  0  0  0  0  0  0  0  0  0
   -1.8406   -1.4449   -0.2455 N   0  0  0  0  0  0  0  0  0  0  0  0
   -2.1012   -1.3939   -1.7011 C   0  0  0  0  0  0  0  0  0  0  0  0
   -2.3195    0.0105   -2.1804 C   0  0  0  0  0  0  0  0  0  0  0  0
   -1.9985    0.3361   -3.3541 O   0  0  0  0  0  0  0  0  0  0  0  0
   -2.9071    0.9738   -1.3068 N   0  0  0  0  0  0  0  0  0  0  0  0
   -3.1609    0.6370    0.0579 C   0  0  0  0  0  0  0  0  0  0  0  0
   -3.6664    1.4930    0.8313 O   0  0  0  0  0  0  0  0  0  0  0  0
   -2.8706   -0.7505    0.5637 C   0  0  0  0  0  0  0  0  0  0  0  0
   -0.4704   -3.0900    1.3000 H   0  0  0  0  0  0  0  0  0  0  0  0
   -0.5817   -1.5970    2.3103 H   0  0  0  0  0  0  0  0  0  0  0  0
    0.9914   -2.0841    1.5864 H   0  0  0  0  0  0  0  0  0  0  0  0
    0.2326   -1.6773   -0.6416 H   0  0  0  0  0  0  0  0  0  0  0  0
   -0.5990    0.6595    1.1777 H   0  0  0  0  0  0  0  0  0  0  0  0
   -0.3183    0.8353   -0.5734 H   0  0  0  0  0  0  0  0  0  0  0  0
    1.3386    2.4737    1.0017 H   0  0  0  0  0  0  0  0  0  0  0  0
    1.2182    1.3703    2.4281 H   0  0  0  0  0  0  0  0  0  0  0  0
    5.1571    1.1811    0.9459 H   0  0  0  0  0  0  0  0  0  0  0  0
    1.8978    1.4262   -1.2493 H   0  0  0  0  0  0  0  0  0  0  0  0
    1.9529   -0.3723   -1.3724 H   0  0  0  0  0  0  0  0  0  0  0  0
   -1.2787   -1.8731   -2.2753 H   0  0  0  0  0  0  0  0  0  0  0  0
   -3.0200   -1.9788   -1.9194 H   0  0  0  0  0  0  0  0  0  0  0  0
   -3.1054    1.9398   -1.6520 H   0  0  0  0  0  0  0  0  0  0  0  0
   -3.8124   -1.3374    0.5185 H   0  0  0  0  0  0  0  0  0  0  0  0
   -2.5764   -0.7059    1.6326 H   0  0  0  0  0  0  0  0  0  0  0  0
  2  1  1  0
  2  3  1  0
  3  4  1  0
  4  5  1  0
  5  6  1  0
  6  7  2  0
  6  8  1  0
  8  9  1  0
  9 10  2  0
  9 11  1  0
 11  4  1  0
  2 12  1  0
 12 13  1  0
 13 14  1  0
 14 15  2  0
 14 16  1  0
 16 17  1  0
 17 18  2  0
 17 19  1  0
 19 12  1  0
  1 20  1  0
  1 21  1  0
  1 22  1  0
  2 23  1  6
  3 24  1  0
  3 25  1  0
  5 26  1  0
  5 27  1  0
  8 28  1  0
 11 29  1  0
 11 30  1  0
 13 31  1  0
 13 32  1  0
 16 33  1  0
 19 34  1  0
 19 35  1  0
M  END
> <ID>
HT0626

> <Class>
0.0

> <Clusters>
64

> <Fold>
1

$$$$