
     RDKit          3D

 43 44  0  0  0  0  0  0  0  0999 V2000
    7.4817    2.6326   -0.6286 N   0  0  0  0  0  0  0  0  0  0  0  0
    7.7001    1.2297   -0.7920 C   0  0  0  0  0  0  0  0  0  0  0  0
    8.9115    0.7886   -0.9107 N   0  0  0  0  0  0  0  0  0  0  0  0
    6.5942    0.3210   -0.9065 N   0  0  0  0  0  0  0  0  0  0  0  0
    5.3510    0.4828   -0.2123 C   0  0  0  0  0  0  0  0  0  0  0  0
    4.2521   -0.2414   -0.5129 N   0  0  0  0  0  0  0  0  0  0  0  0
    3.2198    0.0349    0.3299 C   0  0  0  0  0  0  0  0  0  0  0  0
    1.9071   -0.6698    0.2213 C   0  0  0  0  0  0  0  0  0  0  0  0
    1.9433   -2.1763    1.2507 S   0  0  0  0  0  0  0  0  0  0  0  0
    0.2175   -2.6739    0.9152 C   0  0  0  0  0  0  0  0  0  0  0  0
   -0.7360   -2.0117    1.9130 C   0  0  0  0  0  0  0  0  0  0  0  0
   -2.1214   -2.3830    1.6305 N   0  0  0  0  0  0  0  0  0  0  0  0
   -2.8579   -1.9246    0.6600 C   0  0  0  0  0  0  0  0  0  0  0  0
   -2.3888   -0.9325   -0.2623 N   0  0  0  0  0  0  0  0  0  0  0  0
   -3.4143   -0.3895   -1.5435 S   0  0  0  0  0  0  0  0  0  0  0  0
   -3.8217   -1.5609   -2.3929 O   0  0  0  0  0  0  0  0  0  0  0  0
   -2.6625    0.5852   -2.4059 O   0  0  0  0  0  0  0  0  0  0  0  0
   -4.8318    0.4037   -0.8658 C   0  0  0  0  0  0  0  0  0  0  0  0
   -6.0370   -0.2986   -0.7213 C   0  0  0  0  0  0  0  0  0  0  0  0
   -7.1548    0.3316   -0.1654 C   0  0  0  0  0  0  0  0  0  0  0  0
   -7.0728    1.6640    0.2530 C   0  0  0  0  0  0  0  0  0  0  0  0
   -8.5996    2.5229    1.0136 Br  0  0  0  0  0  0  0  0  0  0  0  0
   -5.8699    2.3651    0.1173 C   0  0  0  0  0  0  0  0  0  0  0  0
   -4.7512    1.7363   -0.4382 C   0  0  0  0  0  0  0  0  0  0  0  0
    3.5044    0.9579    1.3342 C   0  0  0  0  0  0  0  0  0  0  0  0
    5.1000    1.4529    1.1429 S   0  0  0  0  0  0  0  0  0  0  0  0
    6.5267    3.0422   -0.7234 H   0  0  0  0  0  0  0  0  0  0  0  0
    8.2907    3.2812   -0.5041 H   0  0  0  0  0  0  0  0  0  0  0  0
    9.1127   -0.2257   -1.0580 H   0  0  0  0  0  0  0  0  0  0  0  0
    6.7175   -0.5415   -1.4835 H   0  0  0  0  0  0  0  0  0  0  0  0
    1.7242   -0.9466   -0.8387 H   0  0  0  0  0  0  0  0  0  0  0  0
    1.0926    0.0062    0.5557 H   0  0  0  0  0  0  0  0  0  0  0  0
   -0.0615   -2.4333   -0.1316 H   0  0  0  0  0  0  0  0  0  0  0  0
    0.1494   -3.7762    1.0322 H   0  0  0  0  0  0  0  0  0  0  0  0
   -0.4812   -2.3726    2.9319 H   0  0  0  0  0  0  0  0  0  0  0  0
   -0.6263   -0.9070    1.9203 H   0  0  0  0  0  0  0  0  0  0  0  0
   -3.8678   -2.3000    0.5593 H   0  0  0  0  0  0  0  0  0  0  0  0
   -1.4485   -0.4915   -0.1708 H   0  0  0  0  0  0  0  0  0  0  0  0
   -6.1116   -1.3323   -1.0337 H   0  0  0  0  0  0  0  0  0  0  0  0
   -8.0821   -0.2162   -0.0581 H   0  0  0  0  0  0  0  0  0  0  0  0
   -5.8005    3.3948    0.4436 H   0  0  0  0  0  0  0  0  0  0  0  0
   -3.8233    2.2862   -0.5319 H   0  0  0  0  0  0  0  0  0  0  0  0
    2.8257    1.2856    2.1106 H   0  0  0  0  0  0  0  0  0  0  0  0
  1  2  1  0
  2  3  2  3
  2  4  1  0
  4  5  1  0
  5  6  2  0
  6  7  1  0
  7  8  1  0
  8  9  1  0
  9 10  1  0
 10 11  1  0
 11 12  1  0
 12 13  2  3
 13 14  1  0
 14 15  1  0
 15 16  2  0
 15 17  2  0
 15 18  1  0
 18 19  2  0
 19 20  1  0
 20 21  2  0
 21 22  1  0
 21 23  1  0
 23 24  2  0
 24 18  1  0
  7 25  2  0
 25 26  1  0
 26  5  1  0
  1 27  1  0
  1 28  1  0
  3 29  1  0
  4 30  1  0
  8 31  1  0
  8 32  1  0
 10 33  1  0
 10 34  1  0
 11 35  1  0
 11 36  1  0
 13 37  1  0
 14 38  1  0
 19 39  1  0
 20 40  1  0
 23 41  1  0
 24 42  1  0
 25 43  1  0
M  END
> <ID>
HT0738

> <Class>
0.0

> <Clusters>
101

> <Fold>
1

$$$$