
     RDKit          3D

 36 39  0  0  0  0  0  0  0  0999 V2000
   -0.7728    0.6417    3.0399 C   0  0  0  0  0  0  0  0  0  0  0  0
   -1.2018    0.7717    1.6441 N   0  0  0  0  0  0  0  0  0  0  0  0
   -0.3960    0.2928    0.5411 C   0  0  0  0  0  0  0  0  0  0  0  0
   -0.9927   -0.1921   -0.6490 C   0  0  0  0  0  0  0  0  0  0  0  0
   -0.2152   -0.6592   -1.6192 O   0  0  0  0  0  0  0  0  0  0  0  0
    1.1056   -0.6899   -1.5452 C   0  0  0  0  0  0  0  0  0  0  0  0
    1.7563   -1.1721   -2.5120 O   0  0  0  0  0  0  0  0  0  0  0  0
    1.7493   -0.2156   -0.4375 N   0  0  0  0  0  0  0  0  0  0  0  0
    1.0145    0.2971    0.5980 C   0  0  0  0  0  0  0  0  0  0  0  0
    1.6044    0.8095    1.5886 O   0  0  0  0  0  0  0  0  0  0  0  0
    3.1918   -0.2357   -0.3788 C   0  0  0  0  0  0  0  0  0  0  0  0
    3.8585   -0.8538    0.6920 C   0  0  0  0  0  0  0  0  0  0  0  0
    5.2544   -0.8659    0.7163 C   0  0  0  0  0  0  0  0  0  0  0  0
    5.9726   -0.2708   -0.3218 C   0  0  0  0  0  0  0  0  0  0  0  0
    5.2796    0.3280   -1.3758 C   0  0  0  0  0  0  0  0  0  0  0  0
    3.9197    0.3309   -1.3826 N   0  0  0  0  0  0  0  0  0  0  0  0
   -2.4685   -0.2097   -0.8846 C   0  0  0  0  0  0  0  0  0  0  0  0
   -2.9847   -0.9334   -1.9796 C   0  0  0  0  0  0  0  0  0  0  0  0
   -4.3554   -0.9383   -2.2518 C   0  0  0  0  0  0  0  0  0  0  0  0
   -5.2325   -0.2179   -1.4419 C   0  0  0  0  0  0  0  0  0  0  0  0
   -4.7415    0.5054   -0.3551 C   0  0  0  0  0  0  0  0  0  0  0  0
   -3.3685    0.5094   -0.0731 C   0  0  0  0  0  0  0  0  0  0  0  0
   -2.7745    1.4024    1.2996 S   0  0  0  0  0  0  0  0  0  0  0  0
   -2.6809    2.8661    0.9744 O   0  0  0  0  0  0  0  0  0  0  0  0
   -3.6978    1.1895    2.4673 O   0  0  0  0  0  0  0  0  0  0  0  0
   -1.6348    0.6956    3.7346 H   0  0  0  0  0  0  0  0  0  0  0  0
   -0.0787    1.4667    3.3011 H   0  0  0  0  0  0  0  0  0  0  0  0
   -0.2767   -0.3396    3.1971 H   0  0  0  0  0  0  0  0  0  0  0  0
    3.3017   -1.3279    1.4904 H   0  0  0  0  0  0  0  0  0  0  0  0
    5.7784   -1.3390    1.5366 H   0  0  0  0  0  0  0  0  0  0  0  0
    7.0548   -0.2764   -0.3118 H   0  0  0  0  0  0  0  0  0  0  0  0
    5.8226    0.7898   -2.1895 H   0  0  0  0  0  0  0  0  0  0  0  0
   -2.3299   -1.5005   -2.6291 H   0  0  0  0  0  0  0  0  0  0  0  0
   -4.7371   -1.4998   -3.0949 H   0  0  0  0  0  0  0  0  0  0  0  0
   -6.2935   -0.2207   -1.6560 H   0  0  0  0  0  0  0  0  0  0  0  0
   -5.4307    1.0614    0.2681 H   0  0  0  0  0  0  0  0  0  0  0  0
  1  2  1  0
  2  3  1  0
  3  4  2  0
  4  5  1  0
  5  6  1  0
  6  7  2  0
  6  8  1  0
  8  9  1  0
  9  3  1  0
  9 10  2  0
  8 11  1  0
 11 12  2  0
 12 13  1  0
 13 14  2  0
 14 15  1  0
 15 16  2  0
 16 11  1  0
  4 17  1  0
 17 18  2  0
 18 19  1  0
 19 20  2  0
 20 21  1  0
 21 22  2  0
 22 17  1  0
 22 23  1  0
 23  2  1  0
 23 24  2  0
 23 25  2  0
  1 26  1  0
  1 27  1  0
  1 28  1  0
 12 29  1  0
 13 30  1  0
 14 31  1  0
 15 32  1  0
 18 33  1  0
 19 34  1  0
 20 35  1  0
 21 36  1  0
M  END
> <ID>
HT0730

> <Class>
0.0

> <Clusters>
200

> <Fold>
1

$$$$