
     RDKit          3D

 62 66  0  0  0  0  0  0  0  0999 V2000
    4.9903    0.6635    1.3457 C   0  0  0  0  0  0  0  0  0  0  0  0
    3.5281    1.0085    1.0345 C   0  0  0  0  0  0  0  0  0  0  0  0
    2.9954    1.9712    2.1013 C   0  0  0  0  0  0  0  0  0  0  0  0
    3.4582    1.6417   -0.2250 O   0  0  0  0  0  0  0  0  0  0  0  0
    2.6774    0.8197   -1.0402 C   0  0  2  0  0  0  0  0  0  0  0  0
    1.2806    1.4465   -1.2550 C   0  0  0  0  0  0  0  0  0  0  0  0
    0.3540    0.5977   -0.3952 C   0  0  1  0  0  0  0  0  0  0  0  0
   -1.1680    0.6341   -0.6553 C   0  0  2  0  0  0  0  0  0  0  0  0
   -1.6803    2.0906   -0.6016 C   0  0  0  0  0  0  0  0  0  0  0  0
   -3.1972    2.1573   -0.7619 C   0  0  0  0  0  0  0  0  0  0  0  0
   -3.8524    1.2927    0.2847 C   0  0  0  0  0  0  0  0  0  0  0  0
   -4.7318    1.8411    1.1385 C   0  0  0  0  0  0  0  0  0  0  0  0
   -5.3270    1.0505    2.2145 C   0  0  0  0  0  0  0  0  0  0  0  0
   -6.1653    1.5724    2.9957 O   0  0  0  0  0  0  0  0  0  0  0  0
   -4.9323   -0.3446    2.3861 C   0  0  0  0  0  0  0  0  0  0  0  0
   -4.0609   -0.9106    1.5507 C   0  0  0  0  0  0  0  0  0  0  0  0
   -3.4503   -0.1904    0.3468 C   0  0  1  0  0  0  0  0  0  0  0  0
   -4.0141   -0.8826   -0.9180 C   0  0  0  0  0  0  0  0  0  0  0  0
   -1.8742   -0.2425    0.4427 C   0  0  1  0  0  0  0  0  0  0  0  0
   -1.2467   -1.6777    0.5778 C   0  0  1  0  0  0  0  0  0  0  0  0
   -1.6625   -2.5151   -0.4674 O   0  0  0  0  0  0  0  0  0  0  0  0
    0.3070   -1.6561    0.6622 C   0  0  0  0  0  0  0  0  0  0  0  0
    0.9543   -0.8102   -0.4652 C   0  0  1  0  0  0  0  0  0  0  0  0
    0.7402   -1.4995   -1.8561 C   0  0  0  0  0  0  0  0  0  0  0  0
    2.4729   -0.4942   -0.2784 C   0  0  2  0  0  0  0  0  0  0  0  0
    2.7546   -0.1741    1.0567 O   0  0  0  0  0  0  0  0  0  0  0  0
    3.3828   -1.6584   -0.6781 C   0  0  0  0  0  0  0  0  0  0  0  0
    3.3398   -2.6802   -0.0074 O   0  0  0  0  0  0  0  0  0  0  0  0
    4.3266   -1.6001   -1.8583 C   0  0  0  0  0  0  0  0  0  0  0  0
    5.0844   -2.7764   -1.9614 O   0  0  0  0  0  0  0  0  0  0  0  0
    5.3978   -0.0251    0.5781 H   0  0  0  0  0  0  0  0  0  0  0  0
    5.0685    0.1673    2.3368 H   0  0  0  0  0  0  0  0  0  0  0  0
    5.6137    1.5833    1.3523 H   0  0  0  0  0  0  0  0  0  0  0  0
    3.0052    1.4861    3.1009 H   0  0  0  0  0  0  0  0  0  0  0  0
    1.9545    2.2733    1.8672 H   0  0  0  0  0  0  0  0  0  0  0  0
    3.6184    2.8905    2.1408 H   0  0  0  0  0  0  0  0  0  0  0  0
    3.1692    0.7054   -2.0266 H   0  0  0  0  0  0  0  0  0  0  0  0
    1.2554    2.5134   -0.9416 H   0  0  0  0  0  0  0  0  0  0  0  0
    0.9838    1.3795   -2.3245 H   0  0  0  0  0  0  0  0  0  0  0  0
    0.4848    0.9789    0.6446 H   0  0  0  0  0  0  0  0  0  0  0  0
   -1.3878    0.2500   -1.6690 H   0  0  0  0  0  0  0  0  0  0  0  0
   -1.3947    2.5632    0.3649 H   0  0  0  0  0  0  0  0  0  0  0  0
   -1.2180    2.6826   -1.4208 H   0  0  0  0  0  0  0  0  0  0  0  0
   -3.5185    3.2193   -0.6832 H   0  0  0  0  0  0  0  0  0  0  0  0
   -3.4845    1.8024   -1.7743 H   0  0  0  0  0  0  0  0  0  0  0  0
   -4.9970    2.8890    1.0607 H   0  0  0  0  0  0  0  0  0  0  0  0
   -5.3572   -0.9265    3.1948 H   0  0  0  0  0  0  0  0  0  0  0  0
   -3.8421   -1.9603    1.6987 H   0  0  0  0  0  0  0  0  0  0  0  0
   -3.4684   -0.5902   -1.8363 H   0  0  0  0  0  0  0  0  0  0  0  0
   -3.9866   -1.9884   -0.8336 H   0  0  0  0  0  0  0  0  0  0  0  0
   -5.0826   -0.6079   -1.0576 H   0  0  0  0  0  0  0  0  0  0  0  0
   -1.6349    0.2506    1.4151 H   0  0  0  0  0  0  0  0  0  0  0  0
   -1.5970   -2.1113    1.5420 H   0  0  0  0  0  0  0  0  0  0  0  0
   -1.5049   -3.4501   -0.1729 H   0  0  0  0  0  0  0  0  0  0  0  0
    0.6984   -2.6957    0.6323 H   0  0  0  0  0  0  0  0  0  0  0  0
    0.5859   -1.2413    1.6556 H   0  0  0  0  0  0  0  0  0  0  0  0
    1.1052   -2.5480   -1.8259 H   0  0  0  0  0  0  0  0  0  0  0  0
   -0.3134   -1.5417   -2.1791 H   0  0  0  0  0  0  0  0  0  0  0  0
    1.2937   -0.9759   -2.6624 H   0  0  0  0  0  0  0  0  0  0  0  0
    5.0264   -0.7497   -1.7257 H   0  0  0  0  0  0  0  0  0  0  0  0
    3.7512   -1.4357   -2.7966 H   0  0  0  0  0  0  0  0  0  0  0  0
    4.4918   -3.4620   -2.3679 H   0  0  0  0  0  0  0  0  0  0  0  0
  1  2  1  0
  2  3  1  0
  2  4  1  0
  4  5  1  0
  5  6  1  0
  7  6  1  0
  7  8  1  0
  8  9  1  0
  9 10  1  0
 10 11  1  0
 11 12  2  0
 12 13  1  0
 13 14  2  0
 13 15  1  0
 15 16  2  0
 16 17  1  0
 17 11  1  0
 17 18  1  6
 17 19  1  0
 19  8  1  0
 19 20  1  0
 20 21  1  0
 20 22  1  0
 22 23  1  0
 23  7  1  0
 23 24  1  6
 23 25  1  0
 25  5  1  0
 25 26  1  0
 26  2  1  0
 25 27  1  6
 27 28  2  0
 27 29  1  0
 29 30  1  0
  1 31  1  0
  1 32  1  0
  1 33  1  0
  3 34  1  0
  3 35  1  0
  3 36  1  0
  5 37  1  6
  6 38  1  0
  6 39  1  0
  7 40  1  1
  8 41  1  6
  9 42  1  0
  9 43  1  0
 10 44  1  0
 10 45  1  0
 12 46  1  0
 15 47  1  0
 16 48  1  0
 18 49  1  0
 18 50  1  0
 18 51  1  0
 19 52  1  1
 20 53  1  1
 21 54  1  0
 22 55  1  0
 22 56  1  0
 24 57  1  0
 24 58  1  0
 24 59  1  0
 29 60  1  0
 29 61  1  0
 30 62  1  0
M  END
> <ID>
HT0616

> <Class>
0.0

> <Clusters>
234

> <Fold>
1

$$$$