
     RDKit          3D

 37 40  0  0  0  0  0  0  0  0999 V2000
    0.4686   -0.3231   -2.3908 O   0  0  0  0  0  0  0  0  0  0  0  0
    1.4125   -0.3996   -1.3711 C   0  0  0  0  0  0  0  0  0  0  0  0
    1.1801   -1.2154   -0.2464 C   0  0  0  0  0  0  0  0  0  0  0  0
   -0.1087   -2.0044   -0.1268 C   0  0  0  0  0  0  0  0  0  0  0  0
   -1.2971   -1.0903    0.1004 C   0  0  0  0  0  0  0  0  0  0  0  0
   -1.4304   -0.3813    1.3108 C   0  0  0  0  0  0  0  0  0  0  0  0
   -0.4788   -0.5213    2.3162 O   0  0  0  0  0  0  0  0  0  0  0  0
   -2.4668    0.4265    1.5124 O   0  0  0  0  0  0  0  0  0  0  0  0
   -3.4251    0.6098    0.6122 C   0  0  0  0  0  0  0  0  0  0  0  0
   -4.4839    1.4796    0.8961 C   0  0  0  0  0  0  0  0  0  0  0  0
   -5.5001    1.6785   -0.0423 C   0  0  0  0  0  0  0  0  0  0  0  0
   -5.4636    1.0090   -1.2684 C   0  0  0  0  0  0  0  0  0  0  0  0
   -4.4106    0.1375   -1.5631 C   0  0  0  0  0  0  0  0  0  0  0  0
   -3.3814   -0.0693   -0.6250 C   0  0  0  0  0  0  0  0  0  0  0  0
   -2.3022   -0.9333   -0.8752 C   0  0  0  0  0  0  0  0  0  0  0  0
   -2.2347   -1.5628   -1.9673 O   0  0  0  0  0  0  0  0  0  0  0  0
    2.1750   -1.2731    0.7499 C   0  0  0  0  0  0  0  0  0  0  0  0
    2.0174   -2.0044    1.7667 O   0  0  0  0  0  0  0  0  0  0  0  0
    3.3466   -0.5118    0.6032 C   0  0  0  0  0  0  0  0  0  0  0  0
    4.3729   -0.5202    1.5668 C   0  0  0  0  0  0  0  0  0  0  0  0
    5.5205    0.2557    1.3761 C   0  0  0  0  0  0  0  0  0  0  0  0
    5.6548    1.0424    0.2289 C   0  0  0  0  0  0  0  0  0  0  0  0
    4.6422    1.0573   -0.7341 C   0  0  0  0  0  0  0  0  0  0  0  0
    3.4892    0.2850   -0.5540 C   0  0  0  0  0  0  0  0  0  0  0  0
    2.5348    0.3054   -1.4765 O   0  0  0  0  0  0  0  0  0  0  0  0
    0.6280    0.2625   -3.2014 H   0  0  0  0  0  0  0  0  0  0  0  0
   -0.2311   -2.6094   -1.0501 H   0  0  0  0  0  0  0  0  0  0  0  0
   -0.0641   -2.7415    0.7028 H   0  0  0  0  0  0  0  0  0  0  0  0
   -0.5678   -0.0139    3.1881 H   0  0  0  0  0  0  0  0  0  0  0  0
   -4.5196    2.0013    1.8443 H   0  0  0  0  0  0  0  0  0  0  0  0
   -6.3173    2.3521    0.1811 H   0  0  0  0  0  0  0  0  0  0  0  0
   -6.2530    1.1660   -1.9921 H   0  0  0  0  0  0  0  0  0  0  0  0
   -4.4036   -0.3697   -2.5201 H   0  0  0  0  0  0  0  0  0  0  0  0
    4.2911   -1.1214    2.4639 H   0  0  0  0  0  0  0  0  0  0  0  0
    6.3074    0.2472    2.1192 H   0  0  0  0  0  0  0  0  0  0  0  0
    6.5450    1.6411    0.0859 H   0  0  0  0  0  0  0  0  0  0  0  0
    4.7539    1.6689   -1.6206 H   0  0  0  0  0  0  0  0  0  0  0  0
  1  2  1  0
  2  3  2  0
  3  4  1  0
  4  5  1  0
  5  6  2  0
  6  7  1  0
  6  8  1  0
  8  9  1  0
  9 10  2  0
 10 11  1  0
 11 12  2  0
 12 13  1  0
 13 14  2  0
 14  9  1  0
 14 15  1  0
 15  5  1  0
 15 16  2  0
  3 17  1  0
 17 18  2  0
 17 19  1  0
 19 20  2  0
 20 21  1  0
 21 22  2  0
 22 23  1  0
 23 24  2  0
 24 19  1  0
 24 25  1  0
 25  2  1  0
  1 26  1  0
  4 27  1  0
  4 28  1  0
  7 29  1  0
 10 30  1  0
 11 31  1  0
 12 32  1  0
 13 33  1  0
 20 34  1  0
 21 35  1  0
 22 36  1  0
 23 37  1  0
M  END
> <ID>
HT0650

> <Class>
0.0

> <Clusters>
194

> <Fold>
1

$$$$