
     RDKit          3D

 27 28  0  0  0  0  0  0  0  0999 V2000
    1.5951   -1.4174    1.4171 O   0  0  0  0  0  0  0  0  0  0  0  0
    2.0126   -0.4166    0.5369 C   0  0  0  0  0  0  0  0  0  0  0  0
    3.1693    0.3034    0.8580 C   0  0  0  0  0  0  0  0  0  0  0  0
    3.6152    1.3361    0.0314 C   0  0  0  0  0  0  0  0  0  0  0  0
    2.9061    1.6608   -1.1265 C   0  0  0  0  0  0  0  0  0  0  0  0
    3.4614    2.9672   -2.1572 Cl  0  0  0  0  0  0  0  0  0  0  0  0
    1.7534    0.9456   -1.4639 C   0  0  0  0  0  0  0  0  0  0  0  0
    1.2997   -0.1068   -0.6481 C   0  0  0  0  0  0  0  0  0  0  0  0
    0.0449   -0.8557   -1.0439 C   0  0  0  0  0  0  0  0  0  0  0  0
   -1.2054   -0.4686   -0.2682 C   0  0  0  0  0  0  0  0  0  0  0  0
   -1.2187    0.6295    0.6223 C   0  0  0  0  0  0  0  0  0  0  0  0
   -2.3768    0.9622    1.3304 C   0  0  0  0  0  0  0  0  0  0  0  0
   -2.3676    2.3236    2.4371 Cl  0  0  0  0  0  0  0  0  0  0  0  0
   -3.5410    0.2147    1.1572 C   0  0  0  0  0  0  0  0  0  0  0  0
   -3.5536   -0.8607    0.2700 C   0  0  0  0  0  0  0  0  0  0  0  0
   -2.4038   -1.2054   -0.4499 C   0  0  0  0  0  0  0  0  0  0  0  0
   -2.4898   -2.2803   -1.3386 O   0  0  0  0  0  0  0  0  0  0  0  0
    0.7446   -1.9498    1.2897 H   0  0  0  0  0  0  0  0  0  0  0  0
    3.7200    0.0667    1.7597 H   0  0  0  0  0  0  0  0  0  0  0  0
    4.5088    1.8872    0.2955 H   0  0  0  0  0  0  0  0  0  0  0  0
    1.2117    1.2110   -2.3636 H   0  0  0  0  0  0  0  0  0  0  0  0
    0.2401   -1.9414   -0.9168 H   0  0  0  0  0  0  0  0  0  0  0  0
   -0.1582   -0.7052   -2.1267 H   0  0  0  0  0  0  0  0  0  0  0  0
   -0.3388    1.2390    0.7752 H   0  0  0  0  0  0  0  0  0  0  0  0
   -4.4395    0.4700    1.7046 H   0  0  0  0  0  0  0  0  0  0  0  0
   -4.4655   -1.4287    0.1348 H   0  0  0  0  0  0  0  0  0  0  0  0
   -1.7241   -2.5806   -1.9273 H   0  0  0  0  0  0  0  0  0  0  0  0
  1  2  1  0
  2  3  2  0
  3  4  1  0
  4  5  2  0
  5  6  1  0
  5  7  1  0
  7  8  2  0
  8  2  1  0
  8  9  1  0
  9 10  1  0
 10 11  2  0
 11 12  1  0
 12 13  1  0
 12 14  2  0
 14 15  1  0
 15 16  2  0
 16 10  1  0
 16 17  1  0
  1 18  1  0
  3 19  1  0
  4 20  1  0
  7 21  1  0
  9 22  1  0
  9 23  1  0
 11 24  1  0
 14 25  1  0
 15 26  1  0
 17 27  1  0
M  END
> <ID>
HT0644

> <Class>
0.0

> <Clusters>
74

> <Fold>
1

$$$$