
     RDKit          3D

 68 71  0  0  0  0  0  0  0  0999 V2000
    4.2703   -1.1285   -1.5595 C   0  0  0  0  0  0  0  0  0  0  0  0
    3.7649   -0.0494   -0.5779 C   0  0  2  0  0  0  0  0  0  0  0  0
    4.9823    0.5899    0.1603 C   0  0  0  0  0  0  0  0  0  0  0  0
    6.0347    1.2142   -0.7751 C   0  0  0  0  0  0  0  0  0  0  0  0
    6.9978    2.0708   -0.0104 C   0  0  0  0  0  0  0  0  0  0  0  0
    6.5997    3.1284    0.5479 O   0  0  0  0  0  0  0  0  0  0  0  0
    8.3380    1.7056    0.0714 O   0  0  0  0  0  0  0  0  0  0  0  0
    2.7165   -0.6534    0.4413 C   0  0  1  0  0  0  0  0  0  0  0  0
    2.4602    0.2722    1.6293 C   0  0  0  0  0  0  0  0  0  0  0  0
    1.2420   -0.2749    2.3273 C   0  0  0  0  0  0  0  0  0  0  0  0
    0.3825   -0.9477    1.2477 C   0  0  1  0  0  0  0  0  0  0  0  0
   -0.9835   -0.2110    1.0726 C   0  0  2  0  0  0  0  0  0  0  0  0
   -1.9081   -0.4432    2.2854 C   0  0  0  0  0  0  0  0  0  0  0  0
   -3.2414    0.3208    2.1699 C   0  0  0  0  0  0  0  0  0  0  0  0
   -3.6087    0.7262    0.7224 C   0  0  2  0  0  0  0  0  0  0  0  0
   -5.0907    1.1646    0.6521 C   0  0  0  0  0  0  0  0  0  0  0  0
   -5.4898    1.6043   -0.7651 C   0  0  2  0  0  0  0  0  0  0  0  0
   -6.8609    1.9011   -0.8045 O   0  0  0  0  0  0  0  0  0  0  0  0
   -5.1880    0.5006   -1.7851 C   0  0  0  0  0  0  0  0  0  0  0  0
   -3.7049    0.1006   -1.7361 C   0  0  0  0  0  0  0  0  0  0  0  0
   -3.2345   -0.3794   -0.3200 C   0  0  2  0  0  0  0  0  0  0  0  0
   -3.9852   -1.7143   -0.0088 C   0  0  0  0  0  0  0  0  0  0  0  0
   -1.6598   -0.6684   -0.2465 C   0  0  1  0  0  0  0  0  0  0  0  0
   -0.8064   -0.1350   -1.4255 C   0  0  0  0  0  0  0  0  0  0  0  0
    0.7240   -0.0591   -1.1585 C   0  0  2  0  0  0  0  0  0  0  0  0
    1.3936   -0.2491   -2.3786 O   0  0  0  0  0  0  0  0  0  0  0  0
    1.2662   -1.0427   -0.0588 C   0  0  1  0  0  0  0  0  0  0  0  0
    1.2524   -2.5116   -0.5758 C   0  0  0  0  0  0  0  0  0  0  0  0
    4.7585   -1.9618   -1.0108 H   0  0  0  0  0  0  0  0  0  0  0  0
    3.4624   -1.5315   -2.1853 H   0  0  0  0  0  0  0  0  0  0  0  0
    4.9876   -0.7064   -2.2898 H   0  0  0  0  0  0  0  0  0  0  0  0
    3.2922    0.7681   -1.1590 H   0  0  0  0  0  0  0  0  0  0  0  0
    4.6146    1.4095    0.8121 H   0  0  0  0  0  0  0  0  0  0  0  0
    5.4724   -0.1709    0.8075 H   0  0  0  0  0  0  0  0  0  0  0  0
    6.6156    0.4126   -1.2774 H   0  0  0  0  0  0  0  0  0  0  0  0
    5.5394    1.8363   -1.5515 H   0  0  0  0  0  0  0  0  0  0  0  0
    9.0019    2.2764    0.5808 H   0  0  0  0  0  0  0  0  0  0  0  0
    3.1912   -1.5623    0.8791 H   0  0  0  0  0  0  0  0  0  0  0  0
    3.3170    0.2881    2.3381 H   0  0  0  0  0  0  0  0  0  0  0  0
    2.2477    1.3055    1.2746 H   0  0  0  0  0  0  0  0  0  0  0  0
    1.5594   -1.0333    3.0779 H   0  0  0  0  0  0  0  0  0  0  0  0
    0.7277    0.5484    2.8677 H   0  0  0  0  0  0  0  0  0  0  0  0
    0.1550   -1.9767    1.6124 H   0  0  0  0  0  0  0  0  0  0  0  0
   -0.7886    0.8850    1.0104 H   0  0  0  0  0  0  0  0  0  0  0  0
   -2.1009   -1.5304    2.4018 H   0  0  0  0  0  0  0  0  0  0  0  0
   -1.4085   -0.1230    3.2234 H   0  0  0  0  0  0  0  0  0  0  0  0
   -4.0454   -0.3100    2.6091 H   0  0  0  0  0  0  0  0  0  0  0  0
   -3.1839    1.2447    2.7870 H   0  0  0  0  0  0  0  0  0  0  0  0
   -3.0050    1.6294    0.4737 H   0  0  0  0  0  0  0  0  0  0  0  0
   -5.7636    0.3509    0.9963 H   0  0  0  0  0  0  0  0  0  0  0  0
   -5.2438    2.0228    1.3430 H   0  0  0  0  0  0  0  0  0  0  0  0
   -4.9040    2.5121   -1.0447 H   0  0  0  0  0  0  0  0  0  0  0  0
   -6.9777    2.7771   -0.3517 H   0  0  0  0  0  0  0  0  0  0  0  0
   -5.4193    0.8821   -2.8037 H   0  0  0  0  0  0  0  0  0  0  0  0
   -5.8451   -0.3779   -1.6177 H   0  0  0  0  0  0  0  0  0  0  0  0
   -3.1547    1.0061   -2.0552 H   0  0  0  0  0  0  0  0  0  0  0  0
   -3.5168   -0.6914   -2.4935 H   0  0  0  0  0  0  0  0  0  0  0  0
   -3.6324   -2.1842    0.9280 H   0  0  0  0  0  0  0  0  0  0  0  0
   -3.8130   -2.4496   -0.8242 H   0  0  0  0  0  0  0  0  0  0  0  0
   -5.0783   -1.5846    0.0957 H   0  0  0  0  0  0  0  0  0  0  0  0
   -1.5505   -1.7702   -0.2855 H   0  0  0  0  0  0  0  0  0  0  0  0
   -1.1011    0.9042   -1.6692 H   0  0  0  0  0  0  0  0  0  0  0  0
   -1.0042   -0.7680   -2.3189 H   0  0  0  0  0  0  0  0  0  0  0  0
    0.9370    0.9731   -0.7899 H   0  0  0  0  0  0  0  0  0  0  0  0
    1.2682    0.5795   -2.9117 H   0  0  0  0  0  0  0  0  0  0  0  0
    0.2259   -2.8805   -0.7499 H   0  0  0  0  0  0  0  0  0  0  0  0
    1.7211   -3.1952    0.1640 H   0  0  0  0  0  0  0  0  0  0  0  0
    1.7787   -2.6356   -1.5358 H   0  0  0  0  0  0  0  0  0  0  0  0
  2  1  1  0
  2  3  1  0
  3  4  1  0
  4  5  1  0
  5  6  2  0
  5  7  1  0
  8  2  1  0
  8  9  1  0
  9 10  1  0
 11 10  1  0
 11 12  1  0
 12 13  1  0
 13 14  1  0
 15 14  1  0
 15 16  1  0
 16 17  1  0
 17 18  1  0
 17 19  1  0
 19 20  1  0
 20 21  1  0
 21 15  1  0
 21 22  1  1
 21 23  1  0
 23 12  1  0
 23 24  1  0
 24 25  1  0
 25 26  1  0
 25 27  1  0
 27  8  1  0
 27 11  1  0
 27 28  1  6
  1 29  1  0
  1 30  1  0
  1 31  1  0
  2 32  1  6
  3 33  1  0
  3 34  1  0
  4 35  1  0
  4 36  1  0
  7 37  1  0
  8 38  1  1
  9 39  1  0
  9 40  1  0
 10 41  1  0
 10 42  1  0
 11 43  1  1
 12 44  1  6
 13 45  1  0
 13 46  1  0
 14 47  1  0
 14 48  1  0
 15 49  1  6
 16 50  1  0
 16 51  1  0
 17 52  1  6
 18 53  1  0
 19 54  1  0
 19 55  1  0
 20 56  1  0
 20 57  1  0
 22 58  1  0
 22 59  1  0
 22 60  1  0
 23 61  1  1
 24 62  1  0
 24 63  1  0
 25 64  1  1
 26 65  1  0
 28 66  1  0
 28 67  1  0
 28 68  1  0
M  END
> <ID>
HT0618

> <Class>
0.0

> <Clusters>
55

> <Fold>
1

$$$$