
     RDKit          3D

 39 41  0  0  0  0  0  0  0  0999 V2000
    4.6723    2.8680    0.6716 C   0  0  0  0  0  0  0  0  0  0  0  0
    4.3713    1.4473    0.3334 C   0  0  0  0  0  0  0  0  0  0  0  0
    5.1922    0.7798   -0.3528 O   0  0  0  0  0  0  0  0  0  0  0  0
    3.1493    0.8956    0.7388 O   0  0  0  0  0  0  0  0  0  0  0  0
    2.8284   -0.4717    0.7197 C   0  0  0  0  0  0  0  0  0  0  0  0
    3.8160   -1.4399    0.9742 C   0  0  0  0  0  0  0  0  0  0  0  0
    3.4985   -2.7947    0.9684 C   0  0  0  0  0  0  0  0  0  0  0  0
    2.1923   -3.2057    0.7207 C   0  0  0  0  0  0  0  0  0  0  0  0
    1.1791   -2.2608    0.4836 C   0  0  0  0  0  0  0  0  0  0  0  0
   -0.2079   -2.7124    0.2337 C   0  0  0  0  0  0  0  0  0  0  0  0
   -0.4734   -3.9466    0.2317 O   0  0  0  0  0  0  0  0  0  0  0  0
   -1.2859   -1.7268   -0.0119 C   0  0  0  0  0  0  0  0  0  0  0  0
   -2.5998   -2.1695   -0.2449 C   0  0  0  0  0  0  0  0  0  0  0  0
   -3.6394   -1.2571   -0.4663 C   0  0  0  0  0  0  0  0  0  0  0  0
   -3.3479    0.1126   -0.4844 C   0  0  0  0  0  0  0  0  0  0  0  0
   -2.0386    0.5797   -0.2769 C   0  0  0  0  0  0  0  0  0  0  0  0
   -1.7666    1.9579   -0.2817 O   0  0  0  0  0  0  0  0  0  0  0  0
   -2.4163    2.9085   -1.0795 C   0  0  0  0  0  0  0  0  0  0  0  0
   -3.0908    2.5607   -2.0865 O   0  0  0  0  0  0  0  0  0  0  0  0
   -2.2098    4.3579   -0.7992 C   0  0  0  0  0  0  0  0  0  0  0  0
   -0.9967   -0.3449   -0.0169 C   0  0  0  0  0  0  0  0  0  0  0  0
    0.4029    0.1076    0.2333 C   0  0  0  0  0  0  0  0  0  0  0  0
    0.6706    1.3396    0.2291 O   0  0  0  0  0  0  0  0  0  0  0  0
    1.4893   -0.8819    0.4872 C   0  0  0  0  0  0  0  0  0  0  0  0
   -5.0299   -1.7210   -0.6955 C   0  0  0  0  0  0  0  0  0  0  0  0
   -5.8394   -0.9853   -1.3206 O   0  0  0  0  0  0  0  0  0  0  0  0
   -5.4800   -2.9531   -0.2222 O   0  0  0  0  0  0  0  0  0  0  0  0
    3.8906    3.5251    0.2368 H   0  0  0  0  0  0  0  0  0  0  0  0
    5.6627    3.1669    0.2670 H   0  0  0  0  0  0  0  0  0  0  0  0
    4.6804    2.9910    1.7745 H   0  0  0  0  0  0  0  0  0  0  0  0
    4.8308   -1.1481    1.2079 H   0  0  0  0  0  0  0  0  0  0  0  0
    4.2676   -3.5304    1.1660 H   0  0  0  0  0  0  0  0  0  0  0  0
    1.9739   -4.2663    0.7236 H   0  0  0  0  0  0  0  0  0  0  0  0
   -2.8049   -3.2311   -0.2712 H   0  0  0  0  0  0  0  0  0  0  0  0
   -4.1530    0.8227   -0.6204 H   0  0  0  0  0  0  0  0  0  0  0  0
   -3.1194    4.9337   -1.0717 H   0  0  0  0  0  0  0  0  0  0  0  0
   -1.3483    4.7299   -1.3917 H   0  0  0  0  0  0  0  0  0  0  0  0
   -2.0013    4.5076    0.2808 H   0  0  0  0  0  0  0  0  0  0  0  0
   -4.9186   -3.5449    0.3764 H   0  0  0  0  0  0  0  0  0  0  0  0
  1  2  1  0
  2  3  2  0
  2  4  1  0
  4  5  1  0
  5  6  2  0
  6  7  1  0
  7  8  2  0
  8  9  1  0
  9 10  1  0
 10 11  2  0
 10 12  1  0
 12 13  2  0
 13 14  1  0
 14 15  2  0
 15 16  1  0
 16 17  1  0
 17 18  1  0
 18 19  2  0
 18 20  1  0
 16 21  2  0
 21 12  1  0
 21 22  1  0
 22 23  2  0
 22 24  1  0
 24  5  1  0
 24  9  2  0
 14 25  1  0
 25 26  2  0
 25 27  1  0
  1 28  1  0
  1 29  1  0
  1 30  1  0
  6 31  1  0
  7 32  1  0
  8 33  1  0
 13 34  1  0
 15 35  1  0
 20 36  1  0
 20 37  1  0
 20 38  1  0
 27 39  1  0
M  END
> <ID>
HT0633

> <Class>
0.0

> <Clusters>
68

> <Fold>
1

$$$$