
     RDKit          3D

 54 56  0  0  0  0  0  0  0  0999 V2000
    4.6275   -0.5884    2.5484 C   0  0  0  0  0  0  0  0  0  0  0  0
    4.4123   -0.5546    1.0245 C   0  0  0  0  0  0  0  0  0  0  0  0
    4.8925   -1.8770    0.4106 C   0  0  0  0  0  0  0  0  0  0  0  0
    2.9818   -0.2404    0.5757 C   0  0  0  0  0  0  0  0  0  0  0  0
    1.9055   -0.4304    1.4684 C   0  0  0  0  0  0  0  0  0  0  0  0
    0.5779   -0.1757    1.1020 C   0  0  0  0  0  0  0  0  0  0  0  0
   -0.4860   -0.4191    2.1474 C   0  0  0  0  0  0  0  0  0  0  0  0
   -1.8596    0.1340    1.7716 C   0  0  0  0  0  0  0  0  0  0  0  0
   -2.1775   -0.2097    0.3032 C   0  0  0  0  0  0  0  0  0  0  0  0
   -3.6991   -0.1308   -0.1039 C   0  0  0  0  0  0  0  0  0  0  0  0
   -4.5533   -1.0722    0.7811 C   0  0  0  0  0  0  0  0  0  0  0  0
   -3.8312   -0.6589   -1.5630 C   0  0  0  0  0  0  0  0  0  0  0  0
   -2.8866    0.0303   -2.5515 C   0  0  0  0  0  0  0  0  0  0  0  0
   -1.4215   -0.0539   -2.1039 C   0  0  0  0  0  0  0  0  0  0  0  0
   -1.1740    0.5140   -0.6718 C   0  0  0  0  0  0  0  0  0  0  0  0
   -1.3263    2.0597   -0.6962 C   0  0  0  0  0  0  0  0  0  0  0  0
    0.2754    0.2267   -0.2209 C   0  0  0  0  0  0  0  0  0  0  0  0
    1.3513    0.4665   -1.0967 C   0  0  0  0  0  0  0  0  0  0  0  0
    2.6856    0.2307   -0.7359 C   0  0  0  0  0  0  0  0  0  0  0  0
    3.8786    0.4798   -2.0399 S   0  0  0  0  0  0  0  0  0  0  0  0
    3.7832   -0.6771   -2.9947 O   0  0  0  0  0  0  0  0  0  0  0  0
    3.5223    1.7422   -2.7759 O   0  0  0  0  0  0  0  0  0  0  0  0
    5.4761    0.6074   -1.5306 O   0  0  0  0  0  0  0  0  0  0  0  0
   -4.2865    1.2657    0.0494 C   0  0  0  0  0  0  0  0  0  0  0  0
   -4.8775    1.8305   -0.9120 O   0  0  0  0  0  0  0  0  0  0  0  0
   -4.2265    1.9173    1.2791 O   0  0  0  0  0  0  0  0  0  0  0  0
    5.7147   -0.6345    2.7736 H   0  0  0  0  0  0  0  0  0  0  0  0
    4.2228    0.3342    3.0170 H   0  0  0  0  0  0  0  0  0  0  0  0
    4.1525   -1.4827    3.0089 H   0  0  0  0  0  0  0  0  0  0  0  0
    5.0630    0.2736    0.6958 H   0  0  0  0  0  0  0  0  0  0  0  0
    5.9869   -1.9908    0.5611 H   0  0  0  0  0  0  0  0  0  0  0  0
    4.3744   -2.7366    0.8855 H   0  0  0  0  0  0  0  0  0  0  0  0
    4.6979   -1.9106   -0.6796 H   0  0  0  0  0  0  0  0  0  0  0  0
    2.0794   -0.7906    2.4730 H   0  0  0  0  0  0  0  0  0  0  0  0
   -0.5700   -1.5157    2.3081 H   0  0  0  0  0  0  0  0  0  0  0  0
   -0.1758    0.0377    3.1123 H   0  0  0  0  0  0  0  0  0  0  0  0
   -1.8813    1.2255    1.9543 H   0  0  0  0  0  0  0  0  0  0  0  0
   -2.5921   -0.3263    2.4615 H   0  0  0  0  0  0  0  0  0  0  0  0
   -1.9338   -1.2962    0.2121 H   0  0  0  0  0  0  0  0  0  0  0  0
   -4.6705   -0.6815    1.8137 H   0  0  0  0  0  0  0  0  0  0  0  0
   -5.5789   -1.1762    0.3631 H   0  0  0  0  0  0  0  0  0  0  0  0
   -4.0999   -2.0864    0.8370 H   0  0  0  0  0  0  0  0  0  0  0  0
   -4.8773   -0.5468   -1.9272 H   0  0  0  0  0  0  0  0  0  0  0  0
   -3.6055   -1.7500   -1.5849 H   0  0  0  0  0  0  0  0  0  0  0  0
   -3.1887    1.0854   -2.7091 H   0  0  0  0  0  0  0  0  0  0  0  0
   -2.9813   -0.4723   -3.5378 H   0  0  0  0  0  0  0  0  0  0  0  0
   -1.0970   -1.1182   -2.1420 H   0  0  0  0  0  0  0  0  0  0  0  0
   -0.8295    0.4965   -2.8639 H   0  0  0  0  0  0  0  0  0  0  0  0
   -2.2975    2.3922   -1.1000 H   0  0  0  0  0  0  0  0  0  0  0  0
   -1.1928    2.5032    0.3082 H   0  0  0  0  0  0  0  0  0  0  0  0
   -0.5523    2.5135   -1.3499 H   0  0  0  0  0  0  0  0  0  0  0  0
    1.1587    0.8417   -2.0894 H   0  0  0  0  0  0  0  0  0  0  0  0
    5.7328    1.5537   -1.6645 H   0  0  0  0  0  0  0  0  0  0  0  0
   -4.6236    2.8415    1.3983 H   0  0  0  0  0  0  0  0  0  0  0  0
  1  2  1  0
  2  3  1  0
  2  4  1  0
  4  5  2  0
  5  6  1  0
  6  7  1  0
  7  8  1  0
  8  9  1  0
  9 10  1  0
 10 11  1  0
 10 12  1  0
 12 13  1  0
 13 14  1  0
 14 15  1  0
 15  9  1  0
 15 16  1  0
 15 17  1  0
 17  6  2  0
 17 18  1  0
 18 19  2  0
 19  4  1  0
 19 20  1  0
 20 21  2  0
 20 22  2  0
 20 23  1  0
 10 24  1  0
 24 25  2  0
 24 26  1  0
  1 27  1  0
  1 28  1  0
  1 29  1  0
  2 30  1  0
  3 31  1  0
  3 32  1  0
  3 33  1  0
  5 34  1  0
  7 35  1  0
  7 36  1  0
  8 37  1  0
  8 38  1  0
  9 39  1  0
 11 40  1  0
 11 41  1  0
 11 42  1  0
 12 43  1  0
 12 44  1  0
 13 45  1  0
 13 46  1  0
 14 47  1  0
 14 48  1  0
 16 49  1  0
 16 50  1  0
 16 51  1  0
 18 52  1  0
 23 53  1  0
 26 54  1  0
M  END
> <ID>
HT0739

> <Class>
0.0

> <Clusters>
129

> <Fold>
1

$$$$