
     RDKit          3D

 44 47  0  0  0  0  0  0  0  0999 V2000
    3.9915   -0.3265   -1.0860 C   0  0  0  0  0  0  0  0  0  0  0  0
    2.6321   -0.4561   -0.3710 C   0  0  0  0  0  0  0  0  0  0  0  0
    1.8130   -1.6041   -1.0192 C   0  0  0  0  0  0  0  0  0  0  0  0
    0.3836   -1.7502   -0.4543 C   0  0  0  0  0  0  0  0  0  0  0  0
   -0.2957   -0.4055   -0.0705 C   0  0  0  0  0  0  0  0  0  0  0  0
    0.3858    0.7765   -0.8123 C   0  0  0  0  0  0  0  0  0  0  0  0
   -0.4053    2.1180   -0.7590 C   0  0  0  0  0  0  0  0  0  0  0  0
   -1.5549    2.1192    0.2540 C   0  0  0  0  0  0  0  0  0  0  0  0
   -2.4433    0.9179    0.0578 C   0  0  0  0  0  0  0  0  0  0  0  0
   -3.7642    1.0196    0.2800 C   0  0  0  0  0  0  0  0  0  0  0  0
   -4.6300   -0.1726    0.2813 C   0  0  0  0  0  0  0  0  0  0  0  0
   -5.8743   -0.0374    0.4201 O   0  0  0  0  0  0  0  0  0  0  0  0
   -4.0469   -1.5459    0.0988 C   0  0  0  0  0  0  0  0  0  0  0  0
   -2.5465   -1.5582    0.4226 C   0  0  0  0  0  0  0  0  0  0  0  0
   -1.8262   -0.4177   -0.3325 C   0  0  0  0  0  0  0  0  0  0  0  0
    1.8767    0.9122   -0.3710 C   0  0  0  0  0  0  0  0  0  0  0  0
    2.0562    1.4995    1.0538 C   0  0  0  0  0  0  0  0  0  0  0  0
    2.4822    0.3702    1.9857 C   0  0  0  0  0  0  0  0  0  0  0  0
    2.8742   -0.7303    1.0798 C   0  0  0  0  0  0  0  0  0  0  0  0
    3.3668   -1.7703    1.4915 O   0  0  0  0  0  0  0  0  0  0  0  0
    3.8423   -0.0698   -2.1569 H   0  0  0  0  0  0  0  0  0  0  0  0
    4.5569   -1.2820   -1.0312 H   0  0  0  0  0  0  0  0  0  0  0  0
    4.6070    0.4724   -0.6177 H   0  0  0  0  0  0  0  0  0  0  0  0
    2.3477   -2.5725   -0.9008 H   0  0  0  0  0  0  0  0  0  0  0  0
    1.7409   -1.4206   -2.1144 H   0  0  0  0  0  0  0  0  0  0  0  0
   -0.2176   -2.2839   -1.2226 H   0  0  0  0  0  0  0  0  0  0  0  0
    0.4166   -2.4033    0.4454 H   0  0  0  0  0  0  0  0  0  0  0  0
   -0.1539   -0.2572    1.0226 H   0  0  0  0  0  0  0  0  0  0  0  0
    0.4058    0.5061   -1.8933 H   0  0  0  0  0  0  0  0  0  0  0  0
    0.2684    2.9762   -0.5475 H   0  0  0  0  0  0  0  0  0  0  0  0
   -0.8433    2.3180   -1.7628 H   0  0  0  0  0  0  0  0  0  0  0  0
   -2.1297    3.0647    0.1392 H   0  0  0  0  0  0  0  0  0  0  0  0
   -1.1516    2.0958    1.2875 H   0  0  0  0  0  0  0  0  0  0  0  0
   -4.2030    1.9767    0.5368 H   0  0  0  0  0  0  0  0  0  0  0  0
   -4.5705   -2.2668    0.7630 H   0  0  0  0  0  0  0  0  0  0  0  0
   -4.2031   -1.8639   -0.9546 H   0  0  0  0  0  0  0  0  0  0  0  0
   -2.1388   -2.5487    0.1315 H   0  0  0  0  0  0  0  0  0  0  0  0
   -2.4012   -1.4357    1.5190 H   0  0  0  0  0  0  0  0  0  0  0  0
   -1.9940   -0.5622   -1.4238 H   0  0  0  0  0  0  0  0  0  0  0  0
    2.3519    1.6153   -1.0935 H   0  0  0  0  0  0  0  0  0  0  0  0
    1.1480    1.9936    1.4495 H   0  0  0  0  0  0  0  0  0  0  0  0
    2.8638    2.2645    1.0268 H   0  0  0  0  0  0  0  0  0  0  0  0
    3.3431    0.6809    2.6161 H   0  0  0  0  0  0  0  0  0  0  0  0
    1.6395    0.0440    2.6319 H   0  0  0  0  0  0  0  0  0  0  0  0
  1  2  1  0
  2  3  1  0
  3  4  1  0
  4  5  1  0
  5  6  1  0
  6  7  1  0
  7  8  1  0
  8  9  1  0
  9 10  2  0
 10 11  1  0
 11 12  2  0
 11 13  1  0
 13 14  1  0
 14 15  1  0
 15  5  1  0
 15  9  1  0
  6 16  1  0
 16  2  1  0
 16 17  1  0
 17 18  1  0
 18 19  1  0
 19  2  1  0
 19 20  2  0
  1 21  1  0
  1 22  1  0
  1 23  1  0
  3 24  1  0
  3 25  1  0
  4 26  1  0
  4 27  1  0
  5 28  1  0
  6 29  1  0
  7 30  1  0
  7 31  1  0
  8 32  1  0
  8 33  1  0
 10 34  1  0
 13 35  1  0
 13 36  1  0
 14 37  1  0
 14 38  1  0
 15 39  1  0
 16 40  1  0
 17 41  1  0
 17 42  1  0
 18 43  1  0
 18 44  1  0
M  END
> <ID>
HT0025

> <Class>
0.0

> <Clusters>
183

> <Fold>
1

$$$$