
     RDKit          3D

 53 56  0  0  0  0  0  0  0  0999 V2000
   -1.8793   -0.9550   -2.5196 C   0  0  0  0  0  0  0  0  0  0  0  0
   -2.4526   -1.3462   -1.1540 C   0  0  0  0  0  0  0  0  0  0  0  0
   -2.2400   -0.3677    0.0963 C   0  0  2  0  0  0  0  0  0  0  0  0
   -1.9214    1.1020   -0.3283 C   0  0  0  0  0  0  0  0  0  0  0  0
   -0.5028    1.2129   -0.8864 C   0  0  0  0  0  0  0  0  0  0  0  0
   -0.3310    1.7765   -2.0994 C   0  0  0  0  0  0  0  0  0  0  0  0
    0.6423    0.6071   -0.0435 C   0  0  1  0  0  0  0  0  0  0  0  0
    0.2770   -0.8705    0.3250 C   0  0  1  0  0  0  0  0  0  0  0  0
    1.3505   -1.4863    1.2364 C   0  0  0  0  0  0  0  0  0  0  0  0
    2.6897   -1.5202    0.5126 C   0  0  0  0  0  0  0  0  0  0  0  0
    3.0993   -0.1232    0.1234 C   0  0  0  0  0  0  0  0  0  0  0  0
    4.3889    0.2500    0.2977 C   0  0  0  0  0  0  0  0  0  0  0  0
    4.9097    1.6222   -0.0439 C   0  0  0  0  0  0  0  0  0  0  0  0
    3.9988    2.3672   -1.0184 C   0  0  0  0  0  0  0  0  0  0  0  0
    2.5462    2.2417   -0.5681 C   0  0  0  0  0  0  0  0  0  0  0  0
    2.0917    0.7586   -0.6224 C   0  0  2  0  0  0  0  0  0  0  0  0
   -1.1014   -0.8481    1.0247 C   0  0  2  0  0  0  0  0  0  0  0  0
   -1.6374   -2.1105    1.7017 C   0  0  0  0  0  0  0  0  0  0  0  0
   -3.1638   -1.9004    1.7589 C   0  0  0  0  0  0  0  0  0  0  0  0
   -3.4562   -0.5354    1.0758 C   0  0  2  0  0  0  0  0  0  0  0  0
   -4.6865   -0.5474    0.3910 O   0  0  0  0  0  0  0  0  0  0  0  0
   -3.5193    0.5267    2.1139 C   0  0  0  0  0  0  0  0  0  0  0  0
   -3.5729    1.3854    2.9589 C   0  0  0  0  0  0  0  0  0  0  0  0
   -2.3257   -0.0058   -2.8782 H   0  0  0  0  0  0  0  0  0  0  0  0
   -0.7749   -0.8951   -2.5065 H   0  0  0  0  0  0  0  0  0  0  0  0
   -2.1469   -1.7386   -3.2602 H   0  0  0  0  0  0  0  0  0  0  0  0
   -3.5304   -1.5060   -1.3526 H   0  0  0  0  0  0  0  0  0  0  0  0
   -2.0663   -2.3601   -0.9279 H   0  0  0  0  0  0  0  0  0  0  0  0
   -2.6931    1.4593   -1.0442 H   0  0  0  0  0  0  0  0  0  0  0  0
   -1.9624    1.7869    0.5429 H   0  0  0  0  0  0  0  0  0  0  0  0
   -1.1744    2.1921   -2.6418 H   0  0  0  0  0  0  0  0  0  0  0  0
    0.6194    1.8013   -2.6126 H   0  0  0  0  0  0  0  0  0  0  0  0
    0.6430    1.1788    0.9126 H   0  0  0  0  0  0  0  0  0  0  0  0
    0.2244   -1.4916   -0.5920 H   0  0  0  0  0  0  0  0  0  0  0  0
    1.0736   -2.5296    1.5000 H   0  0  0  0  0  0  0  0  0  0  0  0
    1.4438   -0.9030    2.1796 H   0  0  0  0  0  0  0  0  0  0  0  0
    2.6036   -2.1405   -0.4060 H   0  0  0  0  0  0  0  0  0  0  0  0
    3.4420   -2.0011    1.1762 H   0  0  0  0  0  0  0  0  0  0  0  0
    5.0840   -0.4261    0.7881 H   0  0  0  0  0  0  0  0  0  0  0  0
    5.9230    1.5286   -0.4892 H   0  0  0  0  0  0  0  0  0  0  0  0
    5.0007    2.2068    0.8968 H   0  0  0  0  0  0  0  0  0  0  0  0
    4.1145    1.9479   -2.0423 H   0  0  0  0  0  0  0  0  0  0  0  0
    4.2904    3.4393   -1.0486 H   0  0  0  0  0  0  0  0  0  0  0  0
    1.9248    2.8923   -1.2118 H   0  0  0  0  0  0  0  0  0  0  0  0
    2.4539    2.6322    0.4702 H   0  0  0  0  0  0  0  0  0  0  0  0
    2.0982    0.4068   -1.6764 H   0  0  0  0  0  0  0  0  0  0  0  0
   -0.9928   -0.1141    1.8604 H   0  0  0  0  0  0  0  0  0  0  0  0
   -1.2168   -2.2162    2.7259 H   0  0  0  0  0  0  0  0  0  0  0  0
   -1.3839   -3.0226    1.1202 H   0  0  0  0  0  0  0  0  0  0  0  0
   -3.6638   -2.7212    1.1983 H   0  0  0  0  0  0  0  0  0  0  0  0
   -3.5318   -1.9349    2.8089 H   0  0  0  0  0  0  0  0  0  0  0  0
   -5.3868   -0.8443    1.0307 H   0  0  0  0  0  0  0  0  0  0  0  0
   -3.6190    2.1390    3.7001 H   0  0  0  0  0  0  0  0  0  0  0  0
  1  2  1  0
  3  2  1  6
  3  4  1  0
  4  5  1  0
  5  6  2  3
  7  5  1  0
  7  8  1  0
  8  9  1  0
  9 10  1  0
 10 11  1  0
 11 12  2  0
 12 13  1  0
 13 14  1  0
 14 15  1  0
 16 15  1  0
 16  7  1  0
 16 11  1  0
  8 17  1  0
 17  3  1  0
 17 18  1  0
 18 19  1  0
 19 20  1  0
 20  3  1  0
 20 21  1  0
 20 22  1  1
 22 23  3  0
  1 24  1  0
  1 25  1  0
  1 26  1  0
  2 27  1  0
  2 28  1  0
  4 29  1  0
  4 30  1  0
  6 31  1  0
  6 32  1  0
  7 33  1  1
  8 34  1  6
  9 35  1  0
  9 36  1  0
 10 37  1  0
 10 38  1  0
 12 39  1  0
 13 40  1  0
 13 41  1  0
 14 42  1  0
 14 43  1  0
 15 44  1  0
 15 45  1  0
 16 46  1  6
 17 47  1  1
 18 48  1  0
 18 49  1  0
 19 50  1  0
 19 51  1  0
 21 52  1  0
 23 53  1  0
M  END
> <ID>
HT0615

> <Class>
0.0

> <Clusters>
183

> <Fold>
1

$$$$