
     RDKit          3D

 56 59  0  0  0  0  0  0  0  0999 V2000
    2.2108   -1.5385   -0.1009 C   0  0  0  0  0  0  0  0  0  0  0  0
    1.9647   -0.0007    0.0834 C   0  0  2  0  0  0  0  0  0  0  0  0
    1.2238    0.2677    1.4216 C   0  0  0  0  0  0  0  0  0  0  0  0
   -0.2390   -0.2670    1.4177 C   0  0  2  0  0  0  0  0  0  0  0  0
   -0.2355   -1.6662    1.5045 O   0  0  0  0  0  0  0  0  0  0  0  0
   -1.0669    0.2302    0.1758 C   0  0  1  0  0  0  0  0  0  0  0  0
   -1.1616    1.6116    0.3242 F   0  0  0  0  0  0  0  0  0  0  0  0
   -0.2954   -0.0135   -1.1728 C   0  0  1  0  0  0  0  0  0  0  0  0
   -1.0585    0.6329   -2.3489 C   0  0  0  0  0  0  0  0  0  0  0  0
   -2.4760    0.0820   -2.4625 C   0  0  0  0  0  0  0  0  0  0  0  0
   -3.2179    0.2292   -1.1560 C   0  0  0  0  0  0  0  0  0  0  0  0
   -4.4834    0.6914   -1.1762 C   0  0  0  0  0  0  0  0  0  0  0  0
   -5.3250    0.6999    0.0259 C   0  0  0  0  0  0  0  0  0  0  0  0
   -6.4646    1.2324   -0.0114 O   0  0  0  0  0  0  0  0  0  0  0  0
   -4.8513    0.0342    1.2766 C   0  0  0  0  0  0  0  0  0  0  0  0
   -3.3325    0.1782    1.3961 C   0  0  0  0  0  0  0  0  0  0  0  0
   -2.5611   -0.3148    0.1224 C   0  0  2  0  0  0  0  0  0  0  0  0
   -2.6554   -1.8642    0.0554 C   0  0  0  0  0  0  0  0  0  0  0  0
    1.1208    0.6029   -1.0508 C   0  0  2  0  0  0  0  0  0  0  0  0
    2.0440    0.5972   -2.2631 C   0  0  0  0  0  0  0  0  0  0  0  0
    3.4522    0.8265   -1.6797 C   0  0  0  0  0  0  0  0  0  0  0  0
    3.3161    0.7681   -0.1159 C   0  0  1  0  0  0  0  0  0  0  0  0
    3.2341    2.0764    0.4235 O   0  0  0  0  0  0  0  0  0  0  0  0
    4.5129    0.0942    0.5598 C   0  0  0  0  0  0  0  0  0  0  0  0
    5.3419   -0.5155   -0.1012 O   0  0  0  0  0  0  0  0  0  0  0  0
    4.7374    0.2152    2.0470 C   0  0  0  0  0  0  0  0  0  0  0  0
    4.9029   -1.0520    2.6261 O   0  0  0  0  0  0  0  0  0  0  0  0
    2.6952   -1.9651    0.8011 H   0  0  0  0  0  0  0  0  0  0  0  0
    1.2928   -2.1239   -0.2727 H   0  0  0  0  0  0  0  0  0  0  0  0
    2.8762   -1.7502   -0.9621 H   0  0  0  0  0  0  0  0  0  0  0  0
    1.1917    1.3598    1.6310 H   0  0  0  0  0  0  0  0  0  0  0  0
    1.7774   -0.1984    2.2633 H   0  0  0  0  0  0  0  0  0  0  0  0
   -0.7245    0.1421    2.3338 H   0  0  0  0  0  0  0  0  0  0  0  0
    0.0477   -1.9075    2.4235 H   0  0  0  0  0  0  0  0  0  0  0  0
   -0.2141   -1.0930   -1.3952 H   0  0  0  0  0  0  0  0  0  0  0  0
   -1.1022    1.7372   -2.2271 H   0  0  0  0  0  0  0  0  0  0  0  0
   -0.5298    0.4192   -3.3022 H   0  0  0  0  0  0  0  0  0  0  0  0
   -2.9963    0.6073   -3.2933 H   0  0  0  0  0  0  0  0  0  0  0  0
   -2.4292   -0.9948   -2.7322 H   0  0  0  0  0  0  0  0  0  0  0  0
   -4.9208    1.0458   -2.1029 H   0  0  0  0  0  0  0  0  0  0  0  0
   -5.3342    0.5060    2.1609 H   0  0  0  0  0  0  0  0  0  0  0  0
   -5.1387   -1.0381    1.2573 H   0  0  0  0  0  0  0  0  0  0  0  0
   -3.1219    1.2535    1.5907 H   0  0  0  0  0  0  0  0  0  0  0  0
   -2.9995   -0.3819    2.2965 H   0  0  0  0  0  0  0  0  0  0  0  0
   -3.6677   -2.1794   -0.2692 H   0  0  0  0  0  0  0  0  0  0  0  0
   -1.9361   -2.2977   -0.6634 H   0  0  0  0  0  0  0  0  0  0  0  0
   -2.4931   -2.3337    1.0444 H   0  0  0  0  0  0  0  0  0  0  0  0
    0.9495    1.6816   -0.8299 H   0  0  0  0  0  0  0  0  0  0  0  0
    1.7757    1.4031   -2.9779 H   0  0  0  0  0  0  0  0  0  0  0  0
    1.9912   -0.3828   -2.7834 H   0  0  0  0  0  0  0  0  0  0  0  0
    4.1264    0.0422   -2.0881 H   0  0  0  0  0  0  0  0  0  0  0  0
    3.8610    1.8068   -2.0118 H   0  0  0  0  0  0  0  0  0  0  0  0
    2.8122    2.6951   -0.2253 H   0  0  0  0  0  0  0  0  0  0  0  0
    5.6676    0.8002    2.2134 H   0  0  0  0  0  0  0  0  0  0  0  0
    3.9085    0.7637    2.5464 H   0  0  0  0  0  0  0  0  0  0  0  0
    3.9975   -1.4550    2.7053 H   0  0  0  0  0  0  0  0  0  0  0  0
  2  1  1  6
  2  3  1  0
  3  4  1  0
  4  5  1  0
  4  6  1  0
  6  7  1  1
  6  8  1  0
  8  9  1  0
  9 10  1  0
 10 11  1  0
 11 12  2  0
 12 13  1  0
 13 14  2  0
 13 15  1  0
 15 16  1  0
 16 17  1  0
 17  6  1  0
 17 11  1  0
 17 18  1  6
  8 19  1  0
 19  2  1  0
 19 20  1  0
 20 21  1  0
 21 22  1  0
 22  2  1  0
 22 23  1  1
 22 24  1  0
 24 25  2  0
 24 26  1  0
 26 27  1  0
  1 28  1  0
  1 29  1  0
  1 30  1  0
  3 31  1  0
  3 32  1  0
  4 33  1  1
  5 34  1  0
  8 35  1  6
  9 36  1  0
  9 37  1  0
 10 38  1  0
 10 39  1  0
 12 40  1  0
 15 41  1  0
 15 42  1  0
 16 43  1  0
 16 44  1  0
 18 45  1  0
 18 46  1  0
 18 47  1  0
 19 48  1  1
 20 49  1  0
 20 50  1  0
 21 51  1  0
 21 52  1  0
 23 53  1  0
 26 54  1  0
 26 55  1  0
 27 56  1  0
M  END
> <ID>
HT0893

> <Class>
0.0

> <Clusters>
129

> <Fold>
1

$$$$