
     RDKit          3D

 61 64  0  0  0  0  0  0  0  0999 V2000
    6.2425   -1.6463    2.9457 C   0  0  0  0  0  0  0  0  0  0  0  0
    5.0970   -0.7936    2.5187 C   0  0  0  0  0  0  0  0  0  0  0  0
    3.9268   -1.2616    2.5542 O   0  0  0  0  0  0  0  0  0  0  0  0
    5.3324    0.5171    2.0882 O   0  0  0  0  0  0  0  0  0  0  0  0
    4.2994    1.3834    1.6198 C   0  0  0  0  0  0  0  0  0  0  0  0
    3.8485    1.0018    0.2306 C   0  0  0  0  0  0  0  0  0  0  0  0
    4.5665    0.2830   -0.4508 O   0  0  0  0  0  0  0  0  0  0  0  0
    2.5137    1.5098   -0.3249 C   0  0  1  0  0  0  0  0  0  0  0  0
    2.1651    2.7116    0.3319 O   0  0  0  0  0  0  0  0  0  0  0  0
    2.5441    1.7753   -1.8643 C   0  0  0  0  0  0  0  0  0  0  0  0
    1.1597    1.3764   -2.4134 C   0  0  0  0  0  0  0  0  0  0  0  0
    0.3346    1.0636   -1.1703 C   0  0  1  0  0  0  0  0  0  0  0  0
   -0.9518    0.2143   -1.3116 C   0  0  2  0  0  0  0  0  0  0  0  0
   -1.9036    0.8552   -2.3437 C   0  0  0  0  0  0  0  0  0  0  0  0
   -3.1955    0.0548   -2.4758 C   0  0  0  0  0  0  0  0  0  0  0  0
   -3.8583   -0.1320   -1.1312 C   0  0  0  0  0  0  0  0  0  0  0  0
   -5.1895    0.0414   -1.0345 C   0  0  0  0  0  0  0  0  0  0  0  0
   -5.9313   -0.3066    0.1840 C   0  0  0  0  0  0  0  0  0  0  0  0
   -7.1695   -0.0845    0.2472 O   0  0  0  0  0  0  0  0  0  0  0  0
   -5.2390   -0.9938    1.3153 C   0  0  0  0  0  0  0  0  0  0  0  0
   -3.7801   -0.5396    1.3867 C   0  0  0  0  0  0  0  0  0  0  0  0
   -3.0187   -0.6970    0.0255 C   0  0  1  0  0  0  0  0  0  0  0  0
   -2.8169   -2.2122   -0.2568 C   0  0  0  0  0  0  0  0  0  0  0  0
   -1.6570    0.1238    0.0920 C   0  0  2  0  0  0  0  0  0  0  0  0
   -2.0036    1.4284    0.4342 F   0  0  0  0  0  0  0  0  0  0  0  0
   -0.6681   -0.3499    1.2216 C   0  0  1  0  0  0  0  0  0  0  0  0
   -0.4100   -1.7259    1.1424 O   0  0  0  0  0  0  0  0  0  0  0  0
    0.6719    0.4420    1.2243 C   0  0  0  0  0  0  0  0  0  0  0  0
    1.3465    0.4811   -0.1738 C   0  0  2  0  0  0  0  0  0  0  0  0
    1.8405   -0.9523   -0.5747 C   0  0  0  0  0  0  0  0  0  0  0  0
    6.1049   -1.9544    4.0032 H   0  0  0  0  0  0  0  0  0  0  0  0
    6.2944   -2.5501    2.3033 H   0  0  0  0  0  0  0  0  0  0  0  0
    7.1949   -1.0830    2.8543 H   0  0  0  0  0  0  0  0  0  0  0  0
    4.6913    2.4212    1.5935 H   0  0  0  0  0  0  0  0  0  0  0  0
    3.4420    1.3583    2.3261 H   0  0  0  0  0  0  0  0  0  0  0  0
    2.8777    3.3796    0.1497 H   0  0  0  0  0  0  0  0  0  0  0  0
    3.3209    1.1719   -2.3809 H   0  0  0  0  0  0  0  0  0  0  0  0
    2.7530    2.8441   -2.0888 H   0  0  0  0  0  0  0  0  0  0  0  0
    0.7077    2.2094   -2.9951 H   0  0  0  0  0  0  0  0  0  0  0  0
    1.2393    0.4787   -3.0650 H   0  0  0  0  0  0  0  0  0  0  0  0
    0.0020    2.0602   -0.7904 H   0  0  0  0  0  0  0  0  0  0  0  0
   -0.6898   -0.7896   -1.6930 H   0  0  0  0  0  0  0  0  0  0  0  0
   -2.1468    1.9021   -2.0566 H   0  0  0  0  0  0  0  0  0  0  0  0
   -1.4130    0.8843   -3.3406 H   0  0  0  0  0  0  0  0  0  0  0  0
   -3.8640    0.5762   -3.1960 H   0  0  0  0  0  0  0  0  0  0  0  0
   -2.9641   -0.9441   -2.9045 H   0  0  0  0  0  0  0  0  0  0  0  0
   -5.7541    0.4133   -1.8815 H   0  0  0  0  0  0  0  0  0  0  0  0
   -5.2964   -2.0930    1.1692 H   0  0  0  0  0  0  0  0  0  0  0  0
   -5.7461   -0.7466    2.2732 H   0  0  0  0  0  0  0  0  0  0  0  0
   -3.2739   -1.1201    2.1878 H   0  0  0  0  0  0  0  0  0  0  0  0
   -3.7828    0.5232    1.7126 H   0  0  0  0  0  0  0  0  0  0  0  0
   -2.5205   -2.7687    0.6555 H   0  0  0  0  0  0  0  0  0  0  0  0
   -2.0611   -2.3965   -1.0441 H   0  0  0  0  0  0  0  0  0  0  0  0
   -3.7654   -2.6753   -0.6050 H   0  0  0  0  0  0  0  0  0  0  0  0
   -1.1564   -0.1401    2.2013 H   0  0  0  0  0  0  0  0  0  0  0  0
   -0.0541   -2.0082    2.0254 H   0  0  0  0  0  0  0  0  0  0  0  0
    0.4521    1.4735    1.5750 H   0  0  0  0  0  0  0  0  0  0  0  0
    1.3677   -0.0017    1.9684 H   0  0  0  0  0  0  0  0  0  0  0  0
    1.0266   -1.6758   -0.7473 H   0  0  0  0  0  0  0  0  0  0  0  0
    2.4791   -1.3766    0.2276 H   0  0  0  0  0  0  0  0  0  0  0  0
    2.4386   -0.9400   -1.5085 H   0  0  0  0  0  0  0  0  0  0  0  0
  1  2  1  0
  2  3  2  0
  2  4  1  0
  4  5  1  0
  5  6  1  0
  6  7  2  0
  6  8  1  0
  8  9  1  1
  8 10  1  0
 10 11  1  0
 12 11  1  0
 12 13  1  0
 13 14  1  0
 14 15  1  0
 15 16  1  0
 16 17  2  0
 17 18  1  0
 18 19  2  0
 18 20  1  0
 20 21  1  0
 21 22  1  0
 22 16  1  0
 22 23  1  6
 22 24  1  0
 24 13  1  0
 24 25  1  1
 24 26  1  0
 26 27  1  0
 26 28  1  0
 28 29  1  0
 29  8  1  0
 29 12  1  0
 29 30  1  6
  1 31  1  0
  1 32  1  0
  1 33  1  0
  5 34  1  0
  5 35  1  0
  9 36  1  0
 10 37  1  0
 10 38  1  0
 11 39  1  0
 11 40  1  0
 12 41  1  1
 13 42  1  6
 14 43  1  0
 14 44  1  0
 15 45  1  0
 15 46  1  0
 17 47  1  0
 20 48  1  0
 20 49  1  0
 21 50  1  0
 21 51  1  0
 23 52  1  0
 23 53  1  0
 23 54  1  0
 26 55  1  1
 27 56  1  0
 28 57  1  0
 28 58  1  0
 30 59  1  0
 30 60  1  0
 30 61  1  0
M  END
> <ID>
HT0894

> <Class>
0.0

> <Clusters>
129

> <Fold>
1

$$$$