
     RDKit          3D

 54 57  0  0  0  0  0  0  0  0999 V2000
    2.2900    2.2036   -0.9039 C   0  0  0  0  0  0  0  0  0  0  0  0
    1.7500    0.9607   -0.1432 C   0  0  0  0  0  0  0  0  0  0  0  0
    0.8685    1.4871    1.0567 C   0  0  0  0  0  0  0  0  0  0  0  0
   -0.4043    0.6751    1.3237 C   0  0  0  0  0  0  0  0  0  0  0  0
   -1.3445    0.6807    0.0980 C   0  0  0  0  0  0  0  0  0  0  0  0
   -0.5664    0.5223   -1.2574 C   0  0  0  0  0  0  0  0  0  0  0  0
   -1.3027   -0.3501   -2.3037 C   0  0  0  0  0  0  0  0  0  0  0  0
   -2.8025   -0.0554   -2.3435 C   0  0  0  0  0  0  0  0  0  0  0  0
   -3.4294   -0.2193   -0.9788 C   0  0  0  0  0  0  0  0  0  0  0  0
   -4.7734   -0.3206   -0.8909 C   0  0  0  0  0  0  0  0  0  0  0  0
   -5.5074   -0.4230    0.4204 C   0  0  0  0  0  0  0  0  0  0  0  0
   -4.6050   -0.9174    1.5502 C   0  0  0  0  0  0  0  0  0  0  0  0
   -3.3024   -0.1206    1.5630 C   0  0  0  0  0  0  0  0  0  0  0  0
   -2.5210   -0.3298    0.2449 C   0  0  0  0  0  0  0  0  0  0  0  0
    0.9149    0.0684   -1.1024 C   0  0  0  0  0  0  0  0  0  0  0  0
    1.0969   -1.3833   -0.6165 C   0  0  0  0  0  0  0  0  0  0  0  0
    2.2088   -1.3754    0.4295 C   0  0  0  0  0  0  0  0  0  0  0  0
    2.9066   -0.0084    0.3295 C   0  0  0  0  0  0  0  0  0  0  0  0
    3.4098    0.3469    1.5956 O   0  0  0  0  0  0  0  0  0  0  0  0
    4.0972   -0.1041   -0.6863 C   0  0  0  0  0  0  0  0  0  0  0  0
    5.1562   -1.1037   -0.2874 C   0  0  0  0  0  0  0  0  0  0  0  0
    6.0488   -0.8508    0.6743 C   0  0  0  0  0  0  0  0  0  0  0  0
    2.9846    2.7807   -0.2574 H   0  0  0  0  0  0  0  0  0  0  0  0
    1.4582    2.8758   -1.2041 H   0  0  0  0  0  0  0  0  0  0  0  0
    2.8169    1.9281   -1.8409 H   0  0  0  0  0  0  0  0  0  0  0  0
    0.5321    2.5304    0.8641 H   0  0  0  0  0  0  0  0  0  0  0  0
    1.4416    1.5573    2.0021 H   0  0  0  0  0  0  0  0  0  0  0  0
   -0.9264    1.1444    2.1859 H   0  0  0  0  0  0  0  0  0  0  0  0
   -0.1577   -0.3573    1.6340 H   0  0  0  0  0  0  0  0  0  0  0  0
   -1.8100    1.6942    0.0759 H   0  0  0  0  0  0  0  0  0  0  0  0
   -0.5200    1.5406   -1.7066 H   0  0  0  0  0  0  0  0  0  0  0  0
   -1.1684   -1.4306   -2.0838 H   0  0  0  0  0  0  0  0  0  0  0  0
   -0.8713   -0.1639   -3.3115 H   0  0  0  0  0  0  0  0  0  0  0  0
   -3.2755   -0.7593   -3.0633 H   0  0  0  0  0  0  0  0  0  0  0  0
   -2.9748    0.9819   -2.7037 H   0  0  0  0  0  0  0  0  0  0  0  0
   -5.3753   -0.2351   -1.7918 H   0  0  0  0  0  0  0  0  0  0  0  0
   -5.9103    0.5799    0.6790 H   0  0  0  0  0  0  0  0  0  0  0  0
   -6.3650   -1.1197    0.3057 H   0  0  0  0  0  0  0  0  0  0  0  0
   -4.3841   -1.9989    1.4114 H   0  0  0  0  0  0  0  0  0  0  0  0
   -5.1288   -0.7925    2.5224 H   0  0  0  0  0  0  0  0  0  0  0  0
   -3.5322    0.9582    1.7108 H   0  0  0  0  0  0  0  0  0  0  0  0
   -2.6907   -0.4672    2.4236 H   0  0  0  0  0  0  0  0  0  0  0  0
   -2.1091   -1.3622    0.2622 H   0  0  0  0  0  0  0  0  0  0  0  0
    1.3730    0.1170   -2.1176 H   0  0  0  0  0  0  0  0  0  0  0  0
    0.1731   -1.8080   -0.1736 H   0  0  0  0  0  0  0  0  0  0  0  0
    1.3885   -2.0330   -1.4713 H   0  0  0  0  0  0  0  0  0  0  0  0
    2.8915   -2.2378    0.2772 H   0  0  0  0  0  0  0  0  0  0  0  0
    1.7704   -1.5016    1.4426 H   0  0  0  0  0  0  0  0  0  0  0  0
    3.8064    1.2532    1.5115 H   0  0  0  0  0  0  0  0  0  0  0  0
    3.7122   -0.3972   -1.6864 H   0  0  0  0  0  0  0  0  0  0  0  0
    4.5961    0.8820   -0.8001 H   0  0  0  0  0  0  0  0  0  0  0  0
    5.2175   -2.0445   -0.8267 H   0  0  0  0  0  0  0  0  0  0  0  0
    6.8042   -1.5899    0.9202 H   0  0  0  0  0  0  0  0  0  0  0  0
    6.0448    0.0920    1.2115 H   0  0  0  0  0  0  0  0  0  0  0  0
  1  2  1  0
  2  3  1  0
  3  4  1  0
  4  5  1  0
  5  6  1  0
  6  7  1  0
  7  8  1  0
  8  9  1  0
  9 10  2  0
 10 11  1  0
 11 12  1  0
 12 13  1  0
 13 14  1  0
 14  5  1  0
 14  9  1  0
  6 15  1  0
 15  2  1  0
 15 16  1  0
 16 17  1  0
 17 18  1  0
 18  2  1  0
 18 19  1  0
 18 20  1  0
 20 21  1  0
 21 22  2  3
  1 23  1  0
  1 24  1  0
  1 25  1  0
  3 26  1  0
  3 27  1  0
  4 28  1  0
  4 29  1  0
  5 30  1  0
  6 31  1  0
  7 32  1  0
  7 33  1  0
  8 34  1  0
  8 35  1  0
 10 36  1  0
 11 37  1  0
 11 38  1  0
 12 39  1  0
 12 40  1  0
 13 41  1  0
 13 42  1  0
 14 43  1  0
 15 44  1  0
 16 45  1  0
 16 46  1  0
 17 47  1  0
 17 48  1  0
 19 49  1  0
 20 50  1  0
 20 51  1  0
 21 52  1  0
 22 53  1  0
 22 54  1  0
M  END
> <ID>
HT0107

> <Class>
0.0

> <Clusters>
183

> <Fold>
1

$$$$