
     RDKit          3D

 54 57  0  0  0  0  0  0  0  0999 V2000
   -6.1334    0.2102   -0.9375 C   0  0  0  0  0  0  0  0  0  0  0  0
   -4.6896    0.2855   -1.3780 C   0  0  0  0  0  0  0  0  0  0  0  0
   -3.6117    0.3408   -0.4613 C   0  0  0  0  0  0  0  0  0  0  0  0
   -2.3595    0.2995   -0.9059 O   0  0  0  0  0  0  0  0  0  0  0  0
   -2.0315    0.2426   -2.1925 C   0  0  0  0  0  0  0  0  0  0  0  0
   -0.6703    0.2043   -2.5805 C   0  0  0  0  0  0  0  0  0  0  0  0
   -0.3557    0.1546   -3.9505 C   0  0  0  0  0  0  0  0  0  0  0  0
   -1.3637    0.1438   -4.9152 C   0  0  0  0  0  0  0  0  0  0  0  0
   -2.7036    0.1795   -4.5340 C   0  0  0  0  0  0  0  0  0  0  0  0
   -3.0496    0.2277   -3.1730 C   0  0  0  0  0  0  0  0  0  0  0  0
   -4.3892    0.2501   -2.7511 C   0  0  0  0  0  0  0  0  0  0  0  0
   -5.3238    0.2273   -3.6004 O   0  0  0  0  0  0  0  0  0  0  0  0
    0.4337    0.2163   -1.5851 C   0  0  0  0  0  0  0  0  0  0  0  0
    0.1841    0.2714   -0.3491 O   0  0  0  0  0  0  0  0  0  0  0  0
    1.7637    0.1726   -2.0250 O   0  0  0  0  0  0  0  0  0  0  0  0
    2.8829    0.1377   -1.1418 C   0  0  0  0  0  0  0  0  0  0  0  0
    3.0624   -1.2790   -0.5629 C   0  0  0  0  0  0  0  0  0  0  0  0
    4.0533   -1.3549    0.5318 N   0  0  0  0  0  0  0  0  0  0  0  0
    3.6394   -0.6575    1.7778 C   0  0  0  0  0  0  0  0  0  0  0  0
    4.5803    0.4949    2.1599 C   0  0  0  0  0  0  0  0  0  0  0  0
    6.0353    0.0122    2.2908 C   0  0  0  0  0  0  0  0  0  0  0  0
    6.3944   -1.1012    1.2879 C   0  0  0  0  0  0  0  0  0  0  0  0
    5.4423   -1.1039    0.0892 C   0  0  0  0  0  0  0  0  0  0  0  0
   -3.8026    0.4563    0.9986 C   0  0  0  0  0  0  0  0  0  0  0  0
   -3.1584   -0.4481    1.8576 C   0  0  0  0  0  0  0  0  0  0  0  0
   -3.2930   -0.3208    3.2436 C   0  0  0  0  0  0  0  0  0  0  0  0
   -4.0558    0.7199    3.7809 C   0  0  0  0  0  0  0  0  0  0  0  0
   -4.6790    1.6395    2.9329 C   0  0  0  0  0  0  0  0  0  0  0  0
   -4.5470    1.5154    1.5463 C   0  0  0  0  0  0  0  0  0  0  0  0
   -6.2454    0.0326    0.1497 H   0  0  0  0  0  0  0  0  0  0  0  0
   -6.6372   -0.6365   -1.4500 H   0  0  0  0  0  0  0  0  0  0  0  0
   -6.6534    1.1536   -1.2052 H   0  0  0  0  0  0  0  0  0  0  0  0
    0.6743    0.1246   -4.2825 H   0  0  0  0  0  0  0  0  0  0  0  0
   -1.1038    0.1058   -5.9653 H   0  0  0  0  0  0  0  0  0  0  0  0
   -3.4650    0.1664   -5.3044 H   0  0  0  0  0  0  0  0  0  0  0  0
    2.7523    0.8969   -0.3424 H   0  0  0  0  0  0  0  0  0  0  0  0
    3.7812    0.4144   -1.7299 H   0  0  0  0  0  0  0  0  0  0  0  0
    3.3643   -1.9664   -1.3835 H   0  0  0  0  0  0  0  0  0  0  0  0
    2.0856   -1.6569   -0.1891 H   0  0  0  0  0  0  0  0  0  0  0  0
    2.5992   -0.2682    1.7117 H   0  0  0  0  0  0  0  0  0  0  0  0
    3.6400   -1.3992    2.6054 H   0  0  0  0  0  0  0  0  0  0  0  0
    4.2497    0.9449    3.1211 H   0  0  0  0  0  0  0  0  0  0  0  0
    4.5206    1.2860    1.3809 H   0  0  0  0  0  0  0  0  0  0  0  0
    6.7118    0.8816    2.1383 H   0  0  0  0  0  0  0  0  0  0  0  0
    6.2075   -0.3637    3.3232 H   0  0  0  0  0  0  0  0  0  0  0  0
    7.4399   -0.9662    0.9353 H   0  0  0  0  0  0  0  0  0  0  0  0
    6.3325   -2.0897    1.7940 H   0  0  0  0  0  0  0  0  0  0  0  0
    5.5320   -0.1280   -0.4327 H   0  0  0  0  0  0  0  0  0  0  0  0
    5.7556   -1.9042   -0.6151 H   0  0  0  0  0  0  0  0  0  0  0  0
   -2.5591   -1.2551    1.4540 H   0  0  0  0  0  0  0  0  0  0  0  0
   -2.8030   -1.0269    3.9013 H   0  0  0  0  0  0  0  0  0  0  0  0
   -4.1573    0.8181    4.8540 H   0  0  0  0  0  0  0  0  0  0  0  0
   -5.2585    2.4527    3.3499 H   0  0  0  0  0  0  0  0  0  0  0  0
   -5.0179    2.2467    0.9010 H   0  0  0  0  0  0  0  0  0  0  0  0
  1  2  1  0
  2  3  2  0
  3  4  1  0
  4  5  1  0
  5  6  2  0
  6  7  1  0
  7  8  2  0
  8  9  1  0
  9 10  2  0
 10  5  1  0
 10 11  1  0
 11  2  1  0
 11 12  2  0
  6 13  1  0
 13 14  2  0
 13 15  1  0
 15 16  1  0
 16 17  1  0
 17 18  1  0
 18 19  1  0
 19 20  1  0
 20 21  1  0
 21 22  1  0
 22 23  1  0
 23 18  1  0
  3 24  1  0
 24 25  2  0
 25 26  1  0
 26 27  2  0
 27 28  1  0
 28 29  2  0
 29 24  1  0
  1 30  1  0
  1 31  1  0
  1 32  1  0
  7 33  1  0
  8 34  1  0
  9 35  1  0
 16 36  1  0
 16 37  1  0
 17 38  1  0
 17 39  1  0
 19 40  1  0
 19 41  1  0
 20 42  1  0
 20 43  1  0
 21 44  1  0
 21 45  1  0
 22 46  1  0
 22 47  1  0
 23 48  1  0
 23 49  1  0
 25 50  1  0
 26 51  1  0
 27 52  1  0
 28 53  1  0
 29 54  1  0
M  END
> <ID>
HT0879

> <Class>
0.0

> <Clusters>
29

> <Fold>
1

$$$$