
     RDKit          3D

 48 48  0  0  0  0  0  0  0  0999 V2000
    4.3772    1.0243    1.2593 C   0  0  0  0  0  0  0  0  0  0  0  0
    4.2139   -0.3676    0.6530 C   0  0  0  0  0  0  0  0  0  0  0  0
    3.3957   -0.3434   -0.6490 C   0  0  0  0  0  0  0  0  0  0  0  0
    1.9992    0.1173   -0.4070 N   0  0  0  0  0  0  0  0  0  0  0  0
    1.6120    1.1041   -1.4517 C   0  0  0  0  0  0  0  0  0  0  0  0
    2.0869    2.5042   -1.0741 C   0  0  0  0  0  0  0  0  0  0  0  0
    0.9962   -0.9924   -0.3285 C   0  0  0  0  0  0  0  0  0  0  0  0
    1.4141   -2.1383    0.6367 C   0  0  0  0  0  0  0  0  0  0  0  0
    0.4091   -3.2921    0.6557 C   0  0  0  0  0  0  0  0  0  0  0  0
   -0.3338   -0.4362    0.1478 C   0  0  0  0  0  0  0  0  0  0  0  0
   -0.3985    0.1457    1.2656 O   0  0  0  0  0  0  0  0  0  0  0  0
   -1.5032   -0.5360   -0.6791 N   0  0  0  0  0  0  0  0  0  0  0  0
   -2.7445    0.0897   -0.3169 C   0  0  0  0  0  0  0  0  0  0  0  0
   -3.1516    1.2812   -0.9611 C   0  0  0  0  0  0  0  0  0  0  0  0
   -2.2857    1.9443   -1.9970 C   0  0  0  0  0  0  0  0  0  0  0  0
   -4.3456    1.9063   -0.5692 C   0  0  0  0  0  0  0  0  0  0  0  0
   -5.1461    1.3440    0.4238 C   0  0  0  0  0  0  0  0  0  0  0  0
   -4.7668    0.1519    1.0383 C   0  0  0  0  0  0  0  0  0  0  0  0
   -3.5766   -0.4929    0.6673 C   0  0  0  0  0  0  0  0  0  0  0  0
   -3.2002   -1.7852    1.3364 C   0  0  0  0  0  0  0  0  0  0  0  0
    4.9940    0.9569    2.1801 H   0  0  0  0  0  0  0  0  0  0  0  0
    3.3876    1.4486    1.5305 H   0  0  0  0  0  0  0  0  0  0  0  0
    4.8886    1.7012    0.5428 H   0  0  0  0  0  0  0  0  0  0  0  0
    3.7517   -1.0315    1.4084 H   0  0  0  0  0  0  0  0  0  0  0  0
    5.2233   -0.7758    0.4295 H   0  0  0  0  0  0  0  0  0  0  0  0
    3.4203   -1.3374   -1.1449 H   0  0  0  0  0  0  0  0  0  0  0  0
    3.9450    0.3247   -1.3510 H   0  0  0  0  0  0  0  0  0  0  0  0
    0.5142    1.1698   -1.5796 H   0  0  0  0  0  0  0  0  0  0  0  0
    2.0109    0.8202   -2.4522 H   0  0  0  0  0  0  0  0  0  0  0  0
    1.7031    2.7767   -0.0682 H   0  0  0  0  0  0  0  0  0  0  0  0
    1.7034    3.2393   -1.8128 H   0  0  0  0  0  0  0  0  0  0  0  0
    3.1943    2.5588   -1.0722 H   0  0  0  0  0  0  0  0  0  0  0  0
    0.8709   -1.4364   -1.3428 H   0  0  0  0  0  0  0  0  0  0  0  0
    2.3783   -2.5867    0.3272 H   0  0  0  0  0  0  0  0  0  0  0  0
    1.5298   -1.7454    1.6703 H   0  0  0  0  0  0  0  0  0  0  0  0
    0.1990   -3.6436   -0.3768 H   0  0  0  0  0  0  0  0  0  0  0  0
    0.8266   -4.1389    1.2403 H   0  0  0  0  0  0  0  0  0  0  0  0
   -0.5358   -2.9781    1.1398 H   0  0  0  0  0  0  0  0  0  0  0  0
   -1.4190   -0.9505   -1.6340 H   0  0  0  0  0  0  0  0  0  0  0  0
   -2.8787    2.6413   -2.6268 H   0  0  0  0  0  0  0  0  0  0  0  0
   -1.4840    2.5213   -1.4912 H   0  0  0  0  0  0  0  0  0  0  0  0
   -1.8318    1.1919   -2.6745 H   0  0  0  0  0  0  0  0  0  0  0  0
   -4.6567    2.8358   -1.0301 H   0  0  0  0  0  0  0  0  0  0  0  0
   -6.0652    1.8343    0.7181 H   0  0  0  0  0  0  0  0  0  0  0  0
   -5.4064   -0.2704    1.8036 H   0  0  0  0  0  0  0  0  0  0  0  0
   -2.8541   -2.5192    0.5789 H   0  0  0  0  0  0  0  0  0  0  0  0
   -2.3941   -1.6013    2.0762 H   0  0  0  0  0  0  0  0  0  0  0  0
   -4.0670   -2.2348    1.8660 H   0  0  0  0  0  0  0  0  0  0  0  0
  1  2  1  0
  2  3  1  0
  3  4  1  0
  4  5  1  0
  5  6  1  0
  4  7  1  0
  7  8  1  0
  8  9  1  0
  7 10  1  0
 10 11  2  0
 10 12  1  0
 12 13  1  0
 13 14  2  0
 14 15  1  0
 14 16  1  0
 16 17  2  0
 17 18  1  0
 18 19  2  0
 19 13  1  0
 19 20  1  0
  1 21  1  0
  1 22  1  0
  1 23  1  0
  2 24  1  0
  2 25  1  0
  3 26  1  0
  3 27  1  0
  5 28  1  0
  5 29  1  0
  6 30  1  0
  6 31  1  0
  6 32  1  0
  7 33  1  0
  8 34  1  0
  8 35  1  0
  9 36  1  0
  9 37  1  0
  9 38  1  0
 12 39  1  0
 15 40  1  0
 15 41  1  0
 15 42  1  0
 16 43  1  0
 17 44  1  0
 18 45  1  0
 20 46  1  0
 20 47  1  0
 20 48  1  0
M  END
> <ID>
HT0824

> <Class>
0.0

> <Clusters>
228

> <Fold>
1

$$$$