
     RDKit          3D

 43 44  0  0  0  0  0  0  0  0999 V2000
   -0.3274    1.2988   -2.4783 C   0  0  0  0  0  0  0  0  0  0  0  0
   -1.2063    0.8625   -1.2947 C   0  0  0  0  0  0  0  0  0  0  0  0
   -2.6538    0.6328   -1.7690 C   0  0  0  0  0  0  0  0  0  0  0  0
   -3.5616    0.2593   -0.6230 C   0  0  0  0  0  0  0  0  0  0  0  0
   -3.9039    1.2139    0.3494 C   0  0  0  0  0  0  0  0  0  0  0  0
   -4.7424    0.8683    1.4135 C   0  0  0  0  0  0  0  0  0  0  0  0
   -5.2497   -0.4308    1.5165 C   0  0  0  0  0  0  0  0  0  0  0  0
   -6.0832   -0.7614    2.5825 O   0  0  0  0  0  0  0  0  0  0  0  0
   -4.9156   -1.3863    0.5474 C   0  0  0  0  0  0  0  0  0  0  0  0
   -4.0776   -1.0433   -0.5181 C   0  0  0  0  0  0  0  0  0  0  0  0
   -0.6921   -0.3705   -0.6673 N   0  0  0  0  0  0  0  0  0  0  0  0
    0.5401   -0.1641    0.1208 C   0  0  0  0  0  0  0  0  0  0  0  0
    1.7625   -0.8491   -0.5215 C   0  0  0  0  0  0  0  0  0  0  0  0
    1.5977   -2.2432   -0.4798 O   0  0  0  0  0  0  0  0  0  0  0  0
    3.0324   -0.4588    0.2045 C   0  0  0  0  0  0  0  0  0  0  0  0
    4.0080    0.3189   -0.4426 C   0  0  0  0  0  0  0  0  0  0  0  0
    5.1843    0.6831    0.2275 C   0  0  0  0  0  0  0  0  0  0  0  0
    6.1530    1.4560   -0.4088 O   0  0  0  0  0  0  0  0  0  0  0  0
    5.3907    0.2689    1.5467 C   0  0  0  0  0  0  0  0  0  0  0  0
    4.4265   -0.5090    2.2006 C   0  0  0  0  0  0  0  0  0  0  0  0
    4.6245   -0.9276    3.5145 O   0  0  0  0  0  0  0  0  0  0  0  0
    3.2531   -0.8710    1.5309 C   0  0  0  0  0  0  0  0  0  0  0  0
   -0.7631    2.1947   -2.9697 H   0  0  0  0  0  0  0  0  0  0  0  0
    0.6896    1.5707   -2.1274 H   0  0  0  0  0  0  0  0  0  0  0  0
   -0.2455    0.4833   -3.2282 H   0  0  0  0  0  0  0  0  0  0  0  0
   -1.2208    1.6905   -0.5502 H   0  0  0  0  0  0  0  0  0  0  0  0
   -3.0478    1.5563   -2.2475 H   0  0  0  0  0  0  0  0  0  0  0  0
   -2.6620   -0.1647   -2.5450 H   0  0  0  0  0  0  0  0  0  0  0  0
   -3.5235    2.2256    0.2817 H   0  0  0  0  0  0  0  0  0  0  0  0
   -4.9990    1.6110    2.1582 H   0  0  0  0  0  0  0  0  0  0  0  0
   -6.4668   -1.6937    2.6851 H   0  0  0  0  0  0  0  0  0  0  0  0
   -5.3039   -2.3943    0.6191 H   0  0  0  0  0  0  0  0  0  0  0  0
   -3.8265   -1.7955   -1.2556 H   0  0  0  0  0  0  0  0  0  0  0  0
   -0.5767   -1.1207   -1.3895 H   0  0  0  0  0  0  0  0  0  0  0  0
    0.7599    0.9176    0.2696 H   0  0  0  0  0  0  0  0  0  0  0  0
    0.3731   -0.5914    1.1325 H   0  0  0  0  0  0  0  0  0  0  0  0
    1.8192   -0.5199   -1.5849 H   0  0  0  0  0  0  0  0  0  0  0  0
    2.2657   -2.6286   -1.1055 H   0  0  0  0  0  0  0  0  0  0  0  0
    3.8551    0.6461   -1.4637 H   0  0  0  0  0  0  0  0  0  0  0  0
    6.0347    1.7728   -1.3641 H   0  0  0  0  0  0  0  0  0  0  0  0
    6.3002    0.5515    2.0619 H   0  0  0  0  0  0  0  0  0  0  0  0
    5.4633   -0.6826    4.0276 H   0  0  0  0  0  0  0  0  0  0  0  0
    2.5159   -1.4763    2.0439 H   0  0  0  0  0  0  0  0  0  0  0  0
  1  2  1  0
  2  3  1  0
  3  4  1  0
  4  5  2  0
  5  6  1  0
  6  7  2  0
  7  8  1  0
  7  9  1  0
  9 10  2  0
 10  4  1  0
  2 11  1  0
 11 12  1  0
 12 13  1  0
 13 14  1  0
 13 15  1  0
 15 16  2  0
 16 17  1  0
 17 18  1  0
 17 19  2  0
 19 20  1  0
 20 21  1  0
 20 22  2  0
 22 15  1  0
  1 23  1  0
  1 24  1  0
  1 25  1  0
  2 26  1  0
  3 27  1  0
  3 28  1  0
  5 29  1  0
  6 30  1  0
  8 31  1  0
  9 32  1  0
 10 33  1  0
 11 34  1  0
 12 35  1  0
 12 36  1  0
 13 37  1  0
 14 38  1  0
 16 39  1  0
 18 40  1  0
 19 41  1  0
 21 42  1  0
 22 43  1  0
M  END
> <ID>
HT0863

> <Class>
0.0

> <Clusters>
21

> <Fold>
1

$$$$