
     RDKit          3D

 28 30  0  0  0  0  0  0  0  0999 V2000
    4.4100    0.7236    0.9551 O   0  0  0  0  0  0  0  0  0  0  0  0
    3.8524   -0.5430    0.8131 C   0  0  0  0  0  0  0  0  0  0  0  0
    3.9340   -1.3768    1.7542 O   0  0  0  0  0  0  0  0  0  0  0  0
    3.1139   -0.8956   -0.4378 C   0  0  0  0  0  0  0  0  0  0  0  0
    1.6908   -0.5589   -0.2935 N   0  0  0  0  0  0  0  0  0  0  0  0
    0.7596   -1.5274    0.2261 C   0  0  0  0  0  0  0  0  0  0  0  0
    1.1617   -2.6759    0.5608 O   0  0  0  0  0  0  0  0  0  0  0  0
   -0.6710   -1.1735    0.3737 C   0  0  0  0  0  0  0  0  0  0  0  0
   -1.5941   -2.1178    0.8571 C   0  0  0  0  0  0  0  0  0  0  0  0
   -2.9421   -1.7849    0.9965 C   0  0  0  0  0  0  0  0  0  0  0  0
   -3.3908   -0.5086    0.6582 C   0  0  0  0  0  0  0  0  0  0  0  0
   -2.4900    0.4509    0.1750 C   0  0  0  0  0  0  0  0  0  0  0  0
   -2.9410    1.7346   -0.1628 C   0  0  0  0  0  0  0  0  0  0  0  0
   -2.0448    2.6900   -0.6414 C   0  0  0  0  0  0  0  0  0  0  0  0
   -0.6929    2.3766   -0.7882 C   0  0  0  0  0  0  0  0  0  0  0  0
   -0.2160    1.0959   -0.4572 C   0  0  0  0  0  0  0  0  0  0  0  0
    1.2188    0.7638   -0.6139 C   0  0  0  0  0  0  0  0  0  0  0  0
    2.0270    1.6416   -1.0251 O   0  0  0  0  0  0  0  0  0  0  0  0
   -1.1171    0.1220    0.0286 C   0  0  0  0  0  0  0  0  0  0  0  0
    4.8982    0.9840    1.8036 H   0  0  0  0  0  0  0  0  0  0  0  0
    3.2415   -1.9777   -0.6582 H   0  0  0  0  0  0  0  0  0  0  0  0
    3.5576   -0.3516   -1.2992 H   0  0  0  0  0  0  0  0  0  0  0  0
   -1.2745   -3.1164    1.1275 H   0  0  0  0  0  0  0  0  0  0  0  0
   -3.6430   -2.5208    1.3693 H   0  0  0  0  0  0  0  0  0  0  0  0
   -4.4417   -0.2712    0.7747 H   0  0  0  0  0  0  0  0  0  0  0  0
   -3.9864    1.9993   -0.0562 H   0  0  0  0  0  0  0  0  0  0  0  0
   -2.3997    3.6793   -0.9000 H   0  0  0  0  0  0  0  0  0  0  0  0
   -0.0203    3.1384   -1.1623 H   0  0  0  0  0  0  0  0  0  0  0  0
  1  2  1  0
  2  3  2  0
  2  4  1  0
  4  5  1  0
  5  6  1  0
  6  7  2  0
  6  8  1  0
  8  9  1  0
  9 10  2  0
 10 11  1  0
 11 12  2  0
 12 13  1  0
 13 14  2  0
 14 15  1  0
 15 16  2  0
 16 17  1  0
 17  5  1  0
 17 18  2  0
 16 19  1  0
 19  8  2  0
 19 12  1  0
  1 20  1  0
  4 21  1  0
  4 22  1  0
  9 23  1  0
 10 24  1  0
 11 25  1  0
 13 26  1  0
 14 27  1  0
 15 28  1  0
M  END
> <ID>
HT0116

> <Class>
0.0

> <Clusters>
68

> <Fold>
1

$$$$