
     RDKit          3D

 60 63  0  0  0  0  0  0  0  0999 V2000
    8.5172   -0.6412   -0.0289 C   0  0  0  0  0  0  0  0  0  0  0  0
    7.1686   -0.5993    0.6047 C   0  0  0  0  0  0  0  0  0  0  0  0
    7.0717   -0.4166    1.8486 O   0  0  0  0  0  0  0  0  0  0  0  0
    6.0273   -0.7710   -0.1870 O   0  0  0  0  0  0  0  0  0  0  0  0
    4.6960   -0.6991    0.3231 C   0  0  1  0  0  0  0  0  0  0  0  0
    4.3173    0.7615    0.5963 C   0  0  0  0  0  0  0  0  0  0  0  0
    2.8358    0.8555    0.9476 C   0  0  0  0  0  0  0  0  0  0  0  0
    1.9449    0.3747   -0.2237 C   0  0  2  0  0  0  0  0  0  0  0  0
    0.4946    0.0678    0.2548 C   0  0  1  0  0  0  0  0  0  0  0  0
   -0.1715    1.2998    0.9386 C   0  0  0  0  0  0  0  0  0  0  0  0
   -1.6511    1.0558    1.3218 C   0  0  0  0  0  0  0  0  0  0  0  0
   -2.4758    0.5443    0.1109 C   0  0  1  0  0  0  0  0  0  0  0  0
   -2.5685    1.6842   -0.9603 C   0  0  0  0  0  0  0  0  0  0  0  0
   -1.8003   -0.7309   -0.4179 C   0  0  1  0  0  0  0  0  0  0  0  0
   -2.8227   -1.3428   -1.3680 C   0  0  0  0  0  0  0  0  0  0  0  0
   -4.1886   -0.9608   -0.7663 C   0  0  0  0  0  0  0  0  0  0  0  0
   -3.9159    0.0206    0.4094 C   0  0  2  0  0  0  0  0  0  0  0  0
   -4.8618    1.1000    0.4241 O   0  0  0  0  0  0  0  0  0  0  0  0
   -6.2483    0.9482    0.5656 C   0  0  0  0  0  0  0  0  0  0  0  0
   -6.7693   -0.1952    0.6710 O   0  0  0  0  0  0  0  0  0  0  0  0
   -7.1219    2.1554    0.5405 C   0  0  0  0  0  0  0  0  0  0  0  0
   -3.9908   -0.7088    1.7002 C   0  0  0  0  0  0  0  0  0  0  0  0
   -4.0555   -1.3033    2.7473 C   0  0  0  0  0  0  0  0  0  0  0  0
   -0.3663   -0.4805   -0.9298 C   0  0  2  0  0  0  0  0  0  0  0  0
    0.2661   -1.7746   -1.4801 C   0  0  0  0  0  0  0  0  0  0  0  0
    1.6775   -1.5023   -2.0031 C   0  0  0  0  0  0  0  0  0  0  0  0
    2.5206   -0.8526   -0.9312 C   0  0  0  0  0  0  0  0  0  0  0  0
    3.7605   -1.3268   -0.6775 C   0  0  0  0  0  0  0  0  0  0  0  0
    9.0399    0.3230    0.1420 H   0  0  0  0  0  0  0  0  0  0  0  0
    8.4222   -0.8118   -1.1218 H   0  0  0  0  0  0  0  0  0  0  0  0
    9.1129   -1.4660    0.4151 H   0  0  0  0  0  0  0  0  0  0  0  0
    4.6276   -1.2906    1.2632 H   0  0  0  0  0  0  0  0  0  0  0  0
    4.5304    1.3854   -0.3001 H   0  0  0  0  0  0  0  0  0  0  0  0
    4.9186    1.1548    1.4436 H   0  0  0  0  0  0  0  0  0  0  0  0
    2.6428    0.2453    1.8581 H   0  0  0  0  0  0  0  0  0  0  0  0
    2.5996    1.9149    1.1867 H   0  0  0  0  0  0  0  0  0  0  0  0
    1.8995    1.1933   -0.9764 H   0  0  0  0  0  0  0  0  0  0  0  0
    0.5579   -0.7328    1.0282 H   0  0  0  0  0  0  0  0  0  0  0  0
    0.3710    1.5385    1.8778 H   0  0  0  0  0  0  0  0  0  0  0  0
   -0.0820    2.1943    0.2882 H   0  0  0  0  0  0  0  0  0  0  0  0
   -2.0941    1.9966    1.7147 H   0  0  0  0  0  0  0  0  0  0  0  0
   -1.6614    0.3158    2.1503 H   0  0  0  0  0  0  0  0  0  0  0  0
   -1.5855    2.0179   -1.3388 H   0  0  0  0  0  0  0  0  0  0  0  0
   -3.0528    2.5821   -0.5205 H   0  0  0  0  0  0  0  0  0  0  0  0
   -3.1698    1.3791   -1.8413 H   0  0  0  0  0  0  0  0  0  0  0  0
   -1.7046   -1.4562    0.4270 H   0  0  0  0  0  0  0  0  0  0  0  0
   -2.7122   -0.9168   -2.3893 H   0  0  0  0  0  0  0  0  0  0  0  0
   -2.7066   -2.4474   -1.4208 H   0  0  0  0  0  0  0  0  0  0  0  0
   -4.8054   -0.4673   -1.5493 H   0  0  0  0  0  0  0  0  0  0  0  0
   -4.7351   -1.8720   -0.4343 H   0  0  0  0  0  0  0  0  0  0  0  0
   -6.5359    3.0532    0.8289 H   0  0  0  0  0  0  0  0  0  0  0  0
   -7.5260    2.2978   -0.4831 H   0  0  0  0  0  0  0  0  0  0  0  0
   -7.9635    2.0319    1.2543 H   0  0  0  0  0  0  0  0  0  0  0  0
   -4.1116   -1.8249    3.6662 H   0  0  0  0  0  0  0  0  0  0  0  0
   -0.3822    0.2541   -1.7616 H   0  0  0  0  0  0  0  0  0  0  0  0
   -0.3456   -2.1697   -2.3194 H   0  0  0  0  0  0  0  0  0  0  0  0
    0.3063   -2.5536   -0.6865 H   0  0  0  0  0  0  0  0  0  0  0  0
    1.6194   -0.8150   -2.8748 H   0  0  0  0  0  0  0  0  0  0  0  0
    2.1223   -2.4582   -2.3573 H   0  0  0  0  0  0  0  0  0  0  0  0
    4.1139   -2.2119   -1.1998 H   0  0  0  0  0  0  0  0  0  0  0  0
  1  2  1  0
  2  3  2  0
  2  4  1  0
  5  4  1  0
  5  6  1  0
  6  7  1  0
  8  7  1  0
  8  9  1  0
  9 10  1  0
 10 11  1  0
 11 12  1  0
 12 13  1  6
 12 14  1  0
 14 15  1  0
 15 16  1  0
 16 17  1  0
 17 12  1  0
 17 18  1  0
 18 19  1  0
 19 20  2  0
 19 21  1  0
 17 22  1  1
 22 23  3  0
 14 24  1  0
 24  9  1  0
 24 25  1  0
 25 26  1  0
 26 27  1  0
 27  8  1  0
 27 28  2  0
 28  5  1  0
  1 29  1  0
  1 30  1  0
  1 31  1  0
  5 32  1  1
  6 33  1  0
  6 34  1  0
  7 35  1  0
  7 36  1  0
  8 37  1  6
  9 38  1  1
 10 39  1  0
 10 40  1  0
 11 41  1  0
 11 42  1  0
 13 43  1  0
 13 44  1  0
 13 45  1  0
 14 46  1  1
 15 47  1  0
 15 48  1  0
 16 49  1  0
 16 50  1  0
 21 51  1  0
 21 52  1  0
 21 53  1  0
 23 54  1  0
 24 55  1  6
 25 56  1  0
 25 57  1  0
 26 58  1  0
 26 59  1  0
 28 60  1  0
M  END
> <ID>
HT0823

> <Class>
0.0

> <Clusters>
183

> <Fold>
1

$$$$