
     RDKit          3D

 46 46  0  0  0  0  0  0  0  0999 V2000
    8.8229    1.7264   -0.5549 C   0  0  0  0  0  0  0  0  0  0  0  0
    7.4572    1.3432   -0.6602 O   0  0  0  0  0  0  0  0  0  0  0  0
    7.0282    0.0267   -0.4692 C   0  0  0  0  0  0  0  0  0  0  0  0
    7.8514   -0.8826   -0.1744 O   0  0  0  0  0  0  0  0  0  0  0  0
    5.5708   -0.2942   -0.5687 C   0  0  0  0  0  0  0  0  0  0  0  0
    4.8854   -0.0938    0.7864 C   0  0  0  0  0  0  0  0  0  0  0  0
    3.4090   -0.3827    0.6929 C   0  0  0  0  0  0  0  0  0  0  0  0
    2.9558   -1.7006    0.5240 C   0  0  0  0  0  0  0  0  0  0  0  0
    1.5872   -1.9716    0.4411 C   0  0  0  0  0  0  0  0  0  0  0  0
    0.6502   -0.9360    0.5284 C   0  0  0  0  0  0  0  0  0  0  0  0
   -0.7113   -1.2606    0.4388 O   0  0  0  0  0  0  0  0  0  0  0  0
   -1.7731   -0.3119    0.5140 C   0  0  0  0  0  0  0  0  0  0  0  0
   -3.1203   -1.0319    0.3807 C   0  0  0  0  0  0  0  0  0  0  0  0
   -3.2851   -1.9312    1.4475 O   0  0  0  0  0  0  0  0  0  0  0  0
   -4.2746   -0.0207    0.3849 C   0  0  0  0  0  0  0  0  0  0  0  0
   -5.5533   -0.7170    0.1642 N   0  0  0  0  0  0  0  0  0  0  0  0
   -6.6820    0.1694   -0.1897 C   0  0  0  0  0  0  0  0  0  0  0  0
   -6.8720    1.3314    0.7992 C   0  0  0  0  0  0  0  0  0  0  0  0
   -6.5701    0.6699   -1.6352 C   0  0  0  0  0  0  0  0  0  0  0  0
    1.1022    0.3859    0.7025 C   0  0  0  0  0  0  0  0  0  0  0  0
    2.4712    0.6579    0.7857 C   0  0  0  0  0  0  0  0  0  0  0  0
    9.4309    1.1764   -1.3041 H   0  0  0  0  0  0  0  0  0  0  0  0
    8.9121    2.8150   -0.7483 H   0  0  0  0  0  0  0  0  0  0  0  0
    9.2006    1.5100    0.4669 H   0  0  0  0  0  0  0  0  0  0  0  0
    5.4486   -1.3453   -0.9098 H   0  0  0  0  0  0  0  0  0  0  0  0
    5.1042    0.3722   -1.3265 H   0  0  0  0  0  0  0  0  0  0  0  0
    5.3407   -0.7665    1.5462 H   0  0  0  0  0  0  0  0  0  0  0  0
    5.0526    0.9528    1.1256 H   0  0  0  0  0  0  0  0  0  0  0  0
    3.6627   -2.5186    0.4597 H   0  0  0  0  0  0  0  0  0  0  0  0
    1.2522   -2.9928    0.3097 H   0  0  0  0  0  0  0  0  0  0  0  0
   -1.7299    0.2197    1.4902 H   0  0  0  0  0  0  0  0  0  0  0  0
   -1.6628    0.4255   -0.3112 H   0  0  0  0  0  0  0  0  0  0  0  0
   -3.1412   -1.5781   -0.5923 H   0  0  0  0  0  0  0  0  0  0  0  0
   -2.7859   -2.7560    1.2104 H   0  0  0  0  0  0  0  0  0  0  0  0
   -4.2905    0.5130    1.3619 H   0  0  0  0  0  0  0  0  0  0  0  0
   -4.0905    0.7218   -0.4194 H   0  0  0  0  0  0  0  0  0  0  0  0
   -5.8049   -1.2246    1.0454 H   0  0  0  0  0  0  0  0  0  0  0  0
   -7.6096   -0.4449   -0.1444 H   0  0  0  0  0  0  0  0  0  0  0  0
   -6.0502    2.0732    0.7109 H   0  0  0  0  0  0  0  0  0  0  0  0
   -7.8315    1.8506    0.5901 H   0  0  0  0  0  0  0  0  0  0  0  0
   -6.9045    0.9452    1.8400 H   0  0  0  0  0  0  0  0  0  0  0  0
   -5.7722    1.4331   -1.7437 H   0  0  0  0  0  0  0  0  0  0  0  0
   -7.5310    1.1312   -1.9486 H   0  0  0  0  0  0  0  0  0  0  0  0
   -6.3532   -0.1806   -2.3159 H   0  0  0  0  0  0  0  0  0  0  0  0
    0.4053    1.2096    0.7744 H   0  0  0  0  0  0  0  0  0  0  0  0
    2.7981    1.6819    0.9177 H   0  0  0  0  0  0  0  0  0  0  0  0
  1  2  1  0
  2  3  1  0
  3  4  2  0
  3  5  1  0
  5  6  1  0
  6  7  1  0
  7  8  2  0
  8  9  1  0
  9 10  2  0
 10 11  1  0
 11 12  1  0
 12 13  1  0
 13 14  1  0
 13 15  1  0
 15 16  1  0
 16 17  1  0
 17 18  1  0
 17 19  1  0
 10 20  1  0
 20 21  2  0
 21  7  1  0
  1 22  1  0
  1 23  1  0
  1 24  1  0
  5 25  1  0
  5 26  1  0
  6 27  1  0
  6 28  1  0
  8 29  1  0
  9 30  1  0
 12 31  1  0
 12 32  1  0
 13 33  1  0
 14 34  1  0
 15 35  1  0
 15 36  1  0
 16 37  1  0
 17 38  1  0
 18 39  1  0
 18 40  1  0
 18 41  1  0
 19 42  1  0
 19 43  1  0
 19 44  1  0
 20 45  1  0
 21 46  1  0
M  END
> <ID>
HT0787

> <Class>
0.0

> <Clusters>
169

> <Fold>
1

$$$$