
     RDKit          3D

 32 35  0  0  0  0  0  0  0  0999 V2000
   -0.4344    2.9156    3.6384 Cl  0  0  0  0  0  0  0  0  0  0  0  0
   -0.9849    2.0058    2.2432 C   0  0  0  0  0  0  0  0  0  0  0  0
   -2.2026    2.3204    1.6427 C   0  0  0  0  0  0  0  0  0  0  0  0
   -2.6469    1.5918    0.5400 C   0  0  0  0  0  0  0  0  0  0  0  0
   -1.8764    0.5386    0.0157 C   0  0  0  0  0  0  0  0  0  0  0  0
   -0.6177    0.2341    0.6044 C   0  0  0  0  0  0  0  0  0  0  0  0
   -0.1999    0.9716    1.7298 C   0  0  0  0  0  0  0  0  0  0  0  0
    0.3222   -0.7888    0.0371 C   0  0  0  0  0  0  0  0  0  0  0  0
   -0.0832   -1.9589   -0.3754 N   0  0  0  0  0  0  0  0  0  0  0  0
   -1.4581   -2.4386   -0.3829 C   0  0  0  0  0  0  0  0  0  0  0  0
   -2.2707   -1.5592   -1.2666 C   0  0  0  0  0  0  0  0  0  0  0  0
   -2.9589   -1.9756   -2.3457 N   0  0  0  0  0  0  0  0  0  0  0  0
   -3.5550   -0.9040   -2.8509 N   0  0  0  0  0  0  0  0  0  0  0  0
   -3.2202    0.1442   -2.0719 C   0  0  0  0  0  0  0  0  0  0  0  0
   -2.4020   -0.2389   -1.0737 N   0  0  0  0  0  0  0  0  0  0  0  0
    1.7746   -0.4877   -0.0601 C   0  0  0  0  0  0  0  0  0  0  0  0
    2.2223    0.8192   -0.3337 C   0  0  0  0  0  0  0  0  0  0  0  0
    3.5896    1.0930   -0.4345 C   0  0  0  0  0  0  0  0  0  0  0  0
    4.5236    0.0676   -0.2719 C   0  0  0  0  0  0  0  0  0  0  0  0
    4.0922   -1.2350   -0.0120 C   0  0  0  0  0  0  0  0  0  0  0  0
    2.7259   -1.5146    0.0898 C   0  0  0  0  0  0  0  0  0  0  0  0
   -2.8135    3.1221    2.0379 H   0  0  0  0  0  0  0  0  0  0  0  0
   -3.6107    1.8329    0.1109 H   0  0  0  0  0  0  0  0  0  0  0  0
    0.7463    0.7476    2.2076 H   0  0  0  0  0  0  0  0  0  0  0  0
   -1.4779   -3.4817   -0.7624 H   0  0  0  0  0  0  0  0  0  0  0  0
   -1.8709   -2.4266    0.6487 H   0  0  0  0  0  0  0  0  0  0  0  0
   -3.5649    1.1566   -2.2366 H   0  0  0  0  0  0  0  0  0  0  0  0
    1.5154    1.6260   -0.4822 H   0  0  0  0  0  0  0  0  0  0  0  0
    3.9248    2.1007   -0.6437 H   0  0  0  0  0  0  0  0  0  0  0  0
    5.5816    0.2817   -0.3510 H   0  0  0  0  0  0  0  0  0  0  0  0
    4.8170   -2.0293    0.1113 H   0  0  0  0  0  0  0  0  0  0  0  0
    2.4131   -2.5304    0.2978 H   0  0  0  0  0  0  0  0  0  0  0  0
  1  2  1  0
  2  3  2  0
  3  4  1  0
  4  5  2  0
  5  6  1  0
  6  7  2  0
  7  2  1  0
  6  8  1  0
  8  9  2  0
  9 10  1  0
 10 11  1  0
 11 12  2  0
 12 13  1  0
 13 14  2  0
 14 15  1  0
 15  5  1  0
 15 11  1  0
  8 16  1  0
 16 17  2  0
 17 18  1  0
 18 19  2  0
 19 20  1  0
 20 21  2  0
 21 16  1  0
  3 22  1  0
  4 23  1  0
  7 24  1  0
 10 25  1  0
 10 26  1  0
 14 27  1  0
 17 28  1  0
 18 29  1  0
 19 30  1  0
 20 31  1  0
 21 32  1  0
M  END
> <ID>
HT0789

> <Class>
0.0

> <Clusters>
10

> <Fold>
1

$$$$