
     RDKit          3D

 28 28  0  0  0  0  0  0  0  0999 V2000
   -3.2587   -0.5345    0.0070 C   0  0  0  0  0  0  0  0  0  0  0  0
   -1.7570   -0.8829    0.0576 C   0  0  0  0  0  0  0  0  0  0  0  0
   -0.7998    0.2756    0.1169 N   0  0  0  0  0  0  0  0  0  0  0  0
   -1.0790    1.0766    1.3383 C   0  0  0  0  0  0  0  0  0  0  0  0
   -0.9862    1.1243   -1.0899 C   0  0  0  0  0  0  0  0  0  0  0  0
    0.6148   -0.1753    0.1621 C   0  0  0  0  0  0  0  0  0  0  0  0
    0.9965   -1.5490    0.1498 C   0  0  0  0  0  0  0  0  0  0  0  0
    2.3396   -1.9311    0.1937 C   0  0  0  0  0  0  0  0  0  0  0  0
    3.3452   -0.9719    0.2508 C   0  0  0  0  0  0  0  0  0  0  0  0
    3.0168    0.3805    0.2648 C   0  0  0  0  0  0  0  0  0  0  0  0
    4.0346    1.3306    0.3222 O   0  0  0  0  0  0  0  0  0  0  0  0
    1.6731    0.7753    0.2212 C   0  0  0  0  0  0  0  0  0  0  0  0
   -3.5937    0.0029    0.9159 H   0  0  0  0  0  0  0  0  0  0  0  0
   -3.8381   -1.4812   -0.0336 H   0  0  0  0  0  0  0  0  0  0  0  0
   -3.5242    0.0384   -0.9032 H   0  0  0  0  0  0  0  0  0  0  0  0
   -1.6214   -1.5330    0.9520 H   0  0  0  0  0  0  0  0  0  0  0  0
   -1.5526   -1.4977   -0.8486 H   0  0  0  0  0  0  0  0  0  0  0  0
   -1.0126    0.4432    2.2509 H   0  0  0  0  0  0  0  0  0  0  0  0
   -0.3717    1.9225    1.4595 H   0  0  0  0  0  0  0  0  0  0  0  0
   -2.0827    1.5487    1.3035 H   0  0  0  0  0  0  0  0  0  0  0  0
   -0.2731    1.9733   -1.1235 H   0  0  0  0  0  0  0  0  0  0  0  0
   -0.8493    0.5270   -2.0189 H   0  0  0  0  0  0  0  0  0  0  0  0
   -1.9904    1.5960   -1.1134 H   0  0  0  0  0  0  0  0  0  0  0  0
    0.2829   -2.3564    0.1068 H   0  0  0  0  0  0  0  0  0  0  0  0
    2.6015   -2.9816    0.1831 H   0  0  0  0  0  0  0  0  0  0  0  0
    4.3825   -1.2803    0.2844 H   0  0  0  0  0  0  0  0  0  0  0  0
    3.8340    2.3238    0.3340 H   0  0  0  0  0  0  0  0  0  0  0  0
    1.4691    1.8361    0.2341 H   0  0  0  0  0  0  0  0  0  0  0  0
  1  2  1  0
  2  3  1  0
  3  4  1  0
  3  5  1  0
  3  6  1  0
  6  7  2  0
  7  8  1  0
  8  9  2  0
  9 10  1  0
 10 11  1  0
 10 12  2  0
 12  6  1  0
  1 13  1  0
  1 14  1  0
  1 15  1  0
  2 16  1  0
  2 17  1  0
  4 18  1  0
  4 19  1  0
  4 20  1  0
  5 21  1  0
  5 22  1  0
  5 23  1  0
  7 24  1  0
  8 25  1  0
  9 26  1  0
 11 27  1  0
 12 28  1  0
M  CHG  1   3   1
M  END
> <ID>
HT0745

> <Class>
0.0

> <Clusters>
196

> <Fold>
1

$$$$