
     RDKit          3D

 39 41  0  0  0  0  0  0  0  0999 V2000
    6.1106    2.5815    0.7191 Cl  0  0  0  0  0  0  0  0  0  0  0  0
    4.8168    1.5540    0.1301 C   0  0  0  0  0  0  0  0  0  0  0  0
    4.4140    1.6324   -1.2072 C   0  0  0  0  0  0  0  0  0  0  0  0
    3.3813    0.8154   -1.6774 C   0  0  0  0  0  0  0  0  0  0  0  0
    2.7464   -0.0903   -0.8127 C   0  0  0  0  0  0  0  0  0  0  0  0
    1.6170   -0.9477   -1.3179 C   0  0  0  0  0  0  0  0  0  0  0  0
    0.4962   -0.1463   -1.6442 O   0  0  0  0  0  0  0  0  0  0  0  0
   -0.3235    0.0810   -0.5093 C   0  0  0  0  0  0  0  0  0  0  0  0
   -1.1127    1.3845   -0.7145 C   0  0  0  0  0  0  0  0  0  0  0  0
   -1.9757    1.6631    0.4335 N   0  0  0  0  0  0  0  0  0  0  0  0
   -1.5900    1.9765    1.6811 C   0  0  0  0  0  0  0  0  0  0  0  0
   -2.7245    2.1489    2.4415 C   0  0  0  0  0  0  0  0  0  0  0  0
   -3.8177    1.9480    1.6764 N   0  0  0  0  0  0  0  0  0  0  0  0
   -3.3221    1.6552    0.4559 C   0  0  0  0  0  0  0  0  0  0  0  0
   -1.2629   -1.0948   -0.2736 C   0  0  0  0  0  0  0  0  0  0  0  0
   -1.3457   -1.6402    1.0216 C   0  0  0  0  0  0  0  0  0  0  0  0
   -2.2067   -2.7046    1.2946 C   0  0  0  0  0  0  0  0  0  0  0  0
   -2.9957   -3.2453    0.2788 C   0  0  0  0  0  0  0  0  0  0  0  0
   -4.0770   -4.5824    0.6250 Cl  0  0  0  0  0  0  0  0  0  0  0  0
   -2.9210   -2.7231   -1.0143 C   0  0  0  0  0  0  0  0  0  0  0  0
   -2.0619   -1.6549   -1.3017 C   0  0  0  0  0  0  0  0  0  0  0  0
   -2.0100   -1.0782   -2.9650 Cl  0  0  0  0  0  0  0  0  0  0  0  0
    3.1516   -0.1609    0.5304 C   0  0  0  0  0  0  0  0  0  0  0  0
    4.1842    0.6577    0.9980 C   0  0  0  0  0  0  0  0  0  0  0  0
    4.8982    2.3269   -1.8819 H   0  0  0  0  0  0  0  0  0  0  0  0
    3.0740    0.8893   -2.7133 H   0  0  0  0  0  0  0  0  0  0  0  0
    1.3668   -1.7636   -0.6000 H   0  0  0  0  0  0  0  0  0  0  0  0
    1.9548   -1.4586   -2.2442 H   0  0  0  0  0  0  0  0  0  0  0  0
    0.3037    0.2549    0.3974 H   0  0  0  0  0  0  0  0  0  0  0  0
   -0.4010    2.2285   -0.8461 H   0  0  0  0  0  0  0  0  0  0  0  0
   -1.7230    1.3270   -1.6398 H   0  0  0  0  0  0  0  0  0  0  0  0
   -0.5642    2.0700    2.0137 H   0  0  0  0  0  0  0  0  0  0  0  0
   -2.7546    2.4057    3.4918 H   0  0  0  0  0  0  0  0  0  0  0  0
   -3.9414    1.4313   -0.4033 H   0  0  0  0  0  0  0  0  0  0  0  0
   -0.7489   -1.2342    1.8291 H   0  0  0  0  0  0  0  0  0  0  0  0
   -2.2606   -3.1071    2.2982 H   0  0  0  0  0  0  0  0  0  0  0  0
   -3.5309   -3.1512   -1.8002 H   0  0  0  0  0  0  0  0  0  0  0  0
    2.6661   -0.8447    1.2157 H   0  0  0  0  0  0  0  0  0  0  0  0
    4.4898    0.5963    2.0347 H   0  0  0  0  0  0  0  0  0  0  0  0
  1  2  1  0
  2  3  2  0
  3  4  1  0
  4  5  2  0
  5  6  1  0
  6  7  1  0
  7  8  1  0
  8  9  1  0
  9 10  1  0
 10 11  1  0
 11 12  2  0
 12 13  1  0
 13 14  2  0
 14 10  1  0
  8 15  1  0
 15 16  2  0
 16 17  1  0
 17 18  2  0
 18 19  1  0
 18 20  1  0
 20 21  2  0
 21 15  1  0
 21 22  1  0
  5 23  1  0
 23 24  2  0
 24  2  1  0
  3 25  1  0
  4 26  1  0
  6 27  1  0
  6 28  1  0
  8 29  1  0
  9 30  1  0
  9 31  1  0
 11 32  1  0
 12 33  1  0
 14 34  1  0
 16 35  1  0
 17 36  1  0
 20 37  1  0
 23 38  1  0
 24 39  1  0
M  END
> <ID>
HT0741

> <Class>
0.0

> <Clusters>
93

> <Fold>
1

$$$$