
     RDKit          3D

 89 92  0  0  0  0  0  0  0  0999 V2000
   -6.7751   -0.7364   -2.9019 C   0  0  0  0  0  0  0  0  0  0  0  0
   -6.5583   -1.3679   -1.4879 C   0  0  2  0  0  0  0  0  0  0  0  0
   -7.5106   -0.7034   -0.4649 C   0  0  0  0  0  0  0  0  0  0  0  0
   -7.1015    0.7665   -0.1778 C   0  0  0  0  0  0  0  0  0  0  0  0
   -5.6030    0.9147    0.2399 C   0  0  1  0  0  0  0  0  0  0  0  0
   -4.6768    0.2222   -0.8057 C   0  0  1  0  0  0  0  0  0  0  0  0
   -3.1810    0.4276   -0.4546 C   0  0  2  0  0  0  0  0  0  0  0  0
   -2.7739   -0.1199    0.9488 C   0  0  0  0  0  0  0  0  0  0  0  0
   -1.3385   -0.6896    1.0190 C   0  0  0  0  0  0  0  0  0  0  0  0
   -0.2678    0.3859    1.2879 C   0  0  0  0  0  0  0  0  0  0  0  0
    1.0705   -0.2124    1.7471 C   0  0  0  0  0  0  0  0  0  0  0  0
    1.8495   -0.8500    0.5843 C   0  0  0  0  0  0  0  0  0  0  0  0
    3.2182   -1.3962    1.0237 C   0  0  0  0  0  0  0  0  0  0  0  0
    4.2800   -0.2890    1.1483 C   0  0  0  0  0  0  0  0  0  0  0  0
    5.6205   -0.8032    1.6999 C   0  0  0  0  0  0  0  0  0  0  0  0
    6.3613   -1.7067    0.7070 C   0  0  0  0  0  0  0  0  0  0  0  0
    7.9633   -2.1722    1.3440 S   0  0  0  0  0  0  0  0  0  0  0  0
    7.7789   -3.1298    2.7106 O   0  0  0  0  0  0  0  0  0  0  0  0
    9.0376   -0.7862    1.7014 C   0  0  0  0  0  0  0  0  0  0  0  0
    9.1672    0.1734    0.5121 C   0  0  0  0  0  0  0  0  0  0  0  0
    9.9722   -0.4370   -0.6493 C   0  0  0  0  0  0  0  0  0  0  0  0
    9.8894    0.3800   -1.9568 C   0  0  0  0  0  0  0  0  0  0  0  0
   10.6104   -0.2982   -2.9267 F   0  0  0  0  0  0  0  0  0  0  0  0
    8.5720    0.4500   -2.3795 F   0  0  0  0  0  0  0  0  0  0  0  0
   10.4582    1.8035   -1.8327 C   0  0  0  0  0  0  0  0  0  0  0  0
    9.6130    2.6042   -1.0871 F   0  0  0  0  0  0  0  0  0  0  0  0
   10.5826    2.3599   -3.0959 F   0  0  0  0  0  0  0  0  0  0  0  0
   11.7069    1.7765   -1.2360 F   0  0  0  0  0  0  0  0  0  0  0  0
   -2.8783    1.9357   -0.5965 C   0  0  0  0  0  0  0  0  0  0  0  0
   -3.8977    2.8299    0.0769 C   0  0  0  0  0  0  0  0  0  0  0  0
   -3.5392    4.1694    0.3107 C   0  0  0  0  0  0  0  0  0  0  0  0
   -4.3941    5.0294    1.0013 C   0  0  0  0  0  0  0  0  0  0  0  0
   -4.0035    6.3463    1.2393 O   0  0  0  0  0  0  0  0  0  0  0  0
   -5.6244    4.5545    1.4633 C   0  0  0  0  0  0  0  0  0  0  0  0
   -6.0085    3.2325    1.2171 C   0  0  0  0  0  0  0  0  0  0  0  0
   -5.1781    2.3622    0.4824 C   0  0  0  0  0  0  0  0  0  0  0  0
   -5.1254   -1.2486   -0.9476 C   0  0  2  0  0  0  0  0  0  0  0  0
   -4.3102   -2.2139   -1.7947 C   0  0  0  0  0  0  0  0  0  0  0  0
   -5.2910   -3.3698   -2.0742 C   0  0  0  0  0  0  0  0  0  0  0  0
   -6.6832   -2.9038   -1.5878 C   0  0  2  0  0  0  0  0  0  0  0  0
   -7.6880   -3.3216   -2.4754 O   0  0  0  0  0  0  0  0  0  0  0  0
   -6.1164   -1.1975   -3.6669 H   0  0  0  0  0  0  0  0  0  0  0  0
   -7.8249   -0.8900   -3.2272 H   0  0  0  0  0  0  0  0  0  0  0  0
   -6.6088    0.3545   -2.9279 H   0  0  0  0  0  0  0  0  0  0  0  0
   -7.4893   -1.2655    0.4937 H   0  0  0  0  0  0  0  0  0  0  0  0
   -8.5575   -0.7314   -0.8396 H   0  0  0  0  0  0  0  0  0  0  0  0
   -7.3142    1.4050   -1.0598 H   0  0  0  0  0  0  0  0  0  0  0  0
   -7.7619    1.1225    0.6376 H   0  0  0  0  0  0  0  0  0  0  0  0
   -5.4976    0.3965    1.2181 H   0  0  0  0  0  0  0  0  0  0  0  0
   -4.8179    0.7212   -1.7857 H   0  0  0  0  0  0  0  0  0  0  0  0
   -2.5817   -0.0983   -1.2281 H   0  0  0  0  0  0  0  0  0  0  0  0
   -2.9239    0.6571    1.7304 H   0  0  0  0  0  0  0  0  0  0  0  0
   -3.4405   -0.9571    1.2344 H   0  0  0  0  0  0  0  0  0  0  0  0
   -1.3158   -1.4216    1.8544 H   0  0  0  0  0  0  0  0  0  0  0  0
   -1.0971   -1.2490    0.0893 H   0  0  0  0  0  0  0  0  0  0  0  0
   -0.6299    1.0703    2.0917 H   0  0  0  0  0  0  0  0  0  0  0  0
   -0.0899    0.9950    0.3738 H   0  0  0  0  0  0  0  0  0  0  0  0
    0.8974   -0.9635    2.5448 H   0  0  0  0  0  0  0  0  0  0  0  0
    1.6707    0.6087    2.1900 H   0  0  0  0  0  0  0  0  0  0  0  0
    1.2569   -1.7004    0.1837 H   0  0  0  0  0  0  0  0  0  0  0  0
    1.9855   -0.1128   -0.2374 H   0  0  0  0  0  0  0  0  0  0  0  0
    3.1179   -1.9451    1.9857 H   0  0  0  0  0  0  0  0  0  0  0  0
    3.5505   -2.1256    0.2559 H   0  0  0  0  0  0  0  0  0  0  0  0
    3.9156    0.4953    1.8426 H   0  0  0  0  0  0  0  0  0  0  0  0
    4.4387    0.1930    0.1594 H   0  0  0  0  0  0  0  0  0  0  0  0
    6.2525    0.0834    1.9234 H   0  0  0  0  0  0  0  0  0  0  0  0
    5.4521   -1.3470    2.6562 H   0  0  0  0  0  0  0  0  0  0  0  0
    6.4942   -1.1878   -0.2674 H   0  0  0  0  0  0  0  0  0  0  0  0
    5.7854   -2.6393    0.5308 H   0  0  0  0  0  0  0  0  0  0  0  0
    8.0971   -4.0291    2.4356 H   0  0  0  0  0  0  0  0  0  0  0  0
   10.0380   -1.1694    1.9942 H   0  0  0  0  0  0  0  0  0  0  0  0
    8.6214   -0.2330    2.5691 H   0  0  0  0  0  0  0  0  0  0  0  0
    8.1578    0.4872    0.1697 H   0  0  0  0  0  0  0  0  0  0  0  0
    9.6969    1.0803    0.8724 H   0  0  0  0  0  0  0  0  0  0  0  0
    9.5910   -1.4584   -0.8710 H   0  0  0  0  0  0  0  0  0  0  0  0
   11.0363   -0.5441   -0.3406 H   0  0  0  0  0  0  0  0  0  0  0  0
   -1.8764    2.1624   -0.1883 H   0  0  0  0  0  0  0  0  0  0  0  0
   -2.8443    2.2051   -1.6772 H   0  0  0  0  0  0  0  0  0  0  0  0
   -2.5780    4.5423   -0.0193 H   0  0  0  0  0  0  0  0  0  0  0  0
   -4.5663    6.9750    1.8071 H   0  0  0  0  0  0  0  0  0  0  0  0
   -6.2853    5.2064    2.0178 H   0  0  0  0  0  0  0  0  0  0  0  0
   -6.9530    2.8997    1.6198 H   0  0  0  0  0  0  0  0  0  0  0  0
   -5.1214   -1.6886    0.0777 H   0  0  0  0  0  0  0  0  0  0  0  0
   -3.4089   -2.5716   -1.2486 H   0  0  0  0  0  0  0  0  0  0  0  0
   -3.9938   -1.7327   -2.7431 H   0  0  0  0  0  0  0  0  0  0  0  0
   -5.3038   -3.5984   -3.1626 H   0  0  0  0  0  0  0  0  0  0  0  0
   -4.9802   -4.2813   -1.5233 H   0  0  0  0  0  0  0  0  0  0  0  0
   -6.8673   -3.3425   -0.5766 H   0  0  0  0  0  0  0  0  0  0  0  0
   -8.5536   -3.1483   -2.0233 H   0  0  0  0  0  0  0  0  0  0  0  0
  2  1  1  6
  2  3  1  0
  3  4  1  0
  5  4  1  0
  5  6  1  0
  6  7  1  0
  7  8  1  0
  8  9  1  0
  9 10  1  0
 10 11  1  0
 11 12  1  0
 12 13  1  0
 13 14  1  0
 14 15  1  0
 15 16  1  0
 16 17  1  0
 17 18  1  0
 17 19  1  0
 19 20  1  0
 20 21  1  0
 21 22  1  0
 22 23  1  0
 22 24  1  0
 22 25  1  0
 25 26  1  0
 25 27  1  0
 25 28  1  0
  7 29  1  0
 29 30  1  0
 30 31  2  0
 31 32  1  0
 32 33  1  0
 32 34  2  0
 34 35  1  0
 35 36  2  0
 36  5  1  0
 36 30  1  0
  6 37  1  0
 37  2  1  0
 37 38  1  0
 38 39  1  0
 39 40  1  0
 40  2  1  0
 40 41  1  0
  1 42  1  0
  1 43  1  0
  1 44  1  0
  3 45  1  0
  3 46  1  0
  4 47  1  0
  4 48  1  0
  5 49  1  1
  6 50  1  6
  7 51  1  6
  8 52  1  0
  8 53  1  0
  9 54  1  0
  9 55  1  0
 10 56  1  0
 10 57  1  0
 11 58  1  0
 11 59  1  0
 12 60  1  0
 12 61  1  0
 13 62  1  0
 13 63  1  0
 14 64  1  0
 14 65  1  0
 15 66  1  0
 15 67  1  0
 16 68  1  0
 16 69  1  0
 18 70  1  0
 19 71  1  0
 19 72  1  0
 20 73  1  0
 20 74  1  0
 21 75  1  0
 21 76  1  0
 29 77  1  0
 29 78  1  0
 31 79  1  0
 33 80  1  0
 34 81  1  0
 35 82  1  0
 37 83  1  1
 38 84  1  0
 38 85  1  0
 39 86  1  0
 39 87  1  0
 40 88  1  1
 41 89  1  0
M  CHG  1  17   1
M  END
> <ID>
HT0943

> <Class>
0.0

> <Clusters>
112

> <Fold>
1

$$$$