
     RDKit          3D

 36 37  0  0  0  0  0  0  0  0999 V2000
   -1.8663   -2.6582   -0.5947 C   0  0  0  0  0  0  0  0  0  0  0  0
   -1.9389   -1.5232    0.4378 C   0  0  0  0  0  0  0  0  0  0  0  0
   -1.2505   -0.1852    0.0122 C   0  0  0  0  0  0  0  0  0  0  0  0
   -1.5170    0.8080    1.1366 C   0  0  0  0  0  0  0  0  0  0  0  0
   -0.9174    0.6671    2.2379 O   0  0  0  0  0  0  0  0  0  0  0  0
   -2.4755    1.8620    1.0092 N   0  0  0  0  0  0  0  0  0  0  0  0
   -3.1858    2.0743   -0.2058 C   0  0  0  0  0  0  0  0  0  0  0  0
   -4.0662    2.9726   -0.2729 O   0  0  0  0  0  0  0  0  0  0  0  0
   -2.8871    1.2828   -1.3501 N   0  0  0  0  0  0  0  0  0  0  0  0
   -1.8810    0.2683   -1.3043 C   0  0  0  0  0  0  0  0  0  0  0  0
   -1.5219   -0.2751   -2.3848 O   0  0  0  0  0  0  0  0  0  0  0  0
    0.2892   -0.2540   -0.1635 C   0  0  0  0  0  0  0  0  0  0  0  0
    1.0271   -1.2995    0.2920 C   0  0  0  0  0  0  0  0  0  0  0  0
    2.5221   -1.4065    0.1343 C   0  0  0  0  0  0  0  0  0  0  0  0
    3.2619   -0.3693    0.9867 C   0  0  0  0  0  0  0  0  0  0  0  0
    3.3013    1.0137    0.3281 C   0  0  0  0  0  0  0  0  0  0  0  0
    1.9188    1.6670    0.2175 C   0  0  0  0  0  0  0  0  0  0  0  0
    0.9962    0.9500   -0.7812 C   0  0  0  0  0  0  0  0  0  0  0  0
   -2.5730   -2.4670   -1.4292 H   0  0  0  0  0  0  0  0  0  0  0  0
   -2.1636   -3.6134   -0.1129 H   0  0  0  0  0  0  0  0  0  0  0  0
   -0.8459   -2.7774   -1.0101 H   0  0  0  0  0  0  0  0  0  0  0  0
   -1.5304   -1.8824    1.4069 H   0  0  0  0  0  0  0  0  0  0  0  0
   -3.0179   -1.3267    0.6310 H   0  0  0  0  0  0  0  0  0  0  0  0
   -2.6657    2.4833    1.8277 H   0  0  0  0  0  0  0  0  0  0  0  0
   -3.3705    1.4863   -2.2539 H   0  0  0  0  0  0  0  0  0  0  0  0
    0.5602   -2.1374    0.7910 H   0  0  0  0  0  0  0  0  0  0  0  0
    2.8079   -1.3262   -0.9367 H   0  0  0  0  0  0  0  0  0  0  0  0
    2.8327   -2.4180    0.4753 H   0  0  0  0  0  0  0  0  0  0  0  0
    2.8082   -0.3016    2.0004 H   0  0  0  0  0  0  0  0  0  0  0  0
    4.3111   -0.7125    1.1189 H   0  0  0  0  0  0  0  0  0  0  0  0
    3.9469    1.6728    0.9484 H   0  0  0  0  0  0  0  0  0  0  0  0
    3.7743    0.9460   -0.6763 H   0  0  0  0  0  0  0  0  0  0  0  0
    2.0691    2.7104   -0.1365 H   0  0  0  0  0  0  0  0  0  0  0  0
    1.4406    1.7306    1.2191 H   0  0  0  0  0  0  0  0  0  0  0  0
    0.2506    1.6989   -1.1217 H   0  0  0  0  0  0  0  0  0  0  0  0
    1.5566    0.6395   -1.6893 H   0  0  0  0  0  0  0  0  0  0  0  0
  1  2  1  0
  2  3  1  0
  3  4  1  0
  4  5  2  0
  4  6  1  0
  6  7  1  0
  7  8  2  0
  7  9  1  0
  9 10  1  0
 10  3  1  0
 10 11  2  0
  3 12  1  0
 12 13  2  0
 13 14  1  0
 14 15  1  0
 15 16  1  0
 16 17  1  0
 17 18  1  0
 18 12  1  0
  1 19  1  0
  1 20  1  0
  1 21  1  0
  2 22  1  0
  2 23  1  0
  6 24  1  0
  9 25  1  0
 13 26  1  0
 14 27  1  0
 14 28  1  0
 15 29  1  0
 15 30  1  0
 16 31  1  0
 16 32  1  0
 17 33  1  0
 17 34  1  0
 18 35  1  0
 18 36  1  0
M  END
> <ID>
HT1024

> <Class>
0.0

> <Clusters>
64

> <Fold>
1

$$$$