
     RDKit          3D

 50 52  0  0  0  0  0  0  0  0999 V2000
   -3.3865   -0.5743    2.3755 C   0  0  0  0  0  0  0  0  0  0  0  0
   -1.9731   -0.6459    2.4617 O   0  0  0  0  0  0  0  0  0  0  0  0
   -1.3090   -0.4706    1.2063 C   0  0  0  0  0  0  0  0  0  0  0  0
    0.2148   -0.8159    1.4280 C   0  0  2  0  0  0  0  0  0  0  0  0
    0.8563   -1.0815    0.1741 O   0  0  0  0  0  0  0  0  0  0  0  0
    1.9390   -0.3563   -0.3380 C   0  0  0  0  0  0  0  0  0  0  0  0
    2.4832   -0.7303   -1.5250 N   0  0  0  0  0  0  0  0  0  0  0  0
    3.5232   -0.0456   -2.0713 C   0  0  0  0  0  0  0  0  0  0  0  0
    4.0843   -0.4703   -3.3907 C   0  0  0  0  0  0  0  0  0  0  0  0
    4.0376    1.0738   -1.4099 C   0  0  0  0  0  0  0  0  0  0  0  0
    3.4743    1.4437   -0.1852 C   0  0  0  0  0  0  0  0  0  0  0  0
    3.9740    2.6469    0.5483 C   0  0  0  0  0  0  0  0  0  0  0  0
    2.4374    0.7257    0.3205 N   0  0  0  0  0  0  0  0  0  0  0  0
    0.4791   -1.9547    2.3928 C   0  0  0  0  0  0  0  0  0  0  0  0
    0.1645   -1.8278    3.6059 O   0  0  0  0  0  0  0  0  0  0  0  0
    1.1164   -3.1281    1.9883 O   0  0  0  0  0  0  0  0  0  0  0  0
   -1.3139    1.0243    0.7988 C   0  0  0  0  0  0  0  0  0  0  0  0
   -1.6401    2.0351    1.7317 C   0  0  0  0  0  0  0  0  0  0  0  0
   -1.5548    3.3863    1.3838 C   0  0  0  0  0  0  0  0  0  0  0  0
   -1.1158    3.7580    0.1134 C   0  0  0  0  0  0  0  0  0  0  0  0
   -0.7513    2.7794   -0.8103 C   0  0  0  0  0  0  0  0  0  0  0  0
   -0.8367    1.4274   -0.4700 C   0  0  0  0  0  0  0  0  0  0  0  0
   -1.9427   -1.3981    0.1257 C   0  0  0  0  0  0  0  0  0  0  0  0
   -2.8174   -0.8967   -0.8702 C   0  0  0  0  0  0  0  0  0  0  0  0
   -3.4085   -1.7491   -1.8066 C   0  0  0  0  0  0  0  0  0  0  0  0
   -3.1791   -3.1220   -1.7474 C   0  0  0  0  0  0  0  0  0  0  0  0
   -2.3814   -3.6478   -0.7335 C   0  0  0  0  0  0  0  0  0  0  0  0
   -1.7878   -2.7999    0.2055 C   0  0  0  0  0  0  0  0  0  0  0  0
   -3.8023   -1.5606    2.0792 H   0  0  0  0  0  0  0  0  0  0  0  0
   -3.7883   -0.3310    3.3801 H   0  0  0  0  0  0  0  0  0  0  0  0
   -3.7411    0.2127    1.6750 H   0  0  0  0  0  0  0  0  0  0  0  0
    0.6971    0.0590    1.9202 H   0  0  0  0  0  0  0  0  0  0  0  0
    5.1882   -0.5686   -3.3191 H   0  0  0  0  0  0  0  0  0  0  0  0
    3.6606   -1.4503   -3.6968 H   0  0  0  0  0  0  0  0  0  0  0  0
    3.8331    0.2865   -4.1630 H   0  0  0  0  0  0  0  0  0  0  0  0
    4.8549    1.6425   -1.8377 H   0  0  0  0  0  0  0  0  0  0  0  0
    5.0799    2.6038    0.6402 H   0  0  0  0  0  0  0  0  0  0  0  0
    3.5351    2.6908    1.5677 H   0  0  0  0  0  0  0  0  0  0  0  0
    3.6873    3.5653   -0.0056 H   0  0  0  0  0  0  0  0  0  0  0  0
    1.3988   -3.2910    1.0301 H   0  0  0  0  0  0  0  0  0  0  0  0
   -1.9445    1.7903    2.7401 H   0  0  0  0  0  0  0  0  0  0  0  0
   -1.8168    4.1476    2.1073 H   0  0  0  0  0  0  0  0  0  0  0  0
   -1.0458    4.8052   -0.1509 H   0  0  0  0  0  0  0  0  0  0  0  0
   -0.3948    3.0681   -1.7907 H   0  0  0  0  0  0  0  0  0  0  0  0
   -0.5359    0.6929   -1.2050 H   0  0  0  0  0  0  0  0  0  0  0  0
   -3.0769    0.1508   -0.9191 H   0  0  0  0  0  0  0  0  0  0  0  0
   -4.0609   -1.3442   -2.5695 H   0  0  0  0  0  0  0  0  0  0  0  0
   -3.6429   -3.7811   -2.4699 H   0  0  0  0  0  0  0  0  0  0  0  0
   -2.2362   -4.7181   -0.6626 H   0  0  0  0  0  0  0  0  0  0  0  0
   -1.2346   -3.2565    1.0068 H   0  0  0  0  0  0  0  0  0  0  0  0
  1  2  1  0
  2  3  1  0
  3  4  1  0
  4  5  1  0
  5  6  1  0
  6  7  2  0
  7  8  1  0
  8  9  1  0
  8 10  2  0
 10 11  1  0
 11 12  1  0
 11 13  2  0
 13  6  1  0
  4 14  1  0
 14 15  2  0
 14 16  1  0
  3 17  1  0
 17 18  2  0
 18 19  1  0
 19 20  2  0
 20 21  1  0
 21 22  2  0
 22 17  1  0
  3 23  1  0
 23 24  2  0
 24 25  1  0
 25 26  2  0
 26 27  1  0
 27 28  2  0
 28 23  1  0
  1 29  1  0
  1 30  1  0
  1 31  1  0
  4 32  1  1
  9 33  1  0
  9 34  1  0
  9 35  1  0
 10 36  1  0
 12 37  1  0
 12 38  1  0
 12 39  1  0
 16 40  1  0
 18 41  1  0
 19 42  1  0
 20 43  1  0
 21 44  1  0
 22 45  1  0
 24 46  1  0
 25 47  1  0
 26 48  1  0
 27 49  1  0
 28 50  1  0
M  END
> <ID>
HT0124

> <Class>
0.0

> <Clusters>
163

> <Fold>
1

$$$$