
     RDKit          3D

 71 76  0  0  0  0  0  0  0  0999 V2000
   -2.6150   -3.4057   -3.3516 C   0  0  0  0  0  0  0  0  0  0  0  0
   -3.1236   -3.1375   -1.9747 C   0  0  0  0  0  0  0  0  0  0  0  0
   -3.1387   -4.0637   -1.1192 O   0  0  0  0  0  0  0  0  0  0  0  0
   -3.5865   -1.8561   -1.6528 O   0  0  0  0  0  0  0  0  0  0  0  0
   -4.2001   -1.5389   -0.4061 C   0  0  0  0  0  0  0  0  0  0  0  0
   -3.1776   -1.4384    0.6981 C   0  0  0  0  0  0  0  0  0  0  0  0
   -3.2683   -2.2186    1.6360 O   0  0  0  0  0  0  0  0  0  0  0  0
   -2.0822   -0.3631    0.7014 C   0  0  1  0  0  0  0  0  0  0  0  0
   -2.4163    0.6341   -0.2273 O   0  0  0  0  0  0  0  0  0  0  0  0
   -2.8116    1.7746    0.5107 C   0  0  0  0  0  0  0  0  0  0  0  0
   -2.0449    3.0120    0.0412 C   0  0  0  0  0  0  0  0  0  0  0  0
   -3.0194    4.1866    0.1129 C   0  0  0  0  0  0  0  0  0  0  0  0
   -4.3898    3.6066    0.4475 C   0  0  0  0  0  0  0  0  0  0  0  0
   -4.2735    2.1072    0.2401 C   0  0  0  0  0  0  0  0  0  0  0  0
   -2.6167    1.5942    1.8963 O   0  0  0  0  0  0  0  0  0  0  0  0
   -1.9808    0.3620    2.0472 C   0  0  2  0  0  0  0  0  0  0  0  0
   -0.4798    0.5684    2.3505 C   0  0  0  0  0  0  0  0  0  0  0  0
    0.2058    0.2490    1.0306 C   0  0  1  0  0  0  0  0  0  0  0  0
    1.7284   -0.0156    1.0044 C   0  0  2  0  0  0  0  0  0  0  0  0
    2.4917    1.1483    1.6761 C   0  0  0  0  0  0  0  0  0  0  0  0
    4.0040    0.9398    1.6045 C   0  0  0  0  0  0  0  0  0  0  0  0
    4.4224    0.7249    0.1717 C   0  0  0  0  0  0  0  0  0  0  0  0
    5.3368    1.5383   -0.3802 C   0  0  0  0  0  0  0  0  0  0  0  0
    5.7151    1.3993   -1.7860 C   0  0  0  0  0  0  0  0  0  0  0  0
    6.5924    2.1528   -2.2835 O   0  0  0  0  0  0  0  0  0  0  0  0
    5.0616    0.3881   -2.6128 C   0  0  0  0  0  0  0  0  0  0  0  0
    4.1506   -0.4306   -2.0875 C   0  0  0  0  0  0  0  0  0  0  0  0
    3.7462   -0.4141   -0.6113 C   0  0  1  0  0  0  0  0  0  0  0  0
    4.2447   -1.7517   -0.0061 C   0  0  0  0  0  0  0  0  0  0  0  0
    2.1818   -0.1900   -0.4958 C   0  0  2  0  0  0  0  0  0  0  0  0
    1.9275    1.0191   -1.1377 F   0  0  0  0  0  0  0  0  0  0  0  0
    1.3014   -1.2519   -1.2555 C   0  0  1  0  0  0  0  0  0  0  0  0
    1.6523   -2.5635   -0.9026 O   0  0  0  0  0  0  0  0  0  0  0  0
   -0.2279   -1.0349   -1.0540 C   0  0  0  0  0  0  0  0  0  0  0  0
   -0.6278   -0.8936    0.4385 C   0  0  2  0  0  0  0  0  0  0  0  0
   -0.4110   -2.2535    1.1841 C   0  0  0  0  0  0  0  0  0  0  0  0
   -1.7868   -2.7065   -3.5912 H   0  0  0  0  0  0  0  0  0  0  0  0
   -3.4389   -3.2543   -4.0808 H   0  0  0  0  0  0  0  0  0  0  0  0
   -2.2415   -4.4492   -3.4369 H   0  0  0  0  0  0  0  0  0  0  0  0
   -4.9638   -2.3123   -0.1602 H   0  0  0  0  0  0  0  0  0  0  0  0
   -4.7394   -0.5757   -0.5020 H   0  0  0  0  0  0  0  0  0  0  0  0
   -1.7061    2.8756   -1.0109 H   0  0  0  0  0  0  0  0  0  0  0  0
   -1.1520    3.2040    0.6747 H   0  0  0  0  0  0  0  0  0  0  0  0
   -3.0550    4.7141   -0.8667 H   0  0  0  0  0  0  0  0  0  0  0  0
   -2.7036    4.9108    0.8960 H   0  0  0  0  0  0  0  0  0  0  0  0
   -5.1817    4.0404   -0.2010 H   0  0  0  0  0  0  0  0  0  0  0  0
   -4.6373    3.8147    1.5130 H   0  0  0  0  0  0  0  0  0  0  0  0
   -4.9574    1.5492    0.9159 H   0  0  0  0  0  0  0  0  0  0  0  0
   -4.5270    1.8686   -0.8169 H   0  0  0  0  0  0  0  0  0  0  0  0
   -2.4550   -0.1940    2.8850 H   0  0  0  0  0  0  0  0  0  0  0  0
   -0.2655    1.6104    2.6758 H   0  0  0  0  0  0  0  0  0  0  0  0
   -0.1402   -0.1303    3.1454 H   0  0  0  0  0  0  0  0  0  0  0  0
    0.0515    1.1540    0.3987 H   0  0  0  0  0  0  0  0  0  0  0  0
    1.9541   -0.9219    1.5949 H   0  0  0  0  0  0  0  0  0  0  0  0
    2.2035    1.2209    2.7474 H   0  0  0  0  0  0  0  0  0  0  0  0
    2.2300    2.1150    1.1911 H   0  0  0  0  0  0  0  0  0  0  0  0
    4.2885    0.0544    2.2131 H   0  0  0  0  0  0  0  0  0  0  0  0
    4.5079    1.8230    2.0557 H   0  0  0  0  0  0  0  0  0  0  0  0
    5.7944    2.3283    0.2018 H   0  0  0  0  0  0  0  0  0  0  0  0
    5.3248    0.2983   -3.6596 H   0  0  0  0  0  0  0  0  0  0  0  0
    3.7286   -1.1871   -2.7365 H   0  0  0  0  0  0  0  0  0  0  0  0
    3.8024   -1.9631    0.9864 H   0  0  0  0  0  0  0  0  0  0  0  0
    5.3494   -1.7233    0.1199 H   0  0  0  0  0  0  0  0  0  0  0  0
    4.0367   -2.6160   -0.6710 H   0  0  0  0  0  0  0  0  0  0  0  0
    1.4839   -1.1198   -2.3466 H   0  0  0  0  0  0  0  0  0  0  0  0
    1.3163   -3.1603   -1.6223 H   0  0  0  0  0  0  0  0  0  0  0  0
   -0.5180   -0.1215   -1.6182 H   0  0  0  0  0  0  0  0  0  0  0  0
   -0.7797   -1.8796   -1.5101 H   0  0  0  0  0  0  0  0  0  0  0  0
    0.6408   -2.5785    1.2374 H   0  0  0  0  0  0  0  0  0  0  0  0
   -0.7703   -2.2077    2.2323 H   0  0  0  0  0  0  0  0  0  0  0  0
   -0.9647   -3.0646    0.6653 H   0  0  0  0  0  0  0  0  0  0  0  0
  1  2  1  0
  2  3  2  0
  2  4  1  0
  4  5  1  0
  5  6  1  0
  6  7  2  0
  8  6  1  1
  8  9  1  0
  9 10  1  0
 10 11  1  0
 11 12  1  0
 12 13  1  0
 13 14  1  0
 14 10  1  0
 10 15  1  0
 15 16  1  0
 16  8  1  0
 16 17  1  0
 18 17  1  0
 18 19  1  0
 19 20  1  0
 20 21  1  0
 21 22  1  0
 22 23  2  0
 23 24  1  0
 24 25  2  0
 24 26  1  0
 26 27  2  0
 27 28  1  0
 28 22  1  0
 28 29  1  1
 28 30  1  0
 30 19  1  0
 30 31  1  6
 30 32  1  0
 32 33  1  0
 32 34  1  0
 34 35  1  0
 35  8  1  0
 35 18  1  0
 35 36  1  1
  1 37  1  0
  1 38  1  0
  1 39  1  0
  5 40  1  0
  5 41  1  0
 11 42  1  0
 11 43  1  0
 12 44  1  0
 12 45  1  0
 13 46  1  0
 13 47  1  0
 14 48  1  0
 14 49  1  0
 16 50  1  1
 17 51  1  0
 17 52  1  0
 18 53  1  6
 19 54  1  1
 20 55  1  0
 20 56  1  0
 21 57  1  0
 21 58  1  0
 23 59  1  0
 26 60  1  0
 27 61  1  0
 29 62  1  0
 29 63  1  0
 29 64  1  0
 32 65  1  6
 33 66  1  0
 34 67  1  0
 34 68  1  0
 36 69  1  0
 36 70  1  0
 36 71  1  0
M  END
> <ID>
HT0126

> <Class>
0.0

> <Clusters>
234

> <Fold>
1

$$$$