
     RDKit          3D

 80 85  0  0  0  0  0  0  0  0999 V2000
   -2.6897   -0.9579    1.7359 C   0  0  0  0  0  0  0  0  0  0  0  0
   -3.3373    0.1098    0.9243 N   0  0  0  0  0  0  0  0  0  0  0  0
   -3.9571    1.0818    1.8724 C   0  0  0  0  0  0  0  0  0  0  0  0
   -2.2682    0.8510    0.1758 C   0  0  0  0  0  0  0  0  0  0  0  0
   -1.4345   -0.0080   -0.8075 C   0  0  0  0  0  0  0  0  0  0  0  0
   -0.5207    0.8385   -1.7119 C   0  0  0  0  0  0  0  0  0  0  0  0
    0.5078    1.7181   -0.9752 C   0  0  0  0  0  0  0  0  0  0  0  0
    1.4295    0.9734    0.0085 C   0  0  0  0  0  0  0  0  0  0  0  0
    2.1957   -0.2022   -0.6520 C   0  0  0  0  0  0  0  0  0  0  0  0
    3.3333   -0.7600    0.1521 N   0  0  0  0  0  0  0  0  0  0  0  0
    2.8038   -1.2079    1.4706 C   0  0  0  0  0  0  0  0  0  0  0  0
    3.8229   -1.9692   -0.5697 C   0  0  0  0  0  0  0  0  0  0  0  0
    4.4534    0.2448    0.3458 C   0  0  0  0  0  0  0  0  0  0  0  0
    5.1003    0.7075   -0.9561 C   0  0  0  0  0  0  0  0  0  0  0  0
    4.5955    1.6001   -1.9123 C   0  0  0  0  0  0  0  0  0  0  0  0
    5.3791    1.9122   -3.0350 C   0  0  0  0  0  0  0  0  0  0  0  0
    6.6790    1.3902   -3.1604 C   0  0  0  0  0  0  0  0  0  0  0  0
    7.2145    0.5749   -2.1504 C   0  0  0  0  0  0  0  0  0  0  0  0
    6.4055    0.2546   -1.0595 C   0  0  0  0  0  0  0  0  0  0  0  0
    6.7641   -0.4043    0.1777 C   0  0  0  0  0  0  0  0  0  0  0  0
    8.0028   -0.9000    0.5845 C   0  0  0  0  0  0  0  0  0  0  0  0
    8.1419   -1.3323    1.9111 C   0  0  0  0  0  0  0  0  0  0  0  0
    7.0649   -1.2228    2.8100 C   0  0  0  0  0  0  0  0  0  0  0  0
    5.8306   -0.7118    2.3796 C   0  0  0  0  0  0  0  0  0  0  0  0
    5.6803   -0.3458    1.0356 C   0  0  0  0  0  0  0  0  0  0  0  0
   -4.3816   -0.4937    0.0033 C   0  0  0  0  0  0  0  0  0  0  0  0
   -5.5663   -1.1036    0.7433 C   0  0  0  0  0  0  0  0  0  0  0  0
   -5.6088   -2.2982    1.4752 C   0  0  0  0  0  0  0  0  0  0  0  0
   -6.8314   -2.7187    2.0241 C   0  0  0  0  0  0  0  0  0  0  0  0
   -8.0036   -1.9729    1.8032 C   0  0  0  0  0  0  0  0  0  0  0  0
   -7.9656   -0.8135    1.0123 C   0  0  0  0  0  0  0  0  0  0  0  0
   -6.7345   -0.4028    0.4970 C   0  0  0  0  0  0  0  0  0  0  0  0
   -6.4589    0.6123   -0.4932 C   0  0  0  0  0  0  0  0  0  0  0  0
   -7.3545    1.4458   -1.1649 C   0  0  0  0  0  0  0  0  0  0  0  0
   -6.8763    2.2112   -2.2387 C   0  0  0  0  0  0  0  0  0  0  0  0
   -5.5367    2.0925   -2.6512 C   0  0  0  0  0  0  0  0  0  0  0  0
   -4.6614    1.2264   -1.9768 C   0  0  0  0  0  0  0  0  0  0  0  0
   -5.1229    0.5286   -0.8509 C   0  0  0  0  0  0  0  0  0  0  0  0
   -1.7660   -0.5870    2.2310 H   0  0  0  0  0  0  0  0  0  0  0  0
   -2.4154   -1.8326    1.1075 H   0  0  0  0  0  0  0  0  0  0  0  0
   -3.3501   -1.3147    2.5550 H   0  0  0  0  0  0  0  0  0  0  0  0
   -4.7242    0.6008    2.5170 H   0  0  0  0  0  0  0  0  0  0  0  0
   -4.4471    1.9210    1.3308 H   0  0  0  0  0  0  0  0  0  0  0  0
   -3.1962    1.5225    2.5564 H   0  0  0  0  0  0  0  0  0  0  0  0
   -1.5505    1.2968    0.9009 H   0  0  0  0  0  0  0  0  0  0  0  0
   -2.6931    1.7269   -0.3544 H   0  0  0  0  0  0  0  0  0  0  0  0
   -0.8221   -0.7438   -0.2476 H   0  0  0  0  0  0  0  0  0  0  0  0
   -2.0943   -0.5833   -1.4836 H   0  0  0  0  0  0  0  0  0  0  0  0
   -1.1552    1.5003   -2.3415 H   0  0  0  0  0  0  0  0  0  0  0  0
    0.0134    0.1595   -2.4097 H   0  0  0  0  0  0  0  0  0  0  0  0
   -0.0266    2.5233   -0.4260 H   0  0  0  0  0  0  0  0  0  0  0  0
    1.1394    2.2155   -1.7412 H   0  0  0  0  0  0  0  0  0  0  0  0
    2.1314    1.7271    0.4120 H   0  0  0  0  0  0  0  0  0  0  0  0
    0.8260    0.6008    0.8643 H   0  0  0  0  0  0  0  0  0  0  0  0
    1.4484   -1.0052   -0.8367 H   0  0  0  0  0  0  0  0  0  0  0  0
    2.5302    0.0834   -1.6694 H   0  0  0  0  0  0  0  0  0  0  0  0
    1.8290   -1.7331    1.3638 H   0  0  0  0  0  0  0  0  0  0  0  0
    3.4844   -1.9318    1.9658 H   0  0  0  0  0  0  0  0  0  0  0  0
    2.6546   -0.3484    2.1598 H   0  0  0  0  0  0  0  0  0  0  0  0
    4.1836   -1.7167   -1.5915 H   0  0  0  0  0  0  0  0  0  0  0  0
    4.6544   -2.4702   -0.0272 H   0  0  0  0  0  0  0  0  0  0  0  0
    3.0145   -2.7268   -0.6786 H   0  0  0  0  0  0  0  0  0  0  0  0
    4.1284    1.1307    0.9305 H   0  0  0  0  0  0  0  0  0  0  0  0
    3.6231    2.0580   -1.7953 H   0  0  0  0  0  0  0  0  0  0  0  0
    4.9901    2.5759   -3.7989 H   0  0  0  0  0  0  0  0  0  0  0  0
    7.2815    1.6465   -4.0209 H   0  0  0  0  0  0  0  0  0  0  0  0
    8.2356    0.2185   -2.2143 H   0  0  0  0  0  0  0  0  0  0  0  0
    8.8447   -0.9261   -0.0940 H   0  0  0  0  0  0  0  0  0  0  0  0
    9.0929   -1.7227    2.2500 H   0  0  0  0  0  0  0  0  0  0  0  0
    7.1942   -1.5136    3.8433 H   0  0  0  0  0  0  0  0  0  0  0  0
    5.0222   -0.5946    3.0848 H   0  0  0  0  0  0  0  0  0  0  0  0
   -3.9569   -1.2856   -0.6477 H   0  0  0  0  0  0  0  0  0  0  0  0
   -4.7266   -2.9106    1.6013 H   0  0  0  0  0  0  0  0  0  0  0  0
   -6.8803   -3.6351    2.5973 H   0  0  0  0  0  0  0  0  0  0  0  0
   -8.9451   -2.3130    2.2189 H   0  0  0  0  0  0  0  0  0  0  0  0
   -8.8783   -0.2721    0.7931 H   0  0  0  0  0  0  0  0  0  0  0  0
   -8.3989    1.4889   -0.8832 H   0  0  0  0  0  0  0  0  0  0  0  0
   -7.5493    2.8742   -2.7695 H   0  0  0  0  0  0  0  0  0  0  0  0
   -5.1857    2.6563   -3.5082 H   0  0  0  0  0  0  0  0  0  0  0  0
   -3.6551    1.0920   -2.3446 H   0  0  0  0  0  0  0  0  0  0  0  0
  1  2  1  0
  2  3  1  0
  2  4  1  0
  4  5  1  0
  5  6  1  0
  6  7  1  0
  7  8  1  0
  8  9  1  0
  9 10  1  0
 10 11  1  0
 10 12  1  0
 10 13  1  0
 13 14  1  0
 14 15  2  0
 15 16  1  0
 16 17  2  0
 17 18  1  0
 18 19  2  0
 19 14  1  0
 19 20  1  0
 20 21  2  0
 21 22  1  0
 22 23  2  0
 23 24  1  0
 24 25  2  0
 25 13  1  0
 25 20  1  0
  2 26  1  0
 26 27  1  0
 27 28  2  0
 28 29  1  0
 29 30  2  0
 30 31  1  0
 31 32  2  0
 32 27  1  0
 32 33  1  0
 33 34  2  0
 34 35  1  0
 35 36  2  0
 36 37  1  0
 37 38  2  0
 38 26  1  0
 38 33  1  0
  1 39  1  0
  1 40  1  0
  1 41  1  0
  3 42  1  0
  3 43  1  0
  3 44  1  0
  4 45  1  0
  4 46  1  0
  5 47  1  0
  5 48  1  0
  6 49  1  0
  6 50  1  0
  7 51  1  0
  7 52  1  0
  8 53  1  0
  8 54  1  0
  9 55  1  0
  9 56  1  0
 11 57  1  0
 11 58  1  0
 11 59  1  0
 12 60  1  0
 12 61  1  0
 12 62  1  0
 13 63  1  0
 15 64  1  0
 16 65  1  0
 17 66  1  0
 18 67  1  0
 21 68  1  0
 22 69  1  0
 23 70  1  0
 24 71  1  0
 26 72  1  0
 28 73  1  0
 29 74  1  0
 30 75  1  0
 31 76  1  0
 34 77  1  0
 35 78  1  0
 36 79  1  0
 37 80  1  0
M  CHG  2   2   1  10   1
M  END
> <ID>
HT1031

> <Class>
0.0

> <Clusters>
222

> <Fold>
1

$$$$