
     RDKit          3D

 23 23  0  0  0  0  0  0  0  0999 V2000
    3.9976   -0.1571   -0.5903 N   0  0  0  0  0  0  0  0  0  0  0  0
    3.2189   -1.0261    0.2403 C   0  0  0  0  0  0  0  0  0  0  0  0
    3.8057   -1.9439    0.9407 N   0  0  0  0  0  0  0  0  0  0  0  0
    1.7861   -0.9432    0.2582 N   0  0  0  0  0  0  0  0  0  0  0  0
    1.0510    0.2687    0.0254 C   0  0  0  0  0  0  0  0  0  0  0  0
    1.6475    1.3792    0.0193 O   0  0  0  0  0  0  0  0  0  0  0  0
   -0.4041    0.2035   -0.2322 C   0  0  0  0  0  0  0  0  0  0  0  0
   -0.8928   -0.9032   -0.8549 N   0  0  0  0  0  0  0  0  0  0  0  0
   -2.2015   -1.0300   -1.1918 C   0  0  0  0  0  0  0  0  0  0  0  0
   -2.7266   -2.5002   -1.9967 Cl  0  0  0  0  0  0  0  0  0  0  0  0
   -3.0863    0.0186   -0.8985 C   0  0  0  0  0  0  0  0  0  0  0  0
   -4.4733   -0.0475   -1.2408 N   0  0  0  0  0  0  0  0  0  0  0  0
   -2.6104    1.1190   -0.2599 N   0  0  0  0  0  0  0  0  0  0  0  0
   -1.3035    1.2457    0.0940 C   0  0  0  0  0  0  0  0  0  0  0  0
   -0.9045    2.4026    0.8365 N   0  0  0  0  0  0  0  0  0  0  0  0
    5.0411   -0.1835   -0.5561 H   0  0  0  0  0  0  0  0  0  0  0  0
    3.5464    0.4493   -1.3093 H   0  0  0  0  0  0  0  0  0  0  0  0
    4.8440   -2.0576    0.9390 H   0  0  0  0  0  0  0  0  0  0  0  0
    1.2524   -1.7953    0.5443 H   0  0  0  0  0  0  0  0  0  0  0  0
   -5.1060    0.7483   -1.0025 H   0  0  0  0  0  0  0  0  0  0  0  0
   -4.8845   -0.8727   -1.7293 H   0  0  0  0  0  0  0  0  0  0  0  0
   -1.5782    3.1901    0.9644 H   0  0  0  0  0  0  0  0  0  0  0  0
   -0.0190    2.4352    1.3856 H   0  0  0  0  0  0  0  0  0  0  0  0
  1  2  1  0
  2  3  2  3
  2  4  1  0
  4  5  1  0
  5  6  2  0
  5  7  1  0
  7  8  2  0
  8  9  1  0
  9 10  1  0
  9 11  2  0
 11 12  1  0
 11 13  1  0
 13 14  2  0
 14  7  1  0
 14 15  1  0
  1 16  1  0
  1 17  1  0
  3 18  1  0
  4 19  1  0
 12 20  1  0
 12 21  1  0
 15 22  1  0
 15 23  1  0
M  END
> <ID>
HT0131

> <Class>
0.0

> <Clusters>
101

> <Fold>
1

$$$$