
     RDKit          3D

 56 55  0  0  0  0  0  0  0  0999 V2000
    5.9219    1.8295    3.7120 C   0  0  0  0  0  0  0  0  0  0  0  0
    4.6339    2.0042    2.9128 C   0  0  0  0  0  0  0  0  0  0  0  0
    4.8232    1.5593    1.4553 C   0  0  0  0  0  0  0  0  0  0  0  0
    3.6004    1.8702    0.5728 C   0  0  0  0  0  0  0  0  0  0  0  0
    2.3337    1.0801    0.9406 C   0  0  0  0  0  0  0  0  0  0  0  0
    2.5422   -0.4107    0.8175 C   0  0  0  0  0  0  0  0  0  0  0  0
    2.2594   -1.1301   -0.2831 C   0  0  0  0  0  0  0  0  0  0  0  0
    1.6662   -0.5359   -1.5362 C   0  0  0  0  0  0  0  0  0  0  0  0
    1.5303   -1.5699   -2.6246 C   0  0  0  0  0  0  0  0  0  0  0  0
    0.6223   -2.5644   -2.6277 C   0  0  0  0  0  0  0  0  0  0  0  0
   -0.4196   -2.7854   -1.5587 C   0  0  0  0  0  0  0  0  0  0  0  0
   -1.7939   -2.5069   -2.0971 C   0  0  0  0  0  0  0  0  0  0  0  0
   -2.1898   -1.2591   -2.3888 C   0  0  0  0  0  0  0  0  0  0  0  0
   -3.5784   -0.9609   -2.8872 C   0  0  0  0  0  0  0  0  0  0  0  0
   -4.6682   -1.2388   -1.8350 C   0  0  0  0  0  0  0  0  0  0  0  0
   -4.4063   -0.6003   -0.4585 C   0  0  0  0  0  0  0  0  0  0  0  0
   -4.2407    0.9265   -0.5286 C   0  0  0  0  0  0  0  0  0  0  0  0
   -4.2203    1.5880    0.8614 C   0  0  0  0  0  0  0  0  0  0  0  0
   -3.0826    1.1069    1.7787 C   0  0  0  0  0  0  0  0  0  0  0  0
   -1.7271    1.2838    1.1570 C   0  0  0  0  0  0  0  0  0  0  0  0
   -1.0169    0.2748    0.9068 O   0  0  0  0  0  0  0  0  0  0  0  0
   -1.2396    2.5528    0.8601 O   0  0  0  0  0  0  0  0  0  0  0  0
    5.7545    2.1489    4.7624 H   0  0  0  0  0  0  0  0  0  0  0  0
    6.7337    2.4513    3.2777 H   0  0  0  0  0  0  0  0  0  0  0  0
    6.2354    0.7636    3.7098 H   0  0  0  0  0  0  0  0  0  0  0  0
    4.3325    3.0739    2.9456 H   0  0  0  0  0  0  0  0  0  0  0  0
    3.8400    1.3965    3.3961 H   0  0  0  0  0  0  0  0  0  0  0  0
    5.0580    0.4735    1.4178 H   0  0  0  0  0  0  0  0  0  0  0  0
    5.6957    2.1000    1.0264 H   0  0  0  0  0  0  0  0  0  0  0  0
    3.8653    1.6521   -0.4844 H   0  0  0  0  0  0  0  0  0  0  0  0
    3.3744    2.9572    0.6324 H   0  0  0  0  0  0  0  0  0  0  0  0
    1.5021    1.4195    0.2890 H   0  0  0  0  0  0  0  0  0  0  0  0
    2.0198    1.3171    1.9784 H   0  0  0  0  0  0  0  0  0  0  0  0
    2.9706   -0.9285    1.6714 H   0  0  0  0  0  0  0  0  0  0  0  0
    2.4741   -2.1956   -0.2580 H   0  0  0  0  0  0  0  0  0  0  0  0
    0.6764   -0.0817   -1.3224 H   0  0  0  0  0  0  0  0  0  0  0  0
    2.3387    0.2687   -1.9033 H   0  0  0  0  0  0  0  0  0  0  0  0
    2.2107   -1.5002   -3.4685 H   0  0  0  0  0  0  0  0  0  0  0  0
    0.6114   -3.2405   -3.4781 H   0  0  0  0  0  0  0  0  0  0  0  0
   -0.2478   -2.1752   -0.6481 H   0  0  0  0  0  0  0  0  0  0  0  0
   -0.3683   -3.8508   -1.2487 H   0  0  0  0  0  0  0  0  0  0  0  0
   -2.4825   -3.3374   -2.2245 H   0  0  0  0  0  0  0  0  0  0  0  0
   -1.5002   -0.4299   -2.2663 H   0  0  0  0  0  0  0  0  0  0  0  0
   -3.7811   -1.5716   -3.7931 H   0  0  0  0  0  0  0  0  0  0  0  0
   -3.6303    0.1044   -3.1974 H   0  0  0  0  0  0  0  0  0  0  0  0
   -5.6417   -0.8724   -2.2273 H   0  0  0  0  0  0  0  0  0  0  0  0
   -4.7667   -2.3374   -1.6984 H   0  0  0  0  0  0  0  0  0  0  0  0
   -5.2649   -0.8441    0.2037 H   0  0  0  0  0  0  0  0  0  0  0  0
   -3.5006   -1.0606   -0.0112 H   0  0  0  0  0  0  0  0  0  0  0  0
   -5.0893    1.3576   -1.1026 H   0  0  0  0  0  0  0  0  0  0  0  0
   -3.3064    1.1849   -1.0696 H   0  0  0  0  0  0  0  0  0  0  0  0
   -4.1383    2.6879    0.7275 H   0  0  0  0  0  0  0  0  0  0  0  0
   -5.1902    1.3958    1.3686 H   0  0  0  0  0  0  0  0  0  0  0  0
   -3.2433    0.0413    2.0486 H   0  0  0  0  0  0  0  0  0  0  0  0
   -3.1144    1.6879    2.7252 H   0  0  0  0  0  0  0  0  0  0  0  0
   -1.7774    3.3844    1.0720 H   0  0  0  0  0  0  0  0  0  0  0  0
  1  2  1  0
  2  3  1  0
  3  4  1  0
  4  5  1  0
  5  6  1  0
  6  7  2  3
  7  8  1  0
  8  9  1  0
  9 10  2  3
 10 11  1  0
 11 12  1  0
 12 13  2  3
 13 14  1  0
 14 15  1  0
 15 16  1  0
 16 17  1  0
 17 18  1  0
 18 19  1  0
 19 20  1  0
 20 21  2  0
 20 22  1  0
  1 23  1  0
  1 24  1  0
  1 25  1  0
  2 26  1  0
  2 27  1  0
  3 28  1  0
  3 29  1  0
  4 30  1  0
  4 31  1  0
  5 32  1  0
  5 33  1  0
  6 34  1  0
  7 35  1  0
  8 36  1  0
  8 37  1  0
  9 38  1  0
 10 39  1  0
 11 40  1  0
 11 41  1  0
 12 42  1  0
 13 43  1  0
 14 44  1  0
 14 45  1  0
 15 46  1  0
 15 47  1  0
 16 48  1  0
 16 49  1  0
 17 50  1  0
 17 51  1  0
 18 52  1  0
 18 53  1  0
 19 54  1  0
 19 55  1  0
 22 56  1  0
M  END
> <ID>
HT0963

> <Class>
0.0

> <Clusters>
130

> <Fold>
1

$$$$