
     RDKit          3D

 49 52  0  0  0  0  0  0  0  0999 V2000
    2.4864    2.0438    2.2766 C   0  0  0  0  0  0  0  0  0  0  0  0
    1.9709    0.6350    1.9371 C   0  0  0  0  0  0  0  0  0  0  0  0
    2.0980    0.2153    0.4122 C   0  0  2  0  0  0  0  0  0  0  0  0
    1.5302    1.3233   -0.5131 C   0  0  0  0  0  0  0  0  0  0  0  0
    0.0129    1.5215   -0.2596 C   0  0  0  0  0  0  0  0  0  0  0  0
   -0.8165    0.2050   -0.4020 C   0  0  1  0  0  0  0  0  0  0  0  0
   -0.2039   -0.9811    0.4133 C   0  0  1  0  0  0  0  0  0  0  0  0
   -0.9444   -2.2785    0.0418 C   0  0  0  0  0  0  0  0  0  0  0  0
   -2.4191   -2.1792    0.4341 C   0  0  0  0  0  0  0  0  0  0  0  0
   -3.0625   -0.9362   -0.1354 C   0  0  0  0  0  0  0  0  0  0  0  0
   -4.3400   -1.0022   -0.5502 C   0  0  0  0  0  0  0  0  0  0  0  0
   -5.0879    0.2014   -0.9339 C   0  0  0  0  0  0  0  0  0  0  0  0
   -6.2617    0.0958   -1.3784 O   0  0  0  0  0  0  0  0  0  0  0  0
   -4.4880    1.5529   -0.7190 C   0  0  0  0  0  0  0  0  0  0  0  0
   -2.9741    1.4906   -0.9162 C   0  0  0  0  0  0  0  0  0  0  0  0
   -2.3180    0.3988   -0.0296 C   0  0  2  0  0  0  0  0  0  0  0  0
    1.2969   -1.0677    0.0751 C   0  0  2  0  0  0  0  0  0  0  0  0
    2.1536   -2.1524    0.6271 C   0  0  0  0  0  0  0  0  0  0  0  0
    3.4260   -1.7588    0.5789 C   0  0  0  0  0  0  0  0  0  0  0  0
    3.5546   -0.3164    0.1381 C   0  0  2  0  0  0  0  0  0  0  0  0
    4.5310    0.3495    0.8997 O   0  0  0  0  0  0  0  0  0  0  0  0
    3.9294   -0.2722   -1.2933 C   0  0  0  0  0  0  0  0  0  0  0  0
    4.2362   -0.2374   -2.4589 C   0  0  0  0  0  0  0  0  0  0  0  0
    1.7628    2.8148    1.9398 H   0  0  0  0  0  0  0  0  0  0  0  0
    2.5886    2.1415    3.3781 H   0  0  0  0  0  0  0  0  0  0  0  0
    3.4680    2.2654    1.8176 H   0  0  0  0  0  0  0  0  0  0  0  0
    0.9264    0.6205    2.2919 H   0  0  0  0  0  0  0  0  0  0  0  0
    2.5086   -0.0962    2.5791 H   0  0  0  0  0  0  0  0  0  0  0  0
    1.6634    1.0514   -1.5826 H   0  0  0  0  0  0  0  0  0  0  0  0
    2.0713    2.2809   -0.3658 H   0  0  0  0  0  0  0  0  0  0  0  0
   -0.1585    1.9671    0.7419 H   0  0  0  0  0  0  0  0  0  0  0  0
   -0.3386    2.2635   -1.0064 H   0  0  0  0  0  0  0  0  0  0  0  0
   -0.7751   -0.0711   -1.4816 H   0  0  0  0  0  0  0  0  0  0  0  0
   -0.3541   -0.8310    1.5002 H   0  0  0  0  0  0  0  0  0  0  0  0
   -0.8603   -2.4780   -1.0497 H   0  0  0  0  0  0  0  0  0  0  0  0
   -0.5012   -3.1412    0.5827 H   0  0  0  0  0  0  0  0  0  0  0  0
   -2.9397   -3.1007    0.0917 H   0  0  0  0  0  0  0  0  0  0  0  0
   -2.4994   -2.1400    1.5422 H   0  0  0  0  0  0  0  0  0  0  0  0
   -4.8566   -1.9545   -0.5799 H   0  0  0  0  0  0  0  0  0  0  0  0
   -4.7195    1.8923    0.3136 H   0  0  0  0  0  0  0  0  0  0  0  0
   -4.9235    2.2813   -1.4370 H   0  0  0  0  0  0  0  0  0  0  0  0
   -2.7577    1.2896   -1.9892 H   0  0  0  0  0  0  0  0  0  0  0  0
   -2.5632    2.4896   -0.6593 H   0  0  0  0  0  0  0  0  0  0  0  0
   -2.3798    0.7314    1.0305 H   0  0  0  0  0  0  0  0  0  0  0  0
    1.3357   -1.2324   -1.0305 H   0  0  0  0  0  0  0  0  0  0  0  0
    1.8344   -3.1521    0.8993 H   0  0  0  0  0  0  0  0  0  0  0  0
    4.2608   -2.4035    0.8351 H   0  0  0  0  0  0  0  0  0  0  0  0
    5.3927   -0.1323    0.7832 H   0  0  0  0  0  0  0  0  0  0  0  0
    4.5045   -0.2067   -3.4819 H   0  0  0  0  0  0  0  0  0  0  0  0
  1  2  1  0
  3  2  1  1
  3  4  1  0
  4  5  1  0
  6  5  1  0
  6  7  1  0
  7  8  1  0
  8  9  1  0
  9 10  1  0
 10 11  2  0
 11 12  1  0
 12 13  2  0
 12 14  1  0
 14 15  1  0
 16 15  1  0
 16  6  1  0
 16 10  1  0
  7 17  1  0
 17  3  1  0
 17 18  1  0
 18 19  2  0
 19 20  1  0
 20  3  1  0
 20 21  1  0
 20 22  1  6
 22 23  3  0
  1 24  1  0
  1 25  1  0
  1 26  1  0
  2 27  1  0
  2 28  1  0
  4 29  1  0
  4 30  1  0
  5 31  1  0
  5 32  1  0
  6 33  1  6
  7 34  1  1
  8 35  1  0
  8 36  1  0
  9 37  1  0
  9 38  1  0
 11 39  1  0
 14 40  1  0
 14 41  1  0
 15 42  1  0
 15 43  1  0
 16 44  1  1
 17 45  1  6
 18 46  1  0
 19 47  1  0
 21 48  1  0
 23 49  1  0
M  END
> <ID>
HT0974

> <Class>
0.0

> <Clusters>
183

> <Fold>
1

$$$$