
     RDKit          3D

 62 66  0  0  0  0  0  0  0  0999 V2000
   -4.8002    0.2531   -2.2126 C   0  0  0  0  0  0  0  0  0  0  0  0
   -3.2671    0.3284   -2.1422 C   0  0  0  0  0  0  0  0  0  0  0  0
   -2.6857   -0.4260   -3.3381 C   0  0  0  0  0  0  0  0  0  0  0  0
   -2.8575    1.6782   -2.1991 O   0  0  0  0  0  0  0  0  0  0  0  0
   -2.2262    1.9544   -0.9876 C   0  0  2  0  0  0  0  0  0  0  0  0
   -0.7005    2.0832   -1.1883 C   0  0  0  0  0  0  0  0  0  0  0  0
   -0.1360    0.8104   -0.5773 C   0  0  1  0  0  0  0  0  0  0  0  0
    1.3616    0.7412   -0.1993 C   0  0  2  0  0  0  0  0  0  0  0  0
    2.2504    1.1773   -1.3882 C   0  0  0  0  0  0  0  0  0  0  0  0
    3.7370    1.0436   -1.0559 C   0  0  2  0  0  0  0  0  0  0  0  0
    4.4808    1.4187   -2.1675 F   0  0  0  0  0  0  0  0  0  0  0  0
    4.0239   -0.3738   -0.6173 C   0  0  0  0  0  0  0  0  0  0  0  0
    4.8830   -1.1347   -1.3133 C   0  0  0  0  0  0  0  0  0  0  0  0
    5.0856   -2.5419   -0.9780 C   0  0  0  0  0  0  0  0  0  0  0  0
    5.8693   -3.2508   -1.6665 O   0  0  0  0  0  0  0  0  0  0  0  0
    4.3738   -3.1264    0.1542 C   0  0  0  0  0  0  0  0  0  0  0  0
    3.5118   -2.3975    0.8599 C   0  0  0  0  0  0  0  0  0  0  0  0
    3.2275   -0.9177    0.5854 C   0  0  1  0  0  0  0  0  0  0  0  0
    3.6910   -0.1381    1.8423 C   0  0  0  0  0  0  0  0  0  0  0  0
    1.6902   -0.7340    0.2443 C   0  0  2  0  0  0  0  0  0  0  0  0
    1.4531   -1.5559   -0.8534 F   0  0  0  0  0  0  0  0  0  0  0  0
    0.6968   -1.2318    1.3637 C   0  0  1  0  0  0  0  0  0  0  0  0
    0.9931   -0.6573    2.6057 O   0  0  0  0  0  0  0  0  0  0  0  0
   -0.7985   -0.9824    1.0117 C   0  0  0  0  0  0  0  0  0  0  0  0
   -1.0752    0.4860    0.5906 C   0  0  1  0  0  0  0  0  0  0  0  0
   -0.9095    1.4504    1.8191 C   0  0  0  0  0  0  0  0  0  0  0  0
   -2.4675    0.7480   -0.0759 C   0  0  2  0  0  0  0  0  0  0  0  0
   -2.8167   -0.2855   -0.9552 O   0  0  0  0  0  0  0  0  0  0  0  0
   -3.6136    0.9380    0.9214 C   0  0  0  0  0  0  0  0  0  0  0  0
   -4.0594    2.0493    1.1564 O   0  0  0  0  0  0  0  0  0  0  0  0
   -4.2632   -0.2451    1.5860 C   0  0  0  0  0  0  0  0  0  0  0  0
   -4.1806   -0.1148    2.9876 O   0  0  0  0  0  0  0  0  0  0  0  0
   -5.2541    0.8119   -1.3687 H   0  0  0  0  0  0  0  0  0  0  0  0
   -5.1755    0.6951   -3.1546 H   0  0  0  0  0  0  0  0  0  0  0  0
   -5.1411   -0.8083   -2.1712 H   0  0  0  0  0  0  0  0  0  0  0  0
   -2.9697   -1.4959   -3.2913 H   0  0  0  0  0  0  0  0  0  0  0  0
   -1.5804   -0.3688   -3.3462 H   0  0  0  0  0  0  0  0  0  0  0  0
   -3.0612    0.0145   -4.2861 H   0  0  0  0  0  0  0  0  0  0  0  0
   -2.6235    2.9071   -0.5727 H   0  0  0  0  0  0  0  0  0  0  0  0
   -0.3017    2.9716   -0.6536 H   0  0  0  0  0  0  0  0  0  0  0  0
   -0.4263    2.1558   -2.2645 H   0  0  0  0  0  0  0  0  0  0  0  0
   -0.2903    0.0327   -1.3630 H   0  0  0  0  0  0  0  0  0  0  0  0
    1.5583    1.4514    0.6229 H   0  0  0  0  0  0  0  0  0  0  0  0
    2.0521    2.2407   -1.6572 H   0  0  0  0  0  0  0  0  0  0  0  0
    2.0148    0.5559   -2.2828 H   0  0  0  0  0  0  0  0  0  0  0  0
    4.0012    1.7461   -0.2364 H   0  0  0  0  0  0  0  0  0  0  0  0
    5.4250   -0.7406   -2.1603 H   0  0  0  0  0  0  0  0  0  0  0  0
    4.5606   -4.1599    0.4198 H   0  0  0  0  0  0  0  0  0  0  0  0
    3.0296   -2.8751    1.6983 H   0  0  0  0  0  0  0  0  0  0  0  0
    3.3553   -0.6294    2.7792 H   0  0  0  0  0  0  0  0  0  0  0  0
    3.3183    0.9006    1.8489 H   0  0  0  0  0  0  0  0  0  0  0  0
    4.8003   -0.0915    1.8953 H   0  0  0  0  0  0  0  0  0  0  0  0
    0.8090   -2.3331    1.4501 H   0  0  0  0  0  0  0  0  0  0  0  0
    0.5777   -1.2307    3.2980 H   0  0  0  0  0  0  0  0  0  0  0  0
   -1.4271   -1.2585    1.8820 H   0  0  0  0  0  0  0  0  0  0  0  0
   -1.0781   -1.6785    0.1883 H   0  0  0  0  0  0  0  0  0  0  0  0
    0.1133    1.5130    2.2172 H   0  0  0  0  0  0  0  0  0  0  0  0
   -1.2019    2.4889    1.5723 H   0  0  0  0  0  0  0  0  0  0  0  0
   -1.5624    1.1094    2.6472 H   0  0  0  0  0  0  0  0  0  0  0  0
   -3.7696   -1.1942    1.2777 H   0  0  0  0  0  0  0  0  0  0  0  0
   -5.3346   -0.3167    1.2560 H   0  0  0  0  0  0  0  0  0  0  0  0
   -4.8897    0.5401    3.2636 H   0  0  0  0  0  0  0  0  0  0  0  0
  1  2  1  0
  2  3  1  0
  2  4  1  0
  4  5  1  0
  5  6  1  0
  7  6  1  0
  7  8  1  0
  8  9  1  0
  9 10  1  0
 10 11  1  0
 10 12  1  0
 12 13  2  0
 13 14  1  0
 14 15  2  0
 14 16  1  0
 16 17  2  0
 17 18  1  0
 18 12  1  0
 18 19  1  1
 18 20  1  0
 20  8  1  0
 20 21  1  6
 20 22  1  0
 22 23  1  0
 22 24  1  0
 24 25  1  0
 25  7  1  0
 25 26  1  1
 25 27  1  0
 27  5  1  0
 27 28  1  0
 28  2  1  0
 27 29  1  1
 29 30  2  0
 29 31  1  0
 31 32  1  0
  1 33  1  0
  1 34  1  0
  1 35  1  0
  3 36  1  0
  3 37  1  0
  3 38  1  0
  5 39  1  1
  6 40  1  0
  6 41  1  0
  7 42  1  6
  8 43  1  1
  9 44  1  0
  9 45  1  0
 10 46  1  1
 13 47  1  0
 16 48  1  0
 17 49  1  0
 19 50  1  0
 19 51  1  0
 19 52  1  0
 22 53  1  1
 23 54  1  0
 24 55  1  0
 24 56  1  0
 26 57  1  0
 26 58  1  0
 26 59  1  0
 31 60  1  0
 31 61  1  0
 32 62  1  0
M  END
> <ID>
HT0904

> <Class>
0.0

> <Clusters>
234

> <Fold>
1

$$$$