
     RDKit          3D

 63 67  0  0  0  0  0  0  0  0999 V2000
   -3.3311    0.1404    2.9383 C   0  0  0  0  0  0  0  0  0  0  0  0
   -3.8052   -0.3266    1.5587 C   0  0  0  0  0  0  0  0  0  0  0  0
   -5.3204   -0.1156    1.4385 C   0  0  0  0  0  0  0  0  0  0  0  0
   -3.5183   -1.7008    1.4206 O   0  0  0  0  0  0  0  0  0  0  0  0
   -2.7805   -1.8378    0.2428 C   0  0  2  0  0  0  0  0  0  0  0  0
   -1.3178   -2.2073    0.5735 C   0  0  0  0  0  0  0  0  0  0  0  0
   -0.5542   -0.9109    0.3499 C   0  0  1  0  0  0  0  0  0  0  0  0
    0.9860   -0.9491    0.2101 C   0  0  2  0  0  0  0  0  0  0  0  0
    1.6167   -1.6495    1.4321 C   0  0  0  0  0  0  0  0  0  0  0  0
    3.1393   -1.6636    1.3364 C   0  0  0  0  0  0  0  0  0  0  0  0
    3.6842   -0.2690    1.1355 C   0  0  0  0  0  0  0  0  0  0  0  0
    4.7633    0.1140    1.8430 C   0  0  0  0  0  0  0  0  0  0  0  0
    5.4649    1.3742    1.5677 C   0  0  0  0  0  0  0  0  0  0  0  0
    6.4428    1.7150    2.2847 O   0  0  0  0  0  0  0  0  0  0  0  0
    5.0738    2.2119    0.3945 C   0  0  0  0  0  0  0  0  0  0  0  0
    3.5727    2.0754    0.1337 C   0  0  0  0  0  0  0  0  0  0  0  0
    3.1042    0.5857   -0.0025 C   0  0  1  0  0  0  0  0  0  0  0  0
    3.6633    0.0104   -1.3339 C   0  0  0  0  0  0  0  0  0  0  0  0
    1.5175    0.5271    0.0987 C   0  0  2  0  0  0  0  0  0  0  0  0
    1.1794    1.1518    1.2967 F   0  0  0  0  0  0  0  0  0  0  0  0
    0.7643    1.3413   -1.0178 C   0  0  1  0  0  0  0  0  0  0  0  0
    1.1886    0.9714   -2.3023 O   0  0  0  0  0  0  0  0  0  0  0  0
   -0.7850    1.2208   -0.9179 C   0  0  0  0  0  0  0  0  0  0  0  0
   -1.2650   -0.2532   -0.8390 C   0  0  1  0  0  0  0  0  0  0  0  0
   -0.9946   -0.9865   -2.1975 C   0  0  0  0  0  0  0  0  0  0  0  0
   -2.7621   -0.4616   -0.4362 C   0  0  2  0  0  0  0  0  0  0  0  0
   -3.1446    0.4354    0.5696 O   0  0  0  0  0  0  0  0  0  0  0  0
   -3.7401   -0.3187   -1.6046 C   0  0  0  0  0  0  0  0  0  0  0  0
   -4.2454   -1.3068   -2.1178 O   0  0  0  0  0  0  0  0  0  0  0  0
   -4.0905    1.0356   -2.1555 C   0  0  0  0  0  0  0  0  0  0  0  0
   -5.8482    1.3043   -2.0531 Cl  0  0  0  0  0  0  0  0  0  0  0  0
   -3.5308    1.2256    3.0697 H   0  0  0  0  0  0  0  0  0  0  0  0
   -2.2410   -0.0323    3.0507 H   0  0  0  0  0  0  0  0  0  0  0  0
   -3.8546   -0.4225    3.7407 H   0  0  0  0  0  0  0  0  0  0  0  0
   -5.8542   -0.6554    2.2498 H   0  0  0  0  0  0  0  0  0  0  0  0
   -5.5670    0.9660    1.5003 H   0  0  0  0  0  0  0  0  0  0  0  0
   -5.6871   -0.5068    0.4669 H   0  0  0  0  0  0  0  0  0  0  0  0
   -3.2287   -2.6413   -0.3796 H   0  0  0  0  0  0  0  0  0  0  0  0
   -0.9488   -2.9987   -0.1147 H   0  0  0  0  0  0  0  0  0  0  0  0
   -1.2109   -2.5639    1.6217 H   0  0  0  0  0  0  0  0  0  0  0  0
   -0.7588   -0.2979    1.2582 H   0  0  0  0  0  0  0  0  0  0  0  0
    1.2611   -1.5427   -0.6808 H   0  0  0  0  0  0  0  0  0  0  0  0
    1.3113   -1.1444    2.3752 H   0  0  0  0  0  0  0  0  0  0  0  0
    1.2656   -2.7027    1.4843 H   0  0  0  0  0  0  0  0  0  0  0  0
    3.5482   -2.1374    2.2561 H   0  0  0  0  0  0  0  0  0  0  0  0
    3.4451   -2.2964    0.4756 H   0  0  0  0  0  0  0  0  0  0  0  0
    5.1637   -0.5289    2.6182 H   0  0  0  0  0  0  0  0  0  0  0  0
    5.3143    3.2784    0.5961 H   0  0  0  0  0  0  0  0  0  0  0  0
    5.6531    1.8910   -0.4968 H   0  0  0  0  0  0  0  0  0  0  0  0
    3.3257    2.6490   -0.7855 H   0  0  0  0  0  0  0  0  0  0  0  0
    3.0466    2.5755    0.9757 H   0  0  0  0  0  0  0  0  0  0  0  0
    3.5776    0.7361   -2.1681 H   0  0  0  0  0  0  0  0  0  0  0  0
    3.1598   -0.9297   -1.6304 H   0  0  0  0  0  0  0  0  0  0  0  0
    4.7462   -0.2202   -1.2366 H   0  0  0  0  0  0  0  0  0  0  0  0
    1.0042    2.4189   -0.8640 H   0  0  0  0  0  0  0  0  0  0  0  0
    0.9352    1.7081   -2.9179 H   0  0  0  0  0  0  0  0  0  0  0  0
   -1.1161    1.7784   -0.0149 H   0  0  0  0  0  0  0  0  0  0  0  0
   -1.2466    1.7265   -1.7921 H   0  0  0  0  0  0  0  0  0  0  0  0
   -1.4233   -0.4024   -3.0394 H   0  0  0  0  0  0  0  0  0  0  0  0
   -1.4620   -1.9930   -2.2207 H   0  0  0  0  0  0  0  0  0  0  0  0
    0.0742   -1.1354   -2.4245 H   0  0  0  0  0  0  0  0  0  0  0  0
   -3.5870    1.8433   -1.5868 H   0  0  0  0  0  0  0  0  0  0  0  0
   -3.7728    1.0971   -3.2173 H   0  0  0  0  0  0  0  0  0  0  0  0
  1  2  1  0
  2  3  1  0
  2  4  1  0
  4  5  1  0
  5  6  1  0
  7  6  1  0
  7  8  1  0
  8  9  1  0
  9 10  1  0
 10 11  1  0
 11 12  2  0
 12 13  1  0
 13 14  2  0
 13 15  1  0
 15 16  1  0
 16 17  1  0
 17 11  1  0
 17 18  1  6
 17 19  1  0
 19  8  1  0
 19 20  1  1
 19 21  1  0
 21 22  1  0
 21 23  1  0
 23 24  1  0
 24  7  1  0
 24 25  1  6
 24 26  1  0
 26  5  1  0
 26 27  1  0
 27  2  1  0
 26 28  1  6
 28 29  2  0
 28 30  1  0
 30 31  1  0
  1 32  1  0
  1 33  1  0
  1 34  1  0
  3 35  1  0
  3 36  1  0
  3 37  1  0
  5 38  1  6
  6 39  1  0
  6 40  1  0
  7 41  1  1
  8 42  1  6
  9 43  1  0
  9 44  1  0
 10 45  1  0
 10 46  1  0
 12 47  1  0
 15 48  1  0
 15 49  1  0
 16 50  1  0
 16 51  1  0
 18 52  1  0
 18 53  1  0
 18 54  1  0
 21 55  1  1
 22 56  1  0
 23 57  1  0
 23 58  1  0
 25 59  1  0
 25 60  1  0
 25 61  1  0
 30 62  1  0
 30 63  1  0
M  END
> <ID>
HT1014

> <Class>
0.0

> <Clusters>
234

> <Fold>
1

$$$$