
     RDKit          3D

 67 71  0  0  0  0  0  0  0  0999 V2000
    6.2482   -3.1775   -3.2486 C   0  0  0  0  0  0  0  0  0  0  0  0
    5.2925   -2.9504   -2.1273 C   0  0  0  0  0  0  0  0  0  0  0  0
    5.1170   -3.8545   -1.2658 O   0  0  0  0  0  0  0  0  0  0  0  0
    4.6010   -1.7388   -2.0424 O   0  0  0  0  0  0  0  0  0  0  0  0
    3.6733   -1.4555   -0.9982 C   0  0  0  0  0  0  0  0  0  0  0  0
    3.0847   -0.0785   -1.1711 C   0  0  0  0  0  0  0  0  0  0  0  0
    3.4392    0.6074   -2.1201 O   0  0  0  0  0  0  0  0  0  0  0  0
    2.0250    0.4432   -0.1969 C   0  0  1  0  0  0  0  0  0  0  0  0
    2.2968   -0.0693    1.0792 O   0  0  0  0  0  0  0  0  0  0  0  0
    2.8992    0.9758    1.8150 C   0  0  0  0  0  0  0  0  0  0  0  0
    4.4117    0.7329    1.9086 C   0  0  0  0  0  0  0  0  0  0  0  0
    2.2975    0.9972    3.2235 C   0  0  0  0  0  0  0  0  0  0  0  0
    2.6717    2.2263    1.2044 O   0  0  0  0  0  0  0  0  0  0  0  0
    2.0463    1.9665   -0.0168 C   0  0  2  0  0  0  0  0  0  0  0  0
    0.5782    2.4441    0.0303 C   0  0  0  0  0  0  0  0  0  0  0  0
   -0.2169    1.1586    0.2024 C   0  0  1  0  0  0  0  0  0  0  0  0
   -1.7393    1.1585   -0.0677 C   0  0  2  0  0  0  0  0  0  0  0  0
   -2.4320    2.2691    0.7526 C   0  0  0  0  0  0  0  0  0  0  0  0
   -3.9471    2.2505    0.5534 C   0  0  2  0  0  0  0  0  0  0  0  0
   -4.5133    3.2432    1.3385 F   0  0  0  0  0  0  0  0  0  0  0  0
   -4.4875    0.8740    0.8833 C   0  0  0  0  0  0  0  0  0  0  0  0
   -5.4420    0.7233    1.8194 C   0  0  0  0  0  0  0  0  0  0  0  0
   -5.9294   -0.6034    2.1938 C   0  0  0  0  0  0  0  0  0  0  0  0
   -6.8357   -0.7243    3.0594 O   0  0  0  0  0  0  0  0  0  0  0  0
   -5.3509   -1.7876    1.5680 C   0  0  0  0  0  0  0  0  0  0  0  0
   -4.4058   -1.6680    0.6364 C   0  0  0  0  0  0  0  0  0  0  0  0
   -3.8878   -0.3234    0.1203 C   0  0  1  0  0  0  0  0  0  0  0  0
   -4.3557   -0.2149   -1.3538 C   0  0  0  0  0  0  0  0  0  0  0  0
   -2.3151   -0.2593    0.3101 C   0  0  2  0  0  0  0  0  0  0  0  0
   -2.0943   -0.4368    1.6736 F   0  0  0  0  0  0  0  0  0  0  0  0
   -1.5138   -1.4182   -0.3935 C   0  0  1  0  0  0  0  0  0  0  0  0
   -1.8432   -1.5207   -1.7526 O   0  0  0  0  0  0  0  0  0  0  0  0
    0.0293   -1.2816   -0.2277 C   0  0  0  0  0  0  0  0  0  0  0  0
    0.5538    0.1238   -0.6258 C   0  0  2  0  0  0  0  0  0  0  0  0
    0.4034    0.3403   -2.1704 C   0  0  0  0  0  0  0  0  0  0  0  0
    7.2641   -3.3629   -2.8415 H   0  0  0  0  0  0  0  0  0  0  0  0
    6.2813   -2.2868   -3.9106 H   0  0  0  0  0  0  0  0  0  0  0  0
    5.9242   -4.0573   -3.8428 H   0  0  0  0  0  0  0  0  0  0  0  0
    2.8589   -2.2080   -1.0190 H   0  0  0  0  0  0  0  0  0  0  0  0
    4.1942   -1.5163   -0.0197 H   0  0  0  0  0  0  0  0  0  0  0  0
    4.6172   -0.2648    2.3525 H   0  0  0  0  0  0  0  0  0  0  0  0
    4.8929    1.5133    2.5362 H   0  0  0  0  0  0  0  0  0  0  0  0
    4.8713    0.7735    0.8989 H   0  0  0  0  0  0  0  0  0  0  0  0
    2.7742    1.7907    3.8383 H   0  0  0  0  0  0  0  0  0  0  0  0
    1.2091    1.2058    3.1761 H   0  0  0  0  0  0  0  0  0  0  0  0
    2.4462    0.0158    3.7231 H   0  0  0  0  0  0  0  0  0  0  0  0
    2.5857    2.5048   -0.8255 H   0  0  0  0  0  0  0  0  0  0  0  0
    0.2998    2.9501   -0.9195 H   0  0  0  0  0  0  0  0  0  0  0  0
    0.4012    3.1451    0.8756 H   0  0  0  0  0  0  0  0  0  0  0  0
   -0.1047    0.8955    1.2796 H   0  0  0  0  0  0  0  0  0  0  0  0
   -1.9237    1.3889   -1.1327 H   0  0  0  0  0  0  0  0  0  0  0  0
   -2.2008    2.1516    1.8347 H   0  0  0  0  0  0  0  0  0  0  0  0
   -2.0529    3.2632    0.4310 H   0  0  0  0  0  0  0  0  0  0  0  0
   -4.1809    2.4907   -0.5053 H   0  0  0  0  0  0  0  0  0  0  0  0
   -5.8604    1.5781    2.3353 H   0  0  0  0  0  0  0  0  0  0  0  0
   -5.6979   -2.7716    1.8586 H   0  0  0  0  0  0  0  0  0  0  0  0
   -4.0447   -2.5789    0.1763 H   0  0  0  0  0  0  0  0  0  0  0  0
   -3.8425    0.5957   -1.9056 H   0  0  0  0  0  0  0  0  0  0  0  0
   -4.2077   -1.1631   -1.9105 H   0  0  0  0  0  0  0  0  0  0  0  0
   -5.4474   -0.0062   -1.3910 H   0  0  0  0  0  0  0  0  0  0  0  0
   -1.7905   -2.3728    0.1097 H   0  0  0  0  0  0  0  0  0  0  0  0
   -1.5676   -2.4260   -2.0533 H   0  0  0  0  0  0  0  0  0  0  0  0
    0.5343   -2.0630   -0.8333 H   0  0  0  0  0  0  0  0  0  0  0  0
    0.2779   -1.4941    0.8349 H   0  0  0  0  0  0  0  0  0  0  0  0
    0.8788    1.2872   -2.5000 H   0  0  0  0  0  0  0  0  0  0  0  0
   -0.6406    0.3813   -2.5221 H   0  0  0  0  0  0  0  0  0  0  0  0
    0.8920   -0.4911   -2.7217 H   0  0  0  0  0  0  0  0  0  0  0  0
  1  2  1  0
  2  3  2  0
  2  4  1  0
  4  5  1  0
  5  6  1  0
  6  7  2  0
  8  6  1  6
  8  9  1  0
  9 10  1  0
 10 11  1  0
 10 12  1  0
 10 13  1  0
 13 14  1  0
 14  8  1  0
 14 15  1  0
 16 15  1  0
 16 17  1  0
 17 18  1  0
 18 19  1  0
 19 20  1  0
 19 21  1  0
 21 22  2  0
 22 23  1  0
 23 24  2  0
 23 25  1  0
 25 26  2  0
 26 27  1  0
 27 21  1  0
 27 28  1  6
 27 29  1  0
 29 17  1  0
 29 30  1  1
 29 31  1  0
 31 32  1  0
 31 33  1  0
 33 34  1  0
 34  8  1  0
 34 16  1  0
 34 35  1  6
  1 36  1  0
  1 37  1  0
  1 38  1  0
  5 39  1  0
  5 40  1  0
 11 41  1  0
 11 42  1  0
 11 43  1  0
 12 44  1  0
 12 45  1  0
 12 46  1  0
 14 47  1  6
 15 48  1  0
 15 49  1  0
 16 50  1  1
 17 51  1  6
 18 52  1  0
 18 53  1  0
 19 54  1  6
 22 55  1  0
 25 56  1  0
 26 57  1  0
 28 58  1  0
 28 59  1  0
 28 60  1  0
 31 61  1  1
 32 62  1  0
 33 63  1  0
 33 64  1  0
 35 65  1  0
 35 66  1  0
 35 67  1  0
M  END
> <ID>
HT0905

> <Class>
0.0

> <Clusters>
234

> <Fold>
1

$$$$