
     RDKit          3D

 36 38  0  0  0  0  0  0  0  0999 V2000
    6.0191    0.8857    1.0646 C   0  0  0  0  0  0  0  0  0  0  0  0
    5.3275   -0.3351    0.8221 O   0  0  0  0  0  0  0  0  0  0  0  0
    3.9494   -0.4329    0.5719 C   0  0  0  0  0  0  0  0  0  0  0  0
    3.1154    0.7012    0.5395 C   0  0  0  0  0  0  0  0  0  0  0  0
    1.7478    0.5671    0.2896 C   0  0  0  0  0  0  0  0  0  0  0  0
    1.1840   -0.7010    0.0784 C   0  0  0  0  0  0  0  0  0  0  0  0
    2.0168   -1.8304    0.0953 C   0  0  0  0  0  0  0  0  0  0  0  0
    3.3878   -1.7028    0.3445 C   0  0  0  0  0  0  0  0  0  0  0  0
    4.1779   -2.8522    0.3602 O   0  0  0  0  0  0  0  0  0  0  0  0
   -0.2876   -0.8465   -0.2236 C   0  0  0  0  0  0  0  0  0  0  0  0
   -0.5788   -0.4986   -1.6917 C   0  0  0  0  0  0  0  0  0  0  0  0
   -2.0624   -0.5050   -1.9218 C   0  0  0  0  0  0  0  0  0  0  0  0
   -2.5270   -0.9896   -2.9884 O   0  0  0  0  0  0  0  0  0  0  0  0
   -2.9530    0.0515   -0.8771 C   0  0  0  0  0  0  0  0  0  0  0  0
   -4.3113    0.3508   -1.1115 C   0  0  0  0  0  0  0  0  0  0  0  0
   -4.8879    0.1072   -2.3579 O   0  0  0  0  0  0  0  0  0  0  0  0
   -5.0861    0.9095   -0.0839 C   0  0  0  0  0  0  0  0  0  0  0  0
   -4.5179    1.1785    1.1681 C   0  0  0  0  0  0  0  0  0  0  0  0
   -5.2818    1.7416    2.1880 O   0  0  0  0  0  0  0  0  0  0  0  0
   -3.1731    0.8793    1.4001 C   0  0  0  0  0  0  0  0  0  0  0  0
   -2.3948    0.3060    0.3910 C   0  0  0  0  0  0  0  0  0  0  0  0
   -1.0535   -0.0080    0.6480 O   0  0  0  0  0  0  0  0  0  0  0  0
    5.6124    1.3815    1.9713 H   0  0  0  0  0  0  0  0  0  0  0  0
    7.0936    0.6666    1.2313 H   0  0  0  0  0  0  0  0  0  0  0  0
    5.9255    1.5585    0.1860 H   0  0  0  0  0  0  0  0  0  0  0  0
    3.5145    1.6927    0.7031 H   0  0  0  0  0  0  0  0  0  0  0  0
    1.1275    1.4545    0.2587 H   0  0  0  0  0  0  0  0  0  0  0  0
    1.6026   -2.8148   -0.0862 H   0  0  0  0  0  0  0  0  0  0  0  0
    5.1752   -2.8197    0.5341 H   0  0  0  0  0  0  0  0  0  0  0  0
   -0.6043   -1.8992   -0.0457 H   0  0  0  0  0  0  0  0  0  0  0  0
   -0.1944    0.5186   -1.9223 H   0  0  0  0  0  0  0  0  0  0  0  0
   -0.0792   -1.2290   -2.3653 H   0  0  0  0  0  0  0  0  0  0  0  0
   -5.8611    0.3196   -2.5445 H   0  0  0  0  0  0  0  0  0  0  0  0
   -6.1286    1.1422   -0.2612 H   0  0  0  0  0  0  0  0  0  0  0  0
   -6.2597    1.9702    2.0529 H   0  0  0  0  0  0  0  0  0  0  0  0
   -2.7346    1.0818    2.3692 H   0  0  0  0  0  0  0  0  0  0  0  0
  1  2  1  0
  2  3  1  0
  3  4  2  0
  4  5  1  0
  5  6  2  0
  6  7  1  0
  7  8  2  0
  8  3  1  0
  8  9  1  0
  6 10  1  0
 10 11  1  0
 11 12  1  0
 12 13  2  0
 12 14  1  0
 14 15  2  0
 15 16  1  0
 15 17  1  0
 17 18  2  0
 18 19  1  0
 18 20  1  0
 20 21  2  0
 21 14  1  0
 21 22  1  0
 22 10  1  0
  1 23  1  0
  1 24  1  0
  1 25  1  0
  4 26  1  0
  5 27  1  0
  7 28  1  0
  9 29  1  0
 10 30  1  0
 11 31  1  0
 11 32  1  0
 16 33  1  0
 17 34  1  0
 19 35  1  0
 20 36  1  0
M  END
> <ID>
HT1026

> <Class>
0.0

> <Clusters>
68

> <Fold>
1

$$$$