
     RDKit          3D

 37 40  0  0  0  0  0  0  0  0999 V2000
    0.5460   -0.5832   -2.3895 O   0  0  0  0  0  0  0  0  0  0  0  0
    1.6650   -1.2288   -1.8716 C   0  0  0  0  0  0  0  0  0  0  0  0
    2.2529   -2.0891   -2.5820 O   0  0  0  0  0  0  0  0  0  0  0  0
    2.1823   -0.9049   -0.5139 C   0  0  0  0  0  0  0  0  0  0  0  0
    3.4818   -1.3251   -0.1658 C   0  0  0  0  0  0  0  0  0  0  0  0
    4.0167   -1.0340    1.0906 C   0  0  0  0  0  0  0  0  0  0  0  0
    3.2658   -0.3224    2.0235 C   0  0  0  0  0  0  0  0  0  0  0  0
    1.9747    0.0973    1.7060 C   0  0  0  0  0  0  0  0  0  0  0  0
    1.4200   -0.1866    0.4474 C   0  0  0  0  0  0  0  0  0  0  0  0
    0.0256    0.2536    0.1928 C   0  0  0  0  0  0  0  0  0  0  0  0
   -0.2415    1.5786   -0.2017 C   0  0  0  0  0  0  0  0  0  0  0  0
    0.7543    2.5509   -0.3965 C   0  0  0  0  0  0  0  0  0  0  0  0
    0.4059    3.8452   -0.7959 C   0  0  0  0  0  0  0  0  0  0  0  0
   -0.9326    4.1996   -1.0128 C   0  0  0  0  0  0  0  0  0  0  0  0
   -1.2167    5.3731   -1.3717 O   0  0  0  0  0  0  0  0  0  0  0  0
   -1.9563    3.2623   -0.8363 C   0  0  0  0  0  0  0  0  0  0  0  0
   -1.6530    1.9599   -0.4395 C   0  0  0  0  0  0  0  0  0  0  0  0
   -2.6176    1.0682   -0.2786 O   0  0  0  0  0  0  0  0  0  0  0  0
   -2.3817   -0.1841    0.0959 C   0  0  0  0  0  0  0  0  0  0  0  0
   -3.4654   -1.0577    0.2407 C   0  0  0  0  0  0  0  0  0  0  0  0
   -3.2623   -2.3819    0.6354 C   0  0  0  0  0  0  0  0  0  0  0  0
   -4.3563   -3.2335    0.7724 O   0  0  0  0  0  0  0  0  0  0  0  0
   -1.9656   -2.8408    0.8900 C   0  0  0  0  0  0  0  0  0  0  0  0
   -0.8729   -1.9820    0.7503 C   0  0  0  0  0  0  0  0  0  0  0  0
   -1.0604   -0.6421    0.3489 C   0  0  0  0  0  0  0  0  0  0  0  0
    0.1981   -0.8035   -3.3149 H   0  0  0  0  0  0  0  0  0  0  0  0
    4.0942   -1.8733   -0.8709 H   0  0  0  0  0  0  0  0  0  0  0  0
    5.0181   -1.3604    1.3402 H   0  0  0  0  0  0  0  0  0  0  0  0
    3.6833   -0.0989    2.9967 H   0  0  0  0  0  0  0  0  0  0  0  0
    1.3997    0.6411    2.4459 H   0  0  0  0  0  0  0  0  0  0  0  0
    1.8012    2.3212   -0.2458 H   0  0  0  0  0  0  0  0  0  0  0  0
    1.1875    4.5813   -0.9396 H   0  0  0  0  0  0  0  0  0  0  0  0
   -2.9876    3.5458   -1.0096 H   0  0  0  0  0  0  0  0  0  0  0  0
   -4.4710   -0.7054    0.0459 H   0  0  0  0  0  0  0  0  0  0  0  0
   -4.2432   -4.1994    1.0571 H   0  0  0  0  0  0  0  0  0  0  0  0
   -1.8024   -3.8659    1.1976 H   0  0  0  0  0  0  0  0  0  0  0  0
    0.1133   -2.3755    0.9591 H   0  0  0  0  0  0  0  0  0  0  0  0
  1  2  1  0
  2  3  2  0
  2  4  1  0
  4  5  2  0
  5  6  1  0
  6  7  2  0
  7  8  1  0
  8  9  2  0
  9  4  1  0
  9 10  1  0
 10 11  2  0
 11 12  1  0
 12 13  2  0
 13 14  1  0
 14 15  2  0
 14 16  1  0
 16 17  2  0
 17 11  1  0
 17 18  1  0
 18 19  1  0
 19 20  2  0
 20 21  1  0
 21 22  1  0
 21 23  2  0
 23 24  1  0
 24 25  2  0
 25 10  1  0
 25 19  1  0
  1 26  1  0
  5 27  1  0
  6 28  1  0
  7 29  1  0
  8 30  1  0
 12 31  1  0
 13 32  1  0
 16 33  1  0
 20 34  1  0
 22 35  1  0
 23 36  1  0
 24 37  1  0
M  END
> <ID>
HT0907

> <Class>
0.0

> <Clusters>
193

> <Fold>
1

$$$$