
     RDKit          3D

 15 15  0  0  0  0  0  0  0  0999 V2000
   -2.0340   -0.1184    0.0401 N   0  0  0  0  0  0  0  0  0  0  0  0
   -0.6447    0.2350   -0.0049 C   0  0  0  0  0  0  0  0  0  0  0  0
   -0.2966    1.5860   -0.1465 C   0  0  0  0  0  0  0  0  0  0  0  0
    1.0459    1.9528   -0.2348 C   0  0  0  0  0  0  0  0  0  0  0  0
    2.0153    1.0046   -0.1823 N   0  0  0  0  0  0  0  0  0  0  0  0
    1.7176   -0.3129   -0.0376 C   0  0  0  0  0  0  0  0  0  0  0  0
    0.3834   -0.7358    0.0654 C   0  0  0  0  0  0  0  0  0  0  0  0
    0.1109   -2.1302    0.2612 N   0  0  0  0  0  0  0  0  0  0  0  0
   -2.7652    0.6271    0.0661 H   0  0  0  0  0  0  0  0  0  0  0  0
   -2.3690   -1.1016   -0.0374 H   0  0  0  0  0  0  0  0  0  0  0  0
   -1.0625    2.3496   -0.2006 H   0  0  0  0  0  0  0  0  0  0  0  0
    1.3176    2.9936   -0.3500 H   0  0  0  0  0  0  0  0  0  0  0  0
    2.5239   -1.0333    0.0091 H   0  0  0  0  0  0  0  0  0  0  0  0
    0.8886   -2.8268    0.2291 H   0  0  0  0  0  0  0  0  0  0  0  0
   -0.8310   -2.4897    0.5230 H   0  0  0  0  0  0  0  0  0  0  0  0
  1  2  1  0
  2  3  2  0
  3  4  1  0
  4  5  2  0
  5  6  1  0
  6  7  2  0
  7  2  1  0
  7  8  1  0
  1  9  1  0
  1 10  1  0
  3 11  1  0
  4 12  1  0
  6 13  1  0
  8 14  1  0
  8 15  1  0
M  END
> <ID>
HT0128

> <Class>
0.0

> <Clusters>
137

> <Fold>
1

$$$$