
     RDKit          3D

 64 68  0  0  0  0  0  0  0  0999 V2000
    5.3134    0.9366   -0.6972 C   0  0  0  0  0  0  0  0  0  0  0  0
    3.8328    0.8719   -1.0962 C   0  0  0  0  0  0  0  0  0  0  0  0
    3.4780    2.0950   -1.9473 C   0  0  0  0  0  0  0  0  0  0  0  0
    3.6105   -0.2930   -1.8605 O   0  0  0  0  0  0  0  0  0  0  0  0
    2.7299   -1.0884   -1.1247 C   0  0  2  0  0  0  0  0  0  0  0  0
    1.3324   -1.0870   -1.7811 C   0  0  0  0  0  0  0  0  0  0  0  0
    0.4916   -0.2075   -0.8661 C   0  0  1  0  0  0  0  0  0  0  0  0
   -1.0444   -0.3123   -0.9460 C   0  0  0  0  0  0  0  0  0  0  0  0
   -1.5302    0.0062   -2.3895 C   0  0  0  0  0  0  0  0  0  0  0  0
   -3.0686    0.0978   -2.5268 C   0  0  2  0  0  0  0  0  0  0  0  0
   -3.4384    1.3439   -3.0004 F   0  0  0  0  0  0  0  0  0  0  0  0
   -3.7394   -0.1772   -1.2000 C   0  0  0  0  0  0  0  0  0  0  0  0
   -4.4534   -1.3150   -1.0837 C   0  0  0  0  0  0  0  0  0  0  0  0
   -4.7134   -1.9294    0.2203 C   0  0  0  0  0  0  0  0  0  0  0  0
   -5.4558   -2.9432    0.3067 O   0  0  0  0  0  0  0  0  0  0  0  0
   -4.0119   -1.4033    1.4245 C   0  0  0  0  0  0  0  0  0  0  0  0
   -3.9746    0.1182    1.3349 C   0  0  0  0  0  0  0  0  0  0  0  0
   -3.2882    0.6545    0.0243 C   0  0  0  0  0  0  0  0  0  0  0  0
   -3.8202    2.1014   -0.1551 C   0  0  0  0  0  0  0  0  0  0  0  0
   -1.6886    0.7059    0.0606 C   0  0  1  0  0  0  0  0  0  0  0  0
   -1.0392    0.6787    1.4890 C   0  0  0  0  0  0  0  0  0  0  0  0
   -1.4429    1.8249    2.1955 O   0  0  0  0  0  0  0  0  0  0  0  0
    0.5134    0.6461    1.4608 C   0  0  0  0  0  0  0  0  0  0  0  0
    1.0499   -0.4704    0.5356 C   0  0  0  0  0  0  0  0  0  0  0  0
    0.6483   -1.8747    1.1002 C   0  0  0  0  0  0  0  0  0  0  0  0
    2.5854   -0.4361    0.2538 C   0  0  2  0  0  0  0  0  0  0  0  0
    3.0329    0.8793    0.0683 O   0  0  0  0  0  0  0  0  0  0  0  0
    3.4338   -1.0845    1.3500 C   0  0  0  0  0  0  0  0  0  0  0  0
    3.8741   -2.2164    1.2078 O   0  0  0  0  0  0  0  0  0  0  0  0
    3.7761   -0.3344    2.6103 C   0  0  0  0  0  0  0  0  0  0  0  0
    3.3926   -1.0735    3.7379 O   0  0  0  0  0  0  0  0  0  0  0  0
    5.5117    1.8487   -0.0949 H   0  0  0  0  0  0  0  0  0  0  0  0
    5.9588    0.9539   -1.6009 H   0  0  0  0  0  0  0  0  0  0  0  0
    5.5897    0.0484   -0.0926 H   0  0  0  0  0  0  0  0  0  0  0  0
    2.4165    2.0467   -2.2683 H   0  0  0  0  0  0  0  0  0  0  0  0
    4.1114    2.1298   -2.8595 H   0  0  0  0  0  0  0  0  0  0  0  0
    3.6256    3.0300   -1.3643 H   0  0  0  0  0  0  0  0  0  0  0  0
    3.1167   -2.1293   -1.0889 H   0  0  0  0  0  0  0  0  0  0  0  0
    1.3620   -0.6779   -2.8152 H   0  0  0  0  0  0  0  0  0  0  0  0
    0.9184   -2.1185   -1.8156 H   0  0  0  0  0  0  0  0  0  0  0  0
    0.7374    0.8437   -1.1477 H   0  0  0  0  0  0  0  0  0  0  0  0
   -1.3680   -1.3462   -0.7037 H   0  0  0  0  0  0  0  0  0  0  0  0
   -1.1595   -0.7870   -3.0738 H   0  0  0  0  0  0  0  0  0  0  0  0
   -1.0778    0.9626   -2.7335 H   0  0  0  0  0  0  0  0  0  0  0  0
   -3.3919   -0.6351   -3.2988 H   0  0  0  0  0  0  0  0  0  0  0  0
   -4.7394   -1.8767   -1.9650 H   0  0  0  0  0  0  0  0  0  0  0  0
   -2.9850   -1.8232    1.4661 H   0  0  0  0  0  0  0  0  0  0  0  0
   -4.5583   -1.7035    2.3463 H   0  0  0  0  0  0  0  0  0  0  0  0
   -5.0365    0.4554    1.3619 H   0  0  0  0  0  0  0  0  0  0  0  0
   -3.5348    0.5392    2.2583 H   0  0  0  0  0  0  0  0  0  0  0  0
   -3.3233    2.6352   -0.9898 H   0  0  0  0  0  0  0  0  0  0  0  0
   -4.9130    2.0982   -0.3602 H   0  0  0  0  0  0  0  0  0  0  0  0
   -3.6419    2.6988    0.7650 H   0  0  0  0  0  0  0  0  0  0  0  0
   -1.3755    1.6983   -0.3396 H   0  0  0  0  0  0  0  0  0  0  0  0
   -1.3849   -0.2245    2.0325 H   0  0  0  0  0  0  0  0  0  0  0  0
   -1.2713    1.6485    3.1574 H   0  0  0  0  0  0  0  0  0  0  0  0
    0.8819    1.6391    1.1214 H   0  0  0  0  0  0  0  0  0  0  0  0
    0.8896    0.4938    2.4942 H   0  0  0  0  0  0  0  0  0  0  0  0
    1.0768   -2.6989    0.4933 H   0  0  0  0  0  0  0  0  0  0  0  0
    1.0211   -1.9935    2.1381 H   0  0  0  0  0  0  0  0  0  0  0  0
   -0.4433   -2.0369    1.1440 H   0  0  0  0  0  0  0  0  0  0  0  0
    4.8761   -0.1837    2.6427 H   0  0  0  0  0  0  0  0  0  0  0  0
    3.3062    0.6741    2.6265 H   0  0  0  0  0  0  0  0  0  0  0  0
    2.4192   -0.9235    3.8584 H   0  0  0  0  0  0  0  0  0  0  0  0
  1  2  1  0
  2  3  1  0
  2  4  1  0
  4  5  1  0
  5  6  1  0
  7  6  1  0
  7  8  1  0
  8  9  1  0
  9 10  1  0
 10 11  1  0
 10 12  1  0
 12 13  2  0
 13 14  1  0
 14 15  2  0
 14 16  1  0
 16 17  1  0
 17 18  1  0
 18 12  1  0
 18 19  1  0
 18 20  1  0
 20  8  1  0
 20 21  1  0
 21 22  1  0
 21 23  1  0
 23 24  1  0
 24  7  1  0
 24 25  1  0
 24 26  1  0
 26  5  1  0
 26 27  1  0
 27  2  1  0
 26 28  1  1
 28 29  2  0
 28 30  1  0
 30 31  1  0
  1 32  1  0
  1 33  1  0
  1 34  1  0
  3 35  1  0
  3 36  1  0
  3 37  1  0
  5 38  1  1
  6 39  1  0
  6 40  1  0
  7 41  1  6
  8 42  1  0
  9 43  1  0
  9 44  1  0
 10 45  1  6
 13 46  1  0
 16 47  1  0
 16 48  1  0
 17 49  1  0
 17 50  1  0
 19 51  1  0
 19 52  1  0
 19 53  1  0
 20 54  1  6
 21 55  1  0
 22 56  1  0
 23 57  1  0
 23 58  1  0
 25 59  1  0
 25 60  1  0
 25 61  1  0
 30 62  1  0
 30 63  1  0
 31 64  1  0
M  END
> <ID>
HT0918

> <Class>
0.0

> <Clusters>
234

> <Fold>
1

$$$$