
     RDKit          3D

 70 73  0  0  0  0  0  0  0  0999 V2000
   -9.9936   -0.2101    2.7631 C   0  0  0  0  0  0  0  0  0  0  0  0
   -8.6107   -0.5182    2.6213 O   0  0  0  0  0  0  0  0  0  0  0  0
   -7.7874   -0.0244    1.5974 C   0  0  0  0  0  0  0  0  0  0  0  0
   -8.2591    0.8494    0.6092 C   0  0  0  0  0  0  0  0  0  0  0  0
   -7.4008    1.3120   -0.3885 C   0  0  0  0  0  0  0  0  0  0  0  0
   -6.0442    0.9181   -0.4314 C   0  0  0  0  0  0  0  0  0  0  0  0
   -5.5730    0.0339    0.5652 C   0  0  0  0  0  0  0  0  0  0  0  0
   -6.4501   -0.4245    1.5673 C   0  0  0  0  0  0  0  0  0  0  0  0
   -4.1691   -0.4102    0.5707 C   0  0  0  0  0  0  0  0  0  0  0  0
   -3.7826   -1.2513    1.4285 O   0  0  0  0  0  0  0  0  0  0  0  0
   -3.2395    0.1058   -0.3915 N   0  0  0  0  0  0  0  0  0  0  0  0
   -1.8292   -0.3128   -0.3424 C   0  0  0  0  0  0  0  0  0  0  0  0
   -1.6297   -1.6008   -1.1486 C   0  0  0  0  0  0  0  0  0  0  0  0
   -0.2035   -2.0775   -1.0569 C   0  0  0  0  0  0  0  0  0  0  0  0
    0.8241   -1.3651   -1.6959 C   0  0  0  0  0  0  0  0  0  0  0  0
    2.1506   -1.7934   -1.5925 C   0  0  0  0  0  0  0  0  0  0  0  0
    2.4661   -2.9428   -0.8571 C   0  0  0  0  0  0  0  0  0  0  0  0
    1.4409   -3.6659   -0.2317 C   0  0  0  0  0  0  0  0  0  0  0  0
    0.1136   -3.2377   -0.3337 C   0  0  0  0  0  0  0  0  0  0  0  0
    4.1464   -3.4435   -0.6960 S   0  0  0  0  0  0  0  0  0  0  0  0
    4.2256   -4.7740   -0.0029 O   0  0  0  0  0  0  0  0  0  0  0  0
    4.7719   -3.5831   -2.0554 O   0  0  0  0  0  0  0  0  0  0  0  0
    5.0049   -2.2694    0.2479 N   0  0  0  0  0  0  0  0  0  0  0  0
    5.5896   -1.0957   -0.3298 C   0  0  0  0  0  0  0  0  0  0  0  0
    5.6329   -0.9586   -1.5833 O   0  0  0  0  0  0  0  0  0  0  0  0
    6.1288   -0.0769    0.5243 N   0  0  0  0  0  0  0  0  0  0  0  0
    6.8287    1.1032    0.0007 C   0  0  0  0  0  0  0  0  0  0  0  0
    8.3491    0.8199   -0.1270 C   0  0  0  0  0  0  0  0  0  0  0  0
    9.1997    1.4615    0.9846 C   0  0  0  0  0  0  0  0  0  0  0  0
    8.4727    1.4330    2.3318 C   0  0  0  0  0  0  0  0  0  0  0  0
    7.1534    2.2310    2.2905 C   0  0  0  0  0  0  0  0  0  0  0  0
    6.5356    2.3347    0.8796 C   0  0  0  0  0  0  0  0  0  0  0  0
   -3.7010    0.9465   -1.4645 C   0  0  0  0  0  0  0  0  0  0  0  0
   -2.8852    1.2997   -2.3628 O   0  0  0  0  0  0  0  0  0  0  0  0
   -5.1416    1.4380   -1.5599 C   0  0  0  0  0  0  0  0  0  0  0  0
   -5.1082    2.9837   -1.5204 C   0  0  0  0  0  0  0  0  0  0  0  0
   -5.7097    0.9659   -2.9179 C   0  0  0  0  0  0  0  0  0  0  0  0
  -10.3924   -0.7366    3.6547 H   0  0  0  0  0  0  0  0  0  0  0  0
  -10.5553   -0.5531    1.8686 H   0  0  0  0  0  0  0  0  0  0  0  0
  -10.1300    0.8827    2.9023 H   0  0  0  0  0  0  0  0  0  0  0  0
   -9.2897    1.1761    0.6003 H   0  0  0  0  0  0  0  0  0  0  0  0
   -7.8088    1.9783   -1.1358 H   0  0  0  0  0  0  0  0  0  0  0  0
   -6.0969   -1.0986    2.3367 H   0  0  0  0  0  0  0  0  0  0  0  0
   -1.1750    0.4919   -0.7433 H   0  0  0  0  0  0  0  0  0  0  0  0
   -1.5106   -0.4732    0.7123 H   0  0  0  0  0  0  0  0  0  0  0  0
   -2.3258   -2.3777   -0.7598 H   0  0  0  0  0  0  0  0  0  0  0  0
   -1.8891   -1.4259   -2.2162 H   0  0  0  0  0  0  0  0  0  0  0  0
    0.5973   -0.4765   -2.2705 H   0  0  0  0  0  0  0  0  0  0  0  0
    2.9318   -1.2248   -2.0816 H   0  0  0  0  0  0  0  0  0  0  0  0
    1.6647   -4.5562    0.3401 H   0  0  0  0  0  0  0  0  0  0  0  0
   -0.6650   -3.8061    0.1608 H   0  0  0  0  0  0  0  0  0  0  0  0
    5.0311   -2.3937    1.2842 H   0  0  0  0  0  0  0  0  0  0  0  0
    6.1305   -0.2545    1.5540 H   0  0  0  0  0  0  0  0  0  0  0  0
    6.4329    1.3369   -1.0131 H   0  0  0  0  0  0  0  0  0  0  0  0
    8.5302   -0.2783   -0.1369 H   0  0  0  0  0  0  0  0  0  0  0  0
    8.7126    1.2083   -1.1042 H   0  0  0  0  0  0  0  0  0  0  0  0
    9.4306    2.5159    0.7143 H   0  0  0  0  0  0  0  0  0  0  0  0
   10.1650    0.9174    1.0734 H   0  0  0  0  0  0  0  0  0  0  0  0
    8.2657    0.3746    2.6070 H   0  0  0  0  0  0  0  0  0  0  0  0
    9.1364    1.8544    3.1186 H   0  0  0  0  0  0  0  0  0  0  0  0
    6.4230    1.7563    2.9799 H   0  0  0  0  0  0  0  0  0  0  0  0
    7.3345    3.2589    2.6734 H   0  0  0  0  0  0  0  0  0  0  0  0
    6.9471    3.2355    0.3696 H   0  0  0  0  0  0  0  0  0  0  0  0
    5.4368    2.4839    0.9646 H   0  0  0  0  0  0  0  0  0  0  0  0
   -4.4461    3.3880   -2.3170 H   0  0  0  0  0  0  0  0  0  0  0  0
   -4.7300    3.3361   -0.5358 H   0  0  0  0  0  0  0  0  0  0  0  0
   -6.1143    3.4225   -1.6854 H   0  0  0  0  0  0  0  0  0  0  0  0
   -6.7327    1.3576   -3.0988 H   0  0  0  0  0  0  0  0  0  0  0  0
   -5.7521   -0.1447   -2.9512 H   0  0  0  0  0  0  0  0  0  0  0  0
   -5.0729    1.3192   -3.7571 H   0  0  0  0  0  0  0  0  0  0  0  0
  1  2  1  0
  2  3  1  0
  3  4  2  0
  4  5  1  0
  5  6  2  0
  6  7  1  0
  7  8  2  0
  8  3  1  0
  7  9  1  0
  9 10  2  0
  9 11  1  0
 11 12  1  0
 12 13  1  0
 13 14  1  0
 14 15  2  0
 15 16  1  0
 16 17  2  0
 17 18  1  0
 18 19  2  0
 19 14  1  0
 17 20  1  0
 20 21  2  0
 20 22  2  0
 20 23  1  0
 23 24  1  0
 24 25  2  0
 24 26  1  0
 26 27  1  0
 27 28  1  0
 28 29  1  0
 29 30  1  0
 30 31  1  0
 31 32  1  0
 32 27  1  0
 11 33  1  0
 33 34  2  0
 33 35  1  0
 35  6  1  0
 35 36  1  0
 35 37  1  0
  1 38  1  0
  1 39  1  0
  1 40  1  0
  4 41  1  0
  5 42  1  0
  8 43  1  0
 12 44  1  0
 12 45  1  0
 13 46  1  0
 13 47  1  0
 15 48  1  0
 16 49  1  0
 18 50  1  0
 19 51  1  0
 23 52  1  0
 26 53  1  0
 27 54  1  0
 28 55  1  0
 28 56  1  0
 29 57  1  0
 29 58  1  0
 30 59  1  0
 30 60  1  0
 31 61  1  0
 31 62  1  0
 32 63  1  0
 32 64  1  0
 36 65  1  0
 36 66  1  0
 36 67  1  0
 37 68  1  0
 37 69  1  0
 37 70  1  0
M  END
> <ID>
HT0989

> <Class>
0.0

> <Clusters>
120

> <Fold>
1

$$$$