
     RDKit          3D

 37 41  0  0  0  0  0  0  0  0999 V2000
   -1.5608    5.2163    0.9194 O   0  0  0  0  0  0  0  0  0  0  0  0
   -1.1537    3.9511    0.5024 C   0  0  0  0  0  0  0  0  0  0  0  0
   -1.8548    3.2697   -0.4994 C   0  0  0  0  0  0  0  0  0  0  0  0
   -1.4393    1.9995   -0.9068 C   0  0  0  0  0  0  0  0  0  0  0  0
   -0.3114    1.3939   -0.3209 C   0  0  0  0  0  0  0  0  0  0  0  0
    0.3918    2.0885    0.6830 C   0  0  0  0  0  0  0  0  0  0  0  0
    1.5248    1.5311    1.2766 O   0  0  0  0  0  0  0  0  0  0  0  0
    2.0618    0.3102    0.8670 C   0  0  0  0  0  0  0  0  0  0  0  0
    3.2504   -0.1394    1.4527 C   0  0  0  0  0  0  0  0  0  0  0  0
    3.8236   -1.3516    1.0490 C   0  0  0  0  0  0  0  0  0  0  0  0
    5.0082   -1.8043    1.6256 O   0  0  0  0  0  0  0  0  0  0  0  0
    3.2027   -2.1155    0.0580 C   0  0  0  0  0  0  0  0  0  0  0  0
    2.0124   -1.6758   -0.5264 C   0  0  0  0  0  0  0  0  0  0  0  0
    1.4278   -0.4580   -0.1292 C   0  0  0  0  0  0  0  0  0  0  0  0
    0.1036   -0.0111   -0.7284 C   0  0  0  0  0  0  0  0  0  0  0  0
    0.1638   -0.1029   -2.1615 O   0  0  0  0  0  0  0  0  0  0  0  0
   -0.7668   -1.0250   -2.6264 C   0  0  0  0  0  0  0  0  0  0  0  0
   -0.9372   -1.3106   -3.8402 O   0  0  0  0  0  0  0  0  0  0  0  0
   -1.4881   -1.5873   -1.5140 C   0  0  0  0  0  0  0  0  0  0  0  0
   -2.5054   -2.5383   -1.4716 C   0  0  0  0  0  0  0  0  0  0  0  0
   -3.0222   -2.8934   -0.2143 C   0  0  0  0  0  0  0  0  0  0  0  0
   -2.5156   -2.2963    0.9588 C   0  0  0  0  0  0  0  0  0  0  0  0
   -1.4884   -1.3395    0.8833 C   0  0  0  0  0  0  0  0  0  0  0  0
   -0.9868   -0.9986   -0.3759 C   0  0  0  0  0  0  0  0  0  0  0  0
   -0.0337    3.3575    1.0908 C   0  0  0  0  0  0  0  0  0  0  0  0
   -2.3684    5.6735    0.5125 H   0  0  0  0  0  0  0  0  0  0  0  0
   -2.7250    3.7206   -0.9590 H   0  0  0  0  0  0  0  0  0  0  0  0
   -2.0042    1.4839   -1.6729 H   0  0  0  0  0  0  0  0  0  0  0  0
    3.7298    0.4580    2.2180 H   0  0  0  0  0  0  0  0  0  0  0  0
    5.4829   -1.2735    2.3465 H   0  0  0  0  0  0  0  0  0  0  0  0
    3.6402   -3.0547   -0.2560 H   0  0  0  0  0  0  0  0  0  0  0  0
    1.5409   -2.2909   -1.2822 H   0  0  0  0  0  0  0  0  0  0  0  0
   -2.8867   -2.9901   -2.3781 H   0  0  0  0  0  0  0  0  0  0  0  0
   -3.8130   -3.6290   -0.1459 H   0  0  0  0  0  0  0  0  0  0  0  0
   -2.9198   -2.5761    1.9228 H   0  0  0  0  0  0  0  0  0  0  0  0
   -1.0952   -0.8774    1.7794 H   0  0  0  0  0  0  0  0  0  0  0  0
    0.5115    3.8852    1.8634 H   0  0  0  0  0  0  0  0  0  0  0  0
  1  2  1  0
  2  3  2  0
  3  4  1  0
  4  5  2  0
  5  6  1  0
  6  7  1  0
  7  8  1  0
  8  9  2  0
  9 10  1  0
 10 11  1  0
 10 12  2  0
 12 13  1  0
 13 14  2  0
 14  8  1  0
 14 15  1  0
 15  5  1  0
 15 16  1  0
 16 17  1  0
 17 18  2  0
 17 19  1  0
 19 20  2  0
 20 21  1  0
 21 22  2  0
 22 23  1  0
 23 24  2  0
 24 15  1  0
 24 19  1  0
  6 25  2  0
 25  2  1  0
  1 26  1  0
  3 27  1  0
  4 28  1  0
  9 29  1  0
 11 30  1  0
 12 31  1  0
 13 32  1  0
 20 33  1  0
 21 34  1  0
 22 35  1  0
 23 36  1  0
 25 37  1  0
M  END
> <ID>
HT0906

> <Class>
0.0

> <Clusters>
193

> <Fold>
1

$$$$