
     RDKit          3D

 52 51  0  0  0  0  0  0  0  0999 V2000
   -8.4621   -2.0768    0.2997 C   0  0  0  0  0  0  0  0  0  0  0  0
   -7.7836   -1.2821    1.4092 C   0  0  0  0  0  0  0  0  0  0  0  0
   -6.5214   -0.6428    0.8987 C   0  0  0  0  0  0  0  0  0  0  0  0
   -6.3594    0.6901    0.8785 C   0  0  0  0  0  0  0  0  0  0  0  0
   -5.0836    1.3136    0.3879 C   0  0  0  0  0  0  0  0  0  0  0  0
   -4.9528    1.1349   -1.1049 C   0  0  0  0  0  0  0  0  0  0  0  0
   -4.0072    0.3980   -1.7182 C   0  0  0  0  0  0  0  0  0  0  0  0
   -2.9248   -0.3767   -1.0152 C   0  0  0  0  0  0  0  0  0  0  0  0
   -1.8239    0.5430   -0.5594 C   0  0  0  0  0  0  0  0  0  0  0  0
   -0.5990    0.5098   -1.1084 C   0  0  0  0  0  0  0  0  0  0  0  0
    0.4961    1.4267   -0.6348 C   0  0  0  0  0  0  0  0  0  0  0  0
    0.9042    1.0955    0.7780 C   0  0  0  0  0  0  0  0  0  0  0  0
    1.6798    0.0492    1.1179 C   0  0  0  0  0  0  0  0  0  0  0  0
    2.3312   -0.8834    0.1299 C   0  0  0  0  0  0  0  0  0  0  0  0
    3.6352   -0.2999   -0.3425 C   0  0  0  0  0  0  0  0  0  0  0  0
    4.7703   -1.0147   -0.3475 C   0  0  0  0  0  0  0  0  0  0  0  0
    6.0701   -0.4130   -0.8056 C   0  0  0  0  0  0  0  0  0  0  0  0
    6.6558    0.5011    0.2860 C   0  0  0  0  0  0  0  0  0  0  0  0
    7.9575    1.1827   -0.1642 C   0  0  0  0  0  0  0  0  0  0  0  0
    9.1370    0.2529   -0.2448 C   0  0  0  0  0  0  0  0  0  0  0  0
   10.2326    0.6886   -0.6899 O   0  0  0  0  0  0  0  0  0  0  0  0
    9.0471   -1.0694    0.1858 O   0  0  0  0  0  0  0  0  0  0  0  0
   -7.7821   -2.8717   -0.0799 H   0  0  0  0  0  0  0  0  0  0  0  0
   -8.7431   -1.4023   -0.5393 H   0  0  0  0  0  0  0  0  0  0  0  0
   -9.3829   -2.5564    0.6962 H   0  0  0  0  0  0  0  0  0  0  0  0
   -7.5245   -1.9680    2.2439 H   0  0  0  0  0  0  0  0  0  0  0  0
   -8.4962   -0.5206    1.7980 H   0  0  0  0  0  0  0  0  0  0  0  0
   -5.7241   -1.2899    0.5410 H   0  0  0  0  0  0  0  0  0  0  0  0
   -7.1475    1.3429    1.2501 H   0  0  0  0  0  0  0  0  0  0  0  0
   -4.2323    0.8883    0.9570 H   0  0  0  0  0  0  0  0  0  0  0  0
   -5.1080    2.4030    0.6022 H   0  0  0  0  0  0  0  0  0  0  0  0
   -5.6927    1.6292   -1.7285 H   0  0  0  0  0  0  0  0  0  0  0  0
   -4.0463    0.3248   -2.8013 H   0  0  0  0  0  0  0  0  0  0  0  0
   -3.3370   -0.9334   -0.1477 H   0  0  0  0  0  0  0  0  0  0  0  0
   -2.5263   -1.1366   -1.7222 H   0  0  0  0  0  0  0  0  0  0  0  0
   -2.0312    1.2535    0.2361 H   0  0  0  0  0  0  0  0  0  0  0  0
   -0.3855   -0.1755   -1.9246 H   0  0  0  0  0  0  0  0  0  0  0  0
    1.3681    1.3616   -1.3175 H   0  0  0  0  0  0  0  0  0  0  0  0
    0.1279    2.4749   -0.6710 H   0  0  0  0  0  0  0  0  0  0  0  0
    0.5154    1.7249    1.5736 H   0  0  0  0  0  0  0  0  0  0  0  0
    1.8844   -0.1126    2.1710 H   0  0  0  0  0  0  0  0  0  0  0  0
    1.6699   -1.0682   -0.7409 H   0  0  0  0  0  0  0  0  0  0  0  0
    2.4945   -1.8648    0.6270 H   0  0  0  0  0  0  0  0  0  0  0  0
    3.6487    0.7252   -0.7034 H   0  0  0  0  0  0  0  0  0  0  0  0
    4.7634   -2.0531   -0.0289 H   0  0  0  0  0  0  0  0  0  0  0  0
    5.9060    0.1585   -1.7493 H   0  0  0  0  0  0  0  0  0  0  0  0
    6.7826   -1.2413   -1.0273 H   0  0  0  0  0  0  0  0  0  0  0  0
    6.8343   -0.0812    1.2201 H   0  0  0  0  0  0  0  0  0  0  0  0
    5.9136    1.2995    0.5263 H   0  0  0  0  0  0  0  0  0  0  0  0
    8.2047    1.9869    0.5622 H   0  0  0  0  0  0  0  0  0  0  0  0
    7.8006    1.6642   -1.1555 H   0  0  0  0  0  0  0  0  0  0  0  0
    9.8465   -1.6890    0.1306 H   0  0  0  0  0  0  0  0  0  0  0  0
  1  2  1  0
  2  3  1  0
  3  4  2  3
  4  5  1  0
  5  6  1  0
  6  7  2  3
  7  8  1  0
  8  9  1  0
  9 10  2  3
 10 11  1  0
 11 12  1  0
 12 13  2  3
 13 14  1  0
 14 15  1  0
 15 16  2  3
 16 17  1  0
 17 18  1  0
 18 19  1  0
 19 20  1  0
 20 21  2  0
 20 22  1  0
  1 23  1  0
  1 24  1  0
  1 25  1  0
  2 26  1  0
  2 27  1  0
  3 28  1  0
  4 29  1  0
  5 30  1  0
  5 31  1  0
  6 32  1  0
  7 33  1  0
  8 34  1  0
  8 35  1  0
  9 36  1  0
 10 37  1  0
 11 38  1  0
 11 39  1  0
 12 40  1  0
 13 41  1  0
 14 42  1  0
 14 43  1  0
 15 44  1  0
 16 45  1  0
 17 46  1  0
 17 47  1  0
 18 48  1  0
 18 49  1  0
 19 50  1  0
 19 51  1  0
 22 52  1  0
M  END
> <ID>
HT1073

> <Class>
0.0

> <Clusters>
130

> <Fold>
1

$$$$