
     RDKit          3D

 67 70  0  0  0  0  0  0  0  0999 V2000
    6.1830    1.4744    1.8426 C   0  0  0  0  0  0  0  0  0  0  0  0
    5.7874    1.7301    0.3834 C   0  0  0  0  0  0  0  0  0  0  0  0
    4.3320    2.2105    0.2548 C   0  0  0  0  0  0  0  0  0  0  0  0
    3.3631    1.1094    0.5449 C   0  0  0  0  0  0  0  0  0  0  0  0
    2.7991    1.0683    1.6680 O   0  0  0  0  0  0  0  0  0  0  0  0
    3.1140    0.1630   -0.4656 O   0  0  0  0  0  0  0  0  0  0  0  0
    2.1594   -0.9207   -0.5514 C   0  0  1  0  0  0  0  0  0  0  0  0
    1.9473   -1.6912    0.7627 C   0  0  0  0  0  0  0  0  0  0  0  0
    0.5884   -2.3719    0.6175 C   0  0  0  0  0  0  0  0  0  0  0  0
   -0.2273   -1.5676   -0.4276 C   0  0  1  0  0  0  0  0  0  0  0  0
   -1.5784   -1.0659    0.1835 C   0  0  2  0  0  0  0  0  0  0  0  0
   -2.5958   -2.2096    0.3076 C   0  0  0  0  0  0  0  0  0  0  0  0
   -3.8441   -1.7487    1.0727 C   0  0  0  0  0  0  0  0  0  0  0  0
   -4.2391   -0.3144    0.7810 C   0  0  0  0  0  0  0  0  0  0  0  0
   -5.1405    0.2527    1.5965 C   0  0  0  0  0  0  0  0  0  0  0  0
   -5.4813    1.6672    1.4875 C   0  0  0  0  0  0  0  0  0  0  0  0
   -6.4775    2.1303    2.1037 O   0  0  0  0  0  0  0  0  0  0  0  0
   -4.5675    2.5725    0.7440 C   0  0  0  0  0  0  0  0  0  0  0  0
   -4.1353    1.9183   -0.5742 C   0  0  0  0  0  0  0  0  0  0  0  0
   -3.7107    0.3893   -0.4841 C   0  0  2  0  0  0  0  0  0  0  0  0
   -4.4464   -0.2911   -1.6806 C   0  0  0  0  0  0  0  0  0  0  0  0
   -2.1350    0.1294   -0.6392 C   0  0  1  0  0  0  0  0  0  0  0  0
   -1.1539    1.3396   -0.4402 C   0  0  1  0  0  0  0  0  0  0  0  0
   -1.5124    2.1441    0.6559 O   0  0  0  0  0  0  0  0  0  0  0  0
    0.3387    0.9162   -0.2717 C   0  0  0  0  0  0  0  0  0  0  0  0
    0.7183   -0.4302   -0.9606 C   0  0  1  0  0  0  0  0  0  0  0  0
    0.6386   -0.2267   -2.5061 C   0  0  0  0  0  0  0  0  0  0  0  0
    2.7356   -1.9187   -1.5775 C   0  0  0  0  0  0  0  0  0  0  0  0
    2.1437   -2.9590   -1.8289 O   0  0  0  0  0  0  0  0  0  0  0  0
    4.0419   -1.6589   -2.2866 C   0  0  0  0  0  0  0  0  0  0  0  0
    5.1106   -1.7283   -1.3795 O   0  0  0  0  0  0  0  0  0  0  0  0
    5.6245    0.6088    2.2516 H   0  0  0  0  0  0  0  0  0  0  0  0
    5.9811    2.3765    2.4645 H   0  0  0  0  0  0  0  0  0  0  0  0
    7.2690    1.2414    1.8939 H   0  0  0  0  0  0  0  0  0  0  0  0
    6.4572    2.5143   -0.0285 H   0  0  0  0  0  0  0  0  0  0  0  0
    5.9472    0.8026   -0.2147 H   0  0  0  0  0  0  0  0  0  0  0  0
    4.1478    3.0783    0.9329 H   0  0  0  0  0  0  0  0  0  0  0  0
    4.1589    2.5632   -0.7888 H   0  0  0  0  0  0  0  0  0  0  0  0
    1.8816   -1.0332    1.6436 H   0  0  0  0  0  0  0  0  0  0  0  0
    2.7552   -2.4314    0.9566 H   0  0  0  0  0  0  0  0  0  0  0  0
    0.7270   -3.4186    0.2672 H   0  0  0  0  0  0  0  0  0  0  0  0
    0.0929   -2.4302    1.6124 H   0  0  0  0  0  0  0  0  0  0  0  0
   -0.4666   -2.2509   -1.2740 H   0  0  0  0  0  0  0  0  0  0  0  0
   -1.3853   -0.7083    1.2206 H   0  0  0  0  0  0  0  0  0  0  0  0
   -2.1429   -3.0564    0.8682 H   0  0  0  0  0  0  0  0  0  0  0  0
   -2.8578   -2.6134   -0.6893 H   0  0  0  0  0  0  0  0  0  0  0  0
   -3.6231   -1.8410    2.1602 H   0  0  0  0  0  0  0  0  0  0  0  0
   -4.6949   -2.4257    0.8446 H   0  0  0  0  0  0  0  0  0  0  0  0
   -5.5903   -0.3221    2.3984 H   0  0  0  0  0  0  0  0  0  0  0  0
   -3.7019    2.8028    1.3895 H   0  0  0  0  0  0  0  0  0  0  0  0
   -5.0824    3.5323    0.5239 H   0  0  0  0  0  0  0  0  0  0  0  0
   -3.3662    2.5458   -1.0635 H   0  0  0  0  0  0  0  0  0  0  0  0
   -5.0172    2.0418   -1.2446 H   0  0  0  0  0  0  0  0  0  0  0  0
   -4.1744    0.2000   -2.6404 H   0  0  0  0  0  0  0  0  0  0  0  0
   -4.2079   -1.3631   -1.7883 H   0  0  0  0  0  0  0  0  0  0  0  0
   -5.5501   -0.2180   -1.5579 H   0  0  0  0  0  0  0  0  0  0  0  0
   -2.0045   -0.1684   -1.6990 H   0  0  0  0  0  0  0  0  0  0  0  0
   -1.2127    1.9738   -1.3519 H   0  0  0  0  0  0  0  0  0  0  0  0
   -1.5994    1.5584    1.4512 H   0  0  0  0  0  0  0  0  0  0  0  0
    0.9849    1.7392   -0.6500 H   0  0  0  0  0  0  0  0  0  0  0  0
    0.5345    0.8128    0.8141 H   0  0  0  0  0  0  0  0  0  0  0  0
    0.6235   -1.1948   -3.0479 H   0  0  0  0  0  0  0  0  0  0  0  0
    1.5191    0.3530   -2.8559 H   0  0  0  0  0  0  0  0  0  0  0  0
   -0.2503    0.3410   -2.8338 H   0  0  0  0  0  0  0  0  0  0  0  0
    4.0183   -0.6449   -2.7393 H   0  0  0  0  0  0  0  0  0  0  0  0
    4.1931   -2.3856   -3.1189 H   0  0  0  0  0  0  0  0  0  0  0  0
    5.2563   -2.6922   -1.1896 H   0  0  0  0  0  0  0  0  0  0  0  0
  1  2  1  0
  2  3  1  0
  3  4  1  0
  4  5  2  0
  4  6  1  0
  7  6  1  1
  7  8  1  0
  8  9  1  0
 10  9  1  0
 10 11  1  0
 11 12  1  0
 12 13  1  0
 13 14  1  0
 14 15  2  0
 15 16  1  0
 16 17  2  0
 16 18  1  0
 18 19  1  0
 19 20  1  0
 20 14  1  0
 20 21  1  6
 20 22  1  0
 22 11  1  0
 22 23  1  0
 23 24  1  0
 23 25  1  0
 25 26  1  0
 26  7  1  0
 26 10  1  0
 26 27  1  6
  7 28  1  0
 28 29  2  0
 28 30  1  0
 30 31  1  0
  1 32  1  0
  1 33  1  0
  1 34  1  0
  2 35  1  0
  2 36  1  0
  3 37  1  0
  3 38  1  0
  8 39  1  0
  8 40  1  0
  9 41  1  0
  9 42  1  0
 10 43  1  6
 11 44  1  1
 12 45  1  0
 12 46  1  0
 13 47  1  0
 13 48  1  0
 15 49  1  0
 18 50  1  0
 18 51  1  0
 19 52  1  0
 19 53  1  0
 21 54  1  0
 21 55  1  0
 21 56  1  0
 22 57  1  6
 23 58  1  6
 24 59  1  0
 25 60  1  0
 25 61  1  0
 27 62  1  0
 27 63  1  0
 27 64  1  0
 30 65  1  0
 30 66  1  0
 31 67  1  0
M  END
> <ID>
HT1049

> <Class>
0.0

> <Clusters>
129

> <Fold>
1

$$$$