
     RDKit          3D

 61 64  0  0  0  0  0  0  0  0999 V2000
   -3.2163    1.9264   -0.6943 C   0  0  0  0  0  0  0  0  0  0  0  0
   -3.1148    0.3738   -0.6867 C   0  0  2  0  0  0  0  0  0  0  0  0
   -3.5229   -0.0930   -2.1261 C   0  0  0  0  0  0  0  0  0  0  0  0
   -3.8894   -1.5722   -2.1973 C   0  0  0  0  0  0  0  0  0  0  0  0
   -4.9727   -1.8470   -1.2065 C   0  0  0  0  0  0  0  0  0  0  0  0
   -5.8883   -2.6690   -1.4776 O   0  0  0  0  0  0  0  0  0  0  0  0
   -4.9471   -1.1781    0.1006 C   0  0  0  0  0  0  0  0  0  0  0  0
   -4.0902   -0.1745    0.3641 C   0  0  0  0  0  0  0  0  0  0  0  0
   -3.8382    0.2132    1.7993 C   0  0  0  0  0  0  0  0  0  0  0  0
   -2.4419   -0.2749    2.2046 C   0  0  0  0  0  0  0  0  0  0  0  0
   -1.3401    0.2337    1.2374 C   0  0  1  0  0  0  0  0  0  0  0  0
    0.0254   -0.3903    1.6021 C   0  0  2  0  0  0  0  0  0  0  0  0
    0.5222   -0.2330    3.0309 C   0  0  0  0  0  0  0  0  0  0  0  0
    2.0398   -0.4490    2.9427 C   0  0  0  0  0  0  0  0  0  0  0  0
    2.4053   -0.5989    1.4309 C   0  0  2  0  0  0  0  0  0  0  0  0
    2.4349   -1.9869    1.1646 O   0  0  0  0  0  0  0  0  0  0  0  0
    3.7848    0.0158    1.1135 C   0  0  0  0  0  0  0  0  0  0  0  0
    4.3785    0.6681    1.9639 O   0  0  0  0  0  0  0  0  0  0  0  0
    4.4911   -0.2384   -0.1962 C   0  0  0  0  0  0  0  0  0  0  0  0
    5.3060    0.8707   -0.5166 O   0  0  0  0  0  0  0  0  0  0  0  0
    6.1845    0.5105   -1.9358 P   0  0  0  0  0  0  0  0  0  0  0  0
    7.0955   -0.6751   -1.6987 O   0  0  0  0  0  0  0  0  0  0  0  0
    7.1293    1.8535   -2.3481 O   0  0  0  0  0  0  0  0  0  0  0  0
    5.1267    0.1772   -3.2175 O   0  0  0  0  0  0  0  0  0  0  0  0
    1.1858    0.0944    0.7158 C   0  0  2  0  0  0  0  0  0  0  0  0
    1.3877    1.6462    0.7574 C   0  0  0  0  0  0  0  0  0  0  0  0
    0.8673   -0.3578   -0.7398 C   0  0  0  0  0  0  0  0  0  0  0  0
   -0.5127    0.1455   -1.2514 C   0  0  2  0  0  0  0  0  0  0  0  0
   -0.4494    1.5092   -1.5812 O   0  0  0  0  0  0  0  0  0  0  0  0
   -1.6829   -0.1479   -0.2509 C   0  0  2  0  0  0  0  0  0  0  0  0
   -4.2802    2.2395   -0.7577 H   0  0  0  0  0  0  0  0  0  0  0  0
   -2.7087    2.3663   -1.5764 H   0  0  0  0  0  0  0  0  0  0  0  0
   -2.7944    2.3967    0.2098 H   0  0  0  0  0  0  0  0  0  0  0  0
   -4.4214    0.4756   -2.4596 H   0  0  0  0  0  0  0  0  0  0  0  0
   -2.7331    0.1389   -2.8693 H   0  0  0  0  0  0  0  0  0  0  0  0
   -3.0042   -2.2024   -1.9691 H   0  0  0  0  0  0  0  0  0  0  0  0
   -4.2356   -1.8234   -3.2231 H   0  0  0  0  0  0  0  0  0  0  0  0
   -5.5934   -1.5629    0.8798 H   0  0  0  0  0  0  0  0  0  0  0  0
   -4.5945   -0.2309    2.4847 H   0  0  0  0  0  0  0  0  0  0  0  0
   -3.9039    1.3148    1.9220 H   0  0  0  0  0  0  0  0  0  0  0  0
   -2.4437   -1.3878    2.2264 H   0  0  0  0  0  0  0  0  0  0  0  0
   -2.2323    0.0824    3.2362 H   0  0  0  0  0  0  0  0  0  0  0  0
   -1.2807    1.3304    1.3633 H   0  0  0  0  0  0  0  0  0  0  0  0
   -0.0880   -1.4923    1.4520 H   0  0  0  0  0  0  0  0  0  0  0  0
    0.2931    0.7888    3.4086 H   0  0  0  0  0  0  0  0  0  0  0  0
    0.0493   -0.9843    3.7015 H   0  0  0  0  0  0  0  0  0  0  0  0
    2.5255    0.4257    3.4228 H   0  0  0  0  0  0  0  0  0  0  0  0
    2.3442   -1.3518    3.5158 H   0  0  0  0  0  0  0  0  0  0  0  0
    2.7236   -2.1316    0.2271 H   0  0  0  0  0  0  0  0  0  0  0  0
    5.1060   -1.1592   -0.0601 H   0  0  0  0  0  0  0  0  0  0  0  0
    3.7491   -0.4105   -1.0005 H   0  0  0  0  0  0  0  0  0  0  0  0
    7.6646    2.0416   -1.5355 H   0  0  0  0  0  0  0  0  0  0  0  0
    4.9286   -0.7932   -3.1470 H   0  0  0  0  0  0  0  0  0  0  0  0
    1.6928    1.9976    1.7654 H   0  0  0  0  0  0  0  0  0  0  0  0
    0.4854    2.2224    0.4900 H   0  0  0  0  0  0  0  0  0  0  0  0
    2.1836    1.9424    0.0414 H   0  0  0  0  0  0  0  0  0  0  0  0
    1.6483   -0.0049   -1.4422 H   0  0  0  0  0  0  0  0  0  0  0  0
    0.8479   -1.4662   -0.8005 H   0  0  0  0  0  0  0  0  0  0  0  0
   -0.7161   -0.4348   -2.1812 H   0  0  0  0  0  0  0  0  0  0  0  0
    0.0859    1.5814   -2.4122 H   0  0  0  0  0  0  0  0  0  0  0  0
   -1.7554   -1.2607   -0.2500 H   0  0  0  0  0  0  0  0  0  0  0  0
  2  1  1  6
  2  3  1  0
  3  4  1  0
  4  5  1  0
  5  6  2  0
  5  7  1  0
  7  8  2  0
  8  2  1  0
  8  9  1  0
  9 10  1  0
 11 10  1  0
 11 12  1  0
 12 13  1  0
 13 14  1  0
 14 15  1  0
 15 16  1  6
 15 17  1  0
 17 18  2  0
 17 19  1  0
 19 20  1  0
 20 21  1  0
 21 22  2  0
 21 23  1  0
 21 24  1  0
 15 25  1  0
 25 12  1  0
 25 26  1  6
 25 27  1  0
 27 28  1  0
 28 29  1  0
 28 30  1  0
 30  2  1  0
 30 11  1  0
  1 31  1  0
  1 32  1  0
  1 33  1  0
  3 34  1  0
  3 35  1  0
  4 36  1  0
  4 37  1  0
  7 38  1  0
  9 39  1  0
  9 40  1  0
 10 41  1  0
 10 42  1  0
 11 43  1  6
 12 44  1  6
 13 45  1  0
 13 46  1  0
 14 47  1  0
 14 48  1  0
 16 49  1  0
 19 50  1  0
 19 51  1  0
 23 52  1  0
 24 53  1  0
 26 54  1  0
 26 55  1  0
 26 56  1  0
 27 57  1  0
 27 58  1  0
 28 59  1  6
 29 60  1  0
 30 61  1  1
M  END
> <ID>
HT1052

> <Class>
0.0

> <Clusters>
129

> <Fold>
1

$$$$