
     RDKit          3D

 33 34  0  0  0  0  0  0  0  0999 V2000
   -3.4263    0.7793    1.9995 C   0  0  0  0  0  0  0  0  0  0  0  0
   -2.6261   -0.0108    1.0554 N   0  0  0  0  0  0  0  0  0  0  0  0
   -2.8716   -1.4143    0.8735 C   0  0  0  0  0  0  0  0  0  0  0  0
   -3.8065   -1.9893    1.4940 O   0  0  0  0  0  0  0  0  0  0  0  0
   -2.0544   -2.1768   -0.0085 N   0  0  0  0  0  0  0  0  0  0  0  0
   -0.9912   -1.5816   -0.7512 C   0  0  0  0  0  0  0  0  0  0  0  0
   -0.2712   -2.3194   -1.4786 O   0  0  0  0  0  0  0  0  0  0  0  0
   -0.7238   -0.0876   -0.7143 C   0  0  0  0  0  0  0  0  0  0  0  0
   -1.0992    0.4758   -2.1035 C   0  0  0  0  0  0  0  0  0  0  0  0
    0.7596    0.1273   -0.3536 C   0  0  0  0  0  0  0  0  0  0  0  0
    1.2020   -0.3117    0.8537 C   0  0  0  0  0  0  0  0  0  0  0  0
    2.6250   -0.1605    1.3270 C   0  0  0  0  0  0  0  0  0  0  0  0
    3.6073   -0.0215    0.1656 C   0  0  0  0  0  0  0  0  0  0  0  0
    3.1101    1.0486   -0.8002 C   0  0  0  0  0  0  0  0  0  0  0  0
    1.7519    0.6508   -1.3898 C   0  0  0  0  0  0  0  0  0  0  0  0
   -1.5803    0.6434    0.3112 C   0  0  0  0  0  0  0  0  0  0  0  0
   -1.3682    1.8748    0.4980 O   0  0  0  0  0  0  0  0  0  0  0  0
   -4.1946    0.1667    2.5146 H   0  0  0  0  0  0  0  0  0  0  0  0
   -3.9453    1.5971    1.4562 H   0  0  0  0  0  0  0  0  0  0  0  0
   -2.7632    1.2198    2.7739 H   0  0  0  0  0  0  0  0  0  0  0  0
   -2.2294   -3.2027   -0.1044 H   0  0  0  0  0  0  0  0  0  0  0  0
   -0.9544    1.5767   -2.1451 H   0  0  0  0  0  0  0  0  0  0  0  0
   -2.1698    0.2707   -2.3248 H   0  0  0  0  0  0  0  0  0  0  0  0
   -0.4918    0.0060   -2.9070 H   0  0  0  0  0  0  0  0  0  0  0  0
    0.4934   -0.7280    1.5647 H   0  0  0  0  0  0  0  0  0  0  0  0
    2.6879    0.7384    1.9773 H   0  0  0  0  0  0  0  0  0  0  0  0
    2.9033   -1.0462    1.9369 H   0  0  0  0  0  0  0  0  0  0  0  0
    4.6068    0.2648    0.5581 H   0  0  0  0  0  0  0  0  0  0  0  0
    3.7066   -0.9941   -0.3654 H   0  0  0  0  0  0  0  0  0  0  0  0
    3.8463    1.1782   -1.6226 H   0  0  0  0  0  0  0  0  0  0  0  0
    3.0169    2.0205   -0.2665 H   0  0  0  0  0  0  0  0  0  0  0  0
    1.9095   -0.1406   -2.1541 H   0  0  0  0  0  0  0  0  0  0  0  0
    1.3407    1.5462   -1.8992 H   0  0  0  0  0  0  0  0  0  0  0  0
  1  2  1  0
  2  3  1  0
  3  4  2  0
  3  5  1  0
  5  6  1  0
  6  7  2  0
  6  8  1  0
  8  9  1  0
  8 10  1  0
 10 11  2  0
 11 12  1  0
 12 13  1  0
 13 14  1  0
 14 15  1  0
 15 10  1  0
  8 16  1  0
 16  2  1  0
 16 17  2  0
  1 18  1  0
  1 19  1  0
  1 20  1  0
  5 21  1  0
  9 22  1  0
  9 23  1  0
  9 24  1  0
 11 25  1  0
 12 26  1  0
 12 27  1  0
 13 28  1  0
 13 29  1  0
 14 30  1  0
 14 31  1  0
 15 32  1  0
 15 33  1  0
M  END
> <ID>
HT1033

> <Class>
0.0

> <Clusters>
64

> <Fold>
1

$$$$