
     RDKit          3D

 70 73  0  0  0  0  0  0  0  0999 V2000
   -7.7787    5.2201    0.2892 C   0  0  0  0  0  0  0  0  0  0  0  0
   -8.0742    3.8867   -0.1128 O   0  0  0  0  0  0  0  0  0  0  0  0
   -7.2660    2.7724    0.1648 C   0  0  0  0  0  0  0  0  0  0  0  0
   -6.0587    2.8846    0.8775 C   0  0  0  0  0  0  0  0  0  0  0  0
   -5.2724    1.7526    1.1467 C   0  0  0  0  0  0  0  0  0  0  0  0
   -3.9562    1.9171    1.8724 C   0  0  0  0  0  0  0  0  0  0  0  0
   -2.7784    1.6402    0.9315 C   0  0  0  0  0  0  0  0  0  0  0  0
   -2.5172    0.2001    0.7898 N   0  0  0  0  0  0  0  0  0  0  0  0
   -1.1464   -0.3023    0.9390 C   0  0  0  0  0  0  0  0  0  0  0  0
   -0.3192    0.0046   -0.3152 C   0  0  0  0  0  0  0  0  0  0  0  0
    1.1205   -0.5046   -0.1654 C   0  0  0  0  0  0  0  0  0  0  0  0
    1.9528   -0.0950   -1.3162 N   0  0  0  0  0  0  0  0  0  0  0  0
    1.6319   -0.8536   -2.5408 C   0  0  0  0  0  0  0  0  0  0  0  0
    3.4021   -0.1178   -1.0069 C   0  0  0  0  0  0  0  0  0  0  0  0
    3.9609   -1.5302   -0.6922 C   0  0  0  0  0  0  0  0  0  0  0  0
    3.9042   -1.9371    0.7092 C   0  0  0  0  0  0  0  0  0  0  0  0
    5.3925   -1.9273    0.7553 C   0  0  0  0  0  0  0  0  0  0  0  0
    6.5139   -2.1341    1.5269 C   0  0  0  0  0  0  0  0  0  0  0  0
    7.7652   -1.9137    0.8773 C   0  0  0  0  0  0  0  0  0  0  0  0
    8.9791   -2.0861    1.5606 O   0  0  0  0  0  0  0  0  0  0  0  0
    9.0860   -2.4847    2.9233 C   0  0  0  0  0  0  0  0  0  0  0  0
    7.8263   -1.5062   -0.5003 C   0  0  0  0  0  0  0  0  0  0  0  0
    9.0956   -1.3166   -1.0680 O   0  0  0  0  0  0  0  0  0  0  0  0
    9.3230   -0.9197   -2.4164 C   0  0  0  0  0  0  0  0  0  0  0  0
    6.6377   -1.3033   -1.2635 C   0  0  0  0  0  0  0  0  0  0  0  0
    5.4521   -1.5216   -0.5977 C   0  0  0  0  0  0  0  0  0  0  0  0
   -3.5383   -0.6838    0.2942 C   0  0  0  0  0  0  0  0  0  0  0  0
   -3.2874   -1.4522   -0.6732 O   0  0  0  0  0  0  0  0  0  0  0  0
   -4.8822   -0.7524    0.9581 C   0  0  0  0  0  0  0  0  0  0  0  0
   -5.6954    0.4878    0.6834 C   0  0  0  0  0  0  0  0  0  0  0  0
   -6.9008    0.3809   -0.0289 C   0  0  0  0  0  0  0  0  0  0  0  0
   -7.6879    1.5169   -0.2907 C   0  0  0  0  0  0  0  0  0  0  0  0
   -8.8964    1.4392   -1.0016 O   0  0  0  0  0  0  0  0  0  0  0  0
   -9.4506    0.2365   -1.5252 C   0  0  0  0  0  0  0  0  0  0  0  0
   -8.5887    5.8917   -0.0619 H   0  0  0  0  0  0  0  0  0  0  0  0
   -7.7207    5.2812    1.3964 H   0  0  0  0  0  0  0  0  0  0  0  0
   -6.8206    5.5522   -0.1633 H   0  0  0  0  0  0  0  0  0  0  0  0
   -5.7220    3.8533    1.2209 H   0  0  0  0  0  0  0  0  0  0  0  0
   -3.9123    1.2451    2.7562 H   0  0  0  0  0  0  0  0  0  0  0  0
   -3.8585    2.9534    2.2634 H   0  0  0  0  0  0  0  0  0  0  0  0
   -2.9720    2.0818   -0.0712 H   0  0  0  0  0  0  0  0  0  0  0  0
   -1.8792    2.1521    1.3397 H   0  0  0  0  0  0  0  0  0  0  0  0
   -1.1615   -1.4006    1.1179 H   0  0  0  0  0  0  0  0  0  0  0  0
   -0.6742    0.1663    1.8303 H   0  0  0  0  0  0  0  0  0  0  0  0
   -0.3008    1.1025   -0.4885 H   0  0  0  0  0  0  0  0  0  0  0  0
   -0.8030   -0.4821   -1.1875 H   0  0  0  0  0  0  0  0  0  0  0  0
    1.1207   -1.6116   -0.0469 H   0  0  0  0  0  0  0  0  0  0  0  0
    1.5294   -0.0591    0.7684 H   0  0  0  0  0  0  0  0  0  0  0  0
    2.4057   -0.6966   -3.3231 H   0  0  0  0  0  0  0  0  0  0  0  0
    1.5413   -1.9425   -2.3398 H   0  0  0  0  0  0  0  0  0  0  0  0
    0.6751   -0.4890   -2.9674 H   0  0  0  0  0  0  0  0  0  0  0  0
    3.9562    0.2966   -1.8785 H   0  0  0  0  0  0  0  0  0  0  0  0
    3.6161    0.5850   -0.1707 H   0  0  0  0  0  0  0  0  0  0  0  0
    3.6287   -2.3206   -1.3986 H   0  0  0  0  0  0  0  0  0  0  0  0
    3.4965   -2.9614    0.8520 H   0  0  0  0  0  0  0  0  0  0  0  0
    3.4845   -1.1880    1.4137 H   0  0  0  0  0  0  0  0  0  0  0  0
    6.4258   -2.4413    2.5594 H   0  0  0  0  0  0  0  0  0  0  0  0
    8.6405   -3.4926    3.0620 H   0  0  0  0  0  0  0  0  0  0  0  0
    8.5760   -1.7468    3.5782 H   0  0  0  0  0  0  0  0  0  0  0  0
   10.1581   -2.5284    3.2055 H   0  0  0  0  0  0  0  0  0  0  0  0
    8.8939   -1.6702   -3.1131 H   0  0  0  0  0  0  0  0  0  0  0  0
   10.4156   -0.8534   -2.5955 H   0  0  0  0  0  0  0  0  0  0  0  0
    8.8705    0.0768   -2.6023 H   0  0  0  0  0  0  0  0  0  0  0  0
    6.6409   -0.9983   -2.3005 H   0  0  0  0  0  0  0  0  0  0  0  0
   -5.4152   -1.6629    0.6062 H   0  0  0  0  0  0  0  0  0  0  0  0
   -4.7464   -0.8747    2.0534 H   0  0  0  0  0  0  0  0  0  0  0  0
   -7.2216   -0.5910   -0.3782 H   0  0  0  0  0  0  0  0  0  0  0  0
   -9.6585   -0.4790   -0.7015 H   0  0  0  0  0  0  0  0  0  0  0  0
  -10.4042    0.4717   -2.0402 H   0  0  0  0  0  0  0  0  0  0  0  0
   -8.7530   -0.2172   -2.2605 H   0  0  0  0  0  0  0  0  0  0  0  0
  1  2  1  0
  2  3  1  0
  3  4  2  0
  4  5  1  0
  5  6  1  0
  6  7  1  0
  7  8  1  0
  8  9  1  0
  9 10  1  0
 10 11  1  0
 11 12  1  0
 12 13  1  0
 12 14  1  0
 14 15  1  0
 15 16  1  0
 16 17  1  0
 17 18  2  0
 18 19  1  0
 19 20  1  0
 20 21  1  0
 19 22  2  0
 22 23  1  0
 23 24  1  0
 22 25  1  0
 25 26  2  0
 26 15  1  0
 26 17  1  0
  8 27  1  0
 27 28  2  0
 27 29  1  0
 29 30  1  0
 30  5  2  0
 30 31  1  0
 31 32  2  0
 32  3  1  0
 32 33  1  0
 33 34  1  0
  1 35  1  0
  1 36  1  0
  1 37  1  0
  4 38  1  0
  6 39  1  0
  6 40  1  0
  7 41  1  0
  7 42  1  0
  9 43  1  0
  9 44  1  0
 10 45  1  0
 10 46  1  0
 11 47  1  0
 11 48  1  0
 13 49  1  0
 13 50  1  0
 13 51  1  0
 14 52  1  0
 14 53  1  0
 15 54  1  0
 16 55  1  0
 16 56  1  0
 18 57  1  0
 21 58  1  0
 21 59  1  0
 21 60  1  0
 24 61  1  0
 24 62  1  0
 24 63  1  0
 25 64  1  0
 29 65  1  0
 29 66  1  0
 31 67  1  0
 34 68  1  0
 34 69  1  0
 34 70  1  0
M  END
> <ID>
HT1148

> <Class>
0.0

> <Clusters>
242

> <Fold>
1

$$$$