
     RDKit          3D

 75 78  0  0  0  0  0  0  0  0999 V2000
    5.9608    2.1653   -0.6626 C   0  0  0  0  0  0  0  0  0  0  0  0
    5.3589    0.8366   -0.2238 C   0  0  0  0  0  0  0  0  0  0  0  0
    6.2452    0.1988    0.7775 N   0  0  0  0  0  0  0  0  0  0  0  0
    6.7947   -1.1077    0.3520 C   0  0  0  0  0  0  0  0  0  0  0  0
    7.9574   -0.9058   -0.6160 C   0  0  0  0  0  0  0  0  0  0  0  0
    5.6692    0.1766    2.1415 C   0  0  0  0  0  0  0  0  0  0  0  0
    4.4729   -0.7300    2.2998 C   0  0  0  0  0  0  0  0  0  0  0  0
    3.9573   -0.8574    3.4424 O   0  0  0  0  0  0  0  0  0  0  0  0
    3.9326   -1.4149    1.2041 O   0  0  0  0  0  0  0  0  0  0  0  0
    2.7731   -2.2394    1.2896 C   0  0  0  0  0  0  0  0  0  0  0  0
    1.5415   -1.4022    1.5325 C   0  0  0  0  0  0  0  0  0  0  0  0
    0.9497   -1.5601    2.5888 O   0  0  0  0  0  0  0  0  0  0  0  0
    1.0670   -0.3227    0.5402 C   0  0  0  0  0  0  0  0  0  0  0  0
    2.0396   -0.1045   -0.4656 O   0  0  0  0  0  0  0  0  0  0  0  0
    0.8989    1.0289    1.2505 C   0  0  0  0  0  0  0  0  0  0  0  0
   -0.1503    1.8032    0.4535 C   0  0  0  0  0  0  0  0  0  0  0  0
   -0.7287    0.8331   -0.5968 C   0  0  0  0  0  0  0  0  0  0  0  0
   -2.2350    1.1033   -0.8861 C   0  0  0  0  0  0  0  0  0  0  0  0
   -2.6404    0.6331   -2.2988 C   0  0  0  0  0  0  0  0  0  0  0  0
   -4.0600    1.0702   -2.6373 C   0  0  0  0  0  0  0  0  0  0  0  0
   -5.0389    0.6036   -1.5874 C   0  0  0  0  0  0  0  0  0  0  0  0
   -6.2609    0.1989   -1.9886 C   0  0  0  0  0  0  0  0  0  0  0  0
   -7.3490   -0.0740   -1.0352 C   0  0  0  0  0  0  0  0  0  0  0  0
   -8.4686   -0.4598   -1.4634 O   0  0  0  0  0  0  0  0  0  0  0  0
   -7.1565    0.1548    0.4322 C   0  0  0  0  0  0  0  0  0  0  0  0
   -5.6768    0.0069    0.7979 C   0  0  0  0  0  0  0  0  0  0  0  0
   -4.7261    0.8622   -0.1085 C   0  0  0  0  0  0  0  0  0  0  0  0
   -5.0068    2.3629    0.1775 C   0  0  0  0  0  0  0  0  0  0  0  0
   -3.1967    0.5596    0.2156 C   0  0  0  0  0  0  0  0  0  0  0  0
   -2.8671   -0.9170    0.5690 C   0  0  0  0  0  0  0  0  0  0  0  0
   -3.2654   -1.7864   -0.4577 O   0  0  0  0  0  0  0  0  0  0  0  0
   -1.3811   -1.1052    0.9394 C   0  0  0  0  0  0  0  0  0  0  0  0
   -0.3439   -0.5884   -0.1097 C   0  0  0  0  0  0  0  0  0  0  0  0
   -0.2208   -1.6110   -1.2726 C   0  0  0  0  0  0  0  0  0  0  0  0
    6.0537    2.8470    0.2096 H   0  0  0  0  0  0  0  0  0  0  0  0
    5.3047    2.6420   -1.4218 H   0  0  0  0  0  0  0  0  0  0  0  0
    6.9662    2.0036   -1.1068 H   0  0  0  0  0  0  0  0  0  0  0  0
    4.3461    1.0421    0.1888 H   0  0  0  0  0  0  0  0  0  0  0  0
    5.2167    0.1965   -1.1239 H   0  0  0  0  0  0  0  0  0  0  0  0
    7.1864   -1.6716    1.2290 H   0  0  0  0  0  0  0  0  0  0  0  0
    6.0186   -1.7393   -0.1334 H   0  0  0  0  0  0  0  0  0  0  0  0
    7.6041   -0.4359   -1.5579 H   0  0  0  0  0  0  0  0  0  0  0  0
    8.4130   -1.8885   -0.8621 H   0  0  0  0  0  0  0  0  0  0  0  0
    8.7308   -0.2578   -0.1517 H   0  0  0  0  0  0  0  0  0  0  0  0
    6.4537   -0.1371    2.8650 H   0  0  0  0  0  0  0  0  0  0  0  0
    5.3729    1.2087    2.4323 H   0  0  0  0  0  0  0  0  0  0  0  0
    2.9078   -2.9857    2.1023 H   0  0  0  0  0  0  0  0  0  0  0  0
    2.6565   -2.8082    0.3451 H   0  0  0  0  0  0  0  0  0  0  0  0
    2.2377   -0.9557   -0.9311 H   0  0  0  0  0  0  0  0  0  0  0  0
    1.8604    1.5887    1.2915 H   0  0  0  0  0  0  0  0  0  0  0  0
    0.5420    0.9052    2.2962 H   0  0  0  0  0  0  0  0  0  0  0  0
    0.3148    2.6805   -0.0497 H   0  0  0  0  0  0  0  0  0  0  0  0
   -0.9316    2.1829    1.1467 H   0  0  0  0  0  0  0  0  0  0  0  0
   -0.1625    1.0425   -1.5344 H   0  0  0  0  0  0  0  0  0  0  0  0
   -2.3340    2.2098   -0.9050 H   0  0  0  0  0  0  0  0  0  0  0  0
   -2.5722   -0.4626   -2.4072 H   0  0  0  0  0  0  0  0  0  0  0  0
   -1.9543    1.0782   -3.0516 H   0  0  0  0  0  0  0  0  0  0  0  0
   -4.3203    0.6736   -3.6439 H   0  0  0  0  0  0  0  0  0  0  0  0
   -4.0997    2.1794   -2.6985 H   0  0  0  0  0  0  0  0  0  0  0  0
   -6.4772    0.0899   -3.0440 H   0  0  0  0  0  0  0  0  0  0  0  0
   -7.5367    1.1597    0.7099 H   0  0  0  0  0  0  0  0  0  0  0  0
   -7.7465   -0.5943    1.0041 H   0  0  0  0  0  0  0  0  0  0  0  0
   -5.4591   -1.0743    0.6798 H   0  0  0  0  0  0  0  0  0  0  0  0
   -5.5317    0.2689    1.8688 H   0  0  0  0  0  0  0  0  0  0  0  0
   -4.8779    2.5883    1.2574 H   0  0  0  0  0  0  0  0  0  0  0  0
   -6.0371    2.6478   -0.1192 H   0  0  0  0  0  0  0  0  0  0  0  0
   -4.3280    3.0264   -0.3915 H   0  0  0  0  0  0  0  0  0  0  0  0
   -2.9648    1.1223    1.1474 H   0  0  0  0  0  0  0  0  0  0  0  0
   -3.4231   -1.1786    1.4987 H   0  0  0  0  0  0  0  0  0  0  0  0
   -3.2908   -2.7005   -0.0720 H   0  0  0  0  0  0  0  0  0  0  0  0
   -1.1982   -2.1816    1.1519 H   0  0  0  0  0  0  0  0  0  0  0  0
   -1.2392   -0.5668    1.9002 H   0  0  0  0  0  0  0  0  0  0  0  0
   -1.1940   -1.9843   -1.6272 H   0  0  0  0  0  0  0  0  0  0  0  0
    0.2979   -1.1720   -2.1505 H   0  0  0  0  0  0  0  0  0  0  0  0
    0.3491   -2.5031   -0.9351 H   0  0  0  0  0  0  0  0  0  0  0  0
  1  2  1  0
  2  3  1  0
  3  4  1  0
  4  5  1  0
  3  6  1  0
  6  7  1  0
  7  8  2  0
  7  9  1  0
  9 10  1  0
 10 11  1  0
 11 12  2  0
 11 13  1  0
 13 14  1  0
 13 15  1  0
 15 16  1  0
 16 17  1  0
 17 18  1  0
 18 19  1  0
 19 20  1  0
 20 21  1  0
 21 22  2  0
 22 23  1  0
 23 24  2  0
 23 25  1  0
 25 26  1  0
 26 27  1  0
 27 21  1  0
 27 28  1  0
 27 29  1  0
 29 18  1  0
 29 30  1  0
 30 31  1  0
 30 32  1  0
 32 33  1  0
 33 13  1  0
 33 17  1  0
 33 34  1  0
  1 35  1  0
  1 36  1  0
  1 37  1  0
  2 38  1  0
  2 39  1  0
  4 40  1  0
  4 41  1  0
  5 42  1  0
  5 43  1  0
  5 44  1  0
  6 45  1  0
  6 46  1  0
 10 47  1  0
 10 48  1  0
 14 49  1  0
 15 50  1  0
 15 51  1  0
 16 52  1  0
 16 53  1  0
 17 54  1  0
 18 55  1  0
 19 56  1  0
 19 57  1  0
 20 58  1  0
 20 59  1  0
 22 60  1  0
 25 61  1  0
 25 62  1  0
 26 63  1  0
 26 64  1  0
 28 65  1  0
 28 66  1  0
 28 67  1  0
 29 68  1  0
 30 69  1  0
 31 70  1  0
 32 71  1  0
 32 72  1  0
 34 73  1  0
 34 74  1  0
 34 75  1  0
M  END
> <ID>
HT1046

> <Class>
0.0

> <Clusters>
129

> <Fold>
1

$$$$