
     RDKit          3D

 14 14  0  0  0  0  0  0  0  0999 V2000
   -2.8645   -0.1892    0.2967 O   0  0  0  0  0  0  0  0  0  0  0  0
   -1.7700   -0.7690   -0.3441 C   0  0  0  0  0  0  0  0  0  0  0  0
   -1.9704   -1.7603   -1.0954 O   0  0  0  0  0  0  0  0  0  0  0  0
   -0.3900   -0.2602   -0.1504 C   0  0  0  0  0  0  0  0  0  0  0  0
   -0.1503    1.0529    0.2910 C   0  0  0  0  0  0  0  0  0  0  0  0
    1.1638    1.4982    0.4569 C   0  0  0  0  0  0  0  0  0  0  0  0
    2.2057    0.6690    0.1873 N   0  0  0  0  0  0  0  0  0  0  0  0
    2.0080   -0.6023   -0.2490 C   0  0  0  0  0  0  0  0  0  0  0  0
    0.7109   -1.0882   -0.4298 C   0  0  0  0  0  0  0  0  0  0  0  0
   -2.7678    0.5414    0.9895 H   0  0  0  0  0  0  0  0  0  0  0  0
   -0.9603    1.7423    0.4843 H   0  0  0  0  0  0  0  0  0  0  0  0
    1.3551    2.5081    0.7945 H   0  0  0  0  0  0  0  0  0  0  0  0
    2.8588   -1.2375   -0.4564 H   0  0  0  0  0  0  0  0  0  0  0  0
    0.5709   -2.1051   -0.7750 H   0  0  0  0  0  0  0  0  0  0  0  0
  1  2  1  0
  2  3  2  0
  2  4  1  0
  4  5  2  0
  5  6  1  0
  6  7  2  0
  7  8  1  0
  8  9  2  0
  9  4  1  0
  1 10  1  0
  5 11  1  0
  6 12  1  0
  8 13  1  0
  9 14  1  0
M  END
> <ID>
HT1136

> <Class>
0.0

> <Clusters>
137

> <Fold>
1

$$$$