
     RDKit          3D

 75 78  0  0  0  0  0  0  0  0999 V2000
    3.6130    0.2578    3.4358 C   0  0  0  0  0  0  0  0  0  0  0  0
    2.3917   -0.6559    3.5509 C   0  0  0  0  0  0  0  0  0  0  0  0
    2.4581   -1.8408    2.5745 C   0  0  0  0  0  0  0  0  0  0  0  0
    2.1892   -1.4561    1.1469 C   0  0  0  0  0  0  0  0  0  0  0  0
    2.2600   -2.3441    0.2562 O   0  0  0  0  0  0  0  0  0  0  0  0
    1.8417   -0.1334    0.8225 O   0  0  0  0  0  0  0  0  0  0  0  0
    1.5552    0.3978   -0.4853 C   0  0  2  0  0  0  0  0  0  0  0  0
    1.6504    1.9465   -0.3600 C   0  0  0  0  0  0  0  0  0  0  0  0
    0.2369    2.4722   -0.0488 C   0  0  0  0  0  0  0  0  0  0  0  0
   -0.6100    1.2154    0.1080 C   0  0  1  0  0  0  0  0  0  0  0  0
   -2.1499    1.3160   -0.0405 C   0  0  2  0  0  0  0  0  0  0  0  0
   -2.7813    2.4271    0.8529 C   0  0  0  0  0  0  0  0  0  0  0  0
   -3.6682    1.9073    1.9899 C   0  0  0  0  0  0  0  0  0  0  0  0
   -4.6806    0.8892    1.5068 C   0  0  0  0  0  0  0  0  0  0  0  0
   -5.8315    0.7570    2.1882 C   0  0  0  0  0  0  0  0  0  0  0  0
   -6.7476   -0.3685    1.9496 C   0  0  0  0  0  0  0  0  0  0  0  0
   -7.8585   -0.3978    2.5421 O   0  0  0  0  0  0  0  0  0  0  0  0
   -6.3801   -1.4816    1.0126 C   0  0  0  0  0  0  0  0  0  0  0  0
   -4.8747   -1.4839    0.6951 C   0  0  0  0  0  0  0  0  0  0  0  0
   -4.3228   -0.0652    0.3611 C   0  0  1  0  0  0  0  0  0  0  0  0
   -4.9925    0.4549   -0.9383 C   0  0  0  0  0  0  0  0  0  0  0  0
   -2.7524   -0.0998    0.2517 C   0  0  1  0  0  0  0  0  0  0  0  0
   -2.1293   -1.2063   -0.6583 C   0  0  1  0  0  0  0  0  0  0  0  0
   -2.5627   -1.0721   -1.9851 O   0  0  0  0  0  0  0  0  0  0  0  0
   -0.5741   -1.1983   -0.5730 C   0  0  0  0  0  0  0  0  0  0  0  0
    0.0397    0.2004   -0.8601 C   0  0  2  0  0  0  0  0  0  0  0  0
   -0.1816    0.5658   -2.3740 C   0  0  0  0  0  0  0  0  0  0  0  0
    2.5836   -0.1308   -1.4904 C   0  0  0  0  0  0  0  0  0  0  0  0
    2.2729   -1.0021   -2.2884 O   0  0  0  0  0  0  0  0  0  0  0  0
    4.0222    0.3184   -1.4192 C   0  0  0  0  0  0  0  0  0  0  0  0
    4.8059   -0.3548   -2.4025 O   0  0  0  0  0  0  0  0  0  0  0  0
    6.1602   -0.0783   -2.6070 C   0  0  0  0  0  0  0  0  0  0  0  0
    6.7556    0.7810   -1.9013 O   0  0  0  0  0  0  0  0  0  0  0  0
    6.9127   -0.8181   -3.6665 C   0  0  0  0  0  0  0  0  0  0  0  0
    7.8376   -1.8601   -3.0472 C   0  0  0  0  0  0  0  0  0  0  0  0
    3.7046    0.6741    2.4113 H   0  0  0  0  0  0  0  0  0  0  0  0
    3.5118    1.1023    4.1498 H   0  0  0  0  0  0  0  0  0  0  0  0
    4.5392   -0.3043    3.6792 H   0  0  0  0  0  0  0  0  0  0  0  0
    2.3548   -1.0542    4.5874 H   0  0  0  0  0  0  0  0  0  0  0  0
    1.4602   -0.0701    3.3896 H   0  0  0  0  0  0  0  0  0  0  0  0
    3.4540   -2.3293    2.6422 H   0  0  0  0  0  0  0  0  0  0  0  0
    1.6973   -2.5906    2.8785 H   0  0  0  0  0  0  0  0  0  0  0  0
    2.3628    2.2373    0.4445 H   0  0  0  0  0  0  0  0  0  0  0  0
    2.0015    2.4156   -1.3053 H   0  0  0  0  0  0  0  0  0  0  0  0
    0.2483    3.0749    0.8842 H   0  0  0  0  0  0  0  0  0  0  0  0
   -0.1443    3.0972   -0.8862 H   0  0  0  0  0  0  0  0  0  0  0  0
   -0.4356    0.8721    1.1562 H   0  0  0  0  0  0  0  0  0  0  0  0
   -2.3858    1.6051   -1.0790 H   0  0  0  0  0  0  0  0  0  0  0  0
   -2.0076    3.0837    1.2987 H   0  0  0  0  0  0  0  0  0  0  0  0
   -3.4080    3.0895    0.2147 H   0  0  0  0  0  0  0  0  0  0  0  0
   -4.1780    2.7767    2.4611 H   0  0  0  0  0  0  0  0  0  0  0  0
   -3.0297    1.4340    2.7667 H   0  0  0  0  0  0  0  0  0  0  0  0
   -6.0714    1.4463    2.9894 H   0  0  0  0  0  0  0  0  0  0  0  0
   -6.9676   -1.3789    0.0749 H   0  0  0  0  0  0  0  0  0  0  0  0
   -6.6528   -2.4572    1.4704 H   0  0  0  0  0  0  0  0  0  0  0  0
   -4.7131   -2.1794   -0.1565 H   0  0  0  0  0  0  0  0  0  0  0  0
   -4.3311   -1.8926    1.5766 H   0  0  0  0  0  0  0  0  0  0  0  0
   -4.6049    1.4475   -1.2376 H   0  0  0  0  0  0  0  0  0  0  0  0
   -6.0852    0.5907   -0.7973 H   0  0  0  0  0  0  0  0  0  0  0  0
   -4.8573   -0.2569   -1.7777 H   0  0  0  0  0  0  0  0  0  0  0  0
   -2.4042   -0.3817    1.2742 H   0  0  0  0  0  0  0  0  0  0  0  0
   -2.4534   -2.1998   -0.2743 H   0  0  0  0  0  0  0  0  0  0  0  0
   -2.3430   -1.9224   -2.4489 H   0  0  0  0  0  0  0  0  0  0  0  0
   -0.1519   -1.9574   -1.2671 H   0  0  0  0  0  0  0  0  0  0  0  0
   -0.3156   -1.5193    0.4564 H   0  0  0  0  0  0  0  0  0  0  0  0
    0.4458    1.4191   -2.7000 H   0  0  0  0  0  0  0  0  0  0  0  0
   -1.2164    0.8400   -2.6306 H   0  0  0  0  0  0  0  0  0  0  0  0
    0.0639   -0.2947   -3.0296 H   0  0  0  0  0  0  0  0  0  0  0  0
    4.0790    1.4128   -1.6000 H   0  0  0  0  0  0  0  0  0  0  0  0
    4.4261    0.0965   -0.4081 H   0  0  0  0  0  0  0  0  0  0  0  0
    6.1953   -1.3198   -4.3498 H   0  0  0  0  0  0  0  0  0  0  0  0
    7.5115   -0.0962   -4.2653 H   0  0  0  0  0  0  0  0  0  0  0  0
    8.5796   -1.3716   -2.3813 H   0  0  0  0  0  0  0  0  0  0  0  0
    7.2489   -2.5994   -2.4605 H   0  0  0  0  0  0  0  0  0  0  0  0
    8.3834   -2.3982   -3.8495 H   0  0  0  0  0  0  0  0  0  0  0  0
  1  2  1  0
  2  3  1  0
  3  4  1  0
  4  5  2  0
  4  6  1  0
  7  6  1  1
  7  8  1  0
  8  9  1  0
 10  9  1  0
 10 11  1  0
 11 12  1  0
 12 13  1  0
 13 14  1  0
 14 15  2  0
 15 16  1  0
 16 17  2  0
 16 18  1  0
 18 19  1  0
 19 20  1  0
 20 14  1  0
 20 21  1  6
 20 22  1  0
 22 11  1  0
 22 23  1  0
 23 24  1  0
 23 25  1  0
 25 26  1  0
 26  7  1  0
 26 10  1  0
 26 27  1  6
  7 28  1  0
 28 29  2  0
 28 30  1  0
 30 31  1  0
 31 32  1  0
 32 33  2  0
 32 34  1  0
 34 35  1  0
  1 36  1  0
  1 37  1  0
  1 38  1  0
  2 39  1  0
  2 40  1  0
  3 41  1  0
  3 42  1  0
  8 43  1  0
  8 44  1  0
  9 45  1  0
  9 46  1  0
 10 47  1  1
 11 48  1  6
 12 49  1  0
 12 50  1  0
 13 51  1  0
 13 52  1  0
 15 53  1  0
 18 54  1  0
 18 55  1  0
 19 56  1  0
 19 57  1  0
 21 58  1  0
 21 59  1  0
 21 60  1  0
 22 61  1  1
 23 62  1  1
 24 63  1  0
 25 64  1  0
 25 65  1  0
 27 66  1  0
 27 67  1  0
 27 68  1  0
 30 69  1  0
 30 70  1  0
 34 71  1  0
 34 72  1  0
 35 73  1  0
 35 74  1  0
 35 75  1  0
M  END
> <ID>
HT1051

> <Class>
0.0

> <Clusters>
129

> <Fold>
1

$$$$