
     RDKit          3D

 57 60  0  0  0  0  0  0  0  0999 V2000
    9.1405   -1.8809   -0.8822 O   0  0  0  0  0  0  0  0  0  0  0  0
    7.9514   -1.4643   -0.8629 C   0  0  0  0  0  0  0  0  0  0  0  0
    7.6101   -0.4151   -0.0673 N   0  0  0  0  0  0  0  0  0  0  0  0
    6.9893   -2.0820   -1.6568 C   0  0  0  0  0  0  0  0  0  0  0  0
    5.6766   -1.6188   -1.6338 C   0  0  0  0  0  0  0  0  0  0  0  0
    5.3132   -0.5284   -0.8150 C   0  0  0  0  0  0  0  0  0  0  0  0
    3.9793   -0.0220   -0.7674 C   0  0  0  0  0  0  0  0  0  0  0  0
    6.3303    0.0672   -0.0172 C   0  0  0  0  0  0  0  0  0  0  0  0
    2.8730   -0.6582   -1.6152 C   0  0  2  0  0  0  0  0  0  0  0  0
    3.7074    1.0586    0.0998 C   0  0  0  0  0  0  0  0  0  0  0  0
    6.0163    1.1486    0.8241 C   0  0  0  0  0  0  0  0  0  0  0  0
    1.5483    0.1318   -1.7093 C   0  0  0  0  0  0  0  0  0  0  0  0
    2.6240   -1.9575   -1.1413 O   0  0  0  0  0  0  0  0  0  0  0  0
    4.7099    1.6322    0.8765 C   0  0  0  0  0  0  0  0  0  0  0  0
    7.0048    1.7414    1.6104 O   0  0  0  0  0  0  0  0  0  0  0  0
    0.7827    0.0381   -0.4557 N   0  0  0  0  0  0  0  0  0  0  0  0
   -0.3252    1.0091   -0.4185 C   0  0  0  0  0  0  0  0  0  0  0  0
   -1.4915    0.6227   -1.3677 C   0  0  0  0  0  0  0  0  0  0  0  0
   -0.9145    1.0950    1.0088 C   0  0  0  0  0  0  0  0  0  0  0  0
   -2.6847    0.6361   -0.4917 C   0  0  0  0  0  0  0  0  0  0  0  0
   -2.3681    0.8923    0.8120 C   0  0  0  0  0  0  0  0  0  0  0  0
   -3.9998    0.3914   -0.8793 C   0  0  0  0  0  0  0  0  0  0  0  0
   -3.3511    0.9317    1.7982 C   0  0  0  0  0  0  0  0  0  0  0  0
   -5.0293    0.4122    0.0869 C   0  0  0  0  0  0  0  0  0  0  0  0
   -4.7013    0.7115    1.4485 C   0  0  0  0  0  0  0  0  0  0  0  0
   -6.4330    0.0851   -0.3810 C   0  0  0  0  0  0  0  0  0  0  0  0
   -5.7355    0.7943    2.5514 C   0  0  0  0  0  0  0  0  0  0  0  0
   -6.5632   -1.3930   -0.7463 C   0  0  0  0  0  0  0  0  0  0  0  0
   -6.0975   -0.5887    3.0837 C   0  0  0  0  0  0  0  0  0  0  0  0
    8.3608    0.0205    0.5160 H   0  0  0  0  0  0  0  0  0  0  0  0
    7.2555   -2.9198   -2.2900 H   0  0  0  0  0  0  0  0  0  0  0  0
    4.9614   -2.1305   -2.2608 H   0  0  0  0  0  0  0  0  0  0  0  0
    3.2590   -0.7093   -2.6599 H   0  0  0  0  0  0  0  0  0  0  0  0
    2.7213    1.4857    0.1891 H   0  0  0  0  0  0  0  0  0  0  0  0
    1.7765    1.1902   -1.9666 H   0  0  0  0  0  0  0  0  0  0  0  0
    0.9459   -0.2863   -2.5465 H   0  0  0  0  0  0  0  0  0  0  0  0
    2.1853   -2.4555   -1.8801 H   0  0  0  0  0  0  0  0  0  0  0  0
    4.4662    2.4635    1.5263 H   0  0  0  0  0  0  0  0  0  0  0  0
    6.8005    2.5214    2.2244 H   0  0  0  0  0  0  0  0  0  0  0  0
    0.3961   -0.9308   -0.3591 H   0  0  0  0  0  0  0  0  0  0  0  0
    0.0466    2.0238   -0.6909 H   0  0  0  0  0  0  0  0  0  0  0  0
   -1.6025    1.3727   -2.1801 H   0  0  0  0  0  0  0  0  0  0  0  0
   -1.3695   -0.3911   -1.8058 H   0  0  0  0  0  0  0  0  0  0  0  0
   -0.5141    0.3012    1.6766 H   0  0  0  0  0  0  0  0  0  0  0  0
   -0.7238    2.0939    1.4578 H   0  0  0  0  0  0  0  0  0  0  0  0
   -4.2185    0.1769   -1.9184 H   0  0  0  0  0  0  0  0  0  0  0  0
   -3.0677    1.1374    2.8234 H   0  0  0  0  0  0  0  0  0  0  0  0
   -7.2047    0.3280    0.3722 H   0  0  0  0  0  0  0  0  0  0  0  0
   -6.6687    0.6978   -1.2781 H   0  0  0  0  0  0  0  0  0  0  0  0
   -5.3411    1.3975    3.3985 H   0  0  0  0  0  0  0  0  0  0  0  0
   -6.6441    1.3312    2.2120 H   0  0  0  0  0  0  0  0  0  0  0  0
   -7.6162   -1.6179   -1.0171 H   0  0  0  0  0  0  0  0  0  0  0  0
   -5.9187   -1.6377   -1.6168 H   0  0  0  0  0  0  0  0  0  0  0  0
   -6.2704   -2.0360    0.1097 H   0  0  0  0  0  0  0  0  0  0  0  0
   -5.1845   -1.1212    3.4262 H   0  0  0  0  0  0  0  0  0  0  0  0
   -6.7912   -0.4843    3.9444 H   0  0  0  0  0  0  0  0  0  0  0  0
   -6.6016   -1.1909    2.3023 H   0  0  0  0  0  0  0  0  0  0  0  0
  1  2  2  0
  2  3  1  0
  2  4  1  0
  4  5  2  0
  5  6  1  0
  6  7  1  0
  6  8  2  0
  9  7  1  0
  7 10  2  0
 11  8  1  0
  8  3  1  0
 12  9  1  0
  9 13  1  0
 10 14  1  0
 14 11  2  0
 11 15  1  0
 16 12  1  0
 17 16  1  0
 18 17  1  0
 17 19  1  0
 20 18  1  0
 19 21  1  0
 22 20  1  0
 21 20  2  0
 21 23  1  0
 24 22  2  0
 23 25  2  0
 26 24  1  0
 25 24  1  0
 25 27  1  0
 28 26  1  0
 27 29  1  0
  3 30  1  0
  4 31  1  0
  5 32  1  0
  9 33  1  6
 10 34  1  0
 12 35  1  0
 12 36  1  0
 13 37  1  0
 14 38  1  0
 15 39  1  0
 16 40  1  0
 17 41  1  0
 18 42  1  0
 18 43  1  0
 19 44  1  0
 19 45  1  0
 22 46  1  0
 23 47  1  0
 26 48  1  0
 26 49  1  0
 27 50  1  0
 27 51  1  0
 28 52  1  0
 28 53  1  0
 28 54  1  0
 29 55  1  0
 29 56  1  0
 29 57  1  0
M  END
> <ID>
HT1087

> <Class>
0.0

> <Clusters>
74

> <Fold>
1

$$$$