
     RDKit          3D

 77 79  0  0  0  0  0  0  0  0999 V2000
   -4.9084   -2.2755   -0.0639 C   0  0  0  0  0  0  0  0  0  0  0  0
   -3.7058   -1.3624    0.2390 C   0  0  1  0  0  0  0  0  0  0  0  0
   -2.4224   -2.1920    0.5314 C   0  0  0  0  0  0  0  0  0  0  0  0
   -1.9546   -3.1129   -0.6184 C   0  0  0  0  0  0  0  0  0  0  0  0
   -0.6926   -3.9602   -0.3107 C   0  0  0  0  0  0  0  0  0  0  0  0
    0.2594   -3.4220    0.7890 C   0  0  1  0  0  0  0  0  0  0  0  0
    0.0389   -3.8695    2.2382 C   0  0  0  0  0  0  0  0  0  0  0  0
    1.6102   -3.5944    0.4113 O   0  0  0  0  0  0  0  0  0  0  0  0
    1.1742   -2.2622    0.5788 C   0  0  1  0  0  0  0  0  0  0  0  0
    1.1262   -1.5066   -0.7564 C   0  0  0  0  0  0  0  0  0  0  0  0
    1.9188   -0.1878   -0.6822 C   0  0  2  0  0  0  0  0  0  0  0  0
    1.5924    0.6499   -1.8434 N   0  0  0  0  0  0  0  0  0  0  0  0
    0.6468    1.7370   -1.8172 C   0  0  0  0  0  0  0  0  0  0  0  0
    0.4660    2.4023   -2.8722 O   0  0  0  0  0  0  0  0  0  0  0  0
   -0.1167    2.0992   -0.5597 C   0  0  0  0  0  0  0  0  0  0  0  0
   -1.3161    3.0526   -0.8194 C   0  0  2  0  0  0  0  0  0  0  0  0
   -0.8620    4.3258   -1.2200 O   0  0  0  0  0  0  0  0  0  0  0  0
   -2.3147    3.1597    0.3891 C   0  0  0  0  0  0  0  0  0  0  0  0
   -1.5749    3.6159    1.6764 C   0  0  0  0  0  0  0  0  0  0  0  0
   -3.3910    4.2291    0.0791 C   0  0  0  0  0  0  0  0  0  0  0  0
   -3.0175    1.8089    0.6341 C   0  0  0  0  0  0  0  0  0  0  0  0
   -2.8335    1.2198    1.6906 O   0  0  0  0  0  0  0  0  0  0  0  0
   -3.9790    1.1921   -0.3815 C   0  0  2  0  0  0  0  0  0  0  0  0
   -5.4235    1.2416    0.1398 C   0  0  0  0  0  0  0  0  0  0  0  0
   -3.5522   -0.2352   -0.8497 C   0  0  1  0  0  0  0  0  0  0  0  0
   -2.2382   -0.1745   -1.3390 O   0  0  0  0  0  0  0  0  0  0  0  0
    3.4233   -0.4223   -0.6022 C   0  0  0  0  0  0  0  0  0  0  0  0
    4.1176    0.1394    0.4119 C   0  0  0  0  0  0  0  0  0  0  0  0
    5.5747    0.0219    0.6084 C   0  0  0  0  0  0  0  0  0  0  0  0
    6.2727   -1.1860    0.6194 C   0  0  0  0  0  0  0  0  0  0  0  0
    7.8880   -0.8453    0.9473 S   0  0  0  0  0  0  0  0  0  0  0  0
    7.6247    0.8070    1.0945 C   0  0  0  0  0  0  0  0  0  0  0  0
    8.6897    1.8217    1.3374 C   0  0  0  0  0  0  0  0  0  0  0  0
    6.3285    1.1211    0.8840 N   0  0  0  0  0  0  0  0  0  0  0  0
    4.1206   -1.2074   -1.6893 C   0  0  0  0  0  0  0  0  0  0  0  0
   -4.9896   -3.0814    0.6973 H   0  0  0  0  0  0  0  0  0  0  0  0
   -5.8488   -1.6835   -0.0417 H   0  0  0  0  0  0  0  0  0  0  0  0
   -4.8146   -2.7385   -1.0690 H   0  0  0  0  0  0  0  0  0  0  0  0
   -3.9481   -0.8923    1.2137 H   0  0  0  0  0  0  0  0  0  0  0  0
   -1.6095   -1.4850    0.8089 H   0  0  0  0  0  0  0  0  0  0  0  0
   -2.6230   -2.8272    1.4210 H   0  0  0  0  0  0  0  0  0  0  0  0
   -2.7727   -3.8218   -0.8713 H   0  0  0  0  0  0  0  0  0  0  0  0
   -1.7707   -2.5256   -1.5381 H   0  0  0  0  0  0  0  0  0  0  0  0
   -1.0201   -4.9775   -0.0072 H   0  0  0  0  0  0  0  0  0  0  0  0
   -0.1318   -4.1053   -1.2602 H   0  0  0  0  0  0  0  0  0  0  0  0
    0.9800   -3.8102    2.8286 H   0  0  0  0  0  0  0  0  0  0  0  0
   -0.3166   -4.9205    2.2689 H   0  0  0  0  0  0  0  0  0  0  0  0
   -0.7133   -3.2177    2.7242 H   0  0  0  0  0  0  0  0  0  0  0  0
    1.6317   -1.7914    1.4780 H   0  0  0  0  0  0  0  0  0  0  0  0
    1.4873   -2.1447   -1.5921 H   0  0  0  0  0  0  0  0  0  0  0  0
    0.0733   -1.2461   -0.9717 H   0  0  0  0  0  0  0  0  0  0  0  0
    1.5900    0.3322    0.2434 H   0  0  0  0  0  0  0  0  0  0  0  0
    1.9879    0.3887   -2.7751 H   0  0  0  0  0  0  0  0  0  0  0  0
    0.5973    2.5640    0.1536 H   0  0  0  0  0  0  0  0  0  0  0  0
   -0.4952    1.1660   -0.0960 H   0  0  0  0  0  0  0  0  0  0  0  0
   -1.8824    2.6407   -1.6813 H   0  0  0  0  0  0  0  0  0  0  0  0
   -0.1725    4.6282   -0.5764 H   0  0  0  0  0  0  0  0  0  0  0  0
   -1.0707    4.5950    1.5334 H   0  0  0  0  0  0  0  0  0  0  0  0
   -0.8139    2.8712    1.9931 H   0  0  0  0  0  0  0  0  0  0  0  0
   -2.2955    3.7318    2.5150 H   0  0  0  0  0  0  0  0  0  0  0  0
   -4.1753    4.2380    0.8678 H   0  0  0  0  0  0  0  0  0  0  0  0
   -3.8789    4.0438   -0.9018 H   0  0  0  0  0  0  0  0  0  0  0  0
   -2.9419    5.2458    0.0387 H   0  0  0  0  0  0  0  0  0  0  0  0
   -3.9792    1.8191   -1.2971 H   0  0  0  0  0  0  0  0  0  0  0  0
   -5.5326    0.7080    1.1055 H   0  0  0  0  0  0  0  0  0  0  0  0
   -5.7332    2.2972    0.2970 H   0  0  0  0  0  0  0  0  0  0  0  0
   -6.1173    0.7908   -0.6027 H   0  0  0  0  0  0  0  0  0  0  0  0
   -4.2180   -0.4985   -1.7079 H   0  0  0  0  0  0  0  0  0  0  0  0
   -2.2759    0.2569   -2.2319 H   0  0  0  0  0  0  0  0  0  0  0  0
    3.6033    0.7980    1.1028 H   0  0  0  0  0  0  0  0  0  0  0  0
    5.8562   -2.1734    0.4843 H   0  0  0  0  0  0  0  0  0  0  0  0
    8.2638    2.7018    1.8643 H   0  0  0  0  0  0  0  0  0  0  0  0
    9.1153    2.1467    0.3659 H   0  0  0  0  0  0  0  0  0  0  0  0
    9.4949    1.3821    1.9624 H   0  0  0  0  0  0  0  0  0  0  0  0
    4.4167   -2.2035   -1.3051 H   0  0  0  0  0  0  0  0  0  0  0  0
    3.4583   -1.3721   -2.5618 H   0  0  0  0  0  0  0  0  0  0  0  0
    5.0158   -0.6585   -2.0522 H   0  0  0  0  0  0  0  0  0  0  0  0
  2  1  1  0
  2  3  1  0
  3  4  1  0
  4  5  1  0
  5  6  1  0
  6  7  1  1
  6  8  1  0
  9  8  1  0
  9  6  1  0
  9 10  1  0
 10 11  1  0
 11 12  1  0
 12 13  1  0
 13 14  2  0
 13 15  1  0
 15 16  1  0
 16 17  1  0
 16 18  1  0
 18 19  1  0
 18 20  1  0
 18 21  1  0
 21 22  2  0
 21 23  1  0
 23 24  1  0
 23 25  1  0
 25  2  1  0
 25 26  1  0
 11 27  1  0
 27 28  2  3
 28 29  1  0
 29 30  2  0
 30 31  1  0
 31 32  1  0
 32 33  1  0
 32 34  2  0
 34 29  1  0
 27 35  1  0
  1 36  1  0
  1 37  1  0
  1 38  1  0
  2 39  1  1
  3 40  1  0
  3 41  1  0
  4 42  1  0
  4 43  1  0
  5 44  1  0
  5 45  1  0
  7 46  1  0
  7 47  1  0
  7 48  1  0
  9 49  1  1
 10 50  1  0
 10 51  1  0
 11 52  1  1
 12 53  1  0
 15 54  1  0
 15 55  1  0
 16 56  1  6
 17 57  1  0
 19 58  1  0
 19 59  1  0
 19 60  1  0
 20 61  1  0
 20 62  1  0
 20 63  1  0
 23 64  1  6
 24 65  1  0
 24 66  1  0
 24 67  1  0
 25 68  1  6
 26 69  1  0
 28 70  1  0
 30 71  1  0
 33 72  1  0
 33 73  1  0
 33 74  1  0
 35 75  1  0
 35 76  1  0
 35 77  1  0
M  END
> <ID>
HT1152

> <Class>
0.0

> <Clusters>
234

> <Fold>
1

$$$$