
     RDKit          3D

 77 81  0  0  0  0  0  0  0  0999 V2000
   -4.8424    1.8808    1.7216 C   0  0  0  0  0  0  0  0  0  0  0  0
   -4.7547    1.3446    0.2697 C   0  0  2  0  0  0  0  0  0  0  0  0
   -4.7968    2.5501   -0.7270 C   0  0  0  0  0  0  0  0  0  0  0  0
   -6.1611    3.2398   -0.7915 C   0  0  0  0  0  0  0  0  0  0  0  0
   -7.2417    2.2347   -1.0248 C   0  0  0  0  0  0  0  0  0  0  0  0
   -8.3034    2.5795   -1.6084 O   0  0  0  0  0  0  0  0  0  0  0  0
   -7.0919    0.8552   -0.5447 C   0  0  0  0  0  0  0  0  0  0  0  0
   -5.9659    0.4269    0.0546 C   0  0  0  0  0  0  0  0  0  0  0  0
   -5.9539   -0.9403    0.6941 C   0  0  0  0  0  0  0  0  0  0  0  0
   -4.6827   -1.6948    0.3227 C   0  0  0  0  0  0  0  0  0  0  0  0
   -3.4152   -0.8954    0.6931 C   0  0  1  0  0  0  0  0  0  0  0  0
   -2.1567   -1.6596    0.2047 C   0  0  2  0  0  0  0  0  0  0  0  0
   -1.9560   -3.0985    0.6502 C   0  0  0  0  0  0  0  0  0  0  0  0
   -0.4678   -3.3784    0.3786 C   0  0  0  0  0  0  0  0  0  0  0  0
    0.1904   -2.0279   -0.0526 C   0  0  2  0  0  0  0  0  0  0  0  0
    0.1950   -2.0166   -1.4659 O   0  0  0  0  0  0  0  0  0  0  0  0
    1.6348   -1.8979    0.4697 C   0  0  0  0  0  0  0  0  0  0  0  0
    2.1684   -2.8421    1.0359 O   0  0  0  0  0  0  0  0  0  0  0  0
    2.4446   -0.6383    0.2913 C   0  0  0  0  0  0  0  0  0  0  0  0
    3.8062   -0.9481    0.0027 O   0  0  0  0  0  0  0  0  0  0  0  0
    4.2439   -1.4479   -1.2277 C   0  0  0  0  0  0  0  0  0  0  0  0
    3.4354   -1.6124   -2.1810 O   0  0  0  0  0  0  0  0  0  0  0  0
    5.6971   -1.7594   -1.4203 C   0  0  0  0  0  0  0  0  0  0  0  0
    6.5138   -0.5102   -1.7910 C   0  0  0  0  0  0  0  0  0  0  0  0
    6.5379    0.5643   -0.6814 C   0  0  0  0  0  0  0  0  0  0  0  0
    7.3623    1.7817   -1.0763 C   0  0  0  0  0  0  0  0  0  0  0  0
    7.7272    2.4441    0.2417 C   0  0  0  0  0  0  0  0  0  0  0  0
    7.7520    1.3327    1.2896 C   0  0  0  0  0  0  0  0  0  0  0  0
    7.1706    0.0872    0.6245 C   0  0  0  0  0  0  0  0  0  0  0  0
   -0.8199   -0.9661    0.5192 C   0  0  2  0  0  0  0  0  0  0  0  0
   -0.5610   -0.7978    2.0575 C   0  0  0  0  0  0  0  0  0  0  0  0
   -0.8341    0.4210   -0.1900 C   0  0  0  0  0  0  0  0  0  0  0  0
   -2.0802    1.2864    0.1418 C   0  0  2  0  0  0  0  0  0  0  0  0
   -1.9125    1.9376    1.3753 O   0  0  0  0  0  0  0  0  0  0  0  0
   -3.4395    0.5048   -0.0072 C   0  0  2  0  0  0  0  0  0  0  0  0
   -5.8723    2.2306    1.9488 H   0  0  0  0  0  0  0  0  0  0  0  0
   -4.5982    1.0937    2.4630 H   0  0  0  0  0  0  0  0  0  0  0  0
   -4.1729    2.7509    1.8814 H   0  0  0  0  0  0  0  0  0  0  0  0
   -4.0383    3.3127   -0.4510 H   0  0  0  0  0  0  0  0  0  0  0  0
   -4.5475    2.2022   -1.7541 H   0  0  0  0  0  0  0  0  0  0  0  0
   -6.1524    3.9768   -1.6253 H   0  0  0  0  0  0  0  0  0  0  0  0
   -6.3647    3.7904    0.1523 H   0  0  0  0  0  0  0  0  0  0  0  0
   -7.9381    0.1879   -0.6543 H   0  0  0  0  0  0  0  0  0  0  0  0
   -6.8275   -1.5517    0.3738 H   0  0  0  0  0  0  0  0  0  0  0  0
   -6.0156   -0.8275    1.7985 H   0  0  0  0  0  0  0  0  0  0  0  0
   -4.6967   -1.9131   -0.7692 H   0  0  0  0  0  0  0  0  0  0  0  0
   -4.6878   -2.6648    0.8645 H   0  0  0  0  0  0  0  0  0  0  0  0
   -3.4050   -0.7820    1.7932 H   0  0  0  0  0  0  0  0  0  0  0  0
   -2.2586   -1.7156   -0.9070 H   0  0  0  0  0  0  0  0  0  0  0  0
   -2.1841   -3.2010    1.7337 H   0  0  0  0  0  0  0  0  0  0  0  0
   -2.6032   -3.7942    0.0730 H   0  0  0  0  0  0  0  0  0  0  0  0
   -0.0248   -3.7940    1.3093 H   0  0  0  0  0  0  0  0  0  0  0  0
   -0.3560   -4.1469   -0.4184 H   0  0  0  0  0  0  0  0  0  0  0  0
    0.7346   -1.2507   -1.7871 H   0  0  0  0  0  0  0  0  0  0  0  0
    2.0408    0.0186   -0.5021 H   0  0  0  0  0  0  0  0  0  0  0  0
    2.4171   -0.0648    1.2376 H   0  0  0  0  0  0  0  0  0  0  0  0
    5.8028   -2.5102   -2.2339 H   0  0  0  0  0  0  0  0  0  0  0  0
    6.0997   -2.2233   -0.4955 H   0  0  0  0  0  0  0  0  0  0  0  0
    7.5549   -0.8300   -2.0203 H   0  0  0  0  0  0  0  0  0  0  0  0
    6.0913   -0.0651   -2.7179 H   0  0  0  0  0  0  0  0  0  0  0  0
    5.5020    0.9150   -0.4746 H   0  0  0  0  0  0  0  0  0  0  0  0
    6.7882    2.4714   -1.7311 H   0  0  0  0  0  0  0  0  0  0  0  0
    8.2949    1.4686   -1.5958 H   0  0  0  0  0  0  0  0  0  0  0  0
    6.9455    3.1891    0.5093 H   0  0  0  0  0  0  0  0  0  0  0  0
    8.7081    2.9606    0.1755 H   0  0  0  0  0  0  0  0  0  0  0  0
    8.7937    1.1412    1.6301 H   0  0  0  0  0  0  0  0  0  0  0  0
    7.1364    1.6245    2.1699 H   0  0  0  0  0  0  0  0  0  0  0  0
    7.9922   -0.6338    0.4193 H   0  0  0  0  0  0  0  0  0  0  0  0
    6.4164   -0.4013    1.2792 H   0  0  0  0  0  0  0  0  0  0  0  0
   -1.4552   -0.5408    2.6424 H   0  0  0  0  0  0  0  0  0  0  0  0
    0.2063   -0.0199    2.2448 H   0  0  0  0  0  0  0  0  0  0  0  0
   -0.1905   -1.7337    2.5224 H   0  0  0  0  0  0  0  0  0  0  0  0
    0.0763    0.9986    0.0658 H   0  0  0  0  0  0  0  0  0  0  0  0
   -0.8291    0.2823   -1.2918 H   0  0  0  0  0  0  0  0  0  0  0  0
   -2.0829    2.0906   -0.6242 H   0  0  0  0  0  0  0  0  0  0  0  0
   -2.2542    1.3526    2.0914 H   0  0  0  0  0  0  0  0  0  0  0  0
   -3.4874    0.2662   -1.0965 H   0  0  0  0  0  0  0  0  0  0  0  0
  2  1  1  1
  2  3  1  0
  3  4  1  0
  4  5  1  0
  5  6  2  0
  5  7  1  0
  7  8  2  0
  8  2  1  0
  8  9  1  0
  9 10  1  0
 11 10  1  0
 11 12  1  0
 12 13  1  0
 13 14  1  0
 14 15  1  0
 15 16  1  6
 15 17  1  0
 17 18  2  0
 17 19  1  0
 19 20  1  0
 20 21  1  0
 21 22  2  0
 21 23  1  0
 23 24  1  0
 24 25  1  0
 25 26  1  0
 26 27  1  0
 27 28  1  0
 28 29  1  0
 29 25  1  0
 15 30  1  0
 30 12  1  0
 30 31  1  1
 30 32  1  0
 32 33  1  0
 33 34  1  0
 33 35  1  0
 35  2  1  0
 35 11  1  0
  1 36  1  0
  1 37  1  0
  1 38  1  0
  3 39  1  0
  3 40  1  0
  4 41  1  0
  4 42  1  0
  7 43  1  0
  9 44  1  0
  9 45  1  0
 10 46  1  0
 10 47  1  0
 11 48  1  1
 12 49  1  6
 13 50  1  0
 13 51  1  0
 14 52  1  0
 14 53  1  0
 16 54  1  0
 19 55  1  0
 19 56  1  0
 23 57  1  0
 23 58  1  0
 24 59  1  0
 24 60  1  0
 25 61  1  0
 26 62  1  0
 26 63  1  0
 27 64  1  0
 27 65  1  0
 28 66  1  0
 28 67  1  0
 29 68  1  0
 29 69  1  0
 31 70  1  0
 31 71  1  0
 31 72  1  0
 32 73  1  0
 32 74  1  0
 33 75  1  6
 34 76  1  0
 35 77  1  6
M  END
> <ID>
HT1050

> <Class>
0.0

> <Clusters>
129

> <Fold>
1

$$$$