
     RDKit          3D

 23 24  0  0  0  0  0  0  0  0999 V2000
   -4.1399    0.9301    0.3861 O   0  0  0  0  0  0  0  0  0  0  0  0
   -2.9056    0.6802    0.3254 C   0  0  0  0  0  0  0  0  0  0  0  0
   -2.0927    1.0509    1.3529 N   0  0  0  0  0  0  0  0  0  0  0  0
   -2.3682    0.0234   -0.7937 C   0  0  0  0  0  0  0  0  0  0  0  0
   -3.2005   -0.3735   -1.8900 N   0  0  0  0  0  0  0  0  0  0  0  0
   -0.9938   -0.2394   -0.8285 C   0  0  0  0  0  0  0  0  0  0  0  0
   -0.1673    0.1488    0.2379 C   0  0  0  0  0  0  0  0  0  0  0  0
   -0.7551    0.8033    1.3327 C   0  0  0  0  0  0  0  0  0  0  0  0
    1.2924   -0.1260    0.2091 C   0  0  0  0  0  0  0  0  0  0  0  0
    2.2107    0.8254    0.6863 C   0  0  0  0  0  0  0  0  0  0  0  0
    1.7833   -1.3426   -0.2961 C   0  0  0  0  0  0  0  0  0  0  0  0
    3.5791    0.5466    0.6492 C   0  0  0  0  0  0  0  0  0  0  0  0
    3.1597   -1.5803   -0.3133 C   0  0  0  0  0  0  0  0  0  0  0  0
    4.0210   -0.6395    0.1550 N   0  0  0  0  0  0  0  0  0  0  0  0
   -2.5012    1.5361    2.1837 H   0  0  0  0  0  0  0  0  0  0  0  0
   -4.2279   -0.1868   -1.8872 H   0  0  0  0  0  0  0  0  0  0  0  0
   -2.7929   -0.8611   -2.7188 H   0  0  0  0  0  0  0  0  0  0  0  0
   -0.5698   -0.7297   -1.6963 H   0  0  0  0  0  0  0  0  0  0  0  0
   -0.1516    1.1014    2.1812 H   0  0  0  0  0  0  0  0  0  0  0  0
    1.8764    1.7821    1.0674 H   0  0  0  0  0  0  0  0  0  0  0  0
    1.1098   -2.1096   -0.6571 H   0  0  0  0  0  0  0  0  0  0  0  0
    4.2909    1.2764    1.0110 H   0  0  0  0  0  0  0  0  0  0  0  0
    3.5433   -2.5163   -0.6969 H   0  0  0  0  0  0  0  0  0  0  0  0
  1  2  2  0
  2  3  1  0
  2  4  1  0
  5  4  1  0
  4  6  2  0
  6  7  1  0
  7  8  2  0
  7  9  1  0
  8  3  1  0
  9 10  2  0
 11  9  1  0
 10 12  1  0
 13 11  2  0
 12 14  2  0
 14 13  1  0
  3 15  1  0
  5 16  1  0
  5 17  1  0
  6 18  1  0
  8 19  1  0
 10 20  1  0
 11 21  1  0
 12 22  1  0
 13 23  1  0
M  END
> <ID>
HT1086

> <Class>
0.0

> <Clusters>
172

> <Fold>
1

$$$$