
     RDKit          3D

 70 73  0  0  0  0  0  0  0  0999 V2000
    5.4484   -0.6254   -3.2858 C   0  0  0  0  0  0  0  0  0  0  0  0
    4.9209   -1.7960   -2.4621 C   0  0  0  0  0  0  0  0  0  0  0  0
    3.4218   -2.0194   -2.7120 C   0  0  0  0  0  0  0  0  0  0  0  0
    2.8649   -3.1680   -1.8607 C   0  0  0  0  0  0  0  0  0  0  0  0
    2.7709   -2.7821   -0.4169 C   0  0  0  0  0  0  0  0  0  0  0  0
    3.4686   -3.3883    0.4410 O   0  0  0  0  0  0  0  0  0  0  0  0
    1.9084   -1.7414   -0.0422 O   0  0  0  0  0  0  0  0  0  0  0  0
    1.7605   -1.2222    1.2909 C   0  0  2  0  0  0  0  0  0  0  0  0
    1.0828   -2.3130    2.1868 C   0  0  0  0  0  0  0  0  0  0  0  0
   -0.4253   -2.0056    2.2141 C   0  0  0  0  0  0  0  0  0  0  0  0
   -0.6006   -0.8981    1.1857 C   0  0  1  0  0  0  0  0  0  0  0  0
   -1.9027   -0.0556    1.2033 C   0  0  2  0  0  0  0  0  0  0  0  0
   -3.1268   -0.9912    1.1074 C   0  0  0  0  0  0  0  0  0  0  0  0
   -4.4277   -0.2006    1.0413 C   0  0  0  0  0  0  0  0  0  0  0  0
   -4.4012    0.7666   -0.1164 C   0  0  0  0  0  0  0  0  0  0  0  0
   -5.4816    0.8555   -0.9139 C   0  0  0  0  0  0  0  0  0  0  0  0
   -5.5937    1.8826   -1.9575 C   0  0  0  0  0  0  0  0  0  0  0  0
   -6.6134    1.9125   -2.6963 O   0  0  0  0  0  0  0  0  0  0  0  0
   -4.5447    2.9378   -2.0943 C   0  0  0  0  0  0  0  0  0  0  0  0
   -3.1853    2.3944   -1.6488 C   0  0  0  0  0  0  0  0  0  0  0  0
   -3.2168    1.7373   -0.2295 C   0  0  1  0  0  0  0  0  0  0  0  0
   -3.4289    2.8394    0.8390 C   0  0  0  0  0  0  0  0  0  0  0  0
   -1.8748    0.9171   -0.0237 C   0  0  1  0  0  0  0  0  0  0  0  0
   -0.5368    1.7457   -0.1236 C   0  0  1  0  0  0  0  0  0  0  0  0
   -0.4888    2.8754    0.7098 O   0  0  0  0  0  0  0  0  0  0  0  0
    0.7446    0.8838    0.0586 C   0  0  0  0  0  0  0  0  0  0  0  0
    0.6922   -0.0735    1.2860 C   0  0  2  0  0  0  0  0  0  0  0  0
    0.8030    0.7365    2.6253 C   0  0  0  0  0  0  0  0  0  0  0  0
    3.1335   -0.7641    1.7984 C   0  0  0  0  0  0  0  0  0  0  0  0
    3.5455   -1.1279    2.8895 O   0  0  0  0  0  0  0  0  0  0  0  0
    4.0257    0.1059    0.9526 C   0  0  0  0  0  0  0  0  0  0  0  0
    4.1967    1.3580    1.5595 O   0  0  0  0  0  0  0  0  0  0  0  0
    4.9164    0.3106   -3.0130 H   0  0  0  0  0  0  0  0  0  0  0  0
    6.5325   -0.4893   -3.0838 H   0  0  0  0  0  0  0  0  0  0  0  0
    5.3123   -0.8246   -4.3701 H   0  0  0  0  0  0  0  0  0  0  0  0
    5.1021   -1.5846   -1.3870 H   0  0  0  0  0  0  0  0  0  0  0  0
    5.4863   -2.7139   -2.7371 H   0  0  0  0  0  0  0  0  0  0  0  0
    2.8563   -1.0839   -2.4994 H   0  0  0  0  0  0  0  0  0  0  0  0
    3.2688   -2.2703   -3.7846 H   0  0  0  0  0  0  0  0  0  0  0  0
    1.8466   -3.4265   -2.2197 H   0  0  0  0  0  0  0  0  0  0  0  0
    3.5044   -4.0696   -1.9790 H   0  0  0  0  0  0  0  0  0  0  0  0
    1.2481   -3.3338    1.7814 H   0  0  0  0  0  0  0  0  0  0  0  0
    1.4614   -2.3055    3.2309 H   0  0  0  0  0  0  0  0  0  0  0  0
   -0.7359   -1.6512    3.2217 H   0  0  0  0  0  0  0  0  0  0  0  0
   -1.0184   -2.9062    1.9428 H   0  0  0  0  0  0  0  0  0  0  0  0
   -0.6003   -1.4216    0.1973 H   0  0  0  0  0  0  0  0  0  0  0  0
   -1.9926    0.5133    2.1478 H   0  0  0  0  0  0  0  0  0  0  0  0
   -3.0489   -1.6418    0.2074 H   0  0  0  0  0  0  0  0  0  0  0  0
   -3.1687   -1.6495    2.0022 H   0  0  0  0  0  0  0  0  0  0  0  0
   -4.5624    0.3667    1.9869 H   0  0  0  0  0  0  0  0  0  0  0  0
   -5.2747   -0.9169    0.9610 H   0  0  0  0  0  0  0  0  0  0  0  0
   -6.3153    0.1763   -0.7814 H   0  0  0  0  0  0  0  0  0  0  0  0
   -4.8283    3.8195   -1.4813 H   0  0  0  0  0  0  0  0  0  0  0  0
   -4.4778    3.2663   -3.1539 H   0  0  0  0  0  0  0  0  0  0  0  0
   -2.4527    3.2293   -1.6760 H   0  0  0  0  0  0  0  0  0  0  0  0
   -2.8587    1.6467   -2.4060 H   0  0  0  0  0  0  0  0  0  0  0  0
   -3.2348    2.4580    1.8627 H   0  0  0  0  0  0  0  0  0  0  0  0
   -2.7860    3.7239    0.6522 H   0  0  0  0  0  0  0  0  0  0  0  0
   -4.4779    3.2059    0.8239 H   0  0  0  0  0  0  0  0  0  0  0  0
   -1.8278    0.2374   -0.9073 H   0  0  0  0  0  0  0  0  0  0  0  0
   -0.4760    2.1349   -1.1623 H   0  0  0  0  0  0  0  0  0  0  0  0
   -0.8745    2.6361    1.5849 H   0  0  0  0  0  0  0  0  0  0  0  0
    1.6247    1.5581    0.1334 H   0  0  0  0  0  0  0  0  0  0  0  0
    0.8787    0.2950   -0.8746 H   0  0  0  0  0  0  0  0  0  0  0  0
    1.1094    0.0927    3.4752 H   0  0  0  0  0  0  0  0  0  0  0  0
    1.5648    1.5390    2.5351 H   0  0  0  0  0  0  0  0  0  0  0  0
   -0.1382    1.1980    2.9575 H   0  0  0  0  0  0  0  0  0  0  0  0
    5.0087   -0.3968    0.8106 H   0  0  0  0  0  0  0  0  0  0  0  0
    3.5895    0.2561   -0.0562 H   0  0  0  0  0  0  0  0  0  0  0  0
    4.8998    1.2461    2.2522 H   0  0  0  0  0  0  0  0  0  0  0  0
  1  2  1  0
  2  3  1  0
  3  4  1  0
  4  5  1  0
  5  6  2  0
  5  7  1  0
  8  7  1  6
  8  9  1  0
  9 10  1  0
 11 10  1  0
 11 12  1  0
 12 13  1  0
 13 14  1  0
 14 15  1  0
 15 16  2  0
 16 17  1  0
 17 18  2  0
 17 19  1  0
 19 20  1  0
 20 21  1  0
 21 15  1  0
 21 22  1  1
 21 23  1  0
 23 12  1  0
 23 24  1  0
 24 25  1  0
 24 26  1  0
 26 27  1  0
 27  8  1  0
 27 11  1  0
 27 28  1  1
  8 29  1  0
 29 30  2  0
 29 31  1  0
 31 32  1  0
  1 33  1  0
  1 34  1  0
  1 35  1  0
  2 36  1  0
  2 37  1  0
  3 38  1  0
  3 39  1  0
  4 40  1  0
  4 41  1  0
  9 42  1  0
  9 43  1  0
 10 44  1  0
 10 45  1  0
 11 46  1  6
 12 47  1  1
 13 48  1  0
 13 49  1  0
 14 50  1  0
 14 51  1  0
 16 52  1  0
 19 53  1  0
 19 54  1  0
 20 55  1  0
 20 56  1  0
 22 57  1  0
 22 58  1  0
 22 59  1  0
 23 60  1  6
 24 61  1  6
 25 62  1  0
 26 63  1  0
 26 64  1  0
 28 65  1  0
 28 66  1  0
 28 67  1  0
 31 68  1  0
 31 69  1  0
 32 70  1  0
M  END
> <ID>
HT1054

> <Class>
0.0

> <Clusters>
129

> <Fold>
1

$$$$