
     RDKit          3D

 69 71  0  0  0  0  0  0  0  0999 V2000
    4.2398    0.4159   -3.0300 N   0  0  0  0  0  0  0  0  0  0  0  0
    5.0322    0.2999   -1.8064 C   0  0  0  0  0  0  0  0  0  0  0  0
    4.9503   -1.1348   -1.2330 C   0  0  0  0  0  0  0  0  0  0  0  0
    3.6064   -1.5642   -1.0385 O   0  0  0  0  0  0  0  0  0  0  0  0
    2.9325   -0.9482    0.0565 C   0  0  0  0  0  0  0  0  0  0  0  0
    2.3911    0.2940   -0.3643 O   0  0  0  0  0  0  0  0  0  0  0  0
    1.2356    0.6732    0.3734 C   0  0  0  0  0  0  0  0  0  0  0  0
    1.4589    2.0613    1.0583 C   0  0  0  0  0  0  0  0  0  0  0  0
    2.4358    2.8914    0.3446 N   0  0  0  0  0  0  0  0  0  0  0  0
    0.1494    2.8699    1.2291 C   0  0  0  0  0  0  0  0  0  0  0  0
   -1.0677    1.9462    1.4231 C   0  0  0  0  0  0  0  0  0  0  0  0
   -2.2771    2.7210    1.7160 N   0  0  0  0  0  0  0  0  0  0  0  0
   -1.3022    1.0417    0.1813 C   0  0  0  0  0  0  0  0  0  0  0  0
   -1.9050   -0.1681    0.6228 O   0  0  0  0  0  0  0  0  0  0  0  0
   -3.2413   -0.2814    0.1706 C   0  0  0  0  0  0  0  0  0  0  0  0
   -3.2382   -0.5154   -1.2309 O   0  0  0  0  0  0  0  0  0  0  0  0
   -4.5501   -0.5766   -1.7768 C   0  0  0  0  0  0  0  0  0  0  0  0
   -5.2383    0.8068   -1.8421 C   0  0  0  0  0  0  0  0  0  0  0  0
   -4.3667    1.7675   -2.3739 O   0  0  0  0  0  0  0  0  0  0  0  0
   -5.4187   -1.6795   -1.1169 C   0  0  0  0  0  0  0  0  0  0  0  0
   -4.9600   -2.9321   -1.5607 O   0  0  0  0  0  0  0  0  0  0  0  0
   -5.3608   -1.6278    0.4315 C   0  0  0  0  0  0  0  0  0  0  0  0
   -6.2059   -0.5460    0.9468 N   0  0  0  0  0  0  0  0  0  0  0  0
   -3.9076   -1.4538    0.9124 C   0  0  0  0  0  0  0  0  0  0  0  0
   -3.1929   -2.6428    0.6803 O   0  0  0  0  0  0  0  0  0  0  0  0
    0.0198    0.7238   -0.5784 C   0  0  0  0  0  0  0  0  0  0  0  0
   -0.0973   -0.4578   -1.3341 O   0  0  0  0  0  0  0  0  0  0  0  0
    3.8227   -0.7640    1.3185 C   0  0  0  0  0  0  0  0  0  0  0  0
    3.0789   -0.9552    2.4984 O   0  0  0  0  0  0  0  0  0  0  0  0
    5.0193   -1.7158    1.2636 C   0  0  0  0  0  0  0  0  0  0  0  0
    5.7928   -1.5789    2.4283 O   0  0  0  0  0  0  0  0  0  0  0  0
    5.8574   -1.3981    0.0131 C   0  0  0  0  0  0  0  0  0  0  0  0
    6.6918   -0.2922    0.2753 O   0  0  0  0  0  0  0  0  0  0  0  0
    4.4202    1.3644   -3.4325 H   0  0  0  0  0  0  0  0  0  0  0  0
    3.2257    0.3966   -2.7760 H   0  0  0  0  0  0  0  0  0  0  0  0
    4.6988    1.0515   -1.0583 H   0  0  0  0  0  0  0  0  0  0  0  0
    6.0931    0.5257   -2.0584 H   0  0  0  0  0  0  0  0  0  0  0  0
    5.3567   -1.7836   -2.0408 H   0  0  0  0  0  0  0  0  0  0  0  0
    2.1189   -1.6678    0.3052 H   0  0  0  0  0  0  0  0  0  0  0  0
    0.9778   -0.0454    1.1890 H   0  0  0  0  0  0  0  0  0  0  0  0
    1.8641    1.8625    2.0775 H   0  0  0  0  0  0  0  0  0  0  0  0
    3.3887    2.4753    0.4587 H   0  0  0  0  0  0  0  0  0  0  0  0
    2.2059    2.9070   -0.6772 H   0  0  0  0  0  0  0  0  0  0  0  0
   -0.0255    3.5069    0.3326 H   0  0  0  0  0  0  0  0  0  0  0  0
    0.2554    3.5487    2.1045 H   0  0  0  0  0  0  0  0  0  0  0  0
   -0.8563    1.2959    2.3030 H   0  0  0  0  0  0  0  0  0  0  0  0
   -2.1401    3.2284    2.6212 H   0  0  0  0  0  0  0  0  0  0  0  0
   -2.4140    3.4445    0.9723 H   0  0  0  0  0  0  0  0  0  0  0  0
   -1.9347    1.6070   -0.5487 H   0  0  0  0  0  0  0  0  0  0  0  0
   -3.7932    0.6510    0.4312 H   0  0  0  0  0  0  0  0  0  0  0  0
   -4.4253   -0.8815   -2.8391 H   0  0  0  0  0  0  0  0  0  0  0  0
   -6.1562    0.7396   -2.4698 H   0  0  0  0  0  0  0  0  0  0  0  0
   -5.5658    1.1502   -0.8427 H   0  0  0  0  0  0  0  0  0  0  0  0
   -4.2783    1.5670   -3.3439 H   0  0  0  0  0  0  0  0  0  0  0  0
   -6.4737   -1.5493   -1.4585 H   0  0  0  0  0  0  0  0  0  0  0  0
   -5.6858   -3.5866   -1.3871 H   0  0  0  0  0  0  0  0  0  0  0  0
   -5.7507   -2.5904    0.8385 H   0  0  0  0  0  0  0  0  0  0  0  0
   -6.2102   -0.5937    1.9929 H   0  0  0  0  0  0  0  0  0  0  0  0
   -7.1931   -0.7264    0.6497 H   0  0  0  0  0  0  0  0  0  0  0  0
   -3.9182   -1.2345    2.0074 H   0  0  0  0  0  0  0  0  0  0  0  0
   -2.4298   -2.6540    1.3155 H   0  0  0  0  0  0  0  0  0  0  0  0
    0.2035    1.5472   -1.3046 H   0  0  0  0  0  0  0  0  0  0  0  0
   -0.0971   -1.2251   -0.7051 H   0  0  0  0  0  0  0  0  0  0  0  0
    4.2131    0.2777    1.3375 H   0  0  0  0  0  0  0  0  0  0  0  0
    2.7808   -1.9023    2.5185 H   0  0  0  0  0  0  0  0  0  0  0  0
    4.6378   -2.7629    1.1942 H   0  0  0  0  0  0  0  0  0  0  0  0
    6.4195   -2.3511    2.4470 H   0  0  0  0  0  0  0  0  0  0  0  0
    6.4771   -2.3067   -0.1905 H   0  0  0  0  0  0  0  0  0  0  0  0
    7.6262   -0.5657    0.0749 H   0  0  0  0  0  0  0  0  0  0  0  0
  1  2  1  0
  2  3  1  0
  3  4  1  0
  4  5  1  0
  5  6  1  0
  6  7  1  0
  7  8  1  0
  8  9  1  0
  8 10  1  0
 10 11  1  0
 11 12  1  0
 11 13  1  0
 13 14  1  0
 14 15  1  0
 15 16  1  0
 16 17  1  0
 17 18  1  0
 18 19  1  0
 17 20  1  0
 20 21  1  0
 20 22  1  0
 22 23  1  0
 22 24  1  0
 24 15  1  0
 24 25  1  0
 13 26  1  0
 26  7  1  0
 26 27  1  0
  5 28  1  0
 28 29  1  0
 28 30  1  0
 30 31  1  0
 30 32  1  0
 32  3  1  0
 32 33  1  0
  1 34  1  0
  1 35  1  0
  2 36  1  0
  2 37  1  0
  3 38  1  0
  5 39  1  0
  7 40  1  0
  8 41  1  0
  9 42  1  0
  9 43  1  0
 10 44  1  0
 10 45  1  0
 11 46  1  0
 12 47  1  0
 12 48  1  0
 13 49  1  0
 15 50  1  0
 17 51  1  0
 18 52  1  0
 18 53  1  0
 19 54  1  0
 20 55  1  0
 21 56  1  0
 22 57  1  0
 23 58  1  0
 23 59  1  0
 24 60  1  0
 25 61  1  0
 26 62  1  0
 27 63  1  0
 28 64  1  0
 29 65  1  0
 30 66  1  0
 31 67  1  0
 32 68  1  0
 33 69  1  0
M  END
> <ID>
HT1154

> <Class>
0.0

> <Clusters>
141

> <Fold>
1

$$$$