
     RDKit          3D

 56 59  0  0  0  0  0  0  0  0999 V2000
   -3.6350   -1.3826    1.1279 C   0  0  0  0  0  0  0  0  0  0  0  0
   -2.6329   -0.3837    0.4913 C   0  0  1  0  0  0  0  0  0  0  0  0
   -2.6699   -0.4955   -1.0664 C   0  0  0  0  0  0  0  0  0  0  0  0
   -4.0419   -0.1349   -1.6603 C   0  0  0  0  0  0  0  0  0  0  0  0
   -4.6099    1.1095   -1.0429 C   0  0  0  0  0  0  0  0  0  0  0  0
   -5.6015    1.6703   -1.5797 O   0  0  0  0  0  0  0  0  0  0  0  0
   -4.0312    1.6820    0.1819 C   0  0  0  0  0  0  0  0  0  0  0  0
   -3.0906    1.0280    0.8841 C   0  0  0  0  0  0  0  0  0  0  0  0
   -2.4339    1.6973    2.0668 C   0  0  0  0  0  0  0  0  0  0  0  0
   -0.9082    1.7935    1.8687 C   0  0  0  0  0  0  0  0  0  0  0  0
   -0.3241    0.6842    0.9456 C   0  0  1  0  0  0  0  0  0  0  0  0
    1.1890    0.4070    1.2058 C   0  0  2  0  0  0  0  0  0  0  0  0
    2.0577    1.6596    1.0857 C   0  0  0  0  0  0  0  0  0  0  0  0
    2.4329    1.7652   -0.3783 C   0  0  0  0  0  0  0  0  0  0  0  0
    2.5096    0.3252   -0.9356 C   0  0  1  0  0  0  0  0  0  0  0  0
    1.7828    0.3452   -2.1486 O   0  0  0  0  0  0  0  0  0  0  0  0
    3.9762   -0.0555   -1.2543 C   0  0  0  0  0  0  0  0  0  0  0  0
    4.2196   -0.6922   -2.2696 O   0  0  0  0  0  0  0  0  0  0  0  0
    5.1541    0.3384   -0.3900 C   0  0  0  0  0  0  0  0  0  0  0  0
    5.8823   -0.7990   -0.0121 O   0  0  0  0  0  0  0  0  0  0  0  0
    1.7964   -0.5938    0.1647 C   0  0  1  0  0  0  0  0  0  0  0  0
    2.8154   -1.5019    0.9146 C   0  0  0  0  0  0  0  0  0  0  0  0
    0.6828   -1.5305   -0.4321 C   0  0  0  0  0  0  0  0  0  0  0  0
   -0.3866   -1.8937    0.6129 C   0  0  2  0  0  0  0  0  0  0  0  0
   -1.2309   -2.8975    0.1168 O   0  0  0  0  0  0  0  0  0  0  0  0
   -1.1765   -0.6227    1.0791 C   0  0  2  0  0  0  0  0  0  0  0  0
   -4.6845   -1.0957    0.9055 H   0  0  0  0  0  0  0  0  0  0  0  0
   -3.4951   -2.4129    0.7482 H   0  0  0  0  0  0  0  0  0  0  0  0
   -3.5314   -1.3977    2.2339 H   0  0  0  0  0  0  0  0  0  0  0  0
   -2.4169   -1.5157   -1.4133 H   0  0  0  0  0  0  0  0  0  0  0  0
   -1.9217    0.1931   -1.5115 H   0  0  0  0  0  0  0  0  0  0  0  0
   -4.7565   -0.9726   -1.5135 H   0  0  0  0  0  0  0  0  0  0  0  0
   -3.9251    0.0219   -2.7545 H   0  0  0  0  0  0  0  0  0  0  0  0
   -4.3642    2.6642    0.4957 H   0  0  0  0  0  0  0  0  0  0  0  0
   -2.6507    1.0908    2.9728 H   0  0  0  0  0  0  0  0  0  0  0  0
   -2.8457    2.7135    2.2548 H   0  0  0  0  0  0  0  0  0  0  0  0
   -0.6850    2.7866    1.4217 H   0  0  0  0  0  0  0  0  0  0  0  0
   -0.4231    1.7567    2.8687 H   0  0  0  0  0  0  0  0  0  0  0  0
   -0.4091    1.0583   -0.0973 H   0  0  0  0  0  0  0  0  0  0  0  0
    1.2751    0.0157    2.2459 H   0  0  0  0  0  0  0  0  0  0  0  0
    1.5712    2.5893    1.4412 H   0  0  0  0  0  0  0  0  0  0  0  0
    2.9750    1.5248    1.6970 H   0  0  0  0  0  0  0  0  0  0  0  0
    1.6276    2.3387   -0.8915 H   0  0  0  0  0  0  0  0  0  0  0  0
    3.3657    2.3537   -0.5129 H   0  0  0  0  0  0  0  0  0  0  0  0
    1.8612   -0.5424   -2.5869 H   0  0  0  0  0  0  0  0  0  0  0  0
    4.8329    0.8605    0.5294 H   0  0  0  0  0  0  0  0  0  0  0  0
    5.8036    1.0447   -0.9554 H   0  0  0  0  0  0  0  0  0  0  0  0
    6.4574   -1.0423   -0.7840 H   0  0  0  0  0  0  0  0  0  0  0  0
    3.3299   -2.1893    0.2099 H   0  0  0  0  0  0  0  0  0  0  0  0
    3.5717   -0.8988    1.4548 H   0  0  0  0  0  0  0  0  0  0  0  0
    2.3212   -2.1300    1.6823 H   0  0  0  0  0  0  0  0  0  0  0  0
    0.1341   -1.0539   -1.2664 H   0  0  0  0  0  0  0  0  0  0  0  0
    1.1423   -2.4546   -0.8470 H   0  0  0  0  0  0  0  0  0  0  0  0
    0.1278   -2.3055    1.5107 H   0  0  0  0  0  0  0  0  0  0  0  0
   -0.7100   -3.7431    0.1117 H   0  0  0  0  0  0  0  0  0  0  0  0
   -1.3035   -0.7795    2.1760 H   0  0  0  0  0  0  0  0  0  0  0  0
  2  1  1  1
  2  3  1  0
  3  4  1  0
  4  5  1  0
  5  6  2  0
  5  7  1  0
  7  8  2  0
  8  2  1  0
  8  9  1  0
  9 10  1  0
 11 10  1  0
 11 12  1  0
 12 13  1  0
 13 14  1  0
 14 15  1  0
 15 16  1  6
 15 17  1  0
 17 18  2  0
 17 19  1  0
 19 20  1  0
 15 21  1  0
 21 12  1  0
 21 22  1  1
 21 23  1  0
 23 24  1  0
 24 25  1  0
 24 26  1  0
 26  2  1  0
 26 11  1  0
  1 27  1  0
  1 28  1  0
  1 29  1  0
  3 30  1  0
  3 31  1  0
  4 32  1  0
  4 33  1  0
  7 34  1  0
  9 35  1  0
  9 36  1  0
 10 37  1  0
 10 38  1  0
 11 39  1  6
 12 40  1  1
 13 41  1  0
 13 42  1  0
 14 43  1  0
 14 44  1  0
 16 45  1  0
 19 46  1  0
 19 47  1  0
 20 48  1  0
 22 49  1  0
 22 50  1  0
 22 51  1  0
 23 52  1  0
 23 53  1  0
 24 54  1  1
 25 55  1  0
 26 56  1  1
M  END
> <ID>
HT1047

> <Class>
0.0

> <Clusters>
129

> <Fold>
1

$$$$