
     RDKit          3D

 71 74  0  0  0  0  0  0  0  0999 V2000
    7.3146    1.1639    0.7716 C   0  0  0  0  0  0  0  0  0  0  0  0
    6.0122    0.9476    1.5372 C   0  0  0  0  0  0  0  0  0  0  0  0
    5.6233   -0.5372    1.5560 C   0  0  0  0  0  0  0  0  0  0  0  0
    4.4979   -0.8410    2.5635 C   0  0  0  0  0  0  0  0  0  0  0  0
    3.1432   -0.1963    2.2150 C   0  0  0  0  0  0  0  0  0  0  0  0
    2.6095   -0.6483    0.8900 C   0  0  0  0  0  0  0  0  0  0  0  0
    2.5734   -1.8791    0.6227 O   0  0  0  0  0  0  0  0  0  0  0  0
    2.1253    0.3099   -0.0164 O   0  0  0  0  0  0  0  0  0  0  0  0
    1.6246    0.0586   -1.3442 C   0  0  2  0  0  0  0  0  0  0  0  0
    1.5073    1.4441   -2.0464 C   0  0  0  0  0  0  0  0  0  0  0  0
    0.0652    1.9441   -1.8505 C   0  0  0  0  0  0  0  0  0  0  0  0
   -0.5809    0.9011   -0.9486 C   0  0  1  0  0  0  0  0  0  0  0  0
   -2.1261    0.8052   -0.9338 C   0  0  2  0  0  0  0  0  0  0  0  0
   -2.7532    2.1475   -0.5101 C   0  0  0  0  0  0  0  0  0  0  0  0
   -4.2774    2.0487   -0.4884 C   0  0  0  0  0  0  0  0  0  0  0  0
   -4.7285    0.9179    0.4087 C   0  0  0  0  0  0  0  0  0  0  0  0
   -5.7171    1.1453    1.2901 C   0  0  0  0  0  0  0  0  0  0  0  0
   -6.2910    0.0685    2.1082 C   0  0  0  0  0  0  0  0  0  0  0  0
   -7.1694    0.3360    2.9707 O   0  0  0  0  0  0  0  0  0  0  0  0
   -5.9010   -1.3502    1.8576 C   0  0  0  0  0  0  0  0  0  0  0  0
   -4.4395   -1.4087    1.4115 C   0  0  0  0  0  0  0  0  0  0  0  0
   -4.1207   -0.4757    0.1963 C   0  0  1  0  0  0  0  0  0  0  0  0
   -4.7451   -1.0819   -1.0841 C   0  0  0  0  0  0  0  0  0  0  0  0
   -2.5544   -0.3148    0.0722 C   0  0  1  0  0  0  0  0  0  0  0  0
   -1.8015   -1.6539   -0.1848 C   0  0  0  0  0  0  0  0  0  0  0  0
   -0.2712   -1.4668   -0.2578 C   0  0  0  0  0  0  0  0  0  0  0  0
    0.1223   -0.4176   -1.3252 C   0  0  2  0  0  0  0  0  0  0  0  0
   -0.3016   -0.9439   -2.7448 C   0  0  0  0  0  0  0  0  0  0  0  0
    2.6189   -0.8411   -2.0852 C   0  0  0  0  0  0  0  0  0  0  0  0
    2.3851   -2.0296   -2.2417 O   0  0  0  0  0  0  0  0  0  0  0  0
    3.9627   -0.3222   -2.5118 C   0  0  0  0  0  0  0  0  0  0  0  0
    8.1415    0.6068    1.2645 H   0  0  0  0  0  0  0  0  0  0  0  0
    7.5749    2.2443    0.7603 H   0  0  0  0  0  0  0  0  0  0  0  0
    7.2068    0.8128   -0.2789 H   0  0  0  0  0  0  0  0  0  0  0  0
    5.2123    1.5432    1.0408 H   0  0  0  0  0  0  0  0  0  0  0  0
    6.1336    1.3232    2.5722 H   0  0  0  0  0  0  0  0  0  0  0  0
    5.3206   -0.8528    0.5345 H   0  0  0  0  0  0  0  0  0  0  0  0
    6.5060   -1.1508    1.8507 H   0  0  0  0  0  0  0  0  0  0  0  0
    4.3596   -1.9445    2.6276 H   0  0  0  0  0  0  0  0  0  0  0  0
    4.8135   -0.5012    3.5733 H   0  0  0  0  0  0  0  0  0  0  0  0
    3.2382    0.9085    2.2324 H   0  0  0  0  0  0  0  0  0  0  0  0
    2.4093   -0.4788    2.9986 H   0  0  0  0  0  0  0  0  0  0  0  0
    1.7022    1.3593   -3.1356 H   0  0  0  0  0  0  0  0  0  0  0  0
    2.2393    2.1698   -1.6331 H   0  0  0  0  0  0  0  0  0  0  0  0
   -0.4602    1.9828   -2.8312 H   0  0  0  0  0  0  0  0  0  0  0  0
    0.0458    2.9556   -1.3851 H   0  0  0  0  0  0  0  0  0  0  0  0
   -0.2822    1.1747    0.0925 H   0  0  0  0  0  0  0  0  0  0  0  0
   -2.4948    0.5809   -1.9552 H   0  0  0  0  0  0  0  0  0  0  0  0
   -2.3850    2.4465    0.4981 H   0  0  0  0  0  0  0  0  0  0  0  0
   -2.4688    2.9427   -1.2325 H   0  0  0  0  0  0  0  0  0  0  0  0
   -4.6462    1.8587   -1.5185 H   0  0  0  0  0  0  0  0  0  0  0  0
   -4.6949    3.0277   -0.1616 H   0  0  0  0  0  0  0  0  0  0  0  0
   -6.1353    2.1408    1.3995 H   0  0  0  0  0  0  0  0  0  0  0  0
   -6.0183   -1.9487    2.7871 H   0  0  0  0  0  0  0  0  0  0  0  0
   -6.5683   -1.7883    1.0838 H   0  0  0  0  0  0  0  0  0  0  0  0
   -4.1923   -2.4667    1.1804 H   0  0  0  0  0  0  0  0  0  0  0  0
   -3.8123   -1.1140    2.2826 H   0  0  0  0  0  0  0  0  0  0  0  0
   -5.8560   -1.0586   -1.0298 H   0  0  0  0  0  0  0  0  0  0  0  0
   -4.4575   -0.5152   -1.9906 H   0  0  0  0  0  0  0  0  0  0  0  0
   -4.4471   -2.1408   -1.2254 H   0  0  0  0  0  0  0  0  0  0  0  0
   -2.1986    0.0272    1.0714 H   0  0  0  0  0  0  0  0  0  0  0  0
   -2.1638   -2.1519   -1.1062 H   0  0  0  0  0  0  0  0  0  0  0  0
   -1.9948   -2.3551    0.6536 H   0  0  0  0  0  0  0  0  0  0  0  0
    0.2074   -2.4441   -0.4797 H   0  0  0  0  0  0  0  0  0  0  0  0
    0.0582   -1.1455    0.7516 H   0  0  0  0  0  0  0  0  0  0  0  0
    0.1096   -0.3247   -3.5677 H   0  0  0  0  0  0  0  0  0  0  0  0
    0.0547   -1.9842   -2.9050 H   0  0  0  0  0  0  0  0  0  0  0  0
   -1.3960   -0.9852   -2.8927 H   0  0  0  0  0  0  0  0  0  0  0  0
    4.0149   -0.2885   -3.6231 H   0  0  0  0  0  0  0  0  0  0  0  0
    4.7626   -0.9909   -2.1274 H   0  0  0  0  0  0  0  0  0  0  0  0
    4.1545    0.6945   -2.1074 H   0  0  0  0  0  0  0  0  0  0  0  0
  1  2  1  0
  2  3  1  0
  3  4  1  0
  4  5  1  0
  5  6  1  0
  6  7  2  0
  6  8  1  0
  9  8  1  1
  9 10  1  0
 10 11  1  0
 12 11  1  0
 12 13  1  0
 13 14  1  0
 14 15  1  0
 15 16  1  0
 16 17  2  0
 17 18  1  0
 18 19  2  0
 18 20  1  0
 20 21  1  0
 21 22  1  0
 22 16  1  0
 22 23  1  6
 22 24  1  0
 24 13  1  0
 24 25  1  0
 25 26  1  0
 26 27  1  0
 27  9  1  0
 27 12  1  0
 27 28  1  6
  9 29  1  0
 29 30  2  0
 29 31  1  0
  1 32  1  0
  1 33  1  0
  1 34  1  0
  2 35  1  0
  2 36  1  0
  3 37  1  0
  3 38  1  0
  4 39  1  0
  4 40  1  0
  5 41  1  0
  5 42  1  0
 10 43  1  0
 10 44  1  0
 11 45  1  0
 11 46  1  0
 12 47  1  1
 13 48  1  6
 14 49  1  0
 14 50  1  0
 15 51  1  0
 15 52  1  0
 17 53  1  0
 20 54  1  0
 20 55  1  0
 21 56  1  0
 21 57  1  0
 23 58  1  0
 23 59  1  0
 23 60  1  0
 24 61  1  1
 25 62  1  0
 25 63  1  0
 26 64  1  0
 26 65  1  0
 28 66  1  0
 28 67  1  0
 28 68  1  0
 31 69  1  0
 31 70  1  0
 31 71  1  0
M  END
> <ID>
HT1062

> <Class>
0.0

> <Clusters>
224

> <Fold>
1

$$$$