
     RDKit          3D

 67 70  0  0  0  0  0  0  0  0999 V2000
   -4.4700    0.7717    1.5567 C   0  0  0  0  0  0  0  0  0  0  0  0
   -3.8222    1.2604    0.2295 C   0  0  2  0  0  0  0  0  0  0  0  0
   -3.9560    2.8250    0.2268 C   0  0  0  0  0  0  0  0  0  0  0  0
   -3.8325    3.4392   -1.1656 C   0  0  0  0  0  0  0  0  0  0  0  0
   -4.8481    2.8063   -2.0594 C   0  0  0  0  0  0  0  0  0  0  0  0
   -5.4686    3.4983   -2.9089 O   0  0  0  0  0  0  0  0  0  0  0  0
   -5.0968    1.3641   -1.9584 C   0  0  0  0  0  0  0  0  0  0  0  0
   -4.6002    0.6349   -0.9390 C   0  0  0  0  0  0  0  0  0  0  0  0
   -4.5679   -0.8675   -1.0589 C   0  0  0  0  0  0  0  0  0  0  0  0
   -3.1136   -1.3188   -1.2201 C   0  0  0  0  0  0  0  0  0  0  0  0
   -2.2090   -0.7909   -0.0768 C   0  0  1  0  0  0  0  0  0  0  0  0
   -0.7298   -1.1538   -0.3556 C   0  0  2  0  0  0  0  0  0  0  0  0
   -0.3691   -2.6092   -0.6227 C   0  0  0  0  0  0  0  0  0  0  0  0
    1.1487   -2.6806   -0.3733 C   0  0  0  0  0  0  0  0  0  0  0  0
    1.5920   -1.2943    0.1890 C   0  0  2  0  0  0  0  0  0  0  0  0
    2.0552   -0.5263   -0.9031 O   0  0  0  0  0  0  0  0  0  0  0  0
    2.7165   -1.4086    1.2277 C   0  0  0  0  0  0  0  0  0  0  0  0
    2.8368   -0.5336    2.0740 O   0  0  0  0  0  0  0  0  0  0  0  0
    3.7675   -2.4909    1.1727 C   0  0  0  0  0  0  0  0  0  0  0  0
    5.0708   -1.9201    1.2747 O   0  0  0  0  0  0  0  0  0  0  0  0
    5.6529   -1.1569    0.2583 C   0  0  0  0  0  0  0  0  0  0  0  0
    5.1159   -1.0964   -0.8825 O   0  0  0  0  0  0  0  0  0  0  0  0
    6.9456   -0.4452    0.5455 C   0  0  0  0  0  0  0  0  0  0  0  0
    7.4183    0.4780   -0.5915 C   0  0  0  0  0  0  0  0  0  0  0  0
    6.5345    1.6768   -0.8003 C   0  0  0  0  0  0  0  0  0  0  0  0
    6.8166    2.4992   -1.7144 O   0  0  0  0  0  0  0  0  0  0  0  0
    5.4138    1.8940    0.0015 O   0  0  0  0  0  0  0  0  0  0  0  0
    0.2424   -0.7157    0.7511 C   0  0  2  0  0  0  0  0  0  0  0  0
   -0.0580   -1.3851    2.1409 C   0  0  0  0  0  0  0  0  0  0  0  0
    0.1721    0.8353    0.8626 C   0  0  0  0  0  0  0  0  0  0  0  0
   -1.2670    1.3978    1.0429 C   0  0  2  0  0  0  0  0  0  0  0  0
   -1.6564    1.3680    2.3907 O   0  0  0  0  0  0  0  0  0  0  0  0
   -2.3242    0.7746    0.0553 C   0  0  2  0  0  0  0  0  0  0  0  0
   -5.5787    0.8597    1.4949 H   0  0  0  0  0  0  0  0  0  0  0  0
   -4.1548    1.3953    2.4200 H   0  0  0  0  0  0  0  0  0  0  0  0
   -4.2394   -0.2857    1.7902 H   0  0  0  0  0  0  0  0  0  0  0  0
   -4.9611    3.1120    0.6185 H   0  0  0  0  0  0  0  0  0  0  0  0
   -3.2288    3.3012    0.9142 H   0  0  0  0  0  0  0  0  0  0  0  0
   -4.0018    4.5366   -1.1075 H   0  0  0  0  0  0  0  0  0  0  0  0
   -2.8147    3.2668   -1.5751 H   0  0  0  0  0  0  0  0  0  0  0  0
   -5.6327    0.8819   -2.7681 H   0  0  0  0  0  0  0  0  0  0  0  0
   -5.0125   -1.3355   -0.1563 H   0  0  0  0  0  0  0  0  0  0  0  0
   -5.1569   -1.2264   -1.9319 H   0  0  0  0  0  0  0  0  0  0  0  0
   -2.7316   -0.9658   -2.2040 H   0  0  0  0  0  0  0  0  0  0  0  0
   -3.0934   -2.4303   -1.2296 H   0  0  0  0  0  0  0  0  0  0  0  0
   -2.5488   -1.2905    0.8463 H   0  0  0  0  0  0  0  0  0  0  0  0
   -0.4614   -0.6086   -1.2951 H   0  0  0  0  0  0  0  0  0  0  0  0
   -0.6148   -2.8983   -1.6688 H   0  0  0  0  0  0  0  0  0  0  0  0
   -0.9116   -3.2791    0.0827 H   0  0  0  0  0  0  0  0  0  0  0  0
    1.6871   -2.9136   -1.3213 H   0  0  0  0  0  0  0  0  0  0  0  0
    1.3502   -3.5069    0.3464 H   0  0  0  0  0  0  0  0  0  0  0  0
    2.5463    0.2633   -0.5535 H   0  0  0  0  0  0  0  0  0  0  0  0
    3.6117   -3.1689    2.0371 H   0  0  0  0  0  0  0  0  0  0  0  0
    3.7009   -3.0936    0.2447 H   0  0  0  0  0  0  0  0  0  0  0  0
    6.8340    0.1425    1.4827 H   0  0  0  0  0  0  0  0  0  0  0  0
    7.7268   -1.2139    0.7254 H   0  0  0  0  0  0  0  0  0  0  0  0
    7.4871   -0.0988   -1.5383 H   0  0  0  0  0  0  0  0  0  0  0  0
    8.4403    0.8414   -0.3493 H   0  0  0  0  0  0  0  0  0  0  0  0
    4.8214    2.7014   -0.1416 H   0  0  0  0  0  0  0  0  0  0  0  0
    0.3059   -2.4315    2.1906 H   0  0  0  0  0  0  0  0  0  0  0  0
    0.4444   -0.8283    2.9591 H   0  0  0  0  0  0  0  0  0  0  0  0
   -1.1259   -1.4473    2.4013 H   0  0  0  0  0  0  0  0  0  0  0  0
    0.5755    1.2923   -0.0652 H   0  0  0  0  0  0  0  0  0  0  0  0
    0.8163    1.1949    1.6944 H   0  0  0  0  0  0  0  0  0  0  0  0
   -1.1813    2.4750    0.7812 H   0  0  0  0  0  0  0  0  0  0  0  0
   -1.9944    0.4650    2.5981 H   0  0  0  0  0  0  0  0  0  0  0  0
   -2.0130    1.1640   -0.9413 H   0  0  0  0  0  0  0  0  0  0  0  0
  2  1  1  1
  2  3  1  0
  3  4  1  0
  4  5  1  0
  5  6  2  0
  5  7  1  0
  7  8  2  0
  8  2  1  0
  8  9  1  0
  9 10  1  0
 11 10  1  0
 11 12  1  0
 12 13  1  0
 13 14  1  0
 14 15  1  0
 15 16  1  6
 15 17  1  0
 17 18  2  0
 17 19  1  0
 19 20  1  0
 20 21  1  0
 21 22  2  0
 21 23  1  0
 23 24  1  0
 24 25  1  0
 25 26  2  0
 25 27  1  0
 15 28  1  0
 28 12  1  0
 28 29  1  1
 28 30  1  0
 30 31  1  0
 31 32  1  0
 31 33  1  0
 33  2  1  0
 33 11  1  0
  1 34  1  0
  1 35  1  0
  1 36  1  0
  3 37  1  0
  3 38  1  0
  4 39  1  0
  4 40  1  0
  7 41  1  0
  9 42  1  0
  9 43  1  0
 10 44  1  0
 10 45  1  0
 11 46  1  1
 12 47  1  6
 13 48  1  0
 13 49  1  0
 14 50  1  0
 14 51  1  0
 16 52  1  0
 19 53  1  0
 19 54  1  0
 23 55  1  0
 23 56  1  0
 24 57  1  0
 24 58  1  0
 27 59  1  0
 29 60  1  0
 29 61  1  0
 29 62  1  0
 30 63  1  0
 30 64  1  0
 31 65  1  6
 32 66  1  0
 33 67  1  6
M  END
> <ID>
HT1053

> <Class>
0.0

> <Clusters>
129

> <Fold>
1

$$$$