
     RDKit          3D

 19 18  0  0  0  0  0  0  0  0999 V2000
   -3.0249   -0.3793   -0.1078 C   0  0  0  0  0  0  0  0  0  0  0  0
   -1.7158    0.3843   -0.2858 C   0  0  0  0  0  0  0  0  0  0  0  0
   -0.5346   -0.3972    0.3006 C   0  0  0  0  0  0  0  0  0  0  0  0
    0.7784    0.3735    0.1201 C   0  0  0  0  0  0  0  0  0  0  0  0
    1.9600   -0.4063    0.7027 C   0  0  0  0  0  0  0  0  0  0  0  0
    3.1626    0.3400    0.5716 O   0  0  0  0  0  0  0  0  0  0  0  0
    3.6931    0.6106   -0.6691 N   0  0  0  0  0  0  0  0  0  0  0  0
    4.7477    1.2687   -0.7662 O   0  0  0  0  0  0  0  0  0  0  0  0
   -2.9738   -1.3594   -0.6282 H   0  0  0  0  0  0  0  0  0  0  0  0
   -3.8605    0.2097   -0.5411 H   0  0  0  0  0  0  0  0  0  0  0  0
   -3.2303   -0.5467    0.9710 H   0  0  0  0  0  0  0  0  0  0  0  0
   -1.8026    1.3697    0.2218 H   0  0  0  0  0  0  0  0  0  0  0  0
   -1.5473    0.5606   -1.3707 H   0  0  0  0  0  0  0  0  0  0  0  0
   -0.4556   -1.3827   -0.2095 H   0  0  0  0  0  0  0  0  0  0  0  0
   -0.7121   -0.5732    1.3847 H   0  0  0  0  0  0  0  0  0  0  0  0
    0.9556    0.5520   -0.9631 H   0  0  0  0  0  0  0  0  0  0  0  0
    0.7061    1.3576    0.6330 H   0  0  0  0  0  0  0  0  0  0  0  0
    2.0725   -1.3829    0.1835 H   0  0  0  0  0  0  0  0  0  0  0  0
    1.7815   -0.5990    1.7821 H   0  0  0  0  0  0  0  0  0  0  0  0
  1  2  1  0
  2  3  1  0
  3  4  1  0
  4  5  1  0
  5  6  1  0
  6  7  1  0
  7  8  2  0
  1  9  1  0
  1 10  1  0
  1 11  1  0
  2 12  1  0
  2 13  1  0
  3 14  1  0
  3 15  1  0
  4 16  1  0
  4 17  1  0
  5 18  1  0
  5 19  1  0
M  END
> <ID>
HT0156

> <Class>
0.0

> <Clusters>
20

> <Fold>
1

$$$$