
     RDKit          3D

 31 31  0  0  0  0  0  0  0  0999 V2000
   -2.9352   -1.0419    0.5240 C   0  0  0  0  0  0  0  0  0  0  0  0
   -2.1637   -0.0583   -0.3768 C   0  0  0  0  0  0  0  0  0  0  0  0
   -2.9435    1.2721   -0.4237 C   0  0  0  0  0  0  0  0  0  0  0  0
   -0.6701    0.1499    0.0736 C   0  0  2  0  0  0  0  0  0  0  0  0
    0.0316    1.1668   -0.8701 C   0  0  0  0  0  0  0  0  0  0  0  0
    1.5161    1.3529   -0.5510 C   0  0  0  0  0  0  0  0  0  0  0  0
    2.2558    0.0142   -0.6209 C   0  0  1  0  0  0  0  0  0  0  0  0
    3.7490    0.2077   -0.3336 C   0  0  0  0  0  0  0  0  0  0  0  0
    1.6343   -0.9618    0.3837 C   0  0  0  0  0  0  0  0  0  0  0  0
    0.1346   -1.1890    0.1127 C   0  0  1  0  0  0  0  0  0  0  0  0
   -0.3552   -2.0172    1.1353 O   0  0  0  0  0  0  0  0  0  0  0  0
   -4.0251   -1.0099    0.3113 H   0  0  0  0  0  0  0  0  0  0  0  0
   -2.7797   -0.7983    1.5968 H   0  0  0  0  0  0  0  0  0  0  0  0
   -2.6228   -2.0862    0.3204 H   0  0  0  0  0  0  0  0  0  0  0  0
   -2.1682   -0.4809   -1.4064 H   0  0  0  0  0  0  0  0  0  0  0  0
   -4.0251    1.0944   -0.6053 H   0  0  0  0  0  0  0  0  0  0  0  0
   -2.5958    1.9067   -1.2642 H   0  0  0  0  0  0  0  0  0  0  0  0
   -2.8309    1.8257    0.5330 H   0  0  0  0  0  0  0  0  0  0  0  0
   -0.6689    0.5823    1.0999 H   0  0  0  0  0  0  0  0  0  0  0  0
   -0.4373    2.1675   -0.7711 H   0  0  0  0  0  0  0  0  0  0  0  0
   -0.0760    0.8375   -1.9275 H   0  0  0  0  0  0  0  0  0  0  0  0
    1.6240    1.8018    0.4618 H   0  0  0  0  0  0  0  0  0  0  0  0
    1.9540    2.0607   -1.2887 H   0  0  0  0  0  0  0  0  0  0  0  0
    2.1553   -0.4064   -1.6470 H   0  0  0  0  0  0  0  0  0  0  0  0
    4.2808   -0.7651   -0.4044 H   0  0  0  0  0  0  0  0  0  0  0  0
    3.9037    0.6280    0.6836 H   0  0  0  0  0  0  0  0  0  0  0  0
    4.1949    0.9000   -1.0793 H   0  0  0  0  0  0  0  0  0  0  0  0
    2.1623   -1.9388    0.3189 H   0  0  0  0  0  0  0  0  0  0  0  0
    1.7664   -0.5728    1.4186 H   0  0  0  0  0  0  0  0  0  0  0  0
    0.0217   -1.6955   -0.8755 H   0  0  0  0  0  0  0  0  0  0  0  0
   -0.0866   -2.9463    0.9097 H   0  0  0  0  0  0  0  0  0  0  0  0
  1  2  1  0
  2  3  1  0
  4  2  1  0
  4  5  1  0
  5  6  1  0
  6  7  1  0
  7  8  1  0
  7  9  1  0
  9 10  1  0
 10  4  1  0
 10 11  1  0
  1 12  1  0
  1 13  1  0
  1 14  1  0
  2 15  1  0
  3 16  1  0
  3 17  1  0
  3 18  1  0
  4 19  1  1
  5 20  1  0
  5 21  1  0
  6 22  1  0
  6 23  1  0
  7 24  1  6
  8 25  1  0
  8 26  1  0
  8 27  1  0
  9 28  1  0
  9 29  1  0
 10 30  1  6
 11 31  1  0
M  END
> <ID>
HT1300

> <Class>
0.0

> <Clusters>
55

> <Fold>
1

$$$$