
     RDKit          3D

 55 58  0  0  0  0  0  0  0  0999 V2000
    6.9686    0.4240    1.7622 C   0  0  0  0  0  0  0  0  0  0  0  0
    6.0557   -0.3935    0.8969 C   0  0  0  0  0  0  0  0  0  0  0  0
    6.3478   -1.7446    0.6608 C   0  0  0  0  0  0  0  0  0  0  0  0
    5.5049   -2.5172   -0.1421 C   0  0  0  0  0  0  0  0  0  0  0  0
    4.3651   -1.9478   -0.7151 C   0  0  0  0  0  0  0  0  0  0  0  0
    4.0594   -0.5965   -0.4877 C   0  0  0  0  0  0  0  0  0  0  0  0
    2.8274    0.0244   -1.0932 C   0  0  0  0  0  0  0  0  0  0  0  0
    1.8832    0.4357   -0.0344 N   0  0  0  0  0  0  0  0  0  0  0  0
    0.9713    1.4887   -0.5340 C   0  0  0  0  0  0  0  0  0  0  0  0
   -0.2843    1.5999    0.3422 C   0  0  0  0  0  0  0  0  0  0  0  0
   -1.0876    0.3437    0.3538 N   0  0  0  0  0  0  0  0  0  0  0  0
   -0.2680   -0.8556    0.0339 C   0  0  0  0  0  0  0  0  0  0  0  0
    1.1681   -0.7221    0.5609 C   0  0  0  0  0  0  0  0  0  0  0  0
   -2.2926    0.4408   -0.5191 C   0  0  0  0  0  0  0  0  0  0  0  0
   -3.0704   -0.8664   -0.5820 C   0  0  0  0  0  0  0  0  0  0  0  0
   -3.5141   -1.5045    0.5926 C   0  0  0  0  0  0  0  0  0  0  0  0
   -4.2339   -2.7005    0.5194 C   0  0  0  0  0  0  0  0  0  0  0  0
   -4.5207   -3.2708   -0.7228 C   0  0  0  0  0  0  0  0  0  0  0  0
   -4.0870   -2.6467   -1.8946 C   0  0  0  0  0  0  0  0  0  0  0  0
   -3.3661   -1.4507   -1.8272 C   0  0  0  0  0  0  0  0  0  0  0  0
   -3.2477    1.5304   -0.0553 C   0  0  0  0  0  0  0  0  0  0  0  0
   -3.9623    2.2802   -1.0064 C   0  0  0  0  0  0  0  0  0  0  0  0
   -4.8583    3.2728   -0.5989 C   0  0  0  0  0  0  0  0  0  0  0  0
   -5.0545    3.5251    0.7619 C   0  0  0  0  0  0  0  0  0  0  0  0
   -6.1795    4.7710    1.2708 Cl  0  0  0  0  0  0  0  0  0  0  0  0
   -4.3544    2.7820    1.7167 C   0  0  0  0  0  0  0  0  0  0  0  0
   -3.4581    1.7881    1.3134 C   0  0  0  0  0  0  0  0  0  0  0  0
    4.9094    0.1770    0.3196 C   0  0  0  0  0  0  0  0  0  0  0  0
    7.9868    0.4397    1.3198 H   0  0  0  0  0  0  0  0  0  0  0  0
    6.6107    1.4712    1.8583 H   0  0  0  0  0  0  0  0  0  0  0  0
    7.0207   -0.0241    2.7768 H   0  0  0  0  0  0  0  0  0  0  0  0
    7.2280   -2.1986    1.0994 H   0  0  0  0  0  0  0  0  0  0  0  0
    5.7351   -3.5597   -0.3198 H   0  0  0  0  0  0  0  0  0  0  0  0
    3.7205   -2.5616   -1.3320 H   0  0  0  0  0  0  0  0  0  0  0  0
    2.3321   -0.6697   -1.8101 H   0  0  0  0  0  0  0  0  0  0  0  0
    3.1618    0.9091   -1.6814 H   0  0  0  0  0  0  0  0  0  0  0  0
    0.6540    1.2843   -1.5827 H   0  0  0  0  0  0  0  0  0  0  0  0
    1.5051    2.4635   -0.5213 H   0  0  0  0  0  0  0  0  0  0  0  0
    0.0279    1.8261    1.3844 H   0  0  0  0  0  0  0  0  0  0  0  0
   -0.8701    2.4791   -0.0027 H   0  0  0  0  0  0  0  0  0  0  0  0
   -0.2281   -1.0327   -1.0651 H   0  0  0  0  0  0  0  0  0  0  0  0
   -0.7232   -1.7499    0.5099 H   0  0  0  0  0  0  0  0  0  0  0  0
    1.7060   -1.6803    0.3879 H   0  0  0  0  0  0  0  0  0  0  0  0
    1.1299   -0.5819    1.6626 H   0  0  0  0  0  0  0  0  0  0  0  0
   -1.9475    0.7008   -1.5474 H   0  0  0  0  0  0  0  0  0  0  0  0
   -3.2915   -1.0859    1.5645 H   0  0  0  0  0  0  0  0  0  0  0  0
   -4.5676   -3.1867    1.4270 H   0  0  0  0  0  0  0  0  0  0  0  0
   -5.0780   -4.1970   -0.7773 H   0  0  0  0  0  0  0  0  0  0  0  0
   -4.3101   -3.0895   -2.8567 H   0  0  0  0  0  0  0  0  0  0  0  0
   -3.0414   -0.9808   -2.7471 H   0  0  0  0  0  0  0  0  0  0  0  0
   -3.8288    2.0931   -2.0647 H   0  0  0  0  0  0  0  0  0  0  0  0
   -5.4009    3.8433   -1.3419 H   0  0  0  0  0  0  0  0  0  0  0  0
   -4.5037    2.9734    2.7717 H   0  0  0  0  0  0  0  0  0  0  0  0
   -2.9234    1.2283    2.0695 H   0  0  0  0  0  0  0  0  0  0  0  0
    4.6744    1.2199    0.4975 H   0  0  0  0  0  0  0  0  0  0  0  0
  1  2  1  0
  2  3  2  0
  3  4  1  0
  4  5  2  0
  5  6  1  0
  6  7  1  0
  7  8  1  0
  8  9  1  0
  9 10  1  0
 10 11  1  0
 11 12  1  0
 12 13  1  0
 13  8  1  0
 11 14  1  0
 14 15  1  0
 15 16  2  0
 16 17  1  0
 17 18  2  0
 18 19  1  0
 19 20  2  0
 20 15  1  0
 14 21  1  0
 21 22  2  0
 22 23  1  0
 23 24  2  0
 24 25  1  0
 24 26  1  0
 26 27  2  0
 27 21  1  0
  6 28  2  0
 28  2  1  0
  1 29  1  0
  1 30  1  0
  1 31  1  0
  3 32  1  0
  4 33  1  0
  5 34  1  0
  7 35  1  0
  7 36  1  0
  9 37  1  0
  9 38  1  0
 10 39  1  0
 10 40  1  0
 12 41  1  0
 12 42  1  0
 13 43  1  0
 13 44  1  0
 14 45  1  0
 16 46  1  0
 17 47  1  0
 18 48  1  0
 19 49  1  0
 20 50  1  0
 22 51  1  0
 23 52  1  0
 26 53  1  0
 27 54  1  0
 28 55  1  0
M  END
> <ID>
HT1282

> <Class>
0.0

> <Clusters>
50

> <Fold>
1

$$$$