
     RDKit          3D

 60 63  0  0  0  0  0  0  0  0999 V2000
    4.5154   -0.3910    3.0946 C   0  0  0  0  0  0  0  0  0  0  0  0
    4.4741   -0.0125    1.6537 C   0  0  0  0  0  0  0  0  0  0  0  0
    5.5011    0.4673    1.1009 O   0  0  0  0  0  0  0  0  0  0  0  0
    3.2864   -0.2035    0.9332 O   0  0  0  0  0  0  0  0  0  0  0  0
    3.0948    0.1237   -0.4548 C   0  0  2  0  0  0  0  0  0  0  0  0
    3.1261    1.6780   -0.6186 C   0  0  0  0  0  0  0  0  0  0  0  0
    1.6702    2.1712   -0.5376 C   0  0  0  0  0  0  0  0  0  0  0  0
    0.8630    0.9261   -0.1924 C   0  0  1  0  0  0  0  0  0  0  0  0
   -0.6500    0.9034   -0.5037 C   0  0  2  0  0  0  0  0  0  0  0  0
   -1.3605    2.0906    0.0982 C   0  0  0  0  0  0  0  0  0  0  0  0
   -2.6214    2.0397    0.5659 C   0  0  0  0  0  0  0  0  0  0  0  0
   -3.2432    3.3155    1.0861 C   0  0  0  0  0  0  0  0  0  0  0  0
   -3.3830    0.7437    0.5916 C   0  0  0  0  0  0  0  0  0  0  0  0
   -4.5960    0.6819    1.1836 C   0  0  0  0  0  0  0  0  0  0  0  0
   -5.3775   -0.5609    1.2579 C   0  0  0  0  0  0  0  0  0  0  0  0
   -6.5175   -0.5446    1.7934 O   0  0  0  0  0  0  0  0  0  0  0  0
   -4.8587   -1.8338    0.6737 C   0  0  0  0  0  0  0  0  0  0  0  0
   -3.3328   -1.7979    0.5515 C   0  0  0  0  0  0  0  0  0  0  0  0
   -2.7948   -0.4899   -0.1116 C   0  0  1  0  0  0  0  0  0  0  0  0
   -3.2253   -0.4535   -1.6009 C   0  0  0  0  0  0  0  0  0  0  0  0
   -1.2340   -0.4317    0.0496 C   0  0  1  0  0  0  0  0  0  0  0  0
   -0.4642   -1.6708   -0.5025 C   0  0  0  0  0  0  0  0  0  0  0  0
    1.0675   -1.5617   -0.3010 C   0  0  0  0  0  0  0  0  0  0  0  0
    1.6285   -0.2299   -0.8641 C   0  0  2  0  0  0  0  0  0  0  0  0
    1.4944   -0.2347   -2.4264 C   0  0  0  0  0  0  0  0  0  0  0  0
    4.1450   -0.6100   -1.2948 C   0  0  0  0  0  0  0  0  0  0  0  0
    4.7773   -0.0179   -2.1570 O   0  0  0  0  0  0  0  0  0  0  0  0
    4.4281   -2.0693   -1.0821 C   0  0  0  0  0  0  0  0  0  0  0  0
    5.5175   -0.1839    3.5267 H   0  0  0  0  0  0  0  0  0  0  0  0
    3.7533    0.1930    3.6513 H   0  0  0  0  0  0  0  0  0  0  0  0
    4.2931   -1.4734    3.1980 H   0  0  0  0  0  0  0  0  0  0  0  0
    3.5463    1.9910   -1.5982 H   0  0  0  0  0  0  0  0  0  0  0  0
    3.7352    2.1620    0.1738 H   0  0  0  0  0  0  0  0  0  0  0  0
    1.3423    2.5921   -1.5133 H   0  0  0  0  0  0  0  0  0  0  0  0
    1.5614    2.9496    0.2491 H   0  0  0  0  0  0  0  0  0  0  0  0
    0.9510    0.8159    0.9166 H   0  0  0  0  0  0  0  0  0  0  0  0
   -0.7920    0.9817   -1.5968 H   0  0  0  0  0  0  0  0  0  0  0  0
   -0.8521    3.0461    0.0624 H   0  0  0  0  0  0  0  0  0  0  0  0
   -2.6068    4.2070    0.8985 H   0  0  0  0  0  0  0  0  0  0  0  0
   -4.2159    3.4929    0.5812 H   0  0  0  0  0  0  0  0  0  0  0  0
   -3.4009    3.2338    2.1820 H   0  0  0  0  0  0  0  0  0  0  0  0
   -5.0303    1.5494    1.6605 H   0  0  0  0  0  0  0  0  0  0  0  0
   -5.1485   -2.6860    1.3261 H   0  0  0  0  0  0  0  0  0  0  0  0
   -5.3253   -1.9990   -0.3200 H   0  0  0  0  0  0  0  0  0  0  0  0
   -2.9012   -1.9031    1.5722 H   0  0  0  0  0  0  0  0  0  0  0  0
   -3.0273   -2.6896   -0.0363 H   0  0  0  0  0  0  0  0  0  0  0  0
   -2.8516   -1.3409   -2.1513 H   0  0  0  0  0  0  0  0  0  0  0  0
   -4.3310   -0.4408   -1.6925 H   0  0  0  0  0  0  0  0  0  0  0  0
   -2.8700    0.4621   -2.1131 H   0  0  0  0  0  0  0  0  0  0  0  0
   -1.0396   -0.4331    1.1487 H   0  0  0  0  0  0  0  0  0  0  0  0
   -0.6926   -1.8308   -1.5743 H   0  0  0  0  0  0  0  0  0  0  0  0
   -0.7878   -2.5857    0.0347 H   0  0  0  0  0  0  0  0  0  0  0  0
    1.5540   -2.4253   -0.8019 H   0  0  0  0  0  0  0  0  0  0  0  0
    1.2803   -1.6470    0.7867 H   0  0  0  0  0  0  0  0  0  0  0  0
    2.0495   -1.0942   -2.8575 H   0  0  0  0  0  0  0  0  0  0  0  0
    1.9024    0.6902   -2.8823 H   0  0  0  0  0  0  0  0  0  0  0  0
    0.4525   -0.3404   -2.7789 H   0  0  0  0  0  0  0  0  0  0  0  0
    5.5115   -2.2116   -0.8860 H   0  0  0  0  0  0  0  0  0  0  0  0
    4.1451   -2.6390   -1.9916 H   0  0  0  0  0  0  0  0  0  0  0  0
    3.8645   -2.4707   -0.2154 H   0  0  0  0  0  0  0  0  0  0  0  0
  1  2  1  0
  2  3  2  0
  2  4  1  0
  5  4  1  1
  5  6  1  0
  6  7  1  0
  8  7  1  0
  8  9  1  0
  9 10  1  0
 10 11  2  0
 11 12  1  0
 11 13  1  0
 13 14  2  0
 14 15  1  0
 15 16  2  0
 15 17  1  0
 17 18  1  0
 18 19  1  0
 19 13  1  0
 19 20  1  6
 19 21  1  0
 21  9  1  0
 21 22  1  0
 22 23  1  0
 23 24  1  0
 24  5  1  0
 24  8  1  0
 24 25  1  6
  5 26  1  0
 26 27  2  0
 26 28  1  0
  1 29  1  0
  1 30  1  0
  1 31  1  0
  6 32  1  0
  6 33  1  0
  7 34  1  0
  7 35  1  0
  8 36  1  1
  9 37  1  6
 10 38  1  0
 12 39  1  0
 12 40  1  0
 12 41  1  0
 14 42  1  0
 17 43  1  0
 17 44  1  0
 18 45  1  0
 18 46  1  0
 20 47  1  0
 20 48  1  0
 20 49  1  0
 21 50  1  1
 22 51  1  0
 22 52  1  0
 23 53  1  0
 23 54  1  0
 25 55  1  0
 25 56  1  0
 25 57  1  0
 28 58  1  0
 28 59  1  0
 28 60  1  0
M  END
> <ID>
HT1291

> <Class>
0.0

> <Clusters>
237

> <Fold>
1

$$$$