
     RDKit          3D

 67 70  0  0  0  0  0  0  0  0999 V2000
   -5.8043   -3.7327   -0.5390 C   0  0  0  0  0  0  0  0  0  0  0  0
   -4.6404   -2.8077   -0.1974 C   0  0  0  0  0  0  0  0  0  0  0  0
   -4.2763   -1.9135   -1.3905 C   0  0  0  0  0  0  0  0  0  0  0  0
   -3.0503   -1.0333   -1.0996 C   0  0  0  0  0  0  0  0  0  0  0  0
   -3.2084   -0.2016    0.1185 N   0  0  0  0  0  0  0  0  0  0  0  0
   -4.3088    0.7928    0.0380 C   0  0  0  0  0  0  0  0  0  0  0  0
   -4.1540    1.8081   -1.1168 C   0  0  0  0  0  0  0  0  0  0  0  0
   -5.1752    2.9528   -1.0282 C   0  0  0  0  0  0  0  0  0  0  0  0
   -4.7963    3.9990    0.0196 C   0  0  0  0  0  0  0  0  0  0  0  0
   -1.9282    0.4261    0.5228 C   0  0  0  0  0  0  0  0  0  0  0  0
   -1.0923   -0.5343    1.3860 C   0  0  0  0  0  0  0  0  0  0  0  0
   -1.8821   -0.9910    2.4563 O   0  0  0  0  0  0  0  0  0  0  0  0
    0.1428    0.1830    1.9013 C   0  0  0  0  0  0  0  0  0  0  0  0
    0.0545    0.9111    3.1108 C   0  0  0  0  0  0  0  0  0  0  0  0
    1.1876    1.5051    3.6878 C   0  0  0  0  0  0  0  0  0  0  0  0
    1.0401    2.3808    5.2004 Cl  0  0  0  0  0  0  0  0  0  0  0  0
    2.4363    1.3879    3.0716 C   0  0  0  0  0  0  0  0  0  0  0  0
    2.5252    0.7062    1.8558 C   0  0  0  0  0  0  0  0  0  0  0  0
    3.7214    0.4534    1.0419 C   0  0  0  0  0  0  0  0  0  0  0  0
    4.9813    0.7731    1.3895 C   0  0  0  0  0  0  0  0  0  0  0  0
    6.1841    0.3139    0.6778 C   0  0  0  0  0  0  0  0  0  0  0  0
    7.1248    1.2515    0.2268 C   0  0  0  0  0  0  0  0  0  0  0  0
    8.2883    0.8239   -0.4209 C   0  0  0  0  0  0  0  0  0  0  0  0
    8.5288   -0.5425   -0.6020 C   0  0  0  0  0  0  0  0  0  0  0  0
    9.9886   -1.0767   -1.4152 Cl  0  0  0  0  0  0  0  0  0  0  0  0
    7.6080   -1.4829   -0.1264 C   0  0  0  0  0  0  0  0  0  0  0  0
    6.4432   -1.0582    0.5203 C   0  0  0  0  0  0  0  0  0  0  0  0
    3.2209   -0.2272   -0.1662 C   0  0  0  0  0  0  0  0  0  0  0  0
    3.8798   -0.4980   -1.3740 C   0  0  0  0  0  0  0  0  0  0  0  0
    3.1474   -1.0331   -2.4420 C   0  0  0  0  0  0  0  0  0  0  0  0
    3.9498   -1.3910   -3.9591 Cl  0  0  0  0  0  0  0  0  0  0  0  0
    1.7641   -1.2337   -2.3187 C   0  0  0  0  0  0  0  0  0  0  0  0
    1.1012   -0.8995   -1.1311 C   0  0  0  0  0  0  0  0  0  0  0  0
    1.8459   -0.4174   -0.0442 C   0  0  0  0  0  0  0  0  0  0  0  0
    1.4047    0.1391    1.2544 C   0  0  0  0  0  0  0  0  0  0  0  0
   -5.5248   -4.4102   -1.3735 H   0  0  0  0  0  0  0  0  0  0  0  0
   -6.0631   -4.3489    0.3472 H   0  0  0  0  0  0  0  0  0  0  0  0
   -6.6954   -3.1388   -0.8315 H   0  0  0  0  0  0  0  0  0  0  0  0
   -3.7619   -3.4250    0.0905 H   0  0  0  0  0  0  0  0  0  0  0  0
   -4.9285   -2.1810    0.6738 H   0  0  0  0  0  0  0  0  0  0  0  0
   -5.1443   -1.2861   -1.6834 H   0  0  0  0  0  0  0  0  0  0  0  0
   -4.0354   -2.5569   -2.2647 H   0  0  0  0  0  0  0  0  0  0  0  0
   -2.8163   -0.4075   -1.9866 H   0  0  0  0  0  0  0  0  0  0  0  0
   -2.1921   -1.7251   -0.9729 H   0  0  0  0  0  0  0  0  0  0  0  0
   -5.2841    0.2725   -0.0592 H   0  0  0  0  0  0  0  0  0  0  0  0
   -4.3770    1.3273    1.0094 H   0  0  0  0  0  0  0  0  0  0  0  0
   -3.1265    2.2288   -1.1431 H   0  0  0  0  0  0  0  0  0  0  0  0
   -4.3284    1.2834   -2.0797 H   0  0  0  0  0  0  0  0  0  0  0  0
   -5.2237    3.4580   -2.0173 H   0  0  0  0  0  0  0  0  0  0  0  0
   -6.1876    2.5505   -0.8063 H   0  0  0  0  0  0  0  0  0  0  0  0
   -3.7743    4.3893   -0.1738 H   0  0  0  0  0  0  0  0  0  0  0  0
   -5.5115    4.8460   -0.0320 H   0  0  0  0  0  0  0  0  0  0  0  0
   -4.8400    3.5727    1.0422 H   0  0  0  0  0  0  0  0  0  0  0  0
   -2.1132    1.3405    1.1322 H   0  0  0  0  0  0  0  0  0  0  0  0
   -1.3464    0.7558   -0.3664 H   0  0  0  0  0  0  0  0  0  0  0  0
   -0.7885   -1.4223    0.7991 H   0  0  0  0  0  0  0  0  0  0  0  0
   -1.3916   -1.7468    2.8779 H   0  0  0  0  0  0  0  0  0  0  0  0
   -0.8971    1.0085    3.6193 H   0  0  0  0  0  0  0  0  0  0  0  0
    3.3080    1.8322    3.5319 H   0  0  0  0  0  0  0  0  0  0  0  0
    5.1508    1.3702    2.2749 H   0  0  0  0  0  0  0  0  0  0  0  0
    6.9499    2.3126    0.3639 H   0  0  0  0  0  0  0  0  0  0  0  0
    9.0027    1.5541   -0.7784 H   0  0  0  0  0  0  0  0  0  0  0  0
    7.7964   -2.5419   -0.2524 H   0  0  0  0  0  0  0  0  0  0  0  0
    5.7418   -1.7955    0.8925 H   0  0  0  0  0  0  0  0  0  0  0  0
    4.9220   -0.2644   -1.5197 H   0  0  0  0  0  0  0  0  0  0  0  0
    1.1950   -1.6106   -3.1591 H   0  0  0  0  0  0  0  0  0  0  0  0
    0.0326   -0.9751   -1.1137 H   0  0  0  0  0  0  0  0  0  0  0  0
  1  2  1  0
  2  3  1  0
  3  4  1  0
  4  5  1  0
  5  6  1  0
  6  7  1  0
  7  8  1  0
  8  9  1  0
  5 10  1  0
 10 11  1  0
 11 12  1  0
 11 13  1  0
 13 14  2  0
 14 15  1  0
 15 16  1  0
 15 17  2  0
 17 18  1  0
 18 19  1  0
 19 20  2  0
 20 21  1  0
 21 22  2  0
 22 23  1  0
 23 24  2  0
 24 25  1  0
 24 26  1  0
 26 27  2  0
 27 21  1  0
 19 28  1  0
 28 29  2  0
 29 30  1  0
 30 31  1  0
 30 32  2  0
 32 33  1  0
 33 34  2  0
 34 28  1  0
 34 35  1  0
 35 13  1  0
 35 18  2  0
  1 36  1  0
  1 37  1  0
  1 38  1  0
  2 39  1  0
  2 40  1  0
  3 41  1  0
  3 42  1  0
  4 43  1  0
  4 44  1  0
  6 45  1  0
  6 46  1  0
  7 47  1  0
  7 48  1  0
  8 49  1  0
  8 50  1  0
  9 51  1  0
  9 52  1  0
  9 53  1  0
 10 54  1  0
 10 55  1  0
 11 56  1  0
 12 57  1  0
 14 58  1  0
 17 59  1  0
 20 60  1  0
 22 61  1  0
 23 62  1  0
 26 63  1  0
 27 64  1  0
 29 65  1  0
 32 66  1  0
 33 67  1  0
M  END
> <ID>
HT1256

> <Class>
0.0

> <Clusters>
93

> <Fold>
1

$$$$