
     RDKit          3D

 51 53  0  0  0  0  0  0  0  0999 V2000
   -4.4708   -2.0187   -0.0344 C   0  0  0  0  0  0  0  0  0  0  0  0
   -3.8597   -0.8749    0.6882 N   0  0  0  0  0  0  0  0  0  0  0  0
   -4.3519   -0.9091    2.0882 C   0  0  0  0  0  0  0  0  0  0  0  0
   -4.3049    0.4007    0.0351 C   0  0  0  0  0  0  0  0  0  0  0  0
   -3.2827    1.5353    0.1962 C   0  0  0  0  0  0  0  0  0  0  0  0
   -1.9468    1.1713   -0.4736 C   0  0  0  0  0  0  0  0  0  0  0  0
   -1.6886   -0.3521   -0.5032 C   0  0  0  0  0  0  0  0  0  0  0  0
   -2.3670   -1.0320    0.6983 C   0  0  0  0  0  0  0  0  0  0  0  0
   -0.2876   -0.6191   -0.4571 O   0  0  0  0  0  0  0  0  0  0  0  0
    0.5998   -0.2846   -1.4889 C   0  0  0  0  0  0  0  0  0  0  0  0
    0.1555    0.1255   -2.5974 O   0  0  0  0  0  0  0  0  0  0  0  0
    2.0980   -0.4673   -1.3026 C   0  0  0  0  0  0  0  0  0  0  0  0
    2.4914   -1.5424   -2.1285 O   0  0  0  0  0  0  0  0  0  0  0  0
    2.4111   -0.7971    0.1599 C   0  0  0  0  0  0  0  0  0  0  0  0
    3.0227   -2.0152    0.5310 C   0  0  0  0  0  0  0  0  0  0  0  0
    3.2975   -2.2941    1.8734 C   0  0  0  0  0  0  0  0  0  0  0  0
    2.9701   -1.3680    2.8647 C   0  0  0  0  0  0  0  0  0  0  0  0
    2.3673   -0.1585    2.5170 C   0  0  0  0  0  0  0  0  0  0  0  0
    2.0907    0.1280    1.1776 C   0  0  0  0  0  0  0  0  0  0  0  0
    2.8937    0.7882   -1.6854 C   0  0  0  0  0  0  0  0  0  0  0  0
    4.2571    0.6681   -2.0247 C   0  0  0  0  0  0  0  0  0  0  0  0
    5.0184    1.7985   -2.3342 C   0  0  0  0  0  0  0  0  0  0  0  0
    4.4389    3.0673   -2.2910 C   0  0  0  0  0  0  0  0  0  0  0  0
    3.0991    3.2096   -1.9283 C   0  0  0  0  0  0  0  0  0  0  0  0
    2.3317    2.0832   -1.6178 C   0  0  0  0  0  0  0  0  0  0  0  0
   -4.2485   -2.9842    0.4738 H   0  0  0  0  0  0  0  0  0  0  0  0
   -5.5778   -1.9107   -0.0890 H   0  0  0  0  0  0  0  0  0  0  0  0
   -4.0843   -2.0885   -1.0749 H   0  0  0  0  0  0  0  0  0  0  0  0
   -5.4647   -0.8937    2.1268 H   0  0  0  0  0  0  0  0  0  0  0  0
   -4.0065   -1.8303    2.6105 H   0  0  0  0  0  0  0  0  0  0  0  0
   -3.9822   -0.0324    2.6647 H   0  0  0  0  0  0  0  0  0  0  0  0
   -5.2874    0.7418    0.4345 H   0  0  0  0  0  0  0  0  0  0  0  0
   -4.4617    0.2588   -1.0600 H   0  0  0  0  0  0  0  0  0  0  0  0
   -3.6839    2.4676   -0.2574 H   0  0  0  0  0  0  0  0  0  0  0  0
   -3.1182    1.7336    1.2773 H   0  0  0  0  0  0  0  0  0  0  0  0
   -1.1261    1.6859    0.0733 H   0  0  0  0  0  0  0  0  0  0  0  0
   -1.9430    1.5554   -1.5169 H   0  0  0  0  0  0  0  0  0  0  0  0
   -2.1087   -0.7860   -1.4375 H   0  0  0  0  0  0  0  0  0  0  0  0
   -1.9226   -0.5846    1.6188 H   0  0  0  0  0  0  0  0  0  0  0  0
   -2.0731   -2.1068    0.7206 H   0  0  0  0  0  0  0  0  0  0  0  0
    2.3526   -1.2746   -3.0759 H   0  0  0  0  0  0  0  0  0  0  0  0
    3.2918   -2.7577   -0.2082 H   0  0  0  0  0  0  0  0  0  0  0  0
    3.7654   -3.2319    2.1453 H   0  0  0  0  0  0  0  0  0  0  0  0
    3.1830   -1.5882    3.9029 H   0  0  0  0  0  0  0  0  0  0  0  0
    2.1116    0.5585    3.2865 H   0  0  0  0  0  0  0  0  0  0  0  0
    1.6145    1.0693    0.9354 H   0  0  0  0  0  0  0  0  0  0  0  0
    4.7349   -0.3034   -2.0455 H   0  0  0  0  0  0  0  0  0  0  0  0
    6.0615    1.6904   -2.6016 H   0  0  0  0  0  0  0  0  0  0  0  0
    5.0310    3.9416   -2.5287 H   0  0  0  0  0  0  0  0  0  0  0  0
    2.6553    4.1956   -1.8799 H   0  0  0  0  0  0  0  0  0  0  0  0
    1.3037    2.2318   -1.3155 H   0  0  0  0  0  0  0  0  0  0  0  0
  1  2  1  0
  2  3  1  0
  2  4  1  0
  4  5  1  0
  5  6  1  0
  6  7  1  0
  7  8  1  0
  8  2  1  0
  7  9  1  0
  9 10  1  0
 10 11  2  0
 10 12  1  0
 12 13  1  0
 12 14  1  0
 14 15  2  0
 15 16  1  0
 16 17  2  0
 17 18  1  0
 18 19  2  0
 19 14  1  0
 12 20  1  0
 20 21  2  0
 21 22  1  0
 22 23  2  0
 23 24  1  0
 24 25  2  0
 25 20  1  0
  1 26  1  0
  1 27  1  0
  1 28  1  0
  3 29  1  0
  3 30  1  0
  3 31  1  0
  4 32  1  0
  4 33  1  0
  5 34  1  0
  5 35  1  0
  6 36  1  0
  6 37  1  0
  7 38  1  0
  8 39  1  0
  8 40  1  0
 13 41  1  0
 15 42  1  0
 16 43  1  0
 17 44  1  0
 18 45  1  0
 19 46  1  0
 21 47  1  0
 22 48  1  0
 23 49  1  0
 24 50  1  0
 25 51  1  0
M  CHG  1   2   1
M  END
> <ID>
HT1304

> <Class>
0.0

> <Clusters>
155

> <Fold>
1

$$$$