
     RDKit          3D

 37 40  0  0  0  0  0  0  0  0999 V2000
   -5.9787    0.0890    0.9300 O   0  0  0  0  0  0  0  0  0  0  0  0
   -4.9568    1.0228    0.7825 C   0  0  0  0  0  0  0  0  0  0  0  0
   -5.1413    2.0301    0.0499 O   0  0  0  0  0  0  0  0  0  0  0  0
   -3.6450    0.8456    1.4863 C   0  0  0  0  0  0  0  0  0  0  0  0
   -2.5594    0.7220    0.5130 N   0  0  0  0  0  0  0  0  0  0  0  0
   -1.6024    1.6488    0.2674 C   0  0  0  0  0  0  0  0  0  0  0  0
   -0.7335    1.1922   -0.7180 C   0  0  0  0  0  0  0  0  0  0  0  0
    0.4934    1.8902   -1.2192 C   0  0  0  0  0  0  0  0  0  0  0  0
    1.7151    1.2976   -0.5946 C   0  0  0  0  0  0  0  0  0  0  0  0
    2.6487    0.6102   -1.2973 N   0  0  0  0  0  0  0  0  0  0  0  0
    3.6428    0.1704   -0.4841 C   0  0  0  0  0  0  0  0  0  0  0  0
    4.7461   -0.5701   -0.9142 C   0  0  0  0  0  0  0  0  0  0  0  0
    4.8896   -0.9019   -2.2216 F   0  0  0  0  0  0  0  0  0  0  0  0
    5.7069   -0.9669    0.0336 C   0  0  0  0  0  0  0  0  0  0  0  0
    6.7869   -1.6866   -0.3591 F   0  0  0  0  0  0  0  0  0  0  0  0
    5.5534   -0.6209    1.3915 C   0  0  0  0  0  0  0  0  0  0  0  0
    4.4398    0.1235    1.8122 C   0  0  0  0  0  0  0  0  0  0  0  0
    4.2831    0.4603    3.1163 F   0  0  0  0  0  0  0  0  0  0  0  0
    3.5029    0.5045    0.8542 C   0  0  0  0  0  0  0  0  0  0  0  0
    2.0882    1.3849    1.0568 S   0  0  0  0  0  0  0  0  0  0  0  0
   -1.1813   -0.0689   -1.0625 C   0  0  0  0  0  0  0  0  0  0  0  0
   -0.6785   -1.0034   -1.9678 C   0  0  0  0  0  0  0  0  0  0  0  0
   -1.3540   -2.2306   -2.0879 C   0  0  0  0  0  0  0  0  0  0  0  0
   -2.4995   -2.4960   -1.3064 C   0  0  0  0  0  0  0  0  0  0  0  0
   -2.9804   -1.5373   -0.3964 C   0  0  0  0  0  0  0  0  0  0  0  0
   -2.2941   -0.3234   -0.2994 C   0  0  0  0  0  0  0  0  0  0  0  0
   -5.8657   -0.7290    1.5165 H   0  0  0  0  0  0  0  0  0  0  0  0
   -3.6639   -0.0525    2.1397 H   0  0  0  0  0  0  0  0  0  0  0  0
   -3.4736    1.7291    2.1388 H   0  0  0  0  0  0  0  0  0  0  0  0
   -1.5290    2.6002    0.7791 H   0  0  0  0  0  0  0  0  0  0  0  0
    0.4452    2.9732   -0.9773 H   0  0  0  0  0  0  0  0  0  0  0  0
    0.5457    1.7875   -2.3242 H   0  0  0  0  0  0  0  0  0  0  0  0
    6.2975   -0.9307    2.1139 H   0  0  0  0  0  0  0  0  0  0  0  0
    0.2038   -0.7960   -2.5593 H   0  0  0  0  0  0  0  0  0  0  0  0
   -0.9914   -2.9778   -2.7817 H   0  0  0  0  0  0  0  0  0  0  0  0
   -3.0090   -3.4457   -1.4049 H   0  0  0  0  0  0  0  0  0  0  0  0
   -3.8517   -1.7444    0.2097 H   0  0  0  0  0  0  0  0  0  0  0  0
  1  2  1  0
  2  3  2  0
  2  4  1  0
  4  5  1  0
  5  6  1  0
  6  7  2  0
  7  8  1  0
  8  9  1  0
  9 10  2  0
 10 11  1  0
 11 12  2  0
 12 13  1  0
 12 14  1  0
 14 15  1  0
 14 16  2  0
 16 17  1  0
 17 18  1  0
 17 19  2  0
 19 11  1  0
 19 20  1  0
 20  9  1  0
  7 21  1  0
 21 22  2  0
 22 23  1  0
 23 24  2  0
 24 25  1  0
 25 26  2  0
 26  5  1  0
 26 21  1  0
  1 27  1  0
  4 28  1  0
  4 29  1  0
  6 30  1  0
  8 31  1  0
  8 32  1  0
 16 33  1  0
 22 34  1  0
 23 35  1  0
 24 36  1  0
 25 37  1  0
M  END
> <ID>
HT1209

> <Class>
0.0

> <Clusters>
201

> <Fold>
1

$$$$