
     RDKit          3D

 44 45  0  0  0  0  0  0  0  0999 V2000
   -1.1778   -1.9958    0.5757 C   0  0  0  0  0  0  0  0  0  0  0  0
   -0.6630   -0.6174    0.1189 C   0  0  2  0  0  0  0  0  0  0  0  0
   -1.5052   -0.0838   -1.0689 C   0  0  0  0  0  0  0  0  0  0  0  0
   -2.9287    0.2165   -0.6651 C   0  0  0  0  0  0  0  0  0  0  0  0
   -3.2094    1.3056    0.1716 C   0  0  0  0  0  0  0  0  0  0  0  0
   -4.5247    1.5860    0.5454 C   0  0  0  0  0  0  0  0  0  0  0  0
   -5.5818    0.7902    0.0897 C   0  0  0  0  0  0  0  0  0  0  0  0
   -6.8739    1.1233    0.5013 O   0  0  0  0  0  0  0  0  0  0  0  0
   -5.3086   -0.3079   -0.7606 C   0  0  0  0  0  0  0  0  0  0  0  0
   -6.3101   -1.1456   -1.2558 O   0  0  0  0  0  0  0  0  0  0  0  0
   -3.9856   -0.5808   -1.1308 C   0  0  0  0  0  0  0  0  0  0  0  0
    0.8710   -0.6536   -0.1777 C   0  0  1  0  0  0  0  0  0  0  0  0
    1.2220   -1.4360   -1.4585 C   0  0  0  0  0  0  0  0  0  0  0  0
    1.4733    0.7738   -0.2237 C   0  0  0  0  0  0  0  0  0  0  0  0
    2.9820    0.7579   -0.1598 C   0  0  0  0  0  0  0  0  0  0  0  0
    3.7464    1.1084   -1.2846 C   0  0  0  0  0  0  0  0  0  0  0  0
    5.1422    1.0933   -1.2213 C   0  0  0  0  0  0  0  0  0  0  0  0
    5.7912    0.7335   -0.0326 C   0  0  0  0  0  0  0  0  0  0  0  0
    7.1832    0.7164    0.0343 O   0  0  0  0  0  0  0  0  0  0  0  0
    5.0369    0.3894    1.0964 C   0  0  0  0  0  0  0  0  0  0  0  0
    5.6850    0.0349    2.2782 O   0  0  0  0  0  0  0  0  0  0  0  0
    3.6362    0.4043    1.0320 C   0  0  0  0  0  0  0  0  0  0  0  0
   -2.2107   -1.9065    0.9737 H   0  0  0  0  0  0  0  0  0  0  0  0
   -0.5412   -2.4007    1.3907 H   0  0  0  0  0  0  0  0  0  0  0  0
   -1.1923   -2.7198   -0.2652 H   0  0  0  0  0  0  0  0  0  0  0  0
   -0.8091    0.0657    0.9852 H   0  0  0  0  0  0  0  0  0  0  0  0
   -1.4923   -0.8268   -1.8959 H   0  0  0  0  0  0  0  0  0  0  0  0
   -1.0649    0.8507   -1.4725 H   0  0  0  0  0  0  0  0  0  0  0  0
   -2.4089    1.9396    0.5326 H   0  0  0  0  0  0  0  0  0  0  0  0
   -4.7252    2.4297    1.1938 H   0  0  0  0  0  0  0  0  0  0  0  0
   -7.7021    0.6137    0.2291 H   0  0  0  0  0  0  0  0  0  0  0  0
   -7.2923   -1.0346   -1.0492 H   0  0  0  0  0  0  0  0  0  0  0  0
   -3.7833   -1.4251   -1.7788 H   0  0  0  0  0  0  0  0  0  0  0  0
    1.3526   -1.1868    0.6722 H   0  0  0  0  0  0  0  0  0  0  0  0
    0.8652   -0.9011   -2.3636 H   0  0  0  0  0  0  0  0  0  0  0  0
    2.3225   -1.5592   -1.5409 H   0  0  0  0  0  0  0  0  0  0  0  0
    0.7792   -2.4520   -1.4386 H   0  0  0  0  0  0  0  0  0  0  0  0
    1.1401    1.2940   -1.1470 H   0  0  0  0  0  0  0  0  0  0  0  0
    1.1000    1.3750    0.6337 H   0  0  0  0  0  0  0  0  0  0  0  0
    3.2631    1.3854   -2.2133 H   0  0  0  0  0  0  0  0  0  0  0  0
    5.7191    1.3611   -2.0974 H   0  0  0  0  0  0  0  0  0  0  0  0
    7.7552    0.9606   -0.7658 H   0  0  0  0  0  0  0  0  0  0  0  0
    5.1670   -0.2190    3.1114 H   0  0  0  0  0  0  0  0  0  0  0  0
    3.0579    0.1435    1.9100 H   0  0  0  0  0  0  0  0  0  0  0  0
  2  1  1  0
  2  3  1  0
  3  4  1  0
  4  5  2  0
  5  6  1  0
  6  7  2  0
  7  8  1  0
  7  9  1  0
  9 10  1  0
  9 11  2  0
 11  4  1  0
  2 12  1  0
 12 13  1  0
 12 14  1  0
 14 15  1  0
 15 16  2  0
 16 17  1  0
 17 18  2  0
 18 19  1  0
 18 20  1  0
 20 21  1  0
 20 22  2  0
 22 15  1  0
  1 23  1  0
  1 24  1  0
  1 25  1  0
  2 26  1  1
  3 27  1  0
  3 28  1  0
  5 29  1  0
  6 30  1  0
  8 31  1  0
 10 32  1  0
 11 33  1  0
 12 34  1  1
 13 35  1  0
 13 36  1  0
 13 37  1  0
 14 38  1  0
 14 39  1  0
 16 40  1  0
 17 41  1  0
 19 42  1  0
 21 43  1  0
 22 44  1  0
M  END
> <ID>
HT1273

> <Class>
0.0

> <Clusters>
21

> <Fold>
1

$$$$