
     RDKit          3D

 33 36  0  0  0  0  0  0  0  0999 V2000
    0.1532   -0.3357    2.1031 O   0  0  0  0  0  0  0  0  0  0  0  0
    0.0847   -0.1975    0.7032 C   0  0  0  0  0  0  0  0  0  0  0  0
   -0.7865   -1.2419    0.1421 N   0  0  0  0  0  0  0  0  0  0  0  0
   -1.1608   -2.5411    0.6739 C   0  0  0  0  0  0  0  0  0  0  0  0
   -2.6575   -2.6594    0.3078 C   0  0  0  0  0  0  0  0  0  0  0  0
   -3.0332   -1.3455   -0.2112 N   0  0  0  0  0  0  0  0  0  0  0  0
   -1.9625   -0.6455   -0.3312 C   0  0  0  0  0  0  0  0  0  0  0  0
   -1.8693    0.7884   -0.2663 C   0  0  0  0  0  0  0  0  0  0  0  0
   -2.7782    1.7808   -0.6257 C   0  0  0  0  0  0  0  0  0  0  0  0
   -2.4171    3.1181   -0.3937 C   0  0  0  0  0  0  0  0  0  0  0  0
   -1.1777    3.4287    0.2033 C   0  0  0  0  0  0  0  0  0  0  0  0
   -0.2916    2.4043    0.5802 C   0  0  0  0  0  0  0  0  0  0  0  0
   -0.6605    1.0783    0.3368 C   0  0  0  0  0  0  0  0  0  0  0  0
    1.4549   -0.2736    0.0409 C   0  0  0  0  0  0  0  0  0  0  0  0
    1.5808   -0.0280   -1.3413 C   0  0  0  0  0  0  0  0  0  0  0  0
    2.8254   -0.1164   -1.9706 C   0  0  0  0  0  0  0  0  0  0  0  0
    3.9603   -0.4639   -1.2341 C   0  0  0  0  0  0  0  0  0  0  0  0
    5.5212   -0.5764   -2.0263 Cl  0  0  0  0  0  0  0  0  0  0  0  0
    3.8484   -0.7299    0.1330 C   0  0  0  0  0  0  0  0  0  0  0  0
    2.6056   -0.6426    0.7674 C   0  0  0  0  0  0  0  0  0  0  0  0
    0.6203    0.4641    2.4618 H   0  0  0  0  0  0  0  0  0  0  0  0
   -0.5661   -3.3387    0.1803 H   0  0  0  0  0  0  0  0  0  0  0  0
   -1.0176   -2.5765    1.7751 H   0  0  0  0  0  0  0  0  0  0  0  0
   -2.8211   -3.4331   -0.4728 H   0  0  0  0  0  0  0  0  0  0  0  0
   -3.2626   -2.8955    1.2090 H   0  0  0  0  0  0  0  0  0  0  0  0
   -3.7312    1.5303   -1.0733 H   0  0  0  0  0  0  0  0  0  0  0  0
   -3.0963    3.9142   -0.6697 H   0  0  0  0  0  0  0  0  0  0  0  0
   -0.9109    4.4622    0.3817 H   0  0  0  0  0  0  0  0  0  0  0  0
    0.6529    2.6386    1.0536 H   0  0  0  0  0  0  0  0  0  0  0  0
    0.7127    0.2320   -1.9341 H   0  0  0  0  0  0  0  0  0  0  0  0
    2.9050    0.0818   -3.0319 H   0  0  0  0  0  0  0  0  0  0  0  0
    4.7238   -1.0096    0.7053 H   0  0  0  0  0  0  0  0  0  0  0  0
    2.5516   -0.8710    1.8234 H   0  0  0  0  0  0  0  0  0  0  0  0
  1  2  1  0
  2  3  1  0
  3  4  1  0
  4  5  1  0
  5  6  1  0
  6  7  2  0
  7  3  1  0
  7  8  1  0
  8  9  2  0
  9 10  1  0
 10 11  2  0
 11 12  1  0
 12 13  2  0
 13  2  1  0
 13  8  1  0
  2 14  1  0
 14 15  2  0
 15 16  1  0
 16 17  2  0
 17 18  1  0
 17 19  1  0
 19 20  2  0
 20 14  1  0
  1 21  1  0
  4 22  1  0
  4 23  1  0
  5 24  1  0
  5 25  1  0
  9 26  1  0
 10 27  1  0
 11 28  1  0
 12 29  1  0
 15 30  1  0
 16 31  1  0
 19 32  1  0
 20 33  1  0
M  END
> <ID>
HT1274

> <Class>
0.0

> <Clusters>
50

> <Fold>
1

$$$$