
     RDKit          3D

 57 60  0  0  0  0  0  0  0  0999 V2000
   -3.3634    0.6847   -2.9120 C   0  0  0  0  0  0  0  0  0  0  0  0
   -2.4735    1.0482   -1.7182 C   0  0  0  0  0  0  0  0  0  0  0  0
   -0.9749    0.8100   -2.0002 C   0  0  0  0  0  0  0  0  0  0  0  0
   -0.2077    0.5097   -0.6904 C   0  0  0  0  0  0  0  0  0  0  0  0
    1.3157    0.4999   -0.9160 C   0  0  0  0  0  0  0  0  0  0  0  0
    1.9778    1.7508   -1.4846 C   0  0  0  0  0  0  0  0  0  0  0  0
    3.4549    1.6250   -1.0740 C   0  0  0  0  0  0  0  0  0  0  0  0
    3.5466    0.3922   -0.1396 C   0  0  0  0  0  0  0  0  0  0  0  0
    4.6010    0.5022    0.9502 C   0  0  0  0  0  0  0  0  0  0  0  0
    5.0509    1.5906    1.2768 O   0  0  0  0  0  0  0  0  0  0  0  0
    5.1123   -0.7254    1.6431 C   0  0  0  0  0  0  0  0  0  0  0  0
    2.0976    0.1933    0.3682 C   0  0  0  0  0  0  0  0  0  0  0  0
    1.7994    1.1824    1.5423 C   0  0  0  0  0  0  0  0  0  0  0  0
    1.7526   -1.2500    0.7886 C   0  0  0  0  0  0  0  0  0  0  0  0
    0.2243   -1.4502    1.0052 C   0  0  0  0  0  0  0  0  0  0  0  0
   -0.0154   -2.8223    1.2099 O   0  0  0  0  0  0  0  0  0  0  0  0
   -0.6671   -0.8949   -0.1691 C   0  0  0  0  0  0  0  0  0  0  0  0
   -2.2605   -0.9685    0.0228 C   0  0  0  0  0  0  0  0  0  0  0  0
   -2.7994   -2.0909   -0.9013 C   0  0  0  0  0  0  0  0  0  0  0  0
   -2.7393   -1.3588    1.4751 C   0  0  0  0  0  0  0  0  0  0  0  0
   -2.8458   -0.1645    2.4147 C   0  0  0  0  0  0  0  0  0  0  0  0
   -3.8171    0.7900    1.8185 C   0  0  0  0  0  0  0  0  0  0  0  0
   -4.6971    1.3451    2.5285 O   0  0  0  0  0  0  0  0  0  0  0  0
   -3.7073    1.0975    0.3935 C   0  0  0  0  0  0  0  0  0  0  0  0
   -2.9254    0.3670   -0.4305 C   0  0  0  0  0  0  0  0  0  0  0  0
   -3.0855    1.3077   -3.7888 H   0  0  0  0  0  0  0  0  0  0  0  0
   -3.2591   -0.3784   -3.1998 H   0  0  0  0  0  0  0  0  0  0  0  0
   -4.4283    0.8857   -2.6677 H   0  0  0  0  0  0  0  0  0  0  0  0
   -2.5755    2.1513   -1.5876 H   0  0  0  0  0  0  0  0  0  0  0  0
   -0.5622    1.7181   -2.4904 H   0  0  0  0  0  0  0  0  0  0  0  0
   -0.8386   -0.0312   -2.7160 H   0  0  0  0  0  0  0  0  0  0  0  0
   -0.4658    1.3010    0.0444 H   0  0  0  0  0  0  0  0  0  0  0  0
    1.5202   -0.3095   -1.6603 H   0  0  0  0  0  0  0  0  0  0  0  0
    1.5257    2.6667   -1.0445 H   0  0  0  0  0  0  0  0  0  0  0  0
    1.8773    1.7901   -2.5912 H   0  0  0  0  0  0  0  0  0  0  0  0
    3.7669    2.5641   -0.5687 H   0  0  0  0  0  0  0  0  0  0  0  0
    4.0992    1.4775   -1.9683 H   0  0  0  0  0  0  0  0  0  0  0  0
    3.8288   -0.4743   -0.7818 H   0  0  0  0  0  0  0  0  0  0  0  0
    6.2175   -0.7722    1.5494 H   0  0  0  0  0  0  0  0  0  0  0  0
    4.6840   -1.6464    1.1959 H   0  0  0  0  0  0  0  0  0  0  0  0
    4.8386   -0.6859    2.7181 H   0  0  0  0  0  0  0  0  0  0  0  0
    0.7415    1.1706    1.8640 H   0  0  0  0  0  0  0  0  0  0  0  0
    2.0534    2.2283    1.2732 H   0  0  0  0  0  0  0  0  0  0  0  0
    2.3987    0.9081    2.4360 H   0  0  0  0  0  0  0  0  0  0  0  0
    2.2848   -1.5076    1.7295 H   0  0  0  0  0  0  0  0  0  0  0  0
    2.1082   -1.9591    0.0082 H   0  0  0  0  0  0  0  0  0  0  0  0
   -0.0462   -0.9269    1.9412 H   0  0  0  0  0  0  0  0  0  0  0  0
    0.2025   -3.3015    0.3682 H   0  0  0  0  0  0  0  0  0  0  0  0
   -0.4009   -1.5778   -1.0087 H   0  0  0  0  0  0  0  0  0  0  0  0
   -2.4184   -1.9931   -1.9371 H   0  0  0  0  0  0  0  0  0  0  0  0
   -2.4743   -3.0869   -0.5291 H   0  0  0  0  0  0  0  0  0  0  0  0
   -3.9106   -2.0770   -0.9404 H   0  0  0  0  0  0  0  0  0  0  0  0
   -3.7592   -1.8070    1.4253 H   0  0  0  0  0  0  0  0  0  0  0  0
   -2.1300   -2.1476    1.9467 H   0  0  0  0  0  0  0  0  0  0  0  0
   -1.8623    0.3382    2.5195 H   0  0  0  0  0  0  0  0  0  0  0  0
   -3.1892   -0.4947    3.4191 H   0  0  0  0  0  0  0  0  0  0  0  0
   -4.1803    2.0066    0.0401 H   0  0  0  0  0  0  0  0  0  0  0  0
  1  2  1  0
  2  3  1  0
  3  4  1  0
  4  5  1  0
  5  6  1  0
  6  7  1  0
  7  8  1  0
  8  9  1  0
  9 10  2  0
  9 11  1  0
  8 12  1  0
 12  5  1  0
 12 13  1  0
 12 14  1  0
 14 15  1  0
 15 16  1  0
 15 17  1  0
 17  4  1  0
 17 18  1  0
 18 19  1  0
 18 20  1  0
 20 21  1  0
 21 22  1  0
 22 23  2  0
 22 24  1  0
 24 25  2  0
 25  2  1  0
 25 18  1  0
  1 26  1  0
  1 27  1  0
  1 28  1  0
  2 29  1  0
  3 30  1  0
  3 31  1  0
  4 32  1  0
  5 33  1  0
  6 34  1  0
  6 35  1  0
  7 36  1  0
  7 37  1  0
  8 38  1  0
 11 39  1  0
 11 40  1  0
 11 41  1  0
 13 42  1  0
 13 43  1  0
 13 44  1  0
 14 45  1  0
 14 46  1  0
 15 47  1  0
 16 48  1  0
 17 49  1  0
 19 50  1  0
 19 51  1  0
 19 52  1  0
 20 53  1  0
 20 54  1  0
 21 55  1  0
 21 56  1  0
 24 57  1  0
M  END
> <ID>
HT1287

> <Class>
0.0

> <Clusters>
129

> <Fold>
1

$$$$