
     RDKit          3D

 57 58  0  0  0  0  0  0  0  0999 V2000
   -4.2835   -0.8919    0.1669 C   0  0  0  0  0  0  0  0  0  0  0  0
   -3.0654    0.0190    0.3192 C   0  0  0  0  0  0  0  0  0  0  0  0
   -1.7798   -0.6351   -0.2449 C   0  0  2  0  0  0  0  0  0  0  0  0
   -1.6055   -1.9269    0.3527 O   0  0  0  0  0  0  0  0  0  0  0  0
   -1.6240   -3.1396   -0.3480 C   0  0  0  0  0  0  0  0  0  0  0  0
   -1.8590   -3.1745   -1.5863 O   0  0  0  0  0  0  0  0  0  0  0  0
   -1.4061   -4.4121    0.3959 C   0  0  0  0  0  0  0  0  0  0  0  0
   -0.4743    0.2628   -0.1049 C   0  0  0  0  0  0  0  0  0  0  0  0
    0.7637   -0.6364   -0.5169 C   0  0  0  0  0  0  0  0  0  0  0  0
    2.2327   -0.0870   -0.4021 C   0  0  2  0  0  0  0  0  0  0  0  0
    2.4566    1.0889   -1.3802 C   0  0  0  0  0  0  0  0  0  0  0  0
    3.2271   -1.1833   -0.6614 N   0  0  0  0  0  0  0  0  0  0  0  0
    3.1112   -2.2855    0.3216 C   0  0  0  0  0  0  0  0  0  0  0  0
    4.6224   -0.6903   -0.6482 C   0  0  0  0  0  0  0  0  0  0  0  0
   -0.7176    1.4448   -1.0870 C   0  0  0  0  0  0  0  0  0  0  0  0
   -1.3196    2.6519   -0.6511 C   0  0  0  0  0  0  0  0  0  0  0  0
   -1.5995    3.6866   -1.5471 C   0  0  0  0  0  0  0  0  0  0  0  0
   -1.3328    3.5286   -2.9049 C   0  0  0  0  0  0  0  0  0  0  0  0
   -0.8127    2.3243   -3.3735 C   0  0  0  0  0  0  0  0  0  0  0  0
   -0.5317    1.2847   -2.4829 C   0  0  0  0  0  0  0  0  0  0  0  0
   -0.2009    0.7393    1.3563 C   0  0  0  0  0  0  0  0  0  0  0  0
    0.5510    1.9161    1.6056 C   0  0  0  0  0  0  0  0  0  0  0  0
    0.8697    2.3166    2.9050 C   0  0  0  0  0  0  0  0  0  0  0  0
    0.4804    1.5398    3.9920 C   0  0  0  0  0  0  0  0  0  0  0  0
   -0.2130    0.3518    3.7795 C   0  0  0  0  0  0  0  0  0  0  0  0
   -0.5344   -0.0556    2.4816 C   0  0  0  0  0  0  0  0  0  0  0  0
   -5.1936   -0.3547    0.5078 H   0  0  0  0  0  0  0  0  0  0  0  0
   -4.1669   -1.8069    0.7853 H   0  0  0  0  0  0  0  0  0  0  0  0
   -4.4202   -1.1809   -0.8969 H   0  0  0  0  0  0  0  0  0  0  0  0
   -2.9493    0.2721    1.3920 H   0  0  0  0  0  0  0  0  0  0  0  0
   -3.2887    0.9548   -0.2310 H   0  0  0  0  0  0  0  0  0  0  0  0
   -1.9658   -0.7738   -1.3343 H   0  0  0  0  0  0  0  0  0  0  0  0
   -0.8693   -5.1428   -0.2452 H   0  0  0  0  0  0  0  0  0  0  0  0
   -0.7976   -4.2183    1.3042 H   0  0  0  0  0  0  0  0  0  0  0  0
   -2.3863   -4.8365    0.6967 H   0  0  0  0  0  0  0  0  0  0  0  0
    0.6228   -1.0909   -1.5182 H   0  0  0  0  0  0  0  0  0  0  0  0
    0.7140   -1.4900    0.1800 H   0  0  0  0  0  0  0  0  0  0  0  0
    2.3940    0.2988    0.6271 H   0  0  0  0  0  0  0  0  0  0  0  0
    3.4447    1.5643   -1.2214 H   0  0  0  0  0  0  0  0  0  0  0  0
    1.7496    1.9143   -1.2095 H   0  0  0  0  0  0  0  0  0  0  0  0
    2.3798    0.7411   -2.4321 H   0  0  0  0  0  0  0  0  0  0  0  0
    4.0072   -2.9437    0.3226 H   0  0  0  0  0  0  0  0  0  0  0  0
    2.2787   -2.9620    0.0402 H   0  0  0  0  0  0  0  0  0  0  0  0
    2.9622   -1.8985    1.3539 H   0  0  0  0  0  0  0  0  0  0  0  0
    4.8370   -0.1155   -1.5720 H   0  0  0  0  0  0  0  0  0  0  0  0
    5.3540   -1.5271   -0.6712 H   0  0  0  0  0  0  0  0  0  0  0  0
    4.8209   -0.0657    0.2509 H   0  0  0  0  0  0  0  0  0  0  0  0
   -1.6048    2.7928    0.3824 H   0  0  0  0  0  0  0  0  0  0  0  0
   -2.0427    4.6066   -1.1883 H   0  0  0  0  0  0  0  0  0  0  0  0
   -1.5553    4.3295   -3.5981 H   0  0  0  0  0  0  0  0  0  0  0  0
   -0.6399    2.1886   -4.4334 H   0  0  0  0  0  0  0  0  0  0  0  0
   -0.1731    0.3586   -2.9030 H   0  0  0  0  0  0  0  0  0  0  0  0
    0.9074    2.5343    0.7965 H   0  0  0  0  0  0  0  0  0  0  0  0
    1.4317    3.2274    3.0671 H   0  0  0  0  0  0  0  0  0  0  0  0
    0.7315    1.8495    4.9983 H   0  0  0  0  0  0  0  0  0  0  0  0
   -0.4942   -0.2647    4.6238 H   0  0  0  0  0  0  0  0  0  0  0  0
   -1.0428   -0.9976    2.3888 H   0  0  0  0  0  0  0  0  0  0  0  0
  1  2  1  0
  3  2  1  0
  3  4  1  0
  4  5  1  0
  5  6  2  0
  5  7  1  0
  3  8  1  0
  8  9  1  0
  9 10  1  0
 10 11  1  0
 10 12  1  0
 12 13  1  0
 12 14  1  0
  8 15  1  0
 15 16  2  0
 16 17  1  0
 17 18  2  0
 18 19  1  0
 19 20  2  0
 20 15  1  0
  8 21  1  0
 21 22  2  0
 22 23  1  0
 23 24  2  0
 24 25  1  0
 25 26  2  0
 26 21  1  0
  1 27  1  0
  1 28  1  0
  1 29  1  0
  2 30  1  0
  2 31  1  0
  3 32  1  6
  7 33  1  0
  7 34  1  0
  7 35  1  0
  9 36  1  0
  9 37  1  0
 10 38  1  1
 11 39  1  0
 11 40  1  0
 11 41  1  0
 13 42  1  0
 13 43  1  0
 13 44  1  0
 14 45  1  0
 14 46  1  0
 14 47  1  0
 16 48  1  0
 17 49  1  0
 18 50  1  0
 19 51  1  0
 20 52  1  0
 22 53  1  0
 23 54  1  0
 24 55  1  0
 25 56  1  0
 26 57  1  0
M  END
> <ID>
HT1198

> <Class>
0.0

> <Clusters>
163

> <Fold>
1

$$$$