
     RDKit          3D

 22 23  0  0  0  0  0  0  0  0999 V2000
    5.2409   -0.4679   -0.3412 Cl  0  0  0  0  0  0  0  0  0  0  0  0
    3.4917   -0.2948   -0.2906 C   0  0  0  0  0  0  0  0  0  0  0  0
    2.7034   -1.4328   -0.0913 C   0  0  0  0  0  0  0  0  0  0  0  0
    1.3109   -1.3271   -0.0463 C   0  0  0  0  0  0  0  0  0  0  0  0
    0.6879   -0.0786   -0.2018 C   0  0  0  0  0  0  0  0  0  0  0  0
    1.4826    1.0623   -0.4017 C   0  0  0  0  0  0  0  0  0  0  0  0
    2.8782    0.9593   -0.4462 C   0  0  0  0  0  0  0  0  0  0  0  0
    3.8320    2.4161   -0.6920 Cl  0  0  0  0  0  0  0  0  0  0  0  0
   -0.7462    0.0307   -0.1567 N   0  0  0  0  0  0  0  0  0  0  0  0
   -1.6300   -0.6497    0.7205 C   0  0  0  0  0  0  0  0  0  0  0  0
   -1.2384   -1.4312    1.6277 O   0  0  0  0  0  0  0  0  0  0  0  0
   -3.0641   -0.3053    0.4932 C   0  0  0  0  0  0  0  0  0  0  0  0
   -3.0226    0.7201   -0.6572 C   0  0  0  0  0  0  0  0  0  0  0  0
   -1.5702    0.8437   -0.9773 C   0  0  0  0  0  0  0  0  0  0  0  0
   -1.1227    1.5655   -1.9078 O   0  0  0  0  0  0  0  0  0  0  0  0
    3.1693   -2.4031    0.0251 H   0  0  0  0  0  0  0  0  0  0  0  0
    0.7195   -2.2231    0.0894 H   0  0  0  0  0  0  0  0  0  0  0  0
    1.0201    2.0356   -0.5027 H   0  0  0  0  0  0  0  0  0  0  0  0
   -3.6334   -1.2126    0.1979 H   0  0  0  0  0  0  0  0  0  0  0  0
   -3.5011    0.1446    1.4104 H   0  0  0  0  0  0  0  0  0  0  0  0
   -3.4281    1.7021   -0.3321 H   0  0  0  0  0  0  0  0  0  0  0  0
   -3.5799    0.3459   -1.5426 H   0  0  0  0  0  0  0  0  0  0  0  0
  1  2  1  0
  2  3  2  0
  3  4  1  0
  4  5  2  0
  5  6  1  0
  6  7  2  0
  7  2  1  0
  7  8  1  0
  5  9  1  0
  9 10  1  0
 10 11  2  0
 10 12  1  0
 12 13  1  0
 13 14  1  0
 14  9  1  0
 14 15  2  0
  3 16  1  0
  4 17  1  0
  6 18  1  0
 12 19  1  0
 12 20  1  0
 13 21  1  0
 13 22  1  0
M  END
> <ID>
HT0034

> <Class>
0.0

> <Clusters>
60

> <Fold>
1

$$$$