
     RDKit          3D

 52 53  0  0  0  0  0  0  0  0999 V2000
    4.6688   -3.4764   -0.7919 C   0  0  0  0  0  0  0  0  0  0  0  0
    4.3548   -1.9845   -0.8649 C   0  0  0  0  0  0  0  0  0  0  0  0
    3.2119   -1.6120    0.0928 C   0  0  0  0  0  0  0  0  0  0  0  0
    2.7510   -0.1449   -0.0636 C   0  0  0  0  0  0  0  0  0  0  0  0
    3.8142    0.8556    0.4553 C   0  0  0  0  0  0  0  0  0  0  0  0
    3.3885    2.3341    0.3676 C   0  0  0  0  0  0  0  0  0  0  0  0
    3.1770    2.8084   -1.0698 C   0  0  0  0  0  0  0  0  0  0  0  0
    1.4424    0.0435    0.6561 C   0  0  0  0  0  0  0  0  0  0  0  0
    1.3731   -0.1418    1.9028 O   0  0  0  0  0  0  0  0  0  0  0  0
    0.3144    0.4391   -0.0709 O   0  0  0  0  0  0  0  0  0  0  0  0
   -0.9767    0.6170    0.5110 C   0  0  0  0  0  0  0  0  0  0  0  0
   -1.5836   -0.7631    0.9081 C   0  0  0  0  0  0  0  0  0  0  0  0
   -3.1409   -0.7470    0.9360 C   0  0  0  0  0  0  0  0  0  0  0  0
   -3.5940    0.2945    1.9848 C   0  0  0  0  0  0  0  0  0  0  0  0
   -3.7571    1.5887    1.1784 C   0  0  0  0  0  0  0  0  0  0  0  0
   -3.3837    1.1811   -0.2652 C   0  0  0  0  0  0  0  0  0  0  0  0
   -1.8613    1.4421   -0.4668 C   0  0  0  0  0  0  0  0  0  0  0  0
   -3.6957   -0.2679   -0.3552 N   0  0  0  0  0  0  0  0  0  0  0  0
   -3.1402   -0.9495   -1.5608 C   0  0  0  0  0  0  0  0  0  0  0  0
   -5.1716   -0.4882   -0.4104 C   0  0  0  0  0  0  0  0  0  0  0  0
    4.9685   -3.7572    0.2404 H   0  0  0  0  0  0  0  0  0  0  0  0
    3.7815   -4.0736   -1.0919 H   0  0  0  0  0  0  0  0  0  0  0  0
    5.5056   -3.7145   -1.4819 H   0  0  0  0  0  0  0  0  0  0  0  0
    4.0717   -1.7298   -1.9093 H   0  0  0  0  0  0  0  0  0  0  0  0
    5.2754   -1.4238   -0.6004 H   0  0  0  0  0  0  0  0  0  0  0  0
    2.3479   -2.2808   -0.1228 H   0  0  0  0  0  0  0  0  0  0  0  0
    3.5300   -1.8007    1.1423 H   0  0  0  0  0  0  0  0  0  0  0  0
    2.5787    0.0428   -1.1456 H   0  0  0  0  0  0  0  0  0  0  0  0
    4.7560    0.7374   -0.1202 H   0  0  0  0  0  0  0  0  0  0  0  0
    4.0484    0.6238    1.5176 H   0  0  0  0  0  0  0  0  0  0  0  0
    2.4637    2.5114    0.9572 H   0  0  0  0  0  0  0  0  0  0  0  0
    4.1910    2.9535    0.8235 H   0  0  0  0  0  0  0  0  0  0  0  0
    3.0244    3.9082   -1.0764 H   0  0  0  0  0  0  0  0  0  0  0  0
    4.0648    2.5706   -1.6934 H   0  0  0  0  0  0  0  0  0  0  0  0
    2.2753    2.3344   -1.5101 H   0  0  0  0  0  0  0  0  0  0  0  0
   -0.8671    1.2232    1.4386 H   0  0  0  0  0  0  0  0  0  0  0  0
   -1.2068   -1.0473    1.9148 H   0  0  0  0  0  0  0  0  0  0  0  0
   -1.2182   -1.5654    0.2339 H   0  0  0  0  0  0  0  0  0  0  0  0
   -3.5164   -1.7630    1.1956 H   0  0  0  0  0  0  0  0  0  0  0  0
   -2.8635    0.4232    2.8137 H   0  0  0  0  0  0  0  0  0  0  0  0
   -4.5643   -0.0072    2.4352 H   0  0  0  0  0  0  0  0  0  0  0  0
   -3.1129    2.4011    1.5812 H   0  0  0  0  0  0  0  0  0  0  0  0
   -4.8101    1.9422    1.2204 H   0  0  0  0  0  0  0  0  0  0  0  0
   -3.9622    1.7752   -1.0089 H   0  0  0  0  0  0  0  0  0  0  0  0
   -1.5752    1.2480   -1.5215 H   0  0  0  0  0  0  0  0  0  0  0  0
   -1.6518    2.5238   -0.3143 H   0  0  0  0  0  0  0  0  0  0  0  0
   -3.5701   -0.5122   -2.4893 H   0  0  0  0  0  0  0  0  0  0  0  0
   -3.3798   -2.0360   -1.5402 H   0  0  0  0  0  0  0  0  0  0  0  0
   -2.0427   -0.8771   -1.6641 H   0  0  0  0  0  0  0  0  0  0  0  0
   -5.7200   -0.0294    0.4363 H   0  0  0  0  0  0  0  0  0  0  0  0
   -5.4107   -1.5752   -0.3928 H   0  0  0  0  0  0  0  0  0  0  0  0
   -5.6022   -0.0547   -1.3408 H   0  0  0  0  0  0  0  0  0  0  0  0
  1  2  1  0
  2  3  1  0
  3  4  1  0
  4  5  1  0
  5  6  1  0
  6  7  1  0
  4  8  1  0
  8  9  2  0
  8 10  1  0
 10 11  1  0
 11 12  1  0
 12 13  1  0
 13 14  1  0
 14 15  1  0
 15 16  1  0
 16 17  1  0
 17 11  1  0
 16 18  1  0
 18 13  1  0
 18 19  1  0
 18 20  1  0
  1 21  1  0
  1 22  1  0
  1 23  1  0
  2 24  1  0
  2 25  1  0
  3 26  1  0
  3 27  1  0
  4 28  1  0
  5 29  1  0
  5 30  1  0
  6 31  1  0
  6 32  1  0
  7 33  1  0
  7 34  1  0
  7 35  1  0
 11 36  1  0
 12 37  1  0
 12 38  1  0
 13 39  1  0
 14 40  1  0
 14 41  1  0
 15 42  1  0
 15 43  1  0
 16 44  1  0
 17 45  1  0
 17 46  1  0
 19 47  1  0
 19 48  1  0
 19 49  1  0
 20 50  1  0
 20 51  1  0
 20 52  1  0
M  CHG  1  18   1
M  END
> <ID>
HT0163

> <Class>
0.0

> <Clusters>
82

> <Fold>
1

$$$$