
     RDKit          3D

 25 25  0  0  0  0  0  0  0  0999 V2000
    2.3270   -0.9214    0.4669 C   0  0  0  0  0  0  0  0  0  0  0  0
    1.6148   -0.7329   -0.8877 C   0  0  2  0  0  0  0  0  0  0  0  0
    2.5997   -0.6830   -1.9730 N   0  0  0  0  0  0  0  0  0  0  0  0
    0.7326    0.5462   -0.9250 C   0  0  2  0  0  0  0  0  0  0  0  0
    1.4743    1.6511   -0.4667 O   0  0  0  0  0  0  0  0  0  0  0  0
   -0.5832    0.4882   -0.1547 C   0  0  0  0  0  0  0  0  0  0  0  0
   -1.3998    1.6356   -0.1708 C   0  0  0  0  0  0  0  0  0  0  0  0
   -2.6245    1.6545    0.5005 C   0  0  0  0  0  0  0  0  0  0  0  0
   -3.0609    0.5255    1.1929 C   0  0  0  0  0  0  0  0  0  0  0  0
   -2.2742   -0.6315    1.2114 C   0  0  0  0  0  0  0  0  0  0  0  0
   -2.7038   -1.7681    1.8933 O   0  0  0  0  0  0  0  0  0  0  0  0
   -1.0463   -0.6533    0.5394 C   0  0  0  0  0  0  0  0  0  0  0  0
    1.6099   -0.8910    1.3114 H   0  0  0  0  0  0  0  0  0  0  0  0
    3.0840   -0.1250    0.6289 H   0  0  0  0  0  0  0  0  0  0  0  0
    2.8432   -1.9045    0.4856 H   0  0  0  0  0  0  0  0  0  0  0  0
    0.9707   -1.6171   -1.0822 H   0  0  0  0  0  0  0  0  0  0  0  0
    3.3193    0.0474   -1.7651 H   0  0  0  0  0  0  0  0  0  0  0  0
    3.0974   -1.6022   -2.0172 H   0  0  0  0  0  0  0  0  0  0  0  0
    0.4414    0.7106   -1.9907 H   0  0  0  0  0  0  0  0  0  0  0  0
    1.9791    2.0105   -1.2423 H   0  0  0  0  0  0  0  0  0  0  0  0
   -1.0849    2.5225   -0.7074 H   0  0  0  0  0  0  0  0  0  0  0  0
   -3.2372    2.5466    0.4816 H   0  0  0  0  0  0  0  0  0  0  0  0
   -4.0115    0.5486    1.7103 H   0  0  0  0  0  0  0  0  0  0  0  0
   -3.5873   -1.7863    2.3892 H   0  0  0  0  0  0  0  0  0  0  0  0
   -0.4799   -1.5709    0.5715 H   0  0  0  0  0  0  0  0  0  0  0  0
  2  1  1  0
  2  3  1  0
  2  4  1  0
  4  5  1  0
  4  6  1  0
  6  7  2  0
  7  8  1  0
  8  9  2  0
  9 10  1  0
 10 11  1  0
 10 12  2  0
 12  6  1  0
  1 13  1  0
  1 14  1  0
  1 15  1  0
  2 16  1  6
  3 17  1  0
  3 18  1  0
  4 19  1  6
  5 20  1  0
  7 21  1  0
  8 22  1  0
  9 23  1  0
 11 24  1  0
 12 25  1  0
M  END
> <ID>
HT1325

> <Class>
0.0

> <Clusters>
196

> <Fold>
1

$$$$