
     RDKit          3D

 25 26  0  0  0  0  0  0  0  0999 V2000
   -4.7004   -0.1114   -0.3834 N   0  0  0  0  0  0  0  0  0  0  0  0
   -3.3222    0.0101   -0.0213 C   0  0  0  0  0  0  0  0  0  0  0  0
   -2.7770   -0.8215    0.9645 C   0  0  0  0  0  0  0  0  0  0  0  0
   -1.4296   -0.7059    1.3225 C   0  0  0  0  0  0  0  0  0  0  0  0
   -0.7823   -1.7826    2.5533 Cl  0  0  0  0  0  0  0  0  0  0  0  0
   -0.6078    0.2409    0.6839 C   0  0  0  0  0  0  0  0  0  0  0  0
    0.7730    0.3541    1.0580 N   0  0  0  0  0  0  0  0  0  0  0  0
    1.8418    0.0932    0.1406 C   0  0  0  0  0  0  0  0  0  0  0  0
    1.6493   -0.3055   -1.0689 N   0  0  0  0  0  0  0  0  0  0  0  0
    2.9369   -0.4990   -1.7256 C   0  0  0  0  0  0  0  0  0  0  0  0
    3.9895   -0.1513   -0.6592 C   0  0  0  0  0  0  0  0  0  0  0  0
    3.2014    0.2155    0.5002 N   0  0  0  0  0  0  0  0  0  0  0  0
   -1.1628    1.0912   -0.2943 C   0  0  0  0  0  0  0  0  0  0  0  0
   -0.2120    2.3643   -1.0503 Cl  0  0  0  0  0  0  0  0  0  0  0  0
   -2.5120    0.9674   -0.6443 C   0  0  0  0  0  0  0  0  0  0  0  0
   -5.1175    0.5058   -1.1156 H   0  0  0  0  0  0  0  0  0  0  0  0
   -5.3140   -0.8200    0.0774 H   0  0  0  0  0  0  0  0  0  0  0  0
   -3.4001   -1.5604    1.4532 H   0  0  0  0  0  0  0  0  0  0  0  0
    1.0096    0.4749    2.0682 H   0  0  0  0  0  0  0  0  0  0  0  0
    3.0184    0.1811   -2.6004 H   0  0  0  0  0  0  0  0  0  0  0  0
    3.0370   -1.5557   -2.0540 H   0  0  0  0  0  0  0  0  0  0  0  0
    4.6264   -1.0304   -0.4224 H   0  0  0  0  0  0  0  0  0  0  0  0
    4.6170    0.7079   -0.9793 H   0  0  0  0  0  0  0  0  0  0  0  0
    3.5709    0.5127    1.4303 H   0  0  0  0  0  0  0  0  0  0  0  0
   -2.9334    1.6247   -1.3949 H   0  0  0  0  0  0  0  0  0  0  0  0
  1  2  1  0
  2  3  2  0
  3  4  1  0
  4  5  1  0
  4  6  2  0
  6  7  1  0
  7  8  1  0
  8  9  2  0
  9 10  1  0
 10 11  1  0
 11 12  1  0
 12  8  1  0
  6 13  1  0
 13 14  1  0
 13 15  2  0
 15  2  1  0
  1 16  1  0
  1 17  1  0
  3 18  1  0
  7 19  1  0
 10 20  1  0
 10 21  1  0
 11 22  1  0
 11 23  1  0
 12 24  1  0
 15 25  1  0
M  END
> <ID>
HT0172

> <Class>
0.0

> <Clusters>
60

> <Fold>
1

$$$$