
     RDKit          3D

 99101  0  0  0  0  0  0  0  0999 V2000
    5.0826    1.2936    4.4442 C   0  0  0  0  0  0  0  0  0  0  0  0
    4.4397    1.7714    3.2846 O   0  0  0  0  0  0  0  0  0  0  0  0
    5.3438    1.8040    2.1975 C   0  0  0  0  0  0  0  0  0  0  0  0
    5.1191    0.5851    1.2918 C   0  0  1  0  0  0  0  0  0  0  0  0
    3.8005    0.6266    0.7882 O   0  0  0  0  0  0  0  0  0  0  0  0
    3.4186   -0.6085    0.1879 C   0  0  1  0  0  0  0  0  0  0  0  0
    2.3095   -0.3711   -0.6624 O   0  0  0  0  0  0  0  0  0  0  0  0
    1.1184   -0.1096    0.0657 C   0  0  2  0  0  0  0  0  0  0  0  0
   -0.0039   -1.0306   -0.4763 C   0  0  1  0  0  0  0  0  0  0  0  0
    0.3152   -2.5076   -0.2166 C   0  0  0  0  0  0  0  0  0  0  0  0
   -0.7439   -3.3028   -0.7094 O   0  0  0  0  0  0  0  0  0  0  0  0
   -0.4384   -4.6656   -0.5122 C   0  0  0  0  0  0  0  0  0  0  0  0
   -1.2390   -0.7262    0.1488 O   0  0  0  0  0  0  0  0  0  0  0  0
   -1.6676    0.5775   -0.1999 C   0  0  1  0  0  0  0  0  0  0  0  0
   -2.9515    0.7994    0.3597 O   0  0  0  0  0  0  0  0  0  0  0  0
   -4.0102    0.3972   -0.5031 C   0  0  2  0  0  0  0  0  0  0  0  0
   -5.1931    1.3787   -0.2830 C   0  0  1  0  0  0  0  0  0  0  0  0
   -6.1726    1.4789   -1.4727 C   0  0  0  0  0  0  0  0  0  0  0  0
   -5.5063    2.0452   -2.5826 O   0  0  0  0  0  0  0  0  0  0  0  0
   -6.4119    2.1841   -3.6544 C   0  0  0  0  0  0  0  0  0  0  0  0
   -5.8586    1.2034    0.9640 O   0  0  0  0  0  0  0  0  0  0  0  0
   -6.2966   -0.1271    1.2169 C   0  0  1  0  0  0  0  0  0  0  0  0
   -7.3462   -0.5089    0.3442 O   0  0  0  0  0  0  0  0  0  0  0  0
   -8.5504    0.1219    0.7221 C   0  0  0  0  0  0  0  0  0  0  0  0
   -5.1423   -1.1448    1.1523 C   0  0  2  0  0  0  0  0  0  0  0  0
   -4.2335   -0.8612    2.2058 O   0  0  0  0  0  0  0  0  0  0  0  0
   -3.7310   -2.0511    2.7735 C   0  0  0  0  0  0  0  0  0  0  0  0
   -4.4163   -1.0646   -0.2018 C   0  0  1  0  0  0  0  0  0  0  0  0
   -5.2729   -1.5588   -1.2205 O   0  0  0  0  0  0  0  0  0  0  0  0
   -4.5468   -2.2880   -2.1860 C   0  0  0  0  0  0  0  0  0  0  0  0
   -0.7017    1.6120    0.4029 C   0  0  2  0  0  0  0  0  0  0  0  0
   -1.1178    2.9145    0.0221 O   0  0  0  0  0  0  0  0  0  0  0  0
   -1.5697    3.6466    1.1404 C   0  0  0  0  0  0  0  0  0  0  0  0
    0.7161    1.3664   -0.1425 C   0  0  1  0  0  0  0  0  0  0  0  0
    1.6220    2.2053    0.5605 O   0  0  0  0  0  0  0  0  0  0  0  0
    2.1937    3.1661   -0.2963 C   0  0  0  0  0  0  0  0  0  0  0  0
    4.5494   -1.2513   -0.6694 C   0  0  2  0  0  0  0  0  0  0  0  0
    5.2221   -2.2294    0.1119 O   0  0  0  0  0  0  0  0  0  0  0  0
    5.5293   -3.3708   -0.6605 C   0  0  0  0  0  0  0  0  0  0  0  0
    5.5541   -0.1680   -1.1131 C   0  0  1  0  0  0  0  0  0  0  0  0
    4.8880    0.7781   -1.9379 O   0  0  0  0  0  0  0  0  0  0  0  0
    5.0888    0.4908   -3.3040 C   0  0  0  0  0  0  0  0  0  0  0  0
    6.1351    0.5730    0.1213 C   0  0  2  0  0  0  0  0  0  0  0  0
    7.3178   -0.0780    0.5635 O   0  0  0  0  0  0  0  0  0  0  0  0
    8.4643    0.5699    0.0580 C   0  0  0  0  0  0  0  0  0  0  0  0
    4.3218    1.1387    5.2378 H   0  0  0  0  0  0  0  0  0  0  0  0
    5.5811    0.3163    4.2674 H   0  0  0  0  0  0  0  0  0  0  0  0
    5.8208    2.0382    4.8176 H   0  0  0  0  0  0  0  0  0  0  0  0
    5.1325    2.7270    1.6154 H   0  0  0  0  0  0  0  0  0  0  0  0
    6.4170    1.8636    2.5054 H   0  0  0  0  0  0  0  0  0  0  0  0
    5.2575   -0.3245    1.9224 H   0  0  0  0  0  0  0  0  0  0  0  0
    3.1439   -1.3401    0.9862 H   0  0  0  0  0  0  0  0  0  0  0  0
    1.2081   -0.2880    1.1659 H   0  0  0  0  0  0  0  0  0  0  0  0
   -0.0853   -0.9048   -1.5831 H   0  0  0  0  0  0  0  0  0  0  0  0
    1.2685   -2.7649   -0.7330 H   0  0  0  0  0  0  0  0  0  0  0  0
    0.4334   -2.6587    0.8800 H   0  0  0  0  0  0  0  0  0  0  0  0
    0.4562   -4.9637   -1.1008 H   0  0  0  0  0  0  0  0  0  0  0  0
   -0.2899   -4.8953    0.5656 H   0  0  0  0  0  0  0  0  0  0  0  0
   -1.2928   -5.2727   -0.8719 H   0  0  0  0  0  0  0  0  0  0  0  0
   -1.6592    0.7232   -1.3090 H   0  0  0  0  0  0  0  0  0  0  0  0
   -3.7283    0.4755   -1.5771 H   0  0  0  0  0  0  0  0  0  0  0  0
   -4.7320    2.3920   -0.2255 H   0  0  0  0  0  0  0  0  0  0  0  0
   -7.0216    2.1293   -1.1615 H   0  0  0  0  0  0  0  0  0  0  0  0
   -6.5728    0.4783   -1.7391 H   0  0  0  0  0  0  0  0  0  0  0  0
   -7.2173    2.9107   -3.4054 H   0  0  0  0  0  0  0  0  0  0  0  0
   -6.8509    1.2045   -3.9448 H   0  0  0  0  0  0  0  0  0  0  0  0
   -5.8604    2.5778   -4.5332 H   0  0  0  0  0  0  0  0  0  0  0  0
   -6.6534   -0.1650    2.2737 H   0  0  0  0  0  0  0  0  0  0  0  0
   -8.4375    1.2254    0.7868 H   0  0  0  0  0  0  0  0  0  0  0  0
   -8.9198   -0.2820    1.6902 H   0  0  0  0  0  0  0  0  0  0  0  0
   -9.3190   -0.0933   -0.0479 H   0  0  0  0  0  0  0  0  0  0  0  0
   -5.6043   -2.1577    1.2479 H   0  0  0  0  0  0  0  0  0  0  0  0
   -2.9538   -1.7839    3.5175 H   0  0  0  0  0  0  0  0  0  0  0  0
   -3.2559   -2.7011    2.0070 H   0  0  0  0  0  0  0  0  0  0  0  0
   -4.5386   -2.6005    3.3055 H   0  0  0  0  0  0  0  0  0  0  0  0
   -3.4948   -1.6871   -0.1084 H   0  0  0  0  0  0  0  0  0  0  0  0
   -5.2254   -2.5232   -3.0307 H   0  0  0  0  0  0  0  0  0  0  0  0
   -3.6909   -1.7019   -2.5898 H   0  0  0  0  0  0  0  0  0  0  0  0
   -4.1879   -3.2480   -1.7567 H   0  0  0  0  0  0  0  0  0  0  0  0
   -0.6692    1.4529    1.5133 H   0  0  0  0  0  0  0  0  0  0  0  0
   -0.7471    3.8067    1.8730 H   0  0  0  0  0  0  0  0  0  0  0  0
   -2.4330    3.1416    1.6282 H   0  0  0  0  0  0  0  0  0  0  0  0
   -1.9136    4.6426    0.7939 H   0  0  0  0  0  0  0  0  0  0  0  0
    0.6986    1.5519   -1.2457 H   0  0  0  0  0  0  0  0  0  0  0  0
    2.7959    2.6784   -1.0915 H   0  0  0  0  0  0  0  0  0  0  0  0
    1.4132    3.8151   -0.7423 H   0  0  0  0  0  0  0  0  0  0  0  0
    2.8750    3.8093    0.2959 H   0  0  0  0  0  0  0  0  0  0  0  0
    4.0771   -1.6929   -1.5814 H   0  0  0  0  0  0  0  0  0  0  0  0
    4.6003   -3.9090   -0.9540 H   0  0  0  0  0  0  0  0  0  0  0  0
    6.1410   -4.0617   -0.0448 H   0  0  0  0  0  0  0  0  0  0  0  0
    6.1217   -3.1056   -1.5638 H   0  0  0  0  0  0  0  0  0  0  0  0
    6.4041   -0.6632   -1.6430 H   0  0  0  0  0  0  0  0  0  0  0  0
    4.4674    1.1847   -3.9046 H   0  0  0  0  0  0  0  0  0  0  0  0
    4.7769   -0.5457   -3.5550 H   0  0  0  0  0  0  0  0  0  0  0  0
    6.1509    0.6545   -3.5827 H   0  0  0  0  0  0  0  0  0  0  0  0
    6.3181    1.6347   -0.1810 H   0  0  0  0  0  0  0  0  0  0  0  0
    8.5690    1.5857    0.4998 H   0  0  0  0  0  0  0  0  0  0  0  0
    8.4399    0.6290   -1.0524 H   0  0  0  0  0  0  0  0  0  0  0  0
    9.3593   -0.0191    0.3473 H   0  0  0  0  0  0  0  0  0  0  0  0
  1  2  1  0
  2  3  1  0
  4  3  1  0
  4  5  1  0
  5  6  1  0
  6  7  1  0
  8  7  1  0
  8  9  1  0
  9 10  1  0
 10 11  1  0
 11 12  1  0
  9 13  1  0
 13 14  1  0
 14 15  1  0
 16 15  1  0
 16 17  1  0
 17 18  1  0
 18 19  1  0
 19 20  1  0
 17 21  1  0
 21 22  1  0
 22 23  1  0
 23 24  1  0
 22 25  1  0
 25 26  1  0
 26 27  1  0
 25 28  1  0
 28 16  1  0
 28 29  1  0
 29 30  1  0
 14 31  1  0
 31 32  1  0
 32 33  1  0
 31 34  1  0
 34  8  1  0
 34 35  1  0
 35 36  1  0
  6 37  1  0
 37 38  1  0
 38 39  1  0
 37 40  1  0
 40 41  1  0
 41 42  1  0
 40 43  1  0
 43  4  1  0
 43 44  1  0
 44 45  1  0
  1 46  1  0
  1 47  1  0
  1 48  1  0
  3 49  1  0
  3 50  1  0
  4 51  1  1
  6 52  1  1
  8 53  1  1
  9 54  1  6
 10 55  1  0
 10 56  1  0
 12 57  1  0
 12 58  1  0
 12 59  1  0
 14 60  1  6
 16 61  1  6
 17 62  1  1
 18 63  1  0
 18 64  1  0
 20 65  1  0
 20 66  1  0
 20 67  1  0
 22 68  1  1
 24 69  1  0
 24 70  1  0
 24 71  1  0
 25 72  1  1
 27 73  1  0
 27 74  1  0
 27 75  1  0
 28 76  1  1
 30 77  1  0
 30 78  1  0
 30 79  1  0
 31 80  1  1
 33 81  1  0
 33 82  1  0
 33 83  1  0
 34 84  1  6
 36 85  1  0
 36 86  1  0
 36 87  1  0
 37 88  1  6
 39 89  1  0
 39 90  1  0
 39 91  1  0
 40 92  1  6
 42 93  1  0
 42 94  1  0
 42 95  1  0
 43 96  1  6
 45 97  1  0
 45 98  1  0
 45 99  1  0
M  END
> <ID>
HT1360

> <Class>
0.0

> <Clusters>
141

> <Fold>
1

$$$$