
     RDKit          3D

 50 51  0  0  0  0  0  0  0  0999 V2000
   -1.1171   -1.2948    3.5811 C   0  0  0  0  0  0  0  0  0  0  0  0
   -1.6713   -1.4542    2.1694 C   0  0  0  0  0  0  0  0  0  0  0  0
   -1.6718   -0.1320    1.4366 C   0  0  0  0  0  0  0  0  0  0  0  0
   -2.5040    0.6998    1.7734 O   0  0  0  0  0  0  0  0  0  0  0  0
   -0.7545    0.1237    0.2225 C   0  0  0  0  0  0  0  0  0  0  0  0
    0.7308   -0.1299    0.6920 C   0  0  0  0  0  0  0  0  0  0  0  0
    1.8936    0.1790   -0.3166 C   0  0  0  0  0  0  0  0  0  0  0  0
    2.2383    1.6795   -0.3992 C   0  0  0  0  0  0  0  0  0  0  0  0
    3.1482   -0.5604    0.0029 N   0  0  0  0  0  0  0  0  0  0  0  0
    3.1367   -1.9624   -0.4420 C   0  0  0  0  0  0  0  0  0  0  0  0
    3.5762   -0.4609    1.4108 C   0  0  0  0  0  0  0  0  0  0  0  0
   -0.8733    1.5983   -0.2368 C   0  0  0  0  0  0  0  0  0  0  0  0
   -0.7354    2.6440    0.7066 C   0  0  0  0  0  0  0  0  0  0  0  0
   -0.8085    3.9829    0.3144 C   0  0  0  0  0  0  0  0  0  0  0  0
   -0.9969    4.3106   -1.0273 C   0  0  0  0  0  0  0  0  0  0  0  0
   -1.0948    3.3004   -1.9831 C   0  0  0  0  0  0  0  0  0  0  0  0
   -1.0196    1.9583   -1.5998 C   0  0  0  0  0  0  0  0  0  0  0  0
   -1.2712   -0.8524   -0.8620 C   0  0  0  0  0  0  0  0  0  0  0  0
   -2.5971   -0.7049   -1.3367 C   0  0  0  0  0  0  0  0  0  0  0  0
   -3.1257   -1.5788   -2.2895 C   0  0  0  0  0  0  0  0  0  0  0  0
   -2.3546   -2.6335   -2.7738 C   0  0  0  0  0  0  0  0  0  0  0  0
   -1.0586   -2.8223   -2.2963 C   0  0  0  0  0  0  0  0  0  0  0  0
   -0.5243   -1.9506   -1.3428 C   0  0  0  0  0  0  0  0  0  0  0  0
   -1.7332   -0.5741    4.1600 H   0  0  0  0  0  0  0  0  0  0  0  0
   -0.0674   -0.9340    3.5460 H   0  0  0  0  0  0  0  0  0  0  0  0
   -1.1372   -2.2758    4.1006 H   0  0  0  0  0  0  0  0  0  0  0  0
   -2.7131   -1.8374    2.2251 H   0  0  0  0  0  0  0  0  0  0  0  0
   -1.0768   -2.2179    1.6270 H   0  0  0  0  0  0  0  0  0  0  0  0
    0.9137    0.4567    1.6190 H   0  0  0  0  0  0  0  0  0  0  0  0
    0.8211   -1.1841    1.0142 H   0  0  0  0  0  0  0  0  0  0  0  0
    1.5611   -0.1064   -1.3381 H   0  0  0  0  0  0  0  0  0  0  0  0
    1.5671    2.2124   -1.0970 H   0  0  0  0  0  0  0  0  0  0  0  0
    2.1913    2.1662    0.5974 H   0  0  0  0  0  0  0  0  0  0  0  0
    3.2652    1.8145   -0.8016 H   0  0  0  0  0  0  0  0  0  0  0  0
    2.8394   -2.0314   -1.5100 H   0  0  0  0  0  0  0  0  0  0  0  0
    4.1604   -2.3873   -0.3655 H   0  0  0  0  0  0  0  0  0  0  0  0
    2.4563   -2.5822    0.1796 H   0  0  0  0  0  0  0  0  0  0  0  0
    2.9278   -1.0667    2.0799 H   0  0  0  0  0  0  0  0  0  0  0  0
    4.6203   -0.8271    1.5103 H   0  0  0  0  0  0  0  0  0  0  0  0
    3.5682    0.5942    1.7540 H   0  0  0  0  0  0  0  0  0  0  0  0
   -0.5617    2.4237    1.7521 H   0  0  0  0  0  0  0  0  0  0  0  0
   -0.7102    4.7680    1.0529 H   0  0  0  0  0  0  0  0  0  0  0  0
   -1.0495    5.3487   -1.3290 H   0  0  0  0  0  0  0  0  0  0  0  0
   -1.2130    3.5574   -3.0279 H   0  0  0  0  0  0  0  0  0  0  0  0
   -1.0453    1.2134   -2.3823 H   0  0  0  0  0  0  0  0  0  0  0  0
   -3.2224    0.0998   -0.9701 H   0  0  0  0  0  0  0  0  0  0  0  0
   -4.1372   -1.4396   -2.6486 H   0  0  0  0  0  0  0  0  0  0  0  0
   -2.7654   -3.3121   -3.5101 H   0  0  0  0  0  0  0  0  0  0  0  0
   -0.4676   -3.6539   -2.6582 H   0  0  0  0  0  0  0  0  0  0  0  0
    0.4628   -2.1645   -0.9835 H   0  0  0  0  0  0  0  0  0  0  0  0
  1  2  1  0
  2  3  1  0
  3  4  2  0
  3  5  1  0
  5  6  1  0
  6  7  1  0
  7  8  1  0
  7  9  1  0
  9 10  1  0
  9 11  1  0
  5 12  1  0
 12 13  2  0
 13 14  1  0
 14 15  2  0
 15 16  1  0
 16 17  2  0
 17 12  1  0
  5 18  1  0
 18 19  2  0
 19 20  1  0
 20 21  2  0
 21 22  1  0
 22 23  2  0
 23 18  1  0
  1 24  1  0
  1 25  1  0
  1 26  1  0
  2 27  1  0
  2 28  1  0
  6 29  1  0
  6 30  1  0
  7 31  1  0
  8 32  1  0
  8 33  1  0
  8 34  1  0
 10 35  1  0
 10 36  1  0
 10 37  1  0
 11 38  1  0
 11 39  1  0
 11 40  1  0
 13 41  1  0
 14 42  1  0
 15 43  1  0
 16 44  1  0
 17 45  1  0
 19 46  1  0
 20 47  1  0
 21 48  1  0
 22 49  1  0
 23 50  1  0
M  END
> <ID>
HT1331

> <Class>
0.0

> <Clusters>
163

> <Fold>
1

$$$$