
     RDKit          3D

 52 54  0  0  0  0  0  0  0  0999 V2000
    9.2055   -0.6149    2.0655 N   0  0  0  0  0  0  0  0  0  0  0  0
    8.5484   -0.6175    0.8014 C   0  0  0  0  0  0  0  0  0  0  0  0
    7.3205   -1.1414    0.6069 N   0  0  0  0  0  0  0  0  0  0  0  0
    6.9278   -1.0145   -0.6898 C   0  0  0  0  0  0  0  0  0  0  0  0
    5.5781   -1.4776   -1.1545 C   0  0  0  0  0  0  0  0  0  0  0  0
    4.5177   -0.4230   -0.9893 C   0  0  0  0  0  0  0  0  0  0  0  0
    4.8179    0.7278   -0.5653 O   0  0  0  0  0  0  0  0  0  0  0  0
    3.1654   -0.7277   -1.3643 N   0  0  0  0  0  0  0  0  0  0  0  0
    2.0376    0.1143   -1.0698 C   0  0  0  0  0  0  0  0  0  0  0  0
    1.9581    0.8416    0.1312 C   0  0  0  0  0  0  0  0  0  0  0  0
    0.8384    1.6322    0.4055 C   0  0  0  0  0  0  0  0  0  0  0  0
   -0.2228    1.7019   -0.5100 C   0  0  0  0  0  0  0  0  0  0  0  0
   -1.4391    2.5366   -0.1987 C   0  0  0  0  0  0  0  0  0  0  0  0
   -2.3553    1.8694    0.8458 C   0  0  0  0  0  0  0  0  0  0  0  0
   -2.9146    0.5804    0.4053 N   0  0  0  0  0  0  0  0  0  0  0  0
   -3.9013    0.7319   -0.6736 C   0  0  0  0  0  0  0  0  0  0  0  0
   -4.6957   -0.5726   -0.8537 C   0  0  2  0  0  0  0  0  0  0  0  0
   -5.6264   -0.4287   -1.8953 O   0  0  0  0  0  0  0  0  0  0  0  0
   -5.4281   -0.9460    0.4163 C   0  0  0  0  0  0  0  0  0  0  0  0
   -6.4824   -0.1470    0.8970 C   0  0  0  0  0  0  0  0  0  0  0  0
   -7.1533   -0.4951    2.0734 C   0  0  0  0  0  0  0  0  0  0  0  0
   -6.7805   -1.6416    2.7794 C   0  0  0  0  0  0  0  0  0  0  0  0
   -5.7360   -2.4420    2.3105 C   0  0  0  0  0  0  0  0  0  0  0  0
   -5.0623   -2.0987    1.1342 C   0  0  0  0  0  0  0  0  0  0  0  0
   -0.1547    0.9569   -1.6975 C   0  0  0  0  0  0  0  0  0  0  0  0
    0.9638    0.1648   -1.9703 C   0  0  0  0  0  0  0  0  0  0  0  0
    7.8405   -0.3717   -1.5252 C   0  0  0  0  0  0  0  0  0  0  0  0
    9.1917    0.0332   -0.6069 S   0  0  0  0  0  0  0  0  0  0  0  0
   10.1558   -0.1950    2.1646 H   0  0  0  0  0  0  0  0  0  0  0  0
    8.7413   -1.0348    2.9009 H   0  0  0  0  0  0  0  0  0  0  0  0
    5.2834   -2.3752   -0.5702 H   0  0  0  0  0  0  0  0  0  0  0  0
    5.6324   -1.7726   -2.2245 H   0  0  0  0  0  0  0  0  0  0  0  0
    3.0059   -1.5714   -1.9604 H   0  0  0  0  0  0  0  0  0  0  0  0
    2.7453    0.7785    0.8703 H   0  0  0  0  0  0  0  0  0  0  0  0
    0.7936    2.1833    1.3368 H   0  0  0  0  0  0  0  0  0  0  0  0
   -2.0094    2.7664   -1.1234 H   0  0  0  0  0  0  0  0  0  0  0  0
   -1.1035    3.5163    0.2053 H   0  0  0  0  0  0  0  0  0  0  0  0
   -3.1780    2.5691    1.1120 H   0  0  0  0  0  0  0  0  0  0  0  0
   -1.7768    1.7014    1.7797 H   0  0  0  0  0  0  0  0  0  0  0  0
   -2.1470   -0.0566    0.0897 H   0  0  0  0  0  0  0  0  0  0  0  0
   -4.6056    1.5635   -0.4493 H   0  0  0  0  0  0  0  0  0  0  0  0
   -3.3855    0.9650   -1.6302 H   0  0  0  0  0  0  0  0  0  0  0  0
   -3.9755   -1.3824   -1.1196 H   0  0  0  0  0  0  0  0  0  0  0  0
   -5.1153   -0.4591   -2.7459 H   0  0  0  0  0  0  0  0  0  0  0  0
   -6.7874    0.7418    0.3592 H   0  0  0  0  0  0  0  0  0  0  0  0
   -7.9632    0.1241    2.4373 H   0  0  0  0  0  0  0  0  0  0  0  0
   -7.3008   -1.9091    3.6900 H   0  0  0  0  0  0  0  0  0  0  0  0
   -5.4477   -3.3292    2.8591 H   0  0  0  0  0  0  0  0  0  0  0  0
   -4.2532   -2.7297    0.7882 H   0  0  0  0  0  0  0  0  0  0  0  0
   -0.9688    0.9844   -2.4106 H   0  0  0  0  0  0  0  0  0  0  0  0
    0.9984   -0.4055   -2.8901 H   0  0  0  0  0  0  0  0  0  0  0  0
    7.7026   -0.1626   -2.5774 H   0  0  0  0  0  0  0  0  0  0  0  0
  1  2  1  0
  2  3  2  0
  3  4  1  0
  4  5  1  0
  5  6  1  0
  6  7  2  0
  6  8  1  0
  8  9  1  0
  9 10  2  0
 10 11  1  0
 11 12  2  0
 12 13  1  0
 13 14  1  0
 14 15  1  0
 15 16  1  0
 16 17  1  0
 17 18  1  0
 17 19  1  0
 19 20  2  0
 20 21  1  0
 21 22  2  0
 22 23  1  0
 23 24  2  0
 24 19  1  0
 12 25  1  0
 25 26  2  0
 26  9  1  0
  4 27  2  0
 27 28  1  0
 28  2  1  0
  1 29  1  0
  1 30  1  0
  5 31  1  0
  5 32  1  0
  8 33  1  0
 10 34  1  0
 11 35  1  0
 13 36  1  0
 13 37  1  0
 14 38  1  0
 14 39  1  0
 15 40  1  0
 16 41  1  0
 16 42  1  0
 17 43  1  6
 18 44  1  0
 20 45  1  0
 21 46  1  0
 22 47  1  0
 23 48  1  0
 24 49  1  0
 25 50  1  0
 26 51  1  0
 27 52  1  0
M  END
> <ID>
HT1410

> <Class>
0.0

> <Clusters>
21

> <Fold>
1

$$$$