
     RDKit          3D

 48 50  0  0  0  0  0  0  0  0999 V2000
    7.3862   -3.0370    1.6865 F   0  0  0  0  0  0  0  0  0  0  0  0
    6.3707   -3.1550    0.7530 C   0  0  0  0  0  0  0  0  0  0  0  0
    5.4967   -4.1405    1.1746 F   0  0  0  0  0  0  0  0  0  0  0  0
    6.9284   -3.5329   -0.4565 F   0  0  0  0  0  0  0  0  0  0  0  0
    5.6184   -1.8594    0.5771 C   0  0  0  0  0  0  0  0  0  0  0  0
    5.9326   -0.7192    1.3393 C   0  0  0  0  0  0  0  0  0  0  0  0
    5.2135    0.4639    1.1612 C   0  0  0  0  0  0  0  0  0  0  0  0
    4.1839    0.5281    0.2224 C   0  0  0  0  0  0  0  0  0  0  0  0
    3.8680   -0.5946   -0.5665 C   0  0  0  0  0  0  0  0  0  0  0  0
    2.8110   -0.5536   -1.5406 N   0  0  0  0  0  0  0  0  0  0  0  0
    2.3042    0.6747   -2.0828 C   0  0  0  0  0  0  0  0  0  0  0  0
    3.1879    1.5833   -2.5816 N   0  0  0  0  0  0  0  0  0  0  0  0
    2.7912    2.7748   -3.0977 C   0  0  0  0  0  0  0  0  0  0  0  0
    1.4401    3.1068   -3.1243 C   0  0  0  0  0  0  0  0  0  0  0  0
    0.5056    2.2075   -2.6130 C   0  0  0  0  0  0  0  0  0  0  0  0
    0.9178    0.9699   -2.0881 C   0  0  0  0  0  0  0  0  0  0  0  0
   -0.1040    0.0622   -1.5119 C   0  0  0  0  0  0  0  0  0  0  0  0
    0.1229   -1.1724   -1.3915 O   0  0  0  0  0  0  0  0  0  0  0  0
   -1.3325    0.5894   -1.1017 O   0  0  0  0  0  0  0  0  0  0  0  0
   -2.3838   -0.2143   -0.5645 C   0  0  0  0  0  0  0  0  0  0  0  0
   -3.4927    0.6948   -0.0322 C   0  0  0  0  0  0  0  0  0  0  0  0
   -4.7032   -0.0727    0.3317 N   0  0  0  0  0  0  0  0  0  0  0  0
   -5.8450    0.8329    0.6113 C   0  0  0  0  0  0  0  0  0  0  0  0
   -6.0765    1.0150    2.1224 C   0  0  0  0  0  0  0  0  0  0  0  0
   -6.3564   -0.2010    2.8038 O   0  0  0  0  0  0  0  0  0  0  0  0
   -5.7374   -1.3386    2.2165 C   0  0  0  0  0  0  0  0  0  0  0  0
   -4.4446   -1.0123    1.4495 C   0  0  0  0  0  0  0  0  0  0  0  0
    4.5797   -1.7876   -0.3688 C   0  0  0  0  0  0  0  0  0  0  0  0
    6.7250   -0.7404    2.0798 H   0  0  0  0  0  0  0  0  0  0  0  0
    5.4521    1.3333    1.7621 H   0  0  0  0  0  0  0  0  0  0  0  0
    3.6307    1.4514    0.1187 H   0  0  0  0  0  0  0  0  0  0  0  0
    2.4994   -1.4486   -1.9820 H   0  0  0  0  0  0  0  0  0  0  0  0
    3.5277    3.4655   -3.4852 H   0  0  0  0  0  0  0  0  0  0  0  0
    1.1189    4.0563   -3.5324 H   0  0  0  0  0  0  0  0  0  0  0  0
   -0.5434    2.4801   -2.6326 H   0  0  0  0  0  0  0  0  0  0  0  0
   -2.7904   -0.8739   -1.3655 H   0  0  0  0  0  0  0  0  0  0  0  0
   -1.9829   -0.8421    0.2627 H   0  0  0  0  0  0  0  0  0  0  0  0
   -3.1183    1.2794    0.8364 H   0  0  0  0  0  0  0  0  0  0  0  0
   -3.7356    1.4146   -0.8460 H   0  0  0  0  0  0  0  0  0  0  0  0
   -6.7614    0.3912    0.1649 H   0  0  0  0  0  0  0  0  0  0  0  0
   -5.7184    1.8328    0.1389 H   0  0  0  0  0  0  0  0  0  0  0  0
   -5.1855    1.4957    2.5803 H   0  0  0  0  0  0  0  0  0  0  0  0
   -6.9338    1.7028    2.2692 H   0  0  0  0  0  0  0  0  0  0  0  0
   -5.4993   -2.0634    3.0235 H   0  0  0  0  0  0  0  0  0  0  0  0
   -6.4600   -1.8335    1.5317 H   0  0  0  0  0  0  0  0  0  0  0  0
   -3.7073   -0.5934    2.1715 H   0  0  0  0  0  0  0  0  0  0  0  0
   -4.0310   -1.9584    1.0406 H   0  0  0  0  0  0  0  0  0  0  0  0
    4.3306   -2.6614   -0.9598 H   0  0  0  0  0  0  0  0  0  0  0  0
  1  2  1  0
  2  3  1  0
  2  4  1  0
  2  5  1  0
  5  6  2  0
  6  7  1  0
  7  8  2  0
  8  9  1  0
  9 10  1  0
 10 11  1  0
 11 12  2  0
 12 13  1  0
 13 14  2  0
 14 15  1  0
 15 16  2  0
 16 11  1  0
 16 17  1  0
 17 18  2  0
 17 19  1  0
 19 20  1  0
 20 21  1  0
 21 22  1  0
 22 23  1  0
 23 24  1  0
 24 25  1  0
 25 26  1  0
 26 27  1  0
 27 22  1  0
  9 28  2  0
 28  5  1  0
  6 29  1  0
  7 30  1  0
  8 31  1  0
 10 32  1  0
 13 33  1  0
 14 34  1  0
 15 35  1  0
 20 36  1  0
 20 37  1  0
 21 38  1  0
 21 39  1  0
 23 40  1  0
 23 41  1  0
 24 42  1  0
 24 43  1  0
 26 44  1  0
 26 45  1  0
 27 46  1  0
 27 47  1  0
 28 48  1  0
M  END
> <ID>
HT1435

> <Class>
0.0

> <Clusters>
179

> <Fold>
1

$$$$