
     RDKit          3D

 39 42  0  0  0  0  0  0  0  0999 V2000
   -5.0370    1.1876    2.5136 F   0  0  0  0  0  0  0  0  0  0  0  0
   -3.7844    0.6938    2.3534 C   0  0  0  0  0  0  0  0  0  0  0  0
   -2.9765    0.4718    3.4657 C   0  0  0  0  0  0  0  0  0  0  0  0
   -1.6825   -0.0217    3.3014 C   0  0  0  0  0  0  0  0  0  0  0  0
   -1.1821   -0.3092    2.0166 C   0  0  0  0  0  0  0  0  0  0  0  0
    0.1980   -0.8078    1.8577 C   0  0  0  0  0  0  0  0  0  0  0  0
    0.9554   -0.8765    2.8652 O   0  0  0  0  0  0  0  0  0  0  0  0
    0.6791   -1.2193    0.5668 N   0  0  0  0  0  0  0  0  0  0  0  0
    2.0749   -1.6511    0.3862 C   0  0  0  0  0  0  0  0  0  0  0  0
    2.8792   -0.5512   -0.2611 C   0  0  0  0  0  0  0  0  0  0  0  0
    3.0990    0.6497    0.4348 C   0  0  0  0  0  0  0  0  0  0  0  0
    3.8252    1.6873   -0.1560 C   0  0  0  0  0  0  0  0  0  0  0  0
    4.3406    1.5360   -1.4462 C   0  0  0  0  0  0  0  0  0  0  0  0
    5.3305    2.9562   -2.2526 Br  0  0  0  0  0  0  0  0  0  0  0  0
    4.1305    0.3441   -2.1457 C   0  0  0  0  0  0  0  0  0  0  0  0
    3.4042   -0.6982   -1.5599 C   0  0  0  0  0  0  0  0  0  0  0  0
    3.2113   -1.8424   -2.2638 F   0  0  0  0  0  0  0  0  0  0  0  0
   -0.1915   -1.1450   -0.5766 C   0  0  0  0  0  0  0  0  0  0  0  0
    0.1673   -1.6739   -1.6665 O   0  0  0  0  0  0  0  0  0  0  0  0
   -1.4920   -0.3633   -0.5334 C   0  0  0  0  0  0  0  0  0  0  0  0
   -1.3293    0.9794   -1.3131 C   0  0  0  0  0  0  0  0  0  0  0  0
   -2.2775    0.8462   -2.4588 C   0  0  0  0  0  0  0  0  0  0  0  0
   -2.4445    1.7326   -3.3370 O   0  0  0  0  0  0  0  0  0  0  0  0
   -2.9818   -0.3778   -2.4686 N   0  0  0  0  0  0  0  0  0  0  0  0
   -2.5336   -1.0987   -1.3395 C   0  0  0  0  0  0  0  0  0  0  0  0
   -2.9733   -2.2436   -1.0495 O   0  0  0  0  0  0  0  0  0  0  0  0
   -2.0036   -0.1071    0.8846 C   0  0  0  0  0  0  0  0  0  0  0  0
   -3.3026    0.4152    1.0739 C   0  0  0  0  0  0  0  0  0  0  0  0
   -3.3494    0.6896    4.4583 H   0  0  0  0  0  0  0  0  0  0  0  0
   -1.0722   -0.1764    4.1824 H   0  0  0  0  0  0  0  0  0  0  0  0
    2.0961   -2.5810   -0.2215 H   0  0  0  0  0  0  0  0  0  0  0  0
    2.5463   -1.9223    1.3547 H   0  0  0  0  0  0  0  0  0  0  0  0
    2.7064    0.7839    1.4346 H   0  0  0  0  0  0  0  0  0  0  0  0
    3.9860    2.6084    0.3893 H   0  0  0  0  0  0  0  0  0  0  0  0
    4.5291    0.2256   -3.1452 H   0  0  0  0  0  0  0  0  0  0  0  0
   -1.6084    1.8653   -0.7020 H   0  0  0  0  0  0  0  0  0  0  0  0
   -0.2971    1.1275   -1.7009 H   0  0  0  0  0  0  0  0  0  0  0  0
   -3.6955   -0.6852   -3.1659 H   0  0  0  0  0  0  0  0  0  0  0  0
   -3.9442    0.6137    0.2245 H   0  0  0  0  0  0  0  0  0  0  0  0
  1  2  1  0
  2  3  2  0
  3  4  1  0
  4  5  2  0
  5  6  1  0
  6  7  2  0
  6  8  1  0
  8  9  1  0
  9 10  1  0
 10 11  2  0
 11 12  1  0
 12 13  2  0
 13 14  1  0
 13 15  1  0
 15 16  2  0
 16 10  1  0
 16 17  1  0
  8 18  1  0
 18 19  2  0
 18 20  1  0
 20 21  1  0
 21 22  1  0
 22 23  2  0
 22 24  1  0
 24 25  1  0
 25 20  1  0
 25 26  2  0
 20 27  1  0
 27  5  1  0
 27 28  2  0
 28  2  1  0
  3 29  1  0
  4 30  1  0
  9 31  1  0
  9 32  1  0
 11 33  1  0
 12 34  1  0
 15 35  1  0
 21 36  1  0
 21 37  1  0
 24 38  1  0
 28 39  1  0
M  END
> <ID>
HT1405

> <Class>
0.0

> <Clusters>
201

> <Fold>
1

$$$$