
     RDKit          3D

 36 36  0  0  0  0  0  0  0  0999 V2000
    5.5074   -0.0510    2.1318 C   0  0  0  0  0  0  0  0  0  0  0  0
    4.1424   -0.4516    2.0677 O   0  0  0  0  0  0  0  0  0  0  0  0
    3.2662   -0.1173    1.0241 C   0  0  0  0  0  0  0  0  0  0  0  0
    3.6660    0.6595   -0.0744 C   0  0  0  0  0  0  0  0  0  0  0  0
    2.7564    0.9704   -1.0853 C   0  0  0  0  0  0  0  0  0  0  0  0
    1.4269    0.5098   -1.0234 C   0  0  0  0  0  0  0  0  0  0  0  0
    0.4978    0.8251   -2.0282 O   0  0  0  0  0  0  0  0  0  0  0  0
    0.7790    1.6207   -3.1750 C   0  0  0  0  0  0  0  0  0  0  0  0
    1.0196   -0.2834    0.0753 C   0  0  0  0  0  0  0  0  0  0  0  0
    1.9487   -0.5788    1.0906 C   0  0  0  0  0  0  0  0  0  0  0  0
   -0.4031   -0.8011    0.2089 C   0  0  0  0  0  0  0  0  0  0  0  0
   -0.7747   -1.5394   -0.9322 O   0  0  0  0  0  0  0  0  0  0  0  0
   -1.3905    0.3400    0.5275 C   0  0  0  0  0  0  0  0  0  0  0  0
   -2.7364   -0.1983    0.7254 N   0  0  0  0  0  0  0  0  0  0  0  0
   -3.8482    0.1342   -0.1187 C   0  0  0  0  0  0  0  0  0  0  0  0
   -3.7061    0.9358   -1.0815 O   0  0  0  0  0  0  0  0  0  0  0  0
   -5.1998   -0.4450    0.1630 C   0  0  0  0  0  0  0  0  0  0  0  0
   -5.8167    0.2571    1.2825 N   0  0  0  0  0  0  0  0  0  0  0  0
    5.5795    1.0570    2.1519 H   0  0  0  0  0  0  0  0  0  0  0  0
    6.0650   -0.4545    1.2603 H   0  0  0  0  0  0  0  0  0  0  0  0
    5.9602   -0.4536    3.0608 H   0  0  0  0  0  0  0  0  0  0  0  0
    4.6781    1.0317   -0.1560 H   0  0  0  0  0  0  0  0  0  0  0  0
    3.0991    1.5751   -1.9136 H   0  0  0  0  0  0  0  0  0  0  0  0
    1.0938    2.6395   -2.8652 H   0  0  0  0  0  0  0  0  0  0  0  0
    1.5730    1.1423   -3.7864 H   0  0  0  0  0  0  0  0  0  0  0  0
   -0.1399    1.7053   -3.7904 H   0  0  0  0  0  0  0  0  0  0  0  0
    1.6509   -1.1735    1.9457 H   0  0  0  0  0  0  0  0  0  0  0  0
   -0.4493   -1.5084    1.0663 H   0  0  0  0  0  0  0  0  0  0  0  0
   -1.1853   -0.9256   -1.5941 H   0  0  0  0  0  0  0  0  0  0  0  0
   -1.3803    1.0989   -0.2827 H   0  0  0  0  0  0  0  0  0  0  0  0
   -1.0727    0.8517    1.4617 H   0  0  0  0  0  0  0  0  0  0  0  0
   -2.8907   -0.8566    1.5225 H   0  0  0  0  0  0  0  0  0  0  0  0
   -5.0884   -1.5215    0.4163 H   0  0  0  0  0  0  0  0  0  0  0  0
   -5.8473   -0.3680   -0.7393 H   0  0  0  0  0  0  0  0  0  0  0  0
   -6.7222   -0.2202    1.4967 H   0  0  0  0  0  0  0  0  0  0  0  0
   -6.0585    1.2252    0.9677 H   0  0  0  0  0  0  0  0  0  0  0  0
  1  2  1  0
  2  3  1  0
  3  4  2  0
  4  5  1  0
  5  6  2  0
  6  7  1  0
  7  8  1  0
  6  9  1  0
  9 10  2  0
 10  3  1  0
  9 11  1  0
 11 12  1  0
 11 13  1  0
 13 14  1  0
 14 15  1  0
 15 16  2  0
 15 17  1  0
 17 18  1  0
  1 19  1  0
  1 20  1  0
  1 21  1  0
  4 22  1  0
  5 23  1  0
  8 24  1  0
  8 25  1  0
  8 26  1  0
 10 27  1  0
 11 28  1  0
 12 29  1  0
 13 30  1  0
 13 31  1  0
 14 32  1  0
 17 33  1  0
 17 34  1  0
 18 35  1  0
 18 36  1  0
M  END
> <ID>
HT1396

> <Class>
0.0

> <Clusters>
176

> <Fold>
1

$$$$