
     RDKit          3D

 39 41  0  0  0  0  0  0  0  0999 V2000
    5.1468   -3.9748   -1.4156 Cl  0  0  0  0  0  0  0  0  0  0  0  0
    4.1548   -2.5294   -1.3554 C   0  0  0  0  0  0  0  0  0  0  0  0
    3.8956   -1.9103   -0.1302 C   0  0  0  0  0  0  0  0  0  0  0  0
    3.1047   -0.7598   -0.0798 C   0  0  0  0  0  0  0  0  0  0  0  0
    2.5653   -0.2134   -1.2572 C   0  0  0  0  0  0  0  0  0  0  0  0
    1.6927    1.0155   -1.1758 C   0  0  0  0  0  0  0  0  0  0  0  0
    0.3594    0.7033   -1.5365 O   0  0  0  0  0  0  0  0  0  0  0  0
   -0.3754    0.2150   -0.4263 C   0  0  0  0  0  0  0  0  0  0  0  0
   -1.5227   -0.6720   -0.9370 C   0  0  0  0  0  0  0  0  0  0  0  0
   -2.3120   -1.2026    0.1746 N   0  0  0  0  0  0  0  0  0  0  0  0
   -1.9121   -2.0846    1.1050 C   0  0  0  0  0  0  0  0  0  0  0  0
   -2.9675   -2.2996    1.9623 C   0  0  0  0  0  0  0  0  0  0  0  0
   -4.0263   -1.5594    1.5721 N   0  0  0  0  0  0  0  0  0  0  0  0
   -3.5900   -0.9039    0.4762 C   0  0  0  0  0  0  0  0  0  0  0  0
   -0.9081    1.3644    0.4192 C   0  0  0  0  0  0  0  0  0  0  0  0
   -0.7038    1.3261    1.8116 C   0  0  0  0  0  0  0  0  0  0  0  0
   -1.1902    2.3446    2.6331 C   0  0  0  0  0  0  0  0  0  0  0  0
   -1.8843    3.4203    2.0783 C   0  0  0  0  0  0  0  0  0  0  0  0
   -2.4948    4.6984    3.1131 Cl  0  0  0  0  0  0  0  0  0  0  0  0
   -2.0894    3.4801    0.6982 C   0  0  0  0  0  0  0  0  0  0  0  0
   -1.6073    2.4647   -0.1374 C   0  0  0  0  0  0  0  0  0  0  0  0
   -1.8856    2.6352   -1.8681 Cl  0  0  0  0  0  0  0  0  0  0  0  0
    2.8261   -0.8456   -2.4921 C   0  0  0  0  0  0  0  0  0  0  0  0
    2.1718   -0.2241   -4.0039 Cl  0  0  0  0  0  0  0  0  0  0  0  0
    3.6207   -1.9979   -2.5327 C   0  0  0  0  0  0  0  0  0  0  0  0
    4.3044   -2.3207    0.7844 H   0  0  0  0  0  0  0  0  0  0  0  0
    2.9089   -0.2983    0.8803 H   0  0  0  0  0  0  0  0  0  0  0  0
    2.0782    1.7692   -1.8939 H   0  0  0  0  0  0  0  0  0  0  0  0
    1.7588    1.5037   -0.1754 H   0  0  0  0  0  0  0  0  0  0  0  0
    0.2601   -0.4555    0.2000 H   0  0  0  0  0  0  0  0  0  0  0  0
   -2.1786   -0.0997   -1.6258 H   0  0  0  0  0  0  0  0  0  0  0  0
   -1.1008   -1.5200   -1.5191 H   0  0  0  0  0  0  0  0  0  0  0  0
   -0.9293   -2.5349    1.1585 H   0  0  0  0  0  0  0  0  0  0  0  0
   -2.9668   -2.9565    2.8216 H   0  0  0  0  0  0  0  0  0  0  0  0
   -4.1999   -0.2103   -0.0884 H   0  0  0  0  0  0  0  0  0  0  0  0
   -0.1740    0.4988    2.2676 H   0  0  0  0  0  0  0  0  0  0  0  0
   -1.0278    2.2949    3.7022 H   0  0  0  0  0  0  0  0  0  0  0  0
   -2.6231    4.3208    0.2726 H   0  0  0  0  0  0  0  0  0  0  0  0
    3.8213   -2.4821   -3.4803 H   0  0  0  0  0  0  0  0  0  0  0  0
  1  2  1  0
  2  3  2  0
  3  4  1  0
  4  5  2  0
  5  6  1  0
  6  7  1  0
  7  8  1  0
  8  9  1  0
  9 10  1  0
 10 11  1  0
 11 12  2  0
 12 13  1  0
 13 14  2  0
 14 10  1  0
  8 15  1  0
 15 16  2  0
 16 17  1  0
 17 18  2  0
 18 19  1  0
 18 20  1  0
 20 21  2  0
 21 15  1  0
 21 22  1  0
  5 23  1  0
 23 24  1  0
 23 25  2  0
 25  2  1  0
  3 26  1  0
  4 27  1  0
  6 28  1  0
  6 29  1  0
  8 30  1  0
  9 31  1  0
  9 32  1  0
 11 33  1  0
 12 34  1  0
 14 35  1  0
 16 36  1  0
 17 37  1  0
 20 38  1  0
 25 39  1  0
M  END
> <ID>
HT1392

> <Class>
0.0

> <Clusters>
93

> <Fold>
1

$$$$