
     RDKit          3D

 67 71  0  0  0  0  0  0  0  0999 V2000
   -6.7649   -2.7401   -1.7492 C   0  0  0  0  0  0  0  0  0  0  0  0
   -5.4167   -2.6652   -1.1866 C   0  0  0  0  0  0  0  0  0  0  0  0
   -4.3055   -2.6004   -0.7229 C   0  0  0  0  0  0  0  0  0  0  0  0
   -2.9377   -2.5216   -0.1461 C   0  0  2  0  0  0  0  0  0  0  0  0
   -2.2235   -3.6788   -0.5118 O   0  0  0  0  0  0  0  0  0  0  0  0
   -3.0750   -2.4683    1.3711 C   0  0  0  0  0  0  0  0  0  0  0  0
   -3.3247   -1.0063    1.6963 C   0  0  0  0  0  0  0  0  0  0  0  0
   -2.5923   -0.1818    0.6167 C   0  0  1  0  0  0  0  0  0  0  0  0
   -1.4229    0.6466    1.2428 C   0  0  2  0  0  0  0  0  0  0  0  0
   -1.9940    1.8689    2.0073 C   0  0  0  0  0  0  0  0  0  0  0  0
   -0.8913    2.8469    2.3784 C   0  0  0  0  0  0  0  0  0  0  0  0
   -0.2353    3.3036    1.1119 C   0  0  0  0  0  0  0  0  0  0  0  0
    0.0073    4.6057    0.8985 C   0  0  0  0  0  0  0  0  0  0  0  0
    0.6112    5.0678   -0.3615 C   0  0  0  0  0  0  0  0  0  0  0  0
    0.8867    6.2872   -0.5145 O   0  0  0  0  0  0  0  0  0  0  0  0
    0.8220    4.1033   -1.4911 C   0  0  0  0  0  0  0  0  0  0  0  0
    1.1438    2.7031   -0.9592 C   0  0  0  0  0  0  0  0  0  0  0  0
    0.1352    2.2787    0.0976 C   0  0  0  0  0  0  0  0  0  0  0  0
   -0.3626    1.0109    0.1967 C   0  0  0  0  0  0  0  0  0  0  0  0
    0.1885   -0.1345   -0.6467 C   0  0  2  0  0  0  0  0  0  0  0  0
   -0.6294   -1.4319   -0.4662 C   0  0  0  0  0  0  0  0  0  0  0  0
   -2.1726   -1.1931   -0.5044 C   0  0  1  0  0  0  0  0  0  0  0  0
   -2.5689   -0.6525   -1.9093 C   0  0  0  0  0  0  0  0  0  0  0  0
    1.6528   -0.4018   -0.3374 C   0  0  0  0  0  0  0  0  0  0  0  0
    2.5980   -0.4296   -1.3762 C   0  0  0  0  0  0  0  0  0  0  0  0
    3.9471   -0.6705   -1.1042 C   0  0  0  0  0  0  0  0  0  0  0  0
    4.3808   -0.9053    0.2117 C   0  0  0  0  0  0  0  0  0  0  0  0
    3.4332   -0.8897    1.2500 C   0  0  0  0  0  0  0  0  0  0  0  0
    2.0857   -0.6394    0.9792 C   0  0  0  0  0  0  0  0  0  0  0  0
    5.7751   -1.1571    0.4909 N   0  0  0  0  0  0  0  0  0  0  0  0
    6.8106   -0.3750   -0.1923 C   0  0  0  0  0  0  0  0  0  0  0  0
    6.1644   -2.0800    1.5605 C   0  0  0  0  0  0  0  0  0  0  0  0
   -6.7430   -3.3351   -2.6857 H   0  0  0  0  0  0  0  0  0  0  0  0
   -7.1308   -1.7163   -1.9696 H   0  0  0  0  0  0  0  0  0  0  0  0
   -7.4442   -3.2252   -1.0180 H   0  0  0  0  0  0  0  0  0  0  0  0
   -2.1525   -3.6844   -1.5027 H   0  0  0  0  0  0  0  0  0  0  0  0
   -3.8939   -3.1156    1.7583 H   0  0  0  0  0  0  0  0  0  0  0  0
   -2.1255   -2.7914    1.8537 H   0  0  0  0  0  0  0  0  0  0  0  0
   -2.9928   -0.7861    2.7338 H   0  0  0  0  0  0  0  0  0  0  0  0
   -4.4176   -0.8034    1.6398 H   0  0  0  0  0  0  0  0  0  0  0  0
   -3.3312    0.5332    0.1878 H   0  0  0  0  0  0  0  0  0  0  0  0
   -0.9032    0.0097    1.9922 H   0  0  0  0  0  0  0  0  0  0  0  0
   -2.5001    1.5333    2.9373 H   0  0  0  0  0  0  0  0  0  0  0  0
   -2.7466    2.4037    1.3856 H   0  0  0  0  0  0  0  0  0  0  0  0
   -1.3245    3.6955    2.9523 H   0  0  0  0  0  0  0  0  0  0  0  0
   -0.1388    2.3367    3.0176 H   0  0  0  0  0  0  0  0  0  0  0  0
   -0.2443    5.3413    1.6535 H   0  0  0  0  0  0  0  0  0  0  0  0
   -0.1044    4.0631   -2.1034 H   0  0  0  0  0  0  0  0  0  0  0  0
    1.6559    4.4522   -2.1372 H   0  0  0  0  0  0  0  0  0  0  0  0
    1.1759    2.0221   -1.8304 H   0  0  0  0  0  0  0  0  0  0  0  0
    2.1553    2.7132   -0.4974 H   0  0  0  0  0  0  0  0  0  0  0  0
    0.0888    0.1399   -1.7171 H   0  0  0  0  0  0  0  0  0  0  0  0
   -0.3307   -2.1399   -1.2707 H   0  0  0  0  0  0  0  0  0  0  0  0
   -0.3591   -1.9112    0.5002 H   0  0  0  0  0  0  0  0  0  0  0  0
   -2.0863    0.3229   -2.1234 H   0  0  0  0  0  0  0  0  0  0  0  0
   -2.2820   -1.3778   -2.7010 H   0  0  0  0  0  0  0  0  0  0  0  0
   -3.6600   -0.4650   -1.9831 H   0  0  0  0  0  0  0  0  0  0  0  0
    2.2925   -0.2639   -2.4017 H   0  0  0  0  0  0  0  0  0  0  0  0
    4.6476   -0.6926   -1.9276 H   0  0  0  0  0  0  0  0  0  0  0  0
    3.7365   -1.0559    2.2751 H   0  0  0  0  0  0  0  0  0  0  0  0
    1.3823   -0.6284    1.8007 H   0  0  0  0  0  0  0  0  0  0  0  0
    7.8044   -0.5215    0.2826 H   0  0  0  0  0  0  0  0  0  0  0  0
    6.8851   -0.6855   -1.2558 H   0  0  0  0  0  0  0  0  0  0  0  0
    6.5607    0.7074   -0.1368 H   0  0  0  0  0  0  0  0  0  0  0  0
    7.1697   -2.5099    1.3594 H   0  0  0  0  0  0  0  0  0  0  0  0
    5.4451   -2.9248    1.6206 H   0  0  0  0  0  0  0  0  0  0  0  0
    6.1867   -1.5400    2.5308 H   0  0  0  0  0  0  0  0  0  0  0  0
  1  2  1  0
  2  3  3  0
  4  3  1  6
  4  5  1  0
  4  6  1  0
  6  7  1  0
  8  7  1  0
  8  9  1  0
  9 10  1  0
 10 11  1  0
 11 12  1  0
 12 13  2  0
 13 14  1  0
 14 15  2  0
 14 16  1  0
 16 17  1  0
 17 18  1  0
 18 12  1  0
 18 19  2  0
 19  9  1  0
 19 20  1  0
 20 21  1  0
 21 22  1  0
 22  4  1  0
 22  8  1  0
 22 23  1  6
 20 24  1  0
 24 25  2  0
 25 26  1  0
 26 27  2  0
 27 28  1  0
 28 29  2  0
 29 24  1  0
 27 30  1  0
 30 31  1  0
 30 32  1  0
  1 33  1  0
  1 34  1  0
  1 35  1  0
  5 36  1  0
  6 37  1  0
  6 38  1  0
  7 39  1  0
  7 40  1  0
  8 41  1  6
  9 42  1  1
 10 43  1  0
 10 44  1  0
 11 45  1  0
 11 46  1  0
 13 47  1  0
 16 48  1  0
 16 49  1  0
 17 50  1  0
 17 51  1  0
 20 52  1  6
 21 53  1  0
 21 54  1  0
 23 55  1  0
 23 56  1  0
 23 57  1  0
 25 58  1  0
 26 59  1  0
 28 60  1  0
 29 61  1  0
 31 62  1  0
 31 63  1  0
 31 64  1  0
 32 65  1  0
 32 66  1  0
 32 67  1  0
M  END
> <ID>
HT1398

> <Class>
0.0

> <Clusters>
237

> <Fold>
1

$$$$