
     RDKit          3D

 14 14  0  0  0  0  0  0  0  0999 V2000
    2.3724    0.0595   -0.1356 N   0  0  0  0  0  0  0  0  0  0  0  0
    0.9452    0.0237   -0.0540 C   0  0  0  0  0  0  0  0  0  0  0  0
    0.2295    1.1766    0.3014 C   0  0  0  0  0  0  0  0  0  0  0  0
   -1.1674    1.1412    0.3811 C   0  0  0  0  0  0  0  0  0  0  0  0
   -2.0577    2.5856    0.8261 Cl  0  0  0  0  0  0  0  0  0  0  0  0
   -1.8537   -0.0465    0.1059 C   0  0  0  0  0  0  0  0  0  0  0  0
   -1.1447   -1.1992   -0.2490 C   0  0  0  0  0  0  0  0  0  0  0  0
   -2.0066   -2.6876   -0.5938 Cl  0  0  0  0  0  0  0  0  0  0  0  0
    0.2522   -1.1646   -0.3290 C   0  0  0  0  0  0  0  0  0  0  0  0
    2.9145   -0.7934   -0.3993 H   0  0  0  0  0  0  0  0  0  0  0  0
    2.8977    0.9392    0.0672 H   0  0  0  0  0  0  0  0  0  0  0  0
    0.7564    2.0983    0.5153 H   0  0  0  0  0  0  0  0  0  0  0  0
   -2.9344   -0.0736    0.1677 H   0  0  0  0  0  0  0  0  0  0  0  0
    0.7968   -2.0593   -0.6041 H   0  0  0  0  0  0  0  0  0  0  0  0
  1  2  1  0
  2  3  2  0
  3  4  1  0
  4  5  1  0
  4  6  2  0
  6  7  1  0
  7  8  1  0
  7  9  2  0
  9  2  1  0
  1 10  1  0
  1 11  1  0
  3 12  1  0
  6 13  1  0
  9 14  1  0
M  END
> <ID>
HT0035

> <Class>
0.0

> <Clusters>
74

> <Fold>
1

$$$$