
     RDKit          3D

 56 59  0  0  0  0  0  0  0  0999 V2000
    0.1601   -3.6597    0.6090 C   0  0  0  0  0  0  0  0  0  0  0  0
    0.5119   -2.4880    1.3183 O   0  0  0  0  0  0  0  0  0  0  0  0
    0.2259   -1.2719    0.6233 C   0  0  2  0  0  0  0  0  0  0  0  0
    1.1995   -0.2327    0.9866 N   0  0  0  0  0  0  0  0  0  0  0  0
    2.5947   -0.3620    0.6706 C   0  0  0  0  0  0  0  0  0  0  0  0
    3.0355   -1.4527    0.2122 O   0  0  0  0  0  0  0  0  0  0  0  0
    3.5357    0.7915    0.9413 C   0  0  0  0  0  0  0  0  0  0  0  0
    2.9950    2.0696    0.3592 C   0  0  0  0  0  0  0  0  0  0  0  0
    2.9411    3.1101    1.0681 O   0  0  0  0  0  0  0  0  0  0  0  0
    2.5600    2.1121   -0.9629 O   0  0  0  0  0  0  0  0  0  0  0  0
    4.9421    0.5429    0.4241 C   0  0  0  0  0  0  0  0  0  0  0  0
    6.0323    0.5547    1.3130 C   0  0  0  0  0  0  0  0  0  0  0  0
    7.3315    0.3368    0.8446 C   0  0  0  0  0  0  0  0  0  0  0  0
    7.5598    0.1047   -0.5177 C   0  0  0  0  0  0  0  0  0  0  0  0
    8.8502   -0.1139   -0.9948 O   0  0  0  0  0  0  0  0  0  0  0  0
    6.4830    0.0921   -1.4087 C   0  0  0  0  0  0  0  0  0  0  0  0
    5.1828    0.3107   -0.9446 C   0  0  0  0  0  0  0  0  0  0  0  0
   -1.1734   -0.8702    0.7270 C   0  0  1  0  0  0  0  0  0  0  0  0
   -1.4160    0.4408    1.2042 O   0  0  0  0  0  0  0  0  0  0  0  0
   -2.7306    0.8571    0.8313 C   0  0  0  0  0  0  0  0  0  0  0  0
   -3.0110    0.7853   -0.6780 C   0  0  0  0  0  0  0  0  0  0  0  0
   -2.2929   -0.0836   -1.4264 C   0  0  0  0  0  0  0  0  0  0  0  0
   -1.3612   -0.8659   -0.7010 N   0  0  0  0  0  0  0  0  0  0  0  0
    0.0340   -1.3288   -0.8772 C   0  0  0  0  0  0  0  0  0  0  0  0
    0.7682   -1.5893   -1.8662 O   0  0  0  0  0  0  0  0  0  0  0  0
   -2.3842   -0.2331   -2.8978 C   0  0  0  0  0  0  0  0  0  0  0  0
   -2.7303    0.7333   -3.6262 O   0  0  0  0  0  0  0  0  0  0  0  0
   -2.0534   -1.4428   -3.5030 O   0  0  0  0  0  0  0  0  0  0  0  0
   -4.1403    1.6268   -1.2295 C   0  0  0  0  0  0  0  0  0  0  0  0
   -5.4912    0.6046   -1.9240 S   0  0  0  0  0  0  0  0  0  0  0  0
   -5.9379   -0.1581   -0.3617 C   0  0  0  0  0  0  0  0  0  0  0  0
   -5.4542   -1.3363    0.0709 N   0  0  0  0  0  0  0  0  0  0  0  0
   -6.0178   -1.5217    1.2582 N   0  0  0  0  0  0  0  0  0  0  0  0
   -6.8162   -0.5039    1.5480 N   0  0  0  0  0  0  0  0  0  0  0  0
   -6.7907    0.3506    0.5417 N   0  0  0  0  0  0  0  0  0  0  0  0
   -7.4786    1.6342    0.5173 C   0  0  0  0  0  0  0  0  0  0  0  0
   -0.8977   -3.6379    0.2677 H   0  0  0  0  0  0  0  0  0  0  0  0
    0.2709   -4.5288    1.2889 H   0  0  0  0  0  0  0  0  0  0  0  0
    0.8486   -3.8188   -0.2482 H   0  0  0  0  0  0  0  0  0  0  0  0
    0.9059    0.6129    1.5243 H   0  0  0  0  0  0  0  0  0  0  0  0
    3.5721    0.9115    2.0472 H   0  0  0  0  0  0  0  0  0  0  0  0
    2.1957    2.9684   -1.3632 H   0  0  0  0  0  0  0  0  0  0  0  0
    5.8794    0.7343    2.3700 H   0  0  0  0  0  0  0  0  0  0  0  0
    8.1600    0.3490    1.5416 H   0  0  0  0  0  0  0  0  0  0  0  0
    9.6518   -0.1100   -0.3749 H   0  0  0  0  0  0  0  0  0  0  0  0
    6.6537   -0.0879   -2.4624 H   0  0  0  0  0  0  0  0  0  0  0  0
    4.3631    0.2910   -1.6514 H   0  0  0  0  0  0  0  0  0  0  0  0
   -1.8289   -1.6242    1.2217 H   0  0  0  0  0  0  0  0  0  0  0  0
   -3.4908    0.2613    1.3816 H   0  0  0  0  0  0  0  0  0  0  0  0
   -2.8477    1.9100    1.1631 H   0  0  0  0  0  0  0  0  0  0  0  0
   -1.8027   -2.2588   -2.9580 H   0  0  0  0  0  0  0  0  0  0  0  0
   -4.5675    2.2722   -0.4336 H   0  0  0  0  0  0  0  0  0  0  0  0
   -3.7552    2.3131   -2.0105 H   0  0  0  0  0  0  0  0  0  0  0  0
   -8.3429    1.6143    1.2140 H   0  0  0  0  0  0  0  0  0  0  0  0
   -6.7793    2.4370    0.8307 H   0  0  0  0  0  0  0  0  0  0  0  0
   -7.8518    1.8483   -0.5062 H   0  0  0  0  0  0  0  0  0  0  0  0
  1  2  1  0
  3  2  1  1
  3  4  1  0
  4  5  1  0
  5  6  2  0
  5  7  1  0
  7  8  1  0
  8  9  2  0
  8 10  1  0
  7 11  1  0
 11 12  2  0
 12 13  1  0
 13 14  2  0
 14 15  1  0
 14 16  1  0
 16 17  2  0
 17 11  1  0
  3 18  1  0
 18 19  1  0
 19 20  1  0
 20 21  1  0
 21 22  2  0
 22 23  1  0
 23 18  1  0
 23 24  1  0
 24  3  1  0
 24 25  2  0
 22 26  1  0
 26 27  2  0
 26 28  1  0
 21 29  1  0
 29 30  1  0
 30 31  1  0
 31 32  2  0
 32 33  1  0
 33 34  2  0
 34 35  1  0
 35 31  1  0
 35 36  1  0
  1 37  1  0
  1 38  1  0
  1 39  1  0
  4 40  1  0
  7 41  1  0
 10 42  1  0
 12 43  1  0
 13 44  1  0
 15 45  1  0
 16 46  1  0
 17 47  1  0
 18 48  1  1
 20 49  1  0
 20 50  1  0
 28 51  1  0
 29 52  1  0
 29 53  1  0
 36 54  1  0
 36 55  1  0
 36 56  1  0
M  END
> <ID>
HT1437

> <Class>
0.0

> <Clusters>
44

> <Fold>
1

$$$$