
     RDKit          3D

 27 29  0  0  0  0  0  0  0  0999 V2000
   -2.9337    2.1960   -0.0130 O   0  0  0  0  0  0  0  0  0  0  0  0
   -2.6773    0.8270   -0.0951 C   0  0  0  0  0  0  0  0  0  0  0  0
   -3.7553   -0.0621   -0.2001 C   0  0  0  0  0  0  0  0  0  0  0  0
   -3.5325   -1.4336   -0.2840 C   0  0  0  0  0  0  0  0  0  0  0  0
   -2.2317   -1.9309   -0.2641 C   0  0  0  0  0  0  0  0  0  0  0  0
   -1.1339   -1.0618   -0.1599 C   0  0  0  0  0  0  0  0  0  0  0  0
    0.2449   -1.6736   -0.1437 C   0  0  0  0  0  0  0  0  0  0  0  0
    1.3918   -0.6996   -0.0355 C   0  0  0  0  0  0  0  0  0  0  0  0
    2.6939   -1.2246   -0.0213 C   0  0  0  0  0  0  0  0  0  0  0  0
    3.7987   -0.3823    0.0770 C   0  0  0  0  0  0  0  0  0  0  0  0
    3.6189    0.9954    0.1626 C   0  0  0  0  0  0  0  0  0  0  0  0
    2.3301    1.5451    0.1508 C   0  0  0  0  0  0  0  0  0  0  0  0
    2.1832    2.9299    0.2380 O   0  0  0  0  0  0  0  0  0  0  0  0
    1.1978    0.6973    0.0512 C   0  0  0  0  0  0  0  0  0  0  0  0
   -0.1822    1.2430    0.0363 C   0  0  0  0  0  0  0  0  0  0  0  0
   -0.3648    2.4879    0.1179 O   0  0  0  0  0  0  0  0  0  0  0  0
   -1.3487    0.3320   -0.0738 C   0  0  0  0  0  0  0  0  0  0  0  0
   -3.8778    2.5641   -0.0271 H   0  0  0  0  0  0  0  0  0  0  0  0
   -4.7710    0.3123   -0.2166 H   0  0  0  0  0  0  0  0  0  0  0  0
   -4.3706   -2.1138   -0.3648 H   0  0  0  0  0  0  0  0  0  0  0  0
   -2.0769   -3.0012   -0.3303 H   0  0  0  0  0  0  0  0  0  0  0  0
    0.3033   -2.3778    0.7149 H   0  0  0  0  0  0  0  0  0  0  0  0
    0.3750   -2.2629   -1.0777 H   0  0  0  0  0  0  0  0  0  0  0  0
    2.8525   -2.2943   -0.0870 H   0  0  0  0  0  0  0  0  0  0  0  0
    4.7976   -0.7991    0.0868 H   0  0  0  0  0  0  0  0  0  0  0  0
    4.4857    1.6397    0.2385 H   0  0  0  0  0  0  0  0  0  0  0  0
    2.9831    3.5481    0.3096 H   0  0  0  0  0  0  0  0  0  0  0  0
  1  2  1  0
  2  3  2  0
  3  4  1  0
  4  5  2  0
  5  6  1  0
  6  7  1  0
  7  8  1  0
  8  9  2  0
  9 10  1  0
 10 11  2  0
 11 12  1  0
 12 13  1  0
 12 14  2  0
 14  8  1  0
 14 15  1  0
 15 16  2  0
 15 17  1  0
 17  2  1  0
 17  6  2  0
  1 18  1  0
  3 19  1  0
  4 20  1  0
  5 21  1  0
  7 22  1  0
  7 23  1  0
  9 24  1  0
 10 25  1  0
 11 26  1  0
 13 27  1  0
M  END
> <ID>
HT0166

> <Class>
0.0

> <Clusters>
68

> <Fold>
1

$$$$