
     RDKit          3D

 37 40  0  0  0  0  0  0  0  0999 V2000
   -2.9576   -1.8486   -1.2865 C   0  0  0  0  0  0  0  0  0  0  0  0
   -2.3743   -1.3508   -0.0281 N   0  0  0  0  0  0  0  0  0  0  0  0
   -3.2571   -0.3752    0.6427 C   0  0  0  0  0  0  0  0  0  0  0  0
   -3.2148    0.9933   -0.0396 C   0  0  0  0  0  0  0  0  0  0  0  0
   -1.8074    1.5032   -0.0453 C   0  0  0  0  0  0  0  0  0  0  0  0
   -1.5587    2.8764    0.0758 C   0  0  0  0  0  0  0  0  0  0  0  0
   -0.2534    3.3425    0.2207 C   0  0  0  0  0  0  0  0  0  0  0  0
    0.8157    2.4459    0.2430 C   0  0  0  0  0  0  0  0  0  0  0  0
    0.5977    1.0661    0.0598 C   0  0  0  0  0  0  0  0  0  0  0  0
   -0.7320    0.5958   -0.0737 C   0  0  0  0  0  0  0  0  0  0  0  0
   -0.9628   -0.9051   -0.2034 C   0  0  1  0  0  0  0  0  0  0  0  0
   -0.0677   -1.6251    0.8148 C   0  0  0  0  0  0  0  0  0  0  0  0
    1.3777   -1.2495    0.5773 C   0  0  0  0  0  0  0  0  0  0  0  0
    2.3801   -2.2140    0.7227 C   0  0  0  0  0  0  0  0  0  0  0  0
    3.7057   -1.8963    0.4435 C   0  0  0  0  0  0  0  0  0  0  0  0
    4.0512   -0.6281   -0.0274 C   0  0  0  0  0  0  0  0  0  0  0  0
    5.4008   -0.3805   -0.2880 O   0  0  0  0  0  0  0  0  0  0  0  0
    3.0445    0.3496   -0.2215 C   0  0  0  0  0  0  0  0  0  0  0  0
    3.3353    1.5709   -0.8349 O   0  0  0  0  0  0  0  0  0  0  0  0
    1.7080    0.0625    0.1573 C   0  0  0  0  0  0  0  0  0  0  0  0
   -4.0057   -2.1831   -1.1306 H   0  0  0  0  0  0  0  0  0  0  0  0
   -2.3843   -2.7322   -1.6401 H   0  0  0  0  0  0  0  0  0  0  0  0
   -2.9332   -1.0688   -2.0777 H   0  0  0  0  0  0  0  0  0  0  0  0
   -2.9363   -0.2680    1.7025 H   0  0  0  0  0  0  0  0  0  0  0  0
   -4.3053   -0.7462    0.6687 H   0  0  0  0  0  0  0  0  0  0  0  0
   -3.8765    1.6879    0.5228 H   0  0  0  0  0  0  0  0  0  0  0  0
   -3.5933    0.9301   -1.0808 H   0  0  0  0  0  0  0  0  0  0  0  0
   -2.3790    3.5833    0.0985 H   0  0  0  0  0  0  0  0  0  0  0  0
   -0.0722    4.4010    0.3564 H   0  0  0  0  0  0  0  0  0  0  0  0
    1.7987    2.8394    0.4553 H   0  0  0  0  0  0  0  0  0  0  0  0
   -0.5906   -1.1917   -1.2159 H   0  0  0  0  0  0  0  0  0  0  0  0
   -0.2090   -2.7239    0.7144 H   0  0  0  0  0  0  0  0  0  0  0  0
   -0.3561   -1.3297    1.8473 H   0  0  0  0  0  0  0  0  0  0  0  0
    2.1352   -3.2151    1.0556 H   0  0  0  0  0  0  0  0  0  0  0  0
    4.4727   -2.6486    0.5792 H   0  0  0  0  0  0  0  0  0  0  0  0
    5.7719    0.5272   -0.5297 H   0  0  0  0  0  0  0  0  0  0  0  0
    4.2322    1.8056   -1.2350 H   0  0  0  0  0  0  0  0  0  0  0  0
  1  2  1  0
  2  3  1  0
  3  4  1  0
  4  5  1  0
  5  6  2  0
  6  7  1  0
  7  8  2  0
  8  9  1  0
  9 10  2  0
 10  5  1  0
 10 11  1  0
 11  2  1  0
 11 12  1  0
 12 13  1  0
 13 14  2  0
 14 15  1  0
 15 16  2  0
 16 17  1  0
 16 18  1  0
 18 19  1  0
 18 20  2  0
 20  9  1  0
 20 13  1  0
  1 21  1  0
  1 22  1  0
  1 23  1  0
  3 24  1  0
  3 25  1  0
  4 26  1  0
  4 27  1  0
  6 28  1  0
  7 29  1  0
  8 30  1  0
 11 31  1  6
 12 32  1  0
 12 33  1  0
 14 34  1  0
 15 35  1  0
 17 36  1  0
 19 37  1  0
M  END
> <ID>
HT0171

> <Class>
0.0

> <Clusters>
68

> <Fold>
1

$$$$