
     RDKit          3D

 14 14  0  0  0  0  0  0  0  0999 V2000
    0.6500    0.9422    0.2636 C   0  0  0  0  0  0  0  0  0  0  0  0
   -0.7878    0.8293   -0.1746 C   0  0  0  0  0  0  0  0  0  0  0  0
   -1.1351   -0.6216    0.0852 C   0  0  0  0  0  0  0  0  0  0  0  0
    0.0976   -1.4018   -0.0219 N   0  0  0  0  0  0  0  0  0  0  0  0
    1.2156   -0.4589    0.0876 C   0  0  0  0  0  0  0  0  0  0  0  0
    0.6933    1.2354    1.3360 H   0  0  0  0  0  0  0  0  0  0  0  0
    1.2032    1.6887   -0.3470 H   0  0  0  0  0  0  0  0  0  0  0  0
   -0.8680    1.0452   -1.2630 H   0  0  0  0  0  0  0  0  0  0  0  0
   -1.4478    1.5190    0.3950 H   0  0  0  0  0  0  0  0  0  0  0  0
   -1.5385   -0.7303    1.1155 H   0  0  0  0  0  0  0  0  0  0  0  0
   -1.9045   -0.9802   -0.6348 H   0  0  0  0  0  0  0  0  0  0  0  0
    0.1258   -1.8378   -0.9742 H   0  0  0  0  0  0  0  0  0  0  0  0
    1.8497   -0.4970   -0.8276 H   0  0  0  0  0  0  0  0  0  0  0  0
    1.8465   -0.7321    0.9603 H   0  0  0  0  0  0  0  0  0  0  0  0
  1  2  1  0
  2  3  1  0
  3  4  1  0
  4  5  1  0
  5  1  1  0
  1  6  1  0
  1  7  1  0
  2  8  1  0
  2  9  1  0
  3 10  1  0
  3 11  1  0
  4 12  1  0
  5 13  1  0
  5 14  1  0
M  END
> <ID>
HT2322

> <Class>
0.0

> <Clusters>
66

> <Fold>
2

$$$$