
     RDKit          3D

 20 21  0  0  0  0  0  0  0  0999 V2000
   -1.7367    0.2476    0.2842 C   0  0  0  0  0  0  0  0  0  0  0  0
   -0.7041    1.3829    0.4156 C   0  0  0  0  0  0  0  0  0  0  0  0
    0.3218    1.3995   -0.7230 C   0  0  0  0  0  0  0  0  0  0  0  0
    1.4305    0.4126   -0.4877 C   0  0  0  0  0  0  0  0  0  0  0  0
    2.7220    0.6583   -0.7764 N   0  0  0  0  0  0  0  0  0  0  0  0
    3.3717   -0.4419   -0.4209 N   0  0  0  0  0  0  0  0  0  0  0  0
    2.5223   -1.3323    0.0695 N   0  0  0  0  0  0  0  0  0  0  0  0
    1.3015   -0.8294    0.0236 N   0  0  0  0  0  0  0  0  0  0  0  0
    0.1278   -1.4874    0.6016 C   0  0  0  0  0  0  0  0  0  0  0  0
   -1.1594   -1.1146   -0.1433 C   0  0  0  0  0  0  0  0  0  0  0  0
   -2.5080    0.5457   -0.4591 H   0  0  0  0  0  0  0  0  0  0  0  0
   -2.2538    0.1311    1.2617 H   0  0  0  0  0  0  0  0  0  0  0  0
   -1.2535    2.3494    0.4150 H   0  0  0  0  0  0  0  0  0  0  0  0
   -0.1836    1.3127    1.3965 H   0  0  0  0  0  0  0  0  0  0  0  0
   -0.1715    1.1840   -1.6949 H   0  0  0  0  0  0  0  0  0  0  0  0
    0.7635    2.4170   -0.7937 H   0  0  0  0  0  0  0  0  0  0  0  0
    0.2664   -2.5883    0.5317 H   0  0  0  0  0  0  0  0  0  0  0  0
    0.0454   -1.2285    1.6792 H   0  0  0  0  0  0  0  0  0  0  0  0
   -1.9275   -1.8923    0.0600 H   0  0  0  0  0  0  0  0  0  0  0  0
   -0.9747   -1.1261   -1.2397 H   0  0  0  0  0  0  0  0  0  0  0  0
  1  2  1  0
  2  3  1  0
  3  4  1  0
  4  5  2  0
  5  6  1  0
  6  7  2  0
  7  8  1  0
  8  4  1  0
  8  9  1  0
  9 10  1  0
 10  1  1  0
  1 11  1  0
  1 12  1  0
  2 13  1  0
  2 14  1  0
  3 15  1  0
  3 16  1  0
  9 17  1  0
  9 18  1  0
 10 19  1  0
 10 20  1  0
M  END
> <ID>
HT1622

> <Class>
0.0

> <Clusters>
66

> <Fold>
2

$$$$