
     RDKit          3D

 34 36  0  0  0  0  0  0  0  0999 V2000
   -3.0905   -0.0188   -1.9096 C   0  0  0  0  0  0  0  0  0  0  0  0
   -2.3186   -0.5063   -0.7623 N   0  0  0  0  0  0  0  0  0  0  0  0
   -2.1814   -1.9271   -0.5666 C   0  0  0  0  0  0  0  0  0  0  0  0
   -2.9164   -2.7256   -1.2099 O   0  0  0  0  0  0  0  0  0  0  0  0
   -1.1575   -2.4834    0.3761 C   0  0  0  0  0  0  0  0  0  0  0  0
   -1.5049   -2.1822    1.7017 O   0  0  0  0  0  0  0  0  0  0  0  0
    0.1566   -1.9351    0.0440 N   0  0  0  0  0  0  0  0  0  0  0  0
    0.5083   -0.6816    0.1177 C   0  0  0  0  0  0  0  0  0  0  0  0
    1.8931   -0.3131   -0.2783 C   0  0  0  0  0  0  0  0  0  0  0  0
    2.9419   -1.2447   -0.1544 C   0  0  0  0  0  0  0  0  0  0  0  0
    4.2429   -0.9020   -0.5351 C   0  0  0  0  0  0  0  0  0  0  0  0
    4.5112    0.3682   -1.0496 C   0  0  0  0  0  0  0  0  0  0  0  0
    3.4783    1.2977   -1.1880 C   0  0  0  0  0  0  0  0  0  0  0  0
    2.1755    0.9608   -0.8088 C   0  0  0  0  0  0  0  0  0  0  0  0
   -0.4313    0.3585    0.6259 C   0  0  0  0  0  0  0  0  0  0  0  0
    0.0381    1.2923    1.5686 C   0  0  0  0  0  0  0  0  0  0  0  0
   -0.8037    2.2881    2.0681 C   0  0  0  0  0  0  0  0  0  0  0  0
   -0.1972    3.4436    3.2403 Cl  0  0  0  0  0  0  0  0  0  0  0  0
   -2.1283    2.3603    1.6387 C   0  0  0  0  0  0  0  0  0  0  0  0
   -2.6137    1.4382    0.7113 C   0  0  0  0  0  0  0  0  0  0  0  0
   -1.7795    0.4312    0.1932 C   0  0  0  0  0  0  0  0  0  0  0  0
   -3.0451    1.0886   -1.9871 H   0  0  0  0  0  0  0  0  0  0  0  0
   -2.6726   -0.4412   -2.8479 H   0  0  0  0  0  0  0  0  0  0  0  0
   -4.1522   -0.3281   -1.8082 H   0  0  0  0  0  0  0  0  0  0  0  0
   -1.1155   -3.5893    0.2507 H   0  0  0  0  0  0  0  0  0  0  0  0
   -0.8574   -2.6654    2.2786 H   0  0  0  0  0  0  0  0  0  0  0  0
    2.7582   -2.2332    0.2480 H   0  0  0  0  0  0  0  0  0  0  0  0
    5.0440   -1.6223   -0.4304 H   0  0  0  0  0  0  0  0  0  0  0  0
    5.5190    0.6311   -1.3444 H   0  0  0  0  0  0  0  0  0  0  0  0
    3.6860    2.2793   -1.5939 H   0  0  0  0  0  0  0  0  0  0  0  0
    1.3879    1.6916   -0.9429 H   0  0  0  0  0  0  0  0  0  0  0  0
    1.0607    1.2421    1.9229 H   0  0  0  0  0  0  0  0  0  0  0  0
   -2.7858    3.1274    2.0276 H   0  0  0  0  0  0  0  0  0  0  0  0
   -3.6500    1.5001    0.4040 H   0  0  0  0  0  0  0  0  0  0  0  0
  1  2  1  0
  2  3  1  0
  3  4  2  0
  3  5  1  0
  5  6  1  0
  5  7  1  0
  7  8  2  0
  8  9  1  0
  9 10  2  0
 10 11  1  0
 11 12  2  0
 12 13  1  0
 13 14  2  0
 14  9  1  0
  8 15  1  0
 15 16  2  0
 16 17  1  0
 17 18  1  0
 17 19  2  0
 19 20  1  0
 20 21  2  0
 21  2  1  0
 21 15  1  0
  1 22  1  0
  1 23  1  0
  1 24  1  0
  5 25  1  0
  6 26  1  0
 10 27  1  0
 11 28  1  0
 12 29  1  0
 13 30  1  0
 14 31  1  0
 16 32  1  0
 19 33  1  0
 20 34  1  0
M  END
> <ID>
HT1997

> <Class>
0.0

> <Clusters>
185

> <Fold>
2

$$$$