
     RDKit          3D

 31 33  0  0  0  0  0  0  0  0999 V2000
   -1.4941   -2.3727    0.5139 C   0  0  0  0  0  0  0  0  0  0  0  0
   -0.0221   -2.0350    0.2954 C   0  0  0  0  0  0  0  0  0  0  0  0
    0.3046   -0.6148    0.7997 C   0  0  0  0  0  0  0  0  0  0  0  0
    1.6461   -0.1939    0.2589 C   0  0  0  0  0  0  0  0  0  0  0  0
    2.6728   -0.0064    1.0130 N   0  0  0  0  0  0  0  0  0  0  0  0
    3.8093    0.4094    0.1993 C   0  0  0  0  0  0  0  0  0  0  0  0
    3.2763    0.4569   -1.2416 C   0  0  0  0  0  0  0  0  0  0  0  0
    1.8913    0.0535   -1.1118 N   0  0  0  0  0  0  0  0  0  0  0  0
   -0.7684    0.4108    0.4549 C   0  0  0  0  0  0  0  0  0  0  0  0
   -0.5348    1.7738    0.7248 C   0  0  0  0  0  0  0  0  0  0  0  0
   -1.5094    2.7332    0.4444 C   0  0  0  0  0  0  0  0  0  0  0  0
   -2.7373    2.3473   -0.0911 C   0  0  0  0  0  0  0  0  0  0  0  0
   -3.0022    0.9985   -0.3320 C   0  0  0  0  0  0  0  0  0  0  0  0
   -2.0388    0.0192   -0.0395 C   0  0  0  0  0  0  0  0  0  0  0  0
   -2.3690   -1.4277   -0.3093 C   0  0  0  0  0  0  0  0  0  0  0  0
   -1.6853   -3.4206    0.1966 H   0  0  0  0  0  0  0  0  0  0  0  0
   -1.7485   -2.2843    1.5933 H   0  0  0  0  0  0  0  0  0  0  0  0
    0.2088   -2.1317   -0.7893 H   0  0  0  0  0  0  0  0  0  0  0  0
    0.6068   -2.7729    0.8399 H   0  0  0  0  0  0  0  0  0  0  0  0
    0.3689   -0.6572    1.9103 H   0  0  0  0  0  0  0  0  0  0  0  0
    4.1600    1.4114    0.5268 H   0  0  0  0  0  0  0  0  0  0  0  0
    4.6312   -0.3321    0.2944 H   0  0  0  0  0  0  0  0  0  0  0  0
    3.8204   -0.2576   -1.8957 H   0  0  0  0  0  0  0  0  0  0  0  0
    3.3342    1.4858   -1.6569 H   0  0  0  0  0  0  0  0  0  0  0  0
    1.1950   -0.0152   -1.8868 H   0  0  0  0  0  0  0  0  0  0  0  0
    0.4078    2.0960    1.1496 H   0  0  0  0  0  0  0  0  0  0  0  0
   -1.3120    3.7785    0.6442 H   0  0  0  0  0  0  0  0  0  0  0  0
   -3.4892    3.0939   -0.3121 H   0  0  0  0  0  0  0  0  0  0  0  0
   -3.9649    0.7147   -0.7394 H   0  0  0  0  0  0  0  0  0  0  0  0
   -3.4343   -1.6283   -0.0618 H   0  0  0  0  0  0  0  0  0  0  0  0
   -2.2232   -1.6326   -1.3922 H   0  0  0  0  0  0  0  0  0  0  0  0
  1  2  1  0
  2  3  1  0
  3  4  1  0
  4  5  2  0
  5  6  1  0
  6  7  1  0
  7  8  1  0
  8  4  1  0
  3  9  1  0
  9 10  2  0
 10 11  1  0
 11 12  2  0
 12 13  1  0
 13 14  2  0
 14  9  1  0
 14 15  1  0
 15  1  1  0
  1 16  1  0
  1 17  1  0
  2 18  1  0
  2 19  1  0
  3 20  1  0
  6 21  1  0
  6 22  1  0
  7 23  1  0
  7 24  1  0
  8 25  1  0
 10 26  1  0
 11 27  1  0
 12 28  1  0
 13 29  1  0
 15 30  1  0
 15 31  1  0
M  END
> <ID>
HT2029

> <Class>
0.0

> <Clusters>
250

> <Fold>
2

$$$$