
     RDKit          3D

 32 33  0  0  0  0  0  0  0  0999 V2000
    3.8256    1.5465   -0.8186 O   0  0  0  0  0  0  0  0  0  0  0  0
    3.6627    0.2769   -1.3650 C   0  0  0  0  0  0  0  0  0  0  0  0
    3.5362    0.1507   -2.6113 O   0  0  0  0  0  0  0  0  0  0  0  0
    3.6046   -0.9332   -0.4792 C   0  0  0  0  0  0  0  0  0  0  0  0
    2.2507   -1.0503    0.2330 C   0  0  0  0  0  0  0  0  0  0  0  0
    1.1039   -1.3499   -0.7480 C   0  0  0  0  0  0  0  0  0  0  0  0
   -0.2238   -1.6646   -0.0345 C   0  0  0  0  0  0  0  0  0  0  0  0
   -0.8403   -0.4572    0.7011 C   0  0  2  0  0  0  0  0  0  0  0  0
   -2.3558   -0.9473    1.5701 S   0  0  0  0  0  0  0  0  0  0  0  0
   -2.7503    0.8094    1.7936 C   0  0  0  0  0  0  0  0  0  0  0  0
   -2.3248    1.5554    0.5289 C   0  0  2  0  0  0  0  0  0  0  0  0
   -3.4339    1.6212   -0.4174 N   0  0  0  0  0  0  0  0  0  0  0  0
   -3.0652    0.9008   -1.5672 C   0  0  0  0  0  0  0  0  0  0  0  0
   -3.8054    0.7748   -2.5774 O   0  0  0  0  0  0  0  0  0  0  0  0
   -1.7769    0.3440   -1.4718 N   0  0  0  0  0  0  0  0  0  0  0  0
   -1.2040    0.7464   -0.1865 C   0  0  2  0  0  0  0  0  0  0  0  0
    3.9186    1.6779    0.1815 H   0  0  0  0  0  0  0  0  0  0  0  0
    3.8043   -1.8525   -1.0723 H   0  0  0  0  0  0  0  0  0  0  0  0
    4.4071   -0.8512    0.2847 H   0  0  0  0  0  0  0  0  0  0  0  0
    2.0496   -0.1075    0.7849 H   0  0  0  0  0  0  0  0  0  0  0  0
    2.3198   -1.8740    0.9766 H   0  0  0  0  0  0  0  0  0  0  0  0
    0.9714   -0.4967   -1.4450 H   0  0  0  0  0  0  0  0  0  0  0  0
    1.3783   -2.2372   -1.3594 H   0  0  0  0  0  0  0  0  0  0  0  0
   -0.0511   -2.4832    0.6982 H   0  0  0  0  0  0  0  0  0  0  0  0
   -0.9489   -2.0580   -0.7790 H   0  0  0  0  0  0  0  0  0  0  0  0
   -0.1310   -0.1141    1.4845 H   0  0  0  0  0  0  0  0  0  0  0  0
   -3.8338    0.9372    2.0029 H   0  0  0  0  0  0  0  0  0  0  0  0
   -2.1746    1.1920    2.6638 H   0  0  0  0  0  0  0  0  0  0  0  0
   -1.9827    2.5844    0.7749 H   0  0  0  0  0  0  0  0  0  0  0  0
   -4.3423    2.1150   -0.2695 H   0  0  0  0  0  0  0  0  0  0  0  0
   -1.2766   -0.1415   -2.2489 H   0  0  0  0  0  0  0  0  0  0  0  0
   -0.3115    1.3861   -0.3630 H   0  0  0  0  0  0  0  0  0  0  0  0
  1  2  1  0
  2  3  2  0
  2  4  1  0
  4  5  1  0
  5  6  1  0
  6  7  1  0
  8  7  1  0
  8  9  1  0
  9 10  1  0
 11 10  1  0
 11 12  1  0
 12 13  1  0
 13 14  2  0
 13 15  1  0
 16 15  1  0
 16  8  1  0
 16 11  1  0
  1 17  1  0
  4 18  1  0
  4 19  1  0
  5 20  1  0
  5 21  1  0
  6 22  1  0
  6 23  1  0
  7 24  1  0
  7 25  1  0
  8 26  1  1
 10 27  1  0
 10 28  1  0
 11 29  1  1
 12 30  1  0
 15 31  1  0
 16 32  1  6
M  END
> <ID>
HT0288

> <Class>
0.0

> <Clusters>
252

> <Fold>
2

$$$$