
     RDKit          3D

 25 26  0  0  0  0  0  0  0  0999 V2000
   -3.6043   -1.3445    1.7687 N   0  0  0  0  0  0  0  0  0  0  0  0
   -2.6255   -1.0050    0.7831 C   0  0  0  0  0  0  0  0  0  0  0  0
   -2.2357    0.3301    0.6058 C   0  0  0  0  0  0  0  0  0  0  0  0
   -1.2783    0.6616   -0.3575 C   0  0  0  0  0  0  0  0  0  0  0  0
   -0.6991   -0.3387   -1.1494 C   0  0  0  0  0  0  0  0  0  0  0  0
   -1.0917   -1.6731   -0.9767 C   0  0  0  0  0  0  0  0  0  0  0  0
   -2.0497   -2.0048   -0.0137 C   0  0  0  0  0  0  0  0  0  0  0  0
    0.5139    0.0862   -2.3524 S   0  0  0  0  0  0  0  0  0  0  0  0
   -0.1789    0.5686   -3.5953 O   0  0  0  0  0  0  0  0  0  0  0  0
    1.3599   -1.1083   -2.6950 O   0  0  0  0  0  0  0  0  0  0  0  0
    1.5372    1.3441   -1.7408 N   0  0  0  0  0  0  0  0  0  0  0  0
    2.3255    1.1865   -0.5571 C   0  0  0  0  0  0  0  0  0  0  0  0
    3.0989    2.1741   -0.0591 N   0  0  0  0  0  0  0  0  0  0  0  0
    3.7457    1.7838    1.0717 C   0  0  0  0  0  0  0  0  0  0  0  0
    3.4889    0.4796    1.4799 C   0  0  0  0  0  0  0  0  0  0  0  0
    2.4135   -0.2076    0.3841 S   0  0  0  0  0  0  0  0  0  0  0  0
   -3.9013   -2.3361    1.9078 H   0  0  0  0  0  0  0  0  0  0  0  0
   -4.0390   -0.6067    2.3667 H   0  0  0  0  0  0  0  0  0  0  0  0
   -2.6733    1.1124    1.2132 H   0  0  0  0  0  0  0  0  0  0  0  0
   -0.9870    1.6966   -0.4838 H   0  0  0  0  0  0  0  0  0  0  0  0
   -0.6576   -2.4565   -1.5846 H   0  0  0  0  0  0  0  0  0  0  0  0
   -2.3430   -3.0396    0.1115 H   0  0  0  0  0  0  0  0  0  0  0  0
    1.5619    2.2561   -2.2484 H   0  0  0  0  0  0  0  0  0  0  0  0
    4.4102    2.4468    1.6088 H   0  0  0  0  0  0  0  0  0  0  0  0
    3.9087   -0.0057    2.3505 H   0  0  0  0  0  0  0  0  0  0  0  0
  1  2  1  0
  2  3  2  0
  3  4  1  0
  4  5  2  0
  5  6  1  0
  6  7  2  0
  7  2  1  0
  5  8  1  0
  8  9  2  0
  8 10  2  0
  8 11  1  0
 11 12  1  0
 12 13  2  0
 13 14  1  0
 14 15  2  0
 15 16  1  0
 16 12  1  0
  1 17  1  0
  1 18  1  0
  3 19  1  0
  4 20  1  0
  6 21  1  0
  7 22  1  0
 11 23  1  0
 14 24  1  0
 15 25  1  0
M  END
> <ID>
HT1953

> <Class>
0.0

> <Clusters>
220

> <Fold>
2

$$$$