
     RDKit          3D

  9  8  0  0  0  0  0  0  0  0999 V2000
   -1.1307    0.0266   -0.1254 C   0  0  0  0  0  0  0  0  0  0  0  0
    0.1910   -0.5039    0.1941 N   0  0  0  0  0  0  0  0  0  0  0  0
    1.3985    0.2527    0.0562 C   0  0  0  0  0  0  0  0  0  0  0  0
    1.3777    1.4422   -0.3578 O   0  0  0  0  0  0  0  0  0  0  0  0
   -1.7699   -0.0078    0.7813 H   0  0  0  0  0  0  0  0  0  0  0  0
   -1.0764    1.0759   -0.4832 H   0  0  0  0  0  0  0  0  0  0  0  0
   -1.5952   -0.5962   -0.9179 H   0  0  0  0  0  0  0  0  0  0  0  0
    0.2591   -1.4865    0.5413 H   0  0  0  0  0  0  0  0  0  0  0  0
    2.3460   -0.2030    0.3114 H   0  0  0  0  0  0  0  0  0  0  0  0
  1  2  1  0
  2  3  1  0
  3  4  2  0
  1  5  1  0
  1  6  1  0
  1  7  1  0
  2  8  1  0
  3  9  1  0
M  END
> <ID>
HT2304

> <Class>
0.0

> <Clusters>
3

> <Fold>
2

$$$$