
     RDKit          3D

 38 40  0  0  0  0  0  0  0  0999 V2000
   -6.1982    0.1332   -0.7127 C   0  0  0  0  0  0  0  0  0  0  0  0
   -5.0984   -0.6418   -0.1325 N   0  0  0  0  0  0  0  0  0  0  0  0
   -5.3551   -2.0172    0.3006 C   0  0  0  0  0  0  0  0  0  0  0  0
   -3.7965   -0.0517    0.0645 C   0  0  0  0  0  0  0  0  0  0  0  0
   -2.6298   -0.7822   -0.2183 C   0  0  0  0  0  0  0  0  0  0  0  0
   -1.3715   -0.2066   -0.0146 C   0  0  0  0  0  0  0  0  0  0  0  0
   -1.2512    1.1106    0.4815 C   0  0  0  0  0  0  0  0  0  0  0  0
   -2.4175    1.8298    0.7674 C   0  0  0  0  0  0  0  0  0  0  0  0
   -3.6766    1.2571    0.5639 C   0  0  0  0  0  0  0  0  0  0  0  0
   -0.0420    1.7149    0.6969 N   0  0  0  0  0  0  0  0  0  0  0  0
    1.2050    1.1986    0.4876 C   0  0  0  0  0  0  0  0  0  0  0  0
    2.3276    1.9698    0.7669 C   0  0  0  0  0  0  0  0  0  0  0  0
    3.6149    1.4617    0.5600 C   0  0  0  0  0  0  0  0  0  0  0  0
    3.8445    0.1466    0.0594 C   0  0  0  0  0  0  0  0  0  0  0  0
    5.0771   -0.3149   -0.1293 N   0  0  0  0  0  0  0  0  0  0  0  0
    6.2659    0.5085    0.1690 C   0  0  0  0  0  0  0  0  0  0  0  0
    5.3230   -1.6757   -0.6473 C   0  0  0  0  0  0  0  0  0  0  0  0
    2.7045   -0.6530   -0.2304 C   0  0  0  0  0  0  0  0  0  0  0  0
    1.4164   -0.1617   -0.0298 C   0  0  0  0  0  0  0  0  0  0  0  0
    0.0393   -1.0709   -0.3581 S   0  0  0  0  0  0  0  0  0  0  0  0
   -5.8462    1.1144   -1.0956 H   0  0  0  0  0  0  0  0  0  0  0  0
   -6.6373   -0.4245   -1.5667 H   0  0  0  0  0  0  0  0  0  0  0  0
   -6.9823    0.3030    0.0548 H   0  0  0  0  0  0  0  0  0  0  0  0
   -6.4399   -2.2535    0.2521 H   0  0  0  0  0  0  0  0  0  0  0  0
   -5.0166   -2.1512    1.3499 H   0  0  0  0  0  0  0  0  0  0  0  0
   -4.8174   -2.7309   -0.3568 H   0  0  0  0  0  0  0  0  0  0  0  0
   -2.6964   -1.7886   -0.6105 H   0  0  0  0  0  0  0  0  0  0  0  0
   -2.3512    2.8393    1.1549 H   0  0  0  0  0  0  0  0  0  0  0  0
   -4.5594    1.8311    0.8144 H   0  0  0  0  0  0  0  0  0  0  0  0
    2.2093    2.9766    1.1494 H   0  0  0  0  0  0  0  0  0  0  0  0
    4.4295    2.1286    0.8033 H   0  0  0  0  0  0  0  0  0  0  0  0
    6.2812    0.7801    1.2463 H   0  0  0  0  0  0  0  0  0  0  0  0
    7.2164   -0.0239   -0.0433 H   0  0  0  0  0  0  0  0  0  0  0  0
    6.2619    1.4255   -0.4583 H   0  0  0  0  0  0  0  0  0  0  0  0
    6.4045   -1.9044   -0.7462 H   0  0  0  0  0  0  0  0  0  0  0  0
    4.8948   -2.4309    0.0461 H   0  0  0  0  0  0  0  0  0  0  0  0
    4.8754   -1.7856   -1.6584 H   0  0  0  0  0  0  0  0  0  0  0  0
    2.7924   -1.6602   -0.6127 H   0  0  0  0  0  0  0  0  0  0  0  0
  1  2  1  0
  2  3  1  0
  2  4  1  0
  4  5  2  0
  5  6  1  0
  6  7  2  0
  7  8  1  0
  8  9  2  0
  9  4  1  0
  7 10  1  0
 10 11  2  0
 11 12  1  0
 12 13  2  0
 13 14  1  0
 14 15  2  3
 15 16  1  0
 15 17  1  0
 14 18  1  0
 18 19  2  0
 19 11  1  0
 19 20  1  0
 20  6  1  0
  1 21  1  0
  1 22  1  0
  1 23  1  0
  3 24  1  0
  3 25  1  0
  3 26  1  0
  5 27  1  0
  8 28  1  0
  9 29  1  0
 12 30  1  0
 13 31  1  0
 16 32  1  0
 16 33  1  0
 16 34  1  0
 17 35  1  0
 17 36  1  0
 17 37  1  0
 18 38  1  0
M  CHG  1  15   1
M  END
> <ID>
HT0007

> <Class>
0.0

> <Clusters>
97

> <Fold>
2

$$$$