
     RDKit          3D

 46 47  0  0  0  0  0  0  0  0999 V2000
    2.6343    0.3243   -1.3092 C   0  0  0  0  0  0  0  0  0  0  0  0
    2.8430   -0.6259   -0.1169 C   0  0  0  0  0  0  0  0  0  0  0  0
    3.7442   -1.8036   -0.5275 C   0  0  0  0  0  0  0  0  0  0  0  0
    3.4270    0.0843    0.9868 O   0  0  0  0  0  0  0  0  0  0  0  0
    4.6732    0.7192    0.9420 C   0  0  0  0  0  0  0  0  0  0  0  0
    4.7636    2.0653    0.5637 C   0  0  0  0  0  0  0  0  0  0  0  0
    6.0076    2.7032    0.5302 C   0  0  0  0  0  0  0  0  0  0  0  0
    7.1650    2.0010    0.8851 C   0  0  0  0  0  0  0  0  0  0  0  0
    8.7252    2.8014    0.8436 Cl  0  0  0  0  0  0  0  0  0  0  0  0
    7.0752    0.6609    1.2785 C   0  0  0  0  0  0  0  0  0  0  0  0
    5.8313    0.0228    1.3119 C   0  0  0  0  0  0  0  0  0  0  0  0
    1.5010   -1.1660    0.3135 C   0  0  0  0  0  0  0  0  0  0  0  0
    1.0791   -0.9563    1.4846 O   0  0  0  0  0  0  0  0  0  0  0  0
    0.7301   -1.9040   -0.5942 O   0  0  0  0  0  0  0  0  0  0  0  0
   -0.5806   -2.3844   -0.3035 C   0  0  0  0  0  0  0  0  0  0  0  0
   -1.5962   -1.2407   -0.3714 C   0  0  0  0  0  0  0  0  0  0  0  0
   -3.0142   -1.7445   -0.1132 C   0  0  0  0  0  0  0  0  0  0  0  0
   -3.9239   -0.6515   -0.1831 O   0  0  0  0  0  0  0  0  0  0  0  0
   -5.3013   -0.7996    0.0118 C   0  0  0  0  0  0  0  0  0  0  0  0
   -5.7854   -1.9384    0.2612 O   0  0  0  0  0  0  0  0  0  0  0  0
   -6.1875    0.3811   -0.0750 C   0  0  0  0  0  0  0  0  0  0  0  0
   -7.5745    0.2612    0.1162 C   0  0  0  0  0  0  0  0  0  0  0  0
   -8.3940    1.3881    0.0301 C   0  0  0  0  0  0  0  0  0  0  0  0
   -7.8222    2.6301   -0.2471 C   0  0  0  0  0  0  0  0  0  0  0  0
   -6.4799    2.7352   -0.4303 N   0  0  0  0  0  0  0  0  0  0  0  0
   -5.6592    1.6536   -0.3518 C   0  0  0  0  0  0  0  0  0  0  0  0
    2.1281   -0.1989   -2.1493 H   0  0  0  0  0  0  0  0  0  0  0  0
    3.6081    0.7054   -1.6831 H   0  0  0  0  0  0  0  0  0  0  0  0
    2.0097    1.1911   -1.0036 H   0  0  0  0  0  0  0  0  0  0  0  0
    4.7258   -1.4373   -0.8957 H   0  0  0  0  0  0  0  0  0  0  0  0
    3.9207   -2.4723    0.3423 H   0  0  0  0  0  0  0  0  0  0  0  0
    3.2750   -2.3968   -1.3421 H   0  0  0  0  0  0  0  0  0  0  0  0
    3.8709    2.6152    0.2949 H   0  0  0  0  0  0  0  0  0  0  0  0
    6.0704    3.7418    0.2313 H   0  0  0  0  0  0  0  0  0  0  0  0
    7.9665    0.1148    1.5601 H   0  0  0  0  0  0  0  0  0  0  0  0
    5.7670   -1.0117    1.6237 H   0  0  0  0  0  0  0  0  0  0  0  0
   -0.5976   -2.8674    0.6983 H   0  0  0  0  0  0  0  0  0  0  0  0
   -0.8447   -3.1529   -1.0609 H   0  0  0  0  0  0  0  0  0  0  0  0
   -1.3425   -0.4686    0.3864 H   0  0  0  0  0  0  0  0  0  0  0  0
   -1.5515   -0.7709   -1.3781 H   0  0  0  0  0  0  0  0  0  0  0  0
   -3.2880   -2.5032   -0.8789 H   0  0  0  0  0  0  0  0  0  0  0  0
   -3.0689   -2.2073    0.8967 H   0  0  0  0  0  0  0  0  0  0  0  0
   -8.0248   -0.6998    0.3316 H   0  0  0  0  0  0  0  0  0  0  0  0
   -9.4627    1.2994    0.1768 H   0  0  0  0  0  0  0  0  0  0  0  0
   -8.4456    3.5115   -0.3166 H   0  0  0  0  0  0  0  0  0  0  0  0
   -4.5969    1.7910   -0.5058 H   0  0  0  0  0  0  0  0  0  0  0  0
  1  2  1  0
  2  3  1  0
  2  4  1  0
  4  5  1  0
  5  6  2  0
  6  7  1  0
  7  8  2  0
  8  9  1  0
  8 10  1  0
 10 11  2  0
 11  5  1  0
  2 12  1  0
 12 13  2  0
 12 14  1  0
 14 15  1  0
 15 16  1  0
 16 17  1  0
 17 18  1  0
 18 19  1  0
 19 20  2  0
 19 21  1  0
 21 22  2  0
 22 23  1  0
 23 24  2  0
 24 25  1  0
 25 26  2  0
 26 21  1  0
  1 27  1  0
  1 28  1  0
  1 29  1  0
  3 30  1  0
  3 31  1  0
  3 32  1  0
  6 33  1  0
  7 34  1  0
 10 35  1  0
 11 36  1  0
 15 37  1  0
 15 38  1  0
 16 39  1  0
 16 40  1  0
 17 41  1  0
 17 42  1  0
 22 43  1  0
 23 44  1  0
 24 45  1  0
 26 46  1  0
M  END
> <ID>
HT1844

> <Class>
0.0

> <Clusters>
98

> <Fold>
2

$$$$