
     RDKit          3D

 37 38  0  0  0  0  0  0  0  0999 V2000
    1.7628   -2.9328    0.3245 C   0  0  0  0  0  0  0  0  0  0  0  0
    2.3243   -1.5807    0.1508 N   0  0  0  0  0  0  0  0  0  0  0  0
    3.3708   -1.3539    1.1606 C   0  0  0  0  0  0  0  0  0  0  0  0
    1.2669   -0.5522    0.2620 C   0  0  0  0  0  0  0  0  0  0  0  0
    0.6237   -0.2960   -1.1067 C   0  0  0  0  0  0  0  0  0  0  0  0
   -0.5347    0.6014   -0.9708 N   0  0  0  0  0  0  0  0  0  0  0  0
   -1.8737    0.0689   -1.2698 C   0  0  0  0  0  0  0  0  0  0  0  0
   -2.2526   -0.9895   -0.2724 C   0  0  0  0  0  0  0  0  0  0  0  0
   -2.3890   -2.3461   -0.6076 C   0  0  0  0  0  0  0  0  0  0  0  0
   -2.7010   -3.1568    0.4740 C   0  0  0  0  0  0  0  0  0  0  0  0
   -2.8033   -2.1854    1.8407 S   0  0  0  0  0  0  0  0  0  0  0  0
   -2.4579   -0.7288    1.0788 C   0  0  0  0  0  0  0  0  0  0  0  0
   -0.3231    1.9951   -0.6475 C   0  0  0  0  0  0  0  0  0  0  0  0
   -1.2846    2.7443    0.0568 C   0  0  0  0  0  0  0  0  0  0  0  0
   -1.0277    4.0826    0.3618 C   0  0  0  0  0  0  0  0  0  0  0  0
    0.1780    4.6663   -0.0257 C   0  0  0  0  0  0  0  0  0  0  0  0
    1.1168    3.8968   -0.7126 C   0  0  0  0  0  0  0  0  0  0  0  0
    0.8496    2.5957   -1.0014 N   0  0  0  0  0  0  0  0  0  0  0  0
    1.3321   -3.0653    1.3425 H   0  0  0  0  0  0  0  0  0  0  0  0
    0.9694   -3.1294   -0.4259 H   0  0  0  0  0  0  0  0  0  0  0  0
    2.5543   -3.6967    0.1668 H   0  0  0  0  0  0  0  0  0  0  0  0
    4.1553   -2.1381    1.0880 H   0  0  0  0  0  0  0  0  0  0  0  0
    3.8707   -0.3783    0.9779 H   0  0  0  0  0  0  0  0  0  0  0  0
    2.9451   -1.3584    2.1892 H   0  0  0  0  0  0  0  0  0  0  0  0
    1.6896    0.4159    0.6146 H   0  0  0  0  0  0  0  0  0  0  0  0
    0.4891   -0.8499    1.0014 H   0  0  0  0  0  0  0  0  0  0  0  0
    0.3077   -1.2604   -1.5576 H   0  0  0  0  0  0  0  0  0  0  0  0
    1.3708    0.1471   -1.8001 H   0  0  0  0  0  0  0  0  0  0  0  0
   -1.8671   -0.3600   -2.2956 H   0  0  0  0  0  0  0  0  0  0  0  0
   -2.6462    0.8646   -1.2790 H   0  0  0  0  0  0  0  0  0  0  0  0
   -2.2524   -2.7316   -1.6096 H   0  0  0  0  0  0  0  0  0  0  0  0
   -2.8452   -4.2281    0.4413 H   0  0  0  0  0  0  0  0  0  0  0  0
   -2.3885    0.2345    1.5637 H   0  0  0  0  0  0  0  0  0  0  0  0
   -2.2138    2.3052    0.3889 H   0  0  0  0  0  0  0  0  0  0  0  0
   -1.7610    4.6651    0.9044 H   0  0  0  0  0  0  0  0  0  0  0  0
    0.3851    5.7024    0.2086 H   0  0  0  0  0  0  0  0  0  0  0  0
    2.0595    4.3325   -1.0152 H   0  0  0  0  0  0  0  0  0  0  0  0
  1  2  1  0
  2  3  1  0
  2  4  1  0
  4  5  1  0
  5  6  1  0
  6  7  1  0
  7  8  1  0
  8  9  1  0
  9 10  2  0
 10 11  1  0
 11 12  1  0
 12  8  2  0
  6 13  1  0
 13 14  2  0
 14 15  1  0
 15 16  2  0
 16 17  1  0
 17 18  2  0
 18 13  1  0
  1 19  1  0
  1 20  1  0
  1 21  1  0
  3 22  1  0
  3 23  1  0
  3 24  1  0
  4 25  1  0
  4 26  1  0
  5 27  1  0
  5 28  1  0
  7 29  1  0
  7 30  1  0
  9 31  1  0
 10 32  1  0
 12 33  1  0
 14 34  1  0
 15 35  1  0
 16 36  1  0
 17 37  1  0
M  END
> <ID>
HT3155

> <Class>
0.0

> <Clusters>
51

> <Fold>
2

$$$$