
     RDKit          3D

 33 34  0  0  0  0  0  0  0  0999 V2000
   -4.9464   -1.7042   -1.4262 O   0  0  0  0  0  0  0  0  0  0  0  0
   -4.1103   -1.0809   -0.7192 C   0  0  0  0  0  0  0  0  0  0  0  0
   -4.4792    0.0295   -0.0098 N   0  0  0  0  0  0  0  0  0  0  0  0
   -2.7890   -1.4947   -0.6377 C   0  0  0  0  0  0  0  0  0  0  0  0
   -2.1747   -2.5249   -1.2505 N   0  0  0  0  0  0  0  0  0  0  0  0
   -1.9138   -0.8046    0.1253 C   0  0  0  0  0  0  0  0  0  0  0  0
   -0.8903   -2.4114   -0.8103 C   0  0  0  0  0  0  0  0  0  0  0  0
   -0.7048   -1.3713    0.0425 N   0  0  0  0  0  0  0  0  0  0  0  0
   -2.2657    0.3003    0.8251 N   0  0  0  0  0  0  0  0  0  0  0  0
    0.5516   -0.9115    0.6289 C   0  0  0  0  0  0  0  0  0  0  0  0
   -3.5669    0.7192    0.7566 C   0  0  0  0  0  0  0  0  0  0  0  0
    1.2320    0.0947   -0.3078 C   0  0  0  0  0  0  0  0  0  0  0  0
   -3.9723    1.8784    1.4841 N   0  0  0  0  0  0  0  0  0  0  0  0
    2.4457    0.8088    0.3373 C   0  0  0  0  0  0  0  0  0  0  0  0
    2.8938    1.9936   -0.5436 C   0  0  0  0  0  0  0  0  0  0  0  0
    3.6271   -0.1496    0.6004 C   0  0  0  0  0  0  0  0  0  0  0  0
    3.2779    1.5623   -1.8231 O   0  0  0  0  0  0  0  0  0  0  0  0
    3.3764   -0.9308    1.7359 O   0  0  0  0  0  0  0  0  0  0  0  0
   -5.4698    0.3599   -0.0553 H   0  0  0  0  0  0  0  0  0  0  0  0
   -0.0967   -3.0779   -1.1225 H   0  0  0  0  0  0  0  0  0  0  0  0
    0.3483   -0.4399    1.6150 H   0  0  0  0  0  0  0  0  0  0  0  0
    1.2133   -1.7880    0.7926 H   0  0  0  0  0  0  0  0  0  0  0  0
    0.4774    0.8616   -0.5917 H   0  0  0  0  0  0  0  0  0  0  0  0
    1.5444   -0.4270   -1.2391 H   0  0  0  0  0  0  0  0  0  0  0  0
   -3.2819    2.4038    2.0651 H   0  0  0  0  0  0  0  0  0  0  0  0
   -4.9599    2.2147    1.4448 H   0  0  0  0  0  0  0  0  0  0  0  0
    2.1246    1.2418    1.3114 H   0  0  0  0  0  0  0  0  0  0  0  0
    3.7229    2.5518   -0.0499 H   0  0  0  0  0  0  0  0  0  0  0  0
    2.0520    2.7107   -0.6520 H   0  0  0  0  0  0  0  0  0  0  0  0
    4.5562    0.4379    0.7772 H   0  0  0  0  0  0  0  0  0  0  0  0
    3.7946   -0.8047   -0.2843 H   0  0  0  0  0  0  0  0  0  0  0  0
    4.2326    1.2977   -1.7632 H   0  0  0  0  0  0  0  0  0  0  0  0
    4.1506   -1.5453    1.8253 H   0  0  0  0  0  0  0  0  0  0  0  0
  1  2  2  0
  2  3  1  0
  2  4  1  0
  4  5  1  0
  6  4  2  0
  5  7  2  0
  8  6  1  0
  6  9  1  0
  7  8  1  0
  8 10  1  0
  9 11  2  0
 10 12  1  0
 13 11  1  0
 11  3  1  0
 12 14  1  0
 14 15  1  0
 14 16  1  0
 15 17  1  0
 16 18  1  0
  3 19  1  0
  7 20  1  0
 10 21  1  0
 10 22  1  0
 12 23  1  0
 12 24  1  0
 13 25  1  0
 13 26  1  0
 14 27  1  0
 15 28  1  0
 15 29  1  0
 16 30  1  0
 16 31  1  0
 17 32  1  0
 18 33  1  0
M  END
> <ID>
HT1611

> <Class>
0.0

> <Clusters>
116

> <Fold>
2

$$$$