
     RDKit          3D

 27 27  0  0  0  0  0  0  0  0999 V2000
   -3.4367   -0.7337   -0.2623 C   0  0  0  0  0  0  0  0  0  0  0  0
   -2.2164   -0.5734    0.6065 C   0  0  0  0  0  0  0  0  0  0  0  0
   -2.3114   -0.7506    1.9366 C   0  0  0  0  0  0  0  0  0  0  0  0
   -0.8967   -0.2071   -0.0545 C   0  0  0  0  0  0  0  0  0  0  0  0
   -0.3455    1.1264    0.4704 C   0  0  0  0  0  0  0  0  0  0  0  0
    0.9102    1.5380   -0.3111 C   0  0  0  0  0  0  0  0  0  0  0  0
    1.8691    0.3902   -0.5731 C   0  0  0  0  0  0  0  0  0  0  0  0
    1.4995   -0.9007   -0.4202 C   0  0  0  0  0  0  0  0  0  0  0  0
    0.1580   -1.3106    0.1318 C   0  0  0  0  0  0  0  0  0  0  0  0
    3.2402    0.7075   -1.1168 C   0  0  0  0  0  0  0  0  0  0  0  0
    4.2219    0.4031   -0.1631 O   0  0  0  0  0  0  0  0  0  0  0  0
   -4.3398   -1.0012    0.3274 H   0  0  0  0  0  0  0  0  0  0  0  0
   -3.2556   -1.5355   -1.0085 H   0  0  0  0  0  0  0  0  0  0  0  0
   -3.6369    0.2184   -0.7968 H   0  0  0  0  0  0  0  0  0  0  0  0
   -1.4478   -0.6383    2.5833 H   0  0  0  0  0  0  0  0  0  0  0  0
   -3.2573   -1.0108    2.4017 H   0  0  0  0  0  0  0  0  0  0  0  0
   -1.0743   -0.0923   -1.1487 H   0  0  0  0  0  0  0  0  0  0  0  0
   -0.0849    1.0374    1.5479 H   0  0  0  0  0  0  0  0  0  0  0  0
   -1.1151    1.9226    0.3675 H   0  0  0  0  0  0  0  0  0  0  0  0
    1.4361    2.3303    0.2642 H   0  0  0  0  0  0  0  0  0  0  0  0
    0.6084    1.9720   -1.2887 H   0  0  0  0  0  0  0  0  0  0  0  0
    2.2116   -1.6916   -0.6390 H   0  0  0  0  0  0  0  0  0  0  0  0
   -0.1788   -2.2338   -0.3872 H   0  0  0  0  0  0  0  0  0  0  0  0
    0.2913   -1.5501    1.2082 H   0  0  0  0  0  0  0  0  0  0  0  0
    3.4176    0.1495   -2.0651 H   0  0  0  0  0  0  0  0  0  0  0  0
    3.3134    1.7892   -1.3580 H   0  0  0  0  0  0  0  0  0  0  0  0
    4.4198   -0.5655   -0.2525 H   0  0  0  0  0  0  0  0  0  0  0  0
  1  2  1  0
  2  3  2  3
  2  4  1  0
  4  5  1  0
  5  6  1  0
  6  7  1  0
  7  8  2  0
  8  9  1  0
  9  4  1  0
  7 10  1  0
 10 11  1  0
  1 12  1  0
  1 13  1  0
  1 14  1  0
  3 15  1  0
  3 16  1  0
  4 17  1  0
  5 18  1  0
  5 19  1  0
  6 20  1  0
  6 21  1  0
  8 22  1  0
  9 23  1  0
  9 24  1  0
 10 25  1  0
 10 26  1  0
 11 27  1  0
M  END
> <ID>
HT2640

> <Class>
0.0

> <Clusters>
69

> <Fold>
2

$$$$