
     RDKit          3D

 46 48  0  0  0  0  0  0  0  0999 V2000
   -2.5603    0.6669   -3.2552 C   0  0  0  0  0  0  0  0  0  0  0  0
   -2.8665    0.4191   -1.8013 C   0  0  0  0  0  0  0  0  0  0  0  0
   -3.7944   -0.5822   -1.4821 C   0  0  0  0  0  0  0  0  0  0  0  0
   -4.1116   -0.8788   -0.1499 C   0  0  0  0  0  0  0  0  0  0  0  0
   -5.0850   -1.9659    0.1218 C   0  0  0  0  0  0  0  0  0  0  0  0
   -5.7629   -2.0893    1.2677 C   0  0  0  0  0  0  0  0  0  0  0  0
   -6.7030   -3.1635    1.4454 C   0  0  0  0  0  0  0  0  0  0  0  0
   -7.4594   -4.0275    1.5888 N   0  0  0  0  0  0  0  0  0  0  0  0
   -3.4730   -0.1630    0.8778 C   0  0  0  0  0  0  0  0  0  0  0  0
   -2.5591    0.8598    0.5819 C   0  0  0  0  0  0  0  0  0  0  0  0
   -1.9087    1.6100    1.7144 C   0  0  0  0  0  0  0  0  0  0  0  0
   -2.2352    1.1409   -0.7643 C   0  0  0  0  0  0  0  0  0  0  0  0
   -1.2816    2.1664   -1.0771 N   0  0  0  0  0  0  0  0  0  0  0  0
    0.1233    1.9923   -0.8467 C   0  0  0  0  0  0  0  0  0  0  0  0
    1.0155    3.0325   -1.1220 C   0  0  0  0  0  0  0  0  0  0  0  0
    2.3745    2.8225   -0.8957 C   0  0  0  0  0  0  0  0  0  0  0  0
    2.8054    1.6274   -0.4166 N   0  0  0  0  0  0  0  0  0  0  0  0
    1.9285    0.6232   -0.1422 C   0  0  0  0  0  0  0  0  0  0  0  0
    2.3906   -0.6485    0.3346 N   0  0  0  0  0  0  0  0  0  0  0  0
    3.7173   -0.8926    0.8312 C   0  0  0  0  0  0  0  0  0  0  0  0
    4.3165   -2.1417    0.6086 C   0  0  0  0  0  0  0  0  0  0  0  0
    5.5967   -2.4119    1.1017 C   0  0  0  0  0  0  0  0  0  0  0  0
    6.2851   -1.4400    1.8375 C   0  0  0  0  0  0  0  0  0  0  0  0
    5.6843   -0.2000    2.0855 C   0  0  0  0  0  0  0  0  0  0  0  0
    4.4043    0.0712    1.5919 C   0  0  0  0  0  0  0  0  0  0  0  0
    7.6021   -1.7189    2.3472 C   0  0  0  0  0  0  0  0  0  0  0  0
    8.6609   -1.9431    2.7570 N   0  0  0  0  0  0  0  0  0  0  0  0
    0.6016    0.8098   -0.3716 N   0  0  0  0  0  0  0  0  0  0  0  0
   -2.1932   -0.2718   -3.7214 H   0  0  0  0  0  0  0  0  0  0  0  0
   -3.4849    0.9895   -3.7785 H   0  0  0  0  0  0  0  0  0  0  0  0
   -1.7863    1.4453   -3.4082 H   0  0  0  0  0  0  0  0  0  0  0  0
   -4.2726   -1.1359   -2.2826 H   0  0  0  0  0  0  0  0  0  0  0  0
   -5.2841   -2.6744   -0.6759 H   0  0  0  0  0  0  0  0  0  0  0  0
   -5.6519   -1.3786    2.0738 H   0  0  0  0  0  0  0  0  0  0  0  0
   -3.6666   -0.4032    1.9144 H   0  0  0  0  0  0  0  0  0  0  0  0
   -1.7612    2.6776    1.4474 H   0  0  0  0  0  0  0  0  0  0  0  0
   -2.5419    1.5814    2.6266 H   0  0  0  0  0  0  0  0  0  0  0  0
   -0.9264    1.1509    1.9503 H   0  0  0  0  0  0  0  0  0  0  0  0
   -1.6192    3.0215   -1.5744 H   0  0  0  0  0  0  0  0  0  0  0  0
    0.6654    3.9830   -1.5044 H   0  0  0  0  0  0  0  0  0  0  0  0
    3.0883    3.6084   -1.1033 H   0  0  0  0  0  0  0  0  0  0  0  0
    1.7417   -1.4629    0.2418 H   0  0  0  0  0  0  0  0  0  0  0  0
    3.7936   -2.9026    0.0429 H   0  0  0  0  0  0  0  0  0  0  0  0
    6.0480   -3.3783    0.9112 H   0  0  0  0  0  0  0  0  0  0  0  0
    6.2011    0.5534    2.6679 H   0  0  0  0  0  0  0  0  0  0  0  0
    3.9444    1.0217    1.8268 H   0  0  0  0  0  0  0  0  0  0  0  0
  1  2  1  0
  2  3  2  0
  3  4  1  0
  4  5  1  0
  5  6  2  0
  6  7  1  0
  7  8  3  0
  4  9  2  0
  9 10  1  0
 10 11  1  0
 10 12  2  0
 12  2  1  0
 12 13  1  0
 13 14  1  0
 14 15  2  0
 15 16  1  0
 16 17  2  0
 17 18  1  0
 18 19  1  0
 19 20  1  0
 20 21  2  0
 21 22  1  0
 22 23  2  0
 23 24  1  0
 24 25  2  0
 25 20  1  0
 23 26  1  0
 26 27  3  0
 18 28  2  0
 28 14  1  0
  1 29  1  0
  1 30  1  0
  1 31  1  0
  3 32  1  0
  5 33  1  0
  6 34  1  0
  9 35  1  0
 11 36  1  0
 11 37  1  0
 11 38  1  0
 13 39  1  0
 15 40  1  0
 16 41  1  0
 19 42  1  0
 21 43  1  0
 22 44  1  0
 24 45  1  0
 25 46  1  0
M  END
> <ID>
HT1824

> <Class>
0.0

> <Clusters>
212

> <Fold>
2

$$$$