
     RDKit          3D

 23 23  0  0  0  0  0  0  0  0999 V2000
   -2.8168   -1.8283    0.6048 C   0  0  0  0  0  0  0  0  0  0  0  0
   -2.1724   -0.4563    0.4910 C   0  0  0  0  0  0  0  0  0  0  0  0
   -0.8109   -0.6040    0.0972 O   0  0  0  0  0  0  0  0  0  0  0  0
    0.0880    0.4582   -0.0944 C   0  0  0  0  0  0  0  0  0  0  0  0
   -0.3138    1.8004    0.0652 C   0  0  0  0  0  0  0  0  0  0  0  0
    0.5823    2.8424   -0.1800 C   0  0  0  0  0  0  0  0  0  0  0  0
    1.8849    2.5631   -0.5896 C   0  0  0  0  0  0  0  0  0  0  0  0
    2.3009    1.2399   -0.7445 C   0  0  0  0  0  0  0  0  0  0  0  0
    1.4182    0.1769   -0.4828 C   0  0  0  0  0  0  0  0  0  0  0  0
    1.9016   -1.2140   -0.6450 C   0  0  0  0  0  0  0  0  0  0  0  0
    2.7140   -1.4867   -1.5694 O   0  0  0  0  0  0  0  0  0  0  0  0
    1.4949   -2.2503    0.2514 N   0  0  0  0  0  0  0  0  0  0  0  0
   -2.7769   -2.3485   -0.3756 H   0  0  0  0  0  0  0  0  0  0  0  0
   -2.2801   -2.4374    1.3628 H   0  0  0  0  0  0  0  0  0  0  0  0
   -3.8779   -1.7201    0.9136 H   0  0  0  0  0  0  0  0  0  0  0  0
   -2.7217    0.1419   -0.2678 H   0  0  0  0  0  0  0  0  0  0  0  0
   -2.2260    0.0531    1.4775 H   0  0  0  0  0  0  0  0  0  0  0  0
   -1.3214    2.0502    0.3676 H   0  0  0  0  0  0  0  0  0  0  0  0
    0.2631    3.8696   -0.0589 H   0  0  0  0  0  0  0  0  0  0  0  0
    2.5756    3.3735   -0.7844 H   0  0  0  0  0  0  0  0  0  0  0  0
    3.3207    1.0447   -1.0534 H   0  0  0  0  0  0  0  0  0  0  0  0
    0.9710   -2.0339    1.1279 H   0  0  0  0  0  0  0  0  0  0  0  0
    1.8027   -3.2344    0.0868 H   0  0  0  0  0  0  0  0  0  0  0  0
  1  2  1  0
  2  3  1  0
  3  4  1  0
  4  5  2  0
  5  6  1  0
  6  7  2  0
  7  8  1  0
  8  9  2  0
  9  4  1  0
  9 10  1  0
 10 11  2  0
 10 12  1  0
  1 13  1  0
  1 14  1  0
  1 15  1  0
  2 16  1  0
  2 17  1  0
  5 18  1  0
  6 19  1  0
  7 20  1  0
  8 21  1  0
 12 22  1  0
 12 23  1  0
M  END
> <ID>
HT2701

> <Class>
0.0

> <Clusters>
22

> <Fold>
2

$$$$