
     RDKit          3D

 30 31  0  0  0  0  0  0  0  0999 V2000
    2.0158    2.1489   -1.4069 C   0  0  0  0  0  0  0  0  0  0  0  0
    2.2739    0.8152   -0.7459 C   0  0  0  0  0  0  0  0  0  0  0  0
    3.5675    0.2362   -0.7402 C   0  0  0  0  0  0  0  0  0  0  0  0
    4.9668    1.0293   -1.4605 Cl  0  0  0  0  0  0  0  0  0  0  0  0
    3.7754   -1.0090   -0.1388 C   0  0  0  0  0  0  0  0  0  0  0  0
    2.7194   -1.6888    0.4617 C   0  0  0  0  0  0  0  0  0  0  0  0
    1.4428   -1.1322    0.4670 C   0  0  0  0  0  0  0  0  0  0  0  0
    1.2005    0.1137   -0.1382 C   0  0  0  0  0  0  0  0  0  0  0  0
   -0.1270    0.6760   -0.1054 N   0  0  0  0  0  0  0  0  0  0  0  0
   -1.3233   -0.1214   -0.1491 C   0  0  0  0  0  0  0  0  0  0  0  0
   -1.4058   -1.1897   -1.0603 C   0  0  0  0  0  0  0  0  0  0  0  0
   -2.5850   -1.9232   -1.1916 C   0  0  0  0  0  0  0  0  0  0  0  0
   -3.7008   -1.5931   -0.4251 C   0  0  0  0  0  0  0  0  0  0  0  0
   -3.6387   -0.5346    0.4829 C   0  0  0  0  0  0  0  0  0  0  0  0
   -2.4532    0.2086    0.6421 C   0  0  0  0  0  0  0  0  0  0  0  0
   -2.4119    1.2821    1.6649 C   0  0  0  0  0  0  0  0  0  0  0  0
   -3.4806    1.8277    2.0525 O   0  0  0  0  0  0  0  0  0  0  0  0
   -1.2047    1.6735    2.2373 O   0  0  0  0  0  0  0  0  0  0  0  0
    2.8973    2.5521   -1.9409 H   0  0  0  0  0  0  0  0  0  0  0  0
    1.1998    2.0440   -2.1528 H   0  0  0  0  0  0  0  0  0  0  0  0
    1.7185    2.8942   -0.6399 H   0  0  0  0  0  0  0  0  0  0  0  0
    4.7635   -1.4517   -0.1323 H   0  0  0  0  0  0  0  0  0  0  0  0
    2.8922   -2.6488    0.9310 H   0  0  0  0  0  0  0  0  0  0  0  0
    0.6415   -1.6701    0.9576 H   0  0  0  0  0  0  0  0  0  0  0  0
   -0.2405    1.7136   -0.0865 H   0  0  0  0  0  0  0  0  0  0  0  0
   -0.5599   -1.4387   -1.6887 H   0  0  0  0  0  0  0  0  0  0  0  0
   -2.6373   -2.7414   -1.8983 H   0  0  0  0  0  0  0  0  0  0  0  0
   -4.6162   -2.1609   -0.5318 H   0  0  0  0  0  0  0  0  0  0  0  0
   -4.5156   -0.3099    1.0776 H   0  0  0  0  0  0  0  0  0  0  0  0
   -1.1742    2.3985    2.9442 H   0  0  0  0  0  0  0  0  0  0  0  0
  1  2  1  0
  2  3  2  0
  3  4  1  0
  3  5  1  0
  5  6  2  0
  6  7  1  0
  7  8  2  0
  8  2  1  0
  8  9  1  0
  9 10  1  0
 10 11  2  0
 11 12  1  0
 12 13  2  0
 13 14  1  0
 14 15  2  0
 15 10  1  0
 15 16  1  0
 16 17  2  0
 16 18  1  0
  1 19  1  0
  1 20  1  0
  1 21  1  0
  5 22  1  0
  6 23  1  0
  7 24  1  0
  9 25  1  0
 11 26  1  0
 12 27  1  0
 13 28  1  0
 14 29  1  0
 18 30  1  0
M  END
> <ID>
HT2083

> <Class>
0.0

> <Clusters>
153

> <Fold>
2

$$$$