
     RDKit          3D

 30 31  0  0  0  0  0  0  0  0999 V2000
   -1.3023    2.5214   -2.3217 C   0  0  0  0  0  0  0  0  0  0  0  0
   -1.9565    1.2675   -1.8507 C   0  0  0  0  0  0  0  0  0  0  0  0
   -2.8993    0.7705   -2.5239 O   0  0  0  0  0  0  0  0  0  0  0  0
   -1.4732    0.6317   -0.6999 O   0  0  0  0  0  0  0  0  0  0  0  0
   -2.1243   -0.3968    0.0007 C   0  0  0  0  0  0  0  0  0  0  0  0
   -3.5300   -0.4742    0.0467 C   0  0  0  0  0  0  0  0  0  0  0  0
   -4.1602   -1.5234    0.7181 C   0  0  0  0  0  0  0  0  0  0  0  0
   -3.3998   -2.5022    1.3563 C   0  0  0  0  0  0  0  0  0  0  0  0
   -2.0061   -2.4248    1.3426 C   0  0  0  0  0  0  0  0  0  0  0  0
   -1.3551   -1.3637    0.6882 C   0  0  0  0  0  0  0  0  0  0  0  0
    0.1253   -1.3053    0.7032 C   0  0  0  0  0  0  0  0  0  0  0  0
    0.7842   -2.3805    0.6760 O   0  0  0  0  0  0  0  0  0  0  0  0
    0.8090   -0.0450    0.7971 N   0  0  0  0  0  0  0  0  0  0  0  0
    2.2025    0.1234    0.5096 C   0  0  0  0  0  0  0  0  0  0  0  0
    3.0028   -0.8620    0.0404 N   0  0  0  0  0  0  0  0  0  0  0  0
    4.2721   -0.4230   -0.1673 C   0  0  0  0  0  0  0  0  0  0  0  0
    4.4711    0.9189    0.1353 C   0  0  0  0  0  0  0  0  0  0  0  0
    3.0229    1.5847    0.6791 S   0  0  0  0  0  0  0  0  0  0  0  0
    5.7072    1.6259    0.0026 N   0  0  0  0  0  0  0  0  0  0  0  0
    5.7747    2.8354    0.3020 O   0  0  0  0  0  0  0  0  0  0  0  0
    6.8315    0.9794   -0.4554 O   0  0  0  0  0  0  0  0  0  0  0  0
   -2.0491    3.3418   -2.3552 H   0  0  0  0  0  0  0  0  0  0  0  0
   -0.4813    2.8079   -1.6311 H   0  0  0  0  0  0  0  0  0  0  0  0
   -0.8816    2.3650   -3.3370 H   0  0  0  0  0  0  0  0  0  0  0  0
   -4.1430    0.2855   -0.4184 H   0  0  0  0  0  0  0  0  0  0  0  0
   -5.2410   -1.5761    0.7454 H   0  0  0  0  0  0  0  0  0  0  0  0
   -3.8911   -3.3168    1.8727 H   0  0  0  0  0  0  0  0  0  0  0  0
   -1.4345   -3.1859    1.8598 H   0  0  0  0  0  0  0  0  0  0  0  0
    0.2744    0.7958    1.1107 H   0  0  0  0  0  0  0  0  0  0  0  0
    5.0507   -1.0749   -0.5402 H   0  0  0  0  0  0  0  0  0  0  0  0
  1  2  1  0
  2  3  2  0
  2  4  1  0
  4  5  1  0
  5  6  2  0
  6  7  1  0
  7  8  2  0
  8  9  1  0
  9 10  2  0
 10  5  1  0
 10 11  1  0
 11 12  2  0
 11 13  1  0
 13 14  1  0
 14 15  2  0
 15 16  1  0
 16 17  2  0
 17 18  1  0
 18 14  1  0
 17 19  1  0
 19 20  2  0
 19 21  1  0
  1 22  1  0
  1 23  1  0
  1 24  1  0
  6 25  1  0
  7 26  1  0
  8 27  1  0
  9 28  1  0
 13 29  1  0
 16 30  1  0
M  CHG  2  19   1  21  -1
M  END
> <ID>
HT1500

> <Class>
0.0

> <Clusters>
22

> <Fold>
2

$$$$