
     RDKit          3D

 50 50  0  0  0  0  0  0  0  0999 V2000
    7.2437   -0.3411    1.0944 C   0  0  0  0  0  0  0  0  0  0  0  0
    6.2346   -1.4816    1.0002 C   0  0  0  0  0  0  0  0  0  0  0  0
    4.7970   -0.9536    1.0485 C   0  0  0  0  0  0  0  0  0  0  0  0
    3.7853   -2.1029    0.9636 C   0  0  0  0  0  0  0  0  0  0  0  0
    2.4522   -1.6004    0.9126 O   0  0  0  0  0  0  0  0  0  0  0  0
    1.8492   -0.8283   -0.1001 C   0  0  0  0  0  0  0  0  0  0  0  0
    0.7700   -0.0295    0.3059 C   0  0  0  0  0  0  0  0  0  0  0  0
    0.0431    0.7456   -0.6109 C   0  0  0  0  0  0  0  0  0  0  0  0
    0.3959    0.7017   -1.9658 C   0  0  0  0  0  0  0  0  0  0  0  0
    1.4589   -0.0929   -2.3918 C   0  0  0  0  0  0  0  0  0  0  0  0
    2.2070   -0.8499   -1.4781 C   0  0  0  0  0  0  0  0  0  0  0  0
    3.2669   -1.6575   -1.9971 N   0  0  0  0  0  0  0  0  0  0  0  0
   -1.0915    1.5770   -0.1529 C   0  0  0  0  0  0  0  0  0  0  0  0
   -1.7607    2.2481   -0.9864 O   0  0  0  0  0  0  0  0  0  0  0  0
   -1.4218    1.6148    1.2079 O   0  0  0  0  0  0  0  0  0  0  0  0
   -2.5991    2.2379    1.7194 C   0  0  0  0  0  0  0  0  0  0  0  0
   -3.7835    1.2691    1.6833 C   0  0  0  0  0  0  0  0  0  0  0  0
   -4.1056    0.8957    0.2863 N   0  0  0  0  0  0  0  0  0  0  0  0
   -4.3920   -0.5445    0.1157 C   0  0  0  0  0  0  0  0  0  0  0  0
   -3.0935   -1.3427    0.0215 C   0  0  0  0  0  0  0  0  0  0  0  0
   -5.1316    1.7723   -0.3268 C   0  0  0  0  0  0  0  0  0  0  0  0
   -6.5666    1.4891    0.1472 C   0  0  0  0  0  0  0  0  0  0  0  0
    7.1140    0.2110    2.0498 H   0  0  0  0  0  0  0  0  0  0  0  0
    7.1125    0.3613    0.2439 H   0  0  0  0  0  0  0  0  0  0  0  0
    8.2745   -0.7527    1.0596 H   0  0  0  0  0  0  0  0  0  0  0  0
    6.4048   -2.1840    1.8451 H   0  0  0  0  0  0  0  0  0  0  0  0
    6.4002   -2.0298    0.0472 H   0  0  0  0  0  0  0  0  0  0  0  0
    4.6340   -0.4039    2.0013 H   0  0  0  0  0  0  0  0  0  0  0  0
    4.6356   -0.2388    0.2141 H   0  0  0  0  0  0  0  0  0  0  0  0
    3.9823   -2.7988    0.1258 H   0  0  0  0  0  0  0  0  0  0  0  0
    3.8792   -2.7115    1.8881 H   0  0  0  0  0  0  0  0  0  0  0  0
    0.4965   -0.0250    1.3540 H   0  0  0  0  0  0  0  0  0  0  0  0
   -0.1526    1.2780   -2.7006 H   0  0  0  0  0  0  0  0  0  0  0  0
    1.7105   -0.1123   -3.4451 H   0  0  0  0  0  0  0  0  0  0  0  0
    4.2400   -1.5460   -1.6445 H   0  0  0  0  0  0  0  0  0  0  0  0
    3.1782   -2.0673   -2.9536 H   0  0  0  0  0  0  0  0  0  0  0  0
   -2.8283    3.1733    1.1642 H   0  0  0  0  0  0  0  0  0  0  0  0
   -2.4105    2.5192    2.7769 H   0  0  0  0  0  0  0  0  0  0  0  0
   -4.6459    1.7457    2.1945 H   0  0  0  0  0  0  0  0  0  0  0  0
   -3.5115    0.3803    2.2946 H   0  0  0  0  0  0  0  0  0  0  0  0
   -5.0159   -0.9297    0.9531 H   0  0  0  0  0  0  0  0  0  0  0  0
   -4.9468   -0.7245   -0.8324 H   0  0  0  0  0  0  0  0  0  0  0  0
   -3.3281   -2.4177   -0.1292 H   0  0  0  0  0  0  0  0  0  0  0  0
   -2.4917   -0.9867   -0.8414 H   0  0  0  0  0  0  0  0  0  0  0  0
   -2.4932   -1.2410    0.9495 H   0  0  0  0  0  0  0  0  0  0  0  0
   -4.8899    2.8380   -0.1221 H   0  0  0  0  0  0  0  0  0  0  0  0
   -5.0930    1.6530   -1.4310 H   0  0  0  0  0  0  0  0  0  0  0  0
   -7.2518    2.2357   -0.3063 H   0  0  0  0  0  0  0  0  0  0  0  0
   -6.6581    1.5655    1.2488 H   0  0  0  0  0  0  0  0  0  0  0  0
   -6.9028    0.4825   -0.1760 H   0  0  0  0  0  0  0  0  0  0  0  0
  1  2  1  0
  2  3  1  0
  3  4  1  0
  4  5  1  0
  5  6  1  0
  6  7  2  0
  7  8  1  0
  8  9  2  0
  9 10  1  0
 10 11  2  0
 11  6  1  0
 11 12  1  0
  8 13  1  0
 13 14  2  0
 13 15  1  0
 15 16  1  0
 16 17  1  0
 17 18  1  0
 18 19  1  0
 19 20  1  0
 18 21  1  0
 21 22  1  0
  1 23  1  0
  1 24  1  0
  1 25  1  0
  2 26  1  0
  2 27  1  0
  3 28  1  0
  3 29  1  0
  4 30  1  0
  4 31  1  0
  7 32  1  0
  9 33  1  0
 10 34  1  0
 12 35  1  0
 12 36  1  0
 16 37  1  0
 16 38  1  0
 17 39  1  0
 17 40  1  0
 19 41  1  0
 19 42  1  0
 20 43  1  0
 20 44  1  0
 20 45  1  0
 21 46  1  0
 21 47  1  0
 22 48  1  0
 22 49  1  0
 22 50  1  0
M  END
> <ID>
HT1564

> <Class>
0.0

> <Clusters>
207

> <Fold>
2

$$$$