
     RDKit          3D

 58 60  0  0  0  0  0  0  0  0999 V2000
    3.8577   -1.2155   -1.7456 C   0  0  0  0  0  0  0  0  0  0  0  0
    2.7576   -0.1404   -1.7242 C   0  0  0  0  0  0  0  0  0  0  0  0
    3.0399    0.9311   -2.7961 C   0  0  0  0  0  0  0  0  0  0  0  0
    2.6811    0.4721   -0.4282 O   0  0  0  0  0  0  0  0  0  0  0  0
    3.7087    1.2220    0.1523 C   0  0  0  0  0  0  0  0  0  0  0  0
    4.6980    0.5899    0.9186 C   0  0  0  0  0  0  0  0  0  0  0  0
    5.7125    1.3462    1.5140 C   0  0  0  0  0  0  0  0  0  0  0  0
    5.7361    2.7386    1.3526 C   0  0  0  0  0  0  0  0  0  0  0  0
    7.0026    3.6890    2.1075 Cl  0  0  0  0  0  0  0  0  0  0  0  0
    4.7400    3.3719    0.5997 C   0  0  0  0  0  0  0  0  0  0  0  0
    3.7262    2.6157    0.0042 C   0  0  0  0  0  0  0  0  0  0  0  0
    1.4286   -0.8011   -1.9972 C   0  0  0  0  0  0  0  0  0  0  0  0
    1.1370   -1.1890   -3.1642 O   0  0  0  0  0  0  0  0  0  0  0  0
    0.5432   -1.0238   -0.9346 O   0  0  0  0  0  0  0  0  0  0  0  0
   -0.7990   -1.4798   -1.1017 C   0  0  0  0  0  0  0  0  0  0  0  0
   -1.6877   -0.3091   -1.5500 C   0  0  0  0  0  0  0  0  0  0  0  0
   -1.6739    0.7241   -0.5630 O   0  0  0  0  0  0  0  0  0  0  0  0
   -0.8631    1.8684   -0.6433 C   0  0  0  0  0  0  0  0  0  0  0  0
   -0.1875    2.1041   -1.6854 O   0  0  0  0  0  0  0  0  0  0  0  0
   -0.7906    2.7905    0.5095 C   0  0  0  0  0  0  0  0  0  0  0  0
   -1.4965    2.5106    1.6918 C   0  0  0  0  0  0  0  0  0  0  0  0
   -1.4155    3.3810    2.7810 C   0  0  0  0  0  0  0  0  0  0  0  0
   -0.6278    4.5286    2.6811 C   0  0  0  0  0  0  0  0  0  0  0  0
    0.0542    4.7900    1.5319 N   0  0  0  0  0  0  0  0  0  0  0  0
   -0.0066    3.9588    0.4566 C   0  0  0  0  0  0  0  0  0  0  0  0
   -1.2743   -2.0771    0.2269 C   0  0  0  0  0  0  0  0  0  0  0  0
   -2.6100   -2.5570    0.1074 O   0  0  0  0  0  0  0  0  0  0  0  0
   -3.2852   -3.1693    1.1717 C   0  0  0  0  0  0  0  0  0  0  0  0
   -2.7029   -3.3320    2.2820 O   0  0  0  0  0  0  0  0  0  0  0  0
   -4.6783   -3.6312    0.9921 C   0  0  0  0  0  0  0  0  0  0  0  0
   -5.3316   -3.4724   -0.2410 C   0  0  0  0  0  0  0  0  0  0  0  0
   -6.6448   -3.9191   -0.4022 C   0  0  0  0  0  0  0  0  0  0  0  0
   -7.2995   -4.5221    0.6728 C   0  0  0  0  0  0  0  0  0  0  0  0
   -6.6600   -4.6684    1.8630 N   0  0  0  0  0  0  0  0  0  0  0  0
   -5.3806   -4.2431    2.0461 C   0  0  0  0  0  0  0  0  0  0  0  0
    4.8609   -0.7561   -1.6124 H   0  0  0  0  0  0  0  0  0  0  0  0
    3.6931   -1.9458   -0.9234 H   0  0  0  0  0  0  0  0  0  0  0  0
    3.8551   -1.7630   -2.7129 H   0  0  0  0  0  0  0  0  0  0  0  0
    3.0450    0.4844   -3.8141 H   0  0  0  0  0  0  0  0  0  0  0  0
    4.0342    1.4011   -2.6291 H   0  0  0  0  0  0  0  0  0  0  0  0
    2.2664    1.7271   -2.7587 H   0  0  0  0  0  0  0  0  0  0  0  0
    4.6755   -0.4847    1.0589 H   0  0  0  0  0  0  0  0  0  0  0  0
    6.4728    0.8517    2.1069 H   0  0  0  0  0  0  0  0  0  0  0  0
    4.7442    4.4482    0.4835 H   0  0  0  0  0  0  0  0  0  0  0  0
    2.9518    3.1099   -0.5682 H   0  0  0  0  0  0  0  0  0  0  0  0
   -0.8336   -2.2820   -1.8723 H   0  0  0  0  0  0  0  0  0  0  0  0
   -1.3385    0.0701   -2.5350 H   0  0  0  0  0  0  0  0  0  0  0  0
   -2.7340   -0.6556   -1.6926 H   0  0  0  0  0  0  0  0  0  0  0  0
   -2.1071    1.6195    1.7785 H   0  0  0  0  0  0  0  0  0  0  0  0
   -1.9584    3.1659    3.6945 H   0  0  0  0  0  0  0  0  0  0  0  0
   -0.5546    5.2112    3.5178 H   0  0  0  0  0  0  0  0  0  0  0  0
    0.5559    4.2118   -0.4347 H   0  0  0  0  0  0  0  0  0  0  0  0
   -1.2201   -1.3122    1.0333 H   0  0  0  0  0  0  0  0  0  0  0  0
   -0.6034   -2.9214    0.5004 H   0  0  0  0  0  0  0  0  0  0  0  0
   -4.8299   -3.0070   -1.0799 H   0  0  0  0  0  0  0  0  0  0  0  0
   -7.1493   -3.8002   -1.3531 H   0  0  0  0  0  0  0  0  0  0  0  0
   -8.3176   -4.8720    0.5609 H   0  0  0  0  0  0  0  0  0  0  0  0
   -4.9165   -4.3825    3.0142 H   0  0  0  0  0  0  0  0  0  0  0  0
  1  2  1  0
  2  3  1  0
  2  4  1  0
  4  5  1  0
  5  6  2  0
  6  7  1  0
  7  8  2  0
  8  9  1  0
  8 10  1  0
 10 11  2  0
 11  5  1  0
  2 12  1  0
 12 13  2  0
 12 14  1  0
 14 15  1  0
 15 16  1  0
 16 17  1  0
 17 18  1  0
 18 19  2  0
 18 20  1  0
 20 21  2  0
 21 22  1  0
 22 23  2  0
 23 24  1  0
 24 25  2  0
 25 20  1  0
 15 26  1  0
 26 27  1  0
 27 28  1  0
 28 29  2  0
 28 30  1  0
 30 31  2  0
 31 32  1  0
 32 33  2  0
 33 34  1  0
 34 35  2  0
 35 30  1  0
  1 36  1  0
  1 37  1  0
  1 38  1  0
  3 39  1  0
  3 40  1  0
  3 41  1  0
  6 42  1  0
  7 43  1  0
 10 44  1  0
 11 45  1  0
 15 46  1  0
 16 47  1  0
 16 48  1  0
 21 49  1  0
 22 50  1  0
 23 51  1  0
 25 52  1  0
 26 53  1  0
 26 54  1  0
 31 55  1  0
 32 56  1  0
 33 57  1  0
 35 58  1  0
M  END
> <ID>
HT0287

> <Class>
0.0

> <Clusters>
98

> <Fold>
2

$$$$