
     RDKit          3D

 27 28  0  0  0  0  0  0  0  0999 V2000
   -4.0148    0.8238    1.7843 C   0  0  0  0  0  0  0  0  0  0  0  0
   -3.2372   -0.2835    1.1598 C   0  0  0  0  0  0  0  0  0  0  0  0
   -3.3597   -1.5819    1.5155 N   0  0  0  0  0  0  0  0  0  0  0  0
   -2.5640   -2.3950    0.8227 N   0  0  0  0  0  0  0  0  0  0  0  0
   -1.8057   -1.7463   -0.0870 C   0  0  0  0  0  0  0  0  0  0  0  0
   -0.8740   -2.4184   -0.9396 N   0  0  0  0  0  0  0  0  0  0  0  0
    0.1258   -1.5724   -2.0747 S   0  0  0  0  0  0  0  0  0  0  0  0
   -0.7537   -0.8699   -3.0712 O   0  0  0  0  0  0  0  0  0  0  0  0
    0.9986   -2.5571   -2.7998 O   0  0  0  0  0  0  0  0  0  0  0  0
    1.1484   -0.4163   -1.2280 C   0  0  0  0  0  0  0  0  0  0  0  0
    1.7003   -0.7513    0.0156 C   0  0  0  0  0  0  0  0  0  0  0  0
    2.5051    0.1656    0.6982 C   0  0  0  0  0  0  0  0  0  0  0  0
    2.7684    1.4251    0.1411 C   0  0  0  0  0  0  0  0  0  0  0  0
    3.5909    2.3635    0.8394 N   0  0  0  0  0  0  0  0  0  0  0  0
    2.2205    1.7576   -1.1060 C   0  0  0  0  0  0  0  0  0  0  0  0
    1.4152    0.8405   -1.7883 C   0  0  0  0  0  0  0  0  0  0  0  0
   -2.1014   -0.0844   -0.0681 S   0  0  0  0  0  0  0  0  0  0  0  0
   -3.3170    1.5525    2.2466 H   0  0  0  0  0  0  0  0  0  0  0  0
   -4.6933    0.4245    2.5673 H   0  0  0  0  0  0  0  0  0  0  0  0
   -4.6195    1.3367    1.0079 H   0  0  0  0  0  0  0  0  0  0  0  0
   -0.7757   -3.4552   -0.8659 H   0  0  0  0  0  0  0  0  0  0  0  0
    1.5053   -1.7203    0.4574 H   0  0  0  0  0  0  0  0  0  0  0  0
    2.9229   -0.1047    1.6598 H   0  0  0  0  0  0  0  0  0  0  0  0
    4.0036    2.1248    1.7687 H   0  0  0  0  0  0  0  0  0  0  0  0
    3.7930    3.3039    0.4324 H   0  0  0  0  0  0  0  0  0  0  0  0
    2.4174    2.7260   -1.5484 H   0  0  0  0  0  0  0  0  0  0  0  0
    1.0006    1.1122   -2.7505 H   0  0  0  0  0  0  0  0  0  0  0  0
  1  2  1  0
  2  3  2  0
  3  4  1  0
  4  5  2  0
  5  6  1  0
  6  7  1  0
  7  8  2  0
  7  9  2  0
  7 10  1  0
 10 11  2  0
 11 12  1  0
 12 13  2  0
 13 14  1  0
 13 15  1  0
 15 16  2  0
 16 10  1  0
  5 17  1  0
 17  2  1  0
  1 18  1  0
  1 19  1  0
  1 20  1  0
  6 21  1  0
 11 22  1  0
 12 23  1  0
 14 24  1  0
 14 25  1  0
 15 26  1  0
 16 27  1  0
M  END
> <ID>
HT1944

> <Class>
0.0

> <Clusters>
220

> <Fold>
2

$$$$