
     RDKit          3D

 27 29  0  0  0  0  0  0  0  0999 V2000
   -0.0358    2.3308    1.1051 O   0  0  0  0  0  0  0  0  0  0  0  0
   -0.4429    1.4439    0.3086 C   0  0  0  0  0  0  0  0  0  0  0  0
    0.3300    0.9356   -0.8790 C   0  0  0  0  0  0  0  0  0  0  0  0
   -0.6453   -0.0566   -1.4540 C   0  0  0  0  0  0  0  0  0  0  0  0
   -0.4504   -0.7339   -2.4979 O   0  0  0  0  0  0  0  0  0  0  0  0
   -1.8546   -0.1104   -0.6433 C   0  0  0  0  0  0  0  0  0  0  0  0
   -2.9985   -0.8927   -0.8056 C   0  0  0  0  0  0  0  0  0  0  0  0
   -4.0377   -0.7523    0.1300 C   0  0  0  0  0  0  0  0  0  0  0  0
   -3.9151    0.1586    1.1994 C   0  0  0  0  0  0  0  0  0  0  0  0
   -2.7524    0.9355    1.3404 C   0  0  0  0  0  0  0  0  0  0  0  0
   -1.7352    0.7774    0.3985 C   0  0  0  0  0  0  0  0  0  0  0  0
    1.6260    0.2741   -0.4648 C   0  0  0  0  0  0  0  0  0  0  0  0
    2.8454    0.7309   -0.9943 C   0  0  0  0  0  0  0  0  0  0  0  0
    4.0497    0.1273   -0.6189 C   0  0  0  0  0  0  0  0  0  0  0  0
    4.0487   -0.9363    0.2870 C   0  0  0  0  0  0  0  0  0  0  0  0
    2.8432   -1.3990    0.8198 C   0  0  0  0  0  0  0  0  0  0  0  0
    1.6364   -0.7993    0.4480 C   0  0  0  0  0  0  0  0  0  0  0  0
    0.4935    1.7628   -1.6037 H   0  0  0  0  0  0  0  0  0  0  0  0
   -3.0848   -1.5899   -1.6289 H   0  0  0  0  0  0  0  0  0  0  0  0
   -4.9365   -1.3466    0.0292 H   0  0  0  0  0  0  0  0  0  0  0  0
   -4.7202    0.2602    1.9155 H   0  0  0  0  0  0  0  0  0  0  0  0
   -2.6504    1.6364    2.1587 H   0  0  0  0  0  0  0  0  0  0  0  0
    2.8658    1.5541   -1.6976 H   0  0  0  0  0  0  0  0  0  0  0  0
    4.9846    0.4847   -1.0309 H   0  0  0  0  0  0  0  0  0  0  0  0
    4.9821   -1.4018    0.5760 H   0  0  0  0  0  0  0  0  0  0  0  0
    2.8435   -2.2231    1.5215 H   0  0  0  0  0  0  0  0  0  0  0  0
    0.7109   -1.1703    0.8705 H   0  0  0  0  0  0  0  0  0  0  0  0
  1  2  2  0
  2  3  1  0
  3  4  1  0
  4  5  2  0
  4  6  1  0
  6  7  2  0
  7  8  1  0
  8  9  2  0
  9 10  1  0
 10 11  2  0
 11  2  1  0
 11  6  1  0
  3 12  1  0
 12 13  2  0
 13 14  1  0
 14 15  2  0
 15 16  1  0
 16 17  2  0
 17 12  1  0
  3 18  1  0
  7 19  1  0
  8 20  1  0
  9 21  1  0
 10 22  1  0
 13 23  1  0
 14 24  1  0
 15 25  1  0
 16 26  1  0
 17 27  1  0
M  END
> <ID>
HT1648

> <Class>
0.0

> <Clusters>
106

> <Fold>
2

$$$$