
     RDKit          3D

 68 72  0  0  0  0  0  0  0  0999 V2000
    0.1675    3.2001    1.3136 O   0  0  0  0  0  0  0  0  0  0  0  0
    0.0749    2.1831    0.3437 C   0  0  0  0  0  0  0  0  0  0  0  0
   -0.8184    2.6614   -0.8187 C   0  0  0  0  0  0  0  0  0  0  0  0
   -2.1632    2.8547   -0.3746 O   0  0  0  0  0  0  0  0  0  0  0  0
   -3.2706    2.1771   -0.9003 C   0  0  0  0  0  0  0  0  0  0  0  0
   -3.1272    1.3524   -1.8463 O   0  0  0  0  0  0  0  0  0  0  0  0
   -4.6124    2.4126   -0.3295 C   0  0  0  0  0  0  0  0  0  0  0  0
   -5.7269    1.6858   -0.7797 C   0  0  0  0  0  0  0  0  0  0  0  0
   -6.9855    1.9221   -0.2263 C   0  0  0  0  0  0  0  0  0  0  0  0
   -7.1257    2.8845    0.7722 C   0  0  0  0  0  0  0  0  0  0  0  0
   -6.0415    3.5829    1.2001 N   0  0  0  0  0  0  0  0  0  0  0  0
   -4.8032    3.3711    0.6801 C   0  0  0  0  0  0  0  0  0  0  0  0
    1.3701    1.9495   -0.1607 O   0  0  0  0  0  0  0  0  0  0  0  0
    1.9307    0.8654    0.5497 C   0  0  0  0  0  0  0  0  0  0  0  0
    3.1602    1.3420    1.3368 C   0  0  0  0  0  0  0  0  0  0  0  0
    4.1410    1.8913    0.4589 O   0  0  0  0  0  0  0  0  0  0  0  0
    4.9548    1.1157   -0.3754 C   0  0  0  0  0  0  0  0  0  0  0  0
    4.9042   -0.1427   -0.3147 O   0  0  0  0  0  0  0  0  0  0  0  0
    5.8839    1.7777   -1.3174 C   0  0  0  0  0  0  0  0  0  0  0  0
    5.9875    3.1775   -1.3537 C   0  0  0  0  0  0  0  0  0  0  0  0
    6.8698    3.7928   -2.2445 C   0  0  0  0  0  0  0  0  0  0  0  0
    7.6419    3.0032   -3.0963 C   0  0  0  0  0  0  0  0  0  0  0  0
    7.5308    1.6492   -3.0566 N   0  0  0  0  0  0  0  0  0  0  0  0
    6.6810    1.0257   -2.1985 C   0  0  0  0  0  0  0  0  0  0  0  0
    0.8720    0.2480    1.4665 C   0  0  0  0  0  0  0  0  0  0  0  0
    0.8503   -1.1731    1.3096 O   0  0  0  0  0  0  0  0  0  0  0  0
    1.0415   -2.0933    2.3447 C   0  0  0  0  0  0  0  0  0  0  0  0
    1.3848   -1.6997    3.4942 O   0  0  0  0  0  0  0  0  0  0  0  0
    0.8309   -3.5333    2.0807 C   0  0  0  0  0  0  0  0  0  0  0  0
    1.0363   -4.4935    3.0853 C   0  0  0  0  0  0  0  0  0  0  0  0
    0.8196   -5.8464    2.8164 C   0  0  0  0  0  0  0  0  0  0  0  0
    0.3953   -6.2319    1.5448 C   0  0  0  0  0  0  0  0  0  0  0  0
    0.1997   -5.2954    0.5802 N   0  0  0  0  0  0  0  0  0  0  0  0
    0.4066   -3.9722    0.8139 C   0  0  0  0  0  0  0  0  0  0  0  0
   -0.4175    0.8750    0.9863 C   0  0  0  0  0  0  0  0  0  0  0  0
   -1.0609    0.0407    0.0191 O   0  0  0  0  0  0  0  0  0  0  0  0
   -1.9003   -1.0300    0.3525 C   0  0  0  0  0  0  0  0  0  0  0  0
   -2.2049   -1.2452    1.5568 O   0  0  0  0  0  0  0  0  0  0  0  0
   -2.4073   -1.9191   -0.7118 C   0  0  0  0  0  0  0  0  0  0  0  0
   -3.2435   -3.0091   -0.4116 C   0  0  0  0  0  0  0  0  0  0  0  0
   -3.6949   -3.8488   -1.4321 C   0  0  0  0  0  0  0  0  0  0  0  0
   -3.3070   -3.5946   -2.7484 C   0  0  0  0  0  0  0  0  0  0  0  0
   -2.4998   -2.5374   -3.0286 N   0  0  0  0  0  0  0  0  0  0  0  0
   -2.0469   -1.7037   -2.0524 C   0  0  0  0  0  0  0  0  0  0  0  0
   -0.7407    3.3491    1.6896 H   0  0  0  0  0  0  0  0  0  0  0  0
   -0.7594    1.9372   -1.6605 H   0  0  0  0  0  0  0  0  0  0  0  0
   -0.4318    3.6311   -1.2008 H   0  0  0  0  0  0  0  0  0  0  0  0
   -5.6278    0.9352   -1.5536 H   0  0  0  0  0  0  0  0  0  0  0  0
   -7.8450    1.3621   -0.5681 H   0  0  0  0  0  0  0  0  0  0  0  0
   -8.0962    3.0778    1.2091 H   0  0  0  0  0  0  0  0  0  0  0  0
   -3.9723    3.9517    1.0589 H   0  0  0  0  0  0  0  0  0  0  0  0
    2.2541    0.1074   -0.1971 H   0  0  0  0  0  0  0  0  0  0  0  0
    2.8518    2.1352    2.0512 H   0  0  0  0  0  0  0  0  0  0  0  0
    3.5989    0.5054    1.9228 H   0  0  0  0  0  0  0  0  0  0  0  0
    5.3879    3.7937   -0.6943 H   0  0  0  0  0  0  0  0  0  0  0  0
    6.9548    4.8722   -2.2757 H   0  0  0  0  0  0  0  0  0  0  0  0
    8.3318    3.4654   -3.7881 H   0  0  0  0  0  0  0  0  0  0  0  0
    6.6290   -0.0552   -2.2077 H   0  0  0  0  0  0  0  0  0  0  0  0
    1.0341    0.5425    2.5291 H   0  0  0  0  0  0  0  0  0  0  0  0
    1.3598   -4.2009    4.0754 H   0  0  0  0  0  0  0  0  0  0  0  0
    0.9738   -6.5894    3.5876 H   0  0  0  0  0  0  0  0  0  0  0  0
    0.2186   -7.2761    1.3233 H   0  0  0  0  0  0  0  0  0  0  0  0
    0.2375   -3.2679    0.0107 H   0  0  0  0  0  0  0  0  0  0  0  0
   -1.1115    1.0808    1.8318 H   0  0  0  0  0  0  0  0  0  0  0  0
   -3.5454   -3.2153    0.6077 H   0  0  0  0  0  0  0  0  0  0  0  0
   -4.3355   -4.6924   -1.2059 H   0  0  0  0  0  0  0  0  0  0  0  0
   -3.6453   -4.2417   -3.5463 H   0  0  0  0  0  0  0  0  0  0  0  0
   -1.3987   -0.8800   -2.3266 H   0  0  0  0  0  0  0  0  0  0  0  0
  1  2  1  0
  2  3  1  0
  3  4  1  0
  4  5  1  0
  5  6  2  0
  5  7  1  0
  7  8  2  0
  8  9  1  0
  9 10  2  0
 10 11  1  0
 11 12  2  0
 12  7  1  0
  2 13  1  0
 13 14  1  0
 14 15  1  0
 15 16  1  0
 16 17  1  0
 17 18  2  0
 17 19  1  0
 19 20  2  0
 20 21  1  0
 21 22  2  0
 22 23  1  0
 23 24  2  0
 24 19  1  0
 14 25  1  0
 25 26  1  0
 26 27  1  0
 27 28  2  0
 27 29  1  0
 29 30  2  0
 30 31  1  0
 31 32  2  0
 32 33  1  0
 33 34  2  0
 34 29  1  0
 25 35  1  0
 35  2  1  0
 35 36  1  0
 36 37  1  0
 37 38  2  0
 37 39  1  0
 39 40  2  0
 40 41  1  0
 41 42  2  0
 42 43  1  0
 43 44  2  0
 44 39  1  0
  1 45  1  0
  3 46  1  0
  3 47  1  0
  8 48  1  0
  9 49  1  0
 10 50  1  0
 12 51  1  0
 14 52  1  0
 15 53  1  0
 15 54  1  0
 20 55  1  0
 21 56  1  0
 22 57  1  0
 24 58  1  0
 25 59  1  0
 30 60  1  0
 31 61  1  0
 32 62  1  0
 34 63  1  0
 35 64  1  0
 40 65  1  0
 41 66  1  0
 42 67  1  0
 44 68  1  0
M  END
> <ID>
HT3948

> <Class>
0.0

> <Clusters>
98

> <Fold>
2

$$$$