
     RDKit          3D

 74 76  0  0  0  0  0  0  0  0999 V2000
   -2.1813   -0.2172   -3.0740 C   0  0  0  0  0  0  0  0  0  0  0  0
   -2.7092   -0.1413   -1.6290 C   0  0  2  0  0  0  0  0  0  0  0  0
   -3.4363    1.1755   -1.4427 C   0  0  0  0  0  0  0  0  0  0  0  0
   -4.7533    1.3483   -1.2020 C   0  0  0  0  0  0  0  0  0  0  0  0
   -5.8098    0.2605   -1.0709 C   0  0  2  0  0  0  0  0  0  0  0  0
   -7.0924    0.7405   -1.7761 C   0  0  0  0  0  0  0  0  0  0  0  0
   -6.0326   -0.1580    0.4272 C   0  0  0  0  0  0  0  0  0  0  0  0
   -6.5149    1.0224    1.2947 C   0  0  0  0  0  0  0  0  0  0  0  0
   -7.0660   -1.3036    0.5419 C   0  0  0  0  0  0  0  0  0  0  0  0
   -4.8123   -0.5996    0.9723 O   0  0  0  0  0  0  0  0  0  0  0  0
   -1.6782   -0.3976   -0.4739 C   0  0  1  0  0  0  0  0  0  0  0  0
   -1.0801   -1.8303   -0.4874 C   0  0  0  0  0  0  0  0  0  0  0  0
    0.3513   -1.7181    0.0502 C   0  0  0  0  0  0  0  0  0  0  0  0
    0.3873   -0.3426    0.7047 C   0  0  1  0  0  0  0  0  0  0  0  0
    1.6985    0.3125    1.0856 C   0  0  0  0  0  0  0  0  0  0  0  0
    2.8732   -0.3494    0.9984 C   0  0  0  0  0  0  0  0  0  0  0  0
    4.1638    0.1530    1.5337 C   0  0  0  0  0  0  0  0  0  0  0  0
    5.3555   -0.4114    1.2543 C   0  0  0  0  0  0  0  0  0  0  0  0
    6.6200    0.1765    1.8361 C   0  0  0  0  0  0  0  0  0  0  0  0
    7.6939    0.3199    0.7403 C   0  0  1  0  0  0  0  0  0  0  0  0
    8.9178    0.6846    1.3253 O   0  0  0  0  0  0  0  0  0  0  0  0
    7.8887   -0.9684   -0.1066 C   0  0  0  0  0  0  0  0  0  0  0  0
    6.9366   -2.1210    0.2738 C   0  0  2  0  0  0  0  0  0  0  0  0
    7.0161   -3.1474   -0.6808 O   0  0  0  0  0  0  0  0  0  0  0  0
    5.4836   -1.6310    0.3651 C   0  0  0  0  0  0  0  0  0  0  0  0
    1.5455    1.6791    1.7397 C   0  0  0  0  0  0  0  0  0  0  0  0
    0.4870    2.5722    1.0486 C   0  0  0  0  0  0  0  0  0  0  0  0
   -0.7966    1.8293    0.6119 C   0  0  0  0  0  0  0  0  0  0  0  0
   -0.4659    0.5518   -0.2074 C   0  0  2  0  0  0  0  0  0  0  0  0
    0.2893    0.9248   -1.5148 C   0  0  0  0  0  0  0  0  0  0  0  0
   -3.0398   -0.3638   -3.7641 H   0  0  0  0  0  0  0  0  0  0  0  0
   -1.6842    0.7205   -3.3894 H   0  0  0  0  0  0  0  0  0  0  0  0
   -1.4888   -1.0646   -3.2333 H   0  0  0  0  0  0  0  0  0  0  0  0
   -3.4213   -0.9826   -1.5465 H   0  0  0  0  0  0  0  0  0  0  0  0
   -2.8491    2.0764   -1.5738 H   0  0  0  0  0  0  0  0  0  0  0  0
   -5.0943    2.3755   -1.0953 H   0  0  0  0  0  0  0  0  0  0  0  0
   -5.5013   -0.6368   -1.6433 H   0  0  0  0  0  0  0  0  0  0  0  0
   -7.8618   -0.0577   -1.7955 H   0  0  0  0  0  0  0  0  0  0  0  0
   -7.5122    1.6454   -1.2915 H   0  0  0  0  0  0  0  0  0  0  0  0
   -6.8640    0.9964   -2.8330 H   0  0  0  0  0  0  0  0  0  0  0  0
   -7.5167    1.3801    0.9789 H   0  0  0  0  0  0  0  0  0  0  0  0
   -6.5901    0.7053    2.3576 H   0  0  0  0  0  0  0  0  0  0  0  0
   -5.7981    1.8692    1.2497 H   0  0  0  0  0  0  0  0  0  0  0  0
   -6.8050   -2.1363   -0.1467 H   0  0  0  0  0  0  0  0  0  0  0  0
   -8.0929   -0.9529    0.3049 H   0  0  0  0  0  0  0  0  0  0  0  0
   -7.0775   -1.7050    1.5785 H   0  0  0  0  0  0  0  0  0  0  0  0
   -4.5554   -1.4396    0.5096 H   0  0  0  0  0  0  0  0  0  0  0  0
   -2.2909   -0.3547    0.4555 H   0  0  0  0  0  0  0  0  0  0  0  0
   -1.6809   -2.4957    0.1717 H   0  0  0  0  0  0  0  0  0  0  0  0
   -1.0607   -2.2920   -1.4934 H   0  0  0  0  0  0  0  0  0  0  0  0
    1.0708   -1.7760   -0.7951 H   0  0  0  0  0  0  0  0  0  0  0  0
    0.5733   -2.5229    0.7842 H   0  0  0  0  0  0  0  0  0  0  0  0
   -0.1503   -0.4736    1.6760 H   0  0  0  0  0  0  0  0  0  0  0  0
    2.8772   -1.3256    0.5400 H   0  0  0  0  0  0  0  0  0  0  0  0
    4.1559    0.9983    2.2059 H   0  0  0  0  0  0  0  0  0  0  0  0
    6.9899   -0.4928    2.6431 H   0  0  0  0  0  0  0  0  0  0  0  0
    6.4368    1.1763    2.2888 H   0  0  0  0  0  0  0  0  0  0  0  0
    7.3651    1.1308    0.0471 H   0  0  0  0  0  0  0  0  0  0  0  0
    8.8376    1.6379    1.5915 H   0  0  0  0  0  0  0  0  0  0  0  0
    7.7352   -0.7185   -1.1800 H   0  0  0  0  0  0  0  0  0  0  0  0
    8.9349   -1.3344   -0.0118 H   0  0  0  0  0  0  0  0  0  0  0  0
    7.2335   -2.5230    1.2715 H   0  0  0  0  0  0  0  0  0  0  0  0
    7.8896   -3.5994   -0.5422 H   0  0  0  0  0  0  0  0  0  0  0  0
    4.8676   -2.4596    0.7767 H   0  0  0  0  0  0  0  0  0  0  0  0
    5.1133   -1.3790   -0.6528 H   0  0  0  0  0  0  0  0  0  0  0  0
    1.2551    1.5263    2.8014 H   0  0  0  0  0  0  0  0  0  0  0  0
    2.4910    2.2554    1.7224 H   0  0  0  0  0  0  0  0  0  0  0  0
    0.2049    3.3931    1.7426 H   0  0  0  0  0  0  0  0  0  0  0  0
    0.9465    3.0588    0.1614 H   0  0  0  0  0  0  0  0  0  0  0  0
   -1.4104    2.5332    0.0190 H   0  0  0  0  0  0  0  0  0  0  0  0
   -1.3849    1.5677    1.5194 H   0  0  0  0  0  0  0  0  0  0  0  0
   -0.2403    1.7420   -2.0451 H   0  0  0  0  0  0  0  0  0  0  0  0
    1.3156    1.2930   -1.3133 H   0  0  0  0  0  0  0  0  0  0  0  0
    0.3979    0.0521   -2.1895 H   0  0  0  0  0  0  0  0  0  0  0  0
  2  1  1  0
  2  3  1  0
  3  4  2  3
  4  5  1  0
  5  6  1  0
  5  7  1  0
  7  8  1  0
  7  9  1  0
  7 10  1  0
 11  2  1  0
 11 12  1  0
 12 13  1  0
 14 13  1  0
 14 15  1  0
 15 16  2  3
 16 17  1  0
 17 18  2  3
 18 19  1  0
 19 20  1  0
 20 21  1  0
 20 22  1  0
 22 23  1  0
 23 24  1  0
 23 25  1  0
 25 18  1  0
 15 26  1  0
 26 27  1  0
 27 28  1  0
 28 29  1  0
 29 11  1  0
 29 14  1  0
 29 30  1  6
  1 31  1  0
  1 32  1  0
  1 33  1  0
  2 34  1  6
  3 35  1  0
  4 36  1  0
  5 37  1  6
  6 38  1  0
  6 39  1  0
  6 40  1  0
  8 41  1  0
  8 42  1  0
  8 43  1  0
  9 44  1  0
  9 45  1  0
  9 46  1  0
 10 47  1  0
 11 48  1  1
 12 49  1  0
 12 50  1  0
 13 51  1  0
 13 52  1  0
 14 53  1  1
 16 54  1  0
 17 55  1  0
 19 56  1  0
 19 57  1  0
 20 58  1  6
 21 59  1  0
 22 60  1  0
 22 61  1  0
 23 62  1  1
 24 63  1  0
 25 64  1  0
 25 65  1  0
 26 66  1  0
 26 67  1  0
 27 68  1  0
 27 69  1  0
 28 70  1  0
 28 71  1  0
 30 72  1  0
 30 73  1  0
 30 74  1  0
M  END
> <ID>
HT1596

> <Class>
0.0

> <Clusters>
85

> <Fold>
2

$$$$