
     RDKit          3D

 32 33  0  0  0  0  0  0  0  0999 V2000
    1.5442   -2.7523    1.2033 O   0  0  0  0  0  0  0  0  0  0  0  0
    1.9841   -1.6940    0.6786 C   0  0  0  0  0  0  0  0  0  0  0  0
    3.2544   -1.2819    0.9457 N   0  0  0  0  0  0  0  0  0  0  0  0
    1.1722   -0.9322   -0.1707 C   0  0  0  0  0  0  0  0  0  0  0  0
    1.7060    0.2289   -0.7355 C   0  0  0  0  0  0  0  0  0  0  0  0
   -0.1841   -1.2999   -0.4680 N   0  0  0  0  0  0  0  0  0  0  0  0
    0.9054    1.0083   -1.6306 N   0  0  0  0  0  0  0  0  0  0  0  0
    2.9743    0.6092   -0.4354 N   0  0  0  0  0  0  0  0  0  0  0  0
   -1.1017   -0.3360   -1.0884 C   0  0  2  0  0  0  0  0  0  0  0  0
   -0.3432    0.4659   -2.1694 C   0  0  0  0  0  0  0  0  0  0  0  0
    3.7486   -0.1346    0.3990 C   0  0  0  0  0  0  0  0  0  0  0  0
   -1.7193    0.6008   -0.0168 C   0  0  2  0  0  0  0  0  0  0  0  0
    5.0793    0.2896    0.6945 N   0  0  0  0  0  0  0  0  0  0  0  0
   -2.3877   -0.1672    1.1566 C   0  0  2  0  0  0  0  0  0  0  0  0
   -2.6596    1.4472   -0.6328 O   0  0  0  0  0  0  0  0  0  0  0  0
   -3.5836   -1.0291    0.7200 C   0  0  0  0  0  0  0  0  0  0  0  0
   -2.7740    0.7295    2.1689 O   0  0  0  0  0  0  0  0  0  0  0  0
    3.8558   -1.8515    1.5835 H   0  0  0  0  0  0  0  0  0  0  0  0
   -0.5399   -2.2503   -0.2186 H   0  0  0  0  0  0  0  0  0  0  0  0
    1.2462    1.9404   -1.9567 H   0  0  0  0  0  0  0  0  0  0  0  0
   -1.9202   -0.8920   -1.5951 H   0  0  0  0  0  0  0  0  0  0  0  0
   -0.0977   -0.2148   -3.0130 H   0  0  0  0  0  0  0  0  0  0  0  0
   -0.9706    1.2888   -2.5739 H   0  0  0  0  0  0  0  0  0  0  0  0
   -0.8892    1.2086    0.4178 H   0  0  0  0  0  0  0  0  0  0  0  0
    5.6887   -0.2694    1.3319 H   0  0  0  0  0  0  0  0  0  0  0  0
    5.4580    1.1674    0.2745 H   0  0  0  0  0  0  0  0  0  0  0  0
   -1.6350   -0.8481    1.6083 H   0  0  0  0  0  0  0  0  0  0  0  0
   -2.6214    2.3217   -0.1644 H   0  0  0  0  0  0  0  0  0  0  0  0
   -4.3355   -0.4189    0.1764 H   0  0  0  0  0  0  0  0  0  0  0  0
   -3.2492   -1.8627    0.0685 H   0  0  0  0  0  0  0  0  0  0  0  0
   -4.0693   -1.4727    1.6149 H   0  0  0  0  0  0  0  0  0  0  0  0
   -3.5362    1.2660    1.8267 H   0  0  0  0  0  0  0  0  0  0  0  0
  1  2  2  0
  2  3  1  0
  2  4  1  0
  4  5  2  0
  4  6  1  0
  7  5  1  0
  5  8  1  0
  6  9  1  0
 10  7  1  0
  8 11  2  0
  9 12  1  0
  9 10  1  0
 11 13  1  0
 11  3  1  0
 14 12  1  0
 12 15  1  0
 16 14  1  0
 14 17  1  0
  3 18  1  0
  6 19  1  0
  7 20  1  0
  9 21  1  6
 10 22  1  0
 10 23  1  0
 12 24  1  1
 13 25  1  0
 13 26  1  0
 14 27  1  1
 15 28  1  0
 16 29  1  0
 16 30  1  0
 16 31  1  0
 17 32  1  0
M  END
> <ID>
HT1867

> <Class>
0.0

> <Clusters>
116

> <Fold>
2

$$$$