
     RDKit          3D

 29 28  0  0  0  0  0  0  0  0999 V2000
    5.3170    1.1306   -0.0295 O   0  0  0  0  0  0  0  0  0  0  0  0
    4.5688    0.6304   -1.0911 C   0  0  0  0  0  0  0  0  0  0  0  0
    4.6996    1.1395   -2.2353 O   0  0  0  0  0  0  0  0  0  0  0  0
    3.5796   -0.4742   -0.8725 C   0  0  0  0  0  0  0  0  0  0  0  0
    2.2508    0.0896   -0.3604 C   0  0  0  0  0  0  0  0  0  0  0  0
    1.2265   -1.0339   -0.1399 C   0  0  0  0  0  0  0  0  0  0  0  0
   -0.0774   -0.5320    0.5014 C   0  0  0  0  0  0  0  0  0  0  0  0
   -0.9489    0.2690   -0.4816 C   0  0  0  0  0  0  0  0  0  0  0  0
   -2.2542    0.7676    0.1594 C   0  0  0  0  0  0  0  0  0  0  0  0
   -3.2717   -0.3597    0.3866 C   0  0  0  0  0  0  0  0  0  0  0  0
   -4.5780    0.1924    0.8665 C   0  0  0  0  0  0  0  0  0  0  0  0
   -4.6462    0.7785    1.9803 O   0  0  0  0  0  0  0  0  0  0  0  0
   -5.7208    0.0491    0.0859 O   0  0  0  0  0  0  0  0  0  0  0  0
    5.2168    0.7532    0.9053 H   0  0  0  0  0  0  0  0  0  0  0  0
    3.4148   -1.0184   -1.8283 H   0  0  0  0  0  0  0  0  0  0  0  0
    3.9961   -1.1929   -0.1339 H   0  0  0  0  0  0  0  0  0  0  0  0
    1.8598    0.8146   -1.1056 H   0  0  0  0  0  0  0  0  0  0  0  0
    2.4255    0.6251    0.5990 H   0  0  0  0  0  0  0  0  0  0  0  0
    1.0025   -1.5384   -1.1055 H   0  0  0  0  0  0  0  0  0  0  0  0
    1.6714   -1.7933    0.5403 H   0  0  0  0  0  0  0  0  0  0  0  0
    0.1559    0.0866    1.3956 H   0  0  0  0  0  0  0  0  0  0  0  0
   -0.6426   -1.4228    0.8468 H   0  0  0  0  0  0  0  0  0  0  0  0
   -1.1807   -0.3489   -1.3767 H   0  0  0  0  0  0  0  0  0  0  0  0
   -0.3854    1.1614   -0.8255 H   0  0  0  0  0  0  0  0  0  0  0  0
   -2.7053    1.5213   -0.5235 H   0  0  0  0  0  0  0  0  0  0  0  0
   -2.0293    1.2780    1.1219 H   0  0  0  0  0  0  0  0  0  0  0  0
   -3.4372   -0.9099   -0.5650 H   0  0  0  0  0  0  0  0  0  0  0  0
   -2.8951   -1.0770    1.1451 H   0  0  0  0  0  0  0  0  0  0  0  0
   -6.6124    0.4146    0.3983 H   0  0  0  0  0  0  0  0  0  0  0  0
  1  2  1  0
  2  3  2  0
  2  4  1  0
  4  5  1  0
  5  6  1  0
  6  7  1  0
  7  8  1  0
  8  9  1  0
  9 10  1  0
 10 11  1  0
 11 12  2  0
 11 13  1  0
  1 14  1  0
  4 15  1  0
  4 16  1  0
  5 17  1  0
  5 18  1  0
  6 19  1  0
  6 20  1  0
  7 21  1  0
  7 22  1  0
  8 23  1  0
  8 24  1  0
  9 25  1  0
  9 26  1  0
 10 27  1  0
 10 28  1  0
 13 29  1  0
M  END
> <ID>
HT0214

> <Class>
0.0

> <Clusters>
252

> <Fold>
2

$$$$