
     RDKit          3D

 40 41  0  0  0  0  0  0  0  0999 V2000
    3.3850   -0.1642    2.0471 C   0  0  0  0  0  0  0  0  0  0  0  0
    3.2393   -0.7899    0.7206 N   0  0  0  0  0  0  0  0  0  0  0  0
    4.5429   -0.7896    0.0367 C   0  0  0  0  0  0  0  0  0  0  0  0
    2.2360   -0.0740   -0.0971 C   0  0  0  0  0  0  0  0  0  0  0  0
    0.8154   -0.5230    0.2663 C   0  0  0  0  0  0  0  0  0  0  0  0
   -0.1592    0.0526   -0.6716 N   0  0  0  0  0  0  0  0  0  0  0  0
   -1.0116   -0.8504   -1.4582 C   0  0  0  0  0  0  0  0  0  0  0  0
   -2.0610   -1.4722   -0.5758 C   0  0  0  0  0  0  0  0  0  0  0  0
   -3.0855   -0.6775   -0.0347 C   0  0  0  0  0  0  0  0  0  0  0  0
   -4.0563   -1.2479    0.7942 C   0  0  0  0  0  0  0  0  0  0  0  0
   -4.0117   -2.6134    1.0881 C   0  0  0  0  0  0  0  0  0  0  0  0
   -2.9962   -3.4109    0.5534 C   0  0  0  0  0  0  0  0  0  0  0  0
   -2.0231   -2.8446   -0.2762 C   0  0  0  0  0  0  0  0  0  0  0  0
   -0.4063    1.4733   -0.6526 C   0  0  0  0  0  0  0  0  0  0  0  0
   -0.6293    2.1874   -1.8421 C   0  0  0  0  0  0  0  0  0  0  0  0
   -0.8535    3.5644   -1.7851 C   0  0  0  0  0  0  0  0  0  0  0  0
   -0.8454    4.2202   -0.5537 C   0  0  0  0  0  0  0  0  0  0  0  0
   -0.6049    3.4855    0.6082 C   0  0  0  0  0  0  0  0  0  0  0  0
   -0.3901    2.1452    0.5336 N   0  0  0  0  0  0  0  0  0  0  0  0
    3.7103    0.8968    1.9627 H   0  0  0  0  0  0  0  0  0  0  0  0
    2.4283   -0.2066    2.6068 H   0  0  0  0  0  0  0  0  0  0  0  0
    4.1324   -0.7207    2.6530 H   0  0  0  0  0  0  0  0  0  0  0  0
    4.8935    0.2483   -0.1614 H   0  0  0  0  0  0  0  0  0  0  0  0
    4.4688   -1.3386   -0.9266 H   0  0  0  0  0  0  0  0  0  0  0  0
    5.3027   -1.3189    0.6516 H   0  0  0  0  0  0  0  0  0  0  0  0
    2.3338    1.0296    0.0185 H   0  0  0  0  0  0  0  0  0  0  0  0
    2.3812   -0.3048   -1.1773 H   0  0  0  0  0  0  0  0  0  0  0  0
    0.7761   -1.6345    0.2338 H   0  0  0  0  0  0  0  0  0  0  0  0
    0.5561   -0.2153    1.3006 H   0  0  0  0  0  0  0  0  0  0  0  0
   -1.5191   -0.3167   -2.2878 H   0  0  0  0  0  0  0  0  0  0  0  0
   -0.3759   -1.6308   -1.9312 H   0  0  0  0  0  0  0  0  0  0  0  0
   -3.1318    0.3817   -0.2552 H   0  0  0  0  0  0  0  0  0  0  0  0
   -4.8431   -0.6311    1.2089 H   0  0  0  0  0  0  0  0  0  0  0  0
   -4.7636   -3.0534    1.7304 H   0  0  0  0  0  0  0  0  0  0  0  0
   -2.9620   -4.4681    0.7829 H   0  0  0  0  0  0  0  0  0  0  0  0
   -1.2398   -3.4746   -0.6789 H   0  0  0  0  0  0  0  0  0  0  0  0
   -0.6039    1.6946   -2.8048 H   0  0  0  0  0  0  0  0  0  0  0  0
   -1.0250    4.1239   -2.6956 H   0  0  0  0  0  0  0  0  0  0  0  0
   -1.0159    5.2877   -0.5010 H   0  0  0  0  0  0  0  0  0  0  0  0
   -0.5875    3.9804    1.5699 H   0  0  0  0  0  0  0  0  0  0  0  0
  1  2  1  0
  2  3  1  0
  2  4  1  0
  4  5  1  0
  5  6  1  0
  6  7  1  0
  7  8  1  0
  8  9  2  0
  9 10  1  0
 10 11  2  0
 11 12  1  0
 12 13  2  0
 13  8  1  0
  6 14  1  0
 14 15  2  0
 15 16  1  0
 16 17  2  0
 17 18  1  0
 18 19  2  0
 19 14  1  0
  1 20  1  0
  1 21  1  0
  1 22  1  0
  3 23  1  0
  3 24  1  0
  3 25  1  0
  4 26  1  0
  4 27  1  0
  5 28  1  0
  5 29  1  0
  7 30  1  0
  7 31  1  0
  9 32  1  0
 10 33  1  0
 11 34  1  0
 12 35  1  0
 13 36  1  0
 15 37  1  0
 16 38  1  0
 17 39  1  0
 18 40  1  0
M  END
> <ID>
HT2132

> <Class>
0.0

> <Clusters>
51

> <Fold>
2

$$$$