
     RDKit          3D

 28 29  0  0  0  0  0  0  0  0999 V2000
   -1.0356   -1.4011   -0.8687 C   0  0  0  0  0  0  0  0  0  0  0  0
   -1.1357   -0.8385    0.5651 C   0  0  0  0  0  0  0  0  0  0  0  0
   -2.5337   -0.5682    0.9483 N   0  0  0  0  0  0  0  0  0  0  0  0
   -3.0729    0.6136    0.2637 C   0  0  0  0  0  0  0  0  0  0  0  0
   -2.1399    1.8137    0.4575 C   0  0  0  0  0  0  0  0  0  0  0  0
   -0.8333    1.5154    0.0049 O   0  0  0  0  0  0  0  0  0  0  0  0
   -0.2898    0.4472    0.7640 C   0  0  0  0  0  0  0  0  0  0  0  0
    1.1674    0.2171    0.4073 C   0  0  0  0  0  0  0  0  0  0  0  0
    1.9745   -0.5539    1.2638 C   0  0  0  0  0  0  0  0  0  0  0  0
    3.3168   -0.7894    0.9525 C   0  0  0  0  0  0  0  0  0  0  0  0
    3.8680   -0.2605   -0.2165 C   0  0  0  0  0  0  0  0  0  0  0  0
    3.0774    0.5041   -1.0772 C   0  0  0  0  0  0  0  0  0  0  0  0
    1.7343    0.7435   -0.7709 C   0  0  0  0  0  0  0  0  0  0  0  0
   -1.2596   -0.6209   -1.6255 H   0  0  0  0  0  0  0  0  0  0  0  0
   -1.7424   -2.2470   -1.0021 H   0  0  0  0  0  0  0  0  0  0  0  0
   -0.0117   -1.7871   -1.0576 H   0  0  0  0  0  0  0  0  0  0  0  0
   -0.7468   -1.6200    1.2545 H   0  0  0  0  0  0  0  0  0  0  0  0
   -3.1327   -1.3953    0.7175 H   0  0  0  0  0  0  0  0  0  0  0  0
   -3.2124    0.4101   -0.8206 H   0  0  0  0  0  0  0  0  0  0  0  0
   -4.0683    0.8581    0.6924 H   0  0  0  0  0  0  0  0  0  0  0  0
   -2.1302    2.1323    1.5247 H   0  0  0  0  0  0  0  0  0  0  0  0
   -2.5314    2.6673   -0.1348 H   0  0  0  0  0  0  0  0  0  0  0  0
   -0.3084    0.7214    1.8459 H   0  0  0  0  0  0  0  0  0  0  0  0
    1.5630   -0.9716    2.1744 H   0  0  0  0  0  0  0  0  0  0  0  0
    3.9299   -1.3831    1.6183 H   0  0  0  0  0  0  0  0  0  0  0  0
    4.9072   -0.4448   -0.4564 H   0  0  0  0  0  0  0  0  0  0  0  0
    3.5050    0.9096   -1.9851 H   0  0  0  0  0  0  0  0  0  0  0  0
    1.1413    1.3282   -1.4620 H   0  0  0  0  0  0  0  0  0  0  0  0
  1  2  1  0
  2  3  1  0
  3  4  1  0
  4  5  1  0
  5  6  1  0
  6  7  1  0
  7  2  1  0
  7  8  1  0
  8  9  2  0
  9 10  1  0
 10 11  2  0
 11 12  1  0
 12 13  2  0
 13  8  1  0
  1 14  1  0
  1 15  1  0
  1 16  1  0
  2 17  1  0
  3 18  1  0
  4 19  1  0
  4 20  1  0
  5 21  1  0
  5 22  1  0
  7 23  1  0
  9 24  1  0
 10 25  1  0
 11 26  1  0
 12 27  1  0
 13 28  1  0
M  END
> <ID>
HT1649

> <Class>
0.0

> <Clusters>
191

> <Fold>
2

$$$$