
     RDKit          3D

 29 30  0  0  0  0  0  0  0  0999 V2000
    1.1165    1.5703    1.9214 O   0  0  0  0  0  0  0  0  0  0  0  0
    2.4301    1.2497    1.5896 C   0  0  0  0  0  0  0  0  0  0  0  0
    3.3691    1.7797    2.2436 O   0  0  0  0  0  0  0  0  0  0  0  0
    2.7316    0.3003    0.4852 C   0  0  0  0  0  0  0  0  0  0  0  0
    4.0744   -0.0080    0.1882 C   0  0  0  0  0  0  0  0  0  0  0  0
    4.3927   -0.8915   -0.8441 C   0  0  0  0  0  0  0  0  0  0  0  0
    3.3800   -1.4748   -1.6019 C   0  0  0  0  0  0  0  0  0  0  0  0
    2.0441   -1.1847   -1.3245 C   0  0  0  0  0  0  0  0  0  0  0  0
    1.7029   -0.3116   -0.2729 C   0  0  0  0  0  0  0  0  0  0  0  0
    0.3600   -0.0067    0.0011 O   0  0  0  0  0  0  0  0  0  0  0  0
   -0.7262   -0.8709   -0.1915 C   0  0  0  0  0  0  0  0  0  0  0  0
   -0.5405   -2.1137   -0.3067 O   0  0  0  0  0  0  0  0  0  0  0  0
   -2.1052   -0.3409   -0.1365 C   0  0  0  0  0  0  0  0  0  0  0  0
   -3.1066   -1.1188    0.4743 C   0  0  0  0  0  0  0  0  0  0  0  0
   -4.4045   -0.6233    0.6175 C   0  0  0  0  0  0  0  0  0  0  0  0
   -4.7206    0.6532    0.1539 C   0  0  0  0  0  0  0  0  0  0  0  0
   -3.7446    1.4302   -0.4720 C   0  0  0  0  0  0  0  0  0  0  0  0
   -2.4438    0.9396   -0.6425 C   0  0  0  0  0  0  0  0  0  0  0  0
   -1.5351    1.7335   -1.3457 O   0  0  0  0  0  0  0  0  0  0  0  0
    0.9117    2.2173    2.6735 H   0  0  0  0  0  0  0  0  0  0  0  0
    4.8839    0.4360    0.7540 H   0  0  0  0  0  0  0  0  0  0  0  0
    5.4286   -1.1173   -1.0624 H   0  0  0  0  0  0  0  0  0  0  0  0
    3.6307   -2.1467   -2.4127 H   0  0  0  0  0  0  0  0  0  0  0  0
    1.2797   -1.6207   -1.9530 H   0  0  0  0  0  0  0  0  0  0  0  0
   -2.8781   -2.1023    0.8665 H   0  0  0  0  0  0  0  0  0  0  0  0
   -5.1636   -1.2265    1.0988 H   0  0  0  0  0  0  0  0  0  0  0  0
   -5.7255    1.0379    0.2714 H   0  0  0  0  0  0  0  0  0  0  0  0
   -4.0053    2.4115   -0.8481 H   0  0  0  0  0  0  0  0  0  0  0  0
   -0.6366    1.3992   -1.6660 H   0  0  0  0  0  0  0  0  0  0  0  0
  1  2  1  0
  2  3  2  0
  2  4  1  0
  4  5  2  0
  5  6  1  0
  6  7  2  0
  7  8  1  0
  8  9  2  0
  9  4  1  0
  9 10  1  0
 10 11  1  0
 11 12  2  0
 11 13  1  0
 13 14  2  0
 14 15  1  0
 15 16  2  0
 16 17  1  0
 17 18  2  0
 18 13  1  0
 18 19  1  0
  1 20  1  0
  5 21  1  0
  6 22  1  0
  7 23  1  0
  8 24  1  0
 14 25  1  0
 15 26  1  0
 16 27  1  0
 17 28  1  0
 19 29  1  0
M  END
> <ID>
HT1863

> <Class>
0.0

> <Clusters>
22

> <Fold>
2

$$$$