
     RDKit          3D

 80 83  0  0  0  0  0  0  0  0999 V2000
   -7.2972   -1.6443    1.6538 C   0  0  0  0  0  0  0  0  0  0  0  0
   -7.2689   -0.2170    1.0958 C   0  0  0  0  0  0  0  0  0  0  0  0
   -6.1177    0.0446    0.0788 C   0  0  2  0  0  0  0  0  0  0  0  0
   -4.7397   -0.1162    0.7854 C   0  0  0  0  0  0  0  0  0  0  0  0
   -3.5406   -0.0993   -0.1836 C   0  0  0  0  0  0  0  0  0  0  0  0
   -2.2160   -0.5602    0.4948 C   0  0  1  0  0  0  0  0  0  0  0  0
   -2.1549   -2.1022    0.4732 C   0  0  0  0  0  0  0  0  0  0  0  0
   -0.9703    0.0819   -0.2128 C   0  0  1  0  0  0  0  0  0  0  0  0
   -0.9982    1.6372   -0.1616 C   0  0  0  0  0  0  0  0  0  0  0  0
    0.4546    2.1218   -0.0793 C   0  0  0  0  0  0  0  0  0  0  0  0
    1.2696    0.8658   -0.3293 C   0  0  1  0  0  0  0  0  0  0  0  0
    2.7598    0.8748    0.0739 C   0  0  2  0  0  0  0  0  0  0  0  0
    3.5042    2.0669   -0.5742 C   0  0  0  0  0  0  0  0  0  0  0  0
    4.9744    1.8413   -0.8391 C   0  0  0  0  0  0  0  0  0  0  0  0
    5.6145    0.6661   -0.6473 C   0  0  0  0  0  0  0  0  0  0  0  0
    6.9613    0.4731   -1.3162 C   0  0  0  0  0  0  0  0  0  0  0  0
    7.8385   -0.5522   -0.5863 C   0  0  1  0  0  0  0  0  0  0  0  0
    8.3005   -0.0054    0.6223 O   0  0  0  0  0  0  0  0  0  0  0  0
    7.1096   -1.8885   -0.3136 C   0  0  0  0  0  0  0  0  0  0  0  0
    5.5744   -1.8372   -0.4669 C   0  0  0  0  0  0  0  0  0  0  0  0
    4.9230   -0.5159    0.0365 C   0  0  1  0  0  0  0  0  0  0  0  0
    5.1258   -0.3904    1.5724 C   0  0  0  0  0  0  0  0  0  0  0  0
    3.4002   -0.4795   -0.3574 C   0  0  1  0  0  0  0  0  0  0  0  0
    2.5692   -1.7126    0.1179 C   0  0  0  0  0  0  0  0  0  0  0  0
    1.0598   -1.5998   -0.2048 C   0  0  0  0  0  0  0  0  0  0  0  0
    0.4568   -0.2706    0.3187 C   0  0  2  0  0  0  0  0  0  0  0  0
    0.4884   -0.2327    1.8817 C   0  0  0  0  0  0  0  0  0  0  0  0
   -6.2225    1.4422   -0.6581 C   0  0  0  0  0  0  0  0  0  0  0  0
   -7.5576    2.1921   -0.4836 C   0  0  0  0  0  0  0  0  0  0  0  0
   -5.9475    1.2954   -2.1674 C   0  0  0  0  0  0  0  0  0  0  0  0
   -8.2753   -1.8262    2.1486 H   0  0  0  0  0  0  0  0  0  0  0  0
   -7.1744   -2.3890    0.8391 H   0  0  0  0  0  0  0  0  0  0  0  0
   -6.5096   -1.7895    2.4208 H   0  0  0  0  0  0  0  0  0  0  0  0
   -8.2477   -0.0735    0.5930 H   0  0  0  0  0  0  0  0  0  0  0  0
   -7.2006    0.4993    1.9431 H   0  0  0  0  0  0  0  0  0  0  0  0
   -6.1980   -0.7620   -0.6831 H   0  0  0  0  0  0  0  0  0  0  0  0
   -4.6126    0.6923    1.5376 H   0  0  0  0  0  0  0  0  0  0  0  0
   -4.7165   -1.0740    1.3357 H   0  0  0  0  0  0  0  0  0  0  0  0
   -3.4425    0.9347   -0.5621 H   0  0  0  0  0  0  0  0  0  0  0  0
   -3.7516   -0.7471   -1.0632 H   0  0  0  0  0  0  0  0  0  0  0  0
   -2.2321   -0.2273    1.5558 H   0  0  0  0  0  0  0  0  0  0  0  0
   -1.8700   -2.4692   -0.5363 H   0  0  0  0  0  0  0  0  0  0  0  0
   -1.4410   -2.4839    1.2261 H   0  0  0  0  0  0  0  0  0  0  0  0
   -3.1342   -2.5540    0.7353 H   0  0  0  0  0  0  0  0  0  0  0  0
   -1.0187   -0.2131   -1.2875 H   0  0  0  0  0  0  0  0  0  0  0  0
   -1.4772    2.0456   -1.0787 H   0  0  0  0  0  0  0  0  0  0  0  0
   -1.5570    2.0040    0.7272 H   0  0  0  0  0  0  0  0  0  0  0  0
    0.6615    2.8990   -0.8472 H   0  0  0  0  0  0  0  0  0  0  0  0
    0.6754    2.5382    0.9278 H   0  0  0  0  0  0  0  0  0  0  0  0
    1.2504    0.7166   -1.4386 H   0  0  0  0  0  0  0  0  0  0  0  0
    2.8255    1.0063    1.1696 H   0  0  0  0  0  0  0  0  0  0  0  0
    3.0451    2.3092   -1.5571 H   0  0  0  0  0  0  0  0  0  0  0  0
    3.3929    2.9637    0.0721 H   0  0  0  0  0  0  0  0  0  0  0  0
    5.4939    2.6500   -1.3459 H   0  0  0  0  0  0  0  0  0  0  0  0
    6.7874    0.1252   -2.3567 H   0  0  0  0  0  0  0  0  0  0  0  0
    7.5141    1.4357   -1.3768 H   0  0  0  0  0  0  0  0  0  0  0  0
    8.7163   -0.7752   -1.2380 H   0  0  0  0  0  0  0  0  0  0  0  0
    9.0438    0.6118    0.3959 H   0  0  0  0  0  0  0  0  0  0  0  0
    7.3601   -2.2508    0.7062 H   0  0  0  0  0  0  0  0  0  0  0  0
    7.4944   -2.6635   -1.0106 H   0  0  0  0  0  0  0  0  0  0  0  0
    5.1542   -2.7090    0.0802 H   0  0  0  0  0  0  0  0  0  0  0  0
    5.3287   -1.9759   -1.5442 H   0  0  0  0  0  0  0  0  0  0  0  0
    4.8280    0.6092    1.9508 H   0  0  0  0  0  0  0  0  0  0  0  0
    6.1885   -0.5105    1.8560 H   0  0  0  0  0  0  0  0  0  0  0  0
    4.5616   -1.1657    2.1268 H   0  0  0  0  0  0  0  0  0  0  0  0
    3.3565   -0.5138   -1.4713 H   0  0  0  0  0  0  0  0  0  0  0  0
    2.6958   -1.8888    1.2023 H   0  0  0  0  0  0  0  0  0  0  0  0
    2.9365   -2.6244   -0.3975 H   0  0  0  0  0  0  0  0  0  0  0  0
    0.5539   -2.4741    0.2462 H   0  0  0  0  0  0  0  0  0  0  0  0
    0.9215   -1.6764   -1.3067 H   0  0  0  0  0  0  0  0  0  0  0  0
   -0.0731   -1.0842    2.3105 H   0  0  0  0  0  0  0  0  0  0  0  0
    0.0359    0.6985    2.2801 H   0  0  0  0  0  0  0  0  0  0  0  0
    1.5109   -0.3065    2.2962 H   0  0  0  0  0  0  0  0  0  0  0  0
   -5.4503    2.1282   -0.2477 H   0  0  0  0  0  0  0  0  0  0  0  0
   -7.7636    2.3906    0.5892 H   0  0  0  0  0  0  0  0  0  0  0  0
   -8.3981    1.6210   -0.9338 H   0  0  0  0  0  0  0  0  0  0  0  0
   -7.5056    3.1814   -0.9889 H   0  0  0  0  0  0  0  0  0  0  0  0
   -4.9392    0.8786   -2.3599 H   0  0  0  0  0  0  0  0  0  0  0  0
   -5.9973    2.2869   -2.6691 H   0  0  0  0  0  0  0  0  0  0  0  0
   -6.7001    0.6227   -2.6363 H   0  0  0  0  0  0  0  0  0  0  0  0
  1  2  1  0
  3  2  1  0
  3  4  1  0
  4  5  1  0
  5  6  1  0
  6  7  1  0
  8  6  1  0
  8  9  1  0
  9 10  1  0
 11 10  1  0
 11 12  1  0
 12 13  1  0
 13 14  1  0
 14 15  2  0
 15 16  1  0
 16 17  1  0
 17 18  1  0
 17 19  1  0
 19 20  1  0
 20 21  1  0
 21 15  1  0
 21 22  1  1
 21 23  1  0
 23 12  1  0
 23 24  1  0
 24 25  1  0
 25 26  1  0
 26  8  1  0
 26 11  1  0
 26 27  1  1
  3 28  1  0
 28 29  1  0
 28 30  1  0
  1 31  1  0
  1 32  1  0
  1 33  1  0
  2 34  1  0
  2 35  1  0
  3 36  1  6
  4 37  1  0
  4 38  1  0
  5 39  1  0
  5 40  1  0
  6 41  1  1
  7 42  1  0
  7 43  1  0
  7 44  1  0
  8 45  1  6
  9 46  1  0
  9 47  1  0
 10 48  1  0
 10 49  1  0
 11 50  1  6
 12 51  1  1
 13 52  1  0
 13 53  1  0
 14 54  1  0
 16 55  1  0
 16 56  1  0
 17 57  1  6
 18 58  1  0
 19 59  1  0
 19 60  1  0
 20 61  1  0
 20 62  1  0
 22 63  1  0
 22 64  1  0
 22 65  1  0
 23 66  1  6
 24 67  1  0
 24 68  1  0
 25 69  1  0
 25 70  1  0
 27 71  1  0
 27 72  1  0
 27 73  1  0
 28 74  1  0
 29 75  1  0
 29 76  1  0
 29 77  1  0
 30 78  1  0
 30 79  1  0
 30 80  1  0
M  END
> <ID>
HT0274

> <Class>
0.0

> <Clusters>
69

> <Fold>
2

$$$$