
     RDKit          3D

 27 28  0  0  0  0  0  0  0  0999 V2000
    3.9798    1.6590   -0.7716 N   0  0  0  0  0  0  0  0  0  0  0  0
    2.9558    0.6886   -0.5379 C   0  0  0  0  0  0  0  0  0  0  0  0
    2.4610   -0.0848   -1.5977 C   0  0  0  0  0  0  0  0  0  0  0  0
    1.4589   -1.0329   -1.3695 C   0  0  0  0  0  0  0  0  0  0  0  0
    0.9411   -1.2143   -0.0796 C   0  0  0  0  0  0  0  0  0  0  0  0
    1.4392   -0.4457    0.9808 C   0  0  0  0  0  0  0  0  0  0  0  0
    2.4406    0.5028    0.7528 C   0  0  0  0  0  0  0  0  0  0  0  0
   -0.3271   -2.3992    0.2154 S   0  0  0  0  0  0  0  0  0  0  0  0
   -1.0501   -2.7277   -1.0610 O   0  0  0  0  0  0  0  0  0  0  0  0
    0.2924   -3.6524    0.7660 O   0  0  0  0  0  0  0  0  0  0  0  0
   -1.4664   -1.7695    1.3596 N   0  0  0  0  0  0  0  0  0  0  0  0
   -2.1727   -0.5466    1.1313 C   0  0  0  0  0  0  0  0  0  0  0  0
   -3.0332   -0.0787    2.0751 N   0  0  0  0  0  0  0  0  0  0  0  0
   -3.7133    1.0824    1.8882 C   0  0  0  0  0  0  0  0  0  0  0  0
   -3.5325    1.8132    0.7146 C   0  0  0  0  0  0  0  0  0  0  0  0
   -2.6478    1.3212   -0.2437 C   0  0  0  0  0  0  0  0  0  0  0  0
   -1.9871    0.1559   -0.0201 N   0  0  0  0  0  0  0  0  0  0  0  0
    4.3701    1.8043   -1.7295 H   0  0  0  0  0  0  0  0  0  0  0  0
    4.3549    2.2395    0.0115 H   0  0  0  0  0  0  0  0  0  0  0  0
    2.8514    0.0471   -2.5990 H   0  0  0  0  0  0  0  0  0  0  0  0
    1.0889   -1.6229   -2.1981 H   0  0  0  0  0  0  0  0  0  0  0  0
    1.0509   -0.5791    1.9826 H   0  0  0  0  0  0  0  0  0  0  0  0
    2.8147    1.0921    1.5805 H   0  0  0  0  0  0  0  0  0  0  0  0
   -1.6244   -2.2951    2.2479 H   0  0  0  0  0  0  0  0  0  0  0  0
   -4.3931    1.4378    2.6509 H   0  0  0  0  0  0  0  0  0  0  0  0
   -4.0665    2.7402    0.5515 H   0  0  0  0  0  0  0  0  0  0  0  0
   -2.4854    1.8646   -1.1649 H   0  0  0  0  0  0  0  0  0  0  0  0
  1  2  1  0
  2  3  2  0
  3  4  1  0
  4  5  2  0
  5  6  1  0
  6  7  2  0
  7  2  1  0
  5  8  1  0
  8  9  2  0
  8 10  2  0
  8 11  1  0
 11 12  1  0
 12 13  2  0
 13 14  1  0
 14 15  2  0
 15 16  1  0
 16 17  2  0
 17 12  1  0
  1 18  1  0
  1 19  1  0
  3 20  1  0
  4 21  1  0
  6 22  1  0
  7 23  1  0
 11 24  1  0
 14 25  1  0
 15 26  1  0
 16 27  1  0
M  END
> <ID>
HT1937

> <Class>
0.0

> <Clusters>
220

> <Fold>
2

$$$$