
     RDKit          3D

 57 61  0  0  0  0  0  0  0  0999 V2000
   -0.1116    1.1617    2.2712 C   0  0  0  0  0  0  0  0  0  0  0  0
   -1.3051    0.5538    1.8370 O   0  0  0  0  0  0  0  0  0  0  0  0
   -1.2185   -0.2621    0.6629 C   0  0  0  0  0  0  0  0  0  0  0  0
   -0.0105   -1.2548    0.6310 C   0  0  0  0  0  0  0  0  0  0  0  0
    1.3205   -0.6524    0.1178 C   0  0  0  0  0  0  0  0  0  0  0  0
    2.3316   -1.7814   -0.1726 C   0  0  0  0  0  0  0  0  0  0  0  0
    3.5996   -1.2546   -0.5631 O   0  0  0  0  0  0  0  0  0  0  0  0
    4.4878   -0.6343    0.3248 C   0  0  0  0  0  0  0  0  0  0  0  0
    4.2447   -0.6272    1.5633 O   0  0  0  0  0  0  0  0  0  0  0  0
    5.7160    0.0053   -0.1935 C   0  0  0  0  0  0  0  0  0  0  0  0
    5.9841    0.0254   -1.5726 C   0  0  0  0  0  0  0  0  0  0  0  0
    7.1133    0.6188   -2.0436 N   0  0  0  0  0  0  0  0  0  0  0  0
    8.0133    1.2070   -1.2128 C   0  0  0  0  0  0  0  0  0  0  0  0
    7.7913    1.2140    0.1655 C   0  0  0  0  0  0  0  0  0  0  0  0
    9.0502    2.0393    1.3409 Br  0  0  0  0  0  0  0  0  0  0  0  0
    6.6388    0.6115    0.6755 C   0  0  0  0  0  0  0  0  0  0  0  0
    1.1048    0.2201   -1.1311 C   0  0  0  0  0  0  0  0  0  0  0  0
    0.0806    1.2599   -0.8889 N   0  0  0  0  0  0  0  0  0  0  0  0
    0.0584    2.1800   -2.0428 C   0  0  0  0  0  0  0  0  0  0  0  0
   -1.2354    0.6082   -0.6620 C   0  0  0  0  0  0  0  0  0  0  0  0
   -2.4505    1.6029   -0.6690 C   0  0  0  0  0  0  0  0  0  0  0  0
   -3.7015    0.8462   -0.3256 C   0  0  0  0  0  0  0  0  0  0  0  0
   -5.0360    1.0648   -0.6542 C   0  0  0  0  0  0  0  0  0  0  0  0
   -5.7851    0.0027   -0.2465 N   0  0  0  0  0  0  0  0  0  0  0  0
   -7.2131   -0.1862   -0.4780 C   0  0  0  0  0  0  0  0  0  0  0  0
   -4.9241   -0.8832    0.3016 C   0  0  0  0  0  0  0  0  0  0  0  0
   -5.1624   -2.1579    0.8196 C   0  0  0  0  0  0  0  0  0  0  0  0
   -4.0521   -2.8807    1.3124 C   0  0  0  0  0  0  0  0  0  0  0  0
   -2.7452   -2.3281    1.2651 C   0  0  0  0  0  0  0  0  0  0  0  0
   -2.5340   -1.0501    0.6912 C   0  0  0  0  0  0  0  0  0  0  0  0
   -3.6654   -0.3787    0.2619 C   0  0  0  0  0  0  0  0  0  0  0  0
   -0.3704    1.8837    3.0722 H   0  0  0  0  0  0  0  0  0  0  0  0
    0.5651    0.4166    2.7375 H   0  0  0  0  0  0  0  0  0  0  0  0
    0.3817    1.7530    1.4782 H   0  0  0  0  0  0  0  0  0  0  0  0
   -0.2744   -2.0970   -0.0486 H   0  0  0  0  0  0  0  0  0  0  0  0
    0.1488   -1.6888    1.6420 H   0  0  0  0  0  0  0  0  0  0  0  0
    1.7713   -0.0173    0.9022 H   0  0  0  0  0  0  0  0  0  0  0  0
    2.4567   -2.4321    0.7209 H   0  0  0  0  0  0  0  0  0  0  0  0
    1.9501   -2.4188   -0.9991 H   0  0  0  0  0  0  0  0  0  0  0  0
    5.2985   -0.4271   -2.2771 H   0  0  0  0  0  0  0  0  0  0  0  0
    8.9004    1.6691   -1.6252 H   0  0  0  0  0  0  0  0  0  0  0  0
    6.4681    0.6185    1.7449 H   0  0  0  0  0  0  0  0  0  0  0  0
    2.0785    0.7023   -1.3741 H   0  0  0  0  0  0  0  0  0  0  0  0
    0.8230   -0.4179   -2.0011 H   0  0  0  0  0  0  0  0  0  0  0  0
    1.0821    2.5410   -2.2825 H   0  0  0  0  0  0  0  0  0  0  0  0
   -0.5267    3.0900   -1.7957 H   0  0  0  0  0  0  0  0  0  0  0  0
   -0.3688    1.6876   -2.9447 H   0  0  0  0  0  0  0  0  0  0  0  0
   -1.4259   -0.0916   -1.5132 H   0  0  0  0  0  0  0  0  0  0  0  0
   -2.5883    2.0433   -1.6786 H   0  0  0  0  0  0  0  0  0  0  0  0
   -2.2938    2.4170    0.0699 H   0  0  0  0  0  0  0  0  0  0  0  0
   -5.4245    1.9208   -1.1909 H   0  0  0  0  0  0  0  0  0  0  0  0
   -7.6918    0.7787   -0.7492 H   0  0  0  0  0  0  0  0  0  0  0  0
   -7.6976   -0.5730    0.4431 H   0  0  0  0  0  0  0  0  0  0  0  0
   -7.3631   -0.9110   -1.3054 H   0  0  0  0  0  0  0  0  0  0  0  0
   -6.1584   -2.5794    0.8494 H   0  0  0  0  0  0  0  0  0  0  0  0
   -4.2020   -3.8638    1.7392 H   0  0  0  0  0  0  0  0  0  0  0  0
   -1.9233   -2.8940    1.6811 H   0  0  0  0  0  0  0  0  0  0  0  0
  1  2  1  0
  2  3  1  0
  3  4  1  0
  4  5  1  0
  5  6  1  0
  6  7  1  0
  7  8  1  0
  8  9  2  0
  8 10  1  0
 10 11  2  0
 11 12  1  0
 12 13  2  0
 13 14  1  0
 14 15  1  0
 14 16  2  0
 16 10  1  0
  5 17  1  0
 17 18  1  0
 18 19  1  0
 18 20  1  0
 20  3  1  0
 20 21  1  0
 21 22  1  0
 22 23  2  0
 23 24  1  0
 24 25  1  0
 24 26  1  0
 26 27  2  0
 27 28  1  0
 28 29  2  0
 29 30  1  0
 30  3  1  0
 30 31  2  0
 31 22  1  0
 31 26  1  0
  1 32  1  0
  1 33  1  0
  1 34  1  0
  4 35  1  0
  4 36  1  0
  5 37  1  0
  6 38  1  0
  6 39  1  0
 11 40  1  0
 13 41  1  0
 16 42  1  0
 17 43  1  0
 17 44  1  0
 19 45  1  0
 19 46  1  0
 19 47  1  0
 20 48  1  0
 21 49  1  0
 21 50  1  0
 23 51  1  0
 25 52  1  0
 25 53  1  0
 25 54  1  0
 27 55  1  0
 28 56  1  0
 29 57  1  0
M  END
> <ID>
HT1484

> <Class>
0.0

> <Clusters>
168

> <Fold>
2

$$$$