
     RDKit          3D

 59 62  0  0  0  0  0  0  0  0999 V2000
    3.2299   -1.0867    2.1695 C   0  0  0  0  0  0  0  0  0  0  0  0
    2.4568    0.1847    1.7779 C   0  0  0  0  0  0  0  0  0  0  0  0
    1.0355    0.1491    2.3310 C   0  0  0  0  0  0  0  0  0  0  0  0
    0.1908    1.0621    1.4224 C   0  0  0  0  0  0  0  0  0  0  0  0
   -1.2494    0.5166    1.1576 C   0  0  0  0  0  0  0  0  0  0  0  0
   -2.2828    1.6739    0.9543 C   0  0  0  0  0  0  0  0  0  0  0  0
   -3.2407    1.5824   -0.2522 C   0  0  0  0  0  0  0  0  0  0  0  0
   -3.5843    0.1869   -0.7139 C   0  0  0  0  0  0  0  0  0  0  0  0
   -4.5355    0.0481   -1.6542 C   0  0  0  0  0  0  0  0  0  0  0  0
   -4.7778   -1.2490   -2.2925 C   0  0  0  0  0  0  0  0  0  0  0  0
   -5.7376   -1.3942   -3.0964 O   0  0  0  0  0  0  0  0  0  0  0  0
   -3.8452   -2.3590   -2.0329 C   0  0  0  0  0  0  0  0  0  0  0  0
   -2.8820   -2.2278   -1.1145 C   0  0  0  0  0  0  0  0  0  0  0  0
   -2.8214   -1.0212   -0.1735 C   0  0  0  0  0  0  0  0  0  0  0  0
   -3.5241   -1.4715    1.1317 C   0  0  0  0  0  0  0  0  0  0  0  0
   -1.3191   -0.6076    0.0720 C   0  0  0  0  0  0  0  0  0  0  0  0
   -0.6857   -1.7212    0.6013 F   0  0  0  0  0  0  0  0  0  0  0  0
   -0.5255   -0.2301   -1.2443 C   0  0  0  0  0  0  0  0  0  0  0  0
   -1.3603   -0.1837   -2.3718 O   0  0  0  0  0  0  0  0  0  0  0  0
    0.2388    1.1073   -1.1640 C   0  0  0  0  0  0  0  0  0  0  0  0
    1.0427    1.3398    0.1440 C   0  0  0  0  0  0  0  0  0  0  0  0
    1.4786    2.8371    0.1577 C   0  0  0  0  0  0  0  0  0  0  0  0
    2.2736    0.3778    0.2630 C   0  0  0  0  0  0  0  0  0  0  0  0
    3.5617    0.8672   -0.4669 C   0  0  0  0  0  0  0  0  0  0  0  0
    4.5928   -0.2194   -0.6380 C   0  0  0  0  0  0  0  0  0  0  0  0
    5.6783   -0.1098   -0.0915 O   0  0  0  0  0  0  0  0  0  0  0  0
    4.3163   -1.4321   -1.4801 C   0  0  0  0  0  0  0  0  0  0  0  0
    5.3098   -1.5635   -2.4643 O   0  0  0  0  0  0  0  0  0  0  0  0
    2.8401   -1.9752    1.6277 H   0  0  0  0  0  0  0  0  0  0  0  0
    4.3119   -0.9720    1.9560 H   0  0  0  0  0  0  0  0  0  0  0  0
    3.1328   -1.2611    3.2656 H   0  0  0  0  0  0  0  0  0  0  0  0
    2.9794    1.0710    2.2068 H   0  0  0  0  0  0  0  0  0  0  0  0
    0.6548   -0.8916    2.3347 H   0  0  0  0  0  0  0  0  0  0  0  0
    1.0188    0.5051    3.3848 H   0  0  0  0  0  0  0  0  0  0  0  0
    0.0725    2.0000    2.0165 H   0  0  0  0  0  0  0  0  0  0  0  0
   -1.5443    0.0412    2.1204 H   0  0  0  0  0  0  0  0  0  0  0  0
   -2.9075    1.7398    1.8733 H   0  0  0  0  0  0  0  0  0  0  0  0
   -1.7689    2.6568    0.8860 H   0  0  0  0  0  0  0  0  0  0  0  0
   -4.1819    2.1119    0.0209 H   0  0  0  0  0  0  0  0  0  0  0  0
   -2.8056    2.1373   -1.1129 H   0  0  0  0  0  0  0  0  0  0  0  0
   -5.0916    0.9110   -2.0039 H   0  0  0  0  0  0  0  0  0  0  0  0
   -3.9178   -3.2744   -2.6095 H   0  0  0  0  0  0  0  0  0  0  0  0
   -2.2237   -3.0724   -0.9365 H   0  0  0  0  0  0  0  0  0  0  0  0
   -3.7029   -0.6241    1.8238 H   0  0  0  0  0  0  0  0  0  0  0  0
   -2.9258   -2.2376    1.6619 H   0  0  0  0  0  0  0  0  0  0  0  0
   -4.5159   -1.9121    0.9110 H   0  0  0  0  0  0  0  0  0  0  0  0
    0.2198   -1.0355   -1.4228 H   0  0  0  0  0  0  0  0  0  0  0  0
   -0.7826   -0.2979   -3.1691 H   0  0  0  0  0  0  0  0  0  0  0  0
    0.9250    1.1825   -2.0353 H   0  0  0  0  0  0  0  0  0  0  0  0
   -0.4952    1.9301   -1.2840 H   0  0  0  0  0  0  0  0  0  0  0  0
    0.5827    3.4968    0.2093 H   0  0  0  0  0  0  0  0  0  0  0  0
    2.0328    3.1122   -0.7678 H   0  0  0  0  0  0  0  0  0  0  0  0
    2.1215    3.0650    1.0408 H   0  0  0  0  0  0  0  0  0  0  0  0
    1.9880   -0.6097   -0.1590 H   0  0  0  0  0  0  0  0  0  0  0  0
    4.0102    1.7220    0.0862 H   0  0  0  0  0  0  0  0  0  0  0  0
    3.3066    1.2335   -1.4822 H   0  0  0  0  0  0  0  0  0  0  0  0
    4.2801   -2.3339   -0.8190 H   0  0  0  0  0  0  0  0  0  0  0  0
    3.3302   -1.3402   -1.9848 H   0  0  0  0  0  0  0  0  0  0  0  0
    6.0220   -2.1345   -2.0746 H   0  0  0  0  0  0  0  0  0  0  0  0
  1  2  1  0
  2  3  1  0
  3  4  1  0
  4  5  1  0
  5  6  1  0
  6  7  1  0
  7  8  1  0
  8  9  2  0
  9 10  1  0
 10 11  2  0
 10 12  1  0
 12 13  2  0
 13 14  1  0
 14  8  1  0
 14 15  1  0
 14 16  1  0
 16  5  1  0
 16 17  1  0
 16 18  1  0
 18 19  1  0
 18 20  1  0
 20 21  1  0
 21  4  1  0
 21 22  1  0
 21 23  1  0
 23  2  1  0
 23 24  1  0
 24 25  1  0
 25 26  2  0
 25 27  1  0
 27 28  1  0
  1 29  1  0
  1 30  1  0
  1 31  1  0
  2 32  1  0
  3 33  1  0
  3 34  1  0
  4 35  1  0
  5 36  1  0
  6 37  1  0
  6 38  1  0
  7 39  1  0
  7 40  1  0
  9 41  1  0
 12 42  1  0
 13 43  1  0
 15 44  1  0
 15 45  1  0
 15 46  1  0
 18 47  1  0
 19 48  1  0
 20 49  1  0
 20 50  1  0
 22 51  1  0
 22 52  1  0
 22 53  1  0
 23 54  1  0
 24 55  1  0
 24 56  1  0
 27 57  1  0
 27 58  1  0
 28 59  1  0
M  END
> <ID>
HT3737

> <Class>
0.0

> <Clusters>
35

> <Fold>
2

$$$$