
     RDKit          3D

 44 46  0  0  0  0  0  0  0  0999 V2000
   -6.7508    0.6583    2.5142 C   0  0  0  0  0  0  0  0  0  0  0  0
   -5.3215    0.2645    2.1431 C   0  0  0  0  0  0  0  0  0  0  0  0
   -4.8542    0.8792    0.8514 C   0  0  0  0  0  0  0  0  0  0  0  0
   -5.6129    1.6363    0.1852 O   0  0  0  0  0  0  0  0  0  0  0  0
   -3.5329    0.5969    0.3800 N   0  0  0  0  0  0  0  0  0  0  0  0
   -2.9272    1.2705   -1.0959 S   0  0  0  0  0  0  0  0  0  0  0  0
   -2.9445    2.7715   -1.0152 O   0  0  0  0  0  0  0  0  0  0  0  0
   -3.7880    0.8290   -2.2464 O   0  0  0  0  0  0  0  0  0  0  0  0
   -1.2755    0.7162   -1.3469 C   0  0  0  0  0  0  0  0  0  0  0  0
   -1.0245   -0.4435   -2.0920 C   0  0  0  0  0  0  0  0  0  0  0  0
    0.2863   -0.8946   -2.2720 C   0  0  0  0  0  0  0  0  0  0  0  0
    1.3609   -0.1950   -1.7015 C   0  0  0  0  0  0  0  0  0  0  0  0
    1.1055    0.9655   -0.9535 C   0  0  0  0  0  0  0  0  0  0  0  0
   -0.2054    1.4151   -0.7737 C   0  0  0  0  0  0  0  0  0  0  0  0
    2.7472   -0.6746   -1.8839 C   0  0  0  0  0  0  0  0  0  0  0  0
    3.3783   -0.9840   -3.0764 C   0  0  0  0  0  0  0  0  0  0  0  0
    2.7769   -1.0058   -4.4438 C   0  0  0  0  0  0  0  0  0  0  0  0
    4.6364   -1.2598   -2.8257 O   0  0  0  0  0  0  0  0  0  0  0  0
    4.9007   -1.1485   -1.5561 N   0  0  0  0  0  0  0  0  0  0  0  0
    3.7581   -0.7879   -0.9367 C   0  0  0  0  0  0  0  0  0  0  0  0
    3.6594   -0.6016    0.5276 C   0  0  0  0  0  0  0  0  0  0  0  0
    4.7551   -0.0840    1.2391 C   0  0  0  0  0  0  0  0  0  0  0  0
    4.6800    0.0895    2.6247 C   0  0  0  0  0  0  0  0  0  0  0  0
    3.5167   -0.2635    3.3129 C   0  0  0  0  0  0  0  0  0  0  0  0
    2.4293   -0.7980    2.6178 C   0  0  0  0  0  0  0  0  0  0  0  0
    2.5002   -0.9738    1.2326 C   0  0  0  0  0  0  0  0  0  0  0  0
   -7.4600    0.3240    1.7271 H   0  0  0  0  0  0  0  0  0  0  0  0
   -6.8277    1.7596    2.6390 H   0  0  0  0  0  0  0  0  0  0  0  0
   -7.0320    0.1734    3.4727 H   0  0  0  0  0  0  0  0  0  0  0  0
   -5.2650   -0.8414    2.0540 H   0  0  0  0  0  0  0  0  0  0  0  0
   -4.6376    0.5829    2.9587 H   0  0  0  0  0  0  0  0  0  0  0  0
   -2.9094   -0.0307    0.9350 H   0  0  0  0  0  0  0  0  0  0  0  0
   -1.8422   -1.0038   -2.5269 H   0  0  0  0  0  0  0  0  0  0  0  0
    0.4589   -1.8015   -2.8371 H   0  0  0  0  0  0  0  0  0  0  0  0
    1.9211    1.5244   -0.5116 H   0  0  0  0  0  0  0  0  0  0  0  0
   -0.3849    2.3064   -0.1860 H   0  0  0  0  0  0  0  0  0  0  0  0
    3.5786   -0.9317   -5.2079 H   0  0  0  0  0  0  0  0  0  0  0  0
    2.0835   -0.1483   -4.5711 H   0  0  0  0  0  0  0  0  0  0  0  0
    2.2245   -1.9564   -4.5928 H   0  0  0  0  0  0  0  0  0  0  0  0
    5.6634    0.1982    0.7209 H   0  0  0  0  0  0  0  0  0  0  0  0
    5.5244    0.4976    3.1649 H   0  0  0  0  0  0  0  0  0  0  0  0
    3.4605   -0.1293    4.3854 H   0  0  0  0  0  0  0  0  0  0  0  0
    1.5331   -1.0834    3.1535 H   0  0  0  0  0  0  0  0  0  0  0  0
    1.6574   -1.4177    0.7192 H   0  0  0  0  0  0  0  0  0  0  0  0
  1  2  1  0
  2  3  1  0
  3  4  2  0
  3  5  1  0
  5  6  1  0
  6  7  2  0
  6  8  2  0
  6  9  1  0
  9 10  2  0
 10 11  1  0
 11 12  2  0
 12 13  1  0
 13 14  2  0
 14  9  1  0
 12 15  1  0
 15 16  2  0
 16 17  1  0
 16 18  1  0
 18 19  1  0
 19 20  2  0
 20 15  1  0
 20 21  1  0
 21 22  2  0
 22 23  1  0
 23 24  2  0
 24 25  1  0
 25 26  2  0
 26 21  1  0
  1 27  1  0
  1 28  1  0
  1 29  1  0
  2 30  1  0
  2 31  1  0
  5 32  1  0
 10 33  1  0
 11 34  1  0
 13 35  1  0
 14 36  1  0
 17 37  1  0
 17 38  1  0
 17 39  1  0
 22 40  1  0
 23 41  1  0
 24 42  1  0
 25 43  1  0
 26 44  1  0
M  END
> <ID>
HT1594

> <Class>
0.0

> <Clusters>
238

> <Fold>
2

$$$$