
     RDKit          3D

 55 58  0  0  0  0  0  0  0  0999 V2000
   -1.7389    0.6986   -1.5612 C   0  0  0  0  0  0  0  0  0  0  0  0
   -1.5516    0.5183   -0.0138 C   0  0  2  0  0  0  0  0  0  0  0  0
   -0.7590    1.7210    0.5715 C   0  0  0  0  0  0  0  0  0  0  0  0
    0.7237    1.7542    0.0996 C   0  0  2  0  0  0  0  0  0  0  0  0
    0.7918    2.1509   -1.2437 O   0  0  0  0  0  0  0  0  0  0  0  0
    1.4699    0.3900    0.3386 C   0  0  1  0  0  0  0  0  0  0  0  0
    1.5270    0.2377    1.7214 F   0  0  0  0  0  0  0  0  0  0  0  0
    0.6423   -0.8279   -0.2235 C   0  0  1  0  0  0  0  0  0  0  0  0
    1.3151   -2.1692    0.1482 C   0  0  0  0  0  0  0  0  0  0  0  0
    2.7551   -2.2333   -0.3571 C   0  0  0  0  0  0  0  0  0  0  0  0
    3.5262   -1.0430    0.1539 C   0  0  0  0  0  0  0  0  0  0  0  0
    4.6394   -1.2386    0.8790 C   0  0  0  0  0  0  0  0  0  0  0  0
    5.3731   -0.1097    1.4488 C   0  0  0  0  0  0  0  0  0  0  0  0
    6.4255   -0.3071    2.1111 O   0  0  0  0  0  0  0  0  0  0  0  0
    4.8705    1.2474    1.2557 C   0  0  0  0  0  0  0  0  0  0  0  0
    3.7669    1.4667    0.5404 C   0  0  0  0  0  0  0  0  0  0  0  0
    2.9751    0.3590   -0.1590 C   0  0  2  0  0  0  0  0  0  0  0  0
    3.1466    0.5938   -1.6812 C   0  0  0  0  0  0  0  0  0  0  0  0
   -0.7918   -0.7663    0.3562 C   0  0  2  0  0  0  0  0  0  0  0  0
   -1.7633   -1.8954    0.0399 C   0  0  0  0  0  0  0  0  0  0  0  0
   -3.1584   -1.2872    0.3289 C   0  0  1  0  0  0  0  0  0  0  0  0
   -3.8310   -1.9722    1.3590 O   0  0  0  0  0  0  0  0  0  0  0  0
   -2.9410    0.2372    0.6538 C   0  0  1  0  0  0  0  0  0  0  0  0
   -2.8243    0.4181    2.0501 O   0  0  0  0  0  0  0  0  0  0  0  0
   -4.0487    1.1699    0.1433 C   0  0  0  0  0  0  0  0  0  0  0  0
   -3.8714    2.3779    0.2005 O   0  0  0  0  0  0  0  0  0  0  0  0
   -5.3682    0.6743   -0.3842 C   0  0  0  0  0  0  0  0  0  0  0  0
   -5.2641    0.4473   -1.7613 O   0  0  0  0  0  0  0  0  0  0  0  0
   -2.4251   -0.0589   -1.9902 H   0  0  0  0  0  0  0  0  0  0  0  0
   -0.8026    0.6219   -2.1382 H   0  0  0  0  0  0  0  0  0  0  0  0
   -2.1694    1.6974   -1.7840 H   0  0  0  0  0  0  0  0  0  0  0  0
   -1.2557    2.6766    0.2984 H   0  0  0  0  0  0  0  0  0  0  0  0
   -0.7563    1.6754    1.6820 H   0  0  0  0  0  0  0  0  0  0  0  0
    1.2259    2.5286    0.7231 H   0  0  0  0  0  0  0  0  0  0  0  0
    0.5906    3.1228   -1.2722 H   0  0  0  0  0  0  0  0  0  0  0  0
    0.5937   -0.7919   -1.3273 H   0  0  0  0  0  0  0  0  0  0  0  0
    1.3069   -2.3135    1.2515 H   0  0  0  0  0  0  0  0  0  0  0  0
    0.7523   -3.0121   -0.3076 H   0  0  0  0  0  0  0  0  0  0  0  0
    3.2075   -3.1940   -0.0260 H   0  0  0  0  0  0  0  0  0  0  0  0
    2.7629   -2.2338   -1.4677 H   0  0  0  0  0  0  0  0  0  0  0  0
    5.0020   -2.2410    1.0742 H   0  0  0  0  0  0  0  0  0  0  0  0
    5.4027    2.0835    1.6926 H   0  0  0  0  0  0  0  0  0  0  0  0
    3.4651    2.4962    0.3960 H   0  0  0  0  0  0  0  0  0  0  0  0
    3.0292    1.6628   -1.9543 H   0  0  0  0  0  0  0  0  0  0  0  0
    4.1745    0.3088   -1.9960 H   0  0  0  0  0  0  0  0  0  0  0  0
    2.4356   -0.0015   -2.2857 H   0  0  0  0  0  0  0  0  0  0  0  0
   -0.6737   -0.7947    1.4666 H   0  0  0  0  0  0  0  0  0  0  0  0
   -1.5553   -2.7902    0.6667 H   0  0  0  0  0  0  0  0  0  0  0  0
   -1.6780   -2.1867   -1.0304 H   0  0  0  0  0  0  0  0  0  0  0  0
   -3.7554   -1.4107   -0.5984 H   0  0  0  0  0  0  0  0  0  0  0  0
   -3.2107   -2.0559    2.1296 H   0  0  0  0  0  0  0  0  0  0  0  0
   -3.7260    0.3114    2.4538 H   0  0  0  0  0  0  0  0  0  0  0  0
   -5.6742   -0.2559    0.1417 H   0  0  0  0  0  0  0  0  0  0  0  0
   -6.1542    1.4384   -0.1906 H   0  0  0  0  0  0  0  0  0  0  0  0
   -6.1490    0.1044   -2.0513 H   0  0  0  0  0  0  0  0  0  0  0  0
  2  1  1  6
  2  3  1  0
  3  4  1  0
  4  5  1  0
  4  6  1  0
  6  7  1  1
  6  8  1  0
  8  9  1  0
  9 10  1  0
 10 11  1  0
 11 12  2  0
 12 13  1  0
 13 14  2  0
 13 15  1  0
 15 16  2  0
 16 17  1  0
 17  6  1  0
 17 11  1  0
 17 18  1  6
  8 19  1  0
 19  2  1  0
 19 20  1  0
 20 21  1  0
 21 22  1  0
 21 23  1  0
 23  2  1  0
 23 24  1  1
 23 25  1  0
 25 26  2  0
 25 27  1  0
 27 28  1  0
  1 29  1  0
  1 30  1  0
  1 31  1  0
  3 32  1  0
  3 33  1  0
  4 34  1  1
  5 35  1  0
  8 36  1  6
  9 37  1  0
  9 38  1  0
 10 39  1  0
 10 40  1  0
 12 41  1  0
 15 42  1  0
 16 43  1  0
 18 44  1  0
 18 45  1  0
 18 46  1  0
 19 47  1  1
 20 48  1  0
 20 49  1  0
 21 50  1  6
 22 51  1  0
 24 52  1  0
 27 53  1  0
 27 54  1  0
 28 55  1  0
M  END
> <ID>
HT2105

> <Class>
0.0

> <Clusters>
35

> <Fold>
2

$$$$