
     RDKit          3D

 32 32  0  0  0  0  0  0  0  0999 V2000
   -2.6676   -0.9911   -1.4316 C   0  0  0  0  0  0  0  0  0  0  0  0
   -2.2651   -0.4201   -0.1438 N   0  0  0  0  0  0  0  0  0  0  0  0
   -3.1457   -0.4497    0.9983 C   0  0  0  0  0  0  0  0  0  0  0  0
   -2.7675    0.0434    2.0961 O   0  0  0  0  0  0  0  0  0  0  0  0
   -4.5128   -1.0577    0.9137 C   0  0  0  0  0  0  0  0  0  0  0  0
   -0.9629    0.1744   -0.0220 C   0  0  0  0  0  0  0  0  0  0  0  0
    0.1369   -0.6215    0.3358 C   0  0  0  0  0  0  0  0  0  0  0  0
   -0.1277   -2.7033    0.7001 I   0  0  0  0  0  0  0  0  0  0  0  0
    1.4153   -0.0516    0.4355 C   0  0  0  0  0  0  0  0  0  0  0  0
    2.5295   -0.8763    0.7991 N   0  0  0  0  0  0  0  0  0  0  0  0
    3.5281   -1.2625   -0.1540 C   0  0  0  0  0  0  0  0  0  0  0  0
    3.4553   -0.8682   -1.3497 O   0  0  0  0  0  0  0  0  0  0  0  0
    4.6359   -2.1760    0.2563 C   0  0  0  0  0  0  0  0  0  0  0  0
    1.5946    1.3259    0.2067 C   0  0  0  0  0  0  0  0  0  0  0  0
    3.5178    2.1930    0.5536 I   0  0  0  0  0  0  0  0  0  0  0  0
    0.4918    2.1298   -0.1553 C   0  0  0  0  0  0  0  0  0  0  0  0
    0.6797    3.5710   -0.4074 C   0  0  0  0  0  0  0  0  0  0  0  0
    0.0089    4.4204    0.2381 O   0  0  0  0  0  0  0  0  0  0  0  0
    1.6025    3.9972   -1.3578 O   0  0  0  0  0  0  0  0  0  0  0  0
   -0.7891    1.5474   -0.2743 C   0  0  0  0  0  0  0  0  0  0  0  0
   -2.4771    2.7005   -0.8973 I   0  0  0  0  0  0  0  0  0  0  0  0
   -1.8601   -0.8764   -2.1869 H   0  0  0  0  0  0  0  0  0  0  0  0
   -2.8826   -2.0737   -1.3143 H   0  0  0  0  0  0  0  0  0  0  0  0
   -3.5727   -0.4712   -1.8091 H   0  0  0  0  0  0  0  0  0  0  0  0
   -4.4313   -2.1302    0.6409 H   0  0  0  0  0  0  0  0  0  0  0  0
   -5.1153   -0.5238    0.1499 H   0  0  0  0  0  0  0  0  0  0  0  0
   -5.0345   -0.9810    1.8915 H   0  0  0  0  0  0  0  0  0  0  0  0
    2.5269   -1.3302    1.7403 H   0  0  0  0  0  0  0  0  0  0  0  0
    5.4496   -2.1649   -0.4997 H   0  0  0  0  0  0  0  0  0  0  0  0
    4.2442   -3.2097    0.3544 H   0  0  0  0  0  0  0  0  0  0  0  0
    5.0510   -1.8477    1.2321 H   0  0  0  0  0  0  0  0  0  0  0  0
    1.7439    4.9838   -1.5390 H   0  0  0  0  0  0  0  0  0  0  0  0
  1  2  1  0
  2  3  1  0
  3  4  2  0
  3  5  1  0
  2  6  1  0
  6  7  2  0
  7  8  1  0
  7  9  1  0
  9 10  1  0
 10 11  1  0
 11 12  2  0
 11 13  1  0
  9 14  2  0
 14 15  1  0
 14 16  1  0
 16 17  1  0
 17 18  2  0
 17 19  1  0
 16 20  2  0
 20  6  1  0
 20 21  1  0
  1 22  1  0
  1 23  1  0
  1 24  1  0
  5 25  1  0
  5 26  1  0
  5 27  1  0
 10 28  1  0
 13 29  1  0
 13 30  1  0
 13 31  1  0
 19 32  1  0
M  END
> <ID>
HT3962

> <Class>
0.0

> <Clusters>
73

> <Fold>
2

$$$$