
     RDKit          3D

 29 28  0  0  0  0  0  0  0  0999 V2000
   -3.7034   -2.8569   -0.8261 C   0  0  0  0  0  0  0  0  0  0  0  0
   -3.1152   -1.6008   -0.2792 C   0  0  0  0  0  0  0  0  0  0  0  0
   -3.1471   -1.3802    0.9622 O   0  0  0  0  0  0  0  0  0  0  0  0
   -2.5387   -0.6772   -1.1576 O   0  0  0  0  0  0  0  0  0  0  0  0
   -1.8954    0.5220   -0.7268 C   0  0  0  0  0  0  0  0  0  0  0  0
   -0.5119    0.2292   -0.1299 C   0  0  0  0  0  0  0  0  0  0  0  0
    0.4172   -0.4100   -1.1657 C   0  0  0  0  0  0  0  0  0  0  0  0
    1.6788   -0.6928   -0.5597 O   0  0  0  0  0  0  0  0  0  0  0  0
    2.8866   -0.1044   -0.9518 C   0  0  0  0  0  0  0  0  0  0  0  0
    2.9225    0.7560   -1.8728 O   0  0  0  0  0  0  0  0  0  0  0  0
    4.1394   -0.4561   -0.2247 C   0  0  0  0  0  0  0  0  0  0  0  0
    0.0674    1.4584    0.3137 O   0  0  0  0  0  0  0  0  0  0  0  0
    0.4549    1.7143    1.6343 C   0  0  0  0  0  0  0  0  0  0  0  0
    0.2627    0.8644    2.5457 O   0  0  0  0  0  0  0  0  0  0  0  0
    1.0627    3.0322    1.9741 C   0  0  0  0  0  0  0  0  0  0  0  0
   -2.9165   -3.4326   -1.3562 H   0  0  0  0  0  0  0  0  0  0  0  0
   -4.5150   -2.6050   -1.5399 H   0  0  0  0  0  0  0  0  0  0  0  0
   -4.1213   -3.4829   -0.0091 H   0  0  0  0  0  0  0  0  0  0  0  0
   -1.7852    1.1994   -1.6006 H   0  0  0  0  0  0  0  0  0  0  0  0
   -2.5302    1.0439    0.0225 H   0  0  0  0  0  0  0  0  0  0  0  0
   -0.6322   -0.4833    0.7150 H   0  0  0  0  0  0  0  0  0  0  0  0
    0.5246    0.2668   -2.0414 H   0  0  0  0  0  0  0  0  0  0  0  0
   -0.0180   -1.3663   -1.5260 H   0  0  0  0  0  0  0  0  0  0  0  0
    4.0518   -1.4737    0.2101 H   0  0  0  0  0  0  0  0  0  0  0  0
    4.3094    0.2757    0.5922 H   0  0  0  0  0  0  0  0  0  0  0  0
    5.0043   -0.4369   -0.9210 H   0  0  0  0  0  0  0  0  0  0  0  0
    0.2736    3.7188    2.3447 H   0  0  0  0  0  0  0  0  0  0  0  0
    1.5370    3.4739    1.0728 H   0  0  0  0  0  0  0  0  0  0  0  0
    1.8373    2.9041    2.7596 H   0  0  0  0  0  0  0  0  0  0  0  0
  1  2  1  0
  2  3  2  0
  2  4  1  0
  4  5  1  0
  5  6  1  0
  6  7  1  0
  7  8  1  0
  8  9  1  0
  9 10  2  0
  9 11  1  0
  6 12  1  0
 12 13  1  0
 13 14  2  0
 13 15  1  0
  1 16  1  0
  1 17  1  0
  1 18  1  0
  5 19  1  0
  5 20  1  0
  6 21  1  0
  7 22  1  0
  7 23  1  0
 11 24  1  0
 11 25  1  0
 11 26  1  0
 15 27  1  0
 15 28  1  0
 15 29  1  0
M  END
> <ID>
HT2941

> <Class>
0.0

> <Clusters>
245

> <Fold>
2

$$$$