
     RDKit          3D

 62 66  0  0  0  0  0  0  0  0999 V2000
    5.5407   -1.8145    2.1033 C   0  0  0  0  0  0  0  0  0  0  0  0
    5.6343   -0.6731    1.1496 C   0  0  0  0  0  0  0  0  0  0  0  0
    6.5481   -0.6614    0.2810 O   0  0  0  0  0  0  0  0  0  0  0  0
    4.7096    0.3733    1.2335 O   0  0  0  0  0  0  0  0  0  0  0  0
    4.6595    1.4628    0.3090 C   0  0  0  0  0  0  0  0  0  0  0  0
    3.8027    2.5905    0.9034 C   0  0  0  0  0  0  0  0  0  0  0  0
    2.3240    2.1763    1.0564 C   0  0  0  0  0  0  0  0  0  0  0  0
    1.6595    1.6396   -0.2542 C   0  0  2  0  0  0  0  0  0  0  0  0
    1.5181    2.8178   -1.2552 C   0  0  0  0  0  0  0  0  0  0  0  0
    0.2301    1.0416    0.1354 C   0  0  0  0  0  0  0  0  0  0  0  0
   -0.9618    1.3779   -0.8273 C   0  0  0  0  0  0  0  0  0  0  0  0
   -2.3313    0.7976   -0.3617 C   0  0  0  0  0  0  0  0  0  0  0  0
   -2.2495   -0.7303   -0.1318 C   0  0  1  0  0  0  0  0  0  0  0  0
   -2.1477   -1.5073   -1.4803 C   0  0  0  0  0  0  0  0  0  0  0  0
   -1.0945   -0.9681    0.8597 C   0  0  0  0  0  0  0  0  0  0  0  0
   -1.3395   -2.3574    1.4258 C   0  0  0  0  0  0  0  0  0  0  0  0
   -2.8390   -2.3650    1.4307 C   0  0  0  0  0  0  0  0  0  0  0  0
   -3.3555   -1.3896    0.6656 C   0  0  0  0  0  0  0  0  0  0  0  0
   -4.8082   -1.0604    0.6174 C   0  0  0  0  0  0  0  0  0  0  0  0
   -5.4089   -0.5353   -0.5405 C   0  0  0  0  0  0  0  0  0  0  0  0
   -6.7703   -0.2285   -0.5518 C   0  0  0  0  0  0  0  0  0  0  0  0
   -7.5303   -0.4437    0.5965 C   0  0  0  0  0  0  0  0  0  0  0  0
   -6.9443   -0.9459    1.7136 N   0  0  0  0  0  0  0  0  0  0  0  0
   -5.6209   -1.2554    1.7510 C   0  0  0  0  0  0  0  0  0  0  0  0
    0.3054   -0.4850    0.4313 C   0  0  0  0  0  0  0  0  0  0  0  0
    0.9351   -1.2311   -0.7485 C   0  0  0  0  0  0  0  0  0  0  0  0
    2.3056   -0.7044   -1.0120 C   0  0  0  0  0  0  0  0  0  0  0  0
    2.6294    0.5953   -0.8485 C   0  0  0  0  0  0  0  0  0  0  0  0
    4.0777    1.0020   -1.0354 C   0  0  0  0  0  0  0  0  0  0  0  0
    6.4776   -1.8859    2.6941 H   0  0  0  0  0  0  0  0  0  0  0  0
    5.3875   -2.7588    1.5404 H   0  0  0  0  0  0  0  0  0  0  0  0
    4.6862   -1.6654    2.7964 H   0  0  0  0  0  0  0  0  0  0  0  0
    5.6873    1.8580    0.1480 H   0  0  0  0  0  0  0  0  0  0  0  0
    4.2046    2.8587    1.9045 H   0  0  0  0  0  0  0  0  0  0  0  0
    3.8871    3.5007    0.2735 H   0  0  0  0  0  0  0  0  0  0  0  0
    2.2727    1.3918    1.8438 H   0  0  0  0  0  0  0  0  0  0  0  0
    1.7533    3.0508    1.4399 H   0  0  0  0  0  0  0  0  0  0  0  0
    1.1040    2.4660   -2.2232 H   0  0  0  0  0  0  0  0  0  0  0  0
    2.4858    3.3026   -1.4846 H   0  0  0  0  0  0  0  0  0  0  0  0
    0.8631    3.6114   -0.8378 H   0  0  0  0  0  0  0  0  0  0  0  0
   -0.0747    1.5280    1.0910 H   0  0  0  0  0  0  0  0  0  0  0  0
   -0.7273    1.0333   -1.8539 H   0  0  0  0  0  0  0  0  0  0  0  0
   -1.0983    2.4777   -0.8811 H   0  0  0  0  0  0  0  0  0  0  0  0
   -3.0923    1.0384   -1.1315 H   0  0  0  0  0  0  0  0  0  0  0  0
   -2.6416    1.3058    0.5781 H   0  0  0  0  0  0  0  0  0  0  0  0
   -3.1478   -1.8162   -1.8470 H   0  0  0  0  0  0  0  0  0  0  0  0
   -1.5586   -2.4409   -1.3743 H   0  0  0  0  0  0  0  0  0  0  0  0
   -1.7186   -0.8999   -2.2992 H   0  0  0  0  0  0  0  0  0  0  0  0
   -1.3030   -0.3134    1.7481 H   0  0  0  0  0  0  0  0  0  0  0  0
   -0.9426   -3.1627    0.7733 H   0  0  0  0  0  0  0  0  0  0  0  0
   -0.9356   -2.4513    2.4570 H   0  0  0  0  0  0  0  0  0  0  0  0
   -3.4248   -3.0354    2.0455 H   0  0  0  0  0  0  0  0  0  0  0  0
   -4.8442   -0.3752   -1.4454 H   0  0  0  0  0  0  0  0  0  0  0  0
   -7.2331    0.1703   -1.4453 H   0  0  0  0  0  0  0  0  0  0  0  0
   -8.5866   -0.2100    0.6009 H   0  0  0  0  0  0  0  0  0  0  0  0
   -5.2034   -1.6338    2.6743 H   0  0  0  0  0  0  0  0  0  0  0  0
    0.9745   -0.6346    1.3099 H   0  0  0  0  0  0  0  0  0  0  0  0
    0.9948   -2.3178   -0.5274 H   0  0  0  0  0  0  0  0  0  0  0  0
    0.3759   -1.0883   -1.6853 H   0  0  0  0  0  0  0  0  0  0  0  0
    3.0563   -1.4174   -1.3423 H   0  0  0  0  0  0  0  0  0  0  0  0
    4.1498    1.8234   -1.7772 H   0  0  0  0  0  0  0  0  0  0  0  0
    4.6938    0.1718   -1.4436 H   0  0  0  0  0  0  0  0  0  0  0  0
  1  2  1  0
  2  3  2  0
  2  4  1  0
  4  5  1  0
  5  6  1  0
  6  7  1  0
  7  8  1  0
  8  9  1  6
  8 10  1  0
 10 11  1  0
 11 12  1  0
 12 13  1  0
 13 14  1  6
 13 15  1  0
 15 16  1  0
 16 17  1  0
 17 18  2  0
 18 13  1  0
 18 19  1  0
 19 20  2  0
 20 21  1  0
 21 22  2  0
 22 23  1  0
 23 24  2  0
 24 19  1  0
 15 25  1  0
 25 10  1  0
 25 26  1  0
 26 27  1  0
 27 28  2  0
 28  8  1  0
 28 29  1  0
 29  5  1  0
  1 30  1  0
  1 31  1  0
  1 32  1  0
  5 33  1  0
  6 34  1  0
  6 35  1  0
  7 36  1  0
  7 37  1  0
  9 38  1  0
  9 39  1  0
  9 40  1  0
 10 41  1  0
 11 42  1  0
 11 43  1  0
 12 44  1  0
 12 45  1  0
 14 46  1  0
 14 47  1  0
 14 48  1  0
 15 49  1  0
 16 50  1  0
 16 51  1  0
 17 52  1  0
 20 53  1  0
 21 54  1  0
 22 55  1  0
 24 56  1  0
 25 57  1  0
 26 58  1  0
 26 59  1  0
 27 60  1  0
 29 61  1  0
 29 62  1  0
M  END
> <ID>
HT0044

> <Class>
0.0

> <Clusters>
69

> <Fold>
2

$$$$