
     RDKit          3D

 44 45  0  0  0  0  0  0  0  0999 V2000
   -2.5731   -3.4328   -2.1568 C   0  0  0  0  0  0  0  0  0  0  0  0
   -2.6304   -2.1883   -1.2587 C   0  0  0  0  0  0  0  0  0  0  0  0
   -2.6560   -2.6526    0.2126 C   0  0  0  0  0  0  0  0  0  0  0  0
   -3.8432   -1.4890   -1.5782 O   0  0  0  0  0  0  0  0  0  0  0  0
   -4.3159   -0.2724   -1.0480 C   0  0  0  0  0  0  0  0  0  0  0  0
   -3.5537    0.5628   -0.2043 C   0  0  0  0  0  0  0  0  0  0  0  0
   -4.0933    1.7592    0.2789 C   0  0  0  0  0  0  0  0  0  0  0  0
   -5.3914    2.1383   -0.0733 C   0  0  0  0  0  0  0  0  0  0  0  0
   -6.0642    3.6400    0.5344 Cl  0  0  0  0  0  0  0  0  0  0  0  0
   -6.1508    1.3200   -0.9133 C   0  0  0  0  0  0  0  0  0  0  0  0
   -5.6138    0.1239   -1.3979 C   0  0  0  0  0  0  0  0  0  0  0  0
   -1.4225   -1.3321   -1.5680 C   0  0  0  0  0  0  0  0  0  0  0  0
   -1.3432   -0.7500   -2.6852 O   0  0  0  0  0  0  0  0  0  0  0  0
   -0.3975   -1.1895   -0.6261 O   0  0  0  0  0  0  0  0  0  0  0  0
    0.7444   -0.3705   -0.8509 C   0  0  0  0  0  0  0  0  0  0  0  0
    1.6501   -0.4148    0.3767 C   0  0  0  0  0  0  0  0  0  0  0  0
    2.8396    0.4144    0.1820 N   0  0  0  0  0  0  0  0  0  0  0  0
    3.8389    0.5330    1.2069 C   0  0  0  0  0  0  0  0  0  0  0  0
    3.6189    0.0419    2.3483 O   0  0  0  0  0  0  0  0  0  0  0  0
    5.1186    1.2388    0.9552 C   0  0  0  0  0  0  0  0  0  0  0  0
    5.8514    1.7789    2.0257 C   0  0  0  0  0  0  0  0  0  0  0  0
    7.0584    2.4390    1.7896 C   0  0  0  0  0  0  0  0  0  0  0  0
    7.5333    2.5486    0.4830 C   0  0  0  0  0  0  0  0  0  0  0  0
    6.8260    2.0105   -0.5446 N   0  0  0  0  0  0  0  0  0  0  0  0
    5.6457    1.3654   -0.3429 C   0  0  0  0  0  0  0  0  0  0  0  0
   -3.4469   -4.0915   -1.9622 H   0  0  0  0  0  0  0  0  0  0  0  0
   -2.5993   -3.1404   -3.2289 H   0  0  0  0  0  0  0  0  0  0  0  0
   -1.6428   -4.0132   -1.9712 H   0  0  0  0  0  0  0  0  0  0  0  0
   -1.7753   -3.2926    0.4377 H   0  0  0  0  0  0  0  0  0  0  0  0
   -2.6437   -1.7972    0.9160 H   0  0  0  0  0  0  0  0  0  0  0  0
   -3.5770   -3.2419    0.4105 H   0  0  0  0  0  0  0  0  0  0  0  0
   -2.5451    0.3159    0.0830 H   0  0  0  0  0  0  0  0  0  0  0  0
   -3.4992    2.3926    0.9255 H   0  0  0  0  0  0  0  0  0  0  0  0
   -7.1562    1.6090   -1.1920 H   0  0  0  0  0  0  0  0  0  0  0  0
   -6.2112   -0.5022   -2.0486 H   0  0  0  0  0  0  0  0  0  0  0  0
    0.4193    0.6771   -1.0345 H   0  0  0  0  0  0  0  0  0  0  0  0
    1.3008   -0.7437   -1.7383 H   0  0  0  0  0  0  0  0  0  0  0  0
    1.0842   -0.0475    1.2603 H   0  0  0  0  0  0  0  0  0  0  0  0
    1.9613   -1.4658    0.5621 H   0  0  0  0  0  0  0  0  0  0  0  0
    2.9403    0.9648   -0.7003 H   0  0  0  0  0  0  0  0  0  0  0  0
    5.4859    1.7009    3.0421 H   0  0  0  0  0  0  0  0  0  0  0  0
    7.6203    2.8620    2.6123 H   0  0  0  0  0  0  0  0  0  0  0  0
    8.4677    3.0568    0.2855 H   0  0  0  0  0  0  0  0  0  0  0  0
    5.1404    0.9340   -1.1956 H   0  0  0  0  0  0  0  0  0  0  0  0
  1  2  1  0
  2  3  1  0
  2  4  1  0
  4  5  1  0
  5  6  2  0
  6  7  1  0
  7  8  2  0
  8  9  1  0
  8 10  1  0
 10 11  2  0
 11  5  1  0
  2 12  1  0
 12 13  2  0
 12 14  1  0
 14 15  1  0
 15 16  1  0
 16 17  1  0
 17 18  1  0
 18 19  2  0
 18 20  1  0
 20 21  2  0
 21 22  1  0
 22 23  2  0
 23 24  1  0
 24 25  2  0
 25 20  1  0
  1 26  1  0
  1 27  1  0
  1 28  1  0
  3 29  1  0
  3 30  1  0
  3 31  1  0
  6 32  1  0
  7 33  1  0
 10 34  1  0
 11 35  1  0
 15 36  1  0
 15 37  1  0
 16 38  1  0
 16 39  1  0
 17 40  1  0
 21 41  1  0
 22 42  1  0
 23 43  1  0
 25 44  1  0
M  END
> <ID>
HT1668

> <Class>
0.0

> <Clusters>
98

> <Fold>
2

$$$$