
     RDKit          3D

 40 40  0  0  0  0  0  0  0  0999 V2000
    6.2473   -0.5715   -0.3592 C   0  0  0  0  0  0  0  0  0  0  0  0
    5.3638   -1.8184   -0.3094 C   0  0  0  0  0  0  0  0  0  0  0  0
    4.1977   -1.6671    0.6815 C   0  0  0  0  0  0  0  0  0  0  0  0
    3.1005   -0.7497    0.2085 C   0  0  0  0  0  0  0  0  0  0  0  0
    3.1274   -0.2517   -0.9511 O   0  0  0  0  0  0  0  0  0  0  0  0
    2.0087   -0.4536    1.0885 N   0  0  0  0  0  0  0  0  0  0  0  0
    0.9728    0.4647    0.7216 C   0  0  0  0  0  0  0  0  0  0  0  0
    0.9989    1.7694    1.2304 C   0  0  0  0  0  0  0  0  0  0  0  0
    2.5474    2.4188    2.5215 I   0  0  0  0  0  0  0  0  0  0  0  0
    0.0102    2.6795    0.8669 C   0  0  0  0  0  0  0  0  0  0  0  0
   -1.0260    2.3063    0.0090 C   0  0  0  0  0  0  0  0  0  0  0  0
   -2.4290    3.8323   -0.4709 I   0  0  0  0  0  0  0  0  0  0  0  0
   -1.0913    0.9824   -0.4934 C   0  0  0  0  0  0  0  0  0  0  0  0
   -2.2414    0.5459   -1.3837 C   0  0  0  0  0  0  0  0  0  0  0  0
   -3.3243   -0.2475   -0.6137 C   0  0  0  0  0  0  0  0  0  0  0  0
   -4.1035    0.6454    0.3768 C   0  0  0  0  0  0  0  0  0  0  0  0
   -5.0825   -0.1546    1.2375 C   0  0  0  0  0  0  0  0  0  0  0  0
   -4.2601   -0.9001   -1.5971 C   0  0  0  0  0  0  0  0  0  0  0  0
   -4.9544   -0.1972   -2.3808 O   0  0  0  0  0  0  0  0  0  0  0  0
   -4.3584   -2.2874   -1.6406 O   0  0  0  0  0  0  0  0  0  0  0  0
   -0.0724    0.0607   -0.1337 C   0  0  0  0  0  0  0  0  0  0  0  0
   -0.0753   -1.9577   -0.8462 I   0  0  0  0  0  0  0  0  0  0  0  0
    7.0863   -0.7409   -1.0665 H   0  0  0  0  0  0  0  0  0  0  0  0
    5.6695    0.3104   -0.7052 H   0  0  0  0  0  0  0  0  0  0  0  0
    6.6701   -0.3586    0.6456 H   0  0  0  0  0  0  0  0  0  0  0  0
    4.9808   -2.0526   -1.3265 H   0  0  0  0  0  0  0  0  0  0  0  0
    5.9928   -2.6758    0.0143 H   0  0  0  0  0  0  0  0  0  0  0  0
    4.5851   -1.2985    1.6561 H   0  0  0  0  0  0  0  0  0  0  0  0
    3.7513   -2.6690    0.8581 H   0  0  0  0  0  0  0  0  0  0  0  0
    2.0478   -0.7885    2.0774 H   0  0  0  0  0  0  0  0  0  0  0  0
    0.0508    3.6903    1.2519 H   0  0  0  0  0  0  0  0  0  0  0  0
   -1.8352   -0.0791   -2.2075 H   0  0  0  0  0  0  0  0  0  0  0  0
   -2.7063    1.4086   -1.9012 H   0  0  0  0  0  0  0  0  0  0  0  0
   -2.8269   -1.0514   -0.0297 H   0  0  0  0  0  0  0  0  0  0  0  0
   -4.6615    1.4345   -0.1731 H   0  0  0  0  0  0  0  0  0  0  0  0
   -3.3901    1.1459    1.0650 H   0  0  0  0  0  0  0  0  0  0  0  0
   -4.5457   -0.9537    1.7918 H   0  0  0  0  0  0  0  0  0  0  0  0
   -5.5670    0.5218    1.9728 H   0  0  0  0  0  0  0  0  0  0  0  0
   -5.8752   -0.6118    0.6088 H   0  0  0  0  0  0  0  0  0  0  0  0
   -4.9827   -2.7436   -2.2949 H   0  0  0  0  0  0  0  0  0  0  0  0
  1  2  1  0
  2  3  1  0
  3  4  1  0
  4  5  2  0
  4  6  1  0
  6  7  1  0
  7  8  2  0
  8  9  1  0
  8 10  1  0
 10 11  2  0
 11 12  1  0
 11 13  1  0
 13 14  1  0
 14 15  1  0
 15 16  1  0
 16 17  1  0
 15 18  1  0
 18 19  2  0
 18 20  1  0
 13 21  2  0
 21  7  1  0
 21 22  1  0
  1 23  1  0
  1 24  1  0
  1 25  1  0
  2 26  1  0
  2 27  1  0
  3 28  1  0
  3 29  1  0
  6 30  1  0
 10 31  1  0
 14 32  1  0
 14 33  1  0
 15 34  1  0
 16 35  1  0
 16 36  1  0
 17 37  1  0
 17 38  1  0
 17 39  1  0
 20 40  1  0
M  END
> <ID>
HT2148

> <Class>
0.0

> <Clusters>
135

> <Fold>
2

$$$$