
     RDKit          3D

 48 51  0  0  0  0  0  0  0  0999 V2000
    5.8014    0.6019   -1.6235 C   0  0  0  0  0  0  0  0  0  0  0  0
    4.5173    0.8163   -0.9387 N   0  0  0  0  0  0  0  0  0  0  0  0
    3.4352    1.1372   -1.9028 C   0  0  0  0  0  0  0  0  0  0  0  0
    2.5186   -0.0670   -2.1773 C   0  0  0  0  0  0  0  0  0  0  0  0
    1.8728   -0.5734   -0.9390 N   0  0  0  0  0  0  0  0  0  0  0  0
    0.5217    0.0052   -0.7586 C   0  0  0  0  0  0  0  0  0  0  0  0
   -0.3070   -0.7868    0.2264 C   0  0  0  0  0  0  0  0  0  0  0  0
    0.0789   -1.9353    0.5792 O   0  0  0  0  0  0  0  0  0  0  0  0
   -1.5804   -0.2912    0.6891 N   0  0  0  0  0  0  0  0  0  0  0  0
   -2.5636   -1.1881    1.2125 C   0  0  0  0  0  0  0  0  0  0  0  0
   -2.3233   -1.8486    2.4275 C   0  0  0  0  0  0  0  0  0  0  0  0
   -3.2653   -2.7403    2.9435 C   0  0  0  0  0  0  0  0  0  0  0  0
   -4.4500   -2.9831    2.2475 C   0  0  0  0  0  0  0  0  0  0  0  0
   -4.6976   -2.3293    1.0378 C   0  0  0  0  0  0  0  0  0  0  0  0
   -3.7701   -1.4115    0.5179 C   0  0  0  0  0  0  0  0  0  0  0  0
   -4.0362   -0.8013   -0.7579 N   0  0  0  0  0  0  0  0  0  0  0  0
   -3.8546    0.5917   -1.0705 C   0  0  0  0  0  0  0  0  0  0  0  0
   -4.4473    1.0629   -2.0785 O   0  0  0  0  0  0  0  0  0  0  0  0
   -3.0213    1.4999   -0.2554 C   0  0  0  0  0  0  0  0  0  0  0  0
   -3.1883    2.8841   -0.2616 C   0  0  0  0  0  0  0  0  0  0  0  0
   -2.0442    3.5661    0.7658 S   0  0  0  0  0  0  0  0  0  0  0  0
   -1.3165    2.1247    1.2253 C   0  0  0  0  0  0  0  0  0  0  0  0
   -0.1719    2.0185    2.1813 C   0  0  0  0  0  0  0  0  0  0  0  0
   -1.9516    1.0826    0.5502 C   0  0  0  0  0  0  0  0  0  0  0  0
    2.7093   -0.3784    0.2760 C   0  0  0  0  0  0  0  0  0  0  0  0
    4.2046   -0.3334   -0.0605 C   0  0  0  0  0  0  0  0  0  0  0  0
    6.5969    0.3620   -0.8850 H   0  0  0  0  0  0  0  0  0  0  0  0
    5.7263   -0.2278   -2.3612 H   0  0  0  0  0  0  0  0  0  0  0  0
    6.1102    1.5304   -2.1500 H   0  0  0  0  0  0  0  0  0  0  0  0
    3.8379    1.5161   -2.8694 H   0  0  0  0  0  0  0  0  0  0  0  0
    2.8209    1.9605   -1.4794 H   0  0  0  0  0  0  0  0  0  0  0  0
    3.1274   -0.8850   -2.6188 H   0  0  0  0  0  0  0  0  0  0  0  0
    1.7749    0.2099   -2.9567 H   0  0  0  0  0  0  0  0  0  0  0  0
    0.6006    1.0682   -0.4500 H   0  0  0  0  0  0  0  0  0  0  0  0
   -0.0438   -0.0147   -1.7155 H   0  0  0  0  0  0  0  0  0  0  0  0
   -1.4053   -1.6679    2.9726 H   0  0  0  0  0  0  0  0  0  0  0  0
   -3.0745   -3.2469    3.8807 H   0  0  0  0  0  0  0  0  0  0  0  0
   -5.1763   -3.6810    2.6436 H   0  0  0  0  0  0  0  0  0  0  0  0
   -5.6183   -2.5328    0.5053 H   0  0  0  0  0  0  0  0  0  0  0  0
   -4.6233   -1.3493   -1.4276 H   0  0  0  0  0  0  0  0  0  0  0  0
   -3.9334    3.4328   -0.8224 H   0  0  0  0  0  0  0  0  0  0  0  0
    0.7632    2.3399    1.6786 H   0  0  0  0  0  0  0  0  0  0  0  0
   -0.3559    2.6773    3.0551 H   0  0  0  0  0  0  0  0  0  0  0  0
   -0.0546    0.9763    2.5445 H   0  0  0  0  0  0  0  0  0  0  0  0
    2.4489    0.5643    0.8084 H   0  0  0  0  0  0  0  0  0  0  0  0
    2.5354   -1.2209    0.9779 H   0  0  0  0  0  0  0  0  0  0  0  0
    4.7831   -0.2353    0.8835 H   0  0  0  0  0  0  0  0  0  0  0  0
    4.4892   -1.2996   -0.5378 H   0  0  0  0  0  0  0  0  0  0  0  0
  1  2  1  0
  2  3  1  0
  3  4  1  0
  4  5  1  0
  5  6  1  0
  6  7  1  0
  7  8  2  0
  7  9  1  0
  9 10  1  0
 10 11  2  0
 11 12  1  0
 12 13  2  0
 13 14  1  0
 14 15  2  0
 15 10  1  0
 15 16  1  0
 16 17  1  0
 17 18  2  0
 17 19  1  0
 19 20  2  0
 20 21  1  0
 21 22  1  0
 22 23  1  0
 22 24  2  0
 24  9  1  0
 24 19  1  0
  5 25  1  0
 25 26  1  0
 26  2  1  0
  1 27  1  0
  1 28  1  0
  1 29  1  0
  3 30  1  0
  3 31  1  0
  4 32  1  0
  4 33  1  0
  6 34  1  0
  6 35  1  0
 11 36  1  0
 12 37  1  0
 13 38  1  0
 14 39  1  0
 16 40  1  0
 20 41  1  0
 23 42  1  0
 23 43  1  0
 23 44  1  0
 25 45  1  0
 25 46  1  0
 26 47  1  0
 26 48  1  0
M  END
> <ID>
HT1993

> <Class>
0.0

> <Clusters>
205

> <Fold>
2

$$$$