
     RDKit          3D

 27 28  0  0  0  0  0  0  0  0999 V2000
    5.4763    0.7683   -0.6501 N   0  0  0  0  0  0  0  0  0  0  0  0
    4.0809    0.5193   -0.4791 C   0  0  0  0  0  0  0  0  0  0  0  0
    3.1443    1.5259   -0.7332 C   0  0  0  0  0  0  0  0  0  0  0  0
    1.7865    1.2579   -0.5588 C   0  0  0  0  0  0  0  0  0  0  0  0
    1.3672   -0.0136   -0.1314 C   0  0  0  0  0  0  0  0  0  0  0  0
   -0.0216   -0.3170    0.0562 N   0  0  0  0  0  0  0  0  0  0  0  0
   -0.9390    0.5402   -0.1522 N   0  0  0  0  0  0  0  0  0  0  0  0
   -2.3252    0.2327    0.0365 C   0  0  0  0  0  0  0  0  0  0  0  0
   -3.2808    1.2267   -0.2124 C   0  0  0  0  0  0  0  0  0  0  0  0
   -4.6420    0.9575   -0.0373 C   0  0  0  0  0  0  0  0  0  0  0  0
   -5.0566   -0.3077    0.3878 C   0  0  0  0  0  0  0  0  0  0  0  0
   -4.1106   -1.3055    0.6385 C   0  0  0  0  0  0  0  0  0  0  0  0
   -2.7484   -1.0401    0.4646 C   0  0  0  0  0  0  0  0  0  0  0  0
    2.3420   -0.9991    0.1136 C   0  0  0  0  0  0  0  0  0  0  0  0
    1.9738   -2.3105    0.5501 N   0  0  0  0  0  0  0  0  0  0  0  0
    3.6592   -0.7059   -0.0661 N   0  0  0  0  0  0  0  0  0  0  0  0
    5.8207    1.7022   -0.9665 H   0  0  0  0  0  0  0  0  0  0  0  0
    6.1721    0.0136   -0.4591 H   0  0  0  0  0  0  0  0  0  0  0  0
    3.4633    2.5068   -1.0627 H   0  0  0  0  0  0  0  0  0  0  0  0
    1.0671    2.0419   -0.7574 H   0  0  0  0  0  0  0  0  0  0  0  0
   -2.9687    2.2098   -0.5421 H   0  0  0  0  0  0  0  0  0  0  0  0
   -5.3752    1.7297   -0.2313 H   0  0  0  0  0  0  0  0  0  0  0  0
   -6.1104   -0.5148    0.5229 H   0  0  0  0  0  0  0  0  0  0  0  0
   -4.4328   -2.2850    0.9677 H   0  0  0  0  0  0  0  0  0  0  0  0
   -2.0303   -1.8253    0.6636 H   0  0  0  0  0  0  0  0  0  0  0  0
    0.9765   -2.5800    0.7011 H   0  0  0  0  0  0  0  0  0  0  0  0
    2.7118   -3.0278    0.7265 H   0  0  0  0  0  0  0  0  0  0  0  0
  1  2  1  0
  2  3  2  0
  3  4  1  0
  4  5  2  0
  5  6  1  0
  6  7  2  3
  7  8  1  0
  8  9  2  0
  9 10  1  0
 10 11  2  0
 11 12  1  0
 12 13  2  0
 13  8  1  0
  5 14  1  0
 14 15  1  0
 14 16  2  0
 16  2  1  0
  1 17  1  0
  1 18  1  0
  3 19  1  0
  4 20  1  0
  9 21  1  0
 10 22  1  0
 11 23  1  0
 12 24  1  0
 13 25  1  0
 15 26  1  0
 15 27  1  0
M  END
> <ID>
HT1642

> <Class>
0.0

> <Clusters>
72

> <Fold>
2

$$$$