
     RDKit          3D

 82 84  0  0  0  0  0  0  0  0999 V2000
    6.7830   -1.8291   -0.0462 C   0  0  0  0  0  0  0  0  0  0  0  0
    6.4323   -1.6901    1.4501 C   0  0  0  0  0  0  0  0  0  0  0  0
    6.7730   -3.0160    2.1600 C   0  0  0  0  0  0  0  0  0  0  0  0
    7.2646   -0.5611    2.0926 C   0  0  0  0  0  0  0  0  0  0  0  0
    4.9890   -1.4246    1.6044 N   0  0  0  0  0  0  0  0  0  0  0  0
    4.2758   -0.3849    0.9174 C   0  0  0  0  0  0  0  0  0  0  0  0
    4.8215    0.7299    0.7087 O   0  0  0  0  0  0  0  0  0  0  0  0
    2.9317   -0.6282    0.4766 N   0  0  0  0  0  0  0  0  0  0  0  0
    2.1783    0.3015   -0.3780 C   0  0  2  0  0  0  0  0  0  0  0  0
    0.7202    0.2975    0.0500 C   0  0  0  0  0  0  0  0  0  0  0  0
    0.1187   -0.8057    0.1667 O   0  0  0  0  0  0  0  0  0  0  0  0
   -0.0061    1.5206    0.2951 N   0  0  0  0  0  0  0  0  0  0  0  0
    0.6136    2.7881    0.6533 C   0  0  0  0  0  0  0  0  0  0  0  0
   -0.5215    3.7553    0.9892 C   0  0  1  0  0  0  0  0  0  0  0  0
   -1.8325    2.9846    0.7844 C   0  0  1  0  0  0  0  0  0  0  0  0
   -1.4603    1.5663    0.3453 C   0  0  1  0  0  0  0  0  0  0  0  0
   -2.0150    1.2691   -1.0308 C   0  0  0  0  0  0  0  0  0  0  0  0
   -1.7468    2.0615   -1.9743 O   0  0  0  0  0  0  0  0  0  0  0  0
   -2.7782    0.0831   -1.3209 N   0  0  0  0  0  0  0  0  0  0  0  0
   -3.3157   -0.8339   -0.3032 C   0  0  0  0  0  0  0  0  0  0  0  0
   -3.8380   -2.1423   -0.9373 C   0  0  0  0  0  0  0  0  0  0  0  0
   -5.0897   -1.9805   -1.8267 C   0  0  0  0  0  0  0  0  0  0  0  0
   -5.4428   -3.2561   -2.5912 C   0  0  0  0  0  0  0  0  0  0  0  0
   -6.7607   -3.3489   -1.8348 C   0  0  0  0  0  0  0  0  0  0  0  0
   -6.4178   -2.0793   -1.0688 C   0  0  0  0  0  0  0  0  0  0  0  0
   -4.3523   -0.1625    0.5768 C   0  0  0  0  0  0  0  0  0  0  0  0
   -4.4140   -0.5047    1.7896 O   0  0  0  0  0  0  0  0  0  0  0  0
   -5.2980    0.8594    0.0749 C   0  0  0  0  0  0  0  0  0  0  0  0
   -5.2869    1.1970   -1.1391 O   0  0  0  0  0  0  0  0  0  0  0  0
   -6.2470    1.4647    0.9548 N   0  0  0  0  0  0  0  0  0  0  0  0
   -1.4400    3.4716    2.1833 C   0  0  0  0  0  0  0  0  0  0  0  0
   -2.2178    4.6909    2.6915 C   0  0  0  0  0  0  0  0  0  0  0  0
   -0.9859    2.4574    3.2552 C   0  0  0  0  0  0  0  0  0  0  0  0
    2.3573   -0.0441   -1.9052 C   0  0  0  0  0  0  0  0  0  0  0  0
    3.8267    0.1776   -2.3262 C   0  0  0  0  0  0  0  0  0  0  0  0
    1.9808   -1.5082   -2.2231 C   0  0  0  0  0  0  0  0  0  0  0  0
    1.4835    0.8952   -2.7692 C   0  0  0  0  0  0  0  0  0  0  0  0
    6.6736   -0.8526   -0.5684 H   0  0  0  0  0  0  0  0  0  0  0  0
    6.0986   -2.5663   -0.5231 H   0  0  0  0  0  0  0  0  0  0  0  0
    7.8353   -2.1775   -0.1858 H   0  0  0  0  0  0  0  0  0  0  0  0
    7.8422   -3.2849    2.0177 H   0  0  0  0  0  0  0  0  0  0  0  0
    6.1511   -3.8507    1.7530 H   0  0  0  0  0  0  0  0  0  0  0  0
    6.5738   -2.9303    3.2533 H   0  0  0  0  0  0  0  0  0  0  0  0
    6.9498   -0.3938    3.1462 H   0  0  0  0  0  0  0  0  0  0  0  0
    8.3453   -0.8213    2.0816 H   0  0  0  0  0  0  0  0  0  0  0  0
    7.1483    0.3928    1.5376 H   0  0  0  0  0  0  0  0  0  0  0  0
    4.3986   -2.1249    2.1179 H   0  0  0  0  0  0  0  0  0  0  0  0
    2.5169   -1.5709    0.6863 H   0  0  0  0  0  0  0  0  0  0  0  0
    2.5786    1.3228   -0.2234 H   0  0  0  0  0  0  0  0  0  0  0  0
    1.2899    2.6614    1.5241 H   0  0  0  0  0  0  0  0  0  0  0  0
    1.1804    3.1877   -0.2138 H   0  0  0  0  0  0  0  0  0  0  0  0
   -0.5407    4.7627    0.5150 H   0  0  0  0  0  0  0  0  0  0  0  0
   -2.5825    3.5707    0.2108 H   0  0  0  0  0  0  0  0  0  0  0  0
   -1.8316    0.8571    1.1059 H   0  0  0  0  0  0  0  0  0  0  0  0
   -2.9068   -0.1441   -2.3310 H   0  0  0  0  0  0  0  0  0  0  0  0
   -2.4770   -1.1508    0.3515 H   0  0  0  0  0  0  0  0  0  0  0  0
   -4.0314   -2.8816   -0.1299 H   0  0  0  0  0  0  0  0  0  0  0  0
   -3.0155   -2.5634   -1.5574 H   0  0  0  0  0  0  0  0  0  0  0  0
   -5.0446   -1.1054   -2.5116 H   0  0  0  0  0  0  0  0  0  0  0  0
   -5.5912   -3.0767   -3.6770 H   0  0  0  0  0  0  0  0  0  0  0  0
   -4.7777   -4.1212   -2.3700 H   0  0  0  0  0  0  0  0  0  0  0  0
   -6.8035   -4.2480   -1.1828 H   0  0  0  0  0  0  0  0  0  0  0  0
   -7.6445   -3.2241   -2.4985 H   0  0  0  0  0  0  0  0  0  0  0  0
   -7.1061   -1.2424   -1.3187 H   0  0  0  0  0  0  0  0  0  0  0  0
   -6.3183   -2.2590    0.0234 H   0  0  0  0  0  0  0  0  0  0  0  0
   -6.9260    2.1656    0.5857 H   0  0  0  0  0  0  0  0  0  0  0  0
   -6.2654    1.2375    1.9755 H   0  0  0  0  0  0  0  0  0  0  0  0
   -2.5572    5.3474    1.8579 H   0  0  0  0  0  0  0  0  0  0  0  0
   -1.5667    5.2854    3.3640 H   0  0  0  0  0  0  0  0  0  0  0  0
   -3.1122    4.3557    3.2577 H   0  0  0  0  0  0  0  0  0  0  0  0
   -0.3196    2.9666    3.9805 H   0  0  0  0  0  0  0  0  0  0  0  0
   -1.8747    2.0774    3.8020 H   0  0  0  0  0  0  0  0  0  0  0  0
   -0.4372    1.5845    2.8489 H   0  0  0  0  0  0  0  0  0  0  0  0
    4.1469    1.2259   -2.1323 H   0  0  0  0  0  0  0  0  0  0  0  0
    4.5055   -0.5130   -1.7846 H   0  0  0  0  0  0  0  0  0  0  0  0
    3.9613   -0.0237   -3.4122 H   0  0  0  0  0  0  0  0  0  0  0  0
    2.6148   -2.2165   -1.6517 H   0  0  0  0  0  0  0  0  0  0  0  0
    0.9152   -1.7204   -2.0000 H   0  0  0  0  0  0  0  0  0  0  0  0
    2.1439   -1.7198   -3.2997 H   0  0  0  0  0  0  0  0  0  0  0  0
    0.4044    0.6552   -2.6470 H   0  0  0  0  0  0  0  0  0  0  0  0
    1.7292    0.7969   -3.8489 H   0  0  0  0  0  0  0  0  0  0  0  0
    1.6437    1.9588   -2.4734 H   0  0  0  0  0  0  0  0  0  0  0  0
  1  2  1  0
  2  3  1  0
  2  4  1  0
  2  5  1  0
  5  6  1  0
  6  7  2  0
  6  8  1  0
  8  9  1  0
  9 10  1  0
 10 11  2  0
 10 12  1  0
 12 13  1  0
 14 13  1  0
 14 15  1  0
 15 16  1  0
 16 12  1  0
 16 17  1  0
 17 18  2  0
 17 19  1  0
 19 20  1  0
 20 21  1  0
 21 22  1  0
 22 23  1  0
 23 24  1  0
 24 25  1  0
 25 22  1  0
 20 26  1  0
 26 27  2  0
 26 28  1  0
 28 29  2  0
 28 30  1  0
 15 31  1  0
 31 14  1  0
 31 32  1  0
 31 33  1  0
  9 34  1  0
 34 35  1  0
 34 36  1  0
 34 37  1  0
  1 38  1  0
  1 39  1  0
  1 40  1  0
  3 41  1  0
  3 42  1  0
  3 43  1  0
  4 44  1  0
  4 45  1  0
  4 46  1  0
  5 47  1  0
  8 48  1  0
  9 49  1  6
 13 50  1  0
 13 51  1  0
 14 52  1  6
 15 53  1  6
 16 54  1  1
 19 55  1  0
 20 56  1  0
 21 57  1  0
 21 58  1  0
 22 59  1  0
 23 60  1  0
 23 61  1  0
 24 62  1  0
 24 63  1  0
 25 64  1  0
 25 65  1  0
 30 66  1  0
 30 67  1  0
 32 68  1  0
 32 69  1  0
 32 70  1  0
 33 71  1  0
 33 72  1  0
 33 73  1  0
 35 74  1  0
 35 75  1  0
 35 76  1  0
 36 77  1  0
 36 78  1  0
 36 79  1  0
 37 80  1  0
 37 81  1  0
 37 82  1  0
M  END
> <ID>
HT0297

> <Class>
0.0

> <Clusters>
214

> <Fold>
2

$$$$