
     RDKit          3D

 30 32  0  0  0  0  0  0  0  0999 V2000
    0.6813   -0.6245    1.6179 C   0  0  0  0  0  0  0  0  0  0  0  0
    1.8485   -0.1668    0.7978 C   0  0  0  0  0  0  0  0  0  0  0  0
    2.4464    0.9554    0.9991 N   0  0  0  0  0  0  0  0  0  0  0  0
    3.5395    1.1056    0.0457 C   0  0  0  0  0  0  0  0  0  0  0  0
    3.5125   -0.1764   -0.8021 C   0  0  0  0  0  0  0  0  0  0  0  0
    2.4052   -0.9315   -0.2524 N   0  0  0  0  0  0  0  0  0  0  0  0
   -0.5219   -0.8842    0.7364 C   0  0  0  0  0  0  0  0  0  0  0  0
   -0.8859   -2.2191    0.4834 C   0  0  0  0  0  0  0  0  0  0  0  0
   -1.9709   -2.5228   -0.3372 C   0  0  0  0  0  0  0  0  0  0  0  0
   -2.7155   -1.5032   -0.9243 C   0  0  0  0  0  0  0  0  0  0  0  0
   -2.3820   -0.1621   -0.6938 C   0  0  0  0  0  0  0  0  0  0  0  0
   -3.1388    0.8585   -1.2909 C   0  0  0  0  0  0  0  0  0  0  0  0
   -2.8165    2.1969   -1.0665 C   0  0  0  0  0  0  0  0  0  0  0  0
   -1.7406    2.5292   -0.2446 C   0  0  0  0  0  0  0  0  0  0  0  0
   -0.9770    1.5267    0.3582 C   0  0  0  0  0  0  0  0  0  0  0  0
   -1.2794    0.1642    0.1433 C   0  0  0  0  0  0  0  0  0  0  0  0
    0.9871   -1.5505    2.1509 H   0  0  0  0  0  0  0  0  0  0  0  0
    0.4278    0.1173    2.4053 H   0  0  0  0  0  0  0  0  0  0  0  0
    4.5032    1.2025    0.5900 H   0  0  0  0  0  0  0  0  0  0  0  0
    3.3665    2.0031   -0.5860 H   0  0  0  0  0  0  0  0  0  0  0  0
    4.4566   -0.7515   -0.6908 H   0  0  0  0  0  0  0  0  0  0  0  0
    3.3210    0.0535   -1.8721 H   0  0  0  0  0  0  0  0  0  0  0  0
    2.0790   -1.8697   -0.5742 H   0  0  0  0  0  0  0  0  0  0  0  0
   -0.3209   -3.0348    0.9178 H   0  0  0  0  0  0  0  0  0  0  0  0
   -2.2340   -3.5565   -0.5216 H   0  0  0  0  0  0  0  0  0  0  0  0
   -3.5537   -1.7633   -1.5601 H   0  0  0  0  0  0  0  0  0  0  0  0
   -3.9800    0.6207   -1.9314 H   0  0  0  0  0  0  0  0  0  0  0  0
   -3.4038    2.9792   -1.5298 H   0  0  0  0  0  0  0  0  0  0  0  0
   -1.4969    3.5697   -0.0722 H   0  0  0  0  0  0  0  0  0  0  0  0
   -0.1571    1.8344    0.9901 H   0  0  0  0  0  0  0  0  0  0  0  0
  1  2  1  0
  2  3  2  0
  3  4  1  0
  4  5  1  0
  5  6  1  0
  6  2  1  0
  1  7  1  0
  7  8  2  0
  8  9  1  0
  9 10  2  0
 10 11  1  0
 11 12  2  0
 12 13  1  0
 13 14  2  0
 14 15  1  0
 15 16  2  0
 16  7  1  0
 16 11  1  0
  1 17  1  0
  1 18  1  0
  4 19  1  0
  4 20  1  0
  5 21  1  0
  5 22  1  0
  6 23  1  0
  8 24  1  0
  9 25  1  0
 10 26  1  0
 12 27  1  0
 13 28  1  0
 14 29  1  0
 15 30  1  0
M  END
> <ID>
HT1463

> <Class>
0.0

> <Clusters>
257

> <Fold>
2

$$$$