
     RDKit          3D

 24 25  0  0  0  0  0  0  0  0999 V2000
   -0.0348   -1.4649    0.5612 C   0  0  0  0  0  0  0  0  0  0  0  0
   -1.3066   -0.6994    0.3675 C   0  0  0  0  0  0  0  0  0  0  0  0
   -2.2480   -1.0963   -0.4159 N   0  0  0  0  0  0  0  0  0  0  0  0
   -3.3432   -0.1336   -0.3906 C   0  0  0  0  0  0  0  0  0  0  0  0
   -2.8894    0.9665    0.5828 C   0  0  0  0  0  0  0  0  0  0  0  0
   -1.5815    0.5232    1.0204 N   0  0  0  0  0  0  0  0  0  0  0  0
    1.1398   -0.6619    0.0708 C   0  0  0  0  0  0  0  0  0  0  0  0
    2.0750   -0.1354    0.9782 C   0  0  0  0  0  0  0  0  0  0  0  0
    3.1606    0.6146    0.5147 C   0  0  0  0  0  0  0  0  0  0  0  0
    3.3209    0.8437   -0.8546 C   0  0  0  0  0  0  0  0  0  0  0  0
    2.3957    0.3232   -1.7635 C   0  0  0  0  0  0  0  0  0  0  0  0
    1.3087   -0.4273   -1.3047 C   0  0  0  0  0  0  0  0  0  0  0  0
   -0.0754   -2.4295    0.0096 H   0  0  0  0  0  0  0  0  0  0  0  0
    0.0691   -1.7036    1.6415 H   0  0  0  0  0  0  0  0  0  0  0  0
   -3.5049    0.2791   -1.4094 H   0  0  0  0  0  0  0  0  0  0  0  0
   -4.2701   -0.6275   -0.0280 H   0  0  0  0  0  0  0  0  0  0  0  0
   -2.8051    1.9478    0.0686 H   0  0  0  0  0  0  0  0  0  0  0  0
   -3.5760    1.0413    1.4531 H   0  0  0  0  0  0  0  0  0  0  0  0
   -0.9543    1.0199    1.6914 H   0  0  0  0  0  0  0  0  0  0  0  0
    1.9626   -0.3007    2.0425 H   0  0  0  0  0  0  0  0  0  0  0  0
    3.8774    1.0192    1.2176 H   0  0  0  0  0  0  0  0  0  0  0  0
    4.1615    1.4246   -1.2112 H   0  0  0  0  0  0  0  0  0  0  0  0
    2.5205    0.5015   -2.8237 H   0  0  0  0  0  0  0  0  0  0  0  0
    0.5977   -0.8246   -2.0187 H   0  0  0  0  0  0  0  0  0  0  0  0
  1  2  1  0
  2  3  2  0
  3  4  1  0
  4  5  1  0
  5  6  1  0
  6  2  1  0
  1  7  1  0
  7  8  2  0
  8  9  1  0
  9 10  2  0
 10 11  1  0
 11 12  2  0
 12  7  1  0
  1 13  1  0
  1 14  1  0
  4 15  1  0
  4 16  1  0
  5 17  1  0
  5 18  1  0
  6 19  1  0
  8 20  1  0
  9 21  1  0
 10 22  1  0
 11 23  1  0
 12 24  1  0
M  END
> <ID>
HT2080

> <Class>
0.0

> <Clusters>
257

> <Fold>
2

$$$$