
     RDKit          3D

 22 23  0  0  0  0  0  0  0  0999 V2000
   -2.1724    0.4963    0.3534 C   0  0  0  0  0  0  0  0  0  0  0  0
   -2.0725   -0.9199   -0.2106 C   0  0  0  0  0  0  0  0  0  0  0  0
   -0.7489   -1.5802    0.1946 C   0  0  0  0  0  0  0  0  0  0  0  0
    0.4447   -0.6617    0.0574 C   0  0  0  0  0  0  0  0  0  0  0  0
    1.7336   -1.2105    0.1562 C   0  0  0  0  0  0  0  0  0  0  0  0
    2.8615   -0.3923    0.0611 C   0  0  0  0  0  0  0  0  0  0  0  0
    2.7149    0.9824   -0.1272 C   0  0  0  0  0  0  0  0  0  0  0  0
    1.4397    1.5455   -0.2133 C   0  0  0  0  0  0  0  0  0  0  0  0
    0.2962    0.7377   -0.1040 C   0  0  0  0  0  0  0  0  0  0  0  0
   -1.0657    1.3759   -0.2328 C   0  0  0  0  0  0  0  0  0  0  0  0
   -2.0864    0.4682    1.4622 H   0  0  0  0  0  0  0  0  0  0  0  0
   -3.1624    0.9296    0.0940 H   0  0  0  0  0  0  0  0  0  0  0  0
   -2.1481   -0.8848   -1.3200 H   0  0  0  0  0  0  0  0  0  0  0  0
   -2.9194   -1.5311    0.1694 H   0  0  0  0  0  0  0  0  0  0  0  0
   -0.8143   -1.9176    1.2517 H   0  0  0  0  0  0  0  0  0  0  0  0
   -0.5999   -2.4797   -0.4418 H   0  0  0  0  0  0  0  0  0  0  0  0
    1.8640   -2.2756    0.3042 H   0  0  0  0  0  0  0  0  0  0  0  0
    3.8509   -0.8254    0.1324 H   0  0  0  0  0  0  0  0  0  0  0  0
    3.5908    1.6133   -0.2063 H   0  0  0  0  0  0  0  0  0  0  0  0
    1.3427    2.6138   -0.3630 H   0  0  0  0  0  0  0  0  0  0  0  0
   -1.2720    1.5601   -1.3095 H   0  0  0  0  0  0  0  0  0  0  0  0
   -1.0770    2.3561    0.2919 H   0  0  0  0  0  0  0  0  0  0  0  0
  1  2  1  0
  2  3  1  0
  3  4  1  0
  4  5  2  0
  5  6  1  0
  6  7  2  0
  7  8  1  0
  8  9  2  0
  9  4  1  0
  9 10  1  0
 10  1  1  0
  1 11  1  0
  1 12  1  0
  2 13  1  0
  2 14  1  0
  3 15  1  0
  3 16  1  0
  5 17  1  0
  6 18  1  0
  7 19  1  0
  8 20  1  0
 10 21  1  0
 10 22  1  0
M  END
> <ID>
HT2557

> <Class>
0.0

> <Clusters>
250

> <Fold>
2

$$$$