
     RDKit          3D

 38 39  0  0  0  0  0  0  0  0999 V2000
    5.0513    2.1634    4.7041 C   0  0  0  0  0  0  0  0  0  0  0  0
    3.8880    1.5851    3.9644 C   0  0  0  0  0  0  0  0  0  0  0  0
    2.9108    1.1336    4.6200 O   0  0  0  0  0  0  0  0  0  0  0  0
    3.9060    1.5078    2.5297 N   0  0  0  0  0  0  0  0  0  0  0  0
    2.7601    1.1760    1.7266 C   0  0  0  0  0  0  0  0  0  0  0  0
    1.4650    1.5871    2.0883 C   0  0  0  0  0  0  0  0  0  0  0  0
    0.3702    1.2720    1.2774 C   0  0  0  0  0  0  0  0  0  0  0  0
    0.5568    0.5614    0.0777 C   0  0  0  0  0  0  0  0  0  0  0  0
   -0.5101    0.2075   -0.7610 O   0  0  0  0  0  0  0  0  0  0  0  0
   -1.7175    0.9083   -0.8903 C   0  0  0  0  0  0  0  0  0  0  0  0
   -1.7939    2.1086   -0.5080 O   0  0  0  0  0  0  0  0  0  0  0  0
   -2.8905    0.2651   -1.5398 C   0  0  0  0  0  0  0  0  0  0  0  0
   -4.0437    1.0321   -1.8007 C   0  0  0  0  0  0  0  0  0  0  0  0
   -5.1590    0.4585   -2.4131 C   0  0  0  0  0  0  0  0  0  0  0  0
   -5.1468   -0.8888   -2.7665 C   0  0  0  0  0  0  0  0  0  0  0  0
   -4.0170   -1.6674   -2.5146 C   0  0  0  0  0  0  0  0  0  0  0  0
   -2.8758   -1.1017   -1.9132 C   0  0  0  0  0  0  0  0  0  0  0  0
   -1.7459   -1.8876   -1.6359 O   0  0  0  0  0  0  0  0  0  0  0  0
   -1.2982   -2.9673   -2.4073 C   0  0  0  0  0  0  0  0  0  0  0  0
   -1.7177   -3.1460   -3.5828 O   0  0  0  0  0  0  0  0  0  0  0  0
   -0.2203   -3.8457   -1.8702 C   0  0  0  0  0  0  0  0  0  0  0  0
    1.8463    0.1539   -0.2803 C   0  0  0  0  0  0  0  0  0  0  0  0
    2.9412    0.4703    0.5285 C   0  0  0  0  0  0  0  0  0  0  0  0
    5.4913    1.3904    5.3682 H   0  0  0  0  0  0  0  0  0  0  0  0
    4.7097    3.0216    5.3198 H   0  0  0  0  0  0  0  0  0  0  0  0
    5.8327    2.5190    4.0004 H   0  0  0  0  0  0  0  0  0  0  0  0
    4.8270    1.6123    2.0466 H   0  0  0  0  0  0  0  0  0  0  0  0
    1.2978    2.1660    2.9866 H   0  0  0  0  0  0  0  0  0  0  0  0
   -0.6180    1.5653    1.6031 H   0  0  0  0  0  0  0  0  0  0  0  0
   -4.0850    2.0808   -1.5339 H   0  0  0  0  0  0  0  0  0  0  0  0
   -6.0379    1.0596   -2.6076 H   0  0  0  0  0  0  0  0  0  0  0  0
   -6.0190   -1.3343   -3.2274 H   0  0  0  0  0  0  0  0  0  0  0  0
   -4.0489   -2.7198   -2.7615 H   0  0  0  0  0  0  0  0  0  0  0  0
   -0.2811   -3.8826   -0.7624 H   0  0  0  0  0  0  0  0  0  0  0  0
   -0.3303   -4.8758   -2.2702 H   0  0  0  0  0  0  0  0  0  0  0  0
    0.7690   -3.4396   -2.1670 H   0  0  0  0  0  0  0  0  0  0  0  0
    2.0012   -0.4037   -1.1955 H   0  0  0  0  0  0  0  0  0  0  0  0
    3.9323    0.1545    0.2274 H   0  0  0  0  0  0  0  0  0  0  0  0
  1  2  1  0
  2  3  2  0
  2  4  1  0
  4  5  1  0
  5  6  2  0
  6  7  1  0
  7  8  2  0
  8  9  1  0
  9 10  1  0
 10 11  2  0
 10 12  1  0
 12 13  2  0
 13 14  1  0
 14 15  2  0
 15 16  1  0
 16 17  2  0
 17 12  1  0
 17 18  1  0
 18 19  1  0
 19 20  2  0
 19 21  1  0
  8 22  1  0
 22 23  2  0
 23  5  1  0
  1 24  1  0
  1 25  1  0
  1 26  1  0
  4 27  1  0
  6 28  1  0
  7 29  1  0
 13 30  1  0
 14 31  1  0
 15 32  1  0
 16 33  1  0
 21 34  1  0
 21 35  1  0
 21 36  1  0
 22 37  1  0
 23 38  1  0
M  END
> <ID>
HT0238

> <Class>
0.0

> <Clusters>
22

> <Fold>
2

$$$$