
     RDKit          3D

 43 44  0  0  0  0  0  0  0  0999 V2000
    0.8884   -2.5853   -0.7054 C   0  0  0  0  0  0  0  0  0  0  0  0
    0.1821   -1.4212   -0.0497 C   0  0  0  0  0  0  0  0  0  0  0  0
   -1.1702   -1.2107   -0.3436 C   0  0  0  0  0  0  0  0  0  0  0  0
   -1.9120   -0.1594    0.2367 C   0  0  0  0  0  0  0  0  0  0  0  0
   -1.2284    0.7190    1.1200 C   0  0  0  0  0  0  0  0  0  0  0  0
   -1.9507    1.7208    1.7760 O   0  0  0  0  0  0  0  0  0  0  0  0
    0.1650    0.5810    1.3497 C   0  0  0  0  0  0  0  0  0  0  0  0
    0.8899    1.6347    2.1628 C   0  0  0  0  0  0  0  0  0  0  0  0
    0.8568   -0.5467    0.8329 C   0  0  0  0  0  0  0  0  0  0  0  0
    2.3216   -0.7916    1.1772 C   0  0  0  0  0  0  0  0  0  0  0  0
    3.2617   -0.1022    0.2281 C   0  0  0  0  0  0  0  0  0  0  0  0
    2.8739    0.6061   -0.7768 N   0  0  0  0  0  0  0  0  0  0  0  0
    4.0347    1.1285   -1.4874 C   0  0  0  0  0  0  0  0  0  0  0  0
    5.2513    0.5962   -0.7139 C   0  0  0  0  0  0  0  0  0  0  0  0
    4.6658   -0.1773    0.3620 N   0  0  0  0  0  0  0  0  0  0  0  0
   -3.4278    0.0217   -0.0703 C   0  0  0  0  0  0  0  0  0  0  0  0
   -3.9697   -1.0058   -1.0991 C   0  0  0  0  0  0  0  0  0  0  0  0
   -4.2572   -0.1617    1.2216 C   0  0  0  0  0  0  0  0  0  0  0  0
   -3.6879    1.4243   -0.6694 C   0  0  0  0  0  0  0  0  0  0  0  0
    1.1827   -3.3311    0.0619 H   0  0  0  0  0  0  0  0  0  0  0  0
    1.7896   -2.2277   -1.2461 H   0  0  0  0  0  0  0  0  0  0  0  0
    0.2414   -3.1051   -1.4437 H   0  0  0  0  0  0  0  0  0  0  0  0
   -1.6348   -1.9053   -1.0248 H   0  0  0  0  0  0  0  0  0  0  0  0
   -1.5870    2.2817    2.5348 H   0  0  0  0  0  0  0  0  0  0  0  0
    0.5029    2.6480    1.9289 H   0  0  0  0  0  0  0  0  0  0  0  0
    0.7659    1.4251    3.2457 H   0  0  0  0  0  0  0  0  0  0  0  0
    1.9690    1.6930    1.9214 H   0  0  0  0  0  0  0  0  0  0  0  0
    2.5567   -1.8744    1.1809 H   0  0  0  0  0  0  0  0  0  0  0  0
    2.5395   -0.4636    2.2146 H   0  0  0  0  0  0  0  0  0  0  0  0
    4.0125    2.2393   -1.4784 H   0  0  0  0  0  0  0  0  0  0  0  0
    4.0343    0.7554   -2.5339 H   0  0  0  0  0  0  0  0  0  0  0  0
    5.8577    1.4286   -0.2969 H   0  0  0  0  0  0  0  0  0  0  0  0
    5.8793   -0.0592   -1.3547 H   0  0  0  0  0  0  0  0  0  0  0  0
    5.1877   -0.6962    1.1026 H   0  0  0  0  0  0  0  0  0  0  0  0
   -5.0485   -0.8318   -1.3053 H   0  0  0  0  0  0  0  0  0  0  0  0
   -3.4323   -0.9191   -2.0684 H   0  0  0  0  0  0  0  0  0  0  0  0
   -3.8782   -2.0442   -0.7128 H   0  0  0  0  0  0  0  0  0  0  0  0
   -4.0194   -1.1385    1.6957 H   0  0  0  0  0  0  0  0  0  0  0  0
   -5.3459   -0.1404    0.9975 H   0  0  0  0  0  0  0  0  0  0  0  0
   -4.0720    0.6389    1.9631 H   0  0  0  0  0  0  0  0  0  0  0  0
   -4.7443    1.5227   -1.0018 H   0  0  0  0  0  0  0  0  0  0  0  0
   -3.5138    2.2391    0.0590 H   0  0  0  0  0  0  0  0  0  0  0  0
   -3.0303    1.5946   -1.5492 H   0  0  0  0  0  0  0  0  0  0  0  0
  1  2  1  0
  2  3  2  0
  3  4  1  0
  4  5  2  0
  5  6  1  0
  5  7  1  0
  7  8  1  0
  7  9  2  0
  9  2  1  0
  9 10  1  0
 10 11  1  0
 11 12  2  0
 12 13  1  0
 13 14  1  0
 14 15  1  0
 15 11  1  0
  4 16  1  0
 16 17  1  0
 16 18  1  0
 16 19  1  0
  1 20  1  0
  1 21  1  0
  1 22  1  0
  3 23  1  0
  6 24  1  0
  8 25  1  0
  8 26  1  0
  8 27  1  0
 10 28  1  0
 10 29  1  0
 13 30  1  0
 13 31  1  0
 14 32  1  0
 14 33  1  0
 15 34  1  0
 17 35  1  0
 17 36  1  0
 17 37  1  0
 18 38  1  0
 18 39  1  0
 18 40  1  0
 19 41  1  0
 19 42  1  0
 19 43  1  0
M  END
> <ID>
HT1568

> <Class>
0.0

> <Clusters>
257

> <Fold>
2

$$$$