
     RDKit          3D

 24 25  0  0  0  0  0  0  0  0999 V2000
   -3.2270   -0.7345   -0.3498 C   0  0  0  0  0  0  0  0  0  0  0  0
   -1.8003   -0.2837   -0.1846 C   0  0  0  0  0  0  0  0  0  0  0  0
   -1.5243    1.0837   -0.0641 C   0  0  0  0  0  0  0  0  0  0  0  0
   -0.2160    1.5553    0.1001 C   0  0  0  0  0  0  0  0  0  0  0  0
   -0.0249    2.9704    0.2608 N   0  0  0  0  0  0  0  0  0  0  0  0
    0.8614    0.6323    0.1170 C   0  0  0  0  0  0  0  0  0  0  0  0
    2.2076    1.0495    0.2237 C   0  0  0  0  0  0  0  0  0  0  0  0
    3.2446    0.1158    0.2470 C   0  0  0  0  0  0  0  0  0  0  0  0
    2.9672   -1.2449    0.1570 C   0  0  0  0  0  0  0  0  0  0  0  0
    1.6503   -1.6836    0.0324 C   0  0  0  0  0  0  0  0  0  0  0  0
    0.5860   -0.7605    0.0037 C   0  0  0  0  0  0  0  0  0  0  0  0
   -0.7413   -1.2137   -0.1441 C   0  0  0  0  0  0  0  0  0  0  0  0
   -0.9855   -2.5880   -0.2530 O   0  0  0  0  0  0  0  0  0  0  0  0
   -3.5119   -1.3978    0.4938 H   0  0  0  0  0  0  0  0  0  0  0  0
   -3.9327    0.1234   -0.3627 H   0  0  0  0  0  0  0  0  0  0  0  0
   -3.3394   -1.2828   -1.3087 H   0  0  0  0  0  0  0  0  0  0  0  0
   -2.3403    1.7965   -0.0832 H   0  0  0  0  0  0  0  0  0  0  0  0
   -0.8242    3.6275    0.1176 H   0  0  0  0  0  0  0  0  0  0  0  0
    0.8549    3.3907    0.6258 H   0  0  0  0  0  0  0  0  0  0  0  0
    2.4876    2.0895    0.2730 H   0  0  0  0  0  0  0  0  0  0  0  0
    4.2706    0.4507    0.3306 H   0  0  0  0  0  0  0  0  0  0  0  0
    3.7769   -1.9631    0.1754 H   0  0  0  0  0  0  0  0  0  0  0  0
    1.4712   -2.7487   -0.0456 H   0  0  0  0  0  0  0  0  0  0  0  0
   -1.9103   -2.9837   -0.3618 H   0  0  0  0  0  0  0  0  0  0  0  0
  1  2  1  0
  2  3  2  0
  3  4  1  0
  4  5  1  0
  4  6  2  0
  6  7  1  0
  7  8  2  0
  8  9  1  0
  9 10  2  0
 10 11  1  0
 11  6  1  0
 11 12  2  0
 12  2  1  0
 12 13  1  0
  1 14  1  0
  1 15  1  0
  1 16  1  0
  3 17  1  0
  5 18  1  0
  5 19  1  0
  7 20  1  0
  8 21  1  0
  9 22  1  0
 10 23  1  0
 13 24  1  0
M  END
> <ID>
HT2742

> <Class>
0.0

> <Clusters>
253

> <Fold>
2

$$$$