
     RDKit          3D

 23 24  0  0  0  0  0  0  0  0999 V2000
   -3.1965    0.9399   -0.0050 C   0  0  0  0  0  0  0  0  0  0  0  0
   -1.8054    0.3663   -0.0718 C   0  0  0  0  0  0  0  0  0  0  0  0
   -1.6488   -0.9220   -0.5923 C   0  0  0  0  0  0  0  0  0  0  0  0
   -0.3877   -1.5127   -0.6825 C   0  0  0  0  0  0  0  0  0  0  0  0
   -0.2661   -2.8008   -1.2073 O   0  0  0  0  0  0  0  0  0  0  0  0
    0.7493   -0.8102   -0.2461 C   0  0  0  0  0  0  0  0  0  0  0  0
    2.0239   -1.4014   -0.3349 C   0  0  0  0  0  0  0  0  0  0  0  0
    3.1555   -0.7118    0.0954 C   0  0  0  0  0  0  0  0  0  0  0  0
    3.0337    0.5721    0.6183 C   0  0  0  0  0  0  0  0  0  0  0  0
    1.7800    1.1788    0.7162 C   0  0  0  0  0  0  0  0  0  0  0  0
    0.6140    0.5037    0.2878 C   0  0  0  0  0  0  0  0  0  0  0  0
   -0.6794    1.0911    0.3727 C   0  0  0  0  0  0  0  0  0  0  0  0
   -0.8875    2.3775    0.8862 O   0  0  0  0  0  0  0  0  0  0  0  0
   -3.2204    1.9634    0.4211 H   0  0  0  0  0  0  0  0  0  0  0  0
   -3.8359    0.2891    0.6281 H   0  0  0  0  0  0  0  0  0  0  0  0
   -3.6293    0.9829   -1.0268 H   0  0  0  0  0  0  0  0  0  0  0  0
   -2.5182   -1.4728   -0.9318 H   0  0  0  0  0  0  0  0  0  0  0  0
   -1.0726   -3.3244   -1.5275 H   0  0  0  0  0  0  0  0  0  0  0  0
    2.1514   -2.3989   -0.7371 H   0  0  0  0  0  0  0  0  0  0  0  0
    4.1312   -1.1750    0.0229 H   0  0  0  0  0  0  0  0  0  0  0  0
    3.9170    1.1025    0.9508 H   0  0  0  0  0  0  0  0  0  0  0  0
    1.7568    2.1731    1.1300 H   0  0  0  0  0  0  0  0  0  0  0  0
   -0.1650    2.9897    1.2335 H   0  0  0  0  0  0  0  0  0  0  0  0
  1  2  1  0
  2  3  2  0
  3  4  1  0
  4  5  1  0
  4  6  2  0
  6  7  1  0
  7  8  2  0
  8  9  1  0
  9 10  2  0
 10 11  1  0
 11  6  1  0
 11 12  2  0
 12  2  1  0
 12 13  1  0
  1 14  1  0
  1 15  1  0
  1 16  1  0
  3 17  1  0
  5 18  1  0
  7 19  1  0
  8 20  1  0
  9 21  1  0
 10 22  1  0
 13 23  1  0
M  END
> <ID>
HT2748

> <Class>
0.0

> <Clusters>
253

> <Fold>
2

$$$$