
     RDKit          3D

 48 50  0  0  0  0  0  0  0  0999 V2000
   -2.0424   -2.7597   -1.0009 C   0  0  0  0  0  0  0  0  0  0  0  0
   -1.0411   -1.9691   -0.1297 C   0  0  1  0  0  0  0  0  0  0  0  0
    0.0820   -1.3386   -0.9742 C   0  0  1  0  0  0  0  0  0  0  0  0
   -0.4888   -0.2932   -1.9723 C   0  0  0  0  0  0  0  0  0  0  0  0
   -1.6463    0.5263   -1.4400 C   0  0  0  0  0  0  0  0  0  0  0  0
   -2.1379    1.5654   -2.2453 C   0  0  0  0  0  0  0  0  0  0  0  0
   -3.1826    2.3748   -1.8035 C   0  0  0  0  0  0  0  0  0  0  0  0
   -3.7468    2.1643   -0.5436 C   0  0  0  0  0  0  0  0  0  0  0  0
   -4.7749    2.9834   -0.0819 O   0  0  0  0  0  0  0  0  0  0  0  0
   -3.2765    1.1272    0.2654 C   0  0  0  0  0  0  0  0  0  0  0  0
   -2.2487    0.2660   -0.1793 C   0  0  0  0  0  0  0  0  0  0  0  0
   -1.6957   -0.8443    0.7287 C   0  0  1  0  0  0  0  0  0  0  0  0
   -2.7952   -1.4617    1.6317 C   0  0  0  0  0  0  0  0  0  0  0  0
   -0.5979   -0.2355    1.6402 C   0  0  0  0  0  0  0  0  0  0  0  0
    0.6157    0.2628    0.8388 C   0  0  0  0  0  0  0  0  0  0  0  0
    1.1235   -0.7926   -0.0630 N   0  0  0  0  0  0  0  0  0  0  0  0
    2.3531   -0.3701   -0.7637 C   0  0  0  0  0  0  0  0  0  0  0  0
    3.5418   -0.5563    0.1480 C   0  0  0  0  0  0  0  0  0  0  0  0
    4.3552    0.4382    0.5709 C   0  0  0  0  0  0  0  0  0  0  0  0
    5.5025    0.1247    1.4963 C   0  0  0  0  0  0  0  0  0  0  0  0
    4.1449    1.8761    0.1684 C   0  0  0  0  0  0  0  0  0  0  0  0
   -2.6781   -2.0864   -1.6121 H   0  0  0  0  0  0  0  0  0  0  0  0
   -2.7018   -3.3827   -0.3617 H   0  0  0  0  0  0  0  0  0  0  0  0
   -1.4986   -3.4483   -1.6817 H   0  0  0  0  0  0  0  0  0  0  0  0
   -0.5654   -2.7118    0.5518 H   0  0  0  0  0  0  0  0  0  0  0  0
    0.5450   -2.1584   -1.5696 H   0  0  0  0  0  0  0  0  0  0  0  0
    0.3124    0.3898   -2.3196 H   0  0  0  0  0  0  0  0  0  0  0  0
   -0.8476   -0.8323   -2.8761 H   0  0  0  0  0  0  0  0  0  0  0  0
   -1.7001    1.7558   -3.2178 H   0  0  0  0  0  0  0  0  0  0  0  0
   -3.5439    3.1752   -2.4365 H   0  0  0  0  0  0  0  0  0  0  0  0
   -5.1381    3.7452   -0.6429 H   0  0  0  0  0  0  0  0  0  0  0  0
   -3.7196    1.0096    1.2436 H   0  0  0  0  0  0  0  0  0  0  0  0
   -3.7075   -1.6953    1.0423 H   0  0  0  0  0  0  0  0  0  0  0  0
   -3.0792   -0.7739    2.4560 H   0  0  0  0  0  0  0  0  0  0  0  0
   -2.4330   -2.3989    2.1069 H   0  0  0  0  0  0  0  0  0  0  0  0
   -1.0126    0.6125    2.2289 H   0  0  0  0  0  0  0  0  0  0  0  0
   -0.2464   -1.0021    2.3667 H   0  0  0  0  0  0  0  0  0  0  0  0
    1.4068    0.5444    1.5674 H   0  0  0  0  0  0  0  0  0  0  0  0
    0.3547    1.1825    0.2715 H   0  0  0  0  0  0  0  0  0  0  0  0
    2.2581    0.6717   -1.1345 H   0  0  0  0  0  0  0  0  0  0  0  0
    2.5359   -1.0077   -1.6560 H   0  0  0  0  0  0  0  0  0  0  0  0
    3.7319   -1.5732    0.4811 H   0  0  0  0  0  0  0  0  0  0  0  0
    6.4519    0.4791    1.0428 H   0  0  0  0  0  0  0  0  0  0  0  0
    5.5983   -0.9643    1.6955 H   0  0  0  0  0  0  0  0  0  0  0  0
    5.3487    0.6459    2.4643 H   0  0  0  0  0  0  0  0  0  0  0  0
    4.2402    1.9801   -0.9329 H   0  0  0  0  0  0  0  0  0  0  0  0
    3.1409    2.2211    0.4938 H   0  0  0  0  0  0  0  0  0  0  0  0
    4.9036    2.5346    0.6422 H   0  0  0  0  0  0  0  0  0  0  0  0
  2  1  1  0
  2  3  1  0
  3  4  1  0
  4  5  1  0
  5  6  2  0
  6  7  1  0
  7  8  2  0
  8  9  1  0
  8 10  1  0
 10 11  2  0
 11  5  1  0
 11 12  1  0
 12  2  1  0
 12 13  1  1
 12 14  1  0
 14 15  1  0
 15 16  1  0
 16  3  1  0
 16 17  1  0
 17 18  1  0
 18 19  2  3
 19 20  1  0
 19 21  1  0
  1 22  1  0
  1 23  1  0
  1 24  1  0
  2 25  1  1
  3 26  1  6
  4 27  1  0
  4 28  1  0
  6 29  1  0
  7 30  1  0
  9 31  1  0
 10 32  1  0
 13 33  1  0
 13 34  1  0
 13 35  1  0
 14 36  1  0
 14 37  1  0
 15 38  1  0
 15 39  1  0
 17 40  1  0
 17 41  1  0
 18 42  1  0
 20 43  1  0
 20 44  1  0
 20 45  1  0
 21 46  1  0
 21 47  1  0
 21 48  1  0
M  END
> <ID>
HT1621

> <Class>
0.0

> <Clusters>
147

> <Fold>
2

$$$$