
     RDKit          3D

 40 42  0  0  0  0  0  0  0  0999 V2000
   -4.4292   -3.1269    1.6490 C   0  0  0  0  0  0  0  0  0  0  0  0
   -3.3148   -2.3418    1.0229 C   0  0  0  0  0  0  0  0  0  0  0  0
   -2.0106   -2.8561    1.0327 C   0  0  0  0  0  0  0  0  0  0  0  0
   -0.9626   -2.1348    0.4536 C   0  0  0  0  0  0  0  0  0  0  0  0
   -1.2042   -0.8877   -0.1466 C   0  0  0  0  0  0  0  0  0  0  0  0
   -2.5116   -0.3733   -0.1514 C   0  0  0  0  0  0  0  0  0  0  0  0
   -3.5594   -1.0949    0.4275 C   0  0  0  0  0  0  0  0  0  0  0  0
   -0.1247   -0.1322   -0.7352 N   0  0  0  0  0  0  0  0  0  0  0  0
    0.7768   -0.7841   -1.7000 C   0  0  0  0  0  0  0  0  0  0  0  0
    2.2090   -0.5562   -1.3232 C   0  0  0  0  0  0  0  0  0  0  0  0
    3.0468    0.0401   -2.0977 N   0  0  0  0  0  0  0  0  0  0  0  0
    4.3437    0.1310   -1.4375 C   0  0  0  0  0  0  0  0  0  0  0  0
    4.1426   -0.5291   -0.0639 C   0  0  0  0  0  0  0  0  0  0  0  0
    2.7551   -0.9451   -0.0796 N   0  0  0  0  0  0  0  0  0  0  0  0
    0.0097    1.2771   -0.4334 C   0  0  0  0  0  0  0  0  0  0  0  0
    0.3544    2.2047   -1.4347 C   0  0  0  0  0  0  0  0  0  0  0  0
    0.4946    3.5603   -1.1251 C   0  0  0  0  0  0  0  0  0  0  0  0
    0.2944    4.0064    0.1828 C   0  0  0  0  0  0  0  0  0  0  0  0
   -0.0474    3.0953    1.1899 C   0  0  0  0  0  0  0  0  0  0  0  0
   -0.2472    3.5268    2.4993 O   0  0  0  0  0  0  0  0  0  0  0  0
   -0.1881    1.7382    0.8814 C   0  0  0  0  0  0  0  0  0  0  0  0
   -5.4005   -2.5944    1.5652 H   0  0  0  0  0  0  0  0  0  0  0  0
   -4.5225   -4.1106    1.1426 H   0  0  0  0  0  0  0  0  0  0  0  0
   -4.2103   -3.2919    2.7250 H   0  0  0  0  0  0  0  0  0  0  0  0
   -1.8052   -3.8148    1.4930 H   0  0  0  0  0  0  0  0  0  0  0  0
    0.0385   -2.5434    0.4878 H   0  0  0  0  0  0  0  0  0  0  0  0
   -2.7190    0.5849   -0.6110 H   0  0  0  0  0  0  0  0  0  0  0  0
   -4.5595   -0.6798    0.4097 H   0  0  0  0  0  0  0  0  0  0  0  0
    0.5989   -1.8794   -1.7391 H   0  0  0  0  0  0  0  0  0  0  0  0
    0.5755   -0.3972   -2.7213 H   0  0  0  0  0  0  0  0  0  0  0  0
    4.6357    1.1974   -1.3273 H   0  0  0  0  0  0  0  0  0  0  0  0
    5.1076   -0.4141   -2.0322 H   0  0  0  0  0  0  0  0  0  0  0  0
    4.3107    0.1985    0.7589 H   0  0  0  0  0  0  0  0  0  0  0  0
    4.8034   -1.4138    0.0582 H   0  0  0  0  0  0  0  0  0  0  0  0
    2.2458   -1.4156    0.7005 H   0  0  0  0  0  0  0  0  0  0  0  0
    0.5033    1.8883   -2.4575 H   0  0  0  0  0  0  0  0  0  0  0  0
    0.7570    4.2670   -1.9018 H   0  0  0  0  0  0  0  0  0  0  0  0
    0.4052    5.0584    0.4126 H   0  0  0  0  0  0  0  0  0  0  0  0
   -0.1523    4.5026    2.7555 H   0  0  0  0  0  0  0  0  0  0  0  0
   -0.4394    1.0404    1.6705 H   0  0  0  0  0  0  0  0  0  0  0  0
  1  2  1  0
  2  3  2  0
  3  4  1  0
  4  5  2  0
  5  6  1  0
  6  7  2  0
  7  2  1  0
  5  8  1  0
  8  9  1  0
  9 10  1  0
 10 11  2  0
 11 12  1  0
 12 13  1  0
 13 14  1  0
 14 10  1  0
  8 15  1  0
 15 16  2  0
 16 17  1  0
 17 18  2  0
 18 19  1  0
 19 20  1  0
 19 21  2  0
 21 15  1  0
  1 22  1  0
  1 23  1  0
  1 24  1  0
  3 25  1  0
  4 26  1  0
  6 27  1  0
  7 28  1  0
  9 29  1  0
  9 30  1  0
 12 31  1  0
 12 32  1  0
 13 33  1  0
 13 34  1  0
 14 35  1  0
 16 36  1  0
 17 37  1  0
 18 38  1  0
 20 39  1  0
 21 40  1  0
M  END
> <ID>
HT1658

> <Class>
0.0

> <Clusters>
257

> <Fold>
2

$$$$