
     RDKit          3D

 54 57  0  0  0  0  0  0  0  0999 V2000
   -4.9420    0.7922    0.7517 C   0  0  0  0  0  0  0  0  0  0  0  0
   -3.8168    0.4876   -0.2652 C   0  0  0  0  0  0  0  0  0  0  0  0
   -3.7478    1.5499   -1.1934 O   0  0  0  0  0  0  0  0  0  0  0  0
   -4.0642   -0.8479   -1.0264 C   0  0  0  0  0  0  0  0  0  0  0  0
   -2.6863   -1.4997   -1.2480 C   0  0  0  0  0  0  0  0  0  0  0  0
   -1.6886   -0.4537   -0.7657 C   0  0  0  0  0  0  0  0  0  0  0  0
   -0.2592   -0.9108   -0.3990 C   0  0  0  0  0  0  0  0  0  0  0  0
    0.4024   -1.6074   -1.5997 C   0  0  0  0  0  0  0  0  0  0  0  0
    1.8914   -1.7578   -1.4578 C   0  0  0  0  0  0  0  0  0  0  0  0
    2.6520   -1.0254   -0.6141 C   0  0  0  0  0  0  0  0  0  0  0  0
    4.1517   -1.2605   -0.6075 C   0  0  0  0  0  0  0  0  0  0  0  0
    4.9200    0.0664   -0.5689 C   0  0  0  0  0  0  0  0  0  0  0  0
    4.7554    0.7628   -1.7783 O   0  0  0  0  0  0  0  0  0  0  0  0
    4.4364    0.9350    0.5970 C   0  0  0  0  0  0  0  0  0  0  0  0
    2.9271    1.2142    0.5074 C   0  0  0  0  0  0  0  0  0  0  0  0
    2.0469   -0.0738    0.4317 C   0  0  0  0  0  0  0  0  0  0  0  0
    2.0706   -0.7916    1.8094 C   0  0  0  0  0  0  0  0  0  0  0  0
    0.5819    0.3356    0.0147 C   0  0  0  0  0  0  0  0  0  0  0  0
   -0.1467    1.2440    1.0606 C   0  0  0  0  0  0  0  0  0  0  0  0
   -1.6110    1.5659    0.6823 C   0  0  0  0  0  0  0  0  0  0  0  0
   -2.4090    0.2740    0.3776 C   0  0  0  0  0  0  0  0  0  0  0  0
   -2.5217   -0.5939    1.6771 C   0  0  0  0  0  0  0  0  0  0  0  0
   -5.8940    1.0019    0.2192 H   0  0  0  0  0  0  0  0  0  0  0  0
   -4.6764    1.6845    1.3570 H   0  0  0  0  0  0  0  0  0  0  0  0
   -5.1316   -0.0642    1.4315 H   0  0  0  0  0  0  0  0  0  0  0  0
   -4.6242    1.6175   -1.6559 H   0  0  0  0  0  0  0  0  0  0  0  0
   -4.5708   -0.6739   -2.0007 H   0  0  0  0  0  0  0  0  0  0  0  0
   -4.7024   -1.5398   -0.4337 H   0  0  0  0  0  0  0  0  0  0  0  0
   -2.5252   -1.7393   -2.3218 H   0  0  0  0  0  0  0  0  0  0  0  0
   -2.5943   -2.4329   -0.6502 H   0  0  0  0  0  0  0  0  0  0  0  0
   -1.5733    0.2628   -1.6164 H   0  0  0  0  0  0  0  0  0  0  0  0
   -0.3071   -1.6511    0.4217 H   0  0  0  0  0  0  0  0  0  0  0  0
   -0.0421   -2.6189   -1.7199 H   0  0  0  0  0  0  0  0  0  0  0  0
    0.2110   -1.0404   -2.5366 H   0  0  0  0  0  0  0  0  0  0  0  0
    2.3705   -2.4439   -2.1510 H   0  0  0  0  0  0  0  0  0  0  0  0
    4.4229   -1.8734    0.2778 H   0  0  0  0  0  0  0  0  0  0  0  0
    4.4811   -1.8321   -1.5034 H   0  0  0  0  0  0  0  0  0  0  0  0
    6.0019   -0.1503   -0.4089 H   0  0  0  0  0  0  0  0  0  0  0  0
    5.3217    0.3046   -2.4529 H   0  0  0  0  0  0  0  0  0  0  0  0
    4.9842    1.9024    0.5810 H   0  0  0  0  0  0  0  0  0  0  0  0
    4.6787    0.4407    1.5619 H   0  0  0  0  0  0  0  0  0  0  0  0
    2.6435    1.8239    1.3918 H   0  0  0  0  0  0  0  0  0  0  0  0
    2.7496    1.8473   -0.3899 H   0  0  0  0  0  0  0  0  0  0  0  0
    1.8051   -0.1013    2.6353 H   0  0  0  0  0  0  0  0  0  0  0  0
    1.3833   -1.6594    1.8347 H   0  0  0  0  0  0  0  0  0  0  0  0
    3.0807   -1.1814    2.0465 H   0  0  0  0  0  0  0  0  0  0  0  0
    0.6702    0.9611   -0.9046 H   0  0  0  0  0  0  0  0  0  0  0  0
    0.3907    2.2114    1.1464 H   0  0  0  0  0  0  0  0  0  0  0  0
   -0.1354    0.7879    2.0678 H   0  0  0  0  0  0  0  0  0  0  0  0
   -1.5968    2.2405   -0.2012 H   0  0  0  0  0  0  0  0  0  0  0  0
   -2.0939    2.1238    1.5137 H   0  0  0  0  0  0  0  0  0  0  0  0
   -1.5446   -0.9340    2.0657 H   0  0  0  0  0  0  0  0  0  0  0  0
   -3.1373   -1.5025    1.5157 H   0  0  0  0  0  0  0  0  0  0  0  0
   -2.9883   -0.0036    2.4937 H   0  0  0  0  0  0  0  0  0  0  0  0
  1  2  1  0
  2  3  1  0
  2  4  1  0
  4  5  1  0
  5  6  1  0
  6  7  1  0
  7  8  1  0
  8  9  1  0
  9 10  2  0
 10 11  1  0
 11 12  1  0
 12 13  1  0
 12 14  1  0
 14 15  1  0
 15 16  1  0
 16 10  1  0
 16 17  1  0
 16 18  1  0
 18  7  1  0
 18 19  1  0
 19 20  1  0
 20 21  1  0
 21  2  1  0
 21  6  1  0
 21 22  1  0
  1 23  1  0
  1 24  1  0
  1 25  1  0
  3 26  1  0
  4 27  1  0
  4 28  1  0
  5 29  1  0
  5 30  1  0
  6 31  1  0
  7 32  1  0
  8 33  1  0
  8 34  1  0
  9 35  1  0
 11 36  1  0
 11 37  1  0
 12 38  1  0
 13 39  1  0
 14 40  1  0
 14 41  1  0
 15 42  1  0
 15 43  1  0
 17 44  1  0
 17 45  1  0
 17 46  1  0
 18 47  1  0
 19 48  1  0
 19 49  1  0
 20 50  1  0
 20 51  1  0
 22 52  1  0
 22 53  1  0
 22 54  1  0
M  END
> <ID>
HT3381

> <Class>
0.0

> <Clusters>
69

> <Fold>
2

$$$$