
     RDKit          3D

 45 46  0  0  0  0  0  0  0  0999 V2000
    3.8027    0.6742   -2.3688 C   0  0  0  0  0  0  0  0  0  0  0  0
    2.5839    0.7707   -1.4460 C   0  0  1  0  0  0  0  0  0  0  0  0
    2.1281   -0.5097   -0.9369 C   0  0  2  0  0  0  0  0  0  0  0  0
    0.6768   -0.6901   -1.0256 N   0  0  0  0  0  0  0  0  0  0  0  0
    0.0232   -1.8052   -0.4042 C   0  0  0  0  0  0  0  0  0  0  0  0
    0.6654   -2.8674   -0.1831 O   0  0  0  0  0  0  0  0  0  0  0  0
   -1.4031   -1.7138   -0.0170 C   0  0  0  0  0  0  0  0  0  0  0  0
   -1.8765   -0.6220    0.5065 N   0  0  0  0  0  0  0  0  0  0  0  0
   -1.0759    0.4720    0.7670 O   0  0  0  0  0  0  0  0  0  0  0  0
   -1.6018    1.6887    1.2959 C   0  0  0  0  0  0  0  0  0  0  0  0
   -0.4514    2.7031    1.3451 C   0  0  0  0  0  0  0  0  0  0  0  0
   -2.7144    2.2042    0.3666 C   0  0  0  0  0  0  0  0  0  0  0  0
   -2.1408    1.4664    2.6954 C   0  0  0  0  0  0  0  0  0  0  0  0
   -2.0398    0.3354    3.2414 O   0  0  0  0  0  0  0  0  0  0  0  0
   -2.7400    2.5036    3.4088 O   0  0  0  0  0  0  0  0  0  0  0  0
   -2.3009   -2.8743   -0.1993 C   0  0  0  0  0  0  0  0  0  0  0  0
   -3.6375   -2.8836    0.2096 C   0  0  0  0  0  0  0  0  0  0  0  0
   -4.3001   -4.3795   -0.1881 S   0  0  0  0  0  0  0  0  0  0  0  0
   -2.8683   -4.9416   -0.8602 C   0  0  0  0  0  0  0  0  0  0  0  0
   -2.6976   -6.2354   -1.4331 N   0  0  0  0  0  0  0  0  0  0  0  0
   -1.8812   -4.0245   -0.7969 N   0  0  0  0  0  0  0  0  0  0  0  0
    2.5249   -0.0514    0.4347 C   0  0  0  0  0  0  0  0  0  0  0  0
    2.4929   -0.5543    1.5883 O   0  0  0  0  0  0  0  0  0  0  0  0
    2.9625    1.2442   -0.1305 N   0  0  0  0  0  0  0  0  0  0  0  0
    3.5942    2.7168    0.5151 S   0  0  0  0  0  0  0  0  0  0  0  0
    2.7241    3.8620    0.0805 O   0  0  0  0  0  0  0  0  0  0  0  0
    3.6002    2.6433    2.0162 O   0  0  0  0  0  0  0  0  0  0  0  0
    5.1623    2.9555   -0.0424 O   0  0  0  0  0  0  0  0  0  0  0  0
    4.1666    1.6947   -2.6114 H   0  0  0  0  0  0  0  0  0  0  0  0
    3.5181    0.1658   -3.3146 H   0  0  0  0  0  0  0  0  0  0  0  0
    4.6279    0.1076   -1.8842 H   0  0  0  0  0  0  0  0  0  0  0  0
    1.7921    1.4202   -1.8825 H   0  0  0  0  0  0  0  0  0  0  0  0
    2.6981   -1.4012   -1.2842 H   0  0  0  0  0  0  0  0  0  0  0  0
    0.0798    0.0396   -1.4785 H   0  0  0  0  0  0  0  0  0  0  0  0
    0.3551    2.3372    2.0161 H   0  0  0  0  0  0  0  0  0  0  0  0
   -0.0187    2.8391    0.3301 H   0  0  0  0  0  0  0  0  0  0  0  0
   -0.8000    3.6918    1.7135 H   0  0  0  0  0  0  0  0  0  0  0  0
   -3.0628    3.2132    0.6738 H   0  0  0  0  0  0  0  0  0  0  0  0
   -2.3377    2.2692   -0.6775 H   0  0  0  0  0  0  0  0  0  0  0  0
   -3.5842    1.5129    0.3804 H   0  0  0  0  0  0  0  0  0  0  0  0
   -2.8299    3.4354    3.0236 H   0  0  0  0  0  0  0  0  0  0  0  0
   -4.1631   -2.0739    0.6991 H   0  0  0  0  0  0  0  0  0  0  0  0
   -1.7757   -6.5149   -1.8362 H   0  0  0  0  0  0  0  0  0  0  0  0
   -3.4939   -6.9092   -1.4612 H   0  0  0  0  0  0  0  0  0  0  0  0
    5.6161    2.0852    0.0956 H   0  0  0  0  0  0  0  0  0  0  0  0
  2  1  1  0
  2  3  1  0
  3  4  1  0
  4  5  1  0
  5  6  2  0
  5  7  1  0
  7  8  2  0
  8  9  1  0
  9 10  1  0
 10 11  1  0
 10 12  1  0
 10 13  1  0
 13 14  2  0
 13 15  1  0
  7 16  1  0
 16 17  2  0
 17 18  1  0
 18 19  1  0
 19 20  1  0
 19 21  2  0
 21 16  1  0
  3 22  1  0
 22 23  2  0
 22 24  1  0
 24  2  1  0
 24 25  1  0
 25 26  2  0
 25 27  2  0
 25 28  1  0
  1 29  1  0
  1 30  1  0
  1 31  1  0
  2 32  1  6
  3 33  1  6
  4 34  1  0
 11 35  1  0
 11 36  1  0
 11 37  1  0
 12 38  1  0
 12 39  1  0
 12 40  1  0
 15 41  1  0
 17 42  1  0
 20 43  1  0
 20 44  1  0
 28 45  1  0
M  END
> <ID>
HT0220

> <Class>
0.0

> <Clusters>
45

> <Fold>
2

$$$$