
     RDKit          3D

 59 61  0  0  0  0  0  0  0  0999 V2000
    4.8676   -3.2750   -0.6772 C   0  0  0  0  0  0  0  0  0  0  0  0
    4.7517   -1.8716   -0.2842 C   0  0  0  0  0  0  0  0  0  0  0  0
    4.6482   -0.7161    0.0430 C   0  0  0  0  0  0  0  0  0  0  0  0
    4.5115    0.6904    0.4470 C   0  0  0  0  0  0  0  0  0  0  0  0
    3.4429    1.4170   -0.4047 C   0  0  0  0  0  0  0  0  0  0  0  0
    3.9366    1.5894   -1.8527 C   0  0  0  0  0  0  0  0  0  0  0  0
    3.0657    2.7878    0.2138 C   0  0  1  0  0  0  0  0  0  0  0  0
    2.2031    3.5035   -0.6336 O   0  0  0  0  0  0  0  0  0  0  0  0
    2.4493    2.6399    1.5918 C   0  0  0  0  0  0  0  0  0  0  0  0
    1.2400    2.1179    1.8879 C   0  0  0  0  0  0  0  0  0  0  0  0
    0.1914    1.6221    0.8996 C   0  0  2  0  0  0  0  0  0  0  0  0
   -1.2019    2.0395    1.3879 C   0  0  1  0  0  0  0  0  0  0  0  0
   -2.0872    2.0903    0.2975 O   0  0  0  0  0  0  0  0  0  0  0  0
   -1.6346    0.9435    2.3647 C   0  0  0  0  0  0  0  0  0  0  0  0
   -0.9323   -0.3366    1.9104 C   0  0  1  0  0  0  0  0  0  0  0  0
   -1.8459   -1.1684    1.1984 O   0  0  0  0  0  0  0  0  0  0  0  0
   -1.5123   -1.2172   -0.1367 C   0  0  0  0  0  0  0  0  0  0  0  0
   -2.2181   -1.8777   -1.1470 C   0  0  0  0  0  0  0  0  0  0  0  0
   -3.4704   -2.6570   -0.8451 C   0  0  0  0  0  0  0  0  0  0  0  0
   -4.7453   -1.8356   -1.1078 C   0  0  0  0  0  0  0  0  0  0  0  0
   -4.9538   -0.6768   -0.1170 C   0  0  0  0  0  0  0  0  0  0  0  0
   -5.2904   -1.1230    1.2784 C   0  0  0  0  0  0  0  0  0  0  0  0
   -5.3802   -0.2640    2.1951 O   0  0  0  0  0  0  0  0  0  0  0  0
   -5.5233   -2.4642    1.5710 O   0  0  0  0  0  0  0  0  0  0  0  0
   -1.7402   -1.7599   -2.4673 C   0  0  0  0  0  0  0  0  0  0  0  0
   -0.5822   -1.0112   -2.7398 C   0  0  0  0  0  0  0  0  0  0  0  0
    0.1061   -0.3695   -1.7000 C   0  0  0  0  0  0  0  0  0  0  0  0
   -0.3850   -0.4882   -0.3953 C   0  0  0  0  0  0  0  0  0  0  0  0
    0.1521    0.0846    0.8852 C   0  0  1  0  0  0  0  0  0  0  0  0
    4.0356   -3.5351   -1.3619 H   0  0  0  0  0  0  0  0  0  0  0  0
    4.8177   -3.9199    0.2252 H   0  0  0  0  0  0  0  0  0  0  0  0
    5.8382   -3.4384   -1.1922 H   0  0  0  0  0  0  0  0  0  0  0  0
    5.4966    1.1963    0.3523 H   0  0  0  0  0  0  0  0  0  0  0  0
    4.2283    0.6940    1.5195 H   0  0  0  0  0  0  0  0  0  0  0  0
    2.5358    0.7867   -0.4313 H   0  0  0  0  0  0  0  0  0  0  0  0
    4.1794    0.6036   -2.3027 H   0  0  0  0  0  0  0  0  0  0  0  0
    3.1471    2.0505   -2.4827 H   0  0  0  0  0  0  0  0  0  0  0  0
    4.8414    2.2319   -1.8827 H   0  0  0  0  0  0  0  0  0  0  0  0
    4.0114    3.3682    0.3281 H   0  0  0  0  0  0  0  0  0  0  0  0
    2.2012    4.4454   -0.3163 H   0  0  0  0  0  0  0  0  0  0  0  0
    3.0609    2.9709    2.4271 H   0  0  0  0  0  0  0  0  0  0  0  0
    0.9990    2.0346    2.9453 H   0  0  0  0  0  0  0  0  0  0  0  0
    0.3742    2.0314   -0.1132 H   0  0  0  0  0  0  0  0  0  0  0  0
   -1.1715    3.0347    1.8931 H   0  0  0  0  0  0  0  0  0  0  0  0
   -2.8944    2.5790    0.6073 H   0  0  0  0  0  0  0  0  0  0  0  0
   -2.7405    0.8254    2.3860 H   0  0  0  0  0  0  0  0  0  0  0  0
   -1.2946    1.2068    3.3903 H   0  0  0  0  0  0  0  0  0  0  0  0
   -0.4944   -0.8930    2.7659 H   0  0  0  0  0  0  0  0  0  0  0  0
   -3.4949   -3.5588   -1.4927 H   0  0  0  0  0  0  0  0  0  0  0  0
   -3.4492   -3.0285    0.2000 H   0  0  0  0  0  0  0  0  0  0  0  0
   -5.6283   -2.5115   -1.0742 H   0  0  0  0  0  0  0  0  0  0  0  0
   -4.7022   -1.4195   -2.1376 H   0  0  0  0  0  0  0  0  0  0  0  0
   -4.0514   -0.0315   -0.0921 H   0  0  0  0  0  0  0  0  0  0  0  0
   -5.7922   -0.0471   -0.4846 H   0  0  0  0  0  0  0  0  0  0  0  0
   -5.7493   -2.7607    2.5116 H   0  0  0  0  0  0  0  0  0  0  0  0
   -2.2634   -2.2388   -3.2825 H   0  0  0  0  0  0  0  0  0  0  0  0
   -0.2239   -0.9243   -3.7575 H   0  0  0  0  0  0  0  0  0  0  0  0
    0.9844    0.2125   -1.9209 H   0  0  0  0  0  0  0  0  0  0  0  0
    1.1359   -0.3788    1.1228 H   0  0  0  0  0  0  0  0  0  0  0  0
  1  2  1  0
  2  3  3  0
  3  4  1  0
  4  5  1  0
  5  6  1  0
  5  7  1  0
  7  8  1  0
  7  9  1  0
  9 10  2  3
 11 10  1  0
 11 12  1  0
 12 13  1  0
 12 14  1  0
 14 15  1  0
 15 16  1  0
 16 17  1  0
 17 18  2  0
 18 19  1  0
 19 20  1  0
 20 21  1  0
 21 22  1  0
 22 23  2  0
 22 24  1  0
 18 25  1  0
 25 26  2  0
 26 27  1  0
 27 28  2  0
 28 17  1  0
 29 28  1  0
 29 11  1  0
 29 15  1  0
  1 30  1  0
  1 31  1  0
  1 32  1  0
  4 33  1  0
  4 34  1  0
  5 35  1  0
  6 36  1  0
  6 37  1  0
  6 38  1  0
  7 39  1  1
  8 40  1  0
  9 41  1  0
 10 42  1  0
 11 43  1  6
 12 44  1  1
 13 45  1  0
 14 46  1  0
 14 47  1  0
 15 48  1  1
 19 49  1  0
 19 50  1  0
 20 51  1  0
 20 52  1  0
 21 53  1  0
 21 54  1  0
 24 55  1  0
 25 56  1  0
 26 57  1  0
 27 58  1  0
 29 59  1  1
M  END
> <ID>
HT0264

> <Class>
0.0

> <Clusters>
81

> <Fold>
2

$$$$