
     RDKit          3D

 31 32  0  0  0  0  0  0  0  0999 V2000
   -4.6559   -2.4014    1.7504 C   0  0  0  0  0  0  0  0  0  0  0  0
   -3.6628   -2.1858    0.7534 O   0  0  0  0  0  0  0  0  0  0  0  0
   -2.9297   -0.9985    0.6148 C   0  0  0  0  0  0  0  0  0  0  0  0
   -3.1050    0.1115    1.4566 C   0  0  0  0  0  0  0  0  0  0  0  0
   -2.3597    1.2310    1.2669 N   0  0  0  0  0  0  0  0  0  0  0  0
   -1.4391    1.3021    0.2697 C   0  0  0  0  0  0  0  0  0  0  0  0
   -0.6661    2.4941    0.1018 N   0  0  0  0  0  0  0  0  0  0  0  0
    0.5532    2.6329   -1.1219 S   0  0  0  0  0  0  0  0  0  0  0  0
    1.2334    3.9670   -0.9997 O   0  0  0  0  0  0  0  0  0  0  0  0
   -0.0994    2.5353   -2.4726 O   0  0  0  0  0  0  0  0  0  0  0  0
    1.7505    1.3580   -0.9202 C   0  0  0  0  0  0  0  0  0  0  0  0
    2.1582    0.9800    0.3660 C   0  0  0  0  0  0  0  0  0  0  0  0
    3.1021   -0.0374    0.5344 C   0  0  0  0  0  0  0  0  0  0  0  0
    3.6500   -0.6836   -0.5827 C   0  0  0  0  0  0  0  0  0  0  0  0
    4.6151   -1.7247   -0.4108 N   0  0  0  0  0  0  0  0  0  0  0  0
    3.2458   -0.3010   -1.8698 C   0  0  0  0  0  0  0  0  0  0  0  0
    2.3012    0.7162   -2.0379 C   0  0  0  0  0  0  0  0  0  0  0  0
   -1.2567    0.2370   -0.5563 N   0  0  0  0  0  0  0  0  0  0  0  0
   -1.9790   -0.9021   -0.4026 C   0  0  0  0  0  0  0  0  0  0  0  0
   -5.0745   -3.4217    1.6310 H   0  0  0  0  0  0  0  0  0  0  0  0
   -5.4780   -1.6636    1.6362 H   0  0  0  0  0  0  0  0  0  0  0  0
   -4.2057   -2.3173    2.7621 H   0  0  0  0  0  0  0  0  0  0  0  0
   -3.8266    0.0949    2.2612 H   0  0  0  0  0  0  0  0  0  0  0  0
   -0.8233    3.3023    0.7441 H   0  0  0  0  0  0  0  0  0  0  0  0
    1.7437    1.4709    1.2375 H   0  0  0  0  0  0  0  0  0  0  0  0
    3.4063   -0.3218    1.5339 H   0  0  0  0  0  0  0  0  0  0  0  0
    4.9225   -2.0163    0.5438 H   0  0  0  0  0  0  0  0  0  0  0  0
    5.0290   -2.2116   -1.2369 H   0  0  0  0  0  0  0  0  0  0  0  0
    3.6624   -0.7905   -2.7411 H   0  0  0  0  0  0  0  0  0  0  0  0
    2.0011    1.0005   -3.0382 H   0  0  0  0  0  0  0  0  0  0  0  0
   -1.8131   -1.7350   -1.0731 H   0  0  0  0  0  0  0  0  0  0  0  0
  1  2  1  0
  2  3  1  0
  3  4  2  0
  4  5  1  0
  5  6  2  0
  6  7  1  0
  7  8  1  0
  8  9  2  0
  8 10  2  0
  8 11  1  0
 11 12  2  0
 12 13  1  0
 13 14  2  0
 14 15  1  0
 14 16  1  0
 16 17  2  0
 17 11  1  0
  6 18  1  0
 18 19  2  0
 19  3  1  0
  1 20  1  0
  1 21  1  0
  1 22  1  0
  4 23  1  0
  7 24  1  0
 12 25  1  0
 13 26  1  0
 15 27  1  0
 15 28  1  0
 16 29  1  0
 17 30  1  0
 19 31  1  0
M  END
> <ID>
HT1942

> <Class>
0.0

> <Clusters>
220

> <Fold>
2

$$$$