
     RDKit          3D

 36 38  0  0  0  0  0  0  0  0999 V2000
   -0.3199   -3.9994   -0.0134 C   0  0  0  0  0  0  0  0  0  0  0  0
    0.8432   -3.0616   -0.0061 C   0  0  0  0  0  0  0  0  0  0  0  0
    2.0910   -3.4433    0.1325 O   0  0  0  0  0  0  0  0  0  0  0  0
    2.8979   -2.4223    0.1535 N   0  0  0  0  0  0  0  0  0  0  0  0
    2.1454   -1.3110    0.0197 C   0  0  0  0  0  0  0  0  0  0  0  0
    2.7187    0.0526   -0.0188 C   0  0  0  0  0  0  0  0  0  0  0  0
    3.8748    0.3435    0.7257 C   0  0  0  0  0  0  0  0  0  0  0  0
    4.4327    1.6253    0.6935 C   0  0  0  0  0  0  0  0  0  0  0  0
    3.8496    2.6237   -0.0904 C   0  0  0  0  0  0  0  0  0  0  0  0
    2.7119    2.3399   -0.8496 C   0  0  0  0  0  0  0  0  0  0  0  0
    2.1509    1.0595   -0.8210 C   0  0  0  0  0  0  0  0  0  0  0  0
    0.8101   -1.6806   -0.0909 C   0  0  0  0  0  0  0  0  0  0  0  0
   -0.3862   -0.8136   -0.1011 C   0  0  0  0  0  0  0  0  0  0  0  0
   -0.5216    0.2142    0.8458 C   0  0  0  0  0  0  0  0  0  0  0  0
   -1.6500    1.0386    0.8359 C   0  0  0  0  0  0  0  0  0  0  0  0
   -2.6543    0.8478   -0.1219 C   0  0  0  0  0  0  0  0  0  0  0  0
   -2.5263   -0.1827   -1.0626 C   0  0  0  0  0  0  0  0  0  0  0  0
   -1.3976   -1.0075   -1.0541 C   0  0  0  0  0  0  0  0  0  0  0  0
   -4.0806    1.8794   -0.1234 S   0  0  0  0  0  0  0  0  0  0  0  0
   -3.7078    3.2615    0.3359 O   0  0  0  0  0  0  0  0  0  0  0  0
   -4.6436    1.9692   -1.5141 O   0  0  0  0  0  0  0  0  0  0  0  0
   -5.2714    1.2145    0.9385 N   0  0  0  0  0  0  0  0  0  0  0  0
   -1.0358   -3.7157    0.7860 H   0  0  0  0  0  0  0  0  0  0  0  0
    0.0309   -5.0367    0.1686 H   0  0  0  0  0  0  0  0  0  0  0  0
   -0.8287   -3.9661   -0.9979 H   0  0  0  0  0  0  0  0  0  0  0  0
    4.3379   -0.4172    1.3421 H   0  0  0  0  0  0  0  0  0  0  0  0
    5.3177    1.8445    1.2768 H   0  0  0  0  0  0  0  0  0  0  0  0
    4.2832    3.6151   -0.1149 H   0  0  0  0  0  0  0  0  0  0  0  0
    2.2684    3.1104   -1.4669 H   0  0  0  0  0  0  0  0  0  0  0  0
    1.2881    0.8547   -1.4407 H   0  0  0  0  0  0  0  0  0  0  0  0
    0.2428    0.3728    1.5965 H   0  0  0  0  0  0  0  0  0  0  0  0
   -1.7414    1.8225    1.5769 H   0  0  0  0  0  0  0  0  0  0  0  0
   -3.2972   -0.3469   -1.8046 H   0  0  0  0  0  0  0  0  0  0  0  0
   -1.3049   -1.7812   -1.8049 H   0  0  0  0  0  0  0  0  0  0  0  0
   -4.8565    1.2099    1.8972 H   0  0  0  0  0  0  0  0  0  0  0  0
   -6.0714    1.8860    0.9593 H   0  0  0  0  0  0  0  0  0  0  0  0
  1  2  1  0
  2  3  1  0
  3  4  1  0
  4  5  2  0
  5  6  1  0
  6  7  2  0
  7  8  1  0
  8  9  2  0
  9 10  1  0
 10 11  2  0
 11  6  1  0
  5 12  1  0
 12  2  2  0
 12 13  1  0
 13 14  2  0
 14 15  1  0
 15 16  2  0
 16 17  1  0
 17 18  2  0
 18 13  1  0
 16 19  1  0
 19 20  2  0
 19 21  2  0
 19 22  1  0
  1 23  1  0
  1 24  1  0
  1 25  1  0
  7 26  1  0
  8 27  1  0
  9 28  1  0
 10 29  1  0
 11 30  1  0
 14 31  1  0
 15 32  1  0
 17 33  1  0
 18 34  1  0
 22 35  1  0
 22 36  1  0
M  END
> <ID>
HT2161

> <Class>
0.0

> <Clusters>
238

> <Fold>
2

$$$$