
     RDKit          3D

 24 24  0  0  0  0  0  0  0  0999 V2000
    4.5204   -0.3231   -0.9087 C   0  0  0  0  0  0  0  0  0  0  0  0
    3.5593   -0.0571    0.2047 C   0  0  0  0  0  0  0  0  0  0  0  0
    4.0056    0.1717    1.3609 O   0  0  0  0  0  0  0  0  0  0  0  0
    2.1477   -0.0616   -0.0365 N   0  0  0  0  0  0  0  0  0  0  0  0
    1.0077    0.2426    1.2311 S   0  0  0  0  0  0  0  0  0  0  0  0
    1.1666   -0.7865    2.3153 O   0  0  0  0  0  0  0  0  0  0  0  0
    1.2452    1.6091    1.8109 O   0  0  0  0  0  0  0  0  0  0  0  0
   -0.6235    0.1578    0.5742 C   0  0  0  0  0  0  0  0  0  0  0  0
   -1.2324    1.3055    0.0483 C   0  0  0  0  0  0  0  0  0  0  0  0
   -2.5222    1.2352   -0.4872 C   0  0  0  0  0  0  0  0  0  0  0  0
   -3.2127    0.0151   -0.5067 C   0  0  0  0  0  0  0  0  0  0  0  0
   -4.5315   -0.0571   -1.0548 N   0  0  0  0  0  0  0  0  0  0  0  0
   -2.5999   -1.1344    0.0118 C   0  0  0  0  0  0  0  0  0  0  0  0
   -1.3101   -1.0639    0.5472 C   0  0  0  0  0  0  0  0  0  0  0  0
    5.1900    0.5526   -1.0383 H   0  0  0  0  0  0  0  0  0  0  0  0
    5.1320   -1.2170   -0.6657 H   0  0  0  0  0  0  0  0  0  0  0  0
    3.9828   -0.5063   -1.8625 H   0  0  0  0  0  0  0  0  0  0  0  0
    1.7829   -0.2518   -0.9963 H   0  0  0  0  0  0  0  0  0  0  0  0
   -0.7092    2.2533    0.0496 H   0  0  0  0  0  0  0  0  0  0  0  0
   -2.9819    2.1296   -0.8883 H   0  0  0  0  0  0  0  0  0  0  0  0
   -4.9958    0.7935   -1.4444 H   0  0  0  0  0  0  0  0  0  0  0  0
   -5.0534   -0.9616   -1.0748 H   0  0  0  0  0  0  0  0  0  0  0  0
   -3.1201   -2.0840   -0.0011 H   0  0  0  0  0  0  0  0  0  0  0  0
   -0.8475   -1.9616    0.9371 H   0  0  0  0  0  0  0  0  0  0  0  0
  1  2  1  0
  2  3  2  0
  2  4  1  0
  4  5  1  0
  5  6  2  0
  5  7  2  0
  5  8  1  0
  8  9  2  0
  9 10  1  0
 10 11  2  0
 11 12  1  0
 11 13  1  0
 13 14  2  0
 14  8  1  0
  1 15  1  0
  1 16  1  0
  1 17  1  0
  4 18  1  0
  9 19  1  0
 10 20  1  0
 12 21  1  0
 12 22  1  0
 13 23  1  0
 14 24  1  0
M  END
> <ID>
HT1934

> <Class>
0.0

> <Clusters>
220

> <Fold>
2

$$$$