
     RDKit          3D

 31 32  0  0  0  0  0  0  0  0999 V2000
   -4.3294   -0.8527    1.0178 C   0  0  0  0  0  0  0  0  0  0  0  0
   -3.0501   -0.6166    0.2837 C   0  0  0  0  0  0  0  0  0  0  0  0
   -2.0961   -1.5556    0.1139 N   0  0  0  0  0  0  0  0  0  0  0  0
   -1.1419   -1.0086   -0.5841 O   0  0  0  0  0  0  0  0  0  0  0  0
   -1.4311    0.2382   -0.8754 C   0  0  0  0  0  0  0  0  0  0  0  0
   -0.5941    1.1047   -1.6447 N   0  0  0  0  0  0  0  0  0  0  0  0
    0.9480    0.5709   -2.2209 S   0  0  0  0  0  0  0  0  0  0  0  0
    0.7408   -0.5661   -3.1821 O   0  0  0  0  0  0  0  0  0  0  0  0
    1.6331    1.7015   -2.9347 O   0  0  0  0  0  0  0  0  0  0  0  0
    1.9467    0.0578   -0.8650 C   0  0  0  0  0  0  0  0  0  0  0  0
    2.8125   -1.0367   -0.9951 C   0  0  0  0  0  0  0  0  0  0  0  0
    3.6013   -1.4414    0.0863 C   0  0  0  0  0  0  0  0  0  0  0  0
    3.5336   -0.7533    1.3061 C   0  0  0  0  0  0  0  0  0  0  0  0
    4.3403   -1.1670    2.4120 N   0  0  0  0  0  0  0  0  0  0  0  0
    2.6711    0.3447    1.4334 C   0  0  0  0  0  0  0  0  0  0  0  0
    1.8829    0.7494    0.3520 C   0  0  0  0  0  0  0  0  0  0  0  0
   -2.6547    0.5586   -0.3288 C   0  0  0  0  0  0  0  0  0  0  0  0
   -3.4118    1.8428   -0.4580 C   0  0  0  0  0  0  0  0  0  0  0  0
   -4.3713   -1.8982    1.3893 H   0  0  0  0  0  0  0  0  0  0  0  0
   -5.1884   -0.6775    0.3369 H   0  0  0  0  0  0  0  0  0  0  0  0
   -4.3974   -0.1606    1.8828 H   0  0  0  0  0  0  0  0  0  0  0  0
   -0.9003    2.0801   -1.8554 H   0  0  0  0  0  0  0  0  0  0  0  0
    2.8786   -1.5765   -1.9309 H   0  0  0  0  0  0  0  0  0  0  0  0
    4.2648   -2.2896   -0.0263 H   0  0  0  0  0  0  0  0  0  0  0  0
    4.9862   -1.9833    2.3266 H   0  0  0  0  0  0  0  0  0  0  0  0
    4.2978   -0.6598    3.3240 H   0  0  0  0  0  0  0  0  0  0  0  0
    2.6107    0.8864    2.3690 H   0  0  0  0  0  0  0  0  0  0  0  0
    1.2230    1.6003    0.4641 H   0  0  0  0  0  0  0  0  0  0  0  0
   -2.7328    2.7005   -0.2711 H   0  0  0  0  0  0  0  0  0  0  0  0
   -3.8311    1.9230   -1.4823 H   0  0  0  0  0  0  0  0  0  0  0  0
   -4.2410    1.8846    0.2782 H   0  0  0  0  0  0  0  0  0  0  0  0
  1  2  1  0
  2  3  2  0
  3  4  1  0
  4  5  1  0
  5  6  1  0
  6  7  1  0
  7  8  2  0
  7  9  2  0
  7 10  1  0
 10 11  2  0
 11 12  1  0
 12 13  2  0
 13 14  1  0
 13 15  1  0
 15 16  2  0
 16 10  1  0
  5 17  2  0
 17  2  1  0
 17 18  1  0
  1 19  1  0
  1 20  1  0
  1 21  1  0
  6 22  1  0
 11 23  1  0
 12 24  1  0
 14 25  1  0
 14 26  1  0
 15 27  1  0
 16 28  1  0
 18 29  1  0
 18 30  1  0
 18 31  1  0
M  END
> <ID>
HT1957

> <Class>
0.0

> <Clusters>
220

> <Fold>
2

$$$$