
     RDKit          3D

 31 32  0  0  0  0  0  0  0  0999 V2000
   -0.7465    2.0554   -0.0422 C   0  0  0  0  0  0  0  0  0  0  0  0
   -0.9541    0.5266   -0.0816 C   0  0  0  0  0  0  0  0  0  0  0  0
    0.0658   -0.1655    0.8774 C   0  0  0  0  0  0  0  0  0  0  0  0
   -0.2709   -1.4950    1.2607 O   0  0  0  0  0  0  0  0  0  0  0  0
   -1.1877   -2.1083    0.3798 C   0  0  0  0  0  0  0  0  0  0  0  0
   -2.5103   -1.3284    0.3016 C   0  0  0  0  0  0  0  0  0  0  0  0
   -2.3210    0.1420    0.3439 N   0  0  0  0  0  0  0  0  0  0  0  0
   -3.3746    0.8036   -0.4496 C   0  0  0  0  0  0  0  0  0  0  0  0
    1.4906   -0.1204    0.3531 C   0  0  0  0  0  0  0  0  0  0  0  0
    2.4854    0.5591    1.0824 C   0  0  0  0  0  0  0  0  0  0  0  0
    3.8016    0.6071    0.6136 C   0  0  0  0  0  0  0  0  0  0  0  0
    4.1414   -0.0216   -0.5857 C   0  0  0  0  0  0  0  0  0  0  0  0
    3.1652   -0.6987   -1.3190 C   0  0  0  0  0  0  0  0  0  0  0  0
    1.8472   -0.7501   -0.8550 C   0  0  0  0  0  0  0  0  0  0  0  0
   -1.0777    2.4686    0.9344 H   0  0  0  0  0  0  0  0  0  0  0  0
   -1.3114    2.5491   -0.8601 H   0  0  0  0  0  0  0  0  0  0  0  0
    0.3235    2.3101   -0.1940 H   0  0  0  0  0  0  0  0  0  0  0  0
   -0.7825    0.1885   -1.1292 H   0  0  0  0  0  0  0  0  0  0  0  0
    0.0294    0.4158    1.8261 H   0  0  0  0  0  0  0  0  0  0  0  0
   -0.7473   -2.2229   -0.6322 H   0  0  0  0  0  0  0  0  0  0  0  0
   -1.3982   -3.1347    0.7475 H   0  0  0  0  0  0  0  0  0  0  0  0
   -3.1463   -1.6197    1.1651 H   0  0  0  0  0  0  0  0  0  0  0  0
   -3.0353   -1.6543   -0.6263 H   0  0  0  0  0  0  0  0  0  0  0  0
   -3.4352    1.8799   -0.1873 H   0  0  0  0  0  0  0  0  0  0  0  0
   -3.1857    0.6922   -1.5404 H   0  0  0  0  0  0  0  0  0  0  0  0
   -4.3720    0.3730   -0.2109 H   0  0  0  0  0  0  0  0  0  0  0  0
    2.2448    1.0543    2.0148 H   0  0  0  0  0  0  0  0  0  0  0  0
    4.5587    1.1325    1.1813 H   0  0  0  0  0  0  0  0  0  0  0  0
    5.1608    0.0170   -0.9474 H   0  0  0  0  0  0  0  0  0  0  0  0
    3.4293   -1.1832   -2.2503 H   0  0  0  0  0  0  0  0  0  0  0  0
    1.1128   -1.2721   -1.4494 H   0  0  0  0  0  0  0  0  0  0  0  0
  1  2  1  0
  2  3  1  0
  3  4  1  0
  4  5  1  0
  5  6  1  0
  6  7  1  0
  7  2  1  0
  7  8  1  0
  3  9  1  0
  9 10  2  0
 10 11  1  0
 11 12  2  0
 12 13  1  0
 13 14  2  0
 14  9  1  0
  1 15  1  0
  1 16  1  0
  1 17  1  0
  2 18  1  0
  3 19  1  0
  5 20  1  0
  5 21  1  0
  6 22  1  0
  6 23  1  0
  8 24  1  0
  8 25  1  0
  8 26  1  0
 10 27  1  0
 11 28  1  0
 12 29  1  0
 13 30  1  0
 14 31  1  0
M  END
> <ID>
HT1643

> <Class>
0.0

> <Clusters>
191

> <Fold>
2

$$$$