
     RDKit          3D

 49 52  0  0  0  0  0  0  0  0999 V2000
   -5.3747   -1.6106    3.0206 C   0  0  0  0  0  0  0  0  0  0  0  0
   -5.6518   -0.6616    1.9957 O   0  0  0  0  0  0  0  0  0  0  0  0
   -4.7078   -0.1921    1.0682 C   0  0  0  0  0  0  0  0  0  0  0  0
   -3.3718   -0.6281    1.0786 C   0  0  0  0  0  0  0  0  0  0  0  0
   -2.4591   -0.1420    0.1395 C   0  0  0  0  0  0  0  0  0  0  0  0
   -1.1749   -0.5791    0.1720 N   0  0  0  0  0  0  0  0  0  0  0  0
   -0.2512   -0.1372   -0.7200 C   0  0  0  0  0  0  0  0  0  0  0  0
   -0.6209    0.7622   -1.6693 N   0  0  0  0  0  0  0  0  0  0  0  0
   -1.8891    1.2433   -1.7604 C   0  0  0  0  0  0  0  0  0  0  0  0
   -2.1753    2.1885   -2.7997 N   0  0  0  0  0  0  0  0  0  0  0  0
   -2.8655    0.7948   -0.8363 C   0  0  0  0  0  0  0  0  0  0  0  0
   -4.2058    1.2313   -0.8405 C   0  0  0  0  0  0  0  0  0  0  0  0
   -5.1256    0.7401    0.1081 C   0  0  0  0  0  0  0  0  0  0  0  0
   -6.4676    1.1545    0.1300 O   0  0  0  0  0  0  0  0  0  0  0  0
   -7.0421    2.0916   -0.7751 C   0  0  0  0  0  0  0  0  0  0  0  0
    1.1051   -0.6249   -0.6612 N   0  0  0  0  0  0  0  0  0  0  0  0
    1.4306   -1.7411    0.2409 C   0  0  0  0  0  0  0  0  0  0  0  0
    2.8296   -2.3017   -0.0340 C   0  0  0  0  0  0  0  0  0  0  0  0
    3.8166   -1.2132   -0.0996 N   0  0  0  0  0  0  0  0  0  0  0  0
    3.4758    0.0286   -0.8141 C   0  0  0  0  0  0  0  0  0  0  0  0
    2.1395   -0.0852   -1.5563 C   0  0  0  0  0  0  0  0  0  0  0  0
    5.1493   -1.4292    0.4216 C   0  0  0  0  0  0  0  0  0  0  0  0
    5.5386   -2.6058    0.6597 O   0  0  0  0  0  0  0  0  0  0  0  0
    6.0885   -0.3175    0.6877 C   0  0  0  0  0  0  0  0  0  0  0  0
    5.7861    0.9590    0.6230 O   0  0  0  0  0  0  0  0  0  0  0  0
    6.8509    1.6638    0.9283 C   0  0  0  0  0  0  0  0  0  0  0  0
    7.9026    0.8172    1.2095 C   0  0  0  0  0  0  0  0  0  0  0  0
    7.4133   -0.4617    1.0567 C   0  0  0  0  0  0  0  0  0  0  0  0
   -5.0367   -2.5688    2.5724 H   0  0  0  0  0  0  0  0  0  0  0  0
   -6.3010   -1.7976    3.6015 H   0  0  0  0  0  0  0  0  0  0  0  0
   -4.5978   -1.2144    3.7080 H   0  0  0  0  0  0  0  0  0  0  0  0
   -3.0312   -1.3460    1.8130 H   0  0  0  0  0  0  0  0  0  0  0  0
   -1.4086    2.4874   -3.4425 H   0  0  0  0  0  0  0  0  0  0  0  0
   -3.1154    2.6016   -2.9688 H   0  0  0  0  0  0  0  0  0  0  0  0
   -4.5500    1.9467   -1.5659 H   0  0  0  0  0  0  0  0  0  0  0  0
   -8.1136    2.2283   -0.5229 H   0  0  0  0  0  0  0  0  0  0  0  0
   -6.5290    3.0723   -0.6865 H   0  0  0  0  0  0  0  0  0  0  0  0
   -6.9684    1.7122   -1.8160 H   0  0  0  0  0  0  0  0  0  0  0  0
    0.6921   -2.5615    0.1070 H   0  0  0  0  0  0  0  0  0  0  0  0
    1.3772   -1.3857    1.2927 H   0  0  0  0  0  0  0  0  0  0  0  0
    2.8249   -2.8467   -1.0027 H   0  0  0  0  0  0  0  0  0  0  0  0
    3.0826   -3.0271    0.7697 H   0  0  0  0  0  0  0  0  0  0  0  0
    4.2713    0.2701   -1.5523 H   0  0  0  0  0  0  0  0  0  0  0  0
    3.3943    0.8597   -0.0816 H   0  0  0  0  0  0  0  0  0  0  0  0
    1.8652    0.9249   -1.9291 H   0  0  0  0  0  0  0  0  0  0  0  0
    2.2521   -0.7587   -2.4332 H   0  0  0  0  0  0  0  0  0  0  0  0
    6.8821    2.7447    0.9520 H   0  0  0  0  0  0  0  0  0  0  0  0
    8.9074    1.0997    1.4930 H   0  0  0  0  0  0  0  0  0  0  0  0
    7.9595   -1.3851    1.1983 H   0  0  0  0  0  0  0  0  0  0  0  0
  1  2  1  0
  2  3  1  0
  3  4  2  0
  4  5  1  0
  5  6  2  0
  6  7  1  0
  7  8  2  0
  8  9  1  0
  9 10  1  0
  9 11  2  0
 11  5  1  0
 11 12  1  0
 12 13  2  0
 13  3  1  0
 13 14  1  0
 14 15  1  0
  7 16  1  0
 16 17  1  0
 17 18  1  0
 18 19  1  0
 19 20  1  0
 20 21  1  0
 21 16  1  0
 19 22  1  0
 22 23  2  0
 22 24  1  0
 24 25  1  0
 25 26  1  0
 26 27  2  0
 27 28  1  0
 28 24  2  0
  1 29  1  0
  1 30  1  0
  1 31  1  0
  4 32  1  0
 10 33  1  0
 10 34  1  0
 12 35  1  0
 15 36  1  0
 15 37  1  0
 15 38  1  0
 17 39  1  0
 17 40  1  0
 18 41  1  0
 18 42  1  0
 20 43  1  0
 20 44  1  0
 21 45  1  0
 21 46  1  0
 26 47  1  0
 27 48  1  0
 28 49  1  0
M  END
> <ID>
HT1728

> <Class>
0.0

> <Clusters>
223

> <Fold>
2

$$$$