
     RDKit          3D

 56 59  0  0  0  0  0  0  0  0999 V2000
    5.8271   -0.0208   -1.1356 C   0  0  0  0  0  0  0  0  0  0  0  0
    4.5674   -0.6899   -0.6657 C   0  0  0  0  0  0  0  0  0  0  0  0
    4.3857   -1.8621   -0.9593 O   0  0  0  0  0  0  0  0  0  0  0  0
    3.5970    0.0360    0.2635 C   0  0  1  0  0  0  0  0  0  0  0  0
    3.2934    1.4838   -0.1665 C   0  0  1  0  0  0  0  0  0  0  0  0
    1.9017    1.8144    0.3933 C   0  0  0  0  0  0  0  0  0  0  0  0
    1.3966    0.5451    1.0998 C   0  0  1  0  0  0  0  0  0  0  0  0
   -0.1648    0.4234    1.0829 C   0  0  2  0  0  0  0  0  0  0  0  0
   -0.7377    0.1324    2.4778 C   0  0  0  0  0  0  0  0  0  0  0  0
   -2.2400    0.0181    2.4354 C   0  0  0  0  0  0  0  0  0  0  0  0
   -2.9391   -0.2286    1.3009 C   0  0  0  0  0  0  0  0  0  0  0  0
   -4.4476   -0.0441    1.3263 C   0  0  0  0  0  0  0  0  0  0  0  0
   -4.9924    0.5441    0.0014 C   0  0  1  0  0  0  0  0  0  0  0  0
   -6.1130    1.3495    0.2600 O   0  0  0  0  0  0  0  0  0  0  0  0
   -3.9272    1.3892   -0.7102 C   0  0  0  0  0  0  0  0  0  0  0  0
   -2.6647    0.5754   -1.0794 C   0  0  0  0  0  0  0  0  0  0  0  0
   -2.2616   -0.5379   -0.0475 C   0  0  2  0  0  0  0  0  0  0  0  0
   -2.7841   -1.9202   -0.5307 C   0  0  0  0  0  0  0  0  0  0  0  0
   -0.6979   -0.6552    0.1217 C   0  0  1  0  0  0  0  0  0  0  0  0
    0.1186   -0.6389   -1.1805 C   0  0  0  0  0  0  0  0  0  0  0  0
    1.5728   -1.0737   -0.9269 C   0  0  0  0  0  0  0  0  0  0  0  0
    2.1943   -0.6170    0.4505 C   0  0  1  0  0  0  0  0  0  0  0  0
    2.3013   -1.8144    1.4308 C   0  0  0  0  0  0  0  0  0  0  0  0
    4.3077    2.4316    0.3313 C   0  0  0  0  0  0  0  0  0  0  0  0
    5.1041    3.1750    0.7216 N   0  0  0  0  0  0  0  0  0  0  0  0
    6.4566   -0.7313   -1.7130 H   0  0  0  0  0  0  0  0  0  0  0  0
    5.5809    0.8386   -1.7924 H   0  0  0  0  0  0  0  0  0  0  0  0
    6.4091    0.3368   -0.2608 H   0  0  0  0  0  0  0  0  0  0  0  0
    4.0948    0.0709    1.2616 H   0  0  0  0  0  0  0  0  0  0  0  0
    3.2597    1.5529   -1.2767 H   0  0  0  0  0  0  0  0  0  0  0  0
    1.9135    2.6666    1.1104 H   0  0  0  0  0  0  0  0  0  0  0  0
    1.2365    2.0990   -0.4507 H   0  0  0  0  0  0  0  0  0  0  0  0
    1.7331    0.6436    2.1592 H   0  0  0  0  0  0  0  0  0  0  0  0
   -0.5853    1.4080    0.7771 H   0  0  0  0  0  0  0  0  0  0  0  0
   -0.3137   -0.8062    2.8945 H   0  0  0  0  0  0  0  0  0  0  0  0
   -0.4689    0.9664    3.1618 H   0  0  0  0  0  0  0  0  0  0  0  0
   -2.7723    0.2214    3.3606 H   0  0  0  0  0  0  0  0  0  0  0  0
   -4.7255    0.6456    2.1550 H   0  0  0  0  0  0  0  0  0  0  0  0
   -4.9339   -1.0213    1.5327 H   0  0  0  0  0  0  0  0  0  0  0  0
   -5.2988   -0.2734   -0.6878 H   0  0  0  0  0  0  0  0  0  0  0  0
   -6.8539    0.7367    0.5089 H   0  0  0  0  0  0  0  0  0  0  0  0
   -3.6353    2.2322   -0.0442 H   0  0  0  0  0  0  0  0  0  0  0  0
   -4.3586    1.8312   -1.6348 H   0  0  0  0  0  0  0  0  0  0  0  0
   -2.8083    0.1281   -2.0877 H   0  0  0  0  0  0  0  0  0  0  0  0
   -1.8516    1.3205   -1.1936 H   0  0  0  0  0  0  0  0  0  0  0  0
   -2.5391   -2.7118    0.2103 H   0  0  0  0  0  0  0  0  0  0  0  0
   -2.3354   -2.2073   -1.5029 H   0  0  0  0  0  0  0  0  0  0  0  0
   -3.8799   -1.9377   -0.6699 H   0  0  0  0  0  0  0  0  0  0  0  0
   -0.5091   -1.6450    0.5906 H   0  0  0  0  0  0  0  0  0  0  0  0
    0.1243    0.3773   -1.6261 H   0  0  0  0  0  0  0  0  0  0  0  0
   -0.3233   -1.3195   -1.9362 H   0  0  0  0  0  0  0  0  0  0  0  0
    2.1650   -0.6822   -1.7817 H   0  0  0  0  0  0  0  0  0  0  0  0
    1.6223   -2.1817   -1.0135 H   0  0  0  0  0  0  0  0  0  0  0  0
    2.7445   -1.4999    2.3999 H   0  0  0  0  0  0  0  0  0  0  0  0
    1.3121   -2.2590    1.6471 H   0  0  0  0  0  0  0  0  0  0  0  0
    2.9430   -2.6150    1.0091 H   0  0  0  0  0  0  0  0  0  0  0  0
  1  2  1  0
  2  3  2  0
  4  2  1  0
  4  5  1  0
  5  6  1  0
  7  6  1  0
  7  8  1  0
  8  9  1  0
  9 10  1  0
 10 11  2  0
 11 12  1  0
 12 13  1  0
 13 14  1  0
 13 15  1  0
 15 16  1  0
 16 17  1  0
 17 11  1  0
 17 18  1  6
 17 19  1  0
 19  8  1  0
 19 20  1  0
 20 21  1  0
 21 22  1  0
 22  4  1  0
 22  7  1  0
 22 23  1  1
  5 24  1  0
 24 25  3  0
  1 26  1  0
  1 27  1  0
  1 28  1  0
  4 29  1  1
  5 30  1  6
  6 31  1  0
  6 32  1  0
  7 33  1  1
  8 34  1  6
  9 35  1  0
  9 36  1  0
 10 37  1  0
 12 38  1  0
 12 39  1  0
 13 40  1  6
 14 41  1  0
 15 42  1  0
 15 43  1  0
 16 44  1  0
 16 45  1  0
 18 46  1  0
 18 47  1  0
 18 48  1  0
 19 49  1  1
 20 50  1  0
 20 51  1  0
 21 52  1  0
 21 53  1  0
 23 54  1  0
 23 55  1  0
 23 56  1  0
M  END
> <ID>
HT1736

> <Class>
0.0

> <Clusters>
69

> <Fold>
2

$$$$