
     RDKit          3D

 55 58  0  0  0  0  0  0  0  0999 V2000
   -2.6053   -2.1105    1.9138 C   0  0  0  0  0  0  0  0  0  0  0  0
   -2.3651   -1.8454    0.4155 C   0  0  0  0  0  0  0  0  0  0  0  0
   -0.8676   -1.9245    0.0669 C   0  0  0  0  0  0  0  0  0  0  0  0
   -0.5977   -0.7754   -0.9105 C   0  0  0  0  0  0  0  0  0  0  0  0
    0.8935   -0.3284   -1.0334 C   0  0  0  0  0  0  0  0  0  0  0  0
    1.8067   -1.5266   -1.3671 C   0  0  0  0  0  0  0  0  0  0  0  0
    3.2450   -1.0732   -1.6047 C   0  0  0  0  0  0  0  0  0  0  0  0
    3.7371   -0.3019   -0.4049 C   0  0  0  0  0  0  0  0  0  0  0  0
    4.8754   -0.6794    0.1993 C   0  0  0  0  0  0  0  0  0  0  0  0
    5.3496    0.0050    1.4013 C   0  0  0  0  0  0  0  0  0  0  0  0
    6.4404   -0.3300    1.9335 O   0  0  0  0  0  0  0  0  0  0  0  0
    4.5343    1.0599    1.9971 C   0  0  0  0  0  0  0  0  0  0  0  0
    3.3989    1.4487    1.4155 C   0  0  0  0  0  0  0  0  0  0  0  0
    2.9138    0.9096    0.0678 C   0  0  0  0  0  0  0  0  0  0  0  0
    3.1061    2.0385   -0.9754 C   0  0  0  0  0  0  0  0  0  0  0  0
    1.4137    0.4415    0.2153 C   0  0  0  0  0  0  0  0  0  0  0  0
    0.4020    1.5168    0.5630 C   0  0  0  0  0  0  0  0  0  0  0  0
    0.7114    2.6901    0.6978 O   0  0  0  0  0  0  0  0  0  0  0  0
   -1.0274    1.1036    0.7580 C   0  0  0  0  0  0  0  0  0  0  0  0
   -1.5845    0.3407   -0.4862 C   0  0  0  0  0  0  0  0  0  0  0  0
   -1.7883    1.3652   -1.6340 C   0  0  0  0  0  0  0  0  0  0  0  0
   -2.8938   -0.4882   -0.1676 C   0  0  0  0  0  0  0  0  0  0  0  0
   -3.5315   -0.8336   -1.3855 O   0  0  0  0  0  0  0  0  0  0  0  0
   -3.9105    0.2250    0.7554 C   0  0  0  0  0  0  0  0  0  0  0  0
   -3.5637    0.6396    1.8519 O   0  0  0  0  0  0  0  0  0  0  0  0
   -5.3550    0.4144    0.3477 C   0  0  0  0  0  0  0  0  0  0  0  0
   -6.1505    0.7724    1.4470 O   0  0  0  0  0  0  0  0  0  0  0  0
   -2.2049   -3.1112    2.1832 H   0  0  0  0  0  0  0  0  0  0  0  0
   -2.1004   -1.3584    2.5522 H   0  0  0  0  0  0  0  0  0  0  0  0
   -3.6934   -2.1152    2.1357 H   0  0  0  0  0  0  0  0  0  0  0  0
   -2.8743   -2.6845   -0.1133 H   0  0  0  0  0  0  0  0  0  0  0  0
   -0.6249   -2.9037   -0.4017 H   0  0  0  0  0  0  0  0  0  0  0  0
   -0.2436   -1.8161    0.9788 H   0  0  0  0  0  0  0  0  0  0  0  0
   -0.9032   -1.1440   -1.9183 H   0  0  0  0  0  0  0  0  0  0  0  0
    0.9296    0.3596   -1.9049 H   0  0  0  0  0  0  0  0  0  0  0  0
    1.4365   -2.0370   -2.2829 H   0  0  0  0  0  0  0  0  0  0  0  0
    1.7981   -2.2639   -0.5346 H   0  0  0  0  0  0  0  0  0  0  0  0
    3.8730   -1.9686   -1.8079 H   0  0  0  0  0  0  0  0  0  0  0  0
    3.2909   -0.4286   -2.5079 H   0  0  0  0  0  0  0  0  0  0  0  0
    5.4499   -1.5170   -0.1785 H   0  0  0  0  0  0  0  0  0  0  0  0
    4.8484    1.5209    2.9255 H   0  0  0  0  0  0  0  0  0  0  0  0
    2.8434    2.2419    1.8977 H   0  0  0  0  0  0  0  0  0  0  0  0
    4.1908    2.2114   -1.1489 H   0  0  0  0  0  0  0  0  0  0  0  0
    2.6838    3.0044   -0.6349 H   0  0  0  0  0  0  0  0  0  0  0  0
    2.6475    1.7902   -1.9523 H   0  0  0  0  0  0  0  0  0  0  0  0
    1.4031   -0.2713    1.0693 H   0  0  0  0  0  0  0  0  0  0  0  0
   -1.6457    2.0055    0.9631 H   0  0  0  0  0  0  0  0  0  0  0  0
   -1.0528    0.4645    1.6618 H   0  0  0  0  0  0  0  0  0  0  0  0
   -2.6355    2.0430   -1.3951 H   0  0  0  0  0  0  0  0  0  0  0  0
   -0.8829    1.9904   -1.7820 H   0  0  0  0  0  0  0  0  0  0  0  0
   -1.9924    0.8624   -2.6029 H   0  0  0  0  0  0  0  0  0  0  0  0
   -3.9393   -0.0255   -1.7892 H   0  0  0  0  0  0  0  0  0  0  0  0
   -5.4241    1.1912   -0.4471 H   0  0  0  0  0  0  0  0  0  0  0  0
   -5.7469   -0.5401   -0.0618 H   0  0  0  0  0  0  0  0  0  0  0  0
   -6.0176    1.7460    1.5906 H   0  0  0  0  0  0  0  0  0  0  0  0
  1  2  1  0
  2  3  1  0
  3  4  1  0
  4  5  1  0
  5  6  1  0
  6  7  1  0
  7  8  1  0
  8  9  2  0
  9 10  1  0
 10 11  2  0
 10 12  1  0
 12 13  2  0
 13 14  1  0
 14  8  1  0
 14 15  1  0
 14 16  1  0
 16  5  1  0
 16 17  1  0
 17 18  2  0
 17 19  1  0
 19 20  1  0
 20  4  1  0
 20 21  1  0
 20 22  1  0
 22  2  1  0
 22 23  1  0
 22 24  1  0
 24 25  2  0
 24 26  1  0
 26 27  1  0
  1 28  1  0
  1 29  1  0
  1 30  1  0
  2 31  1  0
  3 32  1  0
  3 33  1  0
  4 34  1  0
  5 35  1  0
  6 36  1  0
  6 37  1  0
  7 38  1  0
  7 39  1  0
  9 40  1  0
 12 41  1  0
 13 42  1  0
 15 43  1  0
 15 44  1  0
 15 45  1  0
 16 46  1  0
 19 47  1  0
 19 48  1  0
 21 49  1  0
 21 50  1  0
 21 51  1  0
 23 52  1  0
 26 53  1  0
 26 54  1  0
 27 55  1  0
M  END
> <ID>
HT3690

> <Class>
0.0

> <Clusters>
35

> <Fold>
2

$$$$