
     RDKit          3D

 24 24  0  0  0  0  0  0  0  0999 V2000
   -3.9370   -0.8675    0.0623 C   0  0  0  0  0  0  0  0  0  0  0  0
   -2.4969   -0.4821    0.3878 C   0  0  0  0  0  0  0  0  0  0  0  0
   -1.8201    0.1919   -0.8117 C   0  0  0  0  0  0  0  0  0  0  0  0
   -0.4137    0.6033   -0.4790 C   0  0  0  0  0  0  0  0  0  0  0  0
    0.5879   -0.3589   -0.2795 C   0  0  0  0  0  0  0  0  0  0  0  0
    1.9001    0.0478    0.0219 C   0  0  0  0  0  0  0  0  0  0  0  0
    2.1745    1.4221    0.1143 C   0  0  0  0  0  0  0  0  0  0  0  0
    1.1523    2.3490   -0.0970 C   0  0  0  0  0  0  0  0  0  0  0  0
   -0.1049    1.9251   -0.3875 N   0  0  0  0  0  0  0  0  0  0  0  0
    2.9780   -0.9495    0.2415 C   0  0  0  0  0  0  0  0  0  0  0  0
    2.6411   -2.4098    0.9116 S   0  0  0  0  0  0  0  0  0  0  0  0
    4.3334   -0.6476   -0.1038 N   0  0  0  0  0  0  0  0  0  0  0  0
   -4.5295    0.0359   -0.1965 H   0  0  0  0  0  0  0  0  0  0  0  0
   -4.4003   -1.3544    0.9462 H   0  0  0  0  0  0  0  0  0  0  0  0
   -3.9622   -1.5797   -0.7898 H   0  0  0  0  0  0  0  0  0  0  0  0
   -1.9386   -1.3998    0.6736 H   0  0  0  0  0  0  0  0  0  0  0  0
   -2.4974    0.2135    1.2555 H   0  0  0  0  0  0  0  0  0  0  0  0
   -1.8029   -0.5012   -1.6811 H   0  0  0  0  0  0  0  0  0  0  0  0
   -2.4078    1.0902   -1.1037 H   0  0  0  0  0  0  0  0  0  0  0  0
    0.3453   -1.4097   -0.3779 H   0  0  0  0  0  0  0  0  0  0  0  0
    3.1638    1.7805    0.3674 H   0  0  0  0  0  0  0  0  0  0  0  0
    1.3583    3.4086   -0.0254 H   0  0  0  0  0  0  0  0  0  0  0  0
    4.5783    0.2194   -0.6305 H   0  0  0  0  0  0  0  0  0  0  0  0
    5.0980   -1.3269    0.1071 H   0  0  0  0  0  0  0  0  0  0  0  0
  1  2  1  0
  2  3  1  0
  3  4  1  0
  4  5  2  0
  5  6  1  0
  6  7  2  0
  7  8  1  0
  8  9  2  0
  9  4  1  0
  6 10  1  0
 10 11  2  0
 10 12  1  0
  1 13  1  0
  1 14  1  0
  1 15  1  0
  2 16  1  0
  2 17  1  0
  3 18  1  0
  3 19  1  0
  5 20  1  0
  7 21  1  0
  8 22  1  0
 12 23  1  0
 12 24  1  0
M  END
> <ID>
HT1769

> <Class>
0.0

> <Clusters>
209

> <Fold>
2

$$$$