
     RDKit          3D

 42 43  0  0  0  0  0  0  0  0999 V2000
   -1.1294   -1.8791    1.8560 C   0  0  0  0  0  0  0  0  0  0  0  0
   -0.8412   -0.6347    0.9901 C   0  0  0  0  0  0  0  0  0  0  0  0
   -1.4054    0.6564    1.6418 C   0  0  0  0  0  0  0  0  0  0  0  0
   -2.6177    1.2239    0.8879 C   0  0  0  0  0  0  0  0  0  0  0  0
   -3.5465    0.1001    0.4273 C   0  0  0  0  0  0  0  0  0  0  0  0
   -2.8143   -0.9041   -0.4873 C   0  0  0  0  0  0  0  0  0  0  0  0
   -1.3407   -0.7738   -0.4017 N   0  0  0  0  0  0  0  0  0  0  0  0
   -0.6361   -1.8215   -1.1729 C   0  0  0  0  0  0  0  0  0  0  0  0
   -0.5929   -1.4810   -2.6722 C   0  0  0  0  0  0  0  0  0  0  0  0
   -0.1178   -0.0498   -2.9481 C   0  0  0  0  0  0  0  0  0  0  0  0
    1.0962    0.2108   -2.2428 O   0  0  0  0  0  0  0  0  0  0  0  0
    1.2453    1.2375   -1.3011 C   0  0  0  0  0  0  0  0  0  0  0  0
    0.3658    2.1362   -1.1944 O   0  0  0  0  0  0  0  0  0  0  0  0
    2.4304    1.2547   -0.4173 C   0  0  0  0  0  0  0  0  0  0  0  0
    2.5799    2.2522    0.5646 C   0  0  0  0  0  0  0  0  0  0  0  0
    3.6942    2.2512    1.4093 C   0  0  0  0  0  0  0  0  0  0  0  0
    4.6672    1.2569    1.2850 C   0  0  0  0  0  0  0  0  0  0  0  0
    4.5272    0.2602    0.3166 C   0  0  0  0  0  0  0  0  0  0  0  0
    3.4148    0.2561   -0.5308 C   0  0  0  0  0  0  0  0  0  0  0  0
   -0.6543   -1.7598    2.8530 H   0  0  0  0  0  0  0  0  0  0  0  0
   -0.7031   -2.7911    1.3899 H   0  0  0  0  0  0  0  0  0  0  0  0
   -2.2182   -2.0262    2.0069 H   0  0  0  0  0  0  0  0  0  0  0  0
    0.2656   -0.5160    0.9627 H   0  0  0  0  0  0  0  0  0  0  0  0
   -0.6140    1.4381    1.6591 H   0  0  0  0  0  0  0  0  0  0  0  0
   -1.6922    0.4733    2.7011 H   0  0  0  0  0  0  0  0  0  0  0  0
   -2.2702    1.7972    0.0000 H   0  0  0  0  0  0  0  0  0  0  0  0
   -3.1740    1.9237    1.5483 H   0  0  0  0  0  0  0  0  0  0  0  0
   -3.9454   -0.4279    1.3210 H   0  0  0  0  0  0  0  0  0  0  0  0
   -4.4145    0.5373   -0.1127 H   0  0  0  0  0  0  0  0  0  0  0  0
   -3.1299   -0.7062   -1.5341 H   0  0  0  0  0  0  0  0  0  0  0  0
   -3.1396   -1.9374   -0.2330 H   0  0  0  0  0  0  0  0  0  0  0  0
    0.4160   -1.9268   -0.8251 H   0  0  0  0  0  0  0  0  0  0  0  0
   -1.1184   -2.8147   -1.0352 H   0  0  0  0  0  0  0  0  0  0  0  0
   -1.5995   -1.6228   -3.1202 H   0  0  0  0  0  0  0  0  0  0  0  0
    0.0956   -2.1931   -3.1770 H   0  0  0  0  0  0  0  0  0  0  0  0
    0.0674    0.0684   -4.0365 H   0  0  0  0  0  0  0  0  0  0  0  0
   -0.9219    0.6642   -2.6655 H   0  0  0  0  0  0  0  0  0  0  0  0
    1.8353    3.0296    0.6833 H   0  0  0  0  0  0  0  0  0  0  0  0
    3.8023    3.0215    2.1618 H   0  0  0  0  0  0  0  0  0  0  0  0
    5.5284    1.2574    1.9406 H   0  0  0  0  0  0  0  0  0  0  0  0
    5.2803   -0.5116    0.2235 H   0  0  0  0  0  0  0  0  0  0  0  0
    3.3256   -0.5290   -1.2712 H   0  0  0  0  0  0  0  0  0  0  0  0
  1  2  1  0
  2  3  1  0
  3  4  1  0
  4  5  1  0
  5  6  1  0
  6  7  1  0
  7  2  1  0
  7  8  1  0
  8  9  1  0
  9 10  1  0
 10 11  1  0
 11 12  1  0
 12 13  2  0
 12 14  1  0
 14 15  2  0
 15 16  1  0
 16 17  2  0
 17 18  1  0
 18 19  2  0
 19 14  1  0
  1 20  1  0
  1 21  1  0
  1 22  1  0
  2 23  1  0
  3 24  1  0
  3 25  1  0
  4 26  1  0
  4 27  1  0
  5 28  1  0
  5 29  1  0
  6 30  1  0
  6 31  1  0
  8 32  1  0
  8 33  1  0
  9 34  1  0
  9 35  1  0
 10 36  1  0
 10 37  1  0
 15 38  1  0
 16 39  1  0
 17 40  1  0
 18 41  1  0
 19 42  1  0
M  END
> <ID>
HT3152

> <Class>
0.0

> <Clusters>
38

> <Fold>
2

$$$$