
     RDKit          3D

 66 67  0  0  0  0  0  0  0  0999 V2000
    3.9270   -2.9876    0.4107 C   0  0  0  0  0  0  0  0  0  0  0  0
    3.1109   -2.9891   -0.8767 C   0  0  0  0  0  0  0  0  0  0  0  0
    2.7909   -1.5890   -1.2677 N   0  0  0  0  0  0  0  0  0  0  0  0
    1.3222   -1.3957   -1.3737 C   0  0  0  0  0  0  0  0  0  0  0  0
    0.6749   -1.3157    0.0192 C   0  0  0  0  0  0  0  0  0  0  0  0
   -0.8007   -0.9112   -0.0815 C   0  0  0  0  0  0  0  0  0  0  0  0
   -1.4491   -0.8308    1.3032 C   0  0  0  0  0  0  0  0  0  0  0  0
   -2.8300   -0.4927    1.1890 O   0  0  0  0  0  0  0  0  0  0  0  0
   -3.2883    0.7875    0.8522 C   0  0  0  0  0  0  0  0  0  0  0  0
   -2.4719    1.7438    0.7476 O   0  0  0  0  0  0  0  0  0  0  0  0
   -4.7327    1.0171    0.6246 C   0  0  0  0  0  0  0  0  0  0  0  0
   -5.2156    2.3046    0.3408 C   0  0  0  0  0  0  0  0  0  0  0  0
   -6.5764    2.5176    0.1172 C   0  0  0  0  0  0  0  0  0  0  0  0
   -7.4848    1.4446    0.1709 C   0  0  0  0  0  0  0  0  0  0  0  0
   -8.8597    1.6204   -0.0525 O   0  0  0  0  0  0  0  0  0  0  0  0
   -9.4748    2.8682   -0.3564 C   0  0  0  0  0  0  0  0  0  0  0  0
   -7.0151    0.1534    0.4551 C   0  0  0  0  0  0  0  0  0  0  0  0
   -7.9458   -0.8969    0.5039 O   0  0  0  0  0  0  0  0  0  0  0  0
   -7.6178   -2.2552    0.7777 C   0  0  0  0  0  0  0  0  0  0  0  0
   -5.6398   -0.0547    0.6812 C   0  0  0  0  0  0  0  0  0  0  0  0
    3.5031   -1.0535   -2.4758 C   0  0  0  0  0  0  0  0  0  0  0  0
    4.9186   -1.6378   -2.7133 C   0  0  0  0  0  0  0  0  0  0  0  0
    3.6080    0.4964   -2.3955 C   0  0  0  0  0  0  0  0  0  0  0  0
    4.1890    0.9773   -1.0860 C   0  0  0  0  0  0  0  0  0  0  0  0
    5.5794    1.0223   -0.8960 C   0  0  0  0  0  0  0  0  0  0  0  0
    6.1138    1.4472    0.3238 C   0  0  0  0  0  0  0  0  0  0  0  0
    5.2620    1.8479    1.3710 C   0  0  0  0  0  0  0  0  0  0  0  0
    5.7491    2.2771    2.6145 O   0  0  0  0  0  0  0  0  0  0  0  0
    7.1312    2.3596    2.9506 C   0  0  0  0  0  0  0  0  0  0  0  0
    3.8771    1.8251    1.1710 C   0  0  0  0  0  0  0  0  0  0  0  0
    3.3429    1.4032   -0.0495 C   0  0  0  0  0  0  0  0  0  0  0  0
    4.8720   -2.4224    0.2807 H   0  0  0  0  0  0  0  0  0  0  0  0
    4.1725   -4.0308    0.7015 H   0  0  0  0  0  0  0  0  0  0  0  0
    3.3429   -2.5151    1.2291 H   0  0  0  0  0  0  0  0  0  0  0  0
    2.1994   -3.5963   -0.6825 H   0  0  0  0  0  0  0  0  0  0  0  0
    3.6382   -3.5582   -1.6617 H   0  0  0  0  0  0  0  0  0  0  0  0
    1.0794   -0.4541   -1.9059 H   0  0  0  0  0  0  0  0  0  0  0  0
    0.8581   -2.2157   -1.9677 H   0  0  0  0  0  0  0  0  0  0  0  0
    0.7441   -2.3004    0.5284 H   0  0  0  0  0  0  0  0  0  0  0  0
    1.2194   -0.5716    0.6386 H   0  0  0  0  0  0  0  0  0  0  0  0
   -1.3487   -1.6593   -0.6953 H   0  0  0  0  0  0  0  0  0  0  0  0
   -0.8782    0.0780   -0.5817 H   0  0  0  0  0  0  0  0  0  0  0  0
   -0.9261   -0.0860    1.9420 H   0  0  0  0  0  0  0  0  0  0  0  0
   -1.3741   -1.8226    1.7972 H   0  0  0  0  0  0  0  0  0  0  0  0
   -4.5416    3.1513    0.2912 H   0  0  0  0  0  0  0  0  0  0  0  0
   -6.9118    3.5229   -0.0970 H   0  0  0  0  0  0  0  0  0  0  0  0
   -9.3158    3.5850    0.4768 H   0  0  0  0  0  0  0  0  0  0  0  0
  -10.5653    2.7120   -0.4861 H   0  0  0  0  0  0  0  0  0  0  0  0
   -9.0593    3.2788   -1.3012 H   0  0  0  0  0  0  0  0  0  0  0  0
   -7.1582   -2.3428    1.7848 H   0  0  0  0  0  0  0  0  0  0  0  0
   -6.9245   -2.6438    0.0023 H   0  0  0  0  0  0  0  0  0  0  0  0
   -8.5456   -2.8618    0.7610 H   0  0  0  0  0  0  0  0  0  0  0  0
   -5.2735   -1.0490    0.8959 H   0  0  0  0  0  0  0  0  0  0  0  0
    2.9158   -1.2989   -3.3903 H   0  0  0  0  0  0  0  0  0  0  0  0
    4.8649   -2.6476   -3.1688 H   0  0  0  0  0  0  0  0  0  0  0  0
    5.5071   -1.6763   -1.7767 H   0  0  0  0  0  0  0  0  0  0  0  0
    5.4817   -1.0221   -3.4459 H   0  0  0  0  0  0  0  0  0  0  0  0
    2.6120    0.9585   -2.5505 H   0  0  0  0  0  0  0  0  0  0  0  0
    4.2189    0.8902   -3.2372 H   0  0  0  0  0  0  0  0  0  0  0  0
    6.2513    0.7297   -1.6931 H   0  0  0  0  0  0  0  0  0  0  0  0
    7.1887    1.4625    0.4419 H   0  0  0  0  0  0  0  0  0  0  0  0
    7.5990    1.3536    2.8923 H   0  0  0  0  0  0  0  0  0  0  0  0
    7.2302    2.7341    3.9896 H   0  0  0  0  0  0  0  0  0  0  0  0
    7.6491    3.0668    2.2684 H   0  0  0  0  0  0  0  0  0  0  0  0
    3.2114    2.1400    1.9651 H   0  0  0  0  0  0  0  0  0  0  0  0
    2.2691    1.4079   -0.1852 H   0  0  0  0  0  0  0  0  0  0  0  0
  1  2  1  0
  2  3  1  0
  3  4  1  0
  4  5  1  0
  5  6  1  0
  6  7  1  0
  7  8  1  0
  8  9  1  0
  9 10  2  0
  9 11  1  0
 11 12  2  0
 12 13  1  0
 13 14  2  0
 14 15  1  0
 15 16  1  0
 14 17  1  0
 17 18  1  0
 18 19  1  0
 17 20  2  0
 20 11  1  0
  3 21  1  0
 21 22  1  0
 21 23  1  0
 23 24  1  0
 24 25  2  0
 25 26  1  0
 26 27  2  0
 27 28  1  0
 28 29  1  0
 27 30  1  0
 30 31  2  0
 31 24  1  0
  1 32  1  0
  1 33  1  0
  1 34  1  0
  2 35  1  0
  2 36  1  0
  4 37  1  0
  4 38  1  0
  5 39  1  0
  5 40  1  0
  6 41  1  0
  6 42  1  0
  7 43  1  0
  7 44  1  0
 12 45  1  0
 13 46  1  0
 16 47  1  0
 16 48  1  0
 16 49  1  0
 19 50  1  0
 19 51  1  0
 19 52  1  0
 20 53  1  0
 21 54  1  0
 22 55  1  0
 22 56  1  0
 22 57  1  0
 23 58  1  0
 23 59  1  0
 25 60  1  0
 26 61  1  0
 29 62  1  0
 29 63  1  0
 29 64  1  0
 30 65  1  0
 31 66  1  0
M  END
> <ID>
HT3815

> <Class>
0.0

> <Clusters>
207

> <Fold>
2

$$$$