
     RDKit          3D

 62 65  0  0  0  0  0  0  0  0999 V2000
    3.2977   -2.0125    2.3447 C   0  0  0  0  0  0  0  0  0  0  0  0
    1.9709   -2.1662    1.5733 C   0  0  1  0  0  0  0  0  0  0  0  0
    0.8381   -1.3688    2.2715 C   0  0  0  0  0  0  0  0  0  0  0  0
   -0.0113   -0.9350    1.0987 C   0  0  1  0  0  0  0  0  0  0  0  0
   -1.1751    0.0666    1.2178 C   0  0  2  0  0  0  0  0  0  0  0  0
   -1.9539   -0.0129    2.5340 C   0  0  0  0  0  0  0  0  0  0  0  0
   -2.9589    1.1410    2.5930 C   0  0  0  0  0  0  0  0  0  0  0  0
   -3.8166    1.2257    1.3442 C   0  0  0  0  0  0  0  0  0  0  0  0
   -5.0762    1.6761    1.4822 C   0  0  0  0  0  0  0  0  0  0  0  0
   -5.9743    1.7379    0.3284 C   0  0  0  0  0  0  0  0  0  0  0  0
   -7.1076    2.2762    0.4298 O   0  0  0  0  0  0  0  0  0  0  0  0
   -5.5680    1.0970   -0.9194 C   0  0  0  0  0  0  0  0  0  0  0  0
   -4.3151    0.6616   -1.0649 C   0  0  0  0  0  0  0  0  0  0  0  0
   -3.2013    1.0188   -0.0673 C   0  0  1  0  0  0  0  0  0  0  0  0
   -2.5844    2.3694   -0.5108 C   0  0  0  0  0  0  0  0  0  0  0  0
   -2.1279   -0.1455   -0.0069 C   0  0  2  0  0  0  0  0  0  0  0  0
   -2.8628   -1.3014    0.2510 F   0  0  0  0  0  0  0  0  0  0  0  0
   -1.2901   -0.4792   -1.3283 C   0  0  1  0  0  0  0  0  0  0  0  0
   -1.8434    0.1091   -2.4764 O   0  0  0  0  0  0  0  0  0  0  0  0
    0.2350   -0.1516   -1.2961 C   0  0  0  0  0  0  0  0  0  0  0  0
    1.0088   -0.4844    0.0344 C   0  0  1  0  0  0  0  0  0  0  0  0
    1.8133    0.7966    0.4912 C   0  0  0  0  0  0  0  0  0  0  0  0
    1.9543   -1.7473    0.0303 C   0  0  2  0  0  0  0  0  0  0  0  0
    1.3025   -2.7636   -0.7041 O   0  0  0  0  0  0  0  0  0  0  0  0
    3.3590   -1.5818   -0.5910 C   0  0  0  0  0  0  0  0  0  0  0  0
    4.2013   -2.4350   -0.3549 O   0  0  0  0  0  0  0  0  0  0  0  0
    3.7481   -0.4930   -1.5594 C   0  0  0  0  0  0  0  0  0  0  0  0
    4.5195   -1.0459   -2.6000 O   0  0  0  0  0  0  0  0  0  0  0  0
    5.1394    0.2250   -3.5585 P   0  0  0  0  0  0  0  0  0  0  0  0
    5.8554   -0.3744   -4.7470 O   0  0  0  0  0  0  0  0  0  0  0  0
    3.8838    1.2127   -4.1278 O   0  0  0  0  0  0  0  0  0  0  0  0
    6.2532    1.1413   -2.6651 O   0  0  0  0  0  0  0  0  0  0  0  0
    3.7811   -1.0345    2.1636 H   0  0  0  0  0  0  0  0  0  0  0  0
    3.1159   -2.1128    3.4354 H   0  0  0  0  0  0  0  0  0  0  0  0
    4.0025   -2.8221    2.0653 H   0  0  0  0  0  0  0  0  0  0  0  0
    1.7000   -3.2443    1.6506 H   0  0  0  0  0  0  0  0  0  0  0  0
    1.2214   -0.4822    2.8237 H   0  0  0  0  0  0  0  0  0  0  0  0
    0.2622   -2.0124    2.9731 H   0  0  0  0  0  0  0  0  0  0  0  0
   -0.4942   -1.8924    0.7803 H   0  0  0  0  0  0  0  0  0  0  0  0
   -0.7771    1.0889    1.1737 H   0  0  0  0  0  0  0  0  0  0  0  0
   -2.4754   -0.9892    2.6355 H   0  0  0  0  0  0  0  0  0  0  0  0
   -1.2565    0.0908    3.3937 H   0  0  0  0  0  0  0  0  0  0  0  0
   -3.5873    1.0052    3.5011 H   0  0  0  0  0  0  0  0  0  0  0  0
   -2.4112    2.1010    2.7120 H   0  0  0  0  0  0  0  0  0  0  0  0
   -5.4650    1.9514    2.4562 H   0  0  0  0  0  0  0  0  0  0  0  0
   -6.3018    0.9087   -1.6934 H   0  0  0  0  0  0  0  0  0  0  0  0
   -4.1050    0.1030   -1.9621 H   0  0  0  0  0  0  0  0  0  0  0  0
   -2.1041    2.3051   -1.5054 H   0  0  0  0  0  0  0  0  0  0  0  0
   -3.3760    3.1471   -0.5798 H   0  0  0  0  0  0  0  0  0  0  0  0
   -1.8316    2.7425    0.2098 H   0  0  0  0  0  0  0  0  0  0  0  0
   -1.3373   -1.5891   -1.4546 H   0  0  0  0  0  0  0  0  0  0  0  0
   -1.6250   -0.4769   -3.2483 H   0  0  0  0  0  0  0  0  0  0  0  0
    0.7108   -0.6785   -2.1498 H   0  0  0  0  0  0  0  0  0  0  0  0
    0.3207    0.9333   -1.5251 H   0  0  0  0  0  0  0  0  0  0  0  0
    2.6732    0.5484    1.1367 H   0  0  0  0  0  0  0  0  0  0  0  0
    2.2199    1.3648   -0.3678 H   0  0  0  0  0  0  0  0  0  0  0  0
    1.2239    1.5326    1.0623 H   0  0  0  0  0  0  0  0  0  0  0  0
    1.8365   -3.5974   -0.6237 H   0  0  0  0  0  0  0  0  0  0  0  0
    4.3348    0.2540   -0.9794 H   0  0  0  0  0  0  0  0  0  0  0  0
    2.8495   -0.0225   -1.9949 H   0  0  0  0  0  0  0  0  0  0  0  0
    3.6710    1.8249   -3.3799 H   0  0  0  0  0  0  0  0  0  0  0  0
    5.7110    1.7955   -2.1556 H   0  0  0  0  0  0  0  0  0  0  0  0
  2  1  1  0
  2  3  1  0
  4  3  1  0
  4  5  1  0
  5  6  1  0
  6  7  1  0
  7  8  1  0
  8  9  2  0
  9 10  1  0
 10 11  2  0
 10 12  1  0
 12 13  2  0
 13 14  1  0
 14  8  1  0
 14 15  1  6
 14 16  1  0
 16  5  1  0
 16 17  1  1
 16 18  1  0
 18 19  1  0
 18 20  1  0
 20 21  1  0
 21  4  1  0
 21 22  1  1
 21 23  1  0
 23  2  1  0
 23 24  1  6
 23 25  1  0
 25 26  2  0
 25 27  1  0
 27 28  1  0
 28 29  1  0
 29 30  2  0
 29 31  1  0
 29 32  1  0
  1 33  1  0
  1 34  1  0
  1 35  1  0
  2 36  1  6
  3 37  1  0
  3 38  1  0
  4 39  1  6
  5 40  1  6
  6 41  1  0
  6 42  1  0
  7 43  1  0
  7 44  1  0
  9 45  1  0
 12 46  1  0
 13 47  1  0
 15 48  1  0
 15 49  1  0
 15 50  1  0
 18 51  1  6
 19 52  1  0
 20 53  1  0
 20 54  1  0
 22 55  1  0
 22 56  1  0
 22 57  1  0
 24 58  1  0
 27 59  1  0
 27 60  1  0
 31 61  1  0
 32 62  1  0
M  END
> <ID>
HT0271

> <Class>
0.0

> <Clusters>
35

> <Fold>
2

$$$$