
     RDKit          3D

 27 30  0  0  0  0  0  0  0  0999 V2000
    0.1776   -4.0593   -0.9396 C   0  0  0  0  0  0  0  0  0  0  0  0
   -1.1781   -3.9324   -0.7219 C   0  0  0  0  0  0  0  0  0  0  0  0
   -0.3389   -2.7067   -0.5774 N   0  0  0  0  0  0  0  0  0  0  0  0
   -0.1655   -1.3217   -0.3051 C   0  0  0  0  0  0  0  0  0  0  0  0
   -1.2381   -0.5528    0.0101 N   0  0  0  0  0  0  0  0  0  0  0  0
   -1.0727    0.7686    0.2701 C   0  0  0  0  0  0  0  0  0  0  0  0
    0.1653    1.3211    0.2148 N   0  0  0  0  0  0  0  0  0  0  0  0
    1.2380    0.5522   -0.1004 C   0  0  0  0  0  0  0  0  0  0  0  0
    1.0725   -0.7692   -0.3603 N   0  0  0  0  0  0  0  0  0  0  0  0
    2.5356    1.1312   -0.1581 N   0  0  0  0  0  0  0  0  0  0  0  0
    3.4772    2.2835   -0.0431 C   0  0  0  0  0  0  0  0  0  0  0  0
    4.0095    1.0569   -0.3806 C   0  0  0  0  0  0  0  0  0  0  0  0
   -2.1969    1.5745    0.6005 N   0  0  0  0  0  0  0  0  0  0  0  0
   -2.8315    2.8744    0.9679 C   0  0  0  0  0  0  0  0  0  0  0  0
   -3.6549    1.7747    0.8484 C   0  0  0  0  0  0  0  0  0  0  0  0
    0.7806   -4.4912   -0.1133 H   0  0  0  0  0  0  0  0  0  0  0  0
    0.5159   -4.0879   -1.9968 H   0  0  0  0  0  0  0  0  0  0  0  0
   -1.8271   -3.8687   -1.6205 H   0  0  0  0  0  0  0  0  0  0  0  0
   -1.5624   -4.2719    0.2630 H   0  0  0  0  0  0  0  0  0  0  0  0
    3.5909    2.6044    1.0137 H   0  0  0  0  0  0  0  0  0  0  0  0
    3.3268    3.0082   -0.8708 H   0  0  0  0  0  0  0  0  0  0  0  0
    4.2453    0.8920   -1.4530 H   0  0  0  0  0  0  0  0  0  0  0  0
    4.5093    0.4880    0.4314 H   0  0  0  0  0  0  0  0  0  0  0  0
   -2.8167    3.5834    0.1134 H   0  0  0  0  0  0  0  0  0  0  0  0
   -2.5516    3.1802    1.9979 H   0  0  0  0  0  0  0  0  0  0  0  0
   -4.2375    1.6858   -0.0927 H   0  0  0  0  0  0  0  0  0  0  0  0
   -3.9724    1.2827    1.7918 H   0  0  0  0  0  0  0  0  0  0  0  0
  1  2  1  0
  2  3  1  0
  3  1  1  0
  3  4  1  0
  4  5  2  0
  5  6  1  0
  6  7  2  0
  7  8  1  0
  8  9  2  0
  9  4  1  0
  8 10  1  0
 10 11  1  0
 11 12  1  0
 12 10  1  0
  6 13  1  0
 13 14  1  0
 14 15  1  0
 15 13  1  0
  1 16  1  0
  1 17  1  0
  2 18  1  0
  2 19  1  0
 11 20  1  0
 11 21  1  0
 12 22  1  0
 12 23  1  0
 14 24  1  0
 14 25  1  0
 15 26  1  0
 15 27  1  0
M  END
> <ID>
HT2874

> <Class>
0.0

> <Clusters>
223

> <Fold>
2

$$$$