
     RDKit          3D

 47 47  0  0  0  0  0  0  0  0999 V2000
    8.4032   -0.9439   -1.0566 C   0  0  0  0  0  0  0  0  0  0  0  0
    7.3800   -0.1696   -0.2310 C   0  0  0  0  0  0  0  0  0  0  0  0
    5.9558   -0.6159   -0.5527 C   0  0  0  0  0  0  0  0  0  0  0  0
    5.0373    0.1323    0.2397 O   0  0  0  0  0  0  0  0  0  0  0  0
    3.6416   -0.0185    0.2009 C   0  0  0  0  0  0  0  0  0  0  0  0
    3.0185   -0.9500   -0.6505 C   0  0  0  0  0  0  0  0  0  0  0  0
    1.6280   -1.0769   -0.6666 C   0  0  0  0  0  0  0  0  0  0  0  0
    0.8291   -0.2775    0.1664 C   0  0  0  0  0  0  0  0  0  0  0  0
    1.4497    0.6526    1.0162 C   0  0  0  0  0  0  0  0  0  0  0  0
    2.8462    0.7860    1.0381 C   0  0  0  0  0  0  0  0  0  0  0  0
    3.4494    1.7439    1.9160 N   0  0  0  0  0  0  0  0  0  0  0  0
   -0.6449   -0.4085    0.1510 C   0  0  0  0  0  0  0  0  0  0  0  0
   -1.1977   -1.2444   -0.6161 O   0  0  0  0  0  0  0  0  0  0  0  0
   -1.4243    0.3937    0.9945 O   0  0  0  0  0  0  0  0  0  0  0  0
   -2.8504    0.3721    1.0073 C   0  0  0  0  0  0  0  0  0  0  0  0
   -3.4089    1.1505   -0.2027 C   0  0  0  0  0  0  0  0  0  0  0  0
   -4.8788    1.0508   -0.3765 N   0  0  0  0  0  0  0  0  0  0  0  0
   -5.6695    1.1801    0.8674 C   0  0  0  0  0  0  0  0  0  0  0  0
   -7.0862    1.6805    0.5878 C   0  0  0  0  0  0  0  0  0  0  0  0
   -5.3229   -0.0000   -1.3236 C   0  0  0  0  0  0  0  0  0  0  0  0
   -5.0195   -1.4302   -0.8700 C   0  0  0  0  0  0  0  0  0  0  0  0
    8.2320   -0.7744   -2.1411 H   0  0  0  0  0  0  0  0  0  0  0  0
    9.4264   -0.5971   -0.8002 H   0  0  0  0  0  0  0  0  0  0  0  0
    8.3316   -2.0310   -0.8391 H   0  0  0  0  0  0  0  0  0  0  0  0
    7.5834   -0.3346    0.8493 H   0  0  0  0  0  0  0  0  0  0  0  0
    7.4843    0.9160   -0.4463 H   0  0  0  0  0  0  0  0  0  0  0  0
    5.8460   -1.6988   -0.3248 H   0  0  0  0  0  0  0  0  0  0  0  0
    5.7461   -0.4387   -1.6304 H   0  0  0  0  0  0  0  0  0  0  0  0
    3.6003   -1.5832   -1.3062 H   0  0  0  0  0  0  0  0  0  0  0  0
    1.1789   -1.8027   -1.3332 H   0  0  0  0  0  0  0  0  0  0  0  0
    0.8511    1.2793    1.6660 H   0  0  0  0  0  0  0  0  0  0  0  0
    4.4851    1.8691    1.9575 H   0  0  0  0  0  0  0  0  0  0  0  0
    2.8604    2.3417    2.5379 H   0  0  0  0  0  0  0  0  0  0  0  0
   -3.2105   -0.6750    1.0357 H   0  0  0  0  0  0  0  0  0  0  0  0
   -3.1813    0.8597    1.9471 H   0  0  0  0  0  0  0  0  0  0  0  0
   -2.8901    0.8197   -1.1287 H   0  0  0  0  0  0  0  0  0  0  0  0
   -3.1457    2.2222   -0.0732 H   0  0  0  0  0  0  0  0  0  0  0  0
   -5.7102    0.2208    1.4240 H   0  0  0  0  0  0  0  0  0  0  0  0
   -5.1958    1.9374    1.5302 H   0  0  0  0  0  0  0  0  0  0  0  0
   -7.5595    2.0042    1.5390 H   0  0  0  0  0  0  0  0  0  0  0  0
   -7.7134    0.8734    0.1570 H   0  0  0  0  0  0  0  0  0  0  0  0
   -7.0591    2.5459   -0.1080 H   0  0  0  0  0  0  0  0  0  0  0  0
   -4.8366    0.1678   -2.3091 H   0  0  0  0  0  0  0  0  0  0  0  0
   -6.4110    0.0911   -1.5159 H   0  0  0  0  0  0  0  0  0  0  0  0
   -5.5133   -2.1426   -1.5638 H   0  0  0  0  0  0  0  0  0  0  0  0
   -3.9298   -1.6287   -0.9130 H   0  0  0  0  0  0  0  0  0  0  0  0
   -5.4049   -1.6260    0.1502 H   0  0  0  0  0  0  0  0  0  0  0  0
  1  2  1  0
  2  3  1  0
  3  4  1  0
  4  5  1  0
  5  6  2  0
  6  7  1  0
  7  8  2  0
  8  9  1  0
  9 10  2  0
 10  5  1  0
 10 11  1  0
  8 12  1  0
 12 13  2  0
 12 14  1  0
 14 15  1  0
 15 16  1  0
 16 17  1  0
 17 18  1  0
 18 19  1  0
 17 20  1  0
 20 21  1  0
  1 22  1  0
  1 23  1  0
  1 24  1  0
  2 25  1  0
  2 26  1  0
  3 27  1  0
  3 28  1  0
  6 29  1  0
  7 30  1  0
  9 31  1  0
 11 32  1  0
 11 33  1  0
 15 34  1  0
 15 35  1  0
 16 36  1  0
 16 37  1  0
 18 38  1  0
 18 39  1  0
 19 40  1  0
 19 41  1  0
 19 42  1  0
 20 43  1  0
 20 44  1  0
 21 45  1  0
 21 46  1  0
 21 47  1  0
M  END
> <ID>
HT1759

> <Class>
0.0

> <Clusters>
207

> <Fold>
2

$$$$