
     RDKit          3D

 53 56  0  0  0  0  0  0  0  0999 V2000
    5.7222   -3.3128   -0.4769 C   0  0  0  0  0  0  0  0  0  0  0  0
    6.0333   -1.9251   -0.5371 O   0  0  0  0  0  0  0  0  0  0  0  0
    5.1198   -0.8918   -0.2728 C   0  0  0  0  0  0  0  0  0  0  0  0
    3.7840   -1.1500    0.0806 C   0  0  0  0  0  0  0  0  0  0  0  0
    2.9021   -0.0980    0.3382 C   0  0  0  0  0  0  0  0  0  0  0  0
    1.6189   -0.3747    0.6822 N   0  0  0  0  0  0  0  0  0  0  0  0
    0.7250    0.6134    0.9444 C   0  0  0  0  0  0  0  0  0  0  0  0
    1.1234    1.9099    0.8595 N   0  0  0  0  0  0  0  0  0  0  0  0
    2.3917    2.2602    0.5183 C   0  0  0  0  0  0  0  0  0  0  0  0
    2.7066    3.6572    0.4488 N   0  0  0  0  0  0  0  0  0  0  0  0
    3.3387    1.2420    0.2446 C   0  0  0  0  0  0  0  0  0  0  0  0
    4.6797    1.4956   -0.1077 C   0  0  0  0  0  0  0  0  0  0  0  0
    5.5689    0.4329   -0.3667 C   0  0  0  0  0  0  0  0  0  0  0  0
    6.9104    0.6525   -0.7210 O   0  0  0  0  0  0  0  0  0  0  0  0
    7.5149    1.9351   -0.8541 C   0  0  0  0  0  0  0  0  0  0  0  0
   -0.6312    0.2856    1.3112 N   0  0  0  0  0  0  0  0  0  0  0  0
   -0.9830   -1.1180    1.5812 C   0  0  0  0  0  0  0  0  0  0  0  0
   -2.3987   -1.2450    2.1504 C   0  0  0  0  0  0  0  0  0  0  0  0
   -3.3394   -0.4680    1.3301 N   0  0  0  0  0  0  0  0  0  0  0  0
   -2.9914    0.9137    0.9544 C   0  0  0  0  0  0  0  0  0  0  0  0
   -1.6327    1.3427    1.5233 C   0  0  0  0  0  0  0  0  0  0  0  0
   -4.5919   -1.0531    0.9029 C   0  0  0  0  0  0  0  0  0  0  0  0
   -4.9737   -2.1427    1.4131 O   0  0  0  0  0  0  0  0  0  0  0  0
   -5.4385   -0.3928   -0.1665 C   0  0  0  0  0  0  0  0  0  0  0  0
   -6.8230   -1.0038   -0.3322 C   0  0  0  0  0  0  0  0  0  0  0  0
   -7.1426   -0.6722   -1.7566 C   0  0  0  0  0  0  0  0  0  0  0  0
   -5.7722   -0.5836   -2.4064 C   0  0  0  0  0  0  0  0  0  0  0  0
   -4.7800   -0.4666   -1.4094 O   0  0  0  0  0  0  0  0  0  0  0  0
    5.3952   -3.5866    0.5480 H   0  0  0  0  0  0  0  0  0  0  0  0
    4.9261   -3.5580   -1.2110 H   0  0  0  0  0  0  0  0  0  0  0  0
    6.6301   -3.8987   -0.7278 H   0  0  0  0  0  0  0  0  0  0  0  0
    3.4205   -2.1659    0.1599 H   0  0  0  0  0  0  0  0  0  0  0  0
    3.6331    4.0316    0.1584 H   0  0  0  0  0  0  0  0  0  0  0  0
    1.9679    4.3581    0.6797 H   0  0  0  0  0  0  0  0  0  0  0  0
    5.0492    2.5029   -0.1818 H   0  0  0  0  0  0  0  0  0  0  0  0
    7.4756    2.4781    0.1138 H   0  0  0  0  0  0  0  0  0  0  0  0
    8.5772    1.8061   -1.1451 H   0  0  0  0  0  0  0  0  0  0  0  0
    6.9992    2.5207   -1.6444 H   0  0  0  0  0  0  0  0  0  0  0  0
   -0.2662   -1.5517    2.3121 H   0  0  0  0  0  0  0  0  0  0  0  0
   -0.9179   -1.6976    0.6348 H   0  0  0  0  0  0  0  0  0  0  0  0
   -2.4142   -0.8530    3.1904 H   0  0  0  0  0  0  0  0  0  0  0  0
   -2.6726   -2.3209    2.1882 H   0  0  0  0  0  0  0  0  0  0  0  0
   -3.7695    1.6120    1.3310 H   0  0  0  0  0  0  0  0  0  0  0  0
   -2.9455    0.9923   -0.1530 H   0  0  0  0  0  0  0  0  0  0  0  0
   -1.7277    1.5408    2.6130 H   0  0  0  0  0  0  0  0  0  0  0  0
   -1.3348    2.2915    1.0279 H   0  0  0  0  0  0  0  0  0  0  0  0
   -5.5731    0.6794    0.0974 H   0  0  0  0  0  0  0  0  0  0  0  0
   -7.5602   -0.5605    0.3724 H   0  0  0  0  0  0  0  0  0  0  0  0
   -6.8042   -2.1106   -0.2200 H   0  0  0  0  0  0  0  0  0  0  0  0
   -7.7768   -1.4532   -2.2300 H   0  0  0  0  0  0  0  0  0  0  0  0
   -7.6552    0.3136   -1.8120 H   0  0  0  0  0  0  0  0  0  0  0  0
   -5.5762   -1.5042   -2.9968 H   0  0  0  0  0  0  0  0  0  0  0  0
   -5.7212    0.2914   -3.0887 H   0  0  0  0  0  0  0  0  0  0  0  0
  1  2  1  0
  2  3  1  0
  3  4  2  0
  4  5  1  0
  5  6  2  0
  6  7  1  0
  7  8  2  0
  8  9  1  0
  9 10  1  0
  9 11  2  0
 11  5  1  0
 11 12  1  0
 12 13  2  0
 13  3  1  0
 13 14  1  0
 14 15  1  0
  7 16  1  0
 16 17  1  0
 17 18  1  0
 18 19  1  0
 19 20  1  0
 20 21  1  0
 21 16  1  0
 19 22  1  0
 22 23  2  0
 22 24  1  0
 24 25  1  0
 25 26  1  0
 26 27  1  0
 27 28  1  0
 28 24  1  0
  1 29  1  0
  1 30  1  0
  1 31  1  0
  4 32  1  0
 10 33  1  0
 10 34  1  0
 12 35  1  0
 15 36  1  0
 15 37  1  0
 15 38  1  0
 17 39  1  0
 17 40  1  0
 18 41  1  0
 18 42  1  0
 20 43  1  0
 20 44  1  0
 21 45  1  0
 21 46  1  0
 24 47  1  0
 25 48  1  0
 25 49  1  0
 26 50  1  0
 26 51  1  0
 27 52  1  0
 27 53  1  0
M  END
> <ID>
HT2007

> <Class>
0.0

> <Clusters>
223

> <Fold>
2

$$$$