
     RDKit          3D

 26 27  0  0  0  0  0  0  0  0999 V2000
    4.5371   -0.0743   -0.4345 C   0  0  0  0  0  0  0  0  0  0  0  0
    3.5704   -0.5780    0.0800 C   0  0  0  0  0  0  0  0  0  0  0  0
    2.3882   -1.1914    0.7072 C   0  0  0  0  0  0  0  0  0  0  0  0
    1.3730   -0.1815    1.0436 N   0  0  0  0  0  0  0  0  0  0  0  0
    0.6498    0.3156   -0.1488 C   0  0  2  0  0  0  0  0  0  0  0  0
    0.3828    1.8474   -0.0914 C   0  0  0  0  0  0  0  0  0  0  0  0
   -1.1338    2.0522    0.0719 C   0  0  0  0  0  0  0  0  0  0  0  0
   -1.6950    0.6899   -0.0522 C   0  0  0  0  0  0  0  0  0  0  0  0
   -3.0498    0.3478   -0.0446 C   0  0  0  0  0  0  0  0  0  0  0  0
   -3.4067   -1.0015   -0.1821 C   0  0  0  0  0  0  0  0  0  0  0  0
   -2.4112   -1.9832   -0.3251 C   0  0  0  0  0  0  0  0  0  0  0  0
   -1.0562   -1.6190   -0.3262 C   0  0  0  0  0  0  0  0  0  0  0  0
   -0.7186   -0.2681   -0.1809 C   0  0  0  0  0  0  0  0  0  0  0  0
    5.3855    0.3683   -0.8864 H   0  0  0  0  0  0  0  0  0  0  0  0
    2.7102   -1.7005    1.6396 H   0  0  0  0  0  0  0  0  0  0  0  0
    1.9717   -1.9659    0.0300 H   0  0  0  0  0  0  0  0  0  0  0  0
    1.8420    0.5899    1.5733 H   0  0  0  0  0  0  0  0  0  0  0  0
    1.1776    0.0714   -1.0996 H   0  0  0  0  0  0  0  0  0  0  0  0
    0.7123    2.3109   -1.0475 H   0  0  0  0  0  0  0  0  0  0  0  0
    0.9258    2.3632    0.7287 H   0  0  0  0  0  0  0  0  0  0  0  0
   -1.3742    2.4705    1.0730 H   0  0  0  0  0  0  0  0  0  0  0  0
   -1.5354    2.7122   -0.7272 H   0  0  0  0  0  0  0  0  0  0  0  0
   -3.8117    1.1094    0.0618 H   0  0  0  0  0  0  0  0  0  0  0  0
   -4.4507   -1.2867   -0.1809 H   0  0  0  0  0  0  0  0  0  0  0  0
   -2.6905   -3.0231   -0.4348 H   0  0  0  0  0  0  0  0  0  0  0  0
   -0.2927   -2.3755   -0.4402 H   0  0  0  0  0  0  0  0  0  0  0  0
  1  2  3  0
  2  3  1  0
  3  4  1  0
  5  4  1  0
  5  6  1  0
  6  7  1  0
  7  8  1  0
  8  9  2  0
  9 10  1  0
 10 11  2  0
 11 12  1  0
 12 13  2  0
 13  5  1  0
 13  8  1  0
  1 14  1  0
  3 15  1  0
  3 16  1  0
  4 17  1  0
  5 18  1  6
  6 19  1  0
  6 20  1  0
  7 21  1  0
  7 22  1  0
  9 23  1  0
 10 24  1  0
 11 25  1  0
 12 26  1  0
M  END
> <ID>
HT1803

> <Class>
0.0

> <Clusters>
250

> <Fold>
2

$$$$