
     RDKit          3D

102106  0  0  0  0  0  0  0  0999 V2000
    3.0751   -1.2013    4.3346 C   0  0  0  0  0  0  0  0  0  0  0  0
    3.3461   -0.8249    2.8810 C   0  0  0  0  0  0  0  0  0  0  0  0
    2.6085    0.4705    2.4932 C   0  0  0  0  0  0  0  0  0  0  0  0
    2.9318    0.9673    1.0687 C   0  0  2  0  0  0  0  0  0  0  0  0
    2.5410   -0.0277    0.0652 N   0  0  0  0  0  0  0  0  0  0  0  0
    1.6349    0.2662   -1.0140 C   0  0  0  0  0  0  0  0  0  0  0  0
    0.9147    1.3017   -0.9804 O   0  0  0  0  0  0  0  0  0  0  0  0
    1.5962   -0.6419   -2.2176 C   0  0  2  0  0  0  0  0  0  0  0  0
    2.5352   -0.1171   -3.3250 C   0  0  1  0  0  0  0  0  0  0  0  0
    3.4523   -1.2128   -3.8916 C   0  0  0  0  0  0  0  0  0  0  0  0
    2.7776   -1.6990   -5.1623 C   0  0  0  0  0  0  0  0  0  0  0  0
    2.0748   -0.4780   -5.7140 C   0  0  0  0  0  0  0  0  0  0  0  0
    1.6349    0.3317   -4.4859 C   0  0  1  0  0  0  0  0  0  0  0  0
    0.1881    0.0330   -4.0716 C   0  0  0  0  0  0  0  0  0  0  0  0
    0.2634   -0.6759   -2.8068 N   0  0  0  0  0  0  0  0  0  0  0  0
   -0.8605   -1.4221   -2.2860 C   0  0  0  0  0  0  0  0  0  0  0  0
   -1.9252   -1.4695   -2.9620 O   0  0  0  0  0  0  0  0  0  0  0  0
   -0.8239   -2.1312   -0.9431 C   0  0  1  0  0  0  0  0  0  0  0  0
   -1.9893   -1.6963   -0.1591 N   0  0  0  0  0  0  0  0  0  0  0  0
   -1.8697   -1.0498    1.1234 C   0  0  0  0  0  0  0  0  0  0  0  0
   -0.8220   -1.1929    1.8076 O   0  0  0  0  0  0  0  0  0  0  0  0
   -2.9605   -0.1396    1.6413 C   0  0  1  0  0  0  0  0  0  0  0  0
   -2.9472    1.0888    0.8458 N   0  0  0  0  0  0  0  0  0  0  0  0
   -2.6785    2.3757    1.4215 C   0  0  0  0  0  0  0  0  0  0  0  0
   -1.9722    2.4576    2.4600 O   0  0  0  0  0  0  0  0  0  0  0  0
   -3.2055    3.6218    0.8144 C   0  0  0  0  0  0  0  0  0  0  0  0
   -4.1744    3.6058   -0.2062 C   0  0  0  0  0  0  0  0  0  0  0  0
   -4.6614    4.7829   -0.6855 N   0  0  0  0  0  0  0  0  0  0  0  0
   -4.2299    5.9777   -0.2000 C   0  0  0  0  0  0  0  0  0  0  0  0
   -3.2660    6.0034    0.8078 C   0  0  0  0  0  0  0  0  0  0  0  0
   -2.7849    4.8264    1.2925 N   0  0  0  0  0  0  0  0  0  0  0  0
   -4.3818   -0.7764    1.6077 C   0  0  0  0  0  0  0  0  0  0  0  0
   -5.4130    0.1774    2.2548 C   0  0  0  0  0  0  0  0  0  0  0  0
   -6.8239   -0.4316    2.2520 C   0  0  0  0  0  0  0  0  0  0  0  0
   -6.8402   -1.7943    2.9566 C   0  0  0  0  0  0  0  0  0  0  0  0
   -5.8341   -2.7478    2.3028 C   0  0  0  0  0  0  0  0  0  0  0  0
   -4.4210   -2.1509    2.3227 C   0  0  0  0  0  0  0  0  0  0  0  0
   -0.7682   -3.6988   -1.0499 C   0  0  0  0  0  0  0  0  0  0  0  0
   -2.0042   -4.2930   -1.7674 C   0  0  0  0  0  0  0  0  0  0  0  0
   -0.7085   -4.3028    0.3693 C   0  0  0  0  0  0  0  0  0  0  0  0
    0.5010   -4.1434   -1.8118 C   0  0  0  0  0  0  0  0  0  0  0  0
    4.3912    1.3317    0.9113 C   0  0  0  0  0  0  0  0  0  0  0  0
    5.1651    0.5591    0.2864 O   0  0  0  0  0  0  0  0  0  0  0  0
    4.9170    2.5983    1.4532 C   0  0  0  0  0  0  0  0  0  0  0  0
    4.1526    3.3689    2.0927 O   0  0  0  0  0  0  0  0  0  0  0  0
    6.2823    2.9689    1.2345 N   0  0  0  0  0  0  0  0  0  0  0  0
    6.7833    4.2830    1.6168 C   0  0  0  0  0  0  0  0  0  0  0  0
    7.7412    4.9006    0.6180 C   0  0  0  0  0  0  0  0  0  0  0  0
    6.3046    5.4020    0.7048 C   0  0  0  0  0  0  0  0  0  0  0  0
    3.4214   -0.3928    5.0117 H   0  0  0  0  0  0  0  0  0  0  0  0
    3.6211   -2.1301    4.5918 H   0  0  0  0  0  0  0  0  0  0  0  0
    1.9933   -1.3732    4.4953 H   0  0  0  0  0  0  0  0  0  0  0  0
    4.4412   -0.6938    2.7535 H   0  0  0  0  0  0  0  0  0  0  0  0
    3.0123   -1.6652    2.2372 H   0  0  0  0  0  0  0  0  0  0  0  0
    2.8670    1.2703    3.2209 H   0  0  0  0  0  0  0  0  0  0  0  0
    1.5101    0.3049    2.5668 H   0  0  0  0  0  0  0  0  0  0  0  0
    2.3431    1.8983    0.9024 H   0  0  0  0  0  0  0  0  0  0  0  0
    3.0360   -0.9501    0.0471 H   0  0  0  0  0  0  0  0  0  0  0  0
    1.8803   -1.6658   -1.9027 H   0  0  0  0  0  0  0  0  0  0  0  0
    3.1586    0.7353   -2.9650 H   0  0  0  0  0  0  0  0  0  0  0  0
    3.6377   -2.0512   -3.1831 H   0  0  0  0  0  0  0  0  0  0  0  0
    4.4366   -0.7627   -4.1598 H   0  0  0  0  0  0  0  0  0  0  0  0
    3.5186   -2.1102   -5.8790 H   0  0  0  0  0  0  0  0  0  0  0  0
    2.0319   -2.4860   -4.9167 H   0  0  0  0  0  0  0  0  0  0  0  0
    1.2373   -0.7651   -6.3864 H   0  0  0  0  0  0  0  0  0  0  0  0
    2.8094    0.1289   -6.3032 H   0  0  0  0  0  0  0  0  0  0  0  0
    1.7558    1.4212   -4.6827 H   0  0  0  0  0  0  0  0  0  0  0  0
   -0.3759    0.9829   -3.9283 H   0  0  0  0  0  0  0  0  0  0  0  0
   -0.3498   -0.5893   -4.8214 H   0  0  0  0  0  0  0  0  0  0  0  0
    0.0980   -1.8168   -0.4068 H   0  0  0  0  0  0  0  0  0  0  0  0
   -2.9342   -1.7606   -0.6026 H   0  0  0  0  0  0  0  0  0  0  0  0
   -2.7236    0.0891    2.7050 H   0  0  0  0  0  0  0  0  0  0  0  0
   -3.1523    1.0193   -0.1739 H   0  0  0  0  0  0  0  0  0  0  0  0
   -4.5790    2.6768   -0.5991 H   0  0  0  0  0  0  0  0  0  0  0  0
   -4.6395    6.9001   -0.5878 H   0  0  0  0  0  0  0  0  0  0  0  0
   -2.9286    6.9415    1.2188 H   0  0  0  0  0  0  0  0  0  0  0  0
   -4.6789   -0.9312    0.5454 H   0  0  0  0  0  0  0  0  0  0  0  0
   -5.4410    1.1409    1.7000 H   0  0  0  0  0  0  0  0  0  0  0  0
   -5.1173    0.4064    3.3028 H   0  0  0  0  0  0  0  0  0  0  0  0
   -7.1700   -0.5460    1.2044 H   0  0  0  0  0  0  0  0  0  0  0  0
   -7.5224    0.2613    2.7773 H   0  0  0  0  0  0  0  0  0  0  0  0
   -6.5939   -1.6601    4.0366 H   0  0  0  0  0  0  0  0  0  0  0  0
   -7.8657   -2.2275    2.8931 H   0  0  0  0  0  0  0  0  0  0  0  0
   -6.1465   -2.9388    1.2528 H   0  0  0  0  0  0  0  0  0  0  0  0
   -5.8363   -3.7188    2.8397 H   0  0  0  0  0  0  0  0  0  0  0  0
   -4.0751   -2.0424    3.3751 H   0  0  0  0  0  0  0  0  0  0  0  0
   -3.7428   -2.8568    1.8028 H   0  0  0  0  0  0  0  0  0  0  0  0
   -2.0557   -3.9671   -2.8293 H   0  0  0  0  0  0  0  0  0  0  0  0
   -2.9523   -4.0021   -1.2583 H   0  0  0  0  0  0  0  0  0  0  0  0
   -1.9399   -5.4045   -1.7680 H   0  0  0  0  0  0  0  0  0  0  0  0
   -0.5894   -5.4066    0.3210 H   0  0  0  0  0  0  0  0  0  0  0  0
    0.1453   -3.8875    0.9454 H   0  0  0  0  0  0  0  0  0  0  0  0
   -1.6385   -4.0915    0.9283 H   0  0  0  0  0  0  0  0  0  0  0  0
    0.5292   -5.2530   -1.9109 H   0  0  0  0  0  0  0  0  0  0  0  0
    0.5286   -3.7149   -2.8382 H   0  0  0  0  0  0  0  0  0  0  0  0
    1.4205   -3.8363   -1.2577 H   0  0  0  0  0  0  0  0  0  0  0  0
    6.9621    2.2653    0.8701 H   0  0  0  0  0  0  0  0  0  0  0  0
    6.9152    4.5002    2.6984 H   0  0  0  0  0  0  0  0  0  0  0  0
    8.4871    5.5934    1.0570 H   0  0  0  0  0  0  0  0  0  0  0  0
    7.9574    4.3036   -0.2918 H   0  0  0  0  0  0  0  0  0  0  0  0
    6.1905    6.3923    1.1915 H   0  0  0  0  0  0  0  0  0  0  0  0
    5.6558    5.0848   -0.1394 H   0  0  0  0  0  0  0  0  0  0  0  0
  1  2  1  0
  2  3  1  0
  4  3  1  0
  4  5  1  0
  5  6  1  0
  6  7  2  0
  8  6  1  0
  8  9  1  0
  9 10  1  0
 10 11  1  0
 11 12  1  0
 13 12  1  0
 13  9  1  0
 13 14  1  0
 14 15  1  0
 15  8  1  0
 15 16  1  0
 16 17  2  0
 16 18  1  0
 18 19  1  0
 19 20  1  0
 20 21  2  0
 20 22  1  0
 22 23  1  0
 23 24  1  0
 24 25  2  0
 24 26  1  0
 26 27  2  0
 27 28  1  0
 28 29  2  0
 29 30  1  0
 30 31  2  0
 31 26  1  0
 22 32  1  0
 32 33  1  0
 33 34  1  0
 34 35  1  0
 35 36  1  0
 36 37  1  0
 37 32  1  0
 18 38  1  0
 38 39  1  0
 38 40  1  0
 38 41  1  0
  4 42  1  0
 42 43  2  0
 42 44  1  0
 44 45  2  0
 44 46  1  0
 46 47  1  0
 47 48  1  0
 48 49  1  0
 49 47  1  0
  1 50  1  0
  1 51  1  0
  1 52  1  0
  2 53  1  0
  2 54  1  0
  3 55  1  0
  3 56  1  0
  4 57  1  6
  5 58  1  0
  8 59  1  1
  9 60  1  1
 10 61  1  0
 10 62  1  0
 11 63  1  0
 11 64  1  0
 12 65  1  0
 12 66  1  0
 13 67  1  6
 14 68  1  0
 14 69  1  0
 18 70  1  1
 19 71  1  0
 22 72  1  1
 23 73  1  0
 27 74  1  0
 29 75  1  0
 30 76  1  0
 32 77  1  0
 33 78  1  0
 33 79  1  0
 34 80  1  0
 34 81  1  0
 35 82  1  0
 35 83  1  0
 36 84  1  0
 36 85  1  0
 37 86  1  0
 37 87  1  0
 39 88  1  0
 39 89  1  0
 39 90  1  0
 40 91  1  0
 40 92  1  0
 40 93  1  0
 41 94  1  0
 41 95  1  0
 41 96  1  0
 46 97  1  0
 47 98  1  0
 48 99  1  0
 48100  1  0
 49101  1  0
 49102  1  0
M  END
> <ID>
HT1990

> <Class>
0.0

> <Clusters>
214

> <Fold>
2

$$$$