
     RDKit          3D

 37 40  0  0  0  0  0  0  0  0999 V2000
    5.8488   -2.3375   -0.0473 O   0  0  0  0  0  0  0  0  0  0  0  0
    5.8112   -1.1618    0.6999 C   0  0  0  0  0  0  0  0  0  0  0  0
    6.8844   -0.6786    1.1532 O   0  0  0  0  0  0  0  0  0  0  0  0
    4.5163   -0.4396    0.9175 C   0  0  0  0  0  0  0  0  0  0  0  0
    4.2735    0.5670   -0.2109 C   0  0  0  0  0  0  0  0  0  0  0  0
    2.9557    1.2744   -0.0349 C   0  0  0  0  0  0  0  0  0  0  0  0
    2.9770    2.5001    0.2624 O   0  0  0  0  0  0  0  0  0  0  0  0
    1.6444    0.5877   -0.1979 C   0  0  0  0  0  0  0  0  0  0  0  0
    1.5459   -0.6880   -0.8227 C   0  0  0  0  0  0  0  0  0  0  0  0
    0.3012   -1.3184   -0.9952 C   0  0  0  0  0  0  0  0  0  0  0  0
   -0.8352   -0.6622   -0.5371 C   0  0  0  0  0  0  0  0  0  0  0  0
   -2.2490   -1.0391   -0.5931 C   0  0  0  0  0  0  0  0  0  0  0  0
   -2.9291   -2.1444   -1.1051 C   0  0  0  0  0  0  0  0  0  0  0  0
   -4.3410   -2.1552   -1.0078 C   0  0  0  0  0  0  0  0  0  0  0  0
   -5.0392   -1.0692   -0.4184 C   0  0  0  0  0  0  0  0  0  0  0  0
   -4.3201    0.0337    0.0829 C   0  0  0  0  0  0  0  0  0  0  0  0
   -4.8943    1.1802    0.6651 C   0  0  0  0  0  0  0  0  0  0  0  0
   -4.0580    2.2375    1.1117 C   0  0  0  0  0  0  0  0  0  0  0  0
   -2.6519    2.1549    0.9824 C   0  0  0  0  0  0  0  0  0  0  0  0
   -2.1173    1.0028    0.4043 C   0  0  0  0  0  0  0  0  0  0  0  0
   -0.7549    0.5832    0.0719 C   0  0  0  0  0  0  0  0  0  0  0  0
    0.4644    1.2292    0.2509 C   0  0  0  0  0  0  0  0  0  0  0  0
   -2.9401   -0.0056   -0.0204 C   0  0  0  0  0  0  0  0  0  0  0  0
    5.0043   -2.7366   -0.4413 H   0  0  0  0  0  0  0  0  0  0  0  0
    3.6926   -1.1826    0.9690 H   0  0  0  0  0  0  0  0  0  0  0  0
    4.5508    0.0911    1.8939 H   0  0  0  0  0  0  0  0  0  0  0  0
    4.3087    0.0662   -1.2018 H   0  0  0  0  0  0  0  0  0  0  0  0
    5.0964    1.3168   -0.1999 H   0  0  0  0  0  0  0  0  0  0  0  0
    2.4237   -1.1987   -1.1932 H   0  0  0  0  0  0  0  0  0  0  0  0
    0.2307   -2.2852   -1.4737 H   0  0  0  0  0  0  0  0  0  0  0  0
   -2.3949   -2.9635   -1.5655 H   0  0  0  0  0  0  0  0  0  0  0  0
   -4.8952   -3.0012   -1.3919 H   0  0  0  0  0  0  0  0  0  0  0  0
   -6.1201   -1.0916   -0.3609 H   0  0  0  0  0  0  0  0  0  0  0  0
   -5.9685    1.2649    0.7639 H   0  0  0  0  0  0  0  0  0  0  0  0
   -4.5024    3.1216    1.5478 H   0  0  0  0  0  0  0  0  0  0  0  0
   -2.0124    2.9646    1.3118 H   0  0  0  0  0  0  0  0  0  0  0  0
    0.4938    2.1991    0.7305 H   0  0  0  0  0  0  0  0  0  0  0  0
  1  2  1  0
  2  3  2  0
  2  4  1  0
  4  5  1  0
  5  6  1  0
  6  7  2  0
  6  8  1  0
  8  9  2  0
  9 10  1  0
 10 11  2  0
 11 12  1  0
 12 13  2  0
 13 14  1  0
 14 15  2  0
 15 16  1  0
 16 17  1  0
 17 18  2  0
 18 19  1  0
 19 20  2  0
 20 21  1  0
 21 11  1  0
 21 22  2  0
 22  8  1  0
 20 23  1  0
 23 12  1  0
 23 16  2  0
  1 24  1  0
  4 25  1  0
  4 26  1  0
  5 27  1  0
  5 28  1  0
  9 29  1  0
 10 30  1  0
 13 31  1  0
 14 32  1  0
 15 33  1  0
 17 34  1  0
 18 35  1  0
 19 36  1  0
 22 37  1  0
M  END
> <ID>
HT3366

> <Class>
0.0

> <Clusters>
27

> <Fold>
2

$$$$