
     RDKit          3D

 31 32  0  0  0  0  0  0  0  0999 V2000
   -2.3297   -0.4716   -2.1361 C   0  0  0  0  0  0  0  0  0  0  0  0
   -2.2268    0.1594   -0.7874 C   0  0  0  0  0  0  0  0  0  0  0  0
   -1.4410   -0.2575    0.1718 O   0  0  0  0  0  0  0  0  0  0  0  0
   -1.6266    0.5558    1.1883 C   0  0  0  0  0  0  0  0  0  0  0  0
   -0.9368    0.4351    2.4325 N   0  0  0  0  0  0  0  0  0  0  0  0
    0.2425   -0.8059    2.6849 S   0  0  0  0  0  0  0  0  0  0  0  0
   -0.4376   -2.1465    2.6923 O   0  0  0  0  0  0  0  0  0  0  0  0
    0.9111   -0.5985    4.0147 O   0  0  0  0  0  0  0  0  0  0  0  0
    1.4579   -0.7319    1.4129 C   0  0  0  0  0  0  0  0  0  0  0  0
    1.4902   -1.6993    0.3984 C   0  0  0  0  0  0  0  0  0  0  0  0
    2.4418   -1.6158   -0.6225 C   0  0  0  0  0  0  0  0  0  0  0  0
    3.3681   -0.5634   -0.6398 C   0  0  0  0  0  0  0  0  0  0  0  0
    4.3406   -0.4774   -1.6847 N   0  0  0  0  0  0  0  0  0  0  0  0
    3.3322    0.4059    0.3727 C   0  0  0  0  0  0  0  0  0  0  0  0
    2.3797    0.3228    1.3928 C   0  0  0  0  0  0  0  0  0  0  0  0
   -2.5319    1.5269    0.9406 N   0  0  0  0  0  0  0  0  0  0  0  0
   -2.9140    1.2621   -0.3242 C   0  0  0  0  0  0  0  0  0  0  0  0
   -3.9027    2.0804   -1.0885 C   0  0  0  0  0  0  0  0  0  0  0  0
   -3.3695   -0.8197   -2.3078 H   0  0  0  0  0  0  0  0  0  0  0  0
   -2.0547    0.2682   -2.9165 H   0  0  0  0  0  0  0  0  0  0  0  0
   -1.6411   -1.3399   -2.2011 H   0  0  0  0  0  0  0  0  0  0  0  0
   -1.1326    1.1147    3.2005 H   0  0  0  0  0  0  0  0  0  0  0  0
    0.7767   -2.5130    0.3909 H   0  0  0  0  0  0  0  0  0  0  0  0
    2.4555   -2.3685   -1.4007 H   0  0  0  0  0  0  0  0  0  0  0  0
    4.3743   -1.1939   -2.4439 H   0  0  0  0  0  0  0  0  0  0  0  0
    5.0339    0.3034   -1.7067 H   0  0  0  0  0  0  0  0  0  0  0  0
    4.0392    1.2259    0.3694 H   0  0  0  0  0  0  0  0  0  0  0  0
    2.3574    1.0823    2.1641 H   0  0  0  0  0  0  0  0  0  0  0  0
   -4.3653    2.8409   -0.4249 H   0  0  0  0  0  0  0  0  0  0  0  0
   -3.3899    2.5952   -1.9274 H   0  0  0  0  0  0  0  0  0  0  0  0
   -4.7007    1.4235   -1.4933 H   0  0  0  0  0  0  0  0  0  0  0  0
  1  2  1  0
  2  3  1  0
  3  4  1  0
  4  5  1  0
  5  6  1  0
  6  7  2  0
  6  8  2  0
  6  9  1  0
  9 10  2  0
 10 11  1  0
 11 12  2  0
 12 13  1  0
 12 14  1  0
 14 15  2  0
 15  9  1  0
  4 16  2  0
 16 17  1  0
 17  2  2  0
 17 18  1  0
  1 19  1  0
  1 20  1  0
  1 21  1  0
  5 22  1  0
 10 23  1  0
 11 24  1  0
 13 25  1  0
 13 26  1  0
 14 27  1  0
 15 28  1  0
 18 29  1  0
 18 30  1  0
 18 31  1  0
M  END
> <ID>
HT1948

> <Class>
0.0

> <Clusters>
220

> <Fold>
2

$$$$