
     RDKit          3D

 13 12  0  0  0  0  0  0  0  0999 V2000
   -1.7471   -0.3527    0.5521 C   0  0  0  0  0  0  0  0  0  0  0  0
   -1.0548    0.7462   -0.2470 C   0  0  0  0  0  0  0  0  0  0  0  0
    0.3447    0.7702    0.0290 O   0  0  0  0  0  0  0  0  0  0  0  0
    1.2419   -0.1930   -0.4455 C   0  0  0  0  0  0  0  0  0  0  0  0
    0.8536   -1.1154   -1.2125 O   0  0  0  0  0  0  0  0  0  0  0  0
    2.6133   -0.1220   -0.0656 N   0  0  0  0  0  0  0  0  0  0  0  0
   -1.5537   -0.2115    1.6365 H   0  0  0  0  0  0  0  0  0  0  0  0
   -1.3763   -1.3519    0.2429 H   0  0  0  0  0  0  0  0  0  0  0  0
   -2.8422   -0.3097    0.3736 H   0  0  0  0  0  0  0  0  0  0  0  0
   -1.2316    0.6046   -1.3354 H   0  0  0  0  0  0  0  0  0  0  0  0
   -1.4887    1.7248    0.0480 H   0  0  0  0  0  0  0  0  0  0  0  0
    2.9439    0.6406    0.5660 H   0  0  0  0  0  0  0  0  0  0  0  0
    3.2972   -0.8302   -0.4137 H   0  0  0  0  0  0  0  0  0  0  0  0
  1  2  1  0
  2  3  1  0
  3  4  1  0
  4  5  2  0
  4  6  1  0
  1  7  1  0
  1  8  1  0
  1  9  1  0
  2 10  1  0
  2 11  1  0
  6 12  1  0
  6 13  1  0
M  END
> <ID>
HT2156

> <Class>
0.0

> <Clusters>
245

> <Fold>
2

$$$$