
     RDKit          3D

 47 47  0  0  0  0  0  0  0  0999 V2000
    3.3361    2.0466   -1.4054 C   0  0  0  0  0  0  0  0  0  0  0  0
    3.9305    0.7057   -1.8313 C   0  0  0  0  0  0  0  0  0  0  0  0
    2.8408   -0.3407   -2.0939 C   0  0  0  0  0  0  0  0  0  0  0  0
    2.0528   -0.5762   -0.9258 O   0  0  0  0  0  0  0  0  0  0  0  0
    2.4838   -1.2204    0.2479 C   0  0  0  0  0  0  0  0  0  0  0  0
    3.6796   -1.9671    0.2812 C   0  0  0  0  0  0  0  0  0  0  0  0
    4.0789   -2.6284    1.4485 C   0  0  0  0  0  0  0  0  0  0  0  0
    5.2938   -3.3831    1.4688 N   0  0  0  0  0  0  0  0  0  0  0  0
    3.2812   -2.5521    2.5929 C   0  0  0  0  0  0  0  0  0  0  0  0
    2.0958   -1.8174    2.5762 C   0  0  0  0  0  0  0  0  0  0  0  0
    1.6848   -1.1392    1.4135 C   0  0  0  0  0  0  0  0  0  0  0  0
    0.4300   -0.3447    1.4407 C   0  0  0  0  0  0  0  0  0  0  0  0
   -0.3811   -0.4836    2.3980 O   0  0  0  0  0  0  0  0  0  0  0  0
    0.1531    0.5756    0.4218 O   0  0  0  0  0  0  0  0  0  0  0  0
   -1.0566    1.3260    0.3442 C   0  0  0  0  0  0  0  0  0  0  0  0
   -2.2038    0.4412   -0.1504 C   0  0  0  0  0  0  0  0  0  0  0  0
   -3.4301    1.2498   -0.3335 N   0  0  0  0  0  0  0  0  0  0  0  0
   -4.2262    1.3234    0.9142 C   0  0  0  0  0  0  0  0  0  0  0  0
   -5.2639    2.4437    0.8594 C   0  0  0  0  0  0  0  0  0  0  0  0
   -4.2103    0.8250   -1.5227 C   0  0  0  0  0  0  0  0  0  0  0  0
   -4.8189   -0.5798   -1.4073 C   0  0  0  0  0  0  0  0  0  0  0  0
    2.7865    1.9407   -0.4459 H   0  0  0  0  0  0  0  0  0  0  0  0
    4.1524    2.7858   -1.2639 H   0  0  0  0  0  0  0  0  0  0  0  0
    2.6431    2.4278   -2.1853 H   0  0  0  0  0  0  0  0  0  0  0  0
    4.5186    0.8525   -2.7627 H   0  0  0  0  0  0  0  0  0  0  0  0
    4.6258    0.3481   -1.0433 H   0  0  0  0  0  0  0  0  0  0  0  0
    3.2851   -1.2884   -2.4639 H   0  0  0  0  0  0  0  0  0  0  0  0
    2.1709    0.0343   -2.8967 H   0  0  0  0  0  0  0  0  0  0  0  0
    4.3029   -2.0526   -0.5972 H   0  0  0  0  0  0  0  0  0  0  0  0
    5.5991   -3.8819    2.3343 H   0  0  0  0  0  0  0  0  0  0  0  0
    5.8979   -3.4483    0.6193 H   0  0  0  0  0  0  0  0  0  0  0  0
    3.5793   -3.0612    3.5010 H   0  0  0  0  0  0  0  0  0  0  0  0
    1.5047   -1.7708    3.4824 H   0  0  0  0  0  0  0  0  0  0  0  0
   -1.2889    1.7746    1.3334 H   0  0  0  0  0  0  0  0  0  0  0  0
   -0.9065    2.1554   -0.3792 H   0  0  0  0  0  0  0  0  0  0  0  0
   -1.8725   -0.0135   -1.1114 H   0  0  0  0  0  0  0  0  0  0  0  0
   -2.3779   -0.3965    0.5617 H   0  0  0  0  0  0  0  0  0  0  0  0
   -3.5581    1.5500    1.7731 H   0  0  0  0  0  0  0  0  0  0  0  0
   -4.7188    0.3555    1.1452 H   0  0  0  0  0  0  0  0  0  0  0  0
   -4.7954    3.3844    0.4998 H   0  0  0  0  0  0  0  0  0  0  0  0
   -5.6768    2.6173    1.8757 H   0  0  0  0  0  0  0  0  0  0  0  0
   -6.1069    2.1675    0.1931 H   0  0  0  0  0  0  0  0  0  0  0  0
   -5.0182    1.5564   -1.7311 H   0  0  0  0  0  0  0  0  0  0  0  0
   -3.5550    0.8554   -2.4209 H   0  0  0  0  0  0  0  0  0  0  0  0
   -4.0581   -1.3254   -1.0978 H   0  0  0  0  0  0  0  0  0  0  0  0
   -5.2200   -0.8851   -2.3967 H   0  0  0  0  0  0  0  0  0  0  0  0
   -5.6634   -0.5867   -0.6882 H   0  0  0  0  0  0  0  0  0  0  0  0
  1  2  1  0
  2  3  1  0
  3  4  1  0
  4  5  1  0
  5  6  2  0
  6  7  1  0
  7  8  1  0
  7  9  2  0
  9 10  1  0
 10 11  2  0
 11  5  1  0
 11 12  1  0
 12 13  2  0
 12 14  1  0
 14 15  1  0
 15 16  1  0
 16 17  1  0
 17 18  1  0
 18 19  1  0
 17 20  1  0
 20 21  1  0
  1 22  1  0
  1 23  1  0
  1 24  1  0
  2 25  1  0
  2 26  1  0
  3 27  1  0
  3 28  1  0
  6 29  1  0
  8 30  1  0
  8 31  1  0
  9 32  1  0
 10 33  1  0
 15 34  1  0
 15 35  1  0
 16 36  1  0
 16 37  1  0
 18 38  1  0
 18 39  1  0
 19 40  1  0
 19 41  1  0
 19 42  1  0
 20 43  1  0
 20 44  1  0
 21 45  1  0
 21 46  1  0
 21 47  1  0
M  END
> <ID>
HT3326

> <Class>
0.0

> <Clusters>
207

> <Fold>
2

$$$$