
     RDKit          3D

 60 63  0  0  0  0  0  0  0  0999 V2000
   -4.5165   -1.8338   -2.0110 C   0  0  0  0  0  0  0  0  0  0  0  0
   -3.9795   -2.6385   -0.9057 N   0  0  0  0  0  0  0  0  0  0  0  0
   -4.3577   -4.0470   -1.0778 C   0  0  0  0  0  0  0  0  0  0  0  0
   -4.6191   -2.0493    0.6086 S   0  0  0  0  0  0  0  0  0  0  0  0
   -4.1053   -2.8925    1.7425 O   0  0  0  0  0  0  0  0  0  0  0  0
   -6.1222   -2.1226    0.5954 O   0  0  0  0  0  0  0  0  0  0  0  0
   -4.0939   -0.3874    0.8668 C   0  0  0  0  0  0  0  0  0  0  0  0
   -5.0258    0.6557    0.9424 C   0  0  0  0  0  0  0  0  0  0  0  0
   -4.5925    1.9684    1.1327 C   0  0  0  0  0  0  0  0  0  0  0  0
   -3.2273    2.2463    1.2491 C   0  0  0  0  0  0  0  0  0  0  0  0
   -2.6921    3.9091    1.6499 S   0  0  0  0  0  0  0  0  0  0  0  0
   -1.3599    3.8880    0.4509 C   0  0  0  0  0  0  0  0  0  0  0  0
   -1.1232    5.0134   -0.3450 C   0  0  0  0  0  0  0  0  0  0  0  0
    0.0036    5.0612   -1.1689 C   0  0  0  0  0  0  0  0  0  0  0  0
    0.8972    3.9884   -1.1934 C   0  0  0  0  0  0  0  0  0  0  0  0
    0.6529    2.8515   -0.4176 C   0  0  0  0  0  0  0  0  0  0  0  0
   -0.4948    2.7779    0.3949 C   0  0  0  0  0  0  0  0  0  0  0  0
   -0.8676    1.5498    1.0667 N   0  0  0  0  0  0  0  0  0  0  0  0
    0.1566    0.6937    1.6882 C   0  0  0  0  0  0  0  0  0  0  0  0
    0.6796   -0.3815    0.7124 C   0  0  0  0  0  0  0  0  0  0  0  0
    2.1854   -0.6186    0.8834 C   0  0  0  0  0  0  0  0  0  0  0  0
    2.6545   -1.6237   -0.0981 N   0  0  0  0  0  0  0  0  0  0  0  0
    3.7344   -2.4745    0.4403 C   0  0  0  0  0  0  0  0  0  0  0  0
    5.0476   -1.6887    0.6562 C   0  0  0  0  0  0  0  0  0  0  0  0
    5.0841   -0.4398   -0.1326 N   0  0  0  0  0  0  0  0  0  0  0  0
    6.4573    0.0799   -0.2086 C   0  0  0  0  0  0  0  0  0  0  0  0
    4.5376   -0.6587   -1.4810 C   0  0  0  0  0  0  0  0  0  0  0  0
    3.0390   -1.0183   -1.3976 C   0  0  0  0  0  0  0  0  0  0  0  0
   -2.2751    1.2147    1.1394 C   0  0  0  0  0  0  0  0  0  0  0  0
   -2.7247   -0.1052    0.9571 C   0  0  0  0  0  0  0  0  0  0  0  0
   -4.2099   -0.7730   -1.8948 H   0  0  0  0  0  0  0  0  0  0  0  0
   -4.0999   -2.1893   -2.9774 H   0  0  0  0  0  0  0  0  0  0  0  0
   -5.6267   -1.8888   -2.0529 H   0  0  0  0  0  0  0  0  0  0  0  0
   -5.4637   -4.1730   -1.0834 H   0  0  0  0  0  0  0  0  0  0  0  0
   -3.9258   -4.6590   -0.2570 H   0  0  0  0  0  0  0  0  0  0  0  0
   -3.9446   -4.4391   -2.0321 H   0  0  0  0  0  0  0  0  0  0  0  0
   -6.0862    0.4556    0.8621 H   0  0  0  0  0  0  0  0  0  0  0  0
   -5.3205    2.7651    1.2191 H   0  0  0  0  0  0  0  0  0  0  0  0
   -1.7918    5.8640   -0.3010 H   0  0  0  0  0  0  0  0  0  0  0  0
    0.1930    5.9366   -1.7764 H   0  0  0  0  0  0  0  0  0  0  0  0
    1.7743    4.0317   -1.8266 H   0  0  0  0  0  0  0  0  0  0  0  0
    1.3466    2.0277   -0.4817 H   0  0  0  0  0  0  0  0  0  0  0  0
    0.9873    1.3383    2.0526 H   0  0  0  0  0  0  0  0  0  0  0  0
   -0.2632    0.1987    2.5916 H   0  0  0  0  0  0  0  0  0  0  0  0
    0.4553   -0.0968   -0.3372 H   0  0  0  0  0  0  0  0  0  0  0  0
    0.1617   -1.3445    0.9077 H   0  0  0  0  0  0  0  0  0  0  0  0
    2.3505   -0.9714    1.9274 H   0  0  0  0  0  0  0  0  0  0  0  0
    2.7401    0.3406    0.7711 H   0  0  0  0  0  0  0  0  0  0  0  0
    3.4137   -2.9582    1.3890 H   0  0  0  0  0  0  0  0  0  0  0  0
    3.9227   -3.3036   -0.2775 H   0  0  0  0  0  0  0  0  0  0  0  0
    5.9047   -2.3526    0.4004 H   0  0  0  0  0  0  0  0  0  0  0  0
    5.1321   -1.4281    1.7331 H   0  0  0  0  0  0  0  0  0  0  0  0
    7.1241   -0.6196   -0.7611 H   0  0  0  0  0  0  0  0  0  0  0  0
    6.4628    1.0662   -0.7207 H   0  0  0  0  0  0  0  0  0  0  0  0
    6.8633    0.2356    0.8138 H   0  0  0  0  0  0  0  0  0  0  0  0
    4.6467    0.2607   -2.0977 H   0  0  0  0  0  0  0  0  0  0  0  0
    5.0913   -1.4783   -1.9936 H   0  0  0  0  0  0  0  0  0  0  0  0
    2.8011   -1.7400   -2.2080 H   0  0  0  0  0  0  0  0  0  0  0  0
    2.4324   -0.1094   -1.6084 H   0  0  0  0  0  0  0  0  0  0  0  0
   -2.0238   -0.9142    0.8426 H   0  0  0  0  0  0  0  0  0  0  0  0
  1  2  1  0
  2  3  1  0
  2  4  1  0
  4  5  2  0
  4  6  2  0
  4  7  1  0
  7  8  2  0
  8  9  1  0
  9 10  2  0
 10 11  1  0
 11 12  1  0
 12 13  2  0
 13 14  1  0
 14 15  2  0
 15 16  1  0
 16 17  2  0
 17 12  1  0
 17 18  1  0
 18 19  1  0
 19 20  1  0
 20 21  1  0
 21 22  1  0
 22 23  1  0
 23 24  1  0
 24 25  1  0
 25 26  1  0
 25 27  1  0
 27 28  1  0
 28 22  1  0
 18 29  1  0
 29 10  1  0
 29 30  2  0
 30  7  1  0
  1 31  1  0
  1 32  1  0
  1 33  1  0
  3 34  1  0
  3 35  1  0
  3 36  1  0
  8 37  1  0
  9 38  1  0
 13 39  1  0
 14 40  1  0
 15 41  1  0
 16 42  1  0
 19 43  1  0
 19 44  1  0
 20 45  1  0
 20 46  1  0
 21 47  1  0
 21 48  1  0
 23 49  1  0
 23 50  1  0
 24 51  1  0
 24 52  1  0
 26 53  1  0
 26 54  1  0
 26 55  1  0
 27 56  1  0
 27 57  1  0
 28 58  1  0
 28 59  1  0
 30 60  1  0
M  END
> <ID>
HT2045

> <Class>
0.0

> <Clusters>
205

> <Fold>
2

$$$$