
     RDKit          3D

 41 42  0  0  0  0  0  0  0  0999 V2000
   -6.4811   -2.4866   -0.8201 C   0  0  0  0  0  0  0  0  0  0  0  0
   -6.0776   -1.2182   -0.3141 O   0  0  0  0  0  0  0  0  0  0  0  0
   -4.7447   -0.8396   -0.0878 C   0  0  0  0  0  0  0  0  0  0  0  0
   -3.6678   -1.7068   -0.3465 C   0  0  0  0  0  0  0  0  0  0  0  0
   -2.3545   -1.2959   -0.1119 C   0  0  0  0  0  0  0  0  0  0  0  0
   -2.0879   -0.0047    0.3778 C   0  0  0  0  0  0  0  0  0  0  0  0
   -0.7101    0.4728    0.6542 C   0  0  0  0  0  0  0  0  0  0  0  0
    0.3855   -0.0426    0.0779 C   0  0  0  0  0  0  0  0  0  0  0  0
    1.7407    0.4656    0.3672 C   0  0  0  0  0  0  0  0  0  0  0  0
    1.9080    1.3905    1.2094 O   0  0  0  0  0  0  0  0  0  0  0  0
    2.8721   -0.1221   -0.2932 N   0  0  0  0  0  0  0  0  0  0  0  0
    4.2064    0.4065   -0.1940 C   0  0  0  0  0  0  0  0  0  0  0  0
    4.4206    1.7892   -0.3394 C   0  0  0  0  0  0  0  0  0  0  0  0
    5.7135    2.3137   -0.3226 C   0  0  0  0  0  0  0  0  0  0  0  0
    6.8091    1.4659   -0.1704 C   0  0  0  0  0  0  0  0  0  0  0  0
    6.6166    0.0900   -0.0343 C   0  0  0  0  0  0  0  0  0  0  0  0
    5.3208   -0.4578   -0.0461 C   0  0  0  0  0  0  0  0  0  0  0  0
    5.1540   -1.9180    0.1509 C   0  0  0  0  0  0  0  0  0  0  0  0
    4.1756   -2.3598    0.8098 O   0  0  0  0  0  0  0  0  0  0  0  0
    6.0778   -2.8243   -0.3665 O   0  0  0  0  0  0  0  0  0  0  0  0
   -3.1649    0.8531    0.6513 C   0  0  0  0  0  0  0  0  0  0  0  0
   -4.4926    0.4449    0.4158 C   0  0  0  0  0  0  0  0  0  0  0  0
   -5.5875    1.2864    0.6703 O   0  0  0  0  0  0  0  0  0  0  0  0
   -5.4865    2.6119    1.1806 C   0  0  0  0  0  0  0  0  0  0  0  0
   -6.0484   -2.6503   -1.8296 H   0  0  0  0  0  0  0  0  0  0  0  0
   -7.5872   -2.5099   -0.8996 H   0  0  0  0  0  0  0  0  0  0  0  0
   -6.1573   -3.2938   -0.1296 H   0  0  0  0  0  0  0  0  0  0  0  0
   -3.8355   -2.7064   -0.7233 H   0  0  0  0  0  0  0  0  0  0  0  0
   -1.5581   -2.0041   -0.2936 H   0  0  0  0  0  0  0  0  0  0  0  0
   -0.6014    1.3139    1.3293 H   0  0  0  0  0  0  0  0  0  0  0  0
    0.2991   -0.8390   -0.6479 H   0  0  0  0  0  0  0  0  0  0  0  0
    2.7247   -0.9982   -0.8434 H   0  0  0  0  0  0  0  0  0  0  0  0
    3.5860    2.4606   -0.4949 H   0  0  0  0  0  0  0  0  0  0  0  0
    5.8664    3.3791   -0.4369 H   0  0  0  0  0  0  0  0  0  0  0  0
    7.8108    1.8758   -0.1546 H   0  0  0  0  0  0  0  0  0  0  0  0
    7.4837   -0.5424    0.1078 H   0  0  0  0  0  0  0  0  0  0  0  0
    6.8463   -2.5284   -0.9556 H   0  0  0  0  0  0  0  0  0  0  0  0
   -2.9618    1.8426    1.0394 H   0  0  0  0  0  0  0  0  0  0  0  0
   -6.5050    3.0395    1.2822 H   0  0  0  0  0  0  0  0  0  0  0  0
   -4.9028    3.2470    0.4813 H   0  0  0  0  0  0  0  0  0  0  0  0
   -5.0048    2.6003    2.1811 H   0  0  0  0  0  0  0  0  0  0  0  0
  1  2  1  0
  2  3  1  0
  3  4  2  0
  4  5  1  0
  5  6  2  0
  6  7  1  0
  7  8  2  3
  8  9  1  0
  9 10  2  0
  9 11  1  0
 11 12  1  0
 12 13  2  0
 13 14  1  0
 14 15  2  0
 15 16  1  0
 16 17  2  0
 17 12  1  0
 17 18  1  0
 18 19  2  0
 18 20  1  0
  6 21  1  0
 21 22  2  0
 22  3  1  0
 22 23  1  0
 23 24  1  0
  1 25  1  0
  1 26  1  0
  1 27  1  0
  4 28  1  0
  5 29  1  0
  7 30  1  0
  8 31  1  0
 11 32  1  0
 13 33  1  0
 14 34  1  0
 15 35  1  0
 16 36  1  0
 20 37  1  0
 21 38  1  0
 24 39  1  0
 24 40  1  0
 24 41  1  0
M  END
> <ID>
HT2098

> <Class>
0.0

> <Clusters>
153

> <Fold>
2

$$$$