
     RDKit          3D

 67 68  0  0  0  0  0  0  0  0999 V2000
    7.4575    2.7557   -0.8303 C   0  0  0  0  0  0  0  0  0  0  0  0
    6.0670    2.9779   -0.2442 C   0  0  0  0  0  0  0  0  0  0  0  0
    5.1240    1.9911   -0.7678 N   0  0  0  0  0  0  0  0  0  0  0  0
    5.1111    0.6253   -0.3267 C   0  0  0  0  0  0  0  0  0  0  0  0
    5.8978    0.2481    0.5867 O   0  0  0  0  0  0  0  0  0  0  0  0
    4.1055   -0.3311   -0.9086 C   0  0  0  0  0  0  0  0  0  0  0  0
    4.4838   -1.8018   -0.6690 C   0  0  0  0  0  0  0  0  0  0  0  0
    3.5168   -2.7781   -1.3565 C   0  0  0  0  0  0  0  0  0  0  0  0
    2.1202   -2.7203   -0.7935 C   0  0  0  0  0  0  0  0  0  0  0  0
    1.8539   -3.0817    0.4711 C   0  0  0  0  0  0  0  0  0  0  0  0
    0.4477   -3.1178    1.0157 C   0  0  0  0  0  0  0  0  0  0  0  0
   -0.1027   -1.7679    1.5514 C   0  0  1  0  0  0  0  0  0  0  0  0
    0.5912   -1.2358    2.8143 C   0  0  1  0  0  0  0  0  0  0  0  0
    1.9921   -1.3801    2.7720 O   0  0  0  0  0  0  0  0  0  0  0  0
    0.1942    0.2433    2.8850 C   0  0  0  0  0  0  0  0  0  0  0  0
   -0.2291    0.6628    1.4683 C   0  0  1  0  0  0  0  0  0  0  0  0
    0.5912    1.7060    1.0079 O   0  0  0  0  0  0  0  0  0  0  0  0
   -0.0831   -0.5810    0.5732 C   0  0  2  0  0  0  0  0  0  0  0  0
   -1.1150   -0.5689   -0.5427 C   0  0  0  0  0  0  0  0  0  0  0  0
   -2.0926   -1.4762   -0.7200 C   0  0  0  0  0  0  0  0  0  0  0  0
   -3.0831   -1.3407   -1.8578 C   0  0  1  0  0  0  0  0  0  0  0  0
   -3.8348   -2.5171   -2.0265 O   0  0  0  0  0  0  0  0  0  0  0  0
   -4.0060   -0.1117   -1.6996 C   0  0  0  0  0  0  0  0  0  0  0  0
   -4.8158   -0.1050   -0.3907 C   0  0  0  0  0  0  0  0  0  0  0  0
   -5.6635    1.1376   -0.2913 C   0  0  0  0  0  0  0  0  0  0  0  0
   -5.0624    2.3884   -0.0654 C   0  0  0  0  0  0  0  0  0  0  0  0
   -5.8473    3.5423    0.0264 C   0  0  0  0  0  0  0  0  0  0  0  0
   -7.2365    3.4569   -0.1020 C   0  0  0  0  0  0  0  0  0  0  0  0
   -7.8431    2.2170   -0.3210 C   0  0  0  0  0  0  0  0  0  0  0  0
   -7.0621    1.0602   -0.4140 C   0  0  0  0  0  0  0  0  0  0  0  0
    8.1474    3.5427   -0.4582 H   0  0  0  0  0  0  0  0  0  0  0  0
    7.4172    2.8109   -1.9395 H   0  0  0  0  0  0  0  0  0  0  0  0
    7.8537    1.7635   -0.5273 H   0  0  0  0  0  0  0  0  0  0  0  0
    6.1039    2.9179    0.8669 H   0  0  0  0  0  0  0  0  0  0  0  0
    5.7225    3.9992   -0.5214 H   0  0  0  0  0  0  0  0  0  0  0  0
    4.4003    2.3082   -1.4513 H   0  0  0  0  0  0  0  0  0  0  0  0
    3.1220   -0.1152   -0.4455 H   0  0  0  0  0  0  0  0  0  0  0  0
    4.0268   -0.1441   -2.0012 H   0  0  0  0  0  0  0  0  0  0  0  0
    4.5181   -2.0103    0.4229 H   0  0  0  0  0  0  0  0  0  0  0  0
    5.5023   -1.9825   -1.0788 H   0  0  0  0  0  0  0  0  0  0  0  0
    3.4816   -2.5568   -2.4442 H   0  0  0  0  0  0  0  0  0  0  0  0
    3.9059   -3.8117   -1.2414 H   0  0  0  0  0  0  0  0  0  0  0  0
    1.3095   -2.4168   -1.4499 H   0  0  0  0  0  0  0  0  0  0  0  0
    2.6596   -3.4365    1.1092 H   0  0  0  0  0  0  0  0  0  0  0  0
    0.4249   -3.8493    1.8523 H   0  0  0  0  0  0  0  0  0  0  0  0
   -0.2307   -3.5241    0.2355 H   0  0  0  0  0  0  0  0  0  0  0  0
   -1.1570   -1.9494    1.8585 H   0  0  0  0  0  0  0  0  0  0  0  0
    0.2156   -1.7752    3.7121 H   0  0  0  0  0  0  0  0  0  0  0  0
    2.3414   -0.8093    2.0375 H   0  0  0  0  0  0  0  0  0  0  0  0
    1.0288    0.8688    3.2735 H   0  0  0  0  0  0  0  0  0  0  0  0
   -0.6688    0.3595    3.5772 H   0  0  0  0  0  0  0  0  0  0  0  0
   -1.2939    1.0001    1.5062 H   0  0  0  0  0  0  0  0  0  0  0  0
    0.1259    2.1128    0.2319 H   0  0  0  0  0  0  0  0  0  0  0  0
    0.9119   -0.5350    0.0914 H   0  0  0  0  0  0  0  0  0  0  0  0
   -1.0463    0.2585   -1.2440 H   0  0  0  0  0  0  0  0  0  0  0  0
   -2.1968   -2.3254   -0.0573 H   0  0  0  0  0  0  0  0  0  0  0  0
   -2.5000   -1.1967   -2.7934 H   0  0  0  0  0  0  0  0  0  0  0  0
   -4.2376   -2.7569   -1.1517 H   0  0  0  0  0  0  0  0  0  0  0  0
   -3.3838    0.8064   -1.7513 H   0  0  0  0  0  0  0  0  0  0  0  0
   -4.7076   -0.0810   -2.5601 H   0  0  0  0  0  0  0  0  0  0  0  0
   -4.1348   -0.1438    0.4876 H   0  0  0  0  0  0  0  0  0  0  0  0
   -5.4643   -1.0068   -0.3500 H   0  0  0  0  0  0  0  0  0  0  0  0
   -3.9874    2.4679    0.0414 H   0  0  0  0  0  0  0  0  0  0  0  0
   -5.3774    4.5025    0.1980 H   0  0  0  0  0  0  0  0  0  0  0  0
   -7.8436    4.3508   -0.0320 H   0  0  0  0  0  0  0  0  0  0  0  0
   -8.9190    2.1516   -0.4201 H   0  0  0  0  0  0  0  0  0  0  0  0
   -7.5477    0.1078   -0.5876 H   0  0  0  0  0  0  0  0  0  0  0  0
  1  2  1  0
  2  3  1  0
  3  4  1  0
  4  5  2  0
  4  6  1  0
  6  7  1  0
  7  8  1  0
  8  9  1  0
  9 10  2  3
 10 11  1  0
 12 11  1  0
 12 13  1  0
 13 14  1  0
 13 15  1  0
 15 16  1  0
 16 17  1  0
 16 18  1  0
 18 12  1  0
 18 19  1  0
 19 20  2  3
 20 21  1  0
 21 22  1  0
 21 23  1  0
 23 24  1  0
 24 25  1  0
 25 26  2  0
 26 27  1  0
 27 28  2  0
 28 29  1  0
 29 30  2  0
 30 25  1  0
  1 31  1  0
  1 32  1  0
  1 33  1  0
  2 34  1  0
  2 35  1  0
  3 36  1  0
  6 37  1  0
  6 38  1  0
  7 39  1  0
  7 40  1  0
  8 41  1  0
  8 42  1  0
  9 43  1  0
 10 44  1  0
 11 45  1  0
 11 46  1  0
 12 47  1  1
 13 48  1  1
 14 49  1  0
 15 50  1  0
 15 51  1  0
 16 52  1  1
 17 53  1  0
 18 54  1  6
 19 55  1  0
 20 56  1  0
 21 57  1  6
 22 58  1  0
 23 59  1  0
 23 60  1  0
 24 61  1  0
 24 62  1  0
 26 63  1  0
 27 64  1  0
 28 65  1  0
 29 66  1  0
 30 67  1  0
M  END
> <ID>
HT0286

> <Class>
0.0

> <Clusters>
81

> <Fold>
2

$$$$