
     RDKit          3D

 53 54  0  0  0  0  0  0  0  0999 V2000
    2.6462    3.0393   -0.4669 O   0  0  0  0  0  0  0  0  0  0  0  0
    1.8926    2.0266    0.1532 C   0  0  0  0  0  0  0  0  0  0  0  0
    1.5017    2.4294    1.5995 C   0  0  0  0  0  0  0  0  0  0  0  0
    1.4521    1.3338    2.5062 O   0  0  0  0  0  0  0  0  0  0  0  0
    0.8517    0.1906    1.9213 C   0  0  0  0  0  0  0  0  0  0  0  0
   -0.4150    0.5402    1.3752 O   0  0  0  0  0  0  0  0  0  0  0  0
   -1.2995   -0.5669    1.2984 C   0  0  0  0  0  0  0  0  0  0  0  0
   -2.2600   -0.5453    2.4985 C   0  0  0  0  0  0  0  0  0  0  0  0
   -3.0594    0.6259    2.5038 O   0  0  0  0  0  0  0  0  0  0  0  0
   -3.8997    0.6797    1.3615 C   0  0  0  0  0  0  0  0  0  0  0  0
   -4.8014   -0.4019    1.3599 O   0  0  0  0  0  0  0  0  0  0  0  0
   -3.0681    0.7304    0.0607 C   0  0  0  0  0  0  0  0  0  0  0  0
   -3.9368    0.6907   -1.0568 O   0  0  0  0  0  0  0  0  0  0  0  0
   -3.7567    2.0945   -1.9904 S   0  0  0  0  0  0  0  0  0  0  0  0
   -4.1812    3.2942   -1.1898 O   0  0  0  0  0  0  0  0  0  0  0  0
   -4.6268    1.9803   -3.2097 O   0  0  0  0  0  0  0  0  0  0  0  0
   -2.1532    2.2635   -2.4712 O   0  0  0  0  0  0  0  0  0  0  0  0
   -2.1103   -0.4705   -0.0060 C   0  0  0  0  0  0  0  0  0  0  0  0
   -1.2267   -0.2805   -1.0944 O   0  0  0  0  0  0  0  0  0  0  0  0
   -1.0912   -1.7079   -1.9981 S   0  0  0  0  0  0  0  0  0  0  0  0
   -2.3552   -1.9289   -2.7811 O   0  0  0  0  0  0  0  0  0  0  0  0
    0.0638   -1.5676   -2.9496 O   0  0  0  0  0  0  0  0  0  0  0  0
   -0.8117   -3.0216   -0.9848 O   0  0  0  0  0  0  0  0  0  0  0  0
    1.7953   -0.4091    0.8383 C   0  0  0  0  0  0  0  0  0  0  0  0
    2.6776   -1.3286    1.4578 O   0  0  0  0  0  0  0  0  0  0  0  0
    2.4090   -2.9051    0.8877 S   0  0  0  0  0  0  0  0  0  0  0  0
    1.0722   -3.4058    1.3561 O   0  0  0  0  0  0  0  0  0  0  0  0
    2.4659   -2.9378   -0.6147 O   0  0  0  0  0  0  0  0  0  0  0  0
    3.6119   -3.9108    1.4914 O   0  0  0  0  0  0  0  0  0  0  0  0
    2.6478    0.6875    0.1537 C   0  0  0  0  0  0  0  0  0  0  0  0
    2.9087    0.3078   -1.1858 O   0  0  0  0  0  0  0  0  0  0  0  0
    4.5607   -0.0158   -1.4008 S   0  0  0  0  0  0  0  0  0  0  0  0
    5.0313   -1.0533   -0.4191 O   0  0  0  0  0  0  0  0  0  0  0  0
    5.3571    1.2449   -1.2176 O   0  0  0  0  0  0  0  0  0  0  0  0
    4.8031   -0.5871   -2.9625 O   0  0  0  0  0  0  0  0  0  0  0  0
    3.5064    3.1189    0.0229 H   0  0  0  0  0  0  0  0  0  0  0  0
    0.9594    1.8961   -0.4389 H   0  0  0  0  0  0  0  0  0  0  0  0
    2.2461    3.1514    1.9974 H   0  0  0  0  0  0  0  0  0  0  0  0
    0.5236    2.9587    1.5939 H   0  0  0  0  0  0  0  0  0  0  0  0
    0.7275   -0.5524    2.7437 H   0  0  0  0  0  0  0  0  0  0  0  0
   -0.7708   -1.5469    1.2903 H   0  0  0  0  0  0  0  0  0  0  0  0
   -2.8887   -1.4638    2.5132 H   0  0  0  0  0  0  0  0  0  0  0  0
   -1.6637   -0.5626    3.4347 H   0  0  0  0  0  0  0  0  0  0  0  0
   -4.4763    1.6310    1.4290 H   0  0  0  0  0  0  0  0  0  0  0  0
   -5.5688   -0.1411    0.7871 H   0  0  0  0  0  0  0  0  0  0  0  0
   -2.4470    1.6575    0.1141 H   0  0  0  0  0  0  0  0  0  0  0  0
   -2.1247    3.1187   -2.9692 H   0  0  0  0  0  0  0  0  0  0  0  0
   -2.7390   -1.3892   -0.1008 H   0  0  0  0  0  0  0  0  0  0  0  0
   -0.6535   -3.7865   -1.5940 H   0  0  0  0  0  0  0  0  0  0  0  0
    1.1562   -0.8724    0.0527 H   0  0  0  0  0  0  0  0  0  0  0  0
    3.6303   -3.7272    2.4645 H   0  0  0  0  0  0  0  0  0  0  0  0
    3.5715    0.8451    0.7635 H   0  0  0  0  0  0  0  0  0  0  0  0
    4.3160   -1.4493   -2.9978 H   0  0  0  0  0  0  0  0  0  0  0  0
  1  2  1  0
  2  3  1  0
  3  4  1  0
  4  5  1  0
  5  6  1  0
  6  7  1  0
  7  8  1  0
  8  9  1  0
  9 10  1  0
 10 11  1  0
 10 12  1  0
 12 13  1  0
 13 14  1  0
 14 15  2  0
 14 16  2  0
 14 17  1  0
 12 18  1  0
 18  7  1  0
 18 19  1  0
 19 20  1  0
 20 21  2  0
 20 22  2  0
 20 23  1  0
  5 24  1  0
 24 25  1  0
 25 26  1  0
 26 27  2  0
 26 28  2  0
 26 29  1  0
 24 30  1  0
 30  2  1  0
 30 31  1  0
 31 32  1  0
 32 33  2  0
 32 34  2  0
 32 35  1  0
  1 36  1  0
  2 37  1  0
  3 38  1  0
  3 39  1  0
  5 40  1  0
  7 41  1  0
  8 42  1  0
  8 43  1  0
 10 44  1  0
 11 45  1  0
 12 46  1  0
 17 47  1  0
 18 48  1  0
 23 49  1  0
 24 50  1  0
 29 51  1  0
 30 52  1  0
 35 53  1  0
M  END
> <ID>
HT1625

> <Class>
0.0

> <Clusters>
139

> <Fold>
2

$$$$