
     RDKit          3D

 67 70  0  0  0  0  0  0  0  0999 V2000
   -5.7513   -0.1256    2.2213 C   0  0  0  0  0  0  0  0  0  0  0  0
   -4.5312    0.3894    1.4449 C   0  0  0  0  0  0  0  0  0  0  0  0
   -4.4104   -0.0307   -0.0740 C   0  0  0  0  0  0  0  0  0  0  0  0
   -5.1398   -1.4029   -0.3464 C   0  0  0  0  0  0  0  0  0  0  0  0
   -5.1021   -1.8614   -1.8125 C   0  0  0  0  0  0  0  0  0  0  0  0
   -5.0707    1.0767   -0.9847 C   0  0  0  0  0  0  0  0  0  0  0  0
   -6.5906    1.2582   -0.8799 C   0  0  0  0  0  0  0  0  0  0  0  0
   -2.9513   -0.1446   -0.4602 N   0  0  0  0  0  0  0  0  0  0  0  0
   -2.1156    1.0445   -0.1479 C   0  0  0  0  0  0  0  0  0  0  0  0
   -0.8007    0.9926   -0.9483 C   0  0  0  0  0  0  0  0  0  0  0  0
   -0.3959   -0.3975   -1.2437 N   0  0  0  0  0  0  0  0  0  0  0  0
    1.0033   -0.5056   -1.7153 C   0  0  0  0  0  0  0  0  0  0  0  0
    2.0609   -0.4467   -0.5914 C   0  0  0  0  0  0  0  0  0  0  0  0
    3.4890   -0.4023   -1.1798 C   0  0  0  0  0  0  0  0  0  0  0  0
    4.4947   -0.0110   -0.1737 N   0  0  0  0  0  0  0  0  0  0  0  0
    5.1989   -1.0189    0.6079 C   0  0  0  0  0  0  0  0  0  0  0  0
    4.5902   -2.2406    0.9669 C   0  0  0  0  0  0  0  0  0  0  0  0
    5.2109   -3.1100    1.8687 C   0  0  0  0  0  0  0  0  0  0  0  0
    6.4478   -2.7815    2.4219 C   0  0  0  0  0  0  0  0  0  0  0  0
    7.0896   -1.6037    2.0406 C   0  0  0  0  0  0  0  0  0  0  0  0
    6.4851   -0.7429    1.1177 C   0  0  0  0  0  0  0  0  0  0  0  0
    7.4390    0.6064    0.4426 S   0  0  0  0  0  0  0  0  0  0  0  0
    6.0806    1.7602    0.5406 C   0  0  0  0  0  0  0  0  0  0  0  0
    6.3331    3.0717    0.9577 C   0  0  0  0  0  0  0  0  0  0  0  0
    5.3512    4.0519    0.8151 C   0  0  0  0  0  0  0  0  0  0  0  0
    4.1256    3.7293    0.2320 C   0  0  0  0  0  0  0  0  0  0  0  0
    3.8575    2.4147   -0.1605 C   0  0  0  0  0  0  0  0  0  0  0  0
    4.8150    1.3951    0.0361 C   0  0  0  0  0  0  0  0  0  0  0  0
   -0.7341   -1.3139   -0.1436 C   0  0  0  0  0  0  0  0  0  0  0  0
   -2.2645   -1.3847    0.0124 C   0  0  0  0  0  0  0  0  0  0  0  0
   -6.7031    0.1137    1.7121 H   0  0  0  0  0  0  0  0  0  0  0  0
   -5.7732    0.3491    3.2246 H   0  0  0  0  0  0  0  0  0  0  0  0
   -5.6808   -1.2238    2.3695 H   0  0  0  0  0  0  0  0  0  0  0  0
   -4.5152    1.4973    1.5289 H   0  0  0  0  0  0  0  0  0  0  0  0
   -3.6482    0.0420    2.0159 H   0  0  0  0  0  0  0  0  0  0  0  0
   -4.7118   -2.2038    0.2913 H   0  0  0  0  0  0  0  0  0  0  0  0
   -6.2055   -1.3649   -0.0479 H   0  0  0  0  0  0  0  0  0  0  0  0
   -4.0947   -1.7391   -2.2599 H   0  0  0  0  0  0  0  0  0  0  0  0
   -5.3864   -2.9334   -1.8720 H   0  0  0  0  0  0  0  0  0  0  0  0
   -5.8285   -1.2823   -2.4200 H   0  0  0  0  0  0  0  0  0  0  0  0
   -4.6572    2.0765   -0.7588 H   0  0  0  0  0  0  0  0  0  0  0  0
   -4.8163    0.8760   -2.0472 H   0  0  0  0  0  0  0  0  0  0  0  0
   -6.8715    1.6571    0.1155 H   0  0  0  0  0  0  0  0  0  0  0  0
   -7.1491    0.3275   -1.0983 H   0  0  0  0  0  0  0  0  0  0  0  0
   -6.9122    2.0106   -1.6319 H   0  0  0  0  0  0  0  0  0  0  0  0
   -1.8733    1.0739    0.9379 H   0  0  0  0  0  0  0  0  0  0  0  0
   -2.6086    2.0003   -0.3936 H   0  0  0  0  0  0  0  0  0  0  0  0
   -0.0166    1.5384   -0.3811 H   0  0  0  0  0  0  0  0  0  0  0  0
   -0.9503    1.5252   -1.9131 H   0  0  0  0  0  0  0  0  0  0  0  0
    1.2014    0.2990   -2.4581 H   0  0  0  0  0  0  0  0  0  0  0  0
    1.1187   -1.4675   -2.2604 H   0  0  0  0  0  0  0  0  0  0  0  0
    1.9466   -1.3428    0.0442 H   0  0  0  0  0  0  0  0  0  0  0  0
    1.8794    0.4204    0.0695 H   0  0  0  0  0  0  0  0  0  0  0  0
    3.7440   -1.3966   -1.6073 H   0  0  0  0  0  0  0  0  0  0  0  0
    3.5320    0.3129   -2.0305 H   0  0  0  0  0  0  0  0  0  0  0  0
    3.6358   -2.5368    0.5710 H   0  0  0  0  0  0  0  0  0  0  0  0
    4.7255   -4.0372    2.1455 H   0  0  0  0  0  0  0  0  0  0  0  0
    6.9233   -3.4543    3.1238 H   0  0  0  0  0  0  0  0  0  0  0  0
    8.0769   -1.3841    2.4276 H   0  0  0  0  0  0  0  0  0  0  0  0
    7.3066    3.3429    1.3476 H   0  0  0  0  0  0  0  0  0  0  0  0
    5.5531    5.0697    1.1222 H   0  0  0  0  0  0  0  0  0  0  0  0
    3.3764    4.4977    0.0924 H   0  0  0  0  0  0  0  0  0  0  0  0
    2.8981    2.2151   -0.6095 H   0  0  0  0  0  0  0  0  0  0  0  0
   -0.2863   -0.9549    0.8108 H   0  0  0  0  0  0  0  0  0  0  0  0
   -0.3404   -2.3343   -0.3504 H   0  0  0  0  0  0  0  0  0  0  0  0
   -2.5999   -2.2475   -0.5979 H   0  0  0  0  0  0  0  0  0  0  0  0
   -2.5029   -1.6085    1.0728 H   0  0  0  0  0  0  0  0  0  0  0  0
  1  2  1  0
  2  3  1  0
  3  4  1  0
  4  5  1  0
  3  6  1  0
  6  7  1  0
  3  8  1  0
  8  9  1  0
  9 10  1  0
 10 11  1  0
 11 12  1  0
 12 13  1  0
 13 14  1  0
 14 15  1  0
 15 16  1  0
 16 17  2  0
 17 18  1  0
 18 19  2  0
 19 20  1  0
 20 21  2  0
 21 16  1  0
 21 22  1  0
 22 23  1  0
 23 24  2  0
 24 25  1  0
 25 26  2  0
 26 27  1  0
 27 28  2  0
 28 15  1  0
 28 23  1  0
 11 29  1  0
 29 30  1  0
 30  8  1  0
  1 31  1  0
  1 32  1  0
  1 33  1  0
  2 34  1  0
  2 35  1  0
  4 36  1  0
  4 37  1  0
  5 38  1  0
  5 39  1  0
  5 40  1  0
  6 41  1  0
  6 42  1  0
  7 43  1  0
  7 44  1  0
  7 45  1  0
  9 46  1  0
  9 47  1  0
 10 48  1  0
 10 49  1  0
 12 50  1  0
 12 51  1  0
 13 52  1  0
 13 53  1  0
 14 54  1  0
 14 55  1  0
 17 56  1  0
 18 57  1  0
 19 58  1  0
 20 59  1  0
 24 60  1  0
 25 61  1  0
 26 62  1  0
 27 63  1  0
 29 64  1  0
 29 65  1  0
 30 66  1  0
 30 67  1  0
M  END
> <ID>
HT3806

> <Class>
0.0

> <Clusters>
205

> <Fold>
2

$$$$