
     RDKit          3D

 33 33  0  0  0  0  0  0  0  0999 V2000
   -2.5101    0.1882   -2.1929 C   0  0  0  0  0  0  0  0  0  0  0  0
   -1.7080   -0.9368   -1.5403 C   0  0  0  0  0  0  0  0  0  0  0  0
   -1.8202   -0.9040   -0.0732 N   0  0  0  0  0  0  0  0  0  0  0  0
   -3.1139   -1.1891    0.5634 C   0  0  0  0  0  0  0  0  0  0  0  0
   -3.6069    0.0318    1.3320 C   0  0  0  0  0  0  0  0  0  0  0  0
   -0.6305   -0.8543    0.7418 C   0  0  0  0  0  0  0  0  0  0  0  0
   -0.5289   -1.6156    1.7424 O   0  0  0  0  0  0  0  0  0  0  0  0
    0.4798    0.0694    0.4305 C   0  0  0  0  0  0  0  0  0  0  0  0
    0.2152    1.3778    0.0052 C   0  0  0  0  0  0  0  0  0  0  0  0
    1.2650    2.2507   -0.2836 C   0  0  0  0  0  0  0  0  0  0  0  0
    2.5919    1.8343   -0.1412 C   0  0  0  0  0  0  0  0  0  0  0  0
    3.6153    2.7332   -0.4414 O   0  0  0  0  0  0  0  0  0  0  0  0
    2.8770    0.5298    0.3028 C   0  0  0  0  0  0  0  0  0  0  0  0
    4.2187    0.1403    0.4431 O   0  0  0  0  0  0  0  0  0  0  0  0
    4.6452   -1.1457    0.8815 C   0  0  0  0  0  0  0  0  0  0  0  0
    1.8112   -0.3458    0.5935 C   0  0  0  0  0  0  0  0  0  0  0  0
   -2.3696    0.1501   -3.2936 H   0  0  0  0  0  0  0  0  0  0  0  0
   -2.1682    1.1774   -1.8306 H   0  0  0  0  0  0  0  0  0  0  0  0
   -3.5928    0.0776   -1.9769 H   0  0  0  0  0  0  0  0  0  0  0  0
   -2.0812   -1.9143   -1.9148 H   0  0  0  0  0  0  0  0  0  0  0  0
   -0.6468   -0.8486   -1.8593 H   0  0  0  0  0  0  0  0  0  0  0  0
   -3.0190   -2.0539    1.2550 H   0  0  0  0  0  0  0  0  0  0  0  0
   -3.8762   -1.4661   -0.1967 H   0  0  0  0  0  0  0  0  0  0  0  0
   -3.7087    0.8987    0.6453 H   0  0  0  0  0  0  0  0  0  0  0  0
   -2.8930    0.2908    2.1422 H   0  0  0  0  0  0  0  0  0  0  0  0
   -4.5969   -0.1863    1.7847 H   0  0  0  0  0  0  0  0  0  0  0  0
   -0.8025    1.7344   -0.0728 H   0  0  0  0  0  0  0  0  0  0  0  0
    1.0471    3.2594   -0.6113 H   0  0  0  0  0  0  0  0  0  0  0  0
    4.5938    2.4860   -0.3552 H   0  0  0  0  0  0  0  0  0  0  0  0
    5.7539   -1.1733    0.8982 H   0  0  0  0  0  0  0  0  0  0  0  0
    4.2810   -1.9278    0.1823 H   0  0  0  0  0  0  0  0  0  0  0  0
    4.2694   -1.3435    1.9075 H   0  0  0  0  0  0  0  0  0  0  0  0
    2.0089   -1.3542    0.9323 H   0  0  0  0  0  0  0  0  0  0  0  0
  1  2  1  0
  2  3  1  0
  3  4  1  0
  4  5  1  0
  3  6  1  0
  6  7  2  0
  6  8  1  0
  8  9  2  0
  9 10  1  0
 10 11  2  0
 11 12  1  0
 11 13  1  0
 13 14  1  0
 14 15  1  0
 13 16  2  0
 16  8  1  0
  1 17  1  0
  1 18  1  0
  1 19  1  0
  2 20  1  0
  2 21  1  0
  4 22  1  0
  4 23  1  0
  5 24  1  0
  5 25  1  0
  5 26  1  0
  9 27  1  0
 10 28  1  0
 12 29  1  0
 15 30  1  0
 15 31  1  0
 15 32  1  0
 16 33  1  0
M  END
> <ID>
HT2969

> <Class>
0.0

> <Clusters>
77

> <Fold>
2

$$$$