
     RDKit          3D

 26 27  0  0  0  0  0  0  0  0999 V2000
   -1.5716   -0.5476    1.8140 C   0  0  0  0  0  0  0  0  0  0  0  0
   -1.1910    0.2988    0.6719 N   0  0  0  0  0  0  0  0  0  0  0  0
   -2.3692    0.8202   -0.0425 C   0  0  0  0  0  0  0  0  0  0  0  0
   -2.2062    0.5012   -1.5228 C   0  0  0  0  0  0  0  0  0  0  0  0
   -0.7567    0.1082   -1.6785 C   0  0  0  0  0  0  0  0  0  0  0  0
   -0.3807   -0.4414   -0.3112 C   0  0  1  0  0  0  0  0  0  0  0  0
    1.1081   -0.2976   -0.0571 C   0  0  0  0  0  0  0  0  0  0  0  0
    1.6348    0.6737    0.8148 C   0  0  0  0  0  0  0  0  0  0  0  0
    3.0141    0.7675    1.0078 C   0  0  0  0  0  0  0  0  0  0  0  0
    3.8620   -0.1062    0.3269 C   0  0  0  0  0  0  0  0  0  0  0  0
    3.3444   -1.0363   -0.5175 N   0  0  0  0  0  0  0  0  0  0  0  0
    2.0051   -1.1491   -0.7234 C   0  0  0  0  0  0  0  0  0  0  0  0
   -2.1383    0.0554    2.5552 H   0  0  0  0  0  0  0  0  0  0  0  0
   -2.1996   -1.4075    1.4899 H   0  0  0  0  0  0  0  0  0  0  0  0
   -0.6608   -0.9343    2.3196 H   0  0  0  0  0  0  0  0  0  0  0  0
   -2.4051    1.9219    0.0973 H   0  0  0  0  0  0  0  0  0  0  0  0
   -3.3305    0.3967    0.3300 H   0  0  0  0  0  0  0  0  0  0  0  0
   -2.8573   -0.3585   -1.7964 H   0  0  0  0  0  0  0  0  0  0  0  0
   -2.4609    1.3746   -2.1619 H   0  0  0  0  0  0  0  0  0  0  0  0
   -0.6228   -0.6510   -2.4799 H   0  0  0  0  0  0  0  0  0  0  0  0
   -0.1561    1.0147   -1.9189 H   0  0  0  0  0  0  0  0  0  0  0  0
   -0.6436   -1.5267   -0.2966 H   0  0  0  0  0  0  0  0  0  0  0  0
    0.9891    1.3645    1.3406 H   0  0  0  0  0  0  0  0  0  0  0  0
    3.4225    1.5131    1.6777 H   0  0  0  0  0  0  0  0  0  0  0  0
    4.9328   -0.0434    0.4674 H   0  0  0  0  0  0  0  0  0  0  0  0
    1.6375   -1.9042   -1.4064 H   0  0  0  0  0  0  0  0  0  0  0  0
  1  2  1  0
  2  3  1  0
  3  4  1  0
  4  5  1  0
  5  6  1  0
  6  2  1  0
  6  7  1  0
  7  8  2  0
  8  9  1  0
  9 10  2  0
 10 11  1  0
 11 12  2  0
 12  7  1  0
  1 13  1  0
  1 14  1  0
  1 15  1  0
  3 16  1  0
  3 17  1  0
  4 18  1  0
  4 19  1  0
  5 20  1  0
  5 21  1  0
  6 22  1  6
  8 23  1  0
  9 24  1  0
 10 25  1  0
 12 26  1  0
M  END
> <ID>
HT1488

> <Class>
0.0

> <Clusters>
191

> <Fold>
2

$$$$