
     RDKit          3D

 38 41  0  0  0  0  0  0  0  0999 V2000
    4.0022    1.5252   -0.5171 C   0  0  0  0  0  0  0  0  0  0  0  0
    2.8198    0.7037   -0.7791 N   0  0  0  0  0  0  0  0  0  0  0  0
    1.6592    1.2259   -0.0396 C   0  0  0  0  0  0  0  0  0  0  0  0
    0.3809    0.3749   -0.2817 C   0  0  0  0  0  0  0  0  0  0  0  0
    0.1526    0.1231   -1.8145 C   0  0  0  0  0  0  0  0  0  0  0  0
   -1.1551   -0.7099   -2.0627 C   0  0  0  0  0  0  0  0  0  0  0  0
   -1.8445   -1.0447   -0.7152 C   0  0  0  0  0  0  0  0  0  0  0  0
   -2.0806    0.2860   -0.0255 C   0  0  0  0  0  0  0  0  0  0  0  0
   -3.3349    0.7549    0.3733 C   0  0  0  0  0  0  0  0  0  0  0  0
   -3.4289    1.9880    1.0274 C   0  0  0  0  0  0  0  0  0  0  0  0
   -2.2759    2.7419    1.2867 C   0  0  0  0  0  0  0  0  0  0  0  0
   -1.0163    2.2752    0.8891 C   0  0  0  0  0  0  0  0  0  0  0  0
   -0.9126    1.0451    0.2170 C   0  0  0  0  0  0  0  0  0  0  0  0
   -0.8033   -1.7595    0.1269 C   0  0  0  0  0  0  0  0  0  0  0  0
   -0.9778   -3.0331    0.6746 C   0  0  0  0  0  0  0  0  0  0  0  0
    0.0173   -3.5662    1.5003 C   0  0  0  0  0  0  0  0  0  0  0  0
    1.1683   -2.8219    1.7921 C   0  0  0  0  0  0  0  0  0  0  0  0
    1.3458   -1.5433    1.2481 C   0  0  0  0  0  0  0  0  0  0  0  0
    0.3723   -1.0149    0.3824 C   0  0  0  0  0  0  0  0  0  0  0  0
    4.2593    1.5154    0.5652 H   0  0  0  0  0  0  0  0  0  0  0  0
    3.8298    2.5706   -0.8525 H   0  0  0  0  0  0  0  0  0  0  0  0
    4.8646    1.1203   -1.0875 H   0  0  0  0  0  0  0  0  0  0  0  0
    3.0366   -0.2671   -0.4615 H   0  0  0  0  0  0  0  0  0  0  0  0
    1.8750    1.2838    1.0508 H   0  0  0  0  0  0  0  0  0  0  0  0
    1.4619    2.2587   -0.4030 H   0  0  0  0  0  0  0  0  0  0  0  0
    0.0790    1.0962   -2.3487 H   0  0  0  0  0  0  0  0  0  0  0  0
    1.0141   -0.4316   -2.2464 H   0  0  0  0  0  0  0  0  0  0  0  0
   -1.8549   -0.1326   -2.7062 H   0  0  0  0  0  0  0  0  0  0  0  0
   -0.9084   -1.6530   -2.5984 H   0  0  0  0  0  0  0  0  0  0  0  0
   -2.7756   -1.6359   -0.8555 H   0  0  0  0  0  0  0  0  0  0  0  0
   -4.2267    0.1710    0.1847 H   0  0  0  0  0  0  0  0  0  0  0  0
   -4.3963    2.3584    1.3412 H   0  0  0  0  0  0  0  0  0  0  0  0
   -2.3594    3.6899    1.8022 H   0  0  0  0  0  0  0  0  0  0  0  0
   -0.1441    2.8708    1.1177 H   0  0  0  0  0  0  0  0  0  0  0  0
   -1.8785   -3.5995    0.4755 H   0  0  0  0  0  0  0  0  0  0  0  0
   -0.1110   -4.5507    1.9311 H   0  0  0  0  0  0  0  0  0  0  0  0
    1.9207   -3.2341    2.4520 H   0  0  0  0  0  0  0  0  0  0  0  0
    2.2255   -0.9813    1.5244 H   0  0  0  0  0  0  0  0  0  0  0  0
  1  2  1  0
  2  3  1  0
  3  4  1  0
  4  5  1  0
  5  6  1  0
  6  7  1  0
  7  8  1  0
  8  9  2  0
  9 10  1  0
 10 11  2  0
 11 12  1  0
 12 13  2  0
 13  4  1  0
 13  8  1  0
  7 14  1  0
 14 15  2  0
 15 16  1  0
 16 17  2  0
 17 18  1  0
 18 19  2  0
 19  4  1  0
 19 14  1  0
  1 20  1  0
  1 21  1  0
  1 22  1  0
  2 23  1  0
  3 24  1  0
  3 25  1  0
  5 26  1  0
  5 27  1  0
  6 28  1  0
  6 29  1  0
  7 30  1  0
  9 31  1  0
 10 32  1  0
 11 33  1  0
 12 34  1  0
 15 35  1  0
 16 36  1  0
 17 37  1  0
 18 38  1  0
M  END
> <ID>
HT3094

> <Class>
0.0

> <Clusters>
152

> <Fold>
2

$$$$