
     RDKit          3D

 15 14  0  0  0  0  0  0  0  0999 V2000
    2.2542    0.6101    0.1048 C   0  0  0  0  0  0  0  0  0  0  0  0
    0.9905   -0.1903    0.3791 C   0  0  0  0  0  0  0  0  0  0  0  0
    0.1509   -0.1352   -0.7553 O   0  0  0  0  0  0  0  0  0  0  0  0
   -1.0885   -0.7636   -0.4864 C   0  0  0  0  0  0  0  0  0  0  0  0
   -2.1342    0.2754   -0.0975 C   0  0  0  0  0  0  0  0  0  0  0  0
    2.7888    0.1881   -0.7725 H   0  0  0  0  0  0  0  0  0  0  0  0
    2.9246    0.5688    0.9892 H   0  0  0  0  0  0  0  0  0  0  0  0
    1.9948    1.6702   -0.1015 H   0  0  0  0  0  0  0  0  0  0  0  0
    1.2826   -1.2433    0.5931 H   0  0  0  0  0  0  0  0  0  0  0  0
    0.4893    0.2453    1.2733 H   0  0  0  0  0  0  0  0  0  0  0  0
   -1.0315   -1.5582    0.2956 H   0  0  0  0  0  0  0  0  0  0  0  0
   -1.4282   -1.2636   -1.4179 H   0  0  0  0  0  0  0  0  0  0  0  0
   -3.1199   -0.2179    0.0367 H   0  0  0  0  0  0  0  0  0  0  0  0
   -2.2221    1.0431   -0.8953 H   0  0  0  0  0  0  0  0  0  0  0  0
   -1.8513    0.7709    0.8546 H   0  0  0  0  0  0  0  0  0  0  0  0
  1  2  1  0
  2  3  1  0
  3  4  1  0
  4  5  1  0
  1  6  1  0
  1  7  1  0
  1  8  1  0
  2  9  1  0
  2 10  1  0
  4 11  1  0
  4 12  1  0
  5 13  1  0
  5 14  1  0
  5 15  1  0
M  END
> <ID>
HT2334

> <Class>
0.0

> <Clusters>
245

> <Fold>
2

$$$$