
     RDKit          3D

 10 10  0  0  0  0  0  0  0  0999 V2000
    2.0691    0.9542   -0.3721 Cl  0  0  0  0  0  0  0  0  0  0  0  0
    1.1199   -0.5047    0.0475 C   0  0  0  0  0  0  0  0  0  0  0  0
   -0.3083   -0.2069    0.5252 C   0  0  0  0  0  0  0  0  0  0  0  0
   -1.1866    0.4822   -0.4467 C   0  0  0  0  0  0  0  0  0  0  0  0
   -0.6044    1.1654    0.6414 O   0  0  0  0  0  0  0  0  0  0  0  0
    1.0789   -1.1750   -0.8366 H   0  0  0  0  0  0  0  0  0  0  0  0
    1.6577   -1.0398    0.8572 H   0  0  0  0  0  0  0  0  0  0  0  0
   -0.8072   -0.8344    1.2935 H   0  0  0  0  0  0  0  0  0  0  0  0
   -0.7403    0.8070   -1.4104 H   0  0  0  0  0  0  0  0  0  0  0  0
   -2.2788    0.3521   -0.2990 H   0  0  0  0  0  0  0  0  0  0  0  0
  1  2  1  0
  2  3  1  0
  3  4  1  0
  4  5  1  0
  5  3  1  0
  2  6  1  0
  2  7  1  0
  3  8  1  0
  4  9  1  0
  4 10  1  0
M  END
> <ID>
HT1882

> <Class>
0.0

> <Clusters>
139

> <Fold>
2

$$$$