
     RDKit          3D

 45 48  0  0  0  0  0  0  0  0999 V2000
   -1.9836    1.7820    1.9347 O   0  0  0  0  0  0  0  0  0  0  0  0
   -2.3105    1.2035    0.8628 C   0  0  0  0  0  0  0  0  0  0  0  0
   -1.2652    0.9415   -0.2014 C   0  0  0  0  0  0  0  0  0  0  0  0
   -3.7084    0.7588    0.6526 C   0  0  0  0  0  0  0  0  0  0  0  0
   -4.5714    0.5573    1.7426 C   0  0  0  0  0  0  0  0  0  0  0  0
   -4.1785    0.5404   -0.6607 C   0  0  0  0  0  0  0  0  0  0  0  0
   -5.8831    0.1254    1.5308 C   0  0  0  0  0  0  0  0  0  0  0  0
   -3.2875    0.8251   -1.8079 C   0  0  0  0  0  0  0  0  0  0  0  0
   -5.5010    0.1080   -0.8601 C   0  0  0  0  0  0  0  0  0  0  0  0
   -6.3456   -0.1017    0.2330 C   0  0  0  0  0  0  0  0  0  0  0  0
   -1.8866    1.2044   -1.5544 C   0  0  0  0  0  0  0  0  0  0  0  0
   -3.7219    0.7781   -2.9906 O   0  0  0  0  0  0  0  0  0  0  0  0
   -1.2034    1.7383   -2.4696 O   0  0  0  0  0  0  0  0  0  0  0  0
   -0.7272   -0.5241   -0.0944 C   0  0  2  0  0  0  0  0  0  0  0  0
   -0.0077   -0.8000    1.2657 C   0  0  0  0  0  0  0  0  0  0  0  0
    0.1852   -0.9244   -1.2809 C   0  0  0  0  0  0  0  0  0  0  0  0
    1.5191   -0.9755    1.1529 C   0  0  0  0  0  0  0  0  0  0  0  0
    1.5269   -0.1690   -1.2786 C   0  0  0  0  0  0  0  0  0  0  0  0
    2.1188    0.0205    0.1437 C   0  0  2  0  0  0  0  0  0  0  0  0
    3.6348   -0.0591    0.1328 C   0  0  0  0  0  0  0  0  0  0  0  0
    4.4036    1.0634    0.4908 C   0  0  0  0  0  0  0  0  0  0  0  0
    4.2956   -1.2497   -0.2274 C   0  0  0  0  0  0  0  0  0  0  0  0
    5.8001    0.9963    0.4877 C   0  0  0  0  0  0  0  0  0  0  0  0
    5.6921   -1.3124   -0.2294 C   0  0  0  0  0  0  0  0  0  0  0  0
    6.4452   -0.1905    0.1281 C   0  0  0  0  0  0  0  0  0  0  0  0
    8.1974   -0.2716    0.1248 Cl  0  0  0  0  0  0  0  0  0  0  0  0
   -0.4244    1.6545   -0.0576 H   0  0  0  0  0  0  0  0  0  0  0  0
   -4.2278    0.7216    2.7563 H   0  0  0  0  0  0  0  0  0  0  0  0
   -6.5419   -0.0347    2.3745 H   0  0  0  0  0  0  0  0  0  0  0  0
   -5.8829   -0.0619   -1.8590 H   0  0  0  0  0  0  0  0  0  0  0  0
   -7.3630   -0.4350    0.0734 H   0  0  0  0  0  0  0  0  0  0  0  0
   -1.6121   -1.1994   -0.1431 H   0  0  0  0  0  0  0  0  0  0  0  0
   -0.1999    0.0119    1.9955 H   0  0  0  0  0  0  0  0  0  0  0  0
   -0.4271   -1.7255    1.7175 H   0  0  0  0  0  0  0  0  0  0  0  0
    0.3923   -2.0153   -1.2112 H   0  0  0  0  0  0  0  0  0  0  0  0
   -0.3267   -0.7812   -2.2554 H   0  0  0  0  0  0  0  0  0  0  0  0
    1.9774   -0.8210    2.1546 H   0  0  0  0  0  0  0  0  0  0  0  0
    1.7435   -2.0188    0.8408 H   0  0  0  0  0  0  0  0  0  0  0  0
    2.2274   -0.7245   -1.9390 H   0  0  0  0  0  0  0  0  0  0  0  0
    1.3840    0.8307   -1.7435 H   0  0  0  0  0  0  0  0  0  0  0  0
    1.8217    1.0356    0.4916 H   0  0  0  0  0  0  0  0  0  0  0  0
    3.9245    1.9926    0.7730 H   0  0  0  0  0  0  0  0  0  0  0  0
    3.7309   -2.1288   -0.5107 H   0  0  0  0  0  0  0  0  0  0  0  0
    6.3795    1.8677    0.7652 H   0  0  0  0  0  0  0  0  0  0  0  0
    6.1872   -2.2335   -0.5095 H   0  0  0  0  0  0  0  0  0  0  0  0
  1  2  2  0
  2  3  1  0
  4  2  1  0
  5  4  2  0
  4  6  1  0
  7  5  1  0
  8  6  1  0
  6  9  2  0
 10  7  2  0
 11  8  1  0
  8 12  2  0
  9 10  1  0
  3 11  1  0
 11 13  2  0
 14  3  1  0
 14 15  1  0
 16 14  1  0
 15 17  1  0
 18 16  1  0
 17 19  1  0
 19 18  1  0
 19 20  1  0
 20 21  2  0
 22 20  1  0
 21 23  1  0
 24 22  2  0
 23 25  2  0
 25 24  1  0
 25 26  1  0
  3 27  1  0
  5 28  1  0
  7 29  1  0
  9 30  1  0
 10 31  1  0
 14 32  1  1
 15 33  1  0
 15 34  1  0
 16 35  1  0
 16 36  1  0
 17 37  1  0
 17 38  1  0
 18 39  1  0
 18 40  1  0
 19 41  1  1
 21 42  1  0
 22 43  1  0
 23 44  1  0
 24 45  1  0
M  END
> <ID>
HT0196

> <Class>
0.0

> <Clusters>
106

> <Fold>
2

$$$$