
     RDKit          3D

 32 33  0  0  0  0  0  0  0  0999 V2000
   -5.7574   -0.8803    2.2765 O   0  0  0  0  0  0  0  0  0  0  0  0
   -4.6300   -0.1121    1.9926 C   0  0  0  0  0  0  0  0  0  0  0  0
   -4.2081    0.6916    2.8660 O   0  0  0  0  0  0  0  0  0  0  0  0
   -3.9039   -0.2487    0.7092 C   0  0  0  0  0  0  0  0  0  0  0  0
   -2.5014   -0.1412    0.6981 C   0  0  0  0  0  0  0  0  0  0  0  0
   -1.7809   -0.2768   -0.5020 C   0  0  0  0  0  0  0  0  0  0  0  0
   -2.4707   -0.5124   -1.6943 C   0  0  0  0  0  0  0  0  0  0  0  0
   -3.8635   -0.6016   -1.6981 C   0  0  0  0  0  0  0  0  0  0  0  0
   -4.5878   -0.4604   -0.5062 C   0  0  0  0  0  0  0  0  0  0  0  0
   -5.9816   -0.5017   -0.5384 O   0  0  0  0  0  0  0  0  0  0  0  0
   -0.3517   -0.1827   -0.5368 N   0  0  0  0  0  0  0  0  0  0  0  0
    0.3399    0.0306    0.5102 N   0  0  0  0  0  0  0  0  0  0  0  0
    1.7691    0.1247    0.4754 C   0  0  0  0  0  0  0  0  0  0  0  0
    2.4589    0.3611    1.6676 C   0  0  0  0  0  0  0  0  0  0  0  0
    3.8505    0.4668    1.6688 C   0  0  0  0  0  0  0  0  0  0  0  0
    4.5743    0.3331    0.4757 C   0  0  0  0  0  0  0  0  0  0  0  0
    5.9598    0.4927    0.4893 O   0  0  0  0  0  0  0  0  0  0  0  0
    3.8941    0.0679   -0.7313 C   0  0  0  0  0  0  0  0  0  0  0  0
    2.4901   -0.0173   -0.7237 C   0  0  0  0  0  0  0  0  0  0  0  0
    4.6222   -0.0980   -2.0101 C   0  0  0  0  0  0  0  0  0  0  0  0
    4.1141    0.3348   -3.0784 O   0  0  0  0  0  0  0  0  0  0  0  0
    5.8491   -0.7561   -2.0692 O   0  0  0  0  0  0  0  0  0  0  0  0
   -6.0624   -1.6307    1.6694 H   0  0  0  0  0  0  0  0  0  0  0  0
   -1.9715    0.0316    1.6269 H   0  0  0  0  0  0  0  0  0  0  0  0
   -1.9263   -0.6195   -2.6243 H   0  0  0  0  0  0  0  0  0  0  0  0
   -4.3823   -0.7689   -2.6335 H   0  0  0  0  0  0  0  0  0  0  0  0
   -6.4901   -0.6442   -1.4033 H   0  0  0  0  0  0  0  0  0  0  0  0
    1.9142    0.4711    2.5971 H   0  0  0  0  0  0  0  0  0  0  0  0
    4.3671    0.6658    2.5992 H   0  0  0  0  0  0  0  0  0  0  0  0
    6.4644    0.6921    1.3452 H   0  0  0  0  0  0  0  0  0  0  0  0
    1.9616   -0.2105   -1.6493 H   0  0  0  0  0  0  0  0  0  0  0  0
    6.2398   -1.2361   -1.2681 H   0  0  0  0  0  0  0  0  0  0  0  0
  1  2  1  0
  2  3  2  0
  2  4  1  0
  4  5  2  0
  5  6  1  0
  6  7  2  0
  7  8  1  0
  8  9  2  0
  9  4  1  0
  9 10  1  0
  6 11  1  0
 11 12  2  3
 12 13  1  0
 13 14  2  0
 14 15  1  0
 15 16  2  0
 16 17  1  0
 16 18  1  0
 18 19  2  0
 19 13  1  0
 18 20  1  0
 20 21  2  0
 20 22  1  0
  1 23  1  0
  5 24  1  0
  7 25  1  0
  8 26  1  0
 10 27  1  0
 14 28  1  0
 15 29  1  0
 17 30  1  0
 19 31  1  0
 22 32  1  0
M  END
> <ID>
HT1538

> <Class>
0.0

> <Clusters>
27

> <Fold>
2

$$$$