
     RDKit          3D

 33 34  0  0  0  0  0  0  0  0999 V2000
   -1.5638    0.9750    2.2562 C   0  0  0  0  0  0  0  0  0  0  0  0
   -1.9036    0.3046    0.9637 C   0  0  0  0  0  0  0  0  0  0  0  0
   -2.9749   -0.5901    0.8869 C   0  0  0  0  0  0  0  0  0  0  0  0
   -3.2528   -1.1965   -0.3424 C   0  0  0  0  0  0  0  0  0  0  0  0
   -4.3815   -2.1692   -0.4687 C   0  0  0  0  0  0  0  0  0  0  0  0
   -2.4771   -0.9131   -1.4230 N   0  0  0  0  0  0  0  0  0  0  0  0
   -1.4383   -0.0408   -1.3344 C   0  0  0  0  0  0  0  0  0  0  0  0
   -0.6375    0.2300   -2.4885 N   0  0  0  0  0  0  0  0  0  0  0  0
    0.7172    1.3091   -2.4320 S   0  0  0  0  0  0  0  0  0  0  0  0
    1.4549    1.2553   -3.7401 O   0  0  0  0  0  0  0  0  0  0  0  0
    0.2253    2.7126   -2.2132 O   0  0  0  0  0  0  0  0  0  0  0  0
    1.8095    0.8219   -1.1392 C   0  0  0  0  0  0  0  0  0  0  0  0
    2.4967   -0.3950   -1.2337 C   0  0  0  0  0  0  0  0  0  0  0  0
    3.3419   -0.8083   -0.1995 C   0  0  0  0  0  0  0  0  0  0  0  0
    3.5038   -0.0095    0.9414 C   0  0  0  0  0  0  0  0  0  0  0  0
    4.3652   -0.4336    2.0010 N   0  0  0  0  0  0  0  0  0  0  0  0
    2.8126    1.2066    1.0375 C   0  0  0  0  0  0  0  0  0  0  0  0
    1.9691    1.6207    0.0023 C   0  0  0  0  0  0  0  0  0  0  0  0
   -1.1629    0.5606   -0.1460 N   0  0  0  0  0  0  0  0  0  0  0  0
   -0.6855    1.6435    2.1297 H   0  0  0  0  0  0  0  0  0  0  0  0
   -1.3209    0.2096    3.0230 H   0  0  0  0  0  0  0  0  0  0  0  0
   -2.4271    1.5809    2.6030 H   0  0  0  0  0  0  0  0  0  0  0  0
   -3.5762   -0.8097    1.7614 H   0  0  0  0  0  0  0  0  0  0  0  0
   -5.3245   -1.7009   -0.1159 H   0  0  0  0  0  0  0  0  0  0  0  0
   -4.1681   -3.0700    0.1441 H   0  0  0  0  0  0  0  0  0  0  0  0
   -4.5130   -2.4789   -1.5273 H   0  0  0  0  0  0  0  0  0  0  0  0
   -0.8635   -0.2416   -3.3923 H   0  0  0  0  0  0  0  0  0  0  0  0
    2.3731   -1.0254   -2.1054 H   0  0  0  0  0  0  0  0  0  0  0  0
    3.8670   -1.7513   -0.2853 H   0  0  0  0  0  0  0  0  0  0  0  0
    4.4910    0.1539    2.8553 H   0  0  0  0  0  0  0  0  0  0  0  0
    4.8833   -1.3384    1.9390 H   0  0  0  0  0  0  0  0  0  0  0  0
    2.9248    1.8309    1.9150 H   0  0  0  0  0  0  0  0  0  0  0  0
    1.4357    2.5574    0.0982 H   0  0  0  0  0  0  0  0  0  0  0  0
  1  2  1  0
  2  3  2  0
  3  4  1  0
  4  5  1  0
  4  6  2  0
  6  7  1  0
  7  8  1  0
  8  9  1  0
  9 10  2  0
  9 11  2  0
  9 12  1  0
 12 13  2  0
 13 14  1  0
 14 15  2  0
 15 16  1  0
 15 17  1  0
 17 18  2  0
 18 12  1  0
  7 19  2  0
 19  2  1  0
  1 20  1  0
  1 21  1  0
  1 22  1  0
  3 23  1  0
  5 24  1  0
  5 25  1  0
  5 26  1  0
  8 27  1  0
 13 28  1  0
 14 29  1  0
 16 30  1  0
 16 31  1  0
 17 32  1  0
 18 33  1  0
M  END
> <ID>
HT1943

> <Class>
0.0

> <Clusters>
220

> <Fold>
2

$$$$