
     RDKit          3D

 37 38  0  0  0  0  0  0  0  0999 V2000
   -1.5560   -2.4543    1.6832 C   0  0  0  0  0  0  0  0  0  0  0  0
   -1.2737   -1.8389    0.3071 C   0  0  0  0  0  0  0  0  0  0  0  0
   -1.9795   -2.6264   -0.8035 C   0  0  0  0  0  0  0  0  0  0  0  0
   -1.6675   -0.3680    0.2724 C   0  0  0  0  0  0  0  0  0  0  0  0
   -3.0103    0.0043    0.4773 C   0  0  0  0  0  0  0  0  0  0  0  0
   -3.3925    1.3452    0.4511 C   0  0  0  0  0  0  0  0  0  0  0  0
   -2.4409    2.3465    0.2328 C   0  0  0  0  0  0  0  0  0  0  0  0
   -2.8608    3.7856    0.1666 C   0  0  0  0  0  0  0  0  0  0  0  0
   -1.1045    1.9908    0.0080 C   0  0  0  0  0  0  0  0  0  0  0  0
   -0.7037    0.6392    0.0313 C   0  0  0  0  0  0  0  0  0  0  0  0
    0.6351    0.2701   -0.1825 O   0  0  0  0  0  0  0  0  0  0  0  0
    1.7021    1.1808   -0.4353 C   0  0  0  0  0  0  0  0  0  0  0  0
    2.9900    0.4394   -0.6116 C   0  0  0  0  0  0  0  0  0  0  0  0
    4.1009    1.0446   -0.8502 N   0  0  0  0  0  0  0  0  0  0  0  0
    5.1770    0.0682   -0.9728 C   0  0  0  0  0  0  0  0  0  0  0  0
    4.5059   -1.2977   -0.7595 C   0  0  0  0  0  0  0  0  0  0  0  0
    3.1128   -0.9685   -0.5358 N   0  0  0  0  0  0  0  0  0  0  0  0
   -1.1730   -3.4966    1.7190 H   0  0  0  0  0  0  0  0  0  0  0  0
   -2.6448   -2.4727    1.9009 H   0  0  0  0  0  0  0  0  0  0  0  0
   -1.0407   -1.8684    2.4742 H   0  0  0  0  0  0  0  0  0  0  0  0
   -0.1835   -1.9519    0.1295 H   0  0  0  0  0  0  0  0  0  0  0  0
   -1.7670   -2.1637   -1.7911 H   0  0  0  0  0  0  0  0  0  0  0  0
   -1.6062   -3.6726   -0.8236 H   0  0  0  0  0  0  0  0  0  0  0  0
   -3.0786   -2.6487   -0.6459 H   0  0  0  0  0  0  0  0  0  0  0  0
   -3.7696   -0.7459    0.6558 H   0  0  0  0  0  0  0  0  0  0  0  0
   -4.4337    1.6022    0.6029 H   0  0  0  0  0  0  0  0  0  0  0  0
   -3.1055    4.0506   -0.8831 H   0  0  0  0  0  0  0  0  0  0  0  0
   -3.7535    3.9649    0.8030 H   0  0  0  0  0  0  0  0  0  0  0  0
   -2.0451    4.4480    0.5271 H   0  0  0  0  0  0  0  0  0  0  0  0
   -0.3831    2.7736   -0.1841 H   0  0  0  0  0  0  0  0  0  0  0  0
    1.4907    1.7555   -1.3625 H   0  0  0  0  0  0  0  0  0  0  0  0
    1.8068    1.8803    0.4218 H   0  0  0  0  0  0  0  0  0  0  0  0
    5.9479    0.2581   -0.1957 H   0  0  0  0  0  0  0  0  0  0  0  0
    5.6315    0.1341   -1.9846 H   0  0  0  0  0  0  0  0  0  0  0  0
    4.6044   -1.9389   -1.6615 H   0  0  0  0  0  0  0  0  0  0  0  0
    4.9217   -1.8147    0.1318 H   0  0  0  0  0  0  0  0  0  0  0  0
    2.3470   -1.6540   -0.3530 H   0  0  0  0  0  0  0  0  0  0  0  0
  1  2  1  0
  2  3  1  0
  2  4  1  0
  4  5  2  0
  5  6  1  0
  6  7  2  0
  7  8  1  0
  7  9  1  0
  9 10  2  0
 10  4  1  0
 10 11  1  0
 11 12  1  0
 12 13  1  0
 13 14  2  0
 14 15  1  0
 15 16  1  0
 16 17  1  0
 17 13  1  0
  1 18  1  0
  1 19  1  0
  1 20  1  0
  2 21  1  0
  3 22  1  0
  3 23  1  0
  3 24  1  0
  5 25  1  0
  6 26  1  0
  8 27  1  0
  8 28  1  0
  8 29  1  0
  9 30  1  0
 12 31  1  0
 12 32  1  0
 15 33  1  0
 15 34  1  0
 16 35  1  0
 16 36  1  0
 17 37  1  0
M  END
> <ID>
HT2147

> <Class>
0.0

> <Clusters>
257

> <Fold>
2

$$$$