
     RDKit          3D

 34 35  0  0  0  0  0  0  0  0999 V2000
    4.7845   -2.0766    1.0701 C   0  0  0  0  0  0  0  0  0  0  0  0
    3.3024   -2.2755    1.3740 C   0  0  0  0  0  0  0  0  0  0  0  0
    2.4703   -1.5846    0.3752 N   0  0  0  0  0  0  0  0  0  0  0  0
    1.9024   -0.3823    0.6902 C   0  0  0  0  0  0  0  0  0  0  0  0
    1.1123    0.2949   -0.2361 C   0  0  0  0  0  0  0  0  0  0  0  0
    0.9047   -0.2812   -1.4951 C   0  0  0  0  0  0  0  0  0  0  0  0
    1.4854   -1.4766   -1.7736 N   0  0  0  0  0  0  0  0  0  0  0  0
    2.2558   -2.1290   -0.8649 C   0  0  0  0  0  0  0  0  0  0  0  0
    2.7639   -3.2394   -1.1782 O   0  0  0  0  0  0  0  0  0  0  0  0
    0.0995    0.3503   -2.5031 N   0  0  0  0  0  0  0  0  0  0  0  0
   -0.8368    1.7885   -2.2431 S   0  0  0  0  0  0  0  0  0  0  0  0
   -1.6226    2.0989   -3.4855 O   0  0  0  0  0  0  0  0  0  0  0  0
    0.0932    2.9338   -1.9541 O   0  0  0  0  0  0  0  0  0  0  0  0
   -1.9593    1.5458   -0.9084 C   0  0  0  0  0  0  0  0  0  0  0  0
   -2.2449    2.5930   -0.0218 C   0  0  0  0  0  0  0  0  0  0  0  0
   -3.1297    2.3917    1.0421 C   0  0  0  0  0  0  0  0  0  0  0  0
   -3.7387    1.1423    1.2270 C   0  0  0  0  0  0  0  0  0  0  0  0
   -4.6426    0.9360    2.3158 N   0  0  0  0  0  0  0  0  0  0  0  0
   -3.4563    0.0969    0.3363 C   0  0  0  0  0  0  0  0  0  0  0  0
   -2.5721    0.2987   -0.7276 C   0  0  0  0  0  0  0  0  0  0  0  0
    5.3957   -2.5800    1.8485 H   0  0  0  0  0  0  0  0  0  0  0  0
    5.0414   -2.5104    0.0812 H   0  0  0  0  0  0  0  0  0  0  0  0
    5.0293   -0.9932    1.0675 H   0  0  0  0  0  0  0  0  0  0  0  0
    3.0969   -1.8886    2.3969 H   0  0  0  0  0  0  0  0  0  0  0  0
    3.0613   -3.3609    1.3912 H   0  0  0  0  0  0  0  0  0  0  0  0
    2.0652    0.0680    1.6624 H   0  0  0  0  0  0  0  0  0  0  0  0
    0.6838    1.2484    0.0362 H   0  0  0  0  0  0  0  0  0  0  0  0
    0.0240   -0.1085   -3.4382 H   0  0  0  0  0  0  0  0  0  0  0  0
   -1.7835    3.5635   -0.1515 H   0  0  0  0  0  0  0  0  0  0  0  0
   -3.3404    3.2080    1.7215 H   0  0  0  0  0  0  0  0  0  0  0  0
   -5.1012    0.0091    2.4615 H   0  0  0  0  0  0  0  0  0  0  0  0
   -4.8594    1.7087    2.9843 H   0  0  0  0  0  0  0  0  0  0  0  0
   -3.9207   -0.8724    0.4665 H   0  0  0  0  0  0  0  0  0  0  0  0
   -2.3636   -0.5173   -1.4079 H   0  0  0  0  0  0  0  0  0  0  0  0
  1  2  1  0
  2  3  1  0
  3  4  1  0
  4  5  2  0
  5  6  1  0
  6  7  2  0
  7  8  1  0
  8  3  1  0
  8  9  2  0
  6 10  1  0
 10 11  1  0
 11 12  2  0
 11 13  2  0
 11 14  1  0
 14 15  2  0
 15 16  1  0
 16 17  2  0
 17 18  1  0
 17 19  1  0
 19 20  2  0
 20 14  1  0
  1 21  1  0
  1 22  1  0
  1 23  1  0
  2 24  1  0
  2 25  1  0
  4 26  1  0
  5 27  1  0
 10 28  1  0
 15 29  1  0
 16 30  1  0
 18 31  1  0
 18 32  1  0
 19 33  1  0
 20 34  1  0
M  END
> <ID>
HT1936

> <Class>
0.0

> <Clusters>
220

> <Fold>
2

$$$$