
     RDKit          3D

 31 32  0  0  0  0  0  0  0  0999 V2000
    5.2819   -0.1925   -2.2865 C   0  0  0  0  0  0  0  0  0  0  0  0
    4.2126    0.6087   -1.7981 O   0  0  0  0  0  0  0  0  0  0  0  0
    3.2830    0.1410   -0.8647 C   0  0  0  0  0  0  0  0  0  0  0  0
    2.2595    0.9797   -0.4290 C   0  0  0  0  0  0  0  0  0  0  0  0
    1.3373    0.5062    0.5014 C   0  0  0  0  0  0  0  0  0  0  0  0
    1.4552   -0.8083    0.9784 C   0  0  0  0  0  0  0  0  0  0  0  0
    0.5378   -1.3643    1.9333 N   0  0  0  0  0  0  0  0  0  0  0  0
   -0.8931   -0.5575    2.4940 S   0  0  0  0  0  0  0  0  0  0  0  0
   -0.4945    0.6789    3.2507 O   0  0  0  0  0  0  0  0  0  0  0  0
   -1.6479   -1.4725    3.4162 O   0  0  0  0  0  0  0  0  0  0  0  0
   -1.9288   -0.1464    1.1307 C   0  0  0  0  0  0  0  0  0  0  0  0
   -2.6561    1.0517    1.1279 C   0  0  0  0  0  0  0  0  0  0  0  0
   -3.4700    1.3773    0.0385 C   0  0  0  0  0  0  0  0  0  0  0  0
   -3.5659    0.5065   -1.0563 C   0  0  0  0  0  0  0  0  0  0  0  0
   -4.3972    0.8401   -2.1709 N   0  0  0  0  0  0  0  0  0  0  0  0
   -2.8420   -0.6943   -1.0500 C   0  0  0  0  0  0  0  0  0  0  0  0
   -2.0288   -1.0199    0.0396 C   0  0  0  0  0  0  0  0  0  0  0  0
    2.4770   -1.5807    0.5195 N   0  0  0  0  0  0  0  0  0  0  0  0
    3.3601   -1.1244   -0.3705 N   0  0  0  0  0  0  0  0  0  0  0  0
    4.8798   -1.0921   -2.7989 H   0  0  0  0  0  0  0  0  0  0  0  0
    5.9402   -0.5011   -1.4469 H   0  0  0  0  0  0  0  0  0  0  0  0
    5.8779    0.3981   -3.0121 H   0  0  0  0  0  0  0  0  0  0  0  0
    2.1807    1.9911   -0.8073 H   0  0  0  0  0  0  0  0  0  0  0  0
    0.5514    1.1663    0.8380 H   0  0  0  0  0  0  0  0  0  0  0  0
    0.7082   -2.3348    2.2794 H   0  0  0  0  0  0  0  0  0  0  0  0
   -2.5934    1.7340    1.9658 H   0  0  0  0  0  0  0  0  0  0  0  0
   -4.0251    2.3069    0.0474 H   0  0  0  0  0  0  0  0  0  0  0  0
   -4.9405    1.7320   -2.1846 H   0  0  0  0  0  0  0  0  0  0  0  0
   -4.4753    0.1977   -2.9908 H   0  0  0  0  0  0  0  0  0  0  0  0
   -2.9080   -1.3766   -1.8881 H   0  0  0  0  0  0  0  0  0  0  0  0
   -1.4759   -1.9506    0.0312 H   0  0  0  0  0  0  0  0  0  0  0  0
  1  2  1  0
  2  3  1  0
  3  4  2  0
  4  5  1  0
  5  6  2  0
  6  7  1  0
  7  8  1  0
  8  9  2  0
  8 10  2  0
  8 11  1  0
 11 12  2  0
 12 13  1  0
 13 14  2  0
 14 15  1  0
 14 16  1  0
 16 17  2  0
 17 11  1  0
  6 18  1  0
 18 19  2  0
 19  3  1  0
  1 20  1  0
  1 21  1  0
  1 22  1  0
  4 23  1  0
  5 24  1  0
  7 25  1  0
 12 26  1  0
 13 27  1  0
 15 28  1  0
 15 29  1  0
 16 30  1  0
 17 31  1  0
M  END
> <ID>
HT1946

> <Class>
0.0

> <Clusters>
220

> <Fold>
2

$$$$