
     RDKit          3D

 25 27  0  0  0  0  0  0  0  0999 V2000
    0.1908   -2.4931    0.3638 N   0  0  0  0  0  0  0  0  0  0  0  0
    0.0822   -1.0748    0.1568 C   0  0  0  0  0  0  0  0  0  0  0  0
   -1.1913   -0.4559    0.0772 C   0  0  0  0  0  0  0  0  0  0  0  0
   -2.3960   -1.1760    0.2338 C   0  0  0  0  0  0  0  0  0  0  0  0
   -3.6292   -0.5230    0.1484 C   0  0  0  0  0  0  0  0  0  0  0  0
   -3.6836    0.8517   -0.0822 C   0  0  0  0  0  0  0  0  0  0  0  0
   -2.5041    1.5841   -0.2190 C   0  0  0  0  0  0  0  0  0  0  0  0
   -1.2627    0.9429   -0.1346 C   0  0  0  0  0  0  0  0  0  0  0  0
   -0.1283    1.6771   -0.2446 N   0  0  0  0  0  0  0  0  0  0  0  0
    1.1049    1.1195   -0.1663 C   0  0  0  0  0  0  0  0  0  0  0  0
    2.2348    1.9358   -0.2945 C   0  0  0  0  0  0  0  0  0  0  0  0
    3.5129    1.3789   -0.2433 C   0  0  0  0  0  0  0  0  0  0  0  0
    3.6690    0.0033   -0.0727 C   0  0  0  0  0  0  0  0  0  0  0  0
    2.5490   -0.8233    0.0578 C   0  0  0  0  0  0  0  0  0  0  0  0
    1.2474   -0.2762    0.0296 C   0  0  0  0  0  0  0  0  0  0  0  0
    0.9506   -2.9012    0.9503 H   0  0  0  0  0  0  0  0  0  0  0  0
   -0.4868   -3.1595   -0.0659 H   0  0  0  0  0  0  0  0  0  0  0  0
   -2.4054   -2.2366    0.4377 H   0  0  0  0  0  0  0  0  0  0  0  0
   -4.5467   -1.0851    0.2674 H   0  0  0  0  0  0  0  0  0  0  0  0
   -4.6413    1.3519   -0.1459 H   0  0  0  0  0  0  0  0  0  0  0  0
   -2.5561    2.6532   -0.3854 H   0  0  0  0  0  0  0  0  0  0  0  0
    2.1233    3.0033   -0.4398 H   0  0  0  0  0  0  0  0  0  0  0  0
    4.3838    2.0135   -0.3452 H   0  0  0  0  0  0  0  0  0  0  0  0
    4.6623   -0.4262   -0.0471 H   0  0  0  0  0  0  0  0  0  0  0  0
    2.7207   -1.8843    0.1634 H   0  0  0  0  0  0  0  0  0  0  0  0
  1  2  1  0
  2  3  2  0
  3  4  1  0
  4  5  2  0
  5  6  1  0
  6  7  2  0
  7  8  1  0
  8  3  1  0
  8  9  2  0
  9 10  1  0
 10 11  2  0
 11 12  1  0
 12 13  2  0
 13 14  1  0
 14 15  2  0
 15  2  1  0
 15 10  1  0
  1 16  1  0
  1 17  1  0
  4 18  1  0
  5 19  1  0
  6 20  1  0
  7 21  1  0
 11 22  1  0
 12 23  1  0
 13 24  1  0
 14 25  1  0
M  END
> <ID>
HT2829

> <Class>
0.0

> <Clusters>
72

> <Fold>
2

$$$$