
     RDKit          3D

 30 31  0  0  0  0  0  0  0  0999 V2000
    4.2417    2.5956    0.7025 C   0  0  0  0  0  0  0  0  0  0  0  0
    3.2732    1.4828    0.4583 C   0  0  0  0  0  0  0  0  0  0  0  0
    3.1822    0.4137    1.3548 C   0  0  0  0  0  0  0  0  0  0  0  0
    2.2656   -0.6020    1.0879 C   0  0  0  0  0  0  0  0  0  0  0  0
    1.4869   -0.5373   -0.0224 N   0  0  0  0  0  0  0  0  0  0  0  0
    1.5834    0.5088   -0.8876 C   0  0  0  0  0  0  0  0  0  0  0  0
    0.7528    0.5703   -2.0506 N   0  0  0  0  0  0  0  0  0  0  0  0
   -0.4318   -0.6459   -2.3982 S   0  0  0  0  0  0  0  0  0  0  0  0
   -1.1850   -0.2680   -3.6421 O   0  0  0  0  0  0  0  0  0  0  0  0
    0.2685   -1.9564   -2.6262 O   0  0  0  0  0  0  0  0  0  0  0  0
   -1.5660   -0.7760   -1.0580 C   0  0  0  0  0  0  0  0  0  0  0  0
   -1.9914    0.3790   -0.3884 C   0  0  0  0  0  0  0  0  0  0  0  0
   -2.8855    0.2827    0.6821 C   0  0  0  0  0  0  0  0  0  0  0  0
   -3.3655   -0.9699    1.0901 C   0  0  0  0  0  0  0  0  0  0  0  0
   -4.2796   -1.0687    2.1853 N   0  0  0  0  0  0  0  0  0  0  0  0
   -2.9438   -2.1248    0.4160 C   0  0  0  0  0  0  0  0  0  0  0  0
   -2.0490   -2.0283   -0.6542 C   0  0  0  0  0  0  0  0  0  0  0  0
    2.4731    1.5073   -0.6413 N   0  0  0  0  0  0  0  0  0  0  0  0
    4.1773    3.3539   -0.1066 H   0  0  0  0  0  0  0  0  0  0  0  0
    5.2760    2.1929    0.7324 H   0  0  0  0  0  0  0  0  0  0  0  0
    4.0118    3.0871    1.6712 H   0  0  0  0  0  0  0  0  0  0  0  0
    3.8067    0.3691    2.2385 H   0  0  0  0  0  0  0  0  0  0  0  0
    2.1723   -1.4420    1.7631 H   0  0  0  0  0  0  0  0  0  0  0  0
    0.8446    1.3794   -2.7044 H   0  0  0  0  0  0  0  0  0  0  0  0
   -1.6293    1.3527   -0.6932 H   0  0  0  0  0  0  0  0  0  0  0  0
   -3.2040    1.1828    1.1927 H   0  0  0  0  0  0  0  0  0  0  0  0
   -4.5996   -0.2141    2.6933 H   0  0  0  0  0  0  0  0  0  0  0  0
   -4.6428   -1.9972    2.4963 H   0  0  0  0  0  0  0  0  0  0  0  0
   -3.3082   -3.0982    0.7196 H   0  0  0  0  0  0  0  0  0  0  0  0
   -1.7346   -2.9293   -1.1649 H   0  0  0  0  0  0  0  0  0  0  0  0
  1  2  1  0
  2  3  2  0
  3  4  1  0
  4  5  2  0
  5  6  1  0
  6  7  1  0
  7  8  1  0
  8  9  2  0
  8 10  2  0
  8 11  1  0
 11 12  2  0
 12 13  1  0
 13 14  2  0
 14 15  1  0
 14 16  1  0
 16 17  2  0
 17 11  1  0
  6 18  2  0
 18  2  1  0
  1 19  1  0
  1 20  1  0
  1 21  1  0
  3 22  1  0
  4 23  1  0
  7 24  1  0
 12 25  1  0
 13 26  1  0
 15 27  1  0
 15 28  1  0
 16 29  1  0
 17 30  1  0
M  END
> <ID>
HT1941

> <Class>
0.0

> <Clusters>
220

> <Fold>
2

$$$$