
     RDKit          3D

 50 53  0  0  0  0  0  0  0  0999 V2000
    3.1490    1.3708    2.1241 C   0  0  0  0  0  0  0  0  0  0  0  0
    3.6662   -0.0495    1.8754 C   0  0  0  0  0  0  0  0  0  0  0  0
    4.3661   -0.1496    0.5850 N   0  0  0  0  0  0  0  0  0  0  0  0
    3.9889   -1.0634   -0.4653 C   0  0  0  0  0  0  0  0  0  0  0  0
    2.7373   -1.2828   -0.9013 C   0  0  0  0  0  0  0  0  0  0  0  0
    1.5395   -0.5557   -0.4454 C   0  0  0  0  0  0  0  0  0  0  0  0
    0.3168   -0.9838   -0.7667 C   0  0  0  0  0  0  0  0  0  0  0  0
   -0.8824   -0.2466   -0.3329 C   0  0  0  0  0  0  0  0  0  0  0  0
   -2.1072   -0.6767   -0.6532 C   0  0  0  0  0  0  0  0  0  0  0  0
   -3.3379    0.0312   -0.2240 C   0  0  0  0  0  0  0  0  0  0  0  0
   -3.3645    1.2743    0.9307 S   0  0  0  0  0  0  0  0  0  0  0  0
   -5.0299    1.4186    0.8822 C   0  0  0  0  0  0  0  0  0  0  0  0
   -5.8380    2.2793    1.6199 C   0  0  0  0  0  0  0  0  0  0  0  0
   -7.2253    2.2057    1.4358 C   0  0  0  0  0  0  0  0  0  0  0  0
   -7.7723    1.2767    0.5323 C   0  0  0  0  0  0  0  0  0  0  0  0
   -6.9375    0.4165   -0.2009 C   0  0  0  0  0  0  0  0  0  0  0  0
   -5.5446    0.5008   -0.0240 C   0  0  0  0  0  0  0  0  0  0  0  0
   -4.6011   -0.2648   -0.6612 N   0  0  0  0  0  0  0  0  0  0  0  0
   -4.9114   -1.2944   -1.6664 C   0  0  0  0  0  0  0  0  0  0  0  0
   -5.1622   -2.6387   -0.9932 C   0  0  0  0  0  0  0  0  0  0  0  0
    5.3691   -1.7912   -1.3647 S   0  0  0  0  0  0  0  0  0  0  0  0
    6.4039   -0.6000   -0.5342 C   0  0  0  0  0  0  0  0  0  0  0  0
    7.7629   -0.4189   -0.7973 C   0  0  0  0  0  0  0  0  0  0  0  0
    8.4857    0.5109   -0.0390 C   0  0  0  0  0  0  0  0  0  0  0  0
    7.8469    1.2422    0.9739 C   0  0  0  0  0  0  0  0  0  0  0  0
    6.4813    1.0521    1.2282 C   0  0  0  0  0  0  0  0  0  0  0  0
    5.7635    0.1250    0.4573 C   0  0  0  0  0  0  0  0  0  0  0  0
    3.8817    1.9577    2.7134 H   0  0  0  0  0  0  0  0  0  0  0  0
    2.9570    1.9062    1.1707 H   0  0  0  0  0  0  0  0  0  0  0  0
    2.2049    1.3285    2.7072 H   0  0  0  0  0  0  0  0  0  0  0  0
    4.3521   -0.3412    2.7005 H   0  0  0  0  0  0  0  0  0  0  0  0
    2.8206   -0.7685    1.9131 H   0  0  0  0  0  0  0  0  0  0  0  0
    2.6034   -2.0106   -1.6937 H   0  0  0  0  0  0  0  0  0  0  0  0
    1.6419    0.3561    0.1183 H   0  0  0  0  0  0  0  0  0  0  0  0
    0.1994   -1.8907   -1.3504 H   0  0  0  0  0  0  0  0  0  0  0  0
   -0.7550    0.6584    0.2489 H   0  0  0  0  0  0  0  0  0  0  0  0
   -2.1990   -1.5829   -1.2366 H   0  0  0  0  0  0  0  0  0  0  0  0
   -5.4083    2.9834    2.3207 H   0  0  0  0  0  0  0  0  0  0  0  0
   -7.8785    2.8618    1.9960 H   0  0  0  0  0  0  0  0  0  0  0  0
   -8.8456    1.2213    0.4039 H   0  0  0  0  0  0  0  0  0  0  0  0
   -7.3863   -0.2987   -0.8749 H   0  0  0  0  0  0  0  0  0  0  0  0
   -5.7985   -1.0041   -2.2662 H   0  0  0  0  0  0  0  0  0  0  0  0
   -4.0867   -1.3890   -2.4025 H   0  0  0  0  0  0  0  0  0  0  0  0
   -5.3951   -3.4043   -1.7629 H   0  0  0  0  0  0  0  0  0  0  0  0
   -6.0207   -2.5614   -0.2932 H   0  0  0  0  0  0  0  0  0  0  0  0
   -4.2610   -2.9589   -0.4291 H   0  0  0  0  0  0  0  0  0  0  0  0
    8.2550   -0.9953   -1.5698 H   0  0  0  0  0  0  0  0  0  0  0  0
    9.5402    0.6609   -0.2307 H   0  0  0  0  0  0  0  0  0  0  0  0
    8.4102    1.9571    1.5597 H   0  0  0  0  0  0  0  0  0  0  0  0
    6.0053    1.6261    2.0072 H   0  0  0  0  0  0  0  0  0  0  0  0
  1  2  1  0
  2  3  1  0
  3  4  1  0
  4  5  2  3
  5  6  1  0
  6  7  2  3
  7  8  1  0
  8  9  2  3
  9 10  1  0
 10 11  1  0
 11 12  1  0
 12 13  2  0
 13 14  1  0
 14 15  2  0
 15 16  1  0
 16 17  2  0
 17 12  1  0
 17 18  1  0
 18 10  2  0
 18 19  1  0
 19 20  1  0
  4 21  1  0
 21 22  1  0
 22 23  2  0
 23 24  1  0
 24 25  2  0
 25 26  1  0
 26 27  2  0
 27  3  1  0
 27 22  1  0
  1 28  1  0
  1 29  1  0
  1 30  1  0
  2 31  1  0
  2 32  1  0
  5 33  1  0
  6 34  1  0
  7 35  1  0
  8 36  1  0
  9 37  1  0
 13 38  1  0
 14 39  1  0
 15 40  1  0
 16 41  1  0
 19 42  1  0
 19 43  1  0
 20 44  1  0
 20 45  1  0
 20 46  1  0
 23 47  1  0
 24 48  1  0
 25 49  1  0
 26 50  1  0
M  CHG  1  18   1
M  END
> <ID>
HT3744

> <Class>
0.0

> <Clusters>
206

> <Fold>
2

$$$$