
     RDKit          3D

 43 46  0  0  0  0  0  0  0  0999 V2000
    1.5141    2.3930    0.1219 C   0  0  0  0  0  0  0  0  0  0  0  0
    2.1070    1.0029    0.0038 C   0  0  0  0  0  0  0  0  0  0  0  0
    3.5045    0.8435   -0.1930 C   0  0  0  0  0  0  0  0  0  0  0  0
    4.3685    2.0330   -0.3705 C   0  0  0  0  0  0  0  0  0  0  0  0
    5.0051    2.1937   -1.4463 O   0  0  0  0  0  0  0  0  0  0  0  0
    4.4839    2.9737    0.6481 O   0  0  0  0  0  0  0  0  0  0  0  0
    4.0603   -0.4597   -0.2400 C   0  0  0  0  0  0  0  0  0  0  0  0
    5.4467   -0.6926   -0.3846 C   0  0  0  0  0  0  0  0  0  0  0  0
    5.9481   -1.9976   -0.4156 C   0  0  0  0  0  0  0  0  0  0  0  0
    7.2804   -2.2072   -0.5564 F   0  0  0  0  0  0  0  0  0  0  0  0
    5.0823   -3.0855   -0.2963 C   0  0  0  0  0  0  0  0  0  0  0  0
    3.7120   -2.8740   -0.1401 C   0  0  0  0  0  0  0  0  0  0  0  0
    3.1994   -1.5719   -0.1068 C   0  0  0  0  0  0  0  0  0  0  0  0
    1.8671   -1.3867    0.0495 N   0  0  0  0  0  0  0  0  0  0  0  0
    1.2954   -0.1568    0.0957 C   0  0  0  0  0  0  0  0  0  0  0  0
   -0.1743   -0.1003    0.2176 C   0  0  0  0  0  0  0  0  0  0  0  0
   -0.8049   -0.6581    1.3380 C   0  0  0  0  0  0  0  0  0  0  0  0
   -2.1985   -0.6408    1.4441 C   0  0  0  0  0  0  0  0  0  0  0  0
   -2.9844   -0.0830    0.4207 C   0  0  0  0  0  0  0  0  0  0  0  0
   -2.3484    0.4612   -0.7088 C   0  0  0  0  0  0  0  0  0  0  0  0
   -0.9549    0.4439   -0.8136 C   0  0  0  0  0  0  0  0  0  0  0  0
   -4.4626   -0.0596    0.5399 C   0  0  0  0  0  0  0  0  0  0  0  0
   -5.0638    0.3622    1.7403 C   0  0  0  0  0  0  0  0  0  0  0  0
   -6.4559    0.3940    1.8626 C   0  0  0  0  0  0  0  0  0  0  0  0
   -7.2621    0.0025    0.7920 C   0  0  0  0  0  0  0  0  0  0  0  0
   -6.6780   -0.4247   -0.4026 C   0  0  0  0  0  0  0  0  0  0  0  0
   -5.2855   -0.4586   -0.5334 C   0  0  0  0  0  0  0  0  0  0  0  0
   -4.7458   -0.9147   -1.6923 F   0  0  0  0  0  0  0  0  0  0  0  0
    0.4244    2.3962    0.3123 H   0  0  0  0  0  0  0  0  0  0  0  0
    1.7028    2.9619   -0.8127 H   0  0  0  0  0  0  0  0  0  0  0  0
    1.9760    2.9264    0.9773 H   0  0  0  0  0  0  0  0  0  0  0  0
    5.0715    3.7912    0.5363 H   0  0  0  0  0  0  0  0  0  0  0  0
    6.1526    0.1230   -0.4616 H   0  0  0  0  0  0  0  0  0  0  0  0
    5.4733   -4.0945   -0.3200 H   0  0  0  0  0  0  0  0  0  0  0  0
    3.0483   -3.7244   -0.0428 H   0  0  0  0  0  0  0  0  0  0  0  0
   -0.2167   -1.1011    2.1325 H   0  0  0  0  0  0  0  0  0  0  0  0
   -2.6644   -1.0779    2.3187 H   0  0  0  0  0  0  0  0  0  0  0  0
   -2.9286    0.9122   -1.5040 H   0  0  0  0  0  0  0  0  0  0  0  0
   -0.4828    0.8587   -1.6959 H   0  0  0  0  0  0  0  0  0  0  0  0
   -4.4558    0.6815    2.5778 H   0  0  0  0  0  0  0  0  0  0  0  0
   -6.9098    0.7248    2.7878 H   0  0  0  0  0  0  0  0  0  0  0  0
   -8.3398    0.0268    0.8890 H   0  0  0  0  0  0  0  0  0  0  0  0
   -7.3065   -0.7364   -1.2270 H   0  0  0  0  0  0  0  0  0  0  0  0
  1  2  1  0
  2  3  2  0
  3  4  1  0
  4  5  2  0
  4  6  1  0
  3  7  1  0
  7  8  2  0
  8  9  1  0
  9 10  1  0
  9 11  2  0
 11 12  1  0
 12 13  2  0
 13  7  1  0
 13 14  1  0
 14 15  2  0
 15  2  1  0
 15 16  1  0
 16 17  2  0
 17 18  1  0
 18 19  2  0
 19 20  1  0
 20 21  2  0
 21 16  1  0
 19 22  1  0
 22 23  2  0
 23 24  1  0
 24 25  2  0
 25 26  1  0
 26 27  2  0
 27 22  1  0
 27 28  1  0
  1 29  1  0
  1 30  1  0
  1 31  1  0
  6 32  1  0
  8 33  1  0
 11 34  1  0
 12 35  1  0
 17 36  1  0
 18 37  1  0
 20 38  1  0
 21 39  1  0
 23 40  1  0
 24 41  1  0
 25 42  1  0
 26 43  1  0
M  END
> <ID>
HT0302

> <Class>
0.0

> <Clusters>
238

> <Fold>
2

$$$$