
     RDKit          3D

 37 38  0  0  0  0  0  0  0  0999 V2000
   -1.1009   -1.8174   -1.3493 C   0  0  0  0  0  0  0  0  0  0  0  0
   -0.5884   -0.6531   -0.4838 C   0  0  0  0  0  0  0  0  0  0  0  0
   -0.3773    0.6010   -1.3504 C   0  0  0  0  0  0  0  0  0  0  0  0
   -1.5191   -0.3743    0.5743 O   0  0  0  0  0  0  0  0  0  0  0  0
   -2.8444    0.0253    0.3702 C   0  0  0  0  0  0  0  0  0  0  0  0
   -3.8629   -0.9330    0.2842 C   0  0  0  0  0  0  0  0  0  0  0  0
   -5.1890   -0.5329    0.0920 C   0  0  0  0  0  0  0  0  0  0  0  0
   -5.5036    0.8274   -0.0044 C   0  0  0  0  0  0  0  0  0  0  0  0
   -7.1671    1.3291   -0.2450 Cl  0  0  0  0  0  0  0  0  0  0  0  0
   -4.4900    1.7870    0.0969 C   0  0  0  0  0  0  0  0  0  0  0  0
   -3.1639    1.3871    0.2891 C   0  0  0  0  0  0  0  0  0  0  0  0
    0.7337   -1.0453    0.1283 C   0  0  0  0  0  0  0  0  0  0  0  0
    0.8692   -1.0738    1.3831 O   0  0  0  0  0  0  0  0  0  0  0  0
    1.8114   -1.3700   -0.7058 O   0  0  0  0  0  0  0  0  0  0  0  0
    3.1223   -1.6453   -0.2180 C   0  0  0  0  0  0  0  0  0  0  0  0
    3.7608   -0.3876    0.3049 C   0  0  0  0  0  0  0  0  0  0  0  0
    3.9484    0.7141   -0.5416 C   0  0  0  0  0  0  0  0  0  0  0  0
    4.5342    1.8814   -0.0487 C   0  0  0  0  0  0  0  0  0  0  0  0
    4.9295    1.9357    1.2892 C   0  0  0  0  0  0  0  0  0  0  0  0
    4.7430    0.8594    2.0987 N   0  0  0  0  0  0  0  0  0  0  0  0
    4.1743   -0.2888    1.6423 C   0  0  0  0  0  0  0  0  0  0  0  0
   -2.0512   -1.5428   -1.8540 H   0  0  0  0  0  0  0  0  0  0  0  0
   -0.3617   -2.0819   -2.1361 H   0  0  0  0  0  0  0  0  0  0  0  0
   -1.2829   -2.7132   -0.7175 H   0  0  0  0  0  0  0  0  0  0  0  0
    0.3864    0.4158   -2.1367 H   0  0  0  0  0  0  0  0  0  0  0  0
   -0.0368    1.4500   -0.7194 H   0  0  0  0  0  0  0  0  0  0  0  0
   -1.3221    0.8932   -1.8556 H   0  0  0  0  0  0  0  0  0  0  0  0
   -3.6263   -1.9861    0.3651 H   0  0  0  0  0  0  0  0  0  0  0  0
   -5.9699   -1.2792    0.0206 H   0  0  0  0  0  0  0  0  0  0  0  0
   -4.7285    2.8408    0.0294 H   0  0  0  0  0  0  0  0  0  0  0  0
   -2.3849    2.1339    0.3738 H   0  0  0  0  0  0  0  0  0  0  0  0
    3.0741   -2.4366    0.5621 H   0  0  0  0  0  0  0  0  0  0  0  0
    3.7382   -2.0378   -1.0541 H   0  0  0  0  0  0  0  0  0  0  0  0
    3.6382    0.6686   -1.5784 H   0  0  0  0  0  0  0  0  0  0  0  0
    4.6799    2.7358   -0.6969 H   0  0  0  0  0  0  0  0  0  0  0  0
    5.3848    2.8338    1.6846 H   0  0  0  0  0  0  0  0  0  0  0  0
    4.0426   -1.1203    2.3225 H   0  0  0  0  0  0  0  0  0  0  0  0
  1  2  1  0
  2  3  1  0
  2  4  1  0
  4  5  1  0
  5  6  2  0
  6  7  1  0
  7  8  2  0
  8  9  1  0
  8 10  1  0
 10 11  2  0
 11  5  1  0
  2 12  1  0
 12 13  2  0
 12 14  1  0
 14 15  1  0
 15 16  1  0
 16 17  2  0
 17 18  1  0
 18 19  2  0
 19 20  1  0
 20 21  2  0
 21 16  1  0
  1 22  1  0
  1 23  1  0
  1 24  1  0
  3 25  1  0
  3 26  1  0
  3 27  1  0
  6 28  1  0
  7 29  1  0
 10 30  1  0
 11 31  1  0
 15 32  1  0
 15 33  1  0
 17 34  1  0
 18 35  1  0
 19 36  1  0
 21 37  1  0
M  END
> <ID>
HT1487

> <Class>
0.0

> <Clusters>
98

> <Fold>
2

$$$$