
     RDKit          3D

 15 14  0  0  0  0  0  0  0  0999 V2000
    2.5375    0.9112   -0.1430 C   0  0  0  0  0  0  0  0  0  0  0  0
    1.1278    0.7291   -0.1968 O   0  0  0  0  0  0  0  0  0  0  0  0
    0.4908   -0.3966    0.3362 C   0  0  0  0  0  0  0  0  0  0  0  0
    1.1707   -1.3027    0.8940 O   0  0  0  0  0  0  0  0  0  0  0  0
   -0.9818   -0.5140    0.2414 C   0  0  0  0  0  0  0  0  0  0  0  0
   -1.6287   -1.5383    0.8105 C   0  0  0  0  0  0  0  0  0  0  0  0
   -1.7619    0.5750   -0.4420 C   0  0  0  0  0  0  0  0  0  0  0  0
    2.7996    1.8734   -0.6289 H   0  0  0  0  0  0  0  0  0  0  0  0
    2.8775    0.9372    0.9140 H   0  0  0  0  0  0  0  0  0  0  0  0
    3.0484    0.0851   -0.6815 H   0  0  0  0  0  0  0  0  0  0  0  0
   -2.7086   -1.6089    0.7675 H   0  0  0  0  0  0  0  0  0  0  0  0
   -1.0962   -2.3239    1.3316 H   0  0  0  0  0  0  0  0  0  0  0  0
   -2.7825    0.2352   -0.7218 H   0  0  0  0  0  0  0  0  0  0  0  0
   -1.8481    1.4489    0.2371 H   0  0  0  0  0  0  0  0  0  0  0  0
   -1.2446    0.8893   -1.3729 H   0  0  0  0  0  0  0  0  0  0  0  0
  1  2  1  0
  2  3  1  0
  3  4  2  0
  3  5  1  0
  5  6  2  3
  5  7  1  0
  1  8  1  0
  1  9  1  0
  1 10  1  0
  6 11  1  0
  6 12  1  0
  7 13  1  0
  7 14  1  0
  7 15  1  0
M  END
> <ID>
HT2407

> <Class>
0.0

> <Clusters>
245

> <Fold>
2

$$$$