
     RDKit          3D

 13 12  0  0  0  0  0  0  0  0999 V2000
   -1.7773    0.1093   -0.0767 C   0  0  0  0  0  0  0  0  0  0  0  0
   -0.5054   -0.7312   -0.0302 C   0  0  0  0  0  0  0  0  0  0  0  0
    0.6793    0.0574   -0.5233 C   0  0  0  0  0  0  0  0  0  0  0  0
    0.7206    0.4143   -1.6910 O   0  0  0  0  0  0  0  0  0  0  0  0
    1.8187    0.4084    0.3874 C   0  0  0  0  0  0  0  0  0  0  0  0
   -2.6321   -0.4886    0.3040 H   0  0  0  0  0  0  0  0  0  0  0  0
   -1.9995    0.4197   -1.1201 H   0  0  0  0  0  0  0  0  0  0  0  0
   -1.6638    1.0132    0.5593 H   0  0  0  0  0  0  0  0  0  0  0  0
   -0.3428   -1.0749    1.0138 H   0  0  0  0  0  0  0  0  0  0  0  0
   -0.6340   -1.6326   -0.6671 H   0  0  0  0  0  0  0  0  0  0  0  0
    2.7570   -0.0380   -0.0032 H   0  0  0  0  0  0  0  0  0  0  0  0
    1.6472    0.0311    1.4171 H   0  0  0  0  0  0  0  0  0  0  0  0
    1.9322    1.5119    0.4300 H   0  0  0  0  0  0  0  0  0  0  0  0
  1  2  1  0
  2  3  1  0
  3  4  2  0
  3  5  1  0
  1  6  1  0
  1  7  1  0
  1  8  1  0
  2  9  1  0
  2 10  1  0
  5 11  1  0
  5 12  1  0
  5 13  1  0
M  END
> <ID>
HT2325

> <Class>
0.0

> <Clusters>
245

> <Fold>
2

$$$$