
     RDKit          3D

 21 22  0  0  0  0  0  0  0  0999 V2000
    4.0632    0.8988   -0.8835 N   0  0  0  0  0  0  0  0  0  0  0  0
    2.9003    0.2771   -0.3442 C   0  0  0  0  0  0  0  0  0  0  0  0
    1.6773    0.6655   -0.6290 O   0  0  0  0  0  0  0  0  0  0  0  0
    0.8654   -0.1147    0.0414 C   0  0  0  0  0  0  0  0  0  0  0  0
    1.6488   -1.0190    0.7384 C   0  0  0  0  0  0  0  0  0  0  0  0
    1.2100   -2.0806    1.5258 O   0  0  0  0  0  0  0  0  0  0  0  0
    2.9507   -0.7697    0.5065 N   0  0  0  0  0  0  0  0  0  0  0  0
   -0.6048    0.0089    0.0113 C   0  0  0  0  0  0  0  0  0  0  0  0
   -1.3756   -0.1765    1.1723 C   0  0  0  0  0  0  0  0  0  0  0  0
   -2.7658   -0.0307    1.1258 C   0  0  0  0  0  0  0  0  0  0  0  0
   -3.3948    0.3145   -0.0732 C   0  0  0  0  0  0  0  0  0  0  0  0
   -2.6334    0.5246   -1.2257 C   0  0  0  0  0  0  0  0  0  0  0  0
   -1.2430    0.3808   -1.1832 C   0  0  0  0  0  0  0  0  0  0  0  0
    5.0139    0.5521   -0.6269 H   0  0  0  0  0  0  0  0  0  0  0  0
    3.9704    1.7057   -1.5391 H   0  0  0  0  0  0  0  0  0  0  0  0
    0.2336   -2.3381    1.5842 H   0  0  0  0  0  0  0  0  0  0  0  0
   -0.9044   -0.4016    2.1200 H   0  0  0  0  0  0  0  0  0  0  0  0
   -3.3546   -0.1750    2.0225 H   0  0  0  0  0  0  0  0  0  0  0  0
   -4.4705    0.4287   -0.1068 H   0  0  0  0  0  0  0  0  0  0  0  0
   -3.1203    0.8011   -2.1520 H   0  0  0  0  0  0  0  0  0  0  0  0
   -0.6662    0.5483   -2.0847 H   0  0  0  0  0  0  0  0  0  0  0  0
  1  2  1  0
  2  3  1  0
  3  4  1  0
  4  5  2  0
  5  6  1  0
  5  7  1  0
  7  2  2  0
  4  8  1  0
  8  9  2  0
  9 10  1  0
 10 11  2  0
 11 12  1  0
 12 13  2  0
 13  8  1  0
  1 14  1  0
  1 15  1  0
  6 16  1  0
  9 17  1  0
 10 18  1  0
 11 19  1  0
 12 20  1  0
 13 21  1  0
M  END
> <ID>
HT1609

> <Class>
0.0

> <Clusters>
253

> <Fold>
2

$$$$