
     RDKit          3D

 48 50  0  0  0  0  0  0  0  0999 V2000
   -8.7916   -0.5180   -2.5296 C   0  0  0  0  0  0  0  0  0  0  0  0
   -7.5113   -0.3235   -1.8600 N   0  0  0  0  0  0  0  0  0  0  0  0
   -7.2816    0.7976   -0.9919 C   0  0  0  0  0  0  0  0  0  0  0  0
   -8.1440    1.7155   -0.9209 O   0  0  0  0  0  0  0  0  0  0  0  0
   -6.0427    0.9212   -0.1938 C   0  0  0  0  0  0  0  0  0  0  0  0
   -5.2308   -0.1889    0.0994 C   0  0  0  0  0  0  0  0  0  0  0  0
   -4.0666   -0.0194    0.8555 C   0  0  0  0  0  0  0  0  0  0  0  0
   -3.2813   -1.1447    1.1468 O   0  0  0  0  0  0  0  0  0  0  0  0
   -1.8926   -1.1385    1.3453 C   0  0  0  0  0  0  0  0  0  0  0  0
   -1.0496   -0.2330    0.6785 C   0  0  0  0  0  0  0  0  0  0  0  0
    0.3316   -0.2696    0.8884 C   0  0  0  0  0  0  0  0  0  0  0  0
    0.8959   -1.2285    1.7486 C   0  0  0  0  0  0  0  0  0  0  0  0
    2.3124   -1.2653    1.9969 N   0  0  0  0  0  0  0  0  0  0  0  0
    3.3088   -0.9701    1.0063 C   0  0  0  0  0  0  0  0  0  0  0  0
    2.9920   -0.9071   -0.2130 O   0  0  0  0  0  0  0  0  0  0  0  0
    4.6810   -0.8277    1.4042 N   0  0  0  0  0  0  0  0  0  0  0  0
    5.7225   -0.3356    0.5432 C   0  0  0  0  0  0  0  0  0  0  0  0
    7.0222   -0.8342    0.6873 C   0  0  0  0  0  0  0  0  0  0  0  0
    8.0549   -0.3596   -0.1209 C   0  0  0  0  0  0  0  0  0  0  0  0
    7.8097    0.6311   -1.0768 C   0  0  0  0  0  0  0  0  0  0  0  0
    9.1629    1.1841   -2.0600 Cl  0  0  0  0  0  0  0  0  0  0  0  0
    6.5098    1.1663   -1.2245 C   0  0  0  0  0  0  0  0  0  0  0  0
    5.4762    0.6788   -0.3990 C   0  0  0  0  0  0  0  0  0  0  0  0
    6.2339    2.2540   -2.2411 C   0  0  0  0  0  0  0  0  0  0  0  0
    4.9026    2.6340   -2.2423 F   0  0  0  0  0  0  0  0  0  0  0  0
    7.0024    3.3665   -1.9499 F   0  0  0  0  0  0  0  0  0  0  0  0
    6.5540    1.7986   -3.5073 F   0  0  0  0  0  0  0  0  0  0  0  0
    0.0497   -2.1310    2.4137 C   0  0  0  0  0  0  0  0  0  0  0  0
    0.5657   -3.0617    3.2556 F   0  0  0  0  0  0  0  0  0  0  0  0
   -1.3318   -2.0927    2.2002 C   0  0  0  0  0  0  0  0  0  0  0  0
   -3.7459    1.2568    1.3440 C   0  0  0  0  0  0  0  0  0  0  0  0
   -4.5809    2.3338    1.0476 C   0  0  0  0  0  0  0  0  0  0  0  0
   -5.6967    2.1443    0.2959 N   0  0  0  0  0  0  0  0  0  0  0  0
   -9.0145    0.3544   -3.1793 H   0  0  0  0  0  0  0  0  0  0  0  0
   -8.7543   -1.4325   -3.1585 H   0  0  0  0  0  0  0  0  0  0  0  0
   -9.5969   -0.6346   -1.7741 H   0  0  0  0  0  0  0  0  0  0  0  0
   -6.7433   -0.9989   -2.0677 H   0  0  0  0  0  0  0  0  0  0  0  0
   -5.4950   -1.1833   -0.2330 H   0  0  0  0  0  0  0  0  0  0  0  0
   -1.4570    0.4938   -0.0119 H   0  0  0  0  0  0  0  0  0  0  0  0
    0.9535    0.4635    0.3921 H   0  0  0  0  0  0  0  0  0  0  0  0
    2.6414   -1.5896    2.9342 H   0  0  0  0  0  0  0  0  0  0  0  0
    4.9506   -1.1773    2.3515 H   0  0  0  0  0  0  0  0  0  0  0  0
    7.2327   -1.6012    1.4221 H   0  0  0  0  0  0  0  0  0  0  0  0
    9.0521   -0.7642   -0.0015 H   0  0  0  0  0  0  0  0  0  0  0  0
    4.4844    1.1041   -0.4671 H   0  0  0  0  0  0  0  0  0  0  0  0
   -1.9723   -2.8022    2.7088 H   0  0  0  0  0  0  0  0  0  0  0  0
   -2.8759    1.4133    1.9680 H   0  0  0  0  0  0  0  0  0  0  0  0
   -4.3465    3.3212    1.4223 H   0  0  0  0  0  0  0  0  0  0  0  0
  1  2  1  0
  2  3  1  0
  3  4  2  0
  3  5  1  0
  5  6  2  0
  6  7  1  0
  7  8  1  0
  8  9  1  0
  9 10  2  0
 10 11  1  0
 11 12  2  0
 12 13  1  0
 13 14  1  0
 14 15  2  0
 14 16  1  0
 16 17  1  0
 17 18  2  0
 18 19  1  0
 19 20  2  0
 20 21  1  0
 20 22  1  0
 22 23  2  0
 23 17  1  0
 22 24  1  0
 24 25  1  0
 24 26  1  0
 24 27  1  0
 12 28  1  0
 28 29  1  0
 28 30  2  0
 30  9  1  0
  7 31  2  0
 31 32  1  0
 32 33  2  0
 33  5  1  0
  1 34  1  0
  1 35  1  0
  1 36  1  0
  2 37  1  0
  6 38  1  0
 10 39  1  0
 11 40  1  0
 13 41  1  0
 16 42  1  0
 18 43  1  0
 19 44  1  0
 23 45  1  0
 30 46  1  0
 31 47  1  0
 32 48  1  0
M  END
> <ID>
HT1806

> <Class>
0.0

> <Clusters>
211

> <Fold>
2

$$$$