
     RDKit          3D

 35 36  0  0  0  0  0  0  0  0999 V2000
   -5.1539    0.7834    0.2072 C   0  0  0  0  0  0  0  0  0  0  0  0
   -3.7260    0.6083    0.6572 C   0  0  0  0  0  0  0  0  0  0  0  0
   -3.4358    0.6876    2.0291 C   0  0  0  0  0  0  0  0  0  0  0  0
   -2.1268    0.5597    2.4865 C   0  0  0  0  0  0  0  0  0  0  0  0
   -1.0865    0.3620    1.5833 C   0  0  0  0  0  0  0  0  0  0  0  0
   -1.3434    0.2669    0.2066 C   0  0  0  0  0  0  0  0  0  0  0  0
   -0.2433    0.1360   -0.7117 N   0  0  0  0  0  0  0  0  0  0  0  0
    0.8667   -0.7548   -0.5174 C   0  0  0  0  0  0  0  0  0  0  0  0
    0.7579   -1.9033    0.2814 C   0  0  0  0  0  0  0  0  0  0  0  0
    1.8694   -2.7372    0.4072 C   0  0  0  0  0  0  0  0  0  0  0  0
    1.7845   -4.1798    1.3974 Cl  0  0  0  0  0  0  0  0  0  0  0  0
    3.0209   -2.4352   -0.2454 N   0  0  0  0  0  0  0  0  0  0  0  0
    3.1093   -1.3272   -1.0257 C   0  0  0  0  0  0  0  0  0  0  0  0
    4.6387   -0.9561   -1.8804 S   0  0  0  0  0  0  0  0  0  0  0  0
    5.3492    0.0108   -0.4974 C   0  0  0  0  0  0  0  0  0  0  0  0
    4.8176    1.4150   -0.4324 C   0  0  0  0  0  0  0  0  0  0  0  0
    4.0148    1.8477   -1.3014 O   0  0  0  0  0  0  0  0  0  0  0  0
    5.2238    2.2605    0.5950 O   0  0  0  0  0  0  0  0  0  0  0  0
    2.0368   -0.5048   -1.1632 N   0  0  0  0  0  0  0  0  0  0  0  0
   -2.6743    0.3744   -0.2690 C   0  0  0  0  0  0  0  0  0  0  0  0
   -2.9489    0.2960   -1.7541 C   0  0  0  0  0  0  0  0  0  0  0  0
   -5.5255   -0.1592   -0.2460 H   0  0  0  0  0  0  0  0  0  0  0  0
   -5.2173    1.6058   -0.5361 H   0  0  0  0  0  0  0  0  0  0  0  0
   -5.8247    1.0386    1.0551 H   0  0  0  0  0  0  0  0  0  0  0  0
   -4.2253    0.8563    2.7512 H   0  0  0  0  0  0  0  0  0  0  0  0
   -1.9154    0.6320    3.5456 H   0  0  0  0  0  0  0  0  0  0  0  0
   -0.0714    0.3041    1.9556 H   0  0  0  0  0  0  0  0  0  0  0  0
   -0.2250    0.7577   -1.5515 H   0  0  0  0  0  0  0  0  0  0  0  0
   -0.1682   -2.1565    0.7809 H   0  0  0  0  0  0  0  0  0  0  0  0
    6.4487    0.0592   -0.6392 H   0  0  0  0  0  0  0  0  0  0  0  0
    5.1550   -0.5047    0.4673 H   0  0  0  0  0  0  0  0  0  0  0  0
    5.8716    1.9442    1.3068 H   0  0  0  0  0  0  0  0  0  0  0  0
   -2.2312   -0.3842   -2.2584 H   0  0  0  0  0  0  0  0  0  0  0  0
   -3.9564   -0.1123   -1.9688 H   0  0  0  0  0  0  0  0  0  0  0  0
   -2.8655    1.3093   -2.1993 H   0  0  0  0  0  0  0  0  0  0  0  0
  1  2  1  0
  2  3  2  0
  3  4  1  0
  4  5  2  0
  5  6  1  0
  6  7  1  0
  7  8  1  0
  8  9  2  0
  9 10  1  0
 10 11  1  0
 10 12  2  0
 12 13  1  0
 13 14  1  0
 14 15  1  0
 15 16  1  0
 16 17  2  0
 16 18  1  0
 13 19  2  0
 19  8  1  0
  6 20  2  0
 20  2  1  0
 20 21  1  0
  1 22  1  0
  1 23  1  0
  1 24  1  0
  3 25  1  0
  4 26  1  0
  5 27  1  0
  7 28  1  0
  9 29  1  0
 15 30  1  0
 15 31  1  0
 18 32  1  0
 21 33  1  0
 21 34  1  0
 21 35  1  0
M  END
> <ID>
HT2197

> <Class>
0.0

> <Clusters>
153

> <Fold>
2

$$$$