
     RDKit          3D

 30 32  0  0  0  0  0  0  0  0999 V2000
    1.5987    1.4401   -0.8178 C   0  0  0  0  0  0  0  0  0  0  0  0
    2.3399    0.1537   -1.0098 C   0  0  0  0  0  0  0  0  0  0  0  0
    2.5579   -0.3601   -2.1698 N   0  0  0  0  0  0  0  0  0  0  0  0
    3.2920   -1.6114   -2.0200 C   0  0  0  0  0  0  0  0  0  0  0  0
    3.4911   -1.7820   -0.5051 C   0  0  0  0  0  0  0  0  0  0  0  0
    2.8554   -0.6101    0.0615 N   0  0  0  0  0  0  0  0  0  0  0  0
    0.3230    1.2004   -0.0557 C   0  0  0  0  0  0  0  0  0  0  0  0
    0.1799    1.6713    1.2593 C   0  0  0  0  0  0  0  0  0  0  0  0
   -1.0013    1.4422    1.9698 C   0  0  0  0  0  0  0  0  0  0  0  0
   -2.0577    0.7381    1.3747 C   0  0  0  0  0  0  0  0  0  0  0  0
   -3.2479    0.5016    2.0802 C   0  0  0  0  0  0  0  0  0  0  0  0
   -4.2935   -0.2024    1.4758 C   0  0  0  0  0  0  0  0  0  0  0  0
   -4.1599   -0.6742    0.1672 C   0  0  0  0  0  0  0  0  0  0  0  0
   -2.9798   -0.4454   -0.5463 C   0  0  0  0  0  0  0  0  0  0  0  0
   -1.9222    0.2603    0.0487 C   0  0  0  0  0  0  0  0  0  0  0  0
   -0.7328    0.4957   -0.6570 C   0  0  0  0  0  0  0  0  0  0  0  0
    1.3574    1.8985   -1.8016 H   0  0  0  0  0  0  0  0  0  0  0  0
    2.2611    2.1480   -0.2747 H   0  0  0  0  0  0  0  0  0  0  0  0
    2.6958   -2.4499   -2.4394 H   0  0  0  0  0  0  0  0  0  0  0  0
    4.2692   -1.5394   -2.5437 H   0  0  0  0  0  0  0  0  0  0  0  0
    4.5701   -1.7942   -0.2405 H   0  0  0  0  0  0  0  0  0  0  0  0
    2.9897   -2.7019   -0.1353 H   0  0  0  0  0  0  0  0  0  0  0  0
    2.7848   -0.3766    1.0768 H   0  0  0  0  0  0  0  0  0  0  0  0
    0.9857    2.2132    1.7388 H   0  0  0  0  0  0  0  0  0  0  0  0
   -1.0881    1.8138    2.9839 H   0  0  0  0  0  0  0  0  0  0  0  0
   -3.3690    0.8598    3.0956 H   0  0  0  0  0  0  0  0  0  0  0  0
   -5.2097   -0.3828    2.0232 H   0  0  0  0  0  0  0  0  0  0  0  0
   -4.9730   -1.2188   -0.2952 H   0  0  0  0  0  0  0  0  0  0  0  0
   -2.8940   -0.8188   -1.5598 H   0  0  0  0  0  0  0  0  0  0  0  0
   -0.6226    0.1313   -1.6723 H   0  0  0  0  0  0  0  0  0  0  0  0
  1  2  1  0
  2  3  2  0
  3  4  1  0
  4  5  1  0
  5  6  1  0
  6  2  1  0
  1  7  1  0
  7  8  2  0
  8  9  1  0
  9 10  2  0
 10 11  1  0
 11 12  2  0
 12 13  1  0
 13 14  2  0
 14 15  1  0
 15 10  1  0
 15 16  2  0
 16  7  1  0
  1 17  1  0
  1 18  1  0
  4 19  1  0
  4 20  1  0
  5 21  1  0
  5 22  1  0
  6 23  1  0
  8 24  1  0
  9 25  1  0
 11 26  1  0
 12 27  1  0
 13 28  1  0
 14 29  1  0
 16 30  1  0
M  END
> <ID>
HT2903

> <Class>
0.0

> <Clusters>
257

> <Fold>
2

$$$$