
     RDKit          3D

 32 32  0  0  0  0  0  0  0  0999 V2000
    3.5329   -0.8414   -1.2271 C   0  0  0  0  0  0  0  0  0  0  0  0
    3.2744   -0.0183   -0.0421 N   0  0  0  0  0  0  0  0  0  0  0  0
    1.9387    0.6066   -0.0865 C   0  0  0  0  0  0  0  0  0  0  0  0
    1.9665    1.8573    0.7985 C   0  0  0  0  0  0  0  0  0  0  0  0
    0.8198   -0.3820    0.3703 C   0  0  0  0  0  0  0  0  0  0  0  0
   -0.4237   -0.3705   -0.5537 C   0  0  0  0  0  0  0  0  0  0  0  0
   -1.1524    0.9997   -0.5077 C   0  0  0  0  0  0  0  0  0  0  0  0
   -2.6150    0.8738   -0.9445 C   0  0  0  0  0  0  0  0  0  0  0  0
   -3.4107   -0.0450    0.0045 C   0  0  0  0  0  0  0  0  0  0  0  0
   -2.5427   -1.1276    0.6764 C   0  0  0  0  0  0  0  0  0  0  0  0
   -1.3788   -1.5549   -0.2247 C   0  0  0  0  0  0  0  0  0  0  0  0
    4.5320   -1.3168   -1.1333 H   0  0  0  0  0  0  0  0  0  0  0  0
    3.5408   -0.2081   -2.1398 H   0  0  0  0  0  0  0  0  0  0  0  0
    2.7718   -1.6429   -1.3377 H   0  0  0  0  0  0  0  0  0  0  0  0
    3.3677   -0.6139    0.8145 H   0  0  0  0  0  0  0  0  0  0  0  0
    1.7359    0.9624   -1.1228 H   0  0  0  0  0  0  0  0  0  0  0  0
    1.0039    2.4042    0.7430 H   0  0  0  0  0  0  0  0  0  0  0  0
    2.7699    2.5432    0.4546 H   0  0  0  0  0  0  0  0  0  0  0  0
    2.1666    1.5821    1.8563 H   0  0  0  0  0  0  0  0  0  0  0  0
    1.2275   -1.4153    0.3805 H   0  0  0  0  0  0  0  0  0  0  0  0
    0.5078   -0.1769    1.4185 H   0  0  0  0  0  0  0  0  0  0  0  0
   -0.0664   -0.5327   -1.5959 H   0  0  0  0  0  0  0  0  0  0  0  0
   -0.6344    1.7230   -1.1738 H   0  0  0  0  0  0  0  0  0  0  0  0
   -1.1373    1.4142    0.5242 H   0  0  0  0  0  0  0  0  0  0  0  0
   -3.0856    1.8805   -0.9672 H   0  0  0  0  0  0  0  0  0  0  0  0
   -2.6497    0.4631   -1.9778 H   0  0  0  0  0  0  0  0  0  0  0  0
   -3.8887    0.5692    0.7985 H   0  0  0  0  0  0  0  0  0  0  0  0
   -4.2265   -0.5318   -0.5731 H   0  0  0  0  0  0  0  0  0  0  0  0
   -2.1336   -0.7372    1.6341 H   0  0  0  0  0  0  0  0  0  0  0  0
   -3.1730   -2.0112    0.9162 H   0  0  0  0  0  0  0  0  0  0  0  0
   -1.8020   -1.9553   -1.1728 H   0  0  0  0  0  0  0  0  0  0  0  0
   -0.8355   -2.3975    0.2552 H   0  0  0  0  0  0  0  0  0  0  0  0
  1  2  1  0
  2  3  1  0
  3  4  1  0
  3  5  1  0
  5  6  1  0
  6  7  1  0
  7  8  1  0
  8  9  1  0
  9 10  1  0
 10 11  1  0
 11  6  1  0
  1 12  1  0
  1 13  1  0
  1 14  1  0
  2 15  1  0
  3 16  1  0
  4 17  1  0
  4 18  1  0
  4 19  1  0
  5 20  1  0
  5 21  1  0
  6 22  1  0
  7 23  1  0
  7 24  1  0
  8 25  1  0
  8 26  1  0
  9 27  1  0
  9 28  1  0
 10 29  1  0
 10 30  1  0
 11 31  1  0
 11 32  1  0
M  END
> <ID>
HT1766

> <Class>
0.0

> <Clusters>
66

> <Fold>
2

$$$$