
     RDKit          3D

 65 68  0  0  0  0  0  0  0  0999 V2000
    6.8408   -3.3466    0.9010 C   0  0  0  0  0  0  0  0  0  0  0  0
    5.6671   -2.5918    1.4277 C   0  0  0  0  0  0  0  0  0  0  0  0
    5.3051   -2.7467    2.6259 O   0  0  0  0  0  0  0  0  0  0  0  0
    4.9753   -1.7238    0.5788 O   0  0  0  0  0  0  0  0  0  0  0  0
    3.8683   -0.9395    1.0171 C   0  0  0  0  0  0  0  0  0  0  0  0
    3.2520   -0.1954   -0.1414 C   0  0  0  0  0  0  0  0  0  0  0  0
    3.7780   -0.2733   -1.2426 O   0  0  0  0  0  0  0  0  0  0  0  0
    1.9641    0.6193    0.0442 C   0  0  1  0  0  0  0  0  0  0  0  0
    1.9124    1.1180    1.3671 O   0  0  0  0  0  0  0  0  0  0  0  0
    1.8388    1.8123   -0.9700 C   0  0  1  0  0  0  0  0  0  0  0  0
    0.3395    1.9414   -1.3167 C   0  0  0  0  0  0  0  0  0  0  0  0
   -0.3533    0.9354   -0.4055 C   0  0  1  0  0  0  0  0  0  0  0  0
   -1.7772    0.4490   -0.7663 C   0  0  2  0  0  0  0  0  0  0  0  0
   -2.7199    1.6566   -0.9755 C   0  0  0  0  0  0  0  0  0  0  0  0
   -4.1509    1.2081   -1.2666 C   0  0  0  0  0  0  0  0  0  0  0  0
   -4.6271    0.2902   -0.1698 C   0  0  0  0  0  0  0  0  0  0  0  0
   -5.7338    0.6062    0.5222 C   0  0  0  0  0  0  0  0  0  0  0  0
   -6.1807   -0.2204    1.6425 C   0  0  0  0  0  0  0  0  0  0  0  0
   -7.2240    0.0836    2.2781 O   0  0  0  0  0  0  0  0  0  0  0  0
   -5.4012   -1.3928    2.0293 C   0  0  0  0  0  0  0  0  0  0  0  0
   -4.3000   -1.7276    1.3561 C   0  0  0  0  0  0  0  0  0  0  0  0
   -3.7887   -0.9639    0.1321 C   0  0  1  0  0  0  0  0  0  0  0  0
   -3.9399   -1.9222   -1.0761 C   0  0  0  0  0  0  0  0  0  0  0  0
   -2.3029   -0.4780    0.3949 C   0  0  2  0  0  0  0  0  0  0  0  0
   -2.3610    0.3052    1.5446 F   0  0  0  0  0  0  0  0  0  0  0  0
   -1.2810   -1.6266    0.7270 C   0  0  1  0  0  0  0  0  0  0  0  0
   -1.3009   -2.6344   -0.2484 O   0  0  0  0  0  0  0  0  0  0  0  0
    0.1734   -1.1092    0.9281 C   0  0  0  0  0  0  0  0  0  0  0  0
    0.6626   -0.2046   -0.2379 C   0  0  2  0  0  0  0  0  0  0  0  0
    0.8434   -1.0617   -1.5382 C   0  0  0  0  0  0  0  0  0  0  0  0
    2.3163    3.0368   -0.4029 O   0  0  0  0  0  0  0  0  0  0  0  0
    3.3619    3.7958   -0.9388 C   0  0  0  0  0  0  0  0  0  0  0  0
    3.9605    3.4316   -1.9871 O   0  0  0  0  0  0  0  0  0  0  0  0
    3.7407    5.0798   -0.2852 C   0  0  0  0  0  0  0  0  0  0  0  0
    7.6271   -2.6314    0.5833 H   0  0  0  0  0  0  0  0  0  0  0  0
    6.5270   -3.9555    0.0278 H   0  0  0  0  0  0  0  0  0  0  0  0
    7.2567   -4.0193    1.6808 H   0  0  0  0  0  0  0  0  0  0  0  0
    4.2173   -0.2162    1.7831 H   0  0  0  0  0  0  0  0  0  0  0  0
    3.1058   -1.6036    1.4717 H   0  0  0  0  0  0  0  0  0  0  0  0
    2.7418    1.6368    1.5394 H   0  0  0  0  0  0  0  0  0  0  0  0
    2.3750    1.5863   -1.9168 H   0  0  0  0  0  0  0  0  0  0  0  0
   -0.0387    2.9707   -1.1290 H   0  0  0  0  0  0  0  0  0  0  0  0
    0.1600    1.6836   -2.3845 H   0  0  0  0  0  0  0  0  0  0  0  0
   -0.4529    1.4631    0.5746 H   0  0  0  0  0  0  0  0  0  0  0  0
   -1.7455   -0.1015   -1.7247 H   0  0  0  0  0  0  0  0  0  0  0  0
   -2.7162    2.3103   -0.0740 H   0  0  0  0  0  0  0  0  0  0  0  0
   -2.3674    2.2643   -1.8375 H   0  0  0  0  0  0  0  0  0  0  0  0
   -4.1859    0.6753   -2.2403 H   0  0  0  0  0  0  0  0  0  0  0  0
   -4.7954    2.1096   -1.3629 H   0  0  0  0  0  0  0  0  0  0  0  0
   -6.3018    1.4964    0.2788 H   0  0  0  0  0  0  0  0  0  0  0  0
   -5.7231   -1.9970    2.8683 H   0  0  0  0  0  0  0  0  0  0  0  0
   -3.7849   -2.6300    1.6619 H   0  0  0  0  0  0  0  0  0  0  0  0
   -3.6027   -2.9515   -0.8371 H   0  0  0  0  0  0  0  0  0  0  0  0
   -3.3865   -1.5733   -1.9687 H   0  0  0  0  0  0  0  0  0  0  0  0
   -5.0115   -2.0096   -1.3591 H   0  0  0  0  0  0  0  0  0  0  0  0
   -1.5831   -2.0718    1.7029 H   0  0  0  0  0  0  0  0  0  0  0  0
   -0.9417   -3.4579    0.1740 H   0  0  0  0  0  0  0  0  0  0  0  0
    0.8555   -1.9764    1.0516 H   0  0  0  0  0  0  0  0  0  0  0  0
    0.2004   -0.5477    1.8871 H   0  0  0  0  0  0  0  0  0  0  0  0
    1.5084   -1.9282   -1.3359 H   0  0  0  0  0  0  0  0  0  0  0  0
    1.2966   -0.4781   -2.3641 H   0  0  0  0  0  0  0  0  0  0  0  0
   -0.0989   -1.4723   -1.9376 H   0  0  0  0  0  0  0  0  0  0  0  0
    4.8383    5.2336   -0.3546 H   0  0  0  0  0  0  0  0  0  0  0  0
    3.2203    5.9189   -0.7908 H   0  0  0  0  0  0  0  0  0  0  0  0
    3.4482    5.0614    0.7849 H   0  0  0  0  0  0  0  0  0  0  0  0
  1  2  1  0
  2  3  2  0
  2  4  1  0
  4  5  1  0
  5  6  1  0
  6  7  2  0
  6  8  1  0
  8  9  1  1
  8 10  1  0
 10 11  1  0
 12 11  1  0
 12 13  1  0
 13 14  1  0
 14 15  1  0
 15 16  1  0
 16 17  2  0
 17 18  1  0
 18 19  2  0
 18 20  1  0
 20 21  2  0
 21 22  1  0
 22 16  1  0
 22 23  1  6
 22 24  1  0
 24 13  1  0
 24 25  1  1
 24 26  1  0
 26 27  1  0
 26 28  1  0
 28 29  1  0
 29  8  1  0
 29 12  1  0
 29 30  1  6
 10 31  1  0
 31 32  1  0
 32 33  2  0
 32 34  1  0
  1 35  1  0
  1 36  1  0
  1 37  1  0
  5 38  1  0
  5 39  1  0
  9 40  1  0
 10 41  1  6
 11 42  1  0
 11 43  1  0
 12 44  1  1
 13 45  1  6
 14 46  1  0
 14 47  1  0
 15 48  1  0
 15 49  1  0
 17 50  1  0
 20 51  1  0
 21 52  1  0
 23 53  1  0
 23 54  1  0
 23 55  1  0
 26 56  1  1
 27 57  1  0
 28 58  1  0
 28 59  1  0
 30 60  1  0
 30 61  1  0
 30 62  1  0
 34 63  1  0
 34 64  1  0
 34 65  1  0
M  END
> <ID>
HT2107

> <Class>
0.0

> <Clusters>
35

> <Fold>
2

$$$$