
     RDKit          3D

 25 24  0  0  0  0  0  0  0  0999 V2000
   -3.2890    1.7099    0.0334 N   0  0  0  0  0  0  0  0  0  0  0  0
   -2.5743    0.4714   -0.2581 C   0  0  0  0  0  0  0  0  0  0  0  0
   -1.5131    0.2112    0.8176 C   0  0  0  0  0  0  0  0  0  0  0  0
   -0.8495   -1.1709    0.6834 C   0  0  0  0  0  0  0  0  0  0  0  0
   -0.0952   -1.4074   -0.6409 C   0  0  0  0  0  0  0  0  0  0  0  0
    1.0035   -0.3776   -0.9602 C   0  0  0  0  0  0  0  0  0  0  0  0
    2.1244   -0.3539    0.0928 C   0  0  0  0  0  0  0  0  0  0  0  0
    3.2655    0.5478   -0.2852 C   0  0  0  0  0  0  0  0  0  0  0  0
    3.2477    1.2136   -1.3564 O   0  0  0  0  0  0  0  0  0  0  0  0
    4.3585    0.6490    0.5692 O   0  0  0  0  0  0  0  0  0  0  0  0
   -4.0469    1.8154   -0.6794 H   0  0  0  0  0  0  0  0  0  0  0  0
   -2.6304    2.5095   -0.1131 H   0  0  0  0  0  0  0  0  0  0  0  0
   -3.3002   -0.3710   -0.2731 H   0  0  0  0  0  0  0  0  0  0  0  0
   -2.0972    0.5474   -1.2599 H   0  0  0  0  0  0  0  0  0  0  0  0
   -2.0028    0.2578    1.8150 H   0  0  0  0  0  0  0  0  0  0  0  0
   -0.7452    1.0129    0.7972 H   0  0  0  0  0  0  0  0  0  0  0  0
   -0.1532   -1.3182    1.5360 H   0  0  0  0  0  0  0  0  0  0  0  0
   -1.6330   -1.9536    0.7827 H   0  0  0  0  0  0  0  0  0  0  0  0
    0.3643   -2.4192   -0.6047 H   0  0  0  0  0  0  0  0  0  0  0  0
   -0.8227   -1.4254   -1.4800 H   0  0  0  0  0  0  0  0  0  0  0  0
    0.5614    0.6350   -1.0717 H   0  0  0  0  0  0  0  0  0  0  0  0
    1.4430   -0.6530   -1.9441 H   0  0  0  0  0  0  0  0  0  0  0  0
    2.5222   -1.3820    0.2322 H   0  0  0  0  0  0  0  0  0  0  0  0
    1.7201    0.0016    1.0634 H   0  0  0  0  0  0  0  0  0  0  0  0
    5.1420    1.2497    0.3421 H   0  0  0  0  0  0  0  0  0  0  0  0
  1  2  1  0
  2  3  1  0
  3  4  1  0
  4  5  1  0
  5  6  1  0
  6  7  1  0
  7  8  1  0
  8  9  2  0
  8 10  1  0
  1 11  1  0
  1 12  1  0
  2 13  1  0
  2 14  1  0
  3 15  1  0
  3 16  1  0
  4 17  1  0
  4 18  1  0
  5 19  1  0
  5 20  1  0
  6 21  1  0
  6 22  1  0
  7 23  1  0
  7 24  1  0
 10 25  1  0
M  END
> <ID>
HT2606

> <Class>
0.0

> <Clusters>
252

> <Fold>
2

$$$$