
     RDKit          3D

 58 61  0  0  0  0  0  0  0  0999 V2000
    8.7068   -1.3696   -0.0074 C   0  0  0  0  0  0  0  0  0  0  0  0
    7.3898   -0.7371   -0.3045 C   0  0  0  0  0  0  0  0  0  0  0  0
    7.2839    0.0463   -1.2872 O   0  0  0  0  0  0  0  0  0  0  0  0
    6.2856   -1.0263    0.5049 O   0  0  0  0  0  0  0  0  0  0  0  0
    5.0019   -0.4312    0.3244 C   0  0  0  0  0  0  0  0  0  0  0  0
    5.0032    1.0039    0.8644 C   0  0  0  0  0  0  0  0  0  0  0  0
    3.7064    1.6969    0.7174 N   0  0  0  0  0  0  0  0  0  0  0  0
    2.6067    1.2394    1.5898 C   0  0  0  0  0  0  0  0  0  0  0  0
    1.6028    0.3422    0.8579 C   0  0  0  0  0  0  0  0  0  0  0  0
    1.1355    0.9981   -0.3768 N   0  0  0  0  0  0  0  0  0  0  0  0
    0.0773    0.1967   -1.0315 C   0  0  0  0  0  0  0  0  0  0  0  0
   -1.2988    0.5572   -0.4571 C   0  0  0  0  0  0  0  0  0  0  0  0
   -2.4255   -0.1838   -1.1971 C   0  0  0  0  0  0  0  0  0  0  0  0
   -3.6260   -0.3320   -0.3605 N   0  0  0  0  0  0  0  0  0  0  0  0
   -3.9076   -1.5984    0.2739 C   0  0  0  0  0  0  0  0  0  0  0  0
   -2.9567   -2.2207    1.1003 C   0  0  0  0  0  0  0  0  0  0  0  0
   -3.2993   -3.3631    1.8305 C   0  0  0  0  0  0  0  0  0  0  0  0
   -4.5917   -3.8886    1.7470 C   0  0  0  0  0  0  0  0  0  0  0  0
   -5.5394   -3.2877    0.9145 C   0  0  0  0  0  0  0  0  0  0  0  0
   -5.1943   -2.1581    0.1653 C   0  0  0  0  0  0  0  0  0  0  0  0
   -6.3455   -1.4914   -1.0383 S   0  0  0  0  0  0  0  0  0  0  0  0
   -6.0208    0.2093   -0.5706 C   0  0  0  0  0  0  0  0  0  0  0  0
   -7.0819    1.1102   -0.4371 C   0  0  0  0  0  0  0  0  0  0  0  0
   -6.8252    2.4569   -0.1720 C   0  0  0  0  0  0  0  0  0  0  0  0
   -5.5084    2.9031   -0.0269 C   0  0  0  0  0  0  0  0  0  0  0  0
   -5.1898    4.5931    0.3228 Cl  0  0  0  0  0  0  0  0  0  0  0  0
   -4.4455    1.9987   -0.1337 C   0  0  0  0  0  0  0  0  0  0  0  0
   -4.6908    0.6437   -0.4099 C   0  0  0  0  0  0  0  0  0  0  0  0
    2.2810    1.1797   -1.2837 C   0  0  0  0  0  0  0  0  0  0  0  0
    3.3264    2.1060   -0.6495 C   0  0  0  0  0  0  0  0  0  0  0  0
    9.0319   -1.9808   -0.8748 H   0  0  0  0  0  0  0  0  0  0  0  0
    8.6250   -2.0243    0.8852 H   0  0  0  0  0  0  0  0  0  0  0  0
    9.4627   -0.5820    0.1914 H   0  0  0  0  0  0  0  0  0  0  0  0
    4.2690   -1.0375    0.8911 H   0  0  0  0  0  0  0  0  0  0  0  0
    4.7314   -0.4543   -0.7502 H   0  0  0  0  0  0  0  0  0  0  0  0
    5.2903    0.9839    1.9382 H   0  0  0  0  0  0  0  0  0  0  0  0
    5.7910    1.5930    0.3482 H   0  0  0  0  0  0  0  0  0  0  0  0
    2.0676    2.1342    1.9681 H   0  0  0  0  0  0  0  0  0  0  0  0
    3.0001    0.6999    2.4785 H   0  0  0  0  0  0  0  0  0  0  0  0
    0.7497    0.1643    1.5467 H   0  0  0  0  0  0  0  0  0  0  0  0
    2.0574   -0.6469    0.6352 H   0  0  0  0  0  0  0  0  0  0  0  0
    0.2678   -0.8953   -0.9184 H   0  0  0  0  0  0  0  0  0  0  0  0
    0.0401    0.4082   -2.1246 H   0  0  0  0  0  0  0  0  0  0  0  0
   -1.3325    0.3194    0.6244 H   0  0  0  0  0  0  0  0  0  0  0  0
   -1.4385    1.6514   -0.5689 H   0  0  0  0  0  0  0  0  0  0  0  0
   -2.0755   -1.1925   -1.5114 H   0  0  0  0  0  0  0  0  0  0  0  0
   -2.6796    0.3646   -2.1307 H   0  0  0  0  0  0  0  0  0  0  0  0
   -1.9634   -1.8119    1.2063 H   0  0  0  0  0  0  0  0  0  0  0  0
   -2.5675   -3.8320    2.4750 H   0  0  0  0  0  0  0  0  0  0  0  0
   -4.8557   -4.7695    2.3181 H   0  0  0  0  0  0  0  0  0  0  0  0
   -6.5289   -3.7200    0.8279 H   0  0  0  0  0  0  0  0  0  0  0  0
   -8.1021    0.7739   -0.5638 H   0  0  0  0  0  0  0  0  0  0  0  0
   -7.6493    3.1531   -0.0812 H   0  0  0  0  0  0  0  0  0  0  0  0
   -3.4432    2.3515    0.0485 H   0  0  0  0  0  0  0  0  0  0  0  0
    2.7308    0.2010   -1.5543 H   0  0  0  0  0  0  0  0  0  0  0  0
    1.9436    1.6630   -2.2265 H   0  0  0  0  0  0  0  0  0  0  0  0
    4.2172    2.1610   -1.3135 H   0  0  0  0  0  0  0  0  0  0  0  0
    2.9007    3.1312   -0.5974 H   0  0  0  0  0  0  0  0  0  0  0  0
  1  2  1  0
  2  3  2  0
  2  4  1  0
  4  5  1  0
  5  6  1  0
  6  7  1  0
  7  8  1  0
  8  9  1  0
  9 10  1  0
 10 11  1  0
 11 12  1  0
 12 13  1  0
 13 14  1  0
 14 15  1  0
 15 16  2  0
 16 17  1  0
 17 18  2  0
 18 19  1  0
 19 20  2  0
 20 15  1  0
 20 21  1  0
 21 22  1  0
 22 23  2  0
 23 24  1  0
 24 25  2  0
 25 26  1  0
 25 27  1  0
 27 28  2  0
 28 14  1  0
 28 22  1  0
 10 29  1  0
 29 30  1  0
 30  7  1  0
  1 31  1  0
  1 32  1  0
  1 33  1  0
  5 34  1  0
  5 35  1  0
  6 36  1  0
  6 37  1  0
  8 38  1  0
  8 39  1  0
  9 40  1  0
  9 41  1  0
 11 42  1  0
 11 43  1  0
 12 44  1  0
 12 45  1  0
 13 46  1  0
 13 47  1  0
 16 48  1  0
 17 49  1  0
 18 50  1  0
 19 51  1  0
 23 52  1  0
 24 53  1  0
 27 54  1  0
 29 55  1  0
 29 56  1  0
 30 57  1  0
 30 58  1  0
M  END
> <ID>
HT2265

> <Class>
0.0

> <Clusters>
205

> <Fold>
2

$$$$