
     RDKit          3D

 30 31  0  0  0  0  0  0  0  0999 V2000
    3.9269    2.6886   -1.2964 C   0  0  0  0  0  0  0  0  0  0  0  0
    4.2362    1.2420   -0.9262 C   0  0  0  0  0  0  0  0  0  0  0  0
    3.1192    0.6393   -0.1333 C   0  0  0  0  0  0  0  0  0  0  0  0
    2.3653   -0.3941   -0.5718 N   0  0  0  0  0  0  0  0  0  0  0  0
    1.4374   -0.7776    0.3029 N   0  0  0  0  0  0  0  0  0  0  0  0
    1.4544   -0.0516    1.4420 C   0  0  0  0  0  0  0  0  0  0  0  0
    0.5543   -0.2599    2.5316 N   0  0  0  0  0  0  0  0  0  0  0  0
   -0.6925   -1.4598    2.4605 S   0  0  0  0  0  0  0  0  0  0  0  0
   -0.0560   -2.8163    2.3411 O   0  0  0  0  0  0  0  0  0  0  0  0
   -1.5077   -1.4076    3.7215 O   0  0  0  0  0  0  0  0  0  0  0  0
   -1.7440   -1.1482    1.0834 C   0  0  0  0  0  0  0  0  0  0  0  0
   -2.0572    0.1702    0.7265 C   0  0  0  0  0  0  0  0  0  0  0  0
   -2.8873    0.4242   -0.3693 C   0  0  0  0  0  0  0  0  0  0  0  0
   -3.4155   -0.6386   -1.1159 C   0  0  0  0  0  0  0  0  0  0  0  0
   -4.2644   -0.3791   -2.2370 N   0  0  0  0  0  0  0  0  0  0  0  0
   -3.1067   -1.9578   -0.7545 C   0  0  0  0  0  0  0  0  0  0  0  0
   -2.2758   -2.2116    0.3411 C   0  0  0  0  0  0  0  0  0  0  0  0
    2.6530    1.1288    1.4134 S   0  0  0  0  0  0  0  0  0  0  0  0
    4.7566    3.1004   -1.9088 H   0  0  0  0  0  0  0  0  0  0  0  0
    2.9876    2.7425   -1.8874 H   0  0  0  0  0  0  0  0  0  0  0  0
    3.8215    3.3099   -0.3815 H   0  0  0  0  0  0  0  0  0  0  0  0
    4.3905    0.6562   -1.8580 H   0  0  0  0  0  0  0  0  0  0  0  0
    5.1723    1.2008   -0.3297 H   0  0  0  0  0  0  0  0  0  0  0  0
    0.6307    0.3388    3.3834 H   0  0  0  0  0  0  0  0  0  0  0  0
   -1.6579    1.0006    1.2949 H   0  0  0  0  0  0  0  0  0  0  0  0
   -3.1191    1.4477   -0.6361 H   0  0  0  0  0  0  0  0  0  0  0  0
   -4.5002    0.6001   -2.5135 H   0  0  0  0  0  0  0  0  0  0  0  0
   -4.6629   -1.1642   -2.7988 H   0  0  0  0  0  0  0  0  0  0  0  0
   -3.5097   -2.7879   -1.3211 H   0  0  0  0  0  0  0  0  0  0  0  0
   -2.0489   -3.2356    0.6084 H   0  0  0  0  0  0  0  0  0  0  0  0
  1  2  1  0
  2  3  1  0
  3  4  2  0
  4  5  1  0
  5  6  2  0
  6  7  1  0
  7  8  1  0
  8  9  2  0
  8 10  2  0
  8 11  1  0
 11 12  2  0
 12 13  1  0
 13 14  2  0
 14 15  1  0
 14 16  1  0
 16 17  2  0
 17 11  1  0
  6 18  1  0
 18  3  1  0
  1 19  1  0
  1 20  1  0
  1 21  1  0
  2 22  1  0
  2 23  1  0
  7 24  1  0
 12 25  1  0
 13 26  1  0
 15 27  1  0
 15 28  1  0
 16 29  1  0
 17 30  1  0
M  END
> <ID>
HT1940

> <Class>
0.0

> <Clusters>
220

> <Fold>
2

$$$$