
     RDKit          3D

 31 32  0  0  0  0  0  0  0  0999 V2000
    5.7155    1.3479   -0.9226 N   0  0  0  0  0  0  0  0  0  0  0  0
    4.5357    0.6436   -0.5266 C   0  0  0  0  0  0  0  0  0  0  0  0
    4.0520    0.7576    0.7845 C   0  0  0  0  0  0  0  0  0  0  0  0
    2.8979    0.0695    1.1715 C   0  0  0  0  0  0  0  0  0  0  0  0
    2.2203   -0.7436    0.2525 C   0  0  0  0  0  0  0  0  0  0  0  0
    2.6985   -0.8511   -1.0605 C   0  0  0  0  0  0  0  0  0  0  0  0
    3.8525   -0.1630   -1.4477 C   0  0  0  0  0  0  0  0  0  0  0  0
    0.7556   -1.5951    0.7310 S   0  0  0  0  0  0  0  0  0  0  0  0
    0.6757   -2.9015   -0.0084 O   0  0  0  0  0  0  0  0  0  0  0  0
    0.7864   -1.8669    2.2091 O   0  0  0  0  0  0  0  0  0  0  0  0
   -0.6207   -0.6176    0.3445 N   0  0  0  0  0  0  0  0  0  0  0  0
   -1.9589   -1.0985    0.5324 C   0  0  0  0  0  0  0  0  0  0  0  0
   -2.1460   -2.1973    1.1229 O   0  0  0  0  0  0  0  0  0  0  0  0
   -3.1283   -0.3176    0.0613 C   0  0  0  0  0  0  0  0  0  0  0  0
   -4.3912   -0.5176    0.6502 C   0  0  0  0  0  0  0  0  0  0  0  0
   -5.5019    0.2095    0.2110 C   0  0  0  0  0  0  0  0  0  0  0  0
   -5.3675    1.1370   -0.8240 C   0  0  0  0  0  0  0  0  0  0  0  0
   -4.1229    1.3359   -1.4251 C   0  0  0  0  0  0  0  0  0  0  0  0
   -3.0082    0.6123   -0.9895 C   0  0  0  0  0  0  0  0  0  0  0  0
    6.0828    1.2702   -1.8972 H   0  0  0  0  0  0  0  0  0  0  0  0
    6.2306    1.9521   -0.2439 H   0  0  0  0  0  0  0  0  0  0  0  0
    4.5674    1.3808    1.5046 H   0  0  0  0  0  0  0  0  0  0  0  0
    2.5330    0.1739    2.1853 H   0  0  0  0  0  0  0  0  0  0  0  0
    2.1775   -1.4643   -1.7848 H   0  0  0  0  0  0  0  0  0  0  0  0
    4.2125   -0.2564   -2.4646 H   0  0  0  0  0  0  0  0  0  0  0  0
   -0.4472    0.3629    0.0328 H   0  0  0  0  0  0  0  0  0  0  0  0
   -4.5179   -1.2284    1.4574 H   0  0  0  0  0  0  0  0  0  0  0  0
   -6.4677    0.0534    0.6741 H   0  0  0  0  0  0  0  0  0  0  0  0
   -6.2286    1.6979   -1.1637 H   0  0  0  0  0  0  0  0  0  0  0  0
   -4.0225    2.0472   -2.2348 H   0  0  0  0  0  0  0  0  0  0  0  0
   -2.0642    0.7671   -1.4943 H   0  0  0  0  0  0  0  0  0  0  0  0
  1  2  1  0
  2  3  2  0
  3  4  1  0
  4  5  2  0
  5  6  1  0
  6  7  2  0
  7  2  1  0
  5  8  1  0
  8  9  2  0
  8 10  2  0
  8 11  1  0
 11 12  1  0
 12 13  2  0
 12 14  1  0
 14 15  2  0
 15 16  1  0
 16 17  2  0
 17 18  1  0
 18 19  2  0
 19 14  1  0
  1 20  1  0
  1 21  1  0
  3 22  1  0
  4 23  1  0
  6 24  1  0
  7 25  1  0
 11 26  1  0
 15 27  1  0
 16 28  1  0
 17 29  1  0
 18 30  1  0
 19 31  1  0
M  END
> <ID>
HT1932

> <Class>
0.0

> <Clusters>
220

> <Fold>
2

$$$$