
     RDKit          3D

 21 21  0  0  0  0  0  0  0  0999 V2000
    3.9059    0.7775    0.2999 C   0  0  0  0  0  0  0  0  0  0  0  0
    2.4936    0.3793    0.5632 C   0  0  0  0  0  0  0  0  0  0  0  0
    1.9780    0.6357    1.6847 O   0  0  0  0  0  0  0  0  0  0  0  0
    1.7818   -0.3232   -0.4181 O   0  0  0  0  0  0  0  0  0  0  0  0
    0.3933   -0.5243   -0.4260 C   0  0  0  0  0  0  0  0  0  0  0  0
   -0.1104   -1.6666   -1.0591 C   0  0  0  0  0  0  0  0  0  0  0  0
   -1.4866   -1.9014   -1.1071 C   0  0  0  0  0  0  0  0  0  0  0  0
   -2.3739   -0.9917   -0.5274 C   0  0  0  0  0  0  0  0  0  0  0  0
   -1.8877    0.1599    0.1092 C   0  0  0  0  0  0  0  0  0  0  0  0
   -2.8426    1.1668    0.6794 C   0  0  0  0  0  0  0  0  0  0  0  0
   -0.5046    0.4014    0.1399 C   0  0  0  0  0  0  0  0  0  0  0  0
    4.5752    0.2944    1.0421 H   0  0  0  0  0  0  0  0  0  0  0  0
    4.0034    1.8803    0.3803 H   0  0  0  0  0  0  0  0  0  0  0  0
    4.2099    0.4617   -0.7201 H   0  0  0  0  0  0  0  0  0  0  0  0
    0.5692   -2.3768   -1.5130 H   0  0  0  0  0  0  0  0  0  0  0  0
   -1.8664   -2.7879   -1.5985 H   0  0  0  0  0  0  0  0  0  0  0  0
   -3.4389   -1.1813   -0.5813 H   0  0  0  0  0  0  0  0  0  0  0  0
   -2.3872    1.6895    1.5475 H   0  0  0  0  0  0  0  0  0  0  0  0
   -3.7739    0.6714    1.0277 H   0  0  0  0  0  0  0  0  0  0  0  0
   -3.0996    1.9143   -0.0998 H   0  0  0  0  0  0  0  0  0  0  0  0
   -0.1384    1.3210    0.5764 H   0  0  0  0  0  0  0  0  0  0  0  0
  1  2  1  0
  2  3  2  0
  2  4  1  0
  4  5  1  0
  5  6  2  0
  6  7  1  0
  7  8  2  0
  8  9  1  0
  9 10  1  0
  9 11  2  0
 11  5  1  0
  1 12  1  0
  1 13  1  0
  1 14  1  0
  6 15  1  0
  7 16  1  0
  8 17  1  0
 10 18  1  0
 10 19  1  0
 10 20  1  0
 11 21  1  0
M  END
> <ID>
HT2627

> <Class>
0.0

> <Clusters>
77

> <Fold>
2

$$$$