
     RDKit          3D

 46 50  0  0  0  0  0  0  0  0999 V2000
   -0.0081    3.0122    0.0316 O   0  0  0  0  0  0  0  0  0  0  0  0
   -0.4851    1.8439    0.0417 C   0  0  0  0  0  0  0  0  0  0  0  0
    0.3904    0.6929   -0.0117 N   0  0  0  0  0  0  0  0  0  0  0  0
   -0.2005   -0.6091    0.3549 C   0  0  0  0  0  0  0  0  0  0  0  0
   -1.5302   -0.7886   -0.3933 C   0  0  1  0  0  0  0  0  0  0  0  0
   -2.1172   -2.2163   -0.2308 C   0  0  0  0  0  0  0  0  0  0  0  0
   -3.2735   -2.2807    0.7676 C   0  0  0  0  0  0  0  0  0  0  0  0
   -4.3735   -1.3008    0.3583 C   0  0  0  0  0  0  0  0  0  0  0  0
   -3.8336    0.1022    0.3045 C   0  0  0  0  0  0  0  0  0  0  0  0
   -4.6795    1.1842    0.5906 C   0  0  0  0  0  0  0  0  0  0  0  0
   -4.1736    2.4842    0.6294 C   0  0  0  0  0  0  0  0  0  0  0  0
   -2.8134    2.7149    0.4190 C   0  0  0  0  0  0  0  0  0  0  0  0
   -1.9514    1.6444    0.1316 C   0  0  0  0  0  0  0  0  0  0  0  0
   -2.4721    0.3380    0.0116 C   0  0  0  0  0  0  0  0  0  0  0  0
    1.8146    0.8674   -0.3882 C   0  0  2  0  0  0  0  0  0  0  0  0
    2.3266   -0.1535   -1.4500 C   0  0  0  0  0  0  0  0  0  0  0  0
    3.6161   -0.7535   -1.0246 N   0  0  0  0  0  0  0  0  0  0  0  0
    3.4147   -1.5113    0.2344 C   0  0  0  0  0  0  0  0  0  0  0  0
    2.9307   -0.5831    1.3785 C   0  0  0  0  0  0  0  0  0  0  0  0
    2.7670    0.8519    0.8368 C   0  0  0  0  0  0  0  0  0  0  0  0
    4.1573    1.2905    0.3309 C   0  0  0  0  0  0  0  0  0  0  0  0
    4.6149    0.3227   -0.7952 C   0  0  0  0  0  0  0  0  0  0  0  0
    0.4777   -1.4501    0.1219 H   0  0  0  0  0  0  0  0  0  0  0  0
   -0.3905   -0.6290    1.4507 H   0  0  0  0  0  0  0  0  0  0  0  0
   -1.3054   -0.6528   -1.4755 H   0  0  0  0  0  0  0  0  0  0  0  0
   -2.4936   -2.5638   -1.2187 H   0  0  0  0  0  0  0  0  0  0  0  0
   -1.3327   -2.9411    0.0772 H   0  0  0  0  0  0  0  0  0  0  0  0
   -2.9044   -2.0353    1.7880 H   0  0  0  0  0  0  0  0  0  0  0  0
   -3.6874   -3.3120    0.7871 H   0  0  0  0  0  0  0  0  0  0  0  0
   -4.7804   -1.5757   -0.6390 H   0  0  0  0  0  0  0  0  0  0  0  0
   -5.1990   -1.3683    1.1002 H   0  0  0  0  0  0  0  0  0  0  0  0
   -5.7298    1.0191    0.7973 H   0  0  0  0  0  0  0  0  0  0  0  0
   -4.8322    3.3126    0.8568 H   0  0  0  0  0  0  0  0  0  0  0  0
   -2.4326    3.7248    0.5055 H   0  0  0  0  0  0  0  0  0  0  0  0
    1.9236    1.8678   -0.8657 H   0  0  0  0  0  0  0  0  0  0  0  0
    2.4725    0.3673   -2.4227 H   0  0  0  0  0  0  0  0  0  0  0  0
    1.5925   -0.9534   -1.6725 H   0  0  0  0  0  0  0  0  0  0  0  0
    2.6819   -2.3306    0.0687 H   0  0  0  0  0  0  0  0  0  0  0  0
    4.3680   -2.0034    0.5285 H   0  0  0  0  0  0  0  0  0  0  0  0
    1.9883   -0.9552    1.8243 H   0  0  0  0  0  0  0  0  0  0  0  0
    3.6795   -0.5853    2.2013 H   0  0  0  0  0  0  0  0  0  0  0  0
    2.4066    1.5390    1.6328 H   0  0  0  0  0  0  0  0  0  0  0  0
    4.8902    1.2775    1.1676 H   0  0  0  0  0  0  0  0  0  0  0  0
    4.1154    2.3334   -0.0534 H   0  0  0  0  0  0  0  0  0  0  0  0
    4.7758    0.8911   -1.7378 H   0  0  0  0  0  0  0  0  0  0  0  0
    5.5955   -0.1291   -0.5274 H   0  0  0  0  0  0  0  0  0  0  0  0
  1  2  2  0
  2  3  1  0
  3  4  1  0
  5  4  1  0
  5  6  1  0
  6  7  1  0
  7  8  1  0
  8  9  1  0
  9 10  1  0
 10 11  2  0
 11 12  1  0
 12 13  2  0
 13  2  1  0
 13 14  1  0
 14  5  1  0
 14  9  2  0
 15  3  1  0
 15 16  1  0
 16 17  1  0
 17 18  1  0
 18 19  1  0
 19 20  1  0
 20 15  1  0
 20 21  1  0
 21 22  1  0
 22 17  1  0
  4 23  1  0
  4 24  1  0
  5 25  1  6
  6 26  1  0
  6 27  1  0
  7 28  1  0
  7 29  1  0
  8 30  1  0
  8 31  1  0
 10 32  1  0
 11 33  1  0
 12 34  1  0
 15 35  1  6
 16 36  1  0
 16 37  1  0
 18 38  1  0
 18 39  1  0
 19 40  1  0
 19 41  1  0
 20 42  1  0
 21 43  1  0
 21 44  1  0
 22 45  1  0
 22 46  1  0
M  END
> <ID>
HT1583

> <Class>
0.0

> <Clusters>
147

> <Fold>
2

$$$$