
     RDKit          3D

 20 20  0  0  0  0  0  0  0  0999 V2000
    2.2989   -1.4838   -0.8262 O   0  0  0  0  0  0  0  0  0  0  0  0
    0.9584   -0.9269   -1.6757 S   0  0  0  0  0  0  0  0  0  0  0  0
    1.4433   -0.2357   -2.9197 O   0  0  0  0  0  0  0  0  0  0  0  0
    0.0954   -2.0911   -2.0714 O   0  0  0  0  0  0  0  0  0  0  0  0
    0.0165    0.2006   -0.6849 C   0  0  0  0  0  0  0  0  0  0  0  0
   -0.5684    1.3108   -1.3163 C   0  0  0  0  0  0  0  0  0  0  0  0
   -1.2452    2.2787   -0.5721 C   0  0  0  0  0  0  0  0  0  0  0  0
   -1.3401    2.1551    0.8130 C   0  0  0  0  0  0  0  0  0  0  0  0
   -0.7756    1.0529    1.4568 C   0  0  0  0  0  0  0  0  0  0  0  0
   -0.1176    0.0542    0.7209 C   0  0  0  0  0  0  0  0  0  0  0  0
    0.4236   -1.0985    1.4677 C   0  0  0  0  0  0  0  0  0  0  0  0
    0.0586   -2.3497    1.1989 C   0  0  0  0  0  0  0  0  0  0  0  0
    2.8089   -0.6678   -0.5907 H   0  0  0  0  0  0  0  0  0  0  0  0
   -0.4905    1.4372   -2.3885 H   0  0  0  0  0  0  0  0  0  0  0  0
   -1.6870    3.1324   -1.0698 H   0  0  0  0  0  0  0  0  0  0  0  0
   -1.8565    2.9121    1.3891 H   0  0  0  0  0  0  0  0  0  0  0  0
   -0.8697    0.9677    2.5329 H   0  0  0  0  0  0  0  0  0  0  0  0
    1.0475   -0.9121    2.3332 H   0  0  0  0  0  0  0  0  0  0  0  0
    0.4378   -3.1647    1.8014 H   0  0  0  0  0  0  0  0  0  0  0  0
   -0.6381   -2.5714    0.4015 H   0  0  0  0  0  0  0  0  0  0  0  0
  1  2  1  0
  2  3  2  0
  2  4  2  0
  2  5  1  0
  5  6  2  0
  6  7  1  0
  7  8  2  0
  8  9  1  0
  9 10  2  0
 10  5  1  0
 10 11  1  0
 11 12  2  3
  1 13  1  0
  6 14  1  0
  7 15  1  0
  8 16  1  0
  9 17  1  0
 11 18  1  0
 12 19  1  0
 12 20  1  0
M  END
> <ID>
HT1707

> <Class>
0.0

> <Clusters>
22

> <Fold>
2

$$$$