
     RDKit          3D

 35 36  0  0  0  0  0  0  0  0999 V2000
   -4.9927    1.1290    1.1631 C   0  0  0  0  0  0  0  0  0  0  0  0
   -4.0689    0.0592    0.9705 O   0  0  0  0  0  0  0  0  0  0  0  0
   -2.8839    0.1513    0.2296 C   0  0  0  0  0  0  0  0  0  0  0  0
   -2.5478    1.3269   -0.3683 N   0  0  0  0  0  0  0  0  0  0  0  0
   -1.4108    1.4554   -1.0930 C   0  0  0  0  0  0  0  0  0  0  0  0
   -0.5768    0.3985   -1.2365 N   0  0  0  0  0  0  0  0  0  0  0  0
   -0.8514   -0.8045   -0.6655 C   0  0  0  0  0  0  0  0  0  0  0  0
    0.0639   -1.8976   -0.8369 N   0  0  0  0  0  0  0  0  0  0  0  0
    1.5542   -1.7131   -1.7028 S   0  0  0  0  0  0  0  0  0  0  0  0
    1.2468   -1.3735   -3.1346 O   0  0  0  0  0  0  0  0  0  0  0  0
    2.3209   -3.0044   -1.6574 O   0  0  0  0  0  0  0  0  0  0  0  0
    2.5232   -0.4444   -0.9608 C   0  0  0  0  0  0  0  0  0  0  0  0
    3.2786    0.4293   -1.7548 C   0  0  0  0  0  0  0  0  0  0  0  0
    4.0400    1.4397   -1.1594 C   0  0  0  0  0  0  0  0  0  0  0  0
    4.0544    1.5841    0.2352 C   0  0  0  0  0  0  0  0  0  0  0  0
    4.8319    2.6183    0.8440 N   0  0  0  0  0  0  0  0  0  0  0  0
    3.3021    0.7065    1.0288 C   0  0  0  0  0  0  0  0  0  0  0  0
    2.5417   -0.3043    0.4333 C   0  0  0  0  0  0  0  0  0  0  0  0
   -2.0258   -0.9662    0.0929 C   0  0  0  0  0  0  0  0  0  0  0  0
   -2.2772   -2.2251    0.6709 O   0  0  0  0  0  0  0  0  0  0  0  0
   -3.4012   -2.5771    1.4696 C   0  0  0  0  0  0  0  0  0  0  0  0
   -5.9830    0.8289    0.7634 H   0  0  0  0  0  0  0  0  0  0  0  0
   -5.0929    1.3301    2.2495 H   0  0  0  0  0  0  0  0  0  0  0  0
   -4.6747    2.0640    0.6572 H   0  0  0  0  0  0  0  0  0  0  0  0
   -1.1689    2.4017   -1.5567 H   0  0  0  0  0  0  0  0  0  0  0  0
   -0.1400   -2.8328   -0.4200 H   0  0  0  0  0  0  0  0  0  0  0  0
    3.2790    0.3304   -2.8326 H   0  0  0  0  0  0  0  0  0  0  0  0
    4.6179    2.1094   -1.7839 H   0  0  0  0  0  0  0  0  0  0  0  0
    4.8488    2.7338    1.8819 H   0  0  0  0  0  0  0  0  0  0  0  0
    5.3952    3.2770    0.2612 H   0  0  0  0  0  0  0  0  0  0  0  0
    3.3055    0.8055    2.1070 H   0  0  0  0  0  0  0  0  0  0  0  0
    1.9662   -0.9753    1.0583 H   0  0  0  0  0  0  0  0  0  0  0  0
   -3.3059   -3.6395    1.7739 H   0  0  0  0  0  0  0  0  0  0  0  0
   -4.3383   -2.4667    0.8847 H   0  0  0  0  0  0  0  0  0  0  0  0
   -3.4300   -1.9544    2.3882 H   0  0  0  0  0  0  0  0  0  0  0  0
  1  2  1  0
  2  3  1  0
  3  4  2  0
  4  5  1  0
  5  6  2  0
  6  7  1  0
  7  8  1  0
  8  9  1  0
  9 10  2  0
  9 11  2  0
  9 12  1  0
 12 13  2  0
 13 14  1  0
 14 15  2  0
 15 16  1  0
 15 17  1  0
 17 18  2  0
 18 12  1  0
  7 19  2  0
 19  3  1  0
 19 20  1  0
 20 21  1  0
  1 22  1  0
  1 23  1  0
  1 24  1  0
  5 25  1  0
  8 26  1  0
 13 27  1  0
 14 28  1  0
 16 29  1  0
 16 30  1  0
 17 31  1  0
 18 32  1  0
 21 33  1  0
 21 34  1  0
 21 35  1  0
M  END
> <ID>
HT1939

> <Class>
0.0

> <Clusters>
220

> <Fold>
2

$$$$