
     RDKit          3D

 22 22  0  0  0  0  0  0  0  0999 V2000
    3.0313    0.8943   -0.8242 C   0  0  0  0  0  0  0  0  0  0  0  0
    1.9278   -0.0541   -0.6686 N   0  0  0  0  0  0  0  0  0  0  0  0
    1.6353   -0.2658    0.7548 C   0  0  0  0  0  0  0  0  0  0  0  0
    0.3958   -1.1564    0.9255 C   0  0  0  0  0  0  0  0  0  0  0  0
   -0.9114   -0.5924    0.4098 C   0  0  0  0  0  0  0  0  0  0  0  0
   -1.0576    0.7230   -0.0776 C   0  0  0  0  0  0  0  0  0  0  0  0
   -2.3076    1.1555   -0.5258 C   0  0  0  0  0  0  0  0  0  0  0  0
   -3.4005    0.2906   -0.4852 C   0  0  0  0  0  0  0  0  0  0  0  0
   -3.2271   -1.0022    0.0081 C   0  0  0  0  0  0  0  0  0  0  0  0
   -2.0032   -1.4075    0.4396 N   0  0  0  0  0  0  0  0  0  0  0  0
    2.7455    1.8882   -0.4173 H   0  0  0  0  0  0  0  0  0  0  0  0
    3.2592    1.0190   -1.9038 H   0  0  0  0  0  0  0  0  0  0  0  0
    3.9469    0.5268   -0.3099 H   0  0  0  0  0  0  0  0  0  0  0  0
    2.2380   -0.9670   -1.0776 H   0  0  0  0  0  0  0  0  0  0  0  0
    2.4991   -0.7682    1.2465 H   0  0  0  0  0  0  0  0  0  0  0  0
    1.4694    0.7025    1.2774 H   0  0  0  0  0  0  0  0  0  0  0  0
    0.5865   -2.1249    0.4141 H   0  0  0  0  0  0  0  0  0  0  0  0
    0.2708   -1.3772    2.0073 H   0  0  0  0  0  0  0  0  0  0  0  0
   -0.2314    1.4180   -0.1137 H   0  0  0  0  0  0  0  0  0  0  0  0
   -2.4292    2.1629   -0.9026 H   0  0  0  0  0  0  0  0  0  0  0  0
   -4.3723    0.6194   -0.8300 H   0  0  0  0  0  0  0  0  0  0  0  0
   -4.0653   -1.6847    0.0490 H   0  0  0  0  0  0  0  0  0  0  0  0
  1  2  1  0
  2  3  1  0
  3  4  1  0
  4  5  1  0
  5  6  2  0
  6  7  1  0
  7  8  2  0
  8  9  1  0
  9 10  2  0
 10  5  1  0
  1 11  1  0
  1 12  1  0
  1 13  1  0
  2 14  1  0
  3 15  1  0
  3 16  1  0
  4 17  1  0
  4 18  1  0
  6 19  1  0
  7 20  1  0
  8 21  1  0
  9 22  1  0
M  END
> <ID>
HT0268

> <Class>
0.0

> <Clusters>
209

> <Fold>
2

$$$$