
     RDKit          3D

 50 51  0  0  0  0  0  0  0  0999 V2000
   -1.5274   -4.3725    0.8357 C   0  0  0  0  0  0  0  0  0  0  0  0
   -1.4717   -3.5757   -0.4661 C   0  0  0  0  0  0  0  0  0  0  0  0
   -0.6704   -2.2985   -0.3116 C   0  0  0  0  0  0  0  0  0  0  0  0
    0.6925   -2.2616   -0.2717 C   0  0  0  0  0  0  0  0  0  0  0  0
    1.5726   -3.4936   -0.3675 C   0  0  0  0  0  0  0  0  0  0  0  0
    2.2820   -3.7814    0.9541 C   0  0  0  0  0  0  0  0  0  0  0  0
    1.3928   -0.9568   -0.2137 C   0  0  0  0  0  0  0  0  0  0  0  0
    1.8148   -0.4306    1.0149 C   0  0  0  0  0  0  0  0  0  0  0  0
    2.4177    0.8285    1.0699 C   0  0  0  0  0  0  0  0  0  0  0  0
    2.6028    1.5825   -0.0955 C   0  0  0  0  0  0  0  0  0  0  0  0
    3.1984    2.8468    0.0262 O   0  0  0  0  0  0  0  0  0  0  0  0
    3.4380    3.9486   -1.2758 P   0  0  0  0  0  0  0  0  0  0  0  0
    4.3724    3.3376   -2.2955 O   0  0  0  0  0  0  0  0  0  0  0  0
    1.9525    4.3018   -2.0058 O   0  0  0  0  0  0  0  0  0  0  0  0
    4.1214    5.3749   -0.6753 O   0  0  0  0  0  0  0  0  0  0  0  0
    2.1829    1.0485   -1.3304 C   0  0  0  0  0  0  0  0  0  0  0  0
    1.5824   -0.2124   -1.3855 C   0  0  0  0  0  0  0  0  0  0  0  0
   -1.4491   -1.0383   -0.2528 C   0  0  0  0  0  0  0  0  0  0  0  0
   -1.5363   -0.3142    0.9441 C   0  0  0  0  0  0  0  0  0  0  0  0
   -2.2238    0.9018    0.9844 C   0  0  0  0  0  0  0  0  0  0  0  0
   -2.8425    1.4075   -0.1758 C   0  0  0  0  0  0  0  0  0  0  0  0
   -3.5353    2.6269   -0.2039 O   0  0  0  0  0  0  0  0  0  0  0  0
   -3.5723    3.7740    1.0816 P   0  0  0  0  0  0  0  0  0  0  0  0
   -4.4546    4.9329    0.6774 O   0  0  0  0  0  0  0  0  0  0  0  0
   -2.0090    4.3536    1.3775 O   0  0  0  0  0  0  0  0  0  0  0  0
   -4.2035    3.0617    2.4821 O   0  0  0  0  0  0  0  0  0  0  0  0
   -2.7730    0.6654   -1.3614 C   0  0  0  0  0  0  0  0  0  0  0  0
   -2.0806   -0.5478   -1.4034 C   0  0  0  0  0  0  0  0  0  0  0  0
   -0.5282   -4.7621    1.1109 H   0  0  0  0  0  0  0  0  0  0  0  0
   -1.9114   -3.7344    1.6604 H   0  0  0  0  0  0  0  0  0  0  0  0
   -2.2120   -5.2375    0.7096 H   0  0  0  0  0  0  0  0  0  0  0  0
   -1.0802   -4.1973   -1.2976 H   0  0  0  0  0  0  0  0  0  0  0  0
   -2.5196   -3.3278   -0.7449 H   0  0  0  0  0  0  0  0  0  0  0  0
    2.3409   -3.3250   -1.1529 H   0  0  0  0  0  0  0  0  0  0  0  0
    1.0189   -4.4001   -0.6755 H   0  0  0  0  0  0  0  0  0  0  0  0
    1.5558   -3.8101    1.7935 H   0  0  0  0  0  0  0  0  0  0  0  0
    3.0459   -3.0027    1.1605 H   0  0  0  0  0  0  0  0  0  0  0  0
    2.7969   -4.7635    0.8939 H   0  0  0  0  0  0  0  0  0  0  0  0
    1.6575   -0.9855    1.9315 H   0  0  0  0  0  0  0  0  0  0  0  0
    2.7321    1.2273    2.0261 H   0  0  0  0  0  0  0  0  0  0  0  0
    1.3709    4.5966   -1.2605 H   0  0  0  0  0  0  0  0  0  0  0  0
    4.1620    5.9836   -1.4558 H   0  0  0  0  0  0  0  0  0  0  0  0
    2.3068    1.5964   -2.2530 H   0  0  0  0  0  0  0  0  0  0  0  0
    1.2505   -0.6036   -2.3396 H   0  0  0  0  0  0  0  0  0  0  0  0
   -1.0640   -0.6888    1.8440 H   0  0  0  0  0  0  0  0  0  0  0  0
   -2.2674    1.4305    1.9237 H   0  0  0  0  0  0  0  0  0  0  0  0
   -1.6177    3.7248    2.0386 H   0  0  0  0  0  0  0  0  0  0  0  0
   -5.0435    2.6264    2.1865 H   0  0  0  0  0  0  0  0  0  0  0  0
   -3.2471    1.0392   -2.2605 H   0  0  0  0  0  0  0  0  0  0  0  0
   -2.0207   -1.0960   -2.3359 H   0  0  0  0  0  0  0  0  0  0  0  0
  1  2  1  0
  2  3  1  0
  3  4  2  3
  4  5  1  0
  5  6  1  0
  4  7  1  0
  7  8  2  0
  8  9  1  0
  9 10  2  0
 10 11  1  0
 11 12  1  0
 12 13  2  0
 12 14  1  0
 12 15  1  0
 10 16  1  0
 16 17  2  0
 17  7  1  0
  3 18  1  0
 18 19  2  0
 19 20  1  0
 20 21  2  0
 21 22  1  0
 22 23  1  0
 23 24  2  0
 23 25  1  0
 23 26  1  0
 21 27  1  0
 27 28  2  0
 28 18  1  0
  1 29  1  0
  1 30  1  0
  1 31  1  0
  2 32  1  0
  2 33  1  0
  5 34  1  0
  5 35  1  0
  6 36  1  0
  6 37  1  0
  6 38  1  0
  8 39  1  0
  9 40  1  0
 14 41  1  0
 15 42  1  0
 16 43  1  0
 17 44  1  0
 19 45  1  0
 20 46  1  0
 25 47  1  0
 26 48  1  0
 27 49  1  0
 28 50  1  0
M  END
> <ID>
HT3811

> <Class>
0.0

> <Clusters>
76

> <Fold>
2

$$$$