
     RDKit          3D

 31 32  0  0  0  0  0  0  0  0999 V2000
   -1.1877    0.7702    1.7864 C   0  0  0  0  0  0  0  0  0  0  0  0
   -1.1282    0.1846    0.4919 O   0  0  0  0  0  0  0  0  0  0  0  0
   -2.1795   -0.5503   -0.0624 C   0  0  0  0  0  0  0  0  0  0  0  0
   -3.3255   -0.7492    0.6472 N   0  0  0  0  0  0  0  0  0  0  0  0
   -4.3475   -1.4945    0.1548 C   0  0  0  0  0  0  0  0  0  0  0  0
   -4.2205   -2.0831   -1.1015 C   0  0  0  0  0  0  0  0  0  0  0  0
   -3.0843   -1.8858   -1.8182 N   0  0  0  0  0  0  0  0  0  0  0  0
   -2.0625   -1.1201   -1.3469 C   0  0  0  0  0  0  0  0  0  0  0  0
   -0.8886   -0.9606   -2.1573 N   0  0  0  0  0  0  0  0  0  0  0  0
   -0.0162    0.5343   -2.2936 S   0  0  0  0  0  0  0  0  0  0  0  0
   -0.9623    1.6804   -2.0640 O   0  0  0  0  0  0  0  0  0  0  0  0
    0.5533    0.6477   -3.6793 O   0  0  0  0  0  0  0  0  0  0  0  0
    1.2987    0.5824   -1.1244 C   0  0  0  0  0  0  0  0  0  0  0  0
    1.9357   -0.6029   -0.7337 C   0  0  0  0  0  0  0  0  0  0  0  0
    2.9654   -0.5692    0.2114 C   0  0  0  0  0  0  0  0  0  0  0  0
    3.3696    0.6509    0.7717 C   0  0  0  0  0  0  0  0  0  0  0  0
    4.4209    0.6852    1.7403 N   0  0  0  0  0  0  0  0  0  0  0  0
    2.7362    1.8373    0.3751 C   0  0  0  0  0  0  0  0  0  0  0  0
    1.7067    1.8034   -0.5702 C   0  0  0  0  0  0  0  0  0  0  0  0
   -0.2323    1.2955    1.9913 H   0  0  0  0  0  0  0  0  0  0  0  0
   -1.3366   -0.0184    2.5540 H   0  0  0  0  0  0  0  0  0  0  0  0
   -2.0197    1.5042    1.8335 H   0  0  0  0  0  0  0  0  0  0  0  0
   -5.2462   -1.6371    0.7398 H   0  0  0  0  0  0  0  0  0  0  0  0
   -5.0184   -2.6913   -1.5060 H   0  0  0  0  0  0  0  0  0  0  0  0
   -0.7034   -1.6780   -2.8932 H   0  0  0  0  0  0  0  0  0  0  0  0
    1.6334   -1.5525   -1.1562 H   0  0  0  0  0  0  0  0  0  0  0  0
    3.4470   -1.4926    0.5076 H   0  0  0  0  0  0  0  0  0  0  0  0
    4.8987   -0.1932    2.0419 H   0  0  0  0  0  0  0  0  0  0  0  0
    4.7289    1.5891    2.1632 H   0  0  0  0  0  0  0  0  0  0  0  0
    3.0392    2.7864    0.7990 H   0  0  0  0  0  0  0  0  0  0  0  0
    1.2258    2.7273   -0.8648 H   0  0  0  0  0  0  0  0  0  0  0  0
  1  2  1  0
  2  3  1  0
  3  4  2  0
  4  5  1  0
  5  6  2  0
  6  7  1  0
  7  8  2  0
  8  3  1  0
  8  9  1  0
  9 10  1  0
 10 11  2  0
 10 12  2  0
 10 13  1  0
 13 14  2  0
 14 15  1  0
 15 16  2  0
 16 17  1  0
 16 18  1  0
 18 19  2  0
 19 13  1  0
  1 20  1  0
  1 21  1  0
  1 22  1  0
  5 23  1  0
  6 24  1  0
  9 25  1  0
 14 26  1  0
 15 27  1  0
 17 28  1  0
 17 29  1  0
 18 30  1  0
 19 31  1  0
M  END
> <ID>
HT1947

> <Class>
0.0

> <Clusters>
220

> <Fold>
2

$$$$