
     RDKit          3D

 41 42  0  0  0  0  0  0  0  0999 V2000
   -1.4945   -0.5954   -1.4256 C   0  0  0  0  0  0  0  0  0  0  0  0
   -1.6628    0.2847   -0.1746 C   0  0  0  0  0  0  0  0  0  0  0  0
   -1.8414   -0.5968    1.0740 C   0  0  0  0  0  0  0  0  0  0  0  0
   -2.7919    1.1589   -0.3308 O   0  0  0  0  0  0  0  0  0  0  0  0
   -4.1074    0.7185   -0.5136 C   0  0  0  0  0  0  0  0  0  0  0  0
   -4.6083    0.5160   -1.8064 C   0  0  0  0  0  0  0  0  0  0  0  0
   -5.9266    0.0871   -1.9895 C   0  0  0  0  0  0  0  0  0  0  0  0
   -6.7528   -0.1310   -0.8812 C   0  0  0  0  0  0  0  0  0  0  0  0
   -8.4066   -0.6686   -1.1110 Cl  0  0  0  0  0  0  0  0  0  0  0  0
   -6.2596    0.0857    0.4105 C   0  0  0  0  0  0  0  0  0  0  0  0
   -4.9413    0.5146    0.5938 C   0  0  0  0  0  0  0  0  0  0  0  0
   -0.4218    1.1260   -0.0019 C   0  0  0  0  0  0  0  0  0  0  0  0
   -0.5005    2.3859   -0.0121 O   0  0  0  0  0  0  0  0  0  0  0  0
    0.8168    0.4990    0.1696 O   0  0  0  0  0  0  0  0  0  0  0  0
    2.0325    1.2226    0.3385 C   0  0  0  0  0  0  0  0  0  0  0  0
    3.2099    0.3009    0.5011 C   0  0  0  0  0  0  0  0  0  0  0  0
    3.0798   -1.0996    0.4776 C   0  0  0  0  0  0  0  0  0  0  0  0
    4.2161   -1.8962    0.6274 C   0  0  0  0  0  0  0  0  0  0  0  0
    5.4661   -1.3024    0.8019 C   0  0  0  0  0  0  0  0  0  0  0  0
    5.5634    0.0944    0.8337 C   0  0  0  0  0  0  0  0  0  0  0  0
    6.8963    0.7640    0.9869 C   0  0  0  0  0  0  0  0  0  0  0  0
    7.5806    0.7607   -0.2358 O   0  0  0  0  0  0  0  0  0  0  0  0
    4.4434    0.8515    0.6736 N   0  0  0  0  0  0  0  0  0  0  0  0
   -0.5888   -1.2345   -1.3418 H   0  0  0  0  0  0  0  0  0  0  0  0
   -1.3974    0.0408   -2.3315 H   0  0  0  0  0  0  0  0  0  0  0  0
   -2.3716   -1.2640   -1.5564 H   0  0  0  0  0  0  0  0  0  0  0  0
   -0.9470   -1.2359    1.2393 H   0  0  0  0  0  0  0  0  0  0  0  0
   -1.9947    0.0384    1.9728 H   0  0  0  0  0  0  0  0  0  0  0  0
   -2.7209   -1.2654    0.9604 H   0  0  0  0  0  0  0  0  0  0  0  0
   -3.9758    0.6898   -2.6674 H   0  0  0  0  0  0  0  0  0  0  0  0
   -6.3048   -0.0729   -2.9911 H   0  0  0  0  0  0  0  0  0  0  0  0
   -6.8963   -0.0754    1.2711 H   0  0  0  0  0  0  0  0  0  0  0  0
   -4.5673    0.6874    1.5947 H   0  0  0  0  0  0  0  0  0  0  0  0
    1.9552    1.8665    1.2410 H   0  0  0  0  0  0  0  0  0  0  0  0
    2.2035    1.8678   -0.5501 H   0  0  0  0  0  0  0  0  0  0  0  0
    2.1179   -1.5770    0.3421 H   0  0  0  0  0  0  0  0  0  0  0  0
    4.1279   -2.9748    0.6053 H   0  0  0  0  0  0  0  0  0  0  0  0
    6.3477   -1.9220    0.9106 H   0  0  0  0  0  0  0  0  0  0  0  0
    7.5039    0.2192    1.7405 H   0  0  0  0  0  0  0  0  0  0  0  0
    6.7662    1.8067    1.3562 H   0  0  0  0  0  0  0  0  0  0  0  0
    7.1530    1.4554   -0.8021 H   0  0  0  0  0  0  0  0  0  0  0  0
  1  2  1  0
  2  3  1  0
  2  4  1  0
  4  5  1  0
  5  6  2  0
  6  7  1  0
  7  8  2  0
  8  9  1  0
  8 10  1  0
 10 11  2  0
 11  5  1  0
  2 12  1  0
 12 13  2  0
 12 14  1  0
 14 15  1  0
 15 16  1  0
 16 17  2  0
 17 18  1  0
 18 19  2  0
 19 20  1  0
 20 21  1  0
 21 22  1  0
 20 23  2  0
 23 16  1  0
  1 24  1  0
  1 25  1  0
  1 26  1  0
  3 27  1  0
  3 28  1  0
  3 29  1  0
  6 30  1  0
  7 31  1  0
 10 32  1  0
 11 33  1  0
 15 34  1  0
 15 35  1  0
 17 36  1  0
 18 37  1  0
 19 38  1  0
 21 39  1  0
 21 40  1  0
 22 41  1  0
M  END
> <ID>
HT1694

> <Class>
0.0

> <Clusters>
98

> <Fold>
2

$$$$