
     RDKit          3D

 40 42  0  0  0  0  0  0  0  0999 V2000
    6.3448    1.4458   -1.1622 C   0  0  0  0  0  0  0  0  0  0  0  0
    5.0674    1.4123   -0.3239 C   0  0  0  0  0  0  0  0  0  0  0  0
    3.9586    0.6213   -0.9648 C   0  0  0  0  0  0  0  0  0  0  0  0
    4.1279    0.0640   -2.0847 O   0  0  0  0  0  0  0  0  0  0  0  0
    2.6999    0.5042   -0.2900 N   0  0  0  0  0  0  0  0  0  0  0  0
    1.5901   -0.2528   -0.8687 C   0  0  0  0  0  0  0  0  0  0  0  0
    0.3610   -0.2076    0.0494 C   0  0  0  0  0  0  0  0  0  0  0  0
   -0.8290   -0.9898   -0.5464 C   0  0  0  0  0  0  0  0  0  0  0  0
   -0.6451   -2.5253   -0.4044 C   0  0  0  0  0  0  0  0  0  0  0  0
   -1.6742   -3.0270    0.6262 C   0  0  0  0  0  0  0  0  0  0  0  0
   -2.5389   -1.8525    0.8708 C   0  0  0  0  0  0  0  0  0  0  0  0
   -3.7211   -1.8294    1.6339 C   0  0  0  0  0  0  0  0  0  0  0  0
   -4.4684   -0.6376    1.6993 C   0  0  0  0  0  0  0  0  0  0  0  0
   -4.0051    0.4788    0.9917 C   0  0  0  0  0  0  0  0  0  0  0  0
   -4.6275    1.7030    0.8907 O   0  0  0  0  0  0  0  0  0  0  0  0
   -3.8783    2.5687    0.0381 C   0  0  0  0  0  0  0  0  0  0  0  0
   -2.6369    1.7572   -0.4088 C   0  0  0  0  0  0  0  0  0  0  0  0
   -2.8405    0.4484    0.2707 C   0  0  0  0  0  0  0  0  0  0  0  0
   -2.0835   -0.7279    0.2143 C   0  0  0  0  0  0  0  0  0  0  0  0
    6.1467    1.9162   -2.1490 H   0  0  0  0  0  0  0  0  0  0  0  0
    7.1188    2.0424   -0.6350 H   0  0  0  0  0  0  0  0  0  0  0  0
    6.7341    0.4163   -1.3139 H   0  0  0  0  0  0  0  0  0  0  0  0
    5.2991    0.9657    0.6666 H   0  0  0  0  0  0  0  0  0  0  0  0
    4.7164    2.4538   -0.1620 H   0  0  0  0  0  0  0  0  0  0  0  0
    2.5853    0.9749    0.6369 H   0  0  0  0  0  0  0  0  0  0  0  0
    1.3273    0.1862   -1.8559 H   0  0  0  0  0  0  0  0  0  0  0  0
    1.9125   -1.3041   -1.0237 H   0  0  0  0  0  0  0  0  0  0  0  0
    0.0819    0.8562    0.1892 H   0  0  0  0  0  0  0  0  0  0  0  0
    0.6231   -0.6179    1.0501 H   0  0  0  0  0  0  0  0  0  0  0  0
   -0.9849   -0.7134   -1.6130 H   0  0  0  0  0  0  0  0  0  0  0  0
   -0.8413   -3.0095   -1.3863 H   0  0  0  0  0  0  0  0  0  0  0  0
    0.3797   -2.8112   -0.0833 H   0  0  0  0  0  0  0  0  0  0  0  0
   -1.1772   -3.3327    1.5719 H   0  0  0  0  0  0  0  0  0  0  0  0
   -2.2693   -3.8702    0.2139 H   0  0  0  0  0  0  0  0  0  0  0  0
   -4.0644   -2.7194    2.1452 H   0  0  0  0  0  0  0  0  0  0  0  0
   -5.3915   -0.5925    2.2620 H   0  0  0  0  0  0  0  0  0  0  0  0
   -3.5753    3.4779    0.6000 H   0  0  0  0  0  0  0  0  0  0  0  0
   -4.4962    2.8567   -0.8390 H   0  0  0  0  0  0  0  0  0  0  0  0
   -1.7064    2.2482   -0.0578 H   0  0  0  0  0  0  0  0  0  0  0  0
   -2.6196    1.6228   -1.5116 H   0  0  0  0  0  0  0  0  0  0  0  0
  1  2  1  0
  2  3  1  0
  3  4  2  0
  3  5  1  0
  5  6  1  0
  6  7  1  0
  7  8  1  0
  8  9  1  0
  9 10  1  0
 10 11  1  0
 11 12  2  0
 12 13  1  0
 13 14  2  0
 14 15  1  0
 15 16  1  0
 16 17  1  0
 17 18  1  0
 18 14  1  0
 18 19  2  0
 19  8  1  0
 19 11  1  0
  1 20  1  0
  1 21  1  0
  1 22  1  0
  2 23  1  0
  2 24  1  0
  5 25  1  0
  6 26  1  0
  6 27  1  0
  7 28  1  0
  7 29  1  0
  8 30  1  0
  9 31  1  0
  9 32  1  0
 10 33  1  0
 10 34  1  0
 12 35  1  0
 13 36  1  0
 16 37  1  0
 16 38  1  0
 17 39  1  0
 17 40  1  0
M  END
> <ID>
HT1797

> <Class>
0.0

> <Clusters>
38

> <Fold>
2

$$$$