
     RDKit          3D

 23 24  0  0  0  0  0  0  0  0999 V2000
   -2.7423   -3.0125    0.0452 O   0  0  0  0  0  0  0  0  0  0  0  0
   -2.2778   -1.8408    0.0298 C   0  0  0  0  0  0  0  0  0  0  0  0
   -3.1286   -0.7794    0.0222 N   0  0  0  0  0  0  0  0  0  0  0  0
   -0.8922   -1.6322    0.0284 C   0  0  0  0  0  0  0  0  0  0  0  0
    0.2927   -3.1445    0.1469 Br  0  0  0  0  0  0  0  0  0  0  0  0
   -0.4197   -0.3050    0.0106 C   0  0  0  0  0  0  0  0  0  0  0  0
   -1.3144    0.7186    0.0220 N   0  0  0  0  0  0  0  0  0  0  0  0
    1.0204    0.0220   -0.0038 C   0  0  0  0  0  0  0  0  0  0  0  0
   -2.6536    0.4954    0.0261 C   0  0  0  0  0  0  0  0  0  0  0  0
    1.8668   -0.4914   -1.0019 C   0  0  0  0  0  0  0  0  0  0  0  0
    1.5437    0.9111    0.9495 C   0  0  0  0  0  0  0  0  0  0  0  0
   -3.5556    1.6019    0.0324 N   0  0  0  0  0  0  0  0  0  0  0  0
    3.2222   -0.1483   -1.0216 C   0  0  0  0  0  0  0  0  0  0  0  0
    2.8999    1.2515    0.9266 C   0  0  0  0  0  0  0  0  0  0  0  0
    3.7392    0.7195   -0.0560 C   0  0  0  0  0  0  0  0  0  0  0  0
   -4.1606   -0.9470    0.0237 H   0  0  0  0  0  0  0  0  0  0  0  0
    1.4757   -1.1453   -1.7715 H   0  0  0  0  0  0  0  0  0  0  0  0
    0.9040    1.3325    1.7154 H   0  0  0  0  0  0  0  0  0  0  0  0
   -4.5884    1.4489    0.0349 H   0  0  0  0  0  0  0  0  0  0  0  0
   -3.1896    2.5798    0.0349 H   0  0  0  0  0  0  0  0  0  0  0  0
    3.8704   -0.5499   -1.7897 H   0  0  0  0  0  0  0  0  0  0  0  0
    3.2996    1.9297    1.6694 H   0  0  0  0  0  0  0  0  0  0  0  0
    4.7883    0.9853   -0.0733 H   0  0  0  0  0  0  0  0  0  0  0  0
  1  2  2  0
  2  3  1  0
  2  4  1  0
  4  5  1  0
  4  6  2  0
  6  7  1  0
  6  8  1  0
  7  9  2  0
  8 10  2  0
 11  8  1  0
 12  9  1  0
  9  3  1  0
 10 13  1  0
 14 11  2  0
 13 15  2  0
 15 14  1  0
  3 16  1  0
 10 17  1  0
 11 18  1  0
 12 19  1  0
 12 20  1  0
 13 21  1  0
 14 22  1  0
 15 23  1  0
M  END
> <ID>
HT0317

> <Class>
0.0

> <Clusters>
185

> <Fold>
2

$$$$