
     RDKit          3D

 26 27  0  0  0  0  0  0  0  0999 V2000
   -1.6614   -0.6364   -1.5940 C   0  0  0  0  0  0  0  0  0  0  0  0
   -0.7155   -0.6142   -0.3750 C   0  0  0  0  0  0  0  0  0  0  0  0
   -1.0539   -1.8184    0.5265 C   0  0  0  0  0  0  0  0  0  0  0  0
   -0.7921    0.7079    0.4782 C   0  0  1  0  0  0  0  0  0  0  0  0
    0.5825    1.0011    0.8433 N   0  0  0  0  0  0  0  0  0  0  0  0
    1.7161    0.5367    0.0952 C   0  0  1  0  0  0  0  0  0  0  0  0
    2.4555    0.1626    1.2711 C   0  0  0  0  0  0  0  0  0  0  0  0
    1.3508    0.7555    2.0846 C   0  0  0  0  0  0  0  0  0  0  0  0
    1.1306    0.9074    3.3142 O   0  0  0  0  0  0  0  0  0  0  0  0
    1.0163   -0.7543   -0.9046 S   0  0  0  0  0  0  0  0  0  0  0  0
    1.6136   -2.1017   -0.6033 O   0  0  0  0  0  0  0  0  0  0  0  0
    1.1869   -0.4313   -2.3629 O   0  0  0  0  0  0  0  0  0  0  0  0
   -1.3806    1.9006   -0.2366 C   0  0  0  0  0  0  0  0  0  0  0  0
   -2.4735    2.3839    0.1603 O   0  0  0  0  0  0  0  0  0  0  0  0
   -0.7378    2.4883   -1.3241 O   0  0  0  0  0  0  0  0  0  0  0  0
   -1.5889   -1.6114   -2.1220 H   0  0  0  0  0  0  0  0  0  0  0  0
   -2.7136   -0.4893   -1.2687 H   0  0  0  0  0  0  0  0  0  0  0  0
   -1.4021    0.1572   -2.3241 H   0  0  0  0  0  0  0  0  0  0  0  0
   -2.1016   -1.7493    0.8909 H   0  0  0  0  0  0  0  0  0  0  0  0
   -0.9433   -2.7729   -0.0317 H   0  0  0  0  0  0  0  0  0  0  0  0
   -0.3781   -1.8487    1.4087 H   0  0  0  0  0  0  0  0  0  0  0  0
   -1.3811    0.5372    1.4077 H   0  0  0  0  0  0  0  0  0  0  0  0
    2.1814    1.3592   -0.4922 H   0  0  0  0  0  0  0  0  0  0  0  0
    3.4031    0.7300    1.3918 H   0  0  0  0  0  0  0  0  0  0  0  0
    2.5499   -0.9291    1.4505 H   0  0  0  0  0  0  0  0  0  0  0  0
    0.1369    2.1296   -1.6838 H   0  0  0  0  0  0  0  0  0  0  0  0
  1  2  1  0
  2  3  1  0
  2  4  1  0
  4  5  1  0
  5  6  1  0
  6  7  1  0
  7  8  1  0
  8  5  1  0
  8  9  2  0
  6 10  1  0
 10  2  1  0
 10 11  2  0
 10 12  2  0
  4 13  1  0
 13 14  2  0
 13 15  1  0
  1 16  1  0
  1 17  1  0
  1 18  1  0
  3 19  1  0
  3 20  1  0
  3 21  1  0
  4 22  1  1
  6 23  1  6
  7 24  1  0
  7 25  1  0
 15 26  1  0
M  END
> <ID>
HT1930

> <Class>
0.0

> <Clusters>
219

> <Fold>
2

$$$$