
     RDKit          3D

 62 64  0  0  0  0  0  0  0  0999 V2000
   -7.6780    1.7129   -0.0749 C   0  0  0  0  0  0  0  0  0  0  0  0
   -7.5630    0.3842   -0.8215 C   0  0  0  0  0  0  0  0  0  0  0  0
   -6.5794   -0.5898   -0.1548 C   0  0  0  0  0  0  0  0  0  0  0  0
   -5.1156   -0.1521   -0.3139 C   0  0  0  0  0  0  0  0  0  0  0  0
   -4.1605   -1.2175    0.2499 C   0  0  0  0  0  0  0  0  0  0  0  0
   -2.6716   -0.8244    0.0973 C   0  0  2  0  0  0  0  0  0  0  0  0
   -1.8747   -1.9826    0.1220 O   0  0  0  0  0  0  0  0  0  0  0  0
   -2.2131    0.1691    1.1942 C   0  0  0  0  0  0  0  0  0  0  0  0
   -1.0193    1.0667    0.7934 C   0  0  0  0  0  0  0  0  0  0  0  0
    0.3956    0.4310    0.6823 C   0  0  1  0  0  0  0  0  0  0  0  0
    0.7486   -0.6236    1.7386 C   0  0  2  0  0  0  0  0  0  0  0  0
    1.0471   -0.0562    2.9909 O   0  0  0  0  0  0  0  0  0  0  0  0
    1.9307   -1.3793    1.1467 C   0  0  0  0  0  0  0  0  0  0  0  0
    1.6673   -1.4139   -0.3660 C   0  0  2  0  0  0  0  0  0  0  0  0
    2.9814   -1.4052   -1.1770 C   0  0  0  0  0  0  0  0  0  0  0  0
    3.5939   -0.0254   -1.1827 C   0  0  0  0  0  0  0  0  0  0  0  0
    2.7455    1.0639   -1.4445 C   0  0  0  0  0  0  0  0  0  0  0  0
    1.2848    0.7989   -1.6994 C   0  0  0  0  0  0  0  0  0  0  0  0
    0.7127   -0.2218   -0.6807 C   0  0  2  0  0  0  0  0  0  0  0  0
    3.2598    2.3662   -1.4587 C   0  0  0  0  0  0  0  0  0  0  0  0
    4.6113    2.5851   -1.1910 C   0  0  0  0  0  0  0  0  0  0  0  0
    5.4564    1.5095   -0.9074 C   0  0  0  0  0  0  0  0  0  0  0  0
    4.9567    0.1916   -0.8956 C   0  0  0  0  0  0  0  0  0  0  0  0
    5.7767   -0.9135   -0.6080 O   0  0  0  0  0  0  0  0  0  0  0  0
    7.1184   -0.8479   -0.1264 C   0  0  0  0  0  0  0  0  0  0  0  0
    7.1466   -0.3168    1.2746 C   0  0  0  0  0  0  0  0  0  0  0  0
    7.8616    0.6806    1.5557 O   0  0  0  0  0  0  0  0  0  0  0  0
    6.3886   -0.9203    2.2735 O   0  0  0  0  0  0  0  0  0  0  0  0
   -7.9334    1.5387    0.9919 H   0  0  0  0  0  0  0  0  0  0  0  0
   -8.4822    2.3250   -0.5346 H   0  0  0  0  0  0  0  0  0  0  0  0
   -6.7297    2.2852   -0.1407 H   0  0  0  0  0  0  0  0  0  0  0  0
   -8.5678   -0.0910   -0.8411 H   0  0  0  0  0  0  0  0  0  0  0  0
   -7.2609    0.5733   -1.8745 H   0  0  0  0  0  0  0  0  0  0  0  0
   -6.7106   -1.5865   -0.6305 H   0  0  0  0  0  0  0  0  0  0  0  0
   -6.8280   -0.6969    0.9240 H   0  0  0  0  0  0  0  0  0  0  0  0
   -4.8940    0.0030   -1.3926 H   0  0  0  0  0  0  0  0  0  0  0  0
   -4.9608    0.8084    0.2172 H   0  0  0  0  0  0  0  0  0  0  0  0
   -4.3342   -2.1660   -0.3056 H   0  0  0  0  0  0  0  0  0  0  0  0
   -4.3929   -1.4087    1.3211 H   0  0  0  0  0  0  0  0  0  0  0  0
   -2.5456   -0.3502   -0.9001 H   0  0  0  0  0  0  0  0  0  0  0  0
   -2.0558   -2.4552    0.9768 H   0  0  0  0  0  0  0  0  0  0  0  0
   -3.0492    0.8631    1.4197 H   0  0  0  0  0  0  0  0  0  0  0  0
   -2.0200   -0.3556    2.1523 H   0  0  0  0  0  0  0  0  0  0  0  0
   -0.9525    1.8621    1.5682 H   0  0  0  0  0  0  0  0  0  0  0  0
   -1.2628    1.5939   -0.1539 H   0  0  0  0  0  0  0  0  0  0  0  0
    1.1179    1.2700    0.8151 H   0  0  0  0  0  0  0  0  0  0  0  0
   -0.0702   -1.3558    1.8686 H   0  0  0  0  0  0  0  0  0  0  0  0
    1.8135    0.5645    2.8758 H   0  0  0  0  0  0  0  0  0  0  0  0
    2.8773   -0.8383    1.3702 H   0  0  0  0  0  0  0  0  0  0  0  0
    2.0020   -2.4062    1.5673 H   0  0  0  0  0  0  0  0  0  0  0  0
    1.1314   -2.3629   -0.5954 H   0  0  0  0  0  0  0  0  0  0  0  0
    2.7533   -1.6882   -2.2275 H   0  0  0  0  0  0  0  0  0  0  0  0
    3.6752   -2.1736   -0.7740 H   0  0  0  0  0  0  0  0  0  0  0  0
    1.1833    0.3833   -2.7255 H   0  0  0  0  0  0  0  0  0  0  0  0
    0.6938    1.7401   -1.6684 H   0  0  0  0  0  0  0  0  0  0  0  0
   -0.2132   -0.6301   -1.1288 H   0  0  0  0  0  0  0  0  0  0  0  0
    2.6148    3.2108   -1.6670 H   0  0  0  0  0  0  0  0  0  0  0  0
    5.0053    3.5932   -1.1988 H   0  0  0  0  0  0  0  0  0  0  0  0
    6.4970    1.7161   -0.7033 H   0  0  0  0  0  0  0  0  0  0  0  0
    7.5373   -1.8754   -0.1166 H   0  0  0  0  0  0  0  0  0  0  0  0
    7.7478   -0.2358   -0.8074 H   0  0  0  0  0  0  0  0  0  0  0  0
    5.8054   -1.7237    2.0735 H   0  0  0  0  0  0  0  0  0  0  0  0
  1  2  1  0
  2  3  1  0
  3  4  1  0
  4  5  1  0
  5  6  1  0
  6  7  1  0
  6  8  1  0
  8  9  1  0
 10  9  1  0
 10 11  1  0
 11 12  1  0
 11 13  1  0
 14 13  1  0
 14 15  1  0
 15 16  1  0
 16 17  2  0
 17 18  1  0
 19 18  1  0
 19 10  1  0
 19 14  1  0
 17 20  1  0
 20 21  2  0
 21 22  1  0
 22 23  2  0
 23 16  1  0
 23 24  1  0
 24 25  1  0
 25 26  1  0
 26 27  2  0
 26 28  1  0
  1 29  1  0
  1 30  1  0
  1 31  1  0
  2 32  1  0
  2 33  1  0
  3 34  1  0
  3 35  1  0
  4 36  1  0
  4 37  1  0
  5 38  1  0
  5 39  1  0
  6 40  1  6
  7 41  1  0
  8 42  1  0
  8 43  1  0
  9 44  1  0
  9 45  1  0
 10 46  1  1
 11 47  1  1
 12 48  1  0
 13 49  1  0
 13 50  1  0
 14 51  1  1
 15 52  1  0
 15 53  1  0
 18 54  1  0
 18 55  1  0
 19 56  1  6
 20 57  1  0
 21 58  1  0
 22 59  1  0
 25 60  1  0
 25 61  1  0
 28 62  1  0
M  END
> <ID>
HT2103

> <Class>
0.0

> <Clusters>
81

> <Fold>
2

$$$$