
     RDKit          3D

 37 40  0  0  0  0  0  0  0  0999 V2000
   -4.1420   -3.2676   -0.4770 O   0  0  0  0  0  0  0  0  0  0  0  0
   -3.0532   -2.7232   -0.1519 C   0  0  0  0  0  0  0  0  0  0  0  0
   -2.9927   -1.8592    1.0707 C   0  0  0  0  0  0  0  0  0  0  0  0
   -2.6659   -0.4896    0.6933 N   0  0  0  0  0  0  0  0  0  0  0  0
   -1.5392   -0.0982    0.1687 C   0  0  0  0  0  0  0  0  0  0  0  0
   -1.4065    1.3275   -0.2094 C   0  0  0  0  0  0  0  0  0  0  0  0
   -0.7669    1.6932   -1.4082 C   0  0  0  0  0  0  0  0  0  0  0  0
   -0.6539    3.0399   -1.7660 C   0  0  0  0  0  0  0  0  0  0  0  0
   -1.1864    4.0318   -0.9388 C   0  0  0  0  0  0  0  0  0  0  0  0
   -1.8371    3.6784    0.2458 C   0  0  0  0  0  0  0  0  0  0  0  0
   -1.9526    2.3329    0.6084 C   0  0  0  0  0  0  0  0  0  0  0  0
   -0.4330   -1.0586   -0.1107 C   0  0  0  0  0  0  0  0  0  0  0  0
    0.9377   -0.7793    0.0980 C   0  0  0  0  0  0  0  0  0  0  0  0
    1.4904    0.4612    0.7554 C   0  0  0  0  0  0  0  0  0  0  0  0
    2.9014    0.2131    1.3113 C   0  0  0  0  0  0  0  0  0  0  0  0
    3.8039   -0.4266    0.2446 C   0  0  0  0  0  0  0  0  0  0  0  0
    3.2727   -1.8008   -0.1987 C   0  0  0  0  0  0  0  0  0  0  0  0
    1.7806   -1.7922   -0.3558 C   0  0  0  0  0  0  0  0  0  0  0  0
    0.8599   -3.0606   -0.9567 S   0  0  0  0  0  0  0  0  0  0  0  0
   -0.6259   -2.3294   -0.6663 C   0  0  0  0  0  0  0  0  0  0  0  0
   -1.8832   -2.9557   -0.9436 N   0  0  0  0  0  0  0  0  0  0  0  0
   -2.2344   -2.2527    1.7817 H   0  0  0  0  0  0  0  0  0  0  0  0
   -3.9778   -1.8616    1.5838 H   0  0  0  0  0  0  0  0  0  0  0  0
   -0.3575    0.9375   -2.0671 H   0  0  0  0  0  0  0  0  0  0  0  0
   -0.1556    3.3144   -2.6868 H   0  0  0  0  0  0  0  0  0  0  0  0
   -1.0981    5.0738   -1.2177 H   0  0  0  0  0  0  0  0  0  0  0  0
   -2.2523    4.4476    0.8841 H   0  0  0  0  0  0  0  0  0  0  0  0
   -2.4557    2.0773    1.5328 H   0  0  0  0  0  0  0  0  0  0  0  0
    1.5406    1.2792    0.0069 H   0  0  0  0  0  0  0  0  0  0  0  0
    0.8263    0.7796    1.5873 H   0  0  0  0  0  0  0  0  0  0  0  0
    3.3420    1.1800    1.6366 H   0  0  0  0  0  0  0  0  0  0  0  0
    2.8428   -0.4544    2.1991 H   0  0  0  0  0  0  0  0  0  0  0  0
    4.8315   -0.5444    0.6508 H   0  0  0  0  0  0  0  0  0  0  0  0
    3.8630    0.2488   -0.6374 H   0  0  0  0  0  0  0  0  0  0  0  0
    3.7439   -2.0798   -1.1651 H   0  0  0  0  0  0  0  0  0  0  0  0
    3.5443   -2.5674    0.5582 H   0  0  0  0  0  0  0  0  0  0  0  0
   -1.9112   -3.7150   -1.6606 H   0  0  0  0  0  0  0  0  0  0  0  0
  1  2  2  0
  2  3  1  0
  3  4  1  0
  4  5  2  0
  5  6  1  0
  6  7  2  0
  7  8  1  0
  8  9  2  0
  9 10  1  0
 10 11  2  0
 11  6  1  0
  5 12  1  0
 12 13  1  0
 13 14  1  0
 14 15  1  0
 15 16  1  0
 16 17  1  0
 17 18  1  0
 18 13  2  0
 18 19  1  0
 19 20  1  0
 20 12  2  0
 20 21  1  0
 21  2  1  0
  3 22  1  0
  3 23  1  0
  7 24  1  0
  8 25  1  0
  9 26  1  0
 10 27  1  0
 11 28  1  0
 14 29  1  0
 14 30  1  0
 15 31  1  0
 15 32  1  0
 16 33  1  0
 16 34  1  0
 17 35  1  0
 17 36  1  0
 21 37  1  0
M  END
> <ID>
HT0240

> <Class>
0.0

> <Clusters>
185

> <Fold>
2

$$$$