
     RDKit          3D

 53 56  0  0  0  0  0  0  0  0999 V2000
    7.1643    0.3121    0.6502 O   0  0  0  0  0  0  0  0  0  0  0  0
    6.2210    1.3418    0.7678 C   0  0  0  0  0  0  0  0  0  0  0  0
    5.0574    1.1233   -0.2070 C   0  0  0  0  0  0  0  0  0  0  0  0
    4.4430   -0.2128   -0.0382 N   0  0  0  0  0  0  0  0  0  0  0  0
    3.5550   -0.5481   -1.1792 C   0  0  0  0  0  0  0  0  0  0  0  0
    2.0848   -0.2031   -0.8885 C   0  0  0  0  0  0  0  0  0  0  0  0
    1.5588   -0.9148    0.3052 N   0  0  0  0  0  0  0  0  0  0  0  0
    0.6707   -2.0438   -0.0526 C   0  0  0  0  0  0  0  0  0  0  0  0
   -0.7496   -1.5544   -0.3766 C   0  0  0  0  0  0  0  0  0  0  0  0
   -1.4191   -0.8914    0.8495 C   0  0  0  0  0  0  0  0  0  0  0  0
   -2.6356   -0.1387    0.4862 N   0  0  0  0  0  0  0  0  0  0  0  0
   -2.5483    1.2714    0.1335 C   0  0  0  0  0  0  0  0  0  0  0  0
   -1.4312    1.7986   -0.5510 C   0  0  0  0  0  0  0  0  0  0  0  0
   -1.4506    3.1057   -1.0474 C   0  0  0  0  0  0  0  0  0  0  0  0
   -2.5751    3.9105   -0.8608 C   0  0  0  0  0  0  0  0  0  0  0  0
   -3.6627    3.4279   -0.1319 C   0  0  0  0  0  0  0  0  0  0  0  0
   -3.6371    2.1294    0.3896 C   0  0  0  0  0  0  0  0  0  0  0  0
   -4.8961    1.6400    1.5580 S   0  0  0  0  0  0  0  0  0  0  0  0
   -5.0869    0.0139    0.8447 C   0  0  0  0  0  0  0  0  0  0  0  0
   -6.3727   -0.5244    0.7200 C   0  0  0  0  0  0  0  0  0  0  0  0
   -6.5408   -1.8596    0.3588 C   0  0  0  0  0  0  0  0  0  0  0  0
   -5.4236   -2.6668    0.1407 C   0  0  0  0  0  0  0  0  0  0  0  0
   -5.6341   -4.3626   -0.2614 Cl  0  0  0  0  0  0  0  0  0  0  0  0
   -4.1361   -2.1265    0.2397 C   0  0  0  0  0  0  0  0  0  0  0  0
   -3.9478   -0.7660    0.5570 C   0  0  0  0  0  0  0  0  0  0  0  0
    2.6200   -1.3578    1.2376 C   0  0  0  0  0  0  0  0  0  0  0  0
    3.7722   -0.3462    1.2814 C   0  0  0  0  0  0  0  0  0  0  0  0
    7.6800    0.4874   -0.1798 H   0  0  0  0  0  0  0  0  0  0  0  0
    5.8470    1.3715    1.8120 H   0  0  0  0  0  0  0  0  0  0  0  0
    6.6983    2.3276    0.5641 H   0  0  0  0  0  0  0  0  0  0  0  0
    5.4758    1.2270   -1.2328 H   0  0  0  0  0  0  0  0  0  0  0  0
    4.2991    1.9267   -0.0746 H   0  0  0  0  0  0  0  0  0  0  0  0
    3.6312   -1.6373   -1.3803 H   0  0  0  0  0  0  0  0  0  0  0  0
    3.8717   -0.0426   -2.1176 H   0  0  0  0  0  0  0  0  0  0  0  0
    2.0116    0.8901   -0.7028 H   0  0  0  0  0  0  0  0  0  0  0  0
    1.4773   -0.4048   -1.7995 H   0  0  0  0  0  0  0  0  0  0  0  0
    1.0823   -2.6077   -0.9204 H   0  0  0  0  0  0  0  0  0  0  0  0
    0.5869   -2.7677    0.7915 H   0  0  0  0  0  0  0  0  0  0  0  0
   -1.3315   -2.4364   -0.7061 H   0  0  0  0  0  0  0  0  0  0  0  0
   -0.7311   -0.8756   -1.2502 H   0  0  0  0  0  0  0  0  0  0  0  0
   -0.7066   -0.2022    1.3531 H   0  0  0  0  0  0  0  0  0  0  0  0
   -1.6665   -1.6748    1.5999 H   0  0  0  0  0  0  0  0  0  0  0  0
   -0.5438    1.2147   -0.7201 H   0  0  0  0  0  0  0  0  0  0  0  0
   -0.5951    3.4902   -1.5878 H   0  0  0  0  0  0  0  0  0  0  0  0
   -2.5910    4.9203   -1.2522 H   0  0  0  0  0  0  0  0  0  0  0  0
   -4.5059    4.0797    0.0639 H   0  0  0  0  0  0  0  0  0  0  0  0
   -7.2438    0.0819    0.9401 H   0  0  0  0  0  0  0  0  0  0  0  0
   -7.5380   -2.2753    0.2807 H   0  0  0  0  0  0  0  0  0  0  0  0
   -3.3016   -2.7802    0.0603 H   0  0  0  0  0  0  0  0  0  0  0  0
    3.0276   -2.3512    0.9389 H   0  0  0  0  0  0  0  0  0  0  0  0
    2.1885   -1.4545    2.2571 H   0  0  0  0  0  0  0  0  0  0  0  0
    3.3619    0.6287    1.6322 H   0  0  0  0  0  0  0  0  0  0  0  0
    4.5158   -0.6931    2.0303 H   0  0  0  0  0  0  0  0  0  0  0  0
  1  2  1  0
  2  3  1  0
  3  4  1  0
  4  5  1  0
  5  6  1  0
  6  7  1  0
  7  8  1  0
  8  9  1  0
  9 10  1  0
 10 11  1  0
 11 12  1  0
 12 13  2  0
 13 14  1  0
 14 15  2  0
 15 16  1  0
 16 17  2  0
 17 12  1  0
 17 18  1  0
 18 19  1  0
 19 20  2  0
 20 21  1  0
 21 22  2  0
 22 23  1  0
 22 24  1  0
 24 25  2  0
 25 11  1  0
 25 19  1  0
  7 26  1  0
 26 27  1  0
 27  4  1  0
  1 28  1  0
  2 29  1  0
  2 30  1  0
  3 31  1  0
  3 32  1  0
  5 33  1  0
  5 34  1  0
  6 35  1  0
  6 36  1  0
  8 37  1  0
  8 38  1  0
  9 39  1  0
  9 40  1  0
 10 41  1  0
 10 42  1  0
 13 43  1  0
 14 44  1  0
 15 45  1  0
 16 46  1  0
 20 47  1  0
 21 48  1  0
 24 49  1  0
 26 50  1  0
 26 51  1  0
 27 52  1  0
 27 53  1  0
M  END
> <ID>
HT1639

> <Class>
0.0

> <Clusters>
205

> <Fold>
2

$$$$