
     RDKit          3D

 14 13  0  0  0  0  0  0  0  0999 V2000
   -1.9834    0.5626    0.0953 C   0  0  0  0  0  0  0  0  0  0  0  0
   -1.2618   -0.7790    0.1623 C   0  0  0  0  0  0  0  0  0  0  0  0
    0.0428   -0.6828   -0.4067 O   0  0  0  0  0  0  0  0  0  0  0  0
    1.1138   -0.0378    0.2224 C   0  0  0  0  0  0  0  0  0  0  0  0
    0.9827    0.4619    1.3727 O   0  0  0  0  0  0  0  0  0  0  0  0
    2.4168    0.0879   -0.4911 C   0  0  0  0  0  0  0  0  0  0  0  0
   -2.0284    0.9162   -0.9565 H   0  0  0  0  0  0  0  0  0  0  0  0
   -1.4563    1.3199    0.7119 H   0  0  0  0  0  0  0  0  0  0  0  0
   -3.0184    0.4488    0.4809 H   0  0  0  0  0  0  0  0  0  0  0  0
   -1.1995   -1.1341    1.2139 H   0  0  0  0  0  0  0  0  0  0  0  0
   -1.8453   -1.5238   -0.4189 H   0  0  0  0  0  0  0  0  0  0  0  0
    2.4862   -0.6762   -1.2935 H   0  0  0  0  0  0  0  0  0  0  0  0
    3.2560   -0.0621    0.2204 H   0  0  0  0  0  0  0  0  0  0  0  0
    2.4948    1.0984   -0.9431 H   0  0  0  0  0  0  0  0  0  0  0  0
  1  2  1  0
  2  3  1  0
  3  4  1  0
  4  5  2  0
  4  6  1  0
  1  7  1  0
  1  8  1  0
  1  9  1  0
  2 10  1  0
  2 11  1  0
  6 12  1  0
  6 13  1  0
  6 14  1  0
M  END
> <ID>
HT2367

> <Class>
0.0

> <Clusters>
245

> <Fold>
2

$$$$