
     RDKit          3D

 22 22  0  0  0  0  0  0  0  0999 V2000
    1.8809   -1.5798   -0.2441 N   0  0  0  0  0  0  0  0  0  0  0  0
    0.7713   -0.7636    0.2553 C   0  0  0  0  0  0  0  0  0  0  0  0
   -0.5831   -1.4406   -0.0453 C   0  0  0  0  0  0  0  0  0  0  0  0
   -1.7522   -0.5745    0.4383 C   0  0  0  0  0  0  0  0  0  0  0  0
   -1.6970    0.8226   -0.1895 C   0  0  0  0  0  0  0  0  0  0  0  0
   -0.3595    1.5084    0.1133 C   0  0  0  0  0  0  0  0  0  0  0  0
    0.8277    0.6486   -0.3707 C   0  0  0  0  0  0  0  0  0  0  0  0
    2.1021    1.2933   -0.0433 N   0  0  0  0  0  0  0  0  0  0  0  0
    1.7435   -1.7672   -1.2643 H   0  0  0  0  0  0  0  0  0  0  0  0
    1.8656   -2.5028    0.2479 H   0  0  0  0  0  0  0  0  0  0  0  0
    0.8781   -0.6677    1.3600 H   0  0  0  0  0  0  0  0  0  0  0  0
   -0.6286   -2.4255    0.4680 H   0  0  0  0  0  0  0  0  0  0  0  0
   -0.6866   -1.6189   -1.1386 H   0  0  0  0  0  0  0  0  0  0  0  0
   -1.7211   -0.4886    1.5469 H   0  0  0  0  0  0  0  0  0  0  0  0
   -2.7104   -1.0636    0.1599 H   0  0  0  0  0  0  0  0  0  0  0  0
   -2.5261    1.4403    0.2179 H   0  0  0  0  0  0  0  0  0  0  0  0
   -1.8370    0.7445   -1.2902 H   0  0  0  0  0  0  0  0  0  0  0  0
   -0.2794    1.6884    1.2083 H   0  0  0  0  0  0  0  0  0  0  0  0
   -0.3372    2.4950   -0.3983 H   0  0  0  0  0  0  0  0  0  0  0  0
    0.7609    0.5498   -1.4783 H   0  0  0  0  0  0  0  0  0  0  0  0
    2.1398    1.4879    0.9842 H   0  0  0  0  0  0  0  0  0  0  0  0
    2.1483    2.2141   -0.5375 H   0  0  0  0  0  0  0  0  0  0  0  0
  1  2  1  0
  2  3  1  0
  3  4  1  0
  4  5  1  0
  5  6  1  0
  6  7  1  0
  7  2  1  0
  7  8  1  0
  1  9  1  0
  1 10  1  0
  2 11  1  0
  3 12  1  0
  3 13  1  0
  4 14  1  0
  4 15  1  0
  5 16  1  0
  5 17  1  0
  6 18  1  0
  6 19  1  0
  7 20  1  0
  8 21  1  0
  8 22  1  0
M  END
> <ID>
HT2468

> <Class>
0.0

> <Clusters>
66

> <Fold>
2

$$$$