
     RDKit          3D

 35 37  0  0  0  0  0  0  0  0999 V2000
   -2.4885    0.2620   -1.7207 C   0  0  0  0  0  0  0  0  0  0  0  0
   -2.7414    0.4536   -0.2497 C   0  0  0  0  0  0  0  0  0  0  0  0
   -4.0145    0.8798    0.1624 C   0  0  0  0  0  0  0  0  0  0  0  0
   -4.2939    1.0726    1.5176 C   0  0  0  0  0  0  0  0  0  0  0  0
   -3.3055    0.8437    2.4758 C   0  0  0  0  0  0  0  0  0  0  0  0
   -2.0350    0.4196    2.0819 C   0  0  0  0  0  0  0  0  0  0  0  0
   -1.7429    0.2164    0.7247 C   0  0  0  0  0  0  0  0  0  0  0  0
   -0.4210   -0.2183    0.3502 N   0  0  0  0  0  0  0  0  0  0  0  0
   -0.1308   -1.5577    0.2405 C   0  0  0  0  0  0  0  0  0  0  0  0
    1.1237   -1.9541   -0.0986 N   0  0  0  0  0  0  0  0  0  0  0  0
    2.1104   -1.0597   -0.3469 C   0  0  0  0  0  0  0  0  0  0  0  0
    3.3879   -1.5078   -0.6986 C   0  0  0  0  0  0  0  0  0  0  0  0
    4.4074   -0.5875   -0.9555 C   0  0  0  0  0  0  0  0  0  0  0  0
    4.1579    0.7889   -0.8625 C   0  0  0  0  0  0  0  0  0  0  0  0
    5.2042    1.7275   -1.1263 N   0  0  0  0  0  0  0  0  0  0  0  0
    2.8776    1.2409   -0.5091 C   0  0  0  0  0  0  0  0  0  0  0  0
    1.8465    0.3184   -0.2492 C   0  0  0  0  0  0  0  0  0  0  0  0
    0.5490    0.7211    0.1100 C   0  0  0  0  0  0  0  0  0  0  0  0
    0.2773    1.9515    0.2099 O   0  0  0  0  0  0  0  0  0  0  0  0
   -1.1602   -2.6191    0.5156 C   0  0  0  0  0  0  0  0  0  0  0  0
   -1.4146   -2.6824    1.8728 F   0  0  0  0  0  0  0  0  0  0  0  0
   -1.4542   -0.0734   -1.9368 H   0  0  0  0  0  0  0  0  0  0  0  0
   -3.1887   -0.5014   -2.1204 H   0  0  0  0  0  0  0  0  0  0  0  0
   -2.6581    1.2210   -2.2539 H   0  0  0  0  0  0  0  0  0  0  0  0
   -4.7921    1.0637   -0.5690 H   0  0  0  0  0  0  0  0  0  0  0  0
   -5.2782    1.4014    1.8250 H   0  0  0  0  0  0  0  0  0  0  0  0
   -3.5238    0.9955    3.5249 H   0  0  0  0  0  0  0  0  0  0  0  0
   -1.2738    0.2448    2.8319 H   0  0  0  0  0  0  0  0  0  0  0  0
    3.5929   -2.5687   -0.7738 H   0  0  0  0  0  0  0  0  0  0  0  0
    5.3921   -0.9467   -1.2272 H   0  0  0  0  0  0  0  0  0  0  0  0
    5.0303    2.7552   -1.0601 H   0  0  0  0  0  0  0  0  0  0  0  0
    6.1608    1.4016   -1.3900 H   0  0  0  0  0  0  0  0  0  0  0  0
    2.6933    2.3063   -0.4390 H   0  0  0  0  0  0  0  0  0  0  0  0
   -0.7933   -3.6104    0.1742 H   0  0  0  0  0  0  0  0  0  0  0  0
   -2.1009   -2.3982   -0.0299 H   0  0  0  0  0  0  0  0  0  0  0  0
  1  2  1  0
  2  3  2  0
  3  4  1  0
  4  5  2  0
  5  6  1  0
  6  7  2  0
  7  2  1  0
  7  8  1  0
  8  9  1  0
  9 10  2  0
 10 11  1  0
 11 12  2  0
 12 13  1  0
 13 14  2  0
 14 15  1  0
 14 16  1  0
 16 17  2  0
 17 11  1  0
 17 18  1  0
 18  8  1  0
 18 19  2  0
  9 20  1  0
 20 21  1  0
  1 22  1  0
  1 23  1  0
  1 24  1  0
  3 25  1  0
  4 26  1  0
  5 27  1  0
  6 28  1  0
 12 29  1  0
 13 30  1  0
 15 31  1  0
 15 32  1  0
 16 33  1  0
 20 34  1  0
 20 35  1  0
M  END
> <ID>
HT3250

> <Class>
0.0

> <Clusters>
72

> <Fold>
2

$$$$