
     RDKit          3D

 48 50  0  0  0  0  0  0  0  0999 V2000
    5.9194    0.3507    1.6556 C   0  0  0  0  0  0  0  0  0  0  0  0
    5.6685   -0.8741    0.7795 C   0  0  0  0  0  0  0  0  0  0  0  0
    4.1984   -1.1908    0.6859 C   0  0  0  0  0  0  0  0  0  0  0  0
    3.7846   -2.2468    1.2361 O   0  0  0  0  0  0  0  0  0  0  0  0
    3.2275   -0.3134   -0.0277 C   0  0  0  0  0  0  0  0  0  0  0  0
    3.6570    0.6888   -0.9189 C   0  0  0  0  0  0  0  0  0  0  0  0
    2.7300    1.4990   -1.5768 C   0  0  0  0  0  0  0  0  0  0  0  0
    1.3627    1.3105   -1.3724 C   0  0  0  0  0  0  0  0  0  0  0  0
    0.1724    2.2809   -2.3023 S   0  0  0  0  0  0  0  0  0  0  0  0
   -0.8551    2.5987   -0.8651 C   0  0  0  0  0  0  0  0  0  0  0  0
   -1.3791    3.8767   -0.6459 C   0  0  0  0  0  0  0  0  0  0  0  0
   -2.2670    4.0953    0.4106 C   0  0  0  0  0  0  0  0  0  0  0  0
   -2.6277    3.0397    1.2520 C   0  0  0  0  0  0  0  0  0  0  0  0
   -2.0858    1.7659    1.0537 C   0  0  0  0  0  0  0  0  0  0  0  0
   -1.1902    1.5342   -0.0063 C   0  0  0  0  0  0  0  0  0  0  0  0
   -0.4981    0.2717   -0.1458 N   0  0  0  0  0  0  0  0  0  0  0  0
   -1.1594   -1.0109    0.1588 C   0  0  0  0  0  0  0  0  0  0  0  0
   -2.4596   -1.2107   -0.6716 C   0  0  0  0  0  0  0  0  0  0  0  0
   -2.0956   -1.1716   -2.1741 C   0  0  0  0  0  0  0  0  0  0  0  0
   -3.1375   -2.4954   -0.3144 N   0  0  0  0  0  0  0  0  0  0  0  0
   -4.3387   -2.7284   -1.1472 C   0  0  0  0  0  0  0  0  0  0  0  0
   -3.5447   -2.5159    1.1070 C   0  0  0  0  0  0  0  0  0  0  0  0
    0.9071    0.3247   -0.4804 C   0  0  0  0  0  0  0  0  0  0  0  0
    1.8456   -0.4782    0.1920 C   0  0  0  0  0  0  0  0  0  0  0  0
    5.4219    1.2502    1.2367 H   0  0  0  0  0  0  0  0  0  0  0  0
    5.5385    0.1701    2.6833 H   0  0  0  0  0  0  0  0  0  0  0  0
    7.0111    0.5474    1.7123 H   0  0  0  0  0  0  0  0  0  0  0  0
    6.2052   -1.7369    1.2300 H   0  0  0  0  0  0  0  0  0  0  0  0
    6.0977   -0.7222   -0.2325 H   0  0  0  0  0  0  0  0  0  0  0  0
    4.7064    0.8488   -1.1219 H   0  0  0  0  0  0  0  0  0  0  0  0
    3.0767    2.2556   -2.2691 H   0  0  0  0  0  0  0  0  0  0  0  0
   -1.1226    4.6929   -1.3089 H   0  0  0  0  0  0  0  0  0  0  0  0
   -2.6838    5.0813    0.5714 H   0  0  0  0  0  0  0  0  0  0  0  0
   -3.3182    3.2120    2.0688 H   0  0  0  0  0  0  0  0  0  0  0  0
   -2.3483    0.9762    1.7440 H   0  0  0  0  0  0  0  0  0  0  0  0
   -0.4825   -1.8639   -0.0663 H   0  0  0  0  0  0  0  0  0  0  0  0
   -1.3573   -1.0350    1.2468 H   0  0  0  0  0  0  0  0  0  0  0  0
   -3.1479   -0.3598   -0.4694 H   0  0  0  0  0  0  0  0  0  0  0  0
   -3.0055   -1.0579   -2.7984 H   0  0  0  0  0  0  0  0  0  0  0  0
   -1.5590   -2.0990   -2.4668 H   0  0  0  0  0  0  0  0  0  0  0  0
   -1.4534   -0.3013   -2.4175 H   0  0  0  0  0  0  0  0  0  0  0  0
   -5.0131   -1.8413   -1.1423 H   0  0  0  0  0  0  0  0  0  0  0  0
   -4.9086   -3.6142   -0.7915 H   0  0  0  0  0  0  0  0  0  0  0  0
   -4.0472   -2.9768   -2.1904 H   0  0  0  0  0  0  0  0  0  0  0  0
   -4.0484   -1.5662    1.4019 H   0  0  0  0  0  0  0  0  0  0  0  0
   -4.2352   -3.3624    1.3204 H   0  0  0  0  0  0  0  0  0  0  0  0
   -2.6634   -2.7004    1.7570 H   0  0  0  0  0  0  0  0  0  0  0  0
    1.5024   -1.1976    0.9243 H   0  0  0  0  0  0  0  0  0  0  0  0
  1  2  1  0
  2  3  1  0
  3  4  2  0
  3  5  1  0
  5  6  2  0
  6  7  1  0
  7  8  2  0
  8  9  1  0
  9 10  1  0
 10 11  2  0
 11 12  1  0
 12 13  2  0
 13 14  1  0
 14 15  2  0
 15 10  1  0
 15 16  1  0
 16 17  1  0
 17 18  1  0
 18 19  1  0
 18 20  1  0
 20 21  1  0
 20 22  1  0
 16 23  1  0
 23  8  1  0
 23 24  2  0
 24  5  1  0
  1 25  1  0
  1 26  1  0
  1 27  1  0
  2 28  1  0
  2 29  1  0
  6 30  1  0
  7 31  1  0
 11 32  1  0
 12 33  1  0
 13 34  1  0
 14 35  1  0
 17 36  1  0
 17 37  1  0
 18 38  1  0
 19 39  1  0
 19 40  1  0
 19 41  1  0
 21 42  1  0
 21 43  1  0
 21 44  1  0
 22 45  1  0
 22 46  1  0
 22 47  1  0
 24 48  1  0
M  END
> <ID>
HT1760

> <Class>
0.0

> <Clusters>
206

> <Fold>
2

$$$$