
     RDKit          3D

 50 52  0  0  0  0  0  0  0  0999 V2000
   -3.8812    1.1528    1.9737 C   0  0  0  0  0  0  0  0  0  0  0  0
   -3.1067    1.8995    0.9290 C   0  0  0  0  0  0  0  0  0  0  0  0
   -3.0626    3.3019    0.8993 C   0  0  0  0  0  0  0  0  0  0  0  0
   -2.2861    3.8170   -0.1294 C   0  0  0  0  0  0  0  0  0  0  0  0
   -1.6574    2.5311   -1.0085 S   0  0  0  0  0  0  0  0  0  0  0  0
   -2.3474    1.3056   -0.0833 C   0  0  0  0  0  0  0  0  0  0  0  0
   -2.2643   -0.1375   -0.3963 C   0  0  0  0  0  0  0  0  0  0  0  0
   -1.0852   -0.7837   -0.4486 C   0  0  0  0  0  0  0  0  0  0  0  0
    0.2263   -0.1429   -0.0736 C   0  0  0  0  0  0  0  0  0  0  0  0
    1.3580   -1.1910   -0.0185 C   0  0  0  0  0  0  0  0  0  0  0  0
    2.6930   -0.6319    0.2922 N   0  0  0  0  0  0  0  0  0  0  0  0
    2.7312    0.1757    1.5249 C   0  0  0  0  0  0  0  0  0  0  0  0
    4.1847    0.3412    2.0049 C   0  0  0  0  0  0  0  0  0  0  0  0
    5.2006    0.2659    0.8498 C   0  0  0  0  0  0  0  0  0  0  0  0
    4.6026    0.8310   -0.4495 C   0  0  2  0  0  0  0  0  0  0  0  0
    3.3201    0.0580   -0.8592 C   0  0  0  0  0  0  0  0  0  0  0  0
    5.6243    0.8355   -1.5585 C   0  0  0  0  0  0  0  0  0  0  0  0
    5.9686    1.9266   -2.0846 O   0  0  0  0  0  0  0  0  0  0  0  0
    6.2016   -0.3483   -2.0138 O   0  0  0  0  0  0  0  0  0  0  0  0
   -3.5214   -0.8513   -0.7137 C   0  0  0  0  0  0  0  0  0  0  0  0
   -4.7596   -0.2025   -1.6518 S   0  0  0  0  0  0  0  0  0  0  0  0
   -5.8040   -1.5122   -1.5392 C   0  0  0  0  0  0  0  0  0  0  0  0
   -5.2026   -2.4793   -0.7464 C   0  0  0  0  0  0  0  0  0  0  0  0
   -3.9353   -2.1125   -0.2648 C   0  0  0  0  0  0  0  0  0  0  0  0
   -3.1463   -2.9988    0.6524 C   0  0  0  0  0  0  0  0  0  0  0  0
   -3.5544    1.4818    2.9823 H   0  0  0  0  0  0  0  0  0  0  0  0
   -4.9639    1.3666    1.8554 H   0  0  0  0  0  0  0  0  0  0  0  0
   -3.7219    0.0582    1.9017 H   0  0  0  0  0  0  0  0  0  0  0  0
   -3.5840    3.9289    1.6110 H   0  0  0  0  0  0  0  0  0  0  0  0
   -2.1222    4.8665   -0.3327 H   0  0  0  0  0  0  0  0  0  0  0  0
   -1.0723   -1.8245   -0.7486 H   0  0  0  0  0  0  0  0  0  0  0  0
    0.1094    0.3322    0.9234 H   0  0  0  0  0  0  0  0  0  0  0  0
    0.4649    0.6370   -0.8219 H   0  0  0  0  0  0  0  0  0  0  0  0
    1.4044   -1.7356   -0.9882 H   0  0  0  0  0  0  0  0  0  0  0  0
    1.1046   -1.9495    0.7545 H   0  0  0  0  0  0  0  0  0  0  0  0
    2.2920    1.1818    1.3377 H   0  0  0  0  0  0  0  0  0  0  0  0
    2.1427   -0.3141    2.3323 H   0  0  0  0  0  0  0  0  0  0  0  0
    4.2831    1.3202    2.5230 H   0  0  0  0  0  0  0  0  0  0  0  0
    4.4259   -0.4532    2.7445 H   0  0  0  0  0  0  0  0  0  0  0  0
    6.1161    0.8325    1.1288 H   0  0  0  0  0  0  0  0  0  0  0  0
    5.4916   -0.7966    0.6959 H   0  0  0  0  0  0  0  0  0  0  0  0
    4.3124    1.8874   -0.2444 H   0  0  0  0  0  0  0  0  0  0  0  0
    3.5612   -0.7086   -1.6274 H   0  0  0  0  0  0  0  0  0  0  0  0
    2.6182    0.7784   -1.3289 H   0  0  0  0  0  0  0  0  0  0  0  0
    5.9518   -1.2471   -1.6201 H   0  0  0  0  0  0  0  0  0  0  0  0
   -6.7810   -1.5879   -1.9967 H   0  0  0  0  0  0  0  0  0  0  0  0
   -5.6812   -3.4204   -0.5085 H   0  0  0  0  0  0  0  0  0  0  0  0
   -2.5656   -2.3915    1.3780 H   0  0  0  0  0  0  0  0  0  0  0  0
   -2.4559   -3.6319    0.0578 H   0  0  0  0  0  0  0  0  0  0  0  0
   -3.8267   -3.6602    1.2295 H   0  0  0  0  0  0  0  0  0  0  0  0
  1  2  1  0
  2  3  1  0
  3  4  2  0
  4  5  1  0
  5  6  1  0
  6  2  2  0
  6  7  1  0
  7  8  2  3
  8  9  1  0
  9 10  1  0
 10 11  1  0
 11 12  1  0
 12 13  1  0
 13 14  1  0
 14 15  1  0
 15 16  1  0
 16 11  1  0
 15 17  1  0
 17 18  2  0
 17 19  1  0
  7 20  1  0
 20 21  1  0
 21 22  1  0
 22 23  2  0
 23 24  1  0
 24 20  2  0
 24 25  1  0
  1 26  1  0
  1 27  1  0
  1 28  1  0
  3 29  1  0
  4 30  1  0
  8 31  1  0
  9 32  1  0
  9 33  1  0
 10 34  1  0
 10 35  1  0
 12 36  1  0
 12 37  1  0
 13 38  1  0
 13 39  1  0
 14 40  1  0
 14 41  1  0
 15 42  1  1
 16 43  1  0
 16 44  1  0
 19 45  1  0
 22 46  1  0
 23 47  1  0
 25 48  1  0
 25 49  1  0
 25 50  1  0
M  END
> <ID>
HT2052

> <Class>
0.0

> <Clusters>
38

> <Fold>
2

$$$$