
     RDKit          3D

 22 23  0  0  0  0  0  0  0  0999 V2000
    3.7587    1.0457   -0.0060 N   0  0  0  0  0  0  0  0  0  0  0  0
    2.6525    0.1486   -0.0344 C   0  0  0  0  0  0  0  0  0  0  0  0
    2.5384   -0.8376    0.7838 N   0  0  0  0  0  0  0  0  0  0  0  0
    1.3028   -1.5504    0.4882 C   0  0  0  0  0  0  0  0  0  0  0  0
    0.6818   -0.7769   -0.6968 C   0  0  0  0  0  0  0  0  0  0  0  0
    1.6145    0.2640   -0.9350 O   0  0  0  0  0  0  0  0  0  0  0  0
   -0.6778   -0.2033   -0.3698 C   0  0  0  0  0  0  0  0  0  0  0  0
   -1.8177   -0.6500   -1.0603 C   0  0  0  0  0  0  0  0  0  0  0  0
   -3.0774   -0.1226   -0.7592 C   0  0  0  0  0  0  0  0  0  0  0  0
   -3.2103    0.8531    0.2321 C   0  0  0  0  0  0  0  0  0  0  0  0
   -2.0837    1.3034    0.9248 C   0  0  0  0  0  0  0  0  0  0  0  0
   -0.8221    0.7793    0.6273 C   0  0  0  0  0  0  0  0  0  0  0  0
    3.8095    1.8343   -0.6878 H   0  0  0  0  0  0  0  0  0  0  0  0
    4.5233    0.9230    0.6944 H   0  0  0  0  0  0  0  0  0  0  0  0
    0.6506   -1.5593    1.3886 H   0  0  0  0  0  0  0  0  0  0  0  0
    1.5378   -2.5958    0.1939 H   0  0  0  0  0  0  0  0  0  0  0  0
    0.6363   -1.4332   -1.5940 H   0  0  0  0  0  0  0  0  0  0  0  0
   -1.7334   -1.4070   -1.8301 H   0  0  0  0  0  0  0  0  0  0  0  0
   -3.9512   -0.4712   -1.2945 H   0  0  0  0  0  0  0  0  0  0  0  0
   -4.1863    1.2597    0.4637 H   0  0  0  0  0  0  0  0  0  0  0  0
   -2.1878    2.0587    1.6930 H   0  0  0  0  0  0  0  0  0  0  0  0
    0.0413    1.1375    1.1741 H   0  0  0  0  0  0  0  0  0  0  0  0
  1  2  1  0
  2  3  2  0
  3  4  1  0
  4  5  1  0
  5  6  1  0
  6  2  1  0
  5  7  1  0
  7  8  2  0
  8  9  1  0
  9 10  2  0
 10 11  1  0
 11 12  2  0
 12  7  1  0
  1 13  1  0
  1 14  1  0
  4 15  1  0
  4 16  1  0
  5 17  1  0
  8 18  1  0
  9 19  1  0
 10 20  1  0
 11 21  1  0
 12 22  1  0
M  END
> <ID>
HT2683

> <Class>
0.0

> <Clusters>
191

> <Fold>
2

$$$$