
     RDKit          3D

 35 36  0  0  0  0  0  0  0  0999 V2000
    5.6279    0.6100   -0.4438 C   0  0  0  0  0  0  0  0  0  0  0  0
    4.6487   -0.3863   -0.0016 N   0  0  0  0  0  0  0  0  0  0  0  0
    5.1314   -1.6411    0.5796 C   0  0  0  0  0  0  0  0  0  0  0  0
    3.2336   -0.1687   -0.1814 C   0  0  0  0  0  0  0  0  0  0  0  0
    2.7436    0.3808   -1.3794 C   0  0  0  0  0  0  0  0  0  0  0  0
    1.3722    0.5819   -1.5593 C   0  0  0  0  0  0  0  0  0  0  0  0
    0.4667    0.2356   -0.5510 C   0  0  0  0  0  0  0  0  0  0  0  0
    0.9491   -0.3201    0.6466 C   0  0  0  0  0  0  0  0  0  0  0  0
    2.3205   -0.5226    0.8274 C   0  0  0  0  0  0  0  0  0  0  0  0
   -0.9319    0.4552   -0.7692 N   0  0  0  0  0  0  0  0  0  0  0  0
   -1.8081    0.1619    0.1062 N   0  0  0  0  0  0  0  0  0  0  0  0
   -3.2115    0.3781   -0.1043 C   0  0  0  0  0  0  0  0  0  0  0  0
   -3.6701    0.9340   -1.3152 C   0  0  0  0  0  0  0  0  0  0  0  0
   -5.0318    1.1460   -1.5292 C   0  0  0  0  0  0  0  0  0  0  0  0
   -5.9542    0.8079   -0.5421 C   0  0  0  0  0  0  0  0  0  0  0  0
   -5.5195    0.2565    0.6640 C   0  0  0  0  0  0  0  0  0  0  0  0
   -4.1495    0.0329    0.9043 C   0  0  0  0  0  0  0  0  0  0  0  0
   -3.7401   -0.5574    2.2077 C   0  0  0  0  0  0  0  0  0  0  0  0
   -2.5267   -0.7664    2.4763 O   0  0  0  0  0  0  0  0  0  0  0  0
   -4.7047   -0.8886    3.1566 O   0  0  0  0  0  0  0  0  0  0  0  0
    6.2166    0.2050   -1.2937 H   0  0  0  0  0  0  0  0  0  0  0  0
    6.3154    0.8542    0.3934 H   0  0  0  0  0  0  0  0  0  0  0  0
    5.1340    1.5529   -0.7605 H   0  0  0  0  0  0  0  0  0  0  0  0
    4.6655   -2.5027    0.0562 H   0  0  0  0  0  0  0  0  0  0  0  0
    4.8805   -1.6828    1.6595 H   0  0  0  0  0  0  0  0  0  0  0  0
    6.2348   -1.7277    0.4783 H   0  0  0  0  0  0  0  0  0  0  0  0
    3.4212    0.6375   -2.1835 H   0  0  0  0  0  0  0  0  0  0  0  0
    1.0124    1.0044   -2.4892 H   0  0  0  0  0  0  0  0  0  0  0  0
    0.2689   -0.5960    1.4420 H   0  0  0  0  0  0  0  0  0  0  0  0
    2.6667   -0.9411    1.7627 H   0  0  0  0  0  0  0  0  0  0  0  0
   -2.9744    1.2052   -2.0989 H   0  0  0  0  0  0  0  0  0  0  0  0
   -5.3726    1.5735   -2.4634 H   0  0  0  0  0  0  0  0  0  0  0  0
   -7.0104    0.9735   -0.7112 H   0  0  0  0  0  0  0  0  0  0  0  0
   -6.2624    0.0052    1.4105 H   0  0  0  0  0  0  0  0  0  0  0  0
   -4.4417   -1.2907    4.0485 H   0  0  0  0  0  0  0  0  0  0  0  0
  1  2  1  0
  2  3  1  0
  2  4  1  0
  4  5  2  0
  5  6  1  0
  6  7  2  0
  7  8  1  0
  8  9  2  0
  9  4  1  0
  7 10  1  0
 10 11  2  3
 11 12  1  0
 12 13  2  0
 13 14  1  0
 14 15  2  0
 15 16  1  0
 16 17  2  0
 17 12  1  0
 17 18  1  0
 18 19  2  0
 18 20  1  0
  1 21  1  0
  1 22  1  0
  1 23  1  0
  3 24  1  0
  3 25  1  0
  3 26  1  0
  5 27  1  0
  6 28  1  0
  8 29  1  0
  9 30  1  0
 13 31  1  0
 14 32  1  0
 15 33  1  0
 16 34  1  0
 20 35  1  0
M  END
> <ID>
HT3187

> <Class>
0.0

> <Clusters>
153

> <Fold>
2

$$$$