
     RDKit          3D

 65 65  0  0  0  0  0  0  0  0999 V2000
    9.2997    0.6497    1.0662 C   0  0  0  0  0  0  0  0  0  0  0  0
    7.9581    1.3755    1.1127 C   0  0  0  0  0  0  0  0  0  0  0  0
    6.8055    0.3938    1.3534 C   0  0  0  0  0  0  0  0  0  0  0  0
    5.4558    1.1261    1.3790 C   0  0  0  0  0  0  0  0  0  0  0  0
    4.2892    0.2189    1.8083 C   0  0  0  0  0  0  0  0  0  0  0  0
    4.0367   -0.9952    0.8924 C   0  0  0  0  0  0  0  0  0  0  0  0
    3.7327   -0.6354   -0.5717 C   0  0  0  0  0  0  0  0  0  0  0  0
    2.5359    0.2690   -0.7100 C   0  0  0  0  0  0  0  0  0  0  0  0
    2.6907    1.4119   -1.1129 O   0  0  0  0  0  0  0  0  0  0  0  0
    1.1513   -0.2177   -0.3718 C   0  0  0  0  0  0  0  0  0  0  0  0
    0.2391   -0.1750   -1.6114 C   0  0  0  0  0  0  0  0  0  0  0  0
   -1.0904   -0.9601   -1.4802 C   0  0  1  0  0  0  0  0  0  0  0  0
   -0.9142   -2.4908   -1.5253 C   0  0  2  0  0  0  0  0  0  0  0  0
   -1.1946   -2.9676   -2.8172 O   0  0  0  0  0  0  0  0  0  0  0  0
   -1.9122   -3.0677   -0.5089 C   0  0  0  0  0  0  0  0  0  0  0  0
   -2.7992   -1.9087   -0.0604 C   0  0  2  0  0  0  0  0  0  0  0  0
   -3.9173   -1.8160   -0.9062 O   0  0  0  0  0  0  0  0  0  0  0  0
   -1.9044   -0.6757   -0.2074 C   0  0  2  0  0  0  0  0  0  0  0  0
   -2.6646    0.6670   -0.2638 C   0  0  0  0  0  0  0  0  0  0  0  0
   -3.4664    0.8916    0.9965 C   0  0  0  0  0  0  0  0  0  0  0  0
   -4.6794    1.4733    1.0462 C   0  0  0  0  0  0  0  0  0  0  0  0
   -5.4289    2.0209   -0.1432 C   0  0  0  0  0  0  0  0  0  0  0  0
   -6.2104    0.9396   -0.9041 C   0  0  0  0  0  0  0  0  0  0  0  0
   -7.2768    0.2610   -0.0275 C   0  0  0  0  0  0  0  0  0  0  0  0
   -8.0878   -0.7640   -0.7745 C   0  0  0  0  0  0  0  0  0  0  0  0
   -7.8833   -0.9926   -1.9968 O   0  0  0  0  0  0  0  0  0  0  0  0
   -9.0807   -1.4772   -0.1100 O   0  0  0  0  0  0  0  0  0  0  0  0
   10.1135    1.3841    0.8906 H   0  0  0  0  0  0  0  0  0  0  0  0
    9.4912    0.1324    2.0301 H   0  0  0  0  0  0  0  0  0  0  0  0
    9.3079   -0.0944    0.2418 H   0  0  0  0  0  0  0  0  0  0  0  0
    7.9866    2.1288    1.9302 H   0  0  0  0  0  0  0  0  0  0  0  0
    7.8031    1.9069    0.1478 H   0  0  0  0  0  0  0  0  0  0  0  0
    6.8024   -0.3599    0.5365 H   0  0  0  0  0  0  0  0  0  0  0  0
    6.9641   -0.1291    2.3231 H   0  0  0  0  0  0  0  0  0  0  0  0
    5.2481    1.5745    0.3847 H   0  0  0  0  0  0  0  0  0  0  0  0
    5.5140    1.9640    2.1077 H   0  0  0  0  0  0  0  0  0  0  0  0
    4.4848   -0.1530    2.8368 H   0  0  0  0  0  0  0  0  0  0  0  0
    3.3650    0.8332    1.8628 H   0  0  0  0  0  0  0  0  0  0  0  0
    4.9141   -1.6748    0.9216 H   0  0  0  0  0  0  0  0  0  0  0  0
    3.1855   -1.5744    1.3094 H   0  0  0  0  0  0  0  0  0  0  0  0
    4.6258   -0.1637   -1.0343 H   0  0  0  0  0  0  0  0  0  0  0  0
    3.5368   -1.5702   -1.1399 H   0  0  0  0  0  0  0  0  0  0  0  0
    0.7408    0.4412    0.4227 H   0  0  0  0  0  0  0  0  0  0  0  0
    1.2035   -1.2489    0.0318 H   0  0  0  0  0  0  0  0  0  0  0  0
    0.7902   -0.5784   -2.4903 H   0  0  0  0  0  0  0  0  0  0  0  0
    0.0042    0.8877   -1.8395 H   0  0  0  0  0  0  0  0  0  0  0  0
   -1.7178   -0.6683   -2.3546 H   0  0  0  0  0  0  0  0  0  0  0  0
    0.1206   -2.7859   -1.2358 H   0  0  0  0  0  0  0  0  0  0  0  0
   -0.8697   -3.9045   -2.8502 H   0  0  0  0  0  0  0  0  0  0  0  0
   -2.5138   -3.9029   -0.9330 H   0  0  0  0  0  0  0  0  0  0  0  0
   -1.3535   -3.4570    0.3718 H   0  0  0  0  0  0  0  0  0  0  0  0
   -3.1176   -2.0350    1.0018 H   0  0  0  0  0  0  0  0  0  0  0  0
   -4.6019   -2.4366   -0.5447 H   0  0  0  0  0  0  0  0  0  0  0  0
   -1.2331   -0.6633    0.6785 H   0  0  0  0  0  0  0  0  0  0  0  0
   -3.2944    0.7088   -1.1735 H   0  0  0  0  0  0  0  0  0  0  0  0
   -1.9233    1.4896   -0.3399 H   0  0  0  0  0  0  0  0  0  0  0  0
   -3.0100    0.6024    1.9389 H   0  0  0  0  0  0  0  0  0  0  0  0
   -5.1344    1.6114    2.0230 H   0  0  0  0  0  0  0  0  0  0  0  0
   -4.7299    2.5424   -0.8305 H   0  0  0  0  0  0  0  0  0  0  0  0
   -6.1477    2.7890    0.2172 H   0  0  0  0  0  0  0  0  0  0  0  0
   -5.5152    0.1738   -1.3012 H   0  0  0  0  0  0  0  0  0  0  0  0
   -6.7088    1.4233   -1.7726 H   0  0  0  0  0  0  0  0  0  0  0  0
   -6.7848   -0.2505    0.8272 H   0  0  0  0  0  0  0  0  0  0  0  0
   -7.9686    1.0302    0.3772 H   0  0  0  0  0  0  0  0  0  0  0  0
   -9.2617   -1.3268    0.8752 H   0  0  0  0  0  0  0  0  0  0  0  0
  1  2  1  0
  2  3  1  0
  3  4  1  0
  4  5  1  0
  5  6  1  0
  6  7  1  0
  7  8  1  0
  8  9  2  0
  8 10  1  0
 10 11  1  0
 12 11  1  0
 12 13  1  0
 13 14  1  0
 13 15  1  0
 15 16  1  0
 16 17  1  0
 16 18  1  0
 18 12  1  0
 18 19  1  0
 19 20  1  0
 20 21  2  3
 21 22  1  0
 22 23  1  0
 23 24  1  0
 24 25  1  0
 25 26  2  0
 25 27  1  0
  1 28  1  0
  1 29  1  0
  1 30  1  0
  2 31  1  0
  2 32  1  0
  3 33  1  0
  3 34  1  0
  4 35  1  0
  4 36  1  0
  5 37  1  0
  5 38  1  0
  6 39  1  0
  6 40  1  0
  7 41  1  0
  7 42  1  0
 10 43  1  0
 10 44  1  0
 11 45  1  0
 11 46  1  0
 12 47  1  6
 13 48  1  1
 14 49  1  0
 15 50  1  0
 15 51  1  0
 16 52  1  1
 17 53  1  0
 18 54  1  1
 19 55  1  0
 19 56  1  0
 20 57  1  0
 21 58  1  0
 22 59  1  0
 22 60  1  0
 23 61  1  0
 23 62  1  0
 24 63  1  0
 24 64  1  0
 27 65  1  0
M  END
> <ID>
HT2151

> <Class>
0.0

> <Clusters>
81

> <Fold>
2

$$$$