
     RDKit          3D

 45 46  0  0  0  0  0  0  0  0999 V2000
    4.1748    0.0463   -2.0528 C   0  0  0  0  0  0  0  0  0  0  0  0
    3.8754   -1.0808   -1.0480 C   0  0  0  0  0  0  0  0  0  0  0  0
    3.4147   -0.6196    0.2835 N   0  0  0  0  0  0  0  0  0  0  0  0
    4.3395    0.3073    0.9503 C   0  0  0  0  0  0  0  0  0  0  0  0
    3.6963    1.6791    0.9280 C   0  0  0  0  0  0  0  0  0  0  0  0
    2.2126    1.3905    0.9230 C   0  0  0  0  0  0  0  0  0  0  0  0
    2.0791    0.0093    0.2684 C   0  0  0  0  0  0  0  0  0  0  0  0
    1.0818   -0.8956    1.0071 C   0  0  0  0  0  0  0  0  0  0  0  0
   -0.2707   -0.3413    0.9253 N   0  0  0  0  0  0  0  0  0  0  0  0
   -1.3472   -0.9907    0.2308 C   0  0  0  0  0  0  0  0  0  0  0  0
   -1.2050   -2.1676   -0.1996 O   0  0  0  0  0  0  0  0  0  0  0  0
   -2.6367   -0.2903    0.0276 C   0  0  0  0  0  0  0  0  0  0  0  0
   -3.8527   -0.9722    0.2562 C   0  0  0  0  0  0  0  0  0  0  0  0
   -3.8164   -2.3206    0.6515 O   0  0  0  0  0  0  0  0  0  0  0  0
   -4.9656   -3.1183    0.9177 C   0  0  0  0  0  0  0  0  0  0  0  0
   -5.0709   -0.2832    0.1027 C   0  0  0  0  0  0  0  0  0  0  0  0
   -5.0823    1.0630   -0.2594 C   0  0  0  0  0  0  0  0  0  0  0  0
   -3.8853    1.7390   -0.4935 C   0  0  0  0  0  0  0  0  0  0  0  0
   -3.9400    3.5812   -1.0098 Br  0  0  0  0  0  0  0  0  0  0  0  0
   -2.6615    1.0660   -0.3743 C   0  0  0  0  0  0  0  0  0  0  0  0
   -1.4803    1.7535   -0.6678 O   0  0  0  0  0  0  0  0  0  0  0  0
   -0.7734    1.5363   -1.8830 C   0  0  0  0  0  0  0  0  0  0  0  0
    4.4032   -0.4036   -3.0417 H   0  0  0  0  0  0  0  0  0  0  0  0
    5.0605    0.6368   -1.7431 H   0  0  0  0  0  0  0  0  0  0  0  0
    3.3118    0.7292   -2.1817 H   0  0  0  0  0  0  0  0  0  0  0  0
    3.1072   -1.7555   -1.4855 H   0  0  0  0  0  0  0  0  0  0  0  0
    4.7937   -1.6935   -0.9189 H   0  0  0  0  0  0  0  0  0  0  0  0
    5.3547    0.3219    0.4975 H   0  0  0  0  0  0  0  0  0  0  0  0
    4.4563   -0.0192    2.0066 H   0  0  0  0  0  0  0  0  0  0  0  0
    3.9802    2.2145   -0.0041 H   0  0  0  0  0  0  0  0  0  0  0  0
    3.9949    2.2859    1.8102 H   0  0  0  0  0  0  0  0  0  0  0  0
    1.6561    2.1661    0.3531 H   0  0  0  0  0  0  0  0  0  0  0  0
    1.8459    1.3818    1.9737 H   0  0  0  0  0  0  0  0  0  0  0  0
    1.6987    0.1424   -0.7679 H   0  0  0  0  0  0  0  0  0  0  0  0
    1.3718   -0.9997    2.0751 H   0  0  0  0  0  0  0  0  0  0  0  0
    1.1204   -1.9095    0.5543 H   0  0  0  0  0  0  0  0  0  0  0  0
   -0.4608    0.5636    1.4118 H   0  0  0  0  0  0  0  0  0  0  0  0
   -4.6393   -4.1387    1.2050 H   0  0  0  0  0  0  0  0  0  0  0  0
   -5.5473   -2.6820    1.7570 H   0  0  0  0  0  0  0  0  0  0  0  0
   -5.5991   -3.1908    0.0085 H   0  0  0  0  0  0  0  0  0  0  0  0
   -6.0176   -0.7769    0.2733 H   0  0  0  0  0  0  0  0  0  0  0  0
   -6.0272    1.5809   -0.3635 H   0  0  0  0  0  0  0  0  0  0  0  0
   -1.4086    1.8301   -2.7450 H   0  0  0  0  0  0  0  0  0  0  0  0
    0.1465    2.1559   -1.8855 H   0  0  0  0  0  0  0  0  0  0  0  0
   -0.4882    0.4688   -1.9840 H   0  0  0  0  0  0  0  0  0  0  0  0
  1  2  1  0
  2  3  1  0
  3  4  1  0
  4  5  1  0
  5  6  1  0
  6  7  1  0
  7  3  1  0
  7  8  1  0
  8  9  1  0
  9 10  1  0
 10 11  2  0
 10 12  1  0
 12 13  2  0
 13 14  1  0
 14 15  1  0
 13 16  1  0
 16 17  2  0
 17 18  1  0
 18 19  1  0
 18 20  2  0
 20 12  1  0
 20 21  1  0
 21 22  1  0
  1 23  1  0
  1 24  1  0
  1 25  1  0
  2 26  1  0
  2 27  1  0
  4 28  1  0
  4 29  1  0
  5 30  1  0
  5 31  1  0
  6 32  1  0
  6 33  1  0
  7 34  1  0
  8 35  1  0
  8 36  1  0
  9 37  1  0
 15 38  1  0
 15 39  1  0
 15 40  1  0
 16 41  1  0
 17 42  1  0
 22 43  1  0
 22 44  1  0
 22 45  1  0
M  END
> <ID>
HT1810

> <Class>
0.0

> <Clusters>
38

> <Fold>
2

$$$$