
     RDKit          3D

 26 25  0  0  0  0  0  0  0  0999 V2000
   -4.4834    0.1929   -0.0289 C   0  0  0  0  0  0  0  0  0  0  0  0
   -3.1674   -0.5673   -0.1656 C   0  0  0  0  0  0  0  0  0  0  0  0
   -1.9674    0.3535    0.0838 C   0  0  0  0  0  0  0  0  0  0  0  0
   -0.6472   -0.4139   -0.0545 C   0  0  0  0  0  0  0  0  0  0  0  0
    0.5536    0.5065    0.1948 C   0  0  0  0  0  0  0  0  0  0  0  0
    1.8739   -0.2609    0.0568 C   0  0  0  0  0  0  0  0  0  0  0  0
    3.0732    0.6597    0.3040 C   0  0  0  0  0  0  0  0  0  0  0  0
    4.3581   -0.0990    0.1805 C   0  0  0  0  0  0  0  0  0  0  0  0
    5.1213   -0.2168    1.1763 O   0  0  0  0  0  0  0  0  0  0  0  0
    4.7147   -0.6670   -1.0389 O   0  0  0  0  0  0  0  0  0  0  0  0
   -4.5300    1.0200   -0.7691 H   0  0  0  0  0  0  0  0  0  0  0  0
   -4.5829    0.6110    0.9955 H   0  0  0  0  0  0  0  0  0  0  0  0
   -5.3327   -0.4979   -0.2144 H   0  0  0  0  0  0  0  0  0  0  0  0
   -3.1047   -0.9960   -1.1896 H   0  0  0  0  0  0  0  0  0  0  0  0
   -3.1574   -1.4032    0.5675 H   0  0  0  0  0  0  0  0  0  0  0  0
   -1.9861    1.1890   -0.6506 H   0  0  0  0  0  0  0  0  0  0  0  0
   -2.0388    0.7814    1.1082 H   0  0  0  0  0  0  0  0  0  0  0  0
   -0.6288   -1.2494    0.6798 H   0  0  0  0  0  0  0  0  0  0  0  0
   -0.5762   -0.8419   -1.0789 H   0  0  0  0  0  0  0  0  0  0  0  0
    0.5355    1.3419   -0.5397 H   0  0  0  0  0  0  0  0  0  0  0  0
    0.4822    0.9347    1.2191 H   0  0  0  0  0  0  0  0  0  0  0  0
    1.9425   -0.6909   -0.9671 H   0  0  0  0  0  0  0  0  0  0  0  0
    1.8938   -1.0951    0.7930 H   0  0  0  0  0  0  0  0  0  0  0  0
    2.9975    1.1034    1.3214 H   0  0  0  0  0  0  0  0  0  0  0  0
    3.0751    1.4869   -0.4381 H   0  0  0  0  0  0  0  0  0  0  0  0
    5.5817   -1.1813   -1.1387 H   0  0  0  0  0  0  0  0  0  0  0  0
  1  2  1  0
  2  3  1  0
  3  4  1  0
  4  5  1  0
  5  6  1  0
  6  7  1  0
  7  8  1  0
  8  9  2  0
  8 10  1  0
  1 11  1  0
  1 12  1  0
  1 13  1  0
  2 14  1  0
  2 15  1  0
  3 16  1  0
  3 17  1  0
  4 18  1  0
  4 19  1  0
  5 20  1  0
  5 21  1  0
  6 22  1  0
  6 23  1  0
  7 24  1  0
  7 25  1  0
 10 26  1  0
M  END
> <ID>
HT0366

> <Class>
0.0

> <Clusters>
252

> <Fold>
2

$$$$