
     RDKit          3D

 35 37  0  0  0  0  0  0  0  0999 V2000
    4.3077   -1.9768    0.2800 C   0  0  0  0  0  0  0  0  0  0  0  0
    3.7805   -0.8181   -0.4320 N   0  0  0  0  0  0  0  0  0  0  0  0
    2.6311   -0.0682   -0.0038 C   0  0  0  0  0  0  0  0  0  0  0  0
    2.2071    0.8993   -0.7613 N   0  0  0  0  0  0  0  0  0  0  0  0
    1.0486    1.7185   -0.5270 C   0  0  0  0  0  0  0  0  0  0  0  0
    1.1131    3.0568   -0.9371 C   0  0  0  0  0  0  0  0  0  0  0  0
    0.0333    3.9172   -0.7411 C   0  0  0  0  0  0  0  0  0  0  0  0
   -1.1342    3.4463   -0.1428 C   0  0  0  0  0  0  0  0  0  0  0  0
   -2.4905    4.5306    0.1067 Cl  0  0  0  0  0  0  0  0  0  0  0  0
   -1.2293    2.1079    0.2447 C   0  0  0  0  0  0  0  0  0  0  0  0
   -0.1534    1.2187    0.0490 C   0  0  0  0  0  0  0  0  0  0  0  0
   -0.3532   -0.2271    0.3875 C   0  0  0  0  0  0  0  0  0  0  0  0
    0.5937   -0.9486    0.9393 N   0  0  0  0  0  0  0  0  0  0  0  0
    0.4081   -2.2998    1.1412 O   0  0  0  0  0  0  0  0  0  0  0  0
    1.9020   -0.3947    1.2720 C   0  0  0  0  0  0  0  0  0  0  0  0
   -1.6693   -0.8436    0.0742 C   0  0  0  0  0  0  0  0  0  0  0  0
   -2.3960   -1.5268    1.0649 C   0  0  0  0  0  0  0  0  0  0  0  0
   -3.6438   -2.0828    0.7664 C   0  0  0  0  0  0  0  0  0  0  0  0
   -4.1783   -1.9558   -0.5185 C   0  0  0  0  0  0  0  0  0  0  0  0
   -3.4674   -1.2692   -1.5064 C   0  0  0  0  0  0  0  0  0  0  0  0
   -2.2194   -0.7117   -1.2123 C   0  0  0  0  0  0  0  0  0  0  0  0
    4.6715   -1.6717    1.2834 H   0  0  0  0  0  0  0  0  0  0  0  0
    5.1600   -2.4094   -0.2853 H   0  0  0  0  0  0  0  0  0  0  0  0
    3.5188   -2.7519    0.3790 H   0  0  0  0  0  0  0  0  0  0  0  0
    4.2509   -0.5394   -1.3231 H   0  0  0  0  0  0  0  0  0  0  0  0
    2.0158    3.4377   -1.3987 H   0  0  0  0  0  0  0  0  0  0  0  0
    0.1070    4.9512   -1.0532 H   0  0  0  0  0  0  0  0  0  0  0  0
   -2.1508    1.7600    0.6957 H   0  0  0  0  0  0  0  0  0  0  0  0
    1.7843    0.5238    1.8884 H   0  0  0  0  0  0  0  0  0  0  0  0
    2.4637   -1.1126    1.9023 H   0  0  0  0  0  0  0  0  0  0  0  0
   -2.0042   -1.6163    2.0706 H   0  0  0  0  0  0  0  0  0  0  0  0
   -4.1990   -2.6078    1.5329 H   0  0  0  0  0  0  0  0  0  0  0  0
   -5.1448   -2.3857   -0.7475 H   0  0  0  0  0  0  0  0  0  0  0  0
   -3.8840   -1.1679   -2.5002 H   0  0  0  0  0  0  0  0  0  0  0  0
   -1.6794   -0.1821   -1.9878 H   0  0  0  0  0  0  0  0  0  0  0  0
  1  2  1  0
  2  3  1  0
  3  4  2  0
  4  5  1  0
  5  6  2  0
  6  7  1  0
  7  8  2  0
  8  9  1  0
  8 10  1  0
 10 11  2  0
 11  5  1  0
 11 12  1  0
 12 13  2  0
 13 14  1  0
 13 15  1  0
 15  3  1  0
 12 16  1  0
 16 17  2  0
 17 18  1  0
 18 19  2  0
 19 20  1  0
 20 21  2  0
 21 16  1  0
  1 22  1  0
  1 23  1  0
  1 24  1  0
  2 25  1  0
  6 26  1  0
  7 27  1  0
 10 28  1  0
 15 29  1  0
 15 30  1  0
 17 31  1  0
 18 32  1  0
 19 33  1  0
 20 34  1  0
 21 35  1  0
M  CHG  2  13   1  14  -1
M  END
> <ID>
HT0450

> <Class>
0.0

> <Clusters>
185

> <Fold>
2

$$$$