
     RDKit          3D

 49 49  0  0  0  0  0  0  0  0999 V2000
    6.3284    2.4199   -1.2039 C   0  0  0  0  0  0  0  0  0  0  0  0
    6.5192    1.0223   -1.0071 O   0  0  0  0  0  0  0  0  0  0  0  0
    5.4838    0.0744   -0.9836 C   0  0  0  0  0  0  0  0  0  0  0  0
    4.1324    0.4338   -1.1587 C   0  0  0  0  0  0  0  0  0  0  0  0
    3.1252   -0.5444   -1.1296 C   0  0  0  0  0  0  0  0  0  0  0  0
    1.6790   -0.1613   -1.2943 C   0  0  0  0  0  0  0  0  0  0  0  0
    0.9691   -0.3022   -0.0253 N   0  0  0  0  0  0  0  0  0  0  0  0
    1.1747    0.5934    1.0768 C   0  0  0  0  0  0  0  0  0  0  0  0
    1.9678    1.5674    0.9667 O   0  0  0  0  0  0  0  0  0  0  0  0
    0.4158    0.4027    2.3578 C   0  0  0  0  0  0  0  0  0  0  0  0
   -0.7875    1.3538    2.4594 C   0  0  0  0  0  0  0  0  0  0  0  0
   -1.8608    1.1312    1.3785 C   0  0  0  0  0  0  0  0  0  0  0  0
   -2.6073   -0.1981    1.5468 C   0  0  0  0  0  0  0  0  0  0  0  0
   -3.7072   -0.3050    0.5261 C   0  0  0  0  0  0  0  0  0  0  0  0
   -5.0005   -0.3893    0.8822 C   0  0  0  0  0  0  0  0  0  0  0  0
   -6.1211   -0.4869   -0.1289 C   0  0  0  0  0  0  0  0  0  0  0  0
   -6.1803    0.7604   -1.0188 C   0  0  0  0  0  0  0  0  0  0  0  0
   -6.0067   -1.7641   -0.9695 C   0  0  0  0  0  0  0  0  0  0  0  0
    3.4725   -1.8859   -0.9164 C   0  0  0  0  0  0  0  0  0  0  0  0
    4.8095   -2.2478   -0.7432 C   0  0  0  0  0  0  0  0  0  0  0  0
    5.8154   -1.2728   -0.7769 C   0  0  0  0  0  0  0  0  0  0  0  0
    7.1502   -1.6352   -0.6042 O   0  0  0  0  0  0  0  0  0  0  0  0
    7.3140    2.9280   -1.1757 H   0  0  0  0  0  0  0  0  0  0  0  0
    5.8605    2.6059   -2.1938 H   0  0  0  0  0  0  0  0  0  0  0  0
    5.6908    2.8356   -0.3951 H   0  0  0  0  0  0  0  0  0  0  0  0
    3.8576    1.4684   -1.3150 H   0  0  0  0  0  0  0  0  0  0  0  0
    1.2153   -0.8314   -2.0507 H   0  0  0  0  0  0  0  0  0  0  0  0
    1.5704    0.8791   -1.6712 H   0  0  0  0  0  0  0  0  0  0  0  0
    0.2746   -1.0767    0.0707 H   0  0  0  0  0  0  0  0  0  0  0  0
    0.0914   -0.6534    2.4624 H   0  0  0  0  0  0  0  0  0  0  0  0
    1.1013    0.6094    3.2079 H   0  0  0  0  0  0  0  0  0  0  0  0
   -1.2503    1.2425    3.4642 H   0  0  0  0  0  0  0  0  0  0  0  0
   -0.4224    2.4019    2.3864 H   0  0  0  0  0  0  0  0  0  0  0  0
   -2.5965    1.9622    1.4544 H   0  0  0  0  0  0  0  0  0  0  0  0
   -1.4048    1.1872    0.3664 H   0  0  0  0  0  0  0  0  0  0  0  0
   -3.0136   -0.2682    2.5801 H   0  0  0  0  0  0  0  0  0  0  0  0
   -1.9150   -1.0504    1.3899 H   0  0  0  0  0  0  0  0  0  0  0  0
   -3.4298   -0.3098   -0.5242 H   0  0  0  0  0  0  0  0  0  0  0  0
   -5.2684   -0.3822    1.9352 H   0  0  0  0  0  0  0  0  0  0  0  0
   -7.0787   -0.5411    0.4352 H   0  0  0  0  0  0  0  0  0  0  0  0
   -7.0708    0.7124   -1.6813 H   0  0  0  0  0  0  0  0  0  0  0  0
   -5.2720    0.8424   -1.6533 H   0  0  0  0  0  0  0  0  0  0  0  0
   -6.2643    1.6733   -0.3908 H   0  0  0  0  0  0  0  0  0  0  0  0
   -5.9644   -2.6549   -0.3067 H   0  0  0  0  0  0  0  0  0  0  0  0
   -6.8945   -1.8642   -1.6300 H   0  0  0  0  0  0  0  0  0  0  0  0
   -5.0950   -1.7445   -1.6037 H   0  0  0  0  0  0  0  0  0  0  0  0
    2.7060   -2.6507   -0.8824 H   0  0  0  0  0  0  0  0  0  0  0  0
    5.0639   -3.2876   -0.5806 H   0  0  0  0  0  0  0  0  0  0  0  0
    7.4227   -2.5993   -0.4525 H   0  0  0  0  0  0  0  0  0  0  0  0
  1  2  1  0
  2  3  1  0
  3  4  2  0
  4  5  1  0
  5  6  1  0
  6  7  1  0
  7  8  1  0
  8  9  2  0
  8 10  1  0
 10 11  1  0
 11 12  1  0
 12 13  1  0
 13 14  1  0
 14 15  2  3
 15 16  1  0
 16 17  1  0
 16 18  1  0
  5 19  2  0
 19 20  1  0
 20 21  2  0
 21  3  1  0
 21 22  1  0
  1 23  1  0
  1 24  1  0
  1 25  1  0
  4 26  1  0
  6 27  1  0
  6 28  1  0
  7 29  1  0
 10 30  1  0
 10 31  1  0
 11 32  1  0
 11 33  1  0
 12 34  1  0
 12 35  1  0
 13 36  1  0
 13 37  1  0
 14 38  1  0
 15 39  1  0
 16 40  1  0
 17 41  1  0
 17 42  1  0
 17 43  1  0
 18 44  1  0
 18 45  1  0
 18 46  1  0
 19 47  1  0
 20 48  1  0
 22 49  1  0
M  END
> <ID>
HT0367

> <Class>
0.0

> <Clusters>
9

> <Fold>
2

$$$$