
     RDKit          3D

109112  0  0  0  0  0  0  0  0999 V2000
    0.2337    5.5489   -1.1827 C   0  0  0  0  0  0  0  0  0  0  0  0
    0.7915    4.3009   -0.4867 C   0  0  0  0  0  0  0  0  0  0  0  0
    1.1419    4.6336    0.9719 C   0  0  0  0  0  0  0  0  0  0  0  0
   -0.2263    3.1379   -0.5938 C   0  0  0  0  0  0  0  0  0  0  0  0
    0.3159    1.7879   -0.0795 C   0  0  2  0  0  0  0  0  0  0  0  0
    1.5285    1.4123   -0.8103 N   0  0  0  0  0  0  0  0  0  0  0  0
    2.7872    1.1698   -0.1633 C   0  0  0  0  0  0  0  0  0  0  0  0
    2.8626    1.1485    1.0959 O   0  0  0  0  0  0  0  0  0  0  0  0
    4.0226    0.9060   -0.9873 C   0  0  2  0  0  0  0  0  0  0  0  0
    4.5210   -0.5388   -0.7927 C   0  0  0  0  0  0  0  0  0  0  0  0
    3.5154   -1.5772   -1.3186 C   0  0  0  0  0  0  0  0  0  0  0  0
    4.0627   -2.9788   -1.2070 C   0  0  0  0  0  0  0  0  0  0  0  0
    4.4057   -3.7055   -2.3612 C   0  0  0  0  0  0  0  0  0  0  0  0
    4.9019   -5.0088   -2.2521 C   0  0  0  0  0  0  0  0  0  0  0  0
    5.0608   -5.5962   -0.9937 C   0  0  0  0  0  0  0  0  0  0  0  0
    4.7136   -4.8859    0.1567 C   0  0  0  0  0  0  0  0  0  0  0  0
    4.2158   -3.5823    0.0540 C   0  0  0  0  0  0  0  0  0  0  0  0
    5.0794    1.8531   -0.6174 N   0  0  0  0  0  0  0  0  0  0  0  0
    6.1133    2.2416   -1.5337 C   0  0  0  0  0  0  0  0  0  0  0  0
    6.1771    1.7235   -2.6817 O   0  0  0  0  0  0  0  0  0  0  0  0
    7.1339    3.2623   -1.1262 C   0  0  0  0  0  0  0  0  0  0  0  0
    7.9688    2.7491   -0.0231 N   0  0  0  0  0  0  0  0  0  0  0  0
    8.8848    1.6927   -0.4970 C   0  0  0  0  0  0  0  0  0  0  0  0
    9.8937    1.3033    0.6022 C   0  0  0  0  0  0  0  0  0  0  0  0
    9.5605    1.9041    1.8393 O   0  0  0  0  0  0  0  0  0  0  0  0
    9.6411    3.3137    1.7183 C   0  0  0  0  0  0  0  0  0  0  0  0
    8.7412    3.8494    0.5859 C   0  0  0  0  0  0  0  0  0  0  0  0
   -0.7183    0.7057   -0.2516 C   0  0  0  0  0  0  0  0  0  0  0  0
   -1.1401    0.4265   -1.4068 O   0  0  0  0  0  0  0  0  0  0  0  0
   -1.2124   -0.0154    0.8867 N   0  0  0  0  0  0  0  0  0  0  0  0
   -2.2710   -1.0203    0.7720 C   0  0  1  0  0  0  0  0  0  0  0  0
   -2.2047   -2.0023    1.9579 C   0  0  0  0  0  0  0  0  0  0  0  0
   -3.2551   -3.0817    1.8540 C   0  0  0  0  0  0  0  0  0  0  0  0
   -3.1952   -4.0359    0.8235 C   0  0  0  0  0  0  0  0  0  0  0  0
   -4.1866   -5.0156    0.7116 C   0  0  0  0  0  0  0  0  0  0  0  0
   -5.2414   -5.0530    1.6281 C   0  0  0  0  0  0  0  0  0  0  0  0
   -5.3003   -4.1175    2.6645 C   0  0  0  0  0  0  0  0  0  0  0  0
   -4.3096   -3.1376    2.7819 C   0  0  0  0  0  0  0  0  0  0  0  0
   -3.6116   -0.3319    0.7190 C   0  0  0  0  0  0  0  0  0  0  0  0
   -3.9231    0.4904    1.6213 O   0  0  0  0  0  0  0  0  0  0  0  0
   -4.5400   -0.6430   -0.3314 N   0  0  0  0  0  0  0  0  0  0  0  0
   -5.8548    0.0032   -0.4393 C   0  0  1  0  0  0  0  0  0  0  0  0
   -6.5748   -0.3774   -1.7629 C   0  0  0  0  0  0  0  0  0  0  0  0
   -7.2193   -1.7876   -1.9023 C   0  0  0  0  0  0  0  0  0  0  0  0
   -6.2677   -2.9511   -1.5992 C   0  0  0  0  0  0  0  0  0  0  0  0
   -8.5300   -1.9384   -1.1201 C   0  0  0  0  0  0  0  0  0  0  0  0
   -6.7031   -0.2359    0.7968 C   0  0  0  0  0  0  0  0  0  0  0  0
   -6.4860   -1.2185    1.4932 O   0  0  0  0  0  0  0  0  0  0  0  0
   -7.8073    0.7249    1.1949 C   0  0  1  0  0  0  0  0  0  0  0  0
   -7.8731    2.1429    0.6249 C   0  0  0  0  0  0  0  0  0  0  0  0
   -9.0559    0.1488    1.7550 C   0  0  0  0  0  0  0  0  0  0  0  0
   -8.0575    0.7128    2.5810 O   0  0  0  0  0  0  0  0  0  0  0  0
   -0.7105    5.8782   -0.6975 H   0  0  0  0  0  0  0  0  0  0  0  0
    0.0304    5.3335   -2.2528 H   0  0  0  0  0  0  0  0  0  0  0  0
    0.9725    6.3776   -1.1354 H   0  0  0  0  0  0  0  0  0  0  0  0
    1.7298    4.0175   -1.0120 H   0  0  0  0  0  0  0  0  0  0  0  0
    0.2229    4.8307    1.5611 H   0  0  0  0  0  0  0  0  0  0  0  0
    1.7921    5.5323    1.0182 H   0  0  0  0  0  0  0  0  0  0  0  0
    1.7066    3.8054    1.4435 H   0  0  0  0  0  0  0  0  0  0  0  0
   -1.1488    3.4005   -0.0277 H   0  0  0  0  0  0  0  0  0  0  0  0
   -0.5172    3.0164   -1.6624 H   0  0  0  0  0  0  0  0  0  0  0  0
    0.5303    1.8910    1.0052 H   0  0  0  0  0  0  0  0  0  0  0  0
    1.4713    1.3308   -1.8523 H   0  0  0  0  0  0  0  0  0  0  0  0
    3.7685    1.0577   -2.0610 H   0  0  0  0  0  0  0  0  0  0  0  0
    4.7241   -0.7187    0.2858 H   0  0  0  0  0  0  0  0  0  0  0  0
    5.4786   -0.6616   -1.3450 H   0  0  0  0  0  0  0  0  0  0  0  0
    2.5672   -1.5160   -0.7439 H   0  0  0  0  0  0  0  0  0  0  0  0
    3.2739   -1.3412   -2.3784 H   0  0  0  0  0  0  0  0  0  0  0  0
    4.2911   -3.2638   -3.3441 H   0  0  0  0  0  0  0  0  0  0  0  0
    5.1630   -5.5658   -3.1427 H   0  0  0  0  0  0  0  0  0  0  0  0
    5.4524   -6.6029   -0.9139 H   0  0  0  0  0  0  0  0  0  0  0  0
    4.8285   -5.3476    1.1280 H   0  0  0  0  0  0  0  0  0  0  0  0
    3.9430   -3.0473    0.9546 H   0  0  0  0  0  0  0  0  0  0  0  0
    5.1254    2.2226    0.3633 H   0  0  0  0  0  0  0  0  0  0  0  0
    7.7587    3.5548   -1.9998 H   0  0  0  0  0  0  0  0  0  0  0  0
    6.5767    4.1667   -0.7975 H   0  0  0  0  0  0  0  0  0  0  0  0
    9.4448    2.0306   -1.3996 H   0  0  0  0  0  0  0  0  0  0  0  0
    8.2928    0.7915   -0.7776 H   0  0  0  0  0  0  0  0  0  0  0  0
    9.8854    0.2007    0.7351 H   0  0  0  0  0  0  0  0  0  0  0  0
   10.9301    1.5811    0.2985 H   0  0  0  0  0  0  0  0  0  0  0  0
    9.3188    3.7596    2.6834 H   0  0  0  0  0  0  0  0  0  0  0  0
   10.6988    3.6243    1.5614 H   0  0  0  0  0  0  0  0  0  0  0  0
    9.3709    4.3531   -0.1839 H   0  0  0  0  0  0  0  0  0  0  0  0
    8.0454    4.6062    1.0111 H   0  0  0  0  0  0  0  0  0  0  0  0
   -0.8576    0.2408    1.8369 H   0  0  0  0  0  0  0  0  0  0  0  0
   -2.1080   -1.6025   -0.1607 H   0  0  0  0  0  0  0  0  0  0  0  0
   -2.3187   -1.4390    2.9108 H   0  0  0  0  0  0  0  0  0  0  0  0
   -1.2030   -2.4837    1.9853 H   0  0  0  0  0  0  0  0  0  0  0  0
   -2.3812   -4.0216    0.1097 H   0  0  0  0  0  0  0  0  0  0  0  0
   -4.1408   -5.7403   -0.0914 H   0  0  0  0  0  0  0  0  0  0  0  0
   -6.0096   -5.8104    1.5399 H   0  0  0  0  0  0  0  0  0  0  0  0
   -6.1144   -4.1518    3.3777 H   0  0  0  0  0  0  0  0  0  0  0  0
   -4.3749   -2.4150    3.5865 H   0  0  0  0  0  0  0  0  0  0  0  0
   -4.2080   -1.2679   -1.0979 H   0  0  0  0  0  0  0  0  0  0  0  0
   -5.6533    1.0930   -0.5001 H   0  0  0  0  0  0  0  0  0  0  0  0
   -5.8448   -0.2533   -2.5904 H   0  0  0  0  0  0  0  0  0  0  0  0
   -7.3617    0.3803   -1.9654 H   0  0  0  0  0  0  0  0  0  0  0  0
   -7.4965   -1.8860   -2.9762 H   0  0  0  0  0  0  0  0  0  0  0  0
   -5.3694   -2.8947   -2.2465 H   0  0  0  0  0  0  0  0  0  0  0  0
   -6.7697   -3.9212   -1.8098 H   0  0  0  0  0  0  0  0  0  0  0  0
   -5.9627   -2.9466   -0.5336 H   0  0  0  0  0  0  0  0  0  0  0  0
   -9.1259   -2.7733   -1.5452 H   0  0  0  0  0  0  0  0  0  0  0  0
   -8.3437   -2.1827   -0.0584 H   0  0  0  0  0  0  0  0  0  0  0  0
   -9.1438   -1.0163   -1.1829 H   0  0  0  0  0  0  0  0  0  0  0  0
   -6.9000    2.6544    0.7654 H   0  0  0  0  0  0  0  0  0  0  0  0
   -8.1120    2.0974   -0.4552 H   0  0  0  0  0  0  0  0  0  0  0  0
   -8.6520    2.7509    1.1331 H   0  0  0  0  0  0  0  0  0  0  0  0
   -9.9660    0.7850    1.7337 H   0  0  0  0  0  0  0  0  0  0  0  0
   -9.1094   -0.9506    1.9071 H   0  0  0  0  0  0  0  0  0  0  0  0
  1  2  1  0
  2  3  1  0
  2  4  1  0
  5  4  1  0
  5  6  1  0
  6  7  1  0
  7  8  2  0
  7  9  1  0
  9 10  1  0
 10 11  1  0
 11 12  1  0
 12 13  2  0
 13 14  1  0
 14 15  2  0
 15 16  1  0
 16 17  2  0
 17 12  1  0
  9 18  1  0
 18 19  1  0
 19 20  2  0
 19 21  1  0
 21 22  1  0
 22 23  1  0
 23 24  1  0
 24 25  1  0
 25 26  1  0
 26 27  1  0
 27 22  1  0
  5 28  1  0
 28 29  2  0
 28 30  1  0
 30 31  1  0
 31 32  1  0
 32 33  1  0
 33 34  2  0
 34 35  1  0
 35 36  2  0
 36 37  1  0
 37 38  2  0
 38 33  1  0
 31 39  1  0
 39 40  2  0
 39 41  1  0
 41 42  1  0
 42 43  1  0
 43 44  1  0
 44 45  1  0
 44 46  1  0
 42 47  1  0
 47 48  2  0
 49 47  1  1
 49 50  1  0
 49 51  1  0
 51 52  1  0
 52 49  1  0
  1 53  1  0
  1 54  1  0
  1 55  1  0
  2 56  1  0
  3 57  1  0
  3 58  1  0
  3 59  1  0
  4 60  1  0
  4 61  1  0
  5 62  1  1
  6 63  1  0
  9 64  1  6
 10 65  1  0
 10 66  1  0
 11 67  1  0
 11 68  1  0
 13 69  1  0
 14 70  1  0
 15 71  1  0
 16 72  1  0
 17 73  1  0
 18 74  1  0
 21 75  1  0
 21 76  1  0
 23 77  1  0
 23 78  1  0
 24 79  1  0
 24 80  1  0
 26 81  1  0
 26 82  1  0
 27 83  1  0
 27 84  1  0
 30 85  1  0
 31 86  1  6
 32 87  1  0
 32 88  1  0
 34 89  1  0
 35 90  1  0
 36 91  1  0
 37 92  1  0
 38 93  1  0
 41 94  1  0
 42 95  1  6
 43 96  1  0
 43 97  1  0
 44 98  1  0
 45 99  1  0
 45100  1  0
 45101  1  0
 46102  1  0
 46103  1  0
 46104  1  0
 50105  1  0
 50106  1  0
 50107  1  0
 51108  1  0
 51109  1  0
M  END
> <ID>
HT0383

> <Class>
0.0

> <Clusters>
214

> <Fold>
2

$$$$