
     RDKit          3D

 62 62  0  0  0  0  0  0  0  0999 V2000
   -8.3617    0.9563   -0.2452 C   0  0  0  0  0  0  0  0  0  0  0  0
   -7.0842    1.5804   -0.8068 C   0  0  0  0  0  0  0  0  0  0  0  0
   -5.9478    1.6400    0.2304 C   0  0  0  0  0  0  0  0  0  0  0  0
   -5.2733    0.2791    0.4816 C   0  0  0  0  0  0  0  0  0  0  0  0
   -4.3686   -0.1733   -0.6942 C   0  0  0  0  0  0  0  0  0  0  0  0
   -2.8625   -0.3163   -0.3237 C   0  0  0  0  0  0  0  0  0  0  0  0
   -2.2775    1.0768   -0.0228 C   0  0  0  0  0  0  0  0  0  0  0  0
   -2.7335   -1.1357    0.8136 O   0  0  0  0  0  0  0  0  0  0  0  0
   -2.1183   -0.9293   -1.5093 C   0  0  0  0  0  0  0  0  0  0  0  0
   -0.8655   -1.4340   -1.5100 C   0  0  0  0  0  0  0  0  0  0  0  0
    0.0619   -1.5596   -0.3145 C   0  0  0  0  0  0  0  0  0  0  0  0
    0.2758   -3.0368    0.0803 C   0  0  0  0  0  0  0  0  0  0  0  0
   -0.3796   -3.3215    1.2903 O   0  0  0  0  0  0  0  0  0  0  0  0
    1.7868   -3.2299    0.2578 C   0  0  0  0  0  0  0  0  0  0  0  0
    2.4040   -1.8371    0.2497 C   0  0  0  0  0  0  0  0  0  0  0  0
    2.4287   -1.3194    1.5568 O   0  0  0  0  0  0  0  0  0  0  0  0
    1.4643   -1.0206   -0.6395 C   0  0  0  0  0  0  0  0  0  0  0  0
    1.5815    0.5059   -0.4472 C   0  0  0  0  0  0  0  0  0  0  0  0
    2.9781    0.9814   -0.7476 C   0  0  0  0  0  0  0  0  0  0  0  0
    3.7449    1.5514    0.1946 C   0  0  0  0  0  0  0  0  0  0  0  0
    5.1578    1.9758   -0.0931 C   0  0  0  0  0  0  0  0  0  0  0  0
    6.0835    0.7544   -0.1976 C   0  0  0  0  0  0  0  0  0  0  0  0
    7.5390    1.1517   -0.4812 C   0  0  0  0  0  0  0  0  0  0  0  0
    8.1554    1.9050    0.6626 C   0  0  0  0  0  0  0  0  0  0  0  0
    8.5281    3.0970    0.4985 O   0  0  0  0  0  0  0  0  0  0  0  0
    8.3367    1.2974    1.9025 O   0  0  0  0  0  0  0  0  0  0  0  0
   -8.6915    1.5013    0.6656 H   0  0  0  0  0  0  0  0  0  0  0  0
   -8.2059   -0.1136    0.0028 H   0  0  0  0  0  0  0  0  0  0  0  0
   -9.1697    1.0193   -1.0046 H   0  0  0  0  0  0  0  0  0  0  0  0
   -7.3209    2.6189   -1.1258 H   0  0  0  0  0  0  0  0  0  0  0  0
   -6.7658    1.0195   -1.7108 H   0  0  0  0  0  0  0  0  0  0  0  0
   -6.3477    2.0311    1.1912 H   0  0  0  0  0  0  0  0  0  0  0  0
   -5.1803    2.3676   -0.1130 H   0  0  0  0  0  0  0  0  0  0  0  0
   -4.6917    0.3547    1.4245 H   0  0  0  0  0  0  0  0  0  0  0  0
   -6.0435   -0.4959    0.6761 H   0  0  0  0  0  0  0  0  0  0  0  0
   -4.4637    0.5193   -1.5598 H   0  0  0  0  0  0  0  0  0  0  0  0
   -4.7434   -1.1587   -1.0522 H   0  0  0  0  0  0  0  0  0  0  0  0
   -2.7743    1.5383    0.8553 H   0  0  0  0  0  0  0  0  0  0  0  0
   -1.1978    1.0240    0.2079 H   0  0  0  0  0  0  0  0  0  0  0  0
   -2.4085    1.7516   -0.8962 H   0  0  0  0  0  0  0  0  0  0  0  0
   -3.1434   -2.0138    0.5986 H   0  0  0  0  0  0  0  0  0  0  0  0
   -2.6447   -0.9675   -2.4597 H   0  0  0  0  0  0  0  0  0  0  0  0
   -0.5051   -1.8459   -2.4493 H   0  0  0  0  0  0  0  0  0  0  0  0
   -0.3221   -1.0117    0.5688 H   0  0  0  0  0  0  0  0  0  0  0  0
   -0.0761   -3.7350   -0.7192 H   0  0  0  0  0  0  0  0  0  0  0  0
   -1.3099   -3.5764    1.0591 H   0  0  0  0  0  0  0  0  0  0  0  0
    2.0348   -3.7835    1.1904 H   0  0  0  0  0  0  0  0  0  0  0  0
    2.1887   -3.8085   -0.6046 H   0  0  0  0  0  0  0  0  0  0  0  0
    3.4320   -1.8564   -0.1837 H   0  0  0  0  0  0  0  0  0  0  0  0
    3.2404   -1.6901    1.9930 H   0  0  0  0  0  0  0  0  0  0  0  0
    1.7170   -1.2603   -1.7000 H   0  0  0  0  0  0  0  0  0  0  0  0
    0.8896    1.0138   -1.1517 H   0  0  0  0  0  0  0  0  0  0  0  0
    1.2757    0.7908    0.5834 H   0  0  0  0  0  0  0  0  0  0  0  0
    3.3720    0.8310   -1.7500 H   0  0  0  0  0  0  0  0  0  0  0  0
    3.3516    1.7121    1.1954 H   0  0  0  0  0  0  0  0  0  0  0  0
    5.1887    2.5683   -1.0330 H   0  0  0  0  0  0  0  0  0  0  0  0
    5.5001    2.6293    0.7375 H   0  0  0  0  0  0  0  0  0  0  0  0
    6.0284    0.1573    0.7386 H   0  0  0  0  0  0  0  0  0  0  0  0
    5.7353    0.1026   -1.0278 H   0  0  0  0  0  0  0  0  0  0  0  0
    8.1377    0.2332   -0.6594 H   0  0  0  0  0  0  0  0  0  0  0  0
    7.5815    1.7641   -1.4084 H   0  0  0  0  0  0  0  0  0  0  0  0
    8.0782    0.3305    2.0562 H   0  0  0  0  0  0  0  0  0  0  0  0
  1  2  1  0
  2  3  1  0
  3  4  1  0
  4  5  1  0
  5  6  1  0
  6  7  1  0
  6  8  1  0
  6  9  1  0
  9 10  2  3
 10 11  1  0
 11 12  1  0
 12 13  1  0
 12 14  1  0
 14 15  1  0
 15 16  1  0
 15 17  1  0
 17 11  1  0
 17 18  1  0
 18 19  1  0
 19 20  2  3
 20 21  1  0
 21 22  1  0
 22 23  1  0
 23 24  1  0
 24 25  2  0
 24 26  1  0
  1 27  1  0
  1 28  1  0
  1 29  1  0
  2 30  1  0
  2 31  1  0
  3 32  1  0
  3 33  1  0
  4 34  1  0
  4 35  1  0
  5 36  1  0
  5 37  1  0
  7 38  1  0
  7 39  1  0
  7 40  1  0
  8 41  1  0
  9 42  1  0
 10 43  1  0
 11 44  1  0
 12 45  1  0
 13 46  1  0
 14 47  1  0
 14 48  1  0
 15 49  1  0
 16 50  1  0
 17 51  1  0
 18 52  1  0
 18 53  1  0
 19 54  1  0
 20 55  1  0
 21 56  1  0
 21 57  1  0
 22 58  1  0
 22 59  1  0
 23 60  1  0
 23 61  1  0
 26 62  1  0
M  END
> <ID>
HT0381

> <Class>
0.0

> <Clusters>
81

> <Fold>
2

$$$$