
     RDKit          3D

 73 78  0  0  0  0  0  0  0  0999 V2000
    8.7739    3.1004    0.3208 C   0  0  0  0  0  0  0  0  0  0  0  0
    9.5522    1.8233    0.3069 C   0  0  0  0  0  0  0  0  0  0  0  0
    9.3181    0.6966   -0.4742 C   0  0  0  0  0  0  0  0  0  0  0  0
    8.2192    0.4811   -1.4753 C   0  0  0  0  0  0  0  0  0  0  0  0
    6.9889    0.1093   -0.8518 O   0  0  0  0  0  0  0  0  0  0  0  0
    6.8052   -1.0791   -0.1368 C   0  0  0  0  0  0  0  0  0  0  0  0
    7.7951   -1.7963    0.1960 O   0  0  0  0  0  0  0  0  0  0  0  0
    5.4808   -1.5019    0.1960 N   0  0  0  0  0  0  0  0  0  0  0  0
    5.1444   -2.2895    1.3766 C   0  0  0  0  0  0  0  0  0  0  0  0
    3.6190   -2.4195    1.3498 C   0  0  0  0  0  0  0  0  0  0  0  0
    3.2525   -2.2023   -0.1204 C   0  0  2  0  0  0  0  0  0  0  0  0
    4.3331   -1.2658   -0.6693 C   0  0  0  0  0  0  0  0  0  0  0  0
    1.8749   -1.7220   -0.2912 N   0  0  0  0  0  0  0  0  0  0  0  0
    0.7628   -2.6271   -0.5610 C   0  0  0  0  0  0  0  0  0  0  0  0
   -0.5415   -1.8331   -0.3379 C   0  0  0  0  0  0  0  0  0  0  0  0
   -0.0954   -0.4436   -0.0007 C   0  0  0  0  0  0  0  0  0  0  0  0
   -0.8485    0.6125    0.3402 C   0  0  0  0  0  0  0  0  0  0  0  0
   -2.3211    0.5739    0.5810 C   0  0  0  0  0  0  0  0  0  0  0  0
   -2.8661    1.2609    1.6222 C   0  0  0  0  0  0  0  0  0  0  0  0
   -4.2842    1.2071    1.7980 N   0  0  0  0  0  0  0  0  0  0  0  0
   -5.2781    0.3812    1.1791 C   0  0  2  0  0  0  0  0  0  0  0  0
   -4.9181    0.3729   -0.6116 S   0  0  0  0  0  0  0  0  0  0  0  0
   -3.2027   -0.2428   -0.3643 C   0  0  0  0  0  0  0  0  0  0  0  0
   -6.3801    1.1789    1.6800 C   0  0  2  0  0  0  0  0  0  0  0  0
   -7.1381    1.8972    0.6490 N   0  0  0  0  0  0  0  0  0  0  0  0
   -8.5517    1.7100    0.5139 C   0  0  0  0  0  0  0  0  0  0  0  0
   -9.2880    1.6991    1.5401 O   0  0  0  0  0  0  0  0  0  0  0  0
   -9.1281    1.4810   -0.8212 C   0  0  0  0  0  0  0  0  0  0  0  0
  -10.3536    1.8152   -1.0700 N   0  0  0  0  0  0  0  0  0  0  0  0
  -10.9347    1.5607   -2.2886 O   0  0  0  0  0  0  0  0  0  0  0  0
   -8.3146    0.8127   -1.8494 C   0  0  0  0  0  0  0  0  0  0  0  0
   -7.8091    1.4933   -2.9199 N   0  0  0  0  0  0  0  0  0  0  0  0
   -7.0759    0.3358   -3.8655 S   0  0  0  0  0  0  0  0  0  0  0  0
   -7.4248   -0.9635   -2.8888 C   0  0  0  0  0  0  0  0  0  0  0  0
   -7.2450   -2.3322   -3.2327 N   0  0  0  0  0  0  0  0  0  0  0  0
   -8.1438   -0.5462   -1.8272 N   0  0  0  0  0  0  0  0  0  0  0  0
   -5.3667    2.0508    2.3572 C   0  0  0  0  0  0  0  0  0  0  0  0
   -5.4266    3.0741    3.0880 O   0  0  0  0  0  0  0  0  0  0  0  0
   -2.0809    2.0879    2.5752 C   0  0  0  0  0  0  0  0  0  0  0  0
   -2.5496    3.1875    2.9693 O   0  0  0  0  0  0  0  0  0  0  0  0
   -0.8340    1.6800    3.0550 O   0  0  0  0  0  0  0  0  0  0  0  0
    1.3489   -0.4517    0.0682 C   0  0  0  0  0  0  0  0  0  0  0  0
    2.0487    0.5292    0.4307 O   0  0  0  0  0  0  0  0  0  0  0  0
   10.2504   -0.1882   -0.1915 O   0  0  0  0  0  0  0  0  0  0  0  0
   11.0220    0.3827    0.7116 C   0  0  0  0  0  0  0  0  0  0  0  0
   12.0410   -0.1708    1.2093 O   0  0  0  0  0  0  0  0  0  0  0  0
   10.6239    1.5974    1.0307 O   0  0  0  0  0  0  0  0  0  0  0  0
    9.2442    3.8382    1.0013 H   0  0  0  0  0  0  0  0  0  0  0  0
    7.7279    2.9077    0.6717 H   0  0  0  0  0  0  0  0  0  0  0  0
    8.7371    3.5425   -0.6970 H   0  0  0  0  0  0  0  0  0  0  0  0
    8.0591    1.4191   -2.0378 H   0  0  0  0  0  0  0  0  0  0  0  0
    8.5156   -0.3162   -2.1988 H   0  0  0  0  0  0  0  0  0  0  0  0
    5.6318   -3.2882    1.3097 H   0  0  0  0  0  0  0  0  0  0  0  0
    5.4653   -1.7515    2.2956 H   0  0  0  0  0  0  0  0  0  0  0  0
    3.1727   -1.6156    1.9799 H   0  0  0  0  0  0  0  0  0  0  0  0
    3.2836   -3.4120    1.7091 H   0  0  0  0  0  0  0  0  0  0  0  0
    3.3602   -3.1769   -0.6451 H   0  0  0  0  0  0  0  0  0  0  0  0
    4.0636   -0.1938   -0.6239 H   0  0  0  0  0  0  0  0  0  0  0  0
    4.5729   -1.5232   -1.7276 H   0  0  0  0  0  0  0  0  0  0  0  0
    0.7901   -3.5098    0.1282 H   0  0  0  0  0  0  0  0  0  0  0  0
    0.8289   -2.9778   -1.6125 H   0  0  0  0  0  0  0  0  0  0  0  0
   -1.1264   -1.8370   -1.2779 H   0  0  0  0  0  0  0  0  0  0  0  0
   -1.1375   -2.2722    0.4980 H   0  0  0  0  0  0  0  0  0  0  0  0
   -0.3264    1.5248    0.6171 H   0  0  0  0  0  0  0  0  0  0  0  0
   -5.2611   -0.6418    1.6094 H   0  0  0  0  0  0  0  0  0  0  0  0
   -2.7421   -0.2704   -1.3728 H   0  0  0  0  0  0  0  0  0  0  0  0
   -3.2721   -1.2986    0.0017 H   0  0  0  0  0  0  0  0  0  0  0  0
   -7.0185    0.6345    2.4120 H   0  0  0  0  0  0  0  0  0  0  0  0
   -6.6556    2.5188   -0.0393 H   0  0  0  0  0  0  0  0  0  0  0  0
  -11.8747    1.8873   -2.4788 H   0  0  0  0  0  0  0  0  0  0  0  0
   -6.4370   -2.6338   -3.8221 H   0  0  0  0  0  0  0  0  0  0  0  0
   -7.9632   -3.0286   -2.9298 H   0  0  0  0  0  0  0  0  0  0  0  0
   -0.4923    0.7328    2.9341 H   0  0  0  0  0  0  0  0  0  0  0  0
  1  2  1  0
  2  3  2  0
  3  4  1  0
  4  5  1  0
  5  6  1  0
  6  7  2  0
  6  8  1  0
  8  9  1  0
  9 10  1  0
 10 11  1  0
 11 12  1  0
 12  8  1  0
 11 13  1  0
 13 14  1  0
 14 15  1  0
 15 16  1  0
 16 17  2  0
 17 18  1  0
 18 19  2  0
 19 20  1  0
 20 21  1  0
 21 22  1  0
 22 23  1  0
 23 18  1  0
 21 24  1  0
 24 25  1  0
 25 26  1  0
 26 27  2  0
 26 28  1  0
 28 29  2  3
 29 30  1  0
 28 31  1  0
 31 32  2  0
 32 33  1  0
 33 34  1  0
 34 35  1  0
 34 36  2  0
 36 31  1  0
 24 37  1  0
 37 20  1  0
 37 38  2  0
 19 39  1  0
 39 40  2  0
 39 41  1  0
 16 42  1  0
 42 13  1  0
 42 43  2  0
  3 44  1  0
 44 45  1  0
 45 46  2  0
 45 47  1  0
 47  2  1  0
  1 48  1  0
  1 49  1  0
  1 50  1  0
  4 51  1  0
  4 52  1  0
  9 53  1  0
  9 54  1  0
 10 55  1  0
 10 56  1  0
 11 57  1  6
 12 58  1  0
 12 59  1  0
 14 60  1  0
 14 61  1  0
 15 62  1  0
 15 63  1  0
 17 64  1  0
 21 65  1  1
 23 66  1  0
 23 67  1  0
 24 68  1  1
 25 69  1  0
 30 70  1  0
 35 71  1  0
 35 72  1  0
 41 73  1  0
M  END
> <ID>
HT0426

> <Class>
0.0

> <Clusters>
45

> <Fold>
2

$$$$