
     RDKit          3D

 34 34  0  0  0  0  0  0  0  0999 V2000
   -0.2112   -2.7200   -0.9007 C   0  0  0  0  0  0  0  0  0  0  0  0
   -0.3125   -1.2413   -0.4993 C   0  0  0  0  0  0  0  0  0  0  0  0
   -1.6164   -0.6688   -0.9103 N   0  0  0  0  0  0  0  0  0  0  0  0
   -2.2059    0.3471    0.0005 C   0  0  0  0  0  0  0  0  0  0  0  0
   -3.4065    0.9810   -0.7293 C   0  0  0  0  0  0  0  0  0  0  0  0
   -2.7183   -0.3014    1.3079 C   0  0  0  0  0  0  0  0  0  0  0  0
   -1.2032    1.4761    0.3306 C   0  0  0  0  0  0  0  0  0  0  0  0
    0.8031   -0.4747   -1.1719 C   0  0  0  0  0  0  0  0  0  0  0  0
    0.7381   -0.2801   -2.4171 O   0  0  0  0  0  0  0  0  0  0  0  0
    1.9524    0.0785   -0.4146 C   0  0  0  0  0  0  0  0  0  0  0  0
    2.5872    1.2491   -0.8676 C   0  0  0  0  0  0  0  0  0  0  0  0
    3.6681    1.7873   -0.1636 C   0  0  0  0  0  0  0  0  0  0  0  0
    4.1329    1.1601    0.9940 C   0  0  0  0  0  0  0  0  0  0  0  0
    3.5205   -0.0114    1.4480 C   0  0  0  0  0  0  0  0  0  0  0  0
    4.1160   -0.8074    2.8934 Cl  0  0  0  0  0  0  0  0  0  0  0  0
    2.4375   -0.5534    0.7466 C   0  0  0  0  0  0  0  0  0  0  0  0
    0.7865   -3.1260   -0.6275 H   0  0  0  0  0  0  0  0  0  0  0  0
   -0.9829   -3.3123   -0.3642 H   0  0  0  0  0  0  0  0  0  0  0  0
   -0.3630   -2.8410   -1.9950 H   0  0  0  0  0  0  0  0  0  0  0  0
   -0.1971   -1.2047    0.6012 H   0  0  0  0  0  0  0  0  0  0  0  0
   -2.3220   -1.4303   -1.0560 H   0  0  0  0  0  0  0  0  0  0  0  0
   -3.8895    1.7625   -0.1032 H   0  0  0  0  0  0  0  0  0  0  0  0
   -4.1694    0.2094   -0.9702 H   0  0  0  0  0  0  0  0  0  0  0  0
   -3.0756    1.4484   -1.6819 H   0  0  0  0  0  0  0  0  0  0  0  0
   -3.2715    0.4436    1.9198 H   0  0  0  0  0  0  0  0  0  0  0  0
   -1.8867   -0.6862    1.9319 H   0  0  0  0  0  0  0  0  0  0  0  0
   -3.4061   -1.1444    1.0828 H   0  0  0  0  0  0  0  0  0  0  0  0
   -1.7072    2.2980    0.8836 H   0  0  0  0  0  0  0  0  0  0  0  0
   -0.3768    1.1107    0.9745 H   0  0  0  0  0  0  0  0  0  0  0  0
   -0.7720    1.8974   -0.6027 H   0  0  0  0  0  0  0  0  0  0  0  0
    2.2374    1.7561   -1.7585 H   0  0  0  0  0  0  0  0  0  0  0  0
    4.1452    2.6928   -0.5157 H   0  0  0  0  0  0  0  0  0  0  0  0
    4.9710    1.5819    1.5340 H   0  0  0  0  0  0  0  0  0  0  0  0
    1.9979   -1.4766    1.1003 H   0  0  0  0  0  0  0  0  0  0  0  0
  1  2  1  0
  2  3  1  0
  3  4  1  0
  4  5  1  0
  4  6  1  0
  4  7  1  0
  2  8  1  0
  8  9  2  0
  8 10  1  0
 10 11  2  0
 11 12  1  0
 12 13  2  0
 13 14  1  0
 14 15  1  0
 14 16  2  0
 16 10  1  0
  1 17  1  0
  1 18  1  0
  1 19  1  0
  2 20  1  0
  3 21  1  0
  5 22  1  0
  5 23  1  0
  5 24  1  0
  6 25  1  0
  6 26  1  0
  6 27  1  0
  7 28  1  0
  7 29  1  0
  7 30  1  0
 11 31  1  0
 12 32  1  0
 13 33  1  0
 16 34  1  0
M  END
> <ID>
HT0330

> <Class>
0.0

> <Clusters>
77

> <Fold>
2

$$$$