
     RDKit          3D

 70 73  0  0  0  0  0  0  0  0999 V2000
    4.0356    0.8357   -2.5570 C   0  0  0  0  0  0  0  0  0  0  0  0
    3.7077    1.0499   -1.0666 C   0  0  2  0  0  0  0  0  0  0  0  0
    4.8439    0.5402   -0.2005 C   0  0  0  0  0  0  0  0  0  0  0  0
    5.2949   -0.7248   -0.2564 C   0  0  0  0  0  0  0  0  0  0  0  0
    6.4053   -1.2043    0.6450 C   0  0  2  0  0  0  0  0  0  0  0  0
    6.8682   -2.4597    0.2144 O   0  0  0  0  0  0  0  0  0  0  0  0
    5.9047   -1.2964    2.1007 C   0  0  0  0  0  0  0  0  0  0  0  0
    7.0041   -1.3665    3.1499 C   0  0  0  0  0  0  0  0  0  0  0  0
    6.1911   -0.0921    2.9868 C   0  0  0  0  0  0  0  0  0  0  0  0
    2.3324    0.5091   -0.5370 C   0  0  2  0  0  0  0  0  0  0  0  0
    2.0536   -0.9949   -0.6921 C   0  0  0  0  0  0  0  0  0  0  0  0
    0.5314   -1.1520   -0.5607 C   0  0  0  0  0  0  0  0  0  0  0  0
   -0.0255    0.2596   -0.3357 C   0  0  2  0  0  0  0  0  0  0  0  0
   -1.4494    0.4318   -0.8303 C   0  0  0  0  0  0  0  0  0  0  0  0
   -2.4549   -0.0574   -0.0742 C   0  0  0  0  0  0  0  0  0  0  0  0
   -3.8958    0.1859   -0.3428 C   0  0  0  0  0  0  0  0  0  0  0  0
   -4.9010   -0.4913    0.2587 C   0  0  0  0  0  0  0  0  0  0  0  0
   -4.5987   -1.5232    1.3331 C   0  0  0  0  0  0  0  0  0  0  0  0
   -5.8553   -2.1896    1.9094 C   0  0  1  0  0  0  0  0  0  0  0  0
   -5.5074   -2.8996    3.0695 O   0  0  0  0  0  0  0  0  0  0  0  0
   -6.9003   -1.1177    2.2431 C   0  0  0  0  0  0  0  0  0  0  0  0
   -7.4259   -0.4598    0.9550 C   0  0  1  0  0  0  0  0  0  0  0  0
   -8.1377    0.7125    1.2643 O   0  0  0  0  0  0  0  0  0  0  0  0
   -6.3324   -0.1766   -0.0631 C   0  0  0  0  0  0  0  0  0  0  0  0
   -6.7038    0.2593   -1.2769 C   0  0  0  0  0  0  0  0  0  0  0  0
   -1.6930    1.2229   -2.0928 C   0  0  0  0  0  0  0  0  0  0  0  0
   -0.5640    1.0025   -3.0925 C   0  0  0  0  0  0  0  0  0  0  0  0
    0.8500    1.2656   -2.5370 C   0  0  0  0  0  0  0  0  0  0  0  0
    1.0129    1.2070   -0.9786 C   0  0  2  0  0  0  0  0  0  0  0  0
    0.9110    2.6267   -0.3692 C   0  0  0  0  0  0  0  0  0  0  0  0
    3.4682    1.5435   -3.1928 H   0  0  0  0  0  0  0  0  0  0  0  0
    3.8456   -0.2052   -2.8852 H   0  0  0  0  0  0  0  0  0  0  0  0
    5.1085    1.0584   -2.7450 H   0  0  0  0  0  0  0  0  0  0  0  0
    3.6959    2.1506   -0.9137 H   0  0  0  0  0  0  0  0  0  0  0  0
    5.3033    1.2379    0.4951 H   0  0  0  0  0  0  0  0  0  0  0  0
    4.8686   -1.4184   -0.9755 H   0  0  0  0  0  0  0  0  0  0  0  0
    7.2552   -0.4902    0.5592 H   0  0  0  0  0  0  0  0  0  0  0  0
    6.1258   -3.1103    0.3262 H   0  0  0  0  0  0  0  0  0  0  0  0
    4.9887   -1.8783    2.3441 H   0  0  0  0  0  0  0  0  0  0  0  0
    8.0468   -1.2882    2.7728 H   0  0  0  0  0  0  0  0  0  0  0  0
    6.7417   -1.9540    4.0552 H   0  0  0  0  0  0  0  0  0  0  0  0
    6.7553    0.7428    2.5200 H   0  0  0  0  0  0  0  0  0  0  0  0
    5.4433    0.0723    3.7914 H   0  0  0  0  0  0  0  0  0  0  0  0
    2.3934    0.6666    0.5682 H   0  0  0  0  0  0  0  0  0  0  0  0
    2.5721   -1.5755    0.1018 H   0  0  0  0  0  0  0  0  0  0  0  0
    2.3768   -1.3754   -1.6821 H   0  0  0  0  0  0  0  0  0  0  0  0
    0.1188   -1.5950   -1.4944 H   0  0  0  0  0  0  0  0  0  0  0  0
    0.2713   -1.8146    0.2937 H   0  0  0  0  0  0  0  0  0  0  0  0
   -0.0236    0.4463    0.7654 H   0  0  0  0  0  0  0  0  0  0  0  0
   -2.1856   -0.6341    0.8015 H   0  0  0  0  0  0  0  0  0  0  0  0
   -4.1465    0.9910   -1.0171 H   0  0  0  0  0  0  0  0  0  0  0  0
   -3.9406   -2.3157    0.9139 H   0  0  0  0  0  0  0  0  0  0  0  0
   -4.0574   -1.0194    2.1647 H   0  0  0  0  0  0  0  0  0  0  0  0
   -6.2689   -2.8946    1.1487 H   0  0  0  0  0  0  0  0  0  0  0  0
   -6.2574   -3.5218    3.2607 H   0  0  0  0  0  0  0  0  0  0  0  0
   -6.4469   -0.3530    2.9129 H   0  0  0  0  0  0  0  0  0  0  0  0
   -7.7538   -1.5795    2.7859 H   0  0  0  0  0  0  0  0  0  0  0  0
   -8.1380   -1.1770    0.4890 H   0  0  0  0  0  0  0  0  0  0  0  0
   -7.4830    1.3767    1.6083 H   0  0  0  0  0  0  0  0  0  0  0  0
   -7.7466    0.4505   -1.4993 H   0  0  0  0  0  0  0  0  0  0  0  0
   -5.9969    0.3936   -2.0841 H   0  0  0  0  0  0  0  0  0  0  0  0
   -2.6217    0.8870   -2.6003 H   0  0  0  0  0  0  0  0  0  0  0  0
   -1.8016    2.3012   -1.8557 H   0  0  0  0  0  0  0  0  0  0  0  0
   -0.6232   -0.0517   -3.4470 H   0  0  0  0  0  0  0  0  0  0  0  0
   -0.7360    1.6475   -3.9819 H   0  0  0  0  0  0  0  0  0  0  0  0
    1.2074    2.2470   -2.9190 H   0  0  0  0  0  0  0  0  0  0  0  0
    1.4844    0.4929   -3.0128 H   0  0  0  0  0  0  0  0  0  0  0  0
    1.0618    2.6036    0.7313 H   0  0  0  0  0  0  0  0  0  0  0  0
   -0.0835    3.0747   -0.5632 H   0  0  0  0  0  0  0  0  0  0  0  0
    1.6769    3.2999   -0.8075 H   0  0  0  0  0  0  0  0  0  0  0  0
  2  1  1  0
  2  3  1  0
  3  4  2  3
  4  5  1  0
  5  6  1  0
  5  7  1  0
  7  8  1  0
  8  9  1  0
  9  7  1  0
 10  2  1  0
 10 11  1  0
 11 12  1  0
 13 12  1  0
 13 14  1  0
 14 15  2  3
 15 16  1  0
 16 17  2  3
 17 18  1  0
 18 19  1  0
 19 20  1  0
 19 21  1  0
 21 22  1  0
 22 23  1  0
 22 24  1  0
 24 17  1  0
 24 25  2  3
 14 26  1  0
 26 27  1  0
 27 28  1  0
 28 29  1  0
 29 10  1  0
 29 13  1  0
 29 30  1  1
  1 31  1  0
  1 32  1  0
  1 33  1  0
  2 34  1  6
  3 35  1  0
  4 36  1  0
  5 37  1  1
  6 38  1  0
  7 39  1  0
  8 40  1  0
  8 41  1  0
  9 42  1  0
  9 43  1  0
 10 44  1  1
 11 45  1  0
 11 46  1  0
 12 47  1  0
 12 48  1  0
 13 49  1  1
 15 50  1  0
 16 51  1  0
 18 52  1  0
 18 53  1  0
 19 54  1  6
 20 55  1  0
 21 56  1  0
 21 57  1  0
 22 58  1  6
 23 59  1  0
 25 60  1  0
 25 61  1  0
 26 62  1  0
 26 63  1  0
 27 64  1  0
 27 65  1  0
 28 66  1  0
 28 67  1  0
 30 68  1  0
 30 69  1  0
 30 70  1  0
M  END
> <ID>
HT0350

> <Class>
0.0

> <Clusters>
85

> <Fold>
2

$$$$