
     RDKit          3D

 22 22  0  0  0  0  0  0  0  0999 V2000
   -3.9003    0.0810    0.8962 C   0  0  0  0  0  0  0  0  0  0  0  0
   -2.4186   -0.1047    0.8844 C   0  0  0  0  0  0  0  0  0  0  0  0
   -1.7952   -0.2296    1.9736 O   0  0  0  0  0  0  0  0  0  0  0  0
   -1.7144   -0.1459   -0.3633 N   0  0  0  0  0  0  0  0  0  0  0  0
   -0.3028   -0.3810   -0.4264 C   0  0  0  0  0  0  0  0  0  0  0  0
    0.1699   -1.6469   -0.8028 C   0  0  0  0  0  0  0  0  0  0  0  0
   -1.1601   -3.2264   -1.2742 I   0  0  0  0  0  0  0  0  0  0  0  0
    1.5409   -1.8938   -0.8537 C   0  0  0  0  0  0  0  0  0  0  0  0
    2.4580   -0.8881   -0.5428 C   0  0  0  0  0  0  0  0  0  0  0  0
    4.5187   -1.3715   -0.7251 I   0  0  0  0  0  0  0  0  0  0  0  0
    2.0014    0.3975   -0.1804 C   0  0  0  0  0  0  0  0  0  0  0  0
    2.9700    1.4661    0.1284 C   0  0  0  0  0  0  0  0  0  0  0  0
    3.8470    1.2884    1.0157 O   0  0  0  0  0  0  0  0  0  0  0  0
    2.9236    2.6723   -0.5640 O   0  0  0  0  0  0  0  0  0  0  0  0
    0.6103    0.6509   -0.1256 C   0  0  0  0  0  0  0  0  0  0  0  0
   -0.1421    2.5730    0.4266 I   0  0  0  0  0  0  0  0  0  0  0  0
   -4.1566    1.0445    0.4086 H   0  0  0  0  0  0  0  0  0  0  0  0
   -4.3826   -0.7501    0.3407 H   0  0  0  0  0  0  0  0  0  0  0  0
   -4.2858    0.0901    1.9379 H   0  0  0  0  0  0  0  0  0  0  0  0
   -2.2615   -0.1649   -1.2532 H   0  0  0  0  0  0  0  0  0  0  0  0
    1.8966   -2.8742   -1.1431 H   0  0  0  0  0  0  0  0  0  0  0  0
    3.5837    3.4135   -0.3615 H   0  0  0  0  0  0  0  0  0  0  0  0
  1  2  1  0
  2  3  2  0
  2  4  1  0
  4  5  1  0
  5  6  2  0
  6  7  1  0
  6  8  1  0
  8  9  2  0
  9 10  1  0
  9 11  1  0
 11 12  1  0
 12 13  2  0
 12 14  1  0
 11 15  2  0
 15  5  1  0
 15 16  1  0
  1 17  1  0
  1 18  1  0
  1 19  1  0
  4 20  1  0
  8 21  1  0
 14 22  1  0
M  END
> <ID>
HT0061

> <Class>
0.0

> <Clusters>
73

> <Fold>
2

$$$$