
     RDKit          3D

 59 62  0  0  0  0  0  0  0  0999 V2000
   -3.4592   -2.0097   -2.1699 O   0  0  0  0  0  0  0  0  0  0  0  0
   -3.9404   -1.7229   -1.0415 C   0  0  0  0  0  0  0  0  0  0  0  0
   -5.3977   -1.3669   -0.9494 C   0  0  0  0  0  0  0  0  0  0  0  0
   -5.6954   -0.4482    0.2658 C   0  0  0  0  0  0  0  0  0  0  0  0
   -7.2057   -0.2119    0.3940 C   0  0  0  0  0  0  0  0  0  0  0  0
   -7.5224    0.9730   -0.5092 C   0  0  0  0  0  0  0  0  0  0  0  0
   -6.2228    1.7547   -0.6777 C   0  0  0  0  0  0  0  0  0  0  0  0
   -5.1335    0.9679    0.0449 C   0  0  0  0  0  0  0  0  0  0  0  0
   -5.1328   -1.1041    1.5471 C   0  0  0  0  0  0  0  0  0  0  0  0
   -3.6611   -1.3677    1.4099 C   0  0  0  0  0  0  0  0  0  0  0  0
   -2.9104   -1.2190    2.4156 O   0  0  0  0  0  0  0  0  0  0  0  0
   -3.1123   -1.7753    0.1404 N   0  0  0  0  0  0  0  0  0  0  0  0
   -1.6805   -2.0886    0.0248 C   0  0  0  0  0  0  0  0  0  0  0  0
   -0.8857   -0.8239   -0.3209 C   0  0  0  0  0  0  0  0  0  0  0  0
    0.6201   -1.1095   -0.3435 C   0  0  0  0  0  0  0  0  0  0  0  0
    1.4117    0.1354   -0.7627 C   0  0  0  0  0  0  0  0  0  0  0  0
    2.8642   -0.1181   -0.6621 N   0  0  0  0  0  0  0  0  0  0  0  0
    3.3470   -0.0390    0.7489 C   0  0  0  0  0  0  0  0  0  0  0  0
    4.4520    1.0036    0.9710 C   0  0  0  0  0  0  0  0  0  0  0  0
    5.5060    0.8199   -0.0328 N   0  0  0  0  0  0  0  0  0  0  0  0
    5.1211    0.5905   -1.4299 C   0  0  0  0  0  0  0  0  0  0  0  0
    3.6060    0.7384   -1.6124 C   0  0  0  0  0  0  0  0  0  0  0  0
    6.9023    0.8602    0.3302 C   0  0  0  0  0  0  0  0  0  0  0  0
    7.2813    1.3026    1.5618 N   0  0  0  0  0  0  0  0  0  0  0  0
    8.5905    1.3788    1.9095 C   0  0  0  0  0  0  0  0  0  0  0  0
    9.5731    0.9970    0.9986 C   0  0  0  0  0  0  0  0  0  0  0  0
    9.1751    0.5418   -0.2567 C   0  0  0  0  0  0  0  0  0  0  0  0
    7.8557    0.4833   -0.5678 N   0  0  0  0  0  0  0  0  0  0  0  0
   -5.7163   -0.8763   -1.8951 H   0  0  0  0  0  0  0  0  0  0  0  0
   -5.9710   -2.3138   -0.8564 H   0  0  0  0  0  0  0  0  0  0  0  0
   -7.4665    0.0657    1.4404 H   0  0  0  0  0  0  0  0  0  0  0  0
   -7.8059   -1.1052    0.1142 H   0  0  0  0  0  0  0  0  0  0  0  0
   -8.3169    1.6086   -0.0622 H   0  0  0  0  0  0  0  0  0  0  0  0
   -7.8725    0.6061   -1.4994 H   0  0  0  0  0  0  0  0  0  0  0  0
   -5.9730    1.8491   -1.7576 H   0  0  0  0  0  0  0  0  0  0  0  0
   -6.3186    2.7738   -0.2443 H   0  0  0  0  0  0  0  0  0  0  0  0
   -4.1887    0.9680   -0.5405 H   0  0  0  0  0  0  0  0  0  0  0  0
   -4.9301    1.4597    1.0224 H   0  0  0  0  0  0  0  0  0  0  0  0
   -5.6454   -2.0772    1.7189 H   0  0  0  0  0  0  0  0  0  0  0  0
   -5.3220   -0.4602    2.4355 H   0  0  0  0  0  0  0  0  0  0  0  0
   -1.3052   -2.5245    0.9777 H   0  0  0  0  0  0  0  0  0  0  0  0
   -1.5215   -2.8610   -0.7597 H   0  0  0  0  0  0  0  0  0  0  0  0
   -1.2109   -0.4476   -1.3168 H   0  0  0  0  0  0  0  0  0  0  0  0
   -1.0978   -0.0379    0.4377 H   0  0  0  0  0  0  0  0  0  0  0  0
    0.9390   -1.4429    0.6669 H   0  0  0  0  0  0  0  0  0  0  0  0
    0.8342   -1.9306   -1.0624 H   0  0  0  0  0  0  0  0  0  0  0  0
    1.1265    0.3699   -1.8129 H   0  0  0  0  0  0  0  0  0  0  0  0
    1.1213    1.0130   -0.1420 H   0  0  0  0  0  0  0  0  0  0  0  0
    3.7550   -1.0367    1.0264 H   0  0  0  0  0  0  0  0  0  0  0  0
    2.5255    0.1746    1.4709 H   0  0  0  0  0  0  0  0  0  0  0  0
    4.8462    0.8936    2.0050 H   0  0  0  0  0  0  0  0  0  0  0  0
    4.0266    2.0266    0.8742 H   0  0  0  0  0  0  0  0  0  0  0  0
    5.6356    1.3267   -2.0848 H   0  0  0  0  0  0  0  0  0  0  0  0
    5.4295   -0.4330   -1.7330 H   0  0  0  0  0  0  0  0  0  0  0  0
    3.3529    0.4441   -2.6536 H   0  0  0  0  0  0  0  0  0  0  0  0
    3.3227    1.8062   -1.4788 H   0  0  0  0  0  0  0  0  0  0  0  0
    8.8667    1.7345    2.8935 H   0  0  0  0  0  0  0  0  0  0  0  0
   10.6195    1.0483    1.2620 H   0  0  0  0  0  0  0  0  0  0  0  0
    9.9150    0.2360   -0.9850 H   0  0  0  0  0  0  0  0  0  0  0  0
  1  2  2  0
  2  3  1  0
  3  4  1  0
  4  5  1  0
  5  6  1  0
  6  7  1  0
  7  8  1  0
  8  4  1  0
  4  9  1  0
  9 10  1  0
 10 11  2  0
 10 12  1  0
 12  2  1  0
 12 13  1  0
 13 14  1  0
 14 15  1  0
 15 16  1  0
 16 17  1  0
 17 18  1  0
 18 19  1  0
 19 20  1  0
 20 21  1  0
 21 22  1  0
 22 17  1  0
 20 23  1  0
 23 24  2  0
 24 25  1  0
 25 26  2  0
 26 27  1  0
 27 28  2  0
 28 23  1  0
  3 29  1  0
  3 30  1  0
  5 31  1  0
  5 32  1  0
  6 33  1  0
  6 34  1  0
  7 35  1  0
  7 36  1  0
  8 37  1  0
  8 38  1  0
  9 39  1  0
  9 40  1  0
 13 41  1  0
 13 42  1  0
 14 43  1  0
 14 44  1  0
 15 45  1  0
 15 46  1  0
 16 47  1  0
 16 48  1  0
 18 49  1  0
 18 50  1  0
 19 51  1  0
 19 52  1  0
 21 53  1  0
 21 54  1  0
 22 55  1  0
 22 56  1  0
 25 57  1  0
 26 58  1  0
 27 59  1  0
M  END
> <ID>
HT0331

> <Class>
0.0

> <Clusters>
205

> <Fold>
2

$$$$