
     RDKit          3D

 35 34  0  0  0  0  0  0  0  0999 V2000
   -3.3226    0.8686    1.4935 C   0  0  0  0  0  0  0  0  0  0  0  0
   -2.2042    0.3877    0.5402 C   0  0  0  0  0  0  0  0  0  0  0  0
   -2.8430   -0.5801   -0.4844 C   0  0  0  0  0  0  0  0  0  0  0  0
   -1.1525   -0.4138    1.3556 C   0  0  0  0  0  0  0  0  0  0  0  0
   -0.5651    0.3726    2.3555 O   0  0  0  0  0  0  0  0  0  0  0  0
   -1.6111    1.6249   -0.2295 C   0  0  1  0  0  0  0  0  0  0  0  0
   -1.2667    2.6918    0.6226 O   0  0  0  0  0  0  0  0  0  0  0  0
   -0.4841    1.2919   -1.1917 C   0  0  0  0  0  0  0  0  0  0  0  0
   -0.7256    1.2904   -2.4301 O   0  0  0  0  0  0  0  0  0  0  0  0
    0.8425    0.9917   -0.7296 N   0  0  0  0  0  0  0  0  0  0  0  0
    1.8821    0.5409   -1.6561 C   0  0  0  0  0  0  0  0  0  0  0  0
    3.1851    0.1870   -0.9201 C   0  0  0  0  0  0  0  0  0  0  0  0
    3.0624   -1.0752   -0.0452 C   0  0  0  0  0  0  0  0  0  0  0  0
    2.9865   -2.3628   -0.8243 C   0  0  0  0  0  0  0  0  0  0  0  0
    3.1232   -2.3783   -2.0768 O   0  0  0  0  0  0  0  0  0  0  0  0
    2.7799   -3.5633   -0.1522 O   0  0  0  0  0  0  0  0  0  0  0  0
   -4.1108    1.4137    0.9304 H   0  0  0  0  0  0  0  0  0  0  0  0
   -2.9191    1.5514    2.2711 H   0  0  0  0  0  0  0  0  0  0  0  0
   -3.7992    0.0071    2.0099 H   0  0  0  0  0  0  0  0  0  0  0  0
   -2.0755   -0.9863   -1.1777 H   0  0  0  0  0  0  0  0  0  0  0  0
   -3.3260   -1.4395    0.0296 H   0  0  0  0  0  0  0  0  0  0  0  0
   -3.6196   -0.0632   -1.0887 H   0  0  0  0  0  0  0  0  0  0  0  0
   -0.3698   -0.8253    0.6823 H   0  0  0  0  0  0  0  0  0  0  0  0
   -1.6476   -1.2872    1.8383 H   0  0  0  0  0  0  0  0  0  0  0  0
    0.1225   -0.1976    2.7882 H   0  0  0  0  0  0  0  0  0  0  0  0
   -2.4416    2.0188   -0.8581 H   0  0  0  0  0  0  0  0  0  0  0  0
   -0.4517    2.4508    1.1266 H   0  0  0  0  0  0  0  0  0  0  0  0
    1.0692    1.0868    0.2844 H   0  0  0  0  0  0  0  0  0  0  0  0
    1.5144   -0.3374   -2.2277 H   0  0  0  0  0  0  0  0  0  0  0  0
    2.0944    1.3561   -2.3810 H   0  0  0  0  0  0  0  0  0  0  0  0
    4.0023    0.0500   -1.6614 H   0  0  0  0  0  0  0  0  0  0  0  0
    3.4769    1.0449   -0.2758 H   0  0  0  0  0  0  0  0  0  0  0  0
    3.9522   -1.1317    0.6172 H   0  0  0  0  0  0  0  0  0  0  0  0
    2.1702   -0.9988    0.6105 H   0  0  0  0  0  0  0  0  0  0  0  0
    2.6719   -3.5867    0.8548 H   0  0  0  0  0  0  0  0  0  0  0  0
  1  2  1  0
  2  3  1  0
  2  4  1  0
  4  5  1  0
  2  6  1  0
  6  7  1  0
  6  8  1  0
  8  9  2  0
  8 10  1  0
 10 11  1  0
 11 12  1  0
 12 13  1  0
 13 14  1  0
 14 15  2  0
 14 16  1  0
  1 17  1  0
  1 18  1  0
  1 19  1  0
  3 20  1  0
  3 21  1  0
  3 22  1  0
  4 23  1  0
  4 24  1  0
  5 25  1  0
  6 26  1  6
  7 27  1  0
 10 28  1  0
 11 29  1  0
 11 30  1  0
 12 31  1  0
 12 32  1  0
 13 33  1  0
 13 34  1  0
 16 35  1  0
M  END
> <ID>
HT0355

> <Class>
0.0

> <Clusters>
252

> <Fold>
2

$$$$