
     RDKit          3D

 40 41  0  0  0  0  0  0  0  0999 V2000
   -2.6027   -2.0647    1.3809 C   0  0  0  0  0  0  0  0  0  0  0  0
   -2.4715   -1.1664    0.2212 N   0  0  0  0  0  0  0  0  0  0  0  0
   -3.5448   -1.4681   -0.7436 C   0  0  0  0  0  0  0  0  0  0  0  0
   -2.5315    0.2431    0.6675 C   0  0  0  0  0  0  0  0  0  0  0  0
   -1.9272    1.2041   -0.3679 C   0  0  0  0  0  0  0  0  0  0  0  0
   -0.4821    0.9852   -0.5391 N   0  0  0  0  0  0  0  0  0  0  0  0
   -0.0204    0.0832   -1.6096 C   0  0  0  0  0  0  0  0  0  0  0  0
    1.1416   -0.7734   -1.1632 C   0  0  0  0  0  0  0  0  0  0  0  0
    1.0498   -1.5520    0.0020 C   0  0  0  0  0  0  0  0  0  0  0  0
    2.1269   -2.3436    0.4109 C   0  0  0  0  0  0  0  0  0  0  0  0
    3.3040   -2.3695   -0.3431 C   0  0  0  0  0  0  0  0  0  0  0  0
    4.6554   -3.3617    0.1721 Cl  0  0  0  0  0  0  0  0  0  0  0  0
    3.4020   -1.6030   -1.5085 C   0  0  0  0  0  0  0  0  0  0  0  0
    2.3260   -0.8105   -1.9193 C   0  0  0  0  0  0  0  0  0  0  0  0
    0.4392    1.8212    0.1976 C   0  0  0  0  0  0  0  0  0  0  0  0
    1.6381    2.2800   -0.3784 C   0  0  0  0  0  0  0  0  0  0  0  0
    2.5005    3.0808    0.3726 C   0  0  0  0  0  0  0  0  0  0  0  0
    2.1655    3.4269    1.6816 C   0  0  0  0  0  0  0  0  0  0  0  0
    0.9635    2.9679    2.2212 C   0  0  0  0  0  0  0  0  0  0  0  0
    0.1374    2.1867    1.4761 N   0  0  0  0  0  0  0  0  0  0  0  0
   -3.5721   -1.9074    1.9051 H   0  0  0  0  0  0  0  0  0  0  0  0
   -2.5315   -3.1253    1.0563 H   0  0  0  0  0  0  0  0  0  0  0  0
   -1.7733   -1.8921    2.1000 H   0  0  0  0  0  0  0  0  0  0  0  0
   -3.4254   -0.8665   -1.6667 H   0  0  0  0  0  0  0  0  0  0  0  0
   -3.4914   -2.5337   -1.0552 H   0  0  0  0  0  0  0  0  0  0  0  0
   -4.5503   -1.2723   -0.3086 H   0  0  0  0  0  0  0  0  0  0  0  0
   -3.5812    0.5471    0.8821 H   0  0  0  0  0  0  0  0  0  0  0  0
   -1.9606    0.3784    1.6135 H   0  0  0  0  0  0  0  0  0  0  0  0
   -2.1112    2.2463   -0.0249 H   0  0  0  0  0  0  0  0  0  0  0  0
   -2.4477    1.1240   -1.3445 H   0  0  0  0  0  0  0  0  0  0  0  0
   -0.8419   -0.5956   -1.9228 H   0  0  0  0  0  0  0  0  0  0  0  0
    0.2484    0.6886   -2.5019 H   0  0  0  0  0  0  0  0  0  0  0  0
    0.1530   -1.5357    0.6019 H   0  0  0  0  0  0  0  0  0  0  0  0
    2.0458   -2.9342    1.3145 H   0  0  0  0  0  0  0  0  0  0  0  0
    4.3107   -1.6207   -2.0967 H   0  0  0  0  0  0  0  0  0  0  0  0
    2.4193   -0.2242   -2.8250 H   0  0  0  0  0  0  0  0  0  0  0  0
    1.9004    2.0389   -1.3990 H   0  0  0  0  0  0  0  0  0  0  0  0
    3.4253    3.4374   -0.0621 H   0  0  0  0  0  0  0  0  0  0  0  0
    2.8276    4.0489    2.2699 H   0  0  0  0  0  0  0  0  0  0  0  0
    0.6865    3.2320    3.2330 H   0  0  0  0  0  0  0  0  0  0  0  0
  1  2  1  0
  2  3  1  0
  2  4  1  0
  4  5  1  0
  5  6  1  0
  6  7  1  0
  7  8  1  0
  8  9  2  0
  9 10  1  0
 10 11  2  0
 11 12  1  0
 11 13  1  0
 13 14  2  0
 14  8  1  0
  6 15  1  0
 15 16  2  0
 16 17  1  0
 17 18  2  0
 18 19  1  0
 19 20  2  0
 20 15  1  0
  1 21  1  0
  1 22  1  0
  1 23  1  0
  3 24  1  0
  3 25  1  0
  3 26  1  0
  4 27  1  0
  4 28  1  0
  5 29  1  0
  5 30  1  0
  7 31  1  0
  7 32  1  0
  9 33  1  0
 10 34  1  0
 13 35  1  0
 14 36  1  0
 16 37  1  0
 17 38  1  0
 18 39  1  0
 19 40  1  0
M  END
> <ID>
HT0458

> <Class>
0.0

> <Clusters>
51

> <Fold>
2

$$$$