
     RDKit          3D

 49 50  0  0  0  0  0  0  0  0999 V2000
   -3.9752   -2.3643    0.8559 C   0  0  0  0  0  0  0  0  0  0  0  0
   -2.7565   -1.6767    1.4726 C   0  0  0  0  0  0  0  0  0  0  0  0
   -2.5071   -0.2712    0.8995 C   0  0  0  0  0  0  0  0  0  0  0  0
   -2.0939   -0.3048   -0.5827 C   0  0  0  0  0  0  0  0  0  0  0  0
   -1.7135    1.0171   -1.1406 N   0  0  0  0  0  0  0  0  0  0  0  0
   -2.7762    2.0455   -1.1569 C   0  0  0  0  0  0  0  0  0  0  0  0
   -2.6766    3.0240    0.0261 C   0  0  0  0  0  0  0  0  0  0  0  0
   -1.2710    3.6077    0.1471 C   0  0  0  0  0  0  0  0  0  0  0  0
   -0.2364    2.4887    0.2605 C   0  0  0  0  0  0  0  0  0  0  0  0
   -0.3360    1.5465   -0.9550 C   0  0  1  0  0  0  0  0  0  0  0  0
    0.7250    0.4637   -1.0023 C   0  0  0  0  0  0  0  0  0  0  0  0
    0.8506   -0.1987   -2.0688 O   0  0  0  0  0  0  0  0  0  0  0  0
    1.5957    0.1838    0.1063 N   0  0  0  0  0  0  0  0  0  0  0  0
    2.6681   -0.7591   -0.0165 C   0  0  0  0  0  0  0  0  0  0  0  0
    3.9442   -0.3217   -0.4311 C   0  0  0  0  0  0  0  0  0  0  0  0
    4.2022    1.1360   -0.6995 C   0  0  0  0  0  0  0  0  0  0  0  0
    4.9791   -1.2566   -0.5886 C   0  0  0  0  0  0  0  0  0  0  0  0
    4.7504   -2.6097   -0.3364 C   0  0  0  0  0  0  0  0  0  0  0  0
    3.4932   -3.0429    0.0862 C   0  0  0  0  0  0  0  0  0  0  0  0
    2.4472   -2.1250    0.2647 C   0  0  0  0  0  0  0  0  0  0  0  0
    1.0922   -2.6186    0.6886 C   0  0  0  0  0  0  0  0  0  0  0  0
   -3.7739   -2.6429   -0.1989 H   0  0  0  0  0  0  0  0  0  0  0  0
   -4.1990   -3.2943    1.4198 H   0  0  0  0  0  0  0  0  0  0  0  0
   -4.8653   -1.6996    0.9011 H   0  0  0  0  0  0  0  0  0  0  0  0
   -2.9274   -1.5823    2.5662 H   0  0  0  0  0  0  0  0  0  0  0  0
   -1.8594   -2.3161    1.3289 H   0  0  0  0  0  0  0  0  0  0  0  0
   -1.7005    0.1924    1.4997 H   0  0  0  0  0  0  0  0  0  0  0  0
   -3.4341    0.3272    1.0236 H   0  0  0  0  0  0  0  0  0  0  0  0
   -1.2788   -1.0422   -0.7221 H   0  0  0  0  0  0  0  0  0  0  0  0
   -2.9435   -0.6939   -1.1833 H   0  0  0  0  0  0  0  0  0  0  0  0
   -3.7841    1.5759   -1.1606 H   0  0  0  0  0  0  0  0  0  0  0  0
   -2.6930    2.6219   -2.1035 H   0  0  0  0  0  0  0  0  0  0  0  0
   -3.4013    3.8519   -0.1267 H   0  0  0  0  0  0  0  0  0  0  0  0
   -2.9471    2.5239    0.9763 H   0  0  0  0  0  0  0  0  0  0  0  0
   -1.2158    4.2562    1.0484 H   0  0  0  0  0  0  0  0  0  0  0  0
   -1.0492    4.2377   -0.7427 H   0  0  0  0  0  0  0  0  0  0  0  0
   -0.3945    1.9428    1.2110 H   0  0  0  0  0  0  0  0  0  0  0  0
    0.7767    2.9478    0.2928 H   0  0  0  0  0  0  0  0  0  0  0  0
   -0.1167    2.1835   -1.8416 H   0  0  0  0  0  0  0  0  0  0  0  0
    1.5284    0.7161    1.0015 H   0  0  0  0  0  0  0  0  0  0  0  0
    4.0332    1.7202    0.2300 H   0  0  0  0  0  0  0  0  0  0  0  0
    3.5113    1.4996   -1.4898 H   0  0  0  0  0  0  0  0  0  0  0  0
    5.2456    1.3134   -1.0413 H   0  0  0  0  0  0  0  0  0  0  0  0
    5.9635   -0.9416   -0.9130 H   0  0  0  0  0  0  0  0  0  0  0  0
    5.5514   -3.3253   -0.4688 H   0  0  0  0  0  0  0  0  0  0  0  0
    3.3344   -4.0985    0.2705 H   0  0  0  0  0  0  0  0  0  0  0  0
    0.6141   -1.8948    1.3832 H   0  0  0  0  0  0  0  0  0  0  0  0
    1.1689   -3.5936    1.2193 H   0  0  0  0  0  0  0  0  0  0  0  0
    0.4505   -2.7492   -0.2092 H   0  0  0  0  0  0  0  0  0  0  0  0
  1  2  1  0
  2  3  1  0
  3  4  1  0
  4  5  1  0
  5  6  1  0
  6  7  1  0
  7  8  1  0
  8  9  1  0
  9 10  1  0
 10  5  1  0
 10 11  1  0
 11 12  2  0
 11 13  1  0
 13 14  1  0
 14 15  2  0
 15 16  1  0
 15 17  1  0
 17 18  2  0
 18 19  1  0
 19 20  2  0
 20 14  1  0
 20 21  1  0
  1 22  1  0
  1 23  1  0
  1 24  1  0
  2 25  1  0
  2 26  1  0
  3 27  1  0
  3 28  1  0
  4 29  1  0
  4 30  1  0
  6 31  1  0
  6 32  1  0
  7 33  1  0
  7 34  1  0
  8 35  1  0
  8 36  1  0
  9 37  1  0
  9 38  1  0
 10 39  1  6
 13 40  1  0
 16 41  1  0
 16 42  1  0
 16 43  1  0
 17 44  1  0
 18 45  1  0
 19 46  1  0
 21 47  1  0
 21 48  1  0
 21 49  1  0
M  END
> <ID>
HT0327

> <Class>
0.0

> <Clusters>
38

> <Fold>
2

$$$$