
     RDKit          3D

 10  9  0  0  0  0  0  0  0  0999 V2000
   -1.1682    0.6561   -0.4153 C   0  0  0  0  0  0  0  0  0  0  0  0
   -0.0546    0.3425    0.5311 C   0  0  0  0  0  0  0  0  0  0  0  0
    0.2250    1.1588    1.4492 O   0  0  0  0  0  0  0  0  0  0  0  0
    0.6924   -0.8707    0.4030 N   0  0  0  0  0  0  0  0  0  0  0  0
    1.6935   -1.1570    1.2693 O   0  0  0  0  0  0  0  0  0  0  0  0
   -2.1164    0.7682    0.1508 H   0  0  0  0  0  0  0  0  0  0  0  0
   -0.9471    1.6047   -0.9477 H   0  0  0  0  0  0  0  0  0  0  0  0
   -1.2924   -0.1537   -1.1643 H   0  0  0  0  0  0  0  0  0  0  0  0
    0.4574   -1.5585   -0.3472 H   0  0  0  0  0  0  0  0  0  0  0  0
    2.5103   -0.7904    0.8437 H   0  0  0  0  0  0  0  0  0  0  0  0
  1  2  1  0
  2  3  2  0
  2  4  1  0
  4  5  1  0
  1  6  1  0
  1  7  1  0
  1  8  1  0
  4  9  1  0
  5 10  1  0
M  END
> <ID>
HT0057

> <Class>
0.0

> <Clusters>
3

> <Fold>
2

$$$$