
     RDKit          3D

 39 40  0  0  0  0  0  0  0  0999 V2000
    5.0450   -0.4175   -0.1544 C   0  0  0  0  0  0  0  0  0  0  0  0
    3.7603   -0.7990    0.4546 N   0  0  0  0  0  0  0  0  0  0  0  0
    3.6732   -2.2686    0.5278 C   0  0  0  0  0  0  0  0  0  0  0  0
    2.6372   -0.2375   -0.3281 C   0  0  0  0  0  0  0  0  0  0  0  0
    1.3945   -0.0719    0.5469 C   0  0  0  0  0  0  0  0  0  0  0  0
    0.3944    0.5954   -0.1969 O   0  0  0  0  0  0  0  0  0  0  0  0
   -0.8230    0.6416    0.5288 C   0  0  0  0  0  0  0  0  0  0  0  0
   -1.6064   -0.6389    0.3023 C   0  0  0  0  0  0  0  0  0  0  0  0
   -1.8179   -1.1249   -1.0009 C   0  0  0  0  0  0  0  0  0  0  0  0
   -2.5327   -2.3084   -1.2063 C   0  0  0  0  0  0  0  0  0  0  0  0
   -3.0412   -3.0190   -0.1147 C   0  0  0  0  0  0  0  0  0  0  0  0
   -3.9374   -4.5042   -0.3744 Cl  0  0  0  0  0  0  0  0  0  0  0  0
   -2.8341   -2.5443    1.1843 C   0  0  0  0  0  0  0  0  0  0  0  0
   -2.1199   -1.3607    1.3937 C   0  0  0  0  0  0  0  0  0  0  0  0
   -1.5992    1.8636    0.0924 C   0  0  0  0  0  0  0  0  0  0  0  0
   -1.0331    3.1384    0.2512 C   0  0  0  0  0  0  0  0  0  0  0  0
   -1.7550    4.2664   -0.1438 C   0  0  0  0  0  0  0  0  0  0  0  0
   -3.0314    4.1193   -0.6881 C   0  0  0  0  0  0  0  0  0  0  0  0
   -3.5697    2.8391   -0.8281 C   0  0  0  0  0  0  0  0  0  0  0  0
   -2.8518    1.7524   -0.4381 N   0  0  0  0  0  0  0  0  0  0  0  0
    5.8909   -0.8460    0.4257 H   0  0  0  0  0  0  0  0  0  0  0  0
    5.1654    0.6870   -0.1313 H   0  0  0  0  0  0  0  0  0  0  0  0
    5.1110   -0.7693   -1.2086 H   0  0  0  0  0  0  0  0  0  0  0  0
    2.7357   -2.5811    1.0313 H   0  0  0  0  0  0  0  0  0  0  0  0
    3.7127   -2.7287   -0.4849 H   0  0  0  0  0  0  0  0  0  0  0  0
    4.5109   -2.6715    1.1370 H   0  0  0  0  0  0  0  0  0  0  0  0
    2.8979    0.7749   -0.7136 H   0  0  0  0  0  0  0  0  0  0  0  0
    2.3975   -0.8724   -1.2117 H   0  0  0  0  0  0  0  0  0  0  0  0
    1.0393   -1.0745    0.8723 H   0  0  0  0  0  0  0  0  0  0  0  0
    1.6704    0.5313    1.4415 H   0  0  0  0  0  0  0  0  0  0  0  0
   -0.6425    0.7809    1.6227 H   0  0  0  0  0  0  0  0  0  0  0  0
   -1.4299   -0.5850   -1.8557 H   0  0  0  0  0  0  0  0  0  0  0  0
   -2.6901   -2.6720   -2.2138 H   0  0  0  0  0  0  0  0  0  0  0  0
   -3.2256   -3.0916    2.0323 H   0  0  0  0  0  0  0  0  0  0  0  0
   -1.9690   -1.0085    2.4064 H   0  0  0  0  0  0  0  0  0  0  0  0
   -0.0437    3.2549    0.6763 H   0  0  0  0  0  0  0  0  0  0  0  0
   -1.3258    5.2532   -0.0270 H   0  0  0  0  0  0  0  0  0  0  0  0
   -3.5983    4.9882   -0.9966 H   0  0  0  0  0  0  0  0  0  0  0  0
   -4.5589    2.7086   -1.2461 H   0  0  0  0  0  0  0  0  0  0  0  0
  1  2  1  0
  2  3  1  0
  2  4  1  0
  4  5  1  0
  5  6  1  0
  6  7  1  0
  7  8  1  0
  8  9  2  0
  9 10  1  0
 10 11  2  0
 11 12  1  0
 11 13  1  0
 13 14  2  0
 14  8  1  0
  7 15  1  0
 15 16  2  0
 16 17  1  0
 17 18  2  0
 18 19  1  0
 19 20  2  0
 20 15  1  0
  1 21  1  0
  1 22  1  0
  1 23  1  0
  3 24  1  0
  3 25  1  0
  3 26  1  0
  4 27  1  0
  4 28  1  0
  5 29  1  0
  5 30  1  0
  7 31  1  0
  9 32  1  0
 10 33  1  0
 13 34  1  0
 14 35  1  0
 16 36  1  0
 17 37  1  0
 18 38  1  0
 19 39  1  0
M  END
> <ID>
HT0379

> <Class>
0.0

> <Clusters>
51

> <Fold>
2

$$$$