
     RDKit          3D

 65 69  0  0  0  0  0  0  0  0999 V2000
   -5.6771    5.4592   -1.6698 C   0  0  0  0  0  0  0  0  0  0  0  0
   -5.2235    4.1169   -2.2282 C   0  0  0  0  0  0  0  0  0  0  0  0
   -4.5979    3.3620   -1.1991 O   0  0  0  0  0  0  0  0  0  0  0  0
   -5.1068    2.1426   -0.8068 N   0  0  0  0  0  0  0  0  0  0  0  0
   -4.5493    1.4285    0.1240 C   0  0  0  0  0  0  0  0  0  0  0  0
   -3.3296    1.9018    0.8172 C   0  0  0  0  0  0  0  0  0  0  0  0
   -3.2389    3.1111    1.1629 O   0  0  0  0  0  0  0  0  0  0  0  0
   -2.2371    1.0005    1.0568 N   0  0  0  0  0  0  0  0  0  0  0  0
   -0.9221    1.4867    1.4982 C   0  0  1  0  0  0  0  0  0  0  0  0
    0.1917    0.5615    1.3594 C   0  0  1  0  0  0  0  0  0  0  0  0
   -0.1017   -1.2170    0.9537 S   0  0  0  0  0  0  0  0  0  0  0  0
   -0.1279   -1.0634   -0.8749 C   0  0  0  0  0  0  0  0  0  0  0  0
    1.1104   -0.3855   -1.4092 C   0  0  0  0  0  0  0  0  0  0  0  0
    1.4608    0.8186   -0.9143 C   0  0  0  0  0  0  0  0  0  0  0  0
    0.7531    1.2743    0.2343 N   0  0  0  0  0  0  0  0  0  0  0  0
   -0.2751    2.3219    0.4292 C   0  0  0  0  0  0  0  0  0  0  0  0
   -0.5330    3.4244   -0.1205 O   0  0  0  0  0  0  0  0  0  0  0  0
    2.5460    1.6644   -1.4547 C   0  0  0  0  0  0  0  0  0  0  0  0
    3.0306    2.5775   -0.7359 O   0  0  0  0  0  0  0  0  0  0  0  0
    3.0210    1.4983   -2.7511 O   0  0  0  0  0  0  0  0  0  0  0  0
    2.0264   -1.2218   -2.7148 S   0  0  0  0  0  0  0  0  0  0  0  0
    3.1792   -1.9281   -1.5485 C   0  0  0  0  0  0  0  0  0  0  0  0
    4.3019   -1.3009   -1.1485 N   0  0  0  0  0  0  0  0  0  0  0  0
    4.9990   -2.0240   -0.2281 C   0  0  0  0  0  0  0  0  0  0  0  0
    4.4078   -3.2487    0.1038 C   0  0  0  0  0  0  0  0  0  0  0  0
    2.9862   -3.4077   -0.7840 S   0  0  0  0  0  0  0  0  0  0  0  0
    6.2660   -1.5054    0.3562 C   0  0  0  0  0  0  0  0  0  0  0  0
    6.7733   -0.2648   -0.0664 C   0  0  0  0  0  0  0  0  0  0  0  0
    7.9570    0.2319    0.4834 C   0  0  0  0  0  0  0  0  0  0  0  0
    8.6238   -0.4704    1.4460 N   0  0  0  0  0  0  0  0  0  0  0  0
    9.8871    0.0486    1.9778 C   0  0  0  0  0  0  0  0  0  0  0  0
    8.1637   -1.6889    1.8573 C   0  0  0  0  0  0  0  0  0  0  0  0
    6.9837   -2.2196    1.3310 C   0  0  0  0  0  0  0  0  0  0  0  0
   -5.1296    0.1153    0.4511 C   0  0  0  0  0  0  0  0  0  0  0  0
   -4.8884   -0.4957    1.6484 N   0  0  0  0  0  0  0  0  0  0  0  0
   -5.7237   -1.9297    1.5820 S   0  0  0  0  0  0  0  0  0  0  0  0
   -6.3575   -1.7272    0.0550 C   0  0  0  0  0  0  0  0  0  0  0  0
   -7.1988   -2.6349   -0.6639 N   0  0  0  0  0  0  0  0  0  0  0  0
   -7.7022   -4.1866   -0.0119 P   0  0  0  0  0  0  0  0  0  0  0  0
   -6.4870   -4.9755    0.4249 O   0  0  0  0  0  0  0  0  0  0  0  0
   -8.5294   -5.0508   -1.2084 O   0  0  0  0  0  0  0  0  0  0  0  0
   -8.7321   -3.9564    1.3120 O   0  0  0  0  0  0  0  0  0  0  0  0
   -5.9398   -0.5442   -0.4391 N   0  0  0  0  0  0  0  0  0  0  0  0
   -6.4504    5.3060   -0.8886 H   0  0  0  0  0  0  0  0  0  0  0  0
   -6.1103    6.0744   -2.4863 H   0  0  0  0  0  0  0  0  0  0  0  0
   -4.8125    6.0024   -1.2298 H   0  0  0  0  0  0  0  0  0  0  0  0
   -6.1026    3.5706   -2.6402 H   0  0  0  0  0  0  0  0  0  0  0  0
   -4.4922    4.2834   -3.0497 H   0  0  0  0  0  0  0  0  0  0  0  0
   -2.3986   -0.0086    0.8617 H   0  0  0  0  0  0  0  0  0  0  0  0
   -0.9625    2.0029    2.4831 H   0  0  0  0  0  0  0  0  0  0  0  0
    0.8819    0.6316    2.2297 H   0  0  0  0  0  0  0  0  0  0  0  0
   -1.0227   -0.4780   -1.1757 H   0  0  0  0  0  0  0  0  0  0  0  0
   -0.2281   -2.0804   -1.3097 H   0  0  0  0  0  0  0  0  0  0  0  0
    3.7597    2.0886   -3.1153 H   0  0  0  0  0  0  0  0  0  0  0  0
    4.7745   -3.9830    0.8065 H   0  0  0  0  0  0  0  0  0  0  0  0
    6.2650    0.3201   -0.8249 H   0  0  0  0  0  0  0  0  0  0  0  0
    8.3404    1.1843    0.1313 H   0  0  0  0  0  0  0  0  0  0  0  0
    9.8813    1.1596    1.9963 H   0  0  0  0  0  0  0  0  0  0  0  0
   10.7283   -0.3015    1.3420 H   0  0  0  0  0  0  0  0  0  0  0  0
   10.0499   -0.3020    3.0196 H   0  0  0  0  0  0  0  0  0  0  0  0
    8.7079   -2.2590    2.6019 H   0  0  0  0  0  0  0  0  0  0  0  0
    6.6490   -3.1795    1.6938 H   0  0  0  0  0  0  0  0  0  0  0  0
   -7.4939   -2.3850   -1.6336 H   0  0  0  0  0  0  0  0  0  0  0  0
   -7.8409   -5.2562   -1.8912 H   0  0  0  0  0  0  0  0  0  0  0  0
   -8.1835   -3.4899    1.9911 H   0  0  0  0  0  0  0  0  0  0  0  0
  1  2  1  0
  2  3  1  0
  3  4  1  0
  4  5  2  0
  5  6  1  0
  6  7  2  0
  6  8  1  0
  9  8  1  0
  9 10  1  0
 10 11  1  0
 11 12  1  0
 12 13  1  0
 13 14  2  0
 14 15  1  0
 15 10  1  0
 15 16  1  0
 16  9  1  0
 16 17  2  0
 14 18  1  0
 18 19  2  0
 18 20  1  0
 13 21  1  0
 21 22  1  0
 22 23  2  0
 23 24  1  0
 24 25  2  0
 25 26  1  0
 26 22  1  0
 24 27  1  0
 27 28  2  0
 28 29  1  0
 29 30  2  0
 30 31  1  0
 30 32  1  0
 32 33  2  0
 33 27  1  0
  5 34  1  0
 34 35  2  0
 35 36  1  0
 36 37  1  0
 37 38  1  0
 38 39  1  0
 39 40  2  0
 39 41  1  0
 39 42  1  0
 37 43  2  0
 43 34  1  0
  1 44  1  0
  1 45  1  0
  1 46  1  0
  2 47  1  0
  2 48  1  0
  8 49  1  0
  9 50  1  1
 10 51  1  1
 12 52  1  0
 12 53  1  0
 20 54  1  0
 25 55  1  0
 28 56  1  0
 29 57  1  0
 31 58  1  0
 31 59  1  0
 31 60  1  0
 32 61  1  0
 33 62  1  0
 38 63  1  0
 41 64  1  0
 42 65  1  0
M  CHG  1  30   1
M  END
> <ID>
HT0422

> <Class>
0.0

> <Clusters>
45

> <Fold>
2

$$$$