
     RDKit          3D

 18 18  0  0  0  0  0  0  0  0999 V2000
    2.8401   -0.4131    0.5298 N   0  0  0  0  0  0  0  0  0  0  0  0
    1.7240    0.3615    0.2974 O   0  0  0  0  0  0  0  0  0  0  0  0
    0.4560   -0.1970    0.0902 C   0  0  0  0  0  0  0  0  0  0  0  0
    0.2785   -1.5939    0.1133 C   0  0  0  0  0  0  0  0  0  0  0  0
   -0.9831   -2.1525   -0.0928 C   0  0  0  0  0  0  0  0  0  0  0  0
   -2.0821   -1.3282   -0.3240 C   0  0  0  0  0  0  0  0  0  0  0  0
   -1.9245    0.0584   -0.3503 C   0  0  0  0  0  0  0  0  0  0  0  0
   -0.6593    0.6445   -0.1446 C   0  0  0  0  0  0  0  0  0  0  0  0
   -0.5288    2.1253   -0.1795 C   0  0  0  0  0  0  0  0  0  0  0  0
   -1.5419    2.8460   -0.3911 O   0  0  0  0  0  0  0  0  0  0  0  0
    0.7038    2.7414    0.0190 O   0  0  0  0  0  0  0  0  0  0  0  0
    3.5372   -0.1662   -0.2078 H   0  0  0  0  0  0  0  0  0  0  0  0
    3.2386   -0.1011    1.4434 H   0  0  0  0  0  0  0  0  0  0  0  0
    1.1156   -2.2560    0.2908 H   0  0  0  0  0  0  0  0  0  0  0  0
   -1.1087   -3.2274   -0.0731 H   0  0  0  0  0  0  0  0  0  0  0  0
   -3.0599   -1.7644   -0.4836 H   0  0  0  0  0  0  0  0  0  0  0  0
   -2.7976    0.6726   -0.5324 H   0  0  0  0  0  0  0  0  0  0  0  0
    0.7920    3.7503   -0.0048 H   0  0  0  0  0  0  0  0  0  0  0  0
  1  2  1  0
  2  3  1  0
  3  4  2  0
  4  5  1  0
  5  6  2  0
  6  7  1  0
  7  8  2  0
  8  3  1  0
  8  9  1  0
  9 10  2  0
  9 11  1  0
  1 12  1  0
  1 13  1  0
  4 14  1  0
  5 15  1  0
  6 16  1  0
  7 17  1  0
 11 18  1  0
M  END
> <ID>
HT0353

> <Class>
0.0

> <Clusters>
22

> <Fold>
2

$$$$