
     RDKit          3D

 31 31  0  0  0  0  0  0  0  0999 V2000
    2.0581    2.4221    0.1482 C   0  0  0  0  0  0  0  0  0  0  0  0
    2.3665    1.3601    1.1980 C   0  0  0  0  0  0  0  0  0  0  0  0
    1.4964    0.2398    1.0537 O   0  0  0  0  0  0  0  0  0  0  0  0
    1.5987   -0.6884    0.0101 C   0  0  0  0  0  0  0  0  0  0  0  0
    2.5845   -0.6564   -0.7780 O   0  0  0  0  0  0  0  0  0  0  0  0
    0.5557   -1.7752   -0.1149 C   0  0  0  0  0  0  0  0  0  0  0  0
    0.4028   -2.2745   -1.5674 C   0  0  0  0  0  0  0  0  0  0  0  0
    0.9970   -2.9527    0.7645 C   0  0  0  0  0  0  0  0  0  0  0  0
   -0.7123   -1.3226    0.3854 O   0  0  0  0  0  0  0  0  0  0  0  0
   -1.4881   -0.2340   -0.0599 C   0  0  0  0  0  0  0  0  0  0  0  0
   -1.0420    0.7071   -1.0117 C   0  0  0  0  0  0  0  0  0  0  0  0
   -1.8666    1.7697   -1.3940 C   0  0  0  0  0  0  0  0  0  0  0  0
   -3.1404    1.9073   -0.8361 C   0  0  0  0  0  0  0  0  0  0  0  0
   -4.1715    3.2421   -1.3175 Cl  0  0  0  0  0  0  0  0  0  0  0  0
   -3.5893    0.9810    0.1088 C   0  0  0  0  0  0  0  0  0  0  0  0
   -2.7660   -0.0808    0.4942 C   0  0  0  0  0  0  0  0  0  0  0  0
    2.2469    2.0270   -0.8716 H   0  0  0  0  0  0  0  0  0  0  0  0
    0.9952    2.7346    0.2267 H   0  0  0  0  0  0  0  0  0  0  0  0
    2.7065    3.3083    0.3123 H   0  0  0  0  0  0  0  0  0  0  0  0
    2.2090    1.8012    2.2047 H   0  0  0  0  0  0  0  0  0  0  0  0
    3.4277    1.0376    1.1242 H   0  0  0  0  0  0  0  0  0  0  0  0
    1.3406   -2.7562   -1.9196 H   0  0  0  0  0  0  0  0  0  0  0  0
   -0.4170   -3.0221   -1.6279 H   0  0  0  0  0  0  0  0  0  0  0  0
    0.1633   -1.4489   -2.2653 H   0  0  0  0  0  0  0  0  0  0  0  0
    0.2485   -3.7728    0.7167 H   0  0  0  0  0  0  0  0  0  0  0  0
    1.0861   -2.6305    1.8248 H   0  0  0  0  0  0  0  0  0  0  0  0
    1.9808   -3.3505    0.4322 H   0  0  0  0  0  0  0  0  0  0  0  0
   -0.0621    0.6475   -1.4567 H   0  0  0  0  0  0  0  0  0  0  0  0
   -1.5120    2.4882   -2.1222 H   0  0  0  0  0  0  0  0  0  0  0  0
   -4.5742    1.0831    0.5465 H   0  0  0  0  0  0  0  0  0  0  0  0
   -3.1231   -0.7912    1.2292 H   0  0  0  0  0  0  0  0  0  0  0  0
  1  2  1  0
  2  3  1  0
  3  4  1  0
  4  5  2  0
  4  6  1  0
  6  7  1  0
  6  8  1  0
  6  9  1  0
  9 10  1  0
 10 11  2  0
 11 12  1  0
 12 13  2  0
 13 14  1  0
 13 15  1  0
 15 16  2  0
 16 10  1  0
  1 17  1  0
  1 18  1  0
  1 19  1  0
  2 20  1  0
  2 21  1  0
  7 22  1  0
  7 23  1  0
  7 24  1  0
  8 25  1  0
  8 26  1  0
  8 27  1  0
 11 28  1  0
 12 29  1  0
 15 30  1  0
 16 31  1  0
M  END
> <ID>
HT0523

> <Class>
0.0

> <Clusters>
98

> <Fold>
2

$$$$