
     RDKit          3D

 29 30  0  0  0  0  0  0  0  0999 V2000
   -4.8528    1.1841   -0.9991 N   0  0  0  0  0  0  0  0  0  0  0  0
   -3.6899    0.4557   -0.5966 C   0  0  0  0  0  0  0  0  0  0  0  0
   -3.2224    0.5448    0.7223 C   0  0  0  0  0  0  0  0  0  0  0  0
   -2.0848   -0.1668    1.1155 C   0  0  0  0  0  0  0  0  0  0  0  0
   -1.4082   -0.9785    0.1950 C   0  0  0  0  0  0  0  0  0  0  0  0
   -1.8694   -1.0611   -1.1258 C   0  0  0  0  0  0  0  0  0  0  0  0
   -3.0069   -0.3496   -1.5192 C   0  0  0  0  0  0  0  0  0  0  0  0
    0.0375   -1.8538    0.6833 S   0  0  0  0  0  0  0  0  0  0  0  0
    0.1624   -3.1225   -0.1139 O   0  0  0  0  0  0  0  0  0  0  0  0
   -0.0541   -2.2241    2.1377 O   0  0  0  0  0  0  0  0  0  0  0  0
    1.4449   -0.8339    0.4116 C   0  0  0  0  0  0  0  0  0  0  0  0
    2.1056   -0.8596   -0.8240 C   0  0  0  0  0  0  0  0  0  0  0  0
    3.2121   -0.0344   -1.0471 C   0  0  0  0  0  0  0  0  0  0  0  0
    3.6639    0.8284   -0.0384 C   0  0  0  0  0  0  0  0  0  0  0  0
    4.7949    1.6731   -0.2668 N   0  0  0  0  0  0  0  0  0  0  0  0
    2.9966    0.8601    1.1944 C   0  0  0  0  0  0  0  0  0  0  0  0
    1.8902    0.0347    1.4172 C   0  0  0  0  0  0  0  0  0  0  0  0
   -5.3673    1.7876   -0.3194 H   0  0  0  0  0  0  0  0  0  0  0  0
   -5.2077    1.1251   -1.9796 H   0  0  0  0  0  0  0  0  0  0  0  0
   -3.7373    1.1670    1.4436 H   0  0  0  0  0  0  0  0  0  0  0  0
   -1.7305   -0.0812    2.1349 H   0  0  0  0  0  0  0  0  0  0  0  0
   -1.3473   -1.6718   -1.8513 H   0  0  0  0  0  0  0  0  0  0  0  0
   -3.3541   -0.4234   -2.5421 H   0  0  0  0  0  0  0  0  0  0  0  0
    1.7628   -1.5142   -1.6153 H   0  0  0  0  0  0  0  0  0  0  0  0
    3.7150   -0.0652   -2.0055 H   0  0  0  0  0  0  0  0  0  0  0  0
    5.2976    1.6576   -1.1822 H   0  0  0  0  0  0  0  0  0  0  0  0
    5.1380    2.3201    0.4780 H   0  0  0  0  0  0  0  0  0  0  0  0
    3.3318    1.5253    1.9802 H   0  0  0  0  0  0  0  0  0  0  0  0
    1.3796    0.0765    2.3709 H   0  0  0  0  0  0  0  0  0  0  0  0
  1  2  1  0
  2  3  2  0
  3  4  1  0
  4  5  2  0
  5  6  1  0
  6  7  2  0
  7  2  1  0
  5  8  1  0
  8  9  2  0
  8 10  2  0
  8 11  1  0
 11 12  2  0
 12 13  1  0
 13 14  2  0
 14 15  1  0
 14 16  1  0
 16 17  2  0
 17 11  1  0
  1 18  1  0
  1 19  1  0
  3 20  1  0
  4 21  1  0
  6 22  1  0
  7 23  1  0
 12 24  1  0
 13 25  1  0
 15 26  1  0
 15 27  1  0
 16 28  1  0
 17 29  1  0
M  END
> <ID>
HT0591

> <Class>
0.0

> <Clusters>
220

> <Fold>
2

$$$$