
     RDKit          3D

 25 26  0  0  0  0  0  0  0  0999 V2000
    3.4769   -0.8755   -0.9447 C   0  0  0  0  0  0  0  0  0  0  0  0
    2.3812   -0.1328   -0.3323 N   0  0  0  0  0  0  0  0  0  0  0  0
    2.2630    0.2097    1.0356 C   0  0  0  0  0  0  0  0  0  0  0  0
    3.1267   -0.1004    1.8984 O   0  0  0  0  0  0  0  0  0  0  0  0
    1.0184    0.9759    1.3427 C   0  0  0  0  0  0  0  0  0  0  0  0
    0.2968    1.0762   -0.0284 C   0  0  0  0  0  0  0  0  0  0  0  0
    1.2296    0.3830   -0.9744 C   0  0  0  0  0  0  0  0  0  0  0  0
    1.0264    0.2787   -2.2137 O   0  0  0  0  0  0  0  0  0  0  0  0
   -1.0664    0.4148   -0.0138 C   0  0  0  0  0  0  0  0  0  0  0  0
   -2.2193    1.1747   -0.2787 C   0  0  0  0  0  0  0  0  0  0  0  0
   -3.4814    0.5727   -0.2660 C   0  0  0  0  0  0  0  0  0  0  0  0
   -3.6054   -0.7909    0.0115 C   0  0  0  0  0  0  0  0  0  0  0  0
   -2.4673   -1.5560    0.2772 C   0  0  0  0  0  0  0  0  0  0  0  0
   -1.2031   -0.9593    0.2657 C   0  0  0  0  0  0  0  0  0  0  0  0
    3.3046   -1.0012   -2.0341 H   0  0  0  0  0  0  0  0  0  0  0  0
    3.5539   -1.8786   -0.4758 H   0  0  0  0  0  0  0  0  0  0  0  0
    4.4293   -0.3259   -0.7930 H   0  0  0  0  0  0  0  0  0  0  0  0
    0.4192    0.4388    2.1097 H   0  0  0  0  0  0  0  0  0  0  0  0
    1.2843    1.9867    1.7200 H   0  0  0  0  0  0  0  0  0  0  0  0
    0.2189    2.1450   -0.3275 H   0  0  0  0  0  0  0  0  0  0  0  0
   -2.1432    2.2331   -0.4949 H   0  0  0  0  0  0  0  0  0  0  0  0
   -4.3643    1.1644   -0.4711 H   0  0  0  0  0  0  0  0  0  0  0  0
   -4.5834   -1.2544    0.0209 H   0  0  0  0  0  0  0  0  0  0  0  0
   -2.5645   -2.6123    0.4925 H   0  0  0  0  0  0  0  0  0  0  0  0
   -0.3309   -1.5663    0.4743 H   0  0  0  0  0  0  0  0  0  0  0  0
  1  2  1  0
  2  3  1  0
  3  4  2  0
  3  5  1  0
  5  6  1  0
  6  7  1  0
  7  2  1  0
  7  8  2  0
  6  9  1  0
  9 10  2  0
 10 11  1  0
 11 12  2  0
 12 13  1  0
 13 14  2  0
 14  9  1  0
  1 15  1  0
  1 16  1  0
  1 17  1  0
  5 18  1  0
  5 19  1  0
  6 20  1  0
 10 21  1  0
 11 22  1  0
 12 23  1  0
 13 24  1  0
 14 25  1  0
M  END
> <ID>
HT0024

> <Class>
0.0

> <Clusters>
191

> <Fold>
2

$$$$