
     RDKit          3D

 36 38  0  0  0  0  0  0  0  0999 V2000
    3.9148   -2.0515   -0.6121 C   0  0  0  0  0  0  0  0  0  0  0  0
    3.5128   -1.2902    0.6468 C   0  0  0  0  0  0  0  0  0  0  0  0
    2.3936   -0.3360    0.3643 C   0  0  0  0  0  0  0  0  0  0  0  0
    1.0979   -0.6854    0.0014 C   0  0  0  0  0  0  0  0  0  0  0  0
    0.2481    0.4198   -0.1800 C   0  0  0  0  0  0  0  0  0  0  0  0
   -1.1927    0.2734   -0.5085 C   0  0  0  0  0  0  0  0  0  0  0  0
   -1.7977    1.1042   -1.3082 N   0  0  0  0  0  0  0  0  0  0  0  0
   -1.1739    2.2478   -1.9640 C   0  0  0  0  0  0  0  0  0  0  0  0
   -0.7415    3.2577   -0.9453 C   0  0  0  0  0  0  0  0  0  0  0  0
   -1.2766    4.4000   -0.9569 O   0  0  0  0  0  0  0  0  0  0  0  0
    0.2823    2.9453    0.0208 N   0  0  0  0  0  0  0  0  0  0  0  0
    0.8369    4.0144    0.8569 C   0  0  0  0  0  0  0  0  0  0  0  0
    0.8933    1.6400    0.0507 C   0  0  0  0  0  0  0  0  0  0  0  0
    2.4949    1.3373    0.4835 S   0  0  0  0  0  0  0  0  0  0  0  0
   -1.9574   -0.8832    0.0100 C   0  0  0  0  0  0  0  0  0  0  0  0
   -2.6869   -1.6779   -0.8917 C   0  0  0  0  0  0  0  0  0  0  0  0
   -3.4035   -2.7884   -0.4391 C   0  0  0  0  0  0  0  0  0  0  0  0
   -3.4072   -3.1130    0.9180 C   0  0  0  0  0  0  0  0  0  0  0  0
   -2.7014   -2.3231    1.8278 C   0  0  0  0  0  0  0  0  0  0  0  0
   -1.9792   -1.2072    1.3864 C   0  0  0  0  0  0  0  0  0  0  0  0
   -1.1778   -0.2075    2.5955 Cl  0  0  0  0  0  0  0  0  0  0  0  0
    3.0657   -2.6633   -0.9843 H   0  0  0  0  0  0  0  0  0  0  0  0
    4.7636   -2.7289   -0.3809 H   0  0  0  0  0  0  0  0  0  0  0  0
    4.2318   -1.3417   -1.4060 H   0  0  0  0  0  0  0  0  0  0  0  0
    4.3943   -0.7301    1.0260 H   0  0  0  0  0  0  0  0  0  0  0  0
    3.1936   -2.0084    1.4321 H   0  0  0  0  0  0  0  0  0  0  0  0
    0.7764   -1.7122   -0.1187 H   0  0  0  0  0  0  0  0  0  0  0  0
   -0.3012    1.9158   -2.5668 H   0  0  0  0  0  0  0  0  0  0  0  0
   -1.9124    2.7024   -2.6581 H   0  0  0  0  0  0  0  0  0  0  0  0
    1.6305    4.5520    0.2971 H   0  0  0  0  0  0  0  0  0  0  0  0
    1.2659    3.5971    1.7928 H   0  0  0  0  0  0  0  0  0  0  0  0
    0.0450    4.7335    1.1550 H   0  0  0  0  0  0  0  0  0  0  0  0
   -2.6879   -1.4467   -1.9500 H   0  0  0  0  0  0  0  0  0  0  0  0
   -3.9552   -3.3990   -1.1422 H   0  0  0  0  0  0  0  0  0  0  0  0
   -3.9641   -3.9731    1.2667 H   0  0  0  0  0  0  0  0  0  0  0  0
   -2.7248   -2.5738    2.8807 H   0  0  0  0  0  0  0  0  0  0  0  0
  1  2  1  0
  2  3  1  0
  3  4  2  0
  4  5  1  0
  5  6  1  0
  6  7  2  0
  7  8  1  0
  8  9  1  0
  9 10  2  0
  9 11  1  0
 11 12  1  0
 11 13  1  0
 13  5  2  0
 13 14  1  0
 14  3  1  0
  6 15  1  0
 15 16  2  0
 16 17  1  0
 17 18  2  0
 18 19  1  0
 19 20  2  0
 20 15  1  0
 20 21  1  0
  1 22  1  0
  1 23  1  0
  1 24  1  0
  2 25  1  0
  2 26  1  0
  4 27  1  0
  8 28  1  0
  8 29  1  0
 12 30  1  0
 12 31  1  0
 12 32  1  0
 16 33  1  0
 17 34  1  0
 18 35  1  0
 19 36  1  0
M  END
> <ID>
HT0535

> <Class>
0.0

> <Clusters>
105

> <Fold>
2

$$$$