
     RDKit          3D

 26 27  0  0  0  0  0  0  0  0999 V2000
   -3.7037    0.1018    0.9728 N   0  0  0  0  0  0  0  0  0  0  0  0
   -2.8192    0.6223   -0.0245 C   0  0  0  0  0  0  0  0  0  0  0  0
   -3.2682    1.5231   -0.8431 N   0  0  0  0  0  0  0  0  0  0  0  0
   -1.4549    0.1495   -0.1149 N   0  0  0  0  0  0  0  0  0  0  0  0
   -1.1353   -1.2052    0.3713 C   0  0  0  0  0  0  0  0  0  0  0  0
    0.1189   -1.7581   -0.3048 C   0  0  0  0  0  0  0  0  0  0  0  0
    1.2490   -0.7902   -0.1327 C   0  0  0  0  0  0  0  0  0  0  0  0
    2.5465   -1.2359    0.1635 C   0  0  0  0  0  0  0  0  0  0  0  0
    3.5875   -0.3145    0.3067 C   0  0  0  0  0  0  0  0  0  0  0  0
    3.3394    1.0519    0.1530 C   0  0  0  0  0  0  0  0  0  0  0  0
    2.0480    1.5017   -0.1370 C   0  0  0  0  0  0  0  0  0  0  0  0
    0.9923    0.5849   -0.2648 C   0  0  0  0  0  0  0  0  0  0  0  0
   -0.3997    1.0673   -0.5950 C   0  0  0  0  0  0  0  0  0  0  0  0
   -3.3694   -0.5583    1.7083 H   0  0  0  0  0  0  0  0  0  0  0  0
   -4.6983    0.4183    1.0099 H   0  0  0  0  0  0  0  0  0  0  0  0
   -2.6911    1.9426   -1.6042 H   0  0  0  0  0  0  0  0  0  0  0  0
   -1.9765   -1.8976    0.1481 H   0  0  0  0  0  0  0  0  0  0  0  0
   -0.9849   -1.1757    1.4726 H   0  0  0  0  0  0  0  0  0  0  0  0
   -0.0789   -1.8907   -1.3905 H   0  0  0  0  0  0  0  0  0  0  0  0
    0.3690   -2.7505    0.1299 H   0  0  0  0  0  0  0  0  0  0  0  0
    2.7532   -2.2930    0.2750 H   0  0  0  0  0  0  0  0  0  0  0  0
    4.5883   -0.6601    0.5314 H   0  0  0  0  0  0  0  0  0  0  0  0
    4.1487    1.7630    0.2572 H   0  0  0  0  0  0  0  0  0  0  0  0
    1.8700    2.5631   -0.2577 H   0  0  0  0  0  0  0  0  0  0  0  0
   -0.4784    1.1728   -1.6977 H   0  0  0  0  0  0  0  0  0  0  0  0
   -0.5522    2.0675   -0.1325 H   0  0  0  0  0  0  0  0  0  0  0  0
  1  2  1  0
  2  3  2  3
  2  4  1  0
  4  5  1  0
  5  6  1  0
  6  7  1  0
  7  8  2  0
  8  9  1  0
  9 10  2  0
 10 11  1  0
 11 12  2  0
 12  7  1  0
 12 13  1  0
 13  4  1  0
  1 14  1  0
  1 15  1  0
  3 16  1  0
  5 17  1  0
  5 18  1  0
  6 19  1  0
  6 20  1  0
  8 21  1  0
  9 22  1  0
 10 23  1  0
 11 24  1  0
 13 25  1  0
 13 26  1  0
M  END
> <ID>
HT0596

> <Class>
0.0

> <Clusters>
250

> <Fold>
2

$$$$