
     RDKit          3D

 56 59  0  0  0  0  0  0  0  0999 V2000
    4.1077   -0.9327    2.0420 C   0  0  0  0  0  0  0  0  0  0  0  0
    2.9809   -1.3801    1.1032 C   0  0  1  0  0  0  0  0  0  0  0  0
    1.5925   -1.2167    1.7701 C   0  0  0  0  0  0  0  0  0  0  0  0
    0.6759   -0.8056    0.6232 C   0  0  1  0  0  0  0  0  0  0  0  0
   -0.7239   -0.2281    0.9451 C   0  0  2  0  0  0  0  0  0  0  0  0
   -1.5042   -1.1921    1.8681 C   0  0  0  0  0  0  0  0  0  0  0  0
   -2.9151   -0.6793    2.1507 C   0  0  0  0  0  0  0  0  0  0  0  0
   -3.6326   -0.4208    0.8501 C   0  0  0  0  0  0  0  0  0  0  0  0
   -4.7957   -1.0442    0.6017 C   0  0  0  0  0  0  0  0  0  0  0  0
   -5.4835   -0.8699   -0.6766 C   0  0  0  0  0  0  0  0  0  0  0  0
   -6.5826   -1.4464   -0.8887 O   0  0  0  0  0  0  0  0  0  0  0  0
   -4.8815   -0.0331   -1.7106 C   0  0  0  0  0  0  0  0  0  0  0  0
   -3.7269    0.5953   -1.4876 C   0  0  0  0  0  0  0  0  0  0  0  0
   -2.9720    0.5362   -0.1574 C   0  0  1  0  0  0  0  0  0  0  0  0
   -3.0396    1.9618    0.4476 C   0  0  0  0  0  0  0  0  0  0  0  0
   -1.4998    0.0039   -0.4084 C   0  0  2  0  0  0  0  0  0  0  0  0
   -1.6489   -1.2448   -1.0063 F   0  0  0  0  0  0  0  0  0  0  0  0
   -0.6552    0.8532   -1.4309 C   0  0  1  0  0  0  0  0  0  0  0  0
   -0.6454    2.2140   -1.0934 O   0  0  0  0  0  0  0  0  0  0  0  0
    0.8023    0.3299   -1.5998 C   0  0  0  0  0  0  0  0  0  0  0  0
    1.5403    0.1231   -0.2453 C   0  0  1  0  0  0  0  0  0  0  0  0
    1.7848    1.5101    0.4323 C   0  0  0  0  0  0  0  0  0  0  0  0
    2.8701   -0.7154   -0.3319 C   0  0  2  0  0  0  0  0  0  0  0  0
    2.6293   -1.7772   -1.2398 O   0  0  0  0  0  0  0  0  0  0  0  0
    4.0903    0.0705   -0.8873 C   0  0  0  0  0  0  0  0  0  0  0  0
    4.4777   -0.2039   -2.0153 O   0  0  0  0  0  0  0  0  0  0  0  0
    4.8305    1.1938   -0.1987 C   0  0  0  0  0  0  0  0  0  0  0  0
    6.5666    0.8070   -0.0728 Cl  0  0  0  0  0  0  0  0  0  0  0  0
    5.0901   -1.0150    1.5369 H   0  0  0  0  0  0  0  0  0  0  0  0
    3.9459    0.0894    2.4342 H   0  0  0  0  0  0  0  0  0  0  0  0
    4.1362   -1.6096    2.9226 H   0  0  0  0  0  0  0  0  0  0  0  0
    3.1434   -2.4748    0.9739 H   0  0  0  0  0  0  0  0  0  0  0  0
    1.2577   -2.1748    2.2253 H   0  0  0  0  0  0  0  0  0  0  0  0
    1.5925   -0.4334    2.5592 H   0  0  0  0  0  0  0  0  0  0  0  0
    0.4887   -1.7488    0.0550 H   0  0  0  0  0  0  0  0  0  0  0  0
   -0.6119    0.7194    1.5028 H   0  0  0  0  0  0  0  0  0  0  0  0
   -0.9744   -1.2942    2.8396 H   0  0  0  0  0  0  0  0  0  0  0  0
   -1.5668   -2.2032    1.4079 H   0  0  0  0  0  0  0  0  0  0  0  0
   -2.8611    0.2608    2.7396 H   0  0  0  0  0  0  0  0  0  0  0  0
   -3.4486   -1.4278    2.7770 H   0  0  0  0  0  0  0  0  0  0  0  0
   -5.2350   -1.7070    1.3379 H   0  0  0  0  0  0  0  0  0  0  0  0
   -5.3806    0.0824   -2.6649 H   0  0  0  0  0  0  0  0  0  0  0  0
   -3.3483    1.2343   -2.2753 H   0  0  0  0  0  0  0  0  0  0  0  0
   -4.0628    2.1618    0.8347 H   0  0  0  0  0  0  0  0  0  0  0  0
   -2.3325    2.1014    1.2876 H   0  0  0  0  0  0  0  0  0  0  0  0
   -2.8424    2.7477   -0.3102 H   0  0  0  0  0  0  0  0  0  0  0  0
   -1.1347    0.7450   -2.4309 H   0  0  0  0  0  0  0  0  0  0  0  0
   -0.3761    2.7156   -1.9070 H   0  0  0  0  0  0  0  0  0  0  0  0
    1.3832    1.0275   -2.2418 H   0  0  0  0  0  0  0  0  0  0  0  0
    0.7398   -0.6281   -2.1588 H   0  0  0  0  0  0  0  0  0  0  0  0
    0.8615    2.0478    0.6987 H   0  0  0  0  0  0  0  0  0  0  0  0
    2.3372    2.1843   -0.2530 H   0  0  0  0  0  0  0  0  0  0  0  0
    2.3387    1.4171    1.3832 H   0  0  0  0  0  0  0  0  0  0  0  0
    3.4269   -2.3710   -1.2505 H   0  0  0  0  0  0  0  0  0  0  0  0
    4.4591    1.4306    0.8067 H   0  0  0  0  0  0  0  0  0  0  0  0
    4.7321    2.1143   -0.8116 H   0  0  0  0  0  0  0  0  0  0  0  0
  2  1  1  0
  2  3  1  0
  4  3  1  0
  4  5  1  0
  5  6  1  0
  6  7  1  0
  7  8  1  0
  8  9  2  0
  9 10  1  0
 10 11  2  0
 10 12  1  0
 12 13  2  0
 13 14  1  0
 14  8  1  0
 14 15  1  1
 14 16  1  0
 16  5  1  0
 16 17  1  6
 16 18  1  0
 18 19  1  0
 18 20  1  0
 20 21  1  0
 21  4  1  0
 21 22  1  1
 21 23  1  0
 23  2  1  0
 23 24  1  6
 23 25  1  0
 25 26  2  0
 25 27  1  0
 27 28  1  0
  1 29  1  0
  1 30  1  0
  1 31  1  0
  2 32  1  6
  3 33  1  0
  3 34  1  0
  4 35  1  6
  5 36  1  1
  6 37  1  0
  6 38  1  0
  7 39  1  0
  7 40  1  0
  9 41  1  0
 12 42  1  0
 13 43  1  0
 15 44  1  0
 15 45  1  0
 15 46  1  0
 18 47  1  6
 19 48  1  0
 20 49  1  0
 20 50  1  0
 22 51  1  0
 22 52  1  0
 22 53  1  0
 24 54  1  0
 27 55  1  0
 27 56  1  0
M  END
> <ID>
HT0516

> <Class>
0.0

> <Clusters>
35

> <Fold>
2

$$$$