
     RDKit          3D

 11 10  0  0  0  0  0  0  0  0999 V2000
   -1.4502   -0.6824    0.4222 N   0  0  0  0  0  0  0  0  0  0  0  0
   -0.5895    0.3640   -0.1233 C   0  0  0  0  0  0  0  0  0  0  0  0
    0.6975    0.4873    0.6918 C   0  0  0  0  0  0  0  0  0  0  0  0
    1.7756   -0.9588    0.4411 S   0  0  0  0  0  0  0  0  0  0  0  0
   -2.3743   -0.6183   -0.0629 H   0  0  0  0  0  0  0  0  0  0  0  0
   -1.0474   -1.6115    0.1610 H   0  0  0  0  0  0  0  0  0  0  0  0
   -0.3516    0.1527   -1.1899 H   0  0  0  0  0  0  0  0  0  0  0  0
   -1.1280    1.3360   -0.0773 H   0  0  0  0  0  0  0  0  0  0  0  0
    1.2479    1.3965    0.3689 H   0  0  0  0  0  0  0  0  0  0  0  0
    0.4558    0.5871    1.7717 H   0  0  0  0  0  0  0  0  0  0  0  0
    2.7642   -0.4525    1.3062 H   0  0  0  0  0  0  0  0  0  0  0  0
  1  2  1  0
  2  3  1  0
  3  4  1  0
  1  5  1  0
  1  6  1  0
  2  7  1  0
  2  8  1  0
  3  9  1  0
  3 10  1  0
  4 11  1  0
M  END
> <ID>
HT0578

> <Class>
0.0

> <Clusters>
161

> <Fold>
2

$$$$