
     RDKit          3D

 32 32  0  0  0  0  0  0  0  0999 V2000
    0.0771    2.5833   -0.1864 C   0  0  0  0  0  0  0  0  0  0  0  0
    0.0343    1.5870    0.9696 C   0  0  0  0  0  0  0  0  0  0  0  0
   -0.0342    0.2045    0.4731 N   0  0  0  0  0  0  0  0  0  0  0  0
    1.1007   -0.4790   -0.1111 C   0  0  0  0  0  0  0  0  0  0  0  0
    0.9418   -1.6399   -0.5821 O   0  0  0  0  0  0  0  0  0  0  0  0
    2.4498    0.1354   -0.1589 C   0  0  0  0  0  0  0  0  0  0  0  0
    3.4841   -0.4663   -0.7557 C   0  0  0  0  0  0  0  0  0  0  0  0
    4.8331    0.1773   -0.7874 C   0  0  0  0  0  0  0  0  0  0  0  0
   -1.2457   -0.5363    0.6984 C   0  0  0  0  0  0  0  0  0  0  0  0
   -1.4850   -1.0775    1.9703 C   0  0  0  0  0  0  0  0  0  0  0  0
   -2.6529   -1.7993    2.2236 C   0  0  0  0  0  0  0  0  0  0  0  0
   -3.5950   -1.9814    1.2104 C   0  0  0  0  0  0  0  0  0  0  0  0
   -3.3708   -1.4445   -0.0597 C   0  0  0  0  0  0  0  0  0  0  0  0
   -2.1920   -0.7307   -0.3350 C   0  0  0  0  0  0  0  0  0  0  0  0
   -2.0143   -0.1173   -1.6971 C   0  0  0  0  0  0  0  0  0  0  0  0
   -0.8601    2.5200   -0.7767 H   0  0  0  0  0  0  0  0  0  0  0  0
    0.9376    2.3844   -0.8568 H   0  0  0  0  0  0  0  0  0  0  0  0
    0.1719    3.6138    0.2157 H   0  0  0  0  0  0  0  0  0  0  0  0
   -0.8620    1.8212    1.5864 H   0  0  0  0  0  0  0  0  0  0  0  0
    0.9133    1.7165    1.6347 H   0  0  0  0  0  0  0  0  0  0  0  0
    2.6181    1.0988    0.3016 H   0  0  0  0  0  0  0  0  0  0  0  0
    3.3637   -1.4323   -1.2313 H   0  0  0  0  0  0  0  0  0  0  0  0
    5.5487   -0.4773   -1.3275 H   0  0  0  0  0  0  0  0  0  0  0  0
    5.2025    0.3349    0.2480 H   0  0  0  0  0  0  0  0  0  0  0  0
    4.7748    1.1545   -1.3120 H   0  0  0  0  0  0  0  0  0  0  0  0
   -0.7618   -0.9370    2.7639 H   0  0  0  0  0  0  0  0  0  0  0  0
   -2.8299   -2.2139    3.2075 H   0  0  0  0  0  0  0  0  0  0  0  0
   -4.5036   -2.5343    1.4108 H   0  0  0  0  0  0  0  0  0  0  0  0
   -4.1198   -1.5836   -0.8297 H   0  0  0  0  0  0  0  0  0  0  0  0
   -2.4932    0.8835   -1.7147 H   0  0  0  0  0  0  0  0  0  0  0  0
   -2.4884   -0.7530   -2.4749 H   0  0  0  0  0  0  0  0  0  0  0  0
   -0.9432   -0.0115   -1.9632 H   0  0  0  0  0  0  0  0  0  0  0  0
  1  2  1  0
  2  3  1  0
  3  4  1  0
  4  5  2  0
  4  6  1  0
  6  7  2  3
  7  8  1  0
  3  9  1  0
  9 10  2  0
 10 11  1  0
 11 12  2  0
 12 13  1  0
 13 14  2  0
 14  9  1  0
 14 15  1  0
  1 16  1  0
  1 17  1  0
  1 18  1  0
  2 19  1  0
  2 20  1  0
  6 21  1  0
  7 22  1  0
  8 23  1  0
  8 24  1  0
  8 25  1  0
 10 26  1  0
 11 27  1  0
 12 28  1  0
 13 29  1  0
 15 30  1  0
 15 31  1  0
 15 32  1  0
M  END
> <ID>
HT0558

> <Class>
0.0

> <Clusters>
77

> <Fold>
2

$$$$