
     RDKit          3D

 57 59  0  0  0  0  0  0  0  0999 V2000
   -8.0155   -0.6587   -0.7893 C   0  0  0  0  0  0  0  0  0  0  0  0
   -6.8193    0.2272   -1.1573 C   0  0  0  0  0  0  0  0  0  0  0  0
   -5.6380    0.1878   -0.1360 C   0  0  0  0  0  0  0  0  0  0  0  0
   -5.0906   -1.2743    0.0410 C   0  0  0  0  0  0  0  0  0  0  0  0
   -4.5938   -1.9575   -1.2385 C   0  0  0  0  0  0  0  0  0  0  0  0
   -4.5127    1.1324   -0.6649 C   0  0  0  0  0  0  0  0  0  0  0  0
   -3.2806    1.1479    0.2021 C   0  0  0  0  0  0  0  0  0  0  0  0
   -3.3289    1.6890    1.3401 O   0  0  0  0  0  0  0  0  0  0  0  0
   -2.0500    0.5896   -0.2837 N   0  0  0  0  0  0  0  0  0  0  0  0
   -0.9436    0.2303    0.5615 C   0  0  0  0  0  0  0  0  0  0  0  0
   -1.1459   -0.2368    1.8714 C   0  0  0  0  0  0  0  0  0  0  0  0
   -0.0559   -0.5895    2.6683 C   0  0  0  0  0  0  0  0  0  0  0  0
    1.2425   -0.5004    2.1628 C   0  0  0  0  0  0  0  0  0  0  0  0
    1.4669   -0.0753    0.8438 C   0  0  0  0  0  0  0  0  0  0  0  0
    2.8643    0.0005    0.3514 C   0  0  0  0  0  0  0  0  0  0  0  0
    3.1979   -0.0131   -0.9463 C   0  0  0  0  0  0  0  0  0  0  0  0
    4.5990    0.0515   -1.3888 C   0  0  0  0  0  0  0  0  0  0  0  0
    5.6593    0.1530   -0.5569 N   0  0  0  0  0  0  0  0  0  0  0  0
    6.8393    0.1954   -1.2368 C   0  0  0  0  0  0  0  0  0  0  0  0
    6.7222    0.1285   -2.6228 C   0  0  0  0  0  0  0  0  0  0  0  0
    5.0867    0.0123   -2.9961 S   0  0  0  0  0  0  0  0  0  0  0  0
    8.1701    0.3099   -0.5382 C   0  0  0  0  0  0  0  0  0  0  0  0
    8.3605   -0.7049    0.5875 C   0  0  0  0  0  0  0  0  0  0  0  0
    8.4163    0.4316    1.6000 C   0  0  0  0  0  0  0  0  0  0  0  0
    8.2305    1.4470    0.4799 C   0  0  0  0  0  0  0  0  0  0  0  0
    0.3621    0.2952    0.0500 C   0  0  0  0  0  0  0  0  0  0  0  0
   -6.1352    0.7199    1.2108 C   0  0  0  0  0  0  0  0  0  0  0  0
   -6.0694    0.0055    2.2478 O   0  0  0  0  0  0  0  0  0  0  0  0
   -6.6702    2.0026    1.3294 O   0  0  0  0  0  0  0  0  0  0  0  0
   -8.3816   -0.4309    0.2332 H   0  0  0  0  0  0  0  0  0  0  0  0
   -8.8443   -0.4695   -1.5038 H   0  0  0  0  0  0  0  0  0  0  0  0
   -7.7492   -1.7332   -0.8586 H   0  0  0  0  0  0  0  0  0  0  0  0
   -7.1903    1.2690   -1.2645 H   0  0  0  0  0  0  0  0  0  0  0  0
   -6.4659   -0.0646   -2.1690 H   0  0  0  0  0  0  0  0  0  0  0  0
   -4.2515   -1.2747    0.7703 H   0  0  0  0  0  0  0  0  0  0  0  0
   -5.8749   -1.9215    0.4886 H   0  0  0  0  0  0  0  0  0  0  0  0
   -4.2118   -2.9683   -0.9831 H   0  0  0  0  0  0  0  0  0  0  0  0
   -5.4158   -2.0864   -1.9710 H   0  0  0  0  0  0  0  0  0  0  0  0
   -3.7610   -1.3926   -1.7020 H   0  0  0  0  0  0  0  0  0  0  0  0
   -4.2314    0.8377   -1.6976 H   0  0  0  0  0  0  0  0  0  0  0  0
   -4.8855    2.1750   -0.7532 H   0  0  0  0  0  0  0  0  0  0  0  0
   -1.9334    0.4819   -1.3167 H   0  0  0  0  0  0  0  0  0  0  0  0
   -2.1440   -0.3475    2.2739 H   0  0  0  0  0  0  0  0  0  0  0  0
   -0.2182   -0.9410    3.6792 H   0  0  0  0  0  0  0  0  0  0  0  0
    2.0737   -0.7811    2.7984 H   0  0  0  0  0  0  0  0  0  0  0  0
    3.6534    0.0249    1.0945 H   0  0  0  0  0  0  0  0  0  0  0  0
    2.4403   -0.1000   -1.7124 H   0  0  0  0  0  0  0  0  0  0  0  0
    7.5366    0.1482   -3.3348 H   0  0  0  0  0  0  0  0  0  0  0  0
    9.0351    0.3270   -1.2388 H   0  0  0  0  0  0  0  0  0  0  0  0
    9.3291   -1.2453    0.5083 H   0  0  0  0  0  0  0  0  0  0  0  0
    7.4911   -1.3790    0.7541 H   0  0  0  0  0  0  0  0  0  0  0  0
    9.4088    0.5163    2.0941 H   0  0  0  0  0  0  0  0  0  0  0  0
    7.5571    0.4150    2.3059 H   0  0  0  0  0  0  0  0  0  0  0  0
    9.1276    2.0893    0.3416 H   0  0  0  0  0  0  0  0  0  0  0  0
    7.2854    2.0248    0.5840 H   0  0  0  0  0  0  0  0  0  0  0  0
    0.5030    0.6679   -0.9552 H   0  0  0  0  0  0  0  0  0  0  0  0
   -6.7504    2.6327    0.5420 H   0  0  0  0  0  0  0  0  0  0  0  0
  1  2  1  0
  2  3  1  0
  3  4  1  0
  4  5  1  0
  3  6  1  0
  6  7  1  0
  7  8  2  0
  7  9  1  0
  9 10  1  0
 10 11  2  0
 11 12  1  0
 12 13  2  0
 13 14  1  0
 14 15  1  0
 15 16  2  3
 16 17  1  0
 17 18  2  0
 18 19  1  0
 19 20  2  0
 20 21  1  0
 21 17  1  0
 19 22  1  0
 22 23  1  0
 23 24  1  0
 24 25  1  0
 25 22  1  0
 14 26  2  0
 26 10  1  0
  3 27  1  0
 27 28  2  0
 27 29  1  0
  1 30  1  0
  1 31  1  0
  1 32  1  0
  2 33  1  0
  2 34  1  0
  4 35  1  0
  4 36  1  0
  5 37  1  0
  5 38  1  0
  5 39  1  0
  6 40  1  0
  6 41  1  0
  9 42  1  0
 11 43  1  0
 12 44  1  0
 13 45  1  0
 15 46  1  0
 16 47  1  0
 20 48  1  0
 22 49  1  0
 23 50  1  0
 23 51  1  0
 24 52  1  0
 24 53  1  0
 25 54  1  0
 25 55  1  0
 26 56  1  0
 29 57  1  0
M  END
> <ID>
HT0488

> <Class>
0.0

> <Clusters>
38

> <Fold>
2

$$$$