
     RDKit          3D

 32 33  0  0  0  0  0  0  0  0999 V2000
   -3.7740   -1.6540    0.2621 C   0  0  0  0  0  0  0  0  0  0  0  0
   -2.9120   -0.4482    0.0278 C   0  0  0  0  0  0  0  0  0  0  0  0
   -3.5022    0.7785   -0.2705 C   0  0  0  0  0  0  0  0  0  0  0  0
   -2.7005    1.9061   -0.4502 C   0  0  0  0  0  0  0  0  0  0  0  0
   -3.2481    3.0180   -0.6820 O   0  0  0  0  0  0  0  0  0  0  0  0
   -1.3393    1.8192   -0.3545 N   0  0  0  0  0  0  0  0  0  0  0  0
   -0.6313    3.0063   -0.4226 O   0  0  0  0  0  0  0  0  0  0  0  0
   -0.7223    0.6008   -0.1536 C   0  0  0  0  0  0  0  0  0  0  0  0
   -1.5192   -0.5354    0.0939 C   0  0  0  0  0  0  0  0  0  0  0  0
    0.7976    0.4421   -0.1807 C   0  0  0  0  0  0  0  0  0  0  0  0
    1.2662   -0.6505   -1.1867 C   0  0  0  0  0  0  0  0  0  0  0  0
    2.5970   -1.3172   -0.7855 C   0  0  0  0  0  0  0  0  0  0  0  0
    3.5173   -0.3422   -0.0453 C   0  0  0  0  0  0  0  0  0  0  0  0
    2.8814    0.1620    1.2662 C   0  0  0  0  0  0  0  0  0  0  0  0
    1.3392    0.1818    1.2371 C   0  0  0  0  0  0  0  0  0  0  0  0
   -4.3842   -1.8579   -0.6429 H   0  0  0  0  0  0  0  0  0  0  0  0
   -3.1645   -2.5554    0.4852 H   0  0  0  0  0  0  0  0  0  0  0  0
   -4.4515   -1.4666    1.1216 H   0  0  0  0  0  0  0  0  0  0  0  0
   -4.5809    0.8633   -0.3381 H   0  0  0  0  0  0  0  0  0  0  0  0
    0.2895    3.1276   -0.0241 H   0  0  0  0  0  0  0  0  0  0  0  0
   -1.0579   -1.4874    0.3259 H   0  0  0  0  0  0  0  0  0  0  0  0
    1.2747    1.3717   -0.5431 H   0  0  0  0  0  0  0  0  0  0  0  0
    0.5138   -1.4547   -1.3187 H   0  0  0  0  0  0  0  0  0  0  0  0
    1.3887   -0.1784   -2.1868 H   0  0  0  0  0  0  0  0  0  0  0  0
    2.3915   -2.1903   -0.1274 H   0  0  0  0  0  0  0  0  0  0  0  0
    3.1109   -1.6963   -1.6953 H   0  0  0  0  0  0  0  0  0  0  0  0
    4.4843   -0.8418    0.1797 H   0  0  0  0  0  0  0  0  0  0  0  0
    3.7343    0.5230   -0.7101 H   0  0  0  0  0  0  0  0  0  0  0  0
    3.2117   -0.4845    2.1084 H   0  0  0  0  0  0  0  0  0  0  0  0
    3.2585    1.1876    1.4716 H   0  0  0  0  0  0  0  0  0  0  0  0
    0.9736    0.9686    1.9332 H   0  0  0  0  0  0  0  0  0  0  0  0
    0.9577   -0.7961    1.6053 H   0  0  0  0  0  0  0  0  0  0  0  0
  1  2  1  0
  2  3  2  0
  3  4  1  0
  4  5  2  0
  4  6  1  0
  6  7  1  0
  6  8  1  0
  8  9  2  0
  9  2  1  0
  8 10  1  0
 10 11  1  0
 11 12  1  0
 12 13  1  0
 13 14  1  0
 14 15  1  0
 15 10  1  0
  1 16  1  0
  1 17  1  0
  1 18  1  0
  3 19  1  0
  7 20  1  0
  9 21  1  0
 10 22  1  0
 11 23  1  0
 11 24  1  0
 12 25  1  0
 12 26  1  0
 13 27  1  0
 13 28  1  0
 14 29  1  0
 14 30  1  0
 15 31  1  0
 15 32  1  0
M  END
> <ID>
HT0480

> <Class>
0.0

> <Clusters>
147

> <Fold>
2

$$$$