
     RDKit          3D

 32 32  0  0  0  0  0  0  0  0999 V2000
    3.6969    2.8635   -0.8026 N   0  0  0  0  0  0  0  0  0  0  0  0
    2.9516    1.6488   -0.7190 C   0  0  0  0  0  0  0  0  0  0  0  0
    2.6348    1.1325    0.4953 N   0  0  0  0  0  0  0  0  0  0  0  0
    1.9253   -0.0202    0.6127 C   0  0  0  0  0  0  0  0  0  0  0  0
    1.6485   -0.4524    1.7641 O   0  0  0  0  0  0  0  0  0  0  0  0
    1.5147   -0.6953   -0.5098 N   0  0  0  0  0  0  0  0  0  0  0  0
    0.7055   -1.9222   -0.4147 C   0  0  0  0  0  0  0  0  0  0  0  0
   -0.7934   -1.5944   -0.5255 C   0  0  1  0  0  0  0  0  0  0  0  0
   -1.6228   -2.8791   -0.4391 C   0  0  0  0  0  0  0  0  0  0  0  0
   -2.9814   -2.5733   -0.5894 O   0  0  0  0  0  0  0  0  0  0  0  0
   -1.1646   -0.7399    0.5451 O   0  0  0  0  0  0  0  0  0  0  0  0
   -1.5847    0.5178    0.0633 C   0  0  0  0  0  0  0  0  0  0  0  0
   -1.9381    1.6003    1.4743 P   0  0  0  0  0  0  0  0  0  0  0  0
   -0.6786    1.7952    2.2872 O   0  0  0  0  0  0  0  0  0  0  0  0
   -3.1305    0.8944    2.4454 O   0  0  0  0  0  0  0  0  0  0  0  0
   -2.4808    3.0991    0.9070 O   0  0  0  0  0  0  0  0  0  0  0  0
    1.8135   -0.1937   -1.7460 C   0  0  0  0  0  0  0  0  0  0  0  0
    2.5408    0.9874   -1.8752 C   0  0  0  0  0  0  0  0  0  0  0  0
    3.9487    3.2767   -1.7282 H   0  0  0  0  0  0  0  0  0  0  0  0
    3.9999    3.3553    0.0673 H   0  0  0  0  0  0  0  0  0  0  0  0
    0.9092   -2.4565    0.5396 H   0  0  0  0  0  0  0  0  0  0  0  0
    0.9942   -2.6245   -1.2290 H   0  0  0  0  0  0  0  0  0  0  0  0
   -0.9721   -1.1577   -1.5400 H   0  0  0  0  0  0  0  0  0  0  0  0
   -1.4566   -3.3685    0.5474 H   0  0  0  0  0  0  0  0  0  0  0  0
   -1.3111   -3.5808   -1.2456 H   0  0  0  0  0  0  0  0  0  0  0  0
   -3.4674   -3.4356   -0.5180 H   0  0  0  0  0  0  0  0  0  0  0  0
   -2.5147    0.4133   -0.5379 H   0  0  0  0  0  0  0  0  0  0  0  0
   -0.7895    1.0002   -0.5477 H   0  0  0  0  0  0  0  0  0  0  0  0
   -3.9270    0.8307    1.8602 H   0  0  0  0  0  0  0  0  0  0  0  0
   -2.7275    3.6035    1.7228 H   0  0  0  0  0  0  0  0  0  0  0  0
    1.4824   -0.7048   -2.6426 H   0  0  0  0  0  0  0  0  0  0  0  0
    2.7752    1.3803   -2.8565 H   0  0  0  0  0  0  0  0  0  0  0  0
  1  2  1  0
  2  3  2  0
  3  4  1  0
  4  5  2  0
  4  6  1  0
  6  7  1  0
  7  8  1  0
  8  9  1  0
  9 10  1  0
  8 11  1  0
 11 12  1  0
 12 13  1  0
 13 14  2  0
 13 15  1  0
 13 16  1  0
  6 17  1  0
 17 18  2  0
 18  2  1  0
  1 19  1  0
  1 20  1  0
  7 21  1  0
  7 22  1  0
  8 23  1  6
  9 24  1  0
  9 25  1  0
 10 26  1  0
 12 27  1  0
 12 28  1  0
 15 29  1  0
 16 30  1  0
 17 31  1  0
 18 32  1  0
M  END
> <ID>
HT0481

> <Class>
0.0

> <Clusters>
116

> <Fold>
2

$$$$