
     RDKit          3D

 30 32  0  0  0  0  0  0  0  0999 V2000
   -1.6460    2.7420    2.5431 O   0  0  0  0  0  0  0  0  0  0  0  0
   -2.0711    1.4535    2.2275 C   0  0  0  0  0  0  0  0  0  0  0  0
   -2.9647    0.9159    2.9334 O   0  0  0  0  0  0  0  0  0  0  0  0
   -1.4467    0.7026    1.1129 C   0  0  0  0  0  0  0  0  0  0  0  0
   -0.0474    0.7262    1.0043 C   0  0  0  0  0  0  0  0  0  0  0  0
    0.6014   -0.0143    0.0033 C   0  0  0  0  0  0  0  0  0  0  0  0
   -0.1424   -0.7657   -0.8515 N   0  0  0  0  0  0  0  0  0  0  0  0
   -1.4980   -0.8113   -0.7947 C   0  0  0  0  0  0  0  0  0  0  0  0
   -2.1984   -1.5919   -1.7214 C   0  0  0  0  0  0  0  0  0  0  0  0
   -3.5933   -1.6248   -1.6994 C   0  0  0  0  0  0  0  0  0  0  0  0
   -4.2957   -0.8707   -0.7586 C   0  0  0  0  0  0  0  0  0  0  0  0
   -3.6083   -0.0896    0.1752 C   0  0  0  0  0  0  0  0  0  0  0  0
   -2.1967   -0.0635    0.1852 C   0  0  0  0  0  0  0  0  0  0  0  0
    2.0811   -0.0201   -0.1271 C   0  0  0  0  0  0  0  0  0  0  0  0
    2.7336   -1.1514   -0.6531 C   0  0  0  0  0  0  0  0  0  0  0  0
    4.1250   -1.1695   -0.7894 C   0  0  0  0  0  0  0  0  0  0  0  0
    4.8807   -0.0582   -0.4110 C   0  0  0  0  0  0  0  0  0  0  0  0
    4.2461    1.0756    0.1002 C   0  0  0  0  0  0  0  0  0  0  0  0
    2.8549    1.0994    0.2399 C   0  0  0  0  0  0  0  0  0  0  0  0
   -0.9479    3.2210    1.9870 H   0  0  0  0  0  0  0  0  0  0  0  0
    0.5328    1.2791    1.7323 H   0  0  0  0  0  0  0  0  0  0  0  0
   -1.6623   -2.1682   -2.4655 H   0  0  0  0  0  0  0  0  0  0  0  0
   -4.1313   -2.2268   -2.4203 H   0  0  0  0  0  0  0  0  0  0  0  0
   -5.3781   -0.8861   -0.7564 H   0  0  0  0  0  0  0  0  0  0  0  0
   -4.1931    0.5013    0.8650 H   0  0  0  0  0  0  0  0  0  0  0  0
    2.1690   -2.0274   -0.9477 H   0  0  0  0  0  0  0  0  0  0  0  0
    4.6176   -2.0467   -1.1886 H   0  0  0  0  0  0  0  0  0  0  0  0
    5.9576   -0.0736   -0.5187 H   0  0  0  0  0  0  0  0  0  0  0  0
    4.8323    1.9406    0.3828 H   0  0  0  0  0  0  0  0  0  0  0  0
    2.3893    2.0026    0.6113 H   0  0  0  0  0  0  0  0  0  0  0  0
  1  2  1  0
  2  3  2  0
  2  4  1  0
  4  5  2  0
  5  6  1  0
  6  7  2  0
  7  8  1  0
  8  9  2  0
  9 10  1  0
 10 11  2  0
 11 12  1  0
 12 13  2  0
 13  4  1  0
 13  8  1  0
  6 14  1  0
 14 15  2  0
 15 16  1  0
 16 17  2  0
 17 18  1  0
 18 19  2  0
 19 14  1  0
  1 20  1  0
  5 21  1  0
  9 22  1  0
 10 23  1  0
 11 24  1  0
 12 25  1  0
 15 26  1  0
 16 27  1  0
 17 28  1  0
 18 29  1  0
 19 30  1  0
M  END
> <ID>
HT0489

> <Class>
0.0

> <Clusters>
72

> <Fold>
2

$$$$