
     RDKit          3D

  9  9  0  0  0  0  0  0  0  0999 V2000
   -0.6004   -0.6373   -0.0210 C   0  0  0  0  0  0  0  0  0  0  0  0
   -0.2446    0.8354   -0.0963 C   0  0  0  0  0  0  0  0  0  0  0  0
    0.8450   -0.1982    0.1173 C   0  0  0  0  0  0  0  0  0  0  0  0
   -1.0796   -0.9454    0.9324 H   0  0  0  0  0  0  0  0  0  0  0  0
   -0.8478   -1.1001   -0.9999 H   0  0  0  0  0  0  0  0  0  0  0  0
   -0.5084    1.4182    0.8116 H   0  0  0  0  0  0  0  0  0  0  0  0
   -0.2764    1.2635   -1.1206 H   0  0  0  0  0  0  0  0  0  0  0  0
    1.4721   -0.3955   -0.7778 H   0  0  0  0  0  0  0  0  0  0  0  0
    1.2402   -0.2405    1.1544 H   0  0  0  0  0  0  0  0  0  0  0  0
  1  2  1  0
  2  3  1  0
  3  1  1  0
  1  4  1  0
  1  5  1  0
  2  6  1  0
  2  7  1  0
  3  8  1  0
  3  9  1  0
M  END
> <ID>
HT0569

> <Class>
0.0

> <Clusters>
66

> <Fold>
2

$$$$