
     RDKit          3D

 38 40  0  0  0  0  0  0  0  0999 V2000
    0.8292   -3.8115    0.1408 O   0  0  0  0  0  0  0  0  0  0  0  0
    0.7100   -2.4358    0.3905 C   0  0  0  0  0  0  0  0  0  0  0  0
   -0.5845   -1.9833   -0.0993 N   0  0  0  0  0  0  0  0  0  0  0  0
   -1.0681   -0.7864    0.0729 C   0  0  0  0  0  0  0  0  0  0  0  0
   -2.4033   -0.4782   -0.5002 C   0  0  0  0  0  0  0  0  0  0  0  0
   -3.3977   -1.4737   -0.5383 C   0  0  0  0  0  0  0  0  0  0  0  0
   -4.6590   -1.1962   -1.0729 C   0  0  0  0  0  0  0  0  0  0  0  0
   -4.9401    0.0728   -1.5823 C   0  0  0  0  0  0  0  0  0  0  0  0
   -3.9585    1.0658   -1.5636 C   0  0  0  0  0  0  0  0  0  0  0  0
   -2.6937    0.7968   -1.0301 C   0  0  0  0  0  0  0  0  0  0  0  0
   -1.7485    1.7705   -1.0643 F   0  0  0  0  0  0  0  0  0  0  0  0
   -0.3483    0.2281    0.8965 C   0  0  0  0  0  0  0  0  0  0  0  0
   -1.0889    0.9607    1.8437 C   0  0  0  0  0  0  0  0  0  0  0  0
   -0.4769    1.9340    2.6336 C   0  0  0  0  0  0  0  0  0  0  0  0
   -1.4213    2.8362    3.8047 Cl  0  0  0  0  0  0  0  0  0  0  0  0
    0.8849    2.1890    2.4915 C   0  0  0  0  0  0  0  0  0  0  0  0
    1.6384    1.4710    1.5634 C   0  0  0  0  0  0  0  0  0  0  0  0
    1.0450    0.4798    0.7575 C   0  0  0  0  0  0  0  0  0  0  0  0
    1.8579   -0.2304   -0.2097 N   0  0  0  0  0  0  0  0  0  0  0  0
    2.7635    0.5248   -1.0927 C   0  0  0  0  0  0  0  0  0  0  0  0
    4.2298    0.3445   -0.6774 C   0  0  0  0  0  0  0  0  0  0  0  0
    5.0999    1.1965   -1.4952 C   0  0  0  0  0  0  0  0  0  0  0  0
    5.7865    1.8687   -2.1402 N   0  0  0  0  0  0  0  0  0  0  0  0
    1.7776   -1.6671   -0.3350 C   0  0  0  0  0  0  0  0  0  0  0  0
    2.5717   -2.2823   -1.0991 O   0  0  0  0  0  0  0  0  0  0  0  0
    1.5762   -4.1413    0.7062 H   0  0  0  0  0  0  0  0  0  0  0  0
    0.7817   -2.2494    1.4877 H   0  0  0  0  0  0  0  0  0  0  0  0
   -3.2033   -2.4624   -0.1409 H   0  0  0  0  0  0  0  0  0  0  0  0
   -5.4197   -1.9660   -1.0910 H   0  0  0  0  0  0  0  0  0  0  0  0
   -5.9170    0.2853   -1.9968 H   0  0  0  0  0  0  0  0  0  0  0  0
   -4.1766    2.0448   -1.9707 H   0  0  0  0  0  0  0  0  0  0  0  0
   -2.1478    0.7712    1.9731 H   0  0  0  0  0  0  0  0  0  0  0  0
    1.3636    2.9443    3.1020 H   0  0  0  0  0  0  0  0  0  0  0  0
    2.6922    1.6910    1.4814 H   0  0  0  0  0  0  0  0  0  0  0  0
    2.4989    1.6061   -1.0780 H   0  0  0  0  0  0  0  0  0  0  0  0
    2.6283    0.1795   -2.1416 H   0  0  0  0  0  0  0  0  0  0  0  0
    4.3722    0.6119    0.3886 H   0  0  0  0  0  0  0  0  0  0  0  0
    4.5457   -0.7095   -0.8145 H   0  0  0  0  0  0  0  0  0  0  0  0
  1  2  1  0
  2  3  1  0
  3  4  2  0
  4  5  1  0
  5  6  2  0
  6  7  1  0
  7  8  2  0
  8  9  1  0
  9 10  2  0
 10  5  1  0
 10 11  1  0
  4 12  1  0
 12 13  2  0
 13 14  1  0
 14 15  1  0
 14 16  2  0
 16 17  1  0
 17 18  2  0
 18 12  1  0
 18 19  1  0
 19 20  1  0
 20 21  1  0
 21 22  1  0
 22 23  3  0
 19 24  1  0
 24  2  1  0
 24 25  2  0
  1 26  1  0
  2 27  1  0
  6 28  1  0
  7 29  1  0
  8 30  1  0
  9 31  1  0
 13 32  1  0
 16 33  1  0
 17 34  1  0
 20 35  1  0
 20 36  1  0
 21 37  1  0
 21 38  1  0
M  END
> <ID>
HT0494

> <Class>
0.0

> <Clusters>
105

> <Fold>
2

$$$$