
     RDKit          3D

 31 31  0  0  0  0  0  0  0  0999 V2000
    2.4644   -1.8792   -0.3330 C   0  0  0  0  0  0  0  0  0  0  0  0
    1.8225   -0.5850   -0.8319 C   0  0  0  0  0  0  0  0  0  0  0  0
    1.6019    0.3784    0.2626 N   0  0  0  0  0  0  0  0  0  0  0  0
    2.7539    0.9625    0.9679 C   0  0  0  0  0  0  0  0  0  0  0  0
    3.4227    2.0490    0.1292 C   0  0  0  0  0  0  0  0  0  0  0  0
    0.2972    0.9703    0.4514 C   0  0  0  0  0  0  0  0  0  0  0  0
    0.2056    2.1994    0.7210 O   0  0  0  0  0  0  0  0  0  0  0  0
   -0.9448    0.1742    0.3370 C   0  0  0  0  0  0  0  0  0  0  0  0
   -0.9983   -1.1422    0.8213 C   0  0  0  0  0  0  0  0  0  0  0  0
   -2.1791   -1.8823    0.7256 C   0  0  0  0  0  0  0  0  0  0  0  0
   -3.3187   -1.3152    0.1509 C   0  0  0  0  0  0  0  0  0  0  0  0
   -3.2827   -0.0010   -0.3380 C   0  0  0  0  0  0  0  0  0  0  0  0
   -4.5189    0.6252   -0.9123 C   0  0  0  0  0  0  0  0  0  0  0  0
   -2.0999    0.7467   -0.2230 C   0  0  0  0  0  0  0  0  0  0  0  0
    1.9406   -2.2621    0.5656 H   0  0  0  0  0  0  0  0  0  0  0  0
    3.5342   -1.7152   -0.0889 H   0  0  0  0  0  0  0  0  0  0  0  0
    2.4109   -2.6498   -1.1306 H   0  0  0  0  0  0  0  0  0  0  0  0
    0.8654   -0.8374   -1.3365 H   0  0  0  0  0  0  0  0  0  0  0  0
    2.4764   -0.1308   -1.6057 H   0  0  0  0  0  0  0  0  0  0  0  0
    3.4988    0.1786    1.2145 H   0  0  0  0  0  0  0  0  0  0  0  0
    2.4253    1.4006    1.9359 H   0  0  0  0  0  0  0  0  0  0  0  0
    4.2349    2.5243    0.7184 H   0  0  0  0  0  0  0  0  0  0  0  0
    3.8663    1.6129   -0.7896 H   0  0  0  0  0  0  0  0  0  0  0  0
    2.6864    2.8296   -0.1548 H   0  0  0  0  0  0  0  0  0  0  0  0
   -0.1384   -1.5865    1.3016 H   0  0  0  0  0  0  0  0  0  0  0  0
   -2.2143   -2.8941    1.1085 H   0  0  0  0  0  0  0  0  0  0  0  0
   -4.2298   -1.8979    0.0929 H   0  0  0  0  0  0  0  0  0  0  0  0
   -4.2537    1.3733   -1.6895 H   0  0  0  0  0  0  0  0  0  0  0  0
   -5.1660   -0.1446   -1.3844 H   0  0  0  0  0  0  0  0  0  0  0  0
   -5.0873    1.1292   -0.1031 H   0  0  0  0  0  0  0  0  0  0  0  0
   -2.0757    1.7689   -0.5827 H   0  0  0  0  0  0  0  0  0  0  0  0
  1  2  1  0
  2  3  1  0
  3  4  1  0
  4  5  1  0
  3  6  1  0
  6  7  2  0
  6  8  1  0
  8  9  2  0
  9 10  1  0
 10 11  2  0
 11 12  1  0
 12 13  1  0
 12 14  2  0
 14  8  1  0
  1 15  1  0
  1 16  1  0
  1 17  1  0
  2 18  1  0
  2 19  1  0
  4 20  1  0
  4 21  1  0
  5 22  1  0
  5 23  1  0
  5 24  1  0
  9 25  1  0
 10 26  1  0
 11 27  1  0
 13 28  1  0
 13 29  1  0
 13 30  1  0
 14 31  1  0
M  END
> <ID>
HT0658

> <Class>
0.0

> <Clusters>
77

> <Fold>
2

$$$$