
     RDKit          3D

 33 35  0  0  0  0  0  0  0  0999 V2000
    0.7586   -2.5101    0.5368 C   0  0  0  0  0  0  0  0  0  0  0  0
   -0.2469   -1.4323    0.2428 C   0  0  0  0  0  0  0  0  0  0  0  0
   -1.5104   -1.8033   -0.0919 N   0  0  0  0  0  0  0  0  0  0  0  0
   -2.4692   -0.8886   -0.3731 C   0  0  0  0  0  0  0  0  0  0  0  0
   -3.7598   -1.3094   -0.7150 C   0  0  0  0  0  0  0  0  0  0  0  0
   -4.7496   -0.3660   -1.0044 C   0  0  0  0  0  0  0  0  0  0  0  0
   -4.4538    0.9992   -0.9533 C   0  0  0  0  0  0  0  0  0  0  0  0
   -3.1669    1.4278   -0.6125 C   0  0  0  0  0  0  0  0  0  0  0  0
   -2.1639    0.4844   -0.3197 C   0  0  0  0  0  0  0  0  0  0  0  0
   -0.8553    0.8598    0.0276 C   0  0  0  0  0  0  0  0  0  0  0  0
   -0.5474    2.0840    0.0892 O   0  0  0  0  0  0  0  0  0  0  0  0
    0.0858   -0.1001    0.2993 N   0  0  0  0  0  0  0  0  0  0  0  0
    1.4247    0.3027    0.6488 C   0  0  0  0  0  0  0  0  0  0  0  0
    1.7708    0.4395    2.0013 C   0  0  0  0  0  0  0  0  0  0  0  0
    3.0594    0.8374    2.3629 C   0  0  0  0  0  0  0  0  0  0  0  0
    4.0101    1.1075    1.3769 C   0  0  0  0  0  0  0  0  0  0  0  0
    3.6763    0.9784    0.0261 C   0  0  0  0  0  0  0  0  0  0  0  0
    2.3863    0.5682   -0.3515 C   0  0  0  0  0  0  0  0  0  0  0  0
    2.0327    0.4532   -1.8087 C   0  0  0  0  0  0  0  0  0  0  0  0
    1.6129   -2.4323   -0.1675 H   0  0  0  0  0  0  0  0  0  0  0  0
    0.2997   -3.5152    0.4233 H   0  0  0  0  0  0  0  0  0  0  0  0
    1.1272   -2.4083    1.5786 H   0  0  0  0  0  0  0  0  0  0  0  0
   -3.9973   -2.3653   -0.7567 H   0  0  0  0  0  0  0  0  0  0  0  0
   -5.7469   -0.6931   -1.2686 H   0  0  0  0  0  0  0  0  0  0  0  0
   -5.2232    1.7265   -1.1781 H   0  0  0  0  0  0  0  0  0  0  0  0
   -2.9606    2.4905   -0.5794 H   0  0  0  0  0  0  0  0  0  0  0  0
    1.0375    0.2366    2.7717 H   0  0  0  0  0  0  0  0  0  0  0  0
    3.3203    0.9399    3.4082 H   0  0  0  0  0  0  0  0  0  0  0  0
    5.0070    1.4204    1.6596 H   0  0  0  0  0  0  0  0  0  0  0  0
    4.4255    1.1987   -0.7241 H   0  0  0  0  0  0  0  0  0  0  0  0
    1.5363   -0.5198   -2.0067 H   0  0  0  0  0  0  0  0  0  0  0  0
    2.9363    0.5120   -2.4520 H   0  0  0  0  0  0  0  0  0  0  0  0
    1.3441    1.2770   -2.0899 H   0  0  0  0  0  0  0  0  0  0  0  0
  1  2  1  0
  2  3  2  0
  3  4  1  0
  4  5  2  0
  5  6  1  0
  6  7  2  0
  7  8  1  0
  8  9  2  0
  9  4  1  0
  9 10  1  0
 10 11  2  0
 10 12  1  0
 12  2  1  0
 12 13  1  0
 13 14  2  0
 14 15  1  0
 15 16  2  0
 16 17  1  0
 17 18  2  0
 18 13  1  0
 18 19  1  0
  1 20  1  0
  1 21  1  0
  1 22  1  0
  5 23  1  0
  6 24  1  0
  7 25  1  0
  8 26  1  0
 14 27  1  0
 15 28  1  0
 16 29  1  0
 17 30  1  0
 19 31  1  0
 19 32  1  0
 19 33  1  0
M  END
> <ID>
HT0634

> <Class>
0.0

> <Clusters>
72

> <Fold>
2

$$$$