
     RDKit          3D

 34 34  0  0  0  0  0  0  0  0999 V2000
   -3.5089   -1.2012    0.7570 C   0  0  0  0  0  0  0  0  0  0  0  0
   -2.4737   -0.7940   -0.2886 C   0  0  0  0  0  0  0  0  0  0  0  0
   -1.6856    0.3666    0.1894 N   0  0  0  0  0  0  0  0  0  0  0  0
   -2.3918    1.6539   -0.0161 C   0  0  0  0  0  0  0  0  0  0  0  0
   -2.2405    2.5285    1.2229 C   0  0  0  0  0  0  0  0  0  0  0  0
   -0.2813    0.4036   -0.3126 C   0  0  0  0  0  0  0  0  0  0  0  0
   -0.1830    0.1486   -1.8339 C   0  0  0  0  0  0  0  0  0  0  0  0
    0.5952   -0.5664    0.4624 C   0  0  0  0  0  0  0  0  0  0  0  0
    0.0636   -1.3185    1.3255 O   0  0  0  0  0  0  0  0  0  0  0  0
    2.0654   -0.6607    0.2488 C   0  0  0  0  0  0  0  0  0  0  0  0
    2.7420   -1.8487    0.5875 C   0  0  0  0  0  0  0  0  0  0  0  0
    4.1233   -1.9590    0.4018 C   0  0  0  0  0  0  0  0  0  0  0  0
    4.8482   -0.8851   -0.1171 C   0  0  0  0  0  0  0  0  0  0  0  0
    4.1937    0.3025   -0.4481 C   0  0  0  0  0  0  0  0  0  0  0  0
    2.8123    0.4190   -0.2649 C   0  0  0  0  0  0  0  0  0  0  0  0
   -3.0048   -1.4310    1.7197 H   0  0  0  0  0  0  0  0  0  0  0  0
   -4.2494   -0.3914    0.9207 H   0  0  0  0  0  0  0  0  0  0  0  0
   -4.0500   -2.1074    0.4121 H   0  0  0  0  0  0  0  0  0  0  0  0
   -1.8216   -1.6791   -0.4519 H   0  0  0  0  0  0  0  0  0  0  0  0
   -2.9770   -0.5675   -1.2554 H   0  0  0  0  0  0  0  0  0  0  0  0
   -2.0033    2.2028   -0.9019 H   0  0  0  0  0  0  0  0  0  0  0  0
   -3.4806    1.5074   -0.1899 H   0  0  0  0  0  0  0  0  0  0  0  0
   -2.6579    2.0049    2.1091 H   0  0  0  0  0  0  0  0  0  0  0  0
   -1.1708    2.7602    1.4081 H   0  0  0  0  0  0  0  0  0  0  0  0
   -2.7910    3.4820    1.0777 H   0  0  0  0  0  0  0  0  0  0  0  0
    0.1315    1.4171   -0.1187 H   0  0  0  0  0  0  0  0  0  0  0  0
   -0.3368   -0.9241   -2.0750 H   0  0  0  0  0  0  0  0  0  0  0  0
   -0.9362    0.7484   -2.3846 H   0  0  0  0  0  0  0  0  0  0  0  0
    0.8175    0.4408   -2.2132 H   0  0  0  0  0  0  0  0  0  0  0  0
    2.2009   -2.6979    0.9863 H   0  0  0  0  0  0  0  0  0  0  0  0
    4.6316   -2.8790    0.6603 H   0  0  0  0  0  0  0  0  0  0  0  0
    5.9177   -0.9720   -0.2595 H   0  0  0  0  0  0  0  0  0  0  0  0
    4.7584    1.1371   -0.8434 H   0  0  0  0  0  0  0  0  0  0  0  0
    2.3430    1.3597   -0.5146 H   0  0  0  0  0  0  0  0  0  0  0  0
  1  2  1  0
  2  3  1  0
  3  4  1  0
  4  5  1  0
  3  6  1  0
  6  7  1  0
  6  8  1  0
  8  9  2  0
  8 10  1  0
 10 11  2  0
 11 12  1  0
 12 13  2  0
 13 14  1  0
 14 15  2  0
 15 10  1  0
  1 16  1  0
  1 17  1  0
  1 18  1  0
  2 19  1  0
  2 20  1  0
  4 21  1  0
  4 22  1  0
  5 23  1  0
  5 24  1  0
  5 25  1  0
  6 26  1  0
  7 27  1  0
  7 28  1  0
  7 29  1  0
 11 30  1  0
 12 31  1  0
 13 32  1  0
 14 33  1  0
 15 34  1  0
M  END
> <ID>
HT0656

> <Class>
0.0

> <Clusters>
77

> <Fold>
2

$$$$