
     RDKit          3D

 73 75  0  0  0  0  0  0  0  0999 V2000
   -8.3971   -0.0140   -0.3407 C   0  0  0  0  0  0  0  0  0  0  0  0
   -7.3402    0.7794   -1.1238 C   0  0  0  0  0  0  0  0  0  0  0  0
   -7.8512    2.2004   -1.3970 C   0  0  0  0  0  0  0  0  0  0  0  0
   -5.9901    0.8365   -0.3747 C   0  0  0  0  0  0  0  0  0  0  0  0
   -5.2917   -0.5343   -0.2991 C   0  0  0  0  0  0  0  0  0  0  0  0
   -3.8454   -0.4307    0.2389 C   0  0  0  0  0  0  0  0  0  0  0  0
   -2.7613   -0.4817   -0.8710 C   0  0  0  0  0  0  0  0  0  0  0  0
   -2.8438    0.7351   -1.8156 C   0  0  0  0  0  0  0  0  0  0  0  0
   -1.3433   -0.8146   -0.2844 C   0  0  0  0  0  0  0  0  0  0  0  0
   -0.3127   -1.2113   -1.3370 C   0  0  0  0  0  0  0  0  0  0  0  0
    0.9910   -1.2619   -0.5702 C   0  0  0  0  0  0  0  0  0  0  0  0
    0.9307   -0.0657    0.3820 C   0  0  0  0  0  0  0  0  0  0  0  0
    1.9027   -0.2206    1.5585 C   0  0  0  0  0  0  0  0  0  0  0  0
    3.2423   -0.2734    1.3778 C   0  0  0  0  0  0  0  0  0  0  0  0
    3.9204   -0.0407    0.0808 C   0  0  0  0  0  0  0  0  0  0  0  0
    5.1312   -0.5373   -0.2493 C   0  0  0  0  0  0  0  0  0  0  0  0
    5.9400   -1.4740    0.6222 C   0  0  0  0  0  0  0  0  0  0  0  0
    7.3950   -0.9700    0.8354 C   0  0  0  0  0  0  0  0  0  0  0  0
    7.5884   -0.5595    2.1661 O   0  0  0  0  0  0  0  0  0  0  0  0
    7.8258    0.1602   -0.1321 C   0  0  0  0  0  0  0  0  0  0  0  0
    7.2823   -0.0412   -1.5614 C   0  0  0  0  0  0  0  0  0  0  0  0
    7.6400    1.0652   -2.3494 O   0  0  0  0  0  0  0  0  0  0  0  0
    5.7755   -0.1853   -1.5398 C   0  0  0  0  0  0  0  0  0  0  0  0
    5.0769   -0.1441   -2.6824 C   0  0  0  0  0  0  0  0  0  0  0  0
    1.3910   -0.4187    2.9655 C   0  0  0  0  0  0  0  0  0  0  0  0
    0.0551    0.2716    3.1916 C   0  0  0  0  0  0  0  0  0  0  0  0
   -0.9643   -0.2323    2.1789 C   0  0  0  0  0  0  0  0  0  0  0  0
   -0.5955    0.1517    0.7133 C   0  0  0  0  0  0  0  0  0  0  0  0
   -0.9275    1.6483    0.4862 C   0  0  0  0  0  0  0  0  0  0  0  0
   -8.5277    0.4068    0.6792 H   0  0  0  0  0  0  0  0  0  0  0  0
   -9.3735    0.0221   -0.8689 H   0  0  0  0  0  0  0  0  0  0  0  0
   -8.1055   -1.0809   -0.2611 H   0  0  0  0  0  0  0  0  0  0  0  0
   -7.1876    0.2826   -2.1083 H   0  0  0  0  0  0  0  0  0  0  0  0
   -7.1193    2.7564   -2.0221 H   0  0  0  0  0  0  0  0  0  0  0  0
   -8.0043    2.7539   -0.4449 H   0  0  0  0  0  0  0  0  0  0  0  0
   -8.8132    2.1649   -1.9516 H   0  0  0  0  0  0  0  0  0  0  0  0
   -6.1445    1.2293    0.6554 H   0  0  0  0  0  0  0  0  0  0  0  0
   -5.3258    1.5519   -0.9009 H   0  0  0  0  0  0  0  0  0  0  0  0
   -5.8708   -1.1825    0.3935 H   0  0  0  0  0  0  0  0  0  0  0  0
   -5.3049   -1.0273   -1.2957 H   0  0  0  0  0  0  0  0  0  0  0  0
   -3.7326    0.4808    0.8599 H   0  0  0  0  0  0  0  0  0  0  0  0
   -3.6855   -1.2942    0.9225 H   0  0  0  0  0  0  0  0  0  0  0  0
   -3.0098   -1.3631   -1.5057 H   0  0  0  0  0  0  0  0  0  0  0  0
   -2.9827    1.6832   -1.2616 H   0  0  0  0  0  0  0  0  0  0  0  0
   -1.9559    0.8265   -2.4675 H   0  0  0  0  0  0  0  0  0  0  0  0
   -3.7201    0.6210   -2.4886 H   0  0  0  0  0  0  0  0  0  0  0  0
   -1.5083   -1.7790    0.2494 H   0  0  0  0  0  0  0  0  0  0  0  0
   -0.2236   -0.4501   -2.1377 H   0  0  0  0  0  0  0  0  0  0  0  0
   -0.5456   -2.1983   -1.7943 H   0  0  0  0  0  0  0  0  0  0  0  0
    1.0481   -2.2139    0.0049 H   0  0  0  0  0  0  0  0  0  0  0  0
    1.8529   -1.2042   -1.2678 H   0  0  0  0  0  0  0  0  0  0  0  0
    1.2796    0.8127   -0.2043 H   0  0  0  0  0  0  0  0  0  0  0  0
    3.8651   -0.4330    2.2476 H   0  0  0  0  0  0  0  0  0  0  0  0
    3.4341    0.6162   -0.6262 H   0  0  0  0  0  0  0  0  0  0  0  0
    5.4698   -1.7042    1.5966 H   0  0  0  0  0  0  0  0  0  0  0  0
    5.9824   -2.4485    0.0886 H   0  0  0  0  0  0  0  0  0  0  0  0
    8.0749   -1.8331    0.6575 H   0  0  0  0  0  0  0  0  0  0  0  0
    6.9307    0.1612    2.3543 H   0  0  0  0  0  0  0  0  0  0  0  0
    7.4547    1.1382    0.2503 H   0  0  0  0  0  0  0  0  0  0  0  0
    8.9365    0.2129   -0.1595 H   0  0  0  0  0  0  0  0  0  0  0  0
    7.7152   -0.9731   -1.9954 H   0  0  0  0  0  0  0  0  0  0  0  0
    8.6013    0.9575   -2.5734 H   0  0  0  0  0  0  0  0  0  0  0  0
    5.5687    0.0491   -3.6279 H   0  0  0  0  0  0  0  0  0  0  0  0
    4.0104   -0.3276   -2.6994 H   0  0  0  0  0  0  0  0  0  0  0  0
    2.1107   -0.0066    3.7092 H   0  0  0  0  0  0  0  0  0  0  0  0
    1.2913   -1.5106    3.1603 H   0  0  0  0  0  0  0  0  0  0  0  0
   -0.3035    0.0320    4.2161 H   0  0  0  0  0  0  0  0  0  0  0  0
    0.1747    1.3739    3.1297 H   0  0  0  0  0  0  0  0  0  0  0  0
   -1.9625    0.1750    2.4471 H   0  0  0  0  0  0  0  0  0  0  0  0
   -1.0331   -1.3355    2.3054 H   0  0  0  0  0  0  0  0  0  0  0  0
   -1.9658    1.8931    0.7827 H   0  0  0  0  0  0  0  0  0  0  0  0
   -0.7610    1.9337   -0.5731 H   0  0  0  0  0  0  0  0  0  0  0  0
   -0.2584    2.2935    1.0921 H   0  0  0  0  0  0  0  0  0  0  0  0
  1  2  1  0
  2  3  1  0
  2  4  1  0
  4  5  1  0
  5  6  1  0
  6  7  1  0
  7  8  1  0
  7  9  1  0
  9 10  1  0
 10 11  1  0
 11 12  1  0
 12 13  1  0
 13 14  2  3
 14 15  1  0
 15 16  2  3
 16 17  1  0
 17 18  1  0
 18 19  1  0
 18 20  1  0
 20 21  1  0
 21 22  1  0
 21 23  1  0
 23 16  1  0
 23 24  2  3
 13 25  1  0
 25 26  1  0
 26 27  1  0
 27 28  1  0
 28  9  1  0
 28 12  1  0
 28 29  1  0
  1 30  1  0
  1 31  1  0
  1 32  1  0
  2 33  1  0
  3 34  1  0
  3 35  1  0
  3 36  1  0
  4 37  1  0
  4 38  1  0
  5 39  1  0
  5 40  1  0
  6 41  1  0
  6 42  1  0
  7 43  1  0
  8 44  1  0
  8 45  1  0
  8 46  1  0
  9 47  1  0
 10 48  1  0
 10 49  1  0
 11 50  1  0
 11 51  1  0
 12 52  1  0
 14 53  1  0
 15 54  1  0
 17 55  1  0
 17 56  1  0
 18 57  1  0
 19 58  1  0
 20 59  1  0
 20 60  1  0
 21 61  1  0
 22 62  1  0
 24 63  1  0
 24 64  1  0
 25 65  1  0
 25 66  1  0
 26 67  1  0
 26 68  1  0
 27 69  1  0
 27 70  1  0
 29 71  1  0
 29 72  1  0
 29 73  1  0
M  END
> <ID>
HT0095

> <Class>
0.0

> <Clusters>
85

> <Fold>
2

$$$$