
     RDKit          3D

 57 60  0  0  0  0  0  0  0  0999 V2000
    3.7307   -2.1231   -1.4099 C   0  0  0  0  0  0  0  0  0  0  0  0
    2.6097   -1.5548   -0.5248 C   0  0  0  0  0  0  0  0  0  0  0  0
    1.3734   -1.0961   -1.3085 C   0  0  0  0  0  0  0  0  0  0  0  0
    0.8509    0.1947   -0.6324 C   0  0  0  0  0  0  0  0  0  0  0  0
   -0.7148    0.2591   -0.6005 C   0  0  0  0  0  0  0  0  0  0  0  0
   -1.2923    1.6773   -0.7731 C   0  0  0  0  0  0  0  0  0  0  0  0
   -2.7473    1.5899   -1.2692 C   0  0  0  0  0  0  0  0  0  0  0  0
   -2.7300    1.4940   -2.6530 F   0  0  0  0  0  0  0  0  0  0  0  0
   -3.4845    0.3948   -0.6851 C   0  0  0  0  0  0  0  0  0  0  0  0
   -4.6293   -0.0028   -1.2666 C   0  0  0  0  0  0  0  0  0  0  0  0
   -5.3640   -1.1664   -0.7663 C   0  0  0  0  0  0  0  0  0  0  0  0
   -6.4516   -1.5075   -1.3010 O   0  0  0  0  0  0  0  0  0  0  0  0
   -4.8088   -1.9499    0.3358 C   0  0  0  0  0  0  0  0  0  0  0  0
   -3.6936   -1.5522    0.9494 C   0  0  0  0  0  0  0  0  0  0  0  0
   -2.9947   -0.2270    0.6392 C   0  0  0  0  0  0  0  0  0  0  0  0
   -3.4822    0.7408    1.7471 C   0  0  0  0  0  0  0  0  0  0  0  0
   -1.4023   -0.4762    0.5929 C   0  0  0  0  0  0  0  0  0  0  0  0
   -1.1976   -1.8297    0.3411 F   0  0  0  0  0  0  0  0  0  0  0  0
   -0.6676   -0.1851    1.9373 C   0  0  0  0  0  0  0  0  0  0  0  0
   -0.8503    1.1340    2.3771 O   0  0  0  0  0  0  0  0  0  0  0  0
    0.8367   -0.4874    1.8372 C   0  0  0  0  0  0  0  0  0  0  0  0
    1.6038    0.3049    0.7191 C   0  0  0  0  0  0  0  0  0  0  0  0
    1.7836    1.7858    1.1583 C   0  0  0  0  0  0  0  0  0  0  0  0
    2.9953   -0.3936    0.4264 C   0  0  0  0  0  0  0  0  0  0  0  0
    3.5236   -0.9678    1.6049 O   0  0  0  0  0  0  0  0  0  0  0  0
    4.0732    0.5448   -0.1781 C   0  0  0  0  0  0  0  0  0  0  0  0
    5.0658    0.7983    0.4905 O   0  0  0  0  0  0  0  0  0  0  0  0
    3.9746    1.2089   -1.5376 C   0  0  0  0  0  0  0  0  0  0  0  0
    5.2290    1.2326   -2.1657 O   0  0  0  0  0  0  0  0  0  0  0  0
    3.9544   -1.4687   -2.2723 H   0  0  0  0  0  0  0  0  0  0  0  0
    4.6536   -2.2733   -0.8107 H   0  0  0  0  0  0  0  0  0  0  0  0
    3.4169   -3.1078   -1.8172 H   0  0  0  0  0  0  0  0  0  0  0  0
    2.2865   -2.4131    0.1076 H   0  0  0  0  0  0  0  0  0  0  0  0
    1.6079   -0.8973   -2.3769 H   0  0  0  0  0  0  0  0  0  0  0  0
    0.6189   -1.9110   -1.2979 H   0  0  0  0  0  0  0  0  0  0  0  0
    1.1933    1.0319   -1.2773 H   0  0  0  0  0  0  0  0  0  0  0  0
   -1.0318   -0.2802   -1.5247 H   0  0  0  0  0  0  0  0  0  0  0  0
   -1.2529    2.2422    0.1779 H   0  0  0  0  0  0  0  0  0  0  0  0
   -0.7014    2.2569   -1.5150 H   0  0  0  0  0  0  0  0  0  0  0  0
   -3.2876    2.5217   -0.9962 H   0  0  0  0  0  0  0  0  0  0  0  0
   -5.0081    0.5098   -2.1432 H   0  0  0  0  0  0  0  0  0  0  0  0
   -5.3008   -2.8621    0.6498 H   0  0  0  0  0  0  0  0  0  0  0  0
   -3.3297   -2.1460    1.7802 H   0  0  0  0  0  0  0  0  0  0  0  0
   -3.0759    1.7641    1.6126 H   0  0  0  0  0  0  0  0  0  0  0  0
   -3.2273    0.3651    2.7611 H   0  0  0  0  0  0  0  0  0  0  0  0
   -4.5904    0.8371    1.7141 H   0  0  0  0  0  0  0  0  0  0  0  0
   -1.0964   -0.8795    2.6986 H   0  0  0  0  0  0  0  0  0  0  0  0
   -0.6402    1.1505    3.3476 H   0  0  0  0  0  0  0  0  0  0  0  0
    1.2988   -0.2824    2.8278 H   0  0  0  0  0  0  0  0  0  0  0  0
    0.9392   -1.5813    1.6846 H   0  0  0  0  0  0  0  0  0  0  0  0
    2.3088    1.8425    2.1349 H   0  0  0  0  0  0  0  0  0  0  0  0
    0.8215    2.3173    1.2436 H   0  0  0  0  0  0  0  0  0  0  0  0
    2.3589    2.3772    0.4252 H   0  0  0  0  0  0  0  0  0  0  0  0
    3.6360   -0.2431    2.2745 H   0  0  0  0  0  0  0  0  0  0  0  0
    3.6500    2.2598   -1.4045 H   0  0  0  0  0  0  0  0  0  0  0  0
    3.2376    0.7220   -2.2014 H   0  0  0  0  0  0  0  0  0  0  0  0
    5.4211    0.3072   -2.4662 H   0  0  0  0  0  0  0  0  0  0  0  0
  1  2  1  0
  2  3  1  0
  3  4  1  0
  4  5  1  0
  5  6  1  0
  6  7  1  0
  7  8  1  0
  7  9  1  0
  9 10  2  0
 10 11  1  0
 11 12  2  0
 11 13  1  0
 13 14  2  0
 14 15  1  0
 15  9  1  0
 15 16  1  0
 15 17  1  0
 17  5  1  0
 17 18  1  0
 17 19  1  0
 19 20  1  0
 19 21  1  0
 21 22  1  0
 22  4  1  0
 22 23  1  0
 22 24  1  0
 24  2  1  0
 24 25  1  0
 24 26  1  0
 26 27  2  0
 26 28  1  0
 28 29  1  0
  1 30  1  0
  1 31  1  0
  1 32  1  0
  2 33  1  0
  3 34  1  0
  3 35  1  0
  4 36  1  0
  5 37  1  0
  6 38  1  0
  6 39  1  0
  7 40  1  0
 10 41  1  0
 13 42  1  0
 14 43  1  0
 16 44  1  0
 16 45  1  0
 16 46  1  0
 19 47  1  0
 20 48  1  0
 21 49  1  0
 21 50  1  0
 23 51  1  0
 23 52  1  0
 23 53  1  0
 25 54  1  0
 28 55  1  0
 28 56  1  0
 29 57  1  0
M  END
> <ID>
HT0660

> <Class>
0.0

> <Clusters>
35

> <Fold>
2

$$$$