
     RDKit          3D

 59 59  0  0  0  0  0  0  0  0999 V2000
   -6.0944    3.5337   -0.5477 C   0  0  0  0  0  0  0  0  0  0  0  0
   -6.3161    2.0357   -0.7554 C   0  0  0  0  0  0  0  0  0  0  0  0
   -5.1831    1.1820   -0.1655 C   0  0  0  0  0  0  0  0  0  0  0  0
   -3.8619    1.3416   -0.9387 C   0  0  0  0  0  0  0  0  0  0  0  0
   -2.8067    0.2940   -0.5407 C   0  0  0  0  0  0  0  0  0  0  0  0
   -2.3120    0.4305    0.9180 C   0  0  2  0  0  0  0  0  0  0  0  0
   -1.7468    1.7019    1.1110 O   0  0  0  0  0  0  0  0  0  0  0  0
   -1.2846   -0.6028    1.3355 C   0  0  0  0  0  0  0  0  0  0  0  0
   -0.7400   -1.5328    0.5280 C   0  0  0  0  0  0  0  0  0  0  0  0
    0.3299   -2.4802    1.0247 C   0  0  1  0  0  0  0  0  0  0  0  0
   -0.0788   -3.9353    0.8111 C   0  0  2  0  0  0  0  0  0  0  0  0
   -0.8711   -4.4056    1.8693 O   0  0  0  0  0  0  0  0  0  0  0  0
    1.2357   -4.6918    0.7542 C   0  0  0  0  0  0  0  0  0  0  0  0
    2.2260   -3.7446    0.0789 C   0  0  2  0  0  0  0  0  0  0  0  0
    3.4998   -3.9009    0.6550 O   0  0  0  0  0  0  0  0  0  0  0  0
    1.6522   -2.3130    0.2465 C   0  0  2  0  0  0  0  0  0  0  0  0
    2.6235   -1.3200    0.9320 C   0  0  0  0  0  0  0  0  0  0  0  0
    2.0310    0.0638    1.0466 C   0  0  0  0  0  0  0  0  0  0  0  0
    2.0527    0.9930    0.0734 C   0  0  0  0  0  0  0  0  0  0  0  0
    2.7727    0.8420   -1.2444 C   0  0  0  0  0  0  0  0  0  0  0  0
    4.2523    1.2391   -1.1349 C   0  0  0  0  0  0  0  0  0  0  0  0
    4.4309    2.7431   -0.8827 C   0  0  0  0  0  0  0  0  0  0  0  0
    5.8823    3.1070   -0.8389 C   0  0  0  0  0  0  0  0  0  0  0  0
    6.6217    2.6505    0.0740 O   0  0  0  0  0  0  0  0  0  0  0  0
    6.4133    3.9598   -1.8015 O   0  0  0  0  0  0  0  0  0  0  0  0
   -6.9928    4.0902   -0.8884 H   0  0  0  0  0  0  0  0  0  0  0  0
   -5.2239    3.8874   -1.1387 H   0  0  0  0  0  0  0  0  0  0  0  0
   -5.9272    3.7566    0.5277 H   0  0  0  0  0  0  0  0  0  0  0  0
   -6.4314    1.8229   -1.8404 H   0  0  0  0  0  0  0  0  0  0  0  0
   -7.2673    1.7511   -0.2556 H   0  0  0  0  0  0  0  0  0  0  0  0
   -5.5006    0.1170   -0.2041 H   0  0  0  0  0  0  0  0  0  0  0  0
   -5.0397    1.4563    0.9020 H   0  0  0  0  0  0  0  0  0  0  0  0
   -3.4494    2.3618   -0.7894 H   0  0  0  0  0  0  0  0  0  0  0  0
   -4.0640    1.2208   -2.0258 H   0  0  0  0  0  0  0  0  0  0  0  0
   -3.2341   -0.7212   -0.6976 H   0  0  0  0  0  0  0  0  0  0  0  0
   -1.9404    0.4143   -1.2281 H   0  0  0  0  0  0  0  0  0  0  0  0
   -3.1783    0.2814    1.6023 H   0  0  0  0  0  0  0  0  0  0  0  0
   -2.4625    2.2919    1.4656 H   0  0  0  0  0  0  0  0  0  0  0  0
   -0.9580   -0.5566    2.3712 H   0  0  0  0  0  0  0  0  0  0  0  0
   -1.0294   -1.6101   -0.5139 H   0  0  0  0  0  0  0  0  0  0  0  0
    0.5184   -2.3313    2.1139 H   0  0  0  0  0  0  0  0  0  0  0  0
   -0.6075   -4.0669   -0.1634 H   0  0  0  0  0  0  0  0  0  0  0  0
   -1.7746   -4.0165    1.7369 H   0  0  0  0  0  0  0  0  0  0  0  0
    1.5769   -4.9278    1.7882 H   0  0  0  0  0  0  0  0  0  0  0  0
    1.1284   -5.6408    0.1846 H   0  0  0  0  0  0  0  0  0  0  0  0
    2.2631   -4.0008   -1.0080 H   0  0  0  0  0  0  0  0  0  0  0  0
    4.1602   -3.6138   -0.0284 H   0  0  0  0  0  0  0  0  0  0  0  0
    1.4300   -1.9335   -0.7762 H   0  0  0  0  0  0  0  0  0  0  0  0
    3.5835   -1.2776    0.3780 H   0  0  0  0  0  0  0  0  0  0  0  0
    2.8583   -1.6825    1.9564 H   0  0  0  0  0  0  0  0  0  0  0  0
    1.5246    0.3127    1.9746 H   0  0  0  0  0  0  0  0  0  0  0  0
    1.5523    1.9384    0.2620 H   0  0  0  0  0  0  0  0  0  0  0  0
    2.6956   -0.1983   -1.6201 H   0  0  0  0  0  0  0  0  0  0  0  0
    2.2743    1.4871   -1.9997 H   0  0  0  0  0  0  0  0  0  0  0  0
    4.7401    0.6606   -0.3203 H   0  0  0  0  0  0  0  0  0  0  0  0
    4.7566    0.9716   -2.0896 H   0  0  0  0  0  0  0  0  0  0  0  0
    3.9352    3.3171   -1.6956 H   0  0  0  0  0  0  0  0  0  0  0  0
    3.9627    3.0303    0.0833 H   0  0  0  0  0  0  0  0  0  0  0  0
    7.3927    4.2172   -1.7842 H   0  0  0  0  0  0  0  0  0  0  0  0
  1  2  1  0
  2  3  1  0
  3  4  1  0
  4  5  1  0
  5  6  1  0
  6  7  1  0
  6  8  1  0
  8  9  2  0
 10  9  1  0
 10 11  1  0
 11 12  1  0
 11 13  1  0
 13 14  1  0
 14 15  1  0
 14 16  1  0
 16 10  1  0
 16 17  1  0
 17 18  1  0
 18 19  2  0
 19 20  1  0
 20 21  1  0
 21 22  1  0
 22 23  1  0
 23 24  2  0
 23 25  1  0
  1 26  1  0
  1 27  1  0
  1 28  1  0
  2 29  1  0
  2 30  1  0
  3 31  1  0
  3 32  1  0
  4 33  1  0
  4 34  1  0
  5 35  1  0
  5 36  1  0
  6 37  1  1
  7 38  1  0
  8 39  1  0
  9 40  1  0
 10 41  1  1
 11 42  1  6
 12 43  1  0
 13 44  1  0
 13 45  1  0
 14 46  1  6
 15 47  1  0
 16 48  1  6
 17 49  1  0
 17 50  1  0
 18 51  1  0
 19 52  1  0
 20 53  1  0
 20 54  1  0
 21 55  1  0
 21 56  1  0
 22 57  1  0
 22 58  1  0
 25 59  1  0
M  END
> <ID>
HT0681

> <Class>
0.0

> <Clusters>
81

> <Fold>
2

$$$$