
     RDKit          3D

 21 22  0  0  0  0  0  0  0  0999 V2000
    3.5428   -0.2673   -0.2443 C   0  0  0  0  0  0  0  0  0  0  0  0
    2.0576   -0.2625   -0.4319 C   0  0  0  0  0  0  0  0  0  0  0  0
    1.5843   -0.6610   -1.5734 N   0  0  0  0  0  0  0  0  0  0  0  0
   -0.0996   -0.7117   -1.9379 S   0  0  0  0  0  0  0  0  0  0  0  0
   -0.5041   -2.1243   -2.2515 O   0  0  0  0  0  0  0  0  0  0  0  0
   -0.3886    0.1874   -3.1064 O   0  0  0  0  0  0  0  0  0  0  0  0
   -0.9582   -0.1487   -0.5316 C   0  0  0  0  0  0  0  0  0  0  0  0
   -2.3575   -0.0826   -0.5417 C   0  0  0  0  0  0  0  0  0  0  0  0
   -3.0450    0.3696    0.5881 C   0  0  0  0  0  0  0  0  0  0  0  0
   -4.7971    0.4525    0.5758 Cl  0  0  0  0  0  0  0  0  0  0  0  0
   -2.3339    0.7555    1.7276 C   0  0  0  0  0  0  0  0  0  0  0  0
   -0.9374    0.6895    1.7379 C   0  0  0  0  0  0  0  0  0  0  0  0
   -0.2355    0.2366    0.6079 C   0  0  0  0  0  0  0  0  0  0  0  0
    1.2037    0.1786    0.6455 N   0  0  0  0  0  0  0  0  0  0  0  0
    3.9312   -1.2995   -0.3723 H   0  0  0  0  0  0  0  0  0  0  0  0
    4.0159    0.3955   -0.9991 H   0  0  0  0  0  0  0  0  0  0  0  0
    3.8224    0.0929    0.7676 H   0  0  0  0  0  0  0  0  0  0  0  0
   -2.9093   -0.3814   -1.4243 H   0  0  0  0  0  0  0  0  0  0  0  0
   -2.8611    1.1065    2.6056 H   0  0  0  0  0  0  0  0  0  0  0  0
   -0.4015    0.9922    2.6287 H   0  0  0  0  0  0  0  0  0  0  0  0
    1.6708    0.4823    1.5299 H   0  0  0  0  0  0  0  0  0  0  0  0
  1  2  1  0
  2  3  2  0
  3  4  1  0
  4  5  2  0
  4  6  2  0
  4  7  1  0
  7  8  2  0
  8  9  1  0
  9 10  1  0
  9 11  2  0
 11 12  1  0
 12 13  2  0
 13  7  1  0
 13 14  1  0
 14  2  1  0
  1 15  1  0
  1 16  1  0
  1 17  1  0
  8 18  1  0
 11 19  1  0
 12 20  1  0
 14 21  1  0
M  END
> <ID>
HT0638

> <Class>
0.0

> <Clusters>
185

> <Fold>
2

$$$$