
     RDKit          3D

 57 57  0  0  0  0  0  0  0  0999 V2000
   -5.9387    3.2298    0.4343 C   0  0  0  0  0  0  0  0  0  0  0  0
   -5.4483    1.9224    1.0497 C   0  0  0  0  0  0  0  0  0  0  0  0
   -6.1104    0.7115    0.3765 C   0  0  0  0  0  0  0  0  0  0  0  0
   -5.7857   -0.6187    1.0800 C   0  0  0  0  0  0  0  0  0  0  0  0
   -4.2889   -0.9832    1.1309 C   0  0  0  0  0  0  0  0  0  0  0  0
   -3.6342   -1.1257   -0.2584 C   0  0  2  0  0  0  0  0  0  0  0  0
   -4.3320   -2.0468   -1.0587 O   0  0  0  0  0  0  0  0  0  0  0  0
   -2.1953   -1.5619   -0.1097 C   0  0  0  0  0  0  0  0  0  0  0  0
   -1.1717   -0.7968   -0.5212 C   0  0  0  0  0  0  0  0  0  0  0  0
    0.2625   -1.2588   -0.3518 C   0  0  1  0  0  0  0  0  0  0  0  0
    0.5963   -2.3726   -1.3830 C   0  0  2  0  0  0  0  0  0  0  0  0
    1.3280   -3.4017   -0.7687 O   0  0  0  0  0  0  0  0  0  0  0  0
    1.4455   -1.7307   -2.4837 C   0  0  0  0  0  0  0  0  0  0  0  0
    1.8588   -0.4223   -1.9276 C   0  0  0  0  0  0  0  0  0  0  0  0
    2.5898    0.3482   -2.5307 O   0  0  0  0  0  0  0  0  0  0  0  0
    1.2666   -0.1052   -0.6005 C   0  0  2  0  0  0  0  0  0  0  0  0
    2.3479    0.0318    0.4955 C   0  0  0  0  0  0  0  0  0  0  0  0
    3.1979   -1.2117    0.6628 C   0  0  0  0  0  0  0  0  0  0  0  0
    4.5104   -1.3002    0.3755 C   0  0  0  0  0  0  0  0  0  0  0  0
    5.3538   -0.1702   -0.1546 C   0  0  0  0  0  0  0  0  0  0  0  0
    5.7823    0.7756    0.9777 C   0  0  0  0  0  0  0  0  0  0  0  0
    6.5797    1.9772    0.4539 C   0  0  0  0  0  0  0  0  0  0  0  0
    5.7284    2.8986   -0.3721 C   0  0  0  0  0  0  0  0  0  0  0  0
    5.9809    3.0574   -1.5953 O   0  0  0  0  0  0  0  0  0  0  0  0
    4.6653    3.5909    0.2009 O   0  0  0  0  0  0  0  0  0  0  0  0
   -5.7029    3.2571   -0.6510 H   0  0  0  0  0  0  0  0  0  0  0  0
   -7.0356    3.3358    0.5746 H   0  0  0  0  0  0  0  0  0  0  0  0
   -5.4339    4.0861    0.9292 H   0  0  0  0  0  0  0  0  0  0  0  0
   -5.6834    1.9257    2.1363 H   0  0  0  0  0  0  0  0  0  0  0  0
   -4.3460    1.8710    0.9240 H   0  0  0  0  0  0  0  0  0  0  0  0
   -7.2143    0.8445    0.4044 H   0  0  0  0  0  0  0  0  0  0  0  0
   -5.8185    0.6630   -0.6939 H   0  0  0  0  0  0  0  0  0  0  0  0
   -6.1715   -0.5747    2.1218 H   0  0  0  0  0  0  0  0  0  0  0  0
   -6.3408   -1.4344    0.5680 H   0  0  0  0  0  0  0  0  0  0  0  0
   -3.7373   -0.2256    1.7277 H   0  0  0  0  0  0  0  0  0  0  0  0
   -4.1933   -1.9474    1.6778 H   0  0  0  0  0  0  0  0  0  0  0  0
   -3.6672   -0.1389   -0.7671 H   0  0  0  0  0  0  0  0  0  0  0  0
   -4.3279   -2.9212   -0.5868 H   0  0  0  0  0  0  0  0  0  0  0  0
   -1.9923   -2.5268    0.3482 H   0  0  0  0  0  0  0  0  0  0  0  0
   -1.3787    0.1704   -0.9716 H   0  0  0  0  0  0  0  0  0  0  0  0
    0.3657   -1.6418    0.6887 H   0  0  0  0  0  0  0  0  0  0  0  0
   -0.3219   -2.8070   -1.8457 H   0  0  0  0  0  0  0  0  0  0  0  0
    0.6815   -3.9238   -0.2254 H   0  0  0  0  0  0  0  0  0  0  0  0
    0.8402   -1.5659   -3.4012 H   0  0  0  0  0  0  0  0  0  0  0  0
    2.3380   -2.3465   -2.7301 H   0  0  0  0  0  0  0  0  0  0  0  0
    0.7476    0.8765   -0.6740 H   0  0  0  0  0  0  0  0  0  0  0  0
    1.8506    0.2419    1.4664 H   0  0  0  0  0  0  0  0  0  0  0  0
    2.9602    0.9266    0.2661 H   0  0  0  0  0  0  0  0  0  0  0  0
    2.7113   -2.1005    1.0505 H   0  0  0  0  0  0  0  0  0  0  0  0
    4.9975   -2.2607    0.5183 H   0  0  0  0  0  0  0  0  0  0  0  0
    6.2668   -0.6038   -0.6170 H   0  0  0  0  0  0  0  0  0  0  0  0
    4.8113    0.3705   -0.9573 H   0  0  0  0  0  0  0  0  0  0  0  0
    4.9003    1.1320    1.5508 H   0  0  0  0  0  0  0  0  0  0  0  0
    6.4262    0.2112    1.6873 H   0  0  0  0  0  0  0  0  0  0  0  0
    7.4453    1.6163   -0.1441 H   0  0  0  0  0  0  0  0  0  0  0  0
    6.9837    2.5496    1.3160 H   0  0  0  0  0  0  0  0  0  0  0  0
    4.4510    3.5036    1.1868 H   0  0  0  0  0  0  0  0  0  0  0  0
  1  2  1  0
  2  3  1  0
  3  4  1  0
  4  5  1  0
  5  6  1  0
  6  7  1  0
  6  8  1  0
  8  9  2  0
 10  9  1  0
 10 11  1  0
 11 12  1  0
 11 13  1  0
 13 14  1  0
 14 15  2  0
 14 16  1  0
 16 10  1  0
 16 17  1  0
 17 18  1  0
 18 19  2  0
 19 20  1  0
 20 21  1  0
 21 22  1  0
 22 23  1  0
 23 24  2  0
 23 25  1  0
  1 26  1  0
  1 27  1  0
  1 28  1  0
  2 29  1  0
  2 30  1  0
  3 31  1  0
  3 32  1  0
  4 33  1  0
  4 34  1  0
  5 35  1  0
  5 36  1  0
  6 37  1  6
  7 38  1  0
  8 39  1  0
  9 40  1  0
 10 41  1  1
 11 42  1  6
 12 43  1  0
 13 44  1  0
 13 45  1  0
 16 46  1  6
 17 47  1  0
 17 48  1  0
 18 49  1  0
 19 50  1  0
 20 51  1  0
 20 52  1  0
 21 53  1  0
 21 54  1  0
 22 55  1  0
 22 56  1  0
 25 57  1  0
M  END
> <ID>
HT0682

> <Class>
0.0

> <Clusters>
12

> <Fold>
2

$$$$