
     RDKit          3D

 49 52  0  0  0  0  0  0  0  0999 V2000
   -3.0822   -1.5663   -0.7181 C   0  0  0  0  0  0  0  0  0  0  0  0
   -2.8055   -0.0407   -0.8277 C   0  0  2  0  0  0  0  0  0  0  0  0
   -1.9273    0.2791   -2.0496 C   0  0  0  0  0  0  0  0  0  0  0  0
   -0.4970   -0.2893   -1.8594 C   0  0  0  0  0  0  0  0  0  0  0  0
    0.1752    0.0894   -0.4883 C   0  0  1  0  0  0  0  0  0  0  0  0
   -0.7929   -0.0950    0.7301 C   0  0  1  0  0  0  0  0  0  0  0  0
   -0.1815    0.5057    2.0073 C   0  0  0  0  0  0  0  0  0  0  0  0
    1.2910    0.2422    2.1620 C   0  0  0  0  0  0  0  0  0  0  0  0
    2.0889   -0.2005    1.1670 C   0  0  0  0  0  0  0  0  0  0  0  0
    3.5894   -0.1264    1.3399 C   0  0  0  0  0  0  0  0  0  0  0  0
    4.1854    0.9212    0.3706 C   0  0  1  0  0  0  0  0  0  0  0  0
    5.5149    0.5829    0.0708 O   0  0  0  0  0  0  0  0  0  0  0  0
    3.3798    1.0522   -0.9469 C   0  0  0  0  0  0  0  0  0  0  0  0
    2.6296   -0.2450   -1.2926 C   0  0  0  0  0  0  0  0  0  0  0  0
    1.5555   -0.6251   -0.2105 C   0  0  2  0  0  0  0  0  0  0  0  0
    1.4174   -2.1698   -0.1991 C   0  0  0  0  0  0  0  0  0  0  0  0
   -2.1305    0.5878    0.3955 C   0  0  2  0  0  0  0  0  0  0  0  0
   -3.2316    0.6964    1.4524 C   0  0  0  0  0  0  0  0  0  0  0  0
   -4.4725    1.0836    0.6288 C   0  0  0  0  0  0  0  0  0  0  0  0
   -4.1281    0.6483   -0.7634 C   0  0  0  0  0  0  0  0  0  0  0  0
   -4.8732    0.7917   -1.7205 O   0  0  0  0  0  0  0  0  0  0  0  0
   -3.6538   -1.9085   -1.6076 H   0  0  0  0  0  0  0  0  0  0  0  0
   -3.6856   -1.8071    0.1824 H   0  0  0  0  0  0  0  0  0  0  0  0
   -2.1578   -2.1729   -0.6700 H   0  0  0  0  0  0  0  0  0  0  0  0
   -2.3791   -0.1547   -2.9683 H   0  0  0  0  0  0  0  0  0  0  0  0
   -1.8657    1.3800   -2.2010 H   0  0  0  0  0  0  0  0  0  0  0  0
   -0.5356   -1.3862   -1.9927 H   0  0  0  0  0  0  0  0  0  0  0  0
    0.1045    0.1091   -2.6998 H   0  0  0  0  0  0  0  0  0  0  0  0
    0.3877    1.1806   -0.5583 H   0  0  0  0  0  0  0  0  0  0  0  0
   -0.9807   -1.1660    0.9321 H   0  0  0  0  0  0  0  0  0  0  0  0
   -0.3201    1.6088    2.0191 H   0  0  0  0  0  0  0  0  0  0  0  0
   -0.7096    0.0899    2.8924 H   0  0  0  0  0  0  0  0  0  0  0  0
    1.7374    0.5651    3.0985 H   0  0  0  0  0  0  0  0  0  0  0  0
    4.0166   -1.1285    1.1190 H   0  0  0  0  0  0  0  0  0  0  0  0
    3.8824    0.1238    2.3834 H   0  0  0  0  0  0  0  0  0  0  0  0
    4.1663    1.9183    0.8704 H   0  0  0  0  0  0  0  0  0  0  0  0
    6.0491    0.7697    0.8868 H   0  0  0  0  0  0  0  0  0  0  0  0
    4.0597    1.3214   -1.7847 H   0  0  0  0  0  0  0  0  0  0  0  0
    2.6448    1.8804   -0.8506 H   0  0  0  0  0  0  0  0  0  0  0  0
    2.1969   -0.1547   -2.3052 H   0  0  0  0  0  0  0  0  0  0  0  0
    3.3955   -1.0485   -1.3792 H   0  0  0  0  0  0  0  0  0  0  0  0
    0.6698   -2.5230    0.5366 H   0  0  0  0  0  0  0  0  0  0  0  0
    1.1543   -2.5626   -1.2017 H   0  0  0  0  0  0  0  0  0  0  0  0
    2.3827   -2.6433    0.0820 H   0  0  0  0  0  0  0  0  0  0  0  0
   -1.8779    1.6511    0.1507 H   0  0  0  0  0  0  0  0  0  0  0  0
   -3.3844   -0.2799    1.9614 H   0  0  0  0  0  0  0  0  0  0  0  0
   -2.9956    1.4745    2.2105 H   0  0  0  0  0  0  0  0  0  0  0  0
   -4.6281    2.1837    0.6489 H   0  0  0  0  0  0  0  0  0  0  0  0
   -5.3786    0.5568    0.9969 H   0  0  0  0  0  0  0  0  0  0  0  0
  2  1  1  1
  2  3  1  0
  3  4  1  0
  5  4  1  0
  5  6  1  0
  6  7  1  0
  7  8  1  0
  8  9  2  0
  9 10  1  0
 10 11  1  0
 11 12  1  0
 11 13  1  0
 13 14  1  0
 14 15  1  0
 15  5  1  0
 15  9  1  0
 15 16  1  1
  6 17  1  0
 17  2  1  0
 17 18  1  0
 18 19  1  0
 19 20  1  0
 20  2  1  0
 20 21  2  0
  1 22  1  0
  1 23  1  0
  1 24  1  0
  3 25  1  0
  3 26  1  0
  4 27  1  0
  4 28  1  0
  5 29  1  6
  6 30  1  1
  7 31  1  0
  7 32  1  0
  8 33  1  0
 10 34  1  0
 10 35  1  0
 11 36  1  1
 12 37  1  0
 13 38  1  0
 13 39  1  0
 14 40  1  0
 14 41  1  0
 16 42  1  0
 16 43  1  0
 16 44  1  0
 17 45  1  6
 18 46  1  0
 18 47  1  0
 19 48  1  0
 19 49  1  0
M  END
> <ID>
HT0603

> <Class>
0.0

> <Clusters>
69

> <Fold>
2

$$$$