
     RDKit          3D

 54 55  0  0  0  0  0  0  0  0999 V2000
    7.3830    1.9128    1.3858 C   0  0  0  0  0  0  0  0  0  0  0  0
    6.7477    0.5547    1.0896 C   0  0  0  0  0  0  0  0  0  0  0  0
    5.2125    0.6046    1.0854 C   0  0  0  0  0  0  0  0  0  0  0  0
    4.6503    1.3657   -0.1228 C   0  0  0  0  0  0  0  0  0  0  0  0
    3.2254    1.2950   -0.1420 O   0  0  0  0  0  0  0  0  0  0  0  0
    2.5106    0.1512   -0.5163 C   0  0  0  0  0  0  0  0  0  0  0  0
    1.1189    0.1551   -0.4230 C   0  0  0  0  0  0  0  0  0  0  0  0
    0.3813   -0.9834   -0.7834 C   0  0  0  0  0  0  0  0  0  0  0  0
   -1.0879   -0.9486   -0.6014 C   0  0  0  0  0  0  0  0  0  0  0  0
   -1.6724   -1.9117   -0.0345 O   0  0  0  0  0  0  0  0  0  0  0  0
   -1.8405    0.1965   -1.0296 N   0  0  0  0  0  0  0  0  0  0  0  0
   -3.2709    0.3398   -0.7670 C   0  0  0  0  0  0  0  0  0  0  0  0
   -3.5099    0.6670    0.7214 C   0  0  0  0  0  0  0  0  0  0  0  0
   -4.8907    1.1020    1.0540 N   0  0  0  0  0  0  0  0  0  0  0  0
   -5.9998    0.3723    0.4017 C   0  0  0  0  0  0  0  0  0  0  0  0
   -6.0859   -1.0628    0.9162 C   0  0  0  0  0  0  0  0  0  0  0  0
   -5.0836    2.5676    1.1175 C   0  0  0  0  0  0  0  0  0  0  0  0
   -4.9590    3.2649   -0.2388 C   0  0  0  0  0  0  0  0  0  0  0  0
    1.0707   -2.1232   -1.2711 C   0  0  0  0  0  0  0  0  0  0  0  0
    0.4082   -3.2859   -1.7205 C   0  0  0  0  0  0  0  0  0  0  0  0
    1.1395   -4.3813   -2.1894 C   0  0  0  0  0  0  0  0  0  0  0  0
    2.5337   -4.3326   -2.2296 C   0  0  0  0  0  0  0  0  0  0  0  0
    3.2059   -3.1829   -1.8129 C   0  0  0  0  0  0  0  0  0  0  0  0
    2.4863   -2.0782   -1.3437 C   0  0  0  0  0  0  0  0  0  0  0  0
    3.1546   -0.9569   -0.9693 N   0  0  0  0  0  0  0  0  0  0  0  0
    7.1937    2.6249    0.5561 H   0  0  0  0  0  0  0  0  0  0  0  0
    6.9817    2.3317    2.3330 H   0  0  0  0  0  0  0  0  0  0  0  0
    8.4815    1.7906    1.4915 H   0  0  0  0  0  0  0  0  0  0  0  0
    7.1204    0.1733    0.1140 H   0  0  0  0  0  0  0  0  0  0  0  0
    7.0733   -0.1604    1.8760 H   0  0  0  0  0  0  0  0  0  0  0  0
    4.8443    1.0721    2.0246 H   0  0  0  0  0  0  0  0  0  0  0  0
    4.8366   -0.4403    1.0647 H   0  0  0  0  0  0  0  0  0  0  0  0
    5.0641    0.9640   -1.0737 H   0  0  0  0  0  0  0  0  0  0  0  0
    4.9362    2.4351   -0.0483 H   0  0  0  0  0  0  0  0  0  0  0  0
    0.6184    1.0375   -0.0419 H   0  0  0  0  0  0  0  0  0  0  0  0
   -1.3662    0.9318   -1.6011 H   0  0  0  0  0  0  0  0  0  0  0  0
   -3.6705    1.1466   -1.4118 H   0  0  0  0  0  0  0  0  0  0  0  0
   -3.7876   -0.6009   -1.0521 H   0  0  0  0  0  0  0  0  0  0  0  0
   -3.2753   -0.2344    1.3256 H   0  0  0  0  0  0  0  0  0  0  0  0
   -2.7773    1.4415    1.0406 H   0  0  0  0  0  0  0  0  0  0  0  0
   -6.9704    0.8603    0.6406 H   0  0  0  0  0  0  0  0  0  0  0  0
   -5.9033    0.3797   -0.7039 H   0  0  0  0  0  0  0  0  0  0  0  0
   -6.9795   -1.5601    0.4835 H   0  0  0  0  0  0  0  0  0  0  0  0
   -5.1875   -1.6440    0.6239 H   0  0  0  0  0  0  0  0  0  0  0  0
   -6.1770   -1.0648    2.0231 H   0  0  0  0  0  0  0  0  0  0  0  0
   -4.3456    3.0111    1.8208 H   0  0  0  0  0  0  0  0  0  0  0  0
   -6.0844    2.7932    1.5464 H   0  0  0  0  0  0  0  0  0  0  0  0
   -5.2809    4.3226   -0.1365 H   0  0  0  0  0  0  0  0  0  0  0  0
   -5.6036    2.7783   -0.9994 H   0  0  0  0  0  0  0  0  0  0  0  0
   -3.9027    3.2670   -0.5778 H   0  0  0  0  0  0  0  0  0  0  0  0
   -0.6699   -3.3560   -1.7355 H   0  0  0  0  0  0  0  0  0  0  0  0
    0.6223   -5.2693   -2.5294 H   0  0  0  0  0  0  0  0  0  0  0  0
    3.0938   -5.1837   -2.5949 H   0  0  0  0  0  0  0  0  0  0  0  0
    4.2875   -3.1491   -1.8614 H   0  0  0  0  0  0  0  0  0  0  0  0
  1  2  1  0
  2  3  1  0
  3  4  1  0
  4  5  1  0
  5  6  1  0
  6  7  2  0
  7  8  1  0
  8  9  1  0
  9 10  2  0
  9 11  1  0
 11 12  1  0
 12 13  1  0
 13 14  1  0
 14 15  1  0
 15 16  1  0
 14 17  1  0
 17 18  1  0
  8 19  2  0
 19 20  1  0
 20 21  2  0
 21 22  1  0
 22 23  2  0
 23 24  1  0
 24 19  1  0
 24 25  2  0
 25  6  1  0
  1 26  1  0
  1 27  1  0
  1 28  1  0
  2 29  1  0
  2 30  1  0
  3 31  1  0
  3 32  1  0
  4 33  1  0
  4 34  1  0
  7 35  1  0
 11 36  1  0
 12 37  1  0
 12 38  1  0
 13 39  1  0
 13 40  1  0
 15 41  1  0
 15 42  1  0
 16 43  1  0
 16 44  1  0
 16 45  1  0
 17 46  1  0
 17 47  1  0
 18 48  1  0
 18 49  1  0
 18 50  1  0
 20 51  1  0
 21 52  1  0
 22 53  1  0
 23 54  1  0
M  END
> <ID>
HT0640

> <Class>
0.0

> <Clusters>
207

> <Fold>
2

$$$$