
     RDKit          3D

 41 43  0  0  0  0  0  0  0  0999 V2000
    1.0698    1.4712    2.0890 C   0  0  0  0  0  0  0  0  0  0  0  0
    0.2150    0.7594    0.9953 C   0  0  1  0  0  0  0  0  0  0  0  0
   -0.5898    1.8826    0.2418 C   0  0  0  0  0  0  0  0  0  0  0  0
   -1.0658    1.5940   -1.1959 C   0  0  0  0  0  0  0  0  0  0  0  0
   -2.2894    0.6813   -1.3016 C   0  0  0  0  0  0  0  0  0  0  0  0
   -1.9320   -0.8133   -1.3489 C   0  0  0  0  0  0  0  0  0  0  0  0
   -2.1940   -1.5524   -0.0291 C   0  0  0  0  0  0  0  0  0  0  0  0
   -1.0383   -1.5876    1.0031 C   0  0  1  0  0  0  0  0  0  0  0  0
    0.2367   -2.2698    0.4881 C   0  0  0  0  0  0  0  0  0  0  0  0
    1.2041   -1.3358   -0.1882 C   0  0  0  0  0  0  0  0  0  0  0  0
    2.1578   -1.9073   -1.0482 C   0  0  0  0  0  0  0  0  0  0  0  0
    3.0900   -1.1131   -1.7106 C   0  0  0  0  0  0  0  0  0  0  0  0
    3.0924    0.2652   -1.5212 C   0  0  0  0  0  0  0  0  0  0  0  0
    4.0247    1.0492   -2.1975 O   0  0  0  0  0  0  0  0  0  0  0  0
    2.1623    0.8497   -0.6555 C   0  0  0  0  0  0  0  0  0  0  0  0
    1.2057    0.0671    0.0360 C   0  0  0  0  0  0  0  0  0  0  0  0
   -0.7021   -0.2848    1.7596 C   0  0  2  0  0  0  0  0  0  0  0  0
   -1.9003    0.2834    2.3936 N   0  0  0  0  0  0  0  0  0  0  0  0
    0.4276    1.9700    2.8436 H   0  0  0  0  0  0  0  0  0  0  0  0
    1.7269    0.7443    2.6147 H   0  0  0  0  0  0  0  0  0  0  0  0
    1.7287    2.2581    1.6672 H   0  0  0  0  0  0  0  0  0  0  0  0
    0.0713    2.7717    0.1401 H   0  0  0  0  0  0  0  0  0  0  0  0
   -1.4320    2.2714    0.8465 H   0  0  0  0  0  0  0  0  0  0  0  0
   -1.3614    2.5748   -1.6315 H   0  0  0  0  0  0  0  0  0  0  0  0
   -0.2421    1.2313   -1.8440 H   0  0  0  0  0  0  0  0  0  0  0  0
   -2.7904    0.9291   -2.2642 H   0  0  0  0  0  0  0  0  0  0  0  0
   -3.0363    0.9181   -0.5168 H   0  0  0  0  0  0  0  0  0  0  0  0
   -2.5968   -1.2804   -2.1097 H   0  0  0  0  0  0  0  0  0  0  0  0
   -0.9058   -0.9885   -1.7264 H   0  0  0  0  0  0  0  0  0  0  0  0
   -3.1308   -1.1898    0.4430 H   0  0  0  0  0  0  0  0  0  0  0  0
   -2.4167   -2.6108   -0.2930 H   0  0  0  0  0  0  0  0  0  0  0  0
   -1.4278   -2.2784    1.7880 H   0  0  0  0  0  0  0  0  0  0  0  0
    0.7704   -2.7392    1.3438 H   0  0  0  0  0  0  0  0  0  0  0  0
   -0.0435   -3.0953   -0.2033 H   0  0  0  0  0  0  0  0  0  0  0  0
    2.1761   -2.9782   -1.2110 H   0  0  0  0  0  0  0  0  0  0  0  0
    3.8117   -1.5711   -2.3751 H   0  0  0  0  0  0  0  0  0  0  0  0
    4.0544    2.0556   -2.0828 H   0  0  0  0  0  0  0  0  0  0  0  0
    2.1827    1.9242   -0.5368 H   0  0  0  0  0  0  0  0  0  0  0  0
   -0.0875   -0.6640    2.6103 H   0  0  0  0  0  0  0  0  0  0  0  0
   -2.5864    0.6174    1.6858 H   0  0  0  0  0  0  0  0  0  0  0  0
   -1.6391    1.0907    3.0018 H   0  0  0  0  0  0  0  0  0  0  0  0
  2  1  1  1
  2  3  1  0
  3  4  1  0
  4  5  1  0
  5  6  1  0
  6  7  1  0
  8  7  1  0
  8  9  1  0
  9 10  1  0
 10 11  2  0
 11 12  1  0
 12 13  2  0
 13 14  1  0
 13 15  1  0
 15 16  2  0
 16  2  1  0
 16 10  1  0
  8 17  1  0
 17  2  1  0
 17 18  1  0
  1 19  1  0
  1 20  1  0
  1 21  1  0
  3 22  1  0
  3 23  1  0
  4 24  1  0
  4 25  1  0
  5 26  1  0
  5 27  1  0
  6 28  1  0
  6 29  1  0
  7 30  1  0
  7 31  1  0
  8 32  1  1
  9 33  1  0
  9 34  1  0
 11 35  1  0
 12 36  1  0
 14 37  1  0
 15 38  1  0
 17 39  1  1
 18 40  1  0
 18 41  1  0
M  END
> <ID>
HT0632

> <Class>
0.0

> <Clusters>
147

> <Fold>
2

$$$$