
     RDKit          3D

 35 35  0  0  0  0  0  0  0  0999 V2000
   -2.9489   -2.2540   -1.2733 C   0  0  0  0  0  0  0  0  0  0  0  0
   -3.1652   -0.7596   -1.0607 C   0  0  0  0  0  0  0  0  0  0  0  0
   -1.9643   -0.1453   -0.4783 N   0  0  0  0  0  0  0  0  0  0  0  0
   -2.0046    0.4031    0.8853 C   0  0  0  0  0  0  0  0  0  0  0  0
   -2.0966    1.9244    0.8453 C   0  0  0  0  0  0  0  0  0  0  0  0
   -0.7802    0.0125   -1.2838 C   0  0  0  0  0  0  0  0  0  0  0  0
   -0.8822    0.1718   -2.5306 O   0  0  0  0  0  0  0  0  0  0  0  0
    0.5195   -0.0033   -0.6804 N   0  0  0  0  0  0  0  0  0  0  0  0
    0.9928   -1.2465   -0.0605 C   0  0  0  0  0  0  0  0  0  0  0  0
    2.3316   -1.0269    0.6482 C   0  0  0  0  0  0  0  0  0  0  0  0
    2.3402    0.3156    1.2526 N   0  0  0  0  0  0  0  0  0  0  0  0
    3.4739    0.4556    2.1786 C   0  0  0  0  0  0  0  0  0  0  0  0
    2.3978    1.3639    0.2087 C   0  0  0  0  0  0  0  0  0  0  0  0
    1.4710    1.0674   -0.9916 C   0  0  0  0  0  0  0  0  0  0  0  0
   -2.7012   -2.7426   -0.3070 H   0  0  0  0  0  0  0  0  0  0  0  0
   -2.1204   -2.4269   -1.9922 H   0  0  0  0  0  0  0  0  0  0  0  0
   -3.8750   -2.7114   -1.6806 H   0  0  0  0  0  0  0  0  0  0  0  0
   -3.4096   -0.2722   -2.0291 H   0  0  0  0  0  0  0  0  0  0  0  0
   -4.0450   -0.6202   -0.3959 H   0  0  0  0  0  0  0  0  0  0  0  0
   -2.8791    0.0056    1.4443 H   0  0  0  0  0  0  0  0  0  0  0  0
   -1.1000    0.1056    1.4537 H   0  0  0  0  0  0  0  0  0  0  0  0
   -2.1645    2.3218    1.8798 H   0  0  0  0  0  0  0  0  0  0  0  0
   -3.0006    2.2361    0.2803 H   0  0  0  0  0  0  0  0  0  0  0  0
   -1.1950    2.3526    0.3588 H   0  0  0  0  0  0  0  0  0  0  0  0
    0.2479   -1.6019    0.6825 H   0  0  0  0  0  0  0  0  0  0  0  0
    1.1034   -2.0340   -0.8370 H   0  0  0  0  0  0  0  0  0  0  0  0
    2.4495   -1.8124    1.4279 H   0  0  0  0  0  0  0  0  0  0  0  0
    3.1688   -1.1354   -0.0794 H   0  0  0  0  0  0  0  0  0  0  0  0
    4.4419    0.2640    1.6636 H   0  0  0  0  0  0  0  0  0  0  0  0
    3.4898    1.4787    2.6129 H   0  0  0  0  0  0  0  0  0  0  0  0
    3.3653   -0.2591    3.0224 H   0  0  0  0  0  0  0  0  0  0  0  0
    3.4373    1.4920   -0.1721 H   0  0  0  0  0  0  0  0  0  0  0  0
    2.0888    2.3300    0.6647 H   0  0  0  0  0  0  0  0  0  0  0  0
    2.0836    0.7543   -1.8651 H   0  0  0  0  0  0  0  0  0  0  0  0
    0.9291    1.9967   -1.2758 H   0  0  0  0  0  0  0  0  0  0  0  0
  1  2  1  0
  2  3  1  0
  3  4  1  0
  4  5  1  0
  3  6  1  0
  6  7  2  0
  6  8  1  0
  8  9  1  0
  9 10  1  0
 10 11  1  0
 11 12  1  0
 11 13  1  0
 13 14  1  0
 14  8  1  0
  1 15  1  0
  1 16  1  0
  1 17  1  0
  2 18  1  0
  2 19  1  0
  4 20  1  0
  4 21  1  0
  5 22  1  0
  5 23  1  0
  5 24  1  0
  9 25  1  0
  9 26  1  0
 10 27  1  0
 10 28  1  0
 12 29  1  0
 12 30  1  0
 12 31  1  0
 13 32  1  0
 13 33  1  0
 14 34  1  0
 14 35  1  0
M  END
> <ID>
HT0654

> <Class>
0.0

> <Clusters>
77

> <Fold>
2

$$$$