
     RDKit          3D

 22 22  0  0  0  0  0  0  0  0999 V2000
   -3.1377    1.4684   -0.8302 N   0  0  0  0  0  0  0  0  0  0  0  0
   -2.5813   -0.1666   -0.8981 S   0  0  0  0  0  0  0  0  0  0  0  0
   -3.6593   -1.0888   -0.4005 O   0  0  0  0  0  0  0  0  0  0  0  0
   -2.2578   -0.5275   -2.3210 O   0  0  0  0  0  0  0  0  0  0  0  0
   -1.1423   -0.3365    0.1024 C   0  0  0  0  0  0  0  0  0  0  0  0
   -1.2643   -0.6615    1.4565 C   0  0  0  0  0  0  0  0  0  0  0  0
   -0.1270   -0.7892    2.2587 C   0  0  0  0  0  0  0  0  0  0  0  0
   -0.3377   -1.2085    3.9546 Cl  0  0  0  0  0  0  0  0  0  0  0  0
    1.1518   -0.5832    1.7089 C   0  0  0  0  0  0  0  0  0  0  0  0
    2.5773   -0.7603    2.7360 Cl  0  0  0  0  0  0  0  0  0  0  0  0
    1.2792   -0.2404    0.3446 C   0  0  0  0  0  0  0  0  0  0  0  0
    0.1264   -0.1217   -0.4474 C   0  0  0  0  0  0  0  0  0  0  0  0
    2.8676    0.0342   -0.3853 S   0  0  0  0  0  0  0  0  0  0  0  0
    3.6667   -1.2372   -0.3270 O   0  0  0  0  0  0  0  0  0  0  0  0
    3.5872    1.1164    0.3703 O   0  0  0  0  0  0  0  0  0  0  0  0
    2.7114    0.5200   -2.0388 N   0  0  0  0  0  0  0  0  0  0  0  0
   -4.0246    1.5127   -1.3804 H   0  0  0  0  0  0  0  0  0  0  0  0
   -3.3898    1.6636    0.1646 H   0  0  0  0  0  0  0  0  0  0  0  0
   -2.2444   -0.8156    1.8905 H   0  0  0  0  0  0  0  0  0  0  0  0
    0.2098    0.1384   -1.4937 H   0  0  0  0  0  0  0  0  0  0  0  0
    2.3107    1.4849   -2.0382 H   0  0  0  0  0  0  0  0  0  0  0  0
    3.6782    0.5984   -2.4267 H   0  0  0  0  0  0  0  0  0  0  0  0
  1  2  1  0
  2  3  2  0
  2  4  2  0
  2  5  1  0
  5  6  2  0
  6  7  1  0
  7  8  1  0
  7  9  2  0
  9 10  1  0
  9 11  1  0
 11 12  2  0
 12  5  1  0
 11 13  1  0
 13 14  2  0
 13 15  2  0
 13 16  1  0
  1 17  1  0
  1 18  1  0
  6 19  1  0
 12 20  1  0
 16 21  1  0
 16 22  1  0
M  END
> <ID>
HT0646

> <Class>
0.0

> <Clusters>
128

> <Fold>
2

$$$$