
     RDKit          3D

 56 59  0  0  0  0  0  0  0  0999 V2000
    3.5288    0.4548    3.0269 C   0  0  0  0  0  0  0  0  0  0  0  0
    2.7649    1.1593    1.8987 C   0  0  2  0  0  0  0  0  0  0  0  0
    1.2474    1.2577    2.1992 C   0  0  0  0  0  0  0  0  0  0  0  0
    0.6053    0.3570    1.1487 C   0  0  1  0  0  0  0  0  0  0  0  0
   -0.9063    0.4856    0.8505 C   0  0  2  0  0  0  0  0  0  0  0  0
   -1.7242    0.3706    2.1575 C   0  0  0  0  0  0  0  0  0  0  0  0
   -3.2258    0.4217    1.8842 C   0  0  0  0  0  0  0  0  0  0  0  0
   -3.5986   -0.6355    0.8764 C   0  0  0  0  0  0  0  0  0  0  0  0
   -4.5287   -1.5509    1.1933 C   0  0  0  0  0  0  0  0  0  0  0  0
   -4.8678   -2.6299    0.2656 C   0  0  0  0  0  0  0  0  0  0  0  0
   -5.7621   -3.4646    0.5639 O   0  0  0  0  0  0  0  0  0  0  0  0
   -4.1551   -2.7385   -1.0050 C   0  0  0  0  0  0  0  0  0  0  0  0
   -3.2255   -1.8437   -1.3395 C   0  0  0  0  0  0  0  0  0  0  0  0
   -2.8666   -0.6308   -0.4781 C   0  0  1  0  0  0  0  0  0  0  0  0
   -3.3456    0.6202   -1.2591 C   0  0  0  0  0  0  0  0  0  0  0  0
   -1.3121   -0.6479   -0.1687 C   0  0  2  0  0  0  0  0  0  0  0  0
   -1.0666   -1.8647    0.4605 F   0  0  0  0  0  0  0  0  0  0  0  0
   -0.3857   -0.6424   -1.4404 C   0  0  1  0  0  0  0  0  0  0  0  0
   -0.6998    0.4179   -2.2992 O   0  0  0  0  0  0  0  0  0  0  0  0
    1.1306   -0.6102   -1.0889 C   0  0  0  0  0  0  0  0  0  0  0  0
    1.4859    0.5230   -0.0968 C   0  0  1  0  0  0  0  0  0  0  0  0
    1.3460    1.9217   -0.7821 C   0  0  0  0  0  0  0  0  0  0  0  0
    2.8852    0.3852    0.5501 C   0  0  1  0  0  0  0  0  0  0  0  0
    4.0502    0.8299   -0.3176 C   0  0  0  0  0  0  0  0  0  0  0  0
    4.3439    2.0154   -0.4040 O   0  0  0  0  0  0  0  0  0  0  0  0
    4.8908   -0.1881   -1.0357 C   0  0  0  0  0  0  0  0  0  0  0  0
    5.2523    0.3008   -2.3017 O   0  0  0  0  0  0  0  0  0  0  0  0
    3.4418    1.0421    3.9673 H   0  0  0  0  0  0  0  0  0  0  0  0
    4.6045    0.3739    2.7604 H   0  0  0  0  0  0  0  0  0  0  0  0
    3.1240   -0.5654    3.2026 H   0  0  0  0  0  0  0  0  0  0  0  0
    3.1688    2.1921    1.8066 H   0  0  0  0  0  0  0  0  0  0  0  0
    0.9905    0.9171    3.2271 H   0  0  0  0  0  0  0  0  0  0  0  0
    0.8930    2.3051    2.0772 H   0  0  0  0  0  0  0  0  0  0  0  0
    0.7532   -0.6784    1.5442 H   0  0  0  0  0  0  0  0  0  0  0  0
   -1.1131    1.4875    0.4291 H   0  0  0  0  0  0  0  0  0  0  0  0
   -1.4683    1.2129    2.8377 H   0  0  0  0  0  0  0  0  0  0  0  0
   -1.4774   -0.5767    2.6873 H   0  0  0  0  0  0  0  0  0  0  0  0
   -3.4993    1.4232    1.4916 H   0  0  0  0  0  0  0  0  0  0  0  0
   -3.7684    0.2882    2.8466 H   0  0  0  0  0  0  0  0  0  0  0  0
   -5.0311   -1.5202    2.1541 H   0  0  0  0  0  0  0  0  0  0  0  0
   -4.3851   -3.5534   -1.6825 H   0  0  0  0  0  0  0  0  0  0  0  0
   -2.7576   -1.9528   -2.3098 H   0  0  0  0  0  0  0  0  0  0  0  0
   -2.9220    1.5604   -0.8568 H   0  0  0  0  0  0  0  0  0  0  0  0
   -4.4533    0.7022   -1.2047 H   0  0  0  0  0  0  0  0  0  0  0  0
   -3.1016    0.5556   -2.3385 H   0  0  0  0  0  0  0  0  0  0  0  0
   -0.5518   -1.6004   -1.9826 H   0  0  0  0  0  0  0  0  0  0  0  0
   -0.3443    0.1830   -3.1992 H   0  0  0  0  0  0  0  0  0  0  0  0
    1.7313   -0.5012   -2.0193 H   0  0  0  0  0  0  0  0  0  0  0  0
    1.4052   -1.5946   -0.6493 H   0  0  0  0  0  0  0  0  0  0  0  0
    1.7233    2.7392   -0.1349 H   0  0  0  0  0  0  0  0  0  0  0  0
    0.3062    2.1852   -1.0431 H   0  0  0  0  0  0  0  0  0  0  0  0
    1.9318    1.9444   -1.7265 H   0  0  0  0  0  0  0  0  0  0  0  0
    3.0433   -0.6941    0.7827 H   0  0  0  0  0  0  0  0  0  0  0  0
    4.3132   -1.1385   -1.1553 H   0  0  0  0  0  0  0  0  0  0  0  0
    5.8084   -0.3859   -0.4292 H   0  0  0  0  0  0  0  0  0  0  0  0
    5.7740   -0.4239   -2.7397 H   0  0  0  0  0  0  0  0  0  0  0  0
  2  1  1  0
  2  3  1  0
  4  3  1  0
  4  5  1  0
  5  6  1  0
  6  7  1  0
  7  8  1  0
  8  9  2  0
  9 10  1  0
 10 11  2  0
 10 12  1  0
 12 13  2  0
 13 14  1  0
 14  8  1  0
 14 15  1  6
 14 16  1  0
 16  5  1  0
 16 17  1  1
 16 18  1  0
 18 19  1  0
 18 20  1  0
 20 21  1  0
 21  4  1  0
 21 22  1  6
 21 23  1  0
 23  2  1  0
 23 24  1  0
 24 25  2  0
 24 26  1  0
 26 27  1  0
  1 28  1  0
  1 29  1  0
  1 30  1  0
  2 31  1  6
  3 32  1  0
  3 33  1  0
  4 34  1  1
  5 35  1  6
  6 36  1  0
  6 37  1  0
  7 38  1  0
  7 39  1  0
  9 40  1  0
 12 41  1  0
 13 42  1  0
 15 43  1  0
 15 44  1  0
 15 45  1  0
 18 46  1  6
 19 47  1  0
 20 48  1  0
 20 49  1  0
 22 50  1  0
 22 51  1  0
 22 52  1  0
 23 53  1  1
 26 54  1  0
 26 55  1  0
 27 56  1  0
M  END
> <ID>
HT0617

> <Class>
0.0

> <Clusters>
35

> <Fold>
2

$$$$