
     RDKit          3D

 74 76  0  0  0  0  0  0  0  0999 V2000
   -6.5012   -0.0019   -1.8957 C   0  0  0  0  0  0  0  0  0  0  0  0
   -6.2291    1.3810   -1.2868 C   0  0  0  0  0  0  0  0  0  0  0  0
   -7.4986    1.9241   -0.6113 C   0  0  0  0  0  0  0  0  0  0  0  0
   -4.9901    1.4059   -0.3400 C   0  0  1  0  0  0  0  0  0  0  0  0
   -5.1896    0.6146    0.9609 C   0  0  0  0  0  0  0  0  0  0  0  0
   -3.7106    1.1458   -1.1372 C   0  0  0  0  0  0  0  0  0  0  0  0
   -2.7877    0.1516   -1.0976 C   0  0  0  0  0  0  0  0  0  0  0  0
   -2.7403   -1.0953   -0.2229 C   0  0  1  0  0  0  0  0  0  0  0  0
   -3.4836   -2.2348   -0.9318 C   0  0  0  0  0  0  0  0  0  0  0  0
   -1.3014   -1.5576    0.1836 C   0  0  1  0  0  0  0  0  0  0  0  0
   -0.3033   -1.8558   -0.9573 C   0  0  0  0  0  0  0  0  0  0  0  0
    1.0964   -1.5603   -0.3918 C   0  0  0  0  0  0  0  0  0  0  0  0
    0.8840   -1.3138    1.1070 C   0  0  1  0  0  0  0  0  0  0  0  0
    1.8741   -0.5187    1.9540 C   0  0  0  0  0  0  0  0  0  0  0  0
    3.1155   -0.1373    1.5931 C   0  0  0  0  0  0  0  0  0  0  0  0
    3.8610   -0.6502    0.4286 C   0  0  0  0  0  0  0  0  0  0  0  0
    4.7966    0.0691   -0.2235 C   0  0  0  0  0  0  0  0  0  0  0  0
    5.1397    1.4848    0.1866 C   0  0  0  0  0  0  0  0  0  0  0  0
    5.9664    2.1891   -0.9037 C   0  0  1  0  0  0  0  0  0  0  0  0
    6.2916    3.4907   -0.4923 O   0  0  0  0  0  0  0  0  0  0  0  0
    7.2642    1.4120   -1.1995 C   0  0  0  0  0  0  0  0  0  0  0  0
    7.0701   -0.1189   -1.3878 C   0  0  2  0  0  0  0  0  0  0  0  0
    7.6702   -0.5142   -2.5981 O   0  0  0  0  0  0  0  0  0  0  0  0
    5.6087   -0.5390   -1.3108 C   0  0  0  0  0  0  0  0  0  0  0  0
    5.0562   -1.3751   -2.2040 C   0  0  0  0  0  0  0  0  0  0  0  0
    1.3710   -0.0853    3.3210 C   0  0  0  0  0  0  0  0  0  0  0  0
    0.0602   -0.7922    3.7288 C   0  0  0  0  0  0  0  0  0  0  0  0
   -1.0553   -0.7502    2.6520 C   0  0  0  0  0  0  0  0  0  0  0  0
   -0.5175   -0.6697    1.1882 C   0  0  2  0  0  0  0  0  0  0  0  0
   -0.4856    0.8228    0.7296 C   0  0  0  0  0  0  0  0  0  0  0  0
   -7.3540    0.0590   -2.6046 H   0  0  0  0  0  0  0  0  0  0  0  0
   -6.7565   -0.7430   -1.1108 H   0  0  0  0  0  0  0  0  0  0  0  0
   -5.6184   -0.3534   -2.4681 H   0  0  0  0  0  0  0  0  0  0  0  0
   -6.0130    2.0697   -2.1355 H   0  0  0  0  0  0  0  0  0  0  0  0
   -8.2941    2.0826   -1.3714 H   0  0  0  0  0  0  0  0  0  0  0  0
   -7.2919    2.8998   -0.1227 H   0  0  0  0  0  0  0  0  0  0  0  0
   -7.8882    1.2102    0.1456 H   0  0  0  0  0  0  0  0  0  0  0  0
   -4.8843    2.4617   -0.0042 H   0  0  0  0  0  0  0  0  0  0  0  0
   -6.0466    1.0234    1.5343 H   0  0  0  0  0  0  0  0  0  0  0  0
   -4.3057    0.7428    1.6217 H   0  0  0  0  0  0  0  0  0  0  0  0
   -5.3962   -0.4563    0.7649 H   0  0  0  0  0  0  0  0  0  0  0  0
   -3.5233    1.9056   -1.8932 H   0  0  0  0  0  0  0  0  0  0  0  0
   -2.0141    0.2398   -1.8496 H   0  0  0  0  0  0  0  0  0  0  0  0
   -3.2384   -0.9275    0.7376 H   0  0  0  0  0  0  0  0  0  0  0  0
   -3.0206   -2.4509   -1.9184 H   0  0  0  0  0  0  0  0  0  0  0  0
   -4.5458   -1.9649   -1.0880 H   0  0  0  0  0  0  0  0  0  0  0  0
   -3.4654   -3.1575   -0.3140 H   0  0  0  0  0  0  0  0  0  0  0  0
   -1.4454   -2.5379    0.6982 H   0  0  0  0  0  0  0  0  0  0  0  0
   -0.4697   -1.2431   -1.8633 H   0  0  0  0  0  0  0  0  0  0  0  0
   -0.3809   -2.9243   -1.2587 H   0  0  0  0  0  0  0  0  0  0  0  0
    1.7590   -2.4342   -0.5688 H   0  0  0  0  0  0  0  0  0  0  0  0
    1.5162   -0.6586   -0.8886 H   0  0  0  0  0  0  0  0  0  0  0  0
    0.8374   -2.3251    1.5765 H   0  0  0  0  0  0  0  0  0  0  0  0
    3.6518    0.5303    2.2583 H   0  0  0  0  0  0  0  0  0  0  0  0
    3.7132   -1.6846    0.1583 H   0  0  0  0  0  0  0  0  0  0  0  0
    4.2048    2.0661    0.3495 H   0  0  0  0  0  0  0  0  0  0  0  0
    5.7166    1.4618    1.1381 H   0  0  0  0  0  0  0  0  0  0  0  0
    5.3655    2.2332   -1.8441 H   0  0  0  0  0  0  0  0  0  0  0  0
    5.4688    4.0379   -0.5936 H   0  0  0  0  0  0  0  0  0  0  0  0
    7.9786    1.5811   -0.3625 H   0  0  0  0  0  0  0  0  0  0  0  0
    7.7308    1.8543   -2.1071 H   0  0  0  0  0  0  0  0  0  0  0  0
    7.5888   -0.6194   -0.5346 H   0  0  0  0  0  0  0  0  0  0  0  0
    7.9733   -1.4531   -2.4804 H   0  0  0  0  0  0  0  0  0  0  0  0
    4.0022   -1.6196   -2.1662 H   0  0  0  0  0  0  0  0  0  0  0  0
    5.6327   -1.8182   -3.0048 H   0  0  0  0  0  0  0  0  0  0  0  0
    2.1393   -0.3292    4.0874 H   0  0  0  0  0  0  0  0  0  0  0  0
    1.2239    1.0150    3.3403 H   0  0  0  0  0  0  0  0  0  0  0  0
    0.2966   -1.8563    3.9529 H   0  0  0  0  0  0  0  0  0  0  0  0
   -0.3205   -0.3433    4.6719 H   0  0  0  0  0  0  0  0  0  0  0  0
   -1.6847   -1.6558    2.7893 H   0  0  0  0  0  0  0  0  0  0  0  0
   -1.7279    0.1098    2.8646 H   0  0  0  0  0  0  0  0  0  0  0  0
   -1.4796    1.2986    0.8659 H   0  0  0  0  0  0  0  0  0  0  0  0
    0.2253    1.4306    1.3202 H   0  0  0  0  0  0  0  0  0  0  0  0
   -0.1912    0.9214   -0.3361 H   0  0  0  0  0  0  0  0  0  0  0  0
  1  2  1  0
  2  3  1  0
  2  4  1  0
  4  5  1  0
  4  6  1  0
  6  7  2  3
  7  8  1  0
  8  9  1  0
 10  8  1  0
 10 11  1  0
 11 12  1  0
 13 12  1  0
 13 14  1  0
 14 15  2  3
 15 16  1  0
 16 17  2  3
 17 18  1  0
 18 19  1  0
 19 20  1  0
 19 21  1  0
 21 22  1  0
 22 23  1  0
 22 24  1  0
 24 17  1  0
 24 25  2  3
 14 26  1  0
 26 27  1  0
 27 28  1  0
 28 29  1  0
 29 10  1  0
 29 13  1  0
 29 30  1  6
  1 31  1  0
  1 32  1  0
  1 33  1  0
  2 34  1  0
  3 35  1  0
  3 36  1  0
  3 37  1  0
  4 38  1  1
  5 39  1  0
  5 40  1  0
  5 41  1  0
  6 42  1  0
  7 43  1  0
  8 44  1  1
  9 45  1  0
  9 46  1  0
  9 47  1  0
 10 48  1  1
 11 49  1  0
 11 50  1  0
 12 51  1  0
 12 52  1  0
 13 53  1  1
 15 54  1  0
 16 55  1  0
 18 56  1  0
 18 57  1  0
 19 58  1  6
 20 59  1  0
 21 60  1  0
 21 61  1  0
 22 62  1  1
 23 63  1  0
 25 64  1  0
 25 65  1  0
 26 66  1  0
 26 67  1  0
 27 68  1  0
 27 69  1  0
 28 70  1  0
 28 71  1  0
 30 72  1  0
 30 73  1  0
 30 74  1  0
M  END
> <ID>
HT0717

> <Class>
0.0

> <Clusters>
85

> <Fold>
2

$$$$