
     RDKit          3D

 42 45  0  0  0  0  0  0  0  0999 V2000
    0.1018   -1.2475    2.5920 O   0  0  0  0  0  0  0  0  0  0  0  0
    0.4909   -0.8090    1.5188 C   0  0  0  0  0  0  0  0  0  0  0  0
   -0.5004   -0.1621    0.5607 C   0  0  0  0  0  0  0  0  0  0  0  0
   -1.2760    0.9303    1.2712 C   0  0  0  0  0  0  0  0  0  0  0  0
   -0.9573    2.2819    1.0445 C   0  0  0  0  0  0  0  0  0  0  0  0
   -1.6575    3.2943    1.7076 C   0  0  0  0  0  0  0  0  0  0  0  0
   -2.6779    2.9694    2.6050 C   0  0  0  0  0  0  0  0  0  0  0  0
   -2.9993    1.6309    2.8427 C   0  0  0  0  0  0  0  0  0  0  0  0
   -2.3022    0.6144    2.1827 C   0  0  0  0  0  0  0  0  0  0  0  0
   -1.4353   -1.1386   -0.1426 C   0  0  0  0  0  0  0  0  0  0  0  0
   -2.2108   -0.6636   -1.2176 C   0  0  0  0  0  0  0  0  0  0  0  0
   -3.0786   -1.5170   -1.9039 C   0  0  0  0  0  0  0  0  0  0  0  0
   -3.1837   -2.8574   -1.5295 C   0  0  0  0  0  0  0  0  0  0  0  0
   -2.4222   -3.3462   -0.4671 C   0  0  0  0  0  0  0  0  0  0  0  0
   -1.5523   -2.4977    0.2243 C   0  0  0  0  0  0  0  0  0  0  0  0
    1.9647   -0.8858    1.1975 C   0  0  0  0  0  0  0  0  0  0  0  0
    2.5555    0.4826    0.9940 C   0  0  0  0  0  0  0  0  0  0  0  0
    2.6126    1.3799    1.8761 O   0  0  0  0  0  0  0  0  0  0  0  0
    3.0569    0.6225   -0.3668 C   0  0  0  0  0  0  0  0  0  0  0  0
    3.6453    1.7249   -0.9871 C   0  0  0  0  0  0  0  0  0  0  0  0
    4.0273    1.6034   -2.3337 C   0  0  0  0  0  0  0  0  0  0  0  0
    3.8173    0.3938   -3.0277 C   0  0  0  0  0  0  0  0  0  0  0  0
    3.2230   -0.7023   -2.3797 C   0  0  0  0  0  0  0  0  0  0  0  0
    2.8513   -0.5559   -1.0430 C   0  0  0  0  0  0  0  0  0  0  0  0
    2.2095   -1.5107   -0.1493 C   0  0  0  0  0  0  0  0  0  0  0  0
    1.9097   -2.6945   -0.4587 O   0  0  0  0  0  0  0  0  0  0  0  0
    0.0952    0.3087   -0.2521 H   0  0  0  0  0  0  0  0  0  0  0  0
   -0.1651    2.5531    0.3573 H   0  0  0  0  0  0  0  0  0  0  0  0
   -1.4075    4.3321    1.5259 H   0  0  0  0  0  0  0  0  0  0  0  0
   -3.2180    3.7547    3.1179 H   0  0  0  0  0  0  0  0  0  0  0  0
   -3.7882    1.3805    3.5408 H   0  0  0  0  0  0  0  0  0  0  0  0
   -2.5616   -0.4180    2.3815 H   0  0  0  0  0  0  0  0  0  0  0  0
   -2.1419    0.3734   -1.5236 H   0  0  0  0  0  0  0  0  0  0  0  0
   -3.6691   -1.1382   -2.7280 H   0  0  0  0  0  0  0  0  0  0  0  0
   -3.8556   -3.5176   -2.0625 H   0  0  0  0  0  0  0  0  0  0  0  0
   -2.5042   -4.3864   -0.1795 H   0  0  0  0  0  0  0  0  0  0  0  0
   -0.9773   -2.9168    1.0369 H   0  0  0  0  0  0  0  0  0  0  0  0
    2.5269   -1.4353    1.9839 H   0  0  0  0  0  0  0  0  0  0  0  0
    3.7998    2.6509   -0.4487 H   0  0  0  0  0  0  0  0  0  0  0  0
    4.4849    2.4429   -2.8408 H   0  0  0  0  0  0  0  0  0  0  0  0
    4.1146    0.3093   -4.0647 H   0  0  0  0  0  0  0  0  0  0  0  0
    3.0550   -1.6328   -2.9065 H   0  0  0  0  0  0  0  0  0  0  0  0
  1  2  2  0
  2  3  1  0
  3  4  1  0
  4  5  2  0
  5  6  1  0
  6  7  2  0
  7  8  1  0
  8  9  2  0
  9  4  1  0
  3 10  1  0
 10 11  2  0
 11 12  1  0
 12 13  2  0
 13 14  1  0
 14 15  2  0
 15 10  1  0
  2 16  1  0
 16 17  1  0
 17 18  2  0
 17 19  1  0
 19 20  2  0
 20 21  1  0
 21 22  2  0
 22 23  1  0
 23 24  2  0
 24 19  1  0
 24 25  1  0
 25 16  1  0
 25 26  2  0
  3 27  1  0
  5 28  1  0
  6 29  1  0
  7 30  1  0
  8 31  1  0
  9 32  1  0
 11 33  1  0
 12 34  1  0
 13 35  1  0
 14 36  1  0
 15 37  1  0
 16 38  1  0
 20 39  1  0
 21 40  1  0
 22 41  1  0
 23 42  1  0
M  END
> <ID>
HT0686

> <Class>
0.0

> <Clusters>
106

> <Fold>
2

$$$$