
     RDKit          3D

 45 48  0  0  0  0  0  0  0  0999 V2000
    5.6785    0.3793   -0.4862 C   0  0  0  0  0  0  0  0  0  0  0  0
    4.3393    0.6812   -0.8643 O   0  0  0  0  0  0  0  0  0  0  0  0
    3.2006    0.2045   -0.1975 C   0  0  0  0  0  0  0  0  0  0  0  0
    3.2825   -0.6308    0.9276 C   0  0  0  0  0  0  0  0  0  0  0  0
    2.1214   -1.0981    1.5414 C   0  0  0  0  0  0  0  0  0  0  0  0
    0.8581   -0.7375    1.0518 C   0  0  0  0  0  0  0  0  0  0  0  0
   -0.3649   -1.3271    1.7123 C   0  0  0  0  0  0  0  0  0  0  0  0
   -1.5892   -1.2197    0.7957 C   0  0  1  0  0  0  0  0  0  0  0  0
   -1.7709    0.2526    0.3669 C   0  0  1  0  0  0  0  0  0  0  0  0
   -1.8915    1.2812    1.5089 C   0  0  0  0  0  0  0  0  0  0  0  0
   -2.2973    2.6637    0.9521 C   0  0  0  0  0  0  0  0  0  0  0  0
   -1.9021    2.8689   -0.5269 C   0  0  0  0  0  0  0  0  0  0  0  0
   -0.5788    2.1639   -0.8597 C   0  0  0  0  0  0  0  0  0  0  0  0
   -0.6143    0.6116   -0.6085 C   0  0  2  0  0  0  0  0  0  0  0  0
   -0.8923   -0.1709   -1.9285 C   0  0  0  0  0  0  0  0  0  0  0  0
   -1.6430   -1.5118   -1.7043 C   0  0  0  0  0  0  0  0  0  0  0  0
   -1.3515   -2.1139   -0.3808 N   0  0  0  0  0  0  0  0  0  0  0  0
   -2.0679   -3.3907   -0.2341 C   0  0  0  0  0  0  0  0  0  0  0  0
    0.7549    0.1555   -0.0493 C   0  0  0  0  0  0  0  0  0  0  0  0
    1.9438    0.5819   -0.6793 C   0  0  0  0  0  0  0  0  0  0  0  0
    5.8530   -0.7160   -0.5412 H   0  0  0  0  0  0  0  0  0  0  0  0
    6.3754    0.8858   -1.1849 H   0  0  0  0  0  0  0  0  0  0  0  0
    5.8767    0.7468    0.5428 H   0  0  0  0  0  0  0  0  0  0  0  0
    4.2393   -0.9369    1.3279 H   0  0  0  0  0  0  0  0  0  0  0  0
    2.2071   -1.7602    2.3945 H   0  0  0  0  0  0  0  0  0  0  0  0
   -0.1834   -2.3988    1.9474 H   0  0  0  0  0  0  0  0  0  0  0  0
   -0.5509   -0.8153    2.6801 H   0  0  0  0  0  0  0  0  0  0  0  0
   -2.4949   -1.5268    1.3690 H   0  0  0  0  0  0  0  0  0  0  0  0
   -2.7486    0.3030   -0.1672 H   0  0  0  0  0  0  0  0  0  0  0  0
   -0.9182    1.3862    2.0351 H   0  0  0  0  0  0  0  0  0  0  0  0
   -2.6479    0.9424    2.2497 H   0  0  0  0  0  0  0  0  0  0  0  0
   -1.8224    3.4545    1.5731 H   0  0  0  0  0  0  0  0  0  0  0  0
   -3.3981    2.7895    1.0431 H   0  0  0  0  0  0  0  0  0  0  0  0
   -2.7024    2.4740   -1.1903 H   0  0  0  0  0  0  0  0  0  0  0  0
   -1.8068    3.9565   -0.7349 H   0  0  0  0  0  0  0  0  0  0  0  0
    0.2002    2.6420   -0.2239 H   0  0  0  0  0  0  0  0  0  0  0  0
   -0.3022    2.3866   -1.9134 H   0  0  0  0  0  0  0  0  0  0  0  0
   -1.5193    0.4466   -2.6090 H   0  0  0  0  0  0  0  0  0  0  0  0
    0.0552   -0.3669   -2.4770 H   0  0  0  0  0  0  0  0  0  0  0  0
   -1.3422   -2.2156   -2.5115 H   0  0  0  0  0  0  0  0  0  0  0  0
   -2.7389   -1.3432   -1.8113 H   0  0  0  0  0  0  0  0  0  0  0  0
   -1.7970   -3.8752    0.7284 H   0  0  0  0  0  0  0  0  0  0  0  0
   -1.7775   -4.0896   -1.0476 H   0  0  0  0  0  0  0  0  0  0  0  0
   -3.1689   -3.2340   -0.2638 H   0  0  0  0  0  0  0  0  0  0  0  0
    1.8971    1.2207   -1.5524 H   0  0  0  0  0  0  0  0  0  0  0  0
  1  2  1  0
  2  3  1  0
  3  4  2  0
  4  5  1  0
  5  6  2  0
  6  7  1  0
  8  7  1  0
  8  9  1  0
  9 10  1  0
 10 11  1  0
 11 12  1  0
 12 13  1  0
 14 13  1  6
 14  9  1  0
 14 15  1  0
 15 16  1  0
 16 17  1  0
 17  8  1  0
 17 18  1  0
 14 19  1  0
 19  6  1  0
 19 20  2  0
 20  3  1  0
  1 21  1  0
  1 22  1  0
  1 23  1  0
  4 24  1  0
  5 25  1  0
  7 26  1  0
  7 27  1  0
  8 28  1  1
  9 29  1  6
 10 30  1  0
 10 31  1  0
 11 32  1  0
 11 33  1  0
 12 34  1  0
 12 35  1  0
 13 36  1  0
 13 37  1  0
 15 38  1  0
 15 39  1  0
 16 40  1  0
 16 41  1  0
 18 42  1  0
 18 43  1  0
 18 44  1  0
 20 45  1  0
M  END
> <ID>
HT0628

> <Class>
0.0

> <Clusters>
147

> <Fold>
2

$$$$