
     RDKit          3D

 62 65  0  0  0  0  0  0  0  0999 V2000
    2.9759   -1.2334   -2.5619 C   0  0  0  0  0  0  0  0  0  0  0  0
    2.0111   -1.6205   -1.4297 C   0  0  2  0  0  0  0  0  0  0  0  0
    0.5278   -1.5142   -1.8632 C   0  0  0  0  0  0  0  0  0  0  0  0
   -0.0903   -0.5156   -0.8889 C   0  0  1  0  0  0  0  0  0  0  0  0
   -1.6271   -0.5136   -0.6960 C   0  0  2  0  0  0  0  0  0  0  0  0
   -2.3406   -0.3700   -2.0600 C   0  0  0  0  0  0  0  0  0  0  0  0
   -3.8581   -0.3094   -1.8946 C   0  0  0  0  0  0  0  0  0  0  0  0
   -4.2219    0.7963   -0.9362 C   0  0  0  0  0  0  0  0  0  0  0  0
   -5.0523    1.7721   -1.3379 C   0  0  0  0  0  0  0  0  0  0  0  0
   -5.3714    2.8963   -0.4594 C   0  0  0  0  0  0  0  0  0  0  0  0
   -6.1661    3.7945   -0.8427 O   0  0  0  0  0  0  0  0  0  0  0  0
   -4.7522    2.9776    0.8604 C   0  0  0  0  0  0  0  0  0  0  0  0
   -3.9240    2.0214    1.2812 C   0  0  0  0  0  0  0  0  0  0  0  0
   -3.5905    0.7690    0.4668 C   0  0  1  0  0  0  0  0  0  0  0  0
   -4.2125   -0.4276    1.2305 C   0  0  0  0  0  0  0  0  0  0  0  0
   -2.0207    0.6697    0.2690 C   0  0  2  0  0  0  0  0  0  0  0  0
   -1.6468    1.8499   -0.3685 F   0  0  0  0  0  0  0  0  0  0  0  0
   -1.1864    0.6380    1.6037 C   0  0  1  0  0  0  0  0  0  0  0  0
   -1.6357   -0.3636    2.4757 O   0  0  0  0  0  0  0  0  0  0  0  0
    0.3429    0.4909    1.3522 C   0  0  0  0  0  0  0  0  0  0  0  0
    0.6936   -0.7040    0.4197 C   0  0  1  0  0  0  0  0  0  0  0  0
    0.3510   -2.0529    1.1419 C   0  0  0  0  0  0  0  0  0  0  0  0
    2.1665   -0.7448   -0.1363 C   0  0  2  0  0  0  0  0  0  0  0  0
    2.5726    0.5515   -0.5372 O   0  0  0  0  0  0  0  0  0  0  0  0
    3.2088   -1.3615    0.8205 C   0  0  0  0  0  0  0  0  0  0  0  0
    3.1700   -2.5567    1.0766 O   0  0  0  0  0  0  0  0  0  0  0  0
    4.3289   -0.5569    1.4245 C   0  0  0  0  0  0  0  0  0  0  0  0
    5.1808   -0.0738    0.3912 O   0  0  0  0  0  0  0  0  0  0  0  0
    6.2980    0.7254    0.6457 C   0  0  0  0  0  0  0  0  0  0  0  0
    6.6178    1.0296    1.8271 O   0  0  0  0  0  0  0  0  0  0  0  0
    7.1475    1.1816   -0.4912 C   0  0  0  0  0  0  0  0  0  0  0  0
    2.8765   -1.9525   -3.4026 H   0  0  0  0  0  0  0  0  0  0  0  0
    2.7555   -0.2141   -2.9449 H   0  0  0  0  0  0  0  0  0  0  0  0
    4.0238   -1.2658   -2.1949 H   0  0  0  0  0  0  0  0  0  0  0  0
    2.2107   -2.6908   -1.2003 H   0  0  0  0  0  0  0  0  0  0  0  0
    0.0257   -2.5024   -1.7703 H   0  0  0  0  0  0  0  0  0  0  0  0
    0.4144   -1.1593   -2.9116 H   0  0  0  0  0  0  0  0  0  0  0  0
    0.1659    0.4877   -1.3075 H   0  0  0  0  0  0  0  0  0  0  0  0
   -1.9443   -1.4854   -0.2758 H   0  0  0  0  0  0  0  0  0  0  0  0
   -2.0991   -1.2419   -2.7054 H   0  0  0  0  0  0  0  0  0  0  0  0
   -1.9916    0.5469   -2.5849 H   0  0  0  0  0  0  0  0  0  0  0  0
   -4.3210   -0.1600   -2.8950 H   0  0  0  0  0  0  0  0  0  0  0  0
   -4.2312   -1.2795   -1.5031 H   0  0  0  0  0  0  0  0  0  0  0  0
   -5.4841    1.7553   -2.3318 H   0  0  0  0  0  0  0  0  0  0  0  0
   -4.9729    3.8196    1.5051 H   0  0  0  0  0  0  0  0  0  0  0  0
   -3.5273    2.1134    2.2842 H   0  0  0  0  0  0  0  0  0  0  0  0
   -3.8422   -1.4045    0.8651 H   0  0  0  0  0  0  0  0  0  0  0  0
   -5.3180   -0.4221    1.1088 H   0  0  0  0  0  0  0  0  0  0  0  0
   -4.0261   -0.3688    2.3226 H   0  0  0  0  0  0  0  0  0  0  0  0
   -1.3194    1.6237    2.1058 H   0  0  0  0  0  0  0  0  0  0  0  0
   -1.2852   -0.1440    3.3785 H   0  0  0  0  0  0  0  0  0  0  0  0
    0.8820    0.3882    2.3191 H   0  0  0  0  0  0  0  0  0  0  0  0
    0.6738    1.4490    0.9007 H   0  0  0  0  0  0  0  0  0  0  0  0
   -0.7239   -2.2061    1.3288 H   0  0  0  0  0  0  0  0  0  0  0  0
    0.8518   -2.0937    2.1324 H   0  0  0  0  0  0  0  0  0  0  0  0
    0.6736   -2.9366    0.5560 H   0  0  0  0  0  0  0  0  0  0  0  0
    2.7183    1.1135    0.2642 H   0  0  0  0  0  0  0  0  0  0  0  0
    3.9107    0.2895    2.0099 H   0  0  0  0  0  0  0  0  0  0  0  0
    4.9215   -1.1914    2.1203 H   0  0  0  0  0  0  0  0  0  0  0  0
    7.5503    2.1959   -0.2846 H   0  0  0  0  0  0  0  0  0  0  0  0
    7.9903    0.4731   -0.6301 H   0  0  0  0  0  0  0  0  0  0  0  0
    6.5445    1.2182   -1.4229 H   0  0  0  0  0  0  0  0  0  0  0  0
  2  1  1  0
  2  3  1  0
  4  3  1  0
  4  5  1  0
  5  6  1  0
  6  7  1  0
  7  8  1  0
  8  9  2  0
  9 10  1  0
 10 11  2  0
 10 12  1  0
 12 13  2  0
 13 14  1  0
 14  8  1  0
 14 15  1  1
 14 16  1  0
 16  5  1  0
 16 17  1  6
 16 18  1  0
 18 19  1  0
 18 20  1  0
 20 21  1  0
 21  4  1  0
 21 22  1  1
 21 23  1  0
 23  2  1  0
 23 24  1  6
 23 25  1  0
 25 26  2  0
 25 27  1  0
 27 28  1  0
 28 29  1  0
 29 30  2  0
 29 31  1  0
  1 32  1  0
  1 33  1  0
  1 34  1  0
  2 35  1  1
  3 36  1  0
  3 37  1  0
  4 38  1  6
  5 39  1  1
  6 40  1  0
  6 41  1  0
  7 42  1  0
  7 43  1  0
  9 44  1  0
 12 45  1  0
 13 46  1  0
 15 47  1  0
 15 48  1  0
 15 49  1  0
 18 50  1  1
 19 51  1  0
 20 52  1  0
 20 53  1  0
 22 54  1  0
 22 55  1  0
 22 56  1  0
 24 57  1  0
 27 58  1  0
 27 59  1  0
 31 60  1  0
 31 61  1  0
 31 62  1  0
M  END
> <ID>
HT0621

> <Class>
0.0

> <Clusters>
35

> <Fold>
2

$$$$