
     RDKit          3D

 14 13  0  0  0  0  0  0  0  0999 V2000
   -1.7929   -1.1418    0.1551 O   0  0  0  0  0  0  0  0  0  0  0  0
   -1.3680    0.1364   -0.2360 C   0  0  0  0  0  0  0  0  0  0  0  0
    0.1119    0.3550    0.1159 C   0  0  0  0  0  0  0  0  0  0  0  0
    0.5775    2.0769   -0.2814 S   0  0  0  0  0  0  0  0  0  0  0  0
    1.0140   -0.6251   -0.6512 C   0  0  0  0  0  0  0  0  0  0  0  0
    2.7426   -0.5243   -0.0804 S   0  0  0  0  0  0  0  0  0  0  0  0
   -1.8895   -1.1194    1.1430 H   0  0  0  0  0  0  0  0  0  0  0  0
   -1.5128    0.2409   -1.3327 H   0  0  0  0  0  0  0  0  0  0  0  0
   -1.9981    0.9095    0.2602 H   0  0  0  0  0  0  0  0  0  0  0  0
    0.2464    0.1993    1.2087 H   0  0  0  0  0  0  0  0  0  0  0  0
   -0.2163    2.6170    0.7487 H   0  0  0  0  0  0  0  0  0  0  0  0
    0.9811   -0.4029   -1.7393 H   0  0  0  0  0  0  0  0  0  0  0  0
    0.6660   -1.6690   -0.4995 H   0  0  0  0  0  0  0  0  0  0  0  0
    2.4381   -1.0526    1.1889 H   0  0  0  0  0  0  0  0  0  0  0  0
  1  2  1  0
  2  3  1  0
  3  4  1  0
  3  5  1  0
  5  6  1  0
  1  7  1  0
  2  8  1  0
  2  9  1  0
  3 10  1  0
  4 11  1  0
  5 12  1  0
  5 13  1  0
  6 14  1  0
M  END
> <ID>
HT0676

> <Class>
0.0

> <Clusters>
161

> <Fold>
2

$$$$