
     RDKit          3D

 75 77  0  0  0  0  0  0  0  0999 V2000
   -5.5529    0.6747    3.0671 C   0  0  0  0  0  0  0  0  0  0  0  0
   -5.8627   -0.4902    2.1120 C   0  0  0  0  0  0  0  0  0  0  0  0
   -7.3195   -0.9441    2.2956 C   0  0  0  0  0  0  0  0  0  0  0  0
   -5.5352   -0.1999    0.6151 C   0  0  0  0  0  0  0  0  0  0  0  0
   -6.3192    0.9752    0.0002 C   0  0  0  0  0  0  0  0  0  0  0  0
   -4.0426   -0.0856    0.3699 C   0  0  0  0  0  0  0  0  0  0  0  0
   -3.3398    1.0422    0.5930 C   0  0  0  0  0  0  0  0  0  0  0  0
   -1.8427    1.1826    0.3664 C   0  0  0  0  0  0  0  0  0  0  0  0
   -1.0567    0.0319    1.0298 C   0  0  0  0  0  0  0  0  0  0  0  0
   -1.5003    1.4577   -1.1461 C   0  0  0  0  0  0  0  0  0  0  0  0
   -1.4825    0.1928   -2.0075 C   0  0  0  0  0  0  0  0  0  0  0  0
   -0.0288   -0.2125   -2.1205 C   0  0  0  0  0  0  0  0  0  0  0  0
    0.7889    1.0880   -2.1322 C   0  0  0  0  0  0  0  0  0  0  0  0
    2.1892    0.9145   -1.5244 C   0  0  0  0  0  0  0  0  0  0  0  0
    2.9013   -0.1927   -1.8286 C   0  0  0  0  0  0  0  0  0  0  0  0
    4.2204   -0.5074   -1.2385 C   0  0  0  0  0  0  0  0  0  0  0  0
    4.5562   -1.7313   -0.7714 C   0  0  0  0  0  0  0  0  0  0  0  0
    3.5498   -2.8593   -0.6472 C   0  0  0  0  0  0  0  0  0  0  0  0
    3.3268   -3.1839    0.8375 C   0  0  0  0  0  0  0  0  0  0  0  0
    2.4598   -4.2827    0.9421 O   0  0  0  0  0  0  0  0  0  0  0  0
    4.6642   -3.5041    1.5346 C   0  0  0  0  0  0  0  0  0  0  0  0
    5.6757   -2.3582    1.3669 C   0  0  0  0  0  0  0  0  0  0  0  0
    5.9037   -2.0294   -0.1210 C   0  0  0  0  0  0  0  0  0  0  0  0
    6.9748   -0.9372   -0.2716 C   0  0  0  0  0  0  0  0  0  0  0  0
    2.8061    1.9778   -0.6335 C   0  0  0  0  0  0  0  0  0  0  0  0
    1.9816    3.2562   -0.5518 C   0  0  0  0  0  0  0  0  0  0  0  0
    0.5235    2.9138   -0.2815 C   0  0  0  0  0  0  0  0  0  0  0  0
   -0.1390    2.1870   -1.4922 C   0  0  0  0  0  0  0  0  0  0  0  0
   -0.4488    3.2592   -2.5793 C   0  0  0  0  0  0  0  0  0  0  0  0
   -6.1470    1.5767    2.8140 H   0  0  0  0  0  0  0  0  0  0  0  0
   -5.8022    0.3827    4.1100 H   0  0  0  0  0  0  0  0  0  0  0  0
   -4.4732    0.9224    3.0529 H   0  0  0  0  0  0  0  0  0  0  0  0
   -5.2251   -1.3468    2.4278 H   0  0  0  0  0  0  0  0  0  0  0  0
   -8.0256   -0.1096    2.1034 H   0  0  0  0  0  0  0  0  0  0  0  0
   -7.5553   -1.7852    1.6094 H   0  0  0  0  0  0  0  0  0  0  0  0
   -7.4783   -1.2990    3.3366 H   0  0  0  0  0  0  0  0  0  0  0  0
   -5.8527   -1.1029    0.0459 H   0  0  0  0  0  0  0  0  0  0  0  0
   -7.4084    0.7655    0.0138 H   0  0  0  0  0  0  0  0  0  0  0  0
   -6.1339    1.9251    0.5402 H   0  0  0  0  0  0  0  0  0  0  0  0
   -6.0198    1.1139   -1.0605 H   0  0  0  0  0  0  0  0  0  0  0  0
   -3.5448   -0.9749    0.0053 H   0  0  0  0  0  0  0  0  0  0  0  0
   -3.8564    1.9175    0.9747 H   0  0  0  0  0  0  0  0  0  0  0  0
   -1.6002    2.1023    0.9353 H   0  0  0  0  0  0  0  0  0  0  0  0
   -1.3294   -0.9551    0.6057 H   0  0  0  0  0  0  0  0  0  0  0  0
    0.0361    0.1610    0.9059 H   0  0  0  0  0  0  0  0  0  0  0  0
   -1.2753    0.0093    2.1190 H   0  0  0  0  0  0  0  0  0  0  0  0
   -2.3456    2.0852   -1.5148 H   0  0  0  0  0  0  0  0  0  0  0  0
   -1.8662    0.4360   -3.0237 H   0  0  0  0  0  0  0  0  0  0  0  0
   -2.0938   -0.6390   -1.6144 H   0  0  0  0  0  0  0  0  0  0  0  0
    0.1324   -0.8016   -3.0501 H   0  0  0  0  0  0  0  0  0  0  0  0
    0.2473   -0.8510   -1.2548 H   0  0  0  0  0  0  0  0  0  0  0  0
    0.9669    1.3255   -3.2063 H   0  0  0  0  0  0  0  0  0  0  0  0
    2.4836   -0.9217   -2.5105 H   0  0  0  0  0  0  0  0  0  0  0  0
    4.9290    0.3029   -1.1807 H   0  0  0  0  0  0  0  0  0  0  0  0
    2.5677   -2.6335   -1.1068 H   0  0  0  0  0  0  0  0  0  0  0  0
    3.9516   -3.7558   -1.1682 H   0  0  0  0  0  0  0  0  0  0  0  0
    2.8628   -2.2930    1.3247 H   0  0  0  0  0  0  0  0  0  0  0  0
    2.1158   -4.2877    1.8733 H   0  0  0  0  0  0  0  0  0  0  0  0
    5.0922   -4.4404    1.1132 H   0  0  0  0  0  0  0  0  0  0  0  0
    4.4843   -3.6709    2.6183 H   0  0  0  0  0  0  0  0  0  0  0  0
    6.6367   -2.6604    1.8373 H   0  0  0  0  0  0  0  0  0  0  0  0
    5.3014   -1.4559    1.9001 H   0  0  0  0  0  0  0  0  0  0  0  0
    6.3132   -2.9396   -0.6137 H   0  0  0  0  0  0  0  0  0  0  0  0
    7.9427   -1.2991    0.1368 H   0  0  0  0  0  0  0  0  0  0  0  0
    6.6879   -0.0182    0.2827 H   0  0  0  0  0  0  0  0  0  0  0  0
    7.1285   -0.6942   -1.3447 H   0  0  0  0  0  0  0  0  0  0  0  0
    3.8089    2.2620   -1.0157 H   0  0  0  0  0  0  0  0  0  0  0  0
    2.9299    1.5578    0.3882 H   0  0  0  0  0  0  0  0  0  0  0  0
    2.0984    3.8462   -1.4830 H   0  0  0  0  0  0  0  0  0  0  0  0
    2.3699    3.8811    0.2815 H   0  0  0  0  0  0  0  0  0  0  0  0
   -0.0345    3.8432   -0.0330 H   0  0  0  0  0  0  0  0  0  0  0  0
    0.5308    2.2922    0.6316 H   0  0  0  0  0  0  0  0  0  0  0  0
   -1.0848    4.0716   -2.1648 H   0  0  0  0  0  0  0  0  0  0  0  0
   -0.9925    2.8054   -3.4366 H   0  0  0  0  0  0  0  0  0  0  0  0
    0.4755    3.7147   -2.9884 H   0  0  0  0  0  0  0  0  0  0  0  0
  1  2  1  0
  2  3  1  0
  2  4  1  0
  4  5  1  0
  4  6  1  0
  6  7  2  3
  7  8  1  0
  8  9  1  0
  8 10  1  0
 10 11  1  0
 11 12  1  0
 12 13  1  0
 13 14  1  0
 14 15  2  3
 15 16  1  0
 16 17  2  3
 17 18  1  0
 18 19  1  0
 19 20  1  0
 19 21  1  0
 21 22  1  0
 22 23  1  0
 23 17  1  0
 23 24  1  0
 14 25  1  0
 25 26  1  0
 26 27  1  0
 27 28  1  0
 28 10  1  0
 28 13  1  0
 28 29  1  0
  1 30  1  0
  1 31  1  0
  1 32  1  0
  2 33  1  0
  3 34  1  0
  3 35  1  0
  3 36  1  0
  4 37  1  0
  5 38  1  0
  5 39  1  0
  5 40  1  0
  6 41  1  0
  7 42  1  0
  8 43  1  0
  9 44  1  0
  9 45  1  0
  9 46  1  0
 10 47  1  0
 11 48  1  0
 11 49  1  0
 12 50  1  0
 12 51  1  0
 13 52  1  0
 15 53  1  0
 16 54  1  0
 18 55  1  0
 18 56  1  0
 19 57  1  0
 20 58  1  0
 21 59  1  0
 21 60  1  0
 22 61  1  0
 22 62  1  0
 23 63  1  0
 24 64  1  0
 24 65  1  0
 24 66  1  0
 25 67  1  0
 25 68  1  0
 26 69  1  0
 26 70  1  0
 27 71  1  0
 27 72  1  0
 29 73  1  0
 29 74  1  0
 29 75  1  0
M  END
> <ID>
HT0670

> <Class>
0.0

> <Clusters>
85

> <Fold>
2

$$$$