
     RDKit          3D

 92 92  0  0  0  0  0  0  0  0999 V2000
   11.5780    0.0062    1.1580 C   0  0  0  0  0  0  0  0  0  0  0  0
   10.9158   -1.1714    1.5642 O   0  0  0  0  0  0  0  0  0  0  0  0
    9.5205   -0.9476    1.6539 C   0  0  0  0  0  0  0  0  0  0  0  0
    8.8264   -1.4330    0.3755 C   0  0  0  0  0  0  0  0  0  0  0  0
    7.3102   -1.2553    0.4500 C   0  0  0  0  0  0  0  0  0  0  0  0
    6.9879    0.1324    0.5187 O   0  0  0  0  0  0  0  0  0  0  0  0
    5.6841    0.6472    0.5855 C   0  0  0  0  0  0  0  0  0  0  0  0
    4.5507   -0.1887    0.6061 C   0  0  0  0  0  0  0  0  0  0  0  0
    3.2588    0.3601    0.6389 C   0  0  0  0  0  0  0  0  0  0  0  0
    2.0488   -0.5397    0.6588 C   0  0  0  0  0  0  0  0  0  0  0  0
    1.1149   -0.3996   -0.5802 C   0  0  0  0  0  0  0  0  0  0  0  0
   -0.2239   -1.1269   -0.2487 C   0  0  0  0  0  0  0  0  0  0  0  0
   -1.3479   -1.0227   -1.3162 C   0  0  0  0  0  0  0  0  0  0  0  0
   -1.7141    0.3687   -1.6148 N   0  0  0  0  0  0  0  0  0  0  0  0
   -2.6020   -1.8723   -0.9587 C   0  0  0  0  0  0  0  0  0  0  0  0
   -3.6132   -1.6669   -1.9135 O   0  0  0  0  0  0  0  0  0  0  0  0
   -3.1774   -1.7176    0.4764 C   0  0  0  0  0  0  0  0  0  0  0  0
   -3.7340   -0.3208    0.8719 C   0  0  0  0  0  0  0  0  0  0  0  0
   -4.2170   -0.2935    2.3607 C   0  0  0  0  0  0  0  0  0  0  0  0
   -5.0069    0.9886    2.6892 C   0  0  0  0  0  0  0  0  0  0  0  0
   -3.0350   -0.4082    3.3441 C   0  0  0  0  0  0  0  0  0  0  0  0
   -4.8372    0.0899   -0.0810 C   0  0  0  0  0  0  0  0  0  0  0  0
   -4.6596    1.0856   -0.8337 O   0  0  0  0  0  0  0  0  0  0  0  0
   -6.0615   -0.6597   -0.1502 N   0  0  0  0  0  0  0  0  0  0  0  0
   -7.0364   -0.5013   -1.2349 C   0  0  0  0  0  0  0  0  0  0  0  0
   -8.1968    0.4747   -0.8712 C   0  0  0  0  0  0  0  0  0  0  0  0
   -7.6415    1.8968   -0.6474 C   0  0  0  0  0  0  0  0  0  0  0  0
   -9.1756    0.5098   -2.0634 C   0  0  0  0  0  0  0  0  0  0  0  0
   -8.9596    0.0173    0.3692 C   0  0  0  0  0  0  0  0  0  0  0  0
   -8.6767   -1.0755    0.9309 O   0  0  0  0  0  0  0  0  0  0  0  0
  -10.0286    0.8029    0.9047 N   0  0  0  0  0  0  0  0  0  0  0  0
    1.7563   -0.8714   -1.9342 C   0  0  0  0  0  0  0  0  0  0  0  0
    2.2383   -2.3311   -1.9209 C   0  0  0  0  0  0  0  0  0  0  0  0
    2.8757    0.0563   -2.4349 C   0  0  0  0  0  0  0  0  0  0  0  0
    3.1057    1.7519    0.6978 C   0  0  0  0  0  0  0  0  0  0  0  0
    4.2249    2.5860    0.6899 C   0  0  0  0  0  0  0  0  0  0  0  0
    5.5206    2.0398    0.6293 C   0  0  0  0  0  0  0  0  0  0  0  0
    6.6698    2.8462    0.6129 O   0  0  0  0  0  0  0  0  0  0  0  0
    6.6578    4.2691    0.6615 C   0  0  0  0  0  0  0  0  0  0  0  0
   11.1663    0.3982    0.2022 H   0  0  0  0  0  0  0  0  0  0  0  0
   12.6495   -0.2294    0.9928 H   0  0  0  0  0  0  0  0  0  0  0  0
   11.5195    0.7833    1.9511 H   0  0  0  0  0  0  0  0  0  0  0  0
    9.1376   -1.5427    2.5110 H   0  0  0  0  0  0  0  0  0  0  0  0
    9.2530    0.1151    1.8680 H   0  0  0  0  0  0  0  0  0  0  0  0
    9.2139   -0.8714   -0.5013 H   0  0  0  0  0  0  0  0  0  0  0  0
    9.0550   -2.5103    0.2246 H   0  0  0  0  0  0  0  0  0  0  0  0
    6.9124   -1.7838    1.3438 H   0  0  0  0  0  0  0  0  0  0  0  0
    6.8537   -1.6957   -0.4632 H   0  0  0  0  0  0  0  0  0  0  0  0
    4.6655   -1.2637    0.5741 H   0  0  0  0  0  0  0  0  0  0  0  0
    1.4810   -0.2772    1.5781 H   0  0  0  0  0  0  0  0  0  0  0  0
    2.3455   -1.6009    0.7923 H   0  0  0  0  0  0  0  0  0  0  0  0
    0.8661    0.6772   -0.6874 H   0  0  0  0  0  0  0  0  0  0  0  0
   -0.0219   -2.1995   -0.0418 H   0  0  0  0  0  0  0  0  0  0  0  0
   -0.6137   -0.6908    0.6961 H   0  0  0  0  0  0  0  0  0  0  0  0
   -0.9767   -1.4911   -2.2522 H   0  0  0  0  0  0  0  0  0  0  0  0
   -1.5177    0.9882   -0.7978 H   0  0  0  0  0  0  0  0  0  0  0  0
   -1.1036    0.7148   -2.3903 H   0  0  0  0  0  0  0  0  0  0  0  0
   -2.2806   -2.9415   -1.0160 H   0  0  0  0  0  0  0  0  0  0  0  0
   -3.3675   -2.1898   -2.7200 H   0  0  0  0  0  0  0  0  0  0  0  0
   -2.3893   -2.0304    1.1858 H   0  0  0  0  0  0  0  0  0  0  0  0
   -3.9883   -2.4689    0.5976 H   0  0  0  0  0  0  0  0  0  0  0  0
   -2.9149    0.4192    0.7938 H   0  0  0  0  0  0  0  0  0  0  0  0
   -4.8925   -1.1591    2.5434 H   0  0  0  0  0  0  0  0  0  0  0  0
   -5.9923    0.9746    2.1818 H   0  0  0  0  0  0  0  0  0  0  0  0
   -5.2107    1.0602    3.7789 H   0  0  0  0  0  0  0  0  0  0  0  0
   -4.4412    1.8892    2.3682 H   0  0  0  0  0  0  0  0  0  0  0  0
   -2.5476   -1.4002    3.2791 H   0  0  0  0  0  0  0  0  0  0  0  0
   -3.3890   -0.3030    4.3913 H   0  0  0  0  0  0  0  0  0  0  0  0
   -2.2813    0.3835    3.1470 H   0  0  0  0  0  0  0  0  0  0  0  0
   -6.1799   -1.4733    0.4937 H   0  0  0  0  0  0  0  0  0  0  0  0
   -7.4632   -1.5022   -1.4676 H   0  0  0  0  0  0  0  0  0  0  0  0
   -6.5178   -0.1645   -2.1601 H   0  0  0  0  0  0  0  0  0  0  0  0
   -8.4607    2.6378   -0.5317 H   0  0  0  0  0  0  0  0  0  0  0  0
   -7.0186    1.9403    0.2681 H   0  0  0  0  0  0  0  0  0  0  0  0
   -7.0253    2.2159   -1.5156 H   0  0  0  0  0  0  0  0  0  0  0  0
  -10.0029    1.2295   -1.8856 H   0  0  0  0  0  0  0  0  0  0  0  0
   -8.6498    0.8209   -2.9928 H   0  0  0  0  0  0  0  0  0  0  0  0
   -9.6216   -0.4939   -2.2330 H   0  0  0  0  0  0  0  0  0  0  0  0
  -10.5297    0.4868    1.7638 H   0  0  0  0  0  0  0  0  0  0  0  0
  -10.3502    1.6798    0.4412 H   0  0  0  0  0  0  0  0  0  0  0  0
    0.9820   -0.7952   -2.7219 H   0  0  0  0  0  0  0  0  0  0  0  0
    1.4180   -3.0182   -1.6302 H   0  0  0  0  0  0  0  0  0  0  0  0
    3.0935   -2.4656   -1.2261 H   0  0  0  0  0  0  0  0  0  0  0  0
    2.5732   -2.6237   -2.9390 H   0  0  0  0  0  0  0  0  0  0  0  0
    3.8431   -0.1657   -1.9459 H   0  0  0  0  0  0  0  0  0  0  0  0
    2.6117    1.1231   -2.2704 H   0  0  0  0  0  0  0  0  0  0  0  0
    3.0228   -0.0914   -3.5267 H   0  0  0  0  0  0  0  0  0  0  0  0
    2.1183    2.1932    0.7538 H   0  0  0  0  0  0  0  0  0  0  0  0
    4.0716    3.6553    0.7311 H   0  0  0  0  0  0  0  0  0  0  0  0
    6.1113    4.6760   -0.2156 H   0  0  0  0  0  0  0  0  0  0  0  0
    7.7028    4.6411    0.6326 H   0  0  0  0  0  0  0  0  0  0  0  0
    6.1813    4.6133    1.6036 H   0  0  0  0  0  0  0  0  0  0  0  0
  1  2  1  0
  2  3  1  0
  3  4  1  0
  4  5  1  0
  5  6  1  0
  6  7  1  0
  7  8  2  0
  8  9  1  0
  9 10  1  0
 10 11  1  0
 11 12  1  0
 12 13  1  0
 13 14  1  0
 13 15  1  0
 15 16  1  0
 15 17  1  0
 17 18  1  0
 18 19  1  0
 19 20  1  0
 19 21  1  0
 18 22  1  0
 22 23  2  0
 22 24  1  0
 24 25  1  0
 25 26  1  0
 26 27  1  0
 26 28  1  0
 26 29  1  0
 29 30  2  0
 29 31  1  0
 11 32  1  0
 32 33  1  0
 32 34  1  0
  9 35  2  0
 35 36  1  0
 36 37  2  0
 37  7  1  0
 37 38  1  0
 38 39  1  0
  1 40  1  0
  1 41  1  0
  1 42  1  0
  3 43  1  0
  3 44  1  0
  4 45  1  0
  4 46  1  0
  5 47  1  0
  5 48  1  0
  8 49  1  0
 10 50  1  0
 10 51  1  0
 11 52  1  0
 12 53  1  0
 12 54  1  0
 13 55  1  0
 14 56  1  0
 14 57  1  0
 15 58  1  0
 16 59  1  0
 17 60  1  0
 17 61  1  0
 18 62  1  0
 19 63  1  0
 20 64  1  0
 20 65  1  0
 20 66  1  0
 21 67  1  0
 21 68  1  0
 21 69  1  0
 24 70  1  0
 25 71  1  0
 25 72  1  0
 27 73  1  0
 27 74  1  0
 27 75  1  0
 28 76  1  0
 28 77  1  0
 28 78  1  0
 31 79  1  0
 31 80  1  0
 32 81  1  0
 33 82  1  0
 33 83  1  0
 33 84  1  0
 34 85  1  0
 34 86  1  0
 34 87  1  0
 35 88  1  0
 36 89  1  0
 39 90  1  0
 39 91  1  0
 39 92  1  0
M  END
> <ID>
HT0098

> <Class>
0.0

> <Clusters>
9

> <Fold>
2

$$$$