
     RDKit          3D

 48 50  0  0  0  0  0  0  0  0999 V2000
   -6.4252    1.4866    4.9406 C   0  0  0  0  0  0  0  0  0  0  0  0
   -5.4393    1.4120    3.8668 N   0  0  0  0  0  0  0  0  0  0  0  0
   -4.0547    1.1032    4.0940 C   0  0  0  0  0  0  0  0  0  0  0  0
   -3.5973    1.0958    5.2696 O   0  0  0  0  0  0  0  0  0  0  0  0
   -3.1403    0.8339    2.9605 C   0  0  0  0  0  0  0  0  0  0  0  0
   -1.7924    1.2233    3.0490 C   0  0  0  0  0  0  0  0  0  0  0  0
   -0.9132    0.9828    1.9904 C   0  0  0  0  0  0  0  0  0  0  0  0
   -1.3646    0.3456    0.8279 C   0  0  0  0  0  0  0  0  0  0  0  0
   -2.6989   -0.0696    0.7430 C   0  0  0  0  0  0  0  0  0  0  0  0
   -3.5838    0.1687    1.7996 C   0  0  0  0  0  0  0  0  0  0  0  0
   -4.8532   -0.3015    1.7041 F   0  0  0  0  0  0  0  0  0  0  0  0
   -0.4562    0.1019   -0.2583 N   0  0  0  0  0  0  0  0  0  0  0  0
    0.7765   -0.6110   -0.1291 C   0  0  0  0  0  0  0  0  0  0  0  0
    0.9940   -1.8047    0.9772 S   0  0  0  0  0  0  0  0  0  0  0  0
    1.5982   -0.4605   -1.2802 N   0  0  0  0  0  0  0  0  0  0  0  0
    0.8731    0.4191   -2.1325 C   0  0  0  0  0  0  0  0  0  0  0  0
    1.3151    0.8319   -3.2389 O   0  0  0  0  0  0  0  0  0  0  0  0
   -0.4445    0.8343   -1.5364 C   0  0  0  0  0  0  0  0  0  0  0  0
   -1.6031    0.3900   -2.4394 C   0  0  0  0  0  0  0  0  0  0  0  0
   -0.4658    2.3529   -1.3005 C   0  0  0  0  0  0  0  0  0  0  0  0
    2.9282   -0.9634   -1.4946 C   0  0  0  0  0  0  0  0  0  0  0  0
    3.8739   -0.9294   -0.4621 C   0  0  0  0  0  0  0  0  0  0  0  0
    5.1655   -1.4112   -0.6728 C   0  0  0  0  0  0  0  0  0  0  0  0
    5.5347   -1.9318   -1.9192 C   0  0  0  0  0  0  0  0  0  0  0  0
    6.8834   -2.4195   -2.0876 C   0  0  0  0  0  0  0  0  0  0  0  0
    7.9644   -2.8102   -2.2221 N   0  0  0  0  0  0  0  0  0  0  0  0
    4.5949   -1.9698   -2.9773 C   0  0  0  0  0  0  0  0  0  0  0  0
    3.2938   -1.4794   -2.7468 C   0  0  0  0  0  0  0  0  0  0  0  0
    4.9734   -2.5305   -4.3341 C   0  0  0  0  0  0  0  0  0  0  0  0
    3.9197   -2.4711   -5.2302 F   0  0  0  0  0  0  0  0  0  0  0  0
    5.3544   -3.8533   -4.1989 F   0  0  0  0  0  0  0  0  0  0  0  0
    6.0288   -1.8056   -4.8576 F   0  0  0  0  0  0  0  0  0  0  0  0
   -6.8212    2.5213    5.0063 H   0  0  0  0  0  0  0  0  0  0  0  0
   -5.9869    1.2060    5.9210 H   0  0  0  0  0  0  0  0  0  0  0  0
   -7.2628    0.7932    4.7182 H   0  0  0  0  0  0  0  0  0  0  0  0
   -5.7619    1.6450    2.9012 H   0  0  0  0  0  0  0  0  0  0  0  0
   -1.4220    1.7283    3.9327 H   0  0  0  0  0  0  0  0  0  0  0  0
    0.1187    1.3012    2.0697 H   0  0  0  0  0  0  0  0  0  0  0  0
   -3.0476   -0.6062   -0.1292 H   0  0  0  0  0  0  0  0  0  0  0  0
   -1.6281   -0.7181   -2.5202 H   0  0  0  0  0  0  0  0  0  0  0  0
   -1.4864    0.8180   -3.4583 H   0  0  0  0  0  0  0  0  0  0  0  0
   -2.5737    0.7415   -2.0318 H   0  0  0  0  0  0  0  0  0  0  0  0
   -1.4218    2.6581   -0.8241 H   0  0  0  0  0  0  0  0  0  0  0  0
   -0.3647    2.8977   -2.2638 H   0  0  0  0  0  0  0  0  0  0  0  0
    0.3705    2.6524   -0.6323 H   0  0  0  0  0  0  0  0  0  0  0  0
    3.6162   -0.5131    0.5033 H   0  0  0  0  0  0  0  0  0  0  0  0
    5.8817   -1.3736    0.1397 H   0  0  0  0  0  0  0  0  0  0  0  0
    2.5501   -1.5107   -3.5320 H   0  0  0  0  0  0  0  0  0  0  0  0
  1  2  1  0
  2  3  1  0
  3  4  2  0
  3  5  1  0
  5  6  2  0
  6  7  1  0
  7  8  2  0
  8  9  1  0
  9 10  2  0
 10  5  1  0
 10 11  1  0
  8 12  1  0
 12 13  1  0
 13 14  2  0
 13 15  1  0
 15 16  1  0
 16 17  2  0
 16 18  1  0
 18 12  1  0
 18 19  1  0
 18 20  1  0
 15 21  1  0
 21 22  2  0
 22 23  1  0
 23 24  2  0
 24 25  1  0
 25 26  3  0
 24 27  1  0
 27 28  2  0
 28 21  1  0
 27 29  1  0
 29 30  1  0
 29 31  1  0
 29 32  1  0
  1 33  1  0
  1 34  1  0
  1 35  1  0
  2 36  1  0
  6 37  1  0
  7 38  1  0
  9 39  1  0
 19 40  1  0
 19 41  1  0
 19 42  1  0
 20 43  1  0
 20 44  1  0
 20 45  1  0
 22 46  1  0
 23 47  1  0
 28 48  1  0
M  END
> <ID>
HT0765

> <Class>
0.0

> <Clusters>
211

> <Fold>
2

$$$$