
     RDKit          3D

 43 44  0  0  0  0  0  0  0  0999 V2000
   -2.3055   -0.9311    1.5940 C   0  0  0  0  0  0  0  0  0  0  0  0
   -2.2985   -0.6422    0.0800 C   0  0  0  0  0  0  0  0  0  0  0  0
   -2.5841   -1.9070   -0.7531 C   0  0  0  0  0  0  0  0  0  0  0  0
   -3.2185    0.4146   -0.2501 O   0  0  0  0  0  0  0  0  0  0  0  0
   -4.6196    0.4913   -0.1145 C   0  0  0  0  0  0  0  0  0  0  0  0
   -5.2298    1.6815   -0.5359 C   0  0  0  0  0  0  0  0  0  0  0  0
   -6.6135    1.8522   -0.4414 C   0  0  0  0  0  0  0  0  0  0  0  0
   -7.4095    0.8298    0.0785 C   0  0  0  0  0  0  0  0  0  0  0  0
   -9.1467    1.0419    0.1982 Cl  0  0  0  0  0  0  0  0  0  0  0  0
   -6.8183   -0.3624    0.5030 C   0  0  0  0  0  0  0  0  0  0  0  0
   -5.4331   -0.5359    0.4094 C   0  0  0  0  0  0  0  0  0  0  0  0
   -0.9103   -0.1621   -0.2830 C   0  0  0  0  0  0  0  0  0  0  0  0
   -0.7453    0.9864   -0.7810 O   0  0  0  0  0  0  0  0  0  0  0  0
    0.1911   -1.0014   -0.0672 O   0  0  0  0  0  0  0  0  0  0  0  0
    1.5402   -0.6061   -0.3056 C   0  0  0  0  0  0  0  0  0  0  0  0
    2.0343    0.3141    0.8125 C   0  0  0  0  0  0  0  0  0  0  0  0
    3.3804    0.7208    0.5737 O   0  0  0  0  0  0  0  0  0  0  0  0
    4.4860   -0.1234    0.7396 C   0  0  0  0  0  0  0  0  0  0  0  0
    4.3302   -1.2897    1.1959 O   0  0  0  0  0  0  0  0  0  0  0  0
    5.8389    0.3606    0.3893 C   0  0  0  0  0  0  0  0  0  0  0  0
    6.9669   -0.4613    0.5534 C   0  0  0  0  0  0  0  0  0  0  0  0
    8.2354    0.0139    0.2160 C   0  0  0  0  0  0  0  0  0  0  0  0
    8.3700    1.3092   -0.2845 C   0  0  0  0  0  0  0  0  0  0  0  0
    7.2728    2.0956   -0.4398 N   0  0  0  0  0  0  0  0  0  0  0  0
    6.0259    1.6574   -0.1188 C   0  0  0  0  0  0  0  0  0  0  0  0
   -2.1325    0.0095    2.1598 H   0  0  0  0  0  0  0  0  0  0  0  0
   -3.2563   -1.3692    1.9428 H   0  0  0  0  0  0  0  0  0  0  0  0
   -1.5029   -1.6529    1.8597 H   0  0  0  0  0  0  0  0  0  0  0  0
   -3.5470   -2.3811   -0.4966 H   0  0  0  0  0  0  0  0  0  0  0  0
   -2.6045   -1.6516   -1.8344 H   0  0  0  0  0  0  0  0  0  0  0  0
   -1.7952   -2.6724   -0.5879 H   0  0  0  0  0  0  0  0  0  0  0  0
   -4.6237    2.4822   -0.9410 H   0  0  0  0  0  0  0  0  0  0  0  0
   -7.0643    2.7791   -0.7724 H   0  0  0  0  0  0  0  0  0  0  0  0
   -7.4319   -1.1579    0.9067 H   0  0  0  0  0  0  0  0  0  0  0  0
   -5.0364   -1.4724    0.7508 H   0  0  0  0  0  0  0  0  0  0  0  0
    1.6252   -0.0985   -1.2911 H   0  0  0  0  0  0  0  0  0  0  0  0
    2.1690   -1.5197   -0.3365 H   0  0  0  0  0  0  0  0  0  0  0  0
    1.3981    1.2229    0.8446 H   0  0  0  0  0  0  0  0  0  0  0  0
    1.9550   -0.1942    1.7981 H   0  0  0  0  0  0  0  0  0  0  0  0
    6.8696   -1.4676    0.9411 H   0  0  0  0  0  0  0  0  0  0  0  0
    9.1064   -0.6164    0.3412 H   0  0  0  0  0  0  0  0  0  0  0  0
    9.3471    1.6899   -0.5500 H   0  0  0  0  0  0  0  0  0  0  0  0
    5.1849    2.3232   -0.2618 H   0  0  0  0  0  0  0  0  0  0  0  0
  1  2  1  0
  2  3  1  0
  2  4  1  0
  4  5  1  0
  5  6  2  0
  6  7  1  0
  7  8  2  0
  8  9  1  0
  8 10  1  0
 10 11  2  0
 11  5  1  0
  2 12  1  0
 12 13  2  0
 12 14  1  0
 14 15  1  0
 15 16  1  0
 16 17  1  0
 17 18  1  0
 18 19  2  0
 18 20  1  0
 20 21  2  0
 21 22  1  0
 22 23  2  0
 23 24  1  0
 24 25  2  0
 25 20  1  0
  1 26  1  0
  1 27  1  0
  1 28  1  0
  3 29  1  0
  3 30  1  0
  3 31  1  0
  6 32  1  0
  7 33  1  0
 10 34  1  0
 11 35  1  0
 15 36  1  0
 15 37  1  0
 16 38  1  0
 16 39  1  0
 21 40  1  0
 22 41  1  0
 23 42  1  0
 25 43  1  0
M  END
> <ID>
HT0828

> <Class>
0.0

> <Clusters>
98

> <Fold>
2

$$$$