
     RDKit          3D

 26 27  0  0  0  0  0  0  0  0999 V2000
   -4.6111    0.3908   -0.1380 C   0  0  0  0  0  0  0  0  0  0  0  0
   -4.0197    0.1937    1.2541 C   0  0  0  0  0  0  0  0  0  0  0  0
   -2.7259    0.7906    1.3472 O   0  0  0  0  0  0  0  0  0  0  0  0
   -1.5524    0.2935    0.7571 C   0  0  0  0  0  0  0  0  0  0  0  0
   -1.4903   -0.9786    0.1283 C   0  0  0  0  0  0  0  0  0  0  0  0
   -0.2924   -1.4363   -0.4468 C   0  0  0  0  0  0  0  0  0  0  0  0
    0.8369   -0.6216   -0.3865 C   0  0  0  0  0  0  0  0  0  0  0  0
    2.0486   -0.9504   -0.9019 N   0  0  0  0  0  0  0  0  0  0  0  0
    2.9462    0.0410   -0.6860 C   0  0  0  0  0  0  0  0  0  0  0  0
    2.2790    1.3537    0.1485 S   0  0  0  0  0  0  0  0  0  0  0  0
    0.7739    0.6153    0.2324 C   0  0  0  0  0  0  0  0  0  0  0  0
   -0.3979    1.0944    0.8103 C   0  0  0  0  0  0  0  0  0  0  0  0
    4.6151   -0.0417   -1.2102 S   0  0  0  0  0  0  0  0  0  0  0  0
    4.8190   -1.2830   -2.0323 O   0  0  0  0  0  0  0  0  0  0  0  0
    4.9378    1.1626   -2.0494 O   0  0  0  0  0  0  0  0  0  0  0  0
    5.6542   -0.0947    0.1702 N   0  0  0  0  0  0  0  0  0  0  0  0
   -3.9911   -0.1147   -0.9062 H   0  0  0  0  0  0  0  0  0  0  0  0
   -4.6658    1.4745   -0.3746 H   0  0  0  0  0  0  0  0  0  0  0  0
   -5.6355   -0.0359   -0.1713 H   0  0  0  0  0  0  0  0  0  0  0  0
   -3.9791   -0.8829    1.5231 H   0  0  0  0  0  0  0  0  0  0  0  0
   -4.6862    0.6938    1.9880 H   0  0  0  0  0  0  0  0  0  0  0  0
   -2.3563   -1.6230    0.0831 H   0  0  0  0  0  0  0  0  0  0  0  0
   -0.2489   -2.4062   -0.9257 H   0  0  0  0  0  0  0  0  0  0  0  0
   -0.4189    2.0656    1.2882 H   0  0  0  0  0  0  0  0  0  0  0  0
    5.5248    0.8050    0.6850 H   0  0  0  0  0  0  0  0  0  0  0  0
    6.6360   -0.0988   -0.1865 H   0  0  0  0  0  0  0  0  0  0  0  0
  1  2  1  0
  2  3  1  0
  3  4  1  0
  4  5  2  0
  5  6  1  0
  6  7  2  0
  7  8  1  0
  8  9  2  0
  9 10  1  0
 10 11  1  0
 11  7  1  0
 11 12  2  0
 12  4  1  0
  9 13  1  0
 13 14  2  0
 13 15  2  0
 13 16  1  0
  1 17  1  0
  1 18  1  0
  1 19  1  0
  2 20  1  0
  2 21  1  0
  5 22  1  0
  6 23  1  0
 12 24  1  0
 16 25  1  0
 16 26  1  0
M  END
> <ID>
HT0813

> <Class>
0.0

> <Clusters>
97

> <Fold>
2

$$$$