
     RDKit          3D

 31 31  0  0  0  0  0  0  0  0999 V2000
   -5.3483    0.9011   -0.1228 C   0  0  0  0  0  0  0  0  0  0  0  0
   -4.3888   -0.1793    0.3819 C   0  0  0  0  0  0  0  0  0  0  0  0
   -3.0019   -0.1915   -0.2433 C   0  0  0  0  0  0  0  0  0  0  0  0
   -2.6588    0.6109   -1.2656 C   0  0  0  0  0  0  0  0  0  0  0  0
   -2.0220   -1.1761    0.2897 C   0  0  0  0  0  0  0  0  0  0  0  0
   -2.4494   -2.1966    0.8948 O   0  0  0  0  0  0  0  0  0  0  0  0
   -0.5564   -0.9790    0.1747 C   0  0  0  0  0  0  0  0  0  0  0  0
   -0.0028    0.2558    0.5448 C   0  0  0  0  0  0  0  0  0  0  0  0
    1.3733    0.4686    0.4746 C   0  0  0  0  0  0  0  0  0  0  0  0
    2.2300   -0.5548    0.0350 C   0  0  0  0  0  0  0  0  0  0  0  0
    3.6204   -0.3758   -0.0474 O   0  0  0  0  0  0  0  0  0  0  0  0
    4.3042    0.8284    0.2944 C   0  0  0  0  0  0  0  0  0  0  0  0
    5.7765    0.6703    0.0868 C   0  0  0  0  0  0  0  0  0  0  0  0
    6.2543   -0.4171   -0.3359 O   0  0  0  0  0  0  0  0  0  0  0  0
    6.6240    1.7377    0.3647 O   0  0  0  0  0  0  0  0  0  0  0  0
    1.6865   -1.7953   -0.3351 C   0  0  0  0  0  0  0  0  0  0  0  0
    2.7692   -3.0710   -0.8916 Cl  0  0  0  0  0  0  0  0  0  0  0  0
    0.2967   -2.0144   -0.2663 C   0  0  0  0  0  0  0  0  0  0  0  0
   -0.3669   -3.5675   -0.7855 Cl  0  0  0  0  0  0  0  0  0  0  0  0
   -6.3044    0.8352    0.4383 H   0  0  0  0  0  0  0  0  0  0  0  0
   -4.9173    1.9116    0.0421 H   0  0  0  0  0  0  0  0  0  0  0  0
   -5.5705    0.7516   -1.2008 H   0  0  0  0  0  0  0  0  0  0  0  0
   -4.8631   -1.1702    0.2138 H   0  0  0  0  0  0  0  0  0  0  0  0
   -4.2733   -0.0440    1.4791 H   0  0  0  0  0  0  0  0  0  0  0  0
   -3.3395    1.3311   -1.6945 H   0  0  0  0  0  0  0  0  0  0  0  0
   -1.6792    0.5514   -1.7218 H   0  0  0  0  0  0  0  0  0  0  0  0
   -0.6396    1.0567    0.9008 H   0  0  0  0  0  0  0  0  0  0  0  0
    1.7611    1.4340    0.7694 H   0  0  0  0  0  0  0  0  0  0  0  0
    4.1195    1.0739    1.3620 H   0  0  0  0  0  0  0  0  0  0  0  0
    3.9415    1.6599   -0.3468 H   0  0  0  0  0  0  0  0  0  0  0  0
    7.6249    1.6546    0.2319 H   0  0  0  0  0  0  0  0  0  0  0  0
  1  2  1  0
  2  3  1  0
  3  4  2  3
  3  5  1  0
  5  6  2  0
  5  7  1  0
  7  8  2  0
  8  9  1  0
  9 10  2  0
 10 11  1  0
 11 12  1  0
 12 13  1  0
 13 14  2  0
 13 15  1  0
 10 16  1  0
 16 17  1  0
 16 18  2  0
 18  7  1  0
 18 19  1  0
  1 20  1  0
  1 21  1  0
  1 22  1  0
  2 23  1  0
  2 24  1  0
  4 25  1  0
  4 26  1  0
  8 27  1  0
  9 28  1  0
 12 29  1  0
 12 30  1  0
 15 31  1  0
M  END
> <ID>
HT0802

> <Class>
0.0

> <Clusters>
22

> <Fold>
2

$$$$