
     RDKit          3D

 34 35  0  0  0  0  0  0  0  0999 V2000
   -1.6811    0.9999   -1.9587 C   0  0  0  0  0  0  0  0  0  0  0  0
   -0.8261    0.8497   -0.7271 C   0  0  0  0  0  0  0  0  0  0  0  0
   -1.3474    0.9319    0.5141 C   0  0  0  0  0  0  0  0  0  0  0  0
   -2.7903    1.0444    0.8114 C   0  0  0  0  0  0  0  0  0  0  0  0
   -3.2376    2.0714    1.6568 C   0  0  0  0  0  0  0  0  0  0  0  0
   -4.5937    2.1775    1.9807 C   0  0  0  0  0  0  0  0  0  0  0  0
   -5.5087    1.2502    1.4762 C   0  0  0  0  0  0  0  0  0  0  0  0
   -5.0670    0.2079    0.6572 C   0  0  0  0  0  0  0  0  0  0  0  0
   -3.7113    0.0962    0.3339 C   0  0  0  0  0  0  0  0  0  0  0  0
    0.6423    0.7880   -0.9135 C   0  0  0  0  0  0  0  0  0  0  0  0
    1.4518   -0.0568   -0.2535 C   0  0  0  0  0  0  0  0  0  0  0  0
    0.8907   -1.3499    0.8710 S   0  0  0  0  0  0  0  0  0  0  0  0
    2.5784   -1.9649    0.9257 C   0  0  0  0  0  0  0  0  0  0  0  0
    2.8906   -3.4877    1.4423 S   0  0  0  0  0  0  0  0  0  0  0  0
    3.5391   -1.1808    0.2117 N   0  0  0  0  0  0  0  0  0  0  0  0
    4.9521   -1.5295    0.0293 C   0  0  0  0  0  0  0  0  0  0  0  0
    5.1509   -2.4224   -1.1632 C   0  0  0  0  0  0  0  0  0  0  0  0
    4.1704   -2.7991   -1.8596 O   0  0  0  0  0  0  0  0  0  0  0  0
    6.4311   -2.8420   -1.5093 O   0  0  0  0  0  0  0  0  0  0  0  0
    2.8955   -0.1112   -0.4678 C   0  0  0  0  0  0  0  0  0  0  0  0
    3.5241    0.7040   -1.1959 O   0  0  0  0  0  0  0  0  0  0  0  0
   -2.3461    1.8856   -1.8627 H   0  0  0  0  0  0  0  0  0  0  0  0
   -2.2925    0.0888   -2.1163 H   0  0  0  0  0  0  0  0  0  0  0  0
   -1.0537    1.1425   -2.8652 H   0  0  0  0  0  0  0  0  0  0  0  0
   -0.6744    1.0164    1.3596 H   0  0  0  0  0  0  0  0  0  0  0  0
   -2.5380    2.7959    2.0563 H   0  0  0  0  0  0  0  0  0  0  0  0
   -4.9349    2.9783    2.6242 H   0  0  0  0  0  0  0  0  0  0  0  0
   -6.5577    1.3327    1.7296 H   0  0  0  0  0  0  0  0  0  0  0  0
   -5.7730   -0.5223    0.2841 H   0  0  0  0  0  0  0  0  0  0  0  0
   -3.3800   -0.7441   -0.2625 H   0  0  0  0  0  0  0  0  0  0  0  0
    1.0699    1.4314   -1.6741 H   0  0  0  0  0  0  0  0  0  0  0  0
    5.5521   -0.6050   -0.1088 H   0  0  0  0  0  0  0  0  0  0  0  0
    5.3369   -2.0378    0.9382 H   0  0  0  0  0  0  0  0  0  0  0  0
    7.2373   -2.5617   -0.9643 H   0  0  0  0  0  0  0  0  0  0  0  0
  1  2  1  0
  2  3  2  3
  3  4  1  0
  4  5  2  0
  5  6  1  0
  6  7  2  0
  7  8  1  0
  8  9  2  0
  9  4  1  0
  2 10  1  0
 10 11  2  3
 11 12  1  0
 12 13  1  0
 13 14  2  0
 13 15  1  0
 15 16  1  0
 16 17  1  0
 17 18  2  0
 17 19  1  0
 15 20  1  0
 20 11  1  0
 20 21  2  0
  1 22  1  0
  1 23  1  0
  1 24  1  0
  3 25  1  0
  5 26  1  0
  6 27  1  0
  7 28  1  0
  8 29  1  0
  9 30  1  0
 10 31  1  0
 16 32  1  0
 16 33  1  0
 19 34  1  0
M  END
> <ID>
HT0766

> <Class>
0.0

> <Clusters>
22

> <Fold>
2

$$$$