
     RDKit          3D

 37 39  0  0  0  0  0  0  0  0999 V2000
   -2.8980    1.9120    1.2238 C   0  0  0  0  0  0  0  0  0  0  0  0
   -1.4151    2.2060    0.9888 C   0  0  0  0  0  0  0  0  0  0  0  0
   -0.7942    1.2419    0.0685 N   0  0  0  0  0  0  0  0  0  0  0  0
   -0.6374   -0.1110    0.6548 C   0  0  0  0  0  0  0  0  0  0  0  0
   -1.6479   -1.1230    0.0500 C   0  0  0  0  0  0  0  0  0  0  0  0
   -1.6363   -2.4022    0.9052 C   0  0  0  0  0  0  0  0  0  0  0  0
   -0.2861   -3.0409    0.5423 C   0  0  0  0  0  0  0  0  0  0  0  0
    0.3086   -2.0412   -0.4697 C   0  0  0  0  0  0  0  0  0  0  0  0
   -0.9358   -1.5892   -1.1999 C   0  0  0  0  0  0  0  0  0  0  0  0
    0.7360   -0.7587    0.2960 C   0  0  0  0  0  0  0  0  0  0  0  0
    1.6942    0.1768   -0.4402 C   0  0  0  0  0  0  0  0  0  0  0  0
    2.2909    1.2218    0.2909 C   0  0  0  0  0  0  0  0  0  0  0  0
    3.1721    2.1134   -0.3264 C   0  0  0  0  0  0  0  0  0  0  0  0
    3.4728    1.9742   -1.6818 C   0  0  0  0  0  0  0  0  0  0  0  0
    2.8920    0.9433   -2.4222 C   0  0  0  0  0  0  0  0  0  0  0  0
    2.0088    0.0478   -1.8107 C   0  0  0  0  0  0  0  0  0  0  0  0
   -3.4418    1.8701    0.2564 H   0  0  0  0  0  0  0  0  0  0  0  0
   -3.3408    2.7188    1.8448 H   0  0  0  0  0  0  0  0  0  0  0  0
   -3.0259    0.9494    1.7612 H   0  0  0  0  0  0  0  0  0  0  0  0
   -0.8709    2.2242    1.9586 H   0  0  0  0  0  0  0  0  0  0  0  0
   -1.3235    3.2217    0.5478 H   0  0  0  0  0  0  0  0  0  0  0  0
   -1.3287    1.2246   -0.8315 H   0  0  0  0  0  0  0  0  0  0  0  0
   -0.7365   -0.0771    1.7650 H   0  0  0  0  0  0  0  0  0  0  0  0
   -2.6673   -0.7181   -0.1262 H   0  0  0  0  0  0  0  0  0  0  0  0
   -1.7123   -2.1833    1.9926 H   0  0  0  0  0  0  0  0  0  0  0  0
   -2.4752   -3.0703    0.6095 H   0  0  0  0  0  0  0  0  0  0  0  0
   -0.4427   -4.0303    0.0581 H   0  0  0  0  0  0  0  0  0  0  0  0
    0.3613   -3.1762    1.4360 H   0  0  0  0  0  0  0  0  0  0  0  0
    1.0942   -2.5035   -1.1039 H   0  0  0  0  0  0  0  0  0  0  0  0
   -1.4649   -2.4240   -1.7162 H   0  0  0  0  0  0  0  0  0  0  0  0
   -0.7510   -0.7703   -1.9289 H   0  0  0  0  0  0  0  0  0  0  0  0
    1.2569   -1.0639    1.2323 H   0  0  0  0  0  0  0  0  0  0  0  0
    2.0669    1.3478    1.3433 H   0  0  0  0  0  0  0  0  0  0  0  0
    3.6216    2.9136    0.2474 H   0  0  0  0  0  0  0  0  0  0  0  0
    4.1552    2.6657   -2.1590 H   0  0  0  0  0  0  0  0  0  0  0  0
    3.1248    0.8384   -3.4740 H   0  0  0  0  0  0  0  0  0  0  0  0
    1.5760   -0.7287   -2.4232 H   0  0  0  0  0  0  0  0  0  0  0  0
  1  2  1  0
  2  3  1  0
  3  4  1  0
  4  5  1  0
  5  6  1  0
  6  7  1  0
  7  8  1  0
  8  9  1  0
  9  5  1  0
  8 10  1  0
 10  4  1  0
 10 11  1  0
 11 12  2  0
 12 13  1  0
 13 14  2  0
 14 15  1  0
 15 16  2  0
 16 11  1  0
  1 17  1  0
  1 18  1  0
  1 19  1  0
  2 20  1  0
  2 21  1  0
  3 22  1  0
  4 23  1  0
  5 24  1  0
  6 25  1  0
  6 26  1  0
  7 27  1  0
  7 28  1  0
  8 29  1  0
  9 30  1  0
  9 31  1  0
 10 32  1  0
 12 33  1  0
 13 34  1  0
 14 35  1  0
 15 36  1  0
 16 37  1  0
M  END
> <ID>
HT0855

> <Class>
0.0

> <Clusters>
191

> <Fold>
2

$$$$