
     RDKit          3D

 34 36  0  0  0  0  0  0  0  0999 V2000
   -2.3923    4.0963   -0.2134 O   0  0  0  0  0  0  0  0  0  0  0  0
   -2.5601    2.7892   -0.6595 C   0  0  0  0  0  0  0  0  0  0  0  0
   -2.7029    2.5565   -1.8898 O   0  0  0  0  0  0  0  0  0  0  0  0
   -2.5274    1.6578    0.3172 C   0  0  0  0  0  0  0  0  0  0  0  0
   -1.1514    1.0557    0.3715 C   0  0  0  0  0  0  0  0  0  0  0  0
    0.2398    1.9158    0.7716 S   0  0  0  0  0  0  0  0  0  0  0  0
    1.2752    0.6177    0.4886 C   0  0  0  0  0  0  0  0  0  0  0  0
    0.5786   -0.4726    0.0948 N   0  0  0  0  0  0  0  0  0  0  0  0
   -0.7637   -0.2497    0.0363 C   0  0  0  0  0  0  0  0  0  0  0  0
   -1.6862   -1.3341   -0.3514 C   0  0  0  0  0  0  0  0  0  0  0  0
   -2.7977   -1.6548    0.4462 C   0  0  0  0  0  0  0  0  0  0  0  0
   -3.6454   -2.7061    0.0842 C   0  0  0  0  0  0  0  0  0  0  0  0
   -3.3816   -3.4552   -1.0670 C   0  0  0  0  0  0  0  0  0  0  0  0
   -4.4450   -4.7750   -1.5187 Cl  0  0  0  0  0  0  0  0  0  0  0  0
   -2.2634   -3.1566   -1.8523 C   0  0  0  0  0  0  0  0  0  0  0  0
   -1.4140   -2.1058   -1.4923 C   0  0  0  0  0  0  0  0  0  0  0  0
    2.7486    0.6355    0.6359 C   0  0  0  0  0  0  0  0  0  0  0  0
    3.4999   -0.5224    0.3609 C   0  0  0  0  0  0  0  0  0  0  0  0
    4.8915   -0.5132    0.4975 C   0  0  0  0  0  0  0  0  0  0  0  0
    5.5477    0.6487    0.9089 C   0  0  0  0  0  0  0  0  0  0  0  0
    4.8135    1.8041    1.1848 C   0  0  0  0  0  0  0  0  0  0  0  0
    3.4216    1.8008    1.0500 C   0  0  0  0  0  0  0  0  0  0  0  0
   -2.3959    4.8719   -0.8650 H   0  0  0  0  0  0  0  0  0  0  0  0
   -3.2874    0.9121    0.0114 H   0  0  0  0  0  0  0  0  0  0  0  0
   -2.8000    2.0287    1.3277 H   0  0  0  0  0  0  0  0  0  0  0  0
   -3.0004   -1.1015    1.3550 H   0  0  0  0  0  0  0  0  0  0  0  0
   -4.5019   -2.9419    0.7028 H   0  0  0  0  0  0  0  0  0  0  0  0
   -2.0502   -3.7389   -2.7397 H   0  0  0  0  0  0  0  0  0  0  0  0
   -0.5503   -1.8875   -2.1085 H   0  0  0  0  0  0  0  0  0  0  0  0
    3.0133   -1.4351    0.0403 H   0  0  0  0  0  0  0  0  0  0  0  0
    5.4614   -1.4083    0.2838 H   0  0  0  0  0  0  0  0  0  0  0  0
    6.6249    0.6537    1.0140 H   0  0  0  0  0  0  0  0  0  0  0  0
    5.3234    2.7041    1.5036 H   0  0  0  0  0  0  0  0  0  0  0  0
    2.8778    2.7100    1.2703 H   0  0  0  0  0  0  0  0  0  0  0  0
  1  2  1  0
  2  3  2  0
  2  4  1  0
  4  5  1  0
  5  6  1  0
  6  7  1  0
  7  8  2  0
  8  9  1  0
  9  5  2  0
  9 10  1  0
 10 11  2  0
 11 12  1  0
 12 13  2  0
 13 14  1  0
 13 15  1  0
 15 16  2  0
 16 10  1  0
  7 17  1  0
 17 18  2  0
 18 19  1  0
 19 20  2  0
 20 21  1  0
 21 22  2  0
 22 17  1  0
  1 23  1  0
  4 24  1  0
  4 25  1  0
 11 26  1  0
 12 27  1  0
 15 28  1  0
 16 29  1  0
 18 30  1  0
 19 31  1  0
 20 32  1  0
 21 33  1  0
 22 34  1  0
M  END
> <ID>
HT0866

> <Class>
0.0

> <Clusters>
238

> <Fold>
2

$$$$