
     RDKit          3D

 21 21  0  0  0  0  0  0  0  0999 V2000
    3.5193   -0.2190   -0.3539 C   0  0  0  0  0  0  0  0  0  0  0  0
    2.2098   -0.9663   -0.6053 C   0  0  0  0  0  0  0  0  0  0  0  0
    0.9833   -0.1460   -0.2939 C   0  0  0  0  0  0  0  0  0  0  0  0
   -0.2882   -0.7074   -0.4792 C   0  0  0  0  0  0  0  0  0  0  0  0
   -1.4392    0.0467   -0.1873 C   0  0  0  0  0  0  0  0  0  0  0  0
   -1.2818    1.3602    0.2841 C   0  0  0  0  0  0  0  0  0  0  0  0
   -0.0005    1.8861    0.4551 C   0  0  0  0  0  0  0  0  0  0  0  0
    1.0911    1.1316    0.1667 N   0  0  0  0  0  0  0  0  0  0  0  0
   -2.7965   -0.5258   -0.3741 C   0  0  0  0  0  0  0  0  0  0  0  0
   -3.0879   -1.6123   -1.5697 S   0  0  0  0  0  0  0  0  0  0  0  0
   -3.8807   -0.1235    0.4685 N   0  0  0  0  0  0  0  0  0  0  0  0
    3.5980    0.0737    0.7149 H   0  0  0  0  0  0  0  0  0  0  0  0
    3.5750    0.6884   -0.9925 H   0  0  0  0  0  0  0  0  0  0  0  0
    4.3767   -0.8791   -0.6031 H   0  0  0  0  0  0  0  0  0  0  0  0
    2.1984   -1.8842    0.0213 H   0  0  0  0  0  0  0  0  0  0  0  0
    2.1759   -1.2748   -1.6725 H   0  0  0  0  0  0  0  0  0  0  0  0
   -0.3723   -1.7278   -0.8328 H   0  0  0  0  0  0  0  0  0  0  0  0
   -2.1387    1.9855    0.4983 H   0  0  0  0  0  0  0  0  0  0  0  0
    0.1265    2.8988    0.8137 H   0  0  0  0  0  0  0  0  0  0  0  0
   -3.7216    0.4772    1.3070 H   0  0  0  0  0  0  0  0  0  0  0  0
   -4.8465   -0.4819    0.2970 H   0  0  0  0  0  0  0  0  0  0  0  0
  1  2  1  0
  2  3  1  0
  3  4  2  0
  4  5  1  0
  5  6  2  0
  6  7  1  0
  7  8  2  0
  8  3  1  0
  5  9  1  0
  9 10  2  0
  9 11  1  0
  1 12  1  0
  1 13  1  0
  1 14  1  0
  2 15  1  0
  2 16  1  0
  4 17  1  0
  6 18  1  0
  7 19  1  0
 11 20  1  0
 11 21  1  0
M  END
> <ID>
HT0809

> <Class>
0.0

> <Clusters>
209

> <Fold>
2

$$$$