
     RDKit          3D

 25 25  0  0  0  0  0  0  0  0999 V2000
    2.8056   -2.0835    0.5123 N   0  0  0  0  0  0  0  0  0  0  0  0
    2.1426   -0.8276    0.6244 C   0  0  0  0  0  0  0  0  0  0  0  0
    2.4886   -0.0203    1.5284 O   0  0  0  0  0  0  0  0  0  0  0  0
    1.1195   -0.5079   -0.2808 O   0  0  0  0  0  0  0  0  0  0  0  0
    0.3228    0.6871   -0.2554 C   0  0  0  0  0  0  0  0  0  0  0  0
   -0.5174    0.7525    1.0407 C   0  0  0  0  0  0  0  0  0  0  0  0
   -1.4206   -0.4876    1.2051 C   0  0  0  0  0  0  0  0  0  0  0  0
   -1.8764   -1.0964   -0.1360 C   0  0  0  0  0  0  0  0  0  0  0  0
   -1.9720   -0.0366   -1.2376 C   0  0  0  0  0  0  0  0  0  0  0  0
   -0.6210    0.6695   -1.4904 C   0  0  0  0  0  0  0  0  0  0  0  0
    1.2035    1.8703   -0.3444 C   0  0  0  0  0  0  0  0  0  0  0  0
    1.9223    2.8357   -0.4170 C   0  0  0  0  0  0  0  0  0  0  0  0
    2.5268   -2.7587   -0.2334 H   0  0  0  0  0  0  0  0  0  0  0  0
    3.5717   -2.3397    1.1740 H   0  0  0  0  0  0  0  0  0  0  0  0
   -1.1597    1.6616    1.0101 H   0  0  0  0  0  0  0  0  0  0  0  0
    0.1317    0.8518    1.9367 H   0  0  0  0  0  0  0  0  0  0  0  0
   -2.3134   -0.2002    1.8023 H   0  0  0  0  0  0  0  0  0  0  0  0
   -0.8754   -1.2665    1.7817 H   0  0  0  0  0  0  0  0  0  0  0  0
   -1.1587   -1.8844   -0.4535 H   0  0  0  0  0  0  0  0  0  0  0  0
   -2.8663   -1.5841   -0.0035 H   0  0  0  0  0  0  0  0  0  0  0  0
   -2.3253   -0.5108   -2.1788 H   0  0  0  0  0  0  0  0  0  0  0  0
   -2.7332    0.7180   -0.9391 H   0  0  0  0  0  0  0  0  0  0  0  0
   -0.1014    0.1686   -2.3372 H   0  0  0  0  0  0  0  0  0  0  0  0
   -0.8472    1.7065   -1.8283 H   0  0  0  0  0  0  0  0  0  0  0  0
    2.5533    3.6828   -0.4804 H   0  0  0  0  0  0  0  0  0  0  0  0
  1  2  1  0
  2  3  2  0
  2  4  1  0
  4  5  1  0
  5  6  1  0
  6  7  1  0
  7  8  1  0
  8  9  1  0
  9 10  1  0
 10  5  1  0
  5 11  1  0
 11 12  3  0
  1 13  1  0
  1 14  1  0
  6 15  1  0
  6 16  1  0
  7 17  1  0
  7 18  1  0
  8 19  1  0
  8 20  1  0
  9 21  1  0
  9 22  1  0
 10 23  1  0
 10 24  1  0
 12 25  1  0
M  END
> <ID>
HT0807

> <Class>
0.0

> <Clusters>
113

> <Fold>
2

$$$$