
     RDKit          3D

 73 75  0  0  0  0  0  0  0  0999 V2000
   -7.1963    1.7609   -0.2421 C   0  0  0  0  0  0  0  0  0  0  0  0
   -6.4171    1.2965   -1.4845 C   0  0  0  0  0  0  0  0  0  0  0  0
   -6.8920    2.0716   -2.7228 C   0  0  0  0  0  0  0  0  0  0  0  0
   -4.8697    1.3637   -1.3187 C   0  0  1  0  0  0  0  0  0  0  0  0
   -4.3449    2.7474   -0.9046 C   0  0  0  0  0  0  0  0  0  0  0  0
   -4.3930    0.3325   -0.3200 C   0  0  0  0  0  0  0  0  0  0  0  0
   -3.6294   -0.7107   -0.6833 C   0  0  0  0  0  0  0  0  0  0  0  0
   -3.1535   -1.7366    0.3252 C   0  0  1  0  0  0  0  0  0  0  0  0
   -3.9206   -3.0429    0.0900 C   0  0  0  0  0  0  0  0  0  0  0  0
   -1.6119   -1.9933    0.3233 C   0  0  1  0  0  0  0  0  0  0  0  0
   -0.9787   -2.4074   -1.0294 C   0  0  0  0  0  0  0  0  0  0  0  0
    0.4697   -1.8855   -1.0079 C   0  0  0  0  0  0  0  0  0  0  0  0
    0.6802   -1.4109    0.4309 C   0  0  1  0  0  0  0  0  0  0  0  0
    1.7877   -0.4463    0.7882 C   0  0  0  0  0  0  0  0  0  0  0  0
    2.7755   -0.1510   -0.0783 C   0  0  0  0  0  0  0  0  0  0  0  0
    3.8946    0.7612    0.2334 C   0  0  0  0  0  0  0  0  0  0  0  0
    5.1764    0.4889   -0.0894 C   0  0  0  0  0  0  0  0  0  0  0  0
    5.5486   -0.8863   -0.6174 C   0  0  0  0  0  0  0  0  0  0  0  0
    7.0640   -1.1233   -0.7298 C   0  0  1  0  0  0  0  0  0  0  0  0
    7.5443   -0.5690   -1.9300 O   0  0  0  0  0  0  0  0  0  0  0  0
    7.7914   -0.5263    0.4851 C   0  0  0  0  0  0  0  0  0  0  0  0
    7.6624    1.0005    0.5131 C   0  0  0  0  0  0  0  0  0  0  0  0
    6.2599    1.4759    0.2113 C   0  0  0  0  0  0  0  0  0  0  0  0
    6.0434    2.7962    0.1466 C   0  0  0  0  0  0  0  0  0  0  0  0
    1.8357   -0.0670    2.2641 C   0  0  0  0  0  0  0  0  0  0  0  0
    0.4400    0.2406    2.8647 C   0  0  0  0  0  0  0  0  0  0  0  0
   -0.6761   -0.7264    2.4008 C   0  0  0  0  0  0  0  0  0  0  0  0
   -0.6882   -0.8666    0.8588 C   0  0  2  0  0  0  0  0  0  0  0  0
   -1.0006    0.5101    0.1937 C   0  0  0  0  0  0  0  0  0  0  0  0
   -8.2834    1.5897   -0.3938 H   0  0  0  0  0  0  0  0  0  0  0  0
   -7.0407    2.8439   -0.0522 H   0  0  0  0  0  0  0  0  0  0  0  0
   -6.8895    1.1863    0.6554 H   0  0  0  0  0  0  0  0  0  0  0  0
   -6.6857    0.2297   -1.6602 H   0  0  0  0  0  0  0  0  0  0  0  0
   -7.9735    1.8863   -2.8938 H   0  0  0  0  0  0  0  0  0  0  0  0
   -6.7423    3.1635   -2.5961 H   0  0  0  0  0  0  0  0  0  0  0  0
   -6.3408    1.7354   -3.6251 H   0  0  0  0  0  0  0  0  0  0  0  0
   -4.4183    1.1365   -2.3111 H   0  0  0  0  0  0  0  0  0  0  0  0
   -3.2332    2.7366   -0.8964 H   0  0  0  0  0  0  0  0  0  0  0  0
   -4.6663    3.5278   -1.6242 H   0  0  0  0  0  0  0  0  0  0  0  0
   -4.6921    3.0213    0.1147 H   0  0  0  0  0  0  0  0  0  0  0  0
   -4.6545    0.4654    0.7261 H   0  0  0  0  0  0  0  0  0  0  0  0
   -3.4064   -0.8574   -1.7341 H   0  0  0  0  0  0  0  0  0  0  0  0
   -3.4190   -1.3959    1.3505 H   0  0  0  0  0  0  0  0  0  0  0  0
   -3.6847   -3.4645   -0.9103 H   0  0  0  0  0  0  0  0  0  0  0  0
   -5.0154   -2.8602    0.1503 H   0  0  0  0  0  0  0  0  0  0  0  0
   -3.6585   -3.7921    0.8669 H   0  0  0  0  0  0  0  0  0  0  0  0
   -1.4589   -2.8632    1.0059 H   0  0  0  0  0  0  0  0  0  0  0  0
   -1.5073   -1.9743   -1.9003 H   0  0  0  0  0  0  0  0  0  0  0  0
   -0.9890   -3.5153   -1.1344 H   0  0  0  0  0  0  0  0  0  0  0  0
    0.5727   -1.0390   -1.7227 H   0  0  0  0  0  0  0  0  0  0  0  0
    1.1923   -2.6865   -1.2778 H   0  0  0  0  0  0  0  0  0  0  0  0
    0.9043   -2.3343    1.0201 H   0  0  0  0  0  0  0  0  0  0  0  0
    2.7796   -0.6054   -1.0600 H   0  0  0  0  0  0  0  0  0  0  0  0
    3.6537    1.6827    0.7465 H   0  0  0  0  0  0  0  0  0  0  0  0
    5.1346   -1.6528    0.0738 H   0  0  0  0  0  0  0  0  0  0  0  0
    5.0818   -1.0433   -1.6121 H   0  0  0  0  0  0  0  0  0  0  0  0
    7.2389   -2.2248   -0.7469 H   0  0  0  0  0  0  0  0  0  0  0  0
    8.4910   -0.8595   -2.0193 H   0  0  0  0  0  0  0  0  0  0  0  0
    8.8683   -0.8017    0.4519 H   0  0  0  0  0  0  0  0  0  0  0  0
    7.3638   -0.9526    1.4217 H   0  0  0  0  0  0  0  0  0  0  0  0
    8.3624    1.4309   -0.2351 H   0  0  0  0  0  0  0  0  0  0  0  0
    7.9679    1.3677    1.5162 H   0  0  0  0  0  0  0  0  0  0  0  0
    6.8435    3.4985    0.3448 H   0  0  0  0  0  0  0  0  0  0  0  0
    5.0862    3.2045   -0.1441 H   0  0  0  0  0  0  0  0  0  0  0  0
    2.4835    0.8125    2.4524 H   0  0  0  0  0  0  0  0  0  0  0  0
    2.2792   -0.9219    2.8191 H   0  0  0  0  0  0  0  0  0  0  0  0
    0.1554    1.2836    2.6109 H   0  0  0  0  0  0  0  0  0  0  0  0
    0.5120    0.1958    3.9726 H   0  0  0  0  0  0  0  0  0  0  0  0
   -1.6582   -0.3482    2.7565 H   0  0  0  0  0  0  0  0  0  0  0  0
   -0.5114   -1.7184    2.8778 H   0  0  0  0  0  0  0  0  0  0  0  0
   -1.8978    0.9680    0.6604 H   0  0  0  0  0  0  0  0  0  0  0  0
   -1.1754    0.4143   -0.8982 H   0  0  0  0  0  0  0  0  0  0  0  0
   -0.1706    1.2337    0.3183 H   0  0  0  0  0  0  0  0  0  0  0  0
  1  2  1  0
  2  3  1  0
  2  4  1  0
  4  5  1  0
  4  6  1  0
  6  7  2  3
  7  8  1  0
  8  9  1  0
 10  8  1  0
 10 11  1  0
 11 12  1  0
 13 12  1  0
 13 14  1  0
 14 15  2  3
 15 16  1  0
 16 17  2  3
 17 18  1  0
 18 19  1  0
 19 20  1  0
 19 21  1  0
 21 22  1  0
 22 23  1  0
 23 17  1  0
 23 24  2  3
 14 25  1  0
 25 26  1  0
 26 27  1  0
 27 28  1  0
 28 10  1  0
 28 13  1  0
 28 29  1  6
  1 30  1  0
  1 31  1  0
  1 32  1  0
  2 33  1  0
  3 34  1  0
  3 35  1  0
  3 36  1  0
  4 37  1  6
  5 38  1  0
  5 39  1  0
  5 40  1  0
  6 41  1  0
  7 42  1  0
  8 43  1  1
  9 44  1  0
  9 45  1  0
  9 46  1  0
 10 47  1  1
 11 48  1  0
 11 49  1  0
 12 50  1  0
 12 51  1  0
 13 52  1  1
 15 53  1  0
 16 54  1  0
 18 55  1  0
 18 56  1  0
 19 57  1  6
 20 58  1  0
 21 59  1  0
 21 60  1  0
 22 61  1  0
 22 62  1  0
 24 63  1  0
 24 64  1  0
 25 65  1  0
 25 66  1  0
 26 67  1  0
 26 68  1  0
 27 69  1  0
 27 70  1  0
 29 71  1  0
 29 72  1  0
 29 73  1  0
M  END
> <ID>
HT0775

> <Class>
0.0

> <Clusters>
85

> <Fold>
2

$$$$