
     RDKit          3D

 27 28  0  0  0  0  0  0  0  0999 V2000
   -4.1542    0.0536   -0.2082 C   0  0  0  0  0  0  0  0  0  0  0  0
   -3.0113   -0.9256   -0.4465 C   0  0  0  0  0  0  0  0  0  0  0  0
   -1.8202   -0.5080    0.2894 N   0  0  0  0  0  0  0  0  0  0  0  0
   -1.1790   -1.1824    1.3578 C   0  0  0  0  0  0  0  0  0  0  0  0
   -1.6280   -2.2279    1.8972 O   0  0  0  0  0  0  0  0  0  0  0  0
    0.0314   -0.5544    1.7583 N   0  0  0  0  0  0  0  0  0  0  0  0
    0.2392    0.6174    0.9073 C   0  0  0  0  0  0  0  0  0  0  0  0
   -0.9588    0.5873    0.0000 C   0  0  0  0  0  0  0  0  0  0  0  0
   -1.1840    1.4254   -0.9134 O   0  0  0  0  0  0  0  0  0  0  0  0
    1.5290    0.4935    0.1307 C   0  0  0  0  0  0  0  0  0  0  0  0
    1.7863   -0.6387   -0.6659 C   0  0  0  0  0  0  0  0  0  0  0  0
    2.9827   -0.7411   -1.3819 C   0  0  0  0  0  0  0  0  0  0  0  0
    3.9313    0.2820   -1.3108 C   0  0  0  0  0  0  0  0  0  0  0  0
    3.6851    1.4099   -0.5238 C   0  0  0  0  0  0  0  0  0  0  0  0
    2.4899    1.5173    0.1944 C   0  0  0  0  0  0  0  0  0  0  0  0
   -4.3821    0.1149    0.8772 H   0  0  0  0  0  0  0  0  0  0  0  0
   -3.8837    1.0632   -0.5823 H   0  0  0  0  0  0  0  0  0  0  0  0
   -5.0611   -0.2939   -0.7462 H   0  0  0  0  0  0  0  0  0  0  0  0
   -3.3294   -1.9369   -0.1135 H   0  0  0  0  0  0  0  0  0  0  0  0
   -2.7782   -0.9764   -1.5316 H   0  0  0  0  0  0  0  0  0  0  0  0
    0.6542   -0.8672    2.5359 H   0  0  0  0  0  0  0  0  0  0  0  0
    0.2134    1.5393    1.5282 H   0  0  0  0  0  0  0  0  0  0  0  0
    1.0604   -1.4395   -0.7327 H   0  0  0  0  0  0  0  0  0  0  0  0
    3.1742   -1.6140   -1.9925 H   0  0  0  0  0  0  0  0  0  0  0  0
    4.8570    0.2012   -1.8659 H   0  0  0  0  0  0  0  0  0  0  0  0
    4.4207    2.2020   -0.4702 H   0  0  0  0  0  0  0  0  0  0  0  0
    2.3153    2.3990    0.7983 H   0  0  0  0  0  0  0  0  0  0  0  0
  1  2  1  0
  2  3  1  0
  3  4  1  0
  4  5  2  0
  4  6  1  0
  6  7  1  0
  7  8  1  0
  8  3  1  0
  8  9  2  0
  7 10  1  0
 10 11  2  0
 11 12  1  0
 12 13  2  0
 13 14  1  0
 14 15  2  0
 15 10  1  0
  1 16  1  0
  1 17  1  0
  1 18  1  0
  2 19  1  0
  2 20  1  0
  6 21  1  0
  7 22  1  0
 11 23  1  0
 12 24  1  0
 13 25  1  0
 14 26  1  0
 15 27  1  0
M  END
> <ID>
HT0812

> <Class>
0.0

> <Clusters>
157

> <Fold>
2

$$$$