
     RDKit          3D

 57 58  0  0  0  0  0  0  0  0999 V2000
   -9.1868    0.9964    0.0472 C   0  0  0  0  0  0  0  0  0  0  0  0
   -8.0103    0.6305    0.9469 C   0  0  0  0  0  0  0  0  0  0  0  0
   -6.6990    0.5865    0.1544 C   0  0  0  0  0  0  0  0  0  0  0  0
   -5.5203    0.2149    1.0613 C   0  0  0  0  0  0  0  0  0  0  0  0
   -4.2062    0.1776    0.2692 C   0  0  0  0  0  0  0  0  0  0  0  0
   -3.0155   -0.2282    1.1592 C   0  0  2  0  0  0  0  0  0  0  0  0
   -2.8388    0.6884    2.2111 O   0  0  0  0  0  0  0  0  0  0  0  0
   -1.7468   -0.3464    0.3479 C   0  0  0  0  0  0  0  0  0  0  0  0
   -0.6024   -0.7657    0.9128 C   0  0  0  0  0  0  0  0  0  0  0  0
    0.6964   -0.9018    0.1474 C   0  0  1  0  0  0  0  0  0  0  0  0
    0.6167   -1.8929   -1.0158 C   0  0  2  0  0  0  0  0  0  0  0  0
    0.7757   -3.2153   -0.5748 O   0  0  0  0  0  0  0  0  0  0  0  0
    1.7661   -1.4955   -1.9314 C   0  0  0  0  0  0  0  0  0  0  0  0
    1.9270    0.0159   -1.7636 C   0  0  2  0  0  0  0  0  0  0  0  0
    3.2830    0.3664   -1.5515 O   0  0  0  0  0  0  0  0  0  0  0  0
    3.4643    1.0061   -0.3418 C   0  0  0  0  0  0  0  0  0  0  0  0
    4.6527    1.4221    0.1014 C   0  0  0  0  0  0  0  0  0  0  0  0
    5.9213    1.2051   -0.6760 C   0  0  0  0  0  0  0  0  0  0  0  0
    6.3682   -0.2682   -0.6704 C   0  0  0  0  0  0  0  0  0  0  0  0
    6.6621   -0.8152    0.7366 C   0  0  0  0  0  0  0  0  0  0  0  0
    7.8095   -0.1009    1.3903 C   0  0  0  0  0  0  0  0  0  0  0  0
    7.6064    0.6131    2.4073 O   0  0  0  0  0  0  0  0  0  0  0  0
    9.1021   -0.2254    0.8901 O   0  0  0  0  0  0  0  0  0  0  0  0
    2.1910    1.1842    0.3948 C   0  0  0  0  0  0  0  0  0  0  0  0
    1.1780    0.4195   -0.4804 C   0  0  2  0  0  0  0  0  0  0  0  0
   -9.0295    1.9991   -0.4053 H   0  0  0  0  0  0  0  0  0  0  0  0
   -9.3040    0.2429   -0.7604 H   0  0  0  0  0  0  0  0  0  0  0  0
  -10.1203    1.0210    0.6480 H   0  0  0  0  0  0  0  0  0  0  0  0
   -8.2048   -0.3630    1.4068 H   0  0  0  0  0  0  0  0  0  0  0  0
   -7.9315    1.3849    1.7599 H   0  0  0  0  0  0  0  0  0  0  0  0
   -6.7874   -0.1642   -0.6616 H   0  0  0  0  0  0  0  0  0  0  0  0
   -6.5116    1.5836   -0.3018 H   0  0  0  0  0  0  0  0  0  0  0  0
   -5.7059   -0.7840    1.5152 H   0  0  0  0  0  0  0  0  0  0  0  0
   -5.4389    0.9644    1.8784 H   0  0  0  0  0  0  0  0  0  0  0  0
   -4.3054   -0.5590   -0.5590 H   0  0  0  0  0  0  0  0  0  0  0  0
   -4.0141    1.1779   -0.1788 H   0  0  0  0  0  0  0  0  0  0  0  0
   -3.2334   -1.2262    1.5985 H   0  0  0  0  0  0  0  0  0  0  0  0
   -2.6316    1.5717    1.8065 H   0  0  0  0  0  0  0  0  0  0  0  0
   -1.7665   -0.0941   -0.7095 H   0  0  0  0  0  0  0  0  0  0  0  0
   -0.5949   -1.0179    1.9699 H   0  0  0  0  0  0  0  0  0  0  0  0
    1.4712   -1.2822    0.8527 H   0  0  0  0  0  0  0  0  0  0  0  0
   -0.3383   -1.7841   -1.5805 H   0  0  0  0  0  0  0  0  0  0  0  0
   -0.0764   -3.4693   -0.1344 H   0  0  0  0  0  0  0  0  0  0  0  0
    2.6990   -2.0167   -1.6177 H   0  0  0  0  0  0  0  0  0  0  0  0
    1.5439   -1.7604   -2.9879 H   0  0  0  0  0  0  0  0  0  0  0  0
    1.5274    0.5602   -2.6477 H   0  0  0  0  0  0  0  0  0  0  0  0
    4.7117    1.9448    1.0488 H   0  0  0  0  0  0  0  0  0  0  0  0
    6.7247    1.8380   -0.2424 H   0  0  0  0  0  0  0  0  0  0  0  0
    5.7739    1.5413   -1.7253 H   0  0  0  0  0  0  0  0  0  0  0  0
    5.5800   -0.8966   -1.1383 H   0  0  0  0  0  0  0  0  0  0  0  0
    7.2765   -0.3693   -1.3031 H   0  0  0  0  0  0  0  0  0  0  0  0
    6.9165   -1.8941    0.6593 H   0  0  0  0  0  0  0  0  0  0  0  0
    5.7512   -0.7368    1.3695 H   0  0  0  0  0  0  0  0  0  0  0  0
    9.3005   -0.8137    0.0898 H   0  0  0  0  0  0  0  0  0  0  0  0
    1.9312    2.2642    0.4332 H   0  0  0  0  0  0  0  0  0  0  0  0
    2.2672    0.7827    1.4289 H   0  0  0  0  0  0  0  0  0  0  0  0
    0.3254    1.0835   -0.7459 H   0  0  0  0  0  0  0  0  0  0  0  0
  1  2  1  0
  2  3  1  0
  3  4  1  0
  4  5  1  0
  5  6  1  0
  6  7  1  0
  6  8  1  0
  8  9  2  0
 10  9  1  0
 10 11  1  0
 11 12  1  0
 11 13  1  0
 14 13  1  0
 14 15  1  0
 15 16  1  0
 16 17  2  0
 17 18  1  0
 18 19  1  0
 19 20  1  0
 20 21  1  0
 21 22  2  0
 21 23  1  0
 16 24  1  0
 25 24  1  0
 25 10  1  0
 25 14  1  0
  1 26  1  0
  1 27  1  0
  1 28  1  0
  2 29  1  0
  2 30  1  0
  3 31  1  0
  3 32  1  0
  4 33  1  0
  4 34  1  0
  5 35  1  0
  5 36  1  0
  6 37  1  1
  7 38  1  0
  8 39  1  0
  9 40  1  0
 10 41  1  1
 11 42  1  6
 12 43  1  0
 13 44  1  0
 13 45  1  0
 14 46  1  6
 17 47  1  0
 18 48  1  0
 18 49  1  0
 19 50  1  0
 19 51  1  0
 20 52  1  0
 20 53  1  0
 23 54  1  0
 24 55  1  0
 24 56  1  0
 25 57  1  6
M  END
> <ID>
HT0772

> <Class>
0.0

> <Clusters>
81

> <Fold>
2

$$$$