
     RDKit          3D

 59 59  0  0  0  0  0  0  0  0999 V2000
   -6.4973    3.3534   -0.8278 C   0  0  0  0  0  0  0  0  0  0  0  0
   -5.6911    2.0878   -1.1051 C   0  0  0  0  0  0  0  0  0  0  0  0
   -6.0103    0.9924   -0.0771 C   0  0  0  0  0  0  0  0  0  0  0  0
   -5.3536   -0.3576   -0.4149 C   0  0  0  0  0  0  0  0  0  0  0  0
   -3.8121   -0.3590   -0.4268 C   0  0  0  0  0  0  0  0  0  0  0  0
   -3.1798   -0.1277    0.9668 C   0  0  2  0  0  0  0  0  0  0  0  0
   -3.2766    1.2219    1.3486 O   0  0  0  0  0  0  0  0  0  0  0  0
   -1.7310   -0.5592    0.9855 C   0  0  0  0  0  0  0  0  0  0  0  0
   -1.3814   -1.8541    0.9275 C   0  0  0  0  0  0  0  0  0  0  0  0
    0.0746   -2.2713    0.9353 C   0  0  1  0  0  0  0  0  0  0  0  0
    0.2123   -3.8007    1.1418 C   0  0  2  0  0  0  0  0  0  0  0  0
    1.3867   -4.0822    1.8600 O   0  0  0  0  0  0  0  0  0  0  0  0
    0.3195   -4.4152   -0.2533 C   0  0  0  0  0  0  0  0  0  0  0  0
    0.7364   -3.2833   -1.1142 C   0  0  0  0  0  0  0  0  0  0  0  0
    1.0163   -3.4217   -2.2950 O   0  0  0  0  0  0  0  0  0  0  0  0
    0.7353   -1.9597   -0.4300 C   0  0  2  0  0  0  0  0  0  0  0  0
    2.1758   -1.4227   -0.2907 C   0  0  0  0  0  0  0  0  0  0  0  0
    2.1952    0.0586    0.1273 C   0  0  0  0  0  0  0  0  0  0  0  0
    3.6168    0.5845    0.3841 C   0  0  0  0  0  0  0  0  0  0  0  0
    4.4163    0.7875   -0.9149 C   0  0  0  0  0  0  0  0  0  0  0  0
    5.8285    1.3389   -0.6584 C   0  0  0  0  0  0  0  0  0  0  0  0
    5.8248    2.8307   -0.2940 C   0  0  0  0  0  0  0  0  0  0  0  0
    7.2271    3.3503   -0.1630 C   0  0  0  0  0  0  0  0  0  0  0  0
    7.9791    3.3871   -1.1727 O   0  0  0  0  0  0  0  0  0  0  0  0
    7.7084    3.8051    1.0617 O   0  0  0  0  0  0  0  0  0  0  0  0
   -7.5857    3.1412   -0.8921 H   0  0  0  0  0  0  0  0  0  0  0  0
   -6.2590    3.7477    0.1828 H   0  0  0  0  0  0  0  0  0  0  0  0
   -6.2429    4.1285   -1.5807 H   0  0  0  0  0  0  0  0  0  0  0  0
   -5.9312    1.7261   -2.1286 H   0  0  0  0  0  0  0  0  0  0  0  0
   -4.6127    2.3479   -1.0647 H   0  0  0  0  0  0  0  0  0  0  0  0
   -7.1110    0.8318   -0.0592 H   0  0  0  0  0  0  0  0  0  0  0  0
   -5.7195    1.3226    0.9415 H   0  0  0  0  0  0  0  0  0  0  0  0
   -5.7089   -1.1174    0.3150 H   0  0  0  0  0  0  0  0  0  0  0  0
   -5.7124   -0.6848   -1.4153 H   0  0  0  0  0  0  0  0  0  0  0  0
   -3.5021   -1.3584   -0.8029 H   0  0  0  0  0  0  0  0  0  0  0  0
   -3.4217    0.3774   -1.1603 H   0  0  0  0  0  0  0  0  0  0  0  0
   -3.7258   -0.7338    1.7227 H   0  0  0  0  0  0  0  0  0  0  0  0
   -2.7946    1.7653    0.6709 H   0  0  0  0  0  0  0  0  0  0  0  0
   -0.9561    0.1990    1.0623 H   0  0  0  0  0  0  0  0  0  0  0  0
   -2.1591   -2.6125    0.8778 H   0  0  0  0  0  0  0  0  0  0  0  0
    0.5755   -1.7406    1.7751 H   0  0  0  0  0  0  0  0  0  0  0  0
   -0.6618   -4.2384    1.6802 H   0  0  0  0  0  0  0  0  0  0  0  0
    1.1932   -3.8798    2.8126 H   0  0  0  0  0  0  0  0  0  0  0  0
    1.0698   -5.2349   -0.2868 H   0  0  0  0  0  0  0  0  0  0  0  0
   -0.6685   -4.7940   -0.5938 H   0  0  0  0  0  0  0  0  0  0  0  0
    0.1310   -1.2460   -1.0355 H   0  0  0  0  0  0  0  0  0  0  0  0
    2.6855   -1.5186   -1.2730 H   0  0  0  0  0  0  0  0  0  0  0  0
    2.7403   -2.0351    0.4467 H   0  0  0  0  0  0  0  0  0  0  0  0
    1.6997    0.6777   -0.6526 H   0  0  0  0  0  0  0  0  0  0  0  0
    1.6159    0.1848    1.0660 H   0  0  0  0  0  0  0  0  0  0  0  0
    3.5213    1.5571    0.9102 H   0  0  0  0  0  0  0  0  0  0  0  0
    4.1592   -0.1117    1.0607 H   0  0  0  0  0  0  0  0  0  0  0  0
    4.5297   -0.1901   -1.4288 H   0  0  0  0  0  0  0  0  0  0  0  0
    3.8647    1.4670   -1.6014 H   0  0  0  0  0  0  0  0  0  0  0  0
    6.3237    0.7531    0.1472 H   0  0  0  0  0  0  0  0  0  0  0  0
    6.4225    1.1991   -1.5884 H   0  0  0  0  0  0  0  0  0  0  0  0
    5.3001    3.4142   -1.0813 H   0  0  0  0  0  0  0  0  0  0  0  0
    5.2877    2.9841    0.6645 H   0  0  0  0  0  0  0  0  0  0  0  0
    7.1332    3.7878    1.8951 H   0  0  0  0  0  0  0  0  0  0  0  0
  1  2  1  0
  2  3  1  0
  3  4  1  0
  4  5  1  0
  5  6  1  0
  6  7  1  0
  6  8  1  0
  8  9  2  3
 10  9  1  0
 10 11  1  0
 11 12  1  0
 11 13  1  0
 13 14  1  0
 14 15  2  0
 14 16  1  0
 16 10  1  0
 16 17  1  0
 17 18  1  0
 18 19  1  0
 19 20  1  0
 20 21  1  0
 21 22  1  0
 22 23  1  0
 23 24  2  0
 23 25  1  0
  1 26  1  0
  1 27  1  0
  1 28  1  0
  2 29  1  0
  2 30  1  0
  3 31  1  0
  3 32  1  0
  4 33  1  0
  4 34  1  0
  5 35  1  0
  5 36  1  0
  6 37  1  1
  7 38  1  0
  8 39  1  0
  9 40  1  0
 10 41  1  1
 11 42  1  1
 12 43  1  0
 13 44  1  0
 13 45  1  0
 16 46  1  6
 17 47  1  0
 17 48  1  0
 18 49  1  0
 18 50  1  0
 19 51  1  0
 19 52  1  0
 20 53  1  0
 20 54  1  0
 21 55  1  0
 21 56  1  0
 22 57  1  0
 22 58  1  0
 25 59  1  0
M  END
> <ID>
HT0115

> <Class>
0.0

> <Clusters>
12

> <Fold>
2

$$$$