
     RDKit          3D

 33 35  0  0  0  0  0  0  0  0999 V2000
    3.1969    0.5798    1.6105 C   0  0  0  0  0  0  0  0  0  0  0  0
    2.3652    0.7567    0.4160 N   0  0  0  0  0  0  0  0  0  0  0  0
    2.1784    2.0817   -0.1154 C   0  0  0  0  0  0  0  0  0  0  0  0
    2.8827    3.0397    0.3059 O   0  0  0  0  0  0  0  0  0  0  0  0
    1.1299    2.3459   -1.1479 C   0  0  0  0  0  0  0  0  0  0  0  0
   -0.1659    1.9251   -0.6300 N   0  0  0  0  0  0  0  0  0  0  0  0
   -0.5034    0.6940   -0.3680 C   0  0  0  0  0  0  0  0  0  0  0  0
   -1.8632    0.4283    0.1712 C   0  0  0  0  0  0  0  0  0  0  0  0
   -2.0650   -0.6199    1.0899 C   0  0  0  0  0  0  0  0  0  0  0  0
   -3.3368   -0.8723    1.6112 C   0  0  0  0  0  0  0  0  0  0  0  0
   -4.4209   -0.0817    1.2268 C   0  0  0  0  0  0  0  0  0  0  0  0
   -4.2356    0.9640    0.3205 C   0  0  0  0  0  0  0  0  0  0  0  0
   -2.9659    1.2241   -0.2063 C   0  0  0  0  0  0  0  0  0  0  0  0
   -2.8245    2.2333   -1.1031 F   0  0  0  0  0  0  0  0  0  0  0  0
    0.4330   -0.4382   -0.6293 C   0  0  0  0  0  0  0  0  0  0  0  0
   -0.0639   -1.5890   -1.2695 C   0  0  0  0  0  0  0  0  0  0  0  0
    0.7697   -2.6787   -1.5291 C   0  0  0  0  0  0  0  0  0  0  0  0
    0.1290   -4.1029   -2.3280 Cl  0  0  0  0  0  0  0  0  0  0  0  0
    2.1127   -2.6324   -1.1577 C   0  0  0  0  0  0  0  0  0  0  0  0
    2.6246   -1.4995   -0.5251 C   0  0  0  0  0  0  0  0  0  0  0  0
    1.7998   -0.3939   -0.2489 C   0  0  0  0  0  0  0  0  0  0  0  0
    3.1839   -0.4743    1.9610 H   0  0  0  0  0  0  0  0  0  0  0  0
    4.2448    0.8709    1.3861 H   0  0  0  0  0  0  0  0  0  0  0  0
    2.8076    1.2147    2.4344 H   0  0  0  0  0  0  0  0  0  0  0  0
    1.3665    1.8032   -2.0886 H   0  0  0  0  0  0  0  0  0  0  0  0
    1.0868    3.4320   -1.3767 H   0  0  0  0  0  0  0  0  0  0  0  0
   -1.2362   -1.2365    1.4149 H   0  0  0  0  0  0  0  0  0  0  0  0
   -3.4809   -1.6799    2.3173 H   0  0  0  0  0  0  0  0  0  0  0  0
   -5.4051   -0.2790    1.6317 H   0  0  0  0  0  0  0  0  0  0  0  0
   -5.0796    1.5729    0.0227 H   0  0  0  0  0  0  0  0  0  0  0  0
   -1.1021   -1.6370   -1.5756 H   0  0  0  0  0  0  0  0  0  0  0  0
    2.7635   -3.4730   -1.3625 H   0  0  0  0  0  0  0  0  0  0  0  0
    3.6737   -1.4780   -0.2583 H   0  0  0  0  0  0  0  0  0  0  0  0
  1  2  1  0
  2  3  1  0
  3  4  2  0
  3  5  1  0
  5  6  1  0
  6  7  2  0
  7  8  1  0
  8  9  2  0
  9 10  1  0
 10 11  2  0
 11 12  1  0
 12 13  2  0
 13  8  1  0
 13 14  1  0
  7 15  1  0
 15 16  2  0
 16 17  1  0
 17 18  1  0
 17 19  2  0
 19 20  1  0
 20 21  2  0
 21  2  1  0
 21 15  1  0
  1 22  1  0
  1 23  1  0
  1 24  1  0
  5 25  1  0
  5 26  1  0
  9 27  1  0
 10 28  1  0
 11 29  1  0
 12 30  1  0
 16 31  1  0
 19 32  1  0
 20 33  1  0
M  END
> <ID>
HT0892

> <Class>
0.0

> <Clusters>
105

> <Fold>
2

$$$$