
     RDKit          3D

 39 41  0  0  0  0  0  0  0  0999 V2000
   -4.2311    3.0570   -0.2258 C   0  0  0  0  0  0  0  0  0  0  0  0
   -3.5289    1.7428   -0.0995 C   0  0  0  0  0  0  0  0  0  0  0  0
   -2.5660    1.5482    0.8976 C   0  0  0  0  0  0  0  0  0  0  0  0
   -1.9225    0.3140    0.9969 C   0  0  0  0  0  0  0  0  0  0  0  0
   -2.2289   -0.7149    0.0924 C   0  0  0  0  0  0  0  0  0  0  0  0
   -3.2154   -0.4831   -0.8772 C   0  0  0  0  0  0  0  0  0  0  0  0
   -3.8302    0.7272   -0.9537 N   0  0  0  0  0  0  0  0  0  0  0  0
   -1.5679   -2.0371    0.1785 C   0  0  0  0  0  0  0  0  0  0  0  0
   -2.3567   -3.1478    0.1712 N   0  0  0  0  0  0  0  0  0  0  0  0
   -1.8508   -4.4017    0.2962 C   0  0  0  0  0  0  0  0  0  0  0  0
   -0.4778   -4.5882    0.4466 C   0  0  0  0  0  0  0  0  0  0  0  0
    0.1836   -6.2039    0.6158 Cl  0  0  0  0  0  0  0  0  0  0  0  0
    0.3660   -3.4775    0.4443 C   0  0  0  0  0  0  0  0  0  0  0  0
   -0.1614   -2.1849    0.2946 C   0  0  0  0  0  0  0  0  0  0  0  0
    0.7723   -1.0368    0.2027 C   0  0  0  0  0  0  0  0  0  0  0  0
    1.7336   -0.8247    1.2044 C   0  0  0  0  0  0  0  0  0  0  0  0
    2.6105    0.2607    1.1229 C   0  0  0  0  0  0  0  0  0  0  0  0
    2.5393    1.1455    0.0389 C   0  0  0  0  0  0  0  0  0  0  0  0
    1.5965    0.9250   -0.9735 C   0  0  0  0  0  0  0  0  0  0  0  0
    0.7198   -0.1603   -0.8942 C   0  0  0  0  0  0  0  0  0  0  0  0
    3.6519    2.5050   -0.0693 S   0  0  0  0  0  0  0  0  0  0  0  0
    4.0287    2.9664    1.3107 O   0  0  0  0  0  0  0  0  0  0  0  0
    2.9942    3.6446   -0.7958 O   0  0  0  0  0  0  0  0  0  0  0  0
    5.1135    2.0028   -0.9485 C   0  0  0  0  0  0  0  0  0  0  0  0
   -4.9588    3.0320   -1.0645 H   0  0  0  0  0  0  0  0  0  0  0  0
   -3.4902    3.8607   -0.4203 H   0  0  0  0  0  0  0  0  0  0  0  0
   -4.7777    3.2821    0.7141 H   0  0  0  0  0  0  0  0  0  0  0  0
   -2.3215    2.3419    1.5927 H   0  0  0  0  0  0  0  0  0  0  0  0
   -1.1940    0.1599    1.7829 H   0  0  0  0  0  0  0  0  0  0  0  0
   -3.4860   -1.2592   -1.5817 H   0  0  0  0  0  0  0  0  0  0  0  0
   -2.5200   -5.2518    0.2860 H   0  0  0  0  0  0  0  0  0  0  0  0
    1.4361   -3.6241    0.5313 H   0  0  0  0  0  0  0  0  0  0  0  0
    1.7951   -1.4922    2.0551 H   0  0  0  0  0  0  0  0  0  0  0  0
    3.3442    0.4099    1.9048 H   0  0  0  0  0  0  0  0  0  0  0  0
    1.5426    1.5895   -1.8263 H   0  0  0  0  0  0  0  0  0  0  0  0
    0.0028   -0.3196   -1.6901 H   0  0  0  0  0  0  0  0  0  0  0  0
    4.8356    1.6690   -1.9695 H   0  0  0  0  0  0  0  0  0  0  0  0
    5.6020    1.1660   -0.4080 H   0  0  0  0  0  0  0  0  0  0  0  0
    5.8174    2.8575   -1.0187 H   0  0  0  0  0  0  0  0  0  0  0  0
  1  2  1  0
  2  3  2  0
  3  4  1  0
  4  5  2  0
  5  6  1  0
  6  7  2  0
  7  2  1  0
  5  8  1  0
  8  9  2  0
  9 10  1  0
 10 11  2  0
 11 12  1  0
 11 13  1  0
 13 14  2  0
 14  8  1  0
 14 15  1  0
 15 16  2  0
 16 17  1  0
 17 18  2  0
 18 19  1  0
 19 20  2  0
 20 15  1  0
 18 21  1  0
 21 22  2  0
 21 23  2  0
 21 24  1  0
  1 25  1  0
  1 26  1  0
  1 27  1  0
  3 28  1  0
  4 29  1  0
  6 30  1  0
 10 31  1  0
 13 32  1  0
 16 33  1  0
 17 34  1  0
 19 35  1  0
 20 36  1  0
 24 37  1  0
 24 38  1  0
 24 39  1  0
M  END
> <ID>
HT0833

> <Class>
0.0

> <Clusters>
238

> <Fold>
2

$$$$