
     RDKit          3D

 16 15  0  0  0  0  0  0  0  0999 V2000
   -2.1204    0.3957    0.4805 N   0  0  0  0  0  0  0  0  0  0  0  0
   -1.4766   -0.2731   -0.6469 C   0  0  0  0  0  0  0  0  0  0  0  0
    0.0266    0.0258   -0.6734 C   0  0  0  0  0  0  0  0  0  0  0  0
    0.7468   -0.5581    0.5489 C   0  0  0  0  0  0  0  0  0  0  0  0
    2.2224   -0.3003    0.4715 C   0  0  0  0  0  0  0  0  0  0  0  0
    3.0222   -1.2634    0.3358 O   0  0  0  0  0  0  0  0  0  0  0  0
    2.7229    0.9956    0.5614 O   0  0  0  0  0  0  0  0  0  0  0  0
   -3.1257    0.1080    0.4889 H   0  0  0  0  0  0  0  0  0  0  0  0
   -2.1078    1.4261    0.3002 H   0  0  0  0  0  0  0  0  0  0  0  0
   -1.6379   -1.3710   -0.5702 H   0  0  0  0  0  0  0  0  0  0  0  0
   -1.9351    0.0745   -1.5995 H   0  0  0  0  0  0  0  0  0  0  0  0
    0.1807    1.1260   -0.7198 H   0  0  0  0  0  0  0  0  0  0  0  0
    0.4573   -0.4194   -1.5972 H   0  0  0  0  0  0  0  0  0  0  0  0
    0.3540   -0.1005    1.4819 H   0  0  0  0  0  0  0  0  0  0  0  0
    0.5634   -1.6543    0.5959 H   0  0  0  0  0  0  0  0  0  0  0  0
    2.1070    1.7883    0.6963 H   0  0  0  0  0  0  0  0  0  0  0  0
  1  2  1  0
  2  3  1  0
  3  4  1  0
  4  5  1  0
  5  6  2  0
  5  7  1  0
  1  8  1  0
  1  9  1  0
  2 10  1  0
  2 11  1  0
  3 12  1  0
  3 13  1  0
  4 14  1  0
  4 15  1  0
  7 16  1  0
M  END
> <ID>
HT0962

> <Class>
0.0

> <Clusters>
252

> <Fold>
2

$$$$