
     RDKit          3D

 48 51  0  0  0  0  0  0  0  0999 V2000
    4.4769   -1.8658   -0.8225 O   0  0  0  0  0  0  0  0  0  0  0  0
    3.8604   -0.8109   -0.5103 C   0  0  0  0  0  0  0  0  0  0  0  0
    2.3493   -0.8459   -0.4218 C   0  0  0  0  0  0  0  0  0  0  0  0
    4.6301    0.4206   -0.2725 C   0  0  0  0  0  0  0  0  0  0  0  0
    5.8709    0.4328   -0.4936 O   0  0  0  0  0  0  0  0  0  0  0  0
    3.9815    1.6366    0.3060 C   0  0  0  0  0  0  0  0  0  0  0  0
    2.4885    1.6906   -0.0253 C   0  0  0  0  0  0  0  0  0  0  0  0
    1.7138    0.3830    0.3304 C   0  0  0  0  0  0  0  0  0  0  0  0
    0.1937    0.5933   -0.1043 C   0  0  0  0  0  0  0  0  0  0  0  0
    1.8372    0.1033    1.8564 C   0  0  0  0  0  0  0  0  0  0  0  0
   -0.6482    1.3066    0.9730 C   0  0  0  0  0  0  0  0  0  0  0  0
   -0.4920   -0.7303   -0.5264 C   0  0  0  0  0  0  0  0  0  0  0  0
   -2.0204    1.6628    0.4278 C   0  0  0  0  0  0  0  0  0  0  0  0
    0.2557   -1.3877   -1.7266 C   0  0  0  0  0  0  0  0  0  0  0  0
   -2.0229   -0.5924   -0.8714 C   0  0  0  0  0  0  0  0  0  0  0  0
   -2.8298    0.4210   -0.0073 C   0  0  0  0  0  0  0  0  0  0  0  0
    1.7441   -1.0194   -1.8192 C   0  0  0  0  0  0  0  0  0  0  0  0
   -2.7181   -1.9461   -0.5952 C   0  0  0  0  0  0  0  0  0  0  0  0
   -4.0861    0.9069   -0.7665 C   0  0  0  0  0  0  0  0  0  0  0  0
   -3.2804   -0.4309    1.1385 C   0  0  0  0  0  0  0  0  0  0  0  0
   -3.1881   -1.8873    0.8589 C   0  0  0  0  0  0  0  0  0  0  0  0
   -3.7356    0.0166    2.1803 O   0  0  0  0  0  0  0  0  0  0  0  0
    2.0998   -1.7754    0.1416 H   0  0  0  0  0  0  0  0  0  0  0  0
    4.1338    1.6454    1.4058 H   0  0  0  0  0  0  0  0  0  0  0  0
    4.4714    2.5461   -0.1049 H   0  0  0  0  0  0  0  0  0  0  0  0
    2.0474    2.5566    0.5131 H   0  0  0  0  0  0  0  0  0  0  0  0
    2.3891    1.9036   -1.1125 H   0  0  0  0  0  0  0  0  0  0  0  0
    0.1754    1.2428   -1.0102 H   0  0  0  0  0  0  0  0  0  0  0  0
    2.8651   -0.2192    2.1259 H   0  0  0  0  0  0  0  0  0  0  0  0
    1.6066    1.0087    2.4567 H   0  0  0  0  0  0  0  0  0  0  0  0
    1.1504   -0.7145    2.1615 H   0  0  0  0  0  0  0  0  0  0  0  0
   -0.1484    2.2474    1.2865 H   0  0  0  0  0  0  0  0  0  0  0  0
   -0.7770    0.6655    1.8715 H   0  0  0  0  0  0  0  0  0  0  0  0
   -0.3881   -1.4126    0.3480 H   0  0  0  0  0  0  0  0  0  0  0  0
   -2.5814    2.2284    1.2043 H   0  0  0  0  0  0  0  0  0  0  0  0
   -1.8873    2.3497   -0.4381 H   0  0  0  0  0  0  0  0  0  0  0  0
    0.1679   -2.4925   -1.6362 H   0  0  0  0  0  0  0  0  0  0  0  0
   -0.2084   -1.1081   -2.6968 H   0  0  0  0  0  0  0  0  0  0  0  0
   -2.1363   -0.3192   -1.9443 H   0  0  0  0  0  0  0  0  0  0  0  0
    2.2715   -1.8250   -2.3766 H   0  0  0  0  0  0  0  0  0  0  0  0
    1.8651   -0.0804   -2.4022 H   0  0  0  0  0  0  0  0  0  0  0  0
   -2.0586   -2.8237   -0.7667 H   0  0  0  0  0  0  0  0  0  0  0  0
   -3.5994   -2.0531   -1.2653 H   0  0  0  0  0  0  0  0  0  0  0  0
   -4.6917    1.5829   -0.1244 H   0  0  0  0  0  0  0  0  0  0  0  0
   -4.7325    0.0564   -1.0719 H   0  0  0  0  0  0  0  0  0  0  0  0
   -3.7966    1.4646   -1.6831 H   0  0  0  0  0  0  0  0  0  0  0  0
   -2.4408   -2.3529    1.5366 H   0  0  0  0  0  0  0  0  0  0  0  0
   -4.1775   -2.3787    0.9777 H   0  0  0  0  0  0  0  0  0  0  0  0
  1  2  2  0
  2  3  1  0
  2  4  1  0
  4  5  2  0
  4  6  1  0
  6  7  1  0
  7  8  1  0
  8  9  1  0
  8  3  1  0
  8 10  1  0
 11  9  1  0
  9 12  1  0
 13 11  1  0
 12 14  1  0
 12 15  1  0
 16 13  1  0
 14 17  1  0
 15 16  1  0
 15 18  1  0
 19 16  1  0
 20 16  1  0
 17  3  1  0
 18 21  1  0
 21 20  1  0
 20 22  2  0
  3 23  1  0
  6 24  1  0
  6 25  1  0
  7 26  1  0
  7 27  1  0
  9 28  1  0
 10 29  1  0
 10 30  1  0
 10 31  1  0
 11 32  1  0
 11 33  1  0
 12 34  1  0
 13 35  1  0
 13 36  1  0
 14 37  1  0
 14 38  1  0
 15 39  1  0
 17 40  1  0
 17 41  1  0
 18 42  1  0
 18 43  1  0
 19 44  1  0
 19 45  1  0
 19 46  1  0
 21 47  1  0
 21 48  1  0
M  END
> <ID>
HT0933

> <Class>
0.0

> <Clusters>
69

> <Fold>
2

$$$$