
     RDKit          3D

 31 32  0  0  0  0  0  0  0  0999 V2000
   -0.1932    2.1160   -1.4821 C   0  0  0  0  0  0  0  0  0  0  0  0
   -0.7003    1.5192   -0.1661 C   0  0  0  0  0  0  0  0  0  0  0  0
   -0.4416   -0.0100    0.0533 C   0  0  0  0  0  0  0  0  0  0  0  0
   -1.1361   -0.4203    1.3946 C   0  0  0  0  0  0  0  0  0  0  0  0
   -2.6689   -0.2506    1.4217 C   0  0  0  0  0  0  0  0  0  0  0  0
   -3.3299   -0.6684    0.1422 C   0  0  0  0  0  0  0  0  0  0  0  0
   -4.5866   -0.7354    0.0904 O   0  0  0  0  0  0  0  0  0  0  0  0
   -2.5588   -0.9803   -1.0193 N   0  0  0  0  0  0  0  0  0  0  0  0
   -1.1366   -0.8318   -1.0341 C   0  0  0  0  0  0  0  0  0  0  0  0
   -0.4841   -1.4125   -1.9424 O   0  0  0  0  0  0  0  0  0  0  0  0
    1.0924   -0.2944    0.1053 C   0  0  0  0  0  0  0  0  0  0  0  0
    1.8881   -0.1975   -1.0645 C   0  0  0  0  0  0  0  0  0  0  0  0
    3.2652   -0.4305   -1.0326 C   0  0  0  0  0  0  0  0  0  0  0  0
    3.8922   -0.7632    0.1641 C   0  0  0  0  0  0  0  0  0  0  0  0
    3.1431   -0.8630    1.3329 C   0  0  0  0  0  0  0  0  0  0  0  0
    1.7647   -0.6311    1.3108 C   0  0  0  0  0  0  0  0  0  0  0  0
   -0.6439    3.1211   -1.6247 H   0  0  0  0  0  0  0  0  0  0  0  0
   -0.4837    1.4861   -2.3483 H   0  0  0  0  0  0  0  0  0  0  0  0
    0.9064    2.2565   -1.4532 H   0  0  0  0  0  0  0  0  0  0  0  0
   -0.2451    2.0923    0.6715 H   0  0  0  0  0  0  0  0  0  0  0  0
   -1.7902    1.7264   -0.1394 H   0  0  0  0  0  0  0  0  0  0  0  0
   -0.7382    0.1887    2.2355 H   0  0  0  0  0  0  0  0  0  0  0  0
   -0.9110   -1.4901    1.6071 H   0  0  0  0  0  0  0  0  0  0  0  0
   -2.9343    0.8064    1.6369 H   0  0  0  0  0  0  0  0  0  0  0  0
   -3.0764   -0.8655    2.2532 H   0  0  0  0  0  0  0  0  0  0  0  0
   -3.0385   -1.3850   -1.8548 H   0  0  0  0  0  0  0  0  0  0  0  0
    1.4543    0.0542   -2.0205 H   0  0  0  0  0  0  0  0  0  0  0  0
    3.8473   -0.3520   -1.9419 H   0  0  0  0  0  0  0  0  0  0  0  0
    4.9593   -0.9430    0.1862 H   0  0  0  0  0  0  0  0  0  0  0  0
    3.6323   -1.1199    2.2638 H   0  0  0  0  0  0  0  0  0  0  0  0
    1.2518   -0.7226    2.2545 H   0  0  0  0  0  0  0  0  0  0  0  0
  1  2  1  0
  2  3  1  0
  3  4  1  0
  4  5  1  0
  5  6  1  0
  6  7  2  0
  6  8  1  0
  8  9  1  0
  9  3  1  0
  9 10  2  0
  3 11  1  0
 11 12  2  0
 12 13  1  0
 13 14  2  0
 14 15  1  0
 15 16  2  0
 16 11  1  0
  1 17  1  0
  1 18  1  0
  1 19  1  0
  2 20  1  0
  2 21  1  0
  4 22  1  0
  4 23  1  0
  5 24  1  0
  5 25  1  0
  8 26  1  0
 12 27  1  0
 13 28  1  0
 14 29  1  0
 15 30  1  0
 16 31  1  0
M  END
> <ID>
HT0994

> <Class>
0.0

> <Clusters>
157

> <Fold>
2

$$$$