
     RDKit          3D

 36 35  0  0  0  0  0  0  0  0999 V2000
    5.7427    0.0081   -0.3993 C   0  0  0  0  0  0  0  0  0  0  0  0
    4.6622   -0.8549    0.2459 C   0  0  0  0  0  0  0  0  0  0  0  0
    3.2991   -0.1541    0.2117 C   0  0  0  0  0  0  0  0  0  0  0  0
    2.2182   -1.0233    0.8711 C   0  0  0  0  0  0  0  0  0  0  0  0
    0.8138   -0.4128    0.7465 C   0  0  0  0  0  0  0  0  0  0  0  0
    0.6302    0.8351    1.6208 C   0  0  0  0  0  0  0  0  0  0  0  0
   -0.7343    1.2493    1.6158 O   0  0  0  0  0  0  0  0  0  0  0  0
   -1.3533    1.8457    0.5116 C   0  0  0  0  0  0  0  0  0  0  0  0
   -0.6821    2.1750   -0.5044 O   0  0  0  0  0  0  0  0  0  0  0  0
   -2.8313    2.0894    0.5391 C   0  0  0  0  0  0  0  0  0  0  0  0
   -3.6187    0.7706    0.5861 C   0  0  0  0  0  0  0  0  0  0  0  0
   -3.5172   -0.0552   -0.6767 C   0  0  0  0  0  0  0  0  0  0  0  0
   -2.8929    0.3512   -1.6464 O   0  0  0  0  0  0  0  0  0  0  0  0
   -4.1924   -1.3950   -0.7498 C   0  0  0  0  0  0  0  0  0  0  0  0
   -5.2139   -1.3838   -1.7912 N   0  0  0  0  0  0  0  0  0  0  0  0
    5.4906    0.2116   -1.4619 H   0  0  0  0  0  0  0  0  0  0  0  0
    5.8436    0.9712    0.1450 H   0  0  0  0  0  0  0  0  0  0  0  0
    6.7161   -0.5248   -0.3612 H   0  0  0  0  0  0  0  0  0  0  0  0
    4.9500   -1.0635    1.2995 H   0  0  0  0  0  0  0  0  0  0  0  0
    4.6014   -1.8214   -0.3004 H   0  0  0  0  0  0  0  0  0  0  0  0
    3.3799    0.8145    0.7499 H   0  0  0  0  0  0  0  0  0  0  0  0
    3.0175    0.0487   -0.8451 H   0  0  0  0  0  0  0  0  0  0  0  0
    2.4647   -1.1867    1.9433 H   0  0  0  0  0  0  0  0  0  0  0  0
    2.2042   -2.0179    0.3736 H   0  0  0  0  0  0  0  0  0  0  0  0
    0.6033   -0.1697   -0.3172 H   0  0  0  0  0  0  0  0  0  0  0  0
    0.0722   -1.1768    1.0670 H   0  0  0  0  0  0  0  0  0  0  0  0
    0.9136    0.5933    2.6671 H   0  0  0  0  0  0  0  0  0  0  0  0
    1.2751    1.6690    1.2706 H   0  0  0  0  0  0  0  0  0  0  0  0
   -3.1448    2.6894   -0.3435 H   0  0  0  0  0  0  0  0  0  0  0  0
   -3.0699    2.6823    1.4477 H   0  0  0  0  0  0  0  0  0  0  0  0
   -4.6904    1.0075    0.7592 H   0  0  0  0  0  0  0  0  0  0  0  0
   -3.2676    0.1619    1.4478 H   0  0  0  0  0  0  0  0  0  0  0  0
   -3.4298   -2.1683   -0.9863 H   0  0  0  0  0  0  0  0  0  0  0  0
   -4.6551   -1.6543    0.2289 H   0  0  0  0  0  0  0  0  0  0  0  0
   -5.6107   -2.3490   -1.8577 H   0  0  0  0  0  0  0  0  0  0  0  0
   -5.9943   -0.7624   -1.4753 H   0  0  0  0  0  0  0  0  0  0  0  0
  1  2  1  0
  2  3  1  0
  3  4  1  0
  4  5  1  0
  5  6  1  0
  6  7  1  0
  7  8  1  0
  8  9  2  0
  8 10  1  0
 10 11  1  0
 11 12  1  0
 12 13  2  0
 12 14  1  0
 14 15  1  0
  1 16  1  0
  1 17  1  0
  1 18  1  0
  2 19  1  0
  2 20  1  0
  3 21  1  0
  3 22  1  0
  4 23  1  0
  4 24  1  0
  5 25  1  0
  5 26  1  0
  6 27  1  0
  6 28  1  0
 10 29  1  0
 10 30  1  0
 11 31  1  0
 11 32  1  0
 14 33  1  0
 14 34  1  0
 15 35  1  0
 15 36  1  0
M  END
> <ID>
HT1032

> <Class>
0.0

> <Clusters>
166

> <Fold>
2

$$$$