
     RDKit          3D

 34 35  0  0  0  0  0  0  0  0999 V2000
    3.4606    2.0050   -1.3473 N   0  0  0  0  0  0  0  0  0  0  0  0
    3.9561    0.6711   -1.1727 C   0  0  0  0  0  0  0  0  0  0  0  0
    5.2117    0.4824   -0.9174 N   0  0  0  0  0  0  0  0  0  0  0  0
    3.0915   -0.4709   -1.2912 N   0  0  0  0  0  0  0  0  0  0  0  0
    1.6378   -0.3927   -1.4356 C   0  0  0  0  0  0  0  0  0  0  0  0
    0.9740    0.0395   -0.1199 C   0  0  0  0  0  0  0  0  0  0  0  0
    1.2096   -0.9345    1.0023 C   0  0  0  0  0  0  0  0  0  0  0  0
    0.0382   -0.9401    1.7520 O   0  0  0  0  0  0  0  0  0  0  0  0
   -0.9683   -0.4279    0.9022 C   0  0  0  0  0  0  0  0  0  0  0  0
   -1.9287   -1.5729    0.5282 C   0  0  0  0  0  0  0  0  0  0  0  0
   -3.0712   -1.1011   -0.3955 C   0  0  0  0  0  0  0  0  0  0  0  0
   -3.4765    0.3689   -0.1699 C   0  0  0  0  0  0  0  0  0  0  0  0
   -3.2196    0.8121    1.2726 C   0  0  0  0  0  0  0  0  0  0  0  0
   -1.7284    0.6985    1.6526 C   0  0  0  0  0  0  0  0  0  0  0  0
   -0.4072    0.1012   -0.2840 O   0  0  0  0  0  0  0  0  0  0  0  0
    2.4710    2.1977   -1.6118 H   0  0  0  0  0  0  0  0  0  0  0  0
    4.0985    2.8243   -1.2361 H   0  0  0  0  0  0  0  0  0  0  0  0
    5.8814    1.2789   -0.8276 H   0  0  0  0  0  0  0  0  0  0  0  0
    3.5258   -1.4218   -1.2777 H   0  0  0  0  0  0  0  0  0  0  0  0
    1.3728    0.3086   -2.2546 H   0  0  0  0  0  0  0  0  0  0  0  0
    1.2456   -1.3909   -1.7318 H   0  0  0  0  0  0  0  0  0  0  0  0
    1.3365    1.0472    0.1795 H   0  0  0  0  0  0  0  0  0  0  0  0
    2.0634   -0.6103    1.6350 H   0  0  0  0  0  0  0  0  0  0  0  0
    1.4012   -1.9652    0.6296 H   0  0  0  0  0  0  0  0  0  0  0  0
   -1.3644   -2.3888    0.0256 H   0  0  0  0  0  0  0  0  0  0  0  0
   -2.3641   -1.9973    1.4602 H   0  0  0  0  0  0  0  0  0  0  0  0
   -2.7625   -1.2255   -1.4564 H   0  0  0  0  0  0  0  0  0  0  0  0
   -3.9540   -1.7565   -0.2305 H   0  0  0  0  0  0  0  0  0  0  0  0
   -2.9001    1.0260   -0.8577 H   0  0  0  0  0  0  0  0  0  0  0  0
   -4.5537    0.4975   -0.4118 H   0  0  0  0  0  0  0  0  0  0  0  0
   -3.8260    0.1773    1.9561 H   0  0  0  0  0  0  0  0  0  0  0  0
   -3.5573    1.8627    1.4047 H   0  0  0  0  0  0  0  0  0  0  0  0
   -1.2255    1.6711    1.4563 H   0  0  0  0  0  0  0  0  0  0  0  0
   -1.6682    0.5265    2.7500 H   0  0  0  0  0  0  0  0  0  0  0  0
  1  2  1  0
  2  3  2  3
  2  4  1  0
  4  5  1  0
  5  6  1  0
  6  7  1  0
  7  8  1  0
  8  9  1  0
  9 10  1  0
 10 11  1  0
 11 12  1  0
 12 13  1  0
 13 14  1  0
 14  9  1  0
  9 15  1  0
 15  6  1  0
  1 16  1  0
  1 17  1  0
  3 18  1  0
  4 19  1  0
  5 20  1  0
  5 21  1  0
  6 22  1  0
  7 23  1  0
  7 24  1  0
 10 25  1  0
 10 26  1  0
 11 27  1  0
 11 28  1  0
 12 29  1  0
 12 30  1  0
 13 31  1  0
 13 32  1  0
 14 33  1  0
 14 34  1  0
M  END
> <ID>
HT1008

> <Class>
0.0

> <Clusters>
113

> <Fold>
2

$$$$