
     RDKit          3D

 10  9  0  0  0  0  0  0  0  0999 V2000
   -3.2968   -0.0960    0.5681 Cl  0  0  0  0  0  0  0  0  0  0  0  0
   -1.7278    0.1064   -0.1995 C   0  0  0  0  0  0  0  0  0  0  0  0
   -0.6217   -0.4570    0.3132 C   0  0  0  0  0  0  0  0  0  0  0  0
   -0.7004   -1.4370    1.7759 Cl  0  0  0  0  0  0  0  0  0  0  0  0
    0.6924   -0.3124   -0.3411 C   0  0  0  0  0  0  0  0  0  0  0  0
    1.6808    0.4046    0.2180 C   0  0  0  0  0  0  0  0  0  0  0  0
    1.4514    1.2815    1.7274 Cl  0  0  0  0  0  0  0  0  0  0  0  0
    3.2554    0.5471   -0.5517 Cl  0  0  0  0  0  0  0  0  0  0  0  0
    0.9386   -1.1538   -1.8700 Cl  0  0  0  0  0  0  0  0  0  0  0  0
   -1.6719    1.1167   -1.6402 Cl  0  0  0  0  0  0  0  0  0  0  0  0
  1  2  1  0
  2  3  2  3
  3  4  1  0
  3  5  1  0
  5  6  2  3
  6  7  1  0
  6  8  1  0
  5  9  1  0
  2 10  1  0
M  END
> <ID>
HT1029

> <Class>
0.0

> <Clusters>
125

> <Fold>
2

$$$$