
     RDKit          3D

 56 59  0  0  0  0  0  0  0  0999 V2000
   -3.6150   -1.8534   -1.9558 C   0  0  0  0  0  0  0  0  0  0  0  0
   -2.7160   -1.3930   -0.7946 C   0  0  1  0  0  0  0  0  0  0  0  0
   -1.3134   -1.0581   -1.3241 C   0  0  0  0  0  0  0  0  0  0  0  0
   -0.3430   -0.6638   -0.1859 C   0  0  1  0  0  0  0  0  0  0  0  0
    1.0306   -0.2468   -0.7757 C   0  0  2  0  0  0  0  0  0  0  0  0
    1.7367   -1.1925   -1.7337 C   0  0  0  0  0  0  0  0  0  0  0  0
    3.1905   -0.6900   -1.7596 C   0  0  0  0  0  0  0  0  0  0  0  0
    3.3229    0.4166   -0.6613 C   0  0  2  0  0  0  0  0  0  0  0  0
    3.1606    1.6564   -1.3214 O   0  0  0  0  0  0  0  0  0  0  0  0
    4.6975    0.3766    0.0366 C   0  0  0  0  0  0  0  0  0  0  0  0
    5.5451   -0.4297   -0.3183 O   0  0  0  0  0  0  0  0  0  0  0  0
    5.0659    1.3191    1.1489 C   0  0  0  0  0  0  0  0  0  0  0  0
    2.0971    0.1058    0.2758 C   0  0  2  0  0  0  0  0  0  0  0  0
    2.4738   -1.1000    1.2068 C   0  0  0  0  0  0  0  0  0  0  0  0
    1.5496    1.2957    1.1205 C   0  0  0  0  0  0  0  0  0  0  0  0
    0.1280    1.0604    1.7085 C   0  0  2  0  0  0  0  0  0  0  0  0
    0.1990    0.2993    2.8867 O   0  0  0  0  0  0  0  0  0  0  0  0
   -0.9183    0.5384    0.6487 C   0  0  1  0  0  0  0  0  0  0  0  0
   -1.0853    1.5971   -0.2411 F   0  0  0  0  0  0  0  0  0  0  0  0
   -2.3682    0.2367    1.2153 C   0  0  1  0  0  0  0  0  0  0  0  0
   -2.4254   -0.8931    2.2755 C   0  0  0  0  0  0  0  0  0  0  0  0
   -2.9022    1.4920    1.9081 C   0  0  0  0  0  0  0  0  0  0  0  0
   -4.0171    2.1208    1.5438 C   0  0  0  0  0  0  0  0  0  0  0  0
   -4.8069    1.6339    0.4202 C   0  0  0  0  0  0  0  0  0  0  0  0
   -5.8655    2.2293    0.0879 O   0  0  0  0  0  0  0  0  0  0  0  0
   -4.3619    0.4561   -0.3231 C   0  0  0  0  0  0  0  0  0  0  0  0
   -3.2369   -0.2073    0.0184 C   0  0  0  0  0  0  0  0  0  0  0  0
   -3.7129   -1.0566   -2.7242 H   0  0  0  0  0  0  0  0  0  0  0  0
   -4.6200   -2.1365   -1.5765 H   0  0  0  0  0  0  0  0  0  0  0  0
   -3.1769   -2.7514   -2.4418 H   0  0  0  0  0  0  0  0  0  0  0  0
   -2.6308   -2.2681   -0.1159 H   0  0  0  0  0  0  0  0  0  0  0  0
   -1.3850   -0.2321   -2.0670 H   0  0  0  0  0  0  0  0  0  0  0  0
   -0.9109   -1.9518   -1.8495 H   0  0  0  0  0  0  0  0  0  0  0  0
   -0.2220   -1.5579    0.4513 H   0  0  0  0  0  0  0  0  0  0  0  0
    0.8303    0.6695   -1.3825 H   0  0  0  0  0  0  0  0  0  0  0  0
    1.6893   -2.2361   -1.3512 H   0  0  0  0  0  0  0  0  0  0  0  0
    1.2839   -1.1521   -2.7486 H   0  0  0  0  0  0  0  0  0  0  0  0
    3.8552   -1.5619   -1.5795 H   0  0  0  0  0  0  0  0  0  0  0  0
    3.4422   -0.2840   -2.7644 H   0  0  0  0  0  0  0  0  0  0  0  0
    3.3967    2.3932   -0.7037 H   0  0  0  0  0  0  0  0  0  0  0  0
    4.3010    2.0985    1.3179 H   0  0  0  0  0  0  0  0  0  0  0  0
    6.0188    1.8306    0.8979 H   0  0  0  0  0  0  0  0  0  0  0  0
    5.2041    0.7448    2.0886 H   0  0  0  0  0  0  0  0  0  0  0  0
    3.1726   -1.8058    0.7124 H   0  0  0  0  0  0  0  0  0  0  0  0
    2.9793   -0.7391    2.1272 H   0  0  0  0  0  0  0  0  0  0  0  0
    1.6234   -1.7285    1.5069 H   0  0  0  0  0  0  0  0  0  0  0  0
    1.4897    2.2078    0.4902 H   0  0  0  0  0  0  0  0  0  0  0  0
    2.2389    1.5288    1.9575 H   0  0  0  0  0  0  0  0  0  0  0  0
   -0.2140    2.0684    2.0269 H   0  0  0  0  0  0  0  0  0  0  0  0
    0.1985   -0.6555    2.6443 H   0  0  0  0  0  0  0  0  0  0  0  0
   -2.0685   -0.5526    3.2696 H   0  0  0  0  0  0  0  0  0  0  0  0
   -1.8384   -1.7848    1.9836 H   0  0  0  0  0  0  0  0  0  0  0  0
   -3.4780   -1.2197    2.4247 H   0  0  0  0  0  0  0  0  0  0  0  0
   -2.3755    1.8741    2.7738 H   0  0  0  0  0  0  0  0  0  0  0  0
   -4.3465    2.9940    2.0936 H   0  0  0  0  0  0  0  0  0  0  0  0
   -4.9668    0.1580   -1.1667 H   0  0  0  0  0  0  0  0  0  0  0  0
  2  1  1  0
  2  3  1  0
  4  3  1  0
  4  5  1  0
  5  6  1  0
  6  7  1  0
  7  8  1  0
  8  9  1  6
  8 10  1  0
 10 11  2  0
 10 12  1  0
  8 13  1  0
 13  5  1  0
 13 14  1  1
 13 15  1  0
 15 16  1  0
 16 17  1  0
 16 18  1  0
 18  4  1  0
 18 19  1  6
 18 20  1  0
 20 21  1  1
 20 22  1  0
 22 23  2  0
 23 24  1  0
 24 25  2  0
 24 26  1  0
 26 27  2  0
 27  2  1  0
 27 20  1  0
  1 28  1  0
  1 29  1  0
  1 30  1  0
  2 31  1  1
  3 32  1  0
  3 33  1  0
  4 34  1  1
  5 35  1  6
  6 36  1  0
  6 37  1  0
  7 38  1  0
  7 39  1  0
  9 40  1  0
 12 41  1  0
 12 42  1  0
 12 43  1  0
 14 44  1  0
 14 45  1  0
 14 46  1  0
 15 47  1  0
 15 48  1  0
 16 49  1  1
 17 50  1  0
 21 51  1  0
 21 52  1  0
 21 53  1  0
 22 54  1  0
 23 55  1  0
 26 56  1  0
M  END
> <ID>
HT0908

> <Class>
0.0

> <Clusters>
35

> <Fold>
2

$$$$