
     RDKit          3D

 36 37  0  0  0  0  0  0  0  0999 V2000
    5.9025   -1.3203    3.2137 C   0  0  0  0  0  0  0  0  0  0  0  0
    4.7503   -1.4479    2.4114 O   0  0  0  0  0  0  0  0  0  0  0  0
    4.2987   -0.1644    2.0353 C   0  0  0  0  0  0  0  0  0  0  0  0
    3.0548   -0.3072    1.1695 C   0  0  0  0  0  0  0  0  0  0  0  0
    2.5917    0.9847    0.7850 O   0  0  0  0  0  0  0  0  0  0  0  0
    1.4634    1.2123   -0.0157 C   0  0  0  0  0  0  0  0  0  0  0  0
    1.1044    2.5252   -0.3258 C   0  0  0  0  0  0  0  0  0  0  0  0
    0.0148    2.7717   -1.0980 N   0  0  0  0  0  0  0  0  0  0  0  0
   -0.7453    1.7555   -1.5841 C   0  0  0  0  0  0  0  0  0  0  0  0
   -1.8911    2.0488   -2.3887 N   0  0  0  0  0  0  0  0  0  0  0  0
   -2.9255    0.8010   -3.0024 S   0  0  0  0  0  0  0  0  0  0  0  0
   -4.0759    1.4245   -3.7408 O   0  0  0  0  0  0  0  0  0  0  0  0
   -2.1397   -0.0594   -3.9521 O   0  0  0  0  0  0  0  0  0  0  0  0
   -3.5542   -0.1633   -1.6703 C   0  0  0  0  0  0  0  0  0  0  0  0
   -3.9289    0.4606   -0.4718 C   0  0  0  0  0  0  0  0  0  0  0  0
   -4.4208   -0.3010    0.5928 C   0  0  0  0  0  0  0  0  0  0  0  0
   -4.5439   -1.6874    0.4635 C   0  0  0  0  0  0  0  0  0  0  0  0
   -4.1766   -2.3134   -0.7313 C   0  0  0  0  0  0  0  0  0  0  0  0
   -3.6837   -1.5542   -1.7975 C   0  0  0  0  0  0  0  0  0  0  0  0
   -0.4132    0.4682   -1.2960 N   0  0  0  0  0  0  0  0  0  0  0  0
    0.6670    0.1758   -0.5273 C   0  0  0  0  0  0  0  0  0  0  0  0
    6.2465   -2.3348    3.5020 H   0  0  0  0  0  0  0  0  0  0  0  0
    5.6818   -0.7616    4.1506 H   0  0  0  0  0  0  0  0  0  0  0  0
    6.7310   -0.8308    2.6548 H   0  0  0  0  0  0  0  0  0  0  0  0
    5.0775    0.3705    1.4443 H   0  0  0  0  0  0  0  0  0  0  0  0
    4.0331    0.4395    2.9334 H   0  0  0  0  0  0  0  0  0  0  0  0
    3.3051   -0.9002    0.2628 H   0  0  0  0  0  0  0  0  0  0  0  0
    2.2633   -0.8315    1.7483 H   0  0  0  0  0  0  0  0  0  0  0  0
    1.6926    3.3525    0.0488 H   0  0  0  0  0  0  0  0  0  0  0  0
   -2.1278    3.0433   -2.6016 H   0  0  0  0  0  0  0  0  0  0  0  0
   -3.8379    1.5338   -0.3615 H   0  0  0  0  0  0  0  0  0  0  0  0
   -4.7066    0.1834    1.5175 H   0  0  0  0  0  0  0  0  0  0  0  0
   -4.9248   -2.2761    1.2880 H   0  0  0  0  0  0  0  0  0  0  0  0
   -4.2739   -3.3867   -0.8313 H   0  0  0  0  0  0  0  0  0  0  0  0
   -3.4042   -2.0508   -2.7177 H   0  0  0  0  0  0  0  0  0  0  0  0
    0.8956   -0.8603   -0.3211 H   0  0  0  0  0  0  0  0  0  0  0  0
  1  2  1  0
  2  3  1  0
  3  4  1  0
  4  5  1  0
  5  6  1  0
  6  7  2  0
  7  8  1  0
  8  9  2  0
  9 10  1  0
 10 11  1  0
 11 12  2  0
 11 13  2  0
 11 14  1  0
 14 15  2  0
 15 16  1  0
 16 17  2  0
 17 18  1  0
 18 19  2  0
 19 14  1  0
  9 20  1  0
 20 21  2  0
 21  6  1  0
  1 22  1  0
  1 23  1  0
  1 24  1  0
  3 25  1  0
  3 26  1  0
  4 27  1  0
  4 28  1  0
  7 29  1  0
 10 30  1  0
 15 31  1  0
 16 32  1  0
 17 33  1  0
 18 34  1  0
 19 35  1  0
 21 36  1  0
M  END
> <ID>
HT0998

> <Class>
0.0

> <Clusters>
220

> <Fold>
2

$$$$