
     RDKit          3D

 50 50  0  0  0  0  0  0  0  0999 V2000
    2.8126   -0.6010    2.0001 C   0  0  0  0  0  0  0  0  0  0  0  0
    3.9219   -1.0006    1.0258 C   0  0  0  0  0  0  0  0  0  0  0  0
    4.2835   -2.4787    1.1904 C   0  0  0  0  0  0  0  0  0  0  0  0
    3.4969   -0.7206   -0.3874 C   0  0  0  0  0  0  0  0  0  0  0  0
    4.1624    0.0896   -1.0894 O   0  0  0  0  0  0  0  0  0  0  0  0
    2.3809   -1.3792   -0.9171 O   0  0  0  0  0  0  0  0  0  0  0  0
    1.8276   -1.1093   -2.2059 C   0  0  0  0  0  0  0  0  0  0  0  0
    1.3292   -2.4188   -2.8028 C   0  0  0  0  0  0  0  0  0  0  0  0
    0.7231   -0.2166   -2.0768 O   0  0  0  0  0  0  0  0  0  0  0  0
    0.8508    1.1496   -1.8025 C   0  0  0  0  0  0  0  0  0  0  0  0
    1.9766    1.7127   -1.8637 O   0  0  0  0  0  0  0  0  0  0  0  0
   -0.3052    1.9273   -1.4737 N   0  0  0  0  0  0  0  0  0  0  0  0
   -1.6214    1.3337   -1.2286 C   0  0  0  0  0  0  0  0  0  0  0  0
   -1.9026    1.1325    0.2950 C   0  0  0  0  0  0  0  0  0  0  0  0
   -1.7224    2.4761    1.0821 C   0  0  0  0  0  0  0  0  0  0  0  0
   -2.6157    3.6266    0.6917 C   0  0  0  0  0  0  0  0  0  0  0  0
   -3.5589    3.4895   -0.1325 O   0  0  0  0  0  0  0  0  0  0  0  0
   -2.3975    4.8696    1.2760 O   0  0  0  0  0  0  0  0  0  0  0  0
   -0.8703    0.0939    0.8586 C   0  0  0  0  0  0  0  0  0  0  0  0
   -1.4153   -0.6796    2.0653 C   0  0  0  0  0  0  0  0  0  0  0  0
   -2.6464   -1.5233    1.6812 C   0  0  0  0  0  0  0  0  0  0  0  0
   -3.4443   -0.9313    0.5035 C   0  0  0  0  0  0  0  0  0  0  0  0
   -3.3674    0.6011    0.4866 C   0  0  0  0  0  0  0  0  0  0  0  0
    3.1418   -0.7782    3.0451 H   0  0  0  0  0  0  0  0  0  0  0  0
    1.8911   -1.1923    1.8129 H   0  0  0  0  0  0  0  0  0  0  0  0
    2.5746    0.4768    1.8867 H   0  0  0  0  0  0  0  0  0  0  0  0
    4.8261   -0.3958    1.2624 H   0  0  0  0  0  0  0  0  0  0  0  0
    4.6877   -2.6607    2.2100 H   0  0  0  0  0  0  0  0  0  0  0  0
    3.3892   -3.1237    1.0389 H   0  0  0  0  0  0  0  0  0  0  0  0
    5.0612   -2.7675    0.4518 H   0  0  0  0  0  0  0  0  0  0  0  0
    2.5896   -0.6862   -2.8982 H   0  0  0  0  0  0  0  0  0  0  0  0
    0.5595   -2.8741   -2.1411 H   0  0  0  0  0  0  0  0  0  0  0  0
    2.1773   -3.1283   -2.9127 H   0  0  0  0  0  0  0  0  0  0  0  0
    0.8841   -2.2321   -3.8040 H   0  0  0  0  0  0  0  0  0  0  0  0
   -0.1919    2.9593   -1.3468 H   0  0  0  0  0  0  0  0  0  0  0  0
   -1.7109    0.3641   -1.7634 H   0  0  0  0  0  0  0  0  0  0  0  0
   -2.3857    1.9908   -1.6890 H   0  0  0  0  0  0  0  0  0  0  0  0
   -0.6721    2.8245    0.9875 H   0  0  0  0  0  0  0  0  0  0  0  0
   -1.8839    2.2928    2.1658 H   0  0  0  0  0  0  0  0  0  0  0  0
   -2.9834    5.6630    1.0448 H   0  0  0  0  0  0  0  0  0  0  0  0
    0.0806    0.5937    1.1414 H   0  0  0  0  0  0  0  0  0  0  0  0
   -0.6082   -0.6608    0.0864 H   0  0  0  0  0  0  0  0  0  0  0  0
   -1.6887    0.0358    2.8704 H   0  0  0  0  0  0  0  0  0  0  0  0
   -0.6231   -1.3469    2.4685 H   0  0  0  0  0  0  0  0  0  0  0  0
   -3.3091   -1.6117    2.5698 H   0  0  0  0  0  0  0  0  0  0  0  0
   -2.3204   -2.5505    1.4058 H   0  0  0  0  0  0  0  0  0  0  0  0
   -4.5058   -1.2515    0.5808 H   0  0  0  0  0  0  0  0  0  0  0  0
   -3.0454   -1.3276   -0.4567 H   0  0  0  0  0  0  0  0  0  0  0  0
   -4.0395    0.9762   -0.3165 H   0  0  0  0  0  0  0  0  0  0  0  0
   -3.7928    0.9676    1.4484 H   0  0  0  0  0  0  0  0  0  0  0  0
  1  2  1  0
  2  3  1  0
  2  4  1  0
  4  5  2  0
  4  6  1  0
  6  7  1  0
  7  8  1  0
  7  9  1  0
  9 10  1  0
 10 11  2  0
 10 12  1  0
 12 13  1  0
 13 14  1  0
 14 15  1  0
 15 16  1  0
 16 17  2  0
 16 18  1  0
 14 19  1  0
 19 20  1  0
 20 21  1  0
 21 22  1  0
 22 23  1  0
 23 14  1  0
  1 24  1  0
  1 25  1  0
  1 26  1  0
  2 27  1  0
  3 28  1  0
  3 29  1  0
  3 30  1  0
  7 31  1  0
  8 32  1  0
  8 33  1  0
  8 34  1  0
 12 35  1  0
 13 36  1  0
 13 37  1  0
 15 38  1  0
 15 39  1  0
 18 40  1  0
 19 41  1  0
 19 42  1  0
 20 43  1  0
 20 44  1  0
 21 45  1  0
 21 46  1  0
 22 47  1  0
 22 48  1  0
 23 49  1  0
 23 50  1  0
M  END
> <ID>
HT0948

> <Class>
0.0

> <Clusters>
113

> <Fold>
2

$$$$