
     RDKit          3D

 96 96  0  0  0  0  0  0  0  0999 V2000
   -5.5926   -4.0650    1.2538 C   0  0  0  0  0  0  0  0  0  0  0  0
   -6.0614   -2.6019    1.1448 C   0  0  0  0  0  0  0  0  0  0  0  0
   -5.5950   -1.8477   -0.0729 N   0  0  0  0  0  0  0  0  0  0  0  0
   -6.2797   -0.5043   -0.0803 C   0  0  0  0  0  0  0  0  0  0  0  0
   -5.7494    0.5285    0.9382 C   0  0  0  0  0  0  0  0  0  0  0  0
   -5.9500   -2.5763   -1.3407 C   0  0  0  0  0  0  0  0  0  0  0  0
   -7.4362   -2.9532   -1.4962 C   0  0  0  0  0  0  0  0  0  0  0  0
   -4.0985   -1.7080   -0.0061 C   0  0  0  0  0  0  0  0  0  0  0  0
   -3.4395   -0.9337   -1.1755 C   0  0  0  0  0  0  0  0  0  0  0  0
   -2.1474   -0.4648   -0.7904 O   0  0  0  0  0  0  0  0  0  0  0  0
   -1.0367   -1.2684   -0.4847 C   0  0  0  0  0  0  0  0  0  0  0  0
   -0.9572   -2.6089   -0.9088 C   0  0  0  0  0  0  0  0  0  0  0  0
    0.1415   -3.3974   -0.5653 C   0  0  0  0  0  0  0  0  0  0  0  0
    1.1786   -2.8640    0.1973 C   0  0  0  0  0  0  0  0  0  0  0  0
    1.1265   -1.5250    0.6198 C   0  0  0  0  0  0  0  0  0  0  0  0
    2.1502   -0.9359    1.3809 O   0  0  0  0  0  0  0  0  0  0  0  0
    3.4772   -1.4413    1.5198 C   0  0  0  0  0  0  0  0  0  0  0  0
    4.2384   -1.3056    0.1749 C   0  0  0  0  0  0  0  0  0  0  0  0
    5.7053   -1.6596    0.2011 N   0  0  0  0  0  0  0  0  0  0  0  0
    6.4193   -0.6078    1.0113 C   0  0  0  0  0  0  0  0  0  0  0  0
    7.9515   -0.6841    1.0471 C   0  0  0  0  0  0  0  0  0  0  0  0
    6.1874   -1.6964   -1.2283 C   0  0  0  0  0  0  0  0  0  0  0  0
    6.0755   -0.3727   -2.0133 C   0  0  0  0  0  0  0  0  0  0  0  0
    5.8448   -3.0214    0.8390 C   0  0  0  0  0  0  0  0  0  0  0  0
    7.0622   -3.8754    0.4322 C   0  0  0  0  0  0  0  0  0  0  0  0
    0.0267   -0.7245    0.2737 C   0  0  0  0  0  0  0  0  0  0  0  0
    0.0420    0.6056    0.7222 O   0  0  0  0  0  0  0  0  0  0  0  0
   -0.5442    1.7130    0.0427 C   0  0  0  0  0  0  0  0  0  0  0  0
    0.0729    3.0119    0.6085 C   0  0  0  0  0  0  0  0  0  0  0  0
   -0.1798    4.2757   -0.1777 N   0  0  0  0  0  0  0  0  0  0  0  0
    0.3443    5.4854    0.5661 C   0  0  0  0  0  0  0  0  0  0  0  0
    0.2728    5.4677    2.1101 C   0  0  0  0  0  0  0  0  0  0  0  0
    0.5989    4.1663   -1.4681 C   0  0  0  0  0  0  0  0  0  0  0  0
    0.5391    5.3925   -2.4055 C   0  0  0  0  0  0  0  0  0  0  0  0
   -1.6348    4.4409   -0.5228 C   0  0  0  0  0  0  0  0  0  0  0  0
   -2.6051    4.5283    0.6649 C   0  0  0  0  0  0  0  0  0  0  0  0
   -5.8831   -4.6698    0.3753 H   0  0  0  0  0  0  0  0  0  0  0  0
   -6.0762   -4.5265    2.1391 H   0  0  0  0  0  0  0  0  0  0  0  0
   -4.4993   -4.1364    1.4183 H   0  0  0  0  0  0  0  0  0  0  0  0
   -5.7165   -2.0961    2.0707 H   0  0  0  0  0  0  0  0  0  0  0  0
   -7.1727   -2.6039    1.2111 H   0  0  0  0  0  0  0  0  0  0  0  0
   -7.3654   -0.6153    0.1320 H   0  0  0  0  0  0  0  0  0  0  0  0
   -6.2357   -0.0338   -1.0894 H   0  0  0  0  0  0  0  0  0  0  0  0
   -4.7516    0.9005    0.6444 H   0  0  0  0  0  0  0  0  0  0  0  0
   -5.7117    0.1258    1.9675 H   0  0  0  0  0  0  0  0  0  0  0  0
   -6.4349    1.4059    0.9533 H   0  0  0  0  0  0  0  0  0  0  0  0
   -5.6960   -1.9542   -2.2278 H   0  0  0  0  0  0  0  0  0  0  0  0
   -5.3422   -3.5009   -1.4534 H   0  0  0  0  0  0  0  0  0  0  0  0
   -7.5788   -3.4613   -2.4752 H   0  0  0  0  0  0  0  0  0  0  0  0
   -8.0838   -2.0532   -1.4859 H   0  0  0  0  0  0  0  0  0  0  0  0
   -7.7662   -3.6633   -0.7119 H   0  0  0  0  0  0  0  0  0  0  0  0
   -3.6194   -2.7103    0.0017 H   0  0  0  0  0  0  0  0  0  0  0  0
   -3.7943   -1.2324    0.9530 H   0  0  0  0  0  0  0  0  0  0  0  0
   -4.0302   -0.0451   -1.4533 H   0  0  0  0  0  0  0  0  0  0  0  0
   -3.3636   -1.5658   -2.0846 H   0  0  0  0  0  0  0  0  0  0  0  0
   -1.7366   -3.0513   -1.5127 H   0  0  0  0  0  0  0  0  0  0  0  0
    0.1907   -4.4277   -0.8909 H   0  0  0  0  0  0  0  0  0  0  0  0
    2.0112   -3.5027    0.4591 H   0  0  0  0  0  0  0  0  0  0  0  0
    3.9643   -0.8339    2.3034 H   0  0  0  0  0  0  0  0  0  0  0  0
    3.4437   -2.4841    1.8919 H   0  0  0  0  0  0  0  0  0  0  0  0
    3.7060   -1.9320   -0.5770 H   0  0  0  0  0  0  0  0  0  0  0  0
    4.0948   -0.2522   -0.1508 H   0  0  0  0  0  0  0  0  0  0  0  0
    6.1407    0.4130    0.6627 H   0  0  0  0  0  0  0  0  0  0  0  0
    6.1050   -0.6498    2.0758 H   0  0  0  0  0  0  0  0  0  0  0  0
    8.3383    0.2412    1.5264 H   0  0  0  0  0  0  0  0  0  0  0  0
    8.2950   -1.5287    1.6799 H   0  0  0  0  0  0  0  0  0  0  0  0
    8.4093   -0.7306    0.0401 H   0  0  0  0  0  0  0  0  0  0  0  0
    7.2505   -1.9962   -1.2941 H   0  0  0  0  0  0  0  0  0  0  0  0
    5.6292   -2.4757   -1.7982 H   0  0  0  0  0  0  0  0  0  0  0  0
    6.6571    0.4404   -1.5298 H   0  0  0  0  0  0  0  0  0  0  0  0
    5.0201   -0.0555   -2.1565 H   0  0  0  0  0  0  0  0  0  0  0  0
    6.5046   -0.5258   -3.0267 H   0  0  0  0  0  0  0  0  0  0  0  0
    5.8540   -2.9326    1.9495 H   0  0  0  0  0  0  0  0  0  0  0  0
    4.9658   -3.6579    0.5940 H   0  0  0  0  0  0  0  0  0  0  0  0
    8.0184   -3.3285    0.4824 H   0  0  0  0  0  0  0  0  0  0  0  0
    6.9297   -4.2746   -0.5959 H   0  0  0  0  0  0  0  0  0  0  0  0
    7.1363   -4.7471    1.1179 H   0  0  0  0  0  0  0  0  0  0  0  0
   -1.6356    1.7163    0.2332 H   0  0  0  0  0  0  0  0  0  0  0  0
   -0.3667    1.5953   -1.0430 H   0  0  0  0  0  0  0  0  0  0  0  0
    1.1706    2.8580    0.7225 H   0  0  0  0  0  0  0  0  0  0  0  0
   -0.3183    3.0851    1.6456 H   0  0  0  0  0  0  0  0  0  0  0  0
    1.4259    5.6539    0.3397 H   0  0  0  0  0  0  0  0  0  0  0  0
   -0.1809    6.4064    0.2252 H   0  0  0  0  0  0  0  0  0  0  0  0
    0.5407    6.4742    2.4982 H   0  0  0  0  0  0  0  0  0  0  0  0
    1.0185    4.7531    2.5250 H   0  0  0  0  0  0  0  0  0  0  0  0
   -0.7342    5.2189    2.4933 H   0  0  0  0  0  0  0  0  0  0  0  0
    0.2455    3.3180   -2.0847 H   0  0  0  0  0  0  0  0  0  0  0  0
    1.6714    3.9612   -1.2526 H   0  0  0  0  0  0  0  0  0  0  0  0
   -0.4498    5.4604   -2.8988 H   0  0  0  0  0  0  0  0  0  0  0  0
    0.7668    6.3435   -1.8895 H   0  0  0  0  0  0  0  0  0  0  0  0
    1.2931    5.2595   -3.2104 H   0  0  0  0  0  0  0  0  0  0  0  0
   -1.9744    3.6117   -1.1822 H   0  0  0  0  0  0  0  0  0  0  0  0
   -1.7944    5.3707   -1.1097 H   0  0  0  0  0  0  0  0  0  0  0  0
   -2.5223    5.5120    1.1668 H   0  0  0  0  0  0  0  0  0  0  0  0
   -3.6451    4.4520    0.2831 H   0  0  0  0  0  0  0  0  0  0  0  0
   -2.4647    3.7060    1.3909 H   0  0  0  0  0  0  0  0  0  0  0  0
  1  2  1  0
  2  3  1  0
  3  4  1  0
  4  5  1  0
  3  6  1  0
  6  7  1  0
  3  8  1  0
  8  9  1  0
  9 10  1  0
 10 11  1  0
 11 12  2  0
 12 13  1  0
 13 14  2  0
 14 15  1  0
 15 16  1  0
 16 17  1  0
 17 18  1  0
 18 19  1  0
 19 20  1  0
 20 21  1  0
 19 22  1  0
 22 23  1  0
 19 24  1  0
 24 25  1  0
 15 26  2  0
 26 11  1  0
 26 27  1  0
 27 28  1  0
 28 29  1  0
 29 30  1  0
 30 31  1  0
 31 32  1  0
 30 33  1  0
 33 34  1  0
 30 35  1  0
 35 36  1  0
  1 37  1  0
  1 38  1  0
  1 39  1  0
  2 40  1  0
  2 41  1  0
  4 42  1  0
  4 43  1  0
  5 44  1  0
  5 45  1  0
  5 46  1  0
  6 47  1  0
  6 48  1  0
  7 49  1  0
  7 50  1  0
  7 51  1  0
  8 52  1  0
  8 53  1  0
  9 54  1  0
  9 55  1  0
 12 56  1  0
 13 57  1  0
 14 58  1  0
 17 59  1  0
 17 60  1  0
 18 61  1  0
 18 62  1  0
 20 63  1  0
 20 64  1  0
 21 65  1  0
 21 66  1  0
 21 67  1  0
 22 68  1  0
 22 69  1  0
 23 70  1  0
 23 71  1  0
 23 72  1  0
 24 73  1  0
 24 74  1  0
 25 75  1  0
 25 76  1  0
 25 77  1  0
 28 78  1  0
 28 79  1  0
 29 80  1  0
 29 81  1  0
 31 82  1  0
 31 83  1  0
 32 84  1  0
 32 85  1  0
 32 86  1  0
 33 87  1  0
 33 88  1  0
 34 89  1  0
 34 90  1  0
 34 91  1  0
 35 92  1  0
 35 93  1  0
 36 94  1  0
 36 95  1  0
 36 96  1  0
M  CHG  3   3   1  19   1  30   1
M  END
> <ID>
HT0960

> <Class>
0.0

> <Clusters>
207

> <Fold>
2

$$$$