
     RDKit          3D

 43 46  0  0  0  0  0  0  0  0999 V2000
    3.4029   -1.8823    0.3696 C   0  0  0  0  0  0  0  0  0  0  0  0
    2.6134   -0.8312   -0.2762 N   0  0  0  0  0  0  0  0  0  0  0  0
    2.3495   -0.9057   -1.6843 C   0  0  0  0  0  0  0  0  0  0  0  0
    3.0606   -1.6288   -2.4335 O   0  0  0  0  0  0  0  0  0  0  0  0
    1.1799   -0.1770   -2.2462 C   0  0  0  0  0  0  0  0  0  0  0  0
    0.0052   -0.5664   -1.4630 N   0  0  0  0  0  0  0  0  0  0  0  0
   -0.7619   -1.7128   -1.8783 C   0  0  0  0  0  0  0  0  0  0  0  0
   -0.8732   -2.0109   -3.0977 O   0  0  0  0  0  0  0  0  0  0  0  0
   -1.3800   -2.5658   -0.8602 C   0  0  0  0  0  0  0  0  0  0  0  0
   -1.1911   -2.2725    0.4286 C   0  0  0  0  0  0  0  0  0  0  0  0
   -1.7003   -3.1835    1.4985 C   0  0  0  0  0  0  0  0  0  0  0  0
   -0.4933   -1.1098    0.7907 O   0  0  0  0  0  0  0  0  0  0  0  0
   -0.2807   -0.0142   -0.1138 C   0  0  0  0  0  0  0  0  0  0  0  0
   -1.5698    0.8104   -0.2277 C   0  0  0  0  0  0  0  0  0  0  0  0
   -1.7235    1.7367   -1.2798 C   0  0  0  0  0  0  0  0  0  0  0  0
   -2.8780    2.5178   -1.3791 C   0  0  0  0  0  0  0  0  0  0  0  0
   -3.8885    2.3994   -0.4238 C   0  0  0  0  0  0  0  0  0  0  0  0
   -3.7424    1.5066    0.6389 C   0  0  0  0  0  0  0  0  0  0  0  0
   -2.5900    0.7225    0.7444 C   0  0  0  0  0  0  0  0  0  0  0  0
    0.8817    0.8217    0.4747 C   0  0  0  0  0  0  0  0  0  0  0  0
    0.6122    2.0011    1.2159 C   0  0  0  0  0  0  0  0  0  0  0  0
    1.6314    2.7075    1.8571 C   0  0  0  0  0  0  0  0  0  0  0  0
    1.2573    4.1711    2.7503 Cl  0  0  0  0  0  0  0  0  0  0  0  0
    2.9415    2.2450    1.8034 C   0  0  0  0  0  0  0  0  0  0  0  0
    3.2367    1.0743    1.1129 C   0  0  0  0  0  0  0  0  0  0  0  0
    2.2286    0.3470    0.4572 C   0  0  0  0  0  0  0  0  0  0  0  0
    4.4246   -1.9084   -0.0646 H   0  0  0  0  0  0  0  0  0  0  0  0
    3.4826   -1.7075    1.4641 H   0  0  0  0  0  0  0  0  0  0  0  0
    2.9112   -2.8657    0.2135 H   0  0  0  0  0  0  0  0  0  0  0  0
    1.3451    0.9195   -2.1854 H   0  0  0  0  0  0  0  0  0  0  0  0
    1.0461   -0.4273   -3.3209 H   0  0  0  0  0  0  0  0  0  0  0  0
   -1.9247   -3.4549   -1.1552 H   0  0  0  0  0  0  0  0  0  0  0  0
   -1.1818   -4.1636    1.4371 H   0  0  0  0  0  0  0  0  0  0  0  0
   -2.7943   -3.3351    1.3796 H   0  0  0  0  0  0  0  0  0  0  0  0
   -1.5098   -2.7391    2.4980 H   0  0  0  0  0  0  0  0  0  0  0  0
   -0.9476    1.8596   -2.0235 H   0  0  0  0  0  0  0  0  0  0  0  0
   -2.9869    3.2196   -2.1957 H   0  0  0  0  0  0  0  0  0  0  0  0
   -4.7812    3.0066   -0.5018 H   0  0  0  0  0  0  0  0  0  0  0  0
   -4.5208    1.4262    1.3866 H   0  0  0  0  0  0  0  0  0  0  0  0
   -2.4975    0.0585    1.5934 H   0  0  0  0  0  0  0  0  0  0  0  0
   -0.3916    2.3856    1.3215 H   0  0  0  0  0  0  0  0  0  0  0  0
    3.7338    2.7908    2.3000 H   0  0  0  0  0  0  0  0  0  0  0  0
    4.2644    0.7349    1.0746 H   0  0  0  0  0  0  0  0  0  0  0  0
  1  2  1  0
  2  3  1  0
  3  4  2  0
  3  5  1  0
  5  6  1  0
  6  7  1  0
  7  8  2  0
  7  9  1  0
  9 10  2  0
 10 11  1  0
 10 12  1  0
 12 13  1  0
 13  6  1  0
 13 14  1  0
 14 15  2  0
 15 16  1  0
 16 17  2  0
 17 18  1  0
 18 19  2  0
 19 14  1  0
 13 20  1  0
 20 21  2  0
 21 22  1  0
 22 23  1  0
 22 24  2  0
 24 25  1  0
 25 26  2  0
 26  2  1  0
 26 20  1  0
  1 27  1  0
  1 28  1  0
  1 29  1  0
  5 30  1  0
  5 31  1  0
  9 32  1  0
 11 33  1  0
 11 34  1  0
 11 35  1  0
 15 36  1  0
 16 37  1  0
 17 38  1  0
 18 39  1  0
 19 40  1  0
 21 41  1  0
 24 42  1  0
 25 43  1  0
M  END
> <ID>
HT1158

> <Class>
0.0

> <Clusters>
105

> <Fold>
2

$$$$