
     RDKit          3D

 34 36  0  0  0  0  0  0  0  0999 V2000
    2.3961   -0.3639   -1.4940 C   0  0  0  0  0  0  0  0  0  0  0  0
    2.8812    0.0642   -0.1030 C   0  0  0  0  0  0  0  0  0  0  0  0
    4.0914   -0.7787    0.3163 C   0  0  0  0  0  0  0  0  0  0  0  0
    1.7675   -0.0257    0.9625 C   0  0  0  0  0  0  0  0  0  0  0  0
    0.6687    0.9027    0.6664 N   0  0  0  0  0  0  0  0  0  0  0  0
    0.7527    2.2335    0.9184 C   0  0  0  0  0  0  0  0  0  0  0  0
   -0.4289    2.8816    0.8180 N   0  0  0  0  0  0  0  0  0  0  0  0
   -1.2837    1.9026    0.4797 C   0  0  0  0  0  0  0  0  0  0  0  0
   -2.6611    2.0198    0.3185 C   0  0  0  0  0  0  0  0  0  0  0  0
   -3.3283    3.2733    0.4726 N   0  0  0  0  0  0  0  0  0  0  0  0
   -3.3733    0.8973    0.0284 N   0  0  0  0  0  0  0  0  0  0  0  0
   -2.7793   -0.3226   -0.1366 C   0  0  0  0  0  0  0  0  0  0  0  0
   -3.5740   -1.4260   -0.4658 C   0  0  0  0  0  0  0  0  0  0  0  0
   -2.9866   -2.6668   -0.7092 C   0  0  0  0  0  0  0  0  0  0  0  0
   -1.6004   -2.8068   -0.6512 C   0  0  0  0  0  0  0  0  0  0  0  0
   -0.7908   -1.7168   -0.3179 C   0  0  0  0  0  0  0  0  0  0  0  0
   -1.3637   -0.4680   -0.0066 C   0  0  0  0  0  0  0  0  0  0  0  0
   -0.6400    0.6958    0.3628 C   0  0  0  0  0  0  0  0  0  0  0  0
    2.1916   -1.4542   -1.5251 H   0  0  0  0  0  0  0  0  0  0  0  0
    1.4783    0.1913   -1.7803 H   0  0  0  0  0  0  0  0  0  0  0  0
    3.1788   -0.1390   -2.2495 H   0  0  0  0  0  0  0  0  0  0  0  0
    3.2153    1.1234   -0.1695 H   0  0  0  0  0  0  0  0  0  0  0  0
    4.9025   -0.6876   -0.4375 H   0  0  0  0  0  0  0  0  0  0  0  0
    3.8086   -1.8492    0.4124 H   0  0  0  0  0  0  0  0  0  0  0  0
    4.4872   -0.4236    1.2917 H   0  0  0  0  0  0  0  0  0  0  0  0
    2.2033    0.2647    1.9445 H   0  0  0  0  0  0  0  0  0  0  0  0
    1.4197   -1.0582    1.1277 H   0  0  0  0  0  0  0  0  0  0  0  0
    1.6652    2.7269    1.2287 H   0  0  0  0  0  0  0  0  0  0  0  0
   -2.7981    4.1436    0.7007 H   0  0  0  0  0  0  0  0  0  0  0  0
   -4.3640    3.3334    0.3553 H   0  0  0  0  0  0  0  0  0  0  0  0
   -4.6486   -1.3190   -0.5493 H   0  0  0  0  0  0  0  0  0  0  0  0
   -3.6050   -3.5154   -0.9716 H   0  0  0  0  0  0  0  0  0  0  0  0
   -1.1479   -3.7621   -0.8847 H   0  0  0  0  0  0  0  0  0  0  0  0
    0.2655   -1.8705   -0.3752 H   0  0  0  0  0  0  0  0  0  0  0  0
  1  2  1  0
  2  3  1  0
  2  4  1  0
  4  5  1  0
  5  6  1  0
  6  7  2  0
  7  8  1  0
  8  9  2  0
  9 10  1  0
  9 11  1  0
 11 12  2  0
 12 13  1  0
 13 14  2  0
 14 15  1  0
 15 16  2  0
 16 17  1  0
 17 12  1  0
 17 18  2  0
 18  5  1  0
 18  8  1  0
  1 19  1  0
  1 20  1  0
  1 21  1  0
  2 22  1  0
  3 23  1  0
  3 24  1  0
  3 25  1  0
  4 26  1  0
  4 27  1  0
  6 28  1  0
 10 29  1  0
 10 30  1  0
 13 31  1  0
 14 32  1  0
 15 33  1  0
 16 34  1  0
M  END
> <ID>
HT1084

> <Class>
0.0

> <Clusters>
72

> <Fold>
2

$$$$