
     RDKit          3D

 22 21  0  0  0  0  0  0  0  0999 V2000
   -3.4194    0.3174   -1.4083 N   0  0  0  0  0  0  0  0  0  0  0  0
   -2.6584   -0.1121   -0.2394 C   0  0  0  0  0  0  0  0  0  0  0  0
   -1.1898    0.2952   -0.3873 C   0  0  0  0  0  0  0  0  0  0  0  0
   -0.3625   -0.1792    0.8169 C   0  0  0  0  0  0  0  0  0  0  0  0
    1.0891    0.3242    0.7739 C   0  0  0  0  0  0  0  0  0  0  0  0
    1.9260   -0.3731   -0.3124 C   0  0  0  0  0  0  0  0  0  0  0  0
    3.3754    0.0327   -0.2877 C   0  0  0  0  0  0  0  0  0  0  0  0
    3.8025    0.8761    0.5459 O   0  0  0  0  0  0  0  0  0  0  0  0
    4.2643   -0.5266   -1.2002 O   0  0  0  0  0  0  0  0  0  0  0  0
   -3.4891    1.3610   -1.3878 H   0  0  0  0  0  0  0  0  0  0  0  0
   -4.3942   -0.0466   -1.3044 H   0  0  0  0  0  0  0  0  0  0  0  0
   -3.0905    0.3451    0.6793 H   0  0  0  0  0  0  0  0  0  0  0  0
   -2.7261   -1.2187   -0.1484 H   0  0  0  0  0  0  0  0  0  0  0  0
   -1.1253    1.4023   -0.4701 H   0  0  0  0  0  0  0  0  0  0  0  0
   -0.7903   -0.1544   -1.3210 H   0  0  0  0  0  0  0  0  0  0  0  0
   -0.8312    0.2083    1.7481 H   0  0  0  0  0  0  0  0  0  0  0  0
   -0.3748   -1.2900    0.8715 H   0  0  0  0  0  0  0  0  0  0  0  0
    1.1010    1.4250    0.6142 H   0  0  0  0  0  0  0  0  0  0  0  0
    1.5494    0.1199    1.7657 H   0  0  0  0  0  0  0  0  0  0  0  0
    1.5215   -0.1262   -1.3157 H   0  0  0  0  0  0  0  0  0  0  0  0
    1.8696   -1.4740   -0.1721 H   0  0  0  0  0  0  0  0  0  0  0  0
    3.9528   -1.2062   -1.8839 H   0  0  0  0  0  0  0  0  0  0  0  0
  1  2  1  0
  2  3  1  0
  3  4  1  0
  4  5  1  0
  5  6  1  0
  6  7  1  0
  7  8  2  0
  7  9  1  0
  1 10  1  0
  1 11  1  0
  2 12  1  0
  2 13  1  0
  3 14  1  0
  3 15  1  0
  4 16  1  0
  4 17  1  0
  5 18  1  0
  5 19  1  0
  6 20  1  0
  6 21  1  0
  9 22  1  0
M  END
> <ID>
HT0133

> <Class>
0.0

> <Clusters>
252

> <Fold>
2

$$$$