
     RDKit          3D

 20 21  0  0  0  0  0  0  0  0999 V2000
    3.7117   -0.3902    0.1600 N   0  0  0  0  0  0  0  0  0  0  0  0
    2.3715   -0.7426   -0.0690 N   0  0  0  0  0  0  0  0  0  0  0  0
    1.3083    0.2175    0.0931 C   0  0  0  0  0  0  0  0  0  0  0  0
    1.6364    1.5076    0.3809 N   0  0  0  0  0  0  0  0  0  0  0  0
    0.7199    2.4622    0.5333 N   0  0  0  0  0  0  0  0  0  0  0  0
   -0.6029    2.2013    0.4084 C   0  0  0  0  0  0  0  0  0  0  0  0
   -1.0264    0.9030    0.1191 C   0  0  0  0  0  0  0  0  0  0  0  0
   -2.3946    0.6180   -0.0075 C   0  0  0  0  0  0  0  0  0  0  0  0
   -2.8168   -0.6813   -0.2872 C   0  0  0  0  0  0  0  0  0  0  0  0
   -1.8801   -1.7030   -0.4387 C   0  0  0  0  0  0  0  0  0  0  0  0
   -0.5137   -1.4341   -0.3161 C   0  0  0  0  0  0  0  0  0  0  0  0
   -0.0624   -0.1237   -0.0410 C   0  0  0  0  0  0  0  0  0  0  0  0
    3.9500    0.4008   -0.4808 H   0  0  0  0  0  0  0  0  0  0  0  0
    3.7885   -0.0471    1.1447 H   0  0  0  0  0  0  0  0  0  0  0  0
    2.1908   -1.7178   -0.3831 H   0  0  0  0  0  0  0  0  0  0  0  0
   -1.3167    3.0055    0.5384 H   0  0  0  0  0  0  0  0  0  0  0  0
   -3.1360    1.3993    0.1119 H   0  0  0  0  0  0  0  0  0  0  0  0
   -3.8730   -0.8978   -0.3832 H   0  0  0  0  0  0  0  0  0  0  0  0
   -2.2144   -2.7107   -0.6502 H   0  0  0  0  0  0  0  0  0  0  0  0
    0.1600   -2.2670   -0.4331 H   0  0  0  0  0  0  0  0  0  0  0  0
  1  2  1  0
  2  3  1  0
  3  4  2  0
  4  5  1  0
  5  6  2  0
  6  7  1  0
  7  8  2  0
  8  9  1  0
  9 10  2  0
 10 11  1  0
 11 12  2  0
 12  3  1  0
 12  7  1  0
  1 13  1  0
  1 14  1  0
  2 15  1  0
  6 16  1  0
  8 17  1  0
  9 18  1  0
 10 19  1  0
 11 20  1  0
M  END
> <ID>
HT1042

> <Class>
0.0

> <Clusters>
253

> <Fold>
2

$$$$