
     RDKit          3D

 18 17  0  0  0  0  0  0  0  0999 V2000
   -2.5971   -0.4474   -0.8641 N   0  0  0  0  0  0  0  0  0  0  0  0
   -2.3340   -0.4871    0.5725 C   0  0  0  0  0  0  0  0  0  0  0  0
   -0.8880   -0.1952    0.8916 C   0  0  0  0  0  0  0  0  0  0  0  0
   -0.5535   -0.1539    2.0669 O   0  0  0  0  0  0  0  0  0  0  0  0
    0.1320    0.0593   -0.1994 C   0  0  0  0  0  0  0  0  0  0  0  0
    1.5680    0.1909    0.3370 C   0  0  0  0  0  0  0  0  0  0  0  0
    2.5826    0.4283   -0.7494 C   0  0  0  0  0  0  0  0  0  0  0  0
    2.2366    0.5063   -1.9588 O   0  0  0  0  0  0  0  0  0  0  0  0
    3.9274    0.5653   -0.4200 O   0  0  0  0  0  0  0  0  0  0  0  0
   -3.5715   -0.7942   -1.0186 H   0  0  0  0  0  0  0  0  0  0  0  0
   -2.5903    0.5532   -1.1693 H   0  0  0  0  0  0  0  0  0  0  0  0
   -2.9814    0.2539    1.0923 H   0  0  0  0  0  0  0  0  0  0  0  0
   -2.5820   -1.4986    0.9616 H   0  0  0  0  0  0  0  0  0  0  0  0
   -0.1454    0.9954   -0.7307 H   0  0  0  0  0  0  0  0  0  0  0  0
    0.0943   -0.7847   -0.9221 H   0  0  0  0  0  0  0  0  0  0  0  0
    1.6185    1.0409    1.0514 H   0  0  0  0  0  0  0  0  0  0  0  0
    1.8457   -0.7402    0.8767 H   0  0  0  0  0  0  0  0  0  0  0  0
    4.2381    0.5079    0.5425 H   0  0  0  0  0  0  0  0  0  0  0  0
  1  2  1  0
  2  3  1  0
  3  4  2  0
  3  5  1  0
  5  6  1  0
  6  7  1  0
  7  8  2  0
  7  9  1  0
  1 10  1  0
  1 11  1  0
  2 12  1  0
  2 13  1  0
  5 14  1  0
  5 15  1  0
  6 16  1  0
  6 17  1  0
  9 18  1  0
M  END
> <ID>
HT0136

> <Class>
0.0

> <Clusters>
166

> <Fold>
2

$$$$