
     RDKit          3D

 20 21  0  0  0  0  0  0  0  0999 V2000
   -2.4692   -0.8692   -0.2676 O   0  0  0  0  0  0  0  0  0  0  0  0
   -1.6543   -0.0079    0.4838 C   0  0  2  0  0  0  0  0  0  0  0  0
   -1.4085    1.2896   -0.2552 C   0  0  0  0  0  0  0  0  0  0  0  0
   -0.1300    1.7693    0.0898 O   0  0  0  0  0  0  0  0  0  0  0  0
    0.6146    0.6825    0.6050 C   0  0  2  0  0  0  0  0  0  0  0  0
    1.7170    0.2916   -0.3490 C   0  0  1  0  0  0  0  0  0  0  0  0
    2.8718   -0.1226    0.3427 O   0  0  0  0  0  0  0  0  0  0  0  0
    1.1018   -0.8544   -1.1338 C   0  0  0  0  0  0  0  0  0  0  0  0
    0.0952   -1.4559   -0.3533 O   0  0  0  0  0  0  0  0  0  0  0  0
   -0.2601   -0.5516    0.6763 C   0  0  2  0  0  0  0  0  0  0  0  0
   -2.7114   -1.6201    0.3348 H   0  0  0  0  0  0  0  0  0  0  0  0
   -2.1200    0.2140    1.4729 H   0  0  0  0  0  0  0  0  0  0  0  0
   -1.4453    1.1290   -1.3556 H   0  0  0  0  0  0  0  0  0  0  0  0
   -2.1776    2.0430    0.0180 H   0  0  0  0  0  0  0  0  0  0  0  0
    1.0127    0.9568    1.6074 H   0  0  0  0  0  0  0  0  0  0  0  0
    1.9891    1.1315   -1.0255 H   0  0  0  0  0  0  0  0  0  0  0  0
    2.6255   -0.8881    0.9267 H   0  0  0  0  0  0  0  0  0  0  0  0
    1.8682   -1.6106   -1.4080 H   0  0  0  0  0  0  0  0  0  0  0  0
    0.6444   -0.4676   -2.0707 H   0  0  0  0  0  0  0  0  0  0  0  0
   -0.1641   -1.0595    1.6613 H   0  0  0  0  0  0  0  0  0  0  0  0
  2  1  1  0
  2  3  1  0
  3  4  1  0
  5  4  1  0
  5  6  1  0
  6  7  1  0
  6  8  1  0
  8  9  1  0
 10  9  1  0
 10  2  1  0
 10  5  1  0
  1 11  1  0
  2 12  1  1
  3 13  1  0
  3 14  1  0
  5 15  1  1
  6 16  1  6
  7 17  1  0
  8 18  1  0
  8 19  1  0
 10 20  1  1
M  END
> <ID>
HT1138

> <Class>
0.0

> <Clusters>
139

> <Fold>
2

$$$$