
     RDKit          3D

 47 49  0  0  0  0  0  0  0  0999 V2000
    4.8105   -1.9149   -0.4186 C   0  0  0  0  0  0  0  0  0  0  0  0
    4.2751   -0.4952   -0.6668 C   0  0  0  0  0  0  0  0  0  0  0  0
    4.6686    0.4643    0.4631 C   0  0  0  0  0  0  0  0  0  0  0  0
    2.8200   -0.4594   -0.9196 N   0  0  0  0  0  0  0  0  0  0  0  0
    2.0052   -1.1442    0.0976 C   0  0  0  0  0  0  0  0  0  0  0  0
    0.5380   -0.7249   -0.0311 C   0  0  0  0  0  0  0  0  0  0  0  0
    0.3426    0.7710    0.2962 C   0  0  0  0  0  0  0  0  0  0  0  0
   -1.1348    1.2475    0.2268 C   0  0  0  0  0  0  0  0  0  0  0  0
   -1.2572    2.7409    0.5010 C   0  0  0  0  0  0  0  0  0  0  0  0
   -1.9103    3.4804   -0.2857 O   0  0  0  0  0  0  0  0  0  0  0  0
   -0.6657    3.3332    1.6607 N   0  0  0  0  0  0  0  0  0  0  0  0
   -2.0399    0.4667    1.1615 C   0  0  0  0  0  0  0  0  0  0  0  0
   -1.9485    0.3379    2.5529 C   0  0  0  0  0  0  0  0  0  0  0  0
   -2.8892   -0.4612    3.2226 C   0  0  0  0  0  0  0  0  0  0  0  0
   -3.8996   -1.1272    2.5038 C   0  0  0  0  0  0  0  0  0  0  0  0
   -3.9748   -1.0041    1.1084 C   0  0  0  0  0  0  0  0  0  0  0  0
   -3.0331   -0.2014    0.4637 C   0  0  0  0  0  0  0  0  0  0  0  0
   -2.8613    0.0603   -0.9481 C   0  0  0  0  0  0  0  0  0  0  0  0
   -3.5926   -0.4124   -2.0385 C   0  0  0  0  0  0  0  0  0  0  0  0
   -3.1923   -0.0230   -3.3262 C   0  0  0  0  0  0  0  0  0  0  0  0
   -2.0773    0.8192   -3.5005 C   0  0  0  0  0  0  0  0  0  0  0  0
   -1.3541    1.2796   -2.3882 C   0  0  0  0  0  0  0  0  0  0  0  0
   -1.7651    0.8880   -1.1089 C   0  0  0  0  0  0  0  0  0  0  0  0
    5.9213   -1.9025   -0.4117 H   0  0  0  0  0  0  0  0  0  0  0  0
    4.4747   -2.5960   -1.2291 H   0  0  0  0  0  0  0  0  0  0  0  0
    4.4620   -2.3114    0.5584 H   0  0  0  0  0  0  0  0  0  0  0  0
    4.7786   -0.1181   -1.5855 H   0  0  0  0  0  0  0  0  0  0  0  0
    4.2019    1.4584    0.2963 H   0  0  0  0  0  0  0  0  0  0  0  0
    5.7718    0.5945    0.4788 H   0  0  0  0  0  0  0  0  0  0  0  0
    4.3542    0.0797    1.4550 H   0  0  0  0  0  0  0  0  0  0  0  0
    2.6351   -0.9136   -1.8454 H   0  0  0  0  0  0  0  0  0  0  0  0
    2.0692   -2.2462   -0.0430 H   0  0  0  0  0  0  0  0  0  0  0  0
    2.3518   -0.9076    1.1252 H   0  0  0  0  0  0  0  0  0  0  0  0
    0.1911   -0.9456   -1.0634 H   0  0  0  0  0  0  0  0  0  0  0  0
   -0.0623   -1.3417    0.6716 H   0  0  0  0  0  0  0  0  0  0  0  0
    0.9467    1.3800   -0.4116 H   0  0  0  0  0  0  0  0  0  0  0  0
    0.7453    0.9533    1.3146 H   0  0  0  0  0  0  0  0  0  0  0  0
   -0.7735    4.3571    1.8342 H   0  0  0  0  0  0  0  0  0  0  0  0
   -0.1203    2.7737    2.3502 H   0  0  0  0  0  0  0  0  0  0  0  0
   -1.1644    0.8306    3.1095 H   0  0  0  0  0  0  0  0  0  0  0  0
   -2.8333   -0.5703    4.2979 H   0  0  0  0  0  0  0  0  0  0  0  0
   -4.6172   -1.7438    3.0292 H   0  0  0  0  0  0  0  0  0  0  0  0
   -4.7416   -1.5251    0.5506 H   0  0  0  0  0  0  0  0  0  0  0  0
   -4.4444   -1.0651   -1.9005 H   0  0  0  0  0  0  0  0  0  0  0  0
   -3.7417   -0.3747   -4.1898 H   0  0  0  0  0  0  0  0  0  0  0  0
   -1.7744    1.1120   -4.4974 H   0  0  0  0  0  0  0  0  0  0  0  0
   -0.4949    1.9240   -2.5202 H   0  0  0  0  0  0  0  0  0  0  0  0
  1  2  1  0
  2  3  1  0
  2  4  1  0
  4  5  1  0
  5  6  1  0
  6  7  1  0
  7  8  1  0
  8  9  1  0
  9 10  2  0
  9 11  1  0
  8 12  1  0
 12 13  2  0
 13 14  1  0
 14 15  2  0
 15 16  1  0
 16 17  2  0
 17 12  1  0
 17 18  1  0
 18 19  2  0
 19 20  1  0
 20 21  2  0
 21 22  1  0
 22 23  2  0
 23  8  1  0
 23 18  1  0
  1 24  1  0
  1 25  1  0
  1 26  1  0
  2 27  1  0
  3 28  1  0
  3 29  1  0
  3 30  1  0
  4 31  1  0
  5 32  1  0
  5 33  1  0
  6 34  1  0
  6 35  1  0
  7 36  1  0
  7 37  1  0
 11 38  1  0
 11 39  1  0
 13 40  1  0
 14 41  1  0
 15 42  1  0
 16 43  1  0
 19 44  1  0
 20 45  1  0
 21 46  1  0
 22 47  1  0
M  END
> <ID>
HT1090

> <Class>
0.0

> <Clusters>
152

> <Fold>
2

$$$$