
     RDKit          3D

 32 34  0  0  0  0  0  0  0  0999 V2000
    4.2022   -0.8001    1.1451 C   0  0  0  0  0  0  0  0  0  0  0  0
    3.4571    0.1185    0.3500 O   0  0  0  0  0  0  0  0  0  0  0  0
    2.1043   -0.0208   -0.0118 C   0  0  0  0  0  0  0  0  0  0  0  0
    1.3801   -1.0947    0.3784 C   0  0  0  0  0  0  0  0  0  0  0  0
    0.0017   -1.4396   -0.0619 C   0  0  0  0  0  0  0  0  0  0  0  0
   -0.2842   -2.8027   -0.2622 C   0  0  0  0  0  0  0  0  0  0  0  0
   -1.5552   -3.2177   -0.6626 C   0  0  0  0  0  0  0  0  0  0  0  0
   -2.5640   -2.2792   -0.8645 C   0  0  0  0  0  0  0  0  0  0  0  0
   -2.3090   -0.9250   -0.6506 C   0  0  0  0  0  0  0  0  0  0  0  0
   -1.0411   -0.4924   -0.2175 C   0  0  0  0  0  0  0  0  0  0  0  0
   -0.8133    0.9538   -0.0190 C   0  0  0  0  0  0  0  0  0  0  0  0
   -1.5698    1.7266    0.7888 C   0  0  0  0  0  0  0  0  0  0  0  0
   -2.5891    1.2366    1.7386 C   0  0  0  0  0  0  0  0  0  0  0  0
   -2.6325    0.0276    2.0923 O   0  0  0  0  0  0  0  0  0  0  0  0
   -3.4827    2.1453    2.2952 O   0  0  0  0  0  0  0  0  0  0  0  0
    0.2560    1.5655   -0.8159 C   0  0  0  0  0  0  0  0  0  0  0  0
    0.0839    2.7210   -1.5973 C   0  0  0  0  0  0  0  0  0  0  0  0
    1.2440    3.1386   -2.2337 C   0  0  0  0  0  0  0  0  0  0  0  0
    2.4800    2.0820   -1.8113 S   0  0  0  0  0  0  0  0  0  0  0  0
    1.5513    1.0624   -0.8467 C   0  0  0  0  0  0  0  0  0  0  0  0
    4.2469   -1.7906    0.6451 H   0  0  0  0  0  0  0  0  0  0  0  0
    3.7421   -0.8960    2.1513 H   0  0  0  0  0  0  0  0  0  0  0  0
    5.2367   -0.4182    1.2645 H   0  0  0  0  0  0  0  0  0  0  0  0
    1.8716   -1.8584    0.9654 H   0  0  0  0  0  0  0  0  0  0  0  0
    0.4867   -3.5511   -0.1220 H   0  0  0  0  0  0  0  0  0  0  0  0
   -1.7553   -4.2692   -0.8233 H   0  0  0  0  0  0  0  0  0  0  0  0
   -3.5459   -2.6009   -1.1869 H   0  0  0  0  0  0  0  0  0  0  0  0
   -3.1042   -0.2090   -0.8198 H   0  0  0  0  0  0  0  0  0  0  0  0
   -1.3950    2.7962    0.7979 H   0  0  0  0  0  0  0  0  0  0  0  0
   -4.1815    1.8443    2.9641 H   0  0  0  0  0  0  0  0  0  0  0  0
   -0.8593    3.2426   -1.6955 H   0  0  0  0  0  0  0  0  0  0  0  0
    1.3375    4.0048   -2.8744 H   0  0  0  0  0  0  0  0  0  0  0  0
  1  2  1  0
  2  3  1  0
  3  4  2  0
  4  5  1  0
  5  6  2  0
  6  7  1  0
  7  8  2  0
  8  9  1  0
  9 10  2  0
 10  5  1  0
 10 11  1  0
 11 12  2  0
 12 13  1  0
 13 14  2  0
 13 15  1  0
 11 16  1  0
 16 17  1  0
 17 18  2  0
 18 19  1  0
 19 20  1  0
 20  3  1  0
 20 16  2  0
  1 21  1  0
  1 22  1  0
  1 23  1  0
  4 24  1  0
  6 25  1  0
  7 26  1  0
  8 27  1  0
  9 28  1  0
 12 29  1  0
 15 30  1  0
 17 31  1  0
 18 32  1  0
M  END
> <ID>
HT1151

> <Class>
0.0

> <Clusters>
153

> <Fold>
2

$$$$