
     RDKit          3D

 24 25  0  0  0  0  0  0  0  0999 V2000
    4.4375   -0.5441   -0.4796 O   0  0  0  0  0  0  0  0  0  0  0  0
    3.8984    0.4645    0.2861 N   0  0  0  0  0  0  0  0  0  0  0  0
    4.6227    1.0718    1.0991 O   0  0  0  0  0  0  0  0  0  0  0  0
    2.5746    0.8314    0.1499 O   0  0  0  0  0  0  0  0  0  0  0  0
    1.6892    0.1594   -0.7454 C   0  0  1  0  0  0  0  0  0  0  0  0
    1.3324   -1.2272   -0.2483 C   0  0  0  0  0  0  0  0  0  0  0  0
    0.0262   -1.5298   -0.6751 O   0  0  0  0  0  0  0  0  0  0  0  0
   -0.6422   -0.3022   -0.8799 C   0  0  0  0  0  0  0  0  0  0  0  0
   -1.6077   -0.0171    0.2485 C   0  0  1  0  0  0  0  0  0  0  0  0
   -1.2545    1.3985    0.6560 C   0  0  0  0  0  0  0  0  0  0  0  0
    0.0905    1.6244    0.3196 O   0  0  0  0  0  0  0  0  0  0  0  0
    0.3484    0.8449   -0.8285 C   0  0  0  0  0  0  0  0  0  0  0  0
   -2.9595   -0.0862   -0.2079 O   0  0  0  0  0  0  0  0  0  0  0  0
   -3.8954   -0.9397    0.3437 N   0  0  0  0  0  0  0  0  0  0  0  0
   -5.0594   -0.9396   -0.1031 O   0  0  0  0  0  0  0  0  0  0  0  0
   -3.5675   -1.7969    1.3693 O   0  0  0  0  0  0  0  0  0  0  0  0
    2.1393    0.0991   -1.7620 H   0  0  0  0  0  0  0  0  0  0  0  0
    1.3674   -1.2663    0.8632 H   0  0  0  0  0  0  0  0  0  0  0  0
    2.0410   -1.9800   -0.6538 H   0  0  0  0  0  0  0  0  0  0  0  0
   -1.1580   -0.3213   -1.8660 H   0  0  0  0  0  0  0  0  0  0  0  0
   -1.4196   -0.7008    1.1059 H   0  0  0  0  0  0  0  0  0  0  0  0
   -1.8923    2.1382    0.1219 H   0  0  0  0  0  0  0  0  0  0  0  0
   -1.3950    1.5340    1.7495 H   0  0  0  0  0  0  0  0  0  0  0  0
    0.2838    1.4848   -1.7374 H   0  0  0  0  0  0  0  0  0  0  0  0
  1  2  1  0
  2  3  2  0
  2  4  1  0
  5  4  1  0
  5  6  1  0
  6  7  1  0
  7  8  1  0
  8  9  1  0
  9 10  1  0
 10 11  1  0
 11 12  1  0
 12  5  1  0
 12  8  1  0
  9 13  1  0
 13 14  1  0
 14 15  2  0
 14 16  1  0
  5 17  1  6
  6 18  1  0
  6 19  1  0
  8 20  1  0
  9 21  1  1
 10 22  1  0
 10 23  1  0
 12 24  1  0
M  CHG  4   1  -1   2   1  14   1  16  -1
M  END
> <ID>
HT1139

> <Class>
0.0

> <Clusters>
139

> <Fold>
2

$$$$