
     RDKit          3D

 32 32  0  0  0  0  0  0  0  0999 V2000
   -4.7650   -0.0342    0.0490 C   0  0  0  0  0  0  0  0  0  0  0  0
   -3.7674   -0.8214   -0.6815 N   0  0  0  0  0  0  0  0  0  0  0  0
   -4.1376   -2.0589   -1.3688 C   0  0  0  0  0  0  0  0  0  0  0  0
   -2.3985   -0.3918   -0.7353 C   0  0  0  0  0  0  0  0  0  0  0  0
   -2.0202    0.6946   -0.1334 N   0  0  0  0  0  0  0  0  0  0  0  0
   -0.6654    1.1608   -0.1529 C   0  0  0  0  0  0  0  0  0  0  0  0
   -0.3780    2.3671   -0.8042 C   0  0  0  0  0  0  0  0  0  0  0  0
   -1.9012    3.4930   -1.7523 I   0  0  0  0  0  0  0  0  0  0  0  0
    0.9321    2.8333   -0.8686 C   0  0  0  0  0  0  0  0  0  0  0  0
    1.9722    2.1244   -0.2669 C   0  0  0  0  0  0  0  0  0  0  0  0
    3.9259    2.9301   -0.5069 I   0  0  0  0  0  0  0  0  0  0  0  0
    1.7004    0.9345    0.4496 C   0  0  0  0  0  0  0  0  0  0  0  0
    2.8304    0.1702    1.1084 C   0  0  0  0  0  0  0  0  0  0  0  0
    3.4156   -0.8697    0.1467 C   0  0  0  0  0  0  0  0  0  0  0  0
    4.5504   -1.6121    0.7885 C   0  0  0  0  0  0  0  0  0  0  0  0
    4.3310   -2.3571    1.7799 O   0  0  0  0  0  0  0  0  0  0  0  0
    5.8476   -1.4952    0.2967 O   0  0  0  0  0  0  0  0  0  0  0  0
    0.3679    0.4449    0.4944 C   0  0  0  0  0  0  0  0  0  0  0  0
   -0.1256   -1.3335    1.5813 I   0  0  0  0  0  0  0  0  0  0  0  0
   -4.4732    0.0400    1.1179 H   0  0  0  0  0  0  0  0  0  0  0  0
   -4.8268    0.9862   -0.3849 H   0  0  0  0  0  0  0  0  0  0  0  0
   -5.7724   -0.4974   -0.0057 H   0  0  0  0  0  0  0  0  0  0  0  0
   -3.9145   -1.9653   -2.4526 H   0  0  0  0  0  0  0  0  0  0  0  0
   -5.2182   -2.2852   -1.2526 H   0  0  0  0  0  0  0  0  0  0  0  0
   -3.5558   -2.9070   -0.9496 H   0  0  0  0  0  0  0  0  0  0  0  0
   -1.6770   -0.9815   -1.2915 H   0  0  0  0  0  0  0  0  0  0  0  0
    1.1451    3.7518   -1.4003 H   0  0  0  0  0  0  0  0  0  0  0  0
    2.4823   -0.3217    2.0390 H   0  0  0  0  0  0  0  0  0  0  0  0
    3.6300    0.8630    1.4423 H   0  0  0  0  0  0  0  0  0  0  0  0
    3.7740   -0.3609   -0.7739 H   0  0  0  0  0  0  0  0  0  0  0  0
    2.6315   -1.5989   -0.1504 H   0  0  0  0  0  0  0  0  0  0  0  0
    6.0603   -0.9019   -0.4962 H   0  0  0  0  0  0  0  0  0  0  0  0
  1  2  1  0
  2  3  1  0
  2  4  1  0
  4  5  2  3
  5  6  1  0
  6  7  2  0
  7  8  1  0
  7  9  1  0
  9 10  2  0
 10 11  1  0
 10 12  1  0
 12 13  1  0
 13 14  1  0
 14 15  1  0
 15 16  2  0
 15 17  1  0
 12 18  2  0
 18  6  1  0
 18 19  1  0
  1 20  1  0
  1 21  1  0
  1 22  1  0
  3 23  1  0
  3 24  1  0
  3 25  1  0
  4 26  1  0
  9 27  1  0
 13 28  1  0
 13 29  1  0
 14 30  1  0
 14 31  1  0
 17 32  1  0
M  END
> <ID>
HT1119

> <Class>
0.0

> <Clusters>
135

> <Fold>
2

$$$$