
     RDKit          3D

 39 41  0  0  0  0  0  0  0  0999 V2000
    3.3815   -0.2719    1.0596 C   0  0  0  0  0  0  0  0  0  0  0  0
    1.9907    0.2029    0.5940 C   0  0  0  0  0  0  0  0  0  0  0  0
    0.8780   -0.6141    1.2820 C   0  0  0  0  0  0  0  0  0  0  0  0
   -0.4418   -0.2477    0.7474 N   0  0  0  0  0  0  0  0  0  0  0  0
   -1.2863   -1.2078    0.0758 C   0  0  0  0  0  0  0  0  0  0  0  0
   -1.4454   -2.5115    0.5790 C   0  0  0  0  0  0  0  0  0  0  0  0
   -2.3882   -3.3751    0.0128 C   0  0  0  0  0  0  0  0  0  0  0  0
   -3.1959   -2.9398   -1.0409 C   0  0  0  0  0  0  0  0  0  0  0  0
   -3.0555   -1.6430   -1.5410 C   0  0  0  0  0  0  0  0  0  0  0  0
   -2.0970   -0.7826   -0.9954 C   0  0  0  0  0  0  0  0  0  0  0  0
   -1.8431    0.8455   -1.7106 S   0  0  0  0  0  0  0  0  0  0  0  0
   -1.7335    1.6590   -0.1141 C   0  0  0  0  0  0  0  0  0  0  0  0
   -2.3426    2.8969    0.1015 C   0  0  0  0  0  0  0  0  0  0  0  0
   -2.1224    3.5750    1.3022 C   0  0  0  0  0  0  0  0  0  0  0  0
   -1.2949    3.0014    2.2716 C   0  0  0  0  0  0  0  0  0  0  0  0
   -0.7357    1.7805    2.0558 N   0  0  0  0  0  0  0  0  0  0  0  0
   -0.9382    1.0959    0.8959 C   0  0  0  0  0  0  0  0  0  0  0  0
    1.8117    0.1887   -0.8843 N   0  0  0  0  0  0  0  0  0  0  0  0
    2.4347    1.3539   -1.5320 C   0  0  0  0  0  0  0  0  0  0  0  0
    2.2380   -1.0597   -1.5409 C   0  0  0  0  0  0  0  0  0  0  0  0
    3.4819   -0.1154    2.1548 H   0  0  0  0  0  0  0  0  0  0  0  0
    4.1841    0.3076    0.5600 H   0  0  0  0  0  0  0  0  0  0  0  0
    3.5301   -1.3529    0.8541 H   0  0  0  0  0  0  0  0  0  0  0  0
    1.8764    1.2477    0.9628 H   0  0  0  0  0  0  0  0  0  0  0  0
    1.0772   -1.6956    1.1345 H   0  0  0  0  0  0  0  0  0  0  0  0
    0.8957   -0.4282    2.3781 H   0  0  0  0  0  0  0  0  0  0  0  0
   -0.8780   -2.8483    1.4362 H   0  0  0  0  0  0  0  0  0  0  0  0
   -2.5090   -4.3758    0.4071 H   0  0  0  0  0  0  0  0  0  0  0  0
   -3.9313   -3.6080   -1.4700 H   0  0  0  0  0  0  0  0  0  0  0  0
   -3.6754   -1.3162   -2.3662 H   0  0  0  0  0  0  0  0  0  0  0  0
   -2.9545    3.3480   -0.6691 H   0  0  0  0  0  0  0  0  0  0  0  0
   -2.5764    4.5423    1.4745 H   0  0  0  0  0  0  0  0  0  0  0  0
   -1.1107    3.5199    3.2030 H   0  0  0  0  0  0  0  0  0  0  0  0
    3.5403    1.3347   -1.4255 H   0  0  0  0  0  0  0  0  0  0  0  0
    2.0396    2.2958   -1.0946 H   0  0  0  0  0  0  0  0  0  0  0  0
    2.1804    1.3687   -2.6137 H   0  0  0  0  0  0  0  0  0  0  0  0
    1.8785   -1.0694   -2.5920 H   0  0  0  0  0  0  0  0  0  0  0  0
    1.7917   -1.9432   -1.0407 H   0  0  0  0  0  0  0  0  0  0  0  0
    3.3454   -1.1582   -1.5473 H   0  0  0  0  0  0  0  0  0  0  0  0
  1  2  1  0
  2  3  1  0
  3  4  1  0
  4  5  1  0
  5  6  2  0
  6  7  1  0
  7  8  2  0
  8  9  1  0
  9 10  2  0
 10  5  1  0
 10 11  1  0
 11 12  1  0
 12 13  2  0
 13 14  1  0
 14 15  2  0
 15 16  1  0
 16 17  2  0
 17  4  1  0
 17 12  1  0
  2 18  1  0
 18 19  1  0
 18 20  1  0
  1 21  1  0
  1 22  1  0
  1 23  1  0
  2 24  1  0
  3 25  1  0
  3 26  1  0
  6 27  1  0
  7 28  1  0
  8 29  1  0
  9 30  1  0
 13 31  1  0
 14 32  1  0
 15 33  1  0
 19 34  1  0
 19 35  1  0
 19 36  1  0
 20 37  1  0
 20 38  1  0
 20 39  1  0
M  END
> <ID>
HT1142

> <Class>
0.0

> <Clusters>
206

> <Fold>
2

$$$$