
     RDKit          3D

 33 33  0  0  0  0  0  0  0  0999 V2000
   -3.9089   -0.5494    0.8295 C   0  0  0  0  0  0  0  0  0  0  0  0
   -2.6104   -0.0472    0.1894 C   0  0  0  0  0  0  0  0  0  0  0  0
   -1.4638   -1.0470    0.4499 C   0  0  0  0  0  0  0  0  0  0  0  0
   -0.3149   -0.8261   -0.4465 N   0  0  0  0  0  0  0  0  0  0  0  0
   -0.3276   -1.3974   -1.7739 C   0  0  0  0  0  0  0  0  0  0  0  0
   -1.4208   -1.7365   -2.3032 O   0  0  0  0  0  0  0  0  0  0  0  0
    0.9427   -1.6220   -2.5405 C   0  0  0  0  0  0  0  0  0  0  0  0
    0.9124   -0.3063    0.1030 C   0  0  0  0  0  0  0  0  0  0  0  0
    1.6721   -1.0905    0.9921 C   0  0  0  0  0  0  0  0  0  0  0  0
    1.1593   -3.0945    1.4642 I   0  0  0  0  0  0  0  0  0  0  0  0
    2.8399   -0.5782    1.5520 C   0  0  0  0  0  0  0  0  0  0  0  0
    3.2817    0.7056    1.2347 C   0  0  0  0  0  0  0  0  0  0  0  0
    5.0631    1.3636    2.1841 I   0  0  0  0  0  0  0  0  0  0  0  0
    2.5587    1.4972    0.3174 C   0  0  0  0  0  0  0  0  0  0  0  0
    3.0262    2.8130   -0.0216 N   0  0  0  0  0  0  0  0  0  0  0  0
    1.3744    0.9793   -0.2623 C   0  0  0  0  0  0  0  0  0  0  0  0
    0.3110    2.0917   -1.7442 I   0  0  0  0  0  0  0  0  0  0  0  0
   -2.2884    1.3168    0.7373 C   0  0  0  0  0  0  0  0  0  0  0  0
   -2.4613    2.3388    0.0211 O   0  0  0  0  0  0  0  0  0  0  0  0
   -1.8449    1.4612    2.0493 O   0  0  0  0  0  0  0  0  0  0  0  0
   -3.7835   -0.6780    1.9265 H   0  0  0  0  0  0  0  0  0  0  0  0
   -4.7326    0.1734    0.6441 H   0  0  0  0  0  0  0  0  0  0  0  0
   -4.2029   -1.5246    0.3857 H   0  0  0  0  0  0  0  0  0  0  0  0
   -2.7874    0.0324   -0.9056 H   0  0  0  0  0  0  0  0  0  0  0  0
   -1.1494   -0.9776    1.5150 H   0  0  0  0  0  0  0  0  0  0  0  0
   -1.8296   -2.0887    0.3104 H   0  0  0  0  0  0  0  0  0  0  0  0
    0.7376   -2.1793   -3.4791 H   0  0  0  0  0  0  0  0  0  0  0  0
    1.6513   -2.2159   -1.9266 H   0  0  0  0  0  0  0  0  0  0  0  0
    1.4087   -0.6505   -2.8013 H   0  0  0  0  0  0  0  0  0  0  0  0
    3.4149   -1.1878    2.2371 H   0  0  0  0  0  0  0  0  0  0  0  0
    3.9422    3.1767    0.3168 H   0  0  0  0  0  0  0  0  0  0  0  0
    2.4659    3.4713   -0.6025 H   0  0  0  0  0  0  0  0  0  0  0  0
   -1.6357    2.3766    2.4291 H   0  0  0  0  0  0  0  0  0  0  0  0
  1  2  1  0
  2  3  1  0
  3  4  1  0
  4  5  1  0
  5  6  2  0
  5  7  1  0
  4  8  1  0
  8  9  2  0
  9 10  1  0
  9 11  1  0
 11 12  2  0
 12 13  1  0
 12 14  1  0
 14 15  1  0
 14 16  2  0
 16  8  1  0
 16 17  1  0
  2 18  1  0
 18 19  2  0
 18 20  1  0
  1 21  1  0
  1 22  1  0
  1 23  1  0
  2 24  1  0
  3 25  1  0
  3 26  1  0
  7 27  1  0
  7 28  1  0
  7 29  1  0
 11 30  1  0
 15 31  1  0
 15 32  1  0
 20 33  1  0
M  END
> <ID>
HT1101

> <Class>
0.0

> <Clusters>
135

> <Fold>
2

$$$$