
     RDKit          3D

 29 29  0  0  0  0  0  0  0  0999 V2000
    3.6369    1.1570    0.1767 C   0  0  0  0  0  0  0  0  0  0  0  0
    3.0346   -0.2310    0.4023 C   0  0  0  0  0  0  0  0  0  0  0  0
    1.5741   -0.3389   -0.0933 C   0  0  0  0  0  0  0  0  0  0  0  0
    0.5819    0.3617    0.8688 C   0  0  0  0  0  0  0  0  0  0  0  0
   -0.8117    0.4747    0.2686 C   0  0  0  0  0  0  0  0  0  0  0  0
   -1.0637    1.4617   -0.7135 C   0  0  0  0  0  0  0  0  0  0  0  0
    0.3741    2.9021   -1.3379 I   0  0  0  0  0  0  0  0  0  0  0  0
   -2.3197    1.5585   -1.3057 C   0  0  0  0  0  0  0  0  0  0  0  0
   -3.3519    0.6990   -0.9440 C   0  0  0  0  0  0  0  0  0  0  0  0
   -5.1971    0.9420   -1.9670 I   0  0  0  0  0  0  0  0  0  0  0  0
   -3.1445   -0.2779    0.0492 C   0  0  0  0  0  0  0  0  0  0  0  0
   -4.2206   -1.1564    0.4184 N   0  0  0  0  0  0  0  0  0  0  0  0
   -1.8742   -0.3827    0.6727 C   0  0  0  0  0  0  0  0  0  0  0  0
   -1.6121   -1.7971    2.2641 I   0  0  0  0  0  0  0  0  0  0  0  0
    1.2026   -1.7908   -0.2779 C   0  0  0  0  0  0  0  0  0  0  0  0
    0.7878   -2.1909   -1.3977 O   0  0  0  0  0  0  0  0  0  0  0  0
    1.3221   -2.7056    0.7660 O   0  0  0  0  0  0  0  0  0  0  0  0
    4.7085    1.1446    0.4672 H   0  0  0  0  0  0  0  0  0  0  0  0
    3.1233    1.9210    0.7947 H   0  0  0  0  0  0  0  0  0  0  0  0
    3.5680    1.4413   -0.8948 H   0  0  0  0  0  0  0  0  0  0  0  0
    3.0978   -0.4829    1.4833 H   0  0  0  0  0  0  0  0  0  0  0  0
    3.6674   -0.9607   -0.1505 H   0  0  0  0  0  0  0  0  0  0  0  0
    1.5162    0.1481   -1.0909 H   0  0  0  0  0  0  0  0  0  0  0  0
    0.9345    1.3821    1.1183 H   0  0  0  0  0  0  0  0  0  0  0  0
    0.5817   -0.1615    1.8428 H   0  0  0  0  0  0  0  0  0  0  0  0
   -2.4969    2.3148   -2.0597 H   0  0  0  0  0  0  0  0  0  0  0  0
   -4.0692   -2.0238    0.9746 H   0  0  0  0  0  0  0  0  0  0  0  0
   -5.2019   -0.9819    0.1140 H   0  0  0  0  0  0  0  0  0  0  0  0
    1.6522   -2.4265    1.6815 H   0  0  0  0  0  0  0  0  0  0  0  0
  1  2  1  0
  2  3  1  0
  3  4  1  0
  4  5  1  0
  5  6  2  0
  6  7  1  0
  6  8  1  0
  8  9  2  0
  9 10  1  0
  9 11  1  0
 11 12  1  0
 11 13  2  0
 13  5  1  0
 13 14  1  0
  3 15  1  0
 15 16  2  0
 15 17  1  0
  1 18  1  0
  1 19  1  0
  1 20  1  0
  2 21  1  0
  2 22  1  0
  3 23  1  0
  4 24  1  0
  4 25  1  0
  8 26  1  0
 12 27  1  0
 12 28  1  0
 17 29  1  0
M  END
> <ID>
HT1112

> <Class>
0.0

> <Clusters>
135

> <Fold>
2

$$$$