
     RDKit          3D

 46 49  0  0  0  0  0  0  0  0999 V2000
   -4.5988    1.9641   -1.4107 O   0  0  0  0  0  0  0  0  0  0  0  0
   -3.4911    1.7136   -0.6036 C   0  0  0  0  0  0  0  0  0  0  0  0
   -3.3019    2.4254    0.5822 C   0  0  0  0  0  0  0  0  0  0  0  0
   -2.1748    2.1891    1.3659 C   0  0  0  0  0  0  0  0  0  0  0  0
   -1.2268    1.2266    0.9862 C   0  0  0  0  0  0  0  0  0  0  0  0
   -0.0068    1.0550    1.8674 C   0  0  0  0  0  0  0  0  0  0  0  0
    1.0605    0.0919    1.3028 C   0  0  0  0  0  0  0  0  0  0  0  0
    0.4133   -1.1101    0.5867 C   0  0  0  0  0  0  0  0  0  0  0  0
   -0.4585   -1.9709    1.5363 C   0  0  0  0  0  0  0  0  0  0  0  0
   -1.0941   -3.1453    0.7858 C   0  0  0  0  0  0  0  0  0  0  0  0
   -1.8923   -2.6542   -0.4263 C   0  0  0  0  0  0  0  0  0  0  0  0
   -1.0008   -1.8229   -1.3586 C   0  0  0  0  0  0  0  0  0  0  0  0
   -0.3868   -0.5862   -0.6336 C   0  0  0  0  0  0  0  0  0  0  0  0
    0.6107    0.1144   -1.5868 C   0  0  0  0  0  0  0  0  0  0  0  0
    1.3970    1.2400   -0.8823 C   0  0  0  0  0  0  0  0  0  0  0  0
    2.0024    0.8185    0.4071 N   0  0  0  0  0  0  0  0  0  0  0  0
    3.2815    0.0996    0.2161 C   0  0  0  0  0  0  0  0  0  0  0  0
    4.3817    1.0818   -0.0796 C   0  0  0  0  0  0  0  0  0  0  0  0
    5.0936    1.0286   -1.2089 C   0  0  0  0  0  0  0  0  0  0  0  0
   -1.4390    0.4485   -0.1860 C   0  0  0  0  0  0  0  0  0  0  0  0
   -2.5617    0.7455   -0.9911 C   0  0  0  0  0  0  0  0  0  0  0  0
   -5.2907    2.6608   -1.1600 H   0  0  0  0  0  0  0  0  0  0  0  0
   -4.0193    3.1759    0.8890 H   0  0  0  0  0  0  0  0  0  0  0  0
   -2.0324    2.7683    2.2703 H   0  0  0  0  0  0  0  0  0  0  0  0
   -0.3483    0.6761    2.8555 H   0  0  0  0  0  0  0  0  0  0  0  0
    0.4594    2.0478    2.0515 H   0  0  0  0  0  0  0  0  0  0  0  0
    1.6228   -0.2896    2.1854 H   0  0  0  0  0  0  0  0  0  0  0  0
    1.2318   -1.7743    0.2270 H   0  0  0  0  0  0  0  0  0  0  0  0
   -1.2703   -1.3697    1.9973 H   0  0  0  0  0  0  0  0  0  0  0  0
    0.1736   -2.3703    2.3587 H   0  0  0  0  0  0  0  0  0  0  0  0
   -1.7714   -3.6975    1.4723 H   0  0  0  0  0  0  0  0  0  0  0  0
   -0.2998   -3.8484    0.4511 H   0  0  0  0  0  0  0  0  0  0  0  0
   -2.2847   -3.5323   -0.9829 H   0  0  0  0  0  0  0  0  0  0  0  0
   -2.7621   -2.0508   -0.0876 H   0  0  0  0  0  0  0  0  0  0  0  0
   -0.1808   -2.4820   -1.7231 H   0  0  0  0  0  0  0  0  0  0  0  0
   -1.5669   -1.5376   -2.2671 H   0  0  0  0  0  0  0  0  0  0  0  0
    0.0654    0.5461   -2.4548 H   0  0  0  0  0  0  0  0  0  0  0  0
    1.3325   -0.6244   -1.9981 H   0  0  0  0  0  0  0  0  0  0  0  0
    2.1768    1.6195   -1.5778 H   0  0  0  0  0  0  0  0  0  0  0  0
    0.7266    2.1062   -0.7020 H   0  0  0  0  0  0  0  0  0  0  0  0
    3.5802   -0.4354    1.1432 H   0  0  0  0  0  0  0  0  0  0  0  0
    3.1961   -0.6664   -0.5856 H   0  0  0  0  0  0  0  0  0  0  0  0
    4.6024    1.8554    0.6500 H   0  0  0  0  0  0  0  0  0  0  0  0
    4.8989    0.2704   -1.9613 H   0  0  0  0  0  0  0  0  0  0  0  0
    5.8803    1.7542   -1.3880 H   0  0  0  0  0  0  0  0  0  0  0  0
   -2.7274    0.2448   -1.9320 H   0  0  0  0  0  0  0  0  0  0  0  0
  1  2  1  0
  2  3  2  0
  3  4  1  0
  4  5  2  0
  5  6  1  0
  6  7  1  0
  7  8  1  0
  8  9  1  0
  9 10  1  0
 10 11  1  0
 11 12  1  0
 12 13  1  0
 13  8  1  0
 13 14  1  0
 14 15  1  0
 15 16  1  0
 16  7  1  0
 16 17  1  0
 17 18  1  0
 18 19  2  3
 13 20  1  0
 20  5  1  0
 20 21  2  0
 21  2  1  0
  1 22  1  0
  3 23  1  0
  4 24  1  0
  6 25  1  0
  6 26  1  0
  7 27  1  0
  8 28  1  0
  9 29  1  0
  9 30  1  0
 10 31  1  0
 10 32  1  0
 11 33  1  0
 11 34  1  0
 12 35  1  0
 12 36  1  0
 14 37  1  0
 14 38  1  0
 15 39  1  0
 15 40  1  0
 17 41  1  0
 17 42  1  0
 18 43  1  0
 19 44  1  0
 19 45  1  0
 21 46  1  0
M  END
> <ID>
HT1190

> <Class>
0.0

> <Clusters>
147

> <Fold>
2

$$$$