
     RDKit          3D

 40 41  0  0  0  0  0  0  0  0999 V2000
   -3.8910    1.5225   -0.0087 C   0  0  0  0  0  0  0  0  0  0  0  0
   -2.7149    0.8066   -0.5344 N   0  0  0  0  0  0  0  0  0  0  0  0
   -3.0913   -0.4898   -1.1648 C   0  0  0  0  0  0  0  0  0  0  0  0
   -2.6063   -1.7319   -0.3992 C   0  0  0  0  0  0  0  0  0  0  0  0
   -2.7371   -1.5215    1.1021 C   0  0  0  0  0  0  0  0  0  0  0  0
   -1.9026   -0.3230    1.5780 C   0  0  0  0  0  0  0  0  0  0  0  0
   -1.6233    0.7330    0.4723 C   0  0  0  0  0  0  0  0  0  0  0  0
   -0.2802    0.5140   -0.1921 C   0  0  0  0  0  0  0  0  0  0  0  0
   -0.2047    0.3419   -1.4399 O   0  0  0  0  0  0  0  0  0  0  0  0
    0.9192    0.5625    0.5941 N   0  0  0  0  0  0  0  0  0  0  0  0
    2.2133    0.2886    0.0353 C   0  0  0  0  0  0  0  0  0  0  0  0
    3.1801    1.3172   -0.0248 C   0  0  0  0  0  0  0  0  0  0  0  0
    2.8683    2.6963    0.4896 C   0  0  0  0  0  0  0  0  0  0  0  0
    4.4465    1.0483   -0.5666 C   0  0  0  0  0  0  0  0  0  0  0  0
    4.7506   -0.2217   -1.0548 C   0  0  0  0  0  0  0  0  0  0  0  0
    3.8041   -1.2434   -0.9898 C   0  0  0  0  0  0  0  0  0  0  0  0
    2.5403   -1.0096   -0.4261 C   0  0  0  0  0  0  0  0  0  0  0  0
    1.5566   -2.1463   -0.3485 C   0  0  0  0  0  0  0  0  0  0  0  0
   -4.6311    1.6875   -0.8210 H   0  0  0  0  0  0  0  0  0  0  0  0
   -4.3751    0.9521    0.8124 H   0  0  0  0  0  0  0  0  0  0  0  0
   -3.5994    2.5263    0.3675 H   0  0  0  0  0  0  0  0  0  0  0  0
   -4.1942   -0.5738   -1.2979 H   0  0  0  0  0  0  0  0  0  0  0  0
   -2.6630   -0.5208   -2.1889 H   0  0  0  0  0  0  0  0  0  0  0  0
   -1.5480   -1.9518   -0.6540 H   0  0  0  0  0  0  0  0  0  0  0  0
   -3.2101   -2.6140   -0.7042 H   0  0  0  0  0  0  0  0  0  0  0  0
   -3.8083   -1.3597    1.3533 H   0  0  0  0  0  0  0  0  0  0  0  0
   -2.4073   -2.4402    1.6341 H   0  0  0  0  0  0  0  0  0  0  0  0
   -2.4482    0.1679    2.4135 H   0  0  0  0  0  0  0  0  0  0  0  0
   -0.9491   -0.6947    2.0122 H   0  0  0  0  0  0  0  0  0  0  0  0
   -1.5265    1.7213    0.9762 H   0  0  0  0  0  0  0  0  0  0  0  0
    0.8690    0.9511    1.5627 H   0  0  0  0  0  0  0  0  0  0  0  0
    2.7798    2.6693    1.5958 H   0  0  0  0  0  0  0  0  0  0  0  0
    1.9121    3.0568    0.0546 H   0  0  0  0  0  0  0  0  0  0  0  0
    3.6627    3.4235    0.2175 H   0  0  0  0  0  0  0  0  0  0  0  0
    5.1996    1.8249   -0.6190 H   0  0  0  0  0  0  0  0  0  0  0  0
    5.7265   -0.4167   -1.4805 H   0  0  0  0  0  0  0  0  0  0  0  0
    4.0630   -2.2245   -1.3690 H   0  0  0  0  0  0  0  0  0  0  0  0
    0.9199   -2.1492   -1.2570 H   0  0  0  0  0  0  0  0  0  0  0  0
    2.0848   -3.1214   -0.2835 H   0  0  0  0  0  0  0  0  0  0  0  0
    0.9154   -2.0576    0.5535 H   0  0  0  0  0  0  0  0  0  0  0  0
  1  2  1  0
  2  3  1  0
  3  4  1  0
  4  5  1  0
  5  6  1  0
  6  7  1  0
  7  2  1  0
  7  8  1  0
  8  9  2  0
  8 10  1  0
 10 11  1  0
 11 12  2  0
 12 13  1  0
 12 14  1  0
 14 15  2  0
 15 16  1  0
 16 17  2  0
 17 11  1  0
 17 18  1  0
  1 19  1  0
  1 20  1  0
  1 21  1  0
  3 22  1  0
  3 23  1  0
  4 24  1  0
  4 25  1  0
  5 26  1  0
  5 27  1  0
  6 28  1  0
  6 29  1  0
  7 30  1  0
 10 31  1  0
 13 32  1  0
 13 33  1  0
 13 34  1  0
 14 35  1  0
 15 36  1  0
 16 37  1  0
 18 38  1  0
 18 39  1  0
 18 40  1  0
M  END
> <ID>
HT1310

> <Class>
0.0

> <Clusters>
38

> <Fold>
2

$$$$