
     RDKit          3D

 22 22  0  0  0  0  0  0  0  0999 V2000
   -3.4528    0.6650   -1.0290 N   0  0  0  0  0  0  0  0  0  0  0  0
   -3.0017   -0.2805   -0.0130 C   0  0  0  0  0  0  0  0  0  0  0  0
   -1.4982   -0.2960    0.0492 C   0  0  0  0  0  0  0  0  0  0  0  0
   -0.8255    0.1161    1.2109 C   0  0  0  0  0  0  0  0  0  0  0  0
    0.5716    0.0962    1.2612 C   0  0  0  0  0  0  0  0  0  0  0  0
    1.3118   -0.3418    0.1551 C   0  0  0  0  0  0  0  0  0  0  0  0
    0.6435   -0.7486   -1.0074 C   0  0  0  0  0  0  0  0  0  0  0  0
   -0.7534   -0.7292   -1.0593 C   0  0  0  0  0  0  0  0  0  0  0  0
    3.0711   -0.3505    0.2169 S   0  0  0  0  0  0  0  0  0  0  0  0
    3.6082   -1.4112   -0.7028 O   0  0  0  0  0  0  0  0  0  0  0  0
    3.5285   -0.6500    1.6173 O   0  0  0  0  0  0  0  0  0  0  0  0
    3.6707    1.1947   -0.2734 N   0  0  0  0  0  0  0  0  0  0  0  0
   -3.2370    1.6319   -0.6925 H   0  0  0  0  0  0  0  0  0  0  0  0
   -4.4946    0.5958   -1.0882 H   0  0  0  0  0  0  0  0  0  0  0  0
   -3.3617   -1.3005   -0.2705 H   0  0  0  0  0  0  0  0  0  0  0  0
   -3.4413   -0.0067    0.9726 H   0  0  0  0  0  0  0  0  0  0  0  0
   -1.3800    0.4568    2.0765 H   0  0  0  0  0  0  0  0  0  0  0  0
    1.0751    0.4245    2.1616 H   0  0  0  0  0  0  0  0  0  0  0  0
    1.2018   -1.0788   -1.8741 H   0  0  0  0  0  0  0  0  0  0  0  0
   -1.2558   -1.0502   -1.9635 H   0  0  0  0  0  0  0  0  0  0  0  0
    4.7090    1.1691   -0.1620 H   0  0  0  0  0  0  0  0  0  0  0  0
    3.3108    1.8937    0.4144 H   0  0  0  0  0  0  0  0  0  0  0  0
  1  2  1  0
  2  3  1  0
  3  4  2  0
  4  5  1  0
  5  6  2  0
  6  7  1  0
  7  8  2  0
  8  3  1  0
  6  9  1  0
  9 10  2  0
  9 11  2  0
  9 12  1  0
  1 13  1  0
  1 14  1  0
  2 15  1  0
  2 16  1  0
  4 17  1  0
  5 18  1  0
  7 19  1  0
  8 20  1  0
 12 21  1  0
 12 22  1  0
M  END
> <ID>
HT1262

> <Class>
0.0

> <Clusters>
238

> <Fold>
2

$$$$