
     RDKit          3D

 30 31  0  0  0  0  0  0  0  0999 V2000
   -1.6081   -2.6565   -0.5892 C   0  0  0  0  0  0  0  0  0  0  0  0
   -0.2131   -2.0726   -0.3380 C   0  0  0  0  0  0  0  0  0  0  0  0
   -0.1879   -0.5225   -0.2326 C   0  0  0  0  0  0  0  0  0  0  0  0
   -0.8582    0.0655   -1.3965 N   0  0  0  0  0  0  0  0  0  0  0  0
   -1.9900    0.7933   -0.9390 C   0  0  0  0  0  0  0  0  0  0  0  0
   -2.7353    1.4618   -1.7028 O   0  0  0  0  0  0  0  0  0  0  0  0
   -2.1727    0.7136    0.4643 N   0  0  0  0  0  0  0  0  0  0  0  0
   -2.9366    1.6520    1.2761 C   0  0  0  0  0  0  0  0  0  0  0  0
   -1.0564   -0.0503    0.9095 C   0  0  0  0  0  0  0  0  0  0  0  0
   -0.8201   -0.2800    2.1262 O   0  0  0  0  0  0  0  0  0  0  0  0
    1.2153    0.0796   -0.0922 C   0  0  0  0  0  0  0  0  0  0  0  0
    2.3688   -0.7093    0.1250 C   0  0  0  0  0  0  0  0  0  0  0  0
    3.6260   -0.1123    0.2614 C   0  0  0  0  0  0  0  0  0  0  0  0
    3.7574    1.2746    0.1913 C   0  0  0  0  0  0  0  0  0  0  0  0
    2.6309    2.0709   -0.0121 C   0  0  0  0  0  0  0  0  0  0  0  0
    1.3713    1.4821   -0.1496 C   0  0  0  0  0  0  0  0  0  0  0  0
   -1.5399   -3.7637   -0.6382 H   0  0  0  0  0  0  0  0  0  0  0  0
   -2.3027   -2.3875    0.2340 H   0  0  0  0  0  0  0  0  0  0  0  0
   -2.0198   -2.2921   -1.5536 H   0  0  0  0  0  0  0  0  0  0  0  0
    0.4444   -2.3936   -1.1754 H   0  0  0  0  0  0  0  0  0  0  0  0
    0.1760   -2.5183    0.6036 H   0  0  0  0  0  0  0  0  0  0  0  0
   -0.5409   -0.0058   -2.3891 H   0  0  0  0  0  0  0  0  0  0  0  0
   -3.9001    1.8874    0.7773 H   0  0  0  0  0  0  0  0  0  0  0  0
   -2.3543    2.5874    1.4119 H   0  0  0  0  0  0  0  0  0  0  0  0
   -3.1518    1.2052    2.2694 H   0  0  0  0  0  0  0  0  0  0  0  0
    2.3184   -1.7857    0.1941 H   0  0  0  0  0  0  0  0  0  0  0  0
    4.5011   -0.7282    0.4244 H   0  0  0  0  0  0  0  0  0  0  0  0
    4.7323    1.7325    0.2985 H   0  0  0  0  0  0  0  0  0  0  0  0
    2.7325    3.1474   -0.0609 H   0  0  0  0  0  0  0  0  0  0  0  0
    0.5132    2.1254   -0.2981 H   0  0  0  0  0  0  0  0  0  0  0  0
  1  2  1  0
  2  3  1  0
  3  4  1  0
  4  5  1  0
  5  6  2  0
  5  7  1  0
  7  8  1  0
  7  9  1  0
  9  3  1  0
  9 10  2  0
  3 11  1  0
 11 12  2  0
 12 13  1  0
 13 14  2  0
 14 15  1  0
 15 16  2  0
 16 11  1  0
  1 17  1  0
  1 18  1  0
  1 19  1  0
  2 20  1  0
  2 21  1  0
  4 22  1  0
  8 23  1  0
  8 24  1  0
  8 25  1  0
 12 26  1  0
 13 27  1  0
 14 28  1  0
 15 29  1  0
 16 30  1  0
M  END
> <ID>
HT1308

> <Class>
0.0

> <Clusters>
157

> <Fold>
2

$$$$