
     RDKit          3D

 18 18  0  0  0  0  0  0  0  0999 V2000
    1.6604    0.8179   -1.9889 Cl  0  0  0  0  0  0  0  0  0  0  0  0
    1.4272    0.5526   -0.2323 C   0  0  2  0  0  0  0  0  0  0  0  0
    1.1870   -0.9498    0.0450 C   0  0  1  0  0  0  0  0  0  0  0  0
    1.5270   -1.3470    1.7622 Cl  0  0  0  0  0  0  0  0  0  0  0  0
   -0.2261   -1.4008   -0.3848 C   0  0  1  0  0  0  0  0  0  0  0  0
   -0.4808   -3.1296    0.0185 Cl  0  0  0  0  0  0  0  0  0  0  0  0
   -1.3286   -0.5159    0.2314 C   0  0  2  0  0  0  0  0  0  0  0  0
   -2.9318   -1.0487   -0.3709 Cl  0  0  0  0  0  0  0  0  0  0  0  0
   -1.1019    0.9625   -0.1440 C   0  0  1  0  0  0  0  0  0  0  0  0
   -2.3855    2.0103    0.5421 Cl  0  0  0  0  0  0  0  0  0  0  0  0
    0.2926    1.4639    0.2909 C   0  0  1  0  0  0  0  0  0  0  0  0
    0.4076    1.6735    2.0699 Cl  0  0  0  0  0  0  0  0  0  0  0  0
    2.3822    0.8575    0.2482 H   0  0  0  0  0  0  0  0  0  0  0  0
    1.9268   -1.5332   -0.5457 H   0  0  0  0  0  0  0  0  0  0  0  0
   -0.2936   -1.3253   -1.4925 H   0  0  0  0  0  0  0  0  0  0  0  0
   -1.3249   -0.6272    1.3373 H   0  0  0  0  0  0  0  0  0  0  0  0
   -1.1774    1.0596   -1.2496 H   0  0  0  0  0  0  0  0  0  0  0  0
    0.4397    2.4797   -0.1369 H   0  0  0  0  0  0  0  0  0  0  0  0
  2  1  1  0
  2  3  1  0
  3  4  1  0
  3  5  1  0
  5  6  1  0
  5  7  1  0
  7  8  1  0
  7  9  1  0
  9 10  1  0
  9 11  1  0
 11  2  1  0
 11 12  1  0
  2 13  1  1
  3 14  1  6
  5 15  1  6
  7 16  1  1
  9 17  1  6
 11 18  1  6
M  END
> <ID>
HT1213

> <Class>
0.0

> <Clusters>
125

> <Fold>
2

$$$$