
     RDKit          3D

 17 17  0  0  0  0  0  0  0  0999 V2000
    2.5054   -0.0739    0.9889 O   0  0  0  0  0  0  0  0  0  0  0  0
    1.8855   -0.5174   -0.1760 C   0  0  0  0  0  0  0  0  0  0  0  0
    2.5236   -1.2335   -0.9932 O   0  0  0  0  0  0  0  0  0  0  0  0
    0.4478   -0.1808   -0.4379 C   0  0  0  0  0  0  0  0  0  0  0  0
   -0.4869   -1.0469    0.3938 C   0  0  0  0  0  0  0  0  0  0  0  0
   -1.6731   -0.1510    0.6426 C   0  0  0  0  0  0  0  0  0  0  0  0
   -1.0895    1.2518    0.6373 C   0  0  0  0  0  0  0  0  0  0  0  0
    0.1839    1.2179   -0.0877 N   0  0  0  0  0  0  0  0  0  0  0  0
    3.4716   -0.3070    1.1844 H   0  0  0  0  0  0  0  0  0  0  0  0
    0.2201   -0.3470   -1.5177 H   0  0  0  0  0  0  0  0  0  0  0  0
   -0.0247   -1.3188    1.3700 H   0  0  0  0  0  0  0  0  0  0  0  0
   -0.7811   -1.9722   -0.1481 H   0  0  0  0  0  0  0  0  0  0  0  0
   -2.4048   -0.2573   -0.1887 H   0  0  0  0  0  0  0  0  0  0  0  0
   -2.1699   -0.3869    1.6088 H   0  0  0  0  0  0  0  0  0  0  0  0
   -1.8013    1.9699    0.1714 H   0  0  0  0  0  0  0  0  0  0  0  0
   -0.8941    1.5782    1.6815 H   0  0  0  0  0  0  0  0  0  0  0  0
    0.0877    1.7749   -0.9699 H   0  0  0  0  0  0  0  0  0  0  0  0
  1  2  1  0
  2  3  2  0
  2  4  1  0
  4  5  1  0
  5  6  1  0
  6  7  1  0
  7  8  1  0
  8  4  1  0
  1  9  1  0
  4 10  1  0
  5 11  1  0
  5 12  1  0
  6 13  1  0
  6 14  1  0
  7 15  1  0
  7 16  1  0
  8 17  1  0
M  END
> <ID>
HT1249

> <Class>
0.0

> <Clusters>
113

> <Fold>
2

$$$$