
     RDKit          3D

 32 33  0  0  0  0  0  0  0  0999 V2000
    0.7318    1.8545    1.8645 C   0  0  0  0  0  0  0  0  0  0  0  0
    0.3080    1.8804    0.3891 C   0  0  0  0  0  0  0  0  0  0  0  0
   -0.0244    0.4857   -0.2278 C   0  0  0  0  0  0  0  0  0  0  0  0
   -0.4755    0.7415   -1.6565 C   0  0  0  0  0  0  0  0  0  0  0  0
    0.3856    0.9481   -2.5556 O   0  0  0  0  0  0  0  0  0  0  0  0
   -1.8587    0.8534   -1.9924 N   0  0  0  0  0  0  0  0  0  0  0  0
   -2.8778    0.5603   -1.0419 C   0  0  0  0  0  0  0  0  0  0  0  0
   -4.0817    0.7928   -1.3357 O   0  0  0  0  0  0  0  0  0  0  0  0
   -2.5328   -0.0142    0.2271 N   0  0  0  0  0  0  0  0  0  0  0  0
   -3.5862   -0.3717    1.1845 C   0  0  0  0  0  0  0  0  0  0  0  0
   -1.1465   -0.1416    0.6005 C   0  0  0  0  0  0  0  0  0  0  0  0
   -0.8469   -0.7470    1.6681 O   0  0  0  0  0  0  0  0  0  0  0  0
    1.1730   -0.4870   -0.2972 C   0  0  0  0  0  0  0  0  0  0  0  0
    0.9373   -1.8480   -0.6004 C   0  0  0  0  0  0  0  0  0  0  0  0
    1.9950   -2.7525   -0.7238 C   0  0  0  0  0  0  0  0  0  0  0  0
    3.3103   -2.3155   -0.5748 C   0  0  0  0  0  0  0  0  0  0  0  0
    3.5710   -0.9704   -0.3163 C   0  0  0  0  0  0  0  0  0  0  0  0
    2.5179   -0.0590   -0.1923 C   0  0  0  0  0  0  0  0  0  0  0  0
   -0.1420    1.6411    2.5149 H   0  0  0  0  0  0  0  0  0  0  0  0
    1.1309    2.8506    2.1496 H   0  0  0  0  0  0  0  0  0  0  0  0
    1.5163    1.0953    2.0555 H   0  0  0  0  0  0  0  0  0  0  0  0
   -0.5924    2.5316    0.3174 H   0  0  0  0  0  0  0  0  0  0  0  0
    1.0915    2.3944   -0.2081 H   0  0  0  0  0  0  0  0  0  0  0  0
   -2.1290    1.1634   -2.9531 H   0  0  0  0  0  0  0  0  0  0  0  0
   -3.7810    0.4878    1.8595 H   0  0  0  0  0  0  0  0  0  0  0  0
   -4.5263   -0.6448    0.6602 H   0  0  0  0  0  0  0  0  0  0  0  0
   -3.2872   -1.2527    1.7906 H   0  0  0  0  0  0  0  0  0  0  0  0
   -0.0720   -2.2116   -0.7477 H   0  0  0  0  0  0  0  0  0  0  0  0
    1.7936   -3.7928   -0.9443 H   0  0  0  0  0  0  0  0  0  0  0  0
    4.1288   -3.0169   -0.6735 H   0  0  0  0  0  0  0  0  0  0  0  0
    4.5939   -0.6293   -0.2207 H   0  0  0  0  0  0  0  0  0  0  0  0
    2.7758    0.9743   -0.0198 H   0  0  0  0  0  0  0  0  0  0  0  0
  1  2  1  0
  2  3  1  0
  3  4  1  0
  4  5  2  0
  4  6  1  0
  6  7  1  0
  7  8  2  0
  7  9  1  0
  9 10  1  0
  9 11  1  0
 11  3  1  0
 11 12  2  0
  3 13  1  0
 13 14  2  0
 14 15  1  0
 15 16  2  0
 16 17  1  0
 17 18  2  0
 18 13  1  0
  1 19  1  0
  1 20  1  0
  1 21  1  0
  2 22  1  0
  2 23  1  0
  6 24  1  0
 10 25  1  0
 10 26  1  0
 10 27  1  0
 14 28  1  0
 15 29  1  0
 16 30  1  0
 17 31  1  0
 18 32  1  0
M  END
> <ID>
HT1309

> <Class>
0.0

> <Clusters>
157

> <Fold>
2

$$$$