
     RDKit          3D

 44 47  0  0  0  0  0  0  0  0999 V2000
    5.6734   -0.3600    0.3057 C   0  0  0  0  0  0  0  0  0  0  0  0
    4.3136    0.0351   -0.0650 N   0  0  0  0  0  0  0  0  0  0  0  0
    3.4339   -1.1406   -0.0996 C   0  0  0  0  0  0  0  0  0  0  0  0
    2.0753   -0.7872   -0.7177 C   0  0  0  0  0  0  0  0  0  0  0  0
    1.2667    0.1935    0.1593 C   0  0  0  0  0  0  0  0  0  0  0  0
   -0.2539    0.2476   -0.1691 C   0  0  0  0  0  0  0  0  0  0  0  0
   -0.5146    0.4806   -1.7001 C   0  0  0  0  0  0  0  0  0  0  0  0
   -2.0529    0.5690   -2.0047 C   0  0  0  0  0  0  0  0  0  0  0  0
   -2.8726    0.3924   -0.7005 C   0  0  0  0  0  0  0  0  0  0  0  0
   -2.4309   -0.9283   -0.0966 C   0  0  0  0  0  0  0  0  0  0  0  0
   -3.2965   -1.9845    0.1993 C   0  0  0  0  0  0  0  0  0  0  0  0
   -2.7903   -3.1325    0.8180 C   0  0  0  0  0  0  0  0  0  0  0  0
   -1.4320   -3.2155    1.1533 C   0  0  0  0  0  0  0  0  0  0  0  0
   -0.5615   -2.1576    0.8614 C   0  0  0  0  0  0  0  0  0  0  0  0
   -1.0523   -1.0143    0.2077 C   0  0  0  0  0  0  0  0  0  0  0  0
   -2.3727    1.4618    0.2515 C   0  0  0  0  0  0  0  0  0  0  0  0
   -3.1818    2.4457    0.8255 C   0  0  0  0  0  0  0  0  0  0  0  0
   -2.6136    3.3710    1.7074 C   0  0  0  0  0  0  0  0  0  0  0  0
   -1.2479    3.3083    2.0163 C   0  0  0  0  0  0  0  0  0  0  0  0
   -0.4331    2.3233    1.4431 C   0  0  0  0  0  0  0  0  0  0  0  0
   -0.9915    1.3960    0.5459 C   0  0  0  0  0  0  0  0  0  0  0  0
    5.6832   -0.8727    1.2933 H   0  0  0  0  0  0  0  0  0  0  0  0
    6.3143    0.5445    0.3718 H   0  0  0  0  0  0  0  0  0  0  0  0
    6.1056   -1.0295   -0.4688 H   0  0  0  0  0  0  0  0  0  0  0  0
    3.9689    0.6803    0.6838 H   0  0  0  0  0  0  0  0  0  0  0  0
    3.2894   -1.5525    0.9251 H   0  0  0  0  0  0  0  0  0  0  0  0
    3.8908   -1.9373   -0.7288 H   0  0  0  0  0  0  0  0  0  0  0  0
    1.5112   -1.7295   -0.8746 H   0  0  0  0  0  0  0  0  0  0  0  0
    2.2455   -0.3367   -1.7199 H   0  0  0  0  0  0  0  0  0  0  0  0
    1.7016    1.2038   -0.0011 H   0  0  0  0  0  0  0  0  0  0  0  0
    1.3941   -0.0559    1.2354 H   0  0  0  0  0  0  0  0  0  0  0  0
   -0.0889   -0.3545   -2.2970 H   0  0  0  0  0  0  0  0  0  0  0  0
   -0.0152    1.4188   -2.0287 H   0  0  0  0  0  0  0  0  0  0  0  0
   -2.3416   -0.2194   -2.7343 H   0  0  0  0  0  0  0  0  0  0  0  0
   -2.2911    1.5534   -2.4646 H   0  0  0  0  0  0  0  0  0  0  0  0
   -3.9681    0.4462   -0.8827 H   0  0  0  0  0  0  0  0  0  0  0  0
   -4.3508   -1.9147   -0.0353 H   0  0  0  0  0  0  0  0  0  0  0  0
   -3.4541   -3.9545    1.0528 H   0  0  0  0  0  0  0  0  0  0  0  0
   -1.0548   -4.1003    1.6495 H   0  0  0  0  0  0  0  0  0  0  0  0
    0.4739   -2.2396    1.1586 H   0  0  0  0  0  0  0  0  0  0  0  0
   -4.2386    2.4928    0.5959 H   0  0  0  0  0  0  0  0  0  0  0  0
   -3.2330    4.1359    2.1577 H   0  0  0  0  0  0  0  0  0  0  0  0
   -0.8203    4.0246    2.7060 H   0  0  0  0  0  0  0  0  0  0  0  0
    0.6131    2.2929    1.7114 H   0  0  0  0  0  0  0  0  0  0  0  0
  1  2  1  0
  2  3  1  0
  3  4  1  0
  4  5  1  0
  6  5  1  0
  6  7  1  0
  7  8  1  0
  9  8  1  0
  9 10  1  0
 10 11  2  0
 11 12  1  0
 12 13  2  0
 13 14  1  0
 14 15  2  0
 15  6  1  0
 15 10  1  0
  9 16  1  0
 16 17  2  0
 17 18  1  0
 18 19  2  0
 19 20  1  0
 20 21  2  0
 21  6  1  0
 21 16  1  0
  1 22  1  0
  1 23  1  0
  1 24  1  0
  2 25  1  0
  3 26  1  0
  3 27  1  0
  4 28  1  0
  4 29  1  0
  5 30  1  0
  5 31  1  0
  7 32  1  0
  7 33  1  0
  8 34  1  0
  8 35  1  0
  9 36  1  0
 11 37  1  0
 12 38  1  0
 13 39  1  0
 14 40  1  0
 17 41  1  0
 18 42  1  0
 19 43  1  0
 20 44  1  0
M  END
> <ID>
HT1270

> <Class>
0.0

> <Clusters>
152

> <Fold>
2

$$$$