
     RDKit          3D

 33 34  0  0  0  0  0  0  0  0999 V2000
   -1.0364   -2.6842   -0.6911 C   0  0  0  0  0  0  0  0  0  0  0  0
   -0.3994   -1.3422   -0.4510 C   0  0  0  0  0  0  0  0  0  0  0  0
    0.9803   -1.2572   -0.2184 C   0  0  0  0  0  0  0  0  0  0  0  0
    1.6094   -0.0132   -0.0269 C   0  0  0  0  0  0  0  0  0  0  0  0
    2.9896    0.0932    0.2226 O   0  0  0  0  0  0  0  0  0  0  0  0
    4.0790   -1.2342    0.3550 P   0  0  0  0  0  0  0  0  0  0  0  0
    5.4673   -0.7073    0.6386 O   0  0  0  0  0  0  0  0  0  0  0  0
    4.0940   -2.1024   -1.0983 O   0  0  0  0  0  0  0  0  0  0  0  0
    3.5909   -2.2416    1.6251 O   0  0  0  0  0  0  0  0  0  0  0  0
    0.8383    1.1648   -0.0971 C   0  0  0  0  0  0  0  0  0  0  0  0
    1.4412    2.4286    0.0584 C   0  0  0  0  0  0  0  0  0  0  0  0
    0.6801    3.5942   -0.0428 C   0  0  0  0  0  0  0  0  0  0  0  0
   -0.6865    3.5183   -0.3057 C   0  0  0  0  0  0  0  0  0  0  0  0
   -1.3041    2.2760   -0.4577 C   0  0  0  0  0  0  0  0  0  0  0  0
   -0.5591    1.0873   -0.3381 C   0  0  0  0  0  0  0  0  0  0  0  0
   -1.1783   -0.1720   -0.4754 C   0  0  0  0  0  0  0  0  0  0  0  0
   -2.5609   -0.2673   -0.6575 O   0  0  0  0  0  0  0  0  0  0  0  0
   -3.6394   -0.2669    0.6839 P   0  0  0  0  0  0  0  0  0  0  0  0
   -3.3627   -1.4654    1.5620 O   0  0  0  0  0  0  0  0  0  0  0  0
   -5.2321   -0.3521    0.1193 O   0  0  0  0  0  0  0  0  0  0  0  0
   -3.4366    1.1426    1.5987 O   0  0  0  0  0  0  0  0  0  0  0  0
   -1.5595   -2.6797   -1.6704 H   0  0  0  0  0  0  0  0  0  0  0  0
   -0.2836   -3.5007   -0.7061 H   0  0  0  0  0  0  0  0  0  0  0  0
   -1.7676   -2.9076    0.1109 H   0  0  0  0  0  0  0  0  0  0  0  0
    1.5563   -2.1705   -0.1899 H   0  0  0  0  0  0  0  0  0  0  0  0
    4.7160   -2.8561   -0.9380 H   0  0  0  0  0  0  0  0  0  0  0  0
    4.2143   -3.0103    1.5938 H   0  0  0  0  0  0  0  0  0  0  0  0
    2.5028    2.5231    0.2504 H   0  0  0  0  0  0  0  0  0  0  0  0
    1.1540    4.5606    0.0727 H   0  0  0  0  0  0  0  0  0  0  0  0
   -1.2694    4.4259   -0.3971 H   0  0  0  0  0  0  0  0  0  0  0  0
   -2.3622    2.2523   -0.6832 H   0  0  0  0  0  0  0  0  0  0  0  0
   -5.2863    0.3384   -0.5884 H   0  0  0  0  0  0  0  0  0  0  0  0
   -3.9891    1.8257    1.1417 H   0  0  0  0  0  0  0  0  0  0  0  0
  1  2  1  0
  2  3  2  0
  3  4  1  0
  4  5  1  0
  5  6  1  0
  6  7  2  0
  6  8  1  0
  6  9  1  0
  4 10  2  0
 10 11  1  0
 11 12  2  0
 12 13  1  0
 13 14  2  0
 14 15  1  0
 15 10  1  0
 15 16  2  0
 16  2  1  0
 16 17  1  0
 17 18  1  0
 18 19  2  0
 18 20  1  0
 18 21  1  0
  1 22  1  0
  1 23  1  0
  1 24  1  0
  3 25  1  0
  8 26  1  0
  9 27  1  0
 11 28  1  0
 12 29  1  0
 13 30  1  0
 14 31  1  0
 20 32  1  0
 21 33  1  0
M  END
> <ID>
HT1298

> <Class>
0.0

> <Clusters>
253

> <Fold>
2

$$$$