
     RDKit          3D

 44 45  0  0  0  0  0  0  0  0999 V2000
    5.8695    2.4075   -1.4788 C   0  0  0  0  0  0  0  0  0  0  0  0
    5.2019    1.1815   -1.7592 O   0  0  0  0  0  0  0  0  0  0  0  0
    4.1006    0.6968   -1.0380 C   0  0  0  0  0  0  0  0  0  0  0  0
    3.5447    1.3945    0.0515 C   0  0  0  0  0  0  0  0  0  0  0  0
    2.4458    0.8695    0.7383 C   0  0  0  0  0  0  0  0  0  0  0  0
    1.8889   -0.3590    0.3509 C   0  0  0  0  0  0  0  0  0  0  0  0
    0.6900   -0.9195    1.0683 C   0  0  0  0  0  0  0  0  0  0  0  0
   -0.5040   -0.8258    0.2150 N   0  0  0  0  0  0  0  0  0  0  0  0
   -1.0571    0.4975   -0.1098 C   0  0  0  0  0  0  0  0  0  0  0  0
   -2.4626    0.6525    0.4835 C   0  0  0  0  0  0  0  0  0  0  0  0
   -3.0352    1.9688    0.1243 N   0  0  0  0  0  0  0  0  0  0  0  0
   -4.5051    1.8957    0.0901 C   0  0  0  0  0  0  0  0  0  0  0  0
   -2.6207    3.0067    1.0851 C   0  0  0  0  0  0  0  0  0  0  0  0
   -1.0726   -2.0023   -0.3943 C   0  0  0  0  0  0  0  0  0  0  0  0
   -1.2598   -3.1835    0.3434 C   0  0  0  0  0  0  0  0  0  0  0  0
   -1.8296   -4.2975   -0.2763 C   0  0  0  0  0  0  0  0  0  0  0  0
   -2.2159   -4.2270   -1.6151 C   0  0  0  0  0  0  0  0  0  0  0  0
   -2.0315   -3.0342   -2.3159 C   0  0  0  0  0  0  0  0  0  0  0  0
   -1.4741   -1.9600   -1.6964 N   0  0  0  0  0  0  0  0  0  0  0  0
    2.4405   -1.0510   -0.7375 C   0  0  0  0  0  0  0  0  0  0  0  0
    3.5390   -0.5260   -1.4236 C   0  0  0  0  0  0  0  0  0  0  0  0
    6.2909    2.3865   -0.4516 H   0  0  0  0  0  0  0  0  0  0  0  0
    6.7005    2.5413   -2.2013 H   0  0  0  0  0  0  0  0  0  0  0  0
    5.1648    3.2590   -1.5854 H   0  0  0  0  0  0  0  0  0  0  0  0
    3.9521    2.3430    0.3738 H   0  0  0  0  0  0  0  0  0  0  0  0
    2.0277    1.4238    1.5694 H   0  0  0  0  0  0  0  0  0  0  0  0
    0.9163   -1.9730    1.3346 H   0  0  0  0  0  0  0  0  0  0  0  0
    0.5029   -0.3826    2.0238 H   0  0  0  0  0  0  0  0  0  0  0  0
   -0.3987    1.2952    0.2919 H   0  0  0  0  0  0  0  0  0  0  0  0
   -1.0951    0.6299   -1.2127 H   0  0  0  0  0  0  0  0  0  0  0  0
   -3.0892   -0.1710    0.0719 H   0  0  0  0  0  0  0  0  0  0  0  0
   -2.4252    0.5110    1.5879 H   0  0  0  0  0  0  0  0  0  0  0  0
   -4.9363    2.8879   -0.1656 H   0  0  0  0  0  0  0  0  0  0  0  0
   -4.8331    1.1878   -0.7013 H   0  0  0  0  0  0  0  0  0  0  0  0
   -4.9142    1.5620    1.0701 H   0  0  0  0  0  0  0  0  0  0  0  0
   -3.0213    3.9958    0.7746 H   0  0  0  0  0  0  0  0  0  0  0  0
   -2.9852    2.7779    2.1117 H   0  0  0  0  0  0  0  0  0  0  0  0
   -1.5159    3.1022    1.1082 H   0  0  0  0  0  0  0  0  0  0  0  0
   -0.9941   -3.2371    1.3909 H   0  0  0  0  0  0  0  0  0  0  0  0
   -1.9792   -5.2118    0.2833 H   0  0  0  0  0  0  0  0  0  0  0  0
   -2.6604   -5.0850   -2.1024 H   0  0  0  0  0  0  0  0  0  0  0  0
   -2.3331   -2.9610   -3.3521 H   0  0  0  0  0  0  0  0  0  0  0  0
    2.0173   -1.9961   -1.0556 H   0  0  0  0  0  0  0  0  0  0  0  0
    3.9554   -1.0710   -2.2612 H   0  0  0  0  0  0  0  0  0  0  0  0
  1  2  1  0
  2  3  1  0
  3  4  2  0
  4  5  1  0
  5  6  2  0
  6  7  1  0
  7  8  1  0
  8  9  1  0
  9 10  1  0
 10 11  1  0
 11 12  1  0
 11 13  1  0
  8 14  1  0
 14 15  2  0
 15 16  1  0
 16 17  2  0
 17 18  1  0
 18 19  2  0
 19 14  1  0
  6 20  1  0
 20 21  2  0
 21  3  1  0
  1 22  1  0
  1 23  1  0
  1 24  1  0
  4 25  1  0
  5 26  1  0
  7 27  1  0
  7 28  1  0
  9 29  1  0
  9 30  1  0
 10 31  1  0
 10 32  1  0
 12 33  1  0
 12 34  1  0
 12 35  1  0
 13 36  1  0
 13 37  1  0
 13 38  1  0
 15 39  1  0
 16 40  1  0
 17 41  1  0
 18 42  1  0
 20 43  1  0
 21 44  1  0
M  END
> <ID>
HT1312

> <Class>
0.0

> <Clusters>
51

> <Fold>
2

$$$$