
     RDKit          3D

 21 22  0  0  0  0  0  0  0  0999 V2000
   -3.2680   -0.1251    1.0230 C   0  0  0  0  0  0  0  0  0  0  0  0
   -1.9269   -0.1152    0.3419 C   0  0  0  0  0  0  0  0  0  0  0  0
   -1.8367   -0.3178   -0.9830 C   0  0  0  0  0  0  0  0  0  0  0  0
   -0.5346   -0.3130   -1.6735 C   0  0  0  0  0  0  0  0  0  0  0  0
   -0.4948   -0.5072   -2.9182 O   0  0  0  0  0  0  0  0  0  0  0  0
    0.7086   -0.0814   -0.9047 C   0  0  0  0  0  0  0  0  0  0  0  0
    1.9641   -0.0714   -1.5369 C   0  0  0  0  0  0  0  0  0  0  0  0
    3.1252    0.1492   -0.7917 C   0  0  0  0  0  0  0  0  0  0  0  0
    3.0443    0.3610    0.5859 C   0  0  0  0  0  0  0  0  0  0  0  0
    1.8020    0.3533    1.2254 C   0  0  0  0  0  0  0  0  0  0  0  0
    0.6262    0.1324    0.4866 C   0  0  0  0  0  0  0  0  0  0  0  0
   -0.7019    0.1202    1.1452 C   0  0  0  0  0  0  0  0  0  0  0  0
   -0.7951    0.3096    2.3889 O   0  0  0  0  0  0  0  0  0  0  0  0
   -4.0988   -0.3116    0.3089 H   0  0  0  0  0  0  0  0  0  0  0  0
   -3.2861   -0.9227    1.7950 H   0  0  0  0  0  0  0  0  0  0  0  0
   -3.4426    0.8561    1.5123 H   0  0  0  0  0  0  0  0  0  0  0  0
   -2.7302   -0.4900   -1.5717 H   0  0  0  0  0  0  0  0  0  0  0  0
    2.0479   -0.2336   -2.6042 H   0  0  0  0  0  0  0  0  0  0  0  0
    4.0895    0.1560   -1.2833 H   0  0  0  0  0  0  0  0  0  0  0  0
    3.9462    0.5316    1.1596 H   0  0  0  0  0  0  0  0  0  0  0  0
    1.7614    0.5196    2.2945 H   0  0  0  0  0  0  0  0  0  0  0  0
  1  2  1  0
  2  3  2  0
  3  4  1  0
  4  5  2  0
  4  6  1  0
  6  7  2  0
  7  8  1  0
  8  9  2  0
  9 10  1  0
 10 11  2  0
 11  6  1  0
 11 12  1  0
 12  2  1  0
 12 13  2  0
  1 14  1  0
  1 15  1  0
  1 16  1  0
  3 17  1  0
  7 18  1  0
  8 19  1  0
  9 20  1  0
 10 21  1  0
M  END
> <ID>
HT1299

> <Class>
0.0

> <Clusters>
106

> <Fold>
2

$$$$