
     RDKit          3D

 59 60  0  0  0  0  0  0  0  0999 V2000
   -6.8817   -2.1201    0.5583 C   0  0  0  0  0  0  0  0  0  0  0  0
   -6.9660   -0.5946    0.5068 C   0  0  0  0  0  0  0  0  0  0  0  0
   -6.1396    0.0772    1.6189 C   0  0  0  0  0  0  0  0  0  0  0  0
   -4.6283    0.1399    1.3097 C   0  0  0  0  0  0  0  0  0  0  0  0
   -4.2134    1.4398    0.5806 C   0  0  0  0  0  0  0  0  0  0  0  0
   -5.0292    1.6142   -0.5262 F   0  0  0  0  0  0  0  0  0  0  0  0
   -4.4159    2.5190    1.4283 F   0  0  0  0  0  0  0  0  0  0  0  0
   -2.7278    1.4305    0.1027 C   0  0  0  0  0  0  0  0  0  0  0  0
   -2.4780    2.6693   -0.5198 O   0  0  0  0  0  0  0  0  0  0  0  0
   -1.7583    1.3084    1.3165 C   0  0  0  0  0  0  0  0  0  0  0  0
   -1.1743   -0.0926    1.4367 C   0  0  0  0  0  0  0  0  0  0  0  0
   -0.4454   -0.4743    0.1457 C   0  0  0  0  0  0  0  0  0  0  0  0
    0.9478    0.2109    0.0226 C   0  0  0  0  0  0  0  0  0  0  0  0
    2.1133   -0.8182   -0.0677 C   0  0  0  0  0  0  0  0  0  0  0  0
    3.3821   -0.3961    0.7021 C   0  0  0  0  0  0  0  0  0  0  0  0
    4.1709    0.7727    0.0860 C   0  0  0  0  0  0  0  0  0  0  0  0
    4.6995    0.5267   -1.3428 C   0  0  0  0  0  0  0  0  0  0  0  0
    5.6007   -0.7105   -1.5031 C   0  0  0  0  0  0  0  0  0  0  0  0
    6.8901   -0.6247   -0.6689 C   0  0  0  0  0  0  0  0  0  0  0  0
    7.8341   -1.7684   -0.9275 C   0  0  0  0  0  0  0  0  0  0  0  0
    7.5353   -2.6913   -1.7325 O   0  0  0  0  0  0  0  0  0  0  0  0
    9.0575   -1.8169   -0.2663 O   0  0  0  0  0  0  0  0  0  0  0  0
    0.8309    1.0310   -1.2222 C   0  0  0  0  0  0  0  0  0  0  0  0
    1.6894    1.8191   -1.5840 O   0  0  0  0  0  0  0  0  0  0  0  0
   -0.4349    0.8652   -1.9699 C   0  0  0  0  0  0  0  0  0  0  0  0
   -1.2684   -0.0908   -1.1110 C   0  0  0  0  0  0  0  0  0  0  0  0
   -2.5932    0.3702   -0.8518 O   0  0  0  0  0  0  0  0  0  0  0  0
   -5.8421   -2.4664    0.3863 H   0  0  0  0  0  0  0  0  0  0  0  0
   -7.2338   -2.4947    1.5429 H   0  0  0  0  0  0  0  0  0  0  0  0
   -7.5285   -2.5527   -0.2339 H   0  0  0  0  0  0  0  0  0  0  0  0
   -8.0309   -0.3039    0.6339 H   0  0  0  0  0  0  0  0  0  0  0  0
   -6.6435   -0.2438   -0.4951 H   0  0  0  0  0  0  0  0  0  0  0  0
   -6.2949   -0.4764    2.5713 H   0  0  0  0  0  0  0  0  0  0  0  0
   -6.5329    1.1026    1.7915 H   0  0  0  0  0  0  0  0  0  0  0  0
   -4.0907    0.0890    2.2795 H   0  0  0  0  0  0  0  0  0  0  0  0
   -4.3193   -0.7459    0.7174 H   0  0  0  0  0  0  0  0  0  0  0  0
   -2.9841    2.6887   -1.3744 H   0  0  0  0  0  0  0  0  0  0  0  0
   -0.9214    2.0318    1.2027 H   0  0  0  0  0  0  0  0  0  0  0  0
   -2.2526    1.5801    2.2736 H   0  0  0  0  0  0  0  0  0  0  0  0
   -0.4800   -0.1429    2.3038 H   0  0  0  0  0  0  0  0  0  0  0  0
   -1.9867   -0.8246    1.6278 H   0  0  0  0  0  0  0  0  0  0  0  0
   -0.3444   -1.5825    0.1594 H   0  0  0  0  0  0  0  0  0  0  0  0
    1.1227    0.9017    0.8765 H   0  0  0  0  0  0  0  0  0  0  0  0
    2.3514   -1.0694   -1.1236 H   0  0  0  0  0  0  0  0  0  0  0  0
    1.8026   -1.7775    0.3997 H   0  0  0  0  0  0  0  0  0  0  0  0
    3.0967   -0.1192    1.7406 H   0  0  0  0  0  0  0  0  0  0  0  0
    4.0526   -1.2757    0.8005 H   0  0  0  0  0  0  0  0  0  0  0  0
    5.0269    1.0086    0.7530 H   0  0  0  0  0  0  0  0  0  0  0  0
    3.5371    1.6825    0.0889 H   0  0  0  0  0  0  0  0  0  0  0  0
    5.2685    1.4265   -1.6630 H   0  0  0  0  0  0  0  0  0  0  0  0
    3.8471    0.4321   -2.0458 H   0  0  0  0  0  0  0  0  0  0  0  0
    5.8762   -0.7847   -2.5784 H   0  0  0  0  0  0  0  0  0  0  0  0
    5.0376   -1.6331   -1.2470 H   0  0  0  0  0  0  0  0  0  0  0  0
    7.4181    0.3242   -0.9035 H   0  0  0  0  0  0  0  0  0  0  0  0
    6.6400   -0.6313    0.4121 H   0  0  0  0  0  0  0  0  0  0  0  0
    9.3273   -1.0915    0.3879 H   0  0  0  0  0  0  0  0  0  0  0  0
   -0.2168    0.4151   -2.9629 H   0  0  0  0  0  0  0  0  0  0  0  0
   -0.9142    1.8469   -2.1343 H   0  0  0  0  0  0  0  0  0  0  0  0
   -1.3852   -1.0226   -1.7090 H   0  0  0  0  0  0  0  0  0  0  0  0
  1  2  1  0
  2  3  1  0
  3  4  1  0
  4  5  1  0
  5  6  1  0
  5  7  1  0
  5  8  1  0
  8  9  1  0
  8 10  1  0
 10 11  1  0
 11 12  1  0
 12 13  1  0
 13 14  1  0
 14 15  1  0
 15 16  1  0
 16 17  1  0
 17 18  1  0
 18 19  1  0
 19 20  1  0
 20 21  2  0
 20 22  1  0
 13 23  1  0
 23 24  2  0
 23 25  1  0
 25 26  1  0
 26 12  1  0
 26 27  1  0
 27  8  1  0
  1 28  1  0
  1 29  1  0
  1 30  1  0
  2 31  1  0
  2 32  1  0
  3 33  1  0
  3 34  1  0
  4 35  1  0
  4 36  1  0
  9 37  1  0
 10 38  1  0
 10 39  1  0
 11 40  1  0
 11 41  1  0
 12 42  1  0
 13 43  1  0
 14 44  1  0
 14 45  1  0
 15 46  1  0
 15 47  1  0
 16 48  1  0
 16 49  1  0
 17 50  1  0
 17 51  1  0
 18 52  1  0
 18 53  1  0
 19 54  1  0
 19 55  1  0
 22 56  1  0
 25 57  1  0
 25 58  1  0
 26 59  1  0
M  END
> <ID>
HT1254

> <Class>
0.0

> <Clusters>
12

> <Fold>
2

$$$$