
     RDKit          3D

 33 34  0  0  0  0  0  0  0  0999 V2000
    4.4908   -1.0125    0.1672 C   0  0  0  0  0  0  0  0  0  0  0  0
    3.1684   -0.5837   -0.4156 C   0  0  0  0  0  0  0  0  0  0  0  0
    3.0906   -0.3373   -1.7960 C   0  0  0  0  0  0  0  0  0  0  0  0
    1.8969    0.0817   -2.3765 C   0  0  0  0  0  0  0  0  0  0  0  0
    0.7662    0.2756   -1.5891 C   0  0  0  0  0  0  0  0  0  0  0  0
    0.8066    0.0365   -0.2056 C   0  0  0  0  0  0  0  0  0  0  0  0
   -0.3604    0.3090    0.5948 N   0  0  0  0  0  0  0  0  0  0  0  0
   -1.7033    0.0758    0.1341 C   0  0  0  0  0  0  0  0  0  0  0  0
   -1.9928   -1.1055   -0.5726 C   0  0  0  0  0  0  0  0  0  0  0  0
   -3.3008   -1.4039   -0.9545 C   0  0  0  0  0  0  0  0  0  0  0  0
   -4.3388   -0.5342   -0.6268 C   0  0  0  0  0  0  0  0  0  0  0  0
   -4.0716    0.6428    0.0747 C   0  0  0  0  0  0  0  0  0  0  0  0
   -2.7571    0.9710    0.4557 C   0  0  0  0  0  0  0  0  0  0  0  0
   -2.5207    2.2650    1.1411 C   0  0  0  0  0  0  0  0  0  0  0  0
   -1.3923    2.8244    1.0950 O   0  0  0  0  0  0  0  0  0  0  0  0
   -3.5645    2.8969    1.8124 O   0  0  0  0  0  0  0  0  0  0  0  0
    2.0104   -0.4188    0.3923 C   0  0  0  0  0  0  0  0  0  0  0  0
    2.0531   -0.6782    1.8821 C   0  0  0  0  0  0  0  0  0  0  0  0
    5.2978   -1.0114   -0.5962 H   0  0  0  0  0  0  0  0  0  0  0  0
    4.7899   -0.3151    0.9778 H   0  0  0  0  0  0  0  0  0  0  0  0
    4.4096   -2.0434    0.5705 H   0  0  0  0  0  0  0  0  0  0  0  0
    3.9596   -0.4661   -2.4295 H   0  0  0  0  0  0  0  0  0  0  0  0
    1.8525    0.2735   -3.4409 H   0  0  0  0  0  0  0  0  0  0  0  0
   -0.1406    0.6368   -2.0573 H   0  0  0  0  0  0  0  0  0  0  0  0
   -0.2319    0.6685    1.5669 H   0  0  0  0  0  0  0  0  0  0  0  0
   -1.2046   -1.8098   -0.8068 H   0  0  0  0  0  0  0  0  0  0  0  0
   -3.5114   -2.3177   -1.4950 H   0  0  0  0  0  0  0  0  0  0  0  0
   -5.3536   -0.7700   -0.9203 H   0  0  0  0  0  0  0  0  0  0  0  0
   -4.8952    1.3086    0.3011 H   0  0  0  0  0  0  0  0  0  0  0  0
   -3.4230    3.7878    2.2735 H   0  0  0  0  0  0  0  0  0  0  0  0
    2.8647   -1.3740    2.1711 H   0  0  0  0  0  0  0  0  0  0  0  0
    2.1957    0.2818    2.4207 H   0  0  0  0  0  0  0  0  0  0  0  0
    1.1095   -1.1541    2.2223 H   0  0  0  0  0  0  0  0  0  0  0  0
  1  2  1  0
  2  3  2  0
  3  4  1  0
  4  5  2  0
  5  6  1  0
  6  7  1  0
  7  8  1  0
  8  9  2  0
  9 10  1  0
 10 11  2  0
 11 12  1  0
 12 13  2  0
 13  8  1  0
 13 14  1  0
 14 15  2  0
 14 16  1  0
  6 17  2  0
 17  2  1  0
 17 18  1  0
  1 19  1  0
  1 20  1  0
  1 21  1  0
  3 22  1  0
  4 23  1  0
  5 24  1  0
  7 25  1  0
  9 26  1  0
 10 27  1  0
 11 28  1  0
 12 29  1  0
 16 30  1  0
 18 31  1  0
 18 32  1  0
 18 33  1  0
M  END
> <ID>
HT1288

> <Class>
0.0

> <Clusters>
153

> <Fold>
2

$$$$