
     RDKit          3D

 94 97  0  0  0  0  0  0  0  0999 V2000
   -3.6966    3.0312    3.8784 C   0  0  0  0  0  0  0  0  0  0  0  0
   -3.0888    1.7163    3.3555 C   0  0  0  0  0  0  0  0  0  0  0  0
   -2.2408    1.0883    4.4760 C   0  0  0  0  0  0  0  0  0  0  0  0
   -2.2627    1.9582    2.0477 C   0  0  2  0  0  0  0  0  0  0  0  0
   -3.0081    2.7887    1.0712 N   0  0  0  0  0  0  0  0  0  0  0  0
   -2.4605    4.0992    0.6899 C   0  0  0  0  0  0  0  0  0  0  0  0
   -2.8835    4.4814   -0.7289 C   0  0  0  0  0  0  0  0  0  0  0  0
   -4.4092    4.5102   -0.8457 C   0  0  0  0  0  0  0  0  0  0  0  0
   -5.0019    3.2725   -0.3473 N   0  0  0  0  0  0  0  0  0  0  0  0
   -4.3145    2.4159    0.5720 C   0  0  0  0  0  0  0  0  0  0  0  0
   -4.8473    1.3257    0.9098 O   0  0  0  0  0  0  0  0  0  0  0  0
   -1.7472    0.6752    1.4107 C   0  0  0  0  0  0  0  0  0  0  0  0
   -0.9121   -0.0243    2.0454 O   0  0  0  0  0  0  0  0  0  0  0  0
   -2.1227    0.2770    0.0798 N   0  0  0  0  0  0  0  0  0  0  0  0
   -1.7979   -1.0461   -0.4621 C   0  0  2  0  0  0  0  0  0  0  0  0
   -0.4945   -0.9299   -1.2925 C   0  0  0  0  0  0  0  0  0  0  0  0
    0.2892   -2.2580   -1.4540 C   0  0  2  0  0  0  0  0  0  0  0  0
    0.4875   -2.8978   -0.2144 O   0  0  0  0  0  0  0  0  0  0  0  0
    1.6333   -2.0297   -2.1960 C   0  0  2  0  0  0  0  0  0  0  0  0
    2.2314   -3.3274   -2.7851 C   0  0  0  0  0  0  0  0  0  0  0  0
    2.4629   -4.4166   -1.7658 C   0  0  0  0  0  0  0  0  0  0  0  0
    1.5126   -5.4396   -1.5949 C   0  0  0  0  0  0  0  0  0  0  0  0
    1.7287   -6.4519   -0.6558 C   0  0  0  0  0  0  0  0  0  0  0  0
    2.8969   -6.4582    0.1116 C   0  0  0  0  0  0  0  0  0  0  0  0
    3.8540   -5.4544   -0.0632 C   0  0  0  0  0  0  0  0  0  0  0  0
    3.6428   -4.4413   -1.0032 C   0  0  0  0  0  0  0  0  0  0  0  0
    2.6034   -1.3484   -1.3301 N   0  0  0  0  0  0  0  0  0  0  0  0
    3.0319    0.0015   -1.5551 C   0  0  0  0  0  0  0  0  0  0  0  0
    2.8559    0.5517   -2.6781 O   0  0  0  0  0  0  0  0  0  0  0  0
    3.7312    0.7521   -0.4677 C   0  0  0  0  0  0  0  0  0  0  0  0
    3.3386    2.1207   -0.5041 O   0  0  0  0  0  0  0  0  0  0  0  0
    3.7717    3.0385    0.4573 C   0  0  0  0  0  0  0  0  0  0  0  0
    5.0833    3.5611    0.4218 C   0  0  0  0  0  0  0  0  0  0  0  0
    6.0557    3.1666   -0.6557 C   0  0  0  0  0  0  0  0  0  0  0  0
    5.5017    4.4433    1.4304 C   0  0  0  0  0  0  0  0  0  0  0  0
    4.6217    4.8300    2.4418 C   0  0  0  0  0  0  0  0  0  0  0  0
    3.3157    4.3397    2.4606 C   0  0  0  0  0  0  0  0  0  0  0  0
    2.8767    3.4552    1.4637 C   0  0  0  0  0  0  0  0  0  0  0  0
    1.4793    2.9067    1.5168 C   0  0  0  0  0  0  0  0  0  0  0  0
   -3.0056   -1.5470   -1.2869 C   0  0  0  0  0  0  0  0  0  0  0  0
   -2.8685   -2.9790   -1.7417 C   0  0  0  0  0  0  0  0  0  0  0  0
   -2.8040   -3.2816   -3.1136 C   0  0  0  0  0  0  0  0  0  0  0  0
   -2.6360   -4.6032   -3.5367 C   0  0  0  0  0  0  0  0  0  0  0  0
   -2.5431   -5.6332   -2.5979 C   0  0  0  0  0  0  0  0  0  0  0  0
   -2.6247   -5.3446   -1.2332 C   0  0  0  0  0  0  0  0  0  0  0  0
   -2.7956   -4.0248   -0.8040 C   0  0  0  0  0  0  0  0  0  0  0  0
   -2.8994    3.7852    4.0593 H   0  0  0  0  0  0  0  0  0  0  0  0
   -4.4286    3.4489    3.1562 H   0  0  0  0  0  0  0  0  0  0  0  0
   -4.2448    2.8547    4.8287 H   0  0  0  0  0  0  0  0  0  0  0  0
   -3.9217    1.0124    3.1497 H   0  0  0  0  0  0  0  0  0  0  0  0
   -1.3075    1.6686    4.6378 H   0  0  0  0  0  0  0  0  0  0  0  0
   -2.8110    1.0653    5.4294 H   0  0  0  0  0  0  0  0  0  0  0  0
   -1.9859    0.0364    4.2391 H   0  0  0  0  0  0  0  0  0  0  0  0
   -1.3531    2.5165    2.3582 H   0  0  0  0  0  0  0  0  0  0  0  0
   -1.3493    4.0844    0.7248 H   0  0  0  0  0  0  0  0  0  0  0  0
   -2.8186    4.8689    1.4063 H   0  0  0  0  0  0  0  0  0  0  0  0
   -2.4732    5.4827   -0.9823 H   0  0  0  0  0  0  0  0  0  0  0  0
   -2.4681    3.7430   -1.4487 H   0  0  0  0  0  0  0  0  0  0  0  0
   -4.6844    4.6461   -1.9141 H   0  0  0  0  0  0  0  0  0  0  0  0
   -4.8198    5.3663   -0.2682 H   0  0  0  0  0  0  0  0  0  0  0  0
   -5.9824    3.0413   -0.6238 H   0  0  0  0  0  0  0  0  0  0  0  0
   -2.4513    0.9986   -0.5987 H   0  0  0  0  0  0  0  0  0  0  0  0
   -1.6466   -1.7458    0.3868 H   0  0  0  0  0  0  0  0  0  0  0  0
   -0.7275   -0.5108   -2.2959 H   0  0  0  0  0  0  0  0  0  0  0  0
    0.1736   -0.1974   -0.7890 H   0  0  0  0  0  0  0  0  0  0  0  0
   -0.3094   -2.9345   -2.0900 H   0  0  0  0  0  0  0  0  0  0  0  0
    0.8225   -2.2242    0.4320 H   0  0  0  0  0  0  0  0  0  0  0  0
    1.4105   -1.3884   -3.0777 H   0  0  0  0  0  0  0  0  0  0  0  0
    3.1905   -3.0895   -3.2950 H   0  0  0  0  0  0  0  0  0  0  0  0
    1.5502   -3.7039   -3.5809 H   0  0  0  0  0  0  0  0  0  0  0  0
    0.5990   -5.4445   -2.1773 H   0  0  0  0  0  0  0  0  0  0  0  0
    0.9897   -7.2313   -0.5211 H   0  0  0  0  0  0  0  0  0  0  0  0
    3.0628   -7.2428    0.8375 H   0  0  0  0  0  0  0  0  0  0  0  0
    4.7628   -5.4643    0.5250 H   0  0  0  0  0  0  0  0  0  0  0  0
    4.3985   -3.6780   -1.1387 H   0  0  0  0  0  0  0  0  0  0  0  0
    2.9262   -1.8251   -0.4584 H   0  0  0  0  0  0  0  0  0  0  0  0
    3.4567    0.3205    0.5194 H   0  0  0  0  0  0  0  0  0  0  0  0
    4.8269    0.6540   -0.6067 H   0  0  0  0  0  0  0  0  0  0  0  0
    6.6210    2.2670   -0.3360 H   0  0  0  0  0  0  0  0  0  0  0  0
    5.5297    2.9511   -1.6093 H   0  0  0  0  0  0  0  0  0  0  0  0
    6.7768    3.9876   -0.8522 H   0  0  0  0  0  0  0  0  0  0  0  0
    6.5111    4.8364    1.4314 H   0  0  0  0  0  0  0  0  0  0  0  0
    4.9526    5.5114    3.2154 H   0  0  0  0  0  0  0  0  0  0  0  0
    2.6485    4.6512    3.2548 H   0  0  0  0  0  0  0  0  0  0  0  0
    1.5019    1.8624    1.8923 H   0  0  0  0  0  0  0  0  0  0  0  0
    0.8392    3.5160    2.1893 H   0  0  0  0  0  0  0  0  0  0  0  0
    1.0205    2.9205    0.5052 H   0  0  0  0  0  0  0  0  0  0  0  0
   -3.9219   -1.4746   -0.6615 H   0  0  0  0  0  0  0  0  0  0  0  0
   -3.1605   -0.8714   -2.1576 H   0  0  0  0  0  0  0  0  0  0  0  0
   -2.8596   -2.4939   -3.8533 H   0  0  0  0  0  0  0  0  0  0  0  0
   -2.5717   -4.8284   -4.5932 H   0  0  0  0  0  0  0  0  0  0  0  0
   -2.4073   -6.6547   -2.9262 H   0  0  0  0  0  0  0  0  0  0  0  0
   -2.5512   -6.1451   -0.5077 H   0  0  0  0  0  0  0  0  0  0  0  0
   -2.8566   -3.8188    0.2581 H   0  0  0  0  0  0  0  0  0  0  0  0
  1  2  1  0
  2  3  1  0
  4  2  1  0
  4  5  1  0
  5  6  1  0
  6  7  1  0
  7  8  1  0
  8  9  1  0
  9 10  1  0
 10  5  1  0
 10 11  2  0
  4 12  1  0
 12 13  2  0
 12 14  1  0
 15 14  1  0
 15 16  1  0
 16 17  1  0
 17 18  1  0
 17 19  1  0
 19 20  1  0
 20 21  1  0
 21 22  2  0
 22 23  1  0
 23 24  2  0
 24 25  1  0
 25 26  2  0
 26 21  1  0
 19 27  1  0
 27 28  1  0
 28 29  2  0
 28 30  1  0
 30 31  1  0
 31 32  1  0
 32 33  2  0
 33 34  1  0
 33 35  1  0
 35 36  2  0
 36 37  1  0
 37 38  2  0
 38 32  1  0
 38 39  1  0
 15 40  1  0
 40 41  1  0
 41 42  2  0
 42 43  1  0
 43 44  2  0
 44 45  1  0
 45 46  2  0
 46 41  1  0
  1 47  1  0
  1 48  1  0
  1 49  1  0
  2 50  1  0
  3 51  1  0
  3 52  1  0
  3 53  1  0
  4 54  1  1
  6 55  1  0
  6 56  1  0
  7 57  1  0
  7 58  1  0
  8 59  1  0
  8 60  1  0
  9 61  1  0
 14 62  1  0
 15 63  1  1
 16 64  1  0
 16 65  1  0
 17 66  1  6
 18 67  1  0
 19 68  1  6
 20 69  1  0
 20 70  1  0
 22 71  1  0
 23 72  1  0
 24 73  1  0
 25 74  1  0
 26 75  1  0
 27 76  1  0
 30 77  1  0
 30 78  1  0
 34 79  1  0
 34 80  1  0
 34 81  1  0
 35 82  1  0
 36 83  1  0
 37 84  1  0
 39 85  1  0
 39 86  1  0
 39 87  1  0
 40 88  1  0
 40 89  1  0
 42 90  1  0
 43 91  1  0
 44 92  1  0
 45 93  1  0
 46 94  1  0
M  END
> <ID>
HT1234

> <Class>
0.0

> <Clusters>
214

> <Fold>
2

$$$$