
     RDKit          3D

 42 45  0  0  0  0  0  0  0  0999 V2000
   -3.0106   -2.4195   -0.6922 C   0  0  0  0  0  0  0  0  0  0  0  0
   -1.7437   -1.6711   -0.6770 N   0  0  0  0  0  0  0  0  0  0  0  0
   -1.4181   -1.1884   -2.0337 C   0  0  0  0  0  0  0  0  0  0  0  0
   -0.0682   -0.4464   -2.0568 C   0  0  0  0  0  0  0  0  0  0  0  0
    0.1510    0.4940   -0.8236 C   0  0  0  0  0  0  0  0  0  0  0  0
    0.6883    1.8742   -1.3213 C   0  0  0  0  0  0  0  0  0  0  0  0
    0.7997    2.9062   -0.1930 C   0  0  0  0  0  0  0  0  0  0  0  0
   -0.5676    3.1366    0.4545 C   0  0  0  0  0  0  0  0  0  0  0  0
   -1.1336    1.8220    0.9938 C   0  0  0  0  0  0  0  0  0  0  0  0
   -1.2145    0.7454   -0.1231 C   0  0  0  0  0  0  0  0  0  0  0  0
   -1.7422   -0.6203    0.3849 C   0  0  0  0  0  0  0  0  0  0  0  0
   -0.8580   -1.1305    1.5356 C   0  0  0  0  0  0  0  0  0  0  0  0
    0.6225   -0.9654    1.2599 C   0  0  0  0  0  0  0  0  0  0  0  0
    1.5228   -1.5845    2.1404 C   0  0  0  0  0  0  0  0  0  0  0  0
    2.8960   -1.5200    1.9154 C   0  0  0  0  0  0  0  0  0  0  0  0
    3.3912   -0.8478    0.7966 C   0  0  0  0  0  0  0  0  0  0  0  0
    4.7606   -0.8079    0.5431 O   0  0  0  0  0  0  0  0  0  0  0  0
    2.5099   -0.2118   -0.0810 C   0  0  0  0  0  0  0  0  0  0  0  0
    1.1170   -0.2114    0.1558 C   0  0  0  0  0  0  0  0  0  0  0  0
   -3.2164   -2.8434    0.3143 H   0  0  0  0  0  0  0  0  0  0  0  0
   -3.8569   -1.7614   -0.9898 H   0  0  0  0  0  0  0  0  0  0  0  0
   -2.9451   -3.2725   -1.4013 H   0  0  0  0  0  0  0  0  0  0  0  0
   -1.3496   -2.0503   -2.7340 H   0  0  0  0  0  0  0  0  0  0  0  0
   -2.2237   -0.5204   -2.4139 H   0  0  0  0  0  0  0  0  0  0  0  0
   -0.0257    0.1229   -3.0113 H   0  0  0  0  0  0  0  0  0  0  0  0
    0.7475   -1.2003   -2.1277 H   0  0  0  0  0  0  0  0  0  0  0  0
    1.6637    1.7799   -1.8380 H   0  0  0  0  0  0  0  0  0  0  0  0
   -0.0103    2.2845   -2.0853 H   0  0  0  0  0  0  0  0  0  0  0  0
    1.1698    3.8668   -0.6115 H   0  0  0  0  0  0  0  0  0  0  0  0
    1.5311    2.5632    0.5707 H   0  0  0  0  0  0  0  0  0  0  0  0
   -0.4611    3.8621    1.2896 H   0  0  0  0  0  0  0  0  0  0  0  0
   -1.2703    3.5718   -0.2898 H   0  0  0  0  0  0  0  0  0  0  0  0
   -2.1503    2.0066    1.4034 H   0  0  0  0  0  0  0  0  0  0  0  0
   -0.4853    1.4976    1.8336 H   0  0  0  0  0  0  0  0  0  0  0  0
   -1.9419    1.1415   -0.8681 H   0  0  0  0  0  0  0  0  0  0  0  0
   -2.7691   -0.4517    0.7865 H   0  0  0  0  0  0  0  0  0  0  0  0
   -1.1160   -0.6038    2.4793 H   0  0  0  0  0  0  0  0  0  0  0  0
   -1.0793   -2.2069    1.7090 H   0  0  0  0  0  0  0  0  0  0  0  0
    1.1559   -2.1354    2.9981 H   0  0  0  0  0  0  0  0  0  0  0  0
    3.5743   -2.0116    2.6013 H   0  0  0  0  0  0  0  0  0  0  0  0
    5.4270   -1.2597    1.1584 H   0  0  0  0  0  0  0  0  0  0  0  0
    2.9295    0.2674   -0.9521 H   0  0  0  0  0  0  0  0  0  0  0  0
  1  2  1  0
  2  3  1  0
  3  4  1  0
  4  5  1  0
  5  6  1  0
  6  7  1  0
  7  8  1  0
  8  9  1  0
  9 10  1  0
 10  5  1  0
 10 11  1  0
 11  2  1  0
 11 12  1  0
 12 13  1  0
 13 14  2  0
 14 15  1  0
 15 16  2  0
 16 17  1  0
 16 18  1  0
 18 19  2  0
 19  5  1  0
 19 13  1  0
  1 20  1  0
  1 21  1  0
  1 22  1  0
  3 23  1  0
  3 24  1  0
  4 25  1  0
  4 26  1  0
  6 27  1  0
  6 28  1  0
  7 29  1  0
  7 30  1  0
  8 31  1  0
  8 32  1  0
  9 33  1  0
  9 34  1  0
 10 35  1  0
 11 36  1  0
 12 37  1  0
 12 38  1  0
 14 39  1  0
 15 40  1  0
 17 41  1  0
 18 42  1  0
M  END
> <ID>
HT1201

> <Class>
0.0

> <Clusters>
147

> <Fold>
2

$$$$