
     RDKit          3D

 37 38  0  0  0  0  0  0  0  0999 V2000
   -2.6023    0.4694    1.6652 C   0  0  0  0  0  0  0  0  0  0  0  0
   -2.0489    0.8880    0.3042 C   0  0  0  0  0  0  0  0  0  0  0  0
   -1.6082   -0.2792   -0.4777 N   0  0  0  0  0  0  0  0  0  0  0  0
   -2.6212   -1.2386   -0.9463 C   0  0  0  0  0  0  0  0  0  0  0  0
   -2.4282   -2.5951   -0.2750 C   0  0  0  0  0  0  0  0  0  0  0  0
   -0.2436   -0.4151   -0.9431 C   0  0  0  0  0  0  0  0  0  0  0  0
    0.0019   -1.1418   -1.9448 O   0  0  0  0  0  0  0  0  0  0  0  0
    0.9129    0.3148   -0.3029 C   0  0  1  0  0  0  0  0  0  0  0  0
    1.1190    0.1856    1.2063 C   0  0  0  0  0  0  0  0  0  0  0  0
    2.0562   -0.5487    0.2556 C   0  0  1  0  0  0  0  0  0  0  0  0
    1.8989   -2.0828    0.2750 C   0  0  0  0  0  0  0  0  0  0  0  0
    2.7791   -2.6814    1.2745 N   0  0  0  0  0  0  0  0  0  0  0  0
    1.3950    1.5707   -0.9679 C   0  0  0  0  0  0  0  0  0  0  0  0
    1.1434    2.8746   -0.5572 C   0  0  0  0  0  0  0  0  0  0  0  0
    1.7064    3.8369   -1.4038 C   0  0  0  0  0  0  0  0  0  0  0  0
    2.3952    3.2974   -2.4824 C   0  0  0  0  0  0  0  0  0  0  0  0
    2.3038    1.6215   -2.3821 S   0  0  0  0  0  0  0  0  0  0  0  0
   -1.8639   -0.1482    2.2148 H   0  0  0  0  0  0  0  0  0  0  0  0
   -3.5399   -0.1118    1.5453 H   0  0  0  0  0  0  0  0  0  0  0  0
   -2.8281    1.3743    2.2678 H   0  0  0  0  0  0  0  0  0  0  0  0
   -2.8361    1.4337   -0.2595 H   0  0  0  0  0  0  0  0  0  0  0  0
   -1.2215    1.6027    0.4680 H   0  0  0  0  0  0  0  0  0  0  0  0
   -3.6466   -0.8732   -0.7206 H   0  0  0  0  0  0  0  0  0  0  0  0
   -2.5584   -1.3524   -2.0502 H   0  0  0  0  0  0  0  0  0  0  0  0
   -1.4475   -3.0320   -0.5568 H   0  0  0  0  0  0  0  0  0  0  0  0
   -2.4742   -2.4858    0.8290 H   0  0  0  0  0  0  0  0  0  0  0  0
   -3.2314   -3.2893   -0.6000 H   0  0  0  0  0  0  0  0  0  0  0  0
    1.5862    1.0627    1.7023 H   0  0  0  0  0  0  0  0  0  0  0  0
    0.3926   -0.4612    1.7394 H   0  0  0  0  0  0  0  0  0  0  0  0
    3.0800   -0.1164    0.2102 H   0  0  0  0  0  0  0  0  0  0  0  0
    2.1713   -2.4783   -0.7264 H   0  0  0  0  0  0  0  0  0  0  0  0
    0.8542   -2.3979    0.4872 H   0  0  0  0  0  0  0  0  0  0  0  0
    3.7667   -2.4129    1.0575 H   0  0  0  0  0  0  0  0  0  0  0  0
    2.5411   -2.2821    2.2116 H   0  0  0  0  0  0  0  0  0  0  0  0
    0.5808    3.1293    0.3305 H   0  0  0  0  0  0  0  0  0  0  0  0
    1.6137    4.9012   -1.2340 H   0  0  0  0  0  0  0  0  0  0  0  0
    2.9016    3.8612   -3.2541 H   0  0  0  0  0  0  0  0  0  0  0  0
  1  2  1  0
  2  3  1  0
  3  4  1  0
  4  5  1  0
  3  6  1  0
  6  7  2  0
  8  6  1  1
  8  9  1  0
  9 10  1  0
 10  8  1  0
 10 11  1  0
 11 12  1  0
  8 13  1  0
 13 14  2  0
 14 15  1  0
 15 16  2  0
 16 17  1  0
 17 13  1  0
  1 18  1  0
  1 19  1  0
  1 20  1  0
  2 21  1  0
  2 22  1  0
  4 23  1  0
  4 24  1  0
  5 25  1  0
  5 26  1  0
  5 27  1  0
  9 28  1  0
  9 29  1  0
 10 30  1  6
 11 31  1  0
 11 32  1  0
 12 33  1  0
 12 34  1  0
 14 35  1  0
 15 36  1  0
 16 37  1  0
M  END
> <ID>
HT1401

> <Class>
0.0

> <Clusters>
77

> <Fold>
2

$$$$