
     RDKit          3D

 79 80  0  0  0  0  0  0  0  0999 V2000
  -10.8922    0.2084    0.2258 C   0  0  0  0  0  0  0  0  0  0  0  0
   -9.8361   -0.6914    0.9005 C   0  0  2  0  0  0  0  0  0  0  0  0
  -10.2952   -1.1842    2.1358 O   0  0  0  0  0  0  0  0  0  0  0  0
   -8.4366   -0.0275    1.0590 C   0  0  2  0  0  0  0  0  0  0  0  0
   -8.4626    1.1904    1.9986 C   0  0  0  0  0  0  0  0  0  0  0  0
   -7.8052    0.3898   -0.2915 C   0  0  2  0  0  0  0  0  0  0  0  0
   -8.0817   -0.5209   -1.3346 O   0  0  0  0  0  0  0  0  0  0  0  0
   -6.7623   -0.5237   -0.8392 C   0  0  1  0  0  0  0  0  0  0  0  0
   -5.7997    0.0526   -1.8884 C   0  0  0  0  0  0  0  0  0  0  0  0
   -4.3564    0.2398   -1.3677 C   0  0  1  0  0  0  0  0  0  0  0  0
   -4.2480    1.3613   -0.2936 C   0  0  0  0  0  0  0  0  0  0  0  0
   -3.2628    1.1036    0.6978 O   0  0  0  0  0  0  0  0  0  0  0  0
   -2.0543    0.6607    0.1065 C   0  0  1  0  0  0  0  0  0  0  0  0
   -0.9279    0.7492    1.1553 C   0  0  0  0  0  0  0  0  0  0  0  0
    0.4229    0.3661    0.5802 C   0  0  0  0  0  0  0  0  0  0  0  0
    0.9913   -0.7997    0.9567 C   0  0  0  0  0  0  0  0  0  0  0  0
    2.2717   -1.3482    0.4602 C   0  0  0  0  0  0  0  0  0  0  0  0
    2.7116   -2.4084    0.9838 O   0  0  0  0  0  0  0  0  0  0  0  0
    2.9730   -0.7455   -0.5901 O   0  0  0  0  0  0  0  0  0  0  0  0
    4.1443   -1.3074   -1.1827 C   0  0  0  0  0  0  0  0  0  0  0  0
    5.3812   -1.0851   -0.3039 C   0  0  0  0  0  0  0  0  0  0  0  0
    5.7499    0.4025   -0.2048 C   0  0  0  0  0  0  0  0  0  0  0  0
    6.8913    0.6749    0.7943 C   0  0  0  0  0  0  0  0  0  0  0  0
    8.2224   -0.0358    0.4820 C   0  0  0  0  0  0  0  0  0  0  0  0
    8.8492    0.4185   -0.8464 C   0  0  0  0  0  0  0  0  0  0  0  0
   10.1827   -0.2895   -1.1548 C   0  0  0  0  0  0  0  0  0  0  0  0
   11.3875    0.2881   -0.3887 C   0  0  0  0  0  0  0  0  0  0  0  0
   11.5167   -0.2722    0.9965 C   0  0  0  0  0  0  0  0  0  0  0  0
   11.6985   -1.5075    1.1592 O   0  0  0  0  0  0  0  0  0  0  0  0
   11.4704    0.5638    2.1112 O   0  0  0  0  0  0  0  0  0  0  0  0
    1.0884    1.3227   -0.3723 C   0  0  0  0  0  0  0  0  0  0  0  0
   -2.2362   -0.7935   -0.4248 C   0  0  2  0  0  0  0  0  0  0  0  0
   -1.3419   -1.0498   -1.4825 O   0  0  0  0  0  0  0  0  0  0  0  0
   -3.7071   -1.0622   -0.8471 C   0  0  2  0  0  0  0  0  0  0  0  0
   -3.7709   -2.0678   -1.8270 O   0  0  0  0  0  0  0  0  0  0  0  0
  -10.5235    0.5924   -0.7486 H   0  0  0  0  0  0  0  0  0  0  0  0
  -11.1738    1.0699    0.8733 H   0  0  0  0  0  0  0  0  0  0  0  0
  -11.8121   -0.3888    0.0320 H   0  0  0  0  0  0  0  0  0  0  0  0
   -9.7150   -1.5792    0.2415 H   0  0  0  0  0  0  0  0  0  0  0  0
  -10.7211   -0.4358    2.6332 H   0  0  0  0  0  0  0  0  0  0  0  0
   -7.7705   -0.7772    1.5470 H   0  0  0  0  0  0  0  0  0  0  0  0
   -9.1293    1.9853    1.6002 H   0  0  0  0  0  0  0  0  0  0  0  0
   -7.4400    1.6177    2.0986 H   0  0  0  0  0  0  0  0  0  0  0  0
   -8.8052    0.8974    3.0125 H   0  0  0  0  0  0  0  0  0  0  0  0
   -7.8719    1.4388   -0.6533 H   0  0  0  0  0  0  0  0  0  0  0  0
   -6.5507   -1.4978   -0.3488 H   0  0  0  0  0  0  0  0  0  0  0  0
   -6.1667    1.0277   -2.2793 H   0  0  0  0  0  0  0  0  0  0  0  0
   -5.7816   -0.6422   -2.7550 H   0  0  0  0  0  0  0  0  0  0  0  0
   -3.7602    0.5737   -2.2477 H   0  0  0  0  0  0  0  0  0  0  0  0
   -5.2141    1.4803    0.2348 H   0  0  0  0  0  0  0  0  0  0  0  0
   -4.0364    2.3366   -0.7850 H   0  0  0  0  0  0  0  0  0  0  0  0
   -1.7788    1.3431   -0.7334 H   0  0  0  0  0  0  0  0  0  0  0  0
   -0.8673    1.7921    1.5384 H   0  0  0  0  0  0  0  0  0  0  0  0
   -1.1940    0.1141    2.0307 H   0  0  0  0  0  0  0  0  0  0  0  0
    0.4675   -1.4168    1.6752 H   0  0  0  0  0  0  0  0  0  0  0  0
    4.3072   -0.8385   -2.1773 H   0  0  0  0  0  0  0  0  0  0  0  0
    3.9937   -2.3961   -1.3535 H   0  0  0  0  0  0  0  0  0  0  0  0
    6.2234   -1.6471   -0.7599 H   0  0  0  0  0  0  0  0  0  0  0  0
    5.2000   -1.4991    0.7098 H   0  0  0  0  0  0  0  0  0  0  0  0
    6.0136    0.7983   -1.2069 H   0  0  0  0  0  0  0  0  0  0  0  0
    4.8588    0.9697    0.1420 H   0  0  0  0  0  0  0  0  0  0  0  0
    7.0691    1.7716    0.8384 H   0  0  0  0  0  0  0  0  0  0  0  0
    6.5558    0.3646    1.8083 H   0  0  0  0  0  0  0  0  0  0  0  0
    8.0837   -1.1374    0.4846 H   0  0  0  0  0  0  0  0  0  0  0  0
    8.9172    0.2040    1.3118 H   0  0  0  0  0  0  0  0  0  0  0  0
    8.1517    0.1753   -1.6755 H   0  0  0  0  0  0  0  0  0  0  0  0
    8.9935    1.5212   -0.8448 H   0  0  0  0  0  0  0  0  0  0  0  0
   10.0915   -1.3880   -0.9944 H   0  0  0  0  0  0  0  0  0  0  0  0
   10.3879   -0.1480   -2.2390 H   0  0  0  0  0  0  0  0  0  0  0  0
   12.3178    0.0355   -0.9423 H   0  0  0  0  0  0  0  0  0  0  0  0
   11.3232    1.3965   -0.3540 H   0  0  0  0  0  0  0  0  0  0  0  0
   11.3104    1.5601    2.0140 H   0  0  0  0  0  0  0  0  0  0  0  0
    2.0921    1.6071    0.0092 H   0  0  0  0  0  0  0  0  0  0  0  0
    0.4959    2.2557   -0.4811 H   0  0  0  0  0  0  0  0  0  0  0  0
    1.1731    0.8603   -1.3762 H   0  0  0  0  0  0  0  0  0  0  0  0
   -1.9996   -1.5154    0.3879 H   0  0  0  0  0  0  0  0  0  0  0  0
   -1.5700   -0.4347   -2.2276 H   0  0  0  0  0  0  0  0  0  0  0  0
   -4.2688   -1.3953    0.0579 H   0  0  0  0  0  0  0  0  0  0  0  0
   -3.5522   -2.9236   -1.3728 H   0  0  0  0  0  0  0  0  0  0  0  0
  1  2  1  0
  2  3  1  0
  2  4  1  0
  4  5  1  0
  6  4  1  0
  6  7  1  0
  7  8  1  0
  8  6  1  0
  8  9  1  0
 10  9  1  0
 10 11  1  0
 11 12  1  0
 12 13  1  0
 13 14  1  0
 14 15  1  0
 15 16  2  3
 16 17  1  0
 17 18  2  0
 17 19  1  0
 19 20  1  0
 20 21  1  0
 21 22  1  0
 22 23  1  0
 23 24  1  0
 24 25  1  0
 25 26  1  0
 26 27  1  0
 27 28  1  0
 28 29  2  0
 28 30  1  0
 15 31  1  0
 13 32  1  0
 32 33  1  0
 32 34  1  0
 34 10  1  0
 34 35  1  0
  1 36  1  0
  1 37  1  0
  1 38  1  0
  2 39  1  6
  3 40  1  0
  4 41  1  1
  5 42  1  0
  5 43  1  0
  5 44  1  0
  6 45  1  6
  8 46  1  1
  9 47  1  0
  9 48  1  0
 10 49  1  6
 11 50  1  0
 11 51  1  0
 13 52  1  6
 14 53  1  0
 14 54  1  0
 16 55  1  0
 20 56  1  0
 20 57  1  0
 21 58  1  0
 21 59  1  0
 22 60  1  0
 22 61  1  0
 23 62  1  0
 23 63  1  0
 24 64  1  0
 24 65  1  0
 25 66  1  0
 25 67  1  0
 26 68  1  0
 26 69  1  0
 27 70  1  0
 27 71  1  0
 30 72  1  0
 31 73  1  0
 31 74  1  0
 31 75  1  0
 32 76  1  1
 33 77  1  0
 34 78  1  1
 35 79  1  0
M  END
> <ID>
HT1441

> <Class>
0.0

> <Clusters>
12

> <Fold>
2

$$$$