
     RDKit          3D

 31 32  0  0  0  0  0  0  0  0999 V2000
    1.6764   -2.0393   -1.0067 C   0  0  0  0  0  0  0  0  0  0  0  0
    0.7522   -1.1348   -0.1544 C   0  0  0  0  0  0  0  0  0  0  0  0
    0.4412   -1.9099    1.1509 C   0  0  0  0  0  0  0  0  0  0  0  0
   -0.5728   -0.8802   -0.8905 C   0  0  0  0  0  0  0  0  0  0  0  0
   -0.7037   -1.3152   -2.0695 O   0  0  0  0  0  0  0  0  0  0  0  0
   -1.7370   -0.1621   -0.2859 C   0  0  0  0  0  0  0  0  0  0  0  0
   -3.0223   -0.3514   -0.8284 C   0  0  0  0  0  0  0  0  0  0  0  0
   -4.1253    0.3120   -0.2901 C   0  0  0  0  0  0  0  0  0  0  0  0
   -3.9439    1.1720    0.7904 C   0  0  0  0  0  0  0  0  0  0  0  0
   -2.7025    1.3590    1.3066 N   0  0  0  0  0  0  0  0  0  0  0  0
   -1.6104    0.7244    0.8028 C   0  0  0  0  0  0  0  0  0  0  0  0
    1.5030    0.1869    0.0729 C   0  0  0  0  0  0  0  0  0  0  0  0
    1.6413    1.1044   -0.9892 C   0  0  0  0  0  0  0  0  0  0  0  0
    2.3341    2.3014   -0.8105 C   0  0  0  0  0  0  0  0  0  0  0  0
    2.9055    2.5813    0.4281 C   0  0  0  0  0  0  0  0  0  0  0  0
    2.7911    1.6894    1.4449 N   0  0  0  0  0  0  0  0  0  0  0  0
    2.1207    0.5153    1.3009 C   0  0  0  0  0  0  0  0  0  0  0  0
    1.9092   -1.5678   -1.9860 H   0  0  0  0  0  0  0  0  0  0  0  0
    1.1964   -3.0233   -1.2014 H   0  0  0  0  0  0  0  0  0  0  0  0
    2.6387   -2.2219   -0.4802 H   0  0  0  0  0  0  0  0  0  0  0  0
   -0.1001   -1.2808    1.8859 H   0  0  0  0  0  0  0  0  0  0  0  0
    1.3727   -2.2799    1.6309 H   0  0  0  0  0  0  0  0  0  0  0  0
   -0.1917   -2.7975    0.9315 H   0  0  0  0  0  0  0  0  0  0  0  0
   -3.1785   -1.0215   -1.6647 H   0  0  0  0  0  0  0  0  0  0  0  0
   -5.1124    0.1596   -0.7072 H   0  0  0  0  0  0  0  0  0  0  0  0
   -4.7896    1.6936    1.2183 H   0  0  0  0  0  0  0  0  0  0  0  0
   -0.6565    0.9304    1.2562 H   0  0  0  0  0  0  0  0  0  0  0  0
    1.2101    0.8941   -1.9597 H   0  0  0  0  0  0  0  0  0  0  0  0
    2.4299    3.0048   -1.6276 H   0  0  0  0  0  0  0  0  0  0  0  0
    3.4465    3.5055    0.5808 H   0  0  0  0  0  0  0  0  0  0  0  0
    2.0778   -0.1485    2.1509 H   0  0  0  0  0  0  0  0  0  0  0  0
  1  2  1  0
  2  3  1  0
  2  4  1  0
  4  5  2  0
  4  6  1  0
  6  7  2  0
  7  8  1  0
  8  9  2  0
  9 10  1  0
 10 11  2  0
 11  6  1  0
  2 12  1  0
 12 13  2  0
 13 14  1  0
 14 15  2  0
 15 16  1  0
 16 17  2  0
 17 12  1  0
  1 18  1  0
  1 19  1  0
  1 20  1  0
  3 21  1  0
  3 22  1  0
  3 23  1  0
  7 24  1  0
  8 25  1  0
  9 26  1  0
 11 27  1  0
 13 28  1  0
 14 29  1  0
 15 30  1  0
 17 31  1  0
M  END
> <ID>
HT1383

> <Class>
0.0

> <Clusters>
98

> <Fold>
2

$$$$