
     RDKit          3D

 56 59  0  0  0  0  0  0  0  0999 V2000
    3.7637   -2.2692    1.7544 C   0  0  0  0  0  0  0  0  0  0  0  0
    3.0024   -0.9390    1.6530 C   0  0  2  0  0  0  0  0  0  0  0  0
    1.5192   -1.0882    2.0719 C   0  0  0  0  0  0  0  0  0  0  0  0
    0.7321   -0.6674    0.8377 C   0  0  1  0  0  0  0  0  0  0  0  0
   -0.7498   -0.2480    1.0007 C   0  0  2  0  0  0  0  0  0  0  0  0
   -1.5529   -1.3236    1.7701 C   0  0  0  0  0  0  0  0  0  0  0  0
   -3.0226   -0.9276    1.9192 C   0  0  0  0  0  0  0  0  0  0  0  0
   -3.6137   -0.5920    0.5716 C   0  0  0  0  0  0  0  0  0  0  0  0
   -4.7140   -1.2375    0.1524 C   0  0  0  0  0  0  0  0  0  0  0  0
   -5.2851   -0.9717   -1.1678 C   0  0  0  0  0  0  0  0  0  0  0  0
   -6.3271   -1.5726   -1.5396 O   0  0  0  0  0  0  0  0  0  0  0  0
   -4.6332   -0.0139   -2.0574 C   0  0  0  0  0  0  0  0  0  0  0  0
   -3.5374    0.6376   -1.6667 C   0  0  0  0  0  0  0  0  0  0  0  0
   -2.9094    0.4813   -0.2786 C   0  0  1  0  0  0  0  0  0  0  0  0
   -3.1316    1.8397    0.4391 C   0  0  0  0  0  0  0  0  0  0  0  0
   -1.3832    0.0444   -0.4193 C   0  0  2  0  0  0  0  0  0  0  0  0
   -1.3821   -1.4962   -1.3877 Cl  0  0  0  0  0  0  0  0  0  0  0  0
   -0.4875    1.0504   -1.2406 C   0  0  1  0  0  0  0  0  0  0  0  0
   -0.6299    2.3653   -0.7752 O   0  0  0  0  0  0  0  0  0  0  0  0
    1.0231    0.6623   -1.2586 C   0  0  0  0  0  0  0  0  0  0  0  0
    1.6033    0.4043    0.1613 C   0  0  1  0  0  0  0  0  0  0  0  0
    1.6629    1.7514    0.9633 C   0  0  0  0  0  0  0  0  0  0  0  0
    3.0032   -0.2974    0.2121 C   0  0  2  0  0  0  0  0  0  0  0  0
    3.0419   -1.3168   -0.7684 O   0  0  0  0  0  0  0  0  0  0  0  0
    4.1708    0.6725   -0.0232 C   0  0  0  0  0  0  0  0  0  0  0  0
    4.8825    1.0255    0.9061 O   0  0  0  0  0  0  0  0  0  0  0  0
    4.4731    1.2037   -1.3972 C   0  0  0  0  0  0  0  0  0  0  0  0
    6.1350    0.7691   -1.8679 Cl  0  0  0  0  0  0  0  0  0  0  0  0
    4.8161   -2.1306    1.4278 H   0  0  0  0  0  0  0  0  0  0  0  0
    3.2833   -3.0522    1.1297 H   0  0  0  0  0  0  0  0  0  0  0  0
    3.7713   -2.6185    2.8089 H   0  0  0  0  0  0  0  0  0  0  0  0
    3.4744   -0.2499    2.3871 H   0  0  0  0  0  0  0  0  0  0  0  0
    1.2603   -2.1296    2.3666 H   0  0  0  0  0  0  0  0  0  0  0  0
    1.2858   -0.4133    2.9249 H   0  0  0  0  0  0  0  0  0  0  0  0
    0.7298   -1.5759    0.1923 H   0  0  0  0  0  0  0  0  0  0  0  0
   -0.7828    0.6601    1.6280 H   0  0  0  0  0  0  0  0  0  0  0  0
   -1.1288   -1.4501    2.7895 H   0  0  0  0  0  0  0  0  0  0  0  0
   -1.4837   -2.3083    1.2592 H   0  0  0  0  0  0  0  0  0  0  0  0
   -3.1030   -0.0441    2.5873 H   0  0  0  0  0  0  0  0  0  0  0  0
   -3.5681   -1.7611    2.4142 H   0  0  0  0  0  0  0  0  0  0  0  0
   -5.1900   -1.9813    0.7804 H   0  0  0  0  0  0  0  0  0  0  0  0
   -5.0441    0.1686   -3.0427 H   0  0  0  0  0  0  0  0  0  0  0  0
   -3.1113    1.3576   -2.3540 H   0  0  0  0  0  0  0  0  0  0  0  0
   -4.1999    1.9437    0.7310 H   0  0  0  0  0  0  0  0  0  0  0  0
   -2.5282    1.9452    1.3601 H   0  0  0  0  0  0  0  0  0  0  0  0
   -2.9175    2.7049   -0.2214 H   0  0  0  0  0  0  0  0  0  0  0  0
   -0.8295    1.0200   -2.3013 H   0  0  0  0  0  0  0  0  0  0  0  0
   -0.3195    2.9694   -1.4998 H   0  0  0  0  0  0  0  0  0  0  0  0
    1.5945    1.4714   -1.7604 H   0  0  0  0  0  0  0  0  0  0  0  0
    1.1400   -0.2420   -1.8928 H   0  0  0  0  0  0  0  0  0  0  0  0
    0.6741    2.1771    1.2008 H   0  0  0  0  0  0  0  0  0  0  0  0
    2.2109    2.5205    0.3787 H   0  0  0  0  0  0  0  0  0  0  0  0
    2.1872    1.6400    1.9334 H   0  0  0  0  0  0  0  0  0  0  0  0
    3.9728   -1.6561   -0.8371 H   0  0  0  0  0  0  0  0  0  0  0  0
    4.3688    2.3087   -1.3989 H   0  0  0  0  0  0  0  0  0  0  0  0
    3.7836    0.7793   -2.1541 H   0  0  0  0  0  0  0  0  0  0  0  0
  2  1  1  0
  2  3  1  0
  4  3  1  0
  4  5  1  0
  5  6  1  0
  6  7  1  0
  7  8  1  0
  8  9  2  0
  9 10  1  0
 10 11  2  0
 10 12  1  0
 12 13  2  0
 13 14  1  0
 14  8  1  0
 14 15  1  1
 14 16  1  0
 16  5  1  0
 16 17  1  6
 16 18  1  0
 18 19  1  0
 18 20  1  0
 20 21  1  0
 21  4  1  0
 21 22  1  1
 21 23  1  0
 23  2  1  0
 23 24  1  6
 23 25  1  0
 25 26  2  0
 25 27  1  0
 27 28  1  0
  1 29  1  0
  1 30  1  0
  1 31  1  0
  2 32  1  1
  3 33  1  0
  3 34  1  0
  4 35  1  6
  5 36  1  1
  6 37  1  0
  6 38  1  0
  7 39  1  0
  7 40  1  0
  9 41  1  0
 12 42  1  0
 13 43  1  0
 15 44  1  0
 15 45  1  0
 15 46  1  0
 18 47  1  6
 19 48  1  0
 20 49  1  0
 20 50  1  0
 22 51  1  0
 22 52  1  0
 22 53  1  0
 24 54  1  0
 27 55  1  0
 27 56  1  0
M  END
> <ID>
HT1427

> <Class>
0.0

> <Clusters>
35

> <Fold>
2

$$$$