
     RDKit          3D

 31 33  0  0  0  0  0  0  0  0999 V2000
    5.1719    1.4881   -0.4932 C   0  0  0  0  0  0  0  0  0  0  0  0
    4.7291    0.1661   -0.2040 O   0  0  0  0  0  0  0  0  0  0  0  0
    3.3830   -0.2083   -0.0783 C   0  0  0  0  0  0  0  0  0  0  0  0
    3.0888   -1.5457    0.2088 C   0  0  0  0  0  0  0  0  0  0  0  0
    1.7638   -1.9699    0.3440 C   0  0  0  0  0  0  0  0  0  0  0  0
    0.7064   -1.0589    0.1936 C   0  0  0  0  0  0  0  0  0  0  0  0
    1.0012    0.2866   -0.0952 C   0  0  0  0  0  0  0  0  0  0  0  0
    2.3266    0.7093   -0.2301 C   0  0  0  0  0  0  0  0  0  0  0  0
   -0.7230   -1.5319    0.3426 C   0  0  0  0  0  0  0  0  0  0  0  0
   -1.4633   -0.7500    1.3947 C   0  0  0  0  0  0  0  0  0  0  0  0
   -1.1594   -0.7226    2.6168 O   0  0  0  0  0  0  0  0  0  0  0  0
   -2.5912   -0.0422    0.8036 C   0  0  0  0  0  0  0  0  0  0  0  0
   -3.5257    0.8002    1.4068 C   0  0  0  0  0  0  0  0  0  0  0  0
   -4.5287    1.3653    0.6006 C   0  0  0  0  0  0  0  0  0  0  0  0
   -4.5782    1.0800   -0.7795 C   0  0  0  0  0  0  0  0  0  0  0  0
   -3.6250    0.2276   -1.3628 C   0  0  0  0  0  0  0  0  0  0  0  0
   -2.6394   -0.3202   -0.5411 C   0  0  0  0  0  0  0  0  0  0  0  0
   -1.5449   -1.2201   -0.8795 C   0  0  0  0  0  0  0  0  0  0  0  0
   -1.3261   -1.6833   -2.0302 O   0  0  0  0  0  0  0  0  0  0  0  0
    4.8396    2.1852    0.3048 H   0  0  0  0  0  0  0  0  0  0  0  0
    4.7756    1.8169   -1.4771 H   0  0  0  0  0  0  0  0  0  0  0  0
    6.2803    1.4983   -0.5350 H   0  0  0  0  0  0  0  0  0  0  0  0
    3.8927   -2.2611    0.3278 H   0  0  0  0  0  0  0  0  0  0  0  0
    1.5649   -3.0109    0.5664 H   0  0  0  0  0  0  0  0  0  0  0  0
    0.2034    1.0090   -0.2159 H   0  0  0  0  0  0  0  0  0  0  0  0
    2.5184    1.7501   -0.4522 H   0  0  0  0  0  0  0  0  0  0  0  0
   -0.7834   -2.6186    0.5695 H   0  0  0  0  0  0  0  0  0  0  0  0
   -3.4807    1.0145    2.4666 H   0  0  0  0  0  0  0  0  0  0  0  0
   -5.2666    2.0228    1.0415 H   0  0  0  0  0  0  0  0  0  0  0  0
   -5.3539    1.5196   -1.3929 H   0  0  0  0  0  0  0  0  0  0  0  0
   -3.6561    0.0040   -2.4212 H   0  0  0  0  0  0  0  0  0  0  0  0
  1  2  1  0
  2  3  1  0
  3  4  2  0
  4  5  1  0
  5  6  2  0
  6  7  1  0
  7  8  2  0
  8  3  1  0
  6  9  1  0
  9 10  1  0
 10 11  2  0
 10 12  1  0
 12 13  2  0
 13 14  1  0
 14 15  2  0
 15 16  1  0
 16 17  2  0
 17 12  1  0
 17 18  1  0
 18  9  1  0
 18 19  2  0
  1 20  1  0
  1 21  1  0
  1 22  1  0
  4 23  1  0
  5 24  1  0
  7 25  1  0
  8 26  1  0
  9 27  1  0
 13 28  1  0
 14 29  1  0
 15 30  1  0
 16 31  1  0
M  END
> <ID>
HT0162

> <Class>
0.0

> <Clusters>
106

> <Fold>
2

$$$$