
     RDKit          3D

 22 22  0  0  0  0  0  0  0  0999 V2000
   -0.9757   -1.7885    0.5408 C   0  0  0  0  0  0  0  0  0  0  0  0
   -0.0452   -0.7184    0.1873 N   0  0  0  0  0  0  0  0  0  0  0  0
    1.2570   -0.9873    0.0792 N   0  0  0  0  0  0  0  0  0  0  0  0
    1.9892    0.0616   -0.3499 C   0  0  0  0  0  0  0  0  0  0  0  0
    1.0271    1.4067   -0.6439 S   0  0  0  0  0  0  0  0  0  0  0  0
   -0.3511    0.5697   -0.1606 C   0  0  0  0  0  0  0  0  0  0  0  0
   -1.5351    1.1160   -0.2036 N   0  0  0  0  0  0  0  0  0  0  0  0
   -2.7810    0.6016    0.2744 C   0  0  0  0  0  0  0  0  0  0  0  0
   -2.9017    0.2434    1.4759 O   0  0  0  0  0  0  0  0  0  0  0  0
   -3.9897    0.6768   -0.5956 C   0  0  0  0  0  0  0  0  0  0  0  0
    3.7235    0.0048   -0.5907 S   0  0  0  0  0  0  0  0  0  0  0  0
    4.0459    0.3870   -2.0076 O   0  0  0  0  0  0  0  0  0  0  0  0
    4.2179   -1.3908   -0.3339 O   0  0  0  0  0  0  0  0  0  0  0  0
    4.5030    1.0947    0.5015 N   0  0  0  0  0  0  0  0  0  0  0  0
   -0.4492   -2.7671    0.5413 H   0  0  0  0  0  0  0  0  0  0  0  0
   -1.3683   -1.6315    1.5645 H   0  0  0  0  0  0  0  0  0  0  0  0
   -1.7961   -1.8520   -0.2043 H   0  0  0  0  0  0  0  0  0  0  0  0
   -4.7061   -0.1271   -0.3242 H   0  0  0  0  0  0  0  0  0  0  0  0
   -3.6986    0.5506   -1.6595 H   0  0  0  0  0  0  0  0  0  0  0  0
   -4.4795    1.6641   -0.4651 H   0  0  0  0  0  0  0  0  0  0  0  0
    4.1235    2.0480    0.3055 H   0  0  0  0  0  0  0  0  0  0  0  0
    4.1900    0.8378    1.4645 H   0  0  0  0  0  0  0  0  0  0  0  0
  1  2  1  0
  2  3  1  0
  3  4  2  0
  4  5  1  0
  5  6  1  0
  6  2  1  0
  6  7  2  3
  7  8  1  0
  8  9  2  0
  8 10  1  0
  4 11  1  0
 11 12  2  0
 11 13  2  0
 11 14  1  0
  1 15  1  0
  1 16  1  0
  1 17  1  0
 10 18  1  0
 10 19  1  0
 10 20  1  0
 14 21  1  0
 14 22  1  0
M  END
> <ID>
HT1338

> <Class>
0.0

> <Clusters>
97

> <Fold>
2

$$$$