
     RDKit          3D

 28 29  0  0  0  0  0  0  0  0999 V2000
   -3.4359    1.4295   -0.8434 C   0  0  0  0  0  0  0  0  0  0  0  0
   -2.3513    0.6743   -0.2261 N   0  0  0  0  0  0  0  0  0  0  0  0
   -2.1603    0.4696    1.1586 C   0  0  0  0  0  0  0  0  0  0  0  0
   -2.9244    0.9528    2.0358 O   0  0  0  0  0  0  0  0  0  0  0  0
   -0.9701   -0.3743    1.4681 C   0  0  0  0  0  0  0  0  0  0  0  0
   -0.3570   -0.7094    0.0680 C   0  0  0  0  0  0  0  0  0  0  0  0
   -0.3982   -2.2271   -0.2051 C   0  0  0  0  0  0  0  0  0  0  0  0
   -1.3145   -0.0294   -0.8845 C   0  0  0  0  0  0  0  0  0  0  0  0
   -1.2478   -0.1258   -2.1406 O   0  0  0  0  0  0  0  0  0  0  0  0
    1.0845   -0.1851   -0.0229 C   0  0  0  0  0  0  0  0  0  0  0  0
    2.0648   -0.7149    0.8442 C   0  0  0  0  0  0  0  0  0  0  0  0
    3.3859   -0.2619    0.7971 C   0  0  0  0  0  0  0  0  0  0  0  0
    3.7532    0.7329   -0.1083 C   0  0  0  0  0  0  0  0  0  0  0  0
    2.7984    1.2823   -0.9637 C   0  0  0  0  0  0  0  0  0  0  0  0
    1.4744    0.8346   -0.9226 C   0  0  0  0  0  0  0  0  0  0  0  0
   -4.4106    0.9810   -0.5591 H   0  0  0  0  0  0  0  0  0  0  0  0
   -3.4012    2.4825   -0.4939 H   0  0  0  0  0  0  0  0  0  0  0  0
   -3.3434    1.4163   -1.9495 H   0  0  0  0  0  0  0  0  0  0  0  0
   -1.2944   -1.2844    2.0182 H   0  0  0  0  0  0  0  0  0  0  0  0
   -0.2745    0.2068    2.1122 H   0  0  0  0  0  0  0  0  0  0  0  0
    0.1568   -2.7914    0.5729 H   0  0  0  0  0  0  0  0  0  0  0  0
   -1.4469   -2.5971   -0.2056 H   0  0  0  0  0  0  0  0  0  0  0  0
    0.0546   -2.4540   -1.1944 H   0  0  0  0  0  0  0  0  0  0  0  0
    1.8052   -1.4750    1.5696 H   0  0  0  0  0  0  0  0  0  0  0  0
    4.1249   -0.6807    1.4680 H   0  0  0  0  0  0  0  0  0  0  0  0
    4.7767    1.0835   -0.1422 H   0  0  0  0  0  0  0  0  0  0  0  0
    3.0833    2.0616   -1.6589 H   0  0  0  0  0  0  0  0  0  0  0  0
    0.7681    1.3029   -1.5920 H   0  0  0  0  0  0  0  0  0  0  0  0
  1  2  1  0
  2  3  1  0
  3  4  2  0
  3  5  1  0
  5  6  1  0
  6  7  1  0
  6  8  1  0
  8  2  1  0
  8  9  2  0
  6 10  1  0
 10 11  2  0
 11 12  1  0
 12 13  2  0
 13 14  1  0
 14 15  2  0
 15 10  1  0
  1 16  1  0
  1 17  1  0
  1 18  1  0
  5 19  1  0
  5 20  1  0
  7 21  1  0
  7 22  1  0
  7 23  1  0
 11 24  1  0
 12 25  1  0
 13 26  1  0
 14 27  1  0
 15 28  1  0
M  END
> <ID>
HT1354

> <Class>
0.0

> <Clusters>
157

> <Fold>
2

$$$$