
     RDKit          3D

 36 39  0  0  0  0  0  0  0  0999 V2000
   -3.4004   -0.2122   -2.0719 C   0  0  0  0  0  0  0  0  0  0  0  0
   -3.0401   -0.9149   -0.7994 C   0  0  0  0  0  0  0  0  0  0  0  0
   -3.4813   -2.1610   -0.5149 N   0  0  0  0  0  0  0  0  0  0  0  0
   -2.8557   -2.4876    0.6340 C   0  0  0  0  0  0  0  0  0  0  0  0
   -2.0487   -1.4416    1.0194 C   0  0  0  0  0  0  0  0  0  0  0  0
   -1.0372   -1.4443    2.1132 C   0  0  0  0  0  0  0  0  0  0  0  0
    0.2902   -1.3844    1.5140 N   0  0  0  0  0  0  0  0  0  0  0  0
    0.7521   -0.4115    0.7761 C   0  0  0  0  0  0  0  0  0  0  0  0
    2.1260   -0.5437    0.2248 C   0  0  0  0  0  0  0  0  0  0  0  0
    2.4181   -0.0587   -1.0645 C   0  0  0  0  0  0  0  0  0  0  0  0
    3.7036   -0.1884   -1.5971 C   0  0  0  0  0  0  0  0  0  0  0  0
    4.7107   -0.8061   -0.8537 C   0  0  0  0  0  0  0  0  0  0  0  0
    4.4343   -1.2966    0.4241 C   0  0  0  0  0  0  0  0  0  0  0  0
    3.1501   -1.1713    0.9649 C   0  0  0  0  0  0  0  0  0  0  0  0
    2.9190   -1.6378    2.2185 F   0  0  0  0  0  0  0  0  0  0  0  0
   -0.0480    0.8244    0.4922 C   0  0  0  0  0  0  0  0  0  0  0  0
    0.6077    2.0698    0.5473 C   0  0  0  0  0  0  0  0  0  0  0  0
   -0.0786    3.2547    0.2761 C   0  0  0  0  0  0  0  0  0  0  0  0
    0.7618    4.7927    0.3517 Cl  0  0  0  0  0  0  0  0  0  0  0  0
   -1.4354    3.2169   -0.0392 C   0  0  0  0  0  0  0  0  0  0  0  0
   -2.1072    1.9962   -0.0923 C   0  0  0  0  0  0  0  0  0  0  0  0
   -1.4280    0.7892    0.1479 C   0  0  0  0  0  0  0  0  0  0  0  0
   -2.1589   -0.4523    0.1206 N   0  0  0  0  0  0  0  0  0  0  0  0
   -4.0703    0.6448   -1.8621 H   0  0  0  0  0  0  0  0  0  0  0  0
   -2.4799    0.1421   -2.5812 H   0  0  0  0  0  0  0  0  0  0  0  0
   -3.9360   -0.9080   -2.7514 H   0  0  0  0  0  0  0  0  0  0  0  0
   -2.9507   -3.4445    1.1298 H   0  0  0  0  0  0  0  0  0  0  0  0
   -1.1245   -2.3725    2.7163 H   0  0  0  0  0  0  0  0  0  0  0  0
   -1.1941   -0.5706    2.7817 H   0  0  0  0  0  0  0  0  0  0  0  0
    1.6481    0.4099   -1.6649 H   0  0  0  0  0  0  0  0  0  0  0  0
    3.9179    0.1874   -2.5893 H   0  0  0  0  0  0  0  0  0  0  0  0
    5.7056   -0.9054   -1.2680 H   0  0  0  0  0  0  0  0  0  0  0  0
    5.2188   -1.7726    0.9984 H   0  0  0  0  0  0  0  0  0  0  0  0
    1.6571    2.1226    0.8113 H   0  0  0  0  0  0  0  0  0  0  0  0
   -1.9759    4.1357   -0.2283 H   0  0  0  0  0  0  0  0  0  0  0  0
   -3.1701    1.9996   -0.2842 H   0  0  0  0  0  0  0  0  0  0  0  0
  1  2  1  0
  2  3  2  0
  3  4  1  0
  4  5  2  0
  5  6  1  0
  6  7  1  0
  7  8  2  0
  8  9  1  0
  9 10  2  0
 10 11  1  0
 11 12  2  0
 12 13  1  0
 13 14  2  0
 14  9  1  0
 14 15  1  0
  8 16  1  0
 16 17  2  0
 17 18  1  0
 18 19  1  0
 18 20  2  0
 20 21  1  0
 21 22  2  0
 22 16  1  0
 22 23  1  0
 23  2  1  0
 23  5  1  0
  1 24  1  0
  1 25  1  0
  1 26  1  0
  4 27  1  0
  6 28  1  0
  6 29  1  0
 10 30  1  0
 11 31  1  0
 12 32  1  0
 13 33  1  0
 17 34  1  0
 20 35  1  0
 21 36  1  0
M  END
> <ID>
HT1394

> <Class>
0.0

> <Clusters>
105

> <Fold>
2

$$$$