
     RDKit          3D

 45 45  0  0  0  0  0  0  0  0999 V2000
   -0.8016   -2.8167    0.9287 C   0  0  0  0  0  0  0  0  0  0  0  0
   -0.4679   -2.3195   -0.4831 C   0  0  0  0  0  0  0  0  0  0  0  0
   -1.3290   -3.0291   -1.5357 C   0  0  0  0  0  0  0  0  0  0  0  0
   -0.6153   -0.8060   -0.5791 C   0  0  0  0  0  0  0  0  0  0  0  0
   -1.8768   -0.2116   -0.3871 C   0  0  0  0  0  0  0  0  0  0  0  0
   -2.0447    1.1802   -0.4682 C   0  0  0  0  0  0  0  0  0  0  0  0
   -3.3007    1.7812   -0.2813 O   0  0  0  0  0  0  0  0  0  0  0  0
   -4.5321    1.2023   -0.6137 C   0  0  0  0  0  0  0  0  0  0  0  0
   -4.5982    0.2236   -1.4059 O   0  0  0  0  0  0  0  0  0  0  0  0
   -5.7895    1.8278   -0.1140 C   0  0  0  0  0  0  0  0  0  0  0  0
   -0.9270    1.9967   -0.7009 C   0  0  0  0  0  0  0  0  0  0  0  0
   -1.0872    3.4896   -0.7852 C   0  0  0  0  0  0  0  0  0  0  0  0
    0.3320    1.4138   -0.9015 C   0  0  0  0  0  0  0  0  0  0  0  0
    0.5022    0.0175   -0.8398 C   0  0  0  0  0  0  0  0  0  0  0  0
    1.7610   -0.5816   -1.0306 O   0  0  0  0  0  0  0  0  0  0  0  0
    3.0152    0.0985   -1.0917 C   0  0  0  0  0  0  0  0  0  0  0  0
    3.4251    0.6577    0.2801 C   0  0  0  0  0  0  0  0  0  0  0  0
    4.0036   -0.3926    1.1484 N   0  0  0  0  0  0  0  0  0  0  0  0
    2.9531   -1.2507    1.7264 C   0  0  0  0  0  0  0  0  0  0  0  0
    4.7756    0.2304    2.2364 C   0  0  0  0  0  0  0  0  0  0  0  0
   -0.5924   -3.9050    1.0076 H   0  0  0  0  0  0  0  0  0  0  0  0
   -0.1723   -2.2880    1.6764 H   0  0  0  0  0  0  0  0  0  0  0  0
   -1.8710   -2.6457    1.1742 H   0  0  0  0  0  0  0  0  0  0  0  0
    0.5820   -2.6208   -0.6834 H   0  0  0  0  0  0  0  0  0  0  0  0
   -2.4115   -2.8693   -1.3470 H   0  0  0  0  0  0  0  0  0  0  0  0
   -1.0804   -2.6482   -2.5494 H   0  0  0  0  0  0  0  0  0  0  0  0
   -1.1277   -4.1216   -1.5170 H   0  0  0  0  0  0  0  0  0  0  0  0
   -2.7258   -0.8351   -0.1456 H   0  0  0  0  0  0  0  0  0  0  0  0
   -6.1579    2.5635   -0.8587 H   0  0  0  0  0  0  0  0  0  0  0  0
   -5.5964    2.3478    0.8477 H   0  0  0  0  0  0  0  0  0  0  0  0
   -6.5651    1.0499    0.0488 H   0  0  0  0  0  0  0  0  0  0  0  0
   -0.1041    4.0059   -0.8150 H   0  0  0  0  0  0  0  0  0  0  0  0
   -1.6420    3.8624    0.1016 H   0  0  0  0  0  0  0  0  0  0  0  0
   -1.6525    3.7502   -1.7044 H   0  0  0  0  0  0  0  0  0  0  0  0
    1.1752    2.0581   -1.1051 H   0  0  0  0  0  0  0  0  0  0  0  0
    2.9714    0.9096   -1.8492 H   0  0  0  0  0  0  0  0  0  0  0  0
    3.7902   -0.6177   -1.4379 H   0  0  0  0  0  0  0  0  0  0  0  0
    4.1889    1.4425    0.0791 H   0  0  0  0  0  0  0  0  0  0  0  0
    2.5702    1.1671    0.7775 H   0  0  0  0  0  0  0  0  0  0  0  0
    3.3887   -1.9576    2.4655 H   0  0  0  0  0  0  0  0  0  0  0  0
    2.1643   -0.6491    2.2308 H   0  0  0  0  0  0  0  0  0  0  0  0
    2.4935   -1.8794    0.9385 H   0  0  0  0  0  0  0  0  0  0  0  0
    5.2314   -0.5501    2.8834 H   0  0  0  0  0  0  0  0  0  0  0  0
    4.1315    0.8902    2.8603 H   0  0  0  0  0  0  0  0  0  0  0  0
    5.6138    0.8289    1.8191 H   0  0  0  0  0  0  0  0  0  0  0  0
  1  2  1  0
  2  3  1  0
  2  4  1  0
  4  5  2  0
  5  6  1  0
  6  7  1  0
  7  8  1  0
  8  9  2  0
  8 10  1  0
  6 11  2  0
 11 12  1  0
 11 13  1  0
 13 14  2  0
 14  4  1  0
 14 15  1  0
 15 16  1  0
 16 17  1  0
 17 18  1  0
 18 19  1  0
 18 20  1  0
  1 21  1  0
  1 22  1  0
  1 23  1  0
  2 24  1  0
  3 25  1  0
  3 26  1  0
  3 27  1  0
  5 28  1  0
 10 29  1  0
 10 30  1  0
 10 31  1  0
 12 32  1  0
 12 33  1  0
 12 34  1  0
 13 35  1  0
 16 36  1  0
 16 37  1  0
 17 38  1  0
 17 39  1  0
 19 40  1  0
 19 41  1  0
 19 42  1  0
 20 43  1  0
 20 44  1  0
 20 45  1  0
M  END
> <ID>
HT1439

> <Class>
0.0

> <Clusters>
207

> <Fold>
2

$$$$