
     RDKit          3D

 21 20  0  0  0  0  0  0  0  0999 V2000
    2.6432    0.4089    1.7148 C   0  0  0  0  0  0  0  0  0  0  0  0
    1.8641    0.0530    0.5751 O   0  0  0  0  0  0  0  0  0  0  0  0
    1.3049   -1.2141    0.3731 C   0  0  0  0  0  0  0  0  0  0  0  0
    1.4626   -2.1371    1.2181 O   0  0  0  0  0  0  0  0  0  0  0  0
    0.4669   -1.4592   -0.8440 C   0  0  0  0  0  0  0  0  0  0  0  0
   -1.0203   -1.2133   -0.5601 C   0  0  0  0  0  0  0  0  0  0  0  0
   -1.3031    0.2259   -0.2110 C   0  0  0  0  0  0  0  0  0  0  0  0
   -1.6449    0.5124    0.9266 O   0  0  0  0  0  0  0  0  0  0  0  0
   -1.1720    1.3175   -1.2440 C   0  0  0  0  0  0  0  0  0  0  0  0
   -2.4507    1.9868   -1.4716 N   0  0  0  0  0  0  0  0  0  0  0  0
    2.1524    1.2538    2.2402 H   0  0  0  0  0  0  0  0  0  0  0  0
    3.6502    0.7322    1.3801 H   0  0  0  0  0  0  0  0  0  0  0  0
    2.7582   -0.4350    2.4271 H   0  0  0  0  0  0  0  0  0  0  0  0
    0.8164   -0.8080   -1.6733 H   0  0  0  0  0  0  0  0  0  0  0  0
    0.6015   -2.5127   -1.1721 H   0  0  0  0  0  0  0  0  0  0  0  0
   -1.6153   -1.4877   -1.4574 H   0  0  0  0  0  0  0  0  0  0  0  0
   -1.3484   -1.8775    0.2702 H   0  0  0  0  0  0  0  0  0  0  0  0
   -0.8126    0.8990   -2.2082 H   0  0  0  0  0  0  0  0  0  0  0  0
   -0.4221    2.0605   -0.8974 H   0  0  0  0  0  0  0  0  0  0  0  0
   -2.7696    2.4242   -0.5764 H   0  0  0  0  0  0  0  0  0  0  0  0
   -3.1614    1.2702   -1.7476 H   0  0  0  0  0  0  0  0  0  0  0  0
  1  2  1  0
  2  3  1  0
  3  4  2  0
  3  5  1  0
  5  6  1  0
  6  7  1  0
  7  8  2  0
  7  9  1  0
  9 10  1  0
  1 11  1  0
  1 12  1  0
  1 13  1  0
  5 14  1  0
  5 15  1  0
  6 16  1  0
  6 17  1  0
  9 18  1  0
  9 19  1  0
 10 20  1  0
 10 21  1  0
M  END
> <ID>
HT1356

> <Class>
0.0

> <Clusters>
166

> <Fold>
2

$$$$