
     RDKit          3D

 13 12  0  0  0  0  0  0  0  0999 V2000
   -1.4093    1.4100   -0.9470 O   0  0  0  0  0  0  0  0  0  0  0  0
   -1.4377   -0.1984   -0.4583 S   0  0  0  0  0  0  0  0  0  0  0  0
   -2.7798   -0.5090    0.1422 O   0  0  0  0  0  0  0  0  0  0  0  0
   -1.2214   -1.0819   -1.6545 O   0  0  0  0  0  0  0  0  0  0  0  0
   -0.1611   -0.5064    0.7579 C   0  0  0  0  0  0  0  0  0  0  0  0
    1.2445   -0.3715    0.1692 C   0  0  0  0  0  0  0  0  0  0  0  0
    1.6763    1.3723   -0.1290 S   0  0  0  0  0  0  0  0  0  0  0  0
   -1.5915    1.9301   -0.1238 H   0  0  0  0  0  0  0  0  0  0  0  0
   -0.2909   -1.5415    1.1391 H   0  0  0  0  0  0  0  0  0  0  0  0
   -0.2873    0.1920    1.6123 H   0  0  0  0  0  0  0  0  0  0  0  0
    1.9779   -0.7899    0.8907 H   0  0  0  0  0  0  0  0  0  0  0  0
    1.3276   -0.9451   -0.7781 H   0  0  0  0  0  0  0  0  0  0  0  0
    2.9527    1.0392   -0.6208 H   0  0  0  0  0  0  0  0  0  0  0  0
  1  2  1  0
  2  3  2  0
  2  4  2  0
  2  5  1  0
  5  6  1  0
  6  7  1  0
  1  8  1  0
  5  9  1  0
  5 10  1  0
  6 11  1  0
  6 12  1  0
  7 13  1  0
M  END
> <ID>
HT1319

> <Class>
0.0

> <Clusters>
161

> <Fold>
2

$$$$