
     RDKit          3D

 53 56  0  0  0  0  0  0  0  0999 V2000
   -5.5476   -1.2326    1.2898 C   0  0  0  0  0  0  0  0  0  0  0  0
   -5.8949    0.0135    0.4768 C   0  0  0  0  0  0  0  0  0  0  0  0
   -4.7686    0.3929   -0.5046 C   0  0  1  0  0  0  0  0  0  0  0  0
   -5.1858    1.5730   -1.3966 C   0  0  0  0  0  0  0  0  0  0  0  0
   -6.2872    1.2352   -2.1972 O   0  0  0  0  0  0  0  0  0  0  0  0
   -3.5605    0.7619    0.2411 N   0  0  0  0  0  0  0  0  0  0  0  0
   -2.3041    0.0829    0.0888 C   0  0  0  0  0  0  0  0  0  0  0  0
   -2.1883   -0.8614   -0.7395 O   0  0  0  0  0  0  0  0  0  0  0  0
   -1.1153    0.4983    0.9174 C   0  0  1  0  0  0  0  0  0  0  0  0
   -0.6441   -0.6392    1.8360 C   0  0  0  0  0  0  0  0  0  0  0  0
    0.0019   -1.6847    1.0288 N   0  0  0  0  0  0  0  0  0  0  0  0
    0.1751   -2.9314    1.7915 C   0  0  0  0  0  0  0  0  0  0  0  0
    1.2394   -1.2084    0.3552 C   0  0  2  0  0  0  0  0  0  0  0  0
    2.5418   -1.3140    1.2284 C   0  0  0  0  0  0  0  0  0  0  0  0
    3.6863   -0.6436    0.5149 C   0  0  0  0  0  0  0  0  0  0  0  0
    5.0641   -0.7103    0.6991 C   0  0  0  0  0  0  0  0  0  0  0  0
    5.6815    0.1513   -0.1569 N   0  0  0  0  0  0  0  0  0  0  0  0
    7.1118    0.4346   -0.2073 C   0  0  0  0  0  0  0  0  0  0  0  0
    4.6994    0.7771   -0.8435 C   0  0  0  0  0  0  0  0  0  0  0  0
    4.7788    1.8188   -1.7719 C   0  0  0  0  0  0  0  0  0  0  0  0
    3.5637    2.3443   -2.2729 C   0  0  0  0  0  0  0  0  0  0  0  0
    2.3138    1.8406   -1.8248 C   0  0  0  0  0  0  0  0  0  0  0  0
    2.2810    0.7898   -0.8824 C   0  0  0  0  0  0  0  0  0  0  0  0
    1.0796    0.2093   -0.2304 C   0  0  0  0  0  0  0  0  0  0  0  0
   -0.0024    0.9637    0.0192 C   0  0  0  0  0  0  0  0  0  0  0  0
    3.4936    0.2974   -0.4487 C   0  0  0  0  0  0  0  0  0  0  0  0
   -6.3963   -1.4797    1.9626 H   0  0  0  0  0  0  0  0  0  0  0  0
   -5.3662   -2.0960    0.6158 H   0  0  0  0  0  0  0  0  0  0  0  0
   -4.6442   -1.0566    1.9126 H   0  0  0  0  0  0  0  0  0  0  0  0
   -6.0927    0.8580    1.1717 H   0  0  0  0  0  0  0  0  0  0  0  0
   -6.8318   -0.1929   -0.0859 H   0  0  0  0  0  0  0  0  0  0  0  0
   -4.5695   -0.4793   -1.1653 H   0  0  0  0  0  0  0  0  0  0  0  0
   -4.3300    1.8808   -2.0405 H   0  0  0  0  0  0  0  0  0  0  0  0
   -5.4585    2.4450   -0.7645 H   0  0  0  0  0  0  0  0  0  0  0  0
   -5.9500    0.6159   -2.8976 H   0  0  0  0  0  0  0  0  0  0  0  0
   -3.6240    1.5587    0.9154 H   0  0  0  0  0  0  0  0  0  0  0  0
   -1.4008    1.3521    1.5699 H   0  0  0  0  0  0  0  0  0  0  0  0
   -1.5246   -1.0510    2.3803 H   0  0  0  0  0  0  0  0  0  0  0  0
    0.0655   -0.2410    2.5959 H   0  0  0  0  0  0  0  0  0  0  0  0
    0.7306   -2.7512    2.7378 H   0  0  0  0  0  0  0  0  0  0  0  0
   -0.8199   -3.3579    2.0412 H   0  0  0  0  0  0  0  0  0  0  0  0
    0.7135   -3.6881    1.1803 H   0  0  0  0  0  0  0  0  0  0  0  0
    1.3987   -1.8757   -0.5215 H   0  0  0  0  0  0  0  0  0  0  0  0
    2.3953   -0.8230    2.2139 H   0  0  0  0  0  0  0  0  0  0  0  0
    2.8091   -2.3802    1.3888 H   0  0  0  0  0  0  0  0  0  0  0  0
    5.5768   -1.3274    1.4268 H   0  0  0  0  0  0  0  0  0  0  0  0
    7.4322    0.5876   -1.2601 H   0  0  0  0  0  0  0  0  0  0  0  0
    7.6885   -0.4169    0.2135 H   0  0  0  0  0  0  0  0  0  0  0  0
    7.3302    1.3503    0.3817 H   0  0  0  0  0  0  0  0  0  0  0  0
    5.7313    2.2209   -2.0903 H   0  0  0  0  0  0  0  0  0  0  0  0
    3.5879    3.1479   -2.9956 H   0  0  0  0  0  0  0  0  0  0  0  0
    1.3973    2.2661   -2.2098 H   0  0  0  0  0  0  0  0  0  0  0  0
   -0.0614    1.9749   -0.3625 H   0  0  0  0  0  0  0  0  0  0  0  0
  1  2  1  0
  2  3  1  0
  3  4  1  0
  4  5  1  0
  3  6  1  0
  6  7  1  0
  7  8  2  0
  9  7  1  0
  9 10  1  0
 10 11  1  0
 11 12  1  0
 11 13  1  0
 13 14  1  0
 14 15  1  0
 15 16  2  0
 16 17  1  0
 17 18  1  0
 17 19  1  0
 19 20  2  0
 20 21  1  0
 21 22  2  0
 22 23  1  0
 23 24  1  0
 24 13  1  0
 24 25  2  0
 25  9  1  0
 23 26  2  0
 26 15  1  0
 26 19  1  0
  1 27  1  0
  1 28  1  0
  1 29  1  0
  2 30  1  0
  2 31  1  0
  3 32  1  6
  4 33  1  0
  4 34  1  0
  5 35  1  0
  6 36  1  0
  9 37  1  1
 10 38  1  0
 10 39  1  0
 12 40  1  0
 12 41  1  0
 12 42  1  0
 13 43  1  6
 14 44  1  0
 14 45  1  0
 16 46  1  0
 18 47  1  0
 18 48  1  0
 18 49  1  0
 20 50  1  0
 21 51  1  0
 22 52  1  0
 25 53  1  0
M  END
> <ID>
HT1372

> <Class>
0.0

> <Clusters>
168

> <Fold>
2

$$$$