
     RDKit          3D

 54 55  0  0  0  0  0  0  0  0999 V2000
   -3.7249    2.7520    1.8371 C   0  0  0  0  0  0  0  0  0  0  0  0
   -3.3160    2.2259    0.5324 N   0  0  0  0  0  0  0  0  0  0  0  0
   -3.3402    3.0508   -0.6506 C   0  0  0  0  0  0  0  0  0  0  0  0
   -2.9811    2.5690   -1.7598 O   0  0  0  0  0  0  0  0  0  0  0  0
   -3.7855    4.4807   -0.5956 C   0  0  0  0  0  0  0  0  0  0  0  0
   -2.8872    0.8583    0.4360 C   0  0  0  0  0  0  0  0  0  0  0  0
   -3.8265   -0.1520    0.1684 C   0  0  0  0  0  0  0  0  0  0  0  0
   -5.8874    0.3481   -0.0406 I   0  0  0  0  0  0  0  0  0  0  0  0
   -3.4103   -1.4914    0.0768 C   0  0  0  0  0  0  0  0  0  0  0  0
   -4.3621   -2.5237   -0.2086 N   0  0  0  0  0  0  0  0  0  0  0  0
   -4.8979   -2.7161   -1.5241 C   0  0  0  0  0  0  0  0  0  0  0  0
   -4.5680   -1.9461   -2.4668 O   0  0  0  0  0  0  0  0  0  0  0  0
   -5.8508   -3.8366   -1.7823 C   0  0  0  0  0  0  0  0  0  0  0  0
   -2.0598   -1.8252    0.2769 C   0  0  0  0  0  0  0  0  0  0  0  0
   -1.4569   -3.8641    0.0765 I   0  0  0  0  0  0  0  0  0  0  0  0
   -1.1151   -0.8134    0.5447 C   0  0  0  0  0  0  0  0  0  0  0  0
    0.3044   -1.1618    0.7344 C   0  0  0  0  0  0  0  0  0  0  0  0
    0.6431   -1.8713    1.7205 O   0  0  0  0  0  0  0  0  0  0  0  0
    1.2889   -0.7083   -0.2061 N   0  0  0  0  0  0  0  0  0  0  0  0
    2.7173   -1.0139   -0.0522 C   0  0  0  0  0  0  0  0  0  0  0  0
    3.3371   -0.1591    1.0913 C   0  0  0  0  0  0  0  0  0  0  0  0
    4.2689   -0.9082    1.8316 O   0  0  0  0  0  0  0  0  0  0  0  0
    3.9368    1.0292    0.5989 O   0  0  0  0  0  0  0  0  0  0  0  0
    5.0384    0.8035   -0.2817 C   0  0  0  0  0  0  0  0  0  0  0  0
    6.3712    0.8990    0.4761 C   0  0  0  0  0  0  0  0  0  0  0  0
    6.4182    2.0959    1.2025 O   0  0  0  0  0  0  0  0  0  0  0  0
    4.9370   -0.4994   -1.1242 C   0  0  0  0  0  0  0  0  0  0  0  0
    5.6090   -0.3398   -2.3482 O   0  0  0  0  0  0  0  0  0  0  0  0
    3.4623   -0.8002   -1.3923 C   0  0  0  0  0  0  0  0  0  0  0  0
    3.3544   -1.9481   -2.1944 O   0  0  0  0  0  0  0  0  0  0  0  0
   -1.5315    0.5319    0.6210 C   0  0  0  0  0  0  0  0  0  0  0  0
   -0.1427    2.0898    1.0770 I   0  0  0  0  0  0  0  0  0  0  0  0
   -3.6391    1.9722    2.6247 H   0  0  0  0  0  0  0  0  0  0  0  0
   -3.0747    3.6056    2.1211 H   0  0  0  0  0  0  0  0  0  0  0  0
   -4.7819    3.0881    1.7947 H   0  0  0  0  0  0  0  0  0  0  0  0
   -3.1276    5.0534    0.0904 H   0  0  0  0  0  0  0  0  0  0  0  0
   -4.8342    4.5343   -0.2370 H   0  0  0  0  0  0  0  0  0  0  0  0
   -3.7330    4.9442   -1.6038 H   0  0  0  0  0  0  0  0  0  0  0  0
   -4.5513   -3.2430    0.5252 H   0  0  0  0  0  0  0  0  0  0  0  0
   -6.1365   -3.8686   -2.8554 H   0  0  0  0  0  0  0  0  0  0  0  0
   -6.7650   -3.6934   -1.1693 H   0  0  0  0  0  0  0  0  0  0  0  0
   -5.3736   -4.8006   -1.5081 H   0  0  0  0  0  0  0  0  0  0  0  0
    0.9530   -0.1915   -1.0506 H   0  0  0  0  0  0  0  0  0  0  0  0
    2.8136   -2.0901    0.2191 H   0  0  0  0  0  0  0  0  0  0  0  0
    2.5286    0.1616    1.7870 H   0  0  0  0  0  0  0  0  0  0  0  0
    3.7502   -1.5471    2.3874 H   0  0  0  0  0  0  0  0  0  0  0  0
    5.0267    1.6518   -1.0021 H   0  0  0  0  0  0  0  0  0  0  0  0
    7.2124    0.8794   -0.2521 H   0  0  0  0  0  0  0  0  0  0  0  0
    6.4905    0.0365    1.1669 H   0  0  0  0  0  0  0  0  0  0  0  0
    7.2904    2.0974    1.6759 H   0  0  0  0  0  0  0  0  0  0  0  0
    5.3727   -1.3623   -0.5648 H   0  0  0  0  0  0  0  0  0  0  0  0
    6.5730   -0.4938   -2.1699 H   0  0  0  0  0  0  0  0  0  0  0  0
    3.0381    0.0764   -1.9384 H   0  0  0  0  0  0  0  0  0  0  0  0
    2.4246   -1.9658   -2.5422 H   0  0  0  0  0  0  0  0  0  0  0  0
  1  2  1  0
  2  3  1  0
  3  4  2  0
  3  5  1  0
  2  6  1  0
  6  7  2  0
  7  8  1  0
  7  9  1  0
  9 10  1  0
 10 11  1  0
 11 12  2  0
 11 13  1  0
  9 14  2  0
 14 15  1  0
 14 16  1  0
 16 17  1  0
 17 18  2  0
 17 19  1  0
 19 20  1  0
 20 21  1  0
 21 22  1  0
 21 23  1  0
 23 24  1  0
 24 25  1  0
 25 26  1  0
 24 27  1  0
 27 28  1  0
 27 29  1  0
 29 20  1  0
 29 30  1  0
 16 31  2  0
 31  6  1  0
 31 32  1  0
  1 33  1  0
  1 34  1  0
  1 35  1  0
  5 36  1  0
  5 37  1  0
  5 38  1  0
 10 39  1  0
 13 40  1  0
 13 41  1  0
 13 42  1  0
 19 43  1  0
 20 44  1  0
 21 45  1  0
 22 46  1  0
 24 47  1  0
 25 48  1  0
 25 49  1  0
 26 50  1  0
 27 51  1  0
 28 52  1  0
 29 53  1  0
 30 54  1  0
M  END
> <ID>
HT1381

> <Class>
0.0

> <Clusters>
73

> <Fold>
2

$$$$