
     RDKit          3D

 52 55  0  0  0  0  0  0  0  0999 V2000
    4.2650    2.6574    1.0251 S   0  0  0  0  0  0  0  0  0  0  0  0
    4.9903    2.6475    2.5401 O   0  0  0  0  0  0  0  0  0  0  0  0
    3.9101    1.0180    0.5116 C   0  0  0  0  0  0  0  0  0  0  0  0
    5.2929    3.4815   -0.1683 C   0  0  0  0  0  0  0  0  0  0  0  0
    4.9380    0.0727    0.4288 C   0  0  0  0  0  0  0  0  0  0  0  0
    2.5946    0.6510    0.2049 C   0  0  0  0  0  0  0  0  0  0  0  0
    4.6573   -1.2318    0.0189 C   0  0  0  0  0  0  0  0  0  0  0  0
    2.2985   -0.6636   -0.1989 C   0  0  0  0  0  0  0  0  0  0  0  0
    3.3486   -1.5951   -0.3117 C   0  0  0  0  0  0  0  0  0  0  0  0
    0.9321   -1.1105   -0.3636 N   0  0  0  0  0  0  0  0  0  0  0  0
    3.0214   -3.2191   -0.9969 S   0  0  0  0  0  0  0  0  0  0  0  0
   -0.0746   -0.2596   -1.0182 C   0  0  0  0  0  0  0  0  0  0  0  0
    0.5942   -2.4414    0.0921 C   0  0  0  0  0  0  0  0  0  0  0  0
    1.5526   -3.4688   -0.0003 C   0  0  0  0  0  0  0  0  0  0  0  0
   -0.8159    0.6452   -0.0034 C   0  0  0  0  0  0  0  0  0  0  0  0
   -0.6291   -2.7071    0.7356 C   0  0  0  0  0  0  0  0  0  0  0  0
    1.3160   -4.7143    0.5903 C   0  0  0  0  0  0  0  0  0  0  0  0
   -2.3666    0.6418   -0.1688 C   0  0  0  0  0  0  0  0  0  0  0  0
   -0.8705   -3.9620    1.3043 C   0  0  0  0  0  0  0  0  0  0  0  0
    0.1052   -4.9597    1.2424 C   0  0  0  0  0  0  0  0  0  0  0  0
   -3.0037    0.8337    1.2282 C   0  0  0  0  0  0  0  0  0  0  0  0
   -2.8409    1.7199   -1.0859 N   0  0  0  0  0  0  0  0  0  0  0  0
   -4.5290    0.8693    1.1463 C   0  0  0  0  0  0  0  0  0  0  0  0
   -2.2588    1.5973   -2.4361 C   0  0  0  0  0  0  0  0  0  0  0  0
   -4.3157    1.6903   -1.2068 C   0  0  0  0  0  0  0  0  0  0  0  0
   -4.9789    1.9314    0.1491 C   0  0  0  0  0  0  0  0  0  0  0  0
    4.7277    3.6151   -1.1135 H   0  0  0  0  0  0  0  0  0  0  0  0
    5.5964    4.4723    0.2252 H   0  0  0  0  0  0  0  0  0  0  0  0
    6.1974    2.8700   -0.3648 H   0  0  0  0  0  0  0  0  0  0  0  0
    5.9561    0.3495    0.6718 H   0  0  0  0  0  0  0  0  0  0  0  0
    1.8107    1.3834    0.3176 H   0  0  0  0  0  0  0  0  0  0  0  0
    5.4625   -1.9497   -0.0711 H   0  0  0  0  0  0  0  0  0  0  0  0
    0.4289    0.3724   -1.7804 H   0  0  0  0  0  0  0  0  0  0  0  0
   -0.7809   -0.9086   -1.5798 H   0  0  0  0  0  0  0  0  0  0  0  0
   -0.5390    0.3157    1.0224 H   0  0  0  0  0  0  0  0  0  0  0  0
   -0.4469    1.6903   -0.0869 H   0  0  0  0  0  0  0  0  0  0  0  0
   -1.3853   -1.9442    0.8312 H   0  0  0  0  0  0  0  0  0  0  0  0
    2.0528   -5.5042    0.5139 H   0  0  0  0  0  0  0  0  0  0  0  0
   -2.7012   -0.3527   -0.5455 H   0  0  0  0  0  0  0  0  0  0  0  0
   -1.8101   -4.1569    1.8053 H   0  0  0  0  0  0  0  0  0  0  0  0
   -0.0825   -5.9291    1.6870 H   0  0  0  0  0  0  0  0  0  0  0  0
   -2.7108   -0.0038    1.8986 H   0  0  0  0  0  0  0  0  0  0  0  0
   -2.6385    1.7831    1.6813 H   0  0  0  0  0  0  0  0  0  0  0  0
   -4.9101   -0.1273    0.8325 H   0  0  0  0  0  0  0  0  0  0  0  0
   -4.9498    1.0997    2.1488 H   0  0  0  0  0  0  0  0  0  0  0  0
   -2.3693    0.5644   -2.8337 H   0  0  0  0  0  0  0  0  0  0  0  0
   -2.7427    2.3059   -3.1446 H   0  0  0  0  0  0  0  0  0  0  0  0
   -1.1911    1.8891   -2.4193 H   0  0  0  0  0  0  0  0  0  0  0  0
   -4.6585    0.7156   -1.6248 H   0  0  0  0  0  0  0  0  0  0  0  0
   -4.6606    2.4969   -1.8910 H   0  0  0  0  0  0  0  0  0  0  0  0
   -4.7044    2.9412    0.5247 H   0  0  0  0  0  0  0  0  0  0  0  0
   -6.0840    1.8875    0.0363 H   0  0  0  0  0  0  0  0  0  0  0  0
  1  2  1  0
  1  3  1  0
  1  4  1  0
  5  3  2  0
  3  6  1  0
  7  5  1  0
  6  8  2  0
  9  7  2  0
  8 10  1  0
  8  9  1  0
 11  9  1  0
 12 10  1  0
 10 13  1  0
 14 11  1  0
 15 12  1  0
 13 16  1  0
 14 13  2  0
 17 14  1  0
 18 15  1  0
 16 19  2  0
 20 17  2  0
 21 18  1  0
 18 22  1  0
 19 20  1  0
 23 21  1  0
 24 22  1  0
 22 25  1  0
 26 23  1  0
 25 26  1  0
  4 27  1  0
  4 28  1  0
  4 29  1  0
  5 30  1  0
  6 31  1  0
  7 32  1  0
 12 33  1  0
 12 34  1  0
 15 35  1  0
 15 36  1  0
 16 37  1  0
 17 38  1  0
 18 39  1  0
 19 40  1  0
 20 41  1  0
 21 42  1  0
 21 43  1  0
 23 44  1  0
 23 45  1  0
 24 46  1  0
 24 47  1  0
 24 48  1  0
 25 49  1  0
 25 50  1  0
 26 51  1  0
 26 52  1  0
M  CHG  2   1   1   2  -1
M  END
> <ID>
HT1320

> <Class>
0.0

> <Clusters>
205

> <Fold>
2

$$$$