
     RDKit          3D

 81 88  0  0  0  0  0  0  0  0999 V2000
    1.6397   -1.3944   -0.7568 C   0  0  0  0  0  0  0  0  0  0  0  0
    1.6086   -0.1704    0.0515 N   0  0  0  0  0  0  0  0  0  0  0  0
    1.7416   -0.4553    1.4844 C   0  0  0  0  0  0  0  0  0  0  0  0
    1.2900    0.7815    2.2754 C   0  0  1  0  0  0  0  0  0  0  0  0
    2.0490    1.9997    1.8061 C   0  0  0  0  0  0  0  0  0  0  0  0
    2.6395    2.0560    0.6015 C   0  0  0  0  0  0  0  0  0  0  0  0
    2.5519    0.8850   -0.4017 C   0  0  1  0  0  0  0  0  0  0  0  0
    3.9774    0.3494   -0.7918 C   0  0  0  0  0  0  0  0  0  0  0  0
    4.9247    1.4989   -0.9968 C   0  0  0  0  0  0  0  0  0  0  0  0
    6.1941    1.5581   -1.5628 C   0  0  0  0  0  0  0  0  0  0  0  0
    6.7069    2.8102   -1.4013 N   0  0  0  0  0  0  0  0  0  0  0  0
    8.0166    3.2719   -1.8510 C   0  0  0  0  0  0  0  0  0  0  0  0
    5.7687    3.5284   -0.7449 C   0  0  0  0  0  0  0  0  0  0  0  0
    5.8200    4.8415   -0.2656 C   0  0  0  0  0  0  0  0  0  0  0  0
    4.7214    5.3022    0.4989 C   0  0  0  0  0  0  0  0  0  0  0  0
    3.6302    4.4443    0.7931 C   0  0  0  0  0  0  0  0  0  0  0  0
    3.6197    3.1258    0.2853 C   0  0  0  0  0  0  0  0  0  0  0  0
    4.6915    2.7427   -0.4929 C   0  0  0  0  0  0  0  0  0  0  0  0
   -0.2052    0.9698    2.1717 C   0  0  0  0  0  0  0  0  0  0  0  0
   -0.6829    2.0038    1.6269 O   0  0  0  0  0  0  0  0  0  0  0  0
   -1.0752   -0.0491    2.6906 N   0  0  0  0  0  0  0  0  0  0  0  0
   -2.5159   -0.1616    2.4146 C   0  0  2  0  0  0  0  0  0  0  0  0
   -3.3082    0.8551    3.2423 C   0  0  0  0  0  0  0  0  0  0  0  0
   -2.9363   -1.4737    2.7589 O   0  0  0  0  0  0  0  0  0  0  0  0
   -3.0607   -2.2277    1.5555 C   0  0  1  0  0  0  0  0  0  0  0  0
   -1.9283   -3.0555    1.4180 O   0  0  0  0  0  0  0  0  0  0  0  0
   -4.3615   -3.0507    1.6004 C   0  0  2  0  0  0  0  0  0  0  0  0
   -4.3143   -4.2450    2.5580 C   0  0  0  0  0  0  0  0  0  0  0  0
   -4.2830   -5.4916    1.6720 C   0  0  0  0  0  0  0  0  0  0  0  0
   -4.7822   -5.0502    0.3037 C   0  0  0  0  0  0  0  0  0  0  0  0
   -4.6368   -3.6088    0.2891 N   0  0  0  0  0  0  0  0  0  0  0  0
   -4.4605   -2.8483   -0.9151 C   0  0  0  0  0  0  0  0  0  0  0  0
   -4.9841   -3.2478   -1.9915 O   0  0  0  0  0  0  0  0  0  0  0  0
   -3.6664   -1.5600   -0.9009 C   0  0  2  0  0  0  0  0  0  0  0  0
   -2.5084   -1.6081   -1.9260 C   0  0  0  0  0  0  0  0  0  0  0  0
   -2.3580   -0.2946   -2.6546 C   0  0  0  0  0  0  0  0  0  0  0  0
   -3.2923    0.0653   -3.6381 C   0  0  0  0  0  0  0  0  0  0  0  0
   -3.1564    1.2692   -4.3331 C   0  0  0  0  0  0  0  0  0  0  0  0
   -2.0863    2.1229   -4.0475 C   0  0  0  0  0  0  0  0  0  0  0  0
   -1.1550    1.7770   -3.0682 C   0  0  0  0  0  0  0  0  0  0  0  0
   -1.2829    0.5686   -2.3810 C   0  0  0  0  0  0  0  0  0  0  0  0
   -3.1317   -1.2903    0.4404 N   0  0  0  0  0  0  0  0  0  0  0  0
   -2.8125   -0.0380    0.9695 C   0  0  0  0  0  0  0  0  0  0  0  0
   -2.8967    1.0383    0.3219 O   0  0  0  0  0  0  0  0  0  0  0  0
    2.5558   -1.9894   -0.5559 H   0  0  0  0  0  0  0  0  0  0  0  0
    0.7578   -2.0241   -0.5146 H   0  0  0  0  0  0  0  0  0  0  0  0
    1.5807   -1.1477   -1.8374 H   0  0  0  0  0  0  0  0  0  0  0  0
    1.1233   -1.3364    1.7670 H   0  0  0  0  0  0  0  0  0  0  0  0
    2.7936   -0.7014    1.7466 H   0  0  0  0  0  0  0  0  0  0  0  0
    1.5378    0.6151    3.3452 H   0  0  0  0  0  0  0  0  0  0  0  0
    2.1824    2.8047    2.5208 H   0  0  0  0  0  0  0  0  0  0  0  0
    2.1211    1.3198   -1.3319 H   0  0  0  0  0  0  0  0  0  0  0  0
    3.9159   -0.2237   -1.7379 H   0  0  0  0  0  0  0  0  0  0  0  0
    4.3852   -0.3040    0.0050 H   0  0  0  0  0  0  0  0  0  0  0  0
    6.7164    0.7349   -2.0368 H   0  0  0  0  0  0  0  0  0  0  0  0
    8.5001    3.8791   -1.0576 H   0  0  0  0  0  0  0  0  0  0  0  0
    8.6766    2.4081   -2.0766 H   0  0  0  0  0  0  0  0  0  0  0  0
    7.8991    3.8933   -2.7646 H   0  0  0  0  0  0  0  0  0  0  0  0
    6.6702    5.4837   -0.4566 H   0  0  0  0  0  0  0  0  0  0  0  0
    4.7255    6.3100    0.8896 H   0  0  0  0  0  0  0  0  0  0  0  0
    2.8122    4.8048    1.4007 H   0  0  0  0  0  0  0  0  0  0  0  0
   -0.6392   -0.8074    3.2681 H   0  0  0  0  0  0  0  0  0  0  0  0
   -3.0897    0.7124    4.3212 H   0  0  0  0  0  0  0  0  0  0  0  0
   -4.3986    0.7202    3.0824 H   0  0  0  0  0  0  0  0  0  0  0  0
   -3.0318    1.8911    2.9606 H   0  0  0  0  0  0  0  0  0  0  0  0
   -1.9732   -3.4843    0.5237 H   0  0  0  0  0  0  0  0  0  0  0  0
   -5.2023   -2.3805    1.8832 H   0  0  0  0  0  0  0  0  0  0  0  0
   -3.4372   -4.2150    3.2426 H   0  0  0  0  0  0  0  0  0  0  0  0
   -5.2404   -4.2631    3.1754 H   0  0  0  0  0  0  0  0  0  0  0  0
   -4.9138   -6.3064    2.0912 H   0  0  0  0  0  0  0  0  0  0  0  0
   -3.2347   -5.8499    1.5844 H   0  0  0  0  0  0  0  0  0  0  0  0
   -5.8518   -5.3144    0.1767 H   0  0  0  0  0  0  0  0  0  0  0  0
   -4.1770   -5.5116   -0.5035 H   0  0  0  0  0  0  0  0  0  0  0  0
   -4.3841   -0.7528   -1.1634 H   0  0  0  0  0  0  0  0  0  0  0  0
   -1.5622   -1.8691   -1.4114 H   0  0  0  0  0  0  0  0  0  0  0  0
   -2.6661   -2.4014   -2.6875 H   0  0  0  0  0  0  0  0  0  0  0  0
   -4.1247   -0.5884   -3.8619 H   0  0  0  0  0  0  0  0  0  0  0  0
   -3.8773    1.5400   -5.0966 H   0  0  0  0  0  0  0  0  0  0  0  0
   -1.9823    3.0544   -4.5907 H   0  0  0  0  0  0  0  0  0  0  0  0
   -0.3270    2.4408   -2.8523 H   0  0  0  0  0  0  0  0  0  0  0  0
   -0.5502    0.3141   -1.6251 H   0  0  0  0  0  0  0  0  0  0  0  0
  1  2  1  0
  2  3  1  0
  3  4  1  0
  4  5  1  0
  5  6  2  0
  6  7  1  0
  7  2  1  0
  7  8  1  0
  8  9  1  0
  9 10  2  0
 10 11  1  0
 11 12  1  0
 11 13  1  0
 13 14  2  0
 14 15  1  0
 15 16  2  0
 16 17  1  0
 17  6  1  0
 17 18  2  0
 18  9  1  0
 18 13  1  0
  4 19  1  0
 19 20  2  0
 19 21  1  0
 22 21  1  6
 22 23  1  0
 22 24  1  0
 24 25  1  0
 25 26  1  6
 25 27  1  0
 27 28  1  0
 28 29  1  0
 29 30  1  0
 30 31  1  0
 31 27  1  0
 31 32  1  0
 32 33  2  0
 32 34  1  0
 34 35  1  0
 35 36  1  0
 36 37  2  0
 37 38  1  0
 38 39  2  0
 39 40  1  0
 40 41  2  0
 41 36  1  0
 34 42  1  0
 42 25  1  0
 42 43  1  0
 43 22  1  0
 43 44  2  0
  1 45  1  0
  1 46  1  0
  1 47  1  0
  3 48  1  0
  3 49  1  0
  4 50  1  1
  5 51  1  0
  7 52  1  6
  8 53  1  0
  8 54  1  0
 10 55  1  0
 12 56  1  0
 12 57  1  0
 12 58  1  0
 14 59  1  0
 15 60  1  0
 16 61  1  0
 21 62  1  0
 23 63  1  0
 23 64  1  0
 23 65  1  0
 26 66  1  0
 27 67  1  1
 28 68  1  0
 28 69  1  0
 29 70  1  0
 29 71  1  0
 30 72  1  0
 30 73  1  0
 34 74  1  6
 35 75  1  0
 35 76  1  0
 37 77  1  0
 38 78  1  0
 39 79  1  0
 40 80  1  0
 41 81  1  0
M  END
> <ID>
HT1363

> <Class>
0.0

> <Clusters>
168

> <Fold>
2

$$$$