
     RDKit          3D

 55 58  0  0  0  0  0  0  0  0999 V2000
    7.8078   -2.6023   -0.1619 C   0  0  0  0  0  0  0  0  0  0  0  0
    6.6848   -3.3038   -0.9175 C   0  0  0  0  0  0  0  0  0  0  0  0
    5.4086   -2.9051   -0.4187 O   0  0  0  0  0  0  0  0  0  0  0  0
    4.8518   -1.6405   -0.6405 C   0  0  0  0  0  0  0  0  0  0  0  0
    5.4275   -0.8144   -1.4007 O   0  0  0  0  0  0  0  0  0  0  0  0
    3.5924   -1.3186   -0.0358 N   0  0  0  0  0  0  0  0  0  0  0  0
    3.0223    0.0009   -0.0030 C   0  0  0  0  0  0  0  0  0  0  0  0
    3.8301    1.1452    0.1194 C   0  0  0  0  0  0  0  0  0  0  0  0
    3.2508    2.4145    0.1825 C   0  0  0  0  0  0  0  0  0  0  0  0
    1.8616    2.5540    0.1370 C   0  0  0  0  0  0  0  0  0  0  0  0
    1.1149    4.1669    0.3896 S   0  0  0  0  0  0  0  0  0  0  0  0
   -0.0935    3.9465   -0.9183 C   0  0  0  0  0  0  0  0  0  0  0  0
   -0.3798    5.0020   -1.7913 C   0  0  0  0  0  0  0  0  0  0  0  0
   -1.4021    4.8704   -2.7347 C   0  0  0  0  0  0  0  0  0  0  0  0
   -2.1360    3.6834   -2.8100 C   0  0  0  0  0  0  0  0  0  0  0  0
   -1.8371    2.6168   -1.9557 C   0  0  0  0  0  0  0  0  0  0  0  0
   -0.8098    2.7377   -1.0044 C   0  0  0  0  0  0  0  0  0  0  0  0
   -0.3745    1.5979   -0.2352 N   0  0  0  0  0  0  0  0  0  0  0  0
   -1.3333    0.7393    0.3987 C   0  0  0  0  0  0  0  0  0  0  0  0
   -1.7727    1.0468    1.5389 O   0  0  0  0  0  0  0  0  0  0  0  0
   -1.7570   -0.5503   -0.2511 C   0  0  0  0  0  0  0  0  0  0  0  0
   -3.2872   -0.7122   -0.3085 C   0  0  0  0  0  0  0  0  0  0  0  0
   -3.9010   -0.7721    1.0384 N   0  0  0  0  0  0  0  0  0  0  0  0
   -5.3759   -0.6206    0.9693 C   0  0  0  0  0  0  0  0  0  0  0  0
   -6.0975   -1.9761    1.0867 C   0  0  0  0  0  0  0  0  0  0  0  0
   -5.8181   -2.6690    2.2965 O   0  0  0  0  0  0  0  0  0  0  0  0
   -4.5367   -2.3773    2.8381 C   0  0  0  0  0  0  0  0  0  0  0  0
   -3.4931   -1.9927    1.7758 C   0  0  0  0  0  0  0  0  0  0  0  0
    1.0381    1.4222    0.0004 C   0  0  0  0  0  0  0  0  0  0  0  0
    1.6275    0.1473   -0.0502 C   0  0  0  0  0  0  0  0  0  0  0  0
    8.7900   -2.9820   -0.5156 H   0  0  0  0  0  0  0  0  0  0  0  0
    7.7676   -1.5072   -0.3343 H   0  0  0  0  0  0  0  0  0  0  0  0
    7.7148   -2.8036    0.9267 H   0  0  0  0  0  0  0  0  0  0  0  0
    6.7583   -3.0894   -2.0057 H   0  0  0  0  0  0  0  0  0  0  0  0
    6.7920   -4.3997   -0.7741 H   0  0  0  0  0  0  0  0  0  0  0  0
    3.0269   -2.1117    0.3424 H   0  0  0  0  0  0  0  0  0  0  0  0
    4.9048    1.0585    0.2057 H   0  0  0  0  0  0  0  0  0  0  0  0
    3.8816    3.2856    0.3072 H   0  0  0  0  0  0  0  0  0  0  0  0
    0.1702    5.9320   -1.7216 H   0  0  0  0  0  0  0  0  0  0  0  0
   -1.6269    5.6879   -3.4065 H   0  0  0  0  0  0  0  0  0  0  0  0
   -2.9203    3.5799   -3.5479 H   0  0  0  0  0  0  0  0  0  0  0  0
   -2.3745    1.6872   -2.0710 H   0  0  0  0  0  0  0  0  0  0  0  0
   -1.2952   -1.4031    0.2874 H   0  0  0  0  0  0  0  0  0  0  0  0
   -1.3654   -0.5762   -1.2909 H   0  0  0  0  0  0  0  0  0  0  0  0
   -3.5409   -1.6254   -0.8925 H   0  0  0  0  0  0  0  0  0  0  0  0
   -3.6903    0.1572   -0.8720 H   0  0  0  0  0  0  0  0  0  0  0  0
   -5.7031    0.0293    1.8099 H   0  0  0  0  0  0  0  0  0  0  0  0
   -5.7090   -0.1116    0.0369 H   0  0  0  0  0  0  0  0  0  0  0  0
   -5.8203   -2.6208    0.2241 H   0  0  0  0  0  0  0  0  0  0  0  0
   -7.1926   -1.8010    1.0285 H   0  0  0  0  0  0  0  0  0  0  0  0
   -4.6328   -1.5541    3.5804 H   0  0  0  0  0  0  0  0  0  0  0  0
   -4.1741   -3.2737    3.3849 H   0  0  0  0  0  0  0  0  0  0  0  0
   -2.5261   -1.8031    2.2887 H   0  0  0  0  0  0  0  0  0  0  0  0
   -3.3595   -2.8598    1.0890 H   0  0  0  0  0  0  0  0  0  0  0  0
    1.0122   -0.7321   -0.1755 H   0  0  0  0  0  0  0  0  0  0  0  0
  1  2  1  0
  2  3  1  0
  3  4  1  0
  4  5  2  0
  4  6  1  0
  6  7  1  0
  7  8  2  0
  8  9  1  0
  9 10  2  0
 10 11  1  0
 11 12  1  0
 12 13  2  0
 13 14  1  0
 14 15  2  0
 15 16  1  0
 16 17  2  0
 17 12  1  0
 17 18  1  0
 18 19  1  0
 19 20  2  0
 19 21  1  0
 21 22  1  0
 22 23  1  0
 23 24  1  0
 24 25  1  0
 25 26  1  0
 26 27  1  0
 27 28  1  0
 28 23  1  0
 18 29  1  0
 29 10  1  0
 29 30  2  0
 30  7  1  0
  1 31  1  0
  1 32  1  0
  1 33  1  0
  2 34  1  0
  2 35  1  0
  6 36  1  0
  8 37  1  0
  9 38  1  0
 13 39  1  0
 14 40  1  0
 15 41  1  0
 16 42  1  0
 21 43  1  0
 21 44  1  0
 22 45  1  0
 22 46  1  0
 24 47  1  0
 24 48  1  0
 25 49  1  0
 25 50  1  0
 27 51  1  0
 27 52  1  0
 28 53  1  0
 28 54  1  0
 30 55  1  0
M  END
> <ID>
HT1434

> <Class>
0.0

> <Clusters>
205

> <Fold>
2

$$$$