
     RDKit          3D

 41 43  0  0  0  0  0  0  0  0999 V2000
    5.5029   -0.3224    0.1237 C   0  0  0  0  0  0  0  0  0  0  0  0
    4.3206   -0.5201   -0.7163 N   0  0  0  0  0  0  0  0  0  0  0  0
    3.2257    0.3459   -0.2649 C   0  0  0  0  0  0  0  0  0  0  0  0
    1.9596    0.0473   -1.0689 C   0  0  0  0  0  0  0  0  0  0  0  0
    0.8231    0.9206   -0.6004 C   0  0  0  0  0  0  0  0  0  0  0  0
   -0.3042    0.4729   -0.0060 C   0  0  0  0  0  0  0  0  0  0  0  0
   -1.3954    1.4299    0.3214 C   0  0  0  0  0  0  0  0  0  0  0  0
   -1.0417    2.6213    0.9893 C   0  0  0  0  0  0  0  0  0  0  0  0
   -2.0043    3.5685    1.3309 C   0  0  0  0  0  0  0  0  0  0  0  0
   -3.3409    3.3444    1.0229 C   0  0  0  0  0  0  0  0  0  0  0  0
   -3.7207    2.1708    0.3746 C   0  0  0  0  0  0  0  0  0  0  0  0
   -2.7710    1.1981    0.0036 C   0  0  0  0  0  0  0  0  0  0  0  0
   -3.3415   -0.0529   -0.6566 C   0  0  0  0  0  0  0  0  0  0  0  0
   -2.3643   -0.9761   -1.3894 C   0  0  0  0  0  0  0  0  0  0  0  0
   -1.4791   -1.6845   -0.4029 C   0  0  0  0  0  0  0  0  0  0  0  0
   -1.6372   -3.0574   -0.1492 C   0  0  0  0  0  0  0  0  0  0  0  0
   -0.8351   -3.6935    0.8025 C   0  0  0  0  0  0  0  0  0  0  0  0
    0.1245   -2.9649    1.5091 C   0  0  0  0  0  0  0  0  0  0  0  0
    0.2906   -1.6006    1.2590 C   0  0  0  0  0  0  0  0  0  0  0  0
   -0.5022   -0.9585    0.2939 C   0  0  0  0  0  0  0  0  0  0  0  0
    6.3295   -0.9636   -0.2486 H   0  0  0  0  0  0  0  0  0  0  0  0
    5.2852   -0.6185    1.1725 H   0  0  0  0  0  0  0  0  0  0  0  0
    5.8384    0.7380    0.0949 H   0  0  0  0  0  0  0  0  0  0  0  0
    4.5791   -0.2371   -1.6911 H   0  0  0  0  0  0  0  0  0  0  0  0
    3.5044    1.4170   -0.3947 H   0  0  0  0  0  0  0  0  0  0  0  0
    3.0157    0.1595    0.8122 H   0  0  0  0  0  0  0  0  0  0  0  0
    2.1444    0.2675   -2.1422 H   0  0  0  0  0  0  0  0  0  0  0  0
    1.7242   -1.0345   -0.9973 H   0  0  0  0  0  0  0  0  0  0  0  0
    0.9230    1.9789   -0.8126 H   0  0  0  0  0  0  0  0  0  0  0  0
   -0.0115    2.8140    1.2638 H   0  0  0  0  0  0  0  0  0  0  0  0
   -1.7126    4.4761    1.8435 H   0  0  0  0  0  0  0  0  0  0  0  0
   -4.0885    4.0784    1.2954 H   0  0  0  0  0  0  0  0  0  0  0  0
   -4.7723    2.0169    0.1623 H   0  0  0  0  0  0  0  0  0  0  0  0
   -4.1012    0.2654   -1.4045 H   0  0  0  0  0  0  0  0  0  0  0  0
   -3.8847   -0.6413    0.1157 H   0  0  0  0  0  0  0  0  0  0  0  0
   -1.7571   -0.4021   -2.1228 H   0  0  0  0  0  0  0  0  0  0  0  0
   -2.9545   -1.7172   -1.9722 H   0  0  0  0  0  0  0  0  0  0  0  0
   -2.3872   -3.6325   -0.6778 H   0  0  0  0  0  0  0  0  0  0  0  0
   -0.9625   -4.7505    0.9974 H   0  0  0  0  0  0  0  0  0  0  0  0
    0.7408   -3.4579    2.2497 H   0  0  0  0  0  0  0  0  0  0  0  0
    1.0382   -1.0454    1.8113 H   0  0  0  0  0  0  0  0  0  0  0  0
  1  2  1  0
  2  3  1  0
  3  4  1  0
  4  5  1  0
  5  6  2  3
  6  7  1  0
  7  8  2  0
  8  9  1  0
  9 10  2  0
 10 11  1  0
 11 12  2  0
 12  7  1  0
 12 13  1  0
 13 14  1  0
 14 15  1  0
 15 16  2  0
 16 17  1  0
 17 18  2  0
 18 19  1  0
 19 20  2  0
 20  6  1  0
 20 15  1  0
  1 21  1  0
  1 22  1  0
  1 23  1  0
  2 24  1  0
  3 25  1  0
  3 26  1  0
  4 27  1  0
  4 28  1  0
  5 29  1  0
  8 30  1  0
  9 31  1  0
 10 32  1  0
 11 33  1  0
 13 34  1  0
 13 35  1  0
 14 36  1  0
 14 37  1  0
 16 38  1  0
 17 39  1  0
 18 40  1  0
 19 41  1  0
M  END
> <ID>
HT1527

> <Class>
1.0

> <Clusters>
17

> <Fold>
3

$$$$