
     RDKit          3D

 76 79  0  0  0  0  0  0  0  0999 V2000
   -8.8669    0.4631    1.2639 C   0  0  0  0  0  0  0  0  0  0  0  0
   -7.9810   -0.5986    0.5666 C   0  0  0  0  0  0  0  0  0  0  0  0
   -7.5679   -1.6405    1.6293 C   0  0  0  0  0  0  0  0  0  0  0  0
   -8.8413   -1.2853   -0.5178 C   0  0  0  0  0  0  0  0  0  0  0  0
   -6.7158    0.0003   -0.0829 C   0  0  0  0  0  0  0  0  0  0  0  0
   -6.3918    1.3735   -0.0021 C   0  0  0  0  0  0  0  0  0  0  0  0
   -5.2410    1.8778   -0.6113 C   0  0  0  0  0  0  0  0  0  0  0  0
   -4.3735    1.0359   -1.3218 C   0  0  0  0  0  0  0  0  0  0  0  0
   -4.6780   -0.3338   -1.3973 C   0  0  0  0  0  0  0  0  0  0  0  0
   -5.8271   -0.8411   -0.7864 C   0  0  0  0  0  0  0  0  0  0  0  0
   -3.1187    1.6276   -1.9460 C   0  0  0  0  0  0  0  0  0  0  0  0
   -2.6799    0.9046   -3.0715 O   0  0  0  0  0  0  0  0  0  0  0  0
   -1.9930    1.8643   -0.9076 C   0  0  0  0  0  0  0  0  0  0  0  0
   -1.3911    0.5837   -0.2878 C   0  0  0  0  0  0  0  0  0  0  0  0
   -0.1446    0.0656   -1.0577 C   0  0  0  0  0  0  0  0  0  0  0  0
    1.1326    0.1945   -0.3206 N   0  0  0  0  0  0  0  0  0  0  0  0
    1.2619   -0.7869    0.7749 C   0  0  0  0  0  0  0  0  0  0  0  0
    2.4658   -0.4913    1.6962 C   0  0  0  0  0  0  0  0  0  0  0  0
    3.5591    0.4304    1.0763 C   0  0  0  0  0  0  0  0  0  0  0  0
    2.9282    1.6937    0.4051 C   0  0  0  0  0  0  0  0  0  0  0  0
    1.4268    1.5638    0.1262 C   0  0  0  0  0  0  0  0  0  0  0  0
    4.5814   -0.3139    0.1263 C   0  0  0  0  0  0  0  0  0  0  0  0
    3.8755   -0.7179   -1.0292 O   0  0  0  0  0  0  0  0  0  0  0  0
    5.7058    0.6512   -0.2872 C   0  0  0  0  0  0  0  0  0  0  0  0
    6.5548    1.2219    0.6876 C   0  0  0  0  0  0  0  0  0  0  0  0
    7.5858    2.0905    0.3201 C   0  0  0  0  0  0  0  0  0  0  0  0
    7.7923    2.4043   -1.0230 C   0  0  0  0  0  0  0  0  0  0  0  0
    6.9702    1.8481   -2.0028 C   0  0  0  0  0  0  0  0  0  0  0  0
    5.9378    0.9770   -1.6434 C   0  0  0  0  0  0  0  0  0  0  0  0
    5.2790   -1.5378    0.7579 C   0  0  0  0  0  0  0  0  0  0  0  0
    5.8132   -2.5348   -0.0877 C   0  0  0  0  0  0  0  0  0  0  0  0
    6.5111   -3.6258    0.4371 C   0  0  0  0  0  0  0  0  0  0  0  0
    6.7108   -3.7307    1.8131 C   0  0  0  0  0  0  0  0  0  0  0  0
    6.2231   -2.7396    2.6651 C   0  0  0  0  0  0  0  0  0  0  0  0
    5.5245   -1.6459    2.1465 C   0  0  0  0  0  0  0  0  0  0  0  0
   -9.7753   -0.0057    1.7021 H   0  0  0  0  0  0  0  0  0  0  0  0
   -9.2063    1.2325    0.5365 H   0  0  0  0  0  0  0  0  0  0  0  0
   -8.3161    0.9561    2.0933 H   0  0  0  0  0  0  0  0  0  0  0  0
   -7.0218   -2.4924    1.1719 H   0  0  0  0  0  0  0  0  0  0  0  0
   -6.9076   -1.1736    2.3913 H   0  0  0  0  0  0  0  0  0  0  0  0
   -8.4612   -2.0545    2.1453 H   0  0  0  0  0  0  0  0  0  0  0  0
   -9.7934   -1.6643   -0.0862 H   0  0  0  0  0  0  0  0  0  0  0  0
   -9.0855   -0.5659   -1.3292 H   0  0  0  0  0  0  0  0  0  0  0  0
   -8.3147   -2.1541   -0.9677 H   0  0  0  0  0  0  0  0  0  0  0  0
   -7.0117    2.0766    0.5325 H   0  0  0  0  0  0  0  0  0  0  0  0
   -5.0225    2.9352   -0.5235 H   0  0  0  0  0  0  0  0  0  0  0  0
   -4.0316   -1.0243   -1.9209 H   0  0  0  0  0  0  0  0  0  0  0  0
   -6.0186   -1.9023   -0.8695 H   0  0  0  0  0  0  0  0  0  0  0  0
   -3.3969    2.6346   -2.3278 H   0  0  0  0  0  0  0  0  0  0  0  0
   -2.2726    0.0577   -2.7639 H   0  0  0  0  0  0  0  0  0  0  0  0
   -1.1947    2.4807   -1.3715 H   0  0  0  0  0  0  0  0  0  0  0  0
   -2.4095    2.4872   -0.0867 H   0  0  0  0  0  0  0  0  0  0  0  0
   -2.1547   -0.2195   -0.2472 H   0  0  0  0  0  0  0  0  0  0  0  0
   -1.1452    0.7943    0.7715 H   0  0  0  0  0  0  0  0  0  0  0  0
   -0.3056   -1.0042   -1.3178 H   0  0  0  0  0  0  0  0  0  0  0  0
   -0.0368    0.5798   -2.0364 H   0  0  0  0  0  0  0  0  0  0  0  0
    1.3825   -1.8009    0.3362 H   0  0  0  0  0  0  0  0  0  0  0  0
    0.3406   -0.8209    1.3964 H   0  0  0  0  0  0  0  0  0  0  0  0
    2.8874   -1.4519    2.0540 H   0  0  0  0  0  0  0  0  0  0  0  0
    2.0762    0.0209    2.6037 H   0  0  0  0  0  0  0  0  0  0  0  0
    4.1348    0.8219    1.9402 H   0  0  0  0  0  0  0  0  0  0  0  0
    3.4321    1.9332   -0.5545 H   0  0  0  0  0  0  0  0  0  0  0  0
    3.0809    2.5792    1.0612 H   0  0  0  0  0  0  0  0  0  0  0  0
    1.1478    2.3039   -0.6565 H   0  0  0  0  0  0  0  0  0  0  0  0
    0.8617    1.8105    1.0534 H   0  0  0  0  0  0  0  0  0  0  0  0
    3.3578   -1.5353   -0.8152 H   0  0  0  0  0  0  0  0  0  0  0  0
    6.4276    0.9940    1.7363 H   0  0  0  0  0  0  0  0  0  0  0  0
    8.2273    2.5184    1.0794 H   0  0  0  0  0  0  0  0  0  0  0  0
    8.5919    3.0762   -1.3049 H   0  0  0  0  0  0  0  0  0  0  0  0
    7.1326    2.0909   -3.0453 H   0  0  0  0  0  0  0  0  0  0  0  0
    5.3255    0.5660   -2.4347 H   0  0  0  0  0  0  0  0  0  0  0  0
    5.7028   -2.4638   -1.1625 H   0  0  0  0  0  0  0  0  0  0  0  0
    6.9057   -4.3851   -0.2264 H   0  0  0  0  0  0  0  0  0  0  0  0
    7.2566   -4.5729    2.2174 H   0  0  0  0  0  0  0  0  0  0  0  0
    6.3946   -2.8137    3.7309 H   0  0  0  0  0  0  0  0  0  0  0  0
    5.1876   -0.8924    2.8417 H   0  0  0  0  0  0  0  0  0  0  0  0
  1  2  1  0
  2  3  1  0
  2  4  1  0
  2  5  1  0
  5  6  2  0
  6  7  1  0
  7  8  2  0
  8  9  1  0
  9 10  2  0
 10  5  1  0
  8 11  1  0
 11 12  1  0
 11 13  1  0
 13 14  1  0
 14 15  1  0
 15 16  1  0
 16 17  1  0
 17 18  1  0
 18 19  1  0
 19 20  1  0
 20 21  1  0
 21 16  1  0
 19 22  1  0
 22 23  1  0
 22 24  1  0
 24 25  2  0
 25 26  1  0
 26 27  2  0
 27 28  1  0
 28 29  2  0
 29 24  1  0
 22 30  1  0
 30 31  2  0
 31 32  1  0
 32 33  2  0
 33 34  1  0
 34 35  2  0
 35 30  1  0
  1 36  1  0
  1 37  1  0
  1 38  1  0
  3 39  1  0
  3 40  1  0
  3 41  1  0
  4 42  1  0
  4 43  1  0
  4 44  1  0
  6 45  1  0
  7 46  1  0
  9 47  1  0
 10 48  1  0
 11 49  1  0
 12 50  1  0
 13 51  1  0
 13 52  1  0
 14 53  1  0
 14 54  1  0
 15 55  1  0
 15 56  1  0
 17 57  1  0
 17 58  1  0
 18 59  1  0
 18 60  1  0
 19 61  1  0
 20 62  1  0
 20 63  1  0
 21 64  1  0
 21 65  1  0
 23 66  1  0
 25 67  1  0
 26 68  1  0
 27 69  1  0
 28 70  1  0
 29 71  1  0
 31 72  1  0
 32 73  1  0
 33 74  1  0
 34 75  1  0
 35 76  1  0
M  END
> <ID>
HT2011

> <Class>
1.0

> <Clusters>
103

> <Fold>
3

$$$$