
     RDKit          3D

 43 43  0  0  0  0  0  0  0  0999 V2000
   -5.1720    1.8050   -2.0261 C   0  0  0  0  0  0  0  0  0  0  0  0
   -5.8079    0.8676   -1.1083 N   0  0  0  0  0  0  0  0  0  0  0  0
   -5.0400   -0.0921   -0.3611 C   0  0  0  0  0  0  0  0  0  0  0  0
   -5.5639   -0.7501    0.6877 C   0  0  0  0  0  0  0  0  0  0  0  0
   -6.8261   -0.4215    1.2833 N   0  0  0  0  0  0  0  0  0  0  0  0
   -7.2124    0.7637    1.3495 O   0  0  0  0  0  0  0  0  0  0  0  0
   -7.4583   -1.3679    2.0543 O   0  0  0  0  0  0  0  0  0  0  0  0
   -3.7253   -0.4413   -0.8154 N   0  0  0  0  0  0  0  0  0  0  0  0
   -2.5288    0.0260   -0.1166 C   0  0  0  0  0  0  0  0  0  0  0  0
   -2.1739   -0.9012    1.0455 C   0  0  0  0  0  0  0  0  0  0  0  0
   -0.5590   -0.4367    1.7649 S   0  0  0  0  0  0  0  0  0  0  0  0
    0.4470   -1.5037    0.6793 C   0  0  0  0  0  0  0  0  0  0  0  0
    1.8946   -1.2728    0.9619 C   0  0  0  0  0  0  0  0  0  0  0  0
    2.5013   -0.1217    0.7850 O   0  0  0  0  0  0  0  0  0  0  0  0
    3.7613   -0.2655    1.1247 C   0  0  0  0  0  0  0  0  0  0  0  0
    4.7818    0.8272    1.0422 C   0  0  0  0  0  0  0  0  0  0  0  0
    5.7317    0.5669   -0.0583 N   0  0  0  0  0  0  0  0  0  0  0  0
    5.1054    0.8338   -1.3654 C   0  0  0  0  0  0  0  0  0  0  0  0
    6.9243    1.4148    0.0966 C   0  0  0  0  0  0  0  0  0  0  0  0
    3.9992   -1.5622    1.5380 C   0  0  0  0  0  0  0  0  0  0  0  0
    2.7893   -2.2151    1.4333 C   0  0  0  0  0  0  0  0  0  0  0  0
   -5.9375    2.4738   -2.4731 H   0  0  0  0  0  0  0  0  0  0  0  0
   -4.6635    1.2527   -2.8436 H   0  0  0  0  0  0  0  0  0  0  0  0
   -4.4316    2.4244   -1.4774 H   0  0  0  0  0  0  0  0  0  0  0  0
   -6.8497    0.8859   -1.0413 H   0  0  0  0  0  0  0  0  0  0  0  0
   -5.0146   -1.5852    1.1035 H   0  0  0  0  0  0  0  0  0  0  0  0
   -3.6196   -0.7276   -1.8145 H   0  0  0  0  0  0  0  0  0  0  0  0
   -1.6839    0.0561   -0.8370 H   0  0  0  0  0  0  0  0  0  0  0  0
   -2.6888    1.0604    0.2588 H   0  0  0  0  0  0  0  0  0  0  0  0
   -2.1706   -1.9609    0.7111 H   0  0  0  0  0  0  0  0  0  0  0  0
   -2.9337   -0.7931    1.8462 H   0  0  0  0  0  0  0  0  0  0  0  0
    0.1880   -2.5679    0.8660 H   0  0  0  0  0  0  0  0  0  0  0  0
    0.2494   -1.2662   -0.3861 H   0  0  0  0  0  0  0  0  0  0  0  0
    5.3150    0.8538    2.0188 H   0  0  0  0  0  0  0  0  0  0  0  0
    4.2743    1.8101    0.9133 H   0  0  0  0  0  0  0  0  0  0  0  0
    5.8222    0.6125   -2.1854 H   0  0  0  0  0  0  0  0  0  0  0  0
    4.2277    0.1703   -1.5170 H   0  0  0  0  0  0  0  0  0  0  0  0
    4.7772    1.8940   -1.4494 H   0  0  0  0  0  0  0  0  0  0  0  0
    7.6438    1.2224   -0.7284 H   0  0  0  0  0  0  0  0  0  0  0  0
    7.4469    1.1694    1.0461 H   0  0  0  0  0  0  0  0  0  0  0  0
    6.6542    2.4948    0.0991 H   0  0  0  0  0  0  0  0  0  0  0  0
    4.9396   -1.9816    1.8701 H   0  0  0  0  0  0  0  0  0  0  0  0
    2.5868   -3.2513    1.6698 H   0  0  0  0  0  0  0  0  0  0  0  0
  1  2  1  0
  2  3  1  0
  3  4  2  3
  4  5  1  0
  5  6  2  0
  5  7  1  0
  3  8  1  0
  8  9  1  0
  9 10  1  0
 10 11  1  0
 11 12  1  0
 12 13  1  0
 13 14  1  0
 14 15  1  0
 15 16  1  0
 16 17  1  0
 17 18  1  0
 17 19  1  0
 15 20  2  0
 20 21  1  0
 21 13  2  0
  1 22  1  0
  1 23  1  0
  1 24  1  0
  2 25  1  0
  4 26  1  0
  8 27  1  0
  9 28  1  0
  9 29  1  0
 10 30  1  0
 10 31  1  0
 12 32  1  0
 12 33  1  0
 16 34  1  0
 16 35  1  0
 18 36  1  0
 18 37  1  0
 18 38  1  0
 19 39  1  0
 19 40  1  0
 19 41  1  0
 20 42  1  0
 21 43  1  0
M  CHG  2   5   1   7  -1
M  END
> <ID>
HT1800

> <Class>
1.0

> <Clusters>
181

> <Fold>
3

$$$$