
     RDKit          3D

 71 72  0  0  0  0  0  0  0  0999 V2000
    8.4160   -1.4470    2.7090 C   0  0  0  0  0  0  0  0  0  0  0  0
    8.1964   -1.1126    1.3436 O   0  0  0  0  0  0  0  0  0  0  0  0
    6.9941   -0.5960    0.8339 C   0  0  0  0  0  0  0  0  0  0  0  0
    5.8504   -0.4236    1.6384 C   0  0  0  0  0  0  0  0  0  0  0  0
    4.6779    0.1074    1.0953 C   0  0  0  0  0  0  0  0  0  0  0  0
    4.6320    0.4882   -0.2522 C   0  0  0  0  0  0  0  0  0  0  0  0
    3.3674    1.0663   -0.8348 C   0  0  0  0  0  0  0  0  0  0  0  0
    2.4679   -0.0524   -1.3972 C   0  0  0  0  0  0  0  0  0  0  0  0
    1.1806    0.4329   -1.9472 N   0  0  0  0  0  0  0  0  0  0  0  0
    1.3687    1.2947   -3.1288 C   0  0  0  0  0  0  0  0  0  0  0  0
    0.3129    1.0600   -0.9249 C   0  0  0  0  0  0  0  0  0  0  0  0
   -1.1747    0.8394   -1.2484 C   0  0  0  0  0  0  0  0  0  0  0  0
   -1.5924   -0.6551   -1.3240 C   0  0  0  0  0  0  0  0  0  0  0  0
   -2.4494   -1.2172   -0.1312 C   0  0  0  0  0  0  0  0  0  0  0  0
   -2.7764   -2.6061   -0.5373 C   0  0  0  0  0  0  0  0  0  0  0  0
   -3.0347   -3.6884   -0.8585 N   0  0  0  0  0  0  0  0  0  0  0  0
   -1.5554   -1.2304    1.1944 C   0  0  0  0  0  0  0  0  0  0  0  0
   -1.7769   -0.0323    2.1393 C   0  0  0  0  0  0  0  0  0  0  0  0
   -1.5991   -2.5375    2.0228 C   0  0  0  0  0  0  0  0  0  0  0  0
   -3.8231   -0.5132    0.0370 C   0  0  0  0  0  0  0  0  0  0  0  0
   -4.3253    0.4167   -0.8999 C   0  0  0  0  0  0  0  0  0  0  0  0
   -5.5851    0.9965   -0.7430 C   0  0  0  0  0  0  0  0  0  0  0  0
   -6.4115    0.6432    0.3321 C   0  0  0  0  0  0  0  0  0  0  0  0
   -7.6557    1.2621    0.5298 O   0  0  0  0  0  0  0  0  0  0  0  0
   -8.1925    2.3000   -0.2894 C   0  0  0  0  0  0  0  0  0  0  0  0
   -5.9696   -0.3479    1.2327 C   0  0  0  0  0  0  0  0  0  0  0  0
   -6.7557   -0.8311    2.2950 O   0  0  0  0  0  0  0  0  0  0  0  0
   -8.1814   -0.7980    2.3464 C   0  0  0  0  0  0  0  0  0  0  0  0
   -4.6937   -0.9048    1.0782 C   0  0  0  0  0  0  0  0  0  0  0  0
    5.7636    0.3004   -1.0618 C   0  0  0  0  0  0  0  0  0  0  0  0
    6.9478   -0.2394   -0.5233 C   0  0  0  0  0  0  0  0  0  0  0  0
    8.1014   -0.4321   -1.3004 O   0  0  0  0  0  0  0  0  0  0  0  0
    8.2124   -0.0968   -2.6777 C   0  0  0  0  0  0  0  0  0  0  0  0
    9.4591   -1.8059    2.8329 H   0  0  0  0  0  0  0  0  0  0  0  0
    7.7237   -2.2570    3.0200 H   0  0  0  0  0  0  0  0  0  0  0  0
    8.2687   -0.5514    3.3460 H   0  0  0  0  0  0  0  0  0  0  0  0
    5.8549   -0.6989    2.6849 H   0  0  0  0  0  0  0  0  0  0  0  0
    3.8057    0.2272    1.7280 H   0  0  0  0  0  0  0  0  0  0  0  0
    3.6364    1.7866   -1.6339 H   0  0  0  0  0  0  0  0  0  0  0  0
    2.8287    1.6340   -0.0460 H   0  0  0  0  0  0  0  0  0  0  0  0
    3.0206   -0.6029   -2.1886 H   0  0  0  0  0  0  0  0  0  0  0  0
    2.2656   -0.7964   -0.5954 H   0  0  0  0  0  0  0  0  0  0  0  0
    0.4106    1.3978   -3.6778 H   0  0  0  0  0  0  0  0  0  0  0  0
    1.7237    2.3092   -2.8474 H   0  0  0  0  0  0  0  0  0  0  0  0
    2.0976    0.8378   -3.8349 H   0  0  0  0  0  0  0  0  0  0  0  0
    0.5175    0.6455    0.0814 H   0  0  0  0  0  0  0  0  0  0  0  0
    0.5107    2.1529   -0.8550 H   0  0  0  0  0  0  0  0  0  0  0  0
   -1.7927    1.3932   -0.5179 H   0  0  0  0  0  0  0  0  0  0  0  0
   -1.3877    1.3211   -2.2274 H   0  0  0  0  0  0  0  0  0  0  0  0
   -0.6855   -1.2904   -1.4480 H   0  0  0  0  0  0  0  0  0  0  0  0
   -2.1532   -0.8013   -2.2766 H   0  0  0  0  0  0  0  0  0  0  0  0
   -0.4900   -1.1698    0.8883 H   0  0  0  0  0  0  0  0  0  0  0  0
   -2.7296   -0.1290    2.6995 H   0  0  0  0  0  0  0  0  0  0  0  0
   -0.9548    0.0143    2.8866 H   0  0  0  0  0  0  0  0  0  0  0  0
   -1.7760    0.9324    1.5993 H   0  0  0  0  0  0  0  0  0  0  0  0
   -2.6218   -2.7919    2.3566 H   0  0  0  0  0  0  0  0  0  0  0  0
   -1.1954   -3.3850    1.4294 H   0  0  0  0  0  0  0  0  0  0  0  0
   -0.9545   -2.4491    2.9246 H   0  0  0  0  0  0  0  0  0  0  0  0
   -3.7748    0.6995   -1.7794 H   0  0  0  0  0  0  0  0  0  0  0  0
   -5.9132    1.7136   -1.4808 H   0  0  0  0  0  0  0  0  0  0  0  0
   -8.3677    1.9197   -1.3184 H   0  0  0  0  0  0  0  0  0  0  0  0
   -7.5006    3.1681   -0.3108 H   0  0  0  0  0  0  0  0  0  0  0  0
   -9.1608    2.6317    0.1344 H   0  0  0  0  0  0  0  0  0  0  0  0
   -8.5151   -1.4917    3.1439 H   0  0  0  0  0  0  0  0  0  0  0  0
   -8.6170   -1.1365    1.3787 H   0  0  0  0  0  0  0  0  0  0  0  0
   -8.5431    0.2190    2.6112 H   0  0  0  0  0  0  0  0  0  0  0  0
   -4.4020   -1.6742    1.7728 H   0  0  0  0  0  0  0  0  0  0  0  0
    5.7157    0.5812   -2.1038 H   0  0  0  0  0  0  0  0  0  0  0  0
    7.4820   -0.6853   -3.2740 H   0  0  0  0  0  0  0  0  0  0  0  0
    8.0406    0.9920   -2.8220 H   0  0  0  0  0  0  0  0  0  0  0  0
    9.2368   -0.3401   -3.0284 H   0  0  0  0  0  0  0  0  0  0  0  0
  1  2  1  0
  2  3  1  0
  3  4  2  0
  4  5  1  0
  5  6  2  0
  6  7  1  0
  7  8  1  0
  8  9  1  0
  9 10  1  0
  9 11  1  0
 11 12  1  0
 12 13  1  0
 13 14  1  0
 14 15  1  0
 15 16  3  0
 14 17  1  0
 17 18  1  0
 17 19  1  0
 14 20  1  0
 20 21  2  0
 21 22  1  0
 22 23  2  0
 23 24  1  0
 24 25  1  0
 23 26  1  0
 26 27  1  0
 27 28  1  0
 26 29  2  0
 29 20  1  0
  6 30  1  0
 30 31  2  0
 31  3  1  0
 31 32  1  0
 32 33  1  0
  1 34  1  0
  1 35  1  0
  1 36  1  0
  4 37  1  0
  5 38  1  0
  7 39  1  0
  7 40  1  0
  8 41  1  0
  8 42  1  0
 10 43  1  0
 10 44  1  0
 10 45  1  0
 11 46  1  0
 11 47  1  0
 12 48  1  0
 12 49  1  0
 13 50  1  0
 13 51  1  0
 17 52  1  0
 18 53  1  0
 18 54  1  0
 18 55  1  0
 19 56  1  0
 19 57  1  0
 19 58  1  0
 21 59  1  0
 22 60  1  0
 25 61  1  0
 25 62  1  0
 25 63  1  0
 28 64  1  0
 28 65  1  0
 28 66  1  0
 29 67  1  0
 30 68  1  0
 33 69  1  0
 33 70  1  0
 33 71  1  0
M  END
> <ID>
HT2173

> <Class>
1.0

> <Clusters>
271

> <Fold>
3

$$$$