
     RDKit          3D

 61 65  0  0  0  0  0  0  0  0999 V2000
   -1.2657    5.0579    0.7232 C   0  0  0  0  0  0  0  0  0  0  0  0
   -1.9227    3.8930    1.3978 C   0  0  0  0  0  0  0  0  0  0  0  0
   -3.0982    3.9508    1.7217 O   0  0  0  0  0  0  0  0  0  0  0  0
   -0.9730    2.4070    1.7488 S   0  0  0  0  0  0  0  0  0  0  0  0
   -1.4098    1.5416    0.1676 C   0  0  2  0  0  0  0  0  0  0  0  0
   -2.8823    1.0503    0.2920 C   0  0  0  0  0  0  0  0  0  0  0  0
   -3.2322   -0.3038   -0.2873 C   0  0  0  0  0  0  0  0  0  0  0  0
   -4.5416   -0.6041   -0.3802 C   0  0  0  0  0  0  0  0  0  0  0  0
   -5.0116   -1.9736   -0.6440 C   0  0  0  0  0  0  0  0  0  0  0  0
   -6.2268   -2.1720   -0.9061 O   0  0  0  0  0  0  0  0  0  0  0  0
   -4.0699   -3.1376   -0.6018 C   0  0  0  0  0  0  0  0  0  0  0  0
   -2.6885   -2.7411   -0.0520 C   0  0  0  0  0  0  0  0  0  0  0  0
   -2.1768   -1.3662   -0.5900 C   0  0  1  0  0  0  0  0  0  0  0  0
   -2.0225   -1.4504   -2.1384 C   0  0  0  0  0  0  0  0  0  0  0  0
   -0.8288   -0.9817    0.1357 C   0  0  1  0  0  0  0  0  0  0  0  0
    0.2699   -2.0939   -0.0026 C   0  0  0  0  0  0  0  0  0  0  0  0
    1.6787   -1.6665    0.4467 C   0  0  0  0  0  0  0  0  0  0  0  0
    2.0928   -0.3324   -0.2158 C   0  0  1  0  0  0  0  0  0  0  0  0
    2.1580   -0.5310   -1.7711 C   0  0  0  0  0  0  0  0  0  0  0  0
    1.0836    0.7366    0.2154 C   0  0  1  0  0  0  0  0  0  0  0  0
    1.7394    2.0577   -0.2014 C   0  0  0  0  0  0  0  0  0  0  0  0
    3.2556    1.8125   -0.0809 C   0  0  0  0  0  0  0  0  0  0  0  0
    3.4367    0.3102    0.2588 C   0  0  1  0  0  0  0  0  0  0  0  0
    3.7938    0.0946    1.7679 C   0  0  0  0  0  0  0  0  0  0  0  0
    4.8090   -1.0483    1.7909 C   0  0  0  0  0  0  0  0  0  0  0  0
    5.3014   -1.0413    0.3993 C   0  0  0  0  0  0  0  0  0  0  0  0
    6.3187   -1.6724    0.0055 O   0  0  0  0  0  0  0  0  0  0  0  0
    4.5424   -0.2523   -0.4361 O   0  0  0  0  0  0  0  0  0  0  0  0
   -0.3654    0.4569   -0.2750 C   0  0  2  0  0  0  0  0  0  0  0  0
   -1.9997    5.8738    0.5579 H   0  0  0  0  0  0  0  0  0  0  0  0
   -0.4459    5.4460    1.3700 H   0  0  0  0  0  0  0  0  0  0  0  0
   -0.8619    4.7330   -0.2575 H   0  0  0  0  0  0  0  0  0  0  0  0
   -1.3873    2.3158   -0.6351 H   0  0  0  0  0  0  0  0  0  0  0  0
   -3.5430    1.8319   -0.1644 H   0  0  0  0  0  0  0  0  0  0  0  0
   -3.1625    0.9871    1.3741 H   0  0  0  0  0  0  0  0  0  0  0  0
   -5.2877    0.1561   -0.1805 H   0  0  0  0  0  0  0  0  0  0  0  0
   -4.5005   -3.9340    0.0413 H   0  0  0  0  0  0  0  0  0  0  0  0
   -3.9658   -3.5606   -1.6225 H   0  0  0  0  0  0  0  0  0  0  0  0
   -2.7519   -2.6976    1.0583 H   0  0  0  0  0  0  0  0  0  0  0  0
   -1.9837   -3.5570   -0.3176 H   0  0  0  0  0  0  0  0  0  0  0  0
   -1.3047   -2.2356   -2.4479 H   0  0  0  0  0  0  0  0  0  0  0  0
   -1.7229   -0.4855   -2.5894 H   0  0  0  0  0  0  0  0  0  0  0  0
   -2.9876   -1.6972   -2.6250 H   0  0  0  0  0  0  0  0  0  0  0  0
   -1.0438   -0.9274    1.2281 H   0  0  0  0  0  0  0  0  0  0  0  0
    0.3311   -2.4873   -1.0333 H   0  0  0  0  0  0  0  0  0  0  0  0
   -0.0137   -2.9594    0.6337 H   0  0  0  0  0  0  0  0  0  0  0  0
    1.6535   -1.5927    1.5514 H   0  0  0  0  0  0  0  0  0  0  0  0
    2.4078   -2.4634    0.1860 H   0  0  0  0  0  0  0  0  0  0  0  0
    2.5012    0.3826   -2.2972 H   0  0  0  0  0  0  0  0  0  0  0  0
    2.8692   -1.3477   -2.0191 H   0  0  0  0  0  0  0  0  0  0  0  0
    1.1889   -0.8120   -2.2238 H   0  0  0  0  0  0  0  0  0  0  0  0
    1.0528    0.7295    1.3282 H   0  0  0  0  0  0  0  0  0  0  0  0
    1.4693    2.3118   -1.2505 H   0  0  0  0  0  0  0  0  0  0  0  0
    1.4330    2.8968    0.4562 H   0  0  0  0  0  0  0  0  0  0  0  0
    3.7447    2.0494   -1.0516 H   0  0  0  0  0  0  0  0  0  0  0  0
    3.7000    2.4894    0.6802 H   0  0  0  0  0  0  0  0  0  0  0  0
    2.9293   -0.0993    2.4301 H   0  0  0  0  0  0  0  0  0  0  0  0
    4.2981    0.9938    2.1886 H   0  0  0  0  0  0  0  0  0  0  0  0
    5.6308   -0.8518    2.5106 H   0  0  0  0  0  0  0  0  0  0  0  0
    4.3089   -2.0130    2.0067 H   0  0  0  0  0  0  0  0  0  0  0  0
   -0.3203    0.5238   -1.3745 H   0  0  0  0  0  0  0  0  0  0  0  0
  1  2  1  0
  2  3  2  0
  2  4  1  0
  5  4  1  0
  5  6  1  0
  6  7  1  0
  7  8  2  0
  8  9  1  0
  9 10  2  0
  9 11  1  0
 11 12  1  0
 12 13  1  0
 13  7  1  0
 13 14  1  6
 13 15  1  0
 15 16  1  0
 16 17  1  0
 17 18  1  0
 18 19  1  6
 18 20  1  0
 20 21  1  0
 21 22  1  0
 22 23  1  0
 23 18  1  0
 23 24  1  0
 24 25  1  0
 25 26  1  0
 26 27  2  0
 26 28  1  0
 23 28  1  6
 20 29  1  0
 29  5  1  0
 29 15  1  0
  1 30  1  0
  1 31  1  0
  1 32  1  0
  5 33  1  6
  6 34  1  0
  6 35  1  0
  8 36  1  0
 11 37  1  0
 11 38  1  0
 12 39  1  0
 12 40  1  0
 14 41  1  0
 14 42  1  0
 14 43  1  0
 15 44  1  1
 16 45  1  0
 16 46  1  0
 17 47  1  0
 17 48  1  0
 19 49  1  0
 19 50  1  0
 19 51  1  0
 20 52  1  1
 21 53  1  0
 21 54  1  0
 22 55  1  0
 22 56  1  0
 24 57  1  0
 24 58  1  0
 25 59  1  0
 25 60  1  0
 29 61  1  6
M  END
> <ID>
HT1913

> <Class>
1.0

> <Clusters>
167

> <Fold>
3

$$$$