
     RDKit          3D

 44 48  0  0  0  0  0  0  0  0999 V2000
    5.4527    0.7070   -0.1013 C   0  0  0  0  0  0  0  0  0  0  0  0
    4.2572    0.0491   -0.5060 O   0  0  0  0  0  0  0  0  0  0  0  0
    2.9677    0.5147   -0.2151 C   0  0  0  0  0  0  0  0  0  0  0  0
    2.7190    1.6921    0.5338 C   0  0  0  0  0  0  0  0  0  0  0  0
    1.3968    2.0528    0.8746 C   0  0  0  0  0  0  0  0  0  0  0  0
    0.3134    1.2839    0.4099 C   0  0  0  0  0  0  0  0  0  0  0  0
   -1.0830    1.4488    0.9614 C   0  0  0  0  0  0  0  0  0  0  0  0
   -2.1314    0.4393    0.3645 C   0  0  1  0  0  0  0  0  0  0  0  0
   -2.7693    0.9338   -0.8865 N   0  0  0  0  0  0  0  0  0  0  0  0
   -3.6106    2.1257   -0.6905 C   0  0  0  0  0  0  0  0  0  0  0  0
   -1.8194    1.1185   -2.0045 C   0  0  0  0  0  0  0  0  0  0  0  0
   -1.0056   -0.1650   -2.2743 C   0  0  0  0  0  0  0  0  0  0  0  0
   -0.4016   -0.7568   -0.9719 C   0  0  1  0  0  0  0  0  0  0  0  0
    0.5232   -1.9910   -1.2679 C   0  0  1  0  0  0  0  0  0  0  0  0
    1.8594   -1.4723   -1.2206 O   0  0  0  0  0  0  0  0  0  0  0  0
    1.8621   -0.2169   -0.6490 C   0  0  0  0  0  0  0  0  0  0  0  0
    0.5918    0.2132   -0.4314 C   0  0  0  0  0  0  0  0  0  0  0  0
    0.4178   -3.1187   -0.2572 C   0  0  0  0  0  0  0  0  0  0  0  0
    1.0362   -4.1476   -0.4832 O   0  0  0  0  0  0  0  0  0  0  0  0
   -0.4061   -3.0542    1.0123 C   0  0  0  0  0  0  0  0  0  0  0  0
   -0.9805   -1.6672    1.3314 C   0  0  0  0  0  0  0  0  0  0  0  0
   -1.5361   -0.9751    0.0677 C   0  0  1  0  0  0  0  0  0  0  0  0
   -2.5829   -1.7664   -0.4602 O   0  0  0  0  0  0  0  0  0  0  0  0
    5.4940    1.7267   -0.5390 H   0  0  0  0  0  0  0  0  0  0  0  0
    6.3263    0.1279   -0.4645 H   0  0  0  0  0  0  0  0  0  0  0  0
    5.4997    0.7654    1.0067 H   0  0  0  0  0  0  0  0  0  0  0  0
    3.5348    2.2961    0.9065 H   0  0  0  0  0  0  0  0  0  0  0  0
    1.2236    2.8974    1.5295 H   0  0  0  0  0  0  0  0  0  0  0  0
   -1.0288    1.2744    2.0577 H   0  0  0  0  0  0  0  0  0  0  0  0
   -1.4049    2.5004    0.8335 H   0  0  0  0  0  0  0  0  0  0  0  0
   -2.9298    0.3011    1.1287 H   0  0  0  0  0  0  0  0  0  0  0  0
   -4.2247    2.0309    0.2306 H   0  0  0  0  0  0  0  0  0  0  0  0
   -3.0037    3.0543   -0.6342 H   0  0  0  0  0  0  0  0  0  0  0  0
   -4.3120    2.2239   -1.5458 H   0  0  0  0  0  0  0  0  0  0  0  0
   -1.1329    1.9699   -1.8036 H   0  0  0  0  0  0  0  0  0  0  0  0
   -2.3821    1.3668   -2.9312 H   0  0  0  0  0  0  0  0  0  0  0  0
   -0.1978    0.0681   -3.0034 H   0  0  0  0  0  0  0  0  0  0  0  0
   -1.6691   -0.9165   -2.7546 H   0  0  0  0  0  0  0  0  0  0  0  0
    0.3186   -2.3977   -2.2826 H   0  0  0  0  0  0  0  0  0  0  0  0
    0.2265   -3.3758    1.8679 H   0  0  0  0  0  0  0  0  0  0  0  0
   -1.2387   -3.7854    0.9272 H   0  0  0  0  0  0  0  0  0  0  0  0
   -0.1831   -1.0581    1.8068 H   0  0  0  0  0  0  0  0  0  0  0  0
   -1.7929   -1.7789    2.0821 H   0  0  0  0  0  0  0  0  0  0  0  0
   -2.1938   -2.5386   -0.9457 H   0  0  0  0  0  0  0  0  0  0  0  0
  1  2  1  0
  2  3  1  0
  3  4  2  0
  4  5  1  0
  5  6  2  0
  6  7  1  0
  8  7  1  0
  8  9  1  0
  9 10  1  0
  9 11  1  0
 11 12  1  0
 13 12  1  6
 13 14  1  0
 14 15  1  0
 15 16  1  0
 16  3  1  0
 16 17  2  0
 17  6  1  0
 17 13  1  0
 14 18  1  0
 18 19  2  0
 18 20  1  0
 20 21  1  0
 21 22  1  0
 22  8  1  0
 22 13  1  0
 22 23  1  6
  1 24  1  0
  1 25  1  0
  1 26  1  0
  4 27  1  0
  5 28  1  0
  7 29  1  0
  7 30  1  0
  8 31  1  1
 10 32  1  0
 10 33  1  0
 10 34  1  0
 11 35  1  0
 11 36  1  0
 12 37  1  0
 12 38  1  0
 14 39  1  6
 20 40  1  0
 20 41  1  0
 21 42  1  0
 21 43  1  0
 23 44  1  0
M  END
> <ID>
HT1566

> <Class>
1.0

> <Clusters>
175

> <Fold>
3

$$$$