
     RDKit          3D

 60 65  0  0  0  0  0  0  0  0999 V2000
   -1.4936    3.2082   -1.7806 C   0  0  0  0  0  0  0  0  0  0  0  0
   -1.6575    1.8272   -2.4192 C   0  0  0  0  0  0  0  0  0  0  0  0
   -0.7077    0.7351   -1.8569 C   0  0  0  0  0  0  0  0  0  0  0  0
   -0.9855    0.1249   -0.4987 N   0  0  0  0  0  0  0  0  0  0  0  0
   -2.4758   -0.0620   -0.2775 C   0  0  2  0  0  0  0  0  0  0  0  0
   -3.1145    1.1817   -0.1175 O   0  0  0  0  0  0  0  0  0  0  0  0
   -2.7716   -0.9077    1.0157 C   0  0  1  0  0  0  0  0  0  0  0  0
   -3.3803   -2.3014    0.7203 C   0  0  0  0  0  0  0  0  0  0  0  0
   -4.8506   -2.2107    0.3105 C   0  0  0  0  0  0  0  0  0  0  0  0
   -1.4669   -0.9742    1.8399 C   0  0  2  0  0  0  0  0  0  0  0  0
   -0.9937    0.4954    1.9827 C   0  0  0  0  0  0  0  0  0  0  0  0
   -0.3583    0.9422    0.6207 C   0  0  1  0  0  0  0  0  0  0  0  0
    1.2099    0.7411    0.7738 C   0  0  2  0  0  0  0  0  0  0  0  0
    2.1221    1.5529   -0.0371 N   0  0  0  0  0  0  0  0  0  0  0  0
    2.0987    3.0124   -0.1141 C   0  0  0  0  0  0  0  0  0  0  0  0
    3.3293    0.7796   -0.0916 C   0  0  0  0  0  0  0  0  0  0  0  0
    4.5880    1.2232   -0.5091 C   0  0  0  0  0  0  0  0  0  0  0  0
    5.6605    0.3172   -0.4830 C   0  0  0  0  0  0  0  0  0  0  0  0
    5.4617   -1.0113   -0.0600 C   0  0  0  0  0  0  0  0  0  0  0  0
    4.1895   -1.4453    0.3449 C   0  0  0  0  0  0  0  0  0  0  0  0
    3.1450   -0.5180    0.3588 C   0  0  0  0  0  0  0  0  0  0  0  0
    1.6771   -0.7254    0.5357 C   0  0  2  0  0  0  0  0  0  0  0  0
    1.0975   -1.2500   -0.7612 C   0  0  0  0  0  0  0  0  0  0  0  0
   -0.3824   -1.2646   -0.4302 C   0  0  1  0  0  0  0  0  0  0  0  0
   -0.4135   -1.8085    1.0477 C   0  0  0  0  0  0  0  0  0  0  0  0
    1.0498   -1.6469    1.5953 C   0  0  1  0  0  0  0  0  0  0  0  0
    1.7265   -2.8786    1.7040 O   0  0  0  0  0  0  0  0  0  0  0  0
   -0.4216    3.4895   -1.7262 H   0  0  0  0  0  0  0  0  0  0  0  0
   -1.9431    3.2516   -0.7708 H   0  0  0  0  0  0  0  0  0  0  0  0
   -2.0164    3.9628   -2.4054 H   0  0  0  0  0  0  0  0  0  0  0  0
   -2.7189    1.5112   -2.4391 H   0  0  0  0  0  0  0  0  0  0  0  0
   -1.3905    1.9533   -3.4919 H   0  0  0  0  0  0  0  0  0  0  0  0
   -0.7160   -0.0708   -2.6267 H   0  0  0  0  0  0  0  0  0  0  0  0
    0.3090    1.1783   -1.8880 H   0  0  0  0  0  0  0  0  0  0  0  0
   -2.9075   -0.5770   -1.1698 H   0  0  0  0  0  0  0  0  0  0  0  0
   -4.0825    1.0343   -0.2845 H   0  0  0  0  0  0  0  0  0  0  0  0
   -3.5179   -0.3743    1.6502 H   0  0  0  0  0  0  0  0  0  0  0  0
   -3.3190   -2.9310    1.6346 H   0  0  0  0  0  0  0  0  0  0  0  0
   -2.8208   -2.8197   -0.0857 H   0  0  0  0  0  0  0  0  0  0  0  0
   -5.2453   -3.2310    0.1203 H   0  0  0  0  0  0  0  0  0  0  0  0
   -5.4506   -1.7474    1.1224 H   0  0  0  0  0  0  0  0  0  0  0  0
   -4.9667   -1.6114   -0.6162 H   0  0  0  0  0  0  0  0  0  0  0  0
   -1.6539   -1.4212    2.8409 H   0  0  0  0  0  0  0  0  0  0  0  0
   -1.8508    1.1613    2.2292 H   0  0  0  0  0  0  0  0  0  0  0  0
   -0.3238    0.6000    2.8610 H   0  0  0  0  0  0  0  0  0  0  0  0
   -0.5734    2.0176    0.4962 H   0  0  0  0  0  0  0  0  0  0  0  0
    1.4827    1.0136    1.8207 H   0  0  0  0  0  0  0  0  0  0  0  0
    1.1656    3.4214    0.3201 H   0  0  0  0  0  0  0  0  0  0  0  0
    2.9527    3.4376    0.4540 H   0  0  0  0  0  0  0  0  0  0  0  0
    2.1713    3.3261   -1.1758 H   0  0  0  0  0  0  0  0  0  0  0  0
    4.7389    2.2383   -0.8514 H   0  0  0  0  0  0  0  0  0  0  0  0
    6.6433    0.6385   -0.8024 H   0  0  0  0  0  0  0  0  0  0  0  0
    6.2901   -1.7076   -0.0672 H   0  0  0  0  0  0  0  0  0  0  0  0
    4.0275   -2.4781    0.6191 H   0  0  0  0  0  0  0  0  0  0  0  0
    1.4512   -2.2820   -0.9764 H   0  0  0  0  0  0  0  0  0  0  0  0
    1.3918   -0.6590   -1.6491 H   0  0  0  0  0  0  0  0  0  0  0  0
   -0.8999   -1.9633   -1.1269 H   0  0  0  0  0  0  0  0  0  0  0  0
   -0.7052   -2.8815    1.0591 H   0  0  0  0  0  0  0  0  0  0  0  0
    1.0719   -1.1815    2.6028 H   0  0  0  0  0  0  0  0  0  0  0  0
    1.5245   -3.4351    0.9095 H   0  0  0  0  0  0  0  0  0  0  0  0
  1  2  1  0
  2  3  1  0
  3  4  1  0
  4  5  1  0
  5  6  1  0
  5  7  1  0
  7  8  1  0
  8  9  1  0
  7 10  1  0
 10 11  1  0
 12 11  1  0
 12  4  1  0
 12 13  1  0
 13 14  1  0
 14 15  1  0
 14 16  1  0
 16 17  2  0
 17 18  1  0
 18 19  2  0
 19 20  1  0
 20 21  2  0
 21 16  1  0
 22 21  1  6
 22 13  1  0
 22 23  1  0
 24 23  1  0
 24  4  1  0
 24 25  1  0
 25 10  1  0
 25 26  1  0
 26 22  1  0
 26 27  1  0
  1 28  1  0
  1 29  1  0
  1 30  1  0
  2 31  1  0
  2 32  1  0
  3 33  1  0
  3 34  1  0
  5 35  1  6
  6 36  1  0
  7 37  1  1
  8 38  1  0
  8 39  1  0
  9 40  1  0
  9 41  1  0
  9 42  1  0
 10 43  1  1
 11 44  1  0
 11 45  1  0
 12 46  1  6
 13 47  1  1
 15 48  1  0
 15 49  1  0
 15 50  1  0
 17 51  1  0
 18 52  1  0
 19 53  1  0
 20 54  1  0
 23 55  1  0
 23 56  1  0
 24 57  1  6
 25 58  1  0
 26 59  1  1
 27 60  1  0
M  CHG  1   4   1
M  END
> <ID>
HT1717

> <Class>
1.0

> <Clusters>
262

> <Fold>
3

$$$$