
     RDKit          3D

 29 30  0  0  0  0  0  0  0  0999 V2000
    1.2138    2.7766    0.7929 C   0  0  0  0  0  0  0  0  0  0  0  0
    0.7703    2.2575   -0.5721 C   0  0  0  0  0  0  0  0  0  0  0  0
   -0.1553    1.1203   -0.4202 N   0  0  0  0  0  0  0  0  0  0  0  0
   -1.4985    1.3433   -0.5491 C   0  0  0  0  0  0  0  0  0  0  0  0
   -2.4334    0.3023   -0.4109 C   0  0  0  0  0  0  0  0  0  0  0  0
   -3.8856    0.5950   -0.5574 C   0  0  0  0  0  0  0  0  0  0  0  0
   -4.2751    1.7681   -0.8075 O   0  0  0  0  0  0  0  0  0  0  0  0
   -4.8358   -0.4140   -0.4220 O   0  0  0  0  0  0  0  0  0  0  0  0
   -1.9591   -0.9952   -0.1338 C   0  0  0  0  0  0  0  0  0  0  0  0
   -2.7668   -1.9562   -0.0028 O   0  0  0  0  0  0  0  0  0  0  0  0
   -0.5784   -1.2206   -0.0027 C   0  0  0  0  0  0  0  0  0  0  0  0
   -0.0586   -2.4982    0.2724 C   0  0  0  0  0  0  0  0  0  0  0  0
    1.3180   -2.6833    0.3937 C   0  0  0  0  0  0  0  0  0  0  0  0
    2.1749   -1.5899    0.2402 C   0  0  0  0  0  0  0  0  0  0  0  0
    3.6548   -1.7652    0.3616 C   0  0  0  0  0  0  0  0  0  0  0  0
    1.6584   -0.3612   -0.0273 N   0  0  0  0  0  0  0  0  0  0  0  0
    0.3182   -0.1388   -0.1513 C   0  0  0  0  0  0  0  0  0  0  0  0
    1.7587    1.9882    1.3526 H   0  0  0  0  0  0  0  0  0  0  0  0
    1.8886    3.6481    0.6592 H   0  0  0  0  0  0  0  0  0  0  0  0
    0.3287    3.0959    1.3829 H   0  0  0  0  0  0  0  0  0  0  0  0
    1.6576    1.9588   -1.1720 H   0  0  0  0  0  0  0  0  0  0  0  0
    0.2877    3.0927   -1.1269 H   0  0  0  0  0  0  0  0  0  0  0  0
   -1.8535    2.3469   -0.7543 H   0  0  0  0  0  0  0  0  0  0  0  0
   -5.8242   -0.2155   -0.5216 H   0  0  0  0  0  0  0  0  0  0  0  0
   -0.7118   -3.3537    0.3933 H   0  0  0  0  0  0  0  0  0  0  0  0
    1.7134   -3.6693    0.6049 H   0  0  0  0  0  0  0  0  0  0  0  0
    4.1741   -0.7901    0.2462 H   0  0  0  0  0  0  0  0  0  0  0  0
    4.0159   -2.4578   -0.4275 H   0  0  0  0  0  0  0  0  0  0  0  0
    3.9031   -2.1847    1.3593 H   0  0  0  0  0  0  0  0  0  0  0  0
  1  2  1  0
  2  3  1  0
  3  4  1  0
  4  5  2  0
  5  6  1  0
  6  7  2  0
  6  8  1  0
  5  9  1  0
  9 10  2  0
  9 11  1  0
 11 12  2  0
 12 13  1  0
 13 14  2  0
 14 15  1  0
 14 16  1  0
 16 17  2  0
 17  3  1  0
 17 11  1  0
  1 18  1  0
  1 19  1  0
  1 20  1  0
  2 21  1  0
  2 22  1  0
  4 23  1  0
  8 24  1  0
 12 25  1  0
 13 26  1  0
 15 27  1  0
 15 28  1  0
 15 29  1  0
M  END
> <ID>
HT1456

> <Class>
1.0

> <Clusters>
261

> <Fold>
3

$$$$