
     RDKit          3D

 55 58  0  0  0  0  0  0  0  0999 V2000
    5.0866   -0.2812   -1.0570 O   0  0  0  0  0  0  0  0  0  0  0  0
    4.5212   -0.7569    0.1405 C   0  0  2  0  0  0  0  0  0  0  0  0
    3.0981   -0.1930    0.3444 C   0  0  0  0  0  0  0  0  0  0  0  0
    2.1067   -0.6796   -0.7352 C   0  0  2  0  0  0  0  0  0  0  0  0
    2.4811   -0.2351   -2.0177 O   0  0  0  0  0  0  0  0  0  0  0  0
    0.6980   -0.2638   -0.3730 C   0  0  0  0  0  0  0  0  0  0  0  0
   -0.1031    0.4504   -1.1744 C   0  0  0  0  0  0  0  0  0  0  0  0
   -1.4593    0.8686   -0.7447 C   0  0  0  0  0  0  0  0  0  0  0  0
   -1.7848    2.2419   -0.7324 C   0  0  0  0  0  0  0  0  0  0  0  0
   -3.0306    2.6388   -0.3668 N   0  0  0  0  0  0  0  0  0  0  0  0
   -3.9945    1.7644    0.0120 C   0  0  0  0  0  0  0  0  0  0  0  0
   -5.2554    2.2488    0.3790 C   0  0  0  0  0  0  0  0  0  0  0  0
   -6.2671    1.3626    0.7510 C   0  0  0  0  0  0  0  0  0  0  0  0
   -6.0268   -0.0119    0.7515 C   0  0  0  0  0  0  0  0  0  0  0  0
   -4.7720   -0.5078    0.3865 C   0  0  0  0  0  0  0  0  0  0  0  0
   -3.7311    0.3750    0.0223 C   0  0  0  0  0  0  0  0  0  0  0  0
   -2.4441   -0.0789   -0.3606 C   0  0  0  0  0  0  0  0  0  0  0  0
   -2.1371   -1.5300   -0.4073 C   0  0  0  0  0  0  0  0  0  0  0  0
   -2.0078   -2.2648    0.7825 C   0  0  0  0  0  0  0  0  0  0  0  0
   -1.6902   -3.6256    0.7368 C   0  0  0  0  0  0  0  0  0  0  0  0
   -1.4982   -4.2593   -0.4946 C   0  0  0  0  0  0  0  0  0  0  0  0
   -1.1880   -5.5784   -0.5370 F   0  0  0  0  0  0  0  0  0  0  0  0
   -1.6244   -3.5324   -1.6824 C   0  0  0  0  0  0  0  0  0  0  0  0
   -1.9426   -2.1716   -1.6408 C   0  0  0  0  0  0  0  0  0  0  0  0
   -0.7895    3.2919   -1.1559 C   0  0  0  0  0  0  0  0  0  0  0  0
   -0.7079    4.5156   -0.2522 C   0  0  0  0  0  0  0  0  0  0  0  0
    0.3905    3.4696   -0.2091 C   0  0  0  0  0  0  0  0  0  0  0  0
    5.4240   -0.4103    1.3399 C   0  0  0  0  0  0  0  0  0  0  0  0
    6.7940   -0.9940    1.1749 C   0  0  0  0  0  0  0  0  0  0  0  0
    7.7984   -0.2371    1.0967 O   0  0  0  0  0  0  0  0  0  0  0  0
    6.9583   -2.3746    1.1164 O   0  0  0  0  0  0  0  0  0  0  0  0
    5.1537    0.7071   -0.9851 H   0  0  0  0  0  0  0  0  0  0  0  0
    4.4477   -1.8649    0.0728 H   0  0  0  0  0  0  0  0  0  0  0  0
    3.1271    0.9194    0.3593 H   0  0  0  0  0  0  0  0  0  0  0  0
    2.7277   -0.5281    1.3391 H   0  0  0  0  0  0  0  0  0  0  0  0
    2.1191   -1.7907   -0.7441 H   0  0  0  0  0  0  0  0  0  0  0  0
    2.6036    0.7497   -1.9729 H   0  0  0  0  0  0  0  0  0  0  0  0
    0.3299   -0.5685    0.5996 H   0  0  0  0  0  0  0  0  0  0  0  0
    0.2545    0.8174   -2.1271 H   0  0  0  0  0  0  0  0  0  0  0  0
   -5.4541    3.3136    0.3726 H   0  0  0  0  0  0  0  0  0  0  0  0
   -7.2411    1.7412    1.0331 H   0  0  0  0  0  0  0  0  0  0  0  0
   -6.8169   -0.6966    1.0319 H   0  0  0  0  0  0  0  0  0  0  0  0
   -4.6318   -1.5801    0.3860 H   0  0  0  0  0  0  0  0  0  0  0  0
   -2.1458   -1.7808    1.7416 H   0  0  0  0  0  0  0  0  0  0  0  0
   -1.5901   -4.1872    1.6566 H   0  0  0  0  0  0  0  0  0  0  0  0
   -1.4741   -4.0221   -2.6358 H   0  0  0  0  0  0  0  0  0  0  0  0
   -2.0342   -1.6167   -2.5664 H   0  0  0  0  0  0  0  0  0  0  0  0
   -0.5795    3.4650   -2.2326 H   0  0  0  0  0  0  0  0  0  0  0  0
   -0.4112    5.4529   -0.7683 H   0  0  0  0  0  0  0  0  0  0  0  0
   -1.3548    4.5134    0.6514 H   0  0  0  0  0  0  0  0  0  0  0  0
    1.3334    3.7802   -0.7064 H   0  0  0  0  0  0  0  0  0  0  0  0
    0.3794    2.8422    0.7087 H   0  0  0  0  0  0  0  0  0  0  0  0
    5.4952    0.6945    1.4497 H   0  0  0  0  0  0  0  0  0  0  0  0
    4.9816   -0.8181    2.2742 H   0  0  0  0  0  0  0  0  0  0  0  0
    7.8783   -2.7840    1.0067 H   0  0  0  0  0  0  0  0  0  0  0  0
  2  1  1  0
  2  3  1  0
  3  4  1  0
  4  5  1  0
  4  6  1  0
  6  7  2  0
  7  8  1  0
  8  9  2  0
  9 10  1  0
 10 11  2  0
 11 12  1  0
 12 13  2  0
 13 14  1  0
 14 15  2  0
 15 16  1  0
 16 11  1  0
 16 17  2  0
 17  8  1  0
 17 18  1  0
 18 19  2  0
 19 20  1  0
 20 21  2  0
 21 22  1  0
 21 23  1  0
 23 24  2  0
 24 18  1  0
  9 25  1  0
 25 26  1  0
 26 27  1  0
 27 25  1  0
  2 28  1  0
 28 29  1  0
 29 30  2  0
 29 31  1  0
  1 32  1  0
  2 33  1  6
  3 34  1  0
  3 35  1  0
  4 36  1  6
  5 37  1  0
  6 38  1  0
  7 39  1  0
 12 40  1  0
 13 41  1  0
 14 42  1  0
 15 43  1  0
 19 44  1  0
 20 45  1  0
 23 46  1  0
 24 47  1  0
 25 48  1  0
 26 49  1  0
 26 50  1  0
 27 51  1  0
 27 52  1  0
 28 53  1  0
 28 54  1  0
 31 55  1  0
M  END
> <ID>
HT1698

> <Class>
1.0

> <Clusters>
110

> <Fold>
3

$$$$