
     RDKit          3D

 93 99  0  0  0  0  0  0  0  0999 V2000
   11.5610   -2.3545   -1.0229 C   0  0  0  0  0  0  0  0  0  0  0  0
   11.6871   -2.4110    0.5039 C   0  0  0  0  0  0  0  0  0  0  0  0
   11.4374   -1.0644    1.2382 C   0  0  1  0  0  0  0  0  0  0  0  0
   12.7152   -0.1958    1.4515 C   0  0  2  0  0  0  0  0  0  0  0  0
   13.5084    0.0947    0.1735 C   0  0  0  0  0  0  0  0  0  0  0  0
   13.5720   -0.8240    2.3718 O   0  0  0  0  0  0  0  0  0  0  0  0
   10.3277   -0.3058    0.6368 N   0  0  0  0  0  0  0  0  0  0  0  0
   10.4270    0.8822    0.0560 N   0  0  0  0  0  0  0  0  0  0  0  0
    9.1745    1.2442   -0.2934 C   0  0  0  0  0  0  0  0  0  0  0  0
    8.2671    0.3060    0.0601 N   0  0  0  0  0  0  0  0  0  0  0  0
    9.0233   -0.6402    0.6490 C   0  0  0  0  0  0  0  0  0  0  0  0
    8.5663   -1.6856    1.1870 O   0  0  0  0  0  0  0  0  0  0  0  0
    6.8381    0.3534   -0.1140 C   0  0  0  0  0  0  0  0  0  0  0  0
    6.1610    1.5812   -0.0716 C   0  0  0  0  0  0  0  0  0  0  0  0
    4.7743    1.6334   -0.2317 C   0  0  0  0  0  0  0  0  0  0  0  0
    4.0387    0.4601   -0.4573 C   0  0  0  0  0  0  0  0  0  0  0  0
    4.7151   -0.7685   -0.5164 C   0  0  0  0  0  0  0  0  0  0  0  0
    6.1029   -0.8219   -0.3489 C   0  0  0  0  0  0  0  0  0  0  0  0
    2.6097    0.5164   -0.6294 N   0  0  0  0  0  0  0  0  0  0  0  0
    1.9894    1.5162   -1.5101 C   0  0  0  0  0  0  0  0  0  0  0  0
    0.9572    2.3151   -0.7186 C   0  0  0  0  0  0  0  0  0  0  0  0
    0.0520    1.3845   -0.0320 N   0  0  0  0  0  0  0  0  0  0  0  0
    0.6539    0.3793    0.8536 C   0  0  0  0  0  0  0  0  0  0  0  0
    1.7224   -0.4118    0.0848 C   0  0  0  0  0  0  0  0  0  0  0  0
   -1.3644    1.3881   -0.2906 C   0  0  0  0  0  0  0  0  0  0  0  0
   -1.8483    1.4542   -1.6061 C   0  0  0  0  0  0  0  0  0  0  0  0
   -3.2215    1.4188   -1.8585 C   0  0  0  0  0  0  0  0  0  0  0  0
   -4.1352    1.3051   -0.7944 C   0  0  0  0  0  0  0  0  0  0  0  0
   -5.5184    1.2170   -0.9984 O   0  0  0  0  0  0  0  0  0  0  0  0
   -6.1381    1.0980   -2.2791 C   0  0  0  0  0  0  0  0  0  0  0  0
   -7.6172    0.7094   -2.1391 C   0  0  2  0  0  0  0  0  0  0  0  0
   -8.4562    1.7602   -1.4318 C   0  0  0  0  0  0  0  0  0  0  0  0
   -9.4214    1.0986   -0.6518 O   0  0  0  0  0  0  0  0  0  0  0  0
   -8.8643   -0.1356   -0.2450 C   0  0  2  0  0  0  0  0  0  0  0  0
   -8.1785    0.0715    1.1337 C   0  0  0  0  0  0  0  0  0  0  0  0
   -9.1618    0.3556    2.1769 N   0  0  0  0  0  0  0  0  0  0  0  0
   -9.4354   -0.3989    3.2523 C   0  0  0  0  0  0  0  0  0  0  0  0
  -10.4116    0.1506    3.9992 N   0  0  0  0  0  0  0  0  0  0  0  0
  -10.7027    1.2764    3.3107 C   0  0  0  0  0  0  0  0  0  0  0  0
   -9.9498    1.4134    2.2020 N   0  0  0  0  0  0  0  0  0  0  0  0
   -7.8308   -0.5444   -1.3163 C   0  0  0  0  0  0  0  0  0  0  0  0
   -9.9434   -1.2206   -0.1258 C   0  0  0  0  0  0  0  0  0  0  0  0
   -9.5565   -2.5306    0.2282 C   0  0  0  0  0  0  0  0  0  0  0  0
  -10.5038   -3.5476    0.3603 C   0  0  0  0  0  0  0  0  0  0  0  0
  -11.8527   -3.2805    0.1372 C   0  0  0  0  0  0  0  0  0  0  0  0
  -12.7705   -4.2696    0.2612 F   0  0  0  0  0  0  0  0  0  0  0  0
  -12.2568   -1.9967   -0.2195 C   0  0  0  0  0  0  0  0  0  0  0  0
  -11.3183   -0.9662   -0.3503 C   0  0  0  0  0  0  0  0  0  0  0  0
  -11.7739    0.2682   -0.6897 F   0  0  0  0  0  0  0  0  0  0  0  0
   -3.6533    1.2627    0.5179 C   0  0  0  0  0  0  0  0  0  0  0  0
   -2.2799    1.3031    0.7704 C   0  0  0  0  0  0  0  0  0  0  0  0
   11.7036   -3.3757   -1.4390 H   0  0  0  0  0  0  0  0  0  0  0  0
   10.5511   -2.0058   -1.3345 H   0  0  0  0  0  0  0  0  0  0  0  0
   12.3259   -1.6976   -1.4811 H   0  0  0  0  0  0  0  0  0  0  0  0
   12.6887   -2.8141    0.7717 H   0  0  0  0  0  0  0  0  0  0  0  0
   10.9378   -3.1484    0.8661 H   0  0  0  0  0  0  0  0  0  0  0  0
   11.1073   -1.3367    2.2672 H   0  0  0  0  0  0  0  0  0  0  0  0
   12.4018    0.7896    1.8733 H   0  0  0  0  0  0  0  0  0  0  0  0
   14.0315   -0.8155   -0.1851 H   0  0  0  0  0  0  0  0  0  0  0  0
   12.8571    0.4968   -0.6292 H   0  0  0  0  0  0  0  0  0  0  0  0
   14.2825    0.8612    0.3898 H   0  0  0  0  0  0  0  0  0  0  0  0
   13.1750   -0.6939    3.2726 H   0  0  0  0  0  0  0  0  0  0  0  0
    8.9355    2.1697   -0.7983 H   0  0  0  0  0  0  0  0  0  0  0  0
    6.7025    2.5005    0.1083 H   0  0  0  0  0  0  0  0  0  0  0  0
    4.2768    2.5915   -0.1685 H   0  0  0  0  0  0  0  0  0  0  0  0
    4.1685   -1.6820   -0.7148 H   0  0  0  0  0  0  0  0  0  0  0  0
    6.6015   -1.7797   -0.4284 H   0  0  0  0  0  0  0  0  0  0  0  0
    2.7432    2.2066   -1.9472 H   0  0  0  0  0  0  0  0  0  0  0  0
    1.4830    0.9948   -2.3541 H   0  0  0  0  0  0  0  0  0  0  0  0
    1.4772    2.9448    0.0380 H   0  0  0  0  0  0  0  0  0  0  0  0
    0.4024    3.0014   -1.3940 H   0  0  0  0  0  0  0  0  0  0  0  0
    1.1226    0.8933    1.7228 H   0  0  0  0  0  0  0  0  0  0  0  0
   -0.1114   -0.3296    1.2406 H   0  0  0  0  0  0  0  0  0  0  0  0
    2.2917   -1.0385    0.8069 H   0  0  0  0  0  0  0  0  0  0  0  0
    1.2231   -1.0838   -0.6491 H   0  0  0  0  0  0  0  0  0  0  0  0
   -1.1617    1.5102   -2.4399 H   0  0  0  0  0  0  0  0  0  0  0  0
   -3.5599    1.4660   -2.8851 H   0  0  0  0  0  0  0  0  0  0  0  0
   -6.0519    2.0616   -2.8271 H   0  0  0  0  0  0  0  0  0  0  0  0
   -5.6312    0.3014   -2.8682 H   0  0  0  0  0  0  0  0  0  0  0  0
   -8.0352    0.5507   -3.1597 H   0  0  0  0  0  0  0  0  0  0  0  0
   -8.9665    2.4103   -2.1734 H   0  0  0  0  0  0  0  0  0  0  0  0
   -7.8411    2.4140   -0.7761 H   0  0  0  0  0  0  0  0  0  0  0  0
   -7.5911   -0.8306    1.4156 H   0  0  0  0  0  0  0  0  0  0  0  0
   -7.4538    0.9099    1.0871 H   0  0  0  0  0  0  0  0  0  0  0  0
   -8.9440   -1.3321    3.4888 H   0  0  0  0  0  0  0  0  0  0  0  0
  -11.4623    1.9834    3.6111 H   0  0  0  0  0  0  0  0  0  0  0  0
   -8.2237   -1.3453   -1.9846 H   0  0  0  0  0  0  0  0  0  0  0  0
   -6.8890   -0.9296   -0.8644 H   0  0  0  0  0  0  0  0  0  0  0  0
   -8.5169   -2.7735    0.3992 H   0  0  0  0  0  0  0  0  0  0  0  0
  -10.1884   -4.5439    0.6333 H   0  0  0  0  0  0  0  0  0  0  0  0
  -13.3050   -1.7943   -0.3959 H   0  0  0  0  0  0  0  0  0  0  0  0
   -4.3452    1.1848    1.3469 H   0  0  0  0  0  0  0  0  0  0  0  0
   -1.9288    1.2646    1.7938 H   0  0  0  0  0  0  0  0  0  0  0  0
  1  2  1  0
  3  2  1  0
  3  4  1  0
  4  5  1  0
  4  6  1  0
  3  7  1  0
  7  8  1  0
  8  9  2  0
  9 10  1  0
 10 11  1  0
 11  7  1  0
 11 12  2  0
 10 13  1  0
 13 14  2  0
 14 15  1  0
 15 16  2  0
 16 17  1  0
 17 18  2  0
 18 13  1  0
 16 19  1  0
 19 20  1  0
 20 21  1  0
 21 22  1  0
 22 23  1  0
 23 24  1  0
 24 19  1  0
 22 25  1  0
 25 26  2  0
 26 27  1  0
 27 28  2  0
 28 29  1  0
 29 30  1  0
 31 30  1  0
 31 32  1  0
 32 33  1  0
 33 34  1  0
 34 35  1  1
 35 36  1  0
 36 37  1  0
 37 38  2  0
 38 39  1  0
 39 40  2  0
 40 36  1  0
 34 41  1  0
 41 31  1  0
 34 42  1  0
 42 43  2  0
 43 44  1  0
 44 45  2  0
 45 46  1  0
 45 47  1  0
 47 48  2  0
 48 42  1  0
 48 49  1  0
 28 50  1  0
 50 51  2  0
 51 25  1  0
  1 52  1  0
  1 53  1  0
  1 54  1  0
  2 55  1  0
  2 56  1  0
  3 57  1  1
  4 58  1  1
  5 59  1  0
  5 60  1  0
  5 61  1  0
  6 62  1  0
  9 63  1  0
 14 64  1  0
 15 65  1  0
 17 66  1  0
 18 67  1  0
 20 68  1  0
 20 69  1  0
 21 70  1  0
 21 71  1  0
 23 72  1  0
 23 73  1  0
 24 74  1  0
 24 75  1  0
 26 76  1  0
 27 77  1  0
 30 78  1  0
 30 79  1  0
 31 80  1  6
 32 81  1  0
 32 82  1  0
 35 83  1  0
 35 84  1  0
 37 85  1  0
 39 86  1  0
 41 87  1  0
 41 88  1  0
 43 89  1  0
 44 90  1  0
 47 91  1  0
 50 92  1  0
 51 93  1  0
M  END
> <ID>
HT1713

> <Class>
1.0

> <Clusters>
140

> <Fold>
3

$$$$