
     RDKit          3D

124126  0  0  0  0  0  0  0  0999 V2000
   -4.0594   -1.3810    3.5850 C   0  0  0  0  0  0  0  0  0  0  0  0
   -3.9755   -1.4988    2.0603 C   0  0  0  0  0  0  0  0  0  0  0  0
   -4.3136   -0.1741    1.3186 C   0  0  1  0  0  0  0  0  0  0  0  0
   -3.1432    0.6497    1.2705 O   0  0  0  0  0  0  0  0  0  0  0  0
   -2.4911    1.1777    2.3824 C   0  0  0  0  0  0  0  0  0  0  0  0
   -3.1120    1.9569    3.1550 O   0  0  0  0  0  0  0  0  0  0  0  0
   -1.0807    0.7182    2.6901 C   0  0  2  0  0  0  0  0  0  0  0  0
   -0.4577    1.5329    3.8432 C   0  0  0  0  0  0  0  0  0  0  0  0
   -0.1793    0.6803    1.4010 C   0  0  1  0  0  0  0  0  0  0  0  0
    0.7484    1.7625    1.4058 O   0  0  0  0  0  0  0  0  0  0  0  0
    0.3315    2.8327    0.5754 C   0  0  1  0  0  0  0  0  0  0  0  0
    0.7373    4.1674    1.2306 C   0  0  0  0  0  0  0  0  0  0  0  0
    0.8089    5.3488    0.2054 C   0  0  1  0  0  0  0  0  0  0  0  0
    0.1727    6.6357    0.8161 C   0  0  0  0  0  0  0  0  0  0  0  0
    2.1609    5.5397   -0.2282 O   0  0  0  0  0  0  0  0  0  0  0  0
    2.9650    6.2563    0.6905 C   0  0  0  0  0  0  0  0  0  0  0  0
   -0.0256    4.9649   -1.0549 C   0  0  1  0  0  0  0  0  0  0  0  0
   -0.0072    5.9793   -2.0281 O   0  0  0  0  0  0  0  0  0  0  0  0
    0.4685    3.6090   -1.6466 C   0  0  2  0  0  0  0  0  0  0  0  0
   -0.6159    2.9177   -2.4794 C   0  0  0  0  0  0  0  0  0  0  0  0
    0.9810    2.7045   -0.6758 O   0  0  0  0  0  0  0  0  0  0  0  0
    0.5857   -0.6745    1.2444 C   0  0  2  0  0  0  0  0  0  0  0  0
    1.5505   -0.9226    2.4213 C   0  0  0  0  0  0  0  0  0  0  0  0
    1.2964   -0.7848   -0.1680 C   0  0  1  0  0  0  0  0  0  0  0  0
    2.6748   -1.1471   -0.0130 O   0  0  0  0  0  0  0  0  0  0  0  0
    3.5960   -0.2621   -0.6499 C   0  0  2  0  0  0  0  0  0  0  0  0
    4.1554   -0.8787   -1.8061 O   0  0  0  0  0  0  0  0  0  0  0  0
    4.9479   -2.0381   -1.5435 C   0  0  2  0  0  0  0  0  0  0  0  0
    4.2204   -3.3021   -1.9945 C   0  0  0  0  0  0  0  0  0  0  0  0
    5.4698   -2.1770   -0.0962 C   0  0  0  0  0  0  0  0  0  0  0  0
    5.8870   -0.7861    0.4079 C   0  0  1  0  0  0  0  0  0  0  0  0
    4.6873    0.1885    0.3606 C   0  0  1  0  0  0  0  0  0  0  0  0
    5.1558    1.4654    0.0098 O   0  0  0  0  0  0  0  0  0  0  0  0
    6.5168   -0.7878    1.7588 N   0  0  0  0  0  0  0  0  0  0  0  0
    7.9430   -1.1418    1.6973 C   0  0  0  0  0  0  0  0  0  0  0  0
    5.8303   -1.6320    2.7608 C   0  0  0  0  0  0  0  0  0  0  0  0
    0.6149   -1.7874   -1.1763 C   0  0  2  0  0  0  0  0  0  0  0  0
    0.5145   -3.2043   -0.5684 C   0  0  0  0  0  0  0  0  0  0  0  0
    1.4427   -1.8763   -2.3127 O   0  0  0  0  0  0  0  0  0  0  0  0
   -0.8048   -1.2638   -1.5983 C   0  0  0  0  0  0  0  0  0  0  0  0
   -1.5983   -2.0003   -2.7331 C   0  0  1  0  0  0  0  0  0  0  0  0
   -0.7525   -2.5147   -3.9063 C   0  0  0  0  0  0  0  0  0  0  0  0
   -2.5668   -3.0931   -2.2033 C   0  0  0  0  0  0  0  0  0  0  0  0
   -3.9501   -2.5543   -2.1718 N   0  0  0  0  0  0  0  0  0  0  0  0
   -4.6788   -2.8454   -3.4227 C   0  0  0  0  0  0  0  0  0  0  0  0
   -4.7035   -2.8230   -0.9142 C   0  0  2  0  0  0  0  0  0  0  0  0
   -5.4860   -4.1511   -0.9660 C   0  0  0  0  0  0  0  0  0  0  0  0
   -5.6357   -1.6092   -0.5539 C   0  0  1  0  0  0  0  0  0  0  0  0
   -6.5432   -1.9601    0.4630 O   0  0  0  0  0  0  0  0  0  0  0  0
   -4.8613   -0.2873   -0.1696 C   0  0  1  0  0  0  0  0  0  0  0  0
   -5.8275    0.9011   -0.4108 C   0  0  0  0  0  0  0  0  0  0  0  0
   -3.7889   -0.1574   -1.0778 O   0  0  0  0  0  0  0  0  0  0  0  0
   -3.3593   -0.6290    3.9923 H   0  0  0  0  0  0  0  0  0  0  0  0
   -3.7978   -2.3645    4.0424 H   0  0  0  0  0  0  0  0  0  0  0  0
   -5.0915   -1.1144    3.8928 H   0  0  0  0  0  0  0  0  0  0  0  0
   -2.9606   -1.8513    1.7625 H   0  0  0  0  0  0  0  0  0  0  0  0
   -4.6927   -2.3020    1.8281 H   0  0  0  0  0  0  0  0  0  0  0  0
   -5.0861    0.3498    1.9213 H   0  0  0  0  0  0  0  0  0  0  0  0
   -1.2022   -0.3177    3.0731 H   0  0  0  0  0  0  0  0  0  0  0  0
   -1.0480    1.3933    4.7731 H   0  0  0  0  0  0  0  0  0  0  0  0
   -0.4459    2.6164    3.5891 H   0  0  0  0  0  0  0  0  0  0  0  0
    0.5813    1.2072    4.0432 H   0  0  0  0  0  0  0  0  0  0  0  0
   -0.8367    0.7102    0.5028 H   0  0  0  0  0  0  0  0  0  0  0  0
   -0.7836    2.8555    0.4529 H   0  0  0  0  0  0  0  0  0  0  0  0
    1.7169    4.0221    1.7310 H   0  0  0  0  0  0  0  0  0  0  0  0
   -0.0024    4.3906    2.0368 H   0  0  0  0  0  0  0  0  0  0  0  0
    0.3178    7.5023    0.1356 H   0  0  0  0  0  0  0  0  0  0  0  0
   -0.9207    6.4935    0.9756 H   0  0  0  0  0  0  0  0  0  0  0  0
    0.6134    6.8772    1.8085 H   0  0  0  0  0  0  0  0  0  0  0  0
    2.8129    5.9491    1.7509 H   0  0  0  0  0  0  0  0  0  0  0  0
    2.7922    7.3444    0.5840 H   0  0  0  0  0  0  0  0  0  0  0  0
    4.0294    6.0642    0.4419 H   0  0  0  0  0  0  0  0  0  0  0  0
   -1.0881    4.8383   -0.7391 H   0  0  0  0  0  0  0  0  0  0  0  0
    0.9336    6.1141   -2.3193 H   0  0  0  0  0  0  0  0  0  0  0  0
    1.3127    3.8292   -2.3394 H   0  0  0  0  0  0  0  0  0  0  0  0
   -0.9826    3.6058   -3.2700 H   0  0  0  0  0  0  0  0  0  0  0  0
   -1.4702    2.6104   -1.8357 H   0  0  0  0  0  0  0  0  0  0  0  0
   -0.1923    2.0062   -2.9612 H   0  0  0  0  0  0  0  0  0  0  0  0
   -0.1823   -1.4656    1.3281 H   0  0  0  0  0  0  0  0  0  0  0  0
    2.2638   -0.0821    2.5301 H   0  0  0  0  0  0  0  0  0  0  0  0
    2.1138   -1.8699    2.2729 H   0  0  0  0  0  0  0  0  0  0  0  0
    0.9945   -1.0434    3.3725 H   0  0  0  0  0  0  0  0  0  0  0  0
    1.1767    0.2071   -0.6458 H   0  0  0  0  0  0  0  0  0  0  0  0
    3.1206    0.6762   -1.0120 H   0  0  0  0  0  0  0  0  0  0  0  0
    5.8462   -1.9498   -2.1913 H   0  0  0  0  0  0  0  0  0  0  0  0
    3.8626   -3.1773   -3.0396 H   0  0  0  0  0  0  0  0  0  0  0  0
    3.3543   -3.5097   -1.3396 H   0  0  0  0  0  0  0  0  0  0  0  0
    4.9112   -4.1733   -1.9550 H   0  0  0  0  0  0  0  0  0  0  0  0
    4.6763   -2.6061    0.5558 H   0  0  0  0  0  0  0  0  0  0  0  0
    6.3357   -2.8717   -0.0835 H   0  0  0  0  0  0  0  0  0  0  0  0
    6.6302   -0.4026   -0.3300 H   0  0  0  0  0  0  0  0  0  0  0  0
    4.2184    0.2464    1.3675 H   0  0  0  0  0  0  0  0  0  0  0  0
    4.5163    2.1258    0.3814 H   0  0  0  0  0  0  0  0  0  0  0  0
    8.4816   -0.4618    1.0100 H   0  0  0  0  0  0  0  0  0  0  0  0
    8.4101   -1.0289    2.6992 H   0  0  0  0  0  0  0  0  0  0  0  0
    8.0799   -2.1924    1.3559 H   0  0  0  0  0  0  0  0  0  0  0  0
    6.2240   -1.4055    3.7738 H   0  0  0  0  0  0  0  0  0  0  0  0
    5.9923   -2.7107    2.5604 H   0  0  0  0  0  0  0  0  0  0  0  0
    4.7394   -1.4301    2.7876 H   0  0  0  0  0  0  0  0  0  0  0  0
    1.4583   -3.4876   -0.0618 H   0  0  0  0  0  0  0  0  0  0  0  0
   -0.3081   -3.2944    0.1704 H   0  0  0  0  0  0  0  0  0  0  0  0
    0.3208   -3.9548   -1.3668 H   0  0  0  0  0  0  0  0  0  0  0  0
    1.5072   -0.9692   -2.7095 H   0  0  0  0  0  0  0  0  0  0  0  0
   -0.6908   -0.2090   -1.9218 H   0  0  0  0  0  0  0  0  0  0  0  0
   -1.4517   -1.2238   -0.6962 H   0  0  0  0  0  0  0  0  0  0  0  0
   -2.2330   -1.2029   -3.1916 H   0  0  0  0  0  0  0  0  0  0  0  0
   -0.1126   -3.3675   -3.5961 H   0  0  0  0  0  0  0  0  0  0  0  0
   -0.1331   -1.6947   -4.3253 H   0  0  0  0  0  0  0  0  0  0  0  0
   -1.4231   -2.8720   -4.7216 H   0  0  0  0  0  0  0  0  0  0  0  0
   -2.5214   -4.0110   -2.8398 H   0  0  0  0  0  0  0  0  0  0  0  0
   -2.2278   -3.4375   -1.2012 H   0  0  0  0  0  0  0  0  0  0  0  0
   -4.7928   -3.9422   -3.5797 H   0  0  0  0  0  0  0  0  0  0  0  0
   -4.1256   -2.4281   -4.2876 H   0  0  0  0  0  0  0  0  0  0  0  0
   -5.6830   -2.3778   -3.4209 H   0  0  0  0  0  0  0  0  0  0  0  0
   -3.9807   -2.9474   -0.0911 H   0  0  0  0  0  0  0  0  0  0  0  0
   -4.8273   -4.9719   -1.3283 H   0  0  0  0  0  0  0  0  0  0  0  0
   -5.8437   -4.4265    0.0548 H   0  0  0  0  0  0  0  0  0  0  0  0
   -6.3736   -4.0640   -1.6335 H   0  0  0  0  0  0  0  0  0  0  0  0
   -6.2185   -1.4065   -1.4824 H   0  0  0  0  0  0  0  0  0  0  0  0
   -7.3901   -1.4643    0.2944 H   0  0  0  0  0  0  0  0  0  0  0  0
   -6.7249    0.8165    0.2310 H   0  0  0  0  0  0  0  0  0  0  0  0
   -6.1513    0.9424   -1.4710 H   0  0  0  0  0  0  0  0  0  0  0  0
   -5.3308    1.8635   -0.1721 H   0  0  0  0  0  0  0  0  0  0  0  0
   -3.4623    0.7821   -1.1081 H   0  0  0  0  0  0  0  0  0  0  0  0
  1  2  1  0
  3  2  1  0
  3  4  1  0
  4  5  1  0
  5  6  2  0
  5  7  1  0
  7  8  1  0
  7  9  1  0
  9 10  1  0
 11 10  1  0
 11 12  1  0
 12 13  1  0
 13 14  1  0
 13 15  1  6
 15 16  1  0
 13 17  1  0
 17 18  1  0
 17 19  1  0
 19 20  1  0
 19 21  1  0
 21 11  1  0
  9 22  1  0
 22 23  1  0
 22 24  1  0
 24 25  1  0
 26 25  1  0
 26 27  1  0
 27 28  1  0
 28 29  1  0
 28 30  1  0
 30 31  1  0
 31 32  1  0
 32 26  1  0
 32 33  1  0
 31 34  1  0
 34 35  1  0
 34 36  1  0
 24 37  1  0
 37 38  1  0
 37 39  1  6
 37 40  1  0
 40 41  1  0
 41 42  1  0
 41 43  1  0
 43 44  1  0
 44 45  1  0
 44 46  1  0
 46 47  1  0
 46 48  1  0
 48 49  1  0
 48 50  1  0
 50  3  1  0
 50 51  1  0
 50 52  1  6
  1 53  1  0
  1 54  1  0
  1 55  1  0
  2 56  1  0
  2 57  1  0
  3 58  1  1
  7 59  1  1
  8 60  1  0
  8 61  1  0
  8 62  1  0
  9 63  1  6
 11 64  1  6
 12 65  1  0
 12 66  1  0
 14 67  1  0
 14 68  1  0
 14 69  1  0
 16 70  1  0
 16 71  1  0
 16 72  1  0
 17 73  1  1
 18 74  1  0
 19 75  1  6
 20 76  1  0
 20 77  1  0
 20 78  1  0
 22 79  1  6
 23 80  1  0
 23 81  1  0
 23 82  1  0
 24 83  1  6
 26 84  1  6
 28 85  1  6
 29 86  1  0
 29 87  1  0
 29 88  1  0
 30 89  1  0
 30 90  1  0
 31 91  1  6
 32 92  1  1
 33 93  1  0
 35 94  1  0
 35 95  1  0
 35 96  1  0
 36 97  1  0
 36 98  1  0
 36 99  1  0
 38100  1  0
 38101  1  0
 38102  1  0
 39103  1  0
 40104  1  0
 40105  1  0
 41106  1  6
 42107  1  0
 42108  1  0
 42109  1  0
 43110  1  0
 43111  1  0
 45112  1  0
 45113  1  0
 45114  1  0
 46115  1  1
 47116  1  0
 47117  1  0
 47118  1  0
 48119  1  6
 49120  1  0
 51121  1  0
 51122  1  0
 51123  1  0
 52124  1  0
M  END
> <ID>
HT0218

> <Class>
1.0

> <Clusters>
95

> <Fold>
3

$$$$