
     RDKit          3D

 93 98  0  0  0  0  0  0  0  0999 V2000
   -3.3814    7.1256    1.4602 C   0  0  0  0  0  0  0  0  0  0  0  0
   -3.8366    6.1071    0.5796 O   0  0  0  0  0  0  0  0  0  0  0  0
   -3.2650    4.8321    0.5408 C   0  0  0  0  0  0  0  0  0  0  0  0
   -2.3343    4.5174    1.3345 O   0  0  0  0  0  0  0  0  0  0  0  0
   -3.7625    3.8352   -0.4589 C   0  0  0  0  0  0  0  0  0  0  0  0
   -2.6972    3.4978   -1.5115 C   0  0  0  0  0  0  0  0  0  0  0  0
   -1.6479    2.5530   -0.9675 C   0  0  0  0  0  0  0  0  0  0  0  0
   -0.3489    2.8653   -0.6231 C   0  0  0  0  0  0  0  0  0  0  0  0
    0.3149    4.2119   -0.7285 C   0  0  0  0  0  0  0  0  0  0  0  0
    0.1975    1.7058   -0.0868 C   0  0  0  0  0  0  0  0  0  0  0  0
    1.4779    1.6273    0.4642 C   0  0  0  0  0  0  0  0  0  0  0  0
    2.1258    0.4655    0.8873 C   0  0  0  0  0  0  0  0  0  0  0  0
    1.5968   -0.7849    0.8309 N   0  0  0  0  0  0  0  0  0  0  0  0
    2.5519   -1.6647    1.2057 C   0  0  0  0  0  0  0  0  0  0  0  0
    2.3809   -3.0461    1.3168 C   0  0  0  0  0  0  0  0  0  0  0  0
    1.1876   -3.7503    1.1217 C   0  0  0  0  0  0  0  0  0  0  0  0
    0.0067   -3.1930    0.7697 N   0  0  0  0  0  0  0  0  0  0  0  0
   -0.8858   -4.2113    0.7600 C   0  0  0  0  0  0  0  0  0  0  0  0
   -2.2266   -4.0889    0.3864 C   0  0  0  0  0  0  0  0  0  0  0  0
   -2.8560   -2.9113   -0.0246 C   0  0  0  0  0  0  0  0  0  0  0  0
   -2.2510   -1.7069   -0.1362 N   0  0  0  0  0  0  0  0  0  0  0  0
   -3.2075   -0.8595   -0.5786 C   0  0  0  0  0  0  0  0  0  0  0  0
   -2.9961    0.4887   -0.8835 C   0  0  0  0  0  0  0  0  0  0  0  0
   -1.8121    1.2030   -0.6705 C   0  0  0  0  0  0  0  0  0  0  0  0
   -0.6858    0.6860   -0.1296 N   0  0  0  0  0  0  0  0  0  0  0  0
   -4.4261   -1.5165   -0.7273 C   0  0  0  0  0  0  0  0  0  0  0  0
   -5.7327   -0.9299   -1.2005 C   0  0  0  0  0  0  0  0  0  0  0  0
   -5.8556   -1.0574   -2.7201 C   0  0  0  0  0  0  0  0  0  0  0  0
   -7.1608   -0.4922   -3.1948 C   0  0  0  0  0  0  0  0  0  0  0  0
   -7.3644    0.7503   -3.1317 O   0  0  0  0  0  0  0  0  0  0  0  0
   -8.1540   -1.3208   -3.7077 O   0  0  0  0  0  0  0  0  0  0  0  0
   -4.1914   -2.8357   -0.3996 C   0  0  0  0  0  0  0  0  0  0  0  0
   -5.1850   -3.9635   -0.4176 C   0  0  0  0  0  0  0  0  0  0  0  0
   -0.2772   -5.4105    1.1212 C   0  0  0  0  0  0  0  0  0  0  0  0
   -0.9009   -6.7416    1.2990 C   0  0  0  0  0  0  0  0  0  0  0  0
   -2.0055   -6.9152    2.0213 C   0  0  0  0  0  0  0  0  0  0  0  0
    1.0552   -5.1208    1.3130 C   0  0  0  0  0  0  0  0  0  0  0  0
    2.1178   -6.0729    1.7912 C   0  0  0  0  0  0  0  0  0  0  0  0
    3.8106   -0.9733    1.4688 C   0  0  0  0  0  0  0  0  0  0  0  0
    5.0485   -1.4791    1.4425 C   0  0  0  0  0  0  0  0  0  0  0  0
    6.1951   -0.5626    1.2691 C   0  0  0  0  0  0  0  0  0  0  0  0
    6.0116    0.7133    0.8586 C   0  0  0  0  0  0  0  0  0  0  0  0
    4.6053    1.2162    0.5397 C   0  0  1  0  0  0  0  0  0  0  0  0
    4.3484    1.0735   -0.9398 C   0  0  0  0  0  0  0  0  0  0  0  0
    4.3143   -0.0708   -1.4755 O   0  0  0  0  0  0  0  0  0  0  0  0
    4.1533    2.2244   -1.7087 O   0  0  0  0  0  0  0  0  0  0  0  0
    3.9000    2.1801   -3.1101 C   0  0  0  0  0  0  0  0  0  0  0  0
    3.5399    0.4891    1.4283 C   0  0  1  0  0  0  0  0  0  0  0  0
    3.5399    1.0538    2.8654 C   0  0  0  0  0  0  0  0  0  0  0  0
    7.1711    1.6019    0.6149 C   0  0  0  0  0  0  0  0  0  0  0  0
    8.3331    1.2501    0.9710 O   0  0  0  0  0  0  0  0  0  0  0  0
    6.9715    2.8350   -0.0187 O   0  0  0  0  0  0  0  0  0  0  0  0
    8.0310    3.7544   -0.2667 C   0  0  0  0  0  0  0  0  0  0  0  0
   -2.3213    7.3745    1.2361 H   0  0  0  0  0  0  0  0  0  0  0  0
   -3.4815    6.7894    2.5168 H   0  0  0  0  0  0  0  0  0  0  0  0
   -4.0051    8.0304    1.3130 H   0  0  0  0  0  0  0  0  0  0  0  0
   -4.1080    2.9225    0.0710 H   0  0  0  0  0  0  0  0  0  0  0  0
   -4.6408    4.2673   -0.9800 H   0  0  0  0  0  0  0  0  0  0  0  0
   -2.2487    4.4377   -1.8875 H   0  0  0  0  0  0  0  0  0  0  0  0
   -3.1815    3.0223   -2.3902 H   0  0  0  0  0  0  0  0  0  0  0  0
   -0.0933    4.7934   -1.5732 H   0  0  0  0  0  0  0  0  0  0  0  0
    1.3992    4.1022   -0.9266 H   0  0  0  0  0  0  0  0  0  0  0  0
    0.1659    4.7791    0.2121 H   0  0  0  0  0  0  0  0  0  0  0  0
    2.0465    2.5418    0.5502 H   0  0  0  0  0  0  0  0  0  0  0  0
    3.2415   -3.6147    1.6310 H   0  0  0  0  0  0  0  0  0  0  0  0
   -2.8239   -4.9880    0.3859 H   0  0  0  0  0  0  0  0  0  0  0  0
   -3.8204    1.0254   -1.3268 H   0  0  0  0  0  0  0  0  0  0  0  0
   -5.8102    0.1328   -0.8956 H   0  0  0  0  0  0  0  0  0  0  0  0
   -6.5816   -1.4500   -0.7103 H   0  0  0  0  0  0  0  0  0  0  0  0
   -5.0241   -0.5094   -3.2149 H   0  0  0  0  0  0  0  0  0  0  0  0
   -5.7832   -2.1271   -3.0100 H   0  0  0  0  0  0  0  0  0  0  0  0
   -8.0305   -2.3273   -3.7618 H   0  0  0  0  0  0  0  0  0  0  0  0
   -5.4244   -4.2641    0.6239 H   0  0  0  0  0  0  0  0  0  0  0  0
   -6.1240   -3.6773   -0.9323 H   0  0  0  0  0  0  0  0  0  0  0  0
   -4.7598   -4.8315   -0.9615 H   0  0  0  0  0  0  0  0  0  0  0  0
   -0.3908   -7.6139    0.9102 H   0  0  0  0  0  0  0  0  0  0  0  0
   -2.4026   -7.9116    2.1667 H   0  0  0  0  0  0  0  0  0  0  0  0
   -2.5102   -6.0780    2.4902 H   0  0  0  0  0  0  0  0  0  0  0  0
    2.3065   -5.8964    2.8722 H   0  0  0  0  0  0  0  0  0  0  0  0
    3.0580   -5.9190    1.2198 H   0  0  0  0  0  0  0  0  0  0  0  0
    1.8025   -7.1269    1.6454 H   0  0  0  0  0  0  0  0  0  0  0  0
    5.2247   -2.5426    1.4329 H   0  0  0  0  0  0  0  0  0  0  0  0
    7.1902   -0.9589    1.4201 H   0  0  0  0  0  0  0  0  0  0  0  0
    4.5598    2.3038    0.7780 H   0  0  0  0  0  0  0  0  0  0  0  0
    4.7089    1.6240   -3.6238 H   0  0  0  0  0  0  0  0  0  0  0  0
    3.8717    3.2146   -3.5066 H   0  0  0  0  0  0  0  0  0  0  0  0
    2.9199    1.6914   -3.3056 H   0  0  0  0  0  0  0  0  0  0  0  0
    2.8215    0.4970    3.5072 H   0  0  0  0  0  0  0  0  0  0  0  0
    3.2432    2.1265    2.8586 H   0  0  0  0  0  0  0  0  0  0  0  0
    4.5529    0.9693    3.3219 H   0  0  0  0  0  0  0  0  0  0  0  0
    7.6331    4.6279   -0.8272 H   0  0  0  0  0  0  0  0  0  0  0  0
    8.8301    3.2705   -0.8716 H   0  0  0  0  0  0  0  0  0  0  0  0
    8.4517    4.1092    0.6986 H   0  0  0  0  0  0  0  0  0  0  0  0
  1  2  1  0
  2  3  1  0
  3  4  2  0
  3  5  1  0
  5  6  1  0
  6  7  1  0
  7  8  2  0
  8  9  1  0
  8 10  1  0
 10 11  1  0
 11 12  2  0
 12 13  1  0
 13 14  2  0
 14 15  1  0
 15 16  2  0
 16 17  1  0
 17 18  2  0
 18 19  1  0
 19 20  2  0
 20 21  1  0
 21 22  2  0
 22 23  1  0
 23 24  2  0
 24  7  1  0
 24 25  1  0
 25 10  2  0
 22 26  1  0
 26 27  1  0
 27 28  1  0
 28 29  1  0
 29 30  2  0
 29 31  1  0
 26 32  2  0
 32 20  1  0
 32 33  1  0
 18 34  1  0
 34 35  1  0
 35 36  2  3
 34 37  2  0
 37 16  1  0
 37 38  1  0
 14 39  1  0
 39 40  2  0
 40 41  1  0
 41 42  2  0
 42 43  1  0
 43 44  1  0
 44 45  2  0
 44 46  1  0
 46 47  1  0
 43 48  1  0
 48 12  1  0
 48 39  1  0
 48 49  1  1
 42 50  1  0
 50 51  2  0
 50 52  1  0
 52 53  1  0
  1 54  1  0
  1 55  1  0
  1 56  1  0
  5 57  1  0
  5 58  1  0
  6 59  1  0
  6 60  1  0
  9 61  1  0
  9 62  1  0
  9 63  1  0
 11 64  1  0
 15 65  1  0
 19 66  1  0
 23 67  1  0
 27 68  1  0
 27 69  1  0
 28 70  1  0
 28 71  1  0
 31 72  1  0
 33 73  1  0
 33 74  1  0
 33 75  1  0
 35 76  1  0
 36 77  1  0
 36 78  1  0
 38 79  1  0
 38 80  1  0
 38 81  1  0
 40 82  1  0
 41 83  1  0
 43 84  1  1
 47 85  1  0
 47 86  1  0
 47 87  1  0
 49 88  1  0
 49 89  1  0
 49 90  1  0
 53 91  1  0
 53 92  1  0
 53 93  1  0
M  END
> <ID>
HT2175

> <Class>
1.0

> <Clusters>
280

> <Fold>
3

$$$$