
     RDKit          3D

 39 40  0  0  0  0  0  0  0  0999 V2000
   -1.5430   -1.2569    3.4405 C   0  0  0  0  0  0  0  0  0  0  0  0
   -2.2486   -0.9342    2.2463 O   0  0  0  0  0  0  0  0  0  0  0  0
   -1.7160   -0.1898    1.1806 C   0  0  0  0  0  0  0  0  0  0  0  0
   -0.4057    0.3163    1.2134 C   0  0  0  0  0  0  0  0  0  0  0  0
    0.1068    1.0434    0.1330 C   0  0  0  0  0  0  0  0  0  0  0  0
    1.5137    1.5893    0.1857 C   0  0  0  0  0  0  0  0  0  0  0  0
    2.5292    0.4827    0.3670 C   0  0  0  0  0  0  0  0  0  0  0  0
    3.1625    0.3234    1.6089 C   0  0  0  0  0  0  0  0  0  0  0  0
    4.0546   -0.6805    1.8014 N   0  0  0  0  0  0  0  0  0  0  0  0
    4.3562   -1.5484    0.8032 C   0  0  0  0  0  0  0  0  0  0  0  0
    5.2957   -2.5968    1.0284 N   0  0  0  0  0  0  0  0  0  0  0  0
    3.7633   -1.4162   -0.4107 N   0  0  0  0  0  0  0  0  0  0  0  0
    2.8627   -0.4287   -0.6607 C   0  0  0  0  0  0  0  0  0  0  0  0
    2.2877   -0.3419   -1.9684 N   0  0  0  0  0  0  0  0  0  0  0  0
   -0.7120    1.2936   -0.9747 C   0  0  0  0  0  0  0  0  0  0  0  0
   -2.0289    0.7965   -1.0312 C   0  0  0  0  0  0  0  0  0  0  0  0
   -2.8414    1.0391   -2.1503 O   0  0  0  0  0  0  0  0  0  0  0  0
   -2.4450    1.7699   -3.3067 C   0  0  0  0  0  0  0  0  0  0  0  0
   -2.5322    0.0433    0.0613 C   0  0  0  0  0  0  0  0  0  0  0  0
   -3.8307   -0.5006    0.1033 O   0  0  0  0  0  0  0  0  0  0  0  0
   -4.8269   -0.4002   -0.9083 C   0  0  0  0  0  0  0  0  0  0  0  0
   -1.2505   -0.3281    3.9742 H   0  0  0  0  0  0  0  0  0  0  0  0
   -2.2042   -1.8530    4.1021 H   0  0  0  0  0  0  0  0  0  0  0  0
   -0.6423   -1.8606    3.2006 H   0  0  0  0  0  0  0  0  0  0  0  0
    0.2245    0.1470    2.0760 H   0  0  0  0  0  0  0  0  0  0  0  0
    1.5672    2.3083    1.0322 H   0  0  0  0  0  0  0  0  0  0  0  0
    1.7648    2.1763   -0.7236 H   0  0  0  0  0  0  0  0  0  0  0  0
    2.9397    0.9916    2.4309 H   0  0  0  0  0  0  0  0  0  0  0  0
    5.7555   -2.7036    1.9597 H   0  0  0  0  0  0  0  0  0  0  0  0
    5.5323   -3.2676    0.2641 H   0  0  0  0  0  0  0  0  0  0  0  0
    1.6482    0.4302   -2.2510 H   0  0  0  0  0  0  0  0  0  0  0  0
    2.5374   -1.0526   -2.6914 H   0  0  0  0  0  0  0  0  0  0  0  0
   -0.3153    1.8786   -1.7929 H   0  0  0  0  0  0  0  0  0  0  0  0
   -2.1877    2.8140   -3.0295 H   0  0  0  0  0  0  0  0  0  0  0  0
   -1.5775    1.2755   -3.7927 H   0  0  0  0  0  0  0  0  0  0  0  0
   -3.2886    1.7926   -4.0264 H   0  0  0  0  0  0  0  0  0  0  0  0
   -4.4714   -0.8745   -1.8471 H   0  0  0  0  0  0  0  0  0  0  0  0
   -5.0991    0.6629   -1.0763 H   0  0  0  0  0  0  0  0  0  0  0  0
   -5.7352   -0.9401   -0.5709 H   0  0  0  0  0  0  0  0  0  0  0  0
  1  2  1  0
  2  3  1  0
  3  4  2  0
  4  5  1  0
  5  6  1  0
  6  7  1  0
  7  8  2  0
  8  9  1  0
  9 10  2  0
 10 11  1  0
 10 12  1  0
 12 13  2  0
 13  7  1  0
 13 14  1  0
  5 15  2  0
 15 16  1  0
 16 17  1  0
 17 18  1  0
 16 19  2  0
 19  3  1  0
 19 20  1  0
 20 21  1  0
  1 22  1  0
  1 23  1  0
  1 24  1  0
  4 25  1  0
  6 26  1  0
  6 27  1  0
  8 28  1  0
 11 29  1  0
 11 30  1  0
 14 31  1  0
 14 32  1  0
 15 33  1  0
 18 34  1  0
 18 35  1  0
 18 36  1  0
 21 37  1  0
 21 38  1  0
 21 39  1  0
M  END
> <ID>
HT2128

> <Class>
1.0

> <Clusters>
160

> <Fold>
3

$$$$