
     RDKit          3D

 39 42  0  0  0  0  0  0  0  0999 V2000
   -3.1107   -2.8272   -0.8262 C   0  0  0  0  0  0  0  0  0  0  0  0
   -2.3593   -1.5633   -0.8288 N   0  0  0  0  0  0  0  0  0  0  0  0
   -3.2935   -0.4157   -0.8250 C   0  0  0  0  0  0  0  0  0  0  0  0
   -2.5279    0.9107   -0.9866 C   0  0  0  0  0  0  0  0  0  0  0  0
   -1.2744    0.9088   -0.1619 C   0  0  0  0  0  0  0  0  0  0  0  0
   -0.7641   -0.1813    0.4051 C   0  0  0  0  0  0  0  0  0  0  0  0
   -1.4636   -1.5080    0.3478 C   0  0  0  0  0  0  0  0  0  0  0  0
    0.5099    0.1175    1.1590 C   0  0  0  0  0  0  0  0  0  0  0  0
    1.6819   -0.6747    0.6219 C   0  0  0  0  0  0  0  0  0  0  0  0
    2.0408   -0.6113   -0.7391 C   0  0  0  0  0  0  0  0  0  0  0  0
    3.1246   -1.3521   -1.2190 C   0  0  0  0  0  0  0  0  0  0  0  0
    3.8597   -2.1613   -0.3494 C   0  0  0  0  0  0  0  0  0  0  0  0
    3.5122   -2.2312    1.0019 C   0  0  0  0  0  0  0  0  0  0  0  0
    2.4288   -1.4923    1.4872 C   0  0  0  0  0  0  0  0  0  0  0  0
    0.6519    1.5842    0.8824 C   0  0  0  0  0  0  0  0  0  0  0  0
    1.6510    2.4599    1.3125 C   0  0  0  0  0  0  0  0  0  0  0  0
    1.5724    3.8078    0.9234 C   0  0  0  0  0  0  0  0  0  0  0  0
    0.5034    4.2567    0.1217 C   0  0  0  0  0  0  0  0  0  0  0  0
   -0.4959    3.3616   -0.2947 C   0  0  0  0  0  0  0  0  0  0  0  0
   -0.3937    2.0288    0.1042 C   0  0  0  0  0  0  0  0  0  0  0  0
   -2.4093   -3.6893   -0.8373 H   0  0  0  0  0  0  0  0  0  0  0  0
   -3.7360   -2.9004   -1.7418 H   0  0  0  0  0  0  0  0  0  0  0  0
   -3.7677   -2.9053    0.0689 H   0  0  0  0  0  0  0  0  0  0  0  0
   -4.0155   -0.5031   -1.6670 H   0  0  0  0  0  0  0  0  0  0  0  0
   -3.8767   -0.3913    0.1245 H   0  0  0  0  0  0  0  0  0  0  0  0
   -2.2517    1.0591   -2.0524 H   0  0  0  0  0  0  0  0  0  0  0  0
   -3.1814    1.7510   -0.6690 H   0  0  0  0  0  0  0  0  0  0  0  0
   -2.0353   -1.6493    1.2927 H   0  0  0  0  0  0  0  0  0  0  0  0
   -0.6986   -2.3109    0.2726 H   0  0  0  0  0  0  0  0  0  0  0  0
    0.3539   -0.0474    2.2475 H   0  0  0  0  0  0  0  0  0  0  0  0
    1.4810    0.0106   -1.4265 H   0  0  0  0  0  0  0  0  0  0  0  0
    3.3945   -1.2988   -2.2658 H   0  0  0  0  0  0  0  0  0  0  0  0
    4.6987   -2.7343   -0.7227 H   0  0  0  0  0  0  0  0  0  0  0  0
    4.0827   -2.8587    1.6744 H   0  0  0  0  0  0  0  0  0  0  0  0
    2.1736   -1.5592    2.5374 H   0  0  0  0  0  0  0  0  0  0  0  0
    2.4689    2.1080    1.9276 H   0  0  0  0  0  0  0  0  0  0  0  0
    2.3367    4.5049    1.2414 H   0  0  0  0  0  0  0  0  0  0  0  0
    0.4507    5.2968   -0.1726 H   0  0  0  0  0  0  0  0  0  0  0  0
   -1.3221    3.6996   -0.9065 H   0  0  0  0  0  0  0  0  0  0  0  0
  1  2  1  0
  2  3  1  0
  3  4  1  0
  4  5  1  0
  5  6  2  0
  6  7  1  0
  7  2  1  0
  6  8  1  0
  8  9  1  0
  9 10  2  0
 10 11  1  0
 11 12  2  0
 12 13  1  0
 13 14  2  0
 14  9  1  0
  8 15  1  0
 15 16  2  0
 16 17  1  0
 17 18  2  0
 18 19  1  0
 19 20  2  0
 20  5  1  0
 20 15  1  0
  1 21  1  0
  1 22  1  0
  1 23  1  0
  3 24  1  0
  3 25  1  0
  4 26  1  0
  4 27  1  0
  7 28  1  0
  7 29  1  0
  8 30  1  0
 10 31  1  0
 11 32  1  0
 12 33  1  0
 13 34  1  0
 14 35  1  0
 16 36  1  0
 17 37  1  0
 18 38  1  0
 19 39  1  0
M  END
> <ID>
HT1647

> <Class>
1.0

> <Clusters>
192

> <Fold>
3

$$$$