
     RDKit          3D

 76 79  0  0  0  0  0  0  0  0999 V2000
    0.2425    2.4063   -2.2174 C   0  0  0  0  0  0  0  0  0  0  0  0
   -0.9030    1.3964   -2.1987 C   0  0  0  0  0  0  0  0  0  0  0  0
   -1.1409    0.7581   -3.5722 C   0  0  0  0  0  0  0  0  0  0  0  0
   -0.7893    0.3413   -1.0983 C   0  0  0  0  0  0  0  0  0  0  0  0
   -1.8050    0.0667   -0.1799 C   0  0  0  0  0  0  0  0  0  0  0  0
   -3.0782    0.7966   -0.0072 C   0  0  0  0  0  0  0  0  0  0  0  0
   -4.1523    0.1493    0.1172 O   0  0  0  0  0  0  0  0  0  0  0  0
   -3.0940    2.2280    0.0780 N   0  0  0  0  0  0  0  0  0  0  0  0
   -4.2169    3.0227   -0.3280 C   0  0  0  0  0  0  0  0  0  0  0  0
   -4.4511    4.2608    0.2891 C   0  0  0  0  0  0  0  0  0  0  0  0
   -5.5250    5.0596   -0.1151 C   0  0  0  0  0  0  0  0  0  0  0  0
   -6.3597    4.6391   -1.1546 C   0  0  0  0  0  0  0  0  0  0  0  0
   -6.1188    3.4204   -1.7909 C   0  0  0  0  0  0  0  0  0  0  0  0
   -5.0519    2.6128   -1.3820 C   0  0  0  0  0  0  0  0  0  0  0  0
   -1.4751   -1.1246    0.4412 C   0  0  0  0  0  0  0  0  0  0  0  0
   -2.2796   -1.8381    1.4543 C   0  0  0  0  0  0  0  0  0  0  0  0
   -2.6617   -3.1739    1.2527 C   0  0  0  0  0  0  0  0  0  0  0  0
   -3.4279   -3.8391    2.2157 C   0  0  0  0  0  0  0  0  0  0  0  0
   -3.8120   -3.1794    3.3844 C   0  0  0  0  0  0  0  0  0  0  0  0
   -3.4302   -1.8520    3.5928 C   0  0  0  0  0  0  0  0  0  0  0  0
   -2.6681   -1.1812    2.6320 C   0  0  0  0  0  0  0  0  0  0  0  0
   -0.2668   -1.5308   -0.0958 C   0  0  0  0  0  0  0  0  0  0  0  0
    0.3960   -2.8177    0.2132 C   0  0  0  0  0  0  0  0  0  0  0  0
    0.7433   -3.1434    1.5341 C   0  0  0  0  0  0  0  0  0  0  0  0
    1.3043   -4.3899    1.8285 C   0  0  0  0  0  0  0  0  0  0  0  0
    1.5027   -5.3248    0.8108 C   0  0  0  0  0  0  0  0  0  0  0  0
    2.0238   -6.5416    1.0999 F   0  0  0  0  0  0  0  0  0  0  0  0
    1.1431   -5.0137   -0.5042 C   0  0  0  0  0  0  0  0  0  0  0  0
    0.5891   -3.7660   -0.8029 C   0  0  0  0  0  0  0  0  0  0  0  0
    0.1693   -0.6276   -1.0108 N   0  0  0  0  0  0  0  0  0  0  0  0
    1.5184   -0.6128   -1.6096 C   0  0  0  0  0  0  0  0  0  0  0  0
    2.4887    0.2684   -0.7959 C   0  0  0  0  0  0  0  0  0  0  0  0
    3.0325   -0.4237    0.4630 C   0  0  1  0  0  0  0  0  0  0  0  0
    3.8950   -1.4693    0.0975 O   0  0  0  0  0  0  0  0  0  0  0  0
    3.7254    0.5563    1.4445 C   0  0  0  0  0  0  0  0  0  0  0  0
    4.8932    1.4142    0.9043 C   0  0  2  0  0  0  0  0  0  0  0  0
    4.4150    2.3496   -0.0309 O   0  0  0  0  0  0  0  0  0  0  0  0
    6.0286    0.5722    0.2917 C   0  0  0  0  0  0  0  0  0  0  0  0
    7.2845    1.3794    0.1454 C   0  0  0  0  0  0  0  0  0  0  0  0
    7.7631    1.6073   -0.9979 O   0  0  0  0  0  0  0  0  0  0  0  0
    7.9270    1.8722    1.2760 O   0  0  0  0  0  0  0  0  0  0  0  0
   -0.0421    3.2760   -2.8462 H   0  0  0  0  0  0  0  0  0  0  0  0
    1.1628    1.9773   -2.6528 H   0  0  0  0  0  0  0  0  0  0  0  0
    0.4394    2.7876   -1.1922 H   0  0  0  0  0  0  0  0  0  0  0  0
   -1.8075    2.0054   -2.0154 H   0  0  0  0  0  0  0  0  0  0  0  0
   -0.3926   -0.0240   -3.8202 H   0  0  0  0  0  0  0  0  0  0  0  0
   -2.1383    0.2709   -3.5880 H   0  0  0  0  0  0  0  0  0  0  0  0
   -1.1321    1.5352   -4.3689 H   0  0  0  0  0  0  0  0  0  0  0  0
   -2.2484    2.7113    0.4612 H   0  0  0  0  0  0  0  0  0  0  0  0
   -3.8050    4.6023    1.0862 H   0  0  0  0  0  0  0  0  0  0  0  0
   -5.7086    6.0087    0.3737 H   0  0  0  0  0  0  0  0  0  0  0  0
   -7.1823    5.2656   -1.4772 H   0  0  0  0  0  0  0  0  0  0  0  0
   -6.7510    3.1033   -2.6107 H   0  0  0  0  0  0  0  0  0  0  0  0
   -4.8676    1.6857   -1.9058 H   0  0  0  0  0  0  0  0  0  0  0  0
   -2.3797   -3.6942    0.3474 H   0  0  0  0  0  0  0  0  0  0  0  0
   -3.7256   -4.8656    2.0548 H   0  0  0  0  0  0  0  0  0  0  0  0
   -4.4072   -3.6946    4.1276 H   0  0  0  0  0  0  0  0  0  0  0  0
   -3.7249   -1.3419    4.4972 H   0  0  0  0  0  0  0  0  0  0  0  0
   -2.3730   -0.1546    2.8076 H   0  0  0  0  0  0  0  0  0  0  0  0
    0.5795   -2.4324    2.3323 H   0  0  0  0  0  0  0  0  0  0  0  0
    1.5741   -4.6335    2.8471 H   0  0  0  0  0  0  0  0  0  0  0  0
    1.2794   -5.7438   -1.2903 H   0  0  0  0  0  0  0  0  0  0  0  0
    0.2867   -3.5473   -1.8211 H   0  0  0  0  0  0  0  0  0  0  0  0
    1.9288   -1.6394   -1.6992 H   0  0  0  0  0  0  0  0  0  0  0  0
    1.4746   -0.2378   -2.6489 H   0  0  0  0  0  0  0  0  0  0  0  0
    3.3376    0.5428   -1.4571 H   0  0  0  0  0  0  0  0  0  0  0  0
    1.9778    1.2033   -0.4927 H   0  0  0  0  0  0  0  0  0  0  0  0
    2.1663   -0.8407    1.0156 H   0  0  0  0  0  0  0  0  0  0  0  0
    3.9703   -2.0699    0.8847 H   0  0  0  0  0  0  0  0  0  0  0  0
    2.9550    1.2487    1.8507 H   0  0  0  0  0  0  0  0  0  0  0  0
    4.0970   -0.0311    2.3136 H   0  0  0  0  0  0  0  0  0  0  0  0
    5.2990    1.9591    1.7906 H   0  0  0  0  0  0  0  0  0  0  0  0
    5.0360    3.1219   -0.0137 H   0  0  0  0  0  0  0  0  0  0  0  0
    5.7186    0.1892   -0.7040 H   0  0  0  0  0  0  0  0  0  0  0  0
    6.2541   -0.2977    0.9454 H   0  0  0  0  0  0  0  0  0  0  0  0
    8.7708    2.4260    1.1951 H   0  0  0  0  0  0  0  0  0  0  0  0
  1  2  1  0
  2  3  1  0
  2  4  1  0
  4  5  2  0
  5  6  1  0
  6  7  2  0
  6  8  1  0
  8  9  1  0
  9 10  2  0
 10 11  1  0
 11 12  2  0
 12 13  1  0
 13 14  2  0
 14  9  1  0
  5 15  1  0
 15 16  1  0
 16 17  2  0
 17 18  1  0
 18 19  2  0
 19 20  1  0
 20 21  2  0
 21 16  1  0
 15 22  2  0
 22 23  1  0
 23 24  2  0
 24 25  1  0
 25 26  2  0
 26 27  1  0
 26 28  1  0
 28 29  2  0
 29 23  1  0
 22 30  1  0
 30  4  1  0
 30 31  1  0
 31 32  1  0
 32 33  1  0
 33 34  1  0
 33 35  1  0
 35 36  1  0
 36 37  1  0
 36 38  1  0
 38 39  1  0
 39 40  2  0
 39 41  1  0
  1 42  1  0
  1 43  1  0
  1 44  1  0
  2 45  1  0
  3 46  1  0
  3 47  1  0
  3 48  1  0
  8 49  1  0
 10 50  1  0
 11 51  1  0
 12 52  1  0
 13 53  1  0
 14 54  1  0
 17 55  1  0
 18 56  1  0
 19 57  1  0
 20 58  1  0
 21 59  1  0
 24 60  1  0
 25 61  1  0
 28 62  1  0
 29 63  1  0
 31 64  1  0
 31 65  1  0
 32 66  1  0
 32 67  1  0
 33 68  1  1
 34 69  1  0
 35 70  1  0
 35 71  1  0
 36 72  1  1
 37 73  1  0
 38 74  1  0
 38 75  1  0
 41 76  1  0
M  END
> <ID>
HT0194

> <Class>
1.0

> <Clusters>
110

> <Fold>
3

$$$$