
     RDKit          3D

 52 55  0  0  0  0  0  0  0  0999 V2000
   -4.0151    0.2284   -1.5758 C   0  0  0  0  0  0  0  0  0  0  0  0
   -3.6670   -0.0334   -0.0885 C   0  0  2  0  0  0  0  0  0  0  0  0
   -4.6163   -0.9373    0.4327 O   0  0  0  0  0  0  0  0  0  0  0  0
   -3.6830    1.3041    0.7135 C   0  0  0  0  0  0  0  0  0  0  0  0
   -2.2210    1.7011    0.9852 C   0  0  0  0  0  0  0  0  0  0  0  0
   -1.3981    0.7376    0.1420 C   0  0  1  0  0  0  0  0  0  0  0  0
    0.0895    0.5238    0.5019 C   0  0  2  0  0  0  0  0  0  0  0  0
    0.8483    1.8650    0.5115 C   0  0  0  0  0  0  0  0  0  0  0  0
    2.3387    1.6572    0.7910 C   0  0  0  0  0  0  0  0  0  0  0  0
    2.9672    0.7051   -0.2442 C   0  0  1  0  0  0  0  0  0  0  0  0
    4.4915    0.6082   -0.0375 C   0  0  0  0  0  0  0  0  0  0  0  0
    5.1000   -0.5161   -0.8244 C   0  0  0  0  0  0  0  0  0  0  0  0
    6.3526   -0.5883   -0.9260 O   0  0  0  0  0  0  0  0  0  0  0  0
    4.3130   -1.5334   -1.3728 O   0  0  0  0  0  0  0  0  0  0  0  0
    2.8904   -1.4659   -1.4736 C   0  0  0  0  0  0  0  0  0  0  0  0
    2.2574   -0.6897   -0.2870 C   0  0  1  0  0  0  0  0  0  0  0  0
    2.4942   -1.5016    1.0197 C   0  0  0  0  0  0  0  0  0  0  0  0
    0.7215   -0.4486   -0.5531 C   0  0  1  0  0  0  0  0  0  0  0  0
   -0.1148   -1.7564   -0.7332 C   0  0  0  0  0  0  0  0  0  0  0  0
   -1.6197   -1.4827   -0.9684 C   0  0  0  0  0  0  0  0  0  0  0  0
   -2.2104   -0.5675    0.1356 C   0  0  2  0  0  0  0  0  0  0  0  0
   -2.1612   -1.3229    1.5087 C   0  0  0  0  0  0  0  0  0  0  0  0
   -5.0217    0.6919   -1.6558 H   0  0  0  0  0  0  0  0  0  0  0  0
   -3.2914    0.9137   -2.0614 H   0  0  0  0  0  0  0  0  0  0  0  0
   -4.0486   -0.7277   -2.1395 H   0  0  0  0  0  0  0  0  0  0  0  0
   -5.5043   -0.4924    0.4088 H   0  0  0  0  0  0  0  0  0  0  0  0
   -4.2038    2.1154    0.1584 H   0  0  0  0  0  0  0  0  0  0  0  0
   -4.2091    1.1739    1.6850 H   0  0  0  0  0  0  0  0  0  0  0  0
   -1.9776    1.5817    2.0637 H   0  0  0  0  0  0  0  0  0  0  0  0
   -2.0328    2.7553    0.6860 H   0  0  0  0  0  0  0  0  0  0  0  0
   -1.4001    1.1656   -0.8877 H   0  0  0  0  0  0  0  0  0  0  0  0
    0.1619    0.1048    1.5232 H   0  0  0  0  0  0  0  0  0  0  0  0
    0.4341    2.5265    1.3026 H   0  0  0  0  0  0  0  0  0  0  0  0
    0.7255    2.3835   -0.4654 H   0  0  0  0  0  0  0  0  0  0  0  0
    2.8459    2.6456    0.7393 H   0  0  0  0  0  0  0  0  0  0  0  0
    2.4782    1.2674    1.8220 H   0  0  0  0  0  0  0  0  0  0  0  0
    2.8240    1.1858   -1.2409 H   0  0  0  0  0  0  0  0  0  0  0  0
    4.7327    0.4573    1.0368 H   0  0  0  0  0  0  0  0  0  0  0  0
    4.9596    1.5652   -0.3562 H   0  0  0  0  0  0  0  0  0  0  0  0
    2.5049   -2.5052   -1.5211 H   0  0  0  0  0  0  0  0  0  0  0  0
    2.6327   -0.9695   -2.4345 H   0  0  0  0  0  0  0  0  0  0  0  0
    2.0775   -2.5253    0.9361 H   0  0  0  0  0  0  0  0  0  0  0  0
    3.5753   -1.6277    1.2298 H   0  0  0  0  0  0  0  0  0  0  0  0
    2.0425   -1.0170    1.9057 H   0  0  0  0  0  0  0  0  0  0  0  0
    0.6520    0.0730   -1.5365 H   0  0  0  0  0  0  0  0  0  0  0  0
    0.0034   -2.4324    0.1342 H   0  0  0  0  0  0  0  0  0  0  0  0
    0.2532   -2.3132   -1.6196 H   0  0  0  0  0  0  0  0  0  0  0  0
   -2.1735   -2.4460   -1.0012 H   0  0  0  0  0  0  0  0  0  0  0  0
   -1.7154   -1.0096   -1.9688 H   0  0  0  0  0  0  0  0  0  0  0  0
   -2.7324   -2.2733    1.4410 H   0  0  0  0  0  0  0  0  0  0  0  0
   -2.6089   -0.7207    2.3263 H   0  0  0  0  0  0  0  0  0  0  0  0
   -1.1415   -1.5990    1.8320 H   0  0  0  0  0  0  0  0  0  0  0  0
  1  2  1  0
  2  3  1  1
  2  4  1  0
  4  5  1  0
  6  5  1  0
  6  7  1  0
  7  8  1  0
  8  9  1  0
 10  9  1  0
 10 11  1  0
 11 12  1  0
 12 13  2  0
 12 14  1  0
 14 15  1  0
 15 16  1  0
 16 10  1  0
 16 17  1  1
 16 18  1  0
 18  7  1  0
 18 19  1  0
 19 20  1  0
 20 21  1  0
 21  2  1  0
 21  6  1  0
 21 22  1  1
  1 23  1  0
  1 24  1  0
  1 25  1  0
  3 26  1  0
  4 27  1  0
  4 28  1  0
  5 29  1  0
  5 30  1  0
  6 31  1  6
  7 32  1  1
  8 33  1  0
  8 34  1  0
  9 35  1  0
  9 36  1  0
 10 37  1  6
 11 38  1  0
 11 39  1  0
 15 40  1  0
 15 41  1  0
 17 42  1  0
 17 43  1  0
 17 44  1  0
 18 45  1  6
 19 46  1  0
 19 47  1  0
 20 48  1  0
 20 49  1  0
 22 50  1  0
 22 51  1  0
 22 52  1  0
M  END
> <ID>
HT1553

> <Class>
1.0

> <Clusters>
167

> <Fold>
3

$$$$