
     RDKit          3D

 47 49  0  0  0  0  0  0  0  0999 V2000
    1.1759   -4.4610   -1.7138 C   0  0  0  0  0  0  0  0  0  0  0  0
    1.0600   -2.9504   -1.8950 C   0  0  0  0  0  0  0  0  0  0  0  0
    0.9448   -2.2328   -0.5437 C   0  0  0  0  0  0  0  0  0  0  0  0
    0.7057   -0.7826   -0.7733 N   0  0  0  0  0  0  0  0  0  0  0  0
    1.8798    0.0310   -0.3618 C   0  0  0  0  0  0  0  0  0  0  0  0
    2.0593    0.1449    1.1675 C   0  0  0  0  0  0  0  0  0  0  0  0
    3.2330    1.0192    1.4864 C   0  0  0  0  0  0  0  0  0  0  0  0
    4.5698    0.6885    1.3003 C   0  0  0  0  0  0  0  0  0  0  0  0
    5.4471    1.7081    1.6908 C   0  0  0  0  0  0  0  0  0  0  0  0
    4.8058    2.8388    2.1843 C   0  0  0  0  0  0  0  0  0  0  0  0
    3.1455    2.5689    2.1368 S   0  0  0  0  0  0  0  0  0  0  0  0
   -0.6214   -0.3084   -0.2728 C   0  0  0  0  0  0  0  0  0  0  0  0
   -1.7720   -0.9934   -1.0433 C   0  0  0  0  0  0  0  0  0  0  0  0
   -3.1364   -0.6633   -0.4294 C   0  0  0  0  0  0  0  0  0  0  0  0
   -3.3016    0.7928   -0.0411 C   0  0  0  0  0  0  0  0  0  0  0  0
   -4.5608    1.2696    0.4002 C   0  0  0  0  0  0  0  0  0  0  0  0
   -5.6780    0.4400    0.4954 O   0  0  0  0  0  0  0  0  0  0  0  0
   -4.7093    2.6102    0.7720 C   0  0  0  0  0  0  0  0  0  0  0  0
   -3.6266    3.4852    0.7179 C   0  0  0  0  0  0  0  0  0  0  0  0
   -2.3785    3.0264    0.3027 C   0  0  0  0  0  0  0  0  0  0  0  0
   -2.1958    1.6795   -0.0554 C   0  0  0  0  0  0  0  0  0  0  0  0
   -0.8150    1.2183   -0.4595 C   0  0  0  0  0  0  0  0  0  0  0  0
    2.0081   -4.7125   -1.0232 H   0  0  0  0  0  0  0  0  0  0  0  0
    1.3728   -4.9402   -2.6962 H   0  0  0  0  0  0  0  0  0  0  0  0
    0.2241   -4.8672   -1.3145 H   0  0  0  0  0  0  0  0  0  0  0  0
    0.1591   -2.7350   -2.5116 H   0  0  0  0  0  0  0  0  0  0  0  0
    1.9542   -2.5739   -2.4380 H   0  0  0  0  0  0  0  0  0  0  0  0
    0.1399   -2.7003    0.0640 H   0  0  0  0  0  0  0  0  0  0  0  0
    1.8824   -2.4224    0.0208 H   0  0  0  0  0  0  0  0  0  0  0  0
    2.8011   -0.4120   -0.8006 H   0  0  0  0  0  0  0  0  0  0  0  0
    1.8171    1.0421   -0.8169 H   0  0  0  0  0  0  0  0  0  0  0  0
    1.1584    0.5806    1.6407 H   0  0  0  0  0  0  0  0  0  0  0  0
    2.2257   -0.8514    1.6253 H   0  0  0  0  0  0  0  0  0  0  0  0
    4.9022   -0.2602    0.8983 H   0  0  0  0  0  0  0  0  0  0  0  0
    6.5232    1.6228    1.6177 H   0  0  0  0  0  0  0  0  0  0  0  0
    5.2942    3.7375    2.5395 H   0  0  0  0  0  0  0  0  0  0  0  0
   -0.7184   -0.5557    0.8085 H   0  0  0  0  0  0  0  0  0  0  0  0
   -1.6777   -2.0969   -1.0332 H   0  0  0  0  0  0  0  0  0  0  0  0
   -1.7523   -0.6731   -2.1092 H   0  0  0  0  0  0  0  0  0  0  0  0
   -3.2826   -1.2900    0.4797 H   0  0  0  0  0  0  0  0  0  0  0  0
   -3.9118   -0.9424   -1.1683 H   0  0  0  0  0  0  0  0  0  0  0  0
   -5.6536   -0.5553    0.2994 H   0  0  0  0  0  0  0  0  0  0  0  0
   -5.6706    2.9732    1.1130 H   0  0  0  0  0  0  0  0  0  0  0  0
   -3.7513    4.5197    1.0234 H   0  0  0  0  0  0  0  0  0  0  0  0
   -1.5491    3.7145    0.2707 H   0  0  0  0  0  0  0  0  0  0  0  0
   -0.6432    1.4939   -1.5231 H   0  0  0  0  0  0  0  0  0  0  0  0
   -0.0827    1.7752    0.1582 H   0  0  0  0  0  0  0  0  0  0  0  0
  1  2  1  0
  2  3  1  0
  3  4  1  0
  4  5  1  0
  5  6  1  0
  6  7  1  0
  7  8  2  0
  8  9  1  0
  9 10  2  0
 10 11  1  0
 11  7  1  0
  4 12  1  0
 12 13  1  0
 13 14  1  0
 14 15  1  0
 15 16  2  0
 16 17  1  0
 16 18  1  0
 18 19  2  0
 19 20  1  0
 20 21  2  0
 21 15  1  0
 21 22  1  0
 22 12  1  0
  1 23  1  0
  1 24  1  0
  1 25  1  0
  2 26  1  0
  2 27  1  0
  3 28  1  0
  3 29  1  0
  5 30  1  0
  5 31  1  0
  6 32  1  0
  6 33  1  0
  8 34  1  0
  9 35  1  0
 10 36  1  0
 12 37  1  0
 13 38  1  0
 13 39  1  0
 14 40  1  0
 14 41  1  0
 17 42  1  0
 18 43  1  0
 19 44  1  0
 20 45  1  0
 22 46  1  0
 22 47  1  0
M  END
> <ID>
HT1851

> <Class>
1.0

> <Clusters>
218

> <Fold>
3

$$$$