
     RDKit          3D

 44 46  0  0  0  0  0  0  0  0999 V2000
    3.4132   -1.1018   -0.0064 C   0  0  0  0  0  0  0  0  0  0  0  0
    4.1498    0.1597    0.1845 N   0  0  0  0  0  0  0  0  0  0  0  0
    5.5290   -0.1424    0.6022 C   0  0  0  0  0  0  0  0  0  0  0  0
    3.4923    1.0190    1.1949 C   0  0  0  0  0  0  0  0  0  0  0  0
    2.3085    1.7876    0.5960 C   0  0  0  0  0  0  0  0  0  0  0  0
    1.1179    1.0166    0.6792 O   0  0  0  0  0  0  0  0  0  0  0  0
    0.3667    0.7521   -0.4458 N   0  0  0  0  0  0  0  0  0  0  0  0
   -0.7292    0.0520   -0.4054 C   0  0  0  0  0  0  0  0  0  0  0  0
   -1.4729   -0.1781   -1.6754 C   0  0  0  0  0  0  0  0  0  0  0  0
   -0.7028   -0.3280   -2.8491 C   0  0  0  0  0  0  0  0  0  0  0  0
   -1.3047   -0.5538   -4.0850 C   0  0  0  0  0  0  0  0  0  0  0  0
   -2.6881   -0.6382   -4.1798 C   0  0  0  0  0  0  0  0  0  0  0  0
   -3.4755   -0.4892   -3.0404 C   0  0  0  0  0  0  0  0  0  0  0  0
   -2.8987   -0.2389   -1.7788 C   0  0  0  0  0  0  0  0  0  0  0  0
   -3.8772   -0.1155   -0.6212 C   0  0  0  0  0  0  0  0  0  0  0  0
   -3.3854    0.6690    0.5949 C   0  0  0  0  0  0  0  0  0  0  0  0
   -2.4495   -0.1844    1.3994 C   0  0  0  0  0  0  0  0  0  0  0  0
   -2.8406   -0.6816    2.6549 C   0  0  0  0  0  0  0  0  0  0  0  0
   -1.9852   -1.5137    3.3808 C   0  0  0  0  0  0  0  0  0  0  0  0
   -0.7373   -1.8581    2.8597 C   0  0  0  0  0  0  0  0  0  0  0  0
   -0.3392   -1.3646    1.6154 C   0  0  0  0  0  0  0  0  0  0  0  0
   -1.1900   -0.5224    0.8785 C   0  0  0  0  0  0  0  0  0  0  0  0
    2.4205   -0.9044   -0.4543 H   0  0  0  0  0  0  0  0  0  0  0  0
    3.9507   -1.7594   -0.7235 H   0  0  0  0  0  0  0  0  0  0  0  0
    3.2858   -1.6493    0.9540 H   0  0  0  0  0  0  0  0  0  0  0  0
    6.1220    0.7947    0.6732 H   0  0  0  0  0  0  0  0  0  0  0  0
    5.5468   -0.6608    1.5872 H   0  0  0  0  0  0  0  0  0  0  0  0
    6.0316   -0.7826   -0.1549 H   0  0  0  0  0  0  0  0  0  0  0  0
    4.2105    1.7863    1.5640 H   0  0  0  0  0  0  0  0  0  0  0  0
    3.1667    0.4326    2.0845 H   0  0  0  0  0  0  0  0  0  0  0  0
    2.1518    2.7208    1.1782 H   0  0  0  0  0  0  0  0  0  0  0  0
    2.5243    2.0750   -0.4569 H   0  0  0  0  0  0  0  0  0  0  0  0
    0.3793   -0.2880   -2.8090 H   0  0  0  0  0  0  0  0  0  0  0  0
   -0.6942   -0.6721   -4.9709 H   0  0  0  0  0  0  0  0  0  0  0  0
   -3.1538   -0.8230   -5.1393 H   0  0  0  0  0  0  0  0  0  0  0  0
   -4.5512   -0.5678   -3.1455 H   0  0  0  0  0  0  0  0  0  0  0  0
   -4.1954   -1.1353   -0.3104 H   0  0  0  0  0  0  0  0  0  0  0  0
   -4.7923    0.4034   -0.9842 H   0  0  0  0  0  0  0  0  0  0  0  0
   -2.8896    1.6144    0.2839 H   0  0  0  0  0  0  0  0  0  0  0  0
   -4.2672    0.9544    1.2100 H   0  0  0  0  0  0  0  0  0  0  0  0
   -3.8109   -0.4350    3.0677 H   0  0  0  0  0  0  0  0  0  0  0  0
   -2.2926   -1.8964    4.3455 H   0  0  0  0  0  0  0  0  0  0  0  0
   -0.0764   -2.5055    3.4215 H   0  0  0  0  0  0  0  0  0  0  0  0
    0.6327   -1.6390    1.2262 H   0  0  0  0  0  0  0  0  0  0  0  0
  1  2  1  0
  2  3  1  0
  2  4  1  0
  4  5  1  0
  5  6  1  0
  6  7  1  0
  7  8  2  3
  8  9  1  0
  9 10  2  0
 10 11  1  0
 11 12  2  0
 12 13  1  0
 13 14  2  0
 14  9  1  0
 14 15  1  0
 15 16  1  0
 16 17  1  0
 17 18  2  0
 18 19  1  0
 19 20  2  0
 20 21  1  0
 21 22  2  0
 22  8  1  0
 22 17  1  0
  1 23  1  0
  1 24  1  0
  1 25  1  0
  3 26  1  0
  3 27  1  0
  3 28  1  0
  4 29  1  0
  4 30  1  0
  5 31  1  0
  5 32  1  0
 10 33  1  0
 11 34  1  0
 12 35  1  0
 13 36  1  0
 15 37  1  0
 15 38  1  0
 16 39  1  0
 16 40  1  0
 18 41  1  0
 19 42  1  0
 20 43  1  0
 21 44  1  0
M  END
> <ID>
HT1530

> <Class>
1.0

> <Clusters>
17

> <Fold>
3

$$$$