
     RDKit          3D

 49 52  0  0  0  0  0  0  0  0999 V2000
    2.7626    0.8085    1.1776 C   0  0  0  0  0  0  0  0  0  0  0  0
    2.3834    0.6916   -0.3348 C   0  0  2  0  0  0  0  0  0  0  0  0
    1.4739    1.8683   -0.7484 C   0  0  0  0  0  0  0  0  0  0  0  0
    0.0943    1.7799   -0.0521 C   0  0  0  0  0  0  0  0  0  0  0  0
   -0.6060    0.3938   -0.2387 C   0  0  1  0  0  0  0  0  0  0  0  0
    0.3497   -0.8029    0.0945 C   0  0  1  0  0  0  0  0  0  0  0  0
   -0.3286   -2.1316   -0.2825 C   0  0  0  0  0  0  0  0  0  0  0  0
   -1.6224   -2.3139    0.5047 C   0  0  0  0  0  0  0  0  0  0  0  0
   -2.5510   -1.1418    0.2892 C   0  0  0  0  0  0  0  0  0  0  0  0
   -3.8557   -1.3845    0.0648 C   0  0  0  0  0  0  0  0  0  0  0  0
   -4.8447   -0.3031   -0.0215 C   0  0  0  0  0  0  0  0  0  0  0  0
   -6.0496   -0.5770   -0.2655 O   0  0  0  0  0  0  0  0  0  0  0  0
   -4.4438    1.1097    0.2491 C   0  0  0  0  0  0  0  0  0  0  0  0
   -2.9817    1.3299   -0.1455 C   0  0  0  0  0  0  0  0  0  0  0  0
   -2.0055    0.2823    0.4853 C   0  0  2  0  0  0  0  0  0  0  0  0
   -1.8887    0.5469    2.0081 C   0  0  0  0  0  0  0  0  0  0  0  0
    1.6604   -0.6114   -0.6970 C   0  0  2  0  0  0  0  0  0  0  0  0
    2.7406   -1.6832   -0.6212 C   0  0  0  0  0  0  0  0  0  0  0  0
    4.0186   -0.9579   -1.0797 C   0  0  0  0  0  0  0  0  0  0  0  0
    3.6642    0.5433   -1.1793 C   0  0  2  0  0  0  0  0  0  0  0  0
    4.7103    1.3553   -0.7105 O   0  0  0  0  0  0  0  0  0  0  0  0
    3.4473   -0.0049    1.4951 H   0  0  0  0  0  0  0  0  0  0  0  0
    3.2787    1.7737    1.3671 H   0  0  0  0  0  0  0  0  0  0  0  0
    1.8860    0.7828    1.8511 H   0  0  0  0  0  0  0  0  0  0  0  0
    1.3171    1.8642   -1.8500 H   0  0  0  0  0  0  0  0  0  0  0  0
    1.9592    2.8343   -0.4891 H   0  0  0  0  0  0  0  0  0  0  0  0
   -0.5386    2.5805   -0.4869 H   0  0  0  0  0  0  0  0  0  0  0  0
    0.2153    2.0180    1.0224 H   0  0  0  0  0  0  0  0  0  0  0  0
   -0.8143    0.3178   -1.3317 H   0  0  0  0  0  0  0  0  0  0  0  0
    0.5771   -0.8417    1.1777 H   0  0  0  0  0  0  0  0  0  0  0  0
    0.3458   -2.9823   -0.0450 H   0  0  0  0  0  0  0  0  0  0  0  0
   -0.5490   -2.1607   -1.3730 H   0  0  0  0  0  0  0  0  0  0  0  0
   -2.0918   -3.2745    0.1976 H   0  0  0  0  0  0  0  0  0  0  0  0
   -1.3865   -2.3926    1.5879 H   0  0  0  0  0  0  0  0  0  0  0  0
   -4.2112   -2.4031   -0.0384 H   0  0  0  0  0  0  0  0  0  0  0  0
   -5.0872    1.8011   -0.3374 H   0  0  0  0  0  0  0  0  0  0  0  0
   -4.5927    1.3342    1.3261 H   0  0  0  0  0  0  0  0  0  0  0  0
   -2.9199    1.2831   -1.2558 H   0  0  0  0  0  0  0  0  0  0  0  0
   -2.7013    2.3617    0.1556 H   0  0  0  0  0  0  0  0  0  0  0  0
   -1.6817    1.6164    2.2196 H   0  0  0  0  0  0  0  0  0  0  0  0
   -2.8360    0.2851    2.5254 H   0  0  0  0  0  0  0  0  0  0  0  0
   -1.0870   -0.0612    2.4715 H   0  0  0  0  0  0  0  0  0  0  0  0
    1.3699   -0.5644   -1.7766 H   0  0  0  0  0  0  0  0  0  0  0  0
    2.5056   -2.5387   -1.2914 H   0  0  0  0  0  0  0  0  0  0  0  0
    2.8519   -2.0551    0.4207 H   0  0  0  0  0  0  0  0  0  0  0  0
    4.3513   -1.3382   -2.0701 H   0  0  0  0  0  0  0  0  0  0  0  0
    4.8325   -1.1273   -0.3408 H   0  0  0  0  0  0  0  0  0  0  0  0
    3.4425    0.7954   -2.2441 H   0  0  0  0  0  0  0  0  0  0  0  0
    5.4367    1.2943   -1.3843 H   0  0  0  0  0  0  0  0  0  0  0  0
  2  1  1  1
  2  3  1  0
  3  4  1  0
  5  4  1  0
  5  6  1  0
  6  7  1  0
  7  8  1  0
  8  9  1  0
  9 10  2  0
 10 11  1  0
 11 12  2  0
 11 13  1  0
 13 14  1  0
 14 15  1  0
 15  5  1  0
 15  9  1  0
 15 16  1  1
  6 17  1  0
 17  2  1  0
 17 18  1  0
 18 19  1  0
 19 20  1  0
 20  2  1  0
 20 21  1  0
  1 22  1  0
  1 23  1  0
  1 24  1  0
  3 25  1  0
  3 26  1  0
  4 27  1  0
  4 28  1  0
  5 29  1  6
  6 30  1  1
  7 31  1  0
  7 32  1  0
  8 33  1  0
  8 34  1  0
 10 35  1  0
 13 36  1  0
 13 37  1  0
 14 38  1  0
 14 39  1  0
 16 40  1  0
 16 41  1  0
 16 42  1  0
 17 43  1  6
 18 44  1  0
 18 45  1  0
 19 46  1  0
 19 47  1  0
 20 48  1  6
 21 49  1  0
M  END
> <ID>
HT2017

> <Class>
1.0

> <Clusters>
167

> <Fold>
3

$$$$