
     RDKit          3D

 53 55  0  0  0  0  0  0  0  0999 V2000
    2.1795   -2.2835    0.7781 C   0  0  0  0  0  0  0  0  0  0  0  0
    1.1220   -1.2877    0.5113 N   0  0  0  0  0  0  0  0  0  0  0  0
    0.1356   -1.6486   -0.3780 C   0  0  0  0  0  0  0  0  0  0  0  0
    0.1937   -2.7590   -0.9779 O   0  0  0  0  0  0  0  0  0  0  0  0
   -0.9478   -0.7983   -0.6363 C   0  0  0  0  0  0  0  0  0  0  0  0
   -1.0129    0.4212    0.0408 C   0  0  0  0  0  0  0  0  0  0  0  0
    0.0101    0.7732    0.8533 N   0  0  0  0  0  0  0  0  0  0  0  0
    1.0873   -0.0264    1.0870 C   0  0  0  0  0  0  0  0  0  0  0  0
    2.1817    0.5380    2.0136 C   0  0  0  0  0  0  0  0  0  0  0  0
    2.0961    2.0822    2.1015 C   0  0  0  0  0  0  0  0  0  0  0  0
    1.9627   -0.0113    3.4409 C   0  0  0  0  0  0  0  0  0  0  0  0
    3.5341    0.1999    1.5321 N   0  0  0  0  0  0  0  0  0  0  0  0
    4.0028    0.4718    0.1979 C   0  0  0  0  0  0  0  0  0  0  0  0
    3.2354    0.9895   -0.6579 O   0  0  0  0  0  0  0  0  0  0  0  0
    5.3785    0.1353   -0.1912 C   0  0  0  0  0  0  0  0  0  0  0  0
    5.8746    0.3301   -1.3898 O   0  0  0  0  0  0  0  0  0  0  0  0
    7.1124   -0.0959   -1.3134 C   0  0  0  0  0  0  0  0  0  0  0  0
    8.0744   -0.0995   -2.4523 C   0  0  0  0  0  0  0  0  0  0  0  0
    7.3961   -0.5630   -0.0831 N   0  0  0  0  0  0  0  0  0  0  0  0
    6.2926   -0.4127    0.6327 N   0  0  0  0  0  0  0  0  0  0  0  0
   -2.1325    1.3685   -0.1330 C   0  0  0  0  0  0  0  0  0  0  0  0
   -1.9014    2.6064   -0.0567 O   0  0  0  0  0  0  0  0  0  0  0  0
   -3.4763    0.9053   -0.3328 N   0  0  0  0  0  0  0  0  0  0  0  0
   -4.5561    1.8308   -0.6744 C   0  0  0  0  0  0  0  0  0  0  0  0
   -5.8430    1.0854   -0.9118 C   0  0  0  0  0  0  0  0  0  0  0  0
   -5.9692    0.2433   -2.0290 C   0  0  0  0  0  0  0  0  0  0  0  0
   -7.1598   -0.4540   -2.2550 C   0  0  0  0  0  0  0  0  0  0  0  0
   -8.2318   -0.3164   -1.3684 C   0  0  0  0  0  0  0  0  0  0  0  0
   -9.3860   -0.9929   -1.5896 F   0  0  0  0  0  0  0  0  0  0  0  0
   -8.1133    0.5187   -0.2536 C   0  0  0  0  0  0  0  0  0  0  0  0
   -6.9240    1.2181   -0.0240 C   0  0  0  0  0  0  0  0  0  0  0  0
   -1.9289   -1.1466   -1.5687 O   0  0  0  0  0  0  0  0  0  0  0  0
    1.7276   -3.2838    0.9565 H   0  0  0  0  0  0  0  0  0  0  0  0
    2.8622   -2.3484   -0.0959 H   0  0  0  0  0  0  0  0  0  0  0  0
    2.7709   -2.0783    1.6813 H   0  0  0  0  0  0  0  0  0  0  0  0
    2.1492    2.5442    1.0935 H   0  0  0  0  0  0  0  0  0  0  0  0
    1.1464    2.4079    2.5796 H   0  0  0  0  0  0  0  0  0  0  0  0
    2.9385    2.4814    2.7071 H   0  0  0  0  0  0  0  0  0  0  0  0
    1.9974   -1.1172    3.4766 H   0  0  0  0  0  0  0  0  0  0  0  0
    2.7421    0.3776    4.1317 H   0  0  0  0  0  0  0  0  0  0  0  0
    0.9686    0.3009    3.8290 H   0  0  0  0  0  0  0  0  0  0  0  0
    4.2127   -0.2182    2.2089 H   0  0  0  0  0  0  0  0  0  0  0  0
    7.7958    0.6873   -3.1847 H   0  0  0  0  0  0  0  0  0  0  0  0
    9.1016    0.1000   -2.0799 H   0  0  0  0  0  0  0  0  0  0  0  0
    8.0504   -1.0902   -2.9525 H   0  0  0  0  0  0  0  0  0  0  0  0
   -3.6947   -0.1047   -0.1755 H   0  0  0  0  0  0  0  0  0  0  0  0
   -4.6750    2.5673    0.1501 H   0  0  0  0  0  0  0  0  0  0  0  0
   -4.2887    2.3922   -1.5961 H   0  0  0  0  0  0  0  0  0  0  0  0
   -5.1452    0.1278   -2.7225 H   0  0  0  0  0  0  0  0  0  0  0  0
   -7.2505   -1.1005   -3.1181 H   0  0  0  0  0  0  0  0  0  0  0  0
   -8.9427    0.6246    0.4338 H   0  0  0  0  0  0  0  0  0  0  0  0
   -6.8471    1.8587    0.8456 H   0  0  0  0  0  0  0  0  0  0  0  0
   -1.9063   -2.0203   -2.0811 H   0  0  0  0  0  0  0  0  0  0  0  0
  1  2  1  0
  2  3  1  0
  3  4  2  0
  3  5  1  0
  5  6  2  0
  6  7  1  0
  7  8  2  0
  8  2  1  0
  8  9  1  0
  9 10  1  0
  9 11  1  0
  9 12  1  0
 12 13  1  0
 13 14  2  0
 13 15  1  0
 15 16  1  0
 16 17  1  0
 17 18  1  0
 17 19  2  0
 19 20  1  0
 20 15  2  0
  6 21  1  0
 21 22  2  0
 21 23  1  0
 23 24  1  0
 24 25  1  0
 25 26  2  0
 26 27  1  0
 27 28  2  0
 28 29  1  0
 28 30  1  0
 30 31  2  0
 31 25  1  0
  5 32  1  0
  1 33  1  0
  1 34  1  0
  1 35  1  0
 10 36  1  0
 10 37  1  0
 10 38  1  0
 11 39  1  0
 11 40  1  0
 11 41  1  0
 12 42  1  0
 18 43  1  0
 18 44  1  0
 18 45  1  0
 23 46  1  0
 24 47  1  0
 24 48  1  0
 26 49  1  0
 27 50  1  0
 30 51  1  0
 31 52  1  0
 32 53  1  0
M  END
> <ID>
HT1795

> <Class>
1.0

> <Clusters>
111

> <Fold>
3

$$$$