
     RDKit          3D

 49 50  0  0  0  0  0  0  0  0999 V2000
    7.8970   -1.0328   -0.9467 N   0  0  0  0  0  0  0  0  0  0  0  0
    6.7701   -1.6934   -0.3648 C   0  0  0  0  0  0  0  0  0  0  0  0
    6.8847   -2.9380   -0.0179 N   0  0  0  0  0  0  0  0  0  0  0  0
    5.4980   -0.9568   -0.1555 C   0  0  0  0  0  0  0  0  0  0  0  0
    5.5176    0.3986    0.2147 C   0  0  0  0  0  0  0  0  0  0  0  0
    4.3236    1.0993    0.4104 C   0  0  0  0  0  0  0  0  0  0  0  0
    3.0858    0.4544    0.2353 C   0  0  0  0  0  0  0  0  0  0  0  0
    1.8614    1.1113    0.4199 O   0  0  0  0  0  0  0  0  0  0  0  0
    1.7248    2.4695    0.8296 C   0  0  0  0  0  0  0  0  0  0  0  0
    0.2419    2.8347    0.9511 C   0  0  0  0  0  0  0  0  0  0  0  0
   -0.4095    2.3425    2.2577 C   0  0  0  0  0  0  0  0  0  0  0  0
   -0.4354    0.8132    2.4434 C   0  0  0  0  0  0  0  0  0  0  0  0
   -1.2060    0.0701    1.3483 C   0  0  0  0  0  0  0  0  0  0  0  0
   -2.5394    0.5676    1.2610 O   0  0  0  0  0  0  0  0  0  0  0  0
   -3.5028    0.0993    0.3559 C   0  0  0  0  0  0  0  0  0  0  0  0
   -3.2381   -0.9326   -0.5628 C   0  0  0  0  0  0  0  0  0  0  0  0
   -4.2327   -1.3648   -1.4455 C   0  0  0  0  0  0  0  0  0  0  0  0
   -5.5115   -0.7793   -1.4251 C   0  0  0  0  0  0  0  0  0  0  0  0
   -5.7657    0.2590   -0.5104 C   0  0  0  0  0  0  0  0  0  0  0  0
   -4.7705    0.6885    0.3717 C   0  0  0  0  0  0  0  0  0  0  0  0
   -6.5720   -1.2292   -2.3620 C   0  0  0  0  0  0  0  0  0  0  0  0
   -7.5245   -0.4131   -2.6902 N   0  0  0  0  0  0  0  0  0  0  0  0
   -6.5668   -2.5587   -2.8973 N   0  0  0  0  0  0  0  0  0  0  0  0
    3.0653   -0.8934   -0.1369 C   0  0  0  0  0  0  0  0  0  0  0  0
    4.2578   -1.5958   -0.3315 C   0  0  0  0  0  0  0  0  0  0  0  0
    7.8213   -0.0611   -1.3205 H   0  0  0  0  0  0  0  0  0  0  0  0
    8.8050   -1.5372   -1.0559 H   0  0  0  0  0  0  0  0  0  0  0  0
    6.1103   -3.4758    0.4308 H   0  0  0  0  0  0  0  0  0  0  0  0
    6.4566    0.9140    0.3725 H   0  0  0  0  0  0  0  0  0  0  0  0
    4.3747    2.1402    0.6992 H   0  0  0  0  0  0  0  0  0  0  0  0
    2.2395    2.6317    1.8018 H   0  0  0  0  0  0  0  0  0  0  0  0
    2.1915    3.1261    0.0635 H   0  0  0  0  0  0  0  0  0  0  0  0
   -0.3182    2.4636    0.0668 H   0  0  0  0  0  0  0  0  0  0  0  0
    0.1605    3.9434    0.9349 H   0  0  0  0  0  0  0  0  0  0  0  0
   -1.4507    2.7294    2.2995 H   0  0  0  0  0  0  0  0  0  0  0  0
    0.1311    2.7918    3.1192 H   0  0  0  0  0  0  0  0  0  0  0  0
    0.5996    0.4168    2.5048 H   0  0  0  0  0  0  0  0  0  0  0  0
   -0.9188    0.5921    3.4198 H   0  0  0  0  0  0  0  0  0  0  0  0
   -1.2312   -1.0111    1.6047 H   0  0  0  0  0  0  0  0  0  0  0  0
   -0.6912    0.1848    0.3716 H   0  0  0  0  0  0  0  0  0  0  0  0
   -2.2659   -1.4041   -0.6076 H   0  0  0  0  0  0  0  0  0  0  0  0
   -3.9866   -2.1408   -2.1579 H   0  0  0  0  0  0  0  0  0  0  0  0
   -6.7388    0.7325   -0.4682 H   0  0  0  0  0  0  0  0  0  0  0  0
   -4.9860    1.4851    1.0728 H   0  0  0  0  0  0  0  0  0  0  0  0
   -8.2913   -0.6941   -3.3412 H   0  0  0  0  0  0  0  0  0  0  0  0
   -7.2777   -2.8483   -3.6054 H   0  0  0  0  0  0  0  0  0  0  0  0
   -5.9124   -3.2882   -2.5392 H   0  0  0  0  0  0  0  0  0  0  0  0
    2.1181   -1.3987   -0.2789 H   0  0  0  0  0  0  0  0  0  0  0  0
    4.2074   -2.6323   -0.6395 H   0  0  0  0  0  0  0  0  0  0  0  0
  1  2  1  0
  2  3  2  3
  2  4  1  0
  4  5  2  0
  5  6  1  0
  6  7  2  0
  7  8  1  0
  8  9  1  0
  9 10  1  0
 10 11  1  0
 11 12  1  0
 12 13  1  0
 13 14  1  0
 14 15  1  0
 15 16  2  0
 16 17  1  0
 17 18  2  0
 18 19  1  0
 19 20  2  0
 20 15  1  0
 18 21  1  0
 21 22  2  3
 21 23  1  0
  7 24  1  0
 24 25  2  0
 25  4  1  0
  1 26  1  0
  1 27  1  0
  3 28  1  0
  5 29  1  0
  6 30  1  0
  9 31  1  0
  9 32  1  0
 10 33  1  0
 10 34  1  0
 11 35  1  0
 11 36  1  0
 12 37  1  0
 12 38  1  0
 13 39  1  0
 13 40  1  0
 16 41  1  0
 17 42  1  0
 19 43  1  0
 20 44  1  0
 22 45  1  0
 23 46  1  0
 23 47  1  0
 24 48  1  0
 25 49  1  0
M  END
> <ID>
HT1618

> <Class>
1.0

> <Clusters>
56

> <Fold>
3

$$$$