
     RDKit          3D

 15 14  0  0  0  0  0  0  0  0999 V2000
    3.2352    0.2337    0.1168 F   0  0  0  0  0  0  0  0  0  0  0  0
    2.0101    0.0364   -0.4902 C   0  0  0  0  0  0  0  0  0  0  0  0
    0.9943    0.1578    0.4811 O   0  0  0  0  0  0  0  0  0  0  0  0
   -0.2886   -0.0373   -0.0957 C   0  0  0  0  0  0  0  0  0  0  0  0
   -0.9490   -1.2557    0.5728 C   0  0  0  0  0  0  0  0  0  0  0  0
   -2.2027   -1.4866    0.0349 F   0  0  0  0  0  0  0  0  0  0  0  0
   -0.1677   -2.3764    0.3553 F   0  0  0  0  0  0  0  0  0  0  0  0
   -1.0694   -1.0597    1.9375 F   0  0  0  0  0  0  0  0  0  0  0  0
   -1.1124    1.2490    0.0888 C   0  0  0  0  0  0  0  0  0  0  0  0
   -2.3718    1.1048   -0.4658 F   0  0  0  0  0  0  0  0  0  0  0  0
   -0.4727    2.2973   -0.5479 F   0  0  0  0  0  0  0  0  0  0  0  0
   -1.2403    1.5600    1.4313 F   0  0  0  0  0  0  0  0  0  0  0  0
    2.0059   -0.9813   -0.9398 H   0  0  0  0  0  0  0  0  0  0  0  0
    1.8893    0.8055   -1.2851 H   0  0  0  0  0  0  0  0  0  0  0  0
   -0.2602   -0.2478   -1.1942 H   0  0  0  0  0  0  0  0  0  0  0  0
  1  2  1  0
  2  3  1  0
  3  4  1  0
  4  5  1  0
  5  6  1  0
  5  7  1  0
  5  8  1  0
  4  9  1  0
  9 10  1  0
  9 11  1  0
  9 12  1  0
  2 13  1  0
  2 14  1  0
  4 15  1  0
M  END
> <ID>
HT1883

> <Class>
1.0

> <Clusters>
136

> <Fold>
3

$$$$