
     RDKit          3D

 56 59  0  0  0  0  0  0  0  0999 V2000
    3.0416   -0.1935    3.1688 O   0  0  0  0  0  0  0  0  0  0  0  0
    3.0987   -0.1591    1.9488 C   0  0  0  0  0  0  0  0  0  0  0  0
    3.6645   -1.3315    1.1953 C   0  0  0  0  0  0  0  0  0  0  0  0
    2.6631    1.0803    1.2278 C   0  0  0  0  0  0  0  0  0  0  0  0
    2.6467    0.8981   -0.3111 C   0  0  2  0  0  0  0  0  0  0  0  0
    1.9716    2.1137   -1.0100 C   0  0  0  0  0  0  0  0  0  0  0  0
    2.0538   -0.4814   -0.7630 C   0  0  2  0  0  0  0  0  0  0  0  0
    0.4855    1.9200   -1.3793 C   0  0  0  0  0  0  0  0  0  0  0  0
    2.8177   -1.6797   -0.0547 C   0  0  0  0  0  0  0  0  0  0  0  0
    2.3601   -0.6528   -2.2850 C   0  0  0  0  0  0  0  0  0  0  0  0
    0.4635   -0.5089   -0.5644 C   0  0  2  0  0  0  0  0  0  0  0  0
   -0.2121    0.8898   -0.4788 C   0  0  2  0  0  0  0  0  0  0  0  0
   -0.0747   -1.3743    0.6108 C   0  0  0  0  0  0  0  0  0  0  0  0
   -1.7371    0.7643   -0.7893 C   0  0  2  0  0  0  0  0  0  0  0  0
   -1.5145   -1.0178    1.0565 C   0  0  0  0  0  0  0  0  0  0  0  0
   -2.5094    2.0196   -0.3251 C   0  0  0  0  0  0  0  0  0  0  0  0
   -2.4280   -0.4644   -0.0885 C   0  0  1  0  0  0  0  0  0  0  0  0
   -3.4364    1.5768    0.7904 C   0  0  0  0  0  0  0  0  0  0  0  0
   -3.7780    0.1249    0.4616 C   0  0  2  0  0  0  0  0  0  0  0  0
   -2.7232   -1.6160   -1.0915 C   0  0  0  0  0  0  0  0  0  0  0  0
   -4.3503   -0.6097    1.6980 C   0  0  0  0  0  0  0  0  0  0  0  0
   -4.7505    0.1123   -0.5648 O   0  0  0  0  0  0  0  0  0  0  0  0
    5.1165   -1.1081    0.8284 C   0  0  0  0  0  0  0  0  0  0  0  0
    5.6853   -0.0514    1.0596 O   0  0  0  0  0  0  0  0  0  0  0  0
    3.6480   -2.2172    1.8693 H   0  0  0  0  0  0  0  0  0  0  0  0
    1.6768    1.3775    1.6237 H   0  0  0  0  0  0  0  0  0  0  0  0
    3.3670    1.9005    1.4880 H   0  0  0  0  0  0  0  0  0  0  0  0
    3.7162    0.9210   -0.6218 H   0  0  0  0  0  0  0  0  0  0  0  0
    2.5270    2.3460   -1.9452 H   0  0  0  0  0  0  0  0  0  0  0  0
    2.0716    3.0185   -0.3701 H   0  0  0  0  0  0  0  0  0  0  0  0
   -0.0177    2.9061   -1.2987 H   0  0  0  0  0  0  0  0  0  0  0  0
    0.3791    1.6196   -2.4417 H   0  0  0  0  0  0  0  0  0  0  0  0
    2.1316   -2.5051    0.2049 H   0  0  0  0  0  0  0  0  0  0  0  0
    3.4965   -2.1986   -0.7699 H   0  0  0  0  0  0  0  0  0  0  0  0
    3.4510   -0.5660   -2.4827 H   0  0  0  0  0  0  0  0  0  0  0  0
    1.8535    0.0938   -2.9209 H   0  0  0  0  0  0  0  0  0  0  0  0
    2.0302   -1.6552   -2.6358 H   0  0  0  0  0  0  0  0  0  0  0  0
    0.0553   -0.9824   -1.4818 H   0  0  0  0  0  0  0  0  0  0  0  0
   -0.1372    1.2684    0.5589 H   0  0  0  0  0  0  0  0  0  0  0  0
   -0.0707   -2.4437    0.3063 H   0  0  0  0  0  0  0  0  0  0  0  0
    0.5837   -1.2681    1.4980 H   0  0  0  0  0  0  0  0  0  0  0  0
   -1.8571    0.6788   -1.8935 H   0  0  0  0  0  0  0  0  0  0  0  0
   -1.4378   -0.2584    1.8648 H   0  0  0  0  0  0  0  0  0  0  0  0
   -1.9705   -1.9239    1.5122 H   0  0  0  0  0  0  0  0  0  0  0  0
   -3.1164    2.4151   -1.1695 H   0  0  0  0  0  0  0  0  0  0  0  0
   -1.8574    2.8409    0.0413 H   0  0  0  0  0  0  0  0  0  0  0  0
   -4.3388    2.2243    0.8440 H   0  0  0  0  0  0  0  0  0  0  0  0
   -2.8978    1.6453    1.7617 H   0  0  0  0  0  0  0  0  0  0  0  0
   -3.3764   -2.3786   -0.6171 H   0  0  0  0  0  0  0  0  0  0  0  0
   -3.2360   -1.2389   -2.0018 H   0  0  0  0  0  0  0  0  0  0  0  0
   -1.8067   -2.1374   -1.4249 H   0  0  0  0  0  0  0  0  0  0  0  0
   -5.3270   -0.1680    1.9897 H   0  0  0  0  0  0  0  0  0  0  0  0
   -4.5123   -1.6831    1.4662 H   0  0  0  0  0  0  0  0  0  0  0  0
   -3.6804   -0.5254    2.5787 H   0  0  0  0  0  0  0  0  0  0  0  0
   -5.5736    0.5540   -0.2266 H   0  0  0  0  0  0  0  0  0  0  0  0
    5.6719   -1.9107    0.3537 H   0  0  0  0  0  0  0  0  0  0  0  0
  1  2  2  0
  2  3  1  0
  4  2  1  0
  5  4  1  0
  6  5  1  0
  7  5  1  0
  8  6  1  0
  9  7  1  0
  7 10  1  6
  7 11  1  0
 12  8  1  0
  3  9  1  0
 11 12  1  0
 11 13  1  0
 14 12  1  0
 13 15  1  0
 14 16  1  0
 17 14  1  0
 15 17  1  0
 18 16  1  0
 17 19  1  0
 17 20  1  6
 19 18  1  0
 21 19  1  0
 19 22  1  6
  3 23  1  0
 23 24  2  0
  3 25  1  0
  4 26  1  0
  4 27  1  0
  5 28  1  6
  6 29  1  0
  6 30  1  0
  8 31  1  0
  8 32  1  0
  9 33  1  0
  9 34  1  0
 10 35  1  0
 10 36  1  0
 10 37  1  0
 11 38  1  6
 12 39  1  1
 13 40  1  0
 13 41  1  0
 14 42  1  6
 15 43  1  0
 15 44  1  0
 16 45  1  0
 16 46  1  0
 18 47  1  0
 18 48  1  0
 20 49  1  0
 20 50  1  0
 20 51  1  0
 21 52  1  0
 21 53  1  0
 21 54  1  0
 22 55  1  0
 23 56  1  0
M  END
> <ID>
HT1569

> <Class>
1.0

> <Clusters>
89

> <Fold>
3

$$$$