
     RDKit          3D

 43 45  0  0  0  0  0  0  0  0999 V2000
    4.2464    0.0668    0.9429 C   0  0  0  0  0  0  0  0  0  0  0  0
    2.8304   -0.2906    1.1351 N   0  0  0  0  0  0  0  0  0  0  0  0
    2.6991   -1.1681    2.3088 C   0  0  0  0  0  0  0  0  0  0  0  0
    1.9939    0.9188    1.3026 C   0  0  0  0  0  0  0  0  0  0  0  0
    1.6431    1.5588   -0.0517 C   0  0  0  0  0  0  0  0  0  0  0  0
    1.0373    0.5597   -1.0505 C   0  0  0  0  0  0  0  0  0  0  0  0
   -0.1784   -0.0757   -0.5127 N   0  0  0  0  0  0  0  0  0  0  0  0
   -0.2649   -1.5103   -0.3677 C   0  0  0  0  0  0  0  0  0  0  0  0
    0.1914   -2.3706   -1.3825 C   0  0  0  0  0  0  0  0  0  0  0  0
   -0.0397   -3.7470   -1.2961 C   0  0  0  0  0  0  0  0  0  0  0  0
   -0.7468   -4.2736   -0.2120 C   0  0  0  0  0  0  0  0  0  0  0  0
   -1.2149   -3.4272    0.7960 C   0  0  0  0  0  0  0  0  0  0  0  0
   -0.9655   -2.0527    0.7266 C   0  0  0  0  0  0  0  0  0  0  0  0
   -1.4677   -0.9797    2.0743 S   0  0  0  0  0  0  0  0  0  0  0  0
   -2.1029    0.2911    0.9765 C   0  0  0  0  0  0  0  0  0  0  0  0
   -3.3229    0.9098    1.2569 C   0  0  0  0  0  0  0  0  0  0  0  0
   -3.7652    1.9751    0.4700 C   0  0  0  0  0  0  0  0  0  0  0  0
   -2.9835    2.4423   -0.6006 C   0  0  0  0  0  0  0  0  0  0  0  0
   -1.7821    1.7803   -0.9114 C   0  0  0  0  0  0  0  0  0  0  0  0
   -1.3324    0.7048   -0.1251 C   0  0  0  0  0  0  0  0  0  0  0  0
   -3.4837    3.5614   -1.4791 C   0  0  0  0  0  0  0  0  0  0  0  0
   -4.2185    3.0282   -2.5215 F   0  0  0  0  0  0  0  0  0  0  0  0
   -4.2864    4.4292   -0.7589 F   0  0  0  0  0  0  0  0  0  0  0  0
   -2.4231    4.2841   -1.9978 F   0  0  0  0  0  0  0  0  0  0  0  0
    4.3714    0.6840    0.0296 H   0  0  0  0  0  0  0  0  0  0  0  0
    4.6464    0.6252    1.8186 H   0  0  0  0  0  0  0  0  0  0  0  0
    4.8553   -0.8509    0.7937 H   0  0  0  0  0  0  0  0  0  0  0  0
    2.9927   -0.6380    3.2424 H   0  0  0  0  0  0  0  0  0  0  0  0
    3.3334   -2.0729    2.1882 H   0  0  0  0  0  0  0  0  0  0  0  0
    1.6504   -1.5216    2.4050 H   0  0  0  0  0  0  0  0  0  0  0  0
    1.0357    0.6671    1.8084 H   0  0  0  0  0  0  0  0  0  0  0  0
    2.4996    1.6723    1.9482 H   0  0  0  0  0  0  0  0  0  0  0  0
    2.5525    2.0097   -0.5012 H   0  0  0  0  0  0  0  0  0  0  0  0
    0.9275    2.3915    0.1197 H   0  0  0  0  0  0  0  0  0  0  0  0
    1.8104   -0.2003   -1.2914 H   0  0  0  0  0  0  0  0  0  0  0  0
    0.8036    1.0801   -2.0020 H   0  0  0  0  0  0  0  0  0  0  0  0
    0.6859   -1.9773   -2.2607 H   0  0  0  0  0  0  0  0  0  0  0  0
    0.3107   -4.4036   -2.0819 H   0  0  0  0  0  0  0  0  0  0  0  0
   -0.9316   -5.3384   -0.1531 H   0  0  0  0  0  0  0  0  0  0  0  0
   -1.7500   -3.8428    1.6404 H   0  0  0  0  0  0  0  0  0  0  0  0
   -3.9191    0.5817    2.0989 H   0  0  0  0  0  0  0  0  0  0  0  0
   -4.7159    2.4380    0.7026 H   0  0  0  0  0  0  0  0  0  0  0  0
   -1.2221    2.0810   -1.7859 H   0  0  0  0  0  0  0  0  0  0  0  0
  1  2  1  0
  2  3  1  0
  2  4  1  0
  4  5  1  0
  5  6  1  0
  6  7  1  0
  7  8  1  0
  8  9  2  0
  9 10  1  0
 10 11  2  0
 11 12  1  0
 12 13  2  0
 13  8  1  0
 13 14  1  0
 14 15  1  0
 15 16  2  0
 16 17  1  0
 17 18  2  0
 18 19  1  0
 19 20  2  0
 20  7  1  0
 20 15  1  0
 18 21  1  0
 21 22  1  0
 21 23  1  0
 21 24  1  0
  1 25  1  0
  1 26  1  0
  1 27  1  0
  3 28  1  0
  3 29  1  0
  3 30  1  0
  4 31  1  0
  4 32  1  0
  5 33  1  0
  5 34  1  0
  6 35  1  0
  6 36  1  0
  9 37  1  0
 10 38  1  0
 11 39  1  0
 12 40  1  0
 16 41  1  0
 17 42  1  0
 19 43  1  0
M  END
> <ID>
HT2119

> <Class>
1.0

> <Clusters>
1

> <Fold>
3

$$$$