
     RDKit          3D

 36 38  0  0  0  0  0  0  0  0999 V2000
    5.7941    0.2344    0.0236 C   0  0  0  0  0  0  0  0  0  0  0  0
    4.5755    0.9063   -0.2875 O   0  0  0  0  0  0  0  0  0  0  0  0
    3.3070    0.4450    0.0825 C   0  0  0  0  0  0  0  0  0  0  0  0
    3.1336   -0.7162    0.7865 N   0  0  0  0  0  0  0  0  0  0  0  0
    1.8838   -1.1638    1.1373 C   0  0  0  0  0  0  0  0  0  0  0  0
    1.7432   -2.3807    1.8659 N   0  0  0  0  0  0  0  0  0  0  0  0
    0.7722   -0.4482    0.7874 N   0  0  0  0  0  0  0  0  0  0  0  0
    0.9480    0.7046    0.0979 C   0  0  0  0  0  0  0  0  0  0  0  0
    2.1689    1.1597   -0.2617 C   0  0  0  0  0  0  0  0  0  0  0  0
    2.0599    2.2996   -0.9693 N   0  0  0  0  0  0  0  0  0  0  0  0
    0.7130    2.4989   -1.0106 C   0  0  0  0  0  0  0  0  0  0  0  0
    0.0053    1.5417   -0.3566 N   0  0  0  0  0  0  0  0  0  0  0  0
   -1.4530    1.4156   -0.2833 C   0  0  2  0  0  0  0  0  0  0  0  0
   -1.8348    0.7891    0.9200 O   0  0  0  0  0  0  0  0  0  0  0  0
   -2.9350   -0.0522    0.6402 C   0  0  2  0  0  0  0  0  0  0  0  0
   -2.5919   -1.4820    1.0881 C   0  0  0  0  0  0  0  0  0  0  0  0
   -3.7040   -2.3264    0.9569 O   0  0  0  0  0  0  0  0  0  0  0  0
   -3.2643    0.0207   -0.8573 C   0  0  1  0  0  0  0  0  0  0  0  0
   -4.3560    0.8824   -1.0575 O   0  0  0  0  0  0  0  0  0  0  0  0
   -2.0134    0.6189   -1.4544 C   0  0  2  0  0  0  0  0  0  0  0  0
   -1.1257   -0.4011   -1.8383 O   0  0  0  0  0  0  0  0  0  0  0  0
    6.4373    0.9088    0.6253 H   0  0  0  0  0  0  0  0  0  0  0  0
    5.6272   -0.7018    0.5961 H   0  0  0  0  0  0  0  0  0  0  0  0
    6.3220   -0.0154   -0.9196 H   0  0  0  0  0  0  0  0  0  0  0  0
    2.5856   -2.9347    2.1370 H   0  0  0  0  0  0  0  0  0  0  0  0
    0.7960   -2.7291    2.1339 H   0  0  0  0  0  0  0  0  0  0  0  0
    0.2548    3.3327   -1.5268 H   0  0  0  0  0  0  0  0  0  0  0  0
   -1.9023    2.4348   -0.2939 H   0  0  0  0  0  0  0  0  0  0  0  0
   -3.8039    0.2981    1.2410 H   0  0  0  0  0  0  0  0  0  0  0  0
   -1.7618   -1.8833    0.4685 H   0  0  0  0  0  0  0  0  0  0  0  0
   -2.2433   -1.4724    2.1461 H   0  0  0  0  0  0  0  0  0  0  0  0
   -4.3184   -2.1056    1.7049 H   0  0  0  0  0  0  0  0  0  0  0  0
   -3.4905   -0.9823   -1.2918 H   0  0  0  0  0  0  0  0  0  0  0  0
   -4.6557    0.7492   -1.9948 H   0  0  0  0  0  0  0  0  0  0  0  0
   -2.2304    1.2907   -2.3183 H   0  0  0  0  0  0  0  0  0  0  0  0
   -1.4426   -0.7361   -2.7173 H   0  0  0  0  0  0  0  0  0  0  0  0
  1  2  1  0
  2  3  1  0
  3  4  2  0
  4  5  1  0
  5  6  1  0
  5  7  2  0
  7  8  1  0
  8  9  2  0
  9  3  1  0
  9 10  1  0
 10 11  2  0
 11 12  1  0
 12  8  1  0
 13 12  1  0
 13 14  1  0
 14 15  1  0
 15 16  1  0
 16 17  1  0
 15 18  1  0
 18 19  1  0
 18 20  1  0
 20 13  1  0
 20 21  1  0
  1 22  1  0
  1 23  1  0
  1 24  1  0
  6 25  1  0
  6 26  1  0
 11 27  1  0
 13 28  1  1
 15 29  1  1
 16 30  1  0
 16 31  1  0
 17 32  1  0
 18 33  1  6
 19 34  1  0
 20 35  1  6
 21 36  1  0
M  END
> <ID>
HT1472

> <Class>
1.0

> <Clusters>
25

> <Fold>
3

$$$$