
     RDKit          3D

 29 30  0  0  0  0  0  0  0  0999 V2000
   -5.3350   -1.3640   -0.0767 N   0  0  0  0  0  0  0  0  0  0  0  0
   -4.4380   -0.3853    0.4498 C   0  0  0  0  0  0  0  0  0  0  0  0
   -4.8642    0.4711    1.2695 O   0  0  0  0  0  0  0  0  0  0  0  0
   -3.0251   -0.3659    0.0466 C   0  0  0  0  0  0  0  0  0  0  0  0
   -2.4781   -1.2470   -0.8212 N   0  0  0  0  0  0  0  0  0  0  0  0
   -1.1940   -0.8426   -0.8683 C   0  0  0  0  0  0  0  0  0  0  0  0
   -0.9910    0.2265   -0.0779 N   0  0  0  0  0  0  0  0  0  0  0  0
   -2.1319    0.5295    0.5127 N   0  0  0  0  0  0  0  0  0  0  0  0
    0.2772    0.9034    0.1871 C   0  0  2  0  0  0  0  0  0  0  0  0
    1.0382    0.9942   -0.9976 O   0  0  0  0  0  0  0  0  0  0  0  0
    2.3765    0.6641   -0.6822 C   0  0  2  0  0  0  0  0  0  0  0  0
    2.7853   -0.5960   -1.4614 C   0  0  0  0  0  0  0  0  0  0  0  0
    2.6148   -0.3980   -2.8389 O   0  0  0  0  0  0  0  0  0  0  0  0
    2.5032    0.4578    0.8299 C   0  0  1  0  0  0  0  0  0  0  0  0
    2.9480    1.6514    1.4272 O   0  0  0  0  0  0  0  0  0  0  0  0
    1.0845    0.1480    1.2332 C   0  0  1  0  0  0  0  0  0  0  0  0
    0.7991    0.5951    2.5333 O   0  0  0  0  0  0  0  0  0  0  0  0
   -5.0083   -2.0849   -0.7575 H   0  0  0  0  0  0  0  0  0  0  0  0
   -6.3371   -1.3688    0.2167 H   0  0  0  0  0  0  0  0  0  0  0  0
   -0.4274   -1.3258   -1.4596 H   0  0  0  0  0  0  0  0  0  0  0  0
    0.0722    1.9385    0.5435 H   0  0  0  0  0  0  0  0  0  0  0  0
    3.0369    1.4990   -1.0066 H   0  0  0  0  0  0  0  0  0  0  0  0
    3.8457   -0.8574   -1.2414 H   0  0  0  0  0  0  0  0  0  0  0  0
    2.1519   -1.4530   -1.1475 H   0  0  0  0  0  0  0  0  0  0  0  0
    3.3647    0.1800   -3.1377 H   0  0  0  0  0  0  0  0  0  0  0  0
    3.1893   -0.3851    1.0860 H   0  0  0  0  0  0  0  0  0  0  0  0
    3.3142    1.4078    2.3174 H   0  0  0  0  0  0  0  0  0  0  0  0
    0.9163   -0.9523    1.1515 H   0  0  0  0  0  0  0  0  0  0  0  0
   -0.0880    0.2181    2.7702 H   0  0  0  0  0  0  0  0  0  0  0  0
  1  2  1  0
  2  3  2  0
  2  4  1  0
  4  5  1  0
  5  6  2  0
  6  7  1  0
  7  8  1  0
  8  4  2  0
  9  7  1  0
  9 10  1  0
 10 11  1  0
 11 12  1  0
 12 13  1  0
 11 14  1  0
 14 15  1  0
 14 16  1  0
 16  9  1  0
 16 17  1  0
  1 18  1  0
  1 19  1  0
  6 20  1  0
  9 21  1  1
 11 22  1  6
 12 23  1  0
 12 24  1  0
 13 25  1  0
 14 26  1  6
 15 27  1  0
 16 28  1  1
 17 29  1  0
M  END
> <ID>
HT1817

> <Class>
1.0

> <Clusters>
25

> <Fold>
3

$$$$