
     RDKit          3D

 31 33  0  0  0  0  0  0  0  0999 V2000
   -0.4704    4.2459   -0.3035 O   0  0  0  0  0  0  0  0  0  0  0  0
   -0.4359    3.0715    0.1480 C   0  0  0  0  0  0  0  0  0  0  0  0
   -0.7440    2.7434    1.4864 N   0  0  0  0  0  0  0  0  0  0  0  0
   -0.5780    1.3344    1.5400 C   0  0  0  0  0  0  0  0  0  0  0  0
   -0.7924    0.6635    2.5851 O   0  0  0  0  0  0  0  0  0  0  0  0
   -0.1431    0.7478    0.2133 C   0  0  0  0  0  0  0  0  0  0  0  0
   -0.0843    1.9415   -0.6372 N   0  0  0  0  0  0  0  0  0  0  0  0
    1.2490    0.1113    0.2392 C   0  0  0  0  0  0  0  0  0  0  0  0
    1.6994   -0.6008   -0.8919 C   0  0  0  0  0  0  0  0  0  0  0  0
    2.9775   -1.1651   -0.9200 C   0  0  0  0  0  0  0  0  0  0  0  0
    3.8349   -1.0110    0.1697 C   0  0  0  0  0  0  0  0  0  0  0  0
    3.4195   -0.2835    1.2857 C   0  0  0  0  0  0  0  0  0  0  0  0
    2.1419    0.2836    1.3208 C   0  0  0  0  0  0  0  0  0  0  0  0
   -1.2155   -0.2348   -0.2601 C   0  0  0  0  0  0  0  0  0  0  0  0
   -1.2707   -1.5299    0.2961 C   0  0  0  0  0  0  0  0  0  0  0  0
   -2.2607   -2.4343   -0.0975 C   0  0  0  0  0  0  0  0  0  0  0  0
   -3.2203   -2.0567   -1.0376 C   0  0  0  0  0  0  0  0  0  0  0  0
   -3.1968   -0.7709   -1.5801 C   0  0  0  0  0  0  0  0  0  0  0  0
   -2.2089    0.1389   -1.1912 C   0  0  0  0  0  0  0  0  0  0  0  0
   -1.0409    3.3855    2.2541 H   0  0  0  0  0  0  0  0  0  0  0  0
    0.1931    1.9670   -1.6443 H   0  0  0  0  0  0  0  0  0  0  0  0
    1.0576   -0.7200   -1.7560 H   0  0  0  0  0  0  0  0  0  0  0  0
    3.3052   -1.7177   -1.7911 H   0  0  0  0  0  0  0  0  0  0  0  0
    4.8254   -1.4467    0.1453 H   0  0  0  0  0  0  0  0  0  0  0  0
    4.0917   -0.1520    2.1239 H   0  0  0  0  0  0  0  0  0  0  0  0
    1.8664    0.8586    2.1938 H   0  0  0  0  0  0  0  0  0  0  0  0
   -0.5444   -1.8402    1.0370 H   0  0  0  0  0  0  0  0  0  0  0  0
   -2.2863   -3.4278    0.3312 H   0  0  0  0  0  0  0  0  0  0  0  0
   -3.9875   -2.7578   -1.3398 H   0  0  0  0  0  0  0  0  0  0  0  0
   -3.9492   -0.4758   -2.3001 H   0  0  0  0  0  0  0  0  0  0  0  0
   -2.2321    1.1320   -1.6190 H   0  0  0  0  0  0  0  0  0  0  0  0
  1  2  2  0
  2  3  1  0
  3  4  1  0
  4  5  2  0
  4  6  1  0
  6  7  1  0
  7  2  1  0
  6  8  1  0
  8  9  2  0
  9 10  1  0
 10 11  2  0
 11 12  1  0
 12 13  2  0
 13  8  1  0
  6 14  1  0
 14 15  2  0
 15 16  1  0
 16 17  2  0
 17 18  1  0
 18 19  2  0
 19 14  1  0
  3 20  1  0
  7 21  1  0
  9 22  1  0
 10 23  1  0
 11 24  1  0
 12 25  1  0
 13 26  1  0
 15 27  1  0
 16 28  1  0
 17 29  1  0
 18 30  1  0
 19 31  1  0
M  END
> <ID>
HT1663

> <Class>
1.0

> <Clusters>
30

> <Fold>
3

$$$$