
     RDKit          3D

 42 42  0  0  0  0  0  0  0  0999 V2000
   -5.2034   -2.7043    0.4081 C   0  0  0  0  0  0  0  0  0  0  0  0
   -5.7452   -1.5553   -0.3115 N   0  0  0  0  0  0  0  0  0  0  0  0
   -4.9076   -0.5744   -0.9552 C   0  0  0  0  0  0  0  0  0  0  0  0
   -5.3392    0.6905   -1.1408 C   0  0  0  0  0  0  0  0  0  0  0  0
   -6.6427    1.1405   -0.7556 N   0  0  0  0  0  0  0  0  0  0  0  0
   -6.7688    2.3003   -0.3143 O   0  0  0  0  0  0  0  0  0  0  0  0
   -7.7609    0.4898   -1.2228 O   0  0  0  0  0  0  0  0  0  0  0  0
   -3.5932   -0.9705   -1.4018 N   0  0  0  0  0  0  0  0  0  0  0  0
   -2.4416   -0.0747   -1.5342 C   0  0  0  0  0  0  0  0  0  0  0  0
   -2.0405    0.4960   -0.1725 C   0  0  0  0  0  0  0  0  0  0  0  0
   -0.5804    1.5831   -0.3371 S   0  0  0  0  0  0  0  0  0  0  0  0
    0.6651    0.2671   -0.1090 C   0  0  0  0  0  0  0  0  0  0  0  0
    2.0391    0.8388   -0.2535 C   0  0  0  0  0  0  0  0  0  0  0  0
    2.5259    1.3550   -1.4528 C   0  0  0  0  0  0  0  0  0  0  0  0
    4.1024    1.8744   -1.1858 S   0  0  0  0  0  0  0  0  0  0  0  0
    4.0980    1.4179    0.4335 C   0  0  0  0  0  0  0  0  0  0  0  0
    5.2575    1.5759    1.3791 C   0  0  0  0  0  0  0  0  0  0  0  0
    6.1092    0.3700    1.4806 N   0  0  0  0  0  0  0  0  0  0  0  0
    5.3825   -0.7888    2.0236 C   0  0  0  0  0  0  0  0  0  0  0  0
    6.7590    0.0320    0.2044 C   0  0  0  0  0  0  0  0  0  0  0  0
    2.9142    0.8724    0.7878 N   0  0  0  0  0  0  0  0  0  0  0  0
   -4.1041   -2.6246    0.5403 H   0  0  0  0  0  0  0  0  0  0  0  0
   -5.6635   -2.7556    1.4171 H   0  0  0  0  0  0  0  0  0  0  0  0
   -5.4439   -3.6351   -0.1461 H   0  0  0  0  0  0  0  0  0  0  0  0
   -6.7815   -1.4524   -0.2940 H   0  0  0  0  0  0  0  0  0  0  0  0
   -4.6703    1.4303   -1.5568 H   0  0  0  0  0  0  0  0  0  0  0  0
   -3.4321   -1.9816   -1.6101 H   0  0  0  0  0  0  0  0  0  0  0  0
   -1.5885   -0.6508   -1.9515 H   0  0  0  0  0  0  0  0  0  0  0  0
   -2.6641    0.7399   -2.2545 H   0  0  0  0  0  0  0  0  0  0  0  0
   -2.8711    1.1093    0.2337 H   0  0  0  0  0  0  0  0  0  0  0  0
   -1.8452   -0.3279    0.5472 H   0  0  0  0  0  0  0  0  0  0  0  0
    0.5496   -0.1714    0.9053 H   0  0  0  0  0  0  0  0  0  0  0  0
    0.5248   -0.5356   -0.8623 H   0  0  0  0  0  0  0  0  0  0  0  0
    1.9871    1.4105   -2.3894 H   0  0  0  0  0  0  0  0  0  0  0  0
    4.8673    1.8395    2.3861 H   0  0  0  0  0  0  0  0  0  0  0  0
    5.8764    2.4407    1.0553 H   0  0  0  0  0  0  0  0  0  0  0  0
    4.8657   -0.5147    2.9684 H   0  0  0  0  0  0  0  0  0  0  0  0
    6.1002   -1.6025    2.2621 H   0  0  0  0  0  0  0  0  0  0  0  0
    4.6350   -1.1777    1.2978 H   0  0  0  0  0  0  0  0  0  0  0  0
    6.0224   -0.3383   -0.5416 H   0  0  0  0  0  0  0  0  0  0  0  0
    7.2834    0.9197   -0.2100 H   0  0  0  0  0  0  0  0  0  0  0  0
    7.5230   -0.7575    0.3700 H   0  0  0  0  0  0  0  0  0  0  0  0
  1  2  1  0
  2  3  1  0
  3  4  2  0
  4  5  1  0
  5  6  2  0
  5  7  1  0
  3  8  1  0
  8  9  1  0
  9 10  1  0
 10 11  1  0
 11 12  1  0
 12 13  1  0
 13 14  2  0
 14 15  1  0
 15 16  1  0
 16 17  1  0
 17 18  1  0
 18 19  1  0
 18 20  1  0
 16 21  2  0
 21 13  1  0
  1 22  1  0
  1 23  1  0
  1 24  1  0
  2 25  1  0
  4 26  1  0
  8 27  1  0
  9 28  1  0
  9 29  1  0
 10 30  1  0
 10 31  1  0
 12 32  1  0
 12 33  1  0
 14 34  1  0
 17 35  1  0
 17 36  1  0
 19 37  1  0
 19 38  1  0
 19 39  1  0
 20 40  1  0
 20 41  1  0
 20 42  1  0
M  CHG  2   5   1   7  -1
M  END
> <ID>
HT1513

> <Class>
1.0

> <Clusters>
181

> <Fold>
3

$$$$