
     RDKit          3D

 53 57  0  0  0  0  0  0  0  0999 V2000
   -0.9816   -1.3676   -2.2695 O   0  0  0  0  0  0  0  0  0  0  0  0
   -0.8163   -1.0484   -1.0634 C   0  0  0  0  0  0  0  0  0  0  0  0
   -1.4811    0.0536   -0.5183 O   0  0  0  0  0  0  0  0  0  0  0  0
   -1.4303    1.3456   -1.1166 C   0  0  1  0  0  0  0  0  0  0  0  0
   -2.2923    1.4083   -2.4124 C   0  0  0  0  0  0  0  0  0  0  0  0
   -3.3016    2.4951   -2.3324 N   0  0  0  0  0  0  0  0  0  0  0  0
   -2.6167    3.7943   -2.1009 C   0  0  0  0  0  0  0  0  0  0  0  0
   -1.8216    3.7826   -0.7662 C   0  0  0  0  0  0  0  0  0  0  0  0
   -1.9583    2.3948   -0.1116 C   0  0  0  0  0  0  0  0  0  0  0  0
   -3.4596    2.1284    0.1417 C   0  0  0  0  0  0  0  0  0  0  0  0
   -4.2264    2.2196   -1.2036 C   0  0  0  0  0  0  0  0  0  0  0  0
    0.0171   -1.8535   -0.2268 N   0  0  0  0  0  0  0  0  0  0  0  0
   -0.5970   -2.8691    0.6352 C   0  0  0  0  0  0  0  0  0  0  0  0
    0.2580   -4.1310    0.6356 C   0  0  0  0  0  0  0  0  0  0  0  0
    1.6751   -3.8061    1.0178 C   0  0  0  0  0  0  0  0  0  0  0  0
    2.4406   -4.7463    1.7294 C   0  0  0  0  0  0  0  0  0  0  0  0
    3.7740   -4.4738    2.0490 C   0  0  0  0  0  0  0  0  0  0  0  0
    4.3576   -3.2713    1.6441 C   0  0  0  0  0  0  0  0  0  0  0  0
    3.6081   -2.3315    0.9317 C   0  0  0  0  0  0  0  0  0  0  0  0
    2.2525   -2.5757    0.6292 C   0  0  0  0  0  0  0  0  0  0  0  0
    1.4630   -1.5609   -0.1892 C   0  0  2  0  0  0  0  0  0  0  0  0
    1.6889   -0.1506    0.3261 C   0  0  0  0  0  0  0  0  0  0  0  0
    1.2111    0.2371    1.5920 C   0  0  0  0  0  0  0  0  0  0  0  0
    1.4241    1.5373    2.0581 C   0  0  0  0  0  0  0  0  0  0  0  0
    2.1226    2.4573    1.2705 C   0  0  0  0  0  0  0  0  0  0  0  0
    2.5998    2.0808    0.0117 C   0  0  0  0  0  0  0  0  0  0  0  0
    2.3850    0.7841   -0.4609 C   0  0  0  0  0  0  0  0  0  0  0  0
   -0.3673    1.5707   -1.3535 H   0  0  0  0  0  0  0  0  0  0  0  0
   -1.6313    1.5704   -3.2923 H   0  0  0  0  0  0  0  0  0  0  0  0
   -2.8129    0.4415   -2.5876 H   0  0  0  0  0  0  0  0  0  0  0  0
   -1.9239    4.0094   -2.9450 H   0  0  0  0  0  0  0  0  0  0  0  0
   -3.3666    4.6171   -2.0873 H   0  0  0  0  0  0  0  0  0  0  0  0
   -0.7507    3.9925   -0.9611 H   0  0  0  0  0  0  0  0  0  0  0  0
   -2.2053    4.5690   -0.0830 H   0  0  0  0  0  0  0  0  0  0  0  0
   -1.3824    2.3511    0.8397 H   0  0  0  0  0  0  0  0  0  0  0  0
   -3.5983    1.1203    0.5958 H   0  0  0  0  0  0  0  0  0  0  0  0
   -3.8563    2.8802    0.8592 H   0  0  0  0  0  0  0  0  0  0  0  0
   -4.9948    3.0227   -1.1452 H   0  0  0  0  0  0  0  0  0  0  0  0
   -4.7794    1.2722   -1.3890 H   0  0  0  0  0  0  0  0  0  0  0  0
   -0.6939   -2.4733    1.6730 H   0  0  0  0  0  0  0  0  0  0  0  0
   -1.6157   -3.1372    0.2661 H   0  0  0  0  0  0  0  0  0  0  0  0
    0.2531   -4.5805   -0.3809 H   0  0  0  0  0  0  0  0  0  0  0  0
   -0.1828   -4.8728    1.3408 H   0  0  0  0  0  0  0  0  0  0  0  0
    2.0068   -5.6919    2.0317 H   0  0  0  0  0  0  0  0  0  0  0  0
    4.3574   -5.2012    2.6006 H   0  0  0  0  0  0  0  0  0  0  0  0
    5.3948   -3.0664    1.8815 H   0  0  0  0  0  0  0  0  0  0  0  0
    4.0877   -1.4104    0.6194 H   0  0  0  0  0  0  0  0  0  0  0  0
    1.8475   -1.6460   -1.2300 H   0  0  0  0  0  0  0  0  0  0  0  0
    0.6721   -0.4656    2.2140 H   0  0  0  0  0  0  0  0  0  0  0  0
    1.0517    1.8334    3.0314 H   0  0  0  0  0  0  0  0  0  0  0  0
    2.2894    3.4601    1.6365 H   0  0  0  0  0  0  0  0  0  0  0  0
    3.1404    2.7927   -0.5985 H   0  0  0  0  0  0  0  0  0  0  0  0
    2.7663    0.5087   -1.4362 H   0  0  0  0  0  0  0  0  0  0  0  0
  1  2  2  0
  2  3  1  0
  4  3  1  0
  4  5  1  0
  5  6  1  0
  6  7  1  0
  7  8  1  0
  8  9  1  0
  9  4  1  0
  9 10  1  0
 10 11  1  0
 11  6  1  0
  2 12  1  0
 12 13  1  0
 13 14  1  0
 14 15  1  0
 15 16  2  0
 16 17  1  0
 17 18  2  0
 18 19  1  0
 19 20  2  0
 20 15  1  0
 20 21  1  0
 21 12  1  0
 21 22  1  0
 22 23  2  0
 23 24  1  0
 24 25  2  0
 25 26  1  0
 26 27  2  0
 27 22  1  0
  4 28  1  6
  5 29  1  0
  5 30  1  0
  7 31  1  0
  7 32  1  0
  8 33  1  0
  8 34  1  0
  9 35  1  0
 10 36  1  0
 10 37  1  0
 11 38  1  0
 11 39  1  0
 13 40  1  0
 13 41  1  0
 14 42  1  0
 14 43  1  0
 16 44  1  0
 17 45  1  0
 18 46  1  0
 19 47  1  0
 21 48  1  6
 23 49  1  0
 24 50  1  0
 25 51  1  0
 26 52  1  0
 27 53  1  0
M  END
> <ID>
HT1904

> <Class>
1.0

> <Clusters>
192

> <Fold>
3

$$$$