
     RDKit          3D

 46 46  0  0  0  0  0  0  0  0999 V2000
   -8.5306    0.1073    1.4807 C   0  0  0  0  0  0  0  0  0  0  0  0
   -7.2216    0.7789    1.0759 C   0  0  0  0  0  0  0  0  0  0  0  0
   -6.1508   -0.2606    0.7253 C   0  0  0  0  0  0  0  0  0  0  0  0
   -4.8366    0.4194    0.3171 C   0  0  0  0  0  0  0  0  0  0  0  0
   -3.7376   -0.6121   -0.0072 C   0  0  1  0  0  0  0  0  0  0  0  0
   -4.1236   -1.4232   -1.0896 O   0  0  0  0  0  0  0  0  0  0  0  0
   -2.4213    0.0745   -0.3059 C   0  0  0  0  0  0  0  0  0  0  0  0
   -1.2310   -0.5567   -0.3666 C   0  0  0  0  0  0  0  0  0  0  0  0
   -1.1002   -2.0411   -0.1057 C   0  0  0  0  0  0  0  0  0  0  0  0
   -0.0201    0.2668   -0.6227 C   0  0  0  0  0  0  0  0  0  0  0  0
    1.2208   -0.1337   -0.3201 C   0  0  0  0  0  0  0  0  0  0  0  0
    2.3812    0.7327   -0.5901 C   0  0  0  0  0  0  0  0  0  0  0  0
    3.6206    0.3384   -0.2800 C   0  0  0  0  0  0  0  0  0  0  0  0
    4.8031    1.1915   -0.5252 C   0  0  0  0  0  0  0  0  0  0  0  0
    4.6453    2.4021   -0.8435 O   0  0  0  0  0  0  0  0  0  0  0  0
    6.1366    0.6790   -0.3596 N   0  0  0  0  0  0  0  0  0  0  0  0
    7.2989    1.5218   -0.1344 C   0  0  0  0  0  0  0  0  0  0  0  0
    8.4963    0.5672    0.0340 C   0  0  0  0  0  0  0  0  0  0  0  0
    8.0129   -0.8401   -0.3441 C   0  0  0  0  0  0  0  0  0  0  0  0
    6.5606   -0.6625   -0.5383 C   0  0  0  0  0  0  0  0  0  0  0  0
    5.7919   -1.5957   -0.8914 O   0  0  0  0  0  0  0  0  0  0  0  0
   -9.2852    0.8832    1.7287 H   0  0  0  0  0  0  0  0  0  0  0  0
   -8.3748   -0.5348    2.3737 H   0  0  0  0  0  0  0  0  0  0  0  0
   -8.9204   -0.5132    0.6458 H   0  0  0  0  0  0  0  0  0  0  0  0
   -7.4102    1.4337    0.1972 H   0  0  0  0  0  0  0  0  0  0  0  0
   -6.8677    1.4129    1.9180 H   0  0  0  0  0  0  0  0  0  0  0  0
   -6.5170   -0.8935   -0.1127 H   0  0  0  0  0  0  0  0  0  0  0  0
   -5.9693   -0.9129    1.6079 H   0  0  0  0  0  0  0  0  0  0  0  0
   -4.4900    1.0651    1.1546 H   0  0  0  0  0  0  0  0  0  0  0  0
   -5.0147    1.0686   -0.5690 H   0  0  0  0  0  0  0  0  0  0  0  0
   -3.6028   -1.2545    0.8905 H   0  0  0  0  0  0  0  0  0  0  0  0
   -4.2217   -0.8355   -1.8845 H   0  0  0  0  0  0  0  0  0  0  0  0
   -2.4468    1.1488   -0.4593 H   0  0  0  0  0  0  0  0  0  0  0  0
   -0.8944   -2.2111    0.9717 H   0  0  0  0  0  0  0  0  0  0  0  0
   -0.2724   -2.4689   -0.7087 H   0  0  0  0  0  0  0  0  0  0  0  0
   -2.0098   -2.6041   -0.3928 H   0  0  0  0  0  0  0  0  0  0  0  0
   -0.1559    1.2562   -1.0474 H   0  0  0  0  0  0  0  0  0  0  0  0
    1.3897   -1.0954    0.1479 H   0  0  0  0  0  0  0  0  0  0  0  0
    2.2194    1.7000   -1.0526 H   0  0  0  0  0  0  0  0  0  0  0  0
    3.7645   -0.6276    0.1867 H   0  0  0  0  0  0  0  0  0  0  0  0
    7.4568    2.1834   -1.0139 H   0  0  0  0  0  0  0  0  0  0  0  0
    7.1542    2.1392    0.7785 H   0  0  0  0  0  0  0  0  0  0  0  0
    8.8370    0.5751    1.0926 H   0  0  0  0  0  0  0  0  0  0  0  0
    9.3425    0.8802   -0.6156 H   0  0  0  0  0  0  0  0  0  0  0  0
    8.4836   -1.1810   -1.2912 H   0  0  0  0  0  0  0  0  0  0  0  0
    8.2105   -1.5676    0.4721 H   0  0  0  0  0  0  0  0  0  0  0  0
  1  2  1  0
  2  3  1  0
  3  4  1  0
  4  5  1  0
  5  6  1  0
  5  7  1  0
  7  8  2  0
  8  9  1  0
  8 10  1  0
 10 11  2  0
 11 12  1  0
 12 13  2  0
 13 14  1  0
 14 15  2  0
 14 16  1  0
 16 17  1  0
 17 18  1  0
 18 19  1  0
 19 20  1  0
 20 16  1  0
 20 21  2  0
  1 22  1  0
  1 23  1  0
  1 24  1  0
  2 25  1  0
  2 26  1  0
  3 27  1  0
  3 28  1  0
  4 29  1  0
  4 30  1  0
  5 31  1  1
  6 32  1  0
  7 33  1  0
  9 34  1  0
  9 35  1  0
  9 36  1  0
 10 37  1  0
 11 38  1  0
 12 39  1  0
 13 40  1  0
 17 41  1  0
 17 42  1  0
 18 43  1  0
 18 44  1  0
 19 45  1  0
 19 46  1  0
M  END
> <ID>
HT1604

> <Class>
1.0

> <Clusters>
268

> <Fold>
3

$$$$