
     RDKit          3D

 43 43  0  0  0  0  0  0  0  0999 V2000
   -0.9340    4.6244   -0.6582 C   0  0  0  0  0  0  0  0  0  0  0  0
   -0.7825    3.3310    0.0758 C   0  0  0  0  0  0  0  0  0  0  0  0
   -1.5420    3.0884    1.0519 O   0  0  0  0  0  0  0  0  0  0  0  0
    0.2150    2.3787   -0.3234 N   0  0  0  0  0  0  0  0  0  0  0  0
    0.3575    1.0672    0.3254 C   0  0  2  0  0  0  0  0  0  0  0  0
    1.8094    0.5442    0.1169 C   0  0  1  0  0  0  0  0  0  0  0  0
    2.1864   -0.4135    1.1654 N   0  0  0  0  0  0  0  0  0  0  0  0
    3.5183   -0.9371    1.3327 C   0  0  0  0  0  0  0  0  0  0  0  0
    3.7286   -1.9002    2.1729 N   0  0  0  0  0  0  0  0  0  0  0  0
    4.6268   -0.4073    0.5987 N   0  0  0  0  0  0  0  0  0  0  0  0
    1.9557   -0.1034   -1.2322 C   0  0  0  0  0  0  0  0  0  0  0  0
    1.0021   -0.9302   -1.6629 C   0  0  0  0  0  0  0  0  0  0  0  0
   -0.1855   -1.0255   -0.9347 O   0  0  0  0  0  0  0  0  0  0  0  0
   -0.7409    0.0889   -0.2262 C   0  0  1  0  0  0  0  0  0  0  0  0
   -1.7100   -0.4126    0.8764 C   0  0  2  0  0  0  0  0  0  0  0  0
   -1.0175   -1.1700    1.8374 O   0  0  0  0  0  0  0  0  0  0  0  0
   -2.9027   -1.2144    0.2890 C   0  0  2  0  0  0  0  0  0  0  0  0
   -3.5943   -0.4077   -0.6306 O   0  0  0  0  0  0  0  0  0  0  0  0
   -3.8850   -1.6654    1.3880 C   0  0  0  0  0  0  0  0  0  0  0  0
   -3.3086   -2.6362    2.2197 O   0  0  0  0  0  0  0  0  0  0  0  0
    1.1751   -1.7506   -2.8721 C   0  0  0  0  0  0  0  0  0  0  0  0
    0.2471   -2.5183   -3.2417 O   0  0  0  0  0  0  0  0  0  0  0  0
    2.3532   -1.6883   -3.6122 O   0  0  0  0  0  0  0  0  0  0  0  0
   -1.9590    4.6944   -1.0785 H   0  0  0  0  0  0  0  0  0  0  0  0
   -0.7685    5.4700    0.0416 H   0  0  0  0  0  0  0  0  0  0  0  0
   -0.2017    4.6997   -1.4889 H   0  0  0  0  0  0  0  0  0  0  0  0
    0.8271    2.6118   -1.1385 H   0  0  0  0  0  0  0  0  0  0  0  0
    0.2226    1.2201    1.4200 H   0  0  0  0  0  0  0  0  0  0  0  0
    2.4991    1.4138    0.1818 H   0  0  0  0  0  0  0  0  0  0  0  0
    1.4556   -0.7489    1.8302 H   0  0  0  0  0  0  0  0  0  0  0  0
    2.9558   -2.3205    2.7361 H   0  0  0  0  0  0  0  0  0  0  0  0
    5.5776   -0.8226    0.7181 H   0  0  0  0  0  0  0  0  0  0  0  0
    4.5328    0.4137   -0.0361 H   0  0  0  0  0  0  0  0  0  0  0  0
    2.8773    0.0244   -1.7862 H   0  0  0  0  0  0  0  0  0  0  0  0
   -1.3512    0.6538   -0.9651 H   0  0  0  0  0  0  0  0  0  0  0  0
   -2.1295    0.4794    1.3905 H   0  0  0  0  0  0  0  0  0  0  0  0
   -0.6904   -1.9950    1.3920 H   0  0  0  0  0  0  0  0  0  0  0  0
   -2.5071   -2.1182   -0.2323 H   0  0  0  0  0  0  0  0  0  0  0  0
   -4.1064   -1.0179   -1.2235 H   0  0  0  0  0  0  0  0  0  0  0  0
   -4.8112   -2.0744    0.9232 H   0  0  0  0  0  0  0  0  0  0  0  0
   -4.1850   -0.7930    2.0070 H   0  0  0  0  0  0  0  0  0  0  0  0
   -3.2849   -3.4803    1.6976 H   0  0  0  0  0  0  0  0  0  0  0  0
    2.4746   -2.2524   -4.4448 H   0  0  0  0  0  0  0  0  0  0  0  0
  1  2  1  0
  2  3  2  0
  2  4  1  0
  5  4  1  0
  5  6  1  0
  6  7  1  0
  7  8  1  0
  8  9  2  3
  8 10  1  0
  6 11  1  0
 11 12  2  0
 12 13  1  0
 13 14  1  0
 14  5  1  0
 14 15  1  0
 15 16  1  0
 15 17  1  0
 17 18  1  0
 17 19  1  0
 19 20  1  0
 12 21  1  0
 21 22  2  0
 21 23  1  0
  1 24  1  0
  1 25  1  0
  1 26  1  0
  4 27  1  0
  5 28  1  1
  6 29  1  6
  7 30  1  0
  9 31  1  0
 10 32  1  0
 10 33  1  0
 11 34  1  0
 14 35  1  6
 15 36  1  1
 16 37  1  0
 17 38  1  6
 18 39  1  0
 19 40  1  0
 19 41  1  0
 20 42  1  0
 23 43  1  0
M  END
> <ID>
HT2209

> <Class>
1.0

> <Clusters>
174

> <Fold>
3

$$$$