
     RDKit          3D

 57 60  0  0  0  0  0  0  0  0999 V2000
    4.7277    2.3617    2.0540 C   0  0  0  0  0  0  0  0  0  0  0  0
    5.6059    1.8379    0.9472 C   0  0  0  0  0  0  0  0  0  0  0  0
    6.8445    2.4599    0.7075 C   0  0  0  0  0  0  0  0  0  0  0  0
    7.6701    2.0236   -0.3297 C   0  0  0  0  0  0  0  0  0  0  0  0
    7.2712    0.9636   -1.1418 C   0  0  0  0  0  0  0  0  0  0  0  0
    6.0446    0.3352   -0.9210 C   0  0  0  0  0  0  0  0  0  0  0  0
    5.1982    0.7593    0.1194 C   0  0  0  0  0  0  0  0  0  0  0  0
    3.9044    0.0653    0.3196 C   0  0  0  0  0  0  0  0  0  0  0  0
    3.5656   -0.2908    1.4805 O   0  0  0  0  0  0  0  0  0  0  0  0
    3.0622   -0.2426   -0.8054 N   0  0  0  0  0  0  0  0  0  0  0  0
    1.7240   -0.7557   -0.6895 C   0  0  0  0  0  0  0  0  0  0  0  0
    0.8641   -0.3301    0.3334 C   0  0  0  0  0  0  0  0  0  0  0  0
   -0.4372   -0.8258    0.4131 C   0  0  0  0  0  0  0  0  0  0  0  0
   -0.9185   -1.7384   -0.5395 C   0  0  0  0  0  0  0  0  0  0  0  0
   -2.3061   -2.2530   -0.4163 C   0  0  0  0  0  0  0  0  0  0  0  0
   -2.4882   -3.5005   -0.4535 O   0  0  0  0  0  0  0  0  0  0  0  0
   -3.4402   -1.3691   -0.2386 N   0  0  0  0  0  0  0  0  0  0  0  0
   -4.7339   -1.9124    0.1849 C   0  0  0  0  0  0  0  0  0  0  0  0
   -4.8095   -1.9830    1.7100 C   0  0  0  0  0  0  0  0  0  0  0  0
   -4.1482   -0.7806    2.4042 C   0  0  0  0  0  0  0  0  0  0  0  0
   -4.5477    0.5932    1.8211 C   0  0  0  0  0  0  0  0  0  0  0  0
   -5.9378    0.6762    1.6385 O   0  0  0  0  0  0  0  0  0  0  0  0
   -3.8475    0.9843    0.5228 C   0  0  0  0  0  0  0  0  0  0  0  0
   -3.7404    2.3618    0.2481 C   0  0  0  0  0  0  0  0  0  0  0  0
   -3.1320    2.8192   -0.9224 C   0  0  0  0  0  0  0  0  0  0  0  0
   -3.0045    4.5416   -1.2304 Cl  0  0  0  0  0  0  0  0  0  0  0  0
   -2.6365    1.9080   -1.8520 C   0  0  0  0  0  0  0  0  0  0  0  0
   -2.7451    0.5396   -1.6136 C   0  0  0  0  0  0  0  0  0  0  0  0
   -3.3314    0.0568   -0.4293 C   0  0  0  0  0  0  0  0  0  0  0  0
   -0.0681   -2.1454   -1.5969 C   0  0  0  0  0  0  0  0  0  0  0  0
   -0.5375   -3.0991   -2.6645 C   0  0  0  0  0  0  0  0  0  0  0  0
    1.2458   -1.6499   -1.6559 C   0  0  0  0  0  0  0  0  0  0  0  0
    5.1543    3.2762    2.5184 H   0  0  0  0  0  0  0  0  0  0  0  0
    4.6237    1.5955    2.8496 H   0  0  0  0  0  0  0  0  0  0  0  0
    3.7253    2.6190    1.6511 H   0  0  0  0  0  0  0  0  0  0  0  0
    7.1737    3.2880    1.3230 H   0  0  0  0  0  0  0  0  0  0  0  0
    8.6217    2.5091   -0.5040 H   0  0  0  0  0  0  0  0  0  0  0  0
    7.9156    0.6249   -1.9428 H   0  0  0  0  0  0  0  0  0  0  0  0
    5.7671   -0.4988   -1.5535 H   0  0  0  0  0  0  0  0  0  0  0  0
    3.4533   -0.1312   -1.7677 H   0  0  0  0  0  0  0  0  0  0  0  0
    1.1879    0.4022    1.0609 H   0  0  0  0  0  0  0  0  0  0  0  0
   -1.0696   -0.4913    1.2231 H   0  0  0  0  0  0  0  0  0  0  0  0
   -5.5578   -1.2722   -0.2010 H   0  0  0  0  0  0  0  0  0  0  0  0
   -4.9028   -2.9220   -0.2477 H   0  0  0  0  0  0  0  0  0  0  0  0
   -4.3020   -2.9098    2.0556 H   0  0  0  0  0  0  0  0  0  0  0  0
   -5.8758   -2.0534    2.0167 H   0  0  0  0  0  0  0  0  0  0  0  0
   -3.0443   -0.8909    2.3823 H   0  0  0  0  0  0  0  0  0  0  0  0
   -4.4401   -0.8086    3.4769 H   0  0  0  0  0  0  0  0  0  0  0  0
   -4.2419    1.3427    2.5898 H   0  0  0  0  0  0  0  0  0  0  0  0
   -6.3465    0.7088    2.5430 H   0  0  0  0  0  0  0  0  0  0  0  0
   -4.1338    3.0875    0.9502 H   0  0  0  0  0  0  0  0  0  0  0  0
   -2.1756    2.2585   -2.7667 H   0  0  0  0  0  0  0  0  0  0  0  0
   -2.3799   -0.1516   -2.3625 H   0  0  0  0  0  0  0  0  0  0  0  0
   -0.5708   -4.1301   -2.2549 H   0  0  0  0  0  0  0  0  0  0  0  0
    0.1423   -3.0922   -3.5430 H   0  0  0  0  0  0  0  0  0  0  0  0
   -1.5479   -2.8094   -3.0228 H   0  0  0  0  0  0  0  0  0  0  0  0
    1.9059   -1.9615   -2.4568 H   0  0  0  0  0  0  0  0  0  0  0  0
  1  2  1  0
  2  3  2  0
  3  4  1  0
  4  5  2  0
  5  6  1  0
  6  7  2  0
  7  2  1  0
  7  8  1  0
  8  9  2  0
  8 10  1  0
 10 11  1  0
 11 12  2  0
 12 13  1  0
 13 14  2  0
 14 15  1  0
 15 16  2  0
 15 17  1  0
 17 18  1  0
 18 19  1  0
 19 20  1  0
 20 21  1  0
 21 22  1  0
 21 23  1  0
 23 24  2  0
 24 25  1  0
 25 26  1  0
 25 27  2  0
 27 28  1  0
 28 29  2  0
 29 17  1  0
 29 23  1  0
 14 30  1  0
 30 31  1  0
 30 32  2  0
 32 11  1  0
  1 33  1  0
  1 34  1  0
  1 35  1  0
  3 36  1  0
  4 37  1  0
  5 38  1  0
  6 39  1  0
 10 40  1  0
 12 41  1  0
 13 42  1  0
 18 43  1  0
 18 44  1  0
 19 45  1  0
 19 46  1  0
 20 47  1  0
 20 48  1  0
 21 49  1  0
 22 50  1  0
 24 51  1  0
 27 52  1  0
 28 53  1  0
 31 54  1  0
 31 55  1  0
 31 56  1  0
 32 57  1  0
M  END
> <ID>
HT2089

> <Class>
1.0

> <Clusters>
197

> <Fold>
3

$$$$