
     RDKit          3D

 29 30  0  0  0  0  0  0  0  0999 V2000
   -4.6956   -1.5048    1.4942 N   0  0  0  0  0  0  0  0  0  0  0  0
   -3.5267   -0.9399    0.9054 C   0  0  0  0  0  0  0  0  0  0  0  0
   -2.5294   -1.7468    0.4630 N   0  0  0  0  0  0  0  0  0  0  0  0
   -1.4042   -1.2199   -0.0813 C   0  0  0  0  0  0  0  0  0  0  0  0
   -0.4973   -2.0050   -0.4748 O   0  0  0  0  0  0  0  0  0  0  0  0
   -1.2687    0.1432   -0.1988 N   0  0  0  0  0  0  0  0  0  0  0  0
   -2.2830    0.9439    0.2546 C   0  0  0  0  0  0  0  0  0  0  0  0
   -3.4018    0.4030    0.7986 N   0  0  0  0  0  0  0  0  0  0  0  0
   -0.0279    0.8001   -0.6583 C   0  0  2  0  0  0  0  0  0  0  0  0
    0.6882    0.0036   -1.5802 O   0  0  0  0  0  0  0  0  0  0  0  0
    2.0688    0.0927   -1.2610 C   0  0  2  0  0  0  0  0  0  0  0  0
    2.6104   -1.3030   -0.9186 C   0  0  0  0  0  0  0  0  0  0  0  0
    2.3912   -2.1748   -1.9931 O   0  0  0  0  0  0  0  0  0  0  0  0
    2.2631    1.0706   -0.0931 C   0  0  1  0  0  0  0  0  0  0  0  0
    2.6266    2.3307   -0.6030 O   0  0  0  0  0  0  0  0  0  0  0  0
    0.8854    1.1014    0.5287 C   0  0  1  0  0  0  0  0  0  0  0  0
    0.5809    2.3191    1.1763 O   0  0  0  0  0  0  0  0  0  0  0  0
   -4.7989   -2.5412    1.5781 H   0  0  0  0  0  0  0  0  0  0  0  0
   -5.4645   -0.8877    1.8419 H   0  0  0  0  0  0  0  0  0  0  0  0
   -2.1926    2.0241    0.2143 H   0  0  0  0  0  0  0  0  0  0  0  0
   -0.2861    1.7456   -1.1885 H   0  0  0  0  0  0  0  0  0  0  0  0
    2.6185    0.4551   -2.1594 H   0  0  0  0  0  0  0  0  0  0  0  0
    2.1042   -1.6842   -0.0008 H   0  0  0  0  0  0  0  0  0  0  0  0
    3.7021   -1.2440   -0.7178 H   0  0  0  0  0  0  0  0  0  0  0  0
    2.5737   -3.0846   -1.6359 H   0  0  0  0  0  0  0  0  0  0  0  0
    3.0301    0.7149    0.6366 H   0  0  0  0  0  0  0  0  0  0  0  0
    2.9309    2.8786    0.1651 H   0  0  0  0  0  0  0  0  0  0  0  0
    0.8149    0.2759    1.2755 H   0  0  0  0  0  0  0  0  0  0  0  0
    0.4877    3.0332    0.4904 H   0  0  0  0  0  0  0  0  0  0  0  0
  1  2  1  0
  2  3  2  0
  3  4  1  0
  4  5  2  0
  4  6  1  0
  6  7  1  0
  7  8  2  0
  8  2  1  0
  9  6  1  0
  9 10  1  0
 10 11  1  0
 11 12  1  0
 12 13  1  0
 11 14  1  0
 14 15  1  0
 14 16  1  0
 16  9  1  0
 16 17  1  0
  1 18  1  0
  1 19  1  0
  7 20  1  0
  9 21  1  6
 11 22  1  6
 12 23  1  0
 12 24  1  0
 13 25  1  0
 14 26  1  1
 15 27  1  0
 16 28  1  1
 17 29  1  0
M  END
> <ID>
HT0209

> <Class>
1.0

> <Clusters>
25

> <Fold>
3

$$$$