
     RDKit          3D

 47 50  0  0  0  0  0  0  0  0999 V2000
   -3.6146    4.4334    0.3723 C   0  0  0  0  0  0  0  0  0  0  0  0
   -3.6629    2.9545    0.5770 C   0  0  0  0  0  0  0  0  0  0  0  0
   -4.5873    2.3407    1.2774 O   0  0  0  0  0  0  0  0  0  0  0  0
   -4.3794    1.0564    1.3106 N   0  0  0  0  0  0  0  0  0  0  0  0
   -3.2629    0.8110    0.5953 C   0  0  0  0  0  0  0  0  0  0  0  0
   -2.7563   -0.5544    0.3476 C   0  0  0  0  0  0  0  0  0  0  0  0
   -2.2887   -0.9322   -0.9233 C   0  0  0  0  0  0  0  0  0  0  0  0
   -1.8225   -2.2317   -1.1453 C   0  0  0  0  0  0  0  0  0  0  0  0
   -1.8285   -3.1653   -0.1060 C   0  0  0  0  0  0  0  0  0  0  0  0
   -2.3086   -2.8033    1.1553 C   0  0  0  0  0  0  0  0  0  0  0  0
   -2.7785   -1.5056    1.3807 C   0  0  0  0  0  0  0  0  0  0  0  0
   -2.7627    2.0139    0.1083 C   0  0  0  0  0  0  0  0  0  0  0  0
   -1.5077    2.2747   -0.6279 C   0  0  0  0  0  0  0  0  0  0  0  0
   -1.4526    3.2464   -1.4288 O   0  0  0  0  0  0  0  0  0  0  0  0
   -0.3460    1.4636   -0.4007 N   0  0  0  0  0  0  0  0  0  0  0  0
    0.8501    1.5524   -1.2456 C   0  0  1  0  0  0  0  0  0  0  0  0
    2.1100    1.3552   -0.5577 C   0  0  1  0  0  0  0  0  0  0  0  0
    2.1306    1.0080    1.2403 S   0  0  0  0  0  0  0  0  0  0  0  0
    2.5629   -0.7874    1.0128 C   0  0  0  0  0  0  0  0  0  0  0  0
    1.3078   -1.6140    1.3488 C   0  0  0  0  0  0  0  0  0  0  0  0
    3.6747   -1.1632    2.0119 C   0  0  0  0  0  0  0  0  0  0  0  0
    2.9492   -1.0228   -0.4861 C   0  0  1  0  0  0  0  0  0  0  0  0
    2.3526    0.0895   -1.1767 N   0  0  0  0  0  0  0  0  0  0  0  0
    1.1072    0.2638   -1.9601 C   0  0  0  0  0  0  0  0  0  0  0  0
    0.4960   -0.4158   -2.8250 O   0  0  0  0  0  0  0  0  0  0  0  0
    4.4290   -1.0289   -0.7642 C   0  0  0  0  0  0  0  0  0  0  0  0
    5.1137    0.0192   -0.6122 O   0  0  0  0  0  0  0  0  0  0  0  0
    5.0437   -2.1998   -1.1962 O   0  0  0  0  0  0  0  0  0  0  0  0
   -4.4600    4.9172    0.9047 H   0  0  0  0  0  0  0  0  0  0  0  0
   -3.6929    4.6654   -0.7101 H   0  0  0  0  0  0  0  0  0  0  0  0
   -2.6599    4.8359    0.7704 H   0  0  0  0  0  0  0  0  0  0  0  0
   -2.2933   -0.2267   -1.7443 H   0  0  0  0  0  0  0  0  0  0  0  0
   -1.4587   -2.5158   -2.1241 H   0  0  0  0  0  0  0  0  0  0  0  0
   -1.4643   -4.1697   -0.2787 H   0  0  0  0  0  0  0  0  0  0  0  0
   -2.3162   -3.5282    1.9589 H   0  0  0  0  0  0  0  0  0  0  0  0
   -3.1451   -1.2391    2.3645 H   0  0  0  0  0  0  0  0  0  0  0  0
   -0.4017    0.7267    0.3346 H   0  0  0  0  0  0  0  0  0  0  0  0
    0.8544    2.4227   -1.9373 H   0  0  0  0  0  0  0  0  0  0  0  0
    2.8894    2.0931   -0.8502 H   0  0  0  0  0  0  0  0  0  0  0  0
    0.4961   -1.4046    0.6230 H   0  0  0  0  0  0  0  0  0  0  0  0
    1.5331   -2.7015    1.3069 H   0  0  0  0  0  0  0  0  0  0  0  0
    0.9357   -1.3703    2.3671 H   0  0  0  0  0  0  0  0  0  0  0  0
    3.3081   -1.0655    3.0565 H   0  0  0  0  0  0  0  0  0  0  0  0
    4.5496   -0.4886    1.9049 H   0  0  0  0  0  0  0  0  0  0  0  0
    4.0045   -2.2120    1.8506 H   0  0  0  0  0  0  0  0  0  0  0  0
    2.5147   -1.9732   -0.8688 H   0  0  0  0  0  0  0  0  0  0  0  0
    6.0380   -2.2241   -1.3882 H   0  0  0  0  0  0  0  0  0  0  0  0
  1  2  1  0
  2  3  1  0
  3  4  1  0
  4  5  2  0
  5  6  1  0
  6  7  2  0
  7  8  1  0
  8  9  2  0
  9 10  1  0
 10 11  2  0
 11  6  1  0
  5 12  1  0
 12  2  2  0
 12 13  1  0
 13 14  2  0
 13 15  1  0
 16 15  1  0
 16 17  1  0
 17 18  1  0
 18 19  1  0
 19 20  1  0
 19 21  1  0
 19 22  1  0
 22 23  1  0
 23 17  1  0
 23 24  1  0
 24 16  1  0
 24 25  2  0
 22 26  1  0
 26 27  2  0
 26 28  1  0
  1 29  1  0
  1 30  1  0
  1 31  1  0
  7 32  1  0
  8 33  1  0
  9 34  1  0
 10 35  1  0
 11 36  1  0
 15 37  1  0
 16 38  1  6
 17 39  1  1
 20 40  1  0
 20 41  1  0
 20 42  1  0
 21 43  1  0
 21 44  1  0
 21 45  1  0
 22 46  1  6
 28 47  1  0
M  END
> <ID>
HT1549

> <Class>
1.0

> <Clusters>
62

> <Fold>
3

$$$$