
     RDKit          3D

 54 56  0  0  0  0  0  0  0  0999 V2000
    1.5259    0.2794   -2.4739 C   0  0  0  0  0  0  0  0  0  0  0  0
    0.4321    0.3179   -1.4366 C   0  0  0  0  0  0  0  0  0  0  0  0
   -0.8001   -0.2857   -1.7160 C   0  0  0  0  0  0  0  0  0  0  0  0
   -1.8663   -0.2679   -0.7904 C   0  0  0  0  0  0  0  0  0  0  0  0
   -1.7116    0.4778    0.4144 C   0  0  0  0  0  0  0  0  0  0  0  0
   -0.4510    1.0430    0.7012 C   0  0  0  0  0  0  0  0  0  0  0  0
    0.6152    0.9695   -0.2027 C   0  0  0  0  0  0  0  0  0  0  0  0
    1.9138    1.5878    0.1673 C   0  0  0  0  0  0  0  0  0  0  0  0
    1.9617    2.9033    0.4128 C   0  0  0  0  0  0  0  0  0  0  0  0
    3.1260    0.7375    0.3146 C   0  0  0  0  0  0  0  0  0  0  0  0
    3.0102   -0.5728    0.8098 C   0  0  0  0  0  0  0  0  0  0  0  0
    4.1379   -1.3886    0.9345 C   0  0  0  0  0  0  0  0  0  0  0  0
    5.4068   -0.9136    0.5619 C   0  0  0  0  0  0  0  0  0  0  0  0
    5.5235    0.3930    0.0601 C   0  0  0  0  0  0  0  0  0  0  0  0
    4.3959    1.2094   -0.0642 C   0  0  0  0  0  0  0  0  0  0  0  0
    6.6033   -1.7743    0.6908 C   0  0  0  0  0  0  0  0  0  0  0  0
    6.5003   -2.9485    1.1387 O   0  0  0  0  0  0  0  0  0  0  0  0
    7.8565   -1.2948    0.3180 O   0  0  0  0  0  0  0  0  0  0  0  0
   -2.8395    0.6174    1.4491 C   0  0  0  0  0  0  0  0  0  0  0  0
   -2.5026   -0.2534    2.6814 C   0  0  0  0  0  0  0  0  0  0  0  0
   -2.9849    2.0905    1.9072 C   0  0  0  0  0  0  0  0  0  0  0  0
   -4.2082    0.1954    0.8597 C   0  0  0  0  0  0  0  0  0  0  0  0
   -4.1192   -1.1039    0.0693 C   0  0  0  0  0  0  0  0  0  0  0  0
   -3.1779   -0.9822   -1.1548 C   0  0  0  0  0  0  0  0  0  0  0  0
   -3.8808   -0.1979   -2.2866 C   0  0  0  0  0  0  0  0  0  0  0  0
   -2.8992   -2.4240   -1.6489 C   0  0  0  0  0  0  0  0  0  0  0  0
    1.1753   -0.1714   -3.4265 H   0  0  0  0  0  0  0  0  0  0  0  0
    1.8749    1.3107   -2.6923 H   0  0  0  0  0  0  0  0  0  0  0  0
    2.3777   -0.3283   -2.1061 H   0  0  0  0  0  0  0  0  0  0  0  0
   -0.9266   -0.7716   -2.6732 H   0  0  0  0  0  0  0  0  0  0  0  0
   -0.2803    1.5372    1.6479 H   0  0  0  0  0  0  0  0  0  0  0  0
    1.0757    3.5185    0.3128 H   0  0  0  0  0  0  0  0  0  0  0  0
    2.8751    3.3866    0.7342 H   0  0  0  0  0  0  0  0  0  0  0  0
    2.0461   -0.9652    1.1090 H   0  0  0  0  0  0  0  0  0  0  0  0
    4.0149   -2.3919    1.3230 H   0  0  0  0  0  0  0  0  0  0  0  0
    6.4862    0.7849   -0.2434 H   0  0  0  0  0  0  0  0  0  0  0  0
    4.5162    2.2020   -0.4789 H   0  0  0  0  0  0  0  0  0  0  0  0
    8.6821   -1.8758    0.4022 H   0  0  0  0  0  0  0  0  0  0  0  0
   -1.5884    0.1188    3.1911 H   0  0  0  0  0  0  0  0  0  0  0  0
   -3.3333   -0.2334    3.4193 H   0  0  0  0  0  0  0  0  0  0  0  0
   -2.3132   -1.3073    2.3893 H   0  0  0  0  0  0  0  0  0  0  0  0
   -3.8915    2.2155    2.5387 H   0  0  0  0  0  0  0  0  0  0  0  0
   -3.0779    2.7635    1.0273 H   0  0  0  0  0  0  0  0  0  0  0  0
   -2.1223    2.4286    2.5171 H   0  0  0  0  0  0  0  0  0  0  0  0
   -4.6092    0.9934    0.1983 H   0  0  0  0  0  0  0  0  0  0  0  0
   -4.9545    0.0671    1.6749 H   0  0  0  0  0  0  0  0  0  0  0  0
   -5.1423   -1.3923   -0.2598 H   0  0  0  0  0  0  0  0  0  0  0  0
   -3.7738   -1.9149    0.7460 H   0  0  0  0  0  0  0  0  0  0  0  0
   -3.2711   -0.2113   -3.2152 H   0  0  0  0  0  0  0  0  0  0  0  0
   -4.8692   -0.6467   -2.5245 H   0  0  0  0  0  0  0  0  0  0  0  0
   -4.0326    0.8648   -2.0051 H   0  0  0  0  0  0  0  0  0  0  0  0
   -2.2619   -2.9686   -0.9187 H   0  0  0  0  0  0  0  0  0  0  0  0
   -2.3933   -2.4403   -2.6360 H   0  0  0  0  0  0  0  0  0  0  0  0
   -3.8507   -2.9869   -1.7684 H   0  0  0  0  0  0  0  0  0  0  0  0
  1  2  1  0
  2  3  2  0
  3  4  1  0
  4  5  2  0
  5  6  1  0
  6  7  2  0
  7  2  1  0
  7  8  1  0
  8  9  2  3
  8 10  1  0
 10 11  2  0
 11 12  1  0
 12 13  2  0
 13 14  1  0
 14 15  2  0
 15 10  1  0
 13 16  1  0
 16 17  2  0
 16 18  1  0
  5 19  1  0
 19 20  1  0
 19 21  1  0
 19 22  1  0
 22 23  1  0
 23 24  1  0
 24  4  1  0
 24 25  1  0
 24 26  1  0
  1 27  1  0
  1 28  1  0
  1 29  1  0
  3 30  1  0
  6 31  1  0
  9 32  1  0
  9 33  1  0
 11 34  1  0
 12 35  1  0
 14 36  1  0
 15 37  1  0
 18 38  1  0
 20 39  1  0
 20 40  1  0
 20 41  1  0
 21 42  1  0
 21 43  1  0
 21 44  1  0
 22 45  1  0
 22 46  1  0
 23 47  1  0
 23 48  1  0
 25 49  1  0
 25 50  1  0
 25 51  1  0
 26 52  1  0
 26 53  1  0
 26 54  1  0
M  END
> <ID>
HT0280

> <Class>
1.0

> <Clusters>
36

> <Fold>
3

$$$$