
     RDKit          3D

 56 57  0  0  0  0  0  0  0  0999 V2000
    7.3450   -2.4953   -0.5996 C   0  0  0  0  0  0  0  0  0  0  0  0
    6.4675   -2.5240    0.6478 C   0  0  0  0  0  0  0  0  0  0  0  0
    5.5454   -1.4338    0.6470 O   0  0  0  0  0  0  0  0  0  0  0  0
    5.8688   -0.0853    0.8777 C   0  0  0  0  0  0  0  0  0  0  0  0
    7.1440    0.3203    1.3209 C   0  0  0  0  0  0  0  0  0  0  0  0
    7.4177    1.6721    1.5398 C   0  0  0  0  0  0  0  0  0  0  0  0
    6.4279    2.6306    1.3246 C   0  0  0  0  0  0  0  0  0  0  0  0
    5.1589    2.2415    0.8917 C   0  0  0  0  0  0  0  0  0  0  0  0
    4.8703    0.8808    0.6668 C   0  0  0  0  0  0  0  0  0  0  0  0
    3.6073    0.4492    0.2324 O   0  0  0  0  0  0  0  0  0  0  0  0
    2.5025    1.3120   -0.0251 C   0  0  0  0  0  0  0  0  0  0  0  0
    1.3056    0.4819   -0.4759 C   0  0  0  0  0  0  0  0  0  0  0  0
    0.1542    1.3608   -0.7211 N   0  0  0  0  0  0  0  0  0  0  0  0
   -1.1008    0.6095   -0.9153 C   0  0  2  0  0  0  0  0  0  0  0  0
   -1.1801    0.0001   -2.3293 C   0  0  0  0  0  0  0  0  0  0  0  0
   -2.2843    1.5641   -0.6599 C   0  0  0  0  0  0  0  0  0  0  0  0
   -3.6121    0.8456   -0.6333 C   0  0  0  0  0  0  0  0  0  0  0  0
   -4.5515    1.0521   -1.6527 C   0  0  0  0  0  0  0  0  0  0  0  0
   -5.7805    0.3905   -1.6255 C   0  0  0  0  0  0  0  0  0  0  0  0
   -6.0948   -0.4909   -0.5733 C   0  0  0  0  0  0  0  0  0  0  0  0
   -7.3256   -1.1652   -0.5162 O   0  0  0  0  0  0  0  0  0  0  0  0
   -8.3634   -1.0374   -1.4825 C   0  0  0  0  0  0  0  0  0  0  0  0
   -5.1531   -0.7009    0.4520 C   0  0  0  0  0  0  0  0  0  0  0  0
   -3.9237   -0.0259    0.4209 C   0  0  0  0  0  0  0  0  0  0  0  0
   -5.5190   -1.7902    1.7940 S   0  0  0  0  0  0  0  0  0  0  0  0
   -6.0723   -3.0817    1.2605 O   0  0  0  0  0  0  0  0  0  0  0  0
   -4.2695   -2.0906    2.5739 O   0  0  0  0  0  0  0  0  0  0  0  0
   -6.6764   -1.0516    2.8447 N   0  0  0  0  0  0  0  0  0  0  0  0
    8.0163   -3.3796   -0.6030 H   0  0  0  0  0  0  0  0  0  0  0  0
    7.9672   -1.5775   -0.6241 H   0  0  0  0  0  0  0  0  0  0  0  0
    6.7085   -2.5241   -1.5092 H   0  0  0  0  0  0  0  0  0  0  0  0
    5.8861   -3.4699    0.6408 H   0  0  0  0  0  0  0  0  0  0  0  0
    7.0839   -2.5209    1.5714 H   0  0  0  0  0  0  0  0  0  0  0  0
    7.9299   -0.3975    1.5059 H   0  0  0  0  0  0  0  0  0  0  0  0
    8.3993    1.9768    1.8794 H   0  0  0  0  0  0  0  0  0  0  0  0
    6.6435    3.6775    1.4959 H   0  0  0  0  0  0  0  0  0  0  0  0
    4.4098    3.0055    0.7351 H   0  0  0  0  0  0  0  0  0  0  0  0
    2.2367    1.8654    0.9020 H   0  0  0  0  0  0  0  0  0  0  0  0
    2.7731    2.0351   -0.8253 H   0  0  0  0  0  0  0  0  0  0  0  0
    1.0709   -0.2521    0.3266 H   0  0  0  0  0  0  0  0  0  0  0  0
    1.5798   -0.0694   -1.4015 H   0  0  0  0  0  0  0  0  0  0  0  0
    0.3479    1.9504   -1.5655 H   0  0  0  0  0  0  0  0  0  0  0  0
   -1.1621   -0.2176   -0.1726 H   0  0  0  0  0  0  0  0  0  0  0  0
   -0.3452   -0.7098   -2.4975 H   0  0  0  0  0  0  0  0  0  0  0  0
   -2.1253   -0.5688   -2.4541 H   0  0  0  0  0  0  0  0  0  0  0  0
   -1.1382    0.7959   -3.1033 H   0  0  0  0  0  0  0  0  0  0  0  0
   -2.1424    2.0730    0.3187 H   0  0  0  0  0  0  0  0  0  0  0  0
   -2.2851    2.3611   -1.4364 H   0  0  0  0  0  0  0  0  0  0  0  0
   -4.3314    1.7224   -2.4745 H   0  0  0  0  0  0  0  0  0  0  0  0
   -6.4806    0.5728   -2.4290 H   0  0  0  0  0  0  0  0  0  0  0  0
   -8.0005   -1.3678   -2.4786 H   0  0  0  0  0  0  0  0  0  0  0  0
   -8.7122    0.0157   -1.5311 H   0  0  0  0  0  0  0  0  0  0  0  0
   -9.2166   -1.6805   -1.1844 H   0  0  0  0  0  0  0  0  0  0  0  0
   -3.2071   -0.1724    1.2191 H   0  0  0  0  0  0  0  0  0  0  0  0
   -6.2845   -0.1253    3.1268 H   0  0  0  0  0  0  0  0  0  0  0  0
   -7.5298   -0.8568    2.2749 H   0  0  0  0  0  0  0  0  0  0  0  0
  1  2  1  0
  2  3  1  0
  3  4  1  0
  4  5  2  0
  5  6  1  0
  6  7  2  0
  7  8  1  0
  8  9  2  0
  9  4  1  0
  9 10  1  0
 10 11  1  0
 11 12  1  0
 12 13  1  0
 13 14  1  0
 14 15  1  0
 14 16  1  0
 16 17  1  0
 17 18  2  0
 18 19  1  0
 19 20  2  0
 20 21  1  0
 21 22  1  0
 20 23  1  0
 23 24  2  0
 24 17  1  0
 23 25  1  0
 25 26  2  0
 25 27  2  0
 25 28  1  0
  1 29  1  0
  1 30  1  0
  1 31  1  0
  2 32  1  0
  2 33  1  0
  5 34  1  0
  6 35  1  0
  7 36  1  0
  8 37  1  0
 11 38  1  0
 11 39  1  0
 12 40  1  0
 12 41  1  0
 13 42  1  0
 14 43  1  1
 15 44  1  0
 15 45  1  0
 15 46  1  0
 16 47  1  0
 16 48  1  0
 18 49  1  0
 19 50  1  0
 22 51  1  0
 22 52  1  0
 22 53  1  0
 24 54  1  0
 28 55  1  0
 28 56  1  0
M  END
> <ID>
HT1979

> <Class>
1.0

> <Clusters>
271

> <Fold>
3

$$$$