
     RDKit          3D

 41 43  0  0  0  0  0  0  0  0999 V2000
    6.6738   -1.9217    1.5466 C   0  0  0  0  0  0  0  0  0  0  0  0
    6.5245   -0.5054    0.4820 S   0  0  0  0  0  0  0  0  0  0  0  0
    7.3181    0.6372    1.0513 O   0  0  0  0  0  0  0  0  0  0  0  0
    7.0681   -0.8390   -0.8790 O   0  0  0  0  0  0  0  0  0  0  0  0
    4.8293   -0.0491    0.3511 C   0  0  0  0  0  0  0  0  0  0  0  0
    4.2757    0.8683    1.2503 C   0  0  0  0  0  0  0  0  0  0  0  0
    2.9273    1.2189    1.1563 C   0  0  0  0  0  0  0  0  0  0  0  0
    2.1099    0.6612    0.1581 C   0  0  0  0  0  0  0  0  0  0  0  0
    0.6910    1.0739    0.0818 C   0  0  0  0  0  0  0  0  0  0  0  0
    0.0470    1.2705    1.1486 O   0  0  0  0  0  0  0  0  0  0  0  0
    0.0736    1.3368   -1.1882 N   0  0  0  0  0  0  0  0  0  0  0  0
   -1.3487    1.3925   -1.3917 C   0  0  0  0  0  0  0  0  0  0  0  0
   -1.8665    2.2121   -2.4016 C   0  0  0  0  0  0  0  0  0  0  0  0
   -3.2415    2.2679   -2.6314 C   0  0  0  0  0  0  0  0  0  0  0  0
   -4.1213    1.4930   -1.8685 C   0  0  0  0  0  0  0  0  0  0  0  0
   -5.8478    1.6677   -2.1717 Cl  0  0  0  0  0  0  0  0  0  0  0  0
   -3.6161    0.6385   -0.8627 C   0  0  0  0  0  0  0  0  0  0  0  0
   -2.2272    0.5943   -0.6388 C   0  0  0  0  0  0  0  0  0  0  0  0
   -4.5100   -0.2284   -0.0580 C   0  0  0  0  0  0  0  0  0  0  0  0
   -4.3342   -0.3544    1.3306 C   0  0  0  0  0  0  0  0  0  0  0  0
   -5.1820   -1.1925    2.0576 C   0  0  0  0  0  0  0  0  0  0  0  0
   -6.1910   -1.8987    1.4019 C   0  0  0  0  0  0  0  0  0  0  0  0
   -6.3374   -1.7550    0.0213 C   0  0  0  0  0  0  0  0  0  0  0  0
   -5.5022   -0.9345   -0.6702 N   0  0  0  0  0  0  0  0  0  0  0  0
    2.6644   -0.2872   -0.7318 C   0  0  0  0  0  0  0  0  0  0  0  0
    1.6895   -1.1350   -1.9294 Cl  0  0  0  0  0  0  0  0  0  0  0  0
    4.0179   -0.6321   -0.6292 C   0  0  0  0  0  0  0  0  0  0  0  0
    6.0937   -2.7670    1.1223 H   0  0  0  0  0  0  0  0  0  0  0  0
    6.2782   -1.6724    2.5528 H   0  0  0  0  0  0  0  0  0  0  0  0
    7.7411   -2.2124    1.6314 H   0  0  0  0  0  0  0  0  0  0  0  0
    4.8867    1.3124    2.0258 H   0  0  0  0  0  0  0  0  0  0  0  0
    2.5241    1.9400    1.8570 H   0  0  0  0  0  0  0  0  0  0  0  0
    0.6972    1.5904   -1.9881 H   0  0  0  0  0  0  0  0  0  0  0  0
   -1.2026    2.8200   -3.0035 H   0  0  0  0  0  0  0  0  0  0  0  0
   -3.6248    2.9235   -3.4031 H   0  0  0  0  0  0  0  0  0  0  0  0
   -1.8281   -0.0941    0.0950 H   0  0  0  0  0  0  0  0  0  0  0  0
   -3.5592    0.1985    1.8470 H   0  0  0  0  0  0  0  0  0  0  0  0
   -5.0577   -1.2930    3.1281 H   0  0  0  0  0  0  0  0  0  0  0  0
   -6.8528   -2.5504    1.9576 H   0  0  0  0  0  0  0  0  0  0  0  0
   -7.1141   -2.2966   -0.5017 H   0  0  0  0  0  0  0  0  0  0  0  0
    4.4341   -1.3681   -1.3057 H   0  0  0  0  0  0  0  0  0  0  0  0
  1  2  1  0
  2  3  2  0
  2  4  2  0
  2  5  1  0
  5  6  2  0
  6  7  1  0
  7  8  2  0
  8  9  1  0
  9 10  2  0
  9 11  1  0
 11 12  1  0
 12 13  2  0
 13 14  1  0
 14 15  2  0
 15 16  1  0
 15 17  1  0
 17 18  2  0
 18 12  1  0
 17 19  1  0
 19 20  2  0
 20 21  1  0
 21 22  2  0
 22 23  1  0
 23 24  2  0
 24 19  1  0
  8 25  1  0
 25 26  1  0
 25 27  2  0
 27  5  1  0
  1 28  1  0
  1 29  1  0
  1 30  1  0
  6 31  1  0
  7 32  1  0
 11 33  1  0
 13 34  1  0
 14 35  1  0
 18 36  1  0
 20 37  1  0
 21 38  1  0
 22 39  1  0
 23 40  1  0
 27 41  1  0
M  END
> <ID>
HT2187

> <Class>
1.0

> <Clusters>
197

> <Fold>
3

$$$$