
     RDKit          3D

 49 51  0  0  0  0  0  0  0  0999 V2000
    2.1726   -1.2788    1.5556 C   0  0  0  0  0  0  0  0  0  0  0  0
    1.8492   -0.3886    0.3416 C   0  0  0  0  0  0  0  0  0  0  0  0
    0.6370   -0.9462   -0.4565 C   0  0  0  0  0  0  0  0  0  0  0  0
   -0.7425   -0.5482    0.1495 C   0  0  0  0  0  0  0  0  0  0  0  0
   -1.1210    0.9297    0.0948 C   0  0  0  0  0  0  0  0  0  0  0  0
   -0.4003    1.8331   -0.7249 C   0  0  0  0  0  0  0  0  0  0  0  0
   -0.7357    3.1834   -0.7829 C   0  0  0  0  0  0  0  0  0  0  0  0
   -1.8001    3.6704   -0.0383 C   0  0  0  0  0  0  0  0  0  0  0  0
   -2.5435    2.8064    0.7594 C   0  0  0  0  0  0  0  0  0  0  0  0
   -2.2436    1.4312    0.8329 C   0  0  0  0  0  0  0  0  0  0  0  0
   -3.1657    0.6262    1.7540 C   0  0  0  0  0  0  0  0  0  0  0  0
   -3.1623   -0.9136    1.7308 C   0  0  0  0  0  0  0  0  0  0  0  0
   -3.0821   -1.4902    0.3402 C   0  0  0  0  0  0  0  0  0  0  0  0
   -4.1848   -2.1812   -0.1913 C   0  0  0  0  0  0  0  0  0  0  0  0
   -4.1341   -2.7079   -1.4815 C   0  0  0  0  0  0  0  0  0  0  0  0
   -2.9883   -2.5439   -2.2568 C   0  0  0  0  0  0  0  0  0  0  0  0
   -1.8839   -1.8621   -1.7424 C   0  0  0  0  0  0  0  0  0  0  0  0
   -1.9026   -1.3500   -0.4262 C   0  0  0  0  0  0  0  0  0  0  0  0
    3.0847   -0.2691   -0.5801 C   0  0  0  0  0  0  0  0  0  0  0  0
    4.2306    0.3417    0.1323 N   0  0  0  0  0  0  0  0  0  0  0  0
    4.1669    1.8132    0.0769 C   0  0  0  0  0  0  0  0  0  0  0  0
    5.5009   -0.1151   -0.4538 C   0  0  0  0  0  0  0  0  0  0  0  0
    3.0127   -0.8469    2.1394 H   0  0  0  0  0  0  0  0  0  0  0  0
    1.3026   -1.3532    2.2388 H   0  0  0  0  0  0  0  0  0  0  0  0
    2.4575   -2.3016    1.2280 H   0  0  0  0  0  0  0  0  0  0  0  0
    1.5962    0.6210    0.7242 H   0  0  0  0  0  0  0  0  0  0  0  0
    0.7122   -2.0564   -0.4846 H   0  0  0  0  0  0  0  0  0  0  0  0
    0.6907   -0.6236   -1.5163 H   0  0  0  0  0  0  0  0  0  0  0  0
   -0.6307   -0.8069    1.2163 H   0  0  0  0  0  0  0  0  0  0  0  0
    0.4357    1.5199   -1.3289 H   0  0  0  0  0  0  0  0  0  0  0  0
   -0.1638    3.8563   -1.4092 H   0  0  0  0  0  0  0  0  0  0  0  0
   -2.0546    4.7216   -0.0818 H   0  0  0  0  0  0  0  0  0  0  0  0
   -3.3712    3.2167    1.3262 H   0  0  0  0  0  0  0  0  0  0  0  0
   -4.2112    0.9371    1.5309 H   0  0  0  0  0  0  0  0  0  0  0  0
   -2.9640    0.9460    2.7993 H   0  0  0  0  0  0  0  0  0  0  0  0
   -4.0956   -1.2559    2.2303 H   0  0  0  0  0  0  0  0  0  0  0  0
   -2.3512   -1.3171    2.3709 H   0  0  0  0  0  0  0  0  0  0  0  0
   -5.0902   -2.3055    0.3897 H   0  0  0  0  0  0  0  0  0  0  0  0
   -4.9891   -3.2350   -1.8849 H   0  0  0  0  0  0  0  0  0  0  0  0
   -2.9581   -2.9394   -3.2640 H   0  0  0  0  0  0  0  0  0  0  0  0
   -1.0273   -1.7361   -2.3873 H   0  0  0  0  0  0  0  0  0  0  0  0
    2.8296    0.3214   -1.4901 H   0  0  0  0  0  0  0  0  0  0  0  0
    3.3381   -1.2957   -0.9332 H   0  0  0  0  0  0  0  0  0  0  0  0
    3.2271    2.1839    0.5347 H   0  0  0  0  0  0  0  0  0  0  0  0
    5.0037    2.2530    0.6612 H   0  0  0  0  0  0  0  0  0  0  0  0
    4.2276    2.1827   -0.9712 H   0  0  0  0  0  0  0  0  0  0  0  0
    5.5567    0.1346   -1.5372 H   0  0  0  0  0  0  0  0  0  0  0  0
    6.3606    0.3532    0.0726 H   0  0  0  0  0  0  0  0  0  0  0  0
    5.6046   -1.2143   -0.3277 H   0  0  0  0  0  0  0  0  0  0  0  0
  1  2  1  0
  2  3  1  0
  3  4  1  0
  4  5  1  0
  5  6  2  0
  6  7  1  0
  7  8  2  0
  8  9  1  0
  9 10  2  0
 10  5  1  0
 10 11  1  0
 11 12  1  0
 12 13  1  0
 13 14  2  0
 14 15  1  0
 15 16  2  0
 16 17  1  0
 17 18  2  0
 18  4  1  0
 18 13  1  0
  2 19  1  0
 19 20  1  0
 20 21  1  0
 20 22  1  0
  1 23  1  0
  1 24  1  0
  1 25  1  0
  2 26  1  0
  3 27  1  0
  3 28  1  0
  4 29  1  0
  6 30  1  0
  7 31  1  0
  8 32  1  0
  9 33  1  0
 11 34  1  0
 11 35  1  0
 12 36  1  0
 12 37  1  0
 14 38  1  0
 15 39  1  0
 16 40  1  0
 17 41  1  0
 19 42  1  0
 19 43  1  0
 21 44  1  0
 21 45  1  0
 21 46  1  0
 22 47  1  0
 22 48  1  0
 22 49  1  0
M  END
> <ID>
HT0342

> <Class>
1.0

> <Clusters>
17

> <Fold>
3

$$$$