
     RDKit          3D

 45 47  0  0  0  0  0  0  0  0999 V2000
   -1.6187   -4.3846   -0.7917 C   0  0  0  0  0  0  0  0  0  0  0  0
   -1.2894   -3.2278   -1.5338 O   0  0  0  0  0  0  0  0  0  0  0  0
   -0.8235   -2.1839   -0.6903 C   0  0  2  0  0  0  0  0  0  0  0  0
   -1.8261   -1.7259    0.2842 N   0  0  0  0  0  0  0  0  0  0  0  0
   -3.1455   -1.3132   -0.1029 C   0  0  0  0  0  0  0  0  0  0  0  0
   -3.4818   -1.3102   -1.3186 O   0  0  0  0  0  0  0  0  0  0  0  0
   -4.1154   -0.8317    0.9305 C   0  0  0  0  0  0  0  0  0  0  0  0
   -3.8408    0.6014    1.2624 C   0  0  0  0  0  0  0  0  0  0  0  0
   -4.6164    1.6889    0.8838 C   0  0  0  0  0  0  0  0  0  0  0  0
   -4.1038    2.9126    1.3307 C   0  0  0  0  0  0  0  0  0  0  0  0
   -2.9282    2.7922    2.0596 C   0  0  0  0  0  0  0  0  0  0  0  0
   -2.5260    1.1623    2.1498 S   0  0  0  0  0  0  0  0  0  0  0  0
   -0.1920   -1.1192   -1.4544 C   0  0  1  0  0  0  0  0  0  0  0  0
   -0.6640    0.6105   -1.1085 S   0  0  0  0  0  0  0  0  0  0  0  0
    0.8690    1.2715   -1.8760 C   0  0  0  0  0  0  0  0  0  0  0  0
    2.1549    0.7806   -1.2198 C   0  0  0  0  0  0  0  0  0  0  0  0
    2.2566   -0.4992   -0.7672 C   0  0  0  0  0  0  0  0  0  0  0  0
    1.0982   -1.3308   -0.8501 N   0  0  0  0  0  0  0  0  0  0  0  0
    0.5244   -2.4512   -0.0698 C   0  0  0  0  0  0  0  0  0  0  0  0
    0.9673   -3.2479    0.7986 O   0  0  0  0  0  0  0  0  0  0  0  0
    3.4763   -1.0774   -0.1507 C   0  0  0  0  0  0  0  0  0  0  0  0
    4.3369   -0.3535    0.4175 O   0  0  0  0  0  0  0  0  0  0  0  0
    3.6590   -2.4567   -0.1712 O   0  0  0  0  0  0  0  0  0  0  0  0
    3.3243    1.7360   -1.2179 C   0  0  0  0  0  0  0  0  0  0  0  0
    3.5144    2.2570    0.0939 O   0  0  0  0  0  0  0  0  0  0  0  0
    4.5434    3.1488    0.4086 C   0  0  0  0  0  0  0  0  0  0  0  0
    5.3665    3.5190   -0.4719 O   0  0  0  0  0  0  0  0  0  0  0  0
    4.6638    3.6411    1.7401 N   0  0  0  0  0  0  0  0  0  0  0  0
   -2.3726   -4.1762   -0.0025 H   0  0  0  0  0  0  0  0  0  0  0  0
   -2.0669   -5.1277   -1.4829 H   0  0  0  0  0  0  0  0  0  0  0  0
   -0.7127   -4.8526   -0.3531 H   0  0  0  0  0  0  0  0  0  0  0  0
   -1.5944   -1.7612    1.3033 H   0  0  0  0  0  0  0  0  0  0  0  0
   -5.1528   -0.9398    0.5447 H   0  0  0  0  0  0  0  0  0  0  0  0
   -4.0316   -1.4491    1.8497 H   0  0  0  0  0  0  0  0  0  0  0  0
   -5.5221    1.6047    0.2980 H   0  0  0  0  0  0  0  0  0  0  0  0
   -4.5779    3.8630    1.1272 H   0  0  0  0  0  0  0  0  0  0  0  0
   -2.3692    3.6090    2.4943 H   0  0  0  0  0  0  0  0  0  0  0  0
   -0.1491   -1.3199   -2.5489 H   0  0  0  0  0  0  0  0  0  0  0  0
    0.8854    0.9956   -2.9519 H   0  0  0  0  0  0  0  0  0  0  0  0
    0.8108    2.3789   -1.8162 H   0  0  0  0  0  0  0  0  0  0  0  0
    4.4735   -2.8810    0.2570 H   0  0  0  0  0  0  0  0  0  0  0  0
    4.2438    1.2230   -1.5743 H   0  0  0  0  0  0  0  0  0  0  0  0
    3.1368    2.5807   -1.9163 H   0  0  0  0  0  0  0  0  0  0  0  0
    5.4376    4.2954    1.9951 H   0  0  0  0  0  0  0  0  0  0  0  0
    3.9782    3.3484    2.4716 H   0  0  0  0  0  0  0  0  0  0  0  0
  1  2  1  0
  3  2  1  6
  3  4  1  0
  4  5  1  0
  5  6  2  0
  5  7  1  0
  7  8  1  0
  8  9  2  0
  9 10  1  0
 10 11  2  0
 11 12  1  0
 12  8  1  0
  3 13  1  0
 13 14  1  0
 14 15  1  0
 15 16  1  0
 16 17  2  0
 17 18  1  0
 18 13  1  0
 18 19  1  0
 19  3  1  0
 19 20  2  0
 17 21  1  0
 21 22  2  0
 21 23  1  0
 16 24  1  0
 24 25  1  0
 25 26  1  0
 26 27  2  0
 26 28  1  0
  1 29  1  0
  1 30  1  0
  1 31  1  0
  4 32  1  0
  7 33  1  0
  7 34  1  0
  9 35  1  0
 10 36  1  0
 11 37  1  0
 13 38  1  6
 15 39  1  0
 15 40  1  0
 23 41  1  0
 24 42  1  0
 24 43  1  0
 28 44  1  0
 28 45  1  0
M  END
> <ID>
HT0415

> <Class>
1.0

> <Clusters>
47

> <Fold>
3

$$$$