
     RDKit          3D

 67 68  0  0  0  0  0  0  0  0999 V2000
   -2.5367    2.9621   -3.1550 C   0  0  0  0  0  0  0  0  0  0  0  0
   -1.9779    2.3363   -2.0210 O   0  0  0  0  0  0  0  0  0  0  0  0
   -3.0106    1.8163   -1.2041 C   0  0  0  0  0  0  0  0  0  0  0  0
   -2.3937    1.0263   -0.0582 C   0  0  0  0  0  0  0  0  0  0  0  0
   -2.6718    1.3186    1.3065 C   0  0  0  0  0  0  0  0  0  0  0  0
   -1.9945    0.6489    2.2758 N   0  0  0  0  0  0  0  0  0  0  0  0
   -1.0680   -0.3129    2.0331 C   0  0  0  0  0  0  0  0  0  0  0  0
   -0.4499   -1.0346    3.2194 C   0  0  0  0  0  0  0  0  0  0  0  0
   -0.2151   -0.0819    4.3994 C   0  0  0  0  0  0  0  0  0  0  0  0
   -1.3429   -2.2056    3.6389 C   0  0  0  0  0  0  0  0  0  0  0  0
   -0.8081   -0.6906    0.7001 C   0  0  0  0  0  0  0  0  0  0  0  0
    0.1575   -1.7669    0.3908 C   0  0  0  0  0  0  0  0  0  0  0  0
    1.4699   -1.5223    0.4087 C   0  0  0  0  0  0  0  0  0  0  0  0
    2.4763   -2.5880    0.0456 C   0  0  1  0  0  0  0  0  0  0  0  0
    2.2154   -3.1441   -1.2207 O   0  0  0  0  0  0  0  0  0  0  0  0
    3.9360   -2.0819    0.1487 C   0  0  0  0  0  0  0  0  0  0  0  0
    4.4029   -1.1862   -1.0247 C   0  0  1  0  0  0  0  0  0  0  0  0
    3.5709   -0.0631   -1.1711 O   0  0  0  0  0  0  0  0  0  0  0  0
    5.8756   -0.7568   -0.8286 C   0  0  0  0  0  0  0  0  0  0  0  0
    6.4338    0.0366   -1.9803 C   0  0  0  0  0  0  0  0  0  0  0  0
    5.7206    0.3261   -2.9802 O   0  0  0  0  0  0  0  0  0  0  0  0
    7.7546    0.4723   -1.9438 O   0  0  0  0  0  0  0  0  0  0  0  0
   -1.4888   -0.0312   -0.3481 C   0  0  0  0  0  0  0  0  0  0  0  0
   -1.2403   -0.4499   -1.7509 C   0  0  0  0  0  0  0  0  0  0  0  0
   -2.2181   -1.1679   -2.4567 C   0  0  0  0  0  0  0  0  0  0  0  0
   -1.9713   -1.5904   -3.7664 C   0  0  0  0  0  0  0  0  0  0  0  0
   -0.7456   -1.3084   -4.3755 C   0  0  0  0  0  0  0  0  0  0  0  0
   -0.5036   -1.7301   -5.6422 F   0  0  0  0  0  0  0  0  0  0  0  0
    0.2338   -0.5963   -3.6750 C   0  0  0  0  0  0  0  0  0  0  0  0
   -0.0127   -0.1650   -2.3685 C   0  0  0  0  0  0  0  0  0  0  0  0
   -3.6691    2.3780    1.7518 C   0  0  0  0  0  0  0  0  0  0  0  0
   -4.2827    2.0459    3.1220 C   0  0  0  0  0  0  0  0  0  0  0  0
   -2.9933    3.7532    1.7967 C   0  0  0  0  0  0  0  0  0  0  0  0
   -1.7092    3.2804   -3.8265 H   0  0  0  0  0  0  0  0  0  0  0  0
   -3.1077    3.8739   -2.8636 H   0  0  0  0  0  0  0  0  0  0  0  0
   -3.1843    2.2627   -3.7357 H   0  0  0  0  0  0  0  0  0  0  0  0
   -3.6382    2.6564   -0.8523 H   0  0  0  0  0  0  0  0  0  0  0  0
   -3.6708    1.1243   -1.7778 H   0  0  0  0  0  0  0  0  0  0  0  0
    0.5448   -1.4429    2.9491 H   0  0  0  0  0  0  0  0  0  0  0  0
    0.4108    0.7757    4.0720 H   0  0  0  0  0  0  0  0  0  0  0  0
   -1.1757    0.3058    4.8026 H   0  0  0  0  0  0  0  0  0  0  0  0
    0.3187   -0.6142    5.2158 H   0  0  0  0  0  0  0  0  0  0  0  0
   -0.8945   -2.7398    4.5039 H   0  0  0  0  0  0  0  0  0  0  0  0
   -2.3562   -1.8447    3.9231 H   0  0  0  0  0  0  0  0  0  0  0  0
   -1.4420   -2.9282    2.7990 H   0  0  0  0  0  0  0  0  0  0  0  0
   -0.2167   -2.7337    0.0808 H   0  0  0  0  0  0  0  0  0  0  0  0
    1.8149   -0.5398    0.7027 H   0  0  0  0  0  0  0  0  0  0  0  0
    2.3600   -3.4012    0.7952 H   0  0  0  0  0  0  0  0  0  0  0  0
    2.0621   -2.3991   -1.8591 H   0  0  0  0  0  0  0  0  0  0  0  0
    4.5971   -2.9747    0.1865 H   0  0  0  0  0  0  0  0  0  0  0  0
    4.0751   -1.5373    1.1108 H   0  0  0  0  0  0  0  0  0  0  0  0
    4.3485   -1.7830   -1.9603 H   0  0  0  0  0  0  0  0  0  0  0  0
    3.6831    0.5036   -0.3634 H   0  0  0  0  0  0  0  0  0  0  0  0
    6.5085   -1.6597   -0.6999 H   0  0  0  0  0  0  0  0  0  0  0  0
    5.9688   -0.1465    0.0941 H   0  0  0  0  0  0  0  0  0  0  0  0
    8.3540    0.2548   -1.1561 H   0  0  0  0  0  0  0  0  0  0  0  0
   -3.1658   -1.4048   -1.9893 H   0  0  0  0  0  0  0  0  0  0  0  0
   -2.7289   -2.1474   -4.3037 H   0  0  0  0  0  0  0  0  0  0  0  0
    1.1853   -0.3837   -4.1423 H   0  0  0  0  0  0  0  0  0  0  0  0
    0.7517    0.3847   -1.8343 H   0  0  0  0  0  0  0  0  0  0  0  0
   -4.5309    2.4151    1.0534 H   0  0  0  0  0  0  0  0  0  0  0  0
   -3.5108    2.0436    3.9235 H   0  0  0  0  0  0  0  0  0  0  0  0
   -4.7691    1.0468    3.0831 H   0  0  0  0  0  0  0  0  0  0  0  0
   -5.0568    2.7989    3.3837 H   0  0  0  0  0  0  0  0  0  0  0  0
   -2.1815    3.7649    2.5573 H   0  0  0  0  0  0  0  0  0  0  0  0
   -3.7378    4.5356    2.0552 H   0  0  0  0  0  0  0  0  0  0  0  0
   -2.5591    4.0067    0.8064 H   0  0  0  0  0  0  0  0  0  0  0  0
  1  2  1  0
  2  3  1  0
  3  4  1  0
  4  5  2  0
  5  6  1  0
  6  7  2  0
  7  8  1  0
  8  9  1  0
  8 10  1  0
  7 11  1  0
 11 12  1  0
 12 13  2  0
 13 14  1  0
 14 15  1  0
 14 16  1  0
 16 17  1  0
 17 18  1  0
 17 19  1  0
 19 20  1  0
 20 21  2  0
 20 22  1  0
 11 23  2  0
 23  4  1  0
 23 24  1  0
 24 25  2  0
 25 26  1  0
 26 27  2  0
 27 28  1  0
 27 29  1  0
 29 30  2  0
 30 24  1  0
  5 31  1  0
 31 32  1  0
 31 33  1  0
  1 34  1  0
  1 35  1  0
  1 36  1  0
  3 37  1  0
  3 38  1  0
  8 39  1  0
  9 40  1  0
  9 41  1  0
  9 42  1  0
 10 43  1  0
 10 44  1  0
 10 45  1  0
 12 46  1  0
 13 47  1  0
 14 48  1  1
 15 49  1  0
 16 50  1  0
 16 51  1  0
 17 52  1  6
 18 53  1  0
 19 54  1  0
 19 55  1  0
 22 56  1  0
 25 57  1  0
 26 58  1  0
 29 59  1  0
 30 60  1  0
 31 61  1  0
 32 62  1  0
 32 63  1  0
 32 64  1  0
 33 65  1  0
 33 66  1  0
 33 67  1  0
M  END
> <ID>
HT0436

> <Class>
1.0

> <Clusters>
110

> <Fold>
3

$$$$