
     RDKit          3D

 75 81  0  0  0  0  0  0  0  0999 V2000
   -3.1067    2.8632    0.9947 C   0  0  0  0  0  0  0  0  0  0  0  0
   -2.8776    1.9444   -0.0555 O   0  0  0  0  0  0  0  0  0  0  0  0
   -1.5925    1.3213   -0.0456 C   0  0  2  0  0  0  0  0  0  0  0  0
   -1.2120    1.0373   -1.5326 C   0  0  0  0  0  0  0  0  0  0  0  0
    0.1412    0.2977   -1.6676 C   0  0  0  0  0  0  0  0  0  0  0  0
    0.7877    0.0904   -0.2634 C   0  0  1  0  0  0  0  0  0  0  0  0
   -0.2189   -0.8086    0.5211 C   0  0  0  0  0  0  0  0  0  0  0  0
   -1.5711   -0.0442    0.7858 C   0  0  2  0  0  0  0  0  0  0  0  0
   -2.8576   -0.9900    1.0260 C   0  0  2  0  0  0  0  0  0  0  0  0
   -3.9046   -0.1984    1.8599 C   0  0  0  0  0  0  0  0  0  0  0  0
   -2.4381   -2.0018    1.9206 O   0  0  0  0  0  0  0  0  0  0  0  0
   -3.5974   -1.6933   -0.2299 C   0  0  0  0  0  0  0  0  0  0  0  0
   -4.4980   -0.7217   -1.0394 C   0  0  0  0  0  0  0  0  0  0  0  0
   -4.5420   -2.8293    0.2656 C   0  0  0  0  0  0  0  0  0  0  0  0
   -2.6200   -2.3795   -1.2126 C   0  0  0  0  0  0  0  0  0  0  0  0
    2.2291   -0.5064   -0.3505 C   0  0  1  0  0  0  0  0  0  0  0  0
    3.2214    0.4298   -1.1579 C   0  0  0  0  0  0  0  0  0  0  0  0
    2.8721    1.9101   -1.1218 C   0  0  0  0  0  0  0  0  0  0  0  0
    3.4513    2.8281   -2.0195 C   0  0  0  0  0  0  0  0  0  0  0  0
    2.8414    4.0834   -2.2374 C   0  0  0  0  0  0  0  0  0  0  0  0
    1.6104    4.3883   -1.6246 C   0  0  0  0  0  0  0  0  0  0  0  0
    0.9368    5.5653   -1.9400 O   0  0  0  0  0  0  0  0  0  0  0  0
    1.0763    3.4590   -0.7285 C   0  0  0  0  0  0  0  0  0  0  0  0
   -0.2061    3.4349   -0.2087 O   0  0  0  0  0  0  0  0  0  0  0  0
   -0.4219    2.2273    0.5376 C   0  0  2  0  0  0  0  0  0  0  0  0
    0.9361    1.4538    0.4660 C   0  0  1  0  0  0  0  0  0  0  0  0
    1.6002    1.2986    1.8650 C   0  0  0  0  0  0  0  0  0  0  0  0
    2.8931    0.4618    1.8214 C   0  0  0  0  0  0  0  0  0  0  0  0
    2.6965   -0.7745    1.0363 N   0  0  0  0  0  0  0  0  0  0  0  0
    3.8460   -1.6975    1.1256 C   0  0  0  0  0  0  0  0  0  0  0  0
    3.3855   -3.1360    0.8550 C   0  0  0  0  0  0  0  0  0  0  0  0
    4.5190   -4.1416    0.7209 C   0  0  0  0  0  0  0  0  0  0  0  0
    3.7359   -3.7128   -0.5089 C   0  0  0  0  0  0  0  0  0  0  0  0
    1.7692    2.3373   -0.3825 C   0  0  0  0  0  0  0  0  0  0  0  0
   -4.1912    3.0925    1.0280 H   0  0  0  0  0  0  0  0  0  0  0  0
   -2.8301    2.4483    1.9861 H   0  0  0  0  0  0  0  0  0  0  0  0
   -2.5811    3.8212    0.8013 H   0  0  0  0  0  0  0  0  0  0  0  0
   -1.1530    2.0017   -2.0832 H   0  0  0  0  0  0  0  0  0  0  0  0
   -1.9945    0.4720   -2.0616 H   0  0  0  0  0  0  0  0  0  0  0  0
    0.0033   -0.6835   -2.1679 H   0  0  0  0  0  0  0  0  0  0  0  0
    0.7922    0.8722   -2.3570 H   0  0  0  0  0  0  0  0  0  0  0  0
   -0.3665   -1.7407   -0.0495 H   0  0  0  0  0  0  0  0  0  0  0  0
    0.2127   -1.1406    1.4899 H   0  0  0  0  0  0  0  0  0  0  0  0
   -1.4025    0.3237    1.8231 H   0  0  0  0  0  0  0  0  0  0  0  0
   -4.6745   -0.8723    2.2856 H   0  0  0  0  0  0  0  0  0  0  0  0
   -4.4325    0.5749    1.2771 H   0  0  0  0  0  0  0  0  0  0  0  0
   -3.4329    0.2875    2.7396 H   0  0  0  0  0  0  0  0  0  0  0  0
   -1.8561   -2.6441    1.4440 H   0  0  0  0  0  0  0  0  0  0  0  0
   -3.9846    0.2077   -1.3135 H   0  0  0  0  0  0  0  0  0  0  0  0
   -5.4111   -0.4446   -0.4725 H   0  0  0  0  0  0  0  0  0  0  0  0
   -4.8501   -1.1965   -1.9811 H   0  0  0  0  0  0  0  0  0  0  0  0
   -5.0431   -3.3278   -0.5934 H   0  0  0  0  0  0  0  0  0  0  0  0
   -3.9860   -3.6164    0.8166 H   0  0  0  0  0  0  0  0  0  0  0  0
   -5.3511   -2.4490    0.9195 H   0  0  0  0  0  0  0  0  0  0  0  0
   -3.1740   -2.8759   -2.0393 H   0  0  0  0  0  0  0  0  0  0  0  0
   -2.0237   -3.1732   -0.7181 H   0  0  0  0  0  0  0  0  0  0  0  0
   -1.9452   -1.6613   -1.6892 H   0  0  0  0  0  0  0  0  0  0  0  0
    2.1476   -1.4696   -0.8987 H   0  0  0  0  0  0  0  0  0  0  0  0
    4.2712    0.3111   -0.8300 H   0  0  0  0  0  0  0  0  0  0  0  0
    3.1920    0.1067   -2.2210 H   0  0  0  0  0  0  0  0  0  0  0  0
    4.3197    2.5470   -2.6014 H   0  0  0  0  0  0  0  0  0  0  0  0
    3.2781    4.7757   -2.9457 H   0  0  0  0  0  0  0  0  0  0  0  0
    0.0448    5.7928   -1.5171 H   0  0  0  0  0  0  0  0  0  0  0  0
   -0.6199    2.5105    1.5932 H   0  0  0  0  0  0  0  0  0  0  0  0
    1.8338    2.3001    2.2895 H   0  0  0  0  0  0  0  0  0  0  0  0
    0.8893    0.8154    2.5683 H   0  0  0  0  0  0  0  0  0  0  0  0
    3.1590    0.2051    2.8701 H   0  0  0  0  0  0  0  0  0  0  0  0
    3.7318    1.0655    1.4133 H   0  0  0  0  0  0  0  0  0  0  0  0
    4.2570   -1.6925    2.1591 H   0  0  0  0  0  0  0  0  0  0  0  0
    4.6753   -1.3921    0.4552 H   0  0  0  0  0  0  0  0  0  0  0  0
    2.4714   -3.5343    1.3453 H   0  0  0  0  0  0  0  0  0  0  0  0
    5.5501   -3.7294    0.7612 H   0  0  0  0  0  0  0  0  0  0  0  0
    4.2736   -5.1656    1.0734 H   0  0  0  0  0  0  0  0  0  0  0  0
    3.0184   -4.4752   -0.8789 H   0  0  0  0  0  0  0  0  0  0  0  0
    4.2974   -3.0434   -1.1952 H   0  0  0  0  0  0  0  0  0  0  0  0
  1  2  1  0
  3  2  1  6
  3  4  1  0
  4  5  1  0
  6  5  1  6
  6  7  1  0
  7  8  1  0
  8  3  1  0
  8  9  1  0
  9 10  1  0
  9 11  1  1
  9 12  1  0
 12 13  1  0
 12 14  1  0
 12 15  1  0
  6 16  1  0
 16 17  1  0
 17 18  1  0
 18 19  1  0
 19 20  2  0
 20 21  1  0
 21 22  1  0
 21 23  2  0
 23 24  1  0
 25 24  1  0
 25  3  1  0
 25 26  1  0
 26  6  1  0
 26 27  1  1
 27 28  1  0
 28 29  1  0
 29 16  1  0
 29 30  1  0
 30 31  1  0
 31 32  1  0
 32 33  1  0
 33 31  1  0
 26 34  1  0
 34 18  2  0
 34 23  1  0
  1 35  1  0
  1 36  1  0
  1 37  1  0
  4 38  1  0
  4 39  1  0
  5 40  1  0
  5 41  1  0
  7 42  1  0
  7 43  1  0
  8 44  1  1
 10 45  1  0
 10 46  1  0
 10 47  1  0
 11 48  1  0
 13 49  1  0
 13 50  1  0
 13 51  1  0
 14 52  1  0
 14 53  1  0
 14 54  1  0
 15 55  1  0
 15 56  1  0
 15 57  1  0
 16 58  1  6
 17 59  1  0
 17 60  1  0
 19 61  1  0
 20 62  1  0
 22 63  1  0
 25 64  1  1
 27 65  1  0
 27 66  1  0
 28 67  1  0
 28 68  1  0
 30 69  1  0
 30 70  1  0
 31 71  1  0
 32 72  1  0
 32 73  1  0
 33 74  1  0
 33 75  1  0
M  END
> <ID>
HT0329

> <Class>
1.0

> <Clusters>
175

> <Fold>
3

$$$$