
     RDKit          3D

 47 48  0  0  0  0  0  0  0  0999 V2000
    7.0944   -0.8754    0.2120 C   0  0  0  0  0  0  0  0  0  0  0  0
    6.1344   -1.9094    0.7992 C   0  0  0  0  0  0  0  0  0  0  0  0
    5.0266   -1.2805    1.6627 C   0  0  0  0  0  0  0  0  0  0  0  0
    4.0908   -0.3193    0.9085 C   0  0  0  0  0  0  0  0  0  0  0  0
    3.2968   -1.0104   -0.2077 C   0  0  0  0  0  0  0  0  0  0  0  0
    2.2928   -0.1373   -0.7213 O   0  0  0  0  0  0  0  0  0  0  0  0
    2.5706    0.9698   -1.5331 C   0  0  0  0  0  0  0  0  0  0  0  0
    3.7500    1.1912   -1.9210 O   0  0  0  0  0  0  0  0  0  0  0  0
    1.5207    1.8549   -1.9491 N   0  0  0  0  0  0  0  0  0  0  0  0
    0.1489    1.7360   -1.5309 C   0  0  0  0  0  0  0  0  0  0  0  0
   -0.2289    0.7715   -0.6524 N   0  0  0  0  0  0  0  0  0  0  0  0
   -1.5154    0.6416   -0.2372 C   0  0  0  0  0  0  0  0  0  0  0  0
   -1.8034   -0.2846    0.5672 O   0  0  0  0  0  0  0  0  0  0  0  0
   -2.4811    1.5051   -0.6951 N   0  0  0  0  0  0  0  0  0  0  0  0
   -2.1363    2.4766   -1.5941 C   0  0  0  0  0  0  0  0  0  0  0  0
   -0.8179    2.6159   -2.0238 C   0  0  0  0  0  0  0  0  0  0  0  0
   -0.4945    3.5907   -2.9105 F   0  0  0  0  0  0  0  0  0  0  0  0
   -3.8958    1.3816   -0.2844 C   0  0  2  0  0  0  0  0  0  0  0  0
   -3.9881    1.2157    1.1157 O   0  0  0  0  0  0  0  0  0  0  0  0
   -5.0141    0.2803    1.3473 C   0  0  2  0  0  0  0  0  0  0  0  0
   -4.7696   -0.4418    2.6716 C   0  0  0  0  0  0  0  0  0  0  0  0
   -5.0414   -0.6831    0.1693 C   0  0  1  0  0  0  0  0  0  0  0  0
   -6.3333   -1.1974   -0.0286 O   0  0  0  0  0  0  0  0  0  0  0  0
   -4.5720    0.1877   -0.9828 C   0  0  1  0  0  0  0  0  0  0  0  0
   -5.6323    0.6090   -1.8105 O   0  0  0  0  0  0  0  0  0  0  0  0
    7.4824   -0.2069    1.0097 H   0  0  0  0  0  0  0  0  0  0  0  0
    6.5879   -0.2696   -0.5679 H   0  0  0  0  0  0  0  0  0  0  0  0
    7.9529   -1.3963   -0.2617 H   0  0  0  0  0  0  0  0  0  0  0  0
    5.6952   -2.5195   -0.0177 H   0  0  0  0  0  0  0  0  0  0  0  0
    6.7208   -2.6015    1.4417 H   0  0  0  0  0  0  0  0  0  0  0  0
    5.4975   -0.7279    2.5049 H   0  0  0  0  0  0  0  0  0  0  0  0
    4.4199   -2.0971    2.1114 H   0  0  0  0  0  0  0  0  0  0  0  0
    3.3686    0.1008    1.6420 H   0  0  0  0  0  0  0  0  0  0  0  0
    4.6683    0.5347    0.4983 H   0  0  0  0  0  0  0  0  0  0  0  0
    3.9661   -1.3347   -1.0329 H   0  0  0  0  0  0  0  0  0  0  0  0
    2.7934   -1.9100    0.2058 H   0  0  0  0  0  0  0  0  0  0  0  0
    1.7832    2.6362   -2.5917 H   0  0  0  0  0  0  0  0  0  0  0  0
   -2.8832    3.1556   -1.9884 H   0  0  0  0  0  0  0  0  0  0  0  0
   -4.4429    2.3207   -0.5319 H   0  0  0  0  0  0  0  0  0  0  0  0
   -5.9835    0.8260    1.4156 H   0  0  0  0  0  0  0  0  0  0  0  0
   -3.7829   -0.9524    2.6618 H   0  0  0  0  0  0  0  0  0  0  0  0
   -4.7810    0.2918    3.5052 H   0  0  0  0  0  0  0  0  0  0  0  0
   -5.5678   -1.1934    2.8502 H   0  0  0  0  0  0  0  0  0  0  0  0
   -4.3127   -1.5133    0.3298 H   0  0  0  0  0  0  0  0  0  0  0  0
   -6.2453   -1.9231   -0.7002 H   0  0  0  0  0  0  0  0  0  0  0  0
   -3.8492   -0.3818   -1.6080 H   0  0  0  0  0  0  0  0  0  0  0  0
   -6.2897    1.0960   -1.2468 H   0  0  0  0  0  0  0  0  0  0  0  0
  1  2  1  0
  2  3  1  0
  3  4  1  0
  4  5  1  0
  5  6  1  0
  6  7  1  0
  7  8  2  0
  7  9  1  0
  9 10  1  0
 10 11  2  0
 11 12  1  0
 12 13  2  0
 12 14  1  0
 14 15  1  0
 15 16  2  0
 16 10  1  0
 16 17  1  0
 18 14  1  0
 18 19  1  0
 19 20  1  0
 20 21  1  0
 20 22  1  0
 22 23  1  0
 22 24  1  0
 24 18  1  0
 24 25  1  0
  1 26  1  0
  1 27  1  0
  1 28  1  0
  2 29  1  0
  2 30  1  0
  3 31  1  0
  3 32  1  0
  4 33  1  0
  4 34  1  0
  5 35  1  0
  5 36  1  0
  9 37  1  0
 15 38  1  0
 18 39  1  1
 20 40  1  1
 21 41  1  0
 21 42  1  0
 21 43  1  0
 22 44  1  1
 23 45  1  0
 24 46  1  6
 25 47  1  0
M  END
> <ID>
HT0363

> <Class>
1.0

> <Clusters>
25

> <Fold>
3

$$$$