
     RDKit          3D

121123  0  0  0  0  0  0  0  0999 V2000
   -6.3789    1.8103    3.1152 C   0  0  0  0  0  0  0  0  0  0  0  0
   -5.1886    1.3193    2.2908 C   0  0  0  0  0  0  0  0  0  0  0  0
   -4.0021    2.3350    2.2374 C   0  0  1  0  0  0  0  0  0  0  0  0
   -2.7186    1.6841    2.3175 O   0  0  0  0  0  0  0  0  0  0  0  0
   -2.4503    0.3230    2.1074 C   0  0  0  0  0  0  0  0  0  0  0  0
   -2.5359   -0.4838    3.0715 O   0  0  0  0  0  0  0  0  0  0  0  0
   -2.0171   -0.1652    0.7461 C   0  0  2  0  0  0  0  0  0  0  0  0
   -3.0684   -1.1511    0.2209 C   0  0  0  0  0  0  0  0  0  0  0  0
   -0.5565   -0.7323    0.7552 C   0  0  1  0  0  0  0  0  0  0  0  0
   -0.4005   -1.7972   -0.1738 O   0  0  0  0  0  0  0  0  0  0  0  0
    0.2497   -2.9298    0.3915 C   0  0  1  0  0  0  0  0  0  0  0  0
   -0.7696   -3.8146    1.1732 C   0  0  0  0  0  0  0  0  0  0  0  0
   -0.3490   -5.3028    1.1765 C   0  0  2  0  0  0  0  0  0  0  0  0
   -1.4787   -6.0794    1.9191 C   0  0  0  0  0  0  0  0  0  0  0  0
    0.8987   -5.3616    1.8786 O   0  0  0  0  0  0  0  0  0  0  0  0
    1.2652   -6.6689    2.2804 C   0  0  0  0  0  0  0  0  0  0  0  0
   -0.1591   -5.7764   -0.3167 C   0  0  1  0  0  0  0  0  0  0  0  0
   -1.2885   -6.4786   -0.7846 O   0  0  0  0  0  0  0  0  0  0  0  0
    0.0878   -4.5825   -1.2669 C   0  0  2  0  0  0  0  0  0  0  0  0
    0.7359   -5.0406   -2.5747 C   0  0  0  0  0  0  0  0  0  0  0  0
    0.9287   -3.6347   -0.6389 O   0  0  0  0  0  0  0  0  0  0  0  0
    0.5509    0.3541    0.5011 C   0  0  2  0  0  0  0  0  0  0  0  0
    0.4817    1.4882    1.5355 C   0  0  0  0  0  0  0  0  0  0  0  0
    0.9481    0.8641   -0.9657 C   0  0  1  0  0  0  0  0  0  0  0  0
    2.0582    0.0609   -1.3802 O   0  0  0  0  0  0  0  0  0  0  0  0
    3.2332    0.8214   -1.6647 C   0  0  2  0  0  0  0  0  0  0  0  0
    4.0378    0.1449   -2.6108 O   0  0  0  0  0  0  0  0  0  0  0  0
    4.5628   -1.0938   -2.1480 C   0  0  2  0  0  0  0  0  0  0  0  0
    3.6811   -2.2656   -2.5862 C   0  0  0  0  0  0  0  0  0  0  0  0
    4.8748   -1.1438   -0.6366 C   0  0  0  0  0  0  0  0  0  0  0  0
    5.2566    0.2588   -0.1289 C   0  0  1  0  0  0  0  0  0  0  0  0
    4.0367    1.1921   -0.3822 C   0  0  1  0  0  0  0  0  0  0  0  0
    4.4886    2.5193   -0.5058 O   0  0  0  0  0  0  0  0  0  0  0  0
    5.6591    0.2170    1.3150 N   0  0  0  0  0  0  0  0  0  0  0  0
    6.9512   -0.4862    1.4934 C   0  0  0  0  0  0  0  0  0  0  0  0
    5.8005    1.5655    1.8988 C   0  0  0  0  0  0  0  0  0  0  0  0
   -0.1019    0.9660   -2.1750 C   0  0  2  0  0  0  0  0  0  0  0  0
    0.6571    1.1854   -3.5353 C   0  0  0  0  0  0  0  0  0  0  0  0
   -1.1273    2.1671   -2.0971 C   0  0  0  0  0  0  0  0  0  0  0  0
   -0.7737    3.5335   -1.4339 C   0  0  1  0  0  0  0  0  0  0  0  0
    0.3226    4.2945   -2.2022 C   0  0  0  0  0  0  0  0  0  0  0  0
   -2.0329    4.4055   -1.3945 C   0  0  0  0  0  0  0  0  0  0  0  0
   -2.6657    4.5678   -2.4336 O   0  0  0  0  0  0  0  0  0  0  0  0
   -2.4855    5.1745   -0.1572 C   0  0  2  0  0  0  0  0  0  0  0  0
   -1.4240    6.2361    0.1756 C   0  0  0  0  0  0  0  0  0  0  0  0
   -2.8092    4.2929    1.0987 C   0  0  1  0  0  0  0  0  0  0  0  0
   -2.9952    5.1023    2.2368 O   0  0  0  0  0  0  0  0  0  0  0  0
   -4.0121    3.2796    0.9789 C   0  0  2  0  0  0  0  0  0  0  0  0
   -5.3692    4.0250    0.8696 C   0  0  0  0  0  0  0  0  0  0  0  0
   -3.8325    2.4563   -0.1449 O   0  0  0  0  0  0  0  0  0  0  0  0
   -0.9238   -0.2041   -2.2073 O   0  0  0  0  0  0  0  0  0  0  0  0
   -0.4468   -1.2849   -2.9884 C   0  0  0  0  0  0  0  0  0  0  0  0
   -6.0564    2.2127    4.0983 H   0  0  0  0  0  0  0  0  0  0  0  0
   -7.0749    0.9698    3.2985 H   0  0  0  0  0  0  0  0  0  0  0  0
   -6.9500    2.5959    2.5801 H   0  0  0  0  0  0  0  0  0  0  0  0
   -5.5271    1.0480    1.2685 H   0  0  0  0  0  0  0  0  0  0  0  0
   -4.8772    0.3800    2.7845 H   0  0  0  0  0  0  0  0  0  0  0  0
   -4.0677    2.9708    3.1443 H   0  0  0  0  0  0  0  0  0  0  0  0
   -2.0310    0.7039    0.0858 H   0  0  0  0  0  0  0  0  0  0  0  0
   -3.2102   -1.9911    0.9288 H   0  0  0  0  0  0  0  0  0  0  0  0
   -2.7898   -1.5529   -0.7740 H   0  0  0  0  0  0  0  0  0  0  0  0
   -4.0379   -0.6292    0.1036 H   0  0  0  0  0  0  0  0  0  0  0  0
   -0.3908   -1.0989    1.8012 H   0  0  0  0  0  0  0  0  0  0  0  0
    1.0461   -2.6180    1.1098 H   0  0  0  0  0  0  0  0  0  0  0  0
   -0.8750   -3.4378    2.2178 H   0  0  0  0  0  0  0  0  0  0  0  0
   -1.7636   -3.7294    0.6817 H   0  0  0  0  0  0  0  0  0  0  0  0
   -2.4737   -5.8587    1.4726 H   0  0  0  0  0  0  0  0  0  0  0  0
   -1.5076   -5.7766    2.9914 H   0  0  0  0  0  0  0  0  0  0  0  0
   -1.3310   -7.1783    1.8627 H   0  0  0  0  0  0  0  0  0  0  0  0
    0.9380   -7.4682    1.5782 H   0  0  0  0  0  0  0  0  0  0  0  0
    0.8750   -6.8766    3.2941 H   0  0  0  0  0  0  0  0  0  0  0  0
    2.3695   -6.7145    2.3281 H   0  0  0  0  0  0  0  0  0  0  0  0
    0.7411   -6.4322   -0.3749 H   0  0  0  0  0  0  0  0  0  0  0  0
   -1.1051   -7.4482   -0.6573 H   0  0  0  0  0  0  0  0  0  0  0  0
   -0.8881   -4.1208   -1.5365 H   0  0  0  0  0  0  0  0  0  0  0  0
    1.7469   -5.4569   -2.3820 H   0  0  0  0  0  0  0  0  0  0  0  0
    0.8432   -4.1720   -3.2642 H   0  0  0  0  0  0  0  0  0  0  0  0
    0.1147   -5.8109   -3.0699 H   0  0  0  0  0  0  0  0  0  0  0  0
    1.4609   -0.1886    0.8421 H   0  0  0  0  0  0  0  0  0  0  0  0
    0.3899    1.0688    2.5584 H   0  0  0  0  0  0  0  0  0  0  0  0
    1.3931    2.1196    1.5183 H   0  0  0  0  0  0  0  0  0  0  0  0
   -0.3988    2.1230    1.3574 H   0  0  0  0  0  0  0  0  0  0  0  0
    1.2783    1.9104   -0.8082 H   0  0  0  0  0  0  0  0  0  0  0  0
    2.9583    1.7740   -2.1703 H   0  0  0  0  0  0  0  0  0  0  0  0
    5.5333   -1.2268   -2.6759 H   0  0  0  0  0  0  0  0  0  0  0  0
    3.4267   -2.1691   -3.6644 H   0  0  0  0  0  0  0  0  0  0  0  0
    2.7379   -2.2944   -1.9998 H   0  0  0  0  0  0  0  0  0  0  0  0
    4.2160   -3.2268   -2.4330 H   0  0  0  0  0  0  0  0  0  0  0  0
    5.7004   -1.8746   -0.4982 H   0  0  0  0  0  0  0  0  0  0  0  0
    4.0004   -1.5193   -0.0624 H   0  0  0  0  0  0  0  0  0  0  0  0
    6.1100    0.6304   -0.7476 H   0  0  0  0  0  0  0  0  0  0  0  0
    3.3550    1.0969    0.4898 H   0  0  0  0  0  0  0  0  0  0  0  0
    3.8338    3.0973   -0.0355 H   0  0  0  0  0  0  0  0  0  0  0  0
    6.8401   -1.5744    1.3142 H   0  0  0  0  0  0  0  0  0  0  0  0
    7.3009   -0.4075    2.5458 H   0  0  0  0  0  0  0  0  0  0  0  0
    7.7407   -0.0673    0.8255 H   0  0  0  0  0  0  0  0  0  0  0  0
    6.2005    1.5135    2.9356 H   0  0  0  0  0  0  0  0  0  0  0  0
    4.8078    2.0459    2.0116 H   0  0  0  0  0  0  0  0  0  0  0  0
    6.4671    2.2100    1.2805 H   0  0  0  0  0  0  0  0  0  0  0  0
    1.4112    0.3977   -3.7416 H   0  0  0  0  0  0  0  0  0  0  0  0
   -0.0532    1.1797   -4.3929 H   0  0  0  0  0  0  0  0  0  0  0  0
    1.1898    2.1515   -3.5757 H   0  0  0  0  0  0  0  0  0  0  0  0
   -2.0582    1.8089   -1.6425 H   0  0  0  0  0  0  0  0  0  0  0  0
   -1.4900    2.3897   -3.1270 H   0  0  0  0  0  0  0  0  0  0  0  0
   -0.4153    3.3777   -0.4037 H   0  0  0  0  0  0  0  0  0  0  0  0
    0.4609    5.3070   -1.7612 H   0  0  0  0  0  0  0  0  0  0  0  0
    1.3040    3.7833   -2.1041 H   0  0  0  0  0  0  0  0  0  0  0  0
    0.0560    4.4040   -3.2826 H   0  0  0  0  0  0  0  0  0  0  0  0
   -3.4019    5.7417   -0.4264 H   0  0  0  0  0  0  0  0  0  0  0  0
   -0.4934    5.7524    0.5424 H   0  0  0  0  0  0  0  0  0  0  0  0
   -1.7873    6.9338    0.9579 H   0  0  0  0  0  0  0  0  0  0  0  0
   -1.1911    6.8472   -0.7234 H   0  0  0  0  0  0  0  0  0  0  0  0
   -1.8962    3.7168    1.2880 H   0  0  0  0  0  0  0  0  0  0  0  0
   -3.6864    5.7770    2.0134 H   0  0  0  0  0  0  0  0  0  0  0  0
   -5.6433    4.5090    1.8235 H   0  0  0  0  0  0  0  0  0  0  0  0
   -6.1655    3.3177    0.5785 H   0  0  0  0  0  0  0  0  0  0  0  0
   -5.3484    4.7886    0.0734 H   0  0  0  0  0  0  0  0  0  0  0  0
   -4.2157    2.8898   -0.9498 H   0  0  0  0  0  0  0  0  0  0  0  0
   -1.0748   -2.1694   -2.7746 H   0  0  0  0  0  0  0  0  0  0  0  0
    0.5984   -1.5427   -2.7436 H   0  0  0  0  0  0  0  0  0  0  0  0
   -0.5747   -1.0789   -4.0696 H   0  0  0  0  0  0  0  0  0  0  0  0
  1  2  1  0
  3  2  1  0
  3  4  1  0
  4  5  1  0
  5  6  2  0
  5  7  1  0
  7  8  1  0
  7  9  1  0
  9 10  1  0
 11 10  1  0
 11 12  1  0
 12 13  1  0
 13 14  1  0
 13 15  1  1
 15 16  1  0
 13 17  1  0
 17 18  1  0
 17 19  1  0
 19 20  1  0
 19 21  1  0
 21 11  1  0
  9 22  1  0
 22 23  1  0
 22 24  1  0
 24 25  1  0
 26 25  1  0
 26 27  1  0
 27 28  1  0
 28 29  1  0
 28 30  1  0
 30 31  1  0
 31 32  1  0
 32 26  1  0
 32 33  1  0
 31 34  1  0
 34 35  1  0
 34 36  1  0
 24 37  1  0
 37 38  1  0
 37 39  1  0
 39 40  1  0
 40 41  1  0
 40 42  1  0
 42 43  2  0
 42 44  1  0
 44 45  1  0
 44 46  1  0
 46 47  1  0
 46 48  1  0
 48  3  1  0
 48 49  1  0
 48 50  1  6
 37 51  1  6
 51 52  1  0
  1 53  1  0
  1 54  1  0
  1 55  1  0
  2 56  1  0
  2 57  1  0
  3 58  1  1
  7 59  1  6
  8 60  1  0
  8 61  1  0
  8 62  1  0
  9 63  1  1
 11 64  1  1
 12 65  1  0
 12 66  1  0
 14 67  1  0
 14 68  1  0
 14 69  1  0
 16 70  1  0
 16 71  1  0
 16 72  1  0
 17 73  1  1
 18 74  1  0
 19 75  1  6
 20 76  1  0
 20 77  1  0
 20 78  1  0
 22 79  1  1
 23 80  1  0
 23 81  1  0
 23 82  1  0
 24 83  1  1
 26 84  1  6
 28 85  1  6
 29 86  1  0
 29 87  1  0
 29 88  1  0
 30 89  1  0
 30 90  1  0
 31 91  1  6
 32 92  1  1
 33 93  1  0
 35 94  1  0
 35 95  1  0
 35 96  1  0
 36 97  1  0
 36 98  1  0
 36 99  1  0
 38100  1  0
 38101  1  0
 38102  1  0
 39103  1  0
 39104  1  0
 40105  1  1
 41106  1  0
 41107  1  0
 41108  1  0
 44109  1  6
 45110  1  0
 45111  1  0
 45112  1  0
 46113  1  1
 47114  1  0
 49115  1  0
 49116  1  0
 49117  1  0
 50118  1  0
 52119  1  0
 52120  1  0
 52121  1  0
M  END
> <ID>
HT0504

> <Class>
1.0

> <Clusters>
95

> <Fold>
3

$$$$