
     RDKit          3D

 52 56  0  0  0  0  0  0  0  0999 V2000
    2.4205    1.7468   -1.4303 C   0  0  0  0  0  0  0  0  0  0  0  0
    1.9985    0.6130   -0.4641 C   0  0  1  0  0  0  0  0  0  0  0  0
    2.5578   -0.7493   -1.0185 C   0  0  0  0  0  0  0  0  0  0  0  0
    4.0203   -0.8655   -0.7296 C   0  0  0  0  0  0  0  0  0  0  0  0
    5.0057   -1.6516   -1.2798 C   0  0  0  0  0  0  0  0  0  0  0  0
    6.1380   -1.4726   -0.5614 N   0  0  0  0  0  0  0  0  0  0  0  0
    5.8646   -0.6310    0.3990 O   0  0  0  0  0  0  0  0  0  0  0  0
    4.6118   -0.2559    0.3297 C   0  0  0  0  0  0  0  0  0  0  0  0
    3.8738    0.6185    1.2371 C   0  0  0  0  0  0  0  0  0  0  0  0
    2.6019    0.9451    0.9263 C   0  0  0  0  0  0  0  0  0  0  0  0
    1.7377    1.6647    1.9356 C   0  0  0  0  0  0  0  0  0  0  0  0
    0.3940    0.9336    2.1665 C   0  0  0  0  0  0  0  0  0  0  0  0
   -0.0028   -0.0243    1.0114 C   0  0  2  0  0  0  0  0  0  0  0  0
    0.4278    0.5938   -0.3422 C   0  0  2  0  0  0  0  0  0  0  0  0
   -0.3039   -0.0978   -1.4992 C   0  0  0  0  0  0  0  0  0  0  0  0
   -1.8185    0.1600   -1.4364 C   0  0  0  0  0  0  0  0  0  0  0  0
   -2.4481    0.2062    0.0151 C   0  0  2  0  0  0  0  0  0  0  0  0
   -2.8029    1.6704    0.3856 C   0  0  0  0  0  0  0  0  0  0  0  0
   -1.5134   -0.4263    1.0791 C   0  0  1  0  0  0  0  0  0  0  0  0
   -1.7496   -1.9438    0.9544 C   0  0  0  0  0  0  0  0  0  0  0  0
   -3.1111   -2.1236    0.2753 C   0  0  0  0  0  0  0  0  0  0  0  0
   -3.7052   -0.7129    0.1309 C   0  0  1  0  0  0  0  0  0  0  0  0
   -4.4282   -0.3929    1.3013 O   0  0  0  0  0  0  0  0  0  0  0  0
   -4.6162   -0.6110   -1.0347 C   0  0  0  0  0  0  0  0  0  0  0  0
   -5.3582   -0.5269   -1.9813 C   0  0  0  0  0  0  0  0  0  0  0  0
    2.0060    1.5828   -2.4466 H   0  0  0  0  0  0  0  0  0  0  0  0
    3.5267    1.8016   -1.5189 H   0  0  0  0  0  0  0  0  0  0  0  0
    2.0622    2.7330   -1.0638 H   0  0  0  0  0  0  0  0  0  0  0  0
    2.3912   -0.8321   -2.1144 H   0  0  0  0  0  0  0  0  0  0  0  0
    2.0541   -1.6090   -0.5294 H   0  0  0  0  0  0  0  0  0  0  0  0
    4.9093   -2.3181   -2.1262 H   0  0  0  0  0  0  0  0  0  0  0  0
    4.3203    0.9090    2.1797 H   0  0  0  0  0  0  0  0  0  0  0  0
    2.2586    1.7890    2.9105 H   0  0  0  0  0  0  0  0  0  0  0  0
    1.5346    2.6849    1.5439 H   0  0  0  0  0  0  0  0  0  0  0  0
   -0.3969    1.7019    2.3115 H   0  0  0  0  0  0  0  0  0  0  0  0
    0.4560    0.3453    3.1085 H   0  0  0  0  0  0  0  0  0  0  0  0
    0.5964   -0.9485    1.1709 H   0  0  0  0  0  0  0  0  0  0  0  0
    0.0888    1.6528   -0.3501 H   0  0  0  0  0  0  0  0  0  0  0  0
    0.0757    0.2733   -2.4744 H   0  0  0  0  0  0  0  0  0  0  0  0
   -0.1197   -1.1926   -1.4705 H   0  0  0  0  0  0  0  0  0  0  0  0
   -2.0319    1.1114   -1.9724 H   0  0  0  0  0  0  0  0  0  0  0  0
   -2.2838   -0.6316   -2.0604 H   0  0  0  0  0  0  0  0  0  0  0  0
   -3.1551    1.7549    1.4355 H   0  0  0  0  0  0  0  0  0  0  0  0
   -1.9286    2.3409    0.2776 H   0  0  0  0  0  0  0  0  0  0  0  0
   -3.6073    2.0488   -0.2805 H   0  0  0  0  0  0  0  0  0  0  0  0
   -1.9016   -0.1524    2.0885 H   0  0  0  0  0  0  0  0  0  0  0  0
   -1.7478   -2.4184    1.9603 H   0  0  0  0  0  0  0  0  0  0  0  0
   -0.9654   -2.4356    0.3394 H   0  0  0  0  0  0  0  0  0  0  0  0
   -3.7678   -2.7930    0.8731 H   0  0  0  0  0  0  0  0  0  0  0  0
   -2.9618   -2.5936   -0.7231 H   0  0  0  0  0  0  0  0  0  0  0  0
   -5.1976   -1.0182    1.3743 H   0  0  0  0  0  0  0  0  0  0  0  0
   -6.0088   -0.4528   -2.8125 H   0  0  0  0  0  0  0  0  0  0  0  0
  2  1  1  6
  2  3  1  0
  3  4  1  0
  4  5  1  0
  5  6  2  0
  6  7  1  0
  7  8  1  0
  8  4  2  0
  8  9  1  0
  9 10  2  0
 10  2  1  0
 10 11  1  0
 11 12  1  0
 13 12  1  0
 13 14  1  0
 14  2  1  0
 14 15  1  0
 15 16  1  0
 16 17  1  0
 17 18  1  1
 17 19  1  0
 19 13  1  0
 19 20  1  0
 20 21  1  0
 21 22  1  0
 22 17  1  0
 22 23  1  0
 22 24  1  6
 24 25  3  0
  1 26  1  0
  1 27  1  0
  1 28  1  0
  3 29  1  0
  3 30  1  0
  5 31  1  0
  9 32  1  0
 11 33  1  0
 11 34  1  0
 12 35  1  0
 12 36  1  0
 13 37  1  1
 14 38  1  1
 15 39  1  0
 15 40  1  0
 16 41  1  0
 16 42  1  0
 18 43  1  0
 18 44  1  0
 18 45  1  0
 19 46  1  1
 20 47  1  0
 20 48  1  0
 21 49  1  0
 21 50  1  0
 23 51  1  0
 25 52  1  0
M  END
> <ID>
HT0587

> <Class>
1.0

> <Clusters>
167

> <Fold>
3

$$$$