
     RDKit          3D

 40 42  0  0  0  0  0  0  0  0999 V2000
    3.9404    0.7075   -0.9138 C   0  0  0  0  0  0  0  0  0  0  0  0
    3.7873   -0.4166    0.0275 N   0  0  0  0  0  0  0  0  0  0  0  0
    5.0038   -0.5334    0.8480 C   0  0  0  0  0  0  0  0  0  0  0  0
    2.6017   -0.2271    0.8920 C   0  0  0  0  0  0  0  0  0  0  0  0
    1.3354   -0.7394    0.1916 C   0  0  0  0  0  0  0  0  0  0  0  0
    0.0986   -0.6369    1.1065 C   0  0  0  0  0  0  0  0  0  0  0  0
   -1.1082   -0.2633    0.3524 N   0  0  0  0  0  0  0  0  0  0  0  0
   -1.9893   -1.2700   -0.1983 C   0  0  0  0  0  0  0  0  0  0  0  0
   -1.4830   -2.3627   -0.9246 C   0  0  0  0  0  0  0  0  0  0  0  0
   -2.3518   -3.2326   -1.5908 C   0  0  0  0  0  0  0  0  0  0  0  0
   -3.7307   -3.0142   -1.5522 C   0  0  0  0  0  0  0  0  0  0  0  0
   -4.2474   -1.9373   -0.8290 C   0  0  0  0  0  0  0  0  0  0  0  0
   -3.3840   -1.0785   -0.1405 C   0  0  0  0  0  0  0  0  0  0  0  0
   -4.0588    0.2039    0.9146 S   0  0  0  0  0  0  0  0  0  0  0  0
   -2.8914    1.4417    0.3499 C   0  0  0  0  0  0  0  0  0  0  0  0
   -3.3284    2.7449    0.0916 C   0  0  0  0  0  0  0  0  0  0  0  0
   -2.4013    3.7477   -0.2009 C   0  0  0  0  0  0  0  0  0  0  0  0
   -1.0352    3.4513   -0.2312 C   0  0  0  0  0  0  0  0  0  0  0  0
    0.1281    4.7152   -0.5870 Cl  0  0  0  0  0  0  0  0  0  0  0  0
   -0.5959    2.1435    0.0029 C   0  0  0  0  0  0  0  0  0  0  0  0
   -1.5226    1.1209    0.2760 C   0  0  0  0  0  0  0  0  0  0  0  0
    4.8110    0.5303   -1.5816 H   0  0  0  0  0  0  0  0  0  0  0  0
    3.0492    0.7964   -1.5681 H   0  0  0  0  0  0  0  0  0  0  0  0
    4.0909    1.6701   -0.3756 H   0  0  0  0  0  0  0  0  0  0  0  0
    5.8974   -0.6621    0.1994 H   0  0  0  0  0  0  0  0  0  0  0  0
    5.1451    0.3660    1.4886 H   0  0  0  0  0  0  0  0  0  0  0  0
    4.9423   -1.4348    1.4949 H   0  0  0  0  0  0  0  0  0  0  0  0
    2.4782    0.8426    1.1786 H   0  0  0  0  0  0  0  0  0  0  0  0
    2.7097   -0.8085    1.8367 H   0  0  0  0  0  0  0  0  0  0  0  0
    1.1640   -0.1743   -0.7473 H   0  0  0  0  0  0  0  0  0  0  0  0
    1.5019   -1.8016   -0.0860 H   0  0  0  0  0  0  0  0  0  0  0  0
    0.2644    0.1117    1.9132 H   0  0  0  0  0  0  0  0  0  0  0  0
   -0.0635   -1.6094    1.6212 H   0  0  0  0  0  0  0  0  0  0  0  0
   -0.4217   -2.5265   -1.0159 H   0  0  0  0  0  0  0  0  0  0  0  0
   -1.9536   -4.0663   -2.1547 H   0  0  0  0  0  0  0  0  0  0  0  0
   -4.3996   -3.6850   -2.0757 H   0  0  0  0  0  0  0  0  0  0  0  0
   -5.3186   -1.7888   -0.7800 H   0  0  0  0  0  0  0  0  0  0  0  0
   -4.3814    2.9891    0.1510 H   0  0  0  0  0  0  0  0  0  0  0  0
   -2.7439    4.7574   -0.3878 H   0  0  0  0  0  0  0  0  0  0  0  0
    0.4609    1.9294   -0.0589 H   0  0  0  0  0  0  0  0  0  0  0  0
  1  2  1  0
  2  3  1  0
  2  4  1  0
  4  5  1  0
  5  6  1  0
  6  7  1  0
  7  8  1  0
  8  9  2  0
  9 10  1  0
 10 11  2  0
 11 12  1  0
 12 13  2  0
 13  8  1  0
 13 14  1  0
 14 15  1  0
 15 16  2  0
 16 17  1  0
 17 18  2  0
 18 19  1  0
 18 20  1  0
 20 21  2  0
 21  7  1  0
 21 15  1  0
  1 22  1  0
  1 23  1  0
  1 24  1  0
  3 25  1  0
  3 26  1  0
  3 27  1  0
  4 28  1  0
  4 29  1  0
  5 30  1  0
  5 31  1  0
  6 32  1  0
  6 33  1  0
  9 34  1  0
 10 35  1  0
 11 36  1  0
 12 37  1  0
 16 38  1  0
 17 39  1  0
 20 40  1  0
M  END
> <ID>
HT0468

> <Class>
1.0

> <Clusters>
1

> <Fold>
3

$$$$