
     RDKit          3D

 47 50  0  0  0  0  0  0  0  0999 V2000
   -0.9549    1.6975   -3.8884 C   0  0  0  0  0  0  0  0  0  0  0  0
   -1.8793    0.7377   -3.2121 C   0  0  0  0  0  0  0  0  0  0  0  0
   -2.7723    0.0162   -3.8491 O   0  0  0  0  0  0  0  0  0  0  0  0
   -3.4816   -0.6977   -3.0234 N   0  0  0  0  0  0  0  0  0  0  0  0
   -3.0379   -0.4281   -1.7794 C   0  0  0  0  0  0  0  0  0  0  0  0
   -3.5604   -1.0882   -0.5633 C   0  0  0  0  0  0  0  0  0  0  0  0
   -2.6577   -1.6123    0.3789 C   0  0  0  0  0  0  0  0  0  0  0  0
   -3.1240   -2.2556    1.5274 C   0  0  0  0  0  0  0  0  0  0  0  0
   -4.4957   -2.3895    1.7454 C   0  0  0  0  0  0  0  0  0  0  0  0
   -5.4043   -1.8808    0.8149 C   0  0  0  0  0  0  0  0  0  0  0  0
   -4.9476   -1.2333   -0.3404 C   0  0  0  0  0  0  0  0  0  0  0  0
   -6.1431   -0.5732   -1.4519 Cl  0  0  0  0  0  0  0  0  0  0  0  0
   -1.9943    0.4828   -1.8556 C   0  0  0  0  0  0  0  0  0  0  0  0
   -1.3033    1.1547   -0.7382 C   0  0  0  0  0  0  0  0  0  0  0  0
   -1.9507    1.4361    0.3067 O   0  0  0  0  0  0  0  0  0  0  0  0
    0.0934    1.4673   -0.8190 N   0  0  0  0  0  0  0  0  0  0  0  0
    0.7535    2.2928    0.1957 C   0  0  1  0  0  0  0  0  0  0  0  0
    1.1584    1.5788    1.3876 C   0  0  1  0  0  0  0  0  0  0  0  0
    0.8555   -0.2242    1.5021 S   0  0  0  0  0  0  0  0  0  0  0  0
    2.6361   -0.6649    1.2094 C   0  0  0  0  0  0  0  0  0  0  0  0
    2.7435   -1.2083   -0.2272 C   0  0  0  0  0  0  0  0  0  0  0  0
    3.0459   -1.7831    2.1875 C   0  0  0  0  0  0  0  0  0  0  0  0
    3.4957    0.6358    1.3376 C   0  0  1  0  0  0  0  0  0  0  0  0
    2.5537    1.6962    1.0948 N   0  0  0  0  0  0  0  0  0  0  0  0
    2.2065    2.4939   -0.1041 C   0  0  0  0  0  0  0  0  0  0  0  0
    2.8598    3.0502   -1.0248 O   0  0  0  0  0  0  0  0  0  0  0  0
    4.1236    0.8449    2.6902 C   0  0  0  0  0  0  0  0  0  0  0  0
    3.4039    1.0447    3.7065 O   0  0  0  0  0  0  0  0  0  0  0  0
    5.5088    0.8210    2.8177 O   0  0  0  0  0  0  0  0  0  0  0  0
   -1.2266    1.7873   -4.9611 H   0  0  0  0  0  0  0  0  0  0  0  0
    0.0893    1.3309   -3.8243 H   0  0  0  0  0  0  0  0  0  0  0  0
   -1.0347    2.6973   -3.4132 H   0  0  0  0  0  0  0  0  0  0  0  0
   -1.5901   -1.5394    0.2157 H   0  0  0  0  0  0  0  0  0  0  0  0
   -2.4203   -2.6556    2.2461 H   0  0  0  0  0  0  0  0  0  0  0  0
   -4.8555   -2.8883    2.6360 H   0  0  0  0  0  0  0  0  0  0  0  0
   -6.4665   -1.9857    0.9954 H   0  0  0  0  0  0  0  0  0  0  0  0
    0.6495    1.0995   -1.6223 H   0  0  0  0  0  0  0  0  0  0  0  0
    0.2279    3.2543    0.3843 H   0  0  0  0  0  0  0  0  0  0  0  0
    0.9030    2.1131    2.3292 H   0  0  0  0  0  0  0  0  0  0  0  0
    2.0653   -2.0772   -0.3699 H   0  0  0  0  0  0  0  0  0  0  0  0
    3.7836   -1.5346   -0.4445 H   0  0  0  0  0  0  0  0  0  0  0  0
    2.4625   -0.4270   -0.9642 H   0  0  0  0  0  0  0  0  0  0  0  0
    2.8393   -1.4884    3.2374 H   0  0  0  0  0  0  0  0  0  0  0  0
    4.1280   -2.0132    2.0826 H   0  0  0  0  0  0  0  0  0  0  0  0
    2.4666   -2.7097    1.9847 H   0  0  0  0  0  0  0  0  0  0  0  0
    4.2976    0.6656    0.5668 H   0  0  0  0  0  0  0  0  0  0  0  0
    5.9497    0.9598    3.7189 H   0  0  0  0  0  0  0  0  0  0  0  0
  1  2  1  0
  2  3  1  0
  3  4  1  0
  4  5  2  0
  5  6  1  0
  6  7  2  0
  7  8  1  0
  8  9  2  0
  9 10  1  0
 10 11  2  0
 11  6  1  0
 11 12  1  0
  5 13  1  0
 13  2  2  0
 13 14  1  0
 14 15  2  0
 14 16  1  0
 17 16  1  0
 17 18  1  0
 18 19  1  0
 19 20  1  0
 20 21  1  0
 20 22  1  0
 20 23  1  0
 23 24  1  0
 24 18  1  0
 24 25  1  0
 25 17  1  0
 25 26  2  0
 23 27  1  0
 27 28  2  0
 27 29  1  0
  1 30  1  0
  1 31  1  0
  1 32  1  0
  7 33  1  0
  8 34  1  0
  9 35  1  0
 10 36  1  0
 16 37  1  0
 17 38  1  1
 18 39  1  1
 21 40  1  0
 21 41  1  0
 21 42  1  0
 22 43  1  0
 22 44  1  0
 22 45  1  0
 23 46  1  6
 29 47  1  0
M  END
> <ID>
HT0538

> <Class>
1.0

> <Clusters>
62

> <Fold>
3

$$$$