
     RDKit          3D

 37 38  0  0  0  0  0  0  0  0999 V2000
    4.5066    0.4307   -0.7346 C   0  0  0  0  0  0  0  0  0  0  0  0
    3.9775   -0.1106    0.6092 C   0  0  0  0  0  0  0  0  0  0  0  0
    3.9652   -1.6524    0.6464 C   0  0  0  0  0  0  0  0  0  0  0  0
    2.6716    0.4193    0.8961 O   0  0  0  0  0  0  0  0  0  0  0  0
    1.4461    0.2793    0.2132 C   0  0  0  0  0  0  0  0  0  0  0  0
    1.2668   -0.4607   -0.9729 C   0  0  0  0  0  0  0  0  0  0  0  0
    0.0068   -0.5405   -1.5748 C   0  0  0  0  0  0  0  0  0  0  0  0
   -1.1019    0.1029   -1.0039 C   0  0  0  0  0  0  0  0  0  0  0  0
   -0.9199    0.8537    0.1681 C   0  0  0  0  0  0  0  0  0  0  0  0
    0.3389    0.9331    0.7681 C   0  0  0  0  0  0  0  0  0  0  0  0
   -2.4280    0.0234   -1.6635 C   0  0  0  0  0  0  0  0  0  0  0  0
   -2.4775   -0.0608   -2.9213 O   0  0  0  0  0  0  0  0  0  0  0  0
   -3.6981    0.0392   -0.8976 C   0  0  0  0  0  0  0  0  0  0  0  0
   -4.8537    0.6055   -1.4646 C   0  0  0  0  0  0  0  0  0  0  0  0
   -6.0601    0.6103   -0.7577 C   0  0  0  0  0  0  0  0  0  0  0  0
   -6.1289    0.0403    0.5169 C   0  0  0  0  0  0  0  0  0  0  0  0
   -7.6437    0.0461    1.4013 Cl  0  0  0  0  0  0  0  0  0  0  0  0
   -4.9902   -0.5405    1.0828 C   0  0  0  0  0  0  0  0  0  0  0  0
   -3.7821   -0.5470    0.3791 C   0  0  0  0  0  0  0  0  0  0  0  0
    4.9233    0.3670    1.7005 C   0  0  0  0  0  0  0  0  0  0  0  0
    6.1379    0.0299    1.6664 O   0  0  0  0  0  0  0  0  0  0  0  0
    4.4907    1.1756    2.7528 O   0  0  0  0  0  0  0  0  0  0  0  0
    4.4707    1.5414   -0.7352 H   0  0  0  0  0  0  0  0  0  0  0  0
    5.5590    0.1133   -0.8992 H   0  0  0  0  0  0  0  0  0  0  0  0
    3.9268    0.0712   -1.6016 H   0  0  0  0  0  0  0  0  0  0  0  0
    4.9954   -2.0564    0.5414 H   0  0  0  0  0  0  0  0  0  0  0  0
    3.5472   -2.0040    1.6141 H   0  0  0  0  0  0  0  0  0  0  0  0
    3.3651   -2.0975   -0.1654 H   0  0  0  0  0  0  0  0  0  0  0  0
    2.0692   -0.9832   -1.4568 H   0  0  0  0  0  0  0  0  0  0  0  0
   -0.1040   -1.1180   -2.4846 H   0  0  0  0  0  0  0  0  0  0  0  0
   -1.7467    1.3922    0.6139 H   0  0  0  0  0  0  0  0  0  0  0  0
    0.4576    1.5149    1.6737 H   0  0  0  0  0  0  0  0  0  0  0  0
   -4.8201    1.0544   -2.4497 H   0  0  0  0  0  0  0  0  0  0  0  0
   -6.9405    1.0568   -1.2022 H   0  0  0  0  0  0  0  0  0  0  0  0
   -5.0411   -0.9927    2.0651 H   0  0  0  0  0  0  0  0  0  0  0  0
   -2.9189   -1.0232    0.8268 H   0  0  0  0  0  0  0  0  0  0  0  0
    3.5330    1.4876    2.8499 H   0  0  0  0  0  0  0  0  0  0  0  0
  1  2  1  0
  2  3  1  0
  2  4  1  0
  4  5  1  0
  5  6  2  0
  6  7  1  0
  7  8  2  0
  8  9  1  0
  9 10  2  0
 10  5  1  0
  8 11  1  0
 11 12  2  0
 11 13  1  0
 13 14  2  0
 14 15  1  0
 15 16  2  0
 16 17  1  0
 16 18  1  0
 18 19  2  0
 19 13  1  0
  2 20  1  0
 20 21  2  0
 20 22  1  0
  1 23  1  0
  1 24  1  0
  1 25  1  0
  3 26  1  0
  3 27  1  0
  3 28  1  0
  6 29  1  0
  7 30  1  0
  9 31  1  0
 10 32  1  0
 14 33  1  0
 15 34  1  0
 18 35  1  0
 19 36  1  0
 22 37  1  0
M  END
> <ID>
HT0477

> <Class>
1.0

> <Clusters>
56

> <Fold>
3

$$$$