
     RDKit          3D

 28 29  0  0  0  0  0  0  0  0999 V2000
   -5.0874    0.6363    0.2572 N   0  0  0  0  0  0  0  0  0  0  0  0
   -3.7147    0.2895    0.4232 C   0  0  0  0  0  0  0  0  0  0  0  0
   -3.3664   -0.7377    1.2346 N   0  0  0  0  0  0  0  0  0  0  0  0
   -2.0625   -1.0738    1.3997 C   0  0  0  0  0  0  0  0  0  0  0  0
   -1.7734   -2.0465    2.1477 O   0  0  0  0  0  0  0  0  0  0  0  0
   -1.0811   -0.3647    0.7556 N   0  0  0  0  0  0  0  0  0  0  0  0
   -1.4481    0.6540   -0.0801 C   0  0  0  0  0  0  0  0  0  0  0  0
   -2.7547    0.9795   -0.2372 N   0  0  0  0  0  0  0  0  0  0  0  0
    0.3440   -0.7311    0.8916 C   0  0  1  0  0  0  0  0  0  0  0  0
    0.7901   -1.6060   -0.2800 C   0  0  0  0  0  0  0  0  0  0  0  0
    1.7550   -0.7325   -1.0299 C   0  0  2  0  0  0  0  0  0  0  0  0
    2.8293   -1.4879   -1.5248 O   0  0  0  0  0  0  0  0  0  0  0  0
    2.2082    0.2532    0.0394 C   0  0  1  0  0  0  0  0  0  0  0  0
    2.6142    1.6040   -0.5633 C   0  0  0  0  0  0  0  0  0  0  0  0
    3.0295    2.4841    0.4459 O   0  0  0  0  0  0  0  0  0  0  0  0
    1.1451    0.4329    0.9453 O   0  0  0  0  0  0  0  0  0  0  0  0
   -5.8317    0.1051    0.7613 H   0  0  0  0  0  0  0  0  0  0  0  0
   -5.3614    1.4250   -0.3700 H   0  0  0  0  0  0  0  0  0  0  0  0
   -0.7038    1.2141   -0.6313 H   0  0  0  0  0  0  0  0  0  0  0  0
    0.5120   -1.2860    1.8415 H   0  0  0  0  0  0  0  0  0  0  0  0
   -0.0567   -1.9193   -0.9301 H   0  0  0  0  0  0  0  0  0  0  0  0
    1.3016   -2.5162    0.1068 H   0  0  0  0  0  0  0  0  0  0  0  0
    1.2128   -0.2177   -1.8588 H   0  0  0  0  0  0  0  0  0  0  0  0
    3.3060   -0.9074   -2.1733 H   0  0  0  0  0  0  0  0  0  0  0  0
    3.0768   -0.1701    0.5948 H   0  0  0  0  0  0  0  0  0  0  0  0
    1.7460    2.0564   -1.0885 H   0  0  0  0  0  0  0  0  0  0  0  0
    3.4297    1.4647   -1.3091 H   0  0  0  0  0  0  0  0  0  0  0  0
    3.9415    2.1982    0.7148 H   0  0  0  0  0  0  0  0  0  0  0  0
  1  2  1  0
  2  3  2  0
  3  4  1  0
  4  5  2  0
  4  6  1  0
  6  7  1  0
  7  8  2  0
  8  2  1  0
  9  6  1  0
  9 10  1  0
 10 11  1  0
 11 12  1  0
 11 13  1  0
 13 14  1  0
 14 15  1  0
 13 16  1  0
 16  9  1  0
  1 17  1  0
  1 18  1  0
  7 19  1  0
  9 20  1  1
 10 21  1  0
 10 22  1  0
 11 23  1  6
 12 24  1  0
 13 25  1  1
 14 26  1  0
 14 27  1  0
 15 28  1  0
M  END
> <ID>
HT0598

> <Class>
1.0

> <Clusters>
25

> <Fold>
3

$$$$