
     RDKit          3D

 61 62  0  0  0  0  0  0  0  0999 V2000
   -1.7531    3.5692    1.2887 C   0  0  0  0  0  0  0  0  0  0  0  0
   -1.3377    2.1944    1.8248 C   0  0  0  0  0  0  0  0  0  0  0  0
   -1.9403    1.9497    3.2118 C   0  0  0  0  0  0  0  0  0  0  0  0
   -1.7717    1.1001    0.8651 C   0  0  0  0  0  0  0  0  0  0  0  0
   -3.0965    0.9991    0.5756 N   0  0  0  0  0  0  0  0  0  0  0  0
   -3.5805    0.0771   -0.2933 C   0  0  0  0  0  0  0  0  0  0  0  0
   -2.7229   -0.7896   -0.8888 N   0  0  0  0  0  0  0  0  0  0  0  0
   -1.3877   -0.7636   -0.6406 C   0  0  0  0  0  0  0  0  0  0  0  0
   -0.5449   -1.7923   -1.2916 C   0  0  0  0  0  0  0  0  0  0  0  0
   -0.6468   -2.0041   -2.6762 C   0  0  0  0  0  0  0  0  0  0  0  0
    0.1399   -2.9769   -3.3006 C   0  0  0  0  0  0  0  0  0  0  0  0
    1.0230   -3.7548   -2.5463 C   0  0  0  0  0  0  0  0  0  0  0  0
    1.7858   -4.6966   -3.1539 F   0  0  0  0  0  0  0  0  0  0  0  0
    1.1139   -3.5667   -1.1646 C   0  0  0  0  0  0  0  0  0  0  0  0
    0.3289   -2.5953   -0.5365 C   0  0  0  0  0  0  0  0  0  0  0  0
   -0.8612    0.2139    0.2405 C   0  0  0  0  0  0  0  0  0  0  0  0
    0.5945    0.3214    0.4886 C   0  0  0  0  0  0  0  0  0  0  0  0
    1.4641    0.5026   -0.5126 C   0  0  0  0  0  0  0  0  0  0  0  0
    2.9529    0.5955   -0.2909 C   0  0  1  0  0  0  0  0  0  0  0  0
    3.2632    1.6834    0.5457 O   0  0  0  0  0  0  0  0  0  0  0  0
    3.5261   -0.7369    0.2479 C   0  0  0  0  0  0  0  0  0  0  0  0
    5.0554   -0.7122    0.4698 C   0  0  1  0  0  0  0  0  0  0  0  0
    5.4221   -1.8378    1.2274 O   0  0  0  0  0  0  0  0  0  0  0  0
    5.8282   -0.7393   -0.8653 C   0  0  0  0  0  0  0  0  0  0  0  0
    7.3220   -0.6852   -0.6953 C   0  0  0  0  0  0  0  0  0  0  0  0
    7.8490   -0.5672    0.4447 O   0  0  0  0  0  0  0  0  0  0  0  0
    8.1331   -0.7567   -1.8233 O   0  0  0  0  0  0  0  0  0  0  0  0
   -4.9892    0.0196   -0.5829 N   0  0  0  0  0  0  0  0  0  0  0  0
   -5.4809   -0.8766   -1.6303 C   0  0  0  0  0  0  0  0  0  0  0  0
   -6.0979    1.0743    0.2504 S   0  0  0  0  0  0  0  0  0  0  0  0
   -7.5052    0.5637    0.1140 O   0  0  0  0  0  0  0  0  0  0  0  0
   -5.7498    1.1253    1.7119 O   0  0  0  0  0  0  0  0  0  0  0  0
   -5.9969    2.7069   -0.4472 C   0  0  0  0  0  0  0  0  0  0  0  0
   -2.8593    3.6512    1.2170 H   0  0  0  0  0  0  0  0  0  0  0  0
   -1.3144    3.7324    0.2808 H   0  0  0  0  0  0  0  0  0  0  0  0
   -1.3814    4.3701    1.9630 H   0  0  0  0  0  0  0  0  0  0  0  0
   -0.2360    2.2195    1.9465 H   0  0  0  0  0  0  0  0  0  0  0  0
   -1.6219    0.9560    3.5937 H   0  0  0  0  0  0  0  0  0  0  0  0
   -3.0507    1.9805    3.1737 H   0  0  0  0  0  0  0  0  0  0  0  0
   -1.5868    2.7251    3.9247 H   0  0  0  0  0  0  0  0  0  0  0  0
   -1.3241   -1.4062   -3.2738 H   0  0  0  0  0  0  0  0  0  0  0  0
    0.0645   -3.1268   -4.3699 H   0  0  0  0  0  0  0  0  0  0  0  0
    1.7911   -4.1744   -0.5783 H   0  0  0  0  0  0  0  0  0  0  0  0
    0.3997   -2.4733    0.5371 H   0  0  0  0  0  0  0  0  0  0  0  0
    0.9448    0.2774    1.5120 H   0  0  0  0  0  0  0  0  0  0  0  0
    1.0959    0.5842   -1.5291 H   0  0  0  0  0  0  0  0  0  0  0  0
    3.4052    0.7969   -1.2831 H   0  0  0  0  0  0  0  0  0  0  0  0
    2.9900    1.4482    1.4703 H   0  0  0  0  0  0  0  0  0  0  0  0
    3.0339   -0.9736    1.2167 H   0  0  0  0  0  0  0  0  0  0  0  0
    3.2696   -1.5602   -0.4547 H   0  0  0  0  0  0  0  0  0  0  0  0
    5.3341    0.2161    1.0221 H   0  0  0  0  0  0  0  0  0  0  0  0
    5.2001   -1.6342    2.1735 H   0  0  0  0  0  0  0  0  0  0  0  0
    5.5389    0.1276   -1.4928 H   0  0  0  0  0  0  0  0  0  0  0  0
    5.5715   -1.6673   -1.4205 H   0  0  0  0  0  0  0  0  0  0  0  0
    9.1422   -0.7188   -1.7411 H   0  0  0  0  0  0  0  0  0  0  0  0
   -4.9604   -0.6572   -2.5865 H   0  0  0  0  0  0  0  0  0  0  0  0
   -5.2885   -1.9311   -1.3410 H   0  0  0  0  0  0  0  0  0  0  0  0
   -6.5697   -0.7487   -1.7964 H   0  0  0  0  0  0  0  0  0  0  0  0
   -6.6900    3.3854    0.0914 H   0  0  0  0  0  0  0  0  0  0  0  0
   -6.2771    2.6684   -1.5199 H   0  0  0  0  0  0  0  0  0  0  0  0
   -4.9598    3.0887   -0.3523 H   0  0  0  0  0  0  0  0  0  0  0  0
  1  2  1  0
  2  3  1  0
  2  4  1  0
  4  5  2  0
  5  6  1  0
  6  7  2  0
  7  8  1  0
  8  9  1  0
  9 10  2  0
 10 11  1  0
 11 12  2  0
 12 13  1  0
 12 14  1  0
 14 15  2  0
 15  9  1  0
  8 16  2  0
 16  4  1  0
 16 17  1  0
 17 18  2  0
 18 19  1  0
 19 20  1  0
 19 21  1  0
 21 22  1  0
 22 23  1  0
 22 24  1  0
 24 25  1  0
 25 26  2  0
 25 27  1  0
  6 28  1  0
 28 29  1  0
 28 30  1  0
 30 31  2  0
 30 32  2  0
 30 33  1  0
  1 34  1  0
  1 35  1  0
  1 36  1  0
  2 37  1  0
  3 38  1  0
  3 39  1  0
  3 40  1  0
 10 41  1  0
 11 42  1  0
 14 43  1  0
 15 44  1  0
 17 45  1  0
 18 46  1  0
 19 47  1  6
 20 48  1  0
 21 49  1  0
 21 50  1  0
 22 51  1  1
 23 52  1  0
 24 53  1  0
 24 54  1  0
 27 55  1  0
 29 56  1  0
 29 57  1  0
 29 58  1  0
 33 59  1  0
 33 60  1  0
 33 61  1  0
M  END
> <ID>
HT0554

> <Class>
1.0

> <Clusters>
110

> <Fold>
3

$$$$