
     RDKit          3D

 48 49  0  0  0  0  0  0  0  0999 V2000
    1.5489    2.0645    0.0580 C   0  0  0  0  0  0  0  0  0  0  0  0
    1.7742    0.9161   -0.9475 C   0  0  0  0  0  0  0  0  0  0  0  0
    1.3974    1.3251   -2.3855 C   0  0  0  0  0  0  0  0  0  0  0  0
    1.0548   -0.2611   -0.5396 O   0  0  0  0  0  0  0  0  0  0  0  0
   -0.3269   -0.4947   -0.3863 C   0  0  0  0  0  0  0  0  0  0  0  0
   -0.7052   -1.7775    0.0290 C   0  0  0  0  0  0  0  0  0  0  0  0
   -2.0500   -2.1079    0.2124 C   0  0  0  0  0  0  0  0  0  0  0  0
   -3.0523   -1.1514   -0.0057 C   0  0  0  0  0  0  0  0  0  0  0  0
   -2.6815    0.1320   -0.4388 C   0  0  0  0  0  0  0  0  0  0  0  0
   -1.3349    0.4616   -0.6227 C   0  0  0  0  0  0  0  0  0  0  0  0
   -4.4786   -1.5155    0.1758 C   0  0  0  0  0  0  0  0  0  0  0  0
   -4.8399   -2.6992   -0.0690 O   0  0  0  0  0  0  0  0  0  0  0  0
   -5.4955   -0.5381    0.6349 C   0  0  0  0  0  0  0  0  0  0  0  0
   -5.1607    0.4836    1.5432 C   0  0  0  0  0  0  0  0  0  0  0  0
   -6.1330    1.3877    1.9811 C   0  0  0  0  0  0  0  0  0  0  0  0
   -7.4504    1.2762    1.5270 C   0  0  0  0  0  0  0  0  0  0  0  0
   -8.6687    2.4111    2.0787 Cl  0  0  0  0  0  0  0  0  0  0  0  0
   -7.7968    0.2546    0.6377 C   0  0  0  0  0  0  0  0  0  0  0  0
   -6.8272   -0.6516    0.1977 C   0  0  0  0  0  0  0  0  0  0  0  0
    3.2594    0.5833   -0.9445 C   0  0  0  0  0  0  0  0  0  0  0  0
    4.0969    1.5012   -1.1710 O   0  0  0  0  0  0  0  0  0  0  0  0
    3.7295   -0.7569   -0.7107 N   0  0  0  0  0  0  0  0  0  0  0  0
    5.1503   -1.0717   -0.5741 C   0  0  0  0  0  0  0  0  0  0  0  0
    5.6728   -0.5986    0.7832 C   0  0  0  0  0  0  0  0  0  0  0  0
    7.3997   -1.0076    0.9794 S   0  0  0  0  0  0  0  0  0  0  0  0
    7.5775   -2.4976    0.8980 O   0  0  0  0  0  0  0  0  0  0  0  0
    8.2106   -0.3512   -0.1027 O   0  0  0  0  0  0  0  0  0  0  0  0
    7.9340   -0.4728    2.4808 O   0  0  0  0  0  0  0  0  0  0  0  0
    0.4996    2.4030    0.0959 H   0  0  0  0  0  0  0  0  0  0  0  0
    1.8371    1.7344    1.0793 H   0  0  0  0  0  0  0  0  0  0  0  0
    2.1634    2.9504   -0.2116 H   0  0  0  0  0  0  0  0  0  0  0  0
    0.3611    1.6935   -2.4714 H   0  0  0  0  0  0  0  0  0  0  0  0
    2.0575    2.1434   -2.7466 H   0  0  0  0  0  0  0  0  0  0  0  0
    1.5122    0.4556   -3.0678 H   0  0  0  0  0  0  0  0  0  0  0  0
    0.0539   -2.5280    0.2117 H   0  0  0  0  0  0  0  0  0  0  0  0
   -2.3058   -3.1091    0.5371 H   0  0  0  0  0  0  0  0  0  0  0  0
   -3.4352    0.8802   -0.6505 H   0  0  0  0  0  0  0  0  0  0  0  0
   -1.1207    1.4605   -0.9503 H   0  0  0  0  0  0  0  0  0  0  0  0
   -4.1521    0.5744    1.9261 H   0  0  0  0  0  0  0  0  0  0  0  0
   -5.8622    2.1706    2.6780 H   0  0  0  0  0  0  0  0  0  0  0  0
   -8.8168    0.1612    0.2871 H   0  0  0  0  0  0  0  0  0  0  0  0
   -7.1147   -1.4345   -0.4933 H   0  0  0  0  0  0  0  0  0  0  0  0
    3.0568   -1.5554   -0.6949 H   0  0  0  0  0  0  0  0  0  0  0  0
    5.2868   -2.1723   -0.6531 H   0  0  0  0  0  0  0  0  0  0  0  0
    5.7225   -0.5958   -1.3998 H   0  0  0  0  0  0  0  0  0  0  0  0
    5.5570    0.5016    0.8756 H   0  0  0  0  0  0  0  0  0  0  0  0
    5.0945   -1.0855    1.5971 H   0  0  0  0  0  0  0  0  0  0  0  0
    7.8006    0.5086    2.4645 H   0  0  0  0  0  0  0  0  0  0  0  0
  1  2  1  0
  2  3  1  0
  2  4  1  0
  4  5  1  0
  5  6  2  0
  6  7  1  0
  7  8  2  0
  8  9  1  0
  9 10  2  0
 10  5  1  0
  8 11  1  0
 11 12  2  0
 11 13  1  0
 13 14  2  0
 14 15  1  0
 15 16  2  0
 16 17  1  0
 16 18  1  0
 18 19  2  0
 19 13  1  0
  2 20  1  0
 20 21  2  0
 20 22  1  0
 22 23  1  0
 23 24  1  0
 24 25  1  0
 25 26  2  0
 25 27  2  0
 25 28  1  0
  1 29  1  0
  1 30  1  0
  1 31  1  0
  3 32  1  0
  3 33  1  0
  3 34  1  0
  6 35  1  0
  7 36  1  0
  9 37  1  0
 10 38  1  0
 14 39  1  0
 15 40  1  0
 18 41  1  0
 19 42  1  0
 22 43  1  0
 23 44  1  0
 23 45  1  0
 24 46  1  0
 24 47  1  0
 28 48  1  0
M  END
> <ID>
HT0474

> <Class>
1.0

> <Clusters>
56

> <Fold>
3

$$$$