
     RDKit          3D

 30 31  0  0  0  0  0  0  0  0999 V2000
   -5.1182   -1.1845   -0.3964 N   0  0  0  0  0  0  0  0  0  0  0  0
   -3.7566   -0.7699   -0.5083 C   0  0  0  0  0  0  0  0  0  0  0  0
   -3.4590    0.4291   -1.0682 N   0  0  0  0  0  0  0  0  0  0  0  0
   -2.1752    0.8566   -1.1918 C   0  0  0  0  0  0  0  0  0  0  0  0
   -1.9560    1.9857   -1.7083 O   0  0  0  0  0  0  0  0  0  0  0  0
   -1.1370    0.0696   -0.7564 N   0  0  0  0  0  0  0  0  0  0  0  0
   -1.4129   -1.1379   -0.1699 C   0  0  0  0  0  0  0  0  0  0  0  0
   -2.7267   -1.5825   -0.0402 C   0  0  0  0  0  0  0  0  0  0  0  0
    0.2585    0.5487   -0.8691 C   0  0  2  0  0  0  0  0  0  0  0  0
    1.1722   -0.5225   -0.9043 O   0  0  0  0  0  0  0  0  0  0  0  0
    2.3963   -0.0409   -0.3898 C   0  0  2  0  0  0  0  0  0  0  0  0
    3.0235   -1.1240    0.4993 C   0  0  0  0  0  0  0  0  0  0  0  0
    4.2843   -0.7202    0.9624 O   0  0  0  0  0  0  0  0  0  0  0  0
    2.1490    1.2710    0.3784 C   0  0  1  0  0  0  0  0  0  0  0  0
    2.8122    2.3290   -0.2660 O   0  0  0  0  0  0  0  0  0  0  0  0
    0.6462    1.4583    0.2930 C   0  0  2  0  0  0  0  0  0  0  0  0
    0.0152    1.0861    1.4971 O   0  0  0  0  0  0  0  0  0  0  0  0
   -5.8855   -0.5691   -0.7466 H   0  0  0  0  0  0  0  0  0  0  0  0
   -5.3664   -2.1032    0.0341 H   0  0  0  0  0  0  0  0  0  0  0  0
   -0.6189   -1.7679    0.2116 H   0  0  0  0  0  0  0  0  0  0  0  0
   -2.9367   -2.5396    0.4206 H   0  0  0  0  0  0  0  0  0  0  0  0
    0.3804    1.1125   -1.8236 H   0  0  0  0  0  0  0  0  0  0  0  0
    3.0820    0.1395   -1.2485 H   0  0  0  0  0  0  0  0  0  0  0  0
    3.1138   -2.0756   -0.0728 H   0  0  0  0  0  0  0  0  0  0  0  0
    2.3656   -1.3211    1.3725 H   0  0  0  0  0  0  0  0  0  0  0  0
    4.9090   -0.8043    0.1954 H   0  0  0  0  0  0  0  0  0  0  0  0
    2.4858    1.2074    1.4410 H   0  0  0  0  0  0  0  0  0  0  0  0
    2.7922    3.1002    0.3591 H   0  0  0  0  0  0  0  0  0  0  0  0
    0.3748    2.5127    0.0652 H   0  0  0  0  0  0  0  0  0  0  0  0
    0.2880    0.1566    1.7164 H   0  0  0  0  0  0  0  0  0  0  0  0
  1  2  1  0
  2  3  2  0
  3  4  1  0
  4  5  2  0
  4  6  1  0
  6  7  1  0
  7  8  2  0
  8  2  1  0
  9  6  1  0
  9 10  1  0
 10 11  1  0
 11 12  1  0
 12 13  1  0
 11 14  1  0
 14 15  1  0
 14 16  1  0
 16  9  1  0
 16 17  1  0
  1 18  1  0
  1 19  1  0
  7 20  1  0
  8 21  1  0
  9 22  1  6
 11 23  1  6
 12 24  1  0
 12 25  1  0
 13 26  1  0
 14 27  1  1
 15 28  1  0
 16 29  1  6
 17 30  1  0
M  END
> <ID>
HT0579

> <Class>
1.0

> <Clusters>
25

> <Fold>
3

$$$$