
     RDKit          3D

 61 63  0  0  0  0  0  0  0  0999 V2000
   -0.7677   -0.2162    3.2320 C   0  0  0  0  0  0  0  0  0  0  0  0
   -0.5399    0.0635    1.8682 O   0  0  0  0  0  0  0  0  0  0  0  0
   -0.3821    1.4582    1.6559 C   0  0  1  0  0  0  0  0  0  0  0  0
    1.1195    1.8463    1.6581 C   0  0  0  0  0  0  0  0  0  0  0  0
    1.8678    1.3904    0.4612 N   0  0  0  0  0  0  0  0  0  0  0  0
    2.2963   -0.0258    0.5089 C   0  0  0  0  0  0  0  0  0  0  0  0
    3.6302   -0.1478    1.2566 C   0  0  0  0  0  0  0  0  0  0  0  0
    4.1455   -1.5933    1.2692 C   0  0  0  0  0  0  0  0  0  0  0  0
    4.4145   -2.0635   -0.0530 O   0  0  0  0  0  0  0  0  0  0  0  0
    5.4755   -1.6395   -0.8697 C   0  0  0  0  0  0  0  0  0  0  0  0
    6.5376   -0.8466   -0.3896 C   0  0  0  0  0  0  0  0  0  0  0  0
    7.5681   -0.4548   -1.2500 C   0  0  0  0  0  0  0  0  0  0  0  0
    7.5523   -0.8507   -2.5899 C   0  0  0  0  0  0  0  0  0  0  0  0
    8.5528   -0.4694   -3.4218 F   0  0  0  0  0  0  0  0  0  0  0  0
    6.5059   -1.6413   -3.0709 C   0  0  0  0  0  0  0  0  0  0  0  0
    5.4746   -2.0357   -2.2132 C   0  0  0  0  0  0  0  0  0  0  0  0
    1.1998    1.7640   -0.8018 C   0  0  0  0  0  0  0  0  0  0  0  0
   -0.2484    1.2686   -0.8551 C   0  0  0  0  0  0  0  0  0  0  0  0
   -1.0426    1.8553    0.3201 C   0  0  1  0  0  0  0  0  0  0  0  0
   -2.4385    1.4031    0.2724 N   0  0  0  0  0  0  0  0  0  0  0  0
   -3.3434    1.8083   -0.7663 C   0  0  0  0  0  0  0  0  0  0  0  0
   -3.0676    2.8088   -1.4834 O   0  0  0  0  0  0  0  0  0  0  0  0
   -4.6172    1.0842   -0.9837 C   0  0  0  0  0  0  0  0  0  0  0  0
   -5.7583    1.8060   -1.3686 C   0  0  0  0  0  0  0  0  0  0  0  0
   -6.9826    1.1617   -1.5672 C   0  0  0  0  0  0  0  0  0  0  0  0
   -8.3723    2.1351   -2.0335 Cl  0  0  0  0  0  0  0  0  0  0  0  0
   -7.0793   -0.2304   -1.3894 C   0  0  0  0  0  0  0  0  0  0  0  0
   -8.3211   -0.9203   -1.5803 N   0  0  0  0  0  0  0  0  0  0  0  0
   -5.9384   -0.9585   -1.0247 C   0  0  0  0  0  0  0  0  0  0  0  0
   -4.7000   -0.3162   -0.8302 C   0  0  0  0  0  0  0  0  0  0  0  0
   -3.5385   -1.0411   -0.5119 O   0  0  0  0  0  0  0  0  0  0  0  0
   -3.4878   -2.4490   -0.3085 C   0  0  0  0  0  0  0  0  0  0  0  0
   -0.7942   -1.3166    3.3672 H   0  0  0  0  0  0  0  0  0  0  0  0
   -1.7511    0.1880    3.5572 H   0  0  0  0  0  0  0  0  0  0  0  0
    0.0480    0.1834    3.8730 H   0  0  0  0  0  0  0  0  0  0  0  0
   -0.8900    2.0661    2.4453 H   0  0  0  0  0  0  0  0  0  0  0  0
    1.6014    1.4730    2.5853 H   0  0  0  0  0  0  0  0  0  0  0  0
    1.1919    2.9547    1.7089 H   0  0  0  0  0  0  0  0  0  0  0  0
    2.4452   -0.4260   -0.5185 H   0  0  0  0  0  0  0  0  0  0  0  0
    1.5397   -0.6720    0.9939 H   0  0  0  0  0  0  0  0  0  0  0  0
    3.5023    0.1831    2.3086 H   0  0  0  0  0  0  0  0  0  0  0  0
    4.3792    0.5199    0.7816 H   0  0  0  0  0  0  0  0  0  0  0  0
    5.0527   -1.6804    1.9036 H   0  0  0  0  0  0  0  0  0  0  0  0
    3.3707   -2.2470    1.7236 H   0  0  0  0  0  0  0  0  0  0  0  0
    6.5824   -0.5321    0.6431 H   0  0  0  0  0  0  0  0  0  0  0  0
    8.3806    0.1548   -0.8759 H   0  0  0  0  0  0  0  0  0  0  0  0
    6.4927   -1.9497   -4.1084 H   0  0  0  0  0  0  0  0  0  0  0  0
    4.6673   -2.6476   -2.5949 H   0  0  0  0  0  0  0  0  0  0  0  0
    1.2115    2.8717   -0.9021 H   0  0  0  0  0  0  0  0  0  0  0  0
    1.7626    1.3724   -1.6772 H   0  0  0  0  0  0  0  0  0  0  0  0
   -0.2730    0.1575   -0.8239 H   0  0  0  0  0  0  0  0  0  0  0  0
   -0.6982    1.5926   -1.8176 H   0  0  0  0  0  0  0  0  0  0  0  0
   -1.0298    2.9668    0.2459 H   0  0  0  0  0  0  0  0  0  0  0  0
   -2.8183    0.8153    1.0490 H   0  0  0  0  0  0  0  0  0  0  0  0
   -5.7016    2.8803   -1.4985 H   0  0  0  0  0  0  0  0  0  0  0  0
   -9.1968   -0.4196   -1.8467 H   0  0  0  0  0  0  0  0  0  0  0  0
   -8.3778   -1.9550   -1.4514 H   0  0  0  0  0  0  0  0  0  0  0  0
   -6.0234   -2.0300   -0.9042 H   0  0  0  0  0  0  0  0  0  0  0  0
   -4.1516   -2.7375    0.5335 H   0  0  0  0  0  0  0  0  0  0  0  0
   -3.7895   -2.9802   -1.2356 H   0  0  0  0  0  0  0  0  0  0  0  0
   -2.4477   -2.7393   -0.0551 H   0  0  0  0  0  0  0  0  0  0  0  0
  1  2  1  0
  3  2  1  0
  3  4  1  0
  4  5  1  0
  5  6  1  0
  6  7  1  0
  7  8  1  0
  8  9  1  0
  9 10  1  0
 10 11  2  0
 11 12  1  0
 12 13  2  0
 13 14  1  0
 13 15  1  0
 15 16  2  0
 16 10  1  0
  5 17  1  0
 17 18  1  0
 18 19  1  0
 19  3  1  0
 19 20  1  0
 20 21  1  0
 21 22  2  0
 21 23  1  0
 23 24  2  0
 24 25  1  0
 25 26  1  0
 25 27  2  0
 27 28  1  0
 27 29  1  0
 29 30  2  0
 30 23  1  0
 30 31  1  0
 31 32  1  0
  1 33  1  0
  1 34  1  0
  1 35  1  0
  3 36  1  1
  4 37  1  0
  4 38  1  0
  6 39  1  0
  6 40  1  0
  7 41  1  0
  7 42  1  0
  8 43  1  0
  8 44  1  0
 11 45  1  0
 12 46  1  0
 15 47  1  0
 16 48  1  0
 17 49  1  0
 17 50  1  0
 18 51  1  0
 18 52  1  0
 19 53  1  6
 20 54  1  0
 24 55  1  0
 28 56  1  0
 28 57  1  0
 29 58  1  0
 32 59  1  0
 32 60  1  0
 32 61  1  0
M  END
> <ID>
HT0498

> <Class>
1.0

> <Clusters>
118

> <Fold>
3

$$$$