
     RDKit          3D

 42 44  0  0  0  0  0  0  0  0999 V2000
    3.9447    1.4207   -0.1294 C   0  0  0  0  0  0  0  0  0  0  0  0
    3.9621    0.0696    0.4604 N   0  0  0  0  0  0  0  0  0  0  0  0
    5.1865   -0.6301    0.0390 C   0  0  0  0  0  0  0  0  0  0  0  0
    2.7641   -0.6989    0.0568 C   0  0  0  0  0  0  0  0  0  0  0  0
    1.6033   -0.4239    1.0189 C   0  0  0  0  0  0  0  0  0  0  0  0
    0.3634   -1.1518    0.5673 C   0  0  0  0  0  0  0  0  0  0  0  0
   -0.7761   -0.5534    0.1652 C   0  0  0  0  0  0  0  0  0  0  0  0
   -1.9550   -1.3702   -0.1627 C   0  0  0  0  0  0  0  0  0  0  0  0
   -1.8513   -2.3628   -1.1533 C   0  0  0  0  0  0  0  0  0  0  0  0
   -2.9530   -3.1546   -1.4794 C   0  0  0  0  0  0  0  0  0  0  0  0
   -4.1650   -2.9697   -0.8157 C   0  0  0  0  0  0  0  0  0  0  0  0
   -4.2788   -1.9912    0.1741 C   0  0  0  0  0  0  0  0  0  0  0  0
   -3.1859   -1.1696    0.5017 C   0  0  0  0  0  0  0  0  0  0  0  0
   -3.3544   -0.2080    1.6191 C   0  0  0  0  0  0  0  0  0  0  0  0
   -2.7807    1.0002    1.7256 C   0  0  0  0  0  0  0  0  0  0  0  0
   -1.8767    1.6314    0.7350 C   0  0  0  0  0  0  0  0  0  0  0  0
   -1.9440    3.0271    0.5803 C   0  0  0  0  0  0  0  0  0  0  0  0
   -1.1036    3.6863   -0.3195 C   0  0  0  0  0  0  0  0  0  0  0  0
   -0.1808    2.9617   -1.0722 C   0  0  0  0  0  0  0  0  0  0  0  0
   -0.0863    1.5787   -0.9157 C   0  0  0  0  0  0  0  0  0  0  0  0
   -0.9087    0.9066    0.0064 C   0  0  0  0  0  0  0  0  0  0  0  0
    4.8174    2.0056    0.2327 H   0  0  0  0  0  0  0  0  0  0  0  0
    3.9764    1.3784   -1.2413 H   0  0  0  0  0  0  0  0  0  0  0  0
    3.0349    1.9748    0.1809 H   0  0  0  0  0  0  0  0  0  0  0  0
    6.0860   -0.0439    0.3271 H   0  0  0  0  0  0  0  0  0  0  0  0
    5.1968   -0.7958   -1.0618 H   0  0  0  0  0  0  0  0  0  0  0  0
    5.2612   -1.6113    0.5553 H   0  0  0  0  0  0  0  0  0  0  0  0
    2.9666   -1.7944    0.0932 H   0  0  0  0  0  0  0  0  0  0  0  0
    2.4672   -0.4629   -0.9905 H   0  0  0  0  0  0  0  0  0  0  0  0
    1.8760   -0.7955    2.0298 H   0  0  0  0  0  0  0  0  0  0  0  0
    1.4280    0.6646    1.1211 H   0  0  0  0  0  0  0  0  0  0  0  0
    0.3933   -2.2342    0.6258 H   0  0  0  0  0  0  0  0  0  0  0  0
   -0.9162   -2.5187   -1.6778 H   0  0  0  0  0  0  0  0  0  0  0  0
   -2.8657   -3.9147   -2.2449 H   0  0  0  0  0  0  0  0  0  0  0  0
   -5.0168   -3.5898   -1.0638 H   0  0  0  0  0  0  0  0  0  0  0  0
   -5.2262   -1.8731    0.6863 H   0  0  0  0  0  0  0  0  0  0  0  0
   -4.0770   -0.4707    2.3835 H   0  0  0  0  0  0  0  0  0  0  0  0
   -3.0892    1.6125    2.5654 H   0  0  0  0  0  0  0  0  0  0  0  0
   -2.6587    3.6082    1.1506 H   0  0  0  0  0  0  0  0  0  0  0  0
   -1.1722    4.7601   -0.4364 H   0  0  0  0  0  0  0  0  0  0  0  0
    0.4635    3.4720   -1.7764 H   0  0  0  0  0  0  0  0  0  0  0  0
    0.6309    1.0304   -1.5126 H   0  0  0  0  0  0  0  0  0  0  0  0
  1  2  1  0
  2  3  1  0
  2  4  1  0
  4  5  1  0
  5  6  1  0
  6  7  2  3
  7  8  1  0
  8  9  2  0
  9 10  1  0
 10 11  2  0
 11 12  1  0
 12 13  2  0
 13  8  1  0
 13 14  1  0
 14 15  2  0
 15 16  1  0
 16 17  2  0
 17 18  1  0
 18 19  2  0
 19 20  1  0
 20 21  2  0
 21  7  1  0
 21 16  1  0
  1 22  1  0
  1 23  1  0
  1 24  1  0
  3 25  1  0
  3 26  1  0
  3 27  1  0
  4 28  1  0
  4 29  1  0
  5 30  1  0
  5 31  1  0
  6 32  1  0
  9 33  1  0
 10 34  1  0
 11 35  1  0
 12 36  1  0
 14 37  1  0
 15 38  1  0
 17 39  1  0
 18 40  1  0
 19 41  1  0
 20 42  1  0
M  END
> <ID>
HT0564

> <Class>
1.0

> <Clusters>
17

> <Fold>
3

$$$$