
     RDKit          3D

 41 43  0  0  0  0  0  0  0  0999 V2000
   -3.7778   -3.5345   -1.1745 C   0  0  0  0  0  0  0  0  0  0  0  0
   -3.6868   -2.1433   -0.8859 O   0  0  0  0  0  0  0  0  0  0  0  0
   -2.5344   -1.5100   -0.3979 C   0  0  0  0  0  0  0  0  0  0  0  0
   -1.3310   -2.2198   -0.1394 C   0  0  0  0  0  0  0  0  0  0  0  0
   -0.1954   -1.5504    0.3457 C   0  0  0  0  0  0  0  0  0  0  0  0
   -0.2807   -0.1730    0.5516 C   0  0  0  0  0  0  0  0  0  0  0  0
    0.6511    0.7359    1.0237 C   0  0  0  0  0  0  0  0  0  0  0  0
    2.0389    0.4552    1.4474 C   0  0  0  0  0  0  0  0  0  0  0  0
    2.4554    0.9572    2.5262 O   0  0  0  0  0  0  0  0  0  0  0  0
    2.9482   -0.3937    0.6408 C   0  0  0  0  0  0  0  0  0  0  0  0
    2.7786   -0.5170   -0.7514 C   0  0  0  0  0  0  0  0  0  0  0  0
    3.6459   -1.3158   -1.5023 C   0  0  0  0  0  0  0  0  0  0  0  0
    4.6967   -1.9918   -0.8760 C   0  0  0  0  0  0  0  0  0  0  0  0
    5.7836   -2.9933   -1.8207 Cl  0  0  0  0  0  0  0  0  0  0  0  0
    4.8831   -1.8647    0.5035 C   0  0  0  0  0  0  0  0  0  0  0  0
    4.0175   -1.0672    1.2583 C   0  0  0  0  0  0  0  0  0  0  0  0
   -0.0114    1.9660    1.0629 C   0  0  0  0  0  0  0  0  0  0  0  0
    0.5906    3.2639    1.5212 C   0  0  0  0  0  0  0  0  0  0  0  0
   -1.2997    1.8215    0.6498 N   0  0  0  0  0  0  0  0  0  0  0  0
   -2.3183    2.8706    0.5327 C   0  0  0  0  0  0  0  0  0  0  0  0
   -2.3946    3.3616   -0.8816 C   0  0  0  0  0  0  0  0  0  0  0  0
   -1.3957    3.9222   -1.4042 O   0  0  0  0  0  0  0  0  0  0  0  0
   -3.5588    3.2068   -1.6290 O   0  0  0  0  0  0  0  0  0  0  0  0
   -1.4451    0.5177    0.3263 C   0  0  0  0  0  0  0  0  0  0  0  0
   -2.5897   -0.1243   -0.1570 C   0  0  0  0  0  0  0  0  0  0  0  0
   -3.0430   -3.8102   -1.9602 H   0  0  0  0  0  0  0  0  0  0  0  0
   -3.5941   -4.1281   -0.2542 H   0  0  0  0  0  0  0  0  0  0  0  0
   -4.7979   -3.7617   -1.5463 H   0  0  0  0  0  0  0  0  0  0  0  0
   -1.2675   -3.2861   -0.3071 H   0  0  0  0  0  0  0  0  0  0  0  0
    0.7134   -2.0980    0.5558 H   0  0  0  0  0  0  0  0  0  0  0  0
    1.9821    0.0099   -1.2613 H   0  0  0  0  0  0  0  0  0  0  0  0
    3.5022   -1.4049   -2.5716 H   0  0  0  0  0  0  0  0  0  0  0  0
    5.6977   -2.3837    0.9925 H   0  0  0  0  0  0  0  0  0  0  0  0
    4.1768   -0.9864    2.3265 H   0  0  0  0  0  0  0  0  0  0  0  0
    0.2964    3.4569    2.5735 H   0  0  0  0  0  0  0  0  0  0  0  0
    1.6972    3.2345    1.4497 H   0  0  0  0  0  0  0  0  0  0  0  0
    0.2398    4.0988    0.8810 H   0  0  0  0  0  0  0  0  0  0  0  0
   -3.3029    2.4736    0.8583 H   0  0  0  0  0  0  0  0  0  0  0  0
   -2.0857    3.7215    1.2065 H   0  0  0  0  0  0  0  0  0  0  0  0
   -4.3808    2.7608   -1.2401 H   0  0  0  0  0  0  0  0  0  0  0  0
   -3.5038    0.4233   -0.3425 H   0  0  0  0  0  0  0  0  0  0  0  0
  1  2  1  0
  2  3  1  0
  3  4  2  0
  4  5  1  0
  5  6  2  0
  6  7  1  0
  7  8  1  0
  8  9  2  0
  8 10  1  0
 10 11  2  0
 11 12  1  0
 12 13  2  0
 13 14  1  0
 13 15  1  0
 15 16  2  0
 16 10  1  0
  7 17  2  0
 17 18  1  0
 17 19  1  0
 19 20  1  0
 20 21  1  0
 21 22  2  0
 21 23  1  0
 19 24  1  0
 24  6  1  0
 24 25  2  0
 25  3  1  0
  1 26  1  0
  1 27  1  0
  1 28  1  0
  4 29  1  0
  5 30  1  0
 11 31  1  0
 12 32  1  0
 15 33  1  0
 16 34  1  0
 18 35  1  0
 18 36  1  0
 18 37  1  0
 20 38  1  0
 20 39  1  0
 23 40  1  0
 25 41  1  0
M  END
> <ID>
HT0525

> <Class>
1.0

> <Clusters>
56

> <Fold>
3

$$$$