
     RDKit          3D

 12 11  0  0  0  0  0  0  0  0999 V2000
    2.5808    1.1526   -0.8640 F   0  0  0  0  0  0  0  0  0  0  0  0
    1.6085    0.3914   -0.2446 C   0  0  0  0  0  0  0  0  0  0  0  0
    1.9850   -0.9369   -0.3183 F   0  0  0  0  0  0  0  0  0  0  0  0
    0.3873    0.5721   -0.9370 O   0  0  0  0  0  0  0  0  0  0  0  0
   -0.7306    0.5637   -0.0652 C   0  0  0  0  0  0  0  0  0  0  0  0
   -1.7775    1.1917   -0.7160 F   0  0  0  0  0  0  0  0  0  0  0  0
   -1.1653   -0.8655    0.2809 C   0  0  0  0  0  0  0  0  0  0  0  0
   -1.2598   -1.6247   -0.8718 F   0  0  0  0  0  0  0  0  0  0  0  0
   -0.2560   -1.4526    1.1414 F   0  0  0  0  0  0  0  0  0  0  0  0
   -2.4010   -0.8365    0.9021 F   0  0  0  0  0  0  0  0  0  0  0  0
    1.5787    0.7001    0.8247 H   0  0  0  0  0  0  0  0  0  0  0  0
   -0.5501    1.1447    0.8680 H   0  0  0  0  0  0  0  0  0  0  0  0
  1  2  1  0
  2  3  1  0
  2  4  1  0
  4  5  1  0
  5  6  1  0
  5  7  1  0
  7  8  1  0
  7  9  1  0
  7 10  1  0
  2 11  1  0
  5 12  1  0
M  END
> <ID>
HT0610

> <Class>
1.0

> <Clusters>
136

> <Fold>
3

$$$$