
     RDKit          3D

 83 85  0  0  0  0  0  0  0  0999 V2000
   -7.6750   -0.0888   -3.4921 C   0  0  0  0  0  0  0  0  0  0  0  0
   -8.4038   -0.0920   -2.1478 C   0  0  0  0  0  0  0  0  0  0  0  0
   -7.5075   -0.5540   -0.9873 C   0  0  0  0  0  0  0  0  0  0  0  0
   -6.5234    0.5469   -0.5305 C   0  0  0  0  0  0  0  0  0  0  0  0
   -5.4820    0.0729    0.4140 N   0  0  0  0  0  0  0  0  0  0  0  0
   -6.0088   -0.4197    1.7095 C   0  0  0  0  0  0  0  0  0  0  0  0
   -6.5299    0.7208    2.5966 C   0  0  0  0  0  0  0  0  0  0  0  0
   -5.4603    1.7949    2.8378 C   0  0  0  0  0  0  0  0  0  0  0  0
   -5.9635    2.8652    3.8024 C   0  0  0  0  0  0  0  0  0  0  0  0
   -4.5485   -0.8922   -0.2097 C   0  0  0  0  0  0  0  0  0  0  0  0
   -3.1164   -0.6585    0.2877 C   0  0  0  0  0  0  0  0  0  0  0  0
   -2.5746    0.7082   -0.1526 C   0  0  0  0  0  0  0  0  0  0  0  0
   -1.2560    0.9152    0.3540 O   0  0  0  0  0  0  0  0  0  0  0  0
   -0.0987    0.2523   -0.0860 C   0  0  0  0  0  0  0  0  0  0  0  0
   -0.0737   -0.5524   -1.2403 C   0  0  0  0  0  0  0  0  0  0  0  0
    1.1053   -1.1976   -1.6254 C   0  0  0  0  0  0  0  0  0  0  0  0
    2.2829   -1.0408   -0.8759 C   0  0  0  0  0  0  0  0  0  0  0  0
    2.2529   -0.2356    0.2761 C   0  0  0  0  0  0  0  0  0  0  0  0
    1.0746    0.4098    0.6587 C   0  0  0  0  0  0  0  0  0  0  0  0
    3.5219   -1.7471   -1.2790 C   0  0  0  0  0  0  0  0  0  0  0  0
    3.4365   -2.8156   -1.9421 O   0  0  0  0  0  0  0  0  0  0  0  0
    4.8607   -1.2429   -0.9114 C   0  0  0  0  0  0  0  0  0  0  0  0
    5.9410   -1.9777   -0.4153 C   0  0  0  0  0  0  0  0  0  0  0  0
    5.9625   -3.4468   -0.1153 C   0  0  0  0  0  0  0  0  0  0  0  0
    5.1877   -3.7451    1.1757 C   0  0  0  0  0  0  0  0  0  0  0  0
    5.1056   -5.2487    1.4778 C   0  0  0  0  0  0  0  0  0  0  0  0
    6.4427   -5.8340    1.9303 C   0  0  0  0  0  0  0  0  0  0  0  0
    6.9695   -1.1808   -0.1873 O   0  0  0  0  0  0  0  0  0  0  0  0
    6.6130    0.0360   -0.5218 C   0  0  0  0  0  0  0  0  0  0  0  0
    7.3846    1.1905   -0.4576 C   0  0  0  0  0  0  0  0  0  0  0  0
    6.8053    2.3989   -0.8850 C   0  0  0  0  0  0  0  0  0  0  0  0
    5.4686    2.4338   -1.3712 C   0  0  0  0  0  0  0  0  0  0  0  0
    4.8512    3.6536   -1.8221 N   0  0  0  0  0  0  0  0  0  0  0  0
    5.5725    5.2281   -1.7024 S   0  0  0  0  0  0  0  0  0  0  0  0
    4.6762    6.2243   -2.3828 O   0  0  0  0  0  0  0  0  0  0  0  0
    6.9090    5.2379   -2.3889 O   0  0  0  0  0  0  0  0  0  0  0  0
    5.7468    5.6971    0.0066 C   0  0  0  0  0  0  0  0  0  0  0  0
    4.7220    1.2356   -1.4235 C   0  0  0  0  0  0  0  0  0  0  0  0
    5.3223    0.0579   -0.9767 C   0  0  0  0  0  0  0  0  0  0  0  0
   -8.3989    0.1421   -4.3019 H   0  0  0  0  0  0  0  0  0  0  0  0
   -7.2270   -1.0850   -3.6946 H   0  0  0  0  0  0  0  0  0  0  0  0
   -6.8788    0.6839   -3.5120 H   0  0  0  0  0  0  0  0  0  0  0  0
   -8.8117    0.9210   -1.9402 H   0  0  0  0  0  0  0  0  0  0  0  0
   -9.2656   -0.7902   -2.2247 H   0  0  0  0  0  0  0  0  0  0  0  0
   -8.1783   -0.8119   -0.1407 H   0  0  0  0  0  0  0  0  0  0  0  0
   -6.9665   -1.4782   -1.2818 H   0  0  0  0  0  0  0  0  0  0  0  0
   -7.0954    1.3819   -0.0767 H   0  0  0  0  0  0  0  0  0  0  0  0
   -6.0172    0.9938   -1.4118 H   0  0  0  0  0  0  0  0  0  0  0  0
   -5.2049   -0.9333    2.2808 H   0  0  0  0  0  0  0  0  0  0  0  0
   -6.8041   -1.1789    1.5646 H   0  0  0  0  0  0  0  0  0  0  0  0
   -7.4353    1.1774    2.1458 H   0  0  0  0  0  0  0  0  0  0  0  0
   -6.8357    0.2853    3.5732 H   0  0  0  0  0  0  0  0  0  0  0  0
   -4.5463    1.3265    3.2635 H   0  0  0  0  0  0  0  0  0  0  0  0
   -5.1905    2.2818    1.8758 H   0  0  0  0  0  0  0  0  0  0  0  0
   -6.8674    3.3626    3.3898 H   0  0  0  0  0  0  0  0  0  0  0  0
   -6.2106    2.4127    4.7862 H   0  0  0  0  0  0  0  0  0  0  0  0
   -5.1741    3.6318    3.9534 H   0  0  0  0  0  0  0  0  0  0  0  0
   -4.8507   -1.9403    0.0159 H   0  0  0  0  0  0  0  0  0  0  0  0
   -4.5414   -0.7967   -1.3192 H   0  0  0  0  0  0  0  0  0  0  0  0
   -3.0772   -0.7283    1.3948 H   0  0  0  0  0  0  0  0  0  0  0  0
   -2.4714   -1.4657   -0.1166 H   0  0  0  0  0  0  0  0  0  0  0  0
   -2.5885    0.8138   -1.2585 H   0  0  0  0  0  0  0  0  0  0  0  0
   -3.2256    1.5048    0.2651 H   0  0  0  0  0  0  0  0  0  0  0  0
   -0.9557   -0.6862   -1.8498 H   0  0  0  0  0  0  0  0  0  0  0  0
    1.0988   -1.8119   -2.5172 H   0  0  0  0  0  0  0  0  0  0  0  0
    3.1357   -0.1141    0.8906 H   0  0  0  0  0  0  0  0  0  0  0  0
    1.0697    1.0261    1.5490 H   0  0  0  0  0  0  0  0  0  0  0  0
    5.5240   -4.0079   -0.9671 H   0  0  0  0  0  0  0  0  0  0  0  0
    7.0202   -3.7654   -0.0057 H   0  0  0  0  0  0  0  0  0  0  0  0
    4.1492   -3.3618    1.0712 H   0  0  0  0  0  0  0  0  0  0  0  0
    5.6568   -3.2116    2.0318 H   0  0  0  0  0  0  0  0  0  0  0  0
    4.7402   -5.8000    0.5842 H   0  0  0  0  0  0  0  0  0  0  0  0
    4.3656   -5.4034    2.2929 H   0  0  0  0  0  0  0  0  0  0  0  0
    6.2970   -6.8917    2.2348 H   0  0  0  0  0  0  0  0  0  0  0  0
    7.1827   -5.8118    1.1042 H   0  0  0  0  0  0  0  0  0  0  0  0
    6.8408   -5.2679    2.7990 H   0  0  0  0  0  0  0  0  0  0  0  0
    8.4033    1.1591   -0.0938 H   0  0  0  0  0  0  0  0  0  0  0  0
    7.4100    3.2912   -0.8394 H   0  0  0  0  0  0  0  0  0  0  0  0
    3.8798    3.6127   -2.2028 H   0  0  0  0  0  0  0  0  0  0  0  0
    6.1740    6.7189    0.0681 H   0  0  0  0  0  0  0  0  0  0  0  0
    4.7509    5.6863    0.4951 H   0  0  0  0  0  0  0  0  0  0  0  0
    6.4181    4.9891    0.5329 H   0  0  0  0  0  0  0  0  0  0  0  0
    3.7091    1.2301   -1.8048 H   0  0  0  0  0  0  0  0  0  0  0  0
  1  2  1  0
  2  3  1  0
  3  4  1  0
  4  5  1  0
  5  6  1  0
  6  7  1  0
  7  8  1  0
  8  9  1  0
  5 10  1  0
 10 11  1  0
 11 12  1  0
 12 13  1  0
 13 14  1  0
 14 15  2  0
 15 16  1  0
 16 17  2  0
 17 18  1  0
 18 19  2  0
 19 14  1  0
 17 20  1  0
 20 21  2  0
 20 22  1  0
 22 23  2  0
 23 24  1  0
 24 25  1  0
 25 26  1  0
 26 27  1  0
 23 28  1  0
 28 29  1  0
 29 30  2  0
 30 31  1  0
 31 32  2  0
 32 33  1  0
 33 34  1  0
 34 35  2  0
 34 36  2  0
 34 37  1  0
 32 38  1  0
 38 39  2  0
 39 22  1  0
 39 29  1  0
  1 40  1  0
  1 41  1  0
  1 42  1  0
  2 43  1  0
  2 44  1  0
  3 45  1  0
  3 46  1  0
  4 47  1  0
  4 48  1  0
  6 49  1  0
  6 50  1  0
  7 51  1  0
  7 52  1  0
  8 53  1  0
  8 54  1  0
  9 55  1  0
  9 56  1  0
  9 57  1  0
 10 58  1  0
 10 59  1  0
 11 60  1  0
 11 61  1  0
 12 62  1  0
 12 63  1  0
 15 64  1  0
 16 65  1  0
 18 66  1  0
 19 67  1  0
 24 68  1  0
 24 69  1  0
 25 70  1  0
 25 71  1  0
 26 72  1  0
 26 73  1  0
 27 74  1  0
 27 75  1  0
 27 76  1  0
 30 77  1  0
 31 78  1  0
 33 79  1  0
 37 80  1  0
 37 81  1  0
 37 82  1  0
 38 83  1  0
M  END
> <ID>
HT0725

> <Class>
1.0

> <Clusters>
88

> <Fold>
3

$$$$