
     RDKit          3D

 55 57  0  0  0  0  0  0  0  0999 V2000
    6.4356    1.7692   -0.5182 C   0  0  0  0  0  0  0  0  0  0  0  0
    5.9886    0.4179   -0.5454 O   0  0  0  0  0  0  0  0  0  0  0  0
    4.6535    0.0211   -0.3785 C   0  0  0  0  0  0  0  0  0  0  0  0
    4.3502   -1.3388   -0.4728 C   0  0  0  0  0  0  0  0  0  0  0  0
    3.0366   -1.7862   -0.3150 C   0  0  0  0  0  0  0  0  0  0  0  0
    1.9941   -0.8811   -0.0398 C   0  0  0  0  0  0  0  0  0  0  0  0
    2.3052    0.4890    0.0496 C   0  0  0  0  0  0  0  0  0  0  0  0
    3.6180    0.9366   -0.1230 C   0  0  0  0  0  0  0  0  0  0  0  0
    0.5724   -1.4147    0.1027 C   0  0  2  0  0  0  0  0  0  0  0  0
   -0.3585   -1.4300   -1.4798 S   0  0  0  0  0  0  0  0  0  0  0  0
   -0.1825    0.3065   -1.8939 C   0  0  0  0  0  0  0  0  0  0  0  0
    0.6126    0.6822   -2.9818 C   0  0  0  0  0  0  0  0  0  0  0  0
    0.6754    2.0242   -3.3715 C   0  0  0  0  0  0  0  0  0  0  0  0
   -0.0414    2.9915   -2.6658 C   0  0  0  0  0  0  0  0  0  0  0  0
   -0.8158    2.6233   -1.5640 C   0  0  0  0  0  0  0  0  0  0  0  0
   -0.8926    1.2797   -1.1764 C   0  0  0  0  0  0  0  0  0  0  0  0
   -1.5616    0.9232    0.0368 N   0  0  0  0  0  0  0  0  0  0  0  0
   -3.0145    1.0595    0.1642 C   0  0  0  0  0  0  0  0  0  0  0  0
   -3.7062   -0.2042   -0.3523 C   0  0  0  0  0  0  0  0  0  0  0  0
   -5.1744   -0.0807   -0.2252 N   0  0  0  0  0  0  0  0  0  0  0  0
   -5.6275   -0.5473    1.0980 C   0  0  0  0  0  0  0  0  0  0  0  0
   -5.8469   -0.8615   -1.2765 C   0  0  0  0  0  0  0  0  0  0  0  0
   -0.7680    0.5355    1.1634 C   0  0  0  0  0  0  0  0  0  0  0  0
   -0.5632    1.3759    2.0815 O   0  0  0  0  0  0  0  0  0  0  0  0
   -0.2467   -0.8743    1.3107 C   0  0  2  0  0  0  0  0  0  0  0  0
    0.5392   -0.9591    2.5033 O   0  0  0  0  0  0  0  0  0  0  0  0
    0.8403   -2.1579    3.1591 C   0  0  0  0  0  0  0  0  0  0  0  0
    0.3327   -3.2499    2.7813 O   0  0  0  0  0  0  0  0  0  0  0  0
    1.7968   -2.1461    4.3038 C   0  0  0  0  0  0  0  0  0  0  0  0
    5.9536    2.3451   -1.3352 H   0  0  0  0  0  0  0  0  0  0  0  0
    6.2020    2.2304    0.4640 H   0  0  0  0  0  0  0  0  0  0  0  0
    7.5337    1.7910   -0.6669 H   0  0  0  0  0  0  0  0  0  0  0  0
    5.1392   -2.0546   -0.6789 H   0  0  0  0  0  0  0  0  0  0  0  0
    2.8359   -2.8464   -0.4080 H   0  0  0  0  0  0  0  0  0  0  0  0
    1.5429    1.2256    0.2370 H   0  0  0  0  0  0  0  0  0  0  0  0
    3.8171    1.9965   -0.0541 H   0  0  0  0  0  0  0  0  0  0  0  0
    0.6696   -2.5002    0.3224 H   0  0  0  0  0  0  0  0  0  0  0  0
    1.1615   -0.0667   -3.5392 H   0  0  0  0  0  0  0  0  0  0  0  0
    1.2808    2.3086   -4.2207 H   0  0  0  0  0  0  0  0  0  0  0  0
    0.0171    4.0299   -2.9615 H   0  0  0  0  0  0  0  0  0  0  0  0
   -1.3376    3.3869   -0.9974 H   0  0  0  0  0  0  0  0  0  0  0  0
   -3.2830    1.2406    1.2267 H   0  0  0  0  0  0  0  0  0  0  0  0
   -3.3680    1.9343   -0.4229 H   0  0  0  0  0  0  0  0  0  0  0  0
   -3.3245   -1.0973    0.1915 H   0  0  0  0  0  0  0  0  0  0  0  0
   -3.4104   -0.3251   -1.4187 H   0  0  0  0  0  0  0  0  0  0  0  0
   -5.4100   -1.6308    1.2405 H   0  0  0  0  0  0  0  0  0  0  0  0
   -6.7205   -0.3820    1.2076 H   0  0  0  0  0  0  0  0  0  0  0  0
   -5.1302    0.0281    1.9061 H   0  0  0  0  0  0  0  0  0  0  0  0
   -5.5348   -1.9287   -1.2460 H   0  0  0  0  0  0  0  0  0  0  0  0
   -5.6046   -0.4414   -2.2763 H   0  0  0  0  0  0  0  0  0  0  0  0
   -6.9502   -0.8032   -1.1589 H   0  0  0  0  0  0  0  0  0  0  0  0
   -1.1463   -1.5170    1.4353 H   0  0  0  0  0  0  0  0  0  0  0  0
    1.3771   -2.7292    5.1509 H   0  0  0  0  0  0  0  0  0  0  0  0
    2.7637   -2.5978    3.9902 H   0  0  0  0  0  0  0  0  0  0  0  0
    1.9748   -1.1000    4.6379 H   0  0  0  0  0  0  0  0  0  0  0  0
  1  2  1  0
  2  3  1  0
  3  4  2  0
  4  5  1  0
  5  6  2  0
  6  7  1  0
  7  8  2  0
  8  3  1  0
  9  6  1  0
  9 10  1  0
 10 11  1  0
 11 12  2  0
 12 13  1  0
 13 14  2  0
 14 15  1  0
 15 16  2  0
 16 11  1  0
 16 17  1  0
 17 18  1  0
 18 19  1  0
 19 20  1  0
 20 21  1  0
 20 22  1  0
 17 23  1  0
 23 24  2  0
 23 25  1  0
 25  9  1  0
 25 26  1  0
 26 27  1  0
 27 28  2  0
 27 29  1  0
  1 30  1  0
  1 31  1  0
  1 32  1  0
  4 33  1  0
  5 34  1  0
  7 35  1  0
  8 36  1  0
  9 37  1  1
 12 38  1  0
 13 39  1  0
 14 40  1  0
 15 41  1  0
 18 42  1  0
 18 43  1  0
 19 44  1  0
 19 45  1  0
 21 46  1  0
 21 47  1  0
 21 48  1  0
 22 49  1  0
 22 50  1  0
 22 51  1  0
 25 52  1  1
 29 53  1  0
 29 54  1  0
 29 55  1  0
M  END
> <ID>
HT0674

> <Class>
1.0

> <Clusters>
1

> <Fold>
3

$$$$