
     RDKit          3D

 35 36  0  0  0  0  0  0  0  0999 V2000
   -4.2198    1.1940    0.7525 N   0  0  0  0  0  0  0  0  0  0  0  0
   -4.2961   -0.2321    0.4206 C   0  0  2  0  0  0  0  0  0  0  0  0
   -3.1963   -0.6012   -0.5938 C   0  0  0  0  0  0  0  0  0  0  0  0
   -1.8186   -0.2884   -0.0634 C   0  0  0  0  0  0  0  0  0  0  0  0
   -1.0654    0.7603   -0.6135 C   0  0  0  0  0  0  0  0  0  0  0  0
    0.2120    1.0507   -0.1230 C   0  0  0  0  0  0  0  0  0  0  0  0
    1.2580    2.6966   -0.9476 I   0  0  0  0  0  0  0  0  0  0  0  0
    0.7548    0.2792    0.9211 C   0  0  0  0  0  0  0  0  0  0  0  0
    2.0333    0.5466    1.4222 O   0  0  0  0  0  0  0  0  0  0  0  0
    3.2218    0.2943    0.7205 C   0  0  0  0  0  0  0  0  0  0  0  0
    4.4213    0.7853    1.2424 C   0  0  0  0  0  0  0  0  0  0  0  0
    5.6308    0.5599    0.5787 C   0  0  0  0  0  0  0  0  0  0  0  0
    7.4137    1.3353    1.4109 I   0  0  0  0  0  0  0  0  0  0  0  0
    5.6545   -0.1689   -0.6199 C   0  0  0  0  0  0  0  0  0  0  0  0
    6.8773   -0.3754   -1.2604 O   0  0  0  0  0  0  0  0  0  0  0  0
    4.4493   -0.6750   -1.1480 C   0  0  0  0  0  0  0  0  0  0  0  0
    4.3719   -1.7921   -2.9471 I   0  0  0  0  0  0  0  0  0  0  0  0
    3.2438   -0.4449   -0.4757 C   0  0  0  0  0  0  0  0  0  0  0  0
   -0.0007   -0.7613    1.4804 C   0  0  0  0  0  0  0  0  0  0  0  0
    0.7785   -1.9370    3.0551 I   0  0  0  0  0  0  0  0  0  0  0  0
   -1.2768   -1.0467    0.9857 C   0  0  0  0  0  0  0  0  0  0  0  0
   -5.6566   -0.6401   -0.1123 C   0  0  0  0  0  0  0  0  0  0  0  0
   -5.8991   -1.8652   -0.2761 O   0  0  0  0  0  0  0  0  0  0  0  0
   -6.6578    0.2810   -0.4246 O   0  0  0  0  0  0  0  0  0  0  0  0
   -4.9740    1.4311    1.4375 H   0  0  0  0  0  0  0  0  0  0  0  0
   -4.3511    1.7706   -0.1105 H   0  0  0  0  0  0  0  0  0  0  0  0
   -4.1245   -0.8091    1.3560 H   0  0  0  0  0  0  0  0  0  0  0  0
   -3.2450   -1.6869   -0.8301 H   0  0  0  0  0  0  0  0  0  0  0  0
   -3.3803   -0.0539   -1.5451 H   0  0  0  0  0  0  0  0  0  0  0  0
   -1.4754    1.3626   -1.4146 H   0  0  0  0  0  0  0  0  0  0  0  0
    4.4116    1.3495    2.1663 H   0  0  0  0  0  0  0  0  0  0  0  0
    6.9662   -0.8905   -2.1260 H   0  0  0  0  0  0  0  0  0  0  0  0
    2.3280   -0.8472   -0.8880 H   0  0  0  0  0  0  0  0  0  0  0  0
   -1.8447   -1.8620    1.4160 H   0  0  0  0  0  0  0  0  0  0  0  0
   -6.5444    1.2810   -0.3300 H   0  0  0  0  0  0  0  0  0  0  0  0
  2  1  1  0
  2  3  1  0
  3  4  1  0
  4  5  2  0
  5  6  1  0
  6  7  1  0
  6  8  2  0
  8  9  1  0
  9 10  1  0
 10 11  2  0
 11 12  1  0
 12 13  1  0
 12 14  2  0
 14 15  1  0
 14 16  1  0
 16 17  1  0
 16 18  2  0
 18 10  1  0
  8 19  1  0
 19 20  1  0
 19 21  2  0
 21  4  1  0
  2 22  1  0
 22 23  2  0
 22 24  1  0
  1 25  1  0
  1 26  1  0
  2 27  1  1
  3 28  1  0
  3 29  1  0
  5 30  1  0
 11 31  1  0
 15 32  1  0
 18 33  1  0
 21 34  1  0
 24 35  1  0
M  END
> <ID>
HT0631

> <Class>
1.0

> <Clusters>
71

> <Fold>
3

$$$$