
     RDKit          3D

 76 79  0  0  0  0  0  0  0  0999 V2000
   -3.8951   -3.9166    3.0367 O   0  0  0  0  0  0  0  0  0  0  0  0
   -3.3413   -3.5257    1.8103 C   0  0  0  0  0  0  0  0  0  0  0  0
   -4.0544   -2.2794    1.2781 C   0  0  0  0  0  0  0  0  0  0  0  0
   -3.4742   -1.8689   -0.0029 N   0  0  0  0  0  0  0  0  0  0  0  0
   -3.9817   -2.4155   -1.2650 C   0  0  0  0  0  0  0  0  0  0  0  0
   -5.1551   -1.5864   -1.7910 C   0  0  0  0  0  0  0  0  0  0  0  0
   -4.7284   -0.2989   -2.1496 O   0  0  0  0  0  0  0  0  0  0  0  0
   -2.3447   -0.9918   -0.0118 C   0  0  0  0  0  0  0  0  0  0  0  0
   -2.5281    0.3537   -0.0511 N   0  0  0  0  0  0  0  0  0  0  0  0
   -1.4740    1.2130   -0.0592 C   0  0  0  0  0  0  0  0  0  0  0  0
   -1.7141    2.6283   -0.0904 N   0  0  0  0  0  0  0  0  0  0  0  0
   -1.2636    3.4231   -1.2379 C   0  0  0  0  0  0  0  0  0  0  0  0
   -0.8140    4.8082   -0.7661 C   0  0  0  0  0  0  0  0  0  0  0  0
   -1.9115    5.4779    0.0694 C   0  0  0  0  0  0  0  0  0  0  0  0
   -2.3128    4.5929    1.2559 C   0  0  0  0  0  0  0  0  0  0  0  0
   -2.7446    3.2023    0.7803 C   0  0  0  0  0  0  0  0  0  0  0  0
   -0.1697    0.6989    0.0089 C   0  0  0  0  0  0  0  0  0  0  0  0
    0.9151    1.5156    0.0303 N   0  0  0  0  0  0  0  0  0  0  0  0
    2.1774    1.0123    0.1070 C   0  0  0  0  0  0  0  0  0  0  0  0
    2.3522   -0.3353    0.1883 N   0  0  0  0  0  0  0  0  0  0  0  0
    1.3058   -1.2052    0.1853 C   0  0  0  0  0  0  0  0  0  0  0  0
    1.5687   -2.6197    0.2891 N   0  0  0  0  0  0  0  0  0  0  0  0
    0.7592   -3.4720    1.1771 C   0  0  0  0  0  0  0  0  0  0  0  0
    1.6125   -4.5886    1.7870 C   0  0  0  0  0  0  0  0  0  0  0  0
    2.3077   -5.4420    0.7101 C   0  0  0  0  0  0  0  0  0  0  0  0
    2.6381   -4.6644   -0.5797 C   0  0  0  0  0  0  0  0  0  0  0  0
    2.7872   -3.1612   -0.3293 C   0  0  0  0  0  0  0  0  0  0  0  0
    0.0000   -0.6932    0.0825 C   0  0  0  0  0  0  0  0  0  0  0  0
   -1.0889   -1.5047    0.0527 N   0  0  0  0  0  0  0  0  0  0  0  0
    3.3192    1.9004    0.1389 N   0  0  0  0  0  0  0  0  0  0  0  0
    3.1132    3.3592    0.0721 C   0  0  0  0  0  0  0  0  0  0  0  0
    2.7989    3.8125   -1.3551 C   0  0  0  0  0  0  0  0  0  0  0  0
    3.9432    3.7108   -2.1519 O   0  0  0  0  0  0  0  0  0  0  0  0
    4.6503    1.3647    0.4796 C   0  0  0  0  0  0  0  0  0  0  0  0
    5.2755    0.6013   -0.6956 C   0  0  0  0  0  0  0  0  0  0  0  0
    5.5407    1.4592   -1.7712 O   0  0  0  0  0  0  0  0  0  0  0  0
   -4.7678   -4.3435    2.8294 H   0  0  0  0  0  0  0  0  0  0  0  0
   -3.4107   -4.3574    1.0725 H   0  0  0  0  0  0  0  0  0  0  0  0
   -2.2670   -3.2960    1.9682 H   0  0  0  0  0  0  0  0  0  0  0  0
   -3.9619   -1.4540    2.0203 H   0  0  0  0  0  0  0  0  0  0  0  0
   -5.1386   -2.4931    1.1511 H   0  0  0  0  0  0  0  0  0  0  0  0
   -4.3257   -3.4613   -1.1088 H   0  0  0  0  0  0  0  0  0  0  0  0
   -3.1713   -2.4463   -2.0273 H   0  0  0  0  0  0  0  0  0  0  0  0
   -5.5640   -2.0839   -2.6961 H   0  0  0  0  0  0  0  0  0  0  0  0
   -5.9724   -1.5499   -1.0337 H   0  0  0  0  0  0  0  0  0  0  0  0
   -4.9259    0.2950   -1.3779 H   0  0  0  0  0  0  0  0  0  0  0  0
   -0.4243    2.9249   -1.7663 H   0  0  0  0  0  0  0  0  0  0  0  0
   -2.0998    3.5271   -1.9634 H   0  0  0  0  0  0  0  0  0  0  0  0
    0.1074    4.7075   -0.1525 H   0  0  0  0  0  0  0  0  0  0  0  0
   -0.5761    5.4416   -1.6475 H   0  0  0  0  0  0  0  0  0  0  0  0
   -1.5394    6.4534    0.4485 H   0  0  0  0  0  0  0  0  0  0  0  0
   -2.8010    5.6723   -0.5696 H   0  0  0  0  0  0  0  0  0  0  0  0
   -1.4494    4.4911    1.9492 H   0  0  0  0  0  0  0  0  0  0  0  0
   -3.1482    5.0716    1.8114 H   0  0  0  0  0  0  0  0  0  0  0  0
   -2.9084    2.5546    1.6699 H   0  0  0  0  0  0  0  0  0  0  0  0
   -3.7024    3.2745    0.2210 H   0  0  0  0  0  0  0  0  0  0  0  0
   -0.0813   -3.9168    0.6009 H   0  0  0  0  0  0  0  0  0  0  0  0
    0.3393   -2.8672    2.0112 H   0  0  0  0  0  0  0  0  0  0  0  0
    0.9781   -5.2370    2.4294 H   0  0  0  0  0  0  0  0  0  0  0  0
    2.3855   -4.1241    2.4386 H   0  0  0  0  0  0  0  0  0  0  0  0
    3.2451   -5.8577    1.1392 H   0  0  0  0  0  0  0  0  0  0  0  0
    1.6562   -6.3051    0.4500 H   0  0  0  0  0  0  0  0  0  0  0  0
    1.8213   -4.8191   -1.3196 H   0  0  0  0  0  0  0  0  0  0  0  0
    3.5733   -5.0618   -1.0275 H   0  0  0  0  0  0  0  0  0  0  0  0
    2.9738   -2.6585   -1.3030 H   0  0  0  0  0  0  0  0  0  0  0  0
    3.6582   -2.9710    0.3347 H   0  0  0  0  0  0  0  0  0  0  0  0
    2.2779    3.6467    0.7470 H   0  0  0  0  0  0  0  0  0  0  0  0
    4.0084    3.9127    0.4306 H   0  0  0  0  0  0  0  0  0  0  0  0
    1.9800    3.1970   -1.7828 H   0  0  0  0  0  0  0  0  0  0  0  0
    2.4643    4.8713   -1.3329 H   0  0  0  0  0  0  0  0  0  0  0  0
    3.6556    3.9142   -3.0817 H   0  0  0  0  0  0  0  0  0  0  0  0
    5.3455    2.1768    0.7855 H   0  0  0  0  0  0  0  0  0  0  0  0
    4.5622    0.6831    1.3544 H   0  0  0  0  0  0  0  0  0  0  0  0
    4.5989   -0.2069   -1.0409 H   0  0  0  0  0  0  0  0  0  0  0  0
    6.2184    0.1145   -0.3573 H   0  0  0  0  0  0  0  0  0  0  0  0
    6.3176    2.0160   -1.5059 H   0  0  0  0  0  0  0  0  0  0  0  0
  1  2  1  0
  2  3  1  0
  3  4  1  0
  4  5  1  0
  5  6  1  0
  6  7  1  0
  4  8  1  0
  8  9  2  0
  9 10  1  0
 10 11  1  0
 11 12  1  0
 12 13  1  0
 13 14  1  0
 14 15  1  0
 15 16  1  0
 16 11  1  0
 10 17  2  0
 17 18  1  0
 18 19  2  0
 19 20  1  0
 20 21  2  0
 21 22  1  0
 22 23  1  0
 23 24  1  0
 24 25  1  0
 25 26  1  0
 26 27  1  0
 27 22  1  0
 21 28  1  0
 28 17  1  0
 28 29  2  0
 29  8  1  0
 19 30  1  0
 30 31  1  0
 31 32  1  0
 32 33  1  0
 30 34  1  0
 34 35  1  0
 35 36  1  0
  1 37  1  0
  2 38  1  0
  2 39  1  0
  3 40  1  0
  3 41  1  0
  5 42  1  0
  5 43  1  0
  6 44  1  0
  6 45  1  0
  7 46  1  0
 12 47  1  0
 12 48  1  0
 13 49  1  0
 13 50  1  0
 14 51  1  0
 14 52  1  0
 15 53  1  0
 15 54  1  0
 16 55  1  0
 16 56  1  0
 23 57  1  0
 23 58  1  0
 24 59  1  0
 24 60  1  0
 25 61  1  0
 25 62  1  0
 26 63  1  0
 26 64  1  0
 27 65  1  0
 27 66  1  0
 31 67  1  0
 31 68  1  0
 32 69  1  0
 32 70  1  0
 33 71  1  0
 34 72  1  0
 34 73  1  0
 35 74  1  0
 35 75  1  0
 36 76  1  0
M  END
> <ID>
HT0693

> <Class>
1.0

> <Clusters>
67

> <Fold>
3

$$$$