
     RDKit          3D

 74 77  0  0  0  0  0  0  0  0999 V2000
    8.4163   -0.7783    2.6226 C   0  0  0  0  0  0  0  0  0  0  0  0
    8.0945    0.1371    1.4191 C   0  0  0  0  0  0  0  0  0  0  0  0
    9.2717    0.0408    0.4211 C   0  0  0  0  0  0  0  0  0  0  0  0
    7.9487    1.5497    1.9578 C   0  0  0  0  0  0  0  0  0  0  0  0
    8.7545    2.4619    1.6251 O   0  0  0  0  0  0  0  0  0  0  0  0
    6.9076    1.8454    2.8343 O   0  0  0  0  0  0  0  0  0  0  0  0
    6.8006   -0.2538    0.6836 C   0  0  0  0  0  0  0  0  0  0  0  0
    6.2984    0.5940   -0.3253 C   0  0  0  0  0  0  0  0  0  0  0  0
    5.1531    0.2568   -1.0505 C   0  0  0  0  0  0  0  0  0  0  0  0
    4.4735   -0.9479   -0.7982 C   0  0  0  0  0  0  0  0  0  0  0  0
    4.9652   -1.7966    0.2077 C   0  0  0  0  0  0  0  0  0  0  0  0
    6.1084   -1.4581    0.9375 C   0  0  0  0  0  0  0  0  0  0  0  0
    3.2807   -1.3486   -1.5932 C   0  0  0  0  0  0  0  0  0  0  0  0
    2.8586   -2.5356   -1.5104 O   0  0  0  0  0  0  0  0  0  0  0  0
    2.6118   -0.3824   -2.5460 C   0  0  0  0  0  0  0  0  0  0  0  0
    1.2663   -0.8755   -3.1096 C   0  0  0  0  0  0  0  0  0  0  0  0
    0.1469   -0.9364   -2.0574 C   0  0  0  0  0  0  0  0  0  0  0  0
   -0.0847    0.3897   -1.4366 N   0  0  0  0  0  0  0  0  0  0  0  0
   -0.9718    1.2724   -2.2296 C   0  0  0  0  0  0  0  0  0  0  0  0
   -2.4551    0.8655   -2.1521 C   0  0  0  0  0  0  0  0  0  0  0  0
   -2.9316    0.7353   -0.7010 C   0  0  0  0  0  0  0  0  0  0  0  0
   -1.9855   -0.1987    0.0740 C   0  0  0  0  0  0  0  0  0  0  0  0
   -0.5354    0.2928   -0.0331 C   0  0  0  0  0  0  0  0  0  0  0  0
   -4.2452    0.2039   -0.7148 O   0  0  0  0  0  0  0  0  0  0  0  0
   -4.9526    0.4644    0.4908 C   0  0  0  0  0  0  0  0  0  0  0  0
   -6.1345    1.3795    0.2367 C   0  0  0  0  0  0  0  0  0  0  0  0
   -6.6306    1.6095   -1.0620 C   0  0  0  0  0  0  0  0  0  0  0  0
   -7.7488    2.4260   -1.2561 C   0  0  0  0  0  0  0  0  0  0  0  0
   -8.3839    3.0195   -0.1630 C   0  0  0  0  0  0  0  0  0  0  0  0
   -7.8985    2.8024    1.1271 C   0  0  0  0  0  0  0  0  0  0  0  0
   -6.7829    1.9847    1.3286 C   0  0  0  0  0  0  0  0  0  0  0  0
   -5.4417   -0.8544    1.0452 C   0  0  0  0  0  0  0  0  0  0  0  0
   -6.2561   -1.6978    0.2669 C   0  0  0  0  0  0  0  0  0  0  0  0
   -6.6954   -2.9242    0.7748 C   0  0  0  0  0  0  0  0  0  0  0  0
   -6.3225   -3.3228    2.0601 C   0  0  0  0  0  0  0  0  0  0  0  0
   -5.5096   -2.4961    2.8390 C   0  0  0  0  0  0  0  0  0  0  0  0
   -5.0711   -1.2669    2.3370 C   0  0  0  0  0  0  0  0  0  0  0  0
    9.3149   -0.4076    3.1628 H   0  0  0  0  0  0  0  0  0  0  0  0
    8.6344   -1.8166    2.2910 H   0  0  0  0  0  0  0  0  0  0  0  0
    7.5697   -0.7986    3.3429 H   0  0  0  0  0  0  0  0  0  0  0  0
   10.2344    0.2914    0.9179 H   0  0  0  0  0  0  0  0  0  0  0  0
    9.3505   -0.9906    0.0147 H   0  0  0  0  0  0  0  0  0  0  0  0
    9.1330    0.7372   -0.4337 H   0  0  0  0  0  0  0  0  0  0  0  0
    6.7889    2.7813    3.2025 H   0  0  0  0  0  0  0  0  0  0  0  0
    6.8025    1.5234   -0.5600 H   0  0  0  0  0  0  0  0  0  0  0  0
    4.8204    0.9374   -1.8227 H   0  0  0  0  0  0  0  0  0  0  0  0
    4.4685   -2.7328    0.4312 H   0  0  0  0  0  0  0  0  0  0  0  0
    6.4423   -2.1586    1.6887 H   0  0  0  0  0  0  0  0  0  0  0  0
    2.4611    0.5959   -2.0418 H   0  0  0  0  0  0  0  0  0  0  0  0
    3.3001   -0.2157   -3.4019 H   0  0  0  0  0  0  0  0  0  0  0  0
    0.9595   -0.1997   -3.9347 H   0  0  0  0  0  0  0  0  0  0  0  0
    1.3977   -1.8824   -3.5623 H   0  0  0  0  0  0  0  0  0  0  0  0
    0.4357   -1.6885   -1.2924 H   0  0  0  0  0  0  0  0  0  0  0  0
   -0.7727   -1.3274   -2.5389 H   0  0  0  0  0  0  0  0  0  0  0  0
   -0.6552    1.2920   -3.2934 H   0  0  0  0  0  0  0  0  0  0  0  0
   -0.8682    2.3144   -1.8546 H   0  0  0  0  0  0  0  0  0  0  0  0
   -3.0655    1.6399   -2.6665 H   0  0  0  0  0  0  0  0  0  0  0  0
   -2.6226   -0.0900   -2.6925 H   0  0  0  0  0  0  0  0  0  0  0  0
   -2.9095    1.7594   -0.2568 H   0  0  0  0  0  0  0  0  0  0  0  0
   -2.2710   -0.2230    1.1470 H   0  0  0  0  0  0  0  0  0  0  0  0
   -2.0643   -1.2356   -0.3190 H   0  0  0  0  0  0  0  0  0  0  0  0
   -0.4516    1.2936    0.4465 H   0  0  0  0  0  0  0  0  0  0  0  0
    0.1328   -0.3836    0.5448 H   0  0  0  0  0  0  0  0  0  0  0  0
   -4.3193    0.9655    1.2638 H   0  0  0  0  0  0  0  0  0  0  0  0
   -6.1682    1.1483   -1.9260 H   0  0  0  0  0  0  0  0  0  0  0  0
   -8.1320    2.5871   -2.2531 H   0  0  0  0  0  0  0  0  0  0  0  0
   -9.2536    3.6462   -0.3156 H   0  0  0  0  0  0  0  0  0  0  0  0
   -8.3949    3.2586    1.9735 H   0  0  0  0  0  0  0  0  0  0  0  0
   -6.4269    1.8166    2.3379 H   0  0  0  0  0  0  0  0  0  0  0  0
   -6.5476   -1.4056   -0.7333 H   0  0  0  0  0  0  0  0  0  0  0  0
   -7.3227   -3.5669    0.1705 H   0  0  0  0  0  0  0  0  0  0  0  0
   -6.6621   -4.2725    2.4526 H   0  0  0  0  0  0  0  0  0  0  0  0
   -5.2174   -2.8089    3.8327 H   0  0  0  0  0  0  0  0  0  0  0  0
   -4.4406   -0.6407    2.9558 H   0  0  0  0  0  0  0  0  0  0  0  0
  1  2  1  0
  2  3  1  0
  2  4  1  0
  4  5  2  0
  4  6  1  0
  2  7  1  0
  7  8  2  0
  8  9  1  0
  9 10  2  0
 10 11  1  0
 11 12  2  0
 12  7  1  0
 10 13  1  0
 13 14  2  0
 13 15  1  0
 15 16  1  0
 16 17  1  0
 17 18  1  0
 18 19  1  0
 19 20  1  0
 20 21  1  0
 21 22  1  0
 22 23  1  0
 23 18  1  0
 21 24  1  0
 24 25  1  0
 25 26  1  0
 26 27  2  0
 27 28  1  0
 28 29  2  0
 29 30  1  0
 30 31  2  0
 31 26  1  0
 25 32  1  0
 32 33  2  0
 33 34  1  0
 34 35  2  0
 35 36  1  0
 36 37  2  0
 37 32  1  0
  1 38  1  0
  1 39  1  0
  1 40  1  0
  3 41  1  0
  3 42  1  0
  3 43  1  0
  6 44  1  0
  8 45  1  0
  9 46  1  0
 11 47  1  0
 12 48  1  0
 15 49  1  0
 15 50  1  0
 16 51  1  0
 16 52  1  0
 17 53  1  0
 17 54  1  0
 19 55  1  0
 19 56  1  0
 20 57  1  0
 20 58  1  0
 21 59  1  0
 22 60  1  0
 22 61  1  0
 23 62  1  0
 23 63  1  0
 25 64  1  0
 27 65  1  0
 28 66  1  0
 29 67  1  0
 30 68  1  0
 31 69  1  0
 33 70  1  0
 34 71  1  0
 35 72  1  0
 36 73  1  0
 37 74  1  0
M  END
> <ID>
HT0737

> <Class>
1.0

> <Clusters>
103

> <Fold>
3

$$$$