
     RDKit          3D

 42 44  0  0  0  0  0  0  0  0999 V2000
    4.0382   -2.0754    1.1146 C   0  0  0  0  0  0  0  0  0  0  0  0
    3.2492   -1.4151    0.0599 N   0  0  0  0  0  0  0  0  0  0  0  0
    4.0186   -1.4060   -1.1944 C   0  0  0  0  0  0  0  0  0  0  0  0
    2.8882   -0.0333    0.4503 C   0  0  0  0  0  0  0  0  0  0  0  0
    1.6310   -0.0093    1.3288 C   0  0  0  0  0  0  0  0  0  0  0  0
    0.4639   -0.6535    0.6201 C   0  0  0  0  0  0  0  0  0  0  0  0
   -0.6310    0.0019    0.1773 C   0  0  0  0  0  0  0  0  0  0  0  0
   -1.7434   -0.7637   -0.4617 C   0  0  0  0  0  0  0  0  0  0  0  0
   -1.3937   -1.7214   -1.4381 C   0  0  0  0  0  0  0  0  0  0  0  0
   -2.3633   -2.4963   -2.0700 C   0  0  0  0  0  0  0  0  0  0  0  0
   -3.7051   -2.3269   -1.7527 C   0  0  0  0  0  0  0  0  0  0  0  0
   -4.0846   -1.3773   -0.8066 C   0  0  0  0  0  0  0  0  0  0  0  0
   -3.1285   -0.5877   -0.1358 C   0  0  0  0  0  0  0  0  0  0  0  0
   -3.6861    0.4723    0.8045 C   0  0  0  0  0  0  0  0  0  0  0  0
   -2.6445    0.8368    2.2578 S   0  0  0  0  0  0  0  0  0  0  0  0
   -1.6353    1.9705    1.3102 C   0  0  0  0  0  0  0  0  0  0  0  0
   -1.7759    3.3535    1.4737 C   0  0  0  0  0  0  0  0  0  0  0  0
   -1.0221    4.2295    0.6866 C   0  0  0  0  0  0  0  0  0  0  0  0
   -0.1394    3.7247   -0.2734 C   0  0  0  0  0  0  0  0  0  0  0  0
   -0.0095    2.3434   -0.4478 C   0  0  0  0  0  0  0  0  0  0  0  0
   -0.7590    1.4618    0.3463 C   0  0  0  0  0  0  0  0  0  0  0  0
    4.2698   -3.1216    0.8198 H   0  0  0  0  0  0  0  0  0  0  0  0
    4.9931   -1.5360    1.3048 H   0  0  0  0  0  0  0  0  0  0  0  0
    3.4593   -2.1308    2.0591 H   0  0  0  0  0  0  0  0  0  0  0  0
    4.2989   -2.4419   -1.4841 H   0  0  0  0  0  0  0  0  0  0  0  0
    3.3964   -0.9974   -2.0197 H   0  0  0  0  0  0  0  0  0  0  0  0
    4.9421   -0.7924   -1.0955 H   0  0  0  0  0  0  0  0  0  0  0  0
    3.7263    0.4669    0.9868 H   0  0  0  0  0  0  0  0  0  0  0  0
    2.6710    0.5877   -0.4486 H   0  0  0  0  0  0  0  0  0  0  0  0
    1.4209    1.0420    1.6143 H   0  0  0  0  0  0  0  0  0  0  0  0
    1.8120   -0.5528    2.2785 H   0  0  0  0  0  0  0  0  0  0  0  0
    0.5190   -1.7294    0.5014 H   0  0  0  0  0  0  0  0  0  0  0  0
   -0.3589   -1.8625   -1.7263 H   0  0  0  0  0  0  0  0  0  0  0  0
   -2.0721   -3.2255   -2.8151 H   0  0  0  0  0  0  0  0  0  0  0  0
   -4.4576   -2.9238   -2.2520 H   0  0  0  0  0  0  0  0  0  0  0  0
   -5.1414   -1.2520   -0.6030 H   0  0  0  0  0  0  0  0  0  0  0  0
   -3.8999    1.3976    0.2267 H   0  0  0  0  0  0  0  0  0  0  0  0
   -4.6604    0.1308    1.2154 H   0  0  0  0  0  0  0  0  0  0  0  0
   -2.4685    3.7489    2.2057 H   0  0  0  0  0  0  0  0  0  0  0  0
   -1.1269    5.2989    0.8156 H   0  0  0  0  0  0  0  0  0  0  0  0
    0.4401    4.4037   -0.8854 H   0  0  0  0  0  0  0  0  0  0  0  0
    0.6691    1.9610   -1.2000 H   0  0  0  0  0  0  0  0  0  0  0  0
  1  2  1  0
  2  3  1  0
  2  4  1  0
  4  5  1  0
  5  6  1  0
  6  7  2  0
  7  8  1  0
  8  9  2  0
  9 10  1  0
 10 11  2  0
 11 12  1  0
 12 13  2  0
 13  8  1  0
 13 14  1  0
 14 15  1  0
 15 16  1  0
 16 17  2  0
 17 18  1  0
 18 19  2  0
 19 20  1  0
 20 21  2  0
 21  7  1  0
 21 16  1  0
  1 22  1  0
  1 23  1  0
  1 24  1  0
  3 25  1  0
  3 26  1  0
  3 27  1  0
  4 28  1  0
  4 29  1  0
  5 30  1  0
  5 31  1  0
  6 32  1  0
  9 33  1  0
 10 34  1  0
 11 35  1  0
 12 36  1  0
 14 37  1  0
 14 38  1  0
 17 39  1  0
 18 40  1  0
 19 41  1  0
 20 42  1  0
M  END
> <ID>
HT0712

> <Class>
1.0

> <Clusters>
17

> <Fold>
3

$$$$