
     RDKit          3D

 36 35  0  0  0  0  0  0  0  0999 V2000
   -3.2128    0.5946    1.4081 C   0  0  0  0  0  0  0  0  0  0  0  0
   -3.0488    1.7737    0.4584 C   0  0  0  0  0  0  0  0  0  0  0  0
   -2.6082    1.3171   -0.8653 N   0  0  0  0  0  0  0  0  0  0  0  0
   -3.5973    0.7932   -1.8204 C   0  0  0  0  0  0  0  0  0  0  0  0
   -3.3234   -0.6726   -2.1446 C   0  0  0  0  0  0  0  0  0  0  0  0
   -1.2150    1.4152   -1.2153 C   0  0  0  0  0  0  0  0  0  0  0  0
   -0.7372    1.8079   -2.7341 S   0  0  0  0  0  0  0  0  0  0  0  0
    0.0427    1.1005    0.0214 S   0  0  0  0  0  0  0  0  0  0  0  0
    0.0022   -0.9946   -0.3524 S   0  0  0  0  0  0  0  0  0  0  0  0
    1.7335   -1.0166   -0.8009 C   0  0  0  0  0  0  0  0  0  0  0  0
    2.1236   -0.8618   -2.3836 S   0  0  0  0  0  0  0  0  0  0  0  0
    2.7525   -1.2179    0.2043 N   0  0  0  0  0  0  0  0  0  0  0  0
    4.0911   -0.6254    0.0567 C   0  0  0  0  0  0  0  0  0  0  0  0
    4.0158    0.8947   -0.0009 C   0  0  0  0  0  0  0  0  0  0  0  0
    2.4575   -2.0061    1.4086 C   0  0  0  0  0  0  0  0  0  0  0  0
    2.1512   -1.1006    2.5967 C   0  0  0  0  0  0  0  0  0  0  0  0
   -2.2634    0.0373    1.5054 H   0  0  0  0  0  0  0  0  0  0  0  0
   -4.0024   -0.0949    1.0310 H   0  0  0  0  0  0  0  0  0  0  0  0
   -3.5051    0.9668    2.4090 H   0  0  0  0  0  0  0  0  0  0  0  0
   -2.3171    2.4982    0.8886 H   0  0  0  0  0  0  0  0  0  0  0  0
   -4.0116    2.3162    0.3719 H   0  0  0  0  0  0  0  0  0  0  0  0
   -4.6211    0.8630   -1.3959 H   0  0  0  0  0  0  0  0  0  0  0  0
   -3.5887    1.3956   -2.7523 H   0  0  0  0  0  0  0  0  0  0  0  0
   -4.1578   -1.0884   -2.7542 H   0  0  0  0  0  0  0  0  0  0  0  0
   -2.3793   -0.7736   -2.7149 H   0  0  0  0  0  0  0  0  0  0  0  0
   -3.2442   -1.2627   -1.2046 H   0  0  0  0  0  0  0  0  0  0  0  0
    4.5803   -1.0064   -0.8627 H   0  0  0  0  0  0  0  0  0  0  0  0
    4.7357   -0.9107    0.9140 H   0  0  0  0  0  0  0  0  0  0  0  0
    3.4237    1.2738    0.8496 H   0  0  0  0  0  0  0  0  0  0  0  0
    5.0384    1.3289    0.0485 H   0  0  0  0  0  0  0  0  0  0  0  0
    3.5476    1.2287   -0.9523 H   0  0  0  0  0  0  0  0  0  0  0  0
    3.3265   -2.6577    1.6567 H   0  0  0  0  0  0  0  0  0  0  0  0
    1.5931   -2.6793    1.2301 H   0  0  0  0  0  0  0  0  0  0  0  0
    1.2433   -0.5016    2.3935 H   0  0  0  0  0  0  0  0  0  0  0  0
    3.0052   -0.4192    2.7983 H   0  0  0  0  0  0  0  0  0  0  0  0
    1.9696   -1.7155    3.4902 H   0  0  0  0  0  0  0  0  0  0  0  0
  1  2  1  0
  2  3  1  0
  3  4  1  0
  4  5  1  0
  3  6  1  0
  6  7  2  0
  6  8  1  0
  8  9  1  0
  9 10  1  0
 10 11  2  0
 10 12  1  0
 12 13  1  0
 13 14  1  0
 12 15  1  0
 15 16  1  0
  1 17  1  0
  1 18  1  0
  1 19  1  0
  2 20  1  0
  2 21  1  0
  4 22  1  0
  4 23  1  0
  5 24  1  0
  5 25  1  0
  5 26  1  0
 13 27  1  0
 13 28  1  0
 14 29  1  0
 14 30  1  0
 14 31  1  0
 15 32  1  0
 15 33  1  0
 16 34  1  0
 16 35  1  0
 16 36  1  0
M  END
> <ID>
HT0698

> <Class>
1.0

> <Clusters>
260

> <Fold>
3

$$$$