
     RDKit          3D

 42 44  0  0  0  0  0  0  0  0999 V2000
    4.1137   -0.6564   -2.0533 C   0  0  0  0  0  0  0  0  0  0  0  0
    2.8083   -1.2955   -1.8275 N   0  0  0  0  0  0  0  0  0  0  0  0
    2.8674   -2.2519   -0.7099 C   0  0  0  0  0  0  0  0  0  0  0  0
    1.7032   -0.3211   -1.6881 C   0  0  0  0  0  0  0  0  0  0  0  0
    1.9087    0.7132   -0.5590 C   0  0  0  0  0  0  0  0  0  0  0  0
    0.6444    1.4856   -0.2798 C   0  0  0  0  0  0  0  0  0  0  0  0
   -0.4393    0.9820    0.3507 C   0  0  0  0  0  0  0  0  0  0  0  0
   -0.4679   -0.4037    0.8691 C   0  0  0  0  0  0  0  0  0  0  0  0
    0.3650   -0.7875    1.9329 C   0  0  0  0  0  0  0  0  0  0  0  0
    0.3306   -2.0978    2.4160 C   0  0  0  0  0  0  0  0  0  0  0  0
   -0.5488   -3.0269    1.8561 C   0  0  0  0  0  0  0  0  0  0  0  0
   -1.4025   -2.6456    0.8175 C   0  0  0  0  0  0  0  0  0  0  0  0
   -1.3676   -1.3324    0.3207 C   0  0  0  0  0  0  0  0  0  0  0  0
   -2.2992   -0.8980   -0.7729 C   0  0  0  0  0  0  0  0  0  0  0  0
   -3.2490    0.0334   -0.2644 O   0  0  0  0  0  0  0  0  0  0  0  0
   -2.9718    1.3174    0.2421 C   0  0  0  0  0  0  0  0  0  0  0  0
   -4.0781    2.1429    0.4857 C   0  0  0  0  0  0  0  0  0  0  0  0
   -3.9136    3.4424    0.9641 C   0  0  0  0  0  0  0  0  0  0  0  0
   -2.6363    3.9358    1.2154 C   0  0  0  0  0  0  0  0  0  0  0  0
   -1.5196    3.1296    0.9943 C   0  0  0  0  0  0  0  0  0  0  0  0
   -1.6613    1.8145    0.5062 C   0  0  0  0  0  0  0  0  0  0  0  0
    4.0417    0.0915   -2.8721 H   0  0  0  0  0  0  0  0  0  0  0  0
    4.8554   -1.4221   -2.3654 H   0  0  0  0  0  0  0  0  0  0  0  0
    4.4873   -0.1569   -1.1328 H   0  0  0  0  0  0  0  0  0  0  0  0
    3.2534   -1.7796    0.2183 H   0  0  0  0  0  0  0  0  0  0  0  0
    3.5396   -3.0946   -0.9779 H   0  0  0  0  0  0  0  0  0  0  0  0
    1.8626   -2.6825   -0.5087 H   0  0  0  0  0  0  0  0  0  0  0  0
    0.7544   -0.8766   -1.5393 H   0  0  0  0  0  0  0  0  0  0  0  0
    1.5797    0.2239   -2.6496 H   0  0  0  0  0  0  0  0  0  0  0  0
    2.2785    0.2469    0.3724 H   0  0  0  0  0  0  0  0  0  0  0  0
    2.6852    1.4390   -0.8824 H   0  0  0  0  0  0  0  0  0  0  0  0
    0.6145    2.5050   -0.6470 H   0  0  0  0  0  0  0  0  0  0  0  0
    1.0355   -0.0711    2.3909 H   0  0  0  0  0  0  0  0  0  0  0  0
    0.9813   -2.3913    3.2295 H   0  0  0  0  0  0  0  0  0  0  0  0
   -0.5767   -4.0405    2.2344 H   0  0  0  0  0  0  0  0  0  0  0  0
   -2.0903   -3.3730    0.4046 H   0  0  0  0  0  0  0  0  0  0  0  0
   -1.7324   -0.4394   -1.6117 H   0  0  0  0  0  0  0  0  0  0  0  0
   -2.8486   -1.7695   -1.1877 H   0  0  0  0  0  0  0  0  0  0  0  0
   -5.0774    1.7736    0.2917 H   0  0  0  0  0  0  0  0  0  0  0  0
   -4.7794    4.0674    1.1415 H   0  0  0  0  0  0  0  0  0  0  0  0
   -2.5106    4.9421    1.5936 H   0  0  0  0  0  0  0  0  0  0  0  0
   -0.5402    3.5278    1.2298 H   0  0  0  0  0  0  0  0  0  0  0  0
  1  2  1  0
  2  3  1  0
  2  4  1  0
  4  5  1  0
  5  6  1  0
  6  7  2  0
  7  8  1  0
  8  9  2  0
  9 10  1  0
 10 11  2  0
 11 12  1  0
 12 13  2  0
 13  8  1  0
 13 14  1  0
 14 15  1  0
 15 16  1  0
 16 17  2  0
 17 18  1  0
 18 19  2  0
 19 20  1  0
 20 21  2  0
 21  7  1  0
 21 16  1  0
  1 22  1  0
  1 23  1  0
  1 24  1  0
  3 25  1  0
  3 26  1  0
  3 27  1  0
  4 28  1  0
  4 29  1  0
  5 30  1  0
  5 31  1  0
  6 32  1  0
  9 33  1  0
 10 34  1  0
 11 35  1  0
 12 36  1  0
 14 37  1  0
 14 38  1  0
 17 39  1  0
 18 40  1  0
 19 41  1  0
 20 42  1  0
M  END
> <ID>
HT0716

> <Class>
1.0

> <Clusters>
17

> <Fold>
3

$$$$