
     RDKit          3D

 47 50  0  0  0  0  0  0  0  0999 V2000
    0.9000   -2.7318    1.9815 C   0  0  0  0  0  0  0  0  0  0  0  0
    2.1526   -1.9375    1.7922 C   0  0  0  0  0  0  0  0  0  0  0  0
    3.2032   -2.0339    2.5751 O   0  0  0  0  0  0  0  0  0  0  0  0
    4.1717   -1.2662    2.1665 N   0  0  0  0  0  0  0  0  0  0  0  0
    3.7365   -0.6344    1.0588 C   0  0  0  0  0  0  0  0  0  0  0  0
    2.4401   -1.0345    0.7818 C   0  0  0  0  0  0  0  0  0  0  0  0
    1.6141   -0.6645   -0.3823 C   0  0  0  0  0  0  0  0  0  0  0  0
    2.1756   -0.4344   -1.4893 O   0  0  0  0  0  0  0  0  0  0  0  0
    0.1943   -0.5191   -0.2522 N   0  0  0  0  0  0  0  0  0  0  0  0
   -0.6591   -0.2398   -1.4094 C   0  0  1  0  0  0  0  0  0  0  0  0
   -2.0387   -0.6629   -1.2784 C   0  0  1  0  0  0  0  0  0  0  0  0
   -2.6007   -1.4711    0.2611 S   0  0  0  0  0  0  0  0  0  0  0  0
   -4.0159   -0.2829    0.4230 C   0  0  0  0  0  0  0  0  0  0  0  0
   -5.2459   -0.9490   -0.2264 C   0  0  0  0  0  0  0  0  0  0  0  0
   -4.2922   -0.0465    1.9151 C   0  0  0  0  0  0  0  0  0  0  0  0
   -3.5936    1.0510   -0.2767 C   0  0  1  0  0  0  0  0  0  0  0  0
   -2.5308    0.6753   -1.1728 N   0  0  0  0  0  0  0  0  0  0  0  0
   -1.1494    1.1697   -1.3836 C   0  0  0  0  0  0  0  0  0  0  0  0
   -0.6074    2.3046   -1.4446 O   0  0  0  0  0  0  0  0  0  0  0  0
   -4.6935    1.7768   -1.0140 C   0  0  0  0  0  0  0  0  0  0  0  0
   -5.3672    2.6539   -0.4109 O   0  0  0  0  0  0  0  0  0  0  0  0
   -4.9955    1.4864   -2.3440 O   0  0  0  0  0  0  0  0  0  0  0  0
    4.5455    0.3487    0.3076 C   0  0  0  0  0  0  0  0  0  0  0  0
    4.0944    1.6772    0.1428 C   0  0  0  0  0  0  0  0  0  0  0  0
    2.6032    2.2530    0.8825 Cl  0  0  0  0  0  0  0  0  0  0  0  0
    4.8663    2.5930   -0.5821 C   0  0  0  0  0  0  0  0  0  0  0  0
    6.0906    2.2079   -1.1289 C   0  0  0  0  0  0  0  0  0  0  0  0
    6.5555    0.9038   -0.9522 C   0  0  0  0  0  0  0  0  0  0  0  0
    5.7911   -0.0269   -0.2405 C   0  0  0  0  0  0  0  0  0  0  0  0
    6.4098   -1.6672   -0.0883 Cl  0  0  0  0  0  0  0  0  0  0  0  0
    0.0558   -2.0605    2.2384 H   0  0  0  0  0  0  0  0  0  0  0  0
    1.0353   -3.4537    2.8112 H   0  0  0  0  0  0  0  0  0  0  0  0
    0.6662   -3.2929    1.0533 H   0  0  0  0  0  0  0  0  0  0  0  0
   -0.1810   -0.3569    0.7083 H   0  0  0  0  0  0  0  0  0  0  0  0
   -0.2022   -0.5189   -2.3852 H   0  0  0  0  0  0  0  0  0  0  0  0
   -2.4400   -1.1603   -2.1888 H   0  0  0  0  0  0  0  0  0  0  0  0
   -6.1506   -0.3154   -0.1088 H   0  0  0  0  0  0  0  0  0  0  0  0
   -5.0675   -1.1270   -1.3089 H   0  0  0  0  0  0  0  0  0  0  0  0
   -5.4514   -1.9319    0.2530 H   0  0  0  0  0  0  0  0  0  0  0  0
   -5.1080    0.6970    2.0451 H   0  0  0  0  0  0  0  0  0  0  0  0
   -3.3815    0.3341    2.4242 H   0  0  0  0  0  0  0  0  0  0  0  0
   -4.5927   -0.9946    2.4102 H   0  0  0  0  0  0  0  0  0  0  0  0
   -3.1617    1.7557    0.4698 H   0  0  0  0  0  0  0  0  0  0  0  0
   -4.4929    0.7762   -2.8633 H   0  0  0  0  0  0  0  0  0  0  0  0
    4.5231    3.6103   -0.7115 H   0  0  0  0  0  0  0  0  0  0  0  0
    6.6861    2.9225   -1.6793 H   0  0  0  0  0  0  0  0  0  0  0  0
    7.5082    0.6174   -1.3791 H   0  0  0  0  0  0  0  0  0  0  0  0
  1  2  1  0
  2  3  1  0
  3  4  1  0
  4  5  2  0
  5  6  1  0
  6  2  2  0
  6  7  1  0
  7  8  2  0
  7  9  1  0
 10  9  1  0
 10 11  1  0
 11 12  1  0
 12 13  1  0
 13 14  1  0
 13 15  1  0
 13 16  1  0
 16 17  1  0
 17 11  1  0
 17 18  1  0
 18 10  1  0
 18 19  2  0
 16 20  1  0
 20 21  2  0
 20 22  1  0
  5 23  1  0
 23 24  2  0
 24 25  1  0
 24 26  1  0
 26 27  2  0
 27 28  1  0
 28 29  2  0
 29 23  1  0
 29 30  1  0
  1 31  1  0
  1 32  1  0
  1 33  1  0
  9 34  1  0
 10 35  1  6
 11 36  1  6
 14 37  1  0
 14 38  1  0
 14 39  1  0
 15 40  1  0
 15 41  1  0
 15 42  1  0
 16 43  1  1
 22 44  1  0
 26 45  1  0
 27 46  1  0
 28 47  1  0
M  END
> <ID>
HT0649

> <Class>
1.0

> <Clusters>
62

> <Fold>
3

$$$$