
     RDKit          3D

 53 55  0  0  0  0  0  0  0  0999 V2000
   -5.9772   -0.2054   -2.7584 C   0  0  0  0  0  0  0  0  0  0  0  0
   -5.1854    0.0827   -1.4833 C   0  0  0  0  0  0  0  0  0  0  0  0
   -3.6883    0.0762   -1.6962 C   0  0  0  0  0  0  0  0  0  0  0  0
   -3.2221   -0.1938   -2.8382 O   0  0  0  0  0  0  0  0  0  0  0  0
   -2.7867    0.3822   -0.6075 N   0  0  0  0  0  0  0  0  0  0  0  0
   -1.3295    0.4503   -0.8508 C   0  0  0  0  0  0  0  0  0  0  0  0
   -0.6329    1.4988    0.0371 C   0  0  0  0  0  0  0  0  0  0  0  0
    0.8781    1.4953   -0.2222 C   0  0  0  0  0  0  0  0  0  0  0  0
    1.4437    0.1529    0.0336 N   0  0  0  0  0  0  0  0  0  0  0  0
    2.9149    0.1757   -0.1235 C   0  0  0  0  0  0  0  0  0  0  0  0
    3.5644   -0.9211    0.7316 C   0  0  0  0  0  0  0  0  0  0  0  0
    5.0678   -0.8183    0.6943 C   0  0  0  0  0  0  0  0  0  0  0  0
    5.7848   -0.4159    1.8343 C   0  0  0  0  0  0  0  0  0  0  0  0
    7.1798   -0.3259    1.7939 C   0  0  0  0  0  0  0  0  0  0  0  0
    7.8687   -0.6393    0.6191 C   0  0  0  0  0  0  0  0  0  0  0  0
    7.1640   -1.0448   -0.5174 C   0  0  0  0  0  0  0  0  0  0  0  0
    5.7692   -1.1361   -0.4817 C   0  0  0  0  0  0  0  0  0  0  0  0
    0.8317   -0.8404   -0.8781 C   0  0  0  0  0  0  0  0  0  0  0  0
   -0.6803   -0.9256   -0.6421 C   0  0  0  0  0  0  0  0  0  0  0  0
   -3.3036    0.4323    0.7343 C   0  0  0  0  0  0  0  0  0  0  0  0
   -3.6681    1.6624    1.3011 C   0  0  0  0  0  0  0  0  0  0  0  0
   -4.1841    1.7116    2.5996 C   0  0  0  0  0  0  0  0  0  0  0  0
   -4.3460    0.5327    3.3336 C   0  0  0  0  0  0  0  0  0  0  0  0
   -3.9962   -0.6972    2.7680 C   0  0  0  0  0  0  0  0  0  0  0  0
   -3.4795   -0.7493    1.4699 C   0  0  0  0  0  0  0  0  0  0  0  0
   -5.7217   -1.2124   -3.1523 H   0  0  0  0  0  0  0  0  0  0  0  0
   -7.0643   -0.1793   -2.5338 H   0  0  0  0  0  0  0  0  0  0  0  0
   -5.7571    0.5619   -3.5311 H   0  0  0  0  0  0  0  0  0  0  0  0
   -5.4484   -0.6837   -0.7236 H   0  0  0  0  0  0  0  0  0  0  0  0
   -5.4884    1.0789   -1.0960 H   0  0  0  0  0  0  0  0  0  0  0  0
   -1.1518    0.7618   -1.9054 H   0  0  0  0  0  0  0  0  0  0  0  0
   -1.0431    2.5078   -0.1841 H   0  0  0  0  0  0  0  0  0  0  0  0
   -0.8025    1.2760    1.1132 H   0  0  0  0  0  0  0  0  0  0  0  0
    1.3358    2.2386    0.4675 H   0  0  0  0  0  0  0  0  0  0  0  0
    1.0862    1.8205   -1.2675 H   0  0  0  0  0  0  0  0  0  0  0  0
    3.3308    1.1491    0.2249 H   0  0  0  0  0  0  0  0  0  0  0  0
    3.2074    0.0617   -1.1922 H   0  0  0  0  0  0  0  0  0  0  0  0
    3.1952   -0.8227    1.7762 H   0  0  0  0  0  0  0  0  0  0  0  0
    3.2692   -1.9279    0.3699 H   0  0  0  0  0  0  0  0  0  0  0  0
    5.2660   -0.1675    2.7518 H   0  0  0  0  0  0  0  0  0  0  0  0
    7.7269   -0.0129    2.6737 H   0  0  0  0  0  0  0  0  0  0  0  0
    8.9484   -0.5693    0.5899 H   0  0  0  0  0  0  0  0  0  0  0  0
    7.6988   -1.2899   -1.4260 H   0  0  0  0  0  0  0  0  0  0  0  0
    5.2358   -1.4569   -1.3680 H   0  0  0  0  0  0  0  0  0  0  0  0
    1.2569   -1.8490   -0.6926 H   0  0  0  0  0  0  0  0  0  0  0  0
    1.0284   -0.5777   -1.9430 H   0  0  0  0  0  0  0  0  0  0  0  0
   -0.8626   -1.2827    0.3944 H   0  0  0  0  0  0  0  0  0  0  0  0
   -1.1231   -1.6603   -1.3488 H   0  0  0  0  0  0  0  0  0  0  0  0
   -3.5508    2.5778    0.7351 H   0  0  0  0  0  0  0  0  0  0  0  0
   -4.4605    2.6627    3.0359 H   0  0  0  0  0  0  0  0  0  0  0  0
   -4.7467    0.5717    4.3383 H   0  0  0  0  0  0  0  0  0  0  0  0
   -4.1288   -1.6101    3.3341 H   0  0  0  0  0  0  0  0  0  0  0  0
   -3.2234   -1.7062    1.0335 H   0  0  0  0  0  0  0  0  0  0  0  0
  1  2  1  0
  2  3  1  0
  3  4  2  0
  3  5  1  0
  5  6  1  0
  6  7  1  0
  7  8  1  0
  8  9  1  0
  9 10  1  0
 10 11  1  0
 11 12  1  0
 12 13  2  0
 13 14  1  0
 14 15  2  0
 15 16  1  0
 16 17  2  0
 17 12  1  0
  9 18  1  0
 18 19  1  0
 19  6  1  0
  5 20  1  0
 20 21  2  0
 21 22  1  0
 22 23  2  0
 23 24  1  0
 24 25  2  0
 25 20  1  0
  1 26  1  0
  1 27  1  0
  1 28  1  0
  2 29  1  0
  2 30  1  0
  6 31  1  0
  7 32  1  0
  7 33  1  0
  8 34  1  0
  8 35  1  0
 10 36  1  0
 10 37  1  0
 11 38  1  0
 11 39  1  0
 13 40  1  0
 14 41  1  0
 15 42  1  0
 16 43  1  0
 17 44  1  0
 18 45  1  0
 18 46  1  0
 19 47  1  0
 19 48  1  0
 21 49  1  0
 22 50  1  0
 23 51  1  0
 24 52  1  0
 25 53  1  0
M  END
> <ID>
HT0865

> <Class>
1.0

> <Clusters>
218

> <Fold>
3

$$$$