
     RDKit          3D

 46 47  0  0  0  0  0  0  0  0999 V2000
   -6.5615   -0.1333    1.6761 C   0  0  0  0  0  0  0  0  0  0  0  0
   -5.9517    0.5864    0.4751 C   0  0  0  0  0  0  0  0  0  0  0  0
   -6.8548    0.4587   -0.7499 C   0  0  0  0  0  0  0  0  0  0  0  0
   -4.6802    0.0065    0.1799 O   0  0  0  0  0  0  0  0  0  0  0  0
   -3.4673    0.7083    0.2046 C   0  0  0  0  0  0  0  0  0  0  0  0
   -3.4415    1.9350    0.5007 O   0  0  0  0  0  0  0  0  0  0  0  0
   -2.1859   -0.0170   -0.1273 C   0  0  0  0  0  0  0  0  0  0  0  0
   -2.2874   -0.5723   -1.5588 C   0  0  0  0  0  0  0  0  0  0  0  0
   -1.9938   -1.1676    0.8763 C   0  0  0  0  0  0  0  0  0  0  0  0
   -1.0945    0.9122   -0.0317 O   0  0  0  0  0  0  0  0  0  0  0  0
    0.2434    0.5810   -0.2738 C   0  0  0  0  0  0  0  0  0  0  0  0
    0.7792    0.7154   -1.5594 C   0  0  0  0  0  0  0  0  0  0  0  0
    2.1185    0.3960   -1.8006 C   0  0  0  0  0  0  0  0  0  0  0  0
    2.9465   -0.0410   -0.7518 C   0  0  0  0  0  0  0  0  0  0  0  0
    2.4004   -0.1733    0.5382 C   0  0  0  0  0  0  0  0  0  0  0  0
    1.0607    0.1467    0.7756 C   0  0  0  0  0  0  0  0  0  0  0  0
    4.3610   -0.3953   -1.0228 C   0  0  0  0  0  0  0  0  0  0  0  0
    4.6615   -0.8797   -2.1482 O   0  0  0  0  0  0  0  0  0  0  0  0
    5.4349   -0.2010   -0.0184 C   0  0  0  0  0  0  0  0  0  0  0  0
    5.3959    0.8775    0.8850 C   0  0  0  0  0  0  0  0  0  0  0  0
    6.4238    1.0590    1.8151 C   0  0  0  0  0  0  0  0  0  0  0  0
    7.5057    0.1742    1.8471 C   0  0  0  0  0  0  0  0  0  0  0  0
    8.7946    0.4047    3.0143 Cl  0  0  0  0  0  0  0  0  0  0  0  0
    7.5621   -0.8905    0.9429 C   0  0  0  0  0  0  0  0  0  0  0  0
    6.5361   -1.0750    0.0111 C   0  0  0  0  0  0  0  0  0  0  0  0
   -5.8938   -0.0214    2.5565 H   0  0  0  0  0  0  0  0  0  0  0  0
   -7.5516    0.3042    1.9266 H   0  0  0  0  0  0  0  0  0  0  0  0
   -6.6855   -1.2159    1.4588 H   0  0  0  0  0  0  0  0  0  0  0  0
   -5.8577    1.6656    0.7271 H   0  0  0  0  0  0  0  0  0  0  0  0
   -7.8502    0.9072   -0.5442 H   0  0  0  0  0  0  0  0  0  0  0  0
   -6.3971    0.9949   -1.6082 H   0  0  0  0  0  0  0  0  0  0  0  0
   -6.9859   -0.6094   -1.0266 H   0  0  0  0  0  0  0  0  0  0  0  0
   -3.1649   -1.2470   -1.6611 H   0  0  0  0  0  0  0  0  0  0  0  0
   -1.3785   -1.1546   -1.8197 H   0  0  0  0  0  0  0  0  0  0  0  0
   -2.3939    0.2608   -2.2863 H   0  0  0  0  0  0  0  0  0  0  0  0
   -2.8614   -1.8621    0.8543 H   0  0  0  0  0  0  0  0  0  0  0  0
   -1.8885   -0.7641    1.9063 H   0  0  0  0  0  0  0  0  0  0  0  0
   -1.0826   -1.7537    0.6322 H   0  0  0  0  0  0  0  0  0  0  0  0
    0.1566    1.0656   -2.3727 H   0  0  0  0  0  0  0  0  0  0  0  0
    2.5118    0.5035   -2.8040 H   0  0  0  0  0  0  0  0  0  0  0  0
    3.0045   -0.5362    1.3601 H   0  0  0  0  0  0  0  0  0  0  0  0
    0.6553    0.0499    1.7746 H   0  0  0  0  0  0  0  0  0  0  0  0
    4.5797    1.5884    0.8624 H   0  0  0  0  0  0  0  0  0  0  0  0
    6.3810    1.8912    2.5062 H   0  0  0  0  0  0  0  0  0  0  0  0
    8.4003   -1.5753    0.9605 H   0  0  0  0  0  0  0  0  0  0  0  0
    6.5967   -1.9073   -0.6793 H   0  0  0  0  0  0  0  0  0  0  0  0
  1  2  1  0
  2  3  1  0
  2  4  1  0
  4  5  1  0
  5  6  2  0
  5  7  1  0
  7  8  1  0
  7  9  1  0
  7 10  1  0
 10 11  1  0
 11 12  2  0
 12 13  1  0
 13 14  2  0
 14 15  1  0
 15 16  2  0
 16 11  1  0
 14 17  1  0
 17 18  2  0
 17 19  1  0
 19 20  2  0
 20 21  1  0
 21 22  2  0
 22 23  1  0
 22 24  1  0
 24 25  2  0
 25 19  1  0
  1 26  1  0
  1 27  1  0
  1 28  1  0
  2 29  1  0
  3 30  1  0
  3 31  1  0
  3 32  1  0
  8 33  1  0
  8 34  1  0
  8 35  1  0
  9 36  1  0
  9 37  1  0
  9 38  1  0
 12 39  1  0
 13 40  1  0
 15 41  1  0
 16 42  1  0
 20 43  1  0
 21 44  1  0
 24 45  1  0
 25 46  1  0
M  END
> <ID>
HT0860

> <Class>
1.0

> <Clusters>
56

> <Fold>
3

$$$$