
     RDKit          3D

 40 41  0  0  0  0  0  0  0  0999 V2000
   -6.6692    0.4073   -0.7226 C   0  0  0  0  0  0  0  0  0  0  0  0
   -6.2933    0.6022    0.7424 C   0  0  0  0  0  0  0  0  0  0  0  0
   -4.9354    1.0214    0.8667 O   0  0  0  0  0  0  0  0  0  0  0  0
   -3.8428    0.1745    0.6499 C   0  0  0  0  0  0  0  0  0  0  0  0
   -4.0215   -1.0526    0.4155 O   0  0  0  0  0  0  0  0  0  0  0  0
   -2.5168    0.7104    0.7387 N   0  0  0  0  0  0  0  0  0  0  0  0
   -1.3377   -0.0306    0.3809 C   0  0  0  0  0  0  0  0  0  0  0  0
   -1.3147   -0.7823   -0.8051 C   0  0  0  0  0  0  0  0  0  0  0  0
   -0.1594   -1.4609   -1.1947 C   0  0  0  0  0  0  0  0  0  0  0  0
    1.0041   -1.3939   -0.4176 C   0  0  0  0  0  0  0  0  0  0  0  0
    2.1821   -2.0992   -0.8559 N   0  0  0  0  0  0  0  0  0  0  0  0
    3.5166   -1.9248   -0.2795 C   0  0  0  0  0  0  0  0  0  0  0  0
    4.0390   -0.5387   -0.5542 C   0  0  0  0  0  0  0  0  0  0  0  0
    4.1564   -0.0802   -1.8772 C   0  0  0  0  0  0  0  0  0  0  0  0
    4.6410    1.2052   -2.1378 C   0  0  0  0  0  0  0  0  0  0  0  0
    5.0180    2.0394   -1.0814 C   0  0  0  0  0  0  0  0  0  0  0  0
    5.4875    3.2856   -1.3357 F   0  0  0  0  0  0  0  0  0  0  0  0
    4.9140    1.5870    0.2371 C   0  0  0  0  0  0  0  0  0  0  0  0
    4.4303    0.3020    0.5018 C   0  0  0  0  0  0  0  0  0  0  0  0
    0.9855   -0.6438    0.7721 C   0  0  0  0  0  0  0  0  0  0  0  0
   -0.1725    0.0392    1.1757 C   0  0  0  0  0  0  0  0  0  0  0  0
   -0.1573    0.7659    2.4117 N   0  0  0  0  0  0  0  0  0  0  0  0
   -6.0723   -0.4131   -1.1723 H   0  0  0  0  0  0  0  0  0  0  0  0
   -7.7457    0.1467   -0.7998 H   0  0  0  0  0  0  0  0  0  0  0  0
   -6.4846    1.3447   -1.2888 H   0  0  0  0  0  0  0  0  0  0  0  0
   -6.9460    1.3904    1.1732 H   0  0  0  0  0  0  0  0  0  0  0  0
   -6.4619   -0.3361    1.3143 H   0  0  0  0  0  0  0  0  0  0  0  0
   -2.4116    1.6869    1.0936 H   0  0  0  0  0  0  0  0  0  0  0  0
   -2.1862   -0.8224   -1.4458 H   0  0  0  0  0  0  0  0  0  0  0  0
   -0.1667   -2.0287   -2.1167 H   0  0  0  0  0  0  0  0  0  0  0  0
    2.0951   -2.7599   -1.6616 H   0  0  0  0  0  0  0  0  0  0  0  0
    4.2125   -2.6573   -0.7428 H   0  0  0  0  0  0  0  0  0  0  0  0
    3.4892   -2.1514    0.8080 H   0  0  0  0  0  0  0  0  0  0  0  0
    3.8691   -0.7172   -2.7047 H   0  0  0  0  0  0  0  0  0  0  0  0
    4.7245    1.5535   -3.1592 H   0  0  0  0  0  0  0  0  0  0  0  0
    5.2093    2.2311    1.0554 H   0  0  0  0  0  0  0  0  0  0  0  0
    4.3596   -0.0343    1.5286 H   0  0  0  0  0  0  0  0  0  0  0  0
    1.8606   -0.5964    1.4034 H   0  0  0  0  0  0  0  0  0  0  0  0
    0.7232    0.8477    2.9677 H   0  0  0  0  0  0  0  0  0  0  0  0
   -1.0222    1.1826    2.8195 H   0  0  0  0  0  0  0  0  0  0  0  0
  1  2  1  0
  2  3  1  0
  3  4  1  0
  4  5  2  0
  4  6  1  0
  6  7  1  0
  7  8  2  0
  8  9  1  0
  9 10  2  0
 10 11  1  0
 11 12  1  0
 12 13  1  0
 13 14  2  0
 14 15  1  0
 15 16  2  0
 16 17  1  0
 16 18  1  0
 18 19  2  0
 19 13  1  0
 10 20  1  0
 20 21  2  0
 21  7  1  0
 21 22  1  0
  1 23  1  0
  1 24  1  0
  1 25  1  0
  2 26  1  0
  2 27  1  0
  6 28  1  0
  8 29  1  0
  9 30  1  0
 11 31  1  0
 12 32  1  0
 12 33  1  0
 14 34  1  0
 15 35  1  0
 18 36  1  0
 19 37  1  0
 20 38  1  0
 22 39  1  0
 22 40  1  0
M  END
> <ID>
HT0844

> <Class>
1.0

> <Clusters>
269

> <Fold>
3

$$$$