
     RDKit          3D

 76 79  0  0  0  0  0  0  0  0999 V2000
    9.3572   -0.0287    1.8993 C   0  0  0  0  0  0  0  0  0  0  0  0
    8.7561   -0.1491    0.4792 C   0  0  0  0  0  0  0  0  0  0  0  0
    8.9634   -1.6078    0.0130 C   0  0  0  0  0  0  0  0  0  0  0  0
    9.4895    0.8552   -0.4057 C   0  0  0  0  0  0  0  0  0  0  0  0
    9.3932    2.0835   -0.1397 O   0  0  0  0  0  0  0  0  0  0  0  0
   10.2540    0.4809   -1.5140 O   0  0  0  0  0  0  0  0  0  0  0  0
    7.2501    0.1627    0.4274 C   0  0  0  0  0  0  0  0  0  0  0  0
    6.4675    0.3747    1.5851 C   0  0  0  0  0  0  0  0  0  0  0  0
    5.0995    0.6423    1.4854 C   0  0  0  0  0  0  0  0  0  0  0  0
    4.4736    0.7095    0.2317 C   0  0  0  0  0  0  0  0  0  0  0  0
    5.2364    0.4843   -0.9217 C   0  0  0  0  0  0  0  0  0  0  0  0
    6.6037    0.2179   -0.8258 C   0  0  0  0  0  0  0  0  0  0  0  0
    2.9848    0.9604    0.1234 C   0  0  0  0  0  0  0  0  0  0  0  0
    2.6104    2.0183    0.9693 O   0  0  0  0  0  0  0  0  0  0  0  0
    2.2104   -0.3137    0.5094 C   0  0  0  0  0  0  0  0  0  0  0  0
    0.6887   -0.1848    0.3137 C   0  0  0  0  0  0  0  0  0  0  0  0
    0.2774   -0.3113   -1.1718 C   0  0  0  0  0  0  0  0  0  0  0  0
   -1.1833   -0.2681   -1.4084 N   0  0  0  0  0  0  0  0  0  0  0  0
   -1.9141   -1.3749   -0.7723 C   0  0  0  0  0  0  0  0  0  0  0  0
   -3.3199   -1.4502   -1.3657 C   0  0  0  0  0  0  0  0  0  0  0  0
   -4.1196   -0.1255   -1.2005 C   0  0  0  0  0  0  0  0  0  0  0  0
   -3.2356    1.0963   -1.5952 C   0  0  0  0  0  0  0  0  0  0  0  0
   -1.7921    1.0277   -1.0672 C   0  0  0  0  0  0  0  0  0  0  0  0
   -4.8553    0.0283    0.1930 C   0  0  0  0  0  0  0  0  0  0  0  0
   -3.8728    0.1756    1.1973 O   0  0  0  0  0  0  0  0  0  0  0  0
   -5.8451    1.2147    0.2753 C   0  0  0  0  0  0  0  0  0  0  0  0
   -6.3574    1.8889   -0.8591 C   0  0  0  0  0  0  0  0  0  0  0  0
   -7.2841    2.9259   -0.7151 C   0  0  0  0  0  0  0  0  0  0  0  0
   -7.7312    3.2992    0.5522 C   0  0  0  0  0  0  0  0  0  0  0  0
   -7.2577    2.6321    1.6812 C   0  0  0  0  0  0  0  0  0  0  0  0
   -6.3302    1.5962    1.5457 C   0  0  0  0  0  0  0  0  0  0  0  0
   -5.6828   -1.2323    0.4801 C   0  0  0  0  0  0  0  0  0  0  0  0
   -6.7585   -1.5812   -0.3654 C   0  0  0  0  0  0  0  0  0  0  0  0
   -7.5162   -2.7294   -0.1217 C   0  0  0  0  0  0  0  0  0  0  0  0
   -7.2183   -3.5468    0.9690 C   0  0  0  0  0  0  0  0  0  0  0  0
   -6.1610   -3.2185    1.8179 C   0  0  0  0  0  0  0  0  0  0  0  0
   -5.3979   -2.0717    1.5809 C   0  0  0  0  0  0  0  0  0  0  0  0
   10.4558   -0.1984    1.8709 H   0  0  0  0  0  0  0  0  0  0  0  0
    9.1813    0.9841    2.3226 H   0  0  0  0  0  0  0  0  0  0  0  0
    8.9208   -0.7866    2.5847 H   0  0  0  0  0  0  0  0  0  0  0  0
   10.0376   -1.8907    0.0568 H   0  0  0  0  0  0  0  0  0  0  0  0
    8.4010   -2.3054    0.6711 H   0  0  0  0  0  0  0  0  0  0  0  0
    8.5985   -1.7599   -1.0248 H   0  0  0  0  0  0  0  0  0  0  0  0
   10.3878   -0.4770   -1.8063 H   0  0  0  0  0  0  0  0  0  0  0  0
    6.8928    0.3318    2.5765 H   0  0  0  0  0  0  0  0  0  0  0  0
    4.5251    0.7930    2.3910 H   0  0  0  0  0  0  0  0  0  0  0  0
    4.7736    0.5125   -1.9000 H   0  0  0  0  0  0  0  0  0  0  0  0
    7.1625    0.0540   -1.7383 H   0  0  0  0  0  0  0  0  0  0  0  0
    2.7342    1.2303   -0.9274 H   0  0  0  0  0  0  0  0  0  0  0  0
    2.9450    2.8535    0.5476 H   0  0  0  0  0  0  0  0  0  0  0  0
    2.5888   -1.1793   -0.0784 H   0  0  0  0  0  0  0  0  0  0  0  0
    2.4045   -0.5376    1.5816 H   0  0  0  0  0  0  0  0  0  0  0  0
    0.2145   -1.0018    0.8961 H   0  0  0  0  0  0  0  0  0  0  0  0
    0.3420    0.7798    0.7382 H   0  0  0  0  0  0  0  0  0  0  0  0
    0.6770   -1.2656   -1.5801 H   0  0  0  0  0  0  0  0  0  0  0  0
    0.7548    0.4977   -1.7632 H   0  0  0  0  0  0  0  0  0  0  0  0
   -1.3997   -2.3398   -0.9770 H   0  0  0  0  0  0  0  0  0  0  0  0
   -1.9755   -1.2452    0.3290 H   0  0  0  0  0  0  0  0  0  0  0  0
   -3.8551   -2.3198   -0.9336 H   0  0  0  0  0  0  0  0  0  0  0  0
   -3.2164   -1.6644   -2.4532 H   0  0  0  0  0  0  0  0  0  0  0  0
   -4.9111   -0.2007   -1.9747 H   0  0  0  0  0  0  0  0  0  0  0  0
   -3.1862    1.1455   -2.7056 H   0  0  0  0  0  0  0  0  0  0  0  0
   -3.6895    2.0490   -1.2539 H   0  0  0  0  0  0  0  0  0  0  0  0
   -1.2156    1.8519   -1.5420 H   0  0  0  0  0  0  0  0  0  0  0  0
   -1.7699    1.2009    0.0260 H   0  0  0  0  0  0  0  0  0  0  0  0
   -3.6095    1.1312    1.2511 H   0  0  0  0  0  0  0  0  0  0  0  0
   -6.0594    1.6310   -1.8632 H   0  0  0  0  0  0  0  0  0  0  0  0
   -7.6613    3.4380   -1.5912 H   0  0  0  0  0  0  0  0  0  0  0  0
   -8.4503    4.1009    0.6585 H   0  0  0  0  0  0  0  0  0  0  0  0
   -7.6145    2.9135    2.6638 H   0  0  0  0  0  0  0  0  0  0  0  0
   -5.9915    1.0830    2.4375 H   0  0  0  0  0  0  0  0  0  0  0  0
   -7.0157   -0.9617   -1.2148 H   0  0  0  0  0  0  0  0  0  0  0  0
   -8.3370   -2.9846   -0.7792 H   0  0  0  0  0  0  0  0  0  0  0  0
   -7.8062   -4.4360    1.1554 H   0  0  0  0  0  0  0  0  0  0  0  0
   -5.9312   -3.8546    2.6634 H   0  0  0  0  0  0  0  0  0  0  0  0
   -4.5849   -1.8531    2.2600 H   0  0  0  0  0  0  0  0  0  0  0  0
  1  2  1  0
  2  3  1  0
  2  4  1  0
  4  5  2  0
  4  6  1  0
  2  7  1  0
  7  8  2  0
  8  9  1  0
  9 10  2  0
 10 11  1  0
 11 12  2  0
 12  7  1  0
 10 13  1  0
 13 14  1  0
 13 15  1  0
 15 16  1  0
 16 17  1  0
 17 18  1  0
 18 19  1  0
 19 20  1  0
 20 21  1  0
 21 22  1  0
 22 23  1  0
 23 18  1  0
 21 24  1  0
 24 25  1  0
 24 26  1  0
 26 27  2  0
 27 28  1  0
 28 29  2  0
 29 30  1  0
 30 31  2  0
 31 26  1  0
 24 32  1  0
 32 33  2  0
 33 34  1  0
 34 35  2  0
 35 36  1  0
 36 37  2  0
 37 32  1  0
  1 38  1  0
  1 39  1  0
  1 40  1  0
  3 41  1  0
  3 42  1  0
  3 43  1  0
  6 44  1  0
  8 45  1  0
  9 46  1  0
 11 47  1  0
 12 48  1  0
 13 49  1  0
 14 50  1  0
 15 51  1  0
 15 52  1  0
 16 53  1  0
 16 54  1  0
 17 55  1  0
 17 56  1  0
 19 57  1  0
 19 58  1  0
 20 59  1  0
 20 60  1  0
 21 61  1  0
 22 62  1  0
 22 63  1  0
 23 64  1  0
 23 65  1  0
 25 66  1  0
 27 67  1  0
 28 68  1  0
 29 69  1  0
 30 70  1  0
 31 71  1  0
 33 72  1  0
 34 73  1  0
 35 74  1  0
 36 75  1  0
 37 76  1  0
M  END
> <ID>
HT0871

> <Class>
1.0

> <Clusters>
103

> <Fold>
3

$$$$