
     RDKit          3D

 47 50  0  0  0  0  0  0  0  0999 V2000
    3.4631   -4.3040   -2.2065 C   0  0  0  0  0  0  0  0  0  0  0  0
    3.6165   -2.9973   -1.4994 C   0  0  0  0  0  0  0  0  0  0  0  0
    4.7443   -2.5734   -0.9775 O   0  0  0  0  0  0  0  0  0  0  0  0
    4.5962   -1.4104   -0.4119 N   0  0  0  0  0  0  0  0  0  0  0  0
    3.3057   -1.0541   -0.5668 C   0  0  0  0  0  0  0  0  0  0  0  0
    2.6339   -2.0524   -1.2609 C   0  0  0  0  0  0  0  0  0  0  0  0
    1.1995   -2.1346   -1.6157 C   0  0  0  0  0  0  0  0  0  0  0  0
    0.8490   -2.8106   -2.6201 O   0  0  0  0  0  0  0  0  0  0  0  0
    0.2065   -1.4807   -0.8117 N   0  0  0  0  0  0  0  0  0  0  0  0
   -1.1553   -1.2441   -1.3050 C   0  0  1  0  0  0  0  0  0  0  0  0
   -2.1537   -0.9700   -0.2887 C   0  0  1  0  0  0  0  0  0  0  0  0
   -1.7002   -0.9957    1.4814 S   0  0  0  0  0  0  0  0  0  0  0  0
   -2.4176    0.6941    1.7411 C   0  0  0  0  0  0  0  0  0  0  0  0
   -3.8700    0.5023    2.2239 C   0  0  0  0  0  0  0  0  0  0  0  0
   -1.6049    1.4139    2.8271 C   0  0  0  0  0  0  0  0  0  0  0  0
   -2.3218    1.4571    0.3800 C   0  0  1  0  0  0  0  0  0  0  0  0
   -2.2328    0.4199   -0.6169 N   0  0  0  0  0  0  0  0  0  0  0  0
   -1.3124    0.1748   -1.7509 C   0  0  0  0  0  0  0  0  0  0  0  0
   -0.8233    0.8822   -2.6695 O   0  0  0  0  0  0  0  0  0  0  0  0
   -3.4600    2.3954    0.0830 C   0  0  0  0  0  0  0  0  0  0  0  0
   -3.5698    3.4694    0.7329 O   0  0  0  0  0  0  0  0  0  0  0  0
   -4.3925    2.0859   -0.9036 O   0  0  0  0  0  0  0  0  0  0  0  0
    2.7692    0.2490   -0.1270 C   0  0  0  0  0  0  0  0  0  0  0  0
    2.1717    1.1115   -1.0649 C   0  0  0  0  0  0  0  0  0  0  0  0
    2.1358    0.7815   -2.3810 F   0  0  0  0  0  0  0  0  0  0  0  0
    1.6183    2.3265   -0.6515 C   0  0  0  0  0  0  0  0  0  0  0  0
    1.6646    2.6966    0.6932 C   0  0  0  0  0  0  0  0  0  0  0  0
    2.2704    1.8561    1.6294 C   0  0  0  0  0  0  0  0  0  0  0  0
    2.8252    0.6348    1.2286 C   0  0  0  0  0  0  0  0  0  0  0  0
    3.5276   -0.4115    2.4577 Cl  0  0  0  0  0  0  0  0  0  0  0  0
    2.6960   -4.9202   -1.6929 H   0  0  0  0  0  0  0  0  0  0  0  0
    4.4283   -4.8522   -2.2023 H   0  0  0  0  0  0  0  0  0  0  0  0
    3.1557   -4.1282   -3.2582 H   0  0  0  0  0  0  0  0  0  0  0  0
    0.5220   -1.0210    0.0686 H   0  0  0  0  0  0  0  0  0  0  0  0
   -1.4917   -1.9761   -2.0713 H   0  0  0  0  0  0  0  0  0  0  0  0
   -3.1276   -1.4734   -0.4795 H   0  0  0  0  0  0  0  0  0  0  0  0
   -4.3324    1.4747    2.4966 H   0  0  0  0  0  0  0  0  0  0  0  0
   -4.4833    0.0236    1.4308 H   0  0  0  0  0  0  0  0  0  0  0  0
   -3.8956   -0.1500    3.1232 H   0  0  0  0  0  0  0  0  0  0  0  0
   -1.9925    2.4432    2.9838 H   0  0  0  0  0  0  0  0  0  0  0  0
   -0.5364    1.4786    2.5321 H   0  0  0  0  0  0  0  0  0  0  0  0
   -1.6638    0.8610    3.7891 H   0  0  0  0  0  0  0  0  0  0  0  0
   -1.3793    2.0463    0.3303 H   0  0  0  0  0  0  0  0  0  0  0  0
   -5.1619    2.7128   -1.1063 H   0  0  0  0  0  0  0  0  0  0  0  0
    1.1521    2.9830   -1.3749 H   0  0  0  0  0  0  0  0  0  0  0  0
    1.2300    3.6355    1.0108 H   0  0  0  0  0  0  0  0  0  0  0  0
    2.2973    2.1502    2.6710 H   0  0  0  0  0  0  0  0  0  0  0  0
  1  2  1  0
  2  3  1  0
  3  4  1  0
  4  5  2  0
  5  6  1  0
  6  2  2  0
  6  7  1  0
  7  8  2  0
  7  9  1  0
 10  9  1  0
 10 11  1  0
 11 12  1  0
 12 13  1  0
 13 14  1  0
 13 15  1  0
 13 16  1  0
 16 17  1  0
 17 11  1  0
 17 18  1  0
 18 10  1  0
 18 19  2  0
 16 20  1  0
 20 21  2  0
 20 22  1  0
  5 23  1  0
 23 24  2  0
 24 25  1  0
 24 26  1  0
 26 27  2  0
 27 28  1  0
 28 29  2  0
 29 23  1  0
 29 30  1  0
  1 31  1  0
  1 32  1  0
  1 33  1  0
  9 34  1  0
 10 35  1  6
 11 36  1  1
 14 37  1  0
 14 38  1  0
 14 39  1  0
 15 40  1  0
 15 41  1  0
 15 42  1  0
 16 43  1  1
 22 44  1  0
 26 45  1  0
 27 46  1  0
 28 47  1  0
M  END
> <ID>
HT0888

> <Class>
1.0

> <Clusters>
62

> <Fold>
3

$$$$