
     RDKit          3D

118120  0  0  0  0  0  0  0  0999 V2000
   -6.5962    0.2576    0.4971 C   0  0  0  0  0  0  0  0  0  0  0  0
   -5.4856    0.6573    1.4731 C   0  0  0  0  0  0  0  0  0  0  0  0
   -4.3195    1.4401    0.8149 C   0  0  1  0  0  0  0  0  0  0  0  0
   -3.7641    0.5949   -0.2128 O   0  0  0  0  0  0  0  0  0  0  0  0
   -2.4166    0.2435   -0.3778 C   0  0  0  0  0  0  0  0  0  0  0  0
   -1.8759    0.6434   -1.4397 O   0  0  0  0  0  0  0  0  0  0  0  0
   -1.7772   -0.8676    0.4592 C   0  0  2  0  0  0  0  0  0  0  0  0
   -2.0521   -0.7253    1.9683 C   0  0  0  0  0  0  0  0  0  0  0  0
   -0.2933   -1.4094    0.1533 C   0  0  1  0  0  0  0  0  0  0  0  0
   -0.4426   -2.6633   -0.5214 O   0  0  0  0  0  0  0  0  0  0  0  0
   -0.7028   -3.7428    0.3654 C   0  0  1  0  0  0  0  0  0  0  0  0
   -1.8079   -4.6098   -0.2374 C   0  0  0  0  0  0  0  0  0  0  0  0
   -2.1879   -5.7873    0.7051 C   0  0  1  0  0  0  0  0  0  0  0  0
   -2.9572   -5.2855    1.9611 C   0  0  0  0  0  0  0  0  0  0  0  0
   -2.9847   -6.7704    0.0368 O   0  0  0  0  0  0  0  0  0  0  0  0
   -4.1132   -6.2447   -0.6393 C   0  0  0  0  0  0  0  0  0  0  0  0
   -0.8675   -6.5048    1.1480 C   0  0  1  0  0  0  0  0  0  0  0  0
   -0.4897   -7.4661    0.1857 O   0  0  0  0  0  0  0  0  0  0  0  0
    0.3499   -5.5578    1.4349 C   0  0  2  0  0  0  0  0  0  0  0  0
    0.4818   -5.0707    2.8882 C   0  0  0  0  0  0  0  0  0  0  0  0
    0.4900   -4.4876    0.5147 O   0  0  0  0  0  0  0  0  0  0  0  0
    0.7594   -0.4962   -0.6320 C   0  0  2  0  0  0  0  0  0  0  0  0
    1.4862   -1.3414   -1.7122 C   0  0  0  0  0  0  0  0  0  0  0  0
    1.8641    0.2668    0.2063 C   0  0  1  0  0  0  0  0  0  0  0  0
    2.6069    1.0502   -0.7298 O   0  0  0  0  0  0  0  0  0  0  0  0
    4.0095    1.1285   -0.4988 C   0  0  2  0  0  0  0  0  0  0  0  0
    4.3832    2.5044   -0.3876 O   0  0  0  0  0  0  0  0  0  0  0  0
    4.5868    3.1764   -1.6280 C   0  0  2  0  0  0  0  0  0  0  0  0
    3.2829    3.3220   -2.4383 C   0  0  0  0  0  0  0  0  0  0  0  0
    5.7459    2.5496   -2.4496 C   0  0  0  0  0  0  0  0  0  0  0  0
    6.1128    1.1452   -1.9155 C   0  0  1  0  0  0  0  0  0  0  0  0
    4.8053    0.3767   -1.6048 C   0  0  1  0  0  0  0  0  0  0  0  0
    5.0628   -0.9533   -1.2258 O   0  0  0  0  0  0  0  0  0  0  0  0
    7.0538    0.3758   -2.7754 N   0  0  0  0  0  0  0  0  0  0  0  0
    6.5393    0.0260   -4.1085 C   0  0  0  0  0  0  0  0  0  0  0  0
    8.3563    1.0534   -2.9118 C   0  0  0  0  0  0  0  0  0  0  0  0
    1.3476    1.2190    1.3623 C   0  0  2  0  0  0  0  0  0  0  0  0
    2.5543    1.7232    2.2015 C   0  0  0  0  0  0  0  0  0  0  0  0
    0.5075    0.5101    2.2264 O   0  0  0  0  0  0  0  0  0  0  0  0
    0.5763    2.4485    0.7752 C   0  0  0  0  0  0  0  0  0  0  0  0
   -0.4939    3.1120    1.6831 C   0  0  1  0  0  0  0  0  0  0  0  0
    0.0483    3.6306    3.0270 C   0  0  0  0  0  0  0  0  0  0  0  0
   -1.1949    4.2225    0.9207 C   0  0  0  0  0  0  0  0  0  0  0  0
   -0.8946    5.3947    1.1205 O   0  0  0  0  0  0  0  0  0  0  0  0
   -2.3028    3.8962   -0.0559 C   0  0  2  0  0  0  0  0  0  0  0  0
   -2.1708    4.7715   -1.3201 C   0  0  0  0  0  0  0  0  0  0  0  0
   -3.6939    3.9922    0.6428 C   0  0  1  0  0  0  0  0  0  0  0  0
   -4.2560    5.2619    0.4208 O   0  0  0  0  0  0  0  0  0  0  0  0
   -4.7462    2.8807    0.2618 C   0  0  1  0  0  0  0  0  0  0  0  0
   -4.9721    2.8371   -1.2668 C   0  0  0  0  0  0  0  0  0  0  0  0
   -5.9833    3.2732    0.8230 O   0  0  0  0  0  0  0  0  0  0  0  0
   -6.1866   -0.2751   -0.3821 H   0  0  0  0  0  0  0  0  0  0  0  0
   -7.1741    1.1307    0.1503 H   0  0  0  0  0  0  0  0  0  0  0  0
   -7.3107   -0.4231    1.0003 H   0  0  0  0  0  0  0  0  0  0  0  0
   -5.1083   -0.2828    1.9142 H   0  0  0  0  0  0  0  0  0  0  0  0
   -5.9317    1.2158    2.3204 H   0  0  0  0  0  0  0  0  0  0  0  0
   -3.5756    1.5887    1.6209 H   0  0  0  0  0  0  0  0  0  0  0  0
   -2.4531   -1.7061    0.1877 H   0  0  0  0  0  0  0  0  0  0  0  0
   -1.8730    0.2904    2.3376 H   0  0  0  0  0  0  0  0  0  0  0  0
   -1.4380   -1.4188    2.5705 H   0  0  0  0  0  0  0  0  0  0  0  0
   -3.0945   -0.9913    2.2067 H   0  0  0  0  0  0  0  0  0  0  0  0
    0.2310   -1.6021    1.1108 H   0  0  0  0  0  0  0  0  0  0  0  0
   -1.0648   -3.3865    1.3441 H   0  0  0  0  0  0  0  0  0  0  0  0
   -1.4512   -5.0033   -1.2146 H   0  0  0  0  0  0  0  0  0  0  0  0
   -2.6881   -3.9632   -0.4441 H   0  0  0  0  0  0  0  0  0  0  0  0
   -3.7172   -4.5109    1.7054 H   0  0  0  0  0  0  0  0  0  0  0  0
   -3.4852   -6.1421    2.4410 H   0  0  0  0  0  0  0  0  0  0  0  0
   -2.2925   -4.8385    2.7214 H   0  0  0  0  0  0  0  0  0  0  0  0
   -4.6666   -5.4940   -0.0461 H   0  0  0  0  0  0  0  0  0  0  0  0
   -4.8117   -7.0806   -0.8377 H   0  0  0  0  0  0  0  0  0  0  0  0
   -3.8203   -5.8245   -1.6155 H   0  0  0  0  0  0  0  0  0  0  0  0
   -1.0786   -7.0701    2.0871 H   0  0  0  0  0  0  0  0  0  0  0  0
   -0.2134   -6.9776   -0.6360 H   0  0  0  0  0  0  0  0  0  0  0  0
    1.2552   -6.1917    1.2976 H   0  0  0  0  0  0  0  0  0  0  0  0
    0.3433   -5.9052    3.5957 H   0  0  0  0  0  0  0  0  0  0  0  0
    1.4921   -4.6453    3.0507 H   0  0  0  0  0  0  0  0  0  0  0  0
   -0.2280   -4.2747    3.1544 H   0  0  0  0  0  0  0  0  0  0  0  0
    0.2668    0.2709   -1.2243 H   0  0  0  0  0  0  0  0  0  0  0  0
    2.1783   -0.7297   -2.3220 H   0  0  0  0  0  0  0  0  0  0  0  0
    2.0594   -2.1662   -1.2337 H   0  0  0  0  0  0  0  0  0  0  0  0
    0.7496   -1.7681   -2.4304 H   0  0  0  0  0  0  0  0  0  0  0  0
    2.4929   -0.5289    0.6580 H   0  0  0  0  0  0  0  0  0  0  0  0
    4.3098    0.6691    0.4666 H   0  0  0  0  0  0  0  0  0  0  0  0
    4.8955    4.2208   -1.3701 H   0  0  0  0  0  0  0  0  0  0  0  0
    3.4351    4.0635   -3.2602 H   0  0  0  0  0  0  0  0  0  0  0  0
    2.4674    3.6885   -1.7725 H   0  0  0  0  0  0  0  0  0  0  0  0
    2.9725    2.3542   -2.8886 H   0  0  0  0  0  0  0  0  0  0  0  0
    6.6423    3.2091   -2.3863 H   0  0  0  0  0  0  0  0  0  0  0  0
    5.4643    2.4973   -3.5194 H   0  0  0  0  0  0  0  0  0  0  0  0
    6.6244    1.3022   -0.9418 H   0  0  0  0  0  0  0  0  0  0  0  0
    4.1944    0.3594   -2.5312 H   0  0  0  0  0  0  0  0  0  0  0  0
    5.7134   -0.9285   -0.4780 H   0  0  0  0  0  0  0  0  0  0  0  0
    5.5971   -0.5365   -4.0397 H   0  0  0  0  0  0  0  0  0  0  0  0
    6.3893    0.9137   -4.7593 H   0  0  0  0  0  0  0  0  0  0  0  0
    7.2521   -0.6444   -4.6254 H   0  0  0  0  0  0  0  0  0  0  0  0
    8.2893    1.9381   -3.5845 H   0  0  0  0  0  0  0  0  0  0  0  0
    8.7346    1.3731   -1.9206 H   0  0  0  0  0  0  0  0  0  0  0  0
    9.1077    0.3458   -3.3372 H   0  0  0  0  0  0  0  0  0  0  0  0
    3.1000    2.5418    1.6976 H   0  0  0  0  0  0  0  0  0  0  0  0
    3.2633    0.8975    2.4202 H   0  0  0  0  0  0  0  0  0  0  0  0
    2.2429    2.1091    3.1903 H   0  0  0  0  0  0  0  0  0  0  0  0
    1.0523   -0.1834    2.6812 H   0  0  0  0  0  0  0  0  0  0  0  0
    1.2928    3.2217    0.4376 H   0  0  0  0  0  0  0  0  0  0  0  0
    0.0494    2.1330   -0.1412 H   0  0  0  0  0  0  0  0  0  0  0  0
   -1.2706    2.3620    1.9211 H   0  0  0  0  0  0  0  0  0  0  0  0
   -0.7044    4.3004    3.5086 H   0  0  0  0  0  0  0  0  0  0  0  0
    0.2081    2.7806    3.7287 H   0  0  0  0  0  0  0  0  0  0  0  0
    0.9916    4.2039    2.8767 H   0  0  0  0  0  0  0  0  0  0  0  0
   -2.1533    2.8640   -0.3804 H   0  0  0  0  0  0  0  0  0  0  0  0
   -1.1450    4.6682   -1.7430 H   0  0  0  0  0  0  0  0  0  0  0  0
   -2.3402    5.8434   -1.0867 H   0  0  0  0  0  0  0  0  0  0  0  0
   -2.8871    4.4620   -2.1057 H   0  0  0  0  0  0  0  0  0  0  0  0
   -3.5367    3.8730    1.7459 H   0  0  0  0  0  0  0  0  0  0  0  0
   -3.8708    5.8763    1.0978 H   0  0  0  0  0  0  0  0  0  0  0  0
   -5.7828    2.1288   -1.5250 H   0  0  0  0  0  0  0  0  0  0  0  0
   -5.2631    3.8331   -1.6343 H   0  0  0  0  0  0  0  0  0  0  0  0
   -4.0597    2.5091   -1.8059 H   0  0  0  0  0  0  0  0  0  0  0  0
   -5.8497    3.4521    1.7888 H   0  0  0  0  0  0  0  0  0  0  0  0
  1  2  1  0
  3  2  1  0
  3  4  1  0
  4  5  1  0
  5  6  2  0
  5  7  1  0
  7  8  1  0
  7  9  1  0
  9 10  1  0
 11 10  1  0
 11 12  1  0
 12 13  1  0
 13 14  1  0
 13 15  1  6
 15 16  1  0
 13 17  1  0
 17 18  1  0
 17 19  1  0
 19 20  1  0
 19 21  1  0
 21 11  1  0
  9 22  1  0
 22 23  1  0
 22 24  1  0
 24 25  1  0
 26 25  1  0
 26 27  1  0
 27 28  1  0
 28 29  1  0
 28 30  1  0
 30 31  1  0
 31 32  1  0
 32 26  1  0
 32 33  1  0
 31 34  1  0
 34 35  1  0
 34 36  1  0
 24 37  1  0
 37 38  1  0
 37 39  1  1
 37 40  1  0
 40 41  1  0
 41 42  1  0
 41 43  1  0
 43 44  2  0
 43 45  1  0
 45 46  1  0
 45 47  1  0
 47 48  1  0
 47 49  1  0
 49  3  1  0
 49 50  1  0
 49 51  1  1
  1 52  1  0
  1 53  1  0
  1 54  1  0
  2 55  1  0
  2 56  1  0
  3 57  1  1
  7 58  1  6
  8 59  1  0
  8 60  1  0
  8 61  1  0
  9 62  1  1
 11 63  1  1
 12 64  1  0
 12 65  1  0
 14 66  1  0
 14 67  1  0
 14 68  1  0
 16 69  1  0
 16 70  1  0
 16 71  1  0
 17 72  1  1
 18 73  1  0
 19 74  1  6
 20 75  1  0
 20 76  1  0
 20 77  1  0
 22 78  1  6
 23 79  1  0
 23 80  1  0
 23 81  1  0
 24 82  1  1
 26 83  1  1
 28 84  1  1
 29 85  1  0
 29 86  1  0
 29 87  1  0
 30 88  1  0
 30 89  1  0
 31 90  1  1
 32 91  1  6
 33 92  1  0
 35 93  1  0
 35 94  1  0
 35 95  1  0
 36 96  1  0
 36 97  1  0
 36 98  1  0
 38 99  1  0
 38100  1  0
 38101  1  0
 39102  1  0
 40103  1  0
 40104  1  0
 41105  1  1
 42106  1  0
 42107  1  0
 42108  1  0
 45109  1  6
 46110  1  0
 46111  1  0
 46112  1  0
 47113  1  1
 48114  1  0
 50115  1  0
 50116  1  0
 50117  1  0
 51118  1  0
M  END
> <ID>
HT0785

> <Class>
1.0

> <Clusters>
95

> <Fold>
3

$$$$