
     RDKit          3D

 52 54  0  0  0  0  0  0  0  0999 V2000
   -4.6728    3.3528   -0.5632 C   0  0  0  0  0  0  0  0  0  0  0  0
   -5.3479    2.9849    0.6187 O   0  0  0  0  0  0  0  0  0  0  0  0
   -4.5086    3.1540    1.7474 C   0  0  0  0  0  0  0  0  0  0  0  0
   -4.3014    1.8062    2.4396 C   0  0  0  0  0  0  0  0  0  0  0  0
   -3.6867    0.8649    1.5585 O   0  0  0  0  0  0  0  0  0  0  0  0
   -2.3544    0.9065    1.1126 C   0  0  0  0  0  0  0  0  0  0  0  0
   -1.3956    1.7615    1.6879 C   0  0  0  0  0  0  0  0  0  0  0  0
   -0.0800    1.7683    1.2180 C   0  0  0  0  0  0  0  0  0  0  0  0
    0.8422    2.5745    1.8047 N   0  0  0  0  0  0  0  0  0  0  0  0
    2.1299    2.5896    1.3789 C   0  0  0  0  0  0  0  0  0  0  0  0
    2.5161    1.7958    0.3485 N   0  0  0  0  0  0  0  0  0  0  0  0
    1.6388    0.9673   -0.2810 C   0  0  0  0  0  0  0  0  0  0  0  0
    2.0934    0.1735   -1.3893 N   0  0  0  0  0  0  0  0  0  0  0  0
    3.3809   -0.4659   -1.4277 C   0  0  0  0  0  0  0  0  0  0  0  0
    3.9522   -0.7929   -2.6673 C   0  0  0  0  0  0  0  0  0  0  0  0
    5.1918   -1.4356   -2.7284 C   0  0  0  0  0  0  0  0  0  0  0  0
    5.8674   -1.7697   -1.5524 C   0  0  0  0  0  0  0  0  0  0  0  0
    5.3006   -1.4662   -0.3088 C   0  0  0  0  0  0  0  0  0  0  0  0
    4.0582   -0.8211   -0.2455 C   0  0  0  0  0  0  0  0  0  0  0  0
    5.9897   -1.8239    0.9036 C   0  0  0  0  0  0  0  0  0  0  0  0
    6.5665   -2.1229    1.9192 C   0  0  0  0  0  0  0  0  0  0  0  0
    0.2944    0.9328    0.1465 C   0  0  0  0  0  0  0  0  0  0  0  0
   -0.6628    0.0774   -0.4245 C   0  0  0  0  0  0  0  0  0  0  0  0
   -1.9819    0.0464    0.0677 C   0  0  0  0  0  0  0  0  0  0  0  0
   -2.9624   -0.8150   -0.4567 O   0  0  0  0  0  0  0  0  0  0  0  0
   -2.7387   -1.9037   -1.3561 C   0  0  0  0  0  0  0  0  0  0  0  0
   -2.2185   -3.1392   -0.6126 C   0  0  0  0  0  0  0  0  0  0  0  0
   -0.9380   -2.9032   -0.0580 O   0  0  0  0  0  0  0  0  0  0  0  0
    0.0697   -3.3988   -0.9124 C   0  0  0  0  0  0  0  0  0  0  0  0
   -4.4008    4.4314   -0.5450 H   0  0  0  0  0  0  0  0  0  0  0  0
   -3.7684    2.7244   -0.7208 H   0  0  0  0  0  0  0  0  0  0  0  0
   -5.3515    3.1891   -1.4252 H   0  0  0  0  0  0  0  0  0  0  0  0
   -5.0223    3.8336    2.4599 H   0  0  0  0  0  0  0  0  0  0  0  0
   -3.5192    3.6210    1.5282 H   0  0  0  0  0  0  0  0  0  0  0  0
   -3.7051    1.9230    3.3690 H   0  0  0  0  0  0  0  0  0  0  0  0
   -5.2943    1.4069    2.7363 H   0  0  0  0  0  0  0  0  0  0  0  0
   -1.6540    2.4118    2.5118 H   0  0  0  0  0  0  0  0  0  0  0  0
    2.8497    3.2376    1.8597 H   0  0  0  0  0  0  0  0  0  0  0  0
    1.4985    0.1365   -2.2473 H   0  0  0  0  0  0  0  0  0  0  0  0
    3.4386   -0.5431   -3.5873 H   0  0  0  0  0  0  0  0  0  0  0  0
    5.6280   -1.6772   -3.6890 H   0  0  0  0  0  0  0  0  0  0  0  0
    6.8269   -2.2693   -1.6121 H   0  0  0  0  0  0  0  0  0  0  0  0
    3.6152   -0.6157    0.7212 H   0  0  0  0  0  0  0  0  0  0  0  0
    7.0730   -2.3848    2.8107 H   0  0  0  0  0  0  0  0  0  0  0  0
   -0.3803   -0.5696   -1.2368 H   0  0  0  0  0  0  0  0  0  0  0  0
   -3.7157   -2.1701   -1.8116 H   0  0  0  0  0  0  0  0  0  0  0  0
   -2.0722   -1.6134   -2.1936 H   0  0  0  0  0  0  0  0  0  0  0  0
   -2.9175   -3.3622    0.2213 H   0  0  0  0  0  0  0  0  0  0  0  0
   -2.2534   -4.0269   -1.2888 H   0  0  0  0  0  0  0  0  0  0  0  0
   -0.0265   -2.9907   -1.9432 H   0  0  0  0  0  0  0  0  0  0  0  0
    0.0528   -4.5103   -0.9338 H   0  0  0  0  0  0  0  0  0  0  0  0
    1.0565   -3.0804   -0.5175 H   0  0  0  0  0  0  0  0  0  0  0  0
  1  2  1  0
  2  3  1  0
  3  4  1  0
  4  5  1  0
  5  6  1  0
  6  7  2  0
  7  8  1  0
  8  9  2  0
  9 10  1  0
 10 11  2  0
 11 12  1  0
 12 13  1  0
 13 14  1  0
 14 15  2  0
 15 16  1  0
 16 17  2  0
 17 18  1  0
 18 19  2  0
 19 14  1  0
 18 20  1  0
 20 21  3  0
 12 22  2  0
 22  8  1  0
 22 23  1  0
 23 24  2  0
 24  6  1  0
 24 25  1  0
 25 26  1  0
 26 27  1  0
 27 28  1  0
 28 29  1  0
  1 30  1  0
  1 31  1  0
  1 32  1  0
  3 33  1  0
  3 34  1  0
  4 35  1  0
  4 36  1  0
  7 37  1  0
 10 38  1  0
 13 39  1  0
 15 40  1  0
 16 41  1  0
 17 42  1  0
 19 43  1  0
 21 44  1  0
 23 45  1  0
 26 46  1  0
 26 47  1  0
 27 48  1  0
 27 49  1  0
 29 50  1  0
 29 51  1  0
 29 52  1  0
M  END
> <ID>
HT0781

> <Class>
1.0

> <Clusters>
118

> <Fold>
3

$$$$