
     RDKit          3D

 47 50  0  0  0  0  0  0  0  0999 V2000
    4.9239   -0.6367   -1.5363 C   0  0  0  0  0  0  0  0  0  0  0  0
    3.5450   -0.5788   -1.0091 N   0  0  0  0  0  0  0  0  0  0  0  0
    2.9448    0.7712   -1.0009 C   0  0  2  0  0  0  0  0  0  0  0  0
    3.5362    1.6869    0.1126 C   0  0  0  0  0  0  0  0  0  0  0  0
    4.4738    0.9577    1.0867 C   0  0  0  0  0  0  0  0  0  0  0  0
    3.9684   -0.4387    1.4795 C   0  0  0  0  0  0  0  0  0  0  0  0
    3.3556   -1.2457    0.2955 C   0  0  1  0  0  0  0  0  0  0  0  0
    1.8451   -1.4971    0.4917 C   0  0  0  0  0  0  0  0  0  0  0  0
    1.0280   -0.1926    0.3904 C   0  0  1  0  0  0  0  0  0  0  0  0
    1.4148    0.6158   -0.8656 C   0  0  0  0  0  0  0  0  0  0  0  0
   -0.4016   -0.5085    0.3475 N   0  0  0  0  0  0  0  0  0  0  0  0
   -1.3181   -0.1175    1.3795 C   0  0  0  0  0  0  0  0  0  0  0  0
   -0.8884    0.1913    2.5236 O   0  0  0  0  0  0  0  0  0  0  0  0
   -2.7702   -0.1249    1.1414 C   0  0  0  0  0  0  0  0  0  0  0  0
   -3.6844   -0.3144    2.1241 N   0  0  0  0  0  0  0  0  0  0  0  0
   -4.8946   -0.2615    1.5794 N   0  0  0  0  0  0  0  0  0  0  0  0
   -6.1349   -0.3944    2.3337 C   0  0  0  0  0  0  0  0  0  0  0  0
   -4.7695   -0.0215    0.2611 C   0  0  0  0  0  0  0  0  0  0  0  0
   -5.7722    0.1594   -0.6931 C   0  0  0  0  0  0  0  0  0  0  0  0
   -5.3750    0.4552   -2.0098 C   0  0  0  0  0  0  0  0  0  0  0  0
   -4.0053    0.5779   -2.3345 C   0  0  0  0  0  0  0  0  0  0  0  0
   -3.0177    0.3970   -1.3484 C   0  0  0  0  0  0  0  0  0  0  0  0
   -3.4411    0.0759   -0.0565 C   0  0  0  0  0  0  0  0  0  0  0  0
    5.6269   -1.1208   -0.8237 H   0  0  0  0  0  0  0  0  0  0  0  0
    4.9218   -1.2374   -2.4689 H   0  0  0  0  0  0  0  0  0  0  0  0
    5.3225    0.3713   -1.7841 H   0  0  0  0  0  0  0  0  0  0  0  0
    3.1240    1.2567   -1.9874 H   0  0  0  0  0  0  0  0  0  0  0  0
    2.7292    2.1814    0.6956 H   0  0  0  0  0  0  0  0  0  0  0  0
    4.1115    2.5098   -0.3653 H   0  0  0  0  0  0  0  0  0  0  0  0
    4.5996    1.5731    2.0039 H   0  0  0  0  0  0  0  0  0  0  0  0
    5.4828    0.8700    0.6313 H   0  0  0  0  0  0  0  0  0  0  0  0
    4.8266   -1.0084    1.8981 H   0  0  0  0  0  0  0  0  0  0  0  0
    3.2400   -0.3339    2.3127 H   0  0  0  0  0  0  0  0  0  0  0  0
    3.8388   -2.2489    0.2665 H   0  0  0  0  0  0  0  0  0  0  0  0
    1.5022   -2.2059   -0.2946 H   0  0  0  0  0  0  0  0  0  0  0  0
    1.6616   -1.9800    1.4765 H   0  0  0  0  0  0  0  0  0  0  0  0
    1.2460    0.4305    1.2837 H   0  0  0  0  0  0  0  0  0  0  0  0
    1.0341    0.0914   -1.7703 H   0  0  0  0  0  0  0  0  0  0  0  0
    0.9287    1.6156   -0.8338 H   0  0  0  0  0  0  0  0  0  0  0  0
   -0.7596   -1.0756   -0.4539 H   0  0  0  0  0  0  0  0  0  0  0  0
   -5.9152   -0.6646    3.3883 H   0  0  0  0  0  0  0  0  0  0  0  0
   -6.7645   -1.1912    1.8847 H   0  0  0  0  0  0  0  0  0  0  0  0
   -6.6882    0.5679    2.3155 H   0  0  0  0  0  0  0  0  0  0  0  0
   -6.8200    0.0846   -0.4333 H   0  0  0  0  0  0  0  0  0  0  0  0
   -6.1245    0.6031   -2.7764 H   0  0  0  0  0  0  0  0  0  0  0  0
   -3.7136    0.8247   -3.3470 H   0  0  0  0  0  0  0  0  0  0  0  0
   -1.9733    0.5303   -1.5921 H   0  0  0  0  0  0  0  0  0  0  0  0
  1  2  1  0
  2  3  1  0
  3  4  1  0
  4  5  1  0
  5  6  1  0
  7  6  1  0
  7  2  1  0
  7  8  1  0
  8  9  1  0
  9 10  1  0
 10  3  1  0
  9 11  1  0
 11 12  1  0
 12 13  2  0
 12 14  1  0
 14 15  2  0
 15 16  1  0
 16 17  1  0
 16 18  1  0
 18 19  2  0
 19 20  1  0
 20 21  2  0
 21 22  1  0
 22 23  2  0
 23 14  1  0
 23 18  1  0
  1 24  1  0
  1 25  1  0
  1 26  1  0
  3 27  1  6
  4 28  1  0
  4 29  1  0
  5 30  1  0
  5 31  1  0
  6 32  1  0
  6 33  1  0
  7 34  1  6
  8 35  1  0
  8 36  1  0
  9 37  1  1
 10 38  1  0
 10 39  1  0
 11 40  1  0
 17 41  1  0
 17 42  1  0
 17 43  1  0
 19 44  1  0
 20 45  1  0
 21 46  1  0
 22 47  1  0
M  END
> <ID>
HT1003

> <Class>
1.0

> <Clusters>
24

> <Fold>
3

$$$$