
     RDKit          3D

 53 56  0  0  0  0  0  0  0  0999 V2000
    3.8082    1.9301   -0.2973 C   0  0  0  0  0  0  0  0  0  0  0  0
    3.6700    0.4391    0.1059 C   0  0  2  0  0  0  0  0  0  0  0  0
    4.6575    0.1592    1.0745 O   0  0  0  0  0  0  0  0  0  0  0  0
    3.8464   -0.4772   -1.1474 C   0  0  0  0  0  0  0  0  0  0  0  0
    2.4555   -1.0276   -1.5186 C   0  0  0  0  0  0  0  0  0  0  0  0
    1.4906   -0.2050   -0.6778 C   0  0  1  0  0  0  0  0  0  0  0  0
    0.0304   -0.7004   -0.4915 C   0  0  2  0  0  0  0  0  0  0  0  0
   -0.6264   -0.9296   -1.8714 C   0  0  0  0  0  0  0  0  0  0  0  0
   -2.0872   -1.3497   -1.7373 C   0  0  0  0  0  0  0  0  0  0  0  0
   -2.8618   -0.3629   -0.8953 C   0  0  0  0  0  0  0  0  0  0  0  0
   -4.0804    0.0306   -1.3094 C   0  0  0  0  0  0  0  0  0  0  0  0
   -4.9703    0.8276   -0.4555 C   0  0  0  0  0  0  0  0  0  0  0  0
   -6.0824    1.2158   -0.9015 O   0  0  0  0  0  0  0  0  0  0  0  0
   -4.5967    1.1107    0.9631 C   0  0  0  0  0  0  0  0  0  0  0  0
   -3.0768    1.2307    1.0881 C   0  0  0  0  0  0  0  0  0  0  0  0
   -2.3090    0.0016    0.4904 C   0  0  1  0  0  0  0  0  0  0  0  0
   -2.5556   -1.2282    1.4062 C   0  0  0  0  0  0  0  0  0  0  0  0
   -0.7736    0.3840    0.3157 C   0  0  2  0  0  0  0  0  0  0  0  0
   -0.7574    1.5296   -0.4770 F   0  0  0  0  0  0  0  0  0  0  0  0
   -0.0343    0.8079    1.6465 C   0  0  1  0  0  0  0  0  0  0  0  0
   -0.2118   -0.0672    2.7302 O   0  0  0  0  0  0  0  0  0  0  0  0
    1.4749    1.1276    1.4416 C   0  0  0  0  0  0  0  0  0  0  0  0
    2.2455    0.0394    0.6368 C   0  0  2  0  0  0  0  0  0  0  0  0
    2.4072   -1.2644    1.4979 C   0  0  0  0  0  0  0  0  0  0  0  0
    3.7502    2.5808    0.6006 H   0  0  0  0  0  0  0  0  0  0  0  0
    4.8015    2.1072   -0.7627 H   0  0  0  0  0  0  0  0  0  0  0  0
    3.0372    2.2453   -1.0285 H   0  0  0  0  0  0  0  0  0  0  0  0
    5.5457    0.2658    0.6424 H   0  0  0  0  0  0  0  0  0  0  0  0
    4.5269   -1.3284   -0.9246 H   0  0  0  0  0  0  0  0  0  0  0  0
    4.2787    0.0776   -2.0093 H   0  0  0  0  0  0  0  0  0  0  0  0
    2.2551   -0.9003   -2.6049 H   0  0  0  0  0  0  0  0  0  0  0  0
    2.3774   -2.1053   -1.2553 H   0  0  0  0  0  0  0  0  0  0  0  0
    1.4036    0.7648   -1.2182 H   0  0  0  0  0  0  0  0  0  0  0  0
    0.0209   -1.6716    0.0346 H   0  0  0  0  0  0  0  0  0  0  0  0
   -0.0857   -1.7348   -2.4142 H   0  0  0  0  0  0  0  0  0  0  0  0
   -0.5674   -0.0077   -2.4915 H   0  0  0  0  0  0  0  0  0  0  0  0
   -2.1365   -2.3506   -1.2576 H   0  0  0  0  0  0  0  0  0  0  0  0
   -2.5219   -1.4517   -2.7561 H   0  0  0  0  0  0  0  0  0  0  0  0
   -4.4492   -0.2708   -2.2829 H   0  0  0  0  0  0  0  0  0  0  0  0
   -4.9769    0.2958    1.6143 H   0  0  0  0  0  0  0  0  0  0  0  0
   -5.0667    2.0625    1.2935 H   0  0  0  0  0  0  0  0  0  0  0  0
   -2.7797    2.1682    0.5699 H   0  0  0  0  0  0  0  0  0  0  0  0
   -2.8227    1.3643    2.1618 H   0  0  0  0  0  0  0  0  0  0  0  0
   -2.4731   -0.9695    2.4812 H   0  0  0  0  0  0  0  0  0  0  0  0
   -3.5855   -1.6211    1.2640 H   0  0  0  0  0  0  0  0  0  0  0  0
   -1.8643   -2.0632    1.1802 H   0  0  0  0  0  0  0  0  0  0  0  0
   -0.4904    1.7690    1.9687 H   0  0  0  0  0  0  0  0  0  0  0  0
   -0.1328   -0.9925    2.4040 H   0  0  0  0  0  0  0  0  0  0  0  0
    1.5135    2.0964    0.9018 H   0  0  0  0  0  0  0  0  0  0  0  0
    1.9645    1.2948    2.4256 H   0  0  0  0  0  0  0  0  0  0  0  0
    2.6720   -1.0079    2.5458 H   0  0  0  0  0  0  0  0  0  0  0  0
    1.5263   -1.9203    1.5149 H   0  0  0  0  0  0  0  0  0  0  0  0
    3.2167   -1.9187    1.1108 H   0  0  0  0  0  0  0  0  0  0  0  0
  1  2  1  0
  2  3  1  1
  2  4  1  0
  4  5  1  0
  6  5  1  0
  6  7  1  0
  7  8  1  0
  8  9  1  0
  9 10  1  0
 10 11  2  0
 11 12  1  0
 12 13  2  0
 12 14  1  0
 14 15  1  0
 15 16  1  0
 16 10  1  0
 16 17  1  1
 16 18  1  0
 18  7  1  0
 18 19  1  6
 18 20  1  0
 20 21  1  0
 20 22  1  0
 22 23  1  0
 23  2  1  0
 23  6  1  0
 23 24  1  1
  1 25  1  0
  1 26  1  0
  1 27  1  0
  3 28  1  0
  4 29  1  0
  4 30  1  0
  5 31  1  0
  5 32  1  0
  6 33  1  6
  7 34  1  1
  8 35  1  0
  8 36  1  0
  9 37  1  0
  9 38  1  0
 11 39  1  0
 14 40  1  0
 14 41  1  0
 15 42  1  0
 15 43  1  0
 17 44  1  0
 17 45  1  0
 17 46  1  0
 20 47  1  1
 21 48  1  0
 22 49  1  0
 22 50  1  0
 24 51  1  0
 24 52  1  0
 24 53  1  0
M  END
> <ID>
HT0911

> <Class>
1.0

> <Clusters>
167

> <Fold>
3

$$$$