
     RDKit          3D

 68 72  0  0  0  0  0  0  0  0999 V2000
    8.9024   -0.7251   -3.2038 C   0  0  0  0  0  0  0  0  0  0  0  0
    8.1054   -1.5057   -2.2408 N   0  0  0  0  0  0  0  0  0  0  0  0
    8.6304   -1.4116   -0.8647 C   0  0  0  0  0  0  0  0  0  0  0  0
    8.3048   -0.0597   -0.2040 C   0  0  0  0  0  0  0  0  0  0  0  0
    6.8616    0.2474   -0.2405 N   0  0  0  0  0  0  0  0  0  0  0  0
    6.0904   -0.5453    0.7436 C   0  0  0  0  0  0  0  0  0  0  0  0
    4.7359    0.0701    0.9849 C   0  0  0  0  0  0  0  0  0  0  0  0
    4.6348    1.3921    1.4413 C   0  0  0  0  0  0  0  0  0  0  0  0
    3.3819    1.9683    1.6673 C   0  0  0  0  0  0  0  0  0  0  0  0
    2.2035    1.2305    1.4472 C   0  0  0  0  0  0  0  0  0  0  0  0
    2.3122   -0.1013    1.0035 C   0  0  0  0  0  0  0  0  0  0  0  0
    3.5659   -0.6727    0.7682 C   0  0  0  0  0  0  0  0  0  0  0  0
    0.8777    1.8432    1.7178 C   0  0  0  0  0  0  0  0  0  0  0  0
    0.8166    2.9602    2.3023 O   0  0  0  0  0  0  0  0  0  0  0  0
   -0.3363    1.2005    1.2934 N   0  0  0  0  0  0  0  0  0  0  0  0
   -1.5973    1.3389    1.9728 C   0  0  0  0  0  0  0  0  0  0  0  0
   -1.6665    1.6837    3.3330 C   0  0  0  0  0  0  0  0  0  0  0  0
   -2.9017    1.8006    3.9714 C   0  0  0  0  0  0  0  0  0  0  0  0
   -4.0928    1.5441    3.2760 C   0  0  0  0  0  0  0  0  0  0  0  0
   -5.4092    1.6770    3.9922 C   0  0  0  0  0  0  0  0  0  0  0  0
   -4.0346    1.1687    1.9142 C   0  0  0  0  0  0  0  0  0  0  0  0
   -5.2427    0.9332    1.1701 N   0  0  0  0  0  0  0  0  0  0  0  0
   -5.4223   -0.1770    0.2803 C   0  0  0  0  0  0  0  0  0  0  0  0
   -4.5000   -1.1746    0.2153 N   0  0  0  0  0  0  0  0  0  0  0  0
   -4.6819   -2.2430   -0.6009 C   0  0  0  0  0  0  0  0  0  0  0  0
   -5.8301   -2.3337   -1.3859 C   0  0  0  0  0  0  0  0  0  0  0  0
   -6.7807   -1.3033   -1.3124 C   0  0  0  0  0  0  0  0  0  0  0  0
   -6.5521   -0.2570   -0.4711 N   0  0  0  0  0  0  0  0  0  0  0  0
   -8.0364   -1.3385   -2.1047 C   0  0  0  0  0  0  0  0  0  0  0  0
   -9.1884   -0.6885   -1.6290 C   0  0  0  0  0  0  0  0  0  0  0  0
  -10.3699   -0.7157   -2.3714 C   0  0  0  0  0  0  0  0  0  0  0  0
  -10.3932   -1.3859   -3.5939 C   0  0  0  0  0  0  0  0  0  0  0  0
   -9.2723   -2.0005   -4.0532 N   0  0  0  0  0  0  0  0  0  0  0  0
   -8.1092   -1.9929   -3.3487 C   0  0  0  0  0  0  0  0  0  0  0  0
   -2.7855    1.0773    1.2760 C   0  0  0  0  0  0  0  0  0  0  0  0
    6.3283    0.1576   -1.6170 C   0  0  0  0  0  0  0  0  0  0  0  0
    6.6672   -1.1803   -2.3040 C   0  0  0  0  0  0  0  0  0  0  0  0
    8.5523   -0.9275   -4.2365 H   0  0  0  0  0  0  0  0  0  0  0  0
    8.8368    0.3642   -3.0124 H   0  0  0  0  0  0  0  0  0  0  0  0
    9.9679   -1.0312   -3.1564 H   0  0  0  0  0  0  0  0  0  0  0  0
    9.7322   -1.5673   -0.8578 H   0  0  0  0  0  0  0  0  0  0  0  0
    8.1997   -2.2358   -0.2568 H   0  0  0  0  0  0  0  0  0  0  0  0
    8.6771   -0.0651    0.8439 H   0  0  0  0  0  0  0  0  0  0  0  0
    8.8617    0.7531   -0.7177 H   0  0  0  0  0  0  0  0  0  0  0  0
    5.9937   -1.6032    0.4202 H   0  0  0  0  0  0  0  0  0  0  0  0
    6.6179   -0.5586    1.7227 H   0  0  0  0  0  0  0  0  0  0  0  0
    5.5286    1.9777    1.6207 H   0  0  0  0  0  0  0  0  0  0  0  0
    3.3371    2.9929    2.0160 H   0  0  0  0  0  0  0  0  0  0  0  0
    1.4344   -0.7146    0.8518 H   0  0  0  0  0  0  0  0  0  0  0  0
    3.6215   -1.6981    0.4224 H   0  0  0  0  0  0  0  0  0  0  0  0
   -0.3170    0.6565    0.4011 H   0  0  0  0  0  0  0  0  0  0  0  0
   -0.7683    1.8475    3.9117 H   0  0  0  0  0  0  0  0  0  0  0  0
   -2.9266    2.0827    5.0173 H   0  0  0  0  0  0  0  0  0  0  0  0
   -6.0725    0.8211    3.7452 H   0  0  0  0  0  0  0  0  0  0  0  0
   -5.2703    1.6820    5.0941 H   0  0  0  0  0  0  0  0  0  0  0  0
   -5.9008    2.6250    3.6915 H   0  0  0  0  0  0  0  0  0  0  0  0
   -6.0641    1.5565    1.3379 H   0  0  0  0  0  0  0  0  0  0  0  0
   -3.9385   -3.0286   -0.6313 H   0  0  0  0  0  0  0  0  0  0  0  0
   -5.9775   -3.2032   -2.0116 H   0  0  0  0  0  0  0  0  0  0  0  0
   -9.1795   -0.1728   -0.6764 H   0  0  0  0  0  0  0  0  0  0  0  0
  -11.2595   -0.2228   -2.0000 H   0  0  0  0  0  0  0  0  0  0  0  0
  -11.3013   -1.4146   -4.1811 H   0  0  0  0  0  0  0  0  0  0  0  0
   -7.2428   -2.4779   -3.7761 H   0  0  0  0  0  0  0  0  0  0  0  0
   -2.7378    0.8235    0.2237 H   0  0  0  0  0  0  0  0  0  0  0  0
    6.7394    0.9973   -2.2165 H   0  0  0  0  0  0  0  0  0  0  0  0
    5.2256    0.2973   -1.6214 H   0  0  0  0  0  0  0  0  0  0  0  0
    6.0889   -2.0019   -1.8308 H   0  0  0  0  0  0  0  0  0  0  0  0
    6.3256   -1.1416   -3.3621 H   0  0  0  0  0  0  0  0  0  0  0  0
  1  2  1  0
  2  3  1  0
  3  4  1  0
  4  5  1  0
  5  6  1  0
  6  7  1  0
  7  8  2  0
  8  9  1  0
  9 10  2  0
 10 11  1  0
 11 12  2  0
 12  7  1  0
 10 13  1  0
 13 14  2  0
 13 15  1  0
 15 16  1  0
 16 17  2  0
 17 18  1  0
 18 19  2  0
 19 20  1  0
 19 21  1  0
 21 22  1  0
 22 23  1  0
 23 24  2  0
 24 25  1  0
 25 26  2  0
 26 27  1  0
 27 28  2  0
 28 23  1  0
 27 29  1  0
 29 30  2  0
 30 31  1  0
 31 32  2  0
 32 33  1  0
 33 34  2  0
 34 29  1  0
 21 35  2  0
 35 16  1  0
  5 36  1  0
 36 37  1  0
 37  2  1  0
  1 38  1  0
  1 39  1  0
  1 40  1  0
  3 41  1  0
  3 42  1  0
  4 43  1  0
  4 44  1  0
  6 45  1  0
  6 46  1  0
  8 47  1  0
  9 48  1  0
 11 49  1  0
 12 50  1  0
 15 51  1  0
 17 52  1  0
 18 53  1  0
 20 54  1  0
 20 55  1  0
 20 56  1  0
 22 57  1  0
 25 58  1  0
 26 59  1  0
 30 60  1  0
 31 61  1  0
 32 62  1  0
 34 63  1  0
 35 64  1  0
 36 65  1  0
 36 66  1  0
 37 67  1  0
 37 68  1  0
M  END
> <ID>
HT0984

> <Class>
1.0

> <Clusters>
269

> <Fold>
3

$$$$