
     RDKit          3D

 56 58  0  0  0  0  0  0  0  0999 V2000
   -0.3776    3.6302    0.5040 C   0  0  0  0  0  0  0  0  0  0  0  0
   -0.1765    2.4519   -0.4548 C   0  0  0  0  0  0  0  0  0  0  0  0
   -0.0139    2.8996   -1.9126 C   0  0  0  0  0  0  0  0  0  0  0  0
   -1.2441    1.4397   -0.3058 N   0  0  0  0  0  0  0  0  0  0  0  0
   -1.0812    0.1452    0.1040 C   0  0  0  0  0  0  0  0  0  0  0  0
    0.1844   -0.4742    0.5546 C   0  0  0  0  0  0  0  0  0  0  0  0
    0.9336    0.0571    1.5260 C   0  0  0  0  0  0  0  0  0  0  0  0
    2.0963   -0.7008    2.1294 C   0  0  2  0  0  0  0  0  0  0  0  0
    2.5649   -0.0747    3.2991 O   0  0  0  0  0  0  0  0  0  0  0  0
    3.2529   -0.9660    1.1357 C   0  0  0  0  0  0  0  0  0  0  0  0
    4.0720    0.2858    0.7331 C   0  0  2  0  0  0  0  0  0  0  0  0
    3.2538    1.2403    0.1073 O   0  0  0  0  0  0  0  0  0  0  0  0
    5.2488   -0.0781   -0.1966 C   0  0  0  0  0  0  0  0  0  0  0  0
    6.2949   -0.8908    0.5057 C   0  0  0  0  0  0  0  0  0  0  0  0
    6.9367   -0.3982    1.4720 O   0  0  0  0  0  0  0  0  0  0  0  0
    6.5638   -2.1887    0.0829 O   0  0  0  0  0  0  0  0  0  0  0  0
   -2.2780   -0.5629   -0.0055 C   0  0  0  0  0  0  0  0  0  0  0  0
   -2.5134   -1.9837    0.3336 C   0  0  0  0  0  0  0  0  0  0  0  0
   -2.0699   -2.5052    1.5608 C   0  0  0  0  0  0  0  0  0  0  0  0
   -2.2877   -3.8500    1.8755 C   0  0  0  0  0  0  0  0  0  0  0  0
   -2.9487   -4.6837    0.9690 C   0  0  0  0  0  0  0  0  0  0  0  0
   -3.1585   -5.9876    1.2756 F   0  0  0  0  0  0  0  0  0  0  0  0
   -3.3925   -4.1728   -0.2539 C   0  0  0  0  0  0  0  0  0  0  0  0
   -3.1761   -2.8285   -0.5722 C   0  0  0  0  0  0  0  0  0  0  0  0
   -3.2069    0.3452   -0.4680 C   0  0  0  0  0  0  0  0  0  0  0  0
   -4.5744    0.1966   -0.7113 C   0  0  0  0  0  0  0  0  0  0  0  0
   -5.2900    1.3144   -1.1648 C   0  0  0  0  0  0  0  0  0  0  0  0
   -4.6373    2.5472   -1.3539 C   0  0  0  0  0  0  0  0  0  0  0  0
   -3.2635    2.6765   -1.0879 C   0  0  0  0  0  0  0  0  0  0  0  0
   -2.5592    1.5485   -0.6375 C   0  0  0  0  0  0  0  0  0  0  0  0
    0.5222    4.2815    0.4927 H   0  0  0  0  0  0  0  0  0  0  0  0
   -0.5203    3.2528    1.5386 H   0  0  0  0  0  0  0  0  0  0  0  0
   -1.2527    4.2484    0.2298 H   0  0  0  0  0  0  0  0  0  0  0  0
    0.7957    2.0023   -0.1875 H   0  0  0  0  0  0  0  0  0  0  0  0
   -0.8548    3.5296   -2.2575 H   0  0  0  0  0  0  0  0  0  0  0  0
    0.0615    2.0094   -2.5725 H   0  0  0  0  0  0  0  0  0  0  0  0
    0.9202    3.4913   -2.0209 H   0  0  0  0  0  0  0  0  0  0  0  0
    0.4089   -1.4739    0.2024 H   0  0  0  0  0  0  0  0  0  0  0  0
    0.6437    1.0042    1.9652 H   0  0  0  0  0  0  0  0  0  0  0  0
    1.7030   -1.6948    2.4369 H   0  0  0  0  0  0  0  0  0  0  0  0
    2.7210    0.8844    3.0966 H   0  0  0  0  0  0  0  0  0  0  0  0
    2.8542   -1.4591    0.2225 H   0  0  0  0  0  0  0  0  0  0  0  0
    3.9375   -1.6981    1.6164 H   0  0  0  0  0  0  0  0  0  0  0  0
    4.4962    0.7535    1.6471 H   0  0  0  0  0  0  0  0  0  0  0  0
    2.9015    0.8304   -0.7263 H   0  0  0  0  0  0  0  0  0  0  0  0
    5.7240    0.8545   -0.5706 H   0  0  0  0  0  0  0  0  0  0  0  0
    4.8715   -0.6401   -1.0788 H   0  0  0  0  0  0  0  0  0  0  0  0
    7.2683   -2.7504    0.5460 H   0  0  0  0  0  0  0  0  0  0  0  0
   -1.5680   -1.8697    2.2799 H   0  0  0  0  0  0  0  0  0  0  0  0
   -1.9454   -4.2442    2.8236 H   0  0  0  0  0  0  0  0  0  0  0  0
   -3.9011   -4.8187   -0.9581 H   0  0  0  0  0  0  0  0  0  0  0  0
   -3.5109   -2.4519   -1.5309 H   0  0  0  0  0  0  0  0  0  0  0  0
   -5.0792   -0.7461   -0.5480 H   0  0  0  0  0  0  0  0  0  0  0  0
   -6.3504    1.2300   -1.3641 H   0  0  0  0  0  0  0  0  0  0  0  0
   -5.2003    3.4046   -1.6994 H   0  0  0  0  0  0  0  0  0  0  0  0
   -2.7989    3.6374   -1.2247 H   0  0  0  0  0  0  0  0  0  0  0  0
  1  2  1  0
  2  3  1  0
  2  4  1  0
  4  5  1  0
  5  6  1  0
  6  7  2  0
  7  8  1  0
  8  9  1  0
  8 10  1  0
 10 11  1  0
 11 12  1  0
 11 13  1  0
 13 14  1  0
 14 15  2  0
 14 16  1  0
  5 17  2  0
 17 18  1  0
 18 19  2  0
 19 20  1  0
 20 21  2  0
 21 22  1  0
 21 23  1  0
 23 24  2  0
 24 18  1  0
 17 25  1  0
 25 26  2  0
 26 27  1  0
 27 28  2  0
 28 29  1  0
 29 30  2  0
 30  4  1  0
 30 25  1  0
  1 31  1  0
  1 32  1  0
  1 33  1  0
  2 34  1  0
  3 35  1  0
  3 36  1  0
  3 37  1  0
  6 38  1  0
  7 39  1  0
  8 40  1  1
  9 41  1  0
 10 42  1  0
 10 43  1  0
 11 44  1  1
 12 45  1  0
 13 46  1  0
 13 47  1  0
 16 48  1  0
 19 49  1  0
 20 50  1  0
 23 51  1  0
 24 52  1  0
 26 53  1  0
 27 54  1  0
 28 55  1  0
 29 56  1  0
M  END
> <ID>
HT0926

> <Class>
1.0

> <Clusters>
110

> <Fold>
3

$$$$