
     RDKit          3D

 55 58  0  0  0  0  0  0  0  0999 V2000
    0.7588   -4.6767    2.0210 C   0  0  0  0  0  0  0  0  0  0  0  0
    0.4794   -3.3211    1.6868 O   0  0  0  0  0  0  0  0  0  0  0  0
    1.3012   -2.5128    0.8850 C   0  0  0  0  0  0  0  0  0  0  0  0
    2.5018   -2.9898    0.3278 C   0  0  0  0  0  0  0  0  0  0  0  0
    3.2956   -2.1562   -0.4641 C   0  0  0  0  0  0  0  0  0  0  0  0
    4.4419   -2.6385   -1.0095 N   0  0  0  0  0  0  0  0  0  0  0  0
    5.2296   -1.8559   -1.7874 C   0  0  0  0  0  0  0  0  0  0  0  0
    4.8842   -0.5660   -2.0258 N   0  0  0  0  0  0  0  0  0  0  0  0
    3.7472   -0.0226   -1.5109 C   0  0  0  0  0  0  0  0  0  0  0  0
    3.4612    1.3660   -1.7525 N   0  0  0  0  0  0  0  0  0  0  0  0
    3.8296    2.0501   -2.9629 C   0  0  0  0  0  0  0  0  0  0  0  0
    4.0502    3.4359   -2.9336 C   0  0  0  0  0  0  0  0  0  0  0  0
    4.3904    4.1234   -4.1021 C   0  0  0  0  0  0  0  0  0  0  0  0
    4.5013    3.4365   -5.3139 C   0  0  0  0  0  0  0  0  0  0  0  0
    4.8308    4.1140   -6.4421 F   0  0  0  0  0  0  0  0  0  0  0  0
    4.2643    2.0573   -5.3596 C   0  0  0  0  0  0  0  0  0  0  0  0
    4.3815    1.1874   -6.8800 Cl  0  0  0  0  0  0  0  0  0  0  0  0
    3.9238    1.3673   -4.1902 C   0  0  0  0  0  0  0  0  0  0  0  0
    2.9065   -0.8212   -0.7039 C   0  0  0  0  0  0  0  0  0  0  0  0
    1.6970   -0.3513   -0.1601 C   0  0  0  0  0  0  0  0  0  0  0  0
    0.8962   -1.1927    0.6373 C   0  0  0  0  0  0  0  0  0  0  0  0
   -0.3130   -0.7556    1.2008 O   0  0  0  0  0  0  0  0  0  0  0  0
   -0.8654    0.5481    1.0307 C   0  0  0  0  0  0  0  0  0  0  0  0
   -2.1872    0.6579    1.7910 C   0  0  0  0  0  0  0  0  0  0  0  0
   -3.2429   -0.3215    1.2307 C   0  0  0  0  0  0  0  0  0  0  0  0
   -4.5934   -0.1692    1.8164 N   0  0  0  0  0  0  0  0  0  0  0  0
   -5.3345    0.9950    1.2928 C   0  0  0  0  0  0  0  0  0  0  0  0
   -6.6462    1.2008    2.0753 C   0  0  0  0  0  0  0  0  0  0  0  0
   -7.0201    0.0120    2.7437 O   0  0  0  0  0  0  0  0  0  0  0  0
   -6.0873   -0.2826    3.7719 C   0  0  0  0  0  0  0  0  0  0  0  0
   -4.6230   -0.2117    3.2873 C   0  0  0  0  0  0  0  0  0  0  0  0
   -0.0563   -5.0666    2.6644 H   0  0  0  0  0  0  0  0  0  0  0  0
    1.7158   -4.7425    2.5805 H   0  0  0  0  0  0  0  0  0  0  0  0
    0.8108   -5.2943    1.0996 H   0  0  0  0  0  0  0  0  0  0  0  0
    2.8252   -4.0078    0.5007 H   0  0  0  0  0  0  0  0  0  0  0  0
    6.1386   -2.2584   -2.2126 H   0  0  0  0  0  0  0  0  0  0  0  0
    3.0860    1.9388   -0.9634 H   0  0  0  0  0  0  0  0  0  0  0  0
    3.9667    3.9819   -2.0023 H   0  0  0  0  0  0  0  0  0  0  0  0
    4.5666    5.1908   -4.0672 H   0  0  0  0  0  0  0  0  0  0  0  0
    3.7155    0.3068   -4.2463 H   0  0  0  0  0  0  0  0  0  0  0  0
    1.3663    0.6554   -0.3643 H   0  0  0  0  0  0  0  0  0  0  0  0
   -1.0364    0.7512   -0.0492 H   0  0  0  0  0  0  0  0  0  0  0  0
   -0.1576    1.3051    1.4331 H   0  0  0  0  0  0  0  0  0  0  0  0
   -2.5434    1.7048    1.7119 H   0  0  0  0  0  0  0  0  0  0  0  0
   -1.9902    0.4363    2.8616 H   0  0  0  0  0  0  0  0  0  0  0  0
   -3.3080   -0.2038    0.1261 H   0  0  0  0  0  0  0  0  0  0  0  0
   -2.8981   -1.3625    1.4129 H   0  0  0  0  0  0  0  0  0  0  0  0
   -4.7322    1.9253    1.3546 H   0  0  0  0  0  0  0  0  0  0  0  0
   -5.5773    0.8124    0.2233 H   0  0  0  0  0  0  0  0  0  0  0  0
   -6.5405    2.0421    2.7990 H   0  0  0  0  0  0  0  0  0  0  0  0
   -7.4558    1.4838    1.3696 H   0  0  0  0  0  0  0  0  0  0  0  0
   -6.2948   -1.3118    4.1344 H   0  0  0  0  0  0  0  0  0  0  0  0
   -6.2429    0.4021    4.6353 H   0  0  0  0  0  0  0  0  0  0  0  0
   -4.1532    0.7041    3.7105 H   0  0  0  0  0  0  0  0  0  0  0  0
   -4.0642   -1.0991    3.6588 H   0  0  0  0  0  0  0  0  0  0  0  0
  1  2  1  0
  2  3  1  0
  3  4  2  0
  4  5  1  0
  5  6  2  0
  6  7  1  0
  7  8  2  0
  8  9  1  0
  9 10  1  0
 10 11  1  0
 11 12  2  0
 12 13  1  0
 13 14  2  0
 14 15  1  0
 14 16  1  0
 16 17  1  0
 16 18  2  0
 18 11  1  0
  9 19  2  0
 19  5  1  0
 19 20  1  0
 20 21  2  0
 21  3  1  0
 21 22  1  0
 22 23  1  0
 23 24  1  0
 24 25  1  0
 25 26  1  0
 26 27  1  0
 27 28  1  0
 28 29  1  0
 29 30  1  0
 30 31  1  0
 31 26  1  0
  1 32  1  0
  1 33  1  0
  1 34  1  0
  4 35  1  0
  7 36  1  0
 10 37  1  0
 12 38  1  0
 13 39  1  0
 18 40  1  0
 20 41  1  0
 23 42  1  0
 23 43  1  0
 24 44  1  0
 24 45  1  0
 25 46  1  0
 25 47  1  0
 27 48  1  0
 27 49  1  0
 28 50  1  0
 28 51  1  0
 30 52  1  0
 30 53  1  0
 31 54  1  0
 31 55  1  0
M  END
> <ID>
HT0968

> <Class>
1.0

> <Clusters>
118

> <Fold>
3

$$$$