
     RDKit          3D

 50 50  0  0  0  0  0  0  0  0999 V2000
    1.2406   -0.9935    3.7348 C   0  0  0  0  0  0  0  0  0  0  0  0
    1.2412   -0.2828    2.4035 C   0  0  0  0  0  0  0  0  0  0  0  0
    2.3190    0.4474    2.0514 C   0  0  0  0  0  0  0  0  0  0  0  0
    2.4818    1.1117    0.7388 C   0  0  0  0  0  0  0  0  0  0  0  0
    3.5114    1.9365    0.5144 C   0  0  0  0  0  0  0  0  0  0  0  0
    3.7304    2.6252   -0.7836 C   0  0  0  0  0  0  0  0  0  0  0  0
    4.3686    3.8147   -0.7627 C   0  0  0  0  0  0  0  0  0  0  0  0
    4.6192    4.6951   -1.9243 C   0  0  0  0  0  0  0  0  0  0  0  0
    4.0531    4.5104   -3.0348 O   0  0  0  0  0  0  0  0  0  0  0  0
    5.4722    5.7823   -1.7674 O   0  0  0  0  0  0  0  0  0  0  0  0
    3.2586    1.9866   -2.0695 C   0  0  0  0  0  0  0  0  0  0  0  0
    0.0326   -0.3531    1.5411 C   0  0  0  0  0  0  0  0  0  0  0  0
   -0.8143   -1.3872    1.5616 C   0  0  0  0  0  0  0  0  0  0  0  0
   -2.0245   -1.4170    0.7050 C   0  0  0  0  0  0  0  0  0  0  0  0
   -3.2388   -1.2168    1.2713 C   0  0  0  0  0  0  0  0  0  0  0  0
   -3.3880   -0.9501    2.7504 C   0  0  0  0  0  0  0  0  0  0  0  0
   -4.4757   -1.3117    0.4191 C   0  0  0  0  0  0  0  0  0  0  0  0
   -4.3693   -2.5391   -0.4752 C   0  0  0  0  0  0  0  0  0  0  0  0
   -3.1212   -2.4890   -1.3768 C   0  0  0  0  0  0  0  0  0  0  0  0
   -1.9030   -1.6647   -0.8130 C   0  0  0  0  0  0  0  0  0  0  0  0
   -0.6061   -2.4449   -1.1413 C   0  0  0  0  0  0  0  0  0  0  0  0
   -1.8270   -0.3001   -1.5376 C   0  0  0  0  0  0  0  0  0  0  0  0
    1.2483   -2.0916    3.5761 H   0  0  0  0  0  0  0  0  0  0  0  0
    0.3317   -0.7120    4.3069 H   0  0  0  0  0  0  0  0  0  0  0  0
    2.1271   -0.7349    4.3531 H   0  0  0  0  0  0  0  0  0  0  0  0
    3.1478    0.5228    2.7474 H   0  0  0  0  0  0  0  0  0  0  0  0
    1.7678    0.9262   -0.0500 H   0  0  0  0  0  0  0  0  0  0  0  0
    4.1891    2.1590    1.3318 H   0  0  0  0  0  0  0  0  0  0  0  0
    4.7291    4.1911    0.1883 H   0  0  0  0  0  0  0  0  0  0  0  0
    5.6557    6.4147   -2.5373 H   0  0  0  0  0  0  0  0  0  0  0  0
    3.0387    0.9080   -1.9320 H   0  0  0  0  0  0  0  0  0  0  0  0
    2.3424    2.4984   -2.4322 H   0  0  0  0  0  0  0  0  0  0  0  0
    4.0541    2.0343   -2.8421 H   0  0  0  0  0  0  0  0  0  0  0  0
   -0.1904    0.4823    0.8937 H   0  0  0  0  0  0  0  0  0  0  0  0
   -0.6563   -2.2208    2.2328 H   0  0  0  0  0  0  0  0  0  0  0  0
   -2.9958   -1.8117    3.3317 H   0  0  0  0  0  0  0  0  0  0  0  0
   -4.4506   -0.7972    3.0345 H   0  0  0  0  0  0  0  0  0  0  0  0
   -2.8254   -0.0330    3.0267 H   0  0  0  0  0  0  0  0  0  0  0  0
   -5.3891   -1.4038    1.0447 H   0  0  0  0  0  0  0  0  0  0  0  0
   -4.5854   -0.3965   -0.1986 H   0  0  0  0  0  0  0  0  0  0  0  0
   -4.3236   -3.4466    0.1675 H   0  0  0  0  0  0  0  0  0  0  0  0
   -5.2829   -2.6214   -1.1036 H   0  0  0  0  0  0  0  0  0  0  0  0
   -3.4272   -2.0935   -2.3708 H   0  0  0  0  0  0  0  0  0  0  0  0
   -2.8272   -3.5453   -1.5692 H   0  0  0  0  0  0  0  0  0  0  0  0
    0.3008   -1.8595   -0.8809 H   0  0  0  0  0  0  0  0  0  0  0  0
   -0.5538   -2.6754   -2.2277 H   0  0  0  0  0  0  0  0  0  0  0  0
   -0.5782   -3.4034   -0.5791 H   0  0  0  0  0  0  0  0  0  0  0  0
   -2.7134    0.3270   -1.3139 H   0  0  0  0  0  0  0  0  0  0  0  0
   -0.9210    0.2651   -1.2390 H   0  0  0  0  0  0  0  0  0  0  0  0
   -1.7730   -0.4422   -2.6388 H   0  0  0  0  0  0  0  0  0  0  0  0
  1  2  1  0
  2  3  2  0
  3  4  1  0
  4  5  2  0
  5  6  1  0
  6  7  2  0
  7  8  1  0
  8  9  2  0
  8 10  1  0
  6 11  1  0
  2 12  1  0
 12 13  2  0
 13 14  1  0
 14 15  2  0
 15 16  1  0
 15 17  1  0
 17 18  1  0
 18 19  1  0
 19 20  1  0
 20 14  1  0
 20 21  1  0
 20 22  1  0
  1 23  1  0
  1 24  1  0
  1 25  1  0
  3 26  1  0
  4 27  1  0
  5 28  1  0
  7 29  1  0
 10 30  1  0
 11 31  1  0
 11 32  1  0
 11 33  1  0
 12 34  1  0
 13 35  1  0
 16 36  1  0
 16 37  1  0
 16 38  1  0
 17 39  1  0
 17 40  1  0
 18 41  1  0
 18 42  1  0
 19 43  1  0
 19 44  1  0
 21 45  1  0
 21 46  1  0
 21 47  1  0
 22 48  1  0
 22 49  1  0
 22 50  1  0
M  END
> <ID>
HT1143

> <Class>
1.0

> <Clusters>
268

> <Fold>
3

$$$$