
     RDKit          3D

 44 46  0  0  0  0  0  0  0  0999 V2000
    3.9874   -1.6518   -0.0096 C   0  0  0  0  0  0  0  0  0  0  0  0
    4.2331   -0.2264   -0.2825 N   0  0  0  0  0  0  0  0  0  0  0  0
    4.7393   -0.0245   -1.6488 C   0  0  0  0  0  0  0  0  0  0  0  0
    3.0680    0.6300    0.0347 C   0  0  0  0  0  0  0  0  0  0  0  0
    1.8600    0.4315   -0.9030 C   0  0  0  0  0  0  0  0  0  0  0  0
    0.6715    1.2037   -0.3912 C   0  0  0  0  0  0  0  0  0  0  0  0
   -0.5007    0.6593   -0.0040 C   0  0  0  0  0  0  0  0  0  0  0  0
   -1.6302    1.5554    0.2858 C   0  0  0  0  0  0  0  0  0  0  0  0
   -1.5996    2.4122    1.3964 C   0  0  0  0  0  0  0  0  0  0  0  0
   -2.6924    3.2383    1.6727 C   0  0  0  0  0  0  0  0  0  0  0  0
   -3.8165    3.2131    0.8426 C   0  0  0  0  0  0  0  0  0  0  0  0
   -3.8470    2.3687   -0.2714 C   0  0  0  0  0  0  0  0  0  0  0  0
   -2.7478    1.5437   -0.5613 C   0  0  0  0  0  0  0  0  0  0  0  0
   -2.7480    0.6476   -1.7697 C   0  0  0  0  0  0  0  0  0  0  0  0
   -2.9240   -0.8205   -1.3732 C   0  0  0  0  0  0  0  0  0  0  0  0
   -1.8433   -1.4702   -0.5123 C   0  0  0  0  0  0  0  0  0  0  0  0
   -1.9959   -2.8549   -0.3024 C   0  0  0  0  0  0  0  0  0  0  0  0
   -1.1017   -3.5703    0.4923 C   0  0  0  0  0  0  0  0  0  0  0  0
   -0.0450   -2.9153    1.1141 C   0  0  0  0  0  0  0  0  0  0  0  0
    0.1281   -1.5453    0.9335 C   0  0  0  0  0  0  0  0  0  0  0  0
   -0.7340   -0.8056    0.0993 C   0  0  0  0  0  0  0  0  0  0  0  0
    3.5403   -1.7867    0.9987 H   0  0  0  0  0  0  0  0  0  0  0  0
    4.9520   -2.2024   -0.0191 H   0  0  0  0  0  0  0  0  0  0  0  0
    3.3185   -2.1085   -0.7699 H   0  0  0  0  0  0  0  0  0  0  0  0
    5.7313   -0.5130   -1.7551 H   0  0  0  0  0  0  0  0  0  0  0  0
    4.0500   -0.4566   -2.4066 H   0  0  0  0  0  0  0  0  0  0  0  0
    4.8774    1.0587   -1.8548 H   0  0  0  0  0  0  0  0  0  0  0  0
    3.3833    1.6959   -0.0088 H   0  0  0  0  0  0  0  0  0  0  0  0
    2.7600    0.4498    1.0879 H   0  0  0  0  0  0  0  0  0  0  0  0
    2.1045    0.8290   -1.9104 H   0  0  0  0  0  0  0  0  0  0  0  0
    1.6252   -0.6409   -1.0337 H   0  0  0  0  0  0  0  0  0  0  0  0
    0.7603    2.2847   -0.4150 H   0  0  0  0  0  0  0  0  0  0  0  0
   -0.7369    2.4300    2.0512 H   0  0  0  0  0  0  0  0  0  0  0  0
   -2.6703    3.8947    2.5330 H   0  0  0  0  0  0  0  0  0  0  0  0
   -4.6635    3.8507    1.0608 H   0  0  0  0  0  0  0  0  0  0  0  0
   -4.7223    2.3636   -0.9089 H   0  0  0  0  0  0  0  0  0  0  0  0
   -1.8056    0.7742   -2.3463 H   0  0  0  0  0  0  0  0  0  0  0  0
   -3.5757    0.9316   -2.4559 H   0  0  0  0  0  0  0  0  0  0  0  0
   -3.9001   -0.9286   -0.8506 H   0  0  0  0  0  0  0  0  0  0  0  0
   -3.0004   -1.4003   -2.3194 H   0  0  0  0  0  0  0  0  0  0  0  0
   -2.8232   -3.3876   -0.7566 H   0  0  0  0  0  0  0  0  0  0  0  0
   -1.2390   -4.6340    0.6383 H   0  0  0  0  0  0  0  0  0  0  0  0
    0.6363   -3.4679    1.7483 H   0  0  0  0  0  0  0  0  0  0  0  0
    0.9367   -1.0552    1.4593 H   0  0  0  0  0  0  0  0  0  0  0  0
  1  2  1  0
  2  3  1  0
  2  4  1  0
  4  5  1  0
  5  6  1  0
  6  7  2  3
  7  8  1  0
  8  9  2  0
  9 10  1  0
 10 11  2  0
 11 12  1  0
 12 13  2  0
 13  8  1  0
 13 14  1  0
 14 15  1  0
 15 16  1  0
 16 17  2  0
 17 18  1  0
 18 19  2  0
 19 20  1  0
 20 21  2  0
 21  7  1  0
 21 16  1  0
  1 22  1  0
  1 23  1  0
  1 24  1  0
  3 25  1  0
  3 26  1  0
  3 27  1  0
  4 28  1  0
  4 29  1  0
  5 30  1  0
  5 31  1  0
  6 32  1  0
  9 33  1  0
 10 34  1  0
 11 35  1  0
 12 36  1  0
 14 37  1  0
 14 38  1  0
 15 39  1  0
 15 40  1  0
 17 41  1  0
 18 42  1  0
 19 43  1  0
 20 44  1  0
M  END
> <ID>
HT0141

> <Class>
1.0

> <Clusters>
17

> <Fold>
3

$$$$