
     RDKit          3D

 41 43  0  0  0  0  0  0  0  0999 V2000
   -4.2725    3.3300    0.2392 C   0  0  0  0  0  0  0  0  0  0  0  0
   -2.8861    3.4644    0.5348 O   0  0  0  0  0  0  0  0  0  0  0  0
   -1.9862    2.3912    0.6095 C   0  0  0  0  0  0  0  0  0  0  0  0
   -0.6350    2.6724    0.9116 C   0  0  0  0  0  0  0  0  0  0  0  0
    0.3161    1.6417    0.9964 C   0  0  0  0  0  0  0  0  0  0  0  0
   -0.1096    0.3315    0.7618 C   0  0  0  0  0  0  0  0  0  0  0  0
   -1.4244    0.0486    0.4882 C   0  0  0  0  0  0  0  0  0  0  0  0
   -2.3908    1.0513    0.3968 C   0  0  0  0  0  0  0  0  0  0  0  0
   -1.5317   -1.3249    0.3611 C   0  0  0  0  0  0  0  0  0  0  0  0
   -2.7724   -2.1069    0.0339 C   0  0  0  0  0  0  0  0  0  0  0  0
   -2.9182   -2.2571   -1.4503 C   0  0  0  0  0  0  0  0  0  0  0  0
   -3.1052   -1.2392   -2.1680 O   0  0  0  0  0  0  0  0  0  0  0  0
   -2.8572   -3.5122   -2.0497 O   0  0  0  0  0  0  0  0  0  0  0  0
   -0.2376   -1.8203    0.5392 C   0  0  0  0  0  0  0  0  0  0  0  0
    0.1512   -3.2699    0.5007 C   0  0  0  0  0  0  0  0  0  0  0  0
    0.6252   -0.8019    0.7940 N   0  0  0  0  0  0  0  0  0  0  0  0
    2.0277   -0.9183    1.0858 C   0  0  0  0  0  0  0  0  0  0  0  0
    2.4000   -1.6958    2.0062 O   0  0  0  0  0  0  0  0  0  0  0  0
    3.0387   -0.1595    0.3116 C   0  0  0  0  0  0  0  0  0  0  0  0
    2.7308    0.3544   -0.9616 C   0  0  0  0  0  0  0  0  0  0  0  0
    3.6891    1.0676   -1.6877 C   0  0  0  0  0  0  0  0  0  0  0  0
    4.9659    1.2694   -1.1558 C   0  0  0  0  0  0  0  0  0  0  0  0
    6.1665    2.1646   -2.0690 Cl  0  0  0  0  0  0  0  0  0  0  0  0
    5.2856    0.7533    0.1034 C   0  0  0  0  0  0  0  0  0  0  0  0
    4.3298    0.0397    0.8330 C   0  0  0  0  0  0  0  0  0  0  0  0
   -4.7431    4.3344    0.2428 H   0  0  0  0  0  0  0  0  0  0  0  0
   -4.7679    2.7019    1.0094 H   0  0  0  0  0  0  0  0  0  0  0  0
   -4.4062    2.8777   -0.7662 H   0  0  0  0  0  0  0  0  0  0  0  0
   -0.3250    3.6954    1.0830 H   0  0  0  0  0  0  0  0  0  0  0  0
    1.3453    1.8681    1.2397 H   0  0  0  0  0  0  0  0  0  0  0  0
   -3.4174    0.7980    0.1719 H   0  0  0  0  0  0  0  0  0  0  0  0
   -2.7220   -3.1037    0.5203 H   0  0  0  0  0  0  0  0  0  0  0  0
   -3.6682   -1.5928    0.4409 H   0  0  0  0  0  0  0  0  0  0  0  0
   -2.7125   -4.3523   -1.5029 H   0  0  0  0  0  0  0  0  0  0  0  0
   -0.4958   -3.8287   -0.2059 H   0  0  0  0  0  0  0  0  0  0  0  0
    0.0490   -3.7068    1.5155 H   0  0  0  0  0  0  0  0  0  0  0  0
    1.2002   -3.3810    0.1566 H   0  0  0  0  0  0  0  0  0  0  0  0
    1.7539    0.1981   -1.4011 H   0  0  0  0  0  0  0  0  0  0  0  0
    3.4388    1.4596   -2.6653 H   0  0  0  0  0  0  0  0  0  0  0  0
    6.2739    0.9049    0.5184 H   0  0  0  0  0  0  0  0  0  0  0  0
    4.5972   -0.3470    1.8085 H   0  0  0  0  0  0  0  0  0  0  0  0
  1  2  1  0
  2  3  1  0
  3  4  2  0
  4  5  1  0
  5  6  2  0
  6  7  1  0
  7  8  2  0
  8  3  1  0
  7  9  1  0
  9 10  1  0
 10 11  1  0
 11 12  2  0
 11 13  1  0
  9 14  2  0
 14 15  1  0
 14 16  1  0
 16  6  1  0
 16 17  1  0
 17 18  2  0
 17 19  1  0
 19 20  2  0
 20 21  1  0
 21 22  2  0
 22 23  1  0
 22 24  1  0
 24 25  2  0
 25 19  1  0
  1 26  1  0
  1 27  1  0
  1 28  1  0
  4 29  1  0
  5 30  1  0
  8 31  1  0
 10 32  1  0
 10 33  1  0
 13 34  1  0
 15 35  1  0
 15 36  1  0
 15 37  1  0
 20 38  1  0
 21 39  1  0
 24 40  1  0
 25 41  1  0
M  END
> <ID>
HT1096

> <Class>
1.0

> <Clusters>
56

> <Fold>
3

$$$$