
     RDKit          3D

 12 11  0  0  0  0  0  0  0  0999 V2000
    2.7416    0.8855    0.9366 F   0  0  0  0  0  0  0  0  0  0  0  0
    1.7755    0.5849   -0.0040 C   0  0  0  0  0  0  0  0  0  0  0  0
    2.2546   -0.4269   -0.8187 F   0  0  0  0  0  0  0  0  0  0  0  0
    0.6091    0.1546    0.6660 O   0  0  0  0  0  0  0  0  0  0  0  0
   -0.4995    0.1488   -0.2146 C   0  0  0  0  0  0  0  0  0  0  0  0
   -1.2538    1.7716   -0.2415 Cl  0  0  0  0  0  0  0  0  0  0  0  0
   -1.5171   -0.8811    0.2744 C   0  0  0  0  0  0  0  0  0  0  0  0
   -1.9358   -0.5696    1.5563 F   0  0  0  0  0  0  0  0  0  0  0  0
   -0.9384   -2.1376    0.2830 F   0  0  0  0  0  0  0  0  0  0  0  0
   -2.6136   -0.9008   -0.5693 F   0  0  0  0  0  0  0  0  0  0  0  0
    1.5957    1.5013   -0.6104 H   0  0  0  0  0  0  0  0  0  0  0  0
   -0.2182   -0.1306   -1.2579 H   0  0  0  0  0  0  0  0  0  0  0  0
  1  2  1  0
  2  3  1  0
  2  4  1  0
  4  5  1  0
  5  6  1  0
  5  7  1  0
  7  8  1  0
  7  9  1  0
  7 10  1  0
  2 11  1  0
  5 12  1  0
M  END
> <ID>
HT1132

> <Class>
1.0

> <Clusters>
136

> <Fold>
3

$$$$