
     RDKit          3D

 60 62  0  0  0  0  0  0  0  0999 V2000
   -5.2922   -3.0302   -2.7833 C   0  0  0  0  0  0  0  0  0  0  0  0
   -6.3789   -2.0318   -2.3841 C   0  0  0  0  0  0  0  0  0  0  0  0
   -5.8057   -0.7162   -1.8402 C   0  0  0  0  0  0  0  0  0  0  0  0
   -5.0503   -0.9020   -0.5172 C   0  0  0  0  0  0  0  0  0  0  0  0
   -4.6556    0.4272    0.0501 C   0  0  0  0  0  0  0  0  0  0  0  0
   -5.4626    1.1571    0.7981 O   0  0  0  0  0  0  0  0  0  0  0  0
   -4.8144    2.2451    1.1378 C   0  0  0  0  0  0  0  0  0  0  0  0
   -5.2841    3.2996    1.9161 C   0  0  0  0  0  0  0  0  0  0  0  0
   -4.4205    4.3887    2.1359 C   0  0  0  0  0  0  0  0  0  0  0  0
   -3.1277    4.4042    1.5666 C   0  0  0  0  0  0  0  0  0  0  0  0
   -2.6794    3.3247    0.7846 C   0  0  0  0  0  0  0  0  0  0  0  0
   -3.5488    2.2461    0.6057 C   0  0  0  0  0  0  0  0  0  0  0  0
   -3.4196    1.0637   -0.0992 C   0  0  0  0  0  0  0  0  0  0  0  0
   -2.2608    0.5944   -0.8876 C   0  0  0  0  0  0  0  0  0  0  0  0
   -2.4729    0.0903   -2.0245 O   0  0  0  0  0  0  0  0  0  0  0  0
   -0.8689    0.6835   -0.3824 C   0  0  0  0  0  0  0  0  0  0  0  0
   -0.5997    0.7723    0.9924 C   0  0  0  0  0  0  0  0  0  0  0  0
    0.7155    0.8430    1.4666 C   0  0  0  0  0  0  0  0  0  0  0  0
    0.9312    1.1988    3.5445 I   0  0  0  0  0  0  0  0  0  0  0  0
    1.7960    0.7850    0.5585 C   0  0  0  0  0  0  0  0  0  0  0  0
    3.1377    0.8068    0.9662 O   0  0  0  0  0  0  0  0  0  0  0  0
    3.6848   -0.0866    1.9339 C   0  0  0  0  0  0  0  0  0  0  0  0
    5.1815   -0.2877    1.6783 C   0  0  0  0  0  0  0  0  0  0  0  0
    5.4481   -0.7236    0.2872 N   0  0  0  0  0  0  0  0  0  0  0  0
    5.1835   -2.1706    0.0736 C   0  0  0  0  0  0  0  0  0  0  0  0
    6.2545   -3.1155    0.6427 C   0  0  0  0  0  0  0  0  0  0  0  0
    6.7884   -0.2794   -0.1634 C   0  0  0  0  0  0  0  0  0  0  0  0
    7.0082   -0.5126   -1.6592 C   0  0  0  0  0  0  0  0  0  0  0  0
    1.5242    0.7151   -0.8167 C   0  0  0  0  0  0  0  0  0  0  0  0
    3.0904    0.6591   -2.2343 I   0  0  0  0  0  0  0  0  0  0  0  0
    0.2074    0.6552   -1.2821 C   0  0  0  0  0  0  0  0  0  0  0  0
   -4.5457   -2.5485   -3.4530 H   0  0  0  0  0  0  0  0  0  0  0  0
   -4.7789   -3.4259   -1.8839 H   0  0  0  0  0  0  0  0  0  0  0  0
   -5.7525   -3.8847   -3.3208 H   0  0  0  0  0  0  0  0  0  0  0  0
   -7.0520   -2.4926   -1.6294 H   0  0  0  0  0  0  0  0  0  0  0  0
   -6.9909   -1.8026   -3.2833 H   0  0  0  0  0  0  0  0  0  0  0  0
   -5.1293   -0.2639   -2.5977 H   0  0  0  0  0  0  0  0  0  0  0  0
   -6.6533   -0.0097   -1.6815 H   0  0  0  0  0  0  0  0  0  0  0  0
   -4.1413   -1.5178   -0.6804 H   0  0  0  0  0  0  0  0  0  0  0  0
   -5.6911   -1.4285    0.2222 H   0  0  0  0  0  0  0  0  0  0  0  0
   -6.2825    3.2824    2.3356 H   0  0  0  0  0  0  0  0  0  0  0  0
   -4.7518    5.2234    2.7396 H   0  0  0  0  0  0  0  0  0  0  0  0
   -2.4780    5.2544    1.7300 H   0  0  0  0  0  0  0  0  0  0  0  0
   -1.6940    3.3407    0.3367 H   0  0  0  0  0  0  0  0  0  0  0  0
   -1.4121    0.7905    1.7063 H   0  0  0  0  0  0  0  0  0  0  0  0
    3.1490   -1.0593    1.9118 H   0  0  0  0  0  0  0  0  0  0  0  0
    3.5750    0.3462    2.9466 H   0  0  0  0  0  0  0  0  0  0  0  0
    5.6726    0.6893    1.8874 H   0  0  0  0  0  0  0  0  0  0  0  0
    5.5867   -1.0071    2.4181 H   0  0  0  0  0  0  0  0  0  0  0  0
    5.0752   -2.3660   -1.0137 H   0  0  0  0  0  0  0  0  0  0  0  0
    4.2045   -2.4521    0.5103 H   0  0  0  0  0  0  0  0  0  0  0  0
    5.8992   -4.1622    0.5481 H   0  0  0  0  0  0  0  0  0  0  0  0
    6.4534   -2.9181    1.7139 H   0  0  0  0  0  0  0  0  0  0  0  0
    7.2025   -3.0368    0.0724 H   0  0  0  0  0  0  0  0  0  0  0  0
    7.5957   -0.7661    0.4256 H   0  0  0  0  0  0  0  0  0  0  0  0
    6.8844    0.8166   -0.0027 H   0  0  0  0  0  0  0  0  0  0  0  0
    6.1535   -0.1073   -2.2433 H   0  0  0  0  0  0  0  0  0  0  0  0
    7.9339    0.0085   -1.9818 H   0  0  0  0  0  0  0  0  0  0  0  0
    7.1316   -1.5913   -1.8845 H   0  0  0  0  0  0  0  0  0  0  0  0
    0.0274    0.5851   -2.3503 H   0  0  0  0  0  0  0  0  0  0  0  0
  1  2  1  0
  2  3  1  0
  3  4  1  0
  4  5  1  0
  5  6  1  0
  6  7  1  0
  7  8  2  0
  8  9  1  0
  9 10  2  0
 10 11  1  0
 11 12  2  0
 12  7  1  0
 12 13  1  0
 13  5  2  0
 13 14  1  0
 14 15  2  0
 14 16  1  0
 16 17  2  0
 17 18  1  0
 18 19  1  0
 18 20  2  0
 20 21  1  0
 21 22  1  0
 22 23  1  0
 23 24  1  0
 24 25  1  0
 25 26  1  0
 24 27  1  0
 27 28  1  0
 20 29  1  0
 29 30  1  0
 29 31  2  0
 31 16  1  0
  1 32  1  0
  1 33  1  0
  1 34  1  0
  2 35  1  0
  2 36  1  0
  3 37  1  0
  3 38  1  0
  4 39  1  0
  4 40  1  0
  8 41  1  0
  9 42  1  0
 10 43  1  0
 11 44  1  0
 17 45  1  0
 22 46  1  0
 22 47  1  0
 23 48  1  0
 23 49  1  0
 25 50  1  0
 25 51  1  0
 26 52  1  0
 26 53  1  0
 26 54  1  0
 27 55  1  0
 27 56  1  0
 28 57  1  0
 28 58  1  0
 28 59  1  0
 31 60  1  0
M  END
> <ID>
HT0140

> <Class>
1.0

> <Clusters>
88

> <Fold>
3

$$$$