
     RDKit          3D

 64 68  0  0  0  0  0  0  0  0999 V2000
    9.3153    2.1221   -1.7078 C   0  0  0  0  0  0  0  0  0  0  0  0
    8.6936    0.7817   -1.9528 C   0  0  0  0  0  0  0  0  0  0  0  0
    9.1599    0.0750   -2.8881 O   0  0  0  0  0  0  0  0  0  0  0  0
    7.5804    0.2964   -1.1630 N   0  0  0  0  0  0  0  0  0  0  0  0
    6.9223    1.1816   -0.1805 C   0  0  0  0  0  0  0  0  0  0  0  0
    6.2802    0.3801    0.9578 C   0  0  0  0  0  0  0  0  0  0  0  0
    5.5117   -0.7322    0.4005 N   0  0  0  0  0  0  0  0  0  0  0  0
    6.2325   -1.6610   -0.4664 C   0  0  0  0  0  0  0  0  0  0  0  0
    6.8461   -0.8915   -1.6352 C   0  0  0  0  0  0  0  0  0  0  0  0
    4.0851   -0.8142    0.5788 C   0  0  0  0  0  0  0  0  0  0  0  0
    3.2367   -0.9584   -0.5298 C   0  0  0  0  0  0  0  0  0  0  0  0
    1.8506   -1.0049   -0.3594 C   0  0  0  0  0  0  0  0  0  0  0  0
    1.2910   -0.9215    0.9293 C   0  0  0  0  0  0  0  0  0  0  0  0
   -0.0931   -0.9622    1.1507 O   0  0  0  0  0  0  0  0  0  0  0  0
   -1.0732   -0.9072    0.1164 C   0  0  0  0  0  0  0  0  0  0  0  0
   -2.4778   -0.9734    0.7187 C   0  0  1  0  0  0  0  0  0  0  0  0
   -2.7414    0.1101    1.7231 C   0  0  0  0  0  0  0  0  0  0  0  0
   -4.0866    0.4286    1.5765 O   0  0  0  0  0  0  0  0  0  0  0  0
   -4.4461    0.0203    0.2727 C   0  0  1  0  0  0  0  0  0  0  0  0
   -4.5808    1.2847   -0.6092 C   0  0  0  0  0  0  0  0  0  0  0  0
   -5.7790    2.0579   -0.2779 N   0  0  0  0  0  0  0  0  0  0  0  0
   -6.8158    2.3192   -1.0909 C   0  0  0  0  0  0  0  0  0  0  0  0
   -7.7213    3.0848   -0.3932 C   0  0  0  0  0  0  0  0  0  0  0  0
   -7.2525    3.3153    0.8488 N   0  0  0  0  0  0  0  0  0  0  0  0
   -6.0606    2.6835    0.8815 C   0  0  0  0  0  0  0  0  0  0  0  0
   -3.4319   -0.7984   -0.2806 O   0  0  0  0  0  0  0  0  0  0  0  0
   -5.7602   -0.7746    0.2599 C   0  0  0  0  0  0  0  0  0  0  0  0
   -6.1348   -1.3761   -0.9617 C   0  0  0  0  0  0  0  0  0  0  0  0
   -7.3244   -2.0945   -1.0819 C   0  0  0  0  0  0  0  0  0  0  0  0
   -8.1720   -2.2298    0.0137 C   0  0  0  0  0  0  0  0  0  0  0  0
   -9.6712   -3.1257   -0.1408 Cl  0  0  0  0  0  0  0  0  0  0  0  0
   -7.8275   -1.6508    1.2347 C   0  0  0  0  0  0  0  0  0  0  0  0
   -6.6366   -0.9245    1.3762 C   0  0  0  0  0  0  0  0  0  0  0  0
   -6.3607   -0.2104    2.9641 Cl  0  0  0  0  0  0  0  0  0  0  0  0
    2.1402   -0.7915    2.0342 C   0  0  0  0  0  0  0  0  0  0  0  0
    3.5259   -0.7287    1.8621 C   0  0  0  0  0  0  0  0  0  0  0  0
   10.0991    2.3271   -2.4638 H   0  0  0  0  0  0  0  0  0  0  0  0
    9.7824    2.1408   -0.7015 H   0  0  0  0  0  0  0  0  0  0  0  0
    8.5466    2.9184   -1.7802 H   0  0  0  0  0  0  0  0  0  0  0  0
    7.6494    1.8832    0.2806 H   0  0  0  0  0  0  0  0  0  0  0  0
    6.1416    1.7804   -0.6999 H   0  0  0  0  0  0  0  0  0  0  0  0
    5.6333    1.0568    1.5560 H   0  0  0  0  0  0  0  0  0  0  0  0
    7.0715   -0.0197    1.6285 H   0  0  0  0  0  0  0  0  0  0  0  0
    7.0439   -2.1453    0.1171 H   0  0  0  0  0  0  0  0  0  0  0  0
    5.5641   -2.4663   -0.8439 H   0  0  0  0  0  0  0  0  0  0  0  0
    6.0440   -0.5694   -2.3314 H   0  0  0  0  0  0  0  0  0  0  0  0
    7.5184   -1.5886   -2.1780 H   0  0  0  0  0  0  0  0  0  0  0  0
    3.6477   -1.0118   -1.5296 H   0  0  0  0  0  0  0  0  0  0  0  0
    1.2257   -1.1028   -1.2359 H   0  0  0  0  0  0  0  0  0  0  0  0
   -0.9425   -1.7718   -0.5693 H   0  0  0  0  0  0  0  0  0  0  0  0
   -0.9527    0.0357   -0.4611 H   0  0  0  0  0  0  0  0  0  0  0  0
   -2.6312   -1.9690    1.1918 H   0  0  0  0  0  0  0  0  0  0  0  0
   -2.1308    1.0203    1.5282 H   0  0  0  0  0  0  0  0  0  0  0  0
   -2.5484   -0.2481    2.7570 H   0  0  0  0  0  0  0  0  0  0  0  0
   -4.6111    0.9935   -1.6823 H   0  0  0  0  0  0  0  0  0  0  0  0
   -3.6854    1.9292   -0.4772 H   0  0  0  0  0  0  0  0  0  0  0  0
   -6.9058    1.9802   -2.1139 H   0  0  0  0  0  0  0  0  0  0  0  0
   -8.6641    3.4603   -0.7674 H   0  0  0  0  0  0  0  0  0  0  0  0
   -5.4115    2.6804    1.7460 H   0  0  0  0  0  0  0  0  0  0  0  0
   -5.5062   -1.2784   -1.8376 H   0  0  0  0  0  0  0  0  0  0  0  0
   -7.5919   -2.5357   -2.0339 H   0  0  0  0  0  0  0  0  0  0  0  0
   -8.4991   -1.7560    2.0763 H   0  0  0  0  0  0  0  0  0  0  0  0
    1.7231   -0.7287    3.0305 H   0  0  0  0  0  0  0  0  0  0  0  0
    4.1662   -0.6245    2.7283 H   0  0  0  0  0  0  0  0  0  0  0  0
  1  2  1  0
  2  3  2  0
  2  4  1  0
  4  5  1  0
  5  6  1  0
  6  7  1  0
  7  8  1  0
  8  9  1  0
  9  4  1  0
  7 10  1  0
 10 11  2  0
 11 12  1  0
 12 13  2  0
 13 14  1  0
 14 15  1  0
 16 15  1  0
 16 17  1  0
 17 18  1  0
 18 19  1  0
 19 20  1  6
 20 21  1  0
 21 22  1  0
 22 23  2  0
 23 24  1  0
 24 25  2  0
 25 21  1  0
 19 26  1  0
 26 16  1  0
 19 27  1  0
 27 28  2  0
 28 29  1  0
 29 30  2  0
 30 31  1  0
 30 32  1  0
 32 33  2  0
 33 27  1  0
 33 34  1  0
 13 35  1  0
 35 36  2  0
 36 10  1  0
  1 37  1  0
  1 38  1  0
  1 39  1  0
  5 40  1  0
  5 41  1  0
  6 42  1  0
  6 43  1  0
  8 44  1  0
  8 45  1  0
  9 46  1  0
  9 47  1  0
 11 48  1  0
 12 49  1  0
 15 50  1  0
 15 51  1  0
 16 52  1  1
 17 53  1  0
 17 54  1  0
 20 55  1  0
 20 56  1  0
 22 57  1  0
 23 58  1  0
 25 59  1  0
 28 60  1  0
 29 61  1  0
 32 62  1  0
 35 63  1  0
 36 64  1  0
M  END
> <ID>
HT1159

> <Class>
1.0

> <Clusters>
140

> <Fold>
3

$$$$