
     RDKit          3D

 40 44  0  0  0  0  0  0  0  0999 V2000
    3.7744   -0.2329    0.9464 C   0  0  0  0  0  0  0  0  0  0  0  0
    2.3612   -0.6427    0.9884 N   0  0  0  0  0  0  0  0  0  0  0  0
    1.5985    0.1435    1.9812 C   0  0  0  0  0  0  0  0  0  0  0  0
    0.1432   -0.3562    2.0949 C   0  0  0  0  0  0  0  0  0  0  0  0
   -0.5353   -0.4990    0.7080 C   0  0  1  0  0  0  0  0  0  0  0  0
    0.3412   -1.4018   -0.1795 C   0  0  1  0  0  0  0  0  0  0  0  0
   -0.3616   -1.7350   -1.5020 C   0  0  0  0  0  0  0  0  0  0  0  0
   -1.6347   -2.5428   -1.2351 C   0  0  0  0  0  0  0  0  0  0  0  0
   -2.5029   -1.9752   -0.1331 C   0  0  0  0  0  0  0  0  0  0  0  0
   -3.6334   -2.4204   -0.0078 O   0  0  0  0  0  0  0  0  0  0  0  0
   -2.0444   -0.9086    0.8436 C   0  0  2  0  0  0  0  0  0  0  0  0
   -2.7798    0.2954    0.5859 O   0  0  0  0  0  0  0  0  0  0  0  0
   -1.9432    1.2671    0.0746 C   0  0  0  0  0  0  0  0  0  0  0  0
   -2.3049    2.4850   -0.5064 C   0  0  0  0  0  0  0  0  0  0  0  0
   -3.6178    2.9475   -0.4706 O   0  0  0  0  0  0  0  0  0  0  0  0
   -1.3042    3.2249   -1.1659 C   0  0  0  0  0  0  0  0  0  0  0  0
    0.0016    2.7010   -1.2903 C   0  0  0  0  0  0  0  0  0  0  0  0
    0.3271    1.4695   -0.6890 C   0  0  0  0  0  0  0  0  0  0  0  0
    1.5940    0.7187   -1.0355 C   0  0  0  0  0  0  0  0  0  0  0  0
    1.7154   -0.6925   -0.3501 C   0  0  1  0  0  0  0  0  0  0  0  0
   -0.6518    0.8424    0.0768 C   0  0  0  0  0  0  0  0  0  0  0  0
    4.3068   -0.7304    0.1076 H   0  0  0  0  0  0  0  0  0  0  0  0
    3.8820    0.8683    0.8489 H   0  0  0  0  0  0  0  0  0  0  0  0
    4.2750   -0.5460    1.8869 H   0  0  0  0  0  0  0  0  0  0  0  0
    1.6113    1.2255    1.7246 H   0  0  0  0  0  0  0  0  0  0  0  0
    2.0745    0.0397    2.9811 H   0  0  0  0  0  0  0  0  0  0  0  0
   -0.4318    0.3480    2.7365 H   0  0  0  0  0  0  0  0  0  0  0  0
    0.1448   -1.3452    2.6041 H   0  0  0  0  0  0  0  0  0  0  0  0
    0.5196   -2.3670    0.3496 H   0  0  0  0  0  0  0  0  0  0  0  0
    0.3172   -2.3369   -2.1442 H   0  0  0  0  0  0  0  0  0  0  0  0
   -0.6233   -0.8129   -2.0638 H   0  0  0  0  0  0  0  0  0  0  0  0
   -1.3602   -3.5851   -0.9637 H   0  0  0  0  0  0  0  0  0  0  0  0
   -2.2247   -2.5839   -2.1763 H   0  0  0  0  0  0  0  0  0  0  0  0
   -2.2642   -1.2567    1.8768 H   0  0  0  0  0  0  0  0  0  0  0  0
   -4.3504    2.4221   -0.0083 H   0  0  0  0  0  0  0  0  0  0  0  0
   -1.5516    4.1668   -1.6385 H   0  0  0  0  0  0  0  0  0  0  0  0
    0.7346    3.2252   -1.8902 H   0  0  0  0  0  0  0  0  0  0  0  0
    2.4702    1.3598   -0.8189 H   0  0  0  0  0  0  0  0  0  0  0  0
    1.5908    0.5592   -2.1356 H   0  0  0  0  0  0  0  0  0  0  0  0
    2.3365   -1.3384   -1.0110 H   0  0  0  0  0  0  0  0  0  0  0  0
  1  2  1  0
  2  3  1  0
  3  4  1  0
  5  4  1  1
  5  6  1  0
  6  7  1  0
  7  8  1  0
  8  9  1  0
  9 10  2  0
  9 11  1  0
 11  5  1  0
 11 12  1  0
 12 13  1  0
 13 14  2  0
 14 15  1  0
 14 16  1  0
 16 17  2  0
 17 18  1  0
 18 19  1  0
 20 19  1  0
 20  2  1  0
 20  6  1  0
 18 21  2  0
 21  5  1  0
 21 13  1  0
  1 22  1  0
  1 23  1  0
  1 24  1  0
  3 25  1  0
  3 26  1  0
  4 27  1  0
  4 28  1  0
  6 29  1  1
  7 30  1  0
  7 31  1  0
  8 32  1  0
  8 33  1  0
 11 34  1  1
 15 35  1  0
 16 36  1  0
 17 37  1  0
 19 38  1  0
 19 39  1  0
 20 40  1  6
M  END
> <ID>
HT1057

> <Class>
1.0

> <Clusters>
175

> <Fold>
3

$$$$