
     RDKit          3D

 66 70  0  0  0  0  0  0  0  0999 V2000
  -10.7215    2.8823   -0.8433 C   0  0  0  0  0  0  0  0  0  0  0  0
  -10.3807    1.6463    0.3917 S   0  0  0  0  0  0  0  0  0  0  0  0
  -11.4504    0.5910    0.3339 O   0  0  0  0  0  0  0  0  0  0  0  0
  -10.3905    2.2850    1.7532 O   0  0  0  0  0  0  0  0  0  0  0  0
   -8.7933    0.8816    0.0938 C   0  0  0  0  0  0  0  0  0  0  0  0
   -7.6441    1.8758    0.3265 C   0  0  0  0  0  0  0  0  0  0  0  0
   -6.3287    1.3031   -0.0008 N   0  0  0  0  0  0  0  0  0  0  0  0
   -5.9072    0.2850    0.9689 C   0  0  0  0  0  0  0  0  0  0  0  0
   -4.4432    0.0241    0.8198 C   0  0  0  0  0  0  0  0  0  0  0  0
   -3.9320   -1.1405    0.4965 O   0  0  0  0  0  0  0  0  0  0  0  0
   -2.6214   -1.0322    0.4674 C   0  0  0  0  0  0  0  0  0  0  0  0
   -2.2585    0.2702    0.7809 C   0  0  0  0  0  0  0  0  0  0  0  0
   -3.4369    0.9485    1.0090 C   0  0  0  0  0  0  0  0  0  0  0  0
   -1.7157   -2.1618    0.1486 C   0  0  0  0  0  0  0  0  0  0  0  0
   -2.2616   -3.3833   -0.2788 C   0  0  0  0  0  0  0  0  0  0  0  0
   -1.4329   -4.4635   -0.5874 C   0  0  0  0  0  0  0  0  0  0  0  0
   -0.0468   -4.3455   -0.4602 C   0  0  0  0  0  0  0  0  0  0  0  0
    0.7508   -5.3987   -0.7736 N   0  0  0  0  0  0  0  0  0  0  0  0
    2.0993   -5.3120   -0.6605 C   0  0  0  0  0  0  0  0  0  0  0  0
    2.6730   -4.1652   -0.2177 N   0  0  0  0  0  0  0  0  0  0  0  0
    1.9304   -3.0725    0.1103 C   0  0  0  0  0  0  0  0  0  0  0  0
    2.5900   -1.9074    0.6365 N   0  0  0  0  0  0  0  0  0  0  0  0
    3.9249   -1.5206    0.2661 C   0  0  0  0  0  0  0  0  0  0  0  0
    4.7112   -0.7977    1.1733 C   0  0  0  0  0  0  0  0  0  0  0  0
    6.0062   -0.4002    0.8318 C   0  0  0  0  0  0  0  0  0  0  0  0
    6.5339   -0.7056   -0.4370 C   0  0  0  0  0  0  0  0  0  0  0  0
    7.8325   -0.3311   -0.8219 O   0  0  0  0  0  0  0  0  0  0  0  0
    8.7258    0.4766   -0.0547 C   0  0  0  0  0  0  0  0  0  0  0  0
    8.2527    1.9057   -0.0144 C   0  0  0  0  0  0  0  0  0  0  0  0
    7.9941    2.5936   -1.2104 C   0  0  0  0  0  0  0  0  0  0  0  0
    7.5568    3.9211   -1.1792 C   0  0  0  0  0  0  0  0  0  0  0  0
    7.3803    4.5726    0.0448 C   0  0  0  0  0  0  0  0  0  0  0  0
    7.6454    3.8975    1.2403 C   0  0  0  0  0  0  0  0  0  0  0  0
    7.4772    4.5265    2.4281 F   0  0  0  0  0  0  0  0  0  0  0  0
    8.0831    2.5701    1.2118 C   0  0  0  0  0  0  0  0  0  0  0  0
    5.7397   -1.4120   -1.3528 C   0  0  0  0  0  0  0  0  0  0  0  0
    6.3567   -1.7964   -2.9521 Cl  0  0  0  0  0  0  0  0  0  0  0  0
    4.4432   -1.8099   -1.0074 C   0  0  0  0  0  0  0  0  0  0  0  0
    0.5240   -3.1343   -0.0109 C   0  0  0  0  0  0  0  0  0  0  0  0
   -0.3182   -2.0418    0.2759 C   0  0  0  0  0  0  0  0  0  0  0  0
  -10.6099    2.4394   -1.8549 H   0  0  0  0  0  0  0  0  0  0  0  0
  -11.7604    3.2532   -0.7179 H   0  0  0  0  0  0  0  0  0  0  0  0
  -10.0158    3.7317   -0.7302 H   0  0  0  0  0  0  0  0  0  0  0  0
   -8.6976    0.0192    0.7830 H   0  0  0  0  0  0  0  0  0  0  0  0
   -8.7708    0.5099   -0.9522 H   0  0  0  0  0  0  0  0  0  0  0  0
   -7.6569    2.2363    1.3792 H   0  0  0  0  0  0  0  0  0  0  0  0
   -7.7995    2.7629   -0.3223 H   0  0  0  0  0  0  0  0  0  0  0  0
   -6.3641    0.8721   -0.9544 H   0  0  0  0  0  0  0  0  0  0  0  0
   -6.0923    0.6260    2.0110 H   0  0  0  0  0  0  0  0  0  0  0  0
   -6.4617   -0.6635    0.7990 H   0  0  0  0  0  0  0  0  0  0  0  0
   -1.2645    0.6913    0.8335 H   0  0  0  0  0  0  0  0  0  0  0  0
   -3.5481    1.9907    1.2779 H   0  0  0  0  0  0  0  0  0  0  0  0
   -3.3330   -3.5000   -0.3852 H   0  0  0  0  0  0  0  0  0  0  0  0
   -1.8713   -5.3939   -0.9276 H   0  0  0  0  0  0  0  0  0  0  0  0
    2.7183   -6.1611   -0.9151 H   0  0  0  0  0  0  0  0  0  0  0  0
    2.1406   -1.4023    1.4325 H   0  0  0  0  0  0  0  0  0  0  0  0
    4.3239   -0.5512    2.1544 H   0  0  0  0  0  0  0  0  0  0  0  0
    6.5865    0.1386    1.5658 H   0  0  0  0  0  0  0  0  0  0  0  0
    9.7221    0.4542   -0.5442 H   0  0  0  0  0  0  0  0  0  0  0  0
    8.8542    0.0474    0.9631 H   0  0  0  0  0  0  0  0  0  0  0  0
    8.1270    2.0983   -2.1651 H   0  0  0  0  0  0  0  0  0  0  0  0
    7.3535    4.4445   -2.1056 H   0  0  0  0  0  0  0  0  0  0  0  0
    7.0415    5.6004    0.0634 H   0  0  0  0  0  0  0  0  0  0  0  0
    8.2869    2.0604    2.1442 H   0  0  0  0  0  0  0  0  0  0  0  0
    3.8379   -2.3290   -1.7397 H   0  0  0  0  0  0  0  0  0  0  0  0
    0.1057   -1.1002    0.5901 H   0  0  0  0  0  0  0  0  0  0  0  0
  1  2  1  0
  2  3  2  0
  2  4  2  0
  2  5  1  0
  5  6  1  0
  6  7  1  0
  7  8  1  0
  8  9  1  0
  9 10  1  0
 10 11  1  0
 11 12  2  0
 12 13  1  0
 13  9  2  0
 11 14  1  0
 14 15  2  0
 15 16  1  0
 16 17  2  0
 17 18  1  0
 18 19  2  0
 19 20  1  0
 20 21  2  0
 21 22  1  0
 22 23  1  0
 23 24  2  0
 24 25  1  0
 25 26  2  0
 26 27  1  0
 27 28  1  0
 28 29  1  0
 29 30  2  0
 30 31  1  0
 31 32  2  0
 32 33  1  0
 33 34  1  0
 33 35  2  0
 35 29  1  0
 26 36  1  0
 36 37  1  0
 36 38  2  0
 38 23  1  0
 21 39  1  0
 39 17  1  0
 39 40  2  0
 40 14  1  0
  1 41  1  0
  1 42  1  0
  1 43  1  0
  5 44  1  0
  5 45  1  0
  6 46  1  0
  6 47  1  0
  7 48  1  0
  8 49  1  0
  8 50  1  0
 12 51  1  0
 13 52  1  0
 15 53  1  0
 16 54  1  0
 19 55  1  0
 22 56  1  0
 24 57  1  0
 25 58  1  0
 28 59  1  0
 28 60  1  0
 30 61  1  0
 31 62  1  0
 32 63  1  0
 35 64  1  0
 38 65  1  0
 40 66  1  0
M  END
> <ID>
HT1171

> <Class>
1.0

> <Clusters>
118

> <Fold>
3

$$$$