
     RDKit          3D

 87 93  0  0  0  0  0  0  0  0999 V2000
   12.3247    1.7529   -1.5179 C   0  0  0  0  0  0  0  0  0  0  0  0
   13.1457    0.6521   -0.8477 C   0  0  0  0  0  0  0  0  0  0  0  0
   12.4237   -0.7072   -0.8872 C   0  0  0  0  0  0  0  0  0  0  0  0
   13.3270   -1.8178   -0.3435 C   0  0  0  0  0  0  0  0  0  0  0  0
   11.1814   -0.6498   -0.1091 N   0  0  0  0  0  0  0  0  0  0  0  0
   11.1232   -0.4499    1.1995 N   0  0  0  0  0  0  0  0  0  0  0  0
    9.8115   -0.4056    1.5191 C   0  0  0  0  0  0  0  0  0  0  0  0
    9.0253   -0.5747    0.4307 N   0  0  0  0  0  0  0  0  0  0  0  0
    9.9188   -0.7205   -0.5689 C   0  0  0  0  0  0  0  0  0  0  0  0
    9.6158   -0.8498   -1.7859 O   0  0  0  0  0  0  0  0  0  0  0  0
    7.5859   -0.5290    0.3716 C   0  0  0  0  0  0  0  0  0  0  0  0
    6.8671    0.2588    1.2852 C   0  0  0  0  0  0  0  0  0  0  0  0
    5.4734    0.3164    1.2335 C   0  0  0  0  0  0  0  0  0  0  0  0
    4.7600   -0.4131    0.2656 C   0  0  0  0  0  0  0  0  0  0  0  0
    5.4811   -1.2006   -0.6508 C   0  0  0  0  0  0  0  0  0  0  0  0
    6.8772   -1.2623   -0.5938 C   0  0  0  0  0  0  0  0  0  0  0  0
    3.3157   -0.3417    0.2094 N   0  0  0  0  0  0  0  0  0  0  0  0
    2.6392    0.9312    0.5127 C   0  0  0  0  0  0  0  0  0  0  0  0
    1.1874    0.9254    0.0290 C   0  0  0  0  0  0  0  0  0  0  0  0
    0.4979   -0.2741    0.5232 N   0  0  0  0  0  0  0  0  0  0  0  0
    1.1930   -1.5727    0.4936 C   0  0  0  0  0  0  0  0  0  0  0  0
    2.5258   -1.4920   -0.2610 C   0  0  0  0  0  0  0  0  0  0  0  0
   -0.8489   -0.1828    1.0428 C   0  0  0  0  0  0  0  0  0  0  0  0
   -1.2602   -0.9789    2.1287 C   0  0  0  0  0  0  0  0  0  0  0  0
   -2.5558   -0.8685    2.6407 C   0  0  0  0  0  0  0  0  0  0  0  0
   -3.4678    0.0367    2.0885 C   0  0  0  0  0  0  0  0  0  0  0  0
   -4.7439    0.1262    2.6687 O   0  0  0  0  0  0  0  0  0  0  0  0
   -5.7931    0.9965    2.2420 C   0  0  0  0  0  0  0  0  0  0  0  0
   -6.5046    0.4457    0.9986 C   0  0  1  0  0  0  0  0  0  0  0  0
   -7.0947   -0.9200    1.2219 C   0  0  0  0  0  0  0  0  0  0  0  0
   -8.3329   -0.9066    0.5910 O   0  0  0  0  0  0  0  0  0  0  0  0
   -8.7013    0.4562    0.4844 C   0  0  1  0  0  0  0  0  0  0  0  0
   -9.7294    0.7725    1.5959 C   0  0  0  0  0  0  0  0  0  0  0  0
  -10.9728    0.0292    1.3953 N   0  0  0  0  0  0  0  0  0  0  0  0
  -12.1792    0.5408    1.1001 C   0  0  0  0  0  0  0  0  0  0  0  0
  -13.1017   -0.4325    0.9728 N   0  0  0  0  0  0  0  0  0  0  0  0
  -12.3794   -1.5508    1.2113 C   0  0  0  0  0  0  0  0  0  0  0  0
  -11.0844   -1.2846    1.4705 N   0  0  0  0  0  0  0  0  0  0  0  0
   -7.5667    1.2822    0.6580 O   0  0  0  0  0  0  0  0  0  0  0  0
   -9.3151    0.7355   -0.8926 C   0  0  0  0  0  0  0  0  0  0  0  0
   -9.7165   -0.3394   -1.7177 C   0  0  0  0  0  0  0  0  0  0  0  0
  -10.3177   -0.1097   -2.9570 C   0  0  0  0  0  0  0  0  0  0  0  0
  -10.5334    1.1943   -3.4015 C   0  0  0  0  0  0  0  0  0  0  0  0
  -11.3012    1.4757   -4.9538 Cl  0  0  0  0  0  0  0  0  0  0  0  0
  -10.1474    2.2729   -2.6062 C   0  0  0  0  0  0  0  0  0  0  0  0
   -9.5456    2.0595   -1.3591 C   0  0  0  0  0  0  0  0  0  0  0  0
   -9.1021    3.4929   -0.4355 Cl  0  0  0  0  0  0  0  0  0  0  0  0
   -3.0690    0.8249    0.9924 C   0  0  0  0  0  0  0  0  0  0  0  0
   -1.7757    0.7093    0.4726 C   0  0  0  0  0  0  0  0  0  0  0  0
   12.8986    2.7043   -1.5060 H   0  0  0  0  0  0  0  0  0  0  0  0
   11.3693    1.9143   -0.9759 H   0  0  0  0  0  0  0  0  0  0  0  0
   12.1036    1.4827   -2.5726 H   0  0  0  0  0  0  0  0  0  0  0  0
   14.1188    0.5714   -1.3812 H   0  0  0  0  0  0  0  0  0  0  0  0
   13.3548    0.9433    0.2048 H   0  0  0  0  0  0  0  0  0  0  0  0
   12.1934   -0.9524   -1.9476 H   0  0  0  0  0  0  0  0  0  0  0  0
   12.7896   -2.7902   -0.3755 H   0  0  0  0  0  0  0  0  0  0  0  0
   14.2454   -1.9041   -0.9642 H   0  0  0  0  0  0  0  0  0  0  0  0
   13.6219   -1.6044    0.7075 H   0  0  0  0  0  0  0  0  0  0  0  0
    9.4464   -0.2584    2.5263 H   0  0  0  0  0  0  0  0  0  0  0  0
    7.3856    0.8454    2.0316 H   0  0  0  0  0  0  0  0  0  0  0  0
    4.9553    0.9270    1.9589 H   0  0  0  0  0  0  0  0  0  0  0  0
    4.9677   -1.7570   -1.4233 H   0  0  0  0  0  0  0  0  0  0  0  0
    7.3965   -1.8998   -1.2942 H   0  0  0  0  0  0  0  0  0  0  0  0
    2.6473    1.0999    1.6115 H   0  0  0  0  0  0  0  0  0  0  0  0
    3.1744    1.7712    0.0170 H   0  0  0  0  0  0  0  0  0  0  0  0
    0.6924    1.8523    0.3928 H   0  0  0  0  0  0  0  0  0  0  0  0
    1.1687    0.9280   -1.0817 H   0  0  0  0  0  0  0  0  0  0  0  0
    0.5465   -2.3332    0.0048 H   0  0  0  0  0  0  0  0  0  0  0  0
    1.4077   -1.9011    1.5325 H   0  0  0  0  0  0  0  0  0  0  0  0
    3.0784   -2.4420   -0.0895 H   0  0  0  0  0  0  0  0  0  0  0  0
    2.3360   -1.3857   -1.3519 H   0  0  0  0  0  0  0  0  0  0  0  0
   -0.5794   -1.6726    2.6023 H   0  0  0  0  0  0  0  0  0  0  0  0
   -2.8481   -1.4799    3.4855 H   0  0  0  0  0  0  0  0  0  0  0  0
   -5.4010    2.0186    2.0528 H   0  0  0  0  0  0  0  0  0  0  0  0
   -6.5297    1.0844    3.0688 H   0  0  0  0  0  0  0  0  0  0  0  0
   -5.7998    0.4091    0.1405 H   0  0  0  0  0  0  0  0  0  0  0  0
   -7.2444   -1.1443    2.3017 H   0  0  0  0  0  0  0  0  0  0  0  0
   -6.4514   -1.7064    0.7717 H   0  0  0  0  0  0  0  0  0  0  0  0
   -9.9440    1.8609    1.6270 H   0  0  0  0  0  0  0  0  0  0  0  0
   -9.3043    0.5031    2.5860 H   0  0  0  0  0  0  0  0  0  0  0  0
  -12.3862    1.5953    0.9718 H   0  0  0  0  0  0  0  0  0  0  0  0
  -12.7933   -2.5501    1.1916 H   0  0  0  0  0  0  0  0  0  0  0  0
   -9.5870   -1.3662   -1.4026 H   0  0  0  0  0  0  0  0  0  0  0  0
  -10.6239   -0.9489   -3.5685 H   0  0  0  0  0  0  0  0  0  0  0  0
  -10.3209    3.2833   -2.9563 H   0  0  0  0  0  0  0  0  0  0  0  0
   -3.7448    1.5329    0.5337 H   0  0  0  0  0  0  0  0  0  0  0  0
   -1.5009    1.3162   -0.3811 H   0  0  0  0  0  0  0  0  0  0  0  0
  1  2  1  0
  2  3  1  0
  3  4  1  0
  3  5  1  0
  5  6  1  0
  6  7  2  0
  7  8  1  0
  8  9  1  0
  9  5  1  0
  9 10  2  0
  8 11  1  0
 11 12  2  0
 12 13  1  0
 13 14  2  0
 14 15  1  0
 15 16  2  0
 16 11  1  0
 14 17  1  0
 17 18  1  0
 18 19  1  0
 19 20  1  0
 20 21  1  0
 21 22  1  0
 22 17  1  0
 20 23  1  0
 23 24  2  0
 24 25  1  0
 25 26  2  0
 26 27  1  0
 27 28  1  0
 29 28  1  0
 29 30  1  0
 30 31  1  0
 31 32  1  0
 32 33  1  1
 33 34  1  0
 34 35  1  0
 35 36  2  0
 36 37  1  0
 37 38  2  0
 38 34  1  0
 32 39  1  0
 39 29  1  0
 32 40  1  0
 40 41  2  0
 41 42  1  0
 42 43  2  0
 43 44  1  0
 43 45  1  0
 45 46  2  0
 46 40  1  0
 46 47  1  0
 26 48  1  0
 48 49  2  0
 49 23  1  0
  1 50  1  0
  1 51  1  0
  1 52  1  0
  2 53  1  0
  2 54  1  0
  3 55  1  0
  4 56  1  0
  4 57  1  0
  4 58  1  0
  7 59  1  0
 12 60  1  0
 13 61  1  0
 15 62  1  0
 16 63  1  0
 18 64  1  0
 18 65  1  0
 19 66  1  0
 19 67  1  0
 21 68  1  0
 21 69  1  0
 22 70  1  0
 22 71  1  0
 24 72  1  0
 25 73  1  0
 28 74  1  0
 28 75  1  0
 29 76  1  6
 30 77  1  0
 30 78  1  0
 33 79  1  0
 33 80  1  0
 35 81  1  0
 37 82  1  0
 41 83  1  0
 42 84  1  0
 45 85  1  0
 48 86  1  0
 49 87  1  0
M  END
> <ID>
HT1147

> <Class>
1.0

> <Clusters>
140

> <Fold>
3

$$$$