
     RDKit          3D

 41 44  0  0  0  0  0  0  0  0999 V2000
   -4.0484   -2.2930    0.0629 C   0  0  0  0  0  0  0  0  0  0  0  0
   -2.7478   -1.6096    0.0076 N   0  0  0  0  0  0  0  0  0  0  0  0
   -2.1690   -1.7239   -1.3534 C   0  0  0  0  0  0  0  0  0  0  0  0
   -0.7201   -1.1928   -1.3891 C   0  0  0  0  0  0  0  0  0  0  0  0
   -0.6145    0.0937   -0.6236 C   0  0  0  0  0  0  0  0  0  0  0  0
   -1.6106    0.5292    0.2244 C   0  0  0  0  0  0  0  0  0  0  0  0
   -2.9085   -0.1911    0.4039 C   0  0  0  0  0  0  0  0  0  0  0  0
   -1.1575    1.7042    0.7796 C   0  0  0  0  0  0  0  0  0  0  0  0
   -1.7495    2.5717    1.6953 C   0  0  0  0  0  0  0  0  0  0  0  0
   -1.0145    3.7000    2.0975 C   0  0  0  0  0  0  0  0  0  0  0  0
    0.2800    3.9311    1.5842 C   0  0  0  0  0  0  0  0  0  0  0  0
    0.8538    3.0384    0.6605 C   0  0  0  0  0  0  0  0  0  0  0  0
    0.1037    1.9232    0.2692 C   0  0  0  0  0  0  0  0  0  0  0  0
    0.4484    0.9383   -0.5967 N   0  0  0  0  0  0  0  0  0  0  0  0
    1.7198    0.7637   -1.3062 C   0  0  0  0  0  0  0  0  0  0  0  0
    2.5767   -0.2541   -0.6016 C   0  0  0  0  0  0  0  0  0  0  0  0
    2.8833   -1.4791   -1.2188 C   0  0  0  0  0  0  0  0  0  0  0  0
    3.6706   -2.4248   -0.5548 C   0  0  0  0  0  0  0  0  0  0  0  0
    4.1595   -2.1546    0.7261 C   0  0  0  0  0  0  0  0  0  0  0  0
    3.8624   -0.9375    1.3451 C   0  0  0  0  0  0  0  0  0  0  0  0
    3.0750    0.0107    0.6850 C   0  0  0  0  0  0  0  0  0  0  0  0
   -4.4799   -2.2138    1.0841 H   0  0  0  0  0  0  0  0  0  0  0  0
   -3.9201   -3.3748   -0.1563 H   0  0  0  0  0  0  0  0  0  0  0  0
   -4.7649   -1.8571   -0.6688 H   0  0  0  0  0  0  0  0  0  0  0  0
   -2.7874   -1.1564   -2.0865 H   0  0  0  0  0  0  0  0  0  0  0  0
   -2.1509   -2.7885   -1.6767 H   0  0  0  0  0  0  0  0  0  0  0  0
   -0.0363   -1.9391   -0.9322 H   0  0  0  0  0  0  0  0  0  0  0  0
   -0.4205   -1.0300   -2.4458 H   0  0  0  0  0  0  0  0  0  0  0  0
   -3.6843    0.3123   -0.2158 H   0  0  0  0  0  0  0  0  0  0  0  0
   -3.2063   -0.1334    1.4733 H   0  0  0  0  0  0  0  0  0  0  0  0
   -2.7405    2.3843    2.0881 H   0  0  0  0  0  0  0  0  0  0  0  0
   -1.4431    4.3948    2.8080 H   0  0  0  0  0  0  0  0  0  0  0  0
    0.8365    4.8021    1.9048 H   0  0  0  0  0  0  0  0  0  0  0  0
    1.8474    3.2223    0.2769 H   0  0  0  0  0  0  0  0  0  0  0  0
    2.2699    1.7242   -1.3776 H   0  0  0  0  0  0  0  0  0  0  0  0
    1.5128    0.4507   -2.3523 H   0  0  0  0  0  0  0  0  0  0  0  0
    2.5086   -1.7058   -2.2092 H   0  0  0  0  0  0  0  0  0  0  0  0
    3.9010   -3.3680   -1.0331 H   0  0  0  0  0  0  0  0  0  0  0  0
    4.7686   -2.8879    1.2387 H   0  0  0  0  0  0  0  0  0  0  0  0
    4.2423   -0.7287    2.3368 H   0  0  0  0  0  0  0  0  0  0  0  0
    2.8543    0.9490    1.1770 H   0  0  0  0  0  0  0  0  0  0  0  0
  1  2  1  0
  2  3  1  0
  3  4  1  0
  4  5  1  0
  5  6  2  0
  6  7  1  0
  7  2  1  0
  6  8  1  0
  8  9  2  0
  9 10  1  0
 10 11  2  0
 11 12  1  0
 12 13  2  0
 13  8  1  0
 13 14  1  0
 14  5  1  0
 14 15  1  0
 15 16  1  0
 16 17  2  0
 17 18  1  0
 18 19  2  0
 19 20  1  0
 20 21  2  0
 21 16  1  0
  1 22  1  0
  1 23  1  0
  1 24  1  0
  3 25  1  0
  3 26  1  0
  4 27  1  0
  4 28  1  0
  7 29  1  0
  7 30  1  0
  9 31  1  0
 10 32  1  0
 11 33  1  0
 12 34  1  0
 15 35  1  0
 15 36  1  0
 17 37  1  0
 18 38  1  0
 19 39  1  0
 20 40  1  0
 21 41  1  0
M  END
> <ID>
HT1277

> <Class>
1.0

> <Clusters>
192

> <Fold>
3

$$$$