
     RDKit          3D

 23 25  0  0  0  0  0  0  0  0999 V2000
   -4.9000    0.2175    0.3248 O   0  0  0  0  0  0  0  0  0  0  0  0
   -3.5142    0.1882    0.2228 C   0  0  0  0  0  0  0  0  0  0  0  0
   -2.7636   -0.9386   -0.0398 C   0  0  0  0  0  0  0  0  0  0  0  0
   -1.4789   -0.5544   -0.0577 N   0  0  0  0  0  0  0  0  0  0  0  0
   -0.2902   -1.3713   -0.2930 C   0  0  0  0  0  0  0  0  0  0  0  0
    0.9940   -0.5526   -0.2297 C   0  0  0  0  0  0  0  0  0  0  0  0
    2.2412   -1.1852   -0.4347 C   0  0  0  0  0  0  0  0  0  0  0  0
    2.3230   -2.9188   -0.7639 Cl  0  0  0  0  0  0  0  0  0  0  0  0
    3.4285   -0.4330   -0.3770 C   0  0  0  0  0  0  0  0  0  0  0  0
    5.0003   -1.1834   -0.6266 Cl  0  0  0  0  0  0  0  0  0  0  0  0
    3.3775    0.9383   -0.1175 C   0  0  0  0  0  0  0  0  0  0  0  0
    2.1535    1.5724    0.0861 C   0  0  0  0  0  0  0  0  0  0  0  0
    0.9600    0.8433    0.0332 C   0  0  0  0  0  0  0  0  0  0  0  0
   -0.2885    1.5185    0.2462 N   0  0  0  0  0  0  0  0  0  0  0  0
   -1.4904    0.7624    0.1889 C   0  0  0  0  0  0  0  0  0  0  0  0
   -2.7251    1.2754    0.3707 N   0  0  0  0  0  0  0  0  0  0  0  0
   -5.3843    1.0852    0.5205 H   0  0  0  0  0  0  0  0  0  0  0  0
   -3.1211   -1.9471   -0.2031 H   0  0  0  0  0  0  0  0  0  0  0  0
   -0.2497   -2.1728    0.4755 H   0  0  0  0  0  0  0  0  0  0  0  0
   -0.3732   -1.8422   -1.2959 H   0  0  0  0  0  0  0  0  0  0  0  0
    4.2913    1.5172   -0.0732 H   0  0  0  0  0  0  0  0  0  0  0  0
    2.1341    2.6365    0.2861 H   0  0  0  0  0  0  0  0  0  0  0  0
   -0.3244    2.5446    0.4403 H   0  0  0  0  0  0  0  0  0  0  0  0
  1  2  1  0
  2  3  2  0
  3  4  1  0
  4  5  1  0
  5  6  1  0
  6  7  2  0
  7  8  1  0
  7  9  1  0
  9 10  1  0
  9 11  2  0
 11 12  1  0
 12 13  2  0
 13  6  1  0
 13 14  1  0
 14 15  1  0
 15  4  1  0
 15 16  2  0
 16  2  1  0
  1 17  1  0
  3 18  1  0
  5 19  1  0
  5 20  1  0
 11 21  1  0
 12 22  1  0
 14 23  1  0
M  END
> <ID>
HT0157

> <Class>
1.0

> <Clusters>
53

> <Fold>
3

$$$$