
     RDKit          3D

 57 59  0  0  0  0  0  0  0  0999 V2000
    6.0586   -0.0766    3.1170 O   0  0  0  0  0  0  0  0  0  0  0  0
    6.1965    0.3954    1.9567 C   0  0  0  0  0  0  0  0  0  0  0  0
    6.7660    1.6222    1.8011 N   0  0  0  0  0  0  0  0  0  0  0  0
    5.7384   -0.3133    0.8270 C   0  0  0  0  0  0  0  0  0  0  0  0
    5.1228   -1.6216    0.9034 N   0  0  0  0  0  0  0  0  0  0  0  0
    5.8276    0.3213   -0.4201 C   0  0  0  0  0  0  0  0  0  0  0  0
    5.5320   -2.5806    1.8966 C   0  0  0  0  0  0  0  0  0  0  0  0
    4.1799   -2.0156   -0.1611 C   0  0  1  0  0  0  0  0  0  0  0  0
    5.2866   -0.3145   -1.5832 N   0  0  0  0  0  0  0  0  0  0  0  0
    6.3892    1.5528   -0.5212 N   0  0  0  0  0  0  0  0  0  0  0  0
    4.8386   -3.6061    2.1305 O   0  0  0  0  0  0  0  0  0  0  0  0
    2.8277   -1.3052    0.0526 C   0  0  0  0  0  0  0  0  0  0  0  0
    4.7991   -1.6921   -1.5371 C   0  0  0  0  0  0  0  0  0  0  0  0
    6.8690    2.1986    0.5721 C   0  0  0  0  0  0  0  0  0  0  0  0
    1.7800   -1.8596   -0.8098 N   0  0  0  0  0  0  0  0  0  0  0  0
    7.4610    3.4897    0.4281 N   0  0  0  0  0  0  0  0  0  0  0  0
    0.4289   -1.3612   -0.8281 C   0  0  0  0  0  0  0  0  0  0  0  0
   -0.5060   -1.9445   -1.6958 C   0  0  0  0  0  0  0  0  0  0  0  0
    0.0178   -0.2996   -0.0006 C   0  0  0  0  0  0  0  0  0  0  0  0
   -1.8246   -1.4836   -1.7368 C   0  0  0  0  0  0  0  0  0  0  0  0
   -1.3015    0.1614   -0.0408 C   0  0  0  0  0  0  0  0  0  0  0  0
   -2.2404   -0.4317   -0.9029 C   0  0  0  0  0  0  0  0  0  0  0  0
   -3.6417    0.0509   -0.9584 C   0  0  0  0  0  0  0  0  0  0  0  0
   -4.3310   -0.1711   -1.9919 O   0  0  0  0  0  0  0  0  0  0  0  0
   -4.2300    0.7483    0.1529 N   0  0  0  0  0  0  0  0  0  0  0  0
   -5.5763    1.3243    0.0923 C   0  0  1  0  0  0  0  0  0  0  0  0
   -6.6032    0.2957    0.6011 C   0  0  0  0  0  0  0  0  0  0  0  0
   -5.6180    2.5928    0.8999 C   0  0  0  0  0  0  0  0  0  0  0  0
   -8.0494    0.7677    0.3929 C   0  0  0  0  0  0  0  0  0  0  0  0
   -5.3681    2.5712    2.1357 O   0  0  0  0  0  0  0  0  0  0  0  0
   -5.9352    3.7970    0.2791 O   0  0  0  0  0  0  0  0  0  0  0  0
   -9.0222   -0.2848    0.8376 C   0  0  0  0  0  0  0  0  0  0  0  0
   -9.0831   -0.6085    2.0532 O   0  0  0  0  0  0  0  0  0  0  0  0
   -9.8691   -0.9056   -0.0767 O   0  0  0  0  0  0  0  0  0  0  0  0
    7.1143    2.1365    2.6421 H   0  0  0  0  0  0  0  0  0  0  0  0
    6.4479   -2.4367    2.4538 H   0  0  0  0  0  0  0  0  0  0  0  0
    4.0013   -3.1136   -0.1303 H   0  0  0  0  0  0  0  0  0  0  0  0
    5.3017    0.1887   -2.4986 H   0  0  0  0  0  0  0  0  0  0  0  0
    2.5211   -1.4347    1.1134 H   0  0  0  0  0  0  0  0  0  0  0  0
    2.9381   -0.2178   -0.1496 H   0  0  0  0  0  0  0  0  0  0  0  0
    5.6571   -2.3760   -1.7133 H   0  0  0  0  0  0  0  0  0  0  0  0
    4.0648   -1.8563   -2.3540 H   0  0  0  0  0  0  0  0  0  0  0  0
    2.0106   -2.6686   -1.4310 H   0  0  0  0  0  0  0  0  0  0  0  0
    7.5301    3.9355   -0.5134 H   0  0  0  0  0  0  0  0  0  0  0  0
    7.8316    4.0028    1.2585 H   0  0  0  0  0  0  0  0  0  0  0  0
   -0.2126   -2.7607   -2.3442 H   0  0  0  0  0  0  0  0  0  0  0  0
    0.7097    0.1821    0.6764 H   0  0  0  0  0  0  0  0  0  0  0  0
   -2.5226   -1.9589   -2.4149 H   0  0  0  0  0  0  0  0  0  0  0  0
   -1.5743    0.9974    0.5895 H   0  0  0  0  0  0  0  0  0  0  0  0
   -3.7721    0.6727    1.0893 H   0  0  0  0  0  0  0  0  0  0  0  0
   -5.8196    1.5833   -0.9624 H   0  0  0  0  0  0  0  0  0  0  0  0
   -6.4578   -0.6566    0.0443 H   0  0  0  0  0  0  0  0  0  0  0  0
   -6.4237    0.0875    1.6794 H   0  0  0  0  0  0  0  0  0  0  0  0
   -8.2114    0.9965   -0.6825 H   0  0  0  0  0  0  0  0  0  0  0  0
   -8.2389    1.6951    0.9749 H   0  0  0  0  0  0  0  0  0  0  0  0
   -5.9699    4.6605    0.8076 H   0  0  0  0  0  0  0  0  0  0  0  0
   -9.8451   -0.6722   -1.0620 H   0  0  0  0  0  0  0  0  0  0  0  0
  1  2  2  0
  2  3  1  0
  2  4  1  0
  4  5  1  0
  6  4  2  0
  5  7  1  0
  5  8  1  0
  9  6  1  0
  6 10  1  0
  7 11  2  0
  8 12  1  0
  8 13  1  0
 13  9  1  0
 10 14  2  0
 12 15  1  0
 16 14  1  0
 14  3  1  0
 15 17  1  0
 17 18  2  0
 19 17  1  0
 18 20  1  0
 21 19  2  0
 20 22  2  0
 22 21  1  0
 22 23  1  0
 23 24  2  0
 23 25  1  0
 25 26  1  0
 26 27  1  0
 26 28  1  0
 27 29  1  0
 28 30  2  0
 28 31  1  0
 29 32  1  0
 32 33  2  0
 32 34  1  0
  3 35  1  0
  7 36  1  0
  8 37  1  6
  9 38  1  0
 12 39  1  0
 12 40  1  0
 13 41  1  0
 13 42  1  0
 15 43  1  0
 16 44  1  0
 16 45  1  0
 18 46  1  0
 19 47  1  0
 20 48  1  0
 21 49  1  0
 25 50  1  0
 26 51  1  6
 27 52  1  0
 27 53  1  0
 29 54  1  0
 29 55  1  0
 31 56  1  0
 34 57  1  0
M  END
> <ID>
HT1188

> <Class>
1.0

> <Clusters>
111

> <Fold>
3

$$$$