
     RDKit          3D

 62 65  0  0  0  0  0  0  0  0999 V2000
    3.8479   -1.5086   -1.8612 C   0  0  0  0  0  0  0  0  0  0  0  0
    3.0338   -0.2129   -1.7316 C   0  0  1  0  0  0  0  0  0  0  0  0
    1.5380   -0.4156   -2.1080 C   0  0  0  0  0  0  0  0  0  0  0  0
    0.5457   -0.3401   -0.9121 C   0  0  2  0  0  0  0  0  0  0  0  0
    1.1987   -1.0007    0.3361 C   0  0  2  0  0  0  0  0  0  0  0  0
    0.1629   -1.3941    1.4247 C   0  0  0  0  0  0  0  0  0  0  0  0
   -1.1315   -0.5835    1.3021 C   0  0  0  0  0  0  0  0  0  0  0  0
   -1.8787   -0.8311   -0.0563 C   0  0  2  0  0  0  0  0  0  0  0  0
   -2.6662   -2.1652    0.0912 C   0  0  0  0  0  0  0  0  0  0  0  0
   -0.8395   -0.9976   -1.2250 C   0  0  1  0  0  0  0  0  0  0  0  0
   -1.5213   -0.3827   -2.4441 C   0  0  0  0  0  0  0  0  0  0  0  0
   -2.3562    0.7647   -1.9162 C   0  0  0  0  0  0  0  0  0  0  0  0
   -2.8385    0.3820   -0.4979 C   0  0  2  0  0  0  0  0  0  0  0  0
   -2.6336    1.5699    0.3017 O   0  0  0  0  0  0  0  0  0  0  0  0
   -3.0235    1.7926    1.6356 C   0  0  0  0  0  0  0  0  0  0  0  0
   -3.5792    0.8903    2.3184 O   0  0  0  0  0  0  0  0  0  0  0  0
   -2.7006    3.0994    2.2745 C   0  0  0  0  0  0  0  0  0  0  0  0
   -4.3590    0.0717   -0.5689 C   0  0  0  0  0  0  0  0  0  0  0  0
   -5.1273    0.6163    0.2081 O   0  0  0  0  0  0  0  0  0  0  0  0
   -4.9925   -0.8178   -1.6082 C   0  0  0  0  0  0  0  0  0  0  0  0
    2.4202   -0.1461    0.8516 C   0  0  2  0  0  0  0  0  0  0  0  0
    3.3611   -1.0553    1.6835 C   0  0  0  0  0  0  0  0  0  0  0  0
    1.9555    1.0672    1.7215 C   0  0  0  0  0  0  0  0  0  0  0  0
    3.1210    1.9651    2.1687 C   0  0  0  0  0  0  0  0  0  0  0  0
    4.0947    2.2160    1.0552 C   0  0  0  0  0  0  0  0  0  0  0  0
    4.9930    3.0861    1.2032 O   0  0  0  0  0  0  0  0  0  0  0  0
    4.0149    1.4676   -0.2084 C   0  0  0  0  0  0  0  0  0  0  0  0
    3.2068    0.3997   -0.3497 C   0  0  0  0  0  0  0  0  0  0  0  0
    3.8440   -1.8512   -2.9180 H   0  0  0  0  0  0  0  0  0  0  0  0
    3.4369   -2.3233   -1.2347 H   0  0  0  0  0  0  0  0  0  0  0  0
    4.9031   -1.3279   -1.5636 H   0  0  0  0  0  0  0  0  0  0  0  0
    3.4630    0.4775   -2.4942 H   0  0  0  0  0  0  0  0  0  0  0  0
    1.2741    0.3862   -2.8306 H   0  0  0  0  0  0  0  0  0  0  0  0
    1.4059   -1.3820   -2.6432 H   0  0  0  0  0  0  0  0  0  0  0  0
    0.3639    0.7361   -0.7027 H   0  0  0  0  0  0  0  0  0  0  0  0
    1.5982   -1.9767   -0.0157 H   0  0  0  0  0  0  0  0  0  0  0  0
   -0.0683   -2.4757    1.3360 H   0  0  0  0  0  0  0  0  0  0  0  0
    0.5709   -1.2850    2.4485 H   0  0  0  0  0  0  0  0  0  0  0  0
   -0.8316    0.4752    1.4141 H   0  0  0  0  0  0  0  0  0  0  0  0
   -1.7857   -0.8397    2.1624 H   0  0  0  0  0  0  0  0  0  0  0  0
   -2.0173   -2.9903    0.4450 H   0  0  0  0  0  0  0  0  0  0  0  0
   -3.0737   -2.5062   -0.8798 H   0  0  0  0  0  0  0  0  0  0  0  0
   -3.4940   -2.0573    0.8240 H   0  0  0  0  0  0  0  0  0  0  0  0
   -0.6453   -2.0745   -1.4378 H   0  0  0  0  0  0  0  0  0  0  0  0
   -2.1689   -1.1461   -2.9196 H   0  0  0  0  0  0  0  0  0  0  0  0
   -0.8317   -0.0337   -3.2355 H   0  0  0  0  0  0  0  0  0  0  0  0
   -3.1811    1.0094   -2.6211 H   0  0  0  0  0  0  0  0  0  0  0  0
   -1.7017    1.6648   -1.8726 H   0  0  0  0  0  0  0  0  0  0  0  0
   -1.7138    3.0290    2.7774 H   0  0  0  0  0  0  0  0  0  0  0  0
   -2.6606    3.8969    1.5034 H   0  0  0  0  0  0  0  0  0  0  0  0
   -3.4774    3.3626    3.0232 H   0  0  0  0  0  0  0  0  0  0  0  0
   -5.4922   -1.6736   -1.1078 H   0  0  0  0  0  0  0  0  0  0  0  0
   -5.7577   -0.2398   -2.1679 H   0  0  0  0  0  0  0  0  0  0  0  0
   -4.2708   -1.2117   -2.3413 H   0  0  0  0  0  0  0  0  0  0  0  0
    2.8799   -1.3650    2.6342 H   0  0  0  0  0  0  0  0  0  0  0  0
    3.6337   -1.9722    1.1213 H   0  0  0  0  0  0  0  0  0  0  0  0
    4.3098   -0.5369    1.9355 H   0  0  0  0  0  0  0  0  0  0  0  0
    1.4231    0.7369    2.6361 H   0  0  0  0  0  0  0  0  0  0  0  0
    1.2487    1.6971    1.1411 H   0  0  0  0  0  0  0  0  0  0  0  0
    3.6577    1.5000    3.0229 H   0  0  0  0  0  0  0  0  0  0  0  0
    2.7087    2.9364    2.5179 H   0  0  0  0  0  0  0  0  0  0  0  0
    4.6037    1.8236   -1.0456 H   0  0  0  0  0  0  0  0  0  0  0  0
  2  1  1  0
  2  3  1  0
  4  3  1  0
  4  5  1  0
  5  6  1  0
  6  7  1  0
  7  8  1  0
  8  9  1  1
  8 10  1  0
 10  4  1  0
 10 11  1  0
 11 12  1  0
 12 13  1  0
 13  8  1  0
 13 14  1  1
 14 15  1  0
 15 16  2  0
 15 17  1  0
 13 18  1  0
 18 19  2  0
 18 20  1  0
  5 21  1  0
 21 22  1  1
 21 23  1  0
 23 24  1  0
 24 25  1  0
 25 26  2  0
 25 27  1  0
 27 28  2  0
 28  2  1  0
 28 21  1  0
  1 29  1  0
  1 30  1  0
  1 31  1  0
  2 32  1  6
  3 33  1  0
  3 34  1  0
  4 35  1  1
  5 36  1  6
  6 37  1  0
  6 38  1  0
  7 39  1  0
  7 40  1  0
  9 41  1  0
  9 42  1  0
  9 43  1  0
 10 44  1  6
 11 45  1  0
 11 46  1  0
 12 47  1  0
 12 48  1  0
 17 49  1  0
 17 50  1  0
 17 51  1  0
 20 52  1  0
 20 53  1  0
 20 54  1  0
 22 55  1  0
 22 56  1  0
 22 57  1  0
 23 58  1  0
 23 59  1  0
 24 60  1  0
 24 61  1  0
 27 62  1  0
M  END
> <ID>
HT1286

> <Class>
1.0

> <Clusters>
167

> <Fold>
3

$$$$