
     RDKit          3D

 78 82  0  0  0  0  0  0  0  0999 V2000
   -4.4774    2.4264    2.3082 C   0  0  0  0  0  0  0  0  0  0  0  0
   -4.3826    1.9762    0.8470 C   0  0  0  0  0  0  0  0  0  0  0  0
   -4.3248    3.1897   -0.0874 C   0  0  0  0  0  0  0  0  0  0  0  0
   -5.5644    1.1006    0.4908 C   0  0  0  0  0  0  0  0  0  0  0  0
   -6.8359    1.5433    0.5685 N   0  0  0  0  0  0  0  0  0  0  0  0
   -7.6242    0.5455    0.2026 N   0  0  0  0  0  0  0  0  0  0  0  0
   -6.8269   -0.4957   -0.0969 C   0  0  0  0  0  0  0  0  0  0  0  0
   -7.3553   -1.8224   -0.5446 C   0  0  0  0  0  0  0  0  0  0  0  0
   -5.5193   -0.1901    0.0680 N   0  0  0  0  0  0  0  0  0  0  0  0
   -4.3648   -1.0814   -0.1537 C   0  0  2  0  0  0  0  0  0  0  0  0
   -3.6354   -1.4009    1.1941 C   0  0  0  0  0  0  0  0  0  0  0  0
   -2.1708   -1.8318    0.9673 C   0  0  1  0  0  0  0  0  0  0  0  0
   -2.1171   -3.1120    0.1177 C   0  0  0  0  0  0  0  0  0  0  0  0
   -1.9858   -2.6131   -1.3176 C   0  0  0  0  0  0  0  0  0  0  0  0
   -2.0037   -1.0805   -1.1956 C   0  0  1  0  0  0  0  0  0  0  0  0
   -3.4505   -0.5508   -1.3094 C   0  0  0  0  0  0  0  0  0  0  0  0
   -1.5718   -0.7681    0.1646 N   0  0  0  0  0  0  0  0  0  0  0  0
   -0.1373   -0.4790    0.3868 C   0  0  0  0  0  0  0  0  0  0  0  0
    0.8471   -1.5295   -0.1625 C   0  0  0  0  0  0  0  0  0  0  0  0
    2.3044   -1.1872    0.2073 C   0  0  2  0  0  0  0  0  0  0  0  0
    2.7038    0.0974   -0.3761 N   0  0  0  0  0  0  0  0  0  0  0  0
    3.6266    0.9818    0.2768 C   0  0  0  0  0  0  0  0  0  0  0  0
    4.1611    0.6453    1.3690 O   0  0  0  0  0  0  0  0  0  0  0  0
    4.0166    2.2836   -0.3783 C   0  0  0  0  0  0  0  0  0  0  0  0
    5.3527    2.1059   -1.1389 C   0  0  0  0  0  0  0  0  0  0  0  0
    6.0650    3.4479   -1.3333 C   0  0  0  0  0  0  0  0  0  0  0  0
    6.4395    4.0978    0.0182 C   0  0  0  0  0  0  0  0  0  0  0  0
    7.7187    3.7035    0.3739 F   0  0  0  0  0  0  0  0  0  0  0  0
    6.4429    5.4741   -0.1372 F   0  0  0  0  0  0  0  0  0  0  0  0
    5.4706    3.7192    1.1616 C   0  0  0  0  0  0  0  0  0  0  0  0
    4.0522    3.4524    0.6435 C   0  0  0  0  0  0  0  0  0  0  0  0
    3.2487   -2.2735   -0.2620 C   0  0  0  0  0  0  0  0  0  0  0  0
    3.4353   -2.5212   -1.6353 C   0  0  0  0  0  0  0  0  0  0  0  0
    4.3132   -3.5228   -2.0605 C   0  0  0  0  0  0  0  0  0  0  0  0
    5.0135   -4.2850   -1.1226 C   0  0  0  0  0  0  0  0  0  0  0  0
    4.8382   -4.0460    0.2422 C   0  0  0  0  0  0  0  0  0  0  0  0
    3.9614   -3.0452    0.6730 C   0  0  0  0  0  0  0  0  0  0  0  0
   -4.5192    1.5423    2.9796 H   0  0  0  0  0  0  0  0  0  0  0  0
   -3.5828    3.0264    2.5814 H   0  0  0  0  0  0  0  0  0  0  0  0
   -5.3853    3.0449    2.4749 H   0  0  0  0  0  0  0  0  0  0  0  0
   -3.4311    1.4235    0.7354 H   0  0  0  0  0  0  0  0  0  0  0  0
   -3.4245    3.8019    0.1363 H   0  0  0  0  0  0  0  0  0  0  0  0
   -5.2283    3.8257    0.0338 H   0  0  0  0  0  0  0  0  0  0  0  0
   -4.2638    2.8578   -1.1452 H   0  0  0  0  0  0  0  0  0  0  0  0
   -7.0314   -2.6124    0.1649 H   0  0  0  0  0  0  0  0  0  0  0  0
   -6.9749   -2.0530   -1.5613 H   0  0  0  0  0  0  0  0  0  0  0  0
   -8.4655   -1.8022   -0.5749 H   0  0  0  0  0  0  0  0  0  0  0  0
   -4.7374   -2.0631   -0.5168 H   0  0  0  0  0  0  0  0  0  0  0  0
   -3.6373   -0.5208    1.8664 H   0  0  0  0  0  0  0  0  0  0  0  0
   -4.1862   -2.2013    1.7349 H   0  0  0  0  0  0  0  0  0  0  0  0
   -1.6552   -1.9685    1.9440 H   0  0  0  0  0  0  0  0  0  0  0  0
   -3.0265   -3.7401    0.2419 H   0  0  0  0  0  0  0  0  0  0  0  0
   -1.2440   -3.7369    0.3989 H   0  0  0  0  0  0  0  0  0  0  0  0
   -1.0295   -2.9621   -1.7602 H   0  0  0  0  0  0  0  0  0  0  0  0
   -2.8123   -2.9971   -1.9553 H   0  0  0  0  0  0  0  0  0  0  0  0
   -1.3607   -0.5963   -1.9642 H   0  0  0  0  0  0  0  0  0  0  0  0
   -3.4121    0.5549   -1.3169 H   0  0  0  0  0  0  0  0  0  0  0  0
   -3.8842   -0.8439   -2.2909 H   0  0  0  0  0  0  0  0  0  0  0  0
    0.0372   -0.3447    1.4773 H   0  0  0  0  0  0  0  0  0  0  0  0
    0.0870    0.5016   -0.0851 H   0  0  0  0  0  0  0  0  0  0  0  0
    0.7559   -1.5839   -1.2672 H   0  0  0  0  0  0  0  0  0  0  0  0
    0.6141   -2.5201    0.2727 H   0  0  0  0  0  0  0  0  0  0  0  0
    2.3485   -1.1147    1.3178 H   0  0  0  0  0  0  0  0  0  0  0  0
    2.3806    0.3354   -1.3414 H   0  0  0  0  0  0  0  0  0  0  0  0
    3.2324    2.5392   -1.1261 H   0  0  0  0  0  0  0  0  0  0  0  0
    5.1545    1.6449   -2.1315 H   0  0  0  0  0  0  0  0  0  0  0  0
    6.0357    1.4236   -0.5847 H   0  0  0  0  0  0  0  0  0  0  0  0
    6.9803    3.2981   -1.9458 H   0  0  0  0  0  0  0  0  0  0  0  0
    5.3933    4.1269   -1.9044 H   0  0  0  0  0  0  0  0  0  0  0  0
    5.8395    2.8058    1.6777 H   0  0  0  0  0  0  0  0  0  0  0  0
    5.4436    4.5341    1.9175 H   0  0  0  0  0  0  0  0  0  0  0  0
    3.6824    4.3793    0.1518 H   0  0  0  0  0  0  0  0  0  0  0  0
    3.3710    3.2556    1.5004 H   0  0  0  0  0  0  0  0  0  0  0  0
    2.9055   -1.9377   -2.3775 H   0  0  0  0  0  0  0  0  0  0  0  0
    4.4524   -3.7066   -3.1184 H   0  0  0  0  0  0  0  0  0  0  0  0
    5.6930   -5.0595   -1.4537 H   0  0  0  0  0  0  0  0  0  0  0  0
    5.3823   -4.6366    0.9679 H   0  0  0  0  0  0  0  0  0  0  0  0
    3.8394   -2.8752    1.7354 H   0  0  0  0  0  0  0  0  0  0  0  0
  1  2  1  0
  2  3  1  0
  2  4  1  0
  4  5  2  0
  5  6  1  0
  6  7  2  0
  7  8  1  0
  7  9  1  0
  9  4  1  0
 10  9  1  0
 10 11  1  0
 11 12  1  0
 12 13  1  0
 13 14  1  0
 15 14  1  0
 15 16  1  0
 16 10  1  0
 15 17  1  0
 17 12  1  0
 17 18  1  0
 18 19  1  0
 19 20  1  0
 20 21  1  0
 21 22  1  0
 22 23  2  0
 22 24  1  0
 24 25  1  0
 25 26  1  0
 26 27  1  0
 27 28  1  0
 27 29  1  0
 27 30  1  0
 30 31  1  0
 31 24  1  0
 20 32  1  0
 32 33  2  0
 33 34  1  0
 34 35  2  0
 35 36  1  0
 36 37  2  0
 37 32  1  0
  1 38  1  0
  1 39  1  0
  1 40  1  0
  2 41  1  0
  3 42  1  0
  3 43  1  0
  3 44  1  0
  8 45  1  0
  8 46  1  0
  8 47  1  0
 10 48  1  6
 11 49  1  0
 11 50  1  0
 12 51  1  1
 13 52  1  0
 13 53  1  0
 14 54  1  0
 14 55  1  0
 15 56  1  6
 16 57  1  0
 16 58  1  0
 18 59  1  0
 18 60  1  0
 19 61  1  0
 19 62  1  0
 20 63  1  1
 21 64  1  0
 24 65  1  0
 25 66  1  0
 25 67  1  0
 26 68  1  0
 26 69  1  0
 30 70  1  0
 30 71  1  0
 31 72  1  0
 31 73  1  0
 33 74  1  0
 34 75  1  0
 35 76  1  0
 36 77  1  0
 37 78  1  0
M  END
> <ID>
HT1271

> <Class>
1.0

> <Clusters>
24

> <Fold>
3

$$$$