
     RDKit          3D

 47 49  0  0  0  0  0  0  0  0999 V2000
    2.4893    4.1335   -2.1357 C   0  0  0  0  0  0  0  0  0  0  0  0
    2.1405    2.8678   -2.8017 N   0  0  0  0  0  0  0  0  0  0  0  0
    3.1681    1.8421   -2.5726 C   0  0  0  0  0  0  0  0  0  0  0  0
    0.7656    2.4054   -2.4971 C   0  0  0  0  0  0  0  0  0  0  0  0
    0.5285    1.9644   -1.0311 C   0  0  0  0  0  0  0  0  0  0  0  0
    0.8123    0.4961   -0.8111 C   0  0  0  0  0  0  0  0  0  0  0  0
    0.3961   -0.2212    0.2608 C   0  0  0  0  0  0  0  0  0  0  0  0
    0.4457   -1.6942    0.2050 C   0  0  0  0  0  0  0  0  0  0  0  0
    1.5569   -2.3539   -0.3569 C   0  0  0  0  0  0  0  0  0  0  0  0
    1.5454   -3.7357   -0.5311 C   0  0  0  0  0  0  0  0  0  0  0  0
    0.4217   -4.4713   -0.1683 C   0  0  0  0  0  0  0  0  0  0  0  0
   -0.6758   -3.8343    0.4118 C   0  0  0  0  0  0  0  0  0  0  0  0
   -0.6619   -2.4421    0.6715 C   0  0  0  0  0  0  0  0  0  0  0  0
   -1.8609   -1.7571    1.3696 C   0  0  0  0  0  0  0  0  0  0  0  0
   -3.0458   -1.7143    0.3882 C   0  0  0  0  0  0  0  0  0  0  0  0
   -2.2466   -2.5937    2.6238 C   0  0  0  0  0  0  0  0  0  0  0  0
   -1.5425   -0.3143    1.8233 C   0  0  0  0  0  0  0  0  0  0  0  0
   -2.4130    0.3788    2.6984 C   0  0  0  0  0  0  0  0  0  0  0  0
   -2.0547    1.6158    3.2366 C   0  0  0  0  0  0  0  0  0  0  0  0
   -0.8275    2.1871    2.9143 C   0  0  0  0  0  0  0  0  0  0  0  0
    0.0067    1.5629    1.9892 C   0  0  0  0  0  0  0  0  0  0  0  0
   -0.3862    0.3619    1.3700 C   0  0  0  0  0  0  0  0  0  0  0  0
    2.7290    3.9832   -1.0617 H   0  0  0  0  0  0  0  0  0  0  0  0
    1.6612    4.8689   -2.2268 H   0  0  0  0  0  0  0  0  0  0  0  0
    3.3789    4.5773   -2.6312 H   0  0  0  0  0  0  0  0  0  0  0  0
    3.2920    1.6255   -1.4895 H   0  0  0  0  0  0  0  0  0  0  0  0
    4.1423    2.1907   -2.9764 H   0  0  0  0  0  0  0  0  0  0  0  0
    2.9063    0.9086   -3.1143 H   0  0  0  0  0  0  0  0  0  0  0  0
    0.4897    1.5850   -3.1960 H   0  0  0  0  0  0  0  0  0  0  0  0
    0.0545    3.2278   -2.7326 H   0  0  0  0  0  0  0  0  0  0  0  0
    1.1356    2.5806   -0.3454 H   0  0  0  0  0  0  0  0  0  0  0  0
   -0.5423    2.1484   -0.7963 H   0  0  0  0  0  0  0  0  0  0  0  0
    1.2581   -0.0375   -1.6401 H   0  0  0  0  0  0  0  0  0  0  0  0
    2.4327   -1.7983   -0.6687 H   0  0  0  0  0  0  0  0  0  0  0  0
    2.3994   -4.2333   -0.9721 H   0  0  0  0  0  0  0  0  0  0  0  0
    0.3984   -5.5400   -0.3399 H   0  0  0  0  0  0  0  0  0  0  0  0
   -1.5372   -4.4426    0.6426 H   0  0  0  0  0  0  0  0  0  0  0  0
   -2.7785   -1.1149   -0.5090 H   0  0  0  0  0  0  0  0  0  0  0  0
   -3.9395   -1.2552    0.8630 H   0  0  0  0  0  0  0  0  0  0  0  0
   -3.3229   -2.7378    0.0564 H   0  0  0  0  0  0  0  0  0  0  0  0
   -3.1270   -2.1816    3.1534 H   0  0  0  0  0  0  0  0  0  0  0  0
   -2.5401   -3.6306    2.3707 H   0  0  0  0  0  0  0  0  0  0  0  0
   -1.3952   -2.6327    3.3365 H   0  0  0  0  0  0  0  0  0  0  0  0
   -3.3707   -0.0323    2.9812 H   0  0  0  0  0  0  0  0  0  0  0  0
   -2.7198    2.1184    3.9273 H   0  0  0  0  0  0  0  0  0  0  0  0
   -0.5294    3.1233    3.3684 H   0  0  0  0  0  0  0  0  0  0  0  0
    0.9623    2.0153    1.7664 H   0  0  0  0  0  0  0  0  0  0  0  0
  1  2  1  0
  2  3  1  0
  2  4  1  0
  4  5  1  0
  5  6  1  0
  6  7  2  3
  7  8  1  0
  8  9  2  0
  9 10  1  0
 10 11  2  0
 11 12  1  0
 12 13  2  0
 13  8  1  0
 13 14  1  0
 14 15  1  0
 14 16  1  0
 14 17  1  0
 17 18  2  0
 18 19  1  0
 19 20  2  0
 20 21  1  0
 21 22  2  0
 22  7  1  0
 22 17  1  0
  1 23  1  0
  1 24  1  0
  1 25  1  0
  3 26  1  0
  3 27  1  0
  3 28  1  0
  4 29  1  0
  4 30  1  0
  5 31  1  0
  5 32  1  0
  6 33  1  0
  9 34  1  0
 10 35  1  0
 11 36  1  0
 12 37  1  0
 15 38  1  0
 15 39  1  0
 15 40  1  0
 16 41  1  0
 16 42  1  0
 16 43  1  0
 18 44  1  0
 19 45  1  0
 20 46  1  0
 21 47  1  0
M  END
> <ID>
HT1294

> <Class>
1.0

> <Clusters>
17

> <Fold>
3

$$$$