
     RDKit          3D

 39 39  0  0  0  0  0  0  0  0999 V2000
    4.5302   -0.8459    1.3336 C   0  0  0  0  0  0  0  0  0  0  0  0
    3.9115    0.3336    0.5892 C   0  0  0  0  0  0  0  0  0  0  0  0
    2.5762   -0.0317    0.0659 N   0  0  0  0  0  0  0  0  0  0  0  0
    2.3020    0.5836   -1.2571 C   0  0  0  0  0  0  0  0  0  0  0  0
    2.1882    2.1143   -1.2281 C   0  0  0  0  0  0  0  0  0  0  0  0
    1.5115    0.2129    1.0653 C   0  0  0  0  0  0  0  0  0  0  0  0
    0.2119   -0.4056    0.6393 C   0  0  0  0  0  0  0  0  0  0  0  0
    0.1564   -1.6490    0.4362 O   0  0  0  0  0  0  0  0  0  0  0  0
   -0.9503    0.4134    0.4477 N   0  0  0  0  0  0  0  0  0  0  0  0
   -2.2122   -0.1333    0.0347 C   0  0  0  0  0  0  0  0  0  0  0  0
   -2.7393    0.2058   -1.2318 C   0  0  0  0  0  0  0  0  0  0  0  0
   -1.9922    1.1327   -2.1521 C   0  0  0  0  0  0  0  0  0  0  0  0
   -3.9699   -0.3333   -1.6376 C   0  0  0  0  0  0  0  0  0  0  0  0
   -4.6712   -1.2009   -0.8014 C   0  0  0  0  0  0  0  0  0  0  0  0
   -4.1645   -1.5258    0.4563 C   0  0  0  0  0  0  0  0  0  0  0  0
   -2.9487   -0.9810    0.8972 C   0  0  0  0  0  0  0  0  0  0  0  0
   -2.4510   -1.3301    2.2744 C   0  0  0  0  0  0  0  0  0  0  0  0
    5.5614   -0.5853    1.6527 H   0  0  0  0  0  0  0  0  0  0  0  0
    3.9382   -1.0987    2.2371 H   0  0  0  0  0  0  0  0  0  0  0  0
    4.5763   -1.7336    0.6676 H   0  0  0  0  0  0  0  0  0  0  0  0
    3.8559    1.2162    1.2658 H   0  0  0  0  0  0  0  0  0  0  0  0
    4.6099    0.5971   -0.2368 H   0  0  0  0  0  0  0  0  0  0  0  0
    3.1073    0.2987   -1.9692 H   0  0  0  0  0  0  0  0  0  0  0  0
    1.3689    0.1605   -1.6847 H   0  0  0  0  0  0  0  0  0  0  0  0
    2.1443    2.4954   -2.2699 H   0  0  0  0  0  0  0  0  0  0  0  0
    1.2569    2.4323   -0.7167 H   0  0  0  0  0  0  0  0  0  0  0  0
    3.0651    2.5741   -0.7279 H   0  0  0  0  0  0  0  0  0  0  0  0
    1.7858   -0.2539    2.0349 H   0  0  0  0  0  0  0  0  0  0  0  0
    1.3886    1.2989    1.2629 H   0  0  0  0  0  0  0  0  0  0  0  0
   -0.8422    1.4523    0.4581 H   0  0  0  0  0  0  0  0  0  0  0  0
   -1.9380    2.1451   -1.7000 H   0  0  0  0  0  0  0  0  0  0  0  0
   -2.4906    1.2182   -3.1412 H   0  0  0  0  0  0  0  0  0  0  0  0
   -0.9636    0.7511   -2.3185 H   0  0  0  0  0  0  0  0  0  0  0  0
   -4.3867   -0.0876   -2.6066 H   0  0  0  0  0  0  0  0  0  0  0  0
   -5.6153   -1.6186   -1.1269 H   0  0  0  0  0  0  0  0  0  0  0  0
   -4.7295   -2.1949    1.0937 H   0  0  0  0  0  0  0  0  0  0  0  0
   -1.7872   -2.2172    2.2182 H   0  0  0  0  0  0  0  0  0  0  0  0
   -1.8951   -0.4803    2.7233 H   0  0  0  0  0  0  0  0  0  0  0  0
   -3.2992   -1.5652    2.9523 H   0  0  0  0  0  0  0  0  0  0  0  0
  1  2  1  0
  2  3  1  0
  3  4  1  0
  4  5  1  0
  3  6  1  0
  6  7  1  0
  7  8  2  0
  7  9  1  0
  9 10  1  0
 10 11  2  0
 11 12  1  0
 11 13  1  0
 13 14  2  0
 14 15  1  0
 15 16  2  0
 16 10  1  0
 16 17  1  0
  1 18  1  0
  1 19  1  0
  1 20  1  0
  2 21  1  0
  2 22  1  0
  4 23  1  0
  4 24  1  0
  5 25  1  0
  5 26  1  0
  5 27  1  0
  6 28  1  0
  6 29  1  0
  9 30  1  0
 12 31  1  0
 12 32  1  0
 12 33  1  0
 13 34  1  0
 14 35  1  0
 15 36  1  0
 17 37  1  0
 17 38  1  0
 17 39  1  0
M  END
> <ID>
HT1207

> <Class>
1.0

> <Clusters>
264

> <Fold>
3

$$$$