
     RDKit          3D

 77 81  0  0  0  0  0  0  0  0999 V2000
   -4.6910   -4.3560    0.9323 C   0  0  0  0  0  0  0  0  0  0  0  0
   -3.7150   -4.0730   -0.2317 C   0  0  0  0  0  0  0  0  0  0  0  0
   -3.5176   -5.3743   -1.0483 C   0  0  0  0  0  0  0  0  0  0  0  0
   -2.4480   -3.7118    0.2638 O   0  0  0  0  0  0  0  0  0  0  0  0
   -4.2920   -2.9136   -1.0805 C   0  0  0  0  0  0  0  0  0  0  0  0
   -5.1239   -3.2141   -2.1895 C   0  0  0  0  0  0  0  0  0  0  0  0
   -5.7221   -2.2084   -2.9471 C   0  0  0  0  0  0  0  0  0  0  0  0
   -5.5313   -0.8741   -2.6159 C   0  0  0  0  0  0  0  0  0  0  0  0
   -4.7486   -0.5368   -1.5166 C   0  0  0  0  0  0  0  0  0  0  0  0
   -4.1255   -1.5278   -0.7332 C   0  0  0  0  0  0  0  0  0  0  0  0
   -3.2953   -1.0391    0.4413 C   0  0  0  0  0  0  0  0  0  0  0  0
   -1.8190   -0.8042    0.0499 C   0  0  0  0  0  0  0  0  0  0  0  0
   -1.5481    0.6156   -0.4895 C   0  0  1  0  0  0  0  0  0  0  0  0
   -1.6916    1.8475    0.8659 S   0  0  0  0  0  0  0  0  0  0  0  0
   -1.9619    3.3256   -0.1891 C   0  0  0  0  0  0  0  0  0  0  0  0
   -3.0342    4.2351    0.4428 C   0  0  0  0  0  0  0  0  0  0  0  0
   -2.6195    5.2576    1.5191 C   0  0  0  0  0  0  0  0  0  0  0  0
   -2.0932    4.5818    2.7463 C   0  0  0  0  0  0  0  0  0  0  0  0
   -2.8481    3.8430    3.4352 O   0  0  0  0  0  0  0  0  0  0  0  0
   -0.7680    4.7681    3.1279 O   0  0  0  0  0  0  0  0  0  0  0  0
   -4.1447    4.7092   -0.4947 C   0  0  0  0  0  0  0  0  0  0  0  0
   -4.4380    3.6502    0.5600 C   0  0  0  0  0  0  0  0  0  0  0  0
   -0.1684    0.7099   -1.1122 C   0  0  0  0  0  0  0  0  0  0  0  0
   -0.0253    1.0960   -2.4532 C   0  0  0  0  0  0  0  0  0  0  0  0
    1.2417    1.1936   -3.0266 C   0  0  0  0  0  0  0  0  0  0  0  0
    2.3833    0.9009   -2.2758 C   0  0  0  0  0  0  0  0  0  0  0  0
    2.2675    0.5143   -0.9257 C   0  0  0  0  0  0  0  0  0  0  0  0
    3.4348    0.1690   -0.0697 C   0  0  0  0  0  0  0  0  0  0  0  0
    4.7191    0.3522   -0.4159 C   0  0  0  0  0  0  0  0  0  0  0  0
    5.8688   -0.0275    0.4390 C   0  0  0  0  0  0  0  0  0  0  0  0
    5.7520   -0.2809    1.8203 C   0  0  0  0  0  0  0  0  0  0  0  0
    6.8835   -0.6408    2.5559 C   0  0  0  0  0  0  0  0  0  0  0  0
    8.1266   -0.7370    1.9242 C   0  0  0  0  0  0  0  0  0  0  0  0
    9.2798   -1.1002    2.6356 C   0  0  0  0  0  0  0  0  0  0  0  0
   10.5104   -1.1781    1.9770 C   0  0  0  0  0  0  0  0  0  0  0  0
   10.5983   -0.8896    0.6096 C   0  0  0  0  0  0  0  0  0  0  0  0
   12.1505   -0.9804   -0.2037 Cl  0  0  0  0  0  0  0  0  0  0  0  0
    9.4496   -0.5315   -0.1076 C   0  0  0  0  0  0  0  0  0  0  0  0
    8.2132   -0.4556    0.5450 C   0  0  0  0  0  0  0  0  0  0  0  0
    7.0944   -0.1127   -0.1475 N   0  0  0  0  0  0  0  0  0  0  0  0
    0.9848    0.4272   -0.3571 C   0  0  0  0  0  0  0  0  0  0  0  0
   -4.8388   -3.4530    1.5592 H   0  0  0  0  0  0  0  0  0  0  0  0
   -5.6841   -4.6639    0.5409 H   0  0  0  0  0  0  0  0  0  0  0  0
   -4.3059   -5.1713    1.5844 H   0  0  0  0  0  0  0  0  0  0  0  0
   -4.4843   -5.8644   -1.2886 H   0  0  0  0  0  0  0  0  0  0  0  0
   -2.9242   -6.1131   -0.4651 H   0  0  0  0  0  0  0  0  0  0  0  0
   -2.9676   -5.1573   -1.9889 H   0  0  0  0  0  0  0  0  0  0  0  0
   -2.1652   -4.3830    0.9412 H   0  0  0  0  0  0  0  0  0  0  0  0
   -5.3408   -4.2300   -2.4815 H   0  0  0  0  0  0  0  0  0  0  0  0
   -6.3521   -2.4683   -3.7890 H   0  0  0  0  0  0  0  0  0  0  0  0
   -6.0061   -0.0965   -3.2024 H   0  0  0  0  0  0  0  0  0  0  0  0
   -4.6423    0.5113   -1.2666 H   0  0  0  0  0  0  0  0  0  0  0  0
   -3.7381   -0.1069    0.8536 H   0  0  0  0  0  0  0  0  0  0  0  0
   -3.3497   -1.7480    1.2880 H   0  0  0  0  0  0  0  0  0  0  0  0
   -1.1896   -0.9832    0.9471 H   0  0  0  0  0  0  0  0  0  0  0  0
   -1.5082   -1.5498   -0.7156 H   0  0  0  0  0  0  0  0  0  0  0  0
   -2.3159    0.8267   -1.2607 H   0  0  0  0  0  0  0  0  0  0  0  0
   -1.0038    3.8845   -0.2699 H   0  0  0  0  0  0  0  0  0  0  0  0
   -2.2560    3.0397   -1.2204 H   0  0  0  0  0  0  0  0  0  0  0  0
   -1.8363    5.9231    1.0979 H   0  0  0  0  0  0  0  0  0  0  0  0
   -3.4744    5.9038    1.8197 H   0  0  0  0  0  0  0  0  0  0  0  0
   -0.4076    4.3350    3.9667 H   0  0  0  0  0  0  0  0  0  0  0  0
   -4.6125    5.6918   -0.2639 H   0  0  0  0  0  0  0  0  0  0  0  0
   -4.1493    4.2965   -1.5251 H   0  0  0  0  0  0  0  0  0  0  0  0
   -5.0462    4.0207    1.4139 H   0  0  0  0  0  0  0  0  0  0  0  0
   -4.5746    2.6295    0.1423 H   0  0  0  0  0  0  0  0  0  0  0  0
   -0.8963    1.3234   -3.0544 H   0  0  0  0  0  0  0  0  0  0  0  0
    1.3400    1.4915   -4.0613 H   0  0  0  0  0  0  0  0  0  0  0  0
    3.3399    0.9724   -2.7710 H   0  0  0  0  0  0  0  0  0  0  0  0
    3.2069   -0.2670    0.8926 H   0  0  0  0  0  0  0  0  0  0  0  0
    4.9695    0.7588   -1.3856 H   0  0  0  0  0  0  0  0  0  0  0  0
    4.8116   -0.1854    2.3448 H   0  0  0  0  0  0  0  0  0  0  0  0
    6.7875   -0.8399    3.6159 H   0  0  0  0  0  0  0  0  0  0  0  0
    9.2301   -1.3205    3.6947 H   0  0  0  0  0  0  0  0  0  0  0  0
   11.3967   -1.4608    2.5320 H   0  0  0  0  0  0  0  0  0  0  0  0
    9.5174   -0.3145   -1.1662 H   0  0  0  0  0  0  0  0  0  0  0  0
    0.8824    0.1388    0.6813 H   0  0  0  0  0  0  0  0  0  0  0  0
  1  2  1  0
  2  3  1  0
  2  4  1  0
  2  5  1  0
  5  6  2  0
  6  7  1  0
  7  8  2  0
  8  9  1  0
  9 10  2  0
 10  5  1  0
 10 11  1  0
 11 12  1  0
 12 13  1  0
 13 14  1  0
 14 15  1  0
 15 16  1  0
 16 17  1  0
 17 18  1  0
 18 19  2  0
 18 20  1  0
 16 21  1  0
 21 22  1  0
 22 16  1  0
 13 23  1  0
 23 24  2  0
 24 25  1  0
 25 26  2  0
 26 27  1  0
 27 28  1  0
 28 29  2  0
 29 30  1  0
 30 31  2  0
 31 32  1  0
 32 33  2  0
 33 34  1  0
 34 35  2  0
 35 36  1  0
 36 37  1  0
 36 38  2  0
 38 39  1  0
 39 33  1  0
 39 40  2  0
 40 30  1  0
 27 41  2  0
 41 23  1  0
  1 42  1  0
  1 43  1  0
  1 44  1  0
  3 45  1  0
  3 46  1  0
  3 47  1  0
  4 48  1  0
  6 49  1  0
  7 50  1  0
  8 51  1  0
  9 52  1  0
 11 53  1  0
 11 54  1  0
 12 55  1  0
 12 56  1  0
 13 57  1  6
 15 58  1  0
 15 59  1  0
 17 60  1  0
 17 61  1  0
 20 62  1  0
 21 63  1  0
 21 64  1  0
 22 65  1  0
 22 66  1  0
 24 67  1  0
 25 68  1  0
 26 69  1  0
 28 70  1  0
 29 71  1  0
 31 72  1  0
 32 73  1  0
 34 74  1  0
 35 75  1  0
 38 76  1  0
 41 77  1  0
M  END
> <ID>
HT1433

> <Class>
1.0

> <Clusters>
103

> <Fold>
3

$$$$