
     RDKit          3D

 13 13  0  0  0  0  0  0  0  0999 V2000
    0.1255    1.6764   -0.2125 C   0  0  0  0  0  0  0  0  0  0  0  0
   -0.1515    0.2621    0.0134 N   0  0  0  0  0  0  0  0  0  0  0  0
   -1.3404   -0.3538   -0.0868 C   0  0  0  0  0  0  0  0  0  0  0  0
   -1.1533   -1.6872    0.2069 C   0  0  0  0  0  0  0  0  0  0  0  0
    0.1467   -1.9127    0.4909 N   0  0  0  0  0  0  0  0  0  0  0  0
    0.7247   -0.7007    0.3623 C   0  0  0  0  0  0  0  0  0  0  0  0
    2.4734   -0.4228    0.6299 S   0  0  0  0  0  0  0  0  0  0  0  0
    0.5390    2.1288    0.7132 H   0  0  0  0  0  0  0  0  0  0  0  0
   -0.8049    2.2164   -0.4902 H   0  0  0  0  0  0  0  0  0  0  0  0
    0.8621    1.7861   -1.0359 H   0  0  0  0  0  0  0  0  0  0  0  0
   -2.2732    0.1265   -0.3530 H   0  0  0  0  0  0  0  0  0  0  0  0
   -1.9192   -2.4510    0.2136 H   0  0  0  0  0  0  0  0  0  0  0  0
    2.7712   -0.6681   -0.7234 H   0  0  0  0  0  0  0  0  0  0  0  0
  1  2  1  0
  2  3  1  0
  3  4  2  0
  4  5  1  0
  5  6  2  0
  6  2  1  0
  6  7  1  0
  1  8  1  0
  1  9  1  0
  1 10  1  0
  3 11  1  0
  4 12  1  0
  7 13  1  0
M  END
> <ID>
HT1343

> <Class>
1.0

> <Clusters>
247

> <Fold>
3

$$$$