
     RDKit          3D

 52 55  0  0  0  0  0  0  0  0999 V2000
   -3.7843   -1.3815   -1.6162 C   0  0  0  0  0  0  0  0  0  0  0  0
   -3.6590   -0.5221   -0.3372 C   0  0  2  0  0  0  0  0  0  0  0  0
   -4.6426   -1.0036    0.5576 O   0  0  0  0  0  0  0  0  0  0  0  0
   -3.8728    0.9844   -0.7051 C   0  0  0  0  0  0  0  0  0  0  0  0
   -2.4923    1.6651   -0.6653 C   0  0  0  0  0  0  0  0  0  0  0  0
   -1.4968    0.5184   -0.5435 C   0  0  1  0  0  0  0  0  0  0  0  0
   -0.0709    0.8252   -0.0317 C   0  0  2  0  0  0  0  0  0  0  0  0
    0.6037    1.9007   -0.9023 C   0  0  0  0  0  0  0  0  0  0  0  0
    2.0071    2.2044   -0.3871 C   0  0  0  0  0  0  0  0  0  0  0  0
    2.8400    0.9457   -0.3264 C   0  0  0  0  0  0  0  0  0  0  0  0
    4.1064    0.9869   -0.7803 C   0  0  0  0  0  0  0  0  0  0  0  0
    5.0223   -0.1510   -0.6359 C   0  0  0  0  0  0  0  0  0  0  0  0
    6.1885   -0.0774   -1.1059 O   0  0  0  0  0  0  0  0  0  0  0  0
    4.6035   -1.3647    0.1265 C   0  0  0  0  0  0  0  0  0  0  0  0
    3.0906   -1.5655    0.0127 C   0  0  0  0  0  0  0  0  0  0  0  0
    2.2664   -0.2892    0.3878 C   0  0  1  0  0  0  0  0  0  0  0  0
    2.3651   -0.0499    1.9160 C   0  0  0  0  0  0  0  0  0  0  0  0
    0.7712   -0.4961   -0.0784 C   0  0  1  0  0  0  0  0  0  0  0  0
    0.0477   -1.6877    0.6296 C   0  0  0  0  0  0  0  0  0  0  0  0
   -1.4200   -1.8664    0.1727 C   0  0  0  0  0  0  0  0  0  0  0  0
   -2.2223   -0.5447    0.2980 C   0  0  2  0  0  0  0  0  0  0  0  0
   -2.3256   -0.1507    1.8110 C   0  0  0  0  0  0  0  0  0  0  0  0
   -4.7995   -1.2605   -2.0516 H   0  0  0  0  0  0  0  0  0  0  0  0
   -3.0472   -1.0945   -2.3932 H   0  0  0  0  0  0  0  0  0  0  0  0
   -3.6614   -2.4587   -1.3758 H   0  0  0  0  0  0  0  0  0  0  0  0
   -4.8870   -0.2943    1.2055 H   0  0  0  0  0  0  0  0  0  0  0  0
   -4.3243    1.1055   -1.7147 H   0  0  0  0  0  0  0  0  0  0  0  0
   -4.5468    1.5016    0.0113 H   0  0  0  0  0  0  0  0  0  0  0  0
   -2.3136    2.2532   -1.5919 H   0  0  0  0  0  0  0  0  0  0  0  0
   -2.4155    2.3429    0.2128 H   0  0  0  0  0  0  0  0  0  0  0  0
   -1.3653    0.1281   -1.5796 H   0  0  0  0  0  0  0  0  0  0  0  0
   -0.1273    1.2268    0.9984 H   0  0  0  0  0  0  0  0  0  0  0  0
    0.6605    1.5653   -1.9619 H   0  0  0  0  0  0  0  0  0  0  0  0
    0.0122    2.8409   -0.8706 H   0  0  0  0  0  0  0  0  0  0  0  0
    2.4679    2.9731   -1.0460 H   0  0  0  0  0  0  0  0  0  0  0  0
    1.9387    2.6411    0.6325 H   0  0  0  0  0  0  0  0  0  0  0  0
    4.4877    1.8851   -1.2522 H   0  0  0  0  0  0  0  0  0  0  0  0
    4.9007   -1.2514    1.1902 H   0  0  0  0  0  0  0  0  0  0  0  0
    5.1211   -2.2605   -0.2805 H   0  0  0  0  0  0  0  0  0  0  0  0
    2.8128   -2.4204    0.6653 H   0  0  0  0  0  0  0  0  0  0  0  0
    2.8665   -1.8652   -1.0355 H   0  0  0  0  0  0  0  0  0  0  0  0
    2.1434   -0.9752    2.4870 H   0  0  0  0  0  0  0  0  0  0  0  0
    3.3897    0.2740    2.1968 H   0  0  0  0  0  0  0  0  0  0  0  0
    1.6698    0.7431    2.2548 H   0  0  0  0  0  0  0  0  0  0  0  0
    0.8185   -0.7838   -1.1549 H   0  0  0  0  0  0  0  0  0  0  0  0
    0.0815   -1.5778    1.7303 H   0  0  0  0  0  0  0  0  0  0  0  0
    0.5746   -2.6352    0.3939 H   0  0  0  0  0  0  0  0  0  0  0  0
   -1.9044   -2.6641    0.7766 H   0  0  0  0  0  0  0  0  0  0  0  0
   -1.3935   -2.2159   -0.8812 H   0  0  0  0  0  0  0  0  0  0  0  0
   -2.8418   -0.9535    2.3793 H   0  0  0  0  0  0  0  0  0  0  0  0
   -2.8960    0.7904    1.9536 H   0  0  0  0  0  0  0  0  0  0  0  0
   -1.3478   -0.0067    2.3044 H   0  0  0  0  0  0  0  0  0  0  0  0
  1  2  1  0
  2  3  1  1
  2  4  1  0
  4  5  1  0
  6  5  1  0
  6  7  1  0
  7  8  1  0
  8  9  1  0
  9 10  1  0
 10 11  2  0
 11 12  1  0
 12 13  2  0
 12 14  1  0
 14 15  1  0
 15 16  1  0
 16 10  1  0
 16 17  1  1
 16 18  1  0
 18  7  1  0
 18 19  1  0
 19 20  1  0
 20 21  1  0
 21  2  1  0
 21  6  1  0
 21 22  1  1
  1 23  1  0
  1 24  1  0
  1 25  1  0
  3 26  1  0
  4 27  1  0
  4 28  1  0
  5 29  1  0
  5 30  1  0
  6 31  1  6
  7 32  1  1
  8 33  1  0
  8 34  1  0
  9 35  1  0
  9 36  1  0
 11 37  1  0
 14 38  1  0
 14 39  1  0
 15 40  1  0
 15 41  1  0
 17 42  1  0
 17 43  1  0
 17 44  1  0
 18 45  1  6
 19 46  1  0
 19 47  1  0
 20 48  1  0
 20 49  1  0
 22 50  1  0
 22 51  1  0
 22 52  1  0
M  END
> <ID>
HT1370

> <Class>
1.0

> <Clusters>
167

> <Fold>
3

$$$$