
     RDKit          3D

 20 19  0  0  0  0  0  0  0  0999 V2000
   -1.9479    1.1219    0.3996 C   0  0  0  0  0  0  0  0  0  0  0  0
   -1.5399   -0.2772    0.2429 N   0  0  0  0  0  0  0  0  0  0  0  0
   -2.5448   -1.3252    0.0344 C   0  0  0  0  0  0  0  0  0  0  0  0
   -0.1392   -0.6155    0.2782 C   0  0  0  0  0  0  0  0  0  0  0  0
    0.2284   -1.8575    0.1869 N   0  0  0  0  0  0  0  0  0  0  0  0
    0.8335    0.4116    0.5357 N   0  0  0  0  0  0  0  0  0  0  0  0
    1.9734    0.5729   -0.0740 C   0  0  0  0  0  0  0  0  0  0  0  0
    2.3333   -0.2064   -1.2221 N   0  0  0  0  0  0  0  0  0  0  0  0
    2.8559    1.6018    0.3730 N   0  0  0  0  0  0  0  0  0  0  0  0
   -3.0503    1.2386    0.3419 H   0  0  0  0  0  0  0  0  0  0  0  0
   -1.4915    1.7371   -0.4046 H   0  0  0  0  0  0  0  0  0  0  0  0
   -1.6106    1.5019    1.3870 H   0  0  0  0  0  0  0  0  0  0  0  0
   -2.4838   -2.0710    0.8550 H   0  0  0  0  0  0  0  0  0  0  0  0
   -3.5748   -0.9112    0.0189 H   0  0  0  0  0  0  0  0  0  0  0  0
   -2.3607   -1.8327   -0.9361 H   0  0  0  0  0  0  0  0  0  0  0  0
    1.2267   -2.1512    0.2737 H   0  0  0  0  0  0  0  0  0  0  0  0
    3.2810   -0.0994   -1.6466 H   0  0  0  0  0  0  0  0  0  0  0  0
    1.6430   -0.8071   -1.7232 H   0  0  0  0  0  0  0  0  0  0  0  0
    2.6040    2.1982    1.1926 H   0  0  0  0  0  0  0  0  0  0  0  0
    3.7643    1.7703   -0.1132 H   0  0  0  0  0  0  0  0  0  0  0  0
  1  2  1  0
  2  3  1  0
  2  4  1  0
  4  5  2  3
  4  6  1  0
  6  7  2  3
  7  8  1  0
  7  9  1  0
  1 10  1  0
  1 11  1  0
  1 12  1  0
  3 13  1  0
  3 14  1  0
  3 15  1  0
  5 16  1  0
  8 17  1  0
  8 18  1  0
  9 19  1  0
  9 20  1  0
M  END
> <ID>
HT1328

> <Class>
1.0

> <Clusters>
122

> <Fold>
3

$$$$