
     RDKit          3D

 46 48  0  0  0  0  0  0  0  0999 V2000
   -5.3178    2.9481    0.9512 C   0  0  0  0  0  0  0  0  0  0  0  0
   -4.0915    2.2522    0.7523 O   0  0  0  0  0  0  0  0  0  0  0  0
   -3.9893    0.9184    0.3203 C   0  0  0  0  0  0  0  0  0  0  0  0
   -5.1321    0.1496    0.0317 C   0  0  0  0  0  0  0  0  0  0  0  0
   -5.0054   -1.1640   -0.4140 C   0  0  0  0  0  0  0  0  0  0  0  0
   -3.7440   -1.7347   -0.5689 C   0  0  0  0  0  0  0  0  0  0  0  0
   -2.5839   -0.9933   -0.2767 C   0  0  0  0  0  0  0  0  0  0  0  0
   -1.3040   -1.5632   -0.3847 O   0  0  0  0  0  0  0  0  0  0  0  0
   -1.0452   -2.9009   -0.7979 C   0  0  0  0  0  0  0  0  0  0  0  0
   -2.7077    0.3458    0.1580 C   0  0  0  0  0  0  0  0  0  0  0  0
   -1.5000    1.1488    0.4609 C   0  0  0  0  0  0  0  0  0  0  0  0
   -1.4681    1.8506    1.5087 O   0  0  0  0  0  0  0  0  0  0  0  0
   -0.3781    1.1523   -0.4347 N   0  0  0  0  0  0  0  0  0  0  0  0
    0.8213    1.9446   -0.1503 C   0  0  1  0  0  0  0  0  0  0  0  0
    1.7783    1.2976    0.7194 C   0  0  1  0  0  0  0  0  0  0  0  0
    1.4643   -0.4153    1.2733 S   0  0  0  0  0  0  0  0  0  0  0  0
    3.1679   -0.9367    0.7581 C   0  0  0  0  0  0  0  0  0  0  0  0
    4.0830   -0.7915    1.9912 C   0  0  0  0  0  0  0  0  0  0  0  0
    3.1288   -2.4093    0.3244 C   0  0  0  0  0  0  0  0  0  0  0  0
    3.5896   -0.0210   -0.4372 C   0  0  1  0  0  0  0  0  0  0  0  0
    2.7552    1.1475   -0.3151 N   0  0  0  0  0  0  0  0  0  0  0  0
    1.8372    1.8457   -1.2445 C   0  0  0  0  0  0  0  0  0  0  0  0
    1.8745    2.1665   -2.4609 O   0  0  0  0  0  0  0  0  0  0  0  0
    5.0497    0.3549   -0.4820 C   0  0  0  0  0  0  0  0  0  0  0  0
    5.8561   -0.3754   -1.1156 O   0  0  0  0  0  0  0  0  0  0  0  0
    5.5332    1.4820    0.1804 O   0  0  0  0  0  0  0  0  0  0  0  0
   -5.8841    3.0043   -0.0024 H   0  0  0  0  0  0  0  0  0  0  0  0
   -5.9251    2.4374    1.7281 H   0  0  0  0  0  0  0  0  0  0  0  0
   -5.0973    3.9796    1.2942 H   0  0  0  0  0  0  0  0  0  0  0  0
   -6.1259    0.5608    0.1430 H   0  0  0  0  0  0  0  0  0  0  0  0
   -5.8910   -1.7453   -0.6368 H   0  0  0  0  0  0  0  0  0  0  0  0
   -3.6827   -2.7596   -0.9076 H   0  0  0  0  0  0  0  0  0  0  0  0
   -1.4226   -3.0616   -1.8297 H   0  0  0  0  0  0  0  0  0  0  0  0
   -1.5246   -3.6166   -0.0971 H   0  0  0  0  0  0  0  0  0  0  0  0
    0.0486   -3.0775   -0.7896 H   0  0  0  0  0  0  0  0  0  0  0  0
   -0.4649    0.6665   -1.3566 H   0  0  0  0  0  0  0  0  0  0  0  0
    0.5946    3.0009    0.1130 H   0  0  0  0  0  0  0  0  0  0  0  0
    2.1578    1.9534    1.5337 H   0  0  0  0  0  0  0  0  0  0  0  0
    4.1328    0.2684    2.3188 H   0  0  0  0  0  0  0  0  0  0  0  0
    5.1113   -1.1485    1.7689 H   0  0  0  0  0  0  0  0  0  0  0  0
    3.6882   -1.3935    2.8377 H   0  0  0  0  0  0  0  0  0  0  0  0
    4.1394   -2.7457    0.0076 H   0  0  0  0  0  0  0  0  0  0  0  0
    2.7844   -3.0540    1.1614 H   0  0  0  0  0  0  0  0  0  0  0  0
    2.4299   -2.5453   -0.5275 H   0  0  0  0  0  0  0  0  0  0  0  0
    3.3331   -0.5086   -1.4044 H   0  0  0  0  0  0  0  0  0  0  0  0
    4.9262    2.0858    0.7210 H   0  0  0  0  0  0  0  0  0  0  0  0
  1  2  1  0
  2  3  1  0
  3  4  2  0
  4  5  1  0
  5  6  2  0
  6  7  1  0
  7  8  1  0
  8  9  1  0
  7 10  2  0
 10  3  1  0
 10 11  1  0
 11 12  2  0
 11 13  1  0
 14 13  1  0
 14 15  1  0
 15 16  1  0
 16 17  1  0
 17 18  1  0
 17 19  1  0
 17 20  1  0
 20 21  1  0
 21 15  1  0
 21 22  1  0
 22 14  1  0
 22 23  2  0
 20 24  1  0
 24 25  2  0
 24 26  1  0
  1 27  1  0
  1 28  1  0
  1 29  1  0
  4 30  1  0
  5 31  1  0
  6 32  1  0
  9 33  1  0
  9 34  1  0
  9 35  1  0
 13 36  1  0
 14 37  1  1
 15 38  1  1
 18 39  1  0
 18 40  1  0
 18 41  1  0
 19 42  1  0
 19 43  1  0
 19 44  1  0
 20 45  1  6
 26 46  1  0
M  END
> <ID>
HT1342

> <Class>
1.0

> <Clusters>
62

> <Fold>
3

$$$$