
     RDKit          3D

 55 57  0  0  0  0  0  0  0  0999 V2000
    2.6755    1.8405    3.1405 C   0  0  0  0  0  0  0  0  0  0  0  0
    2.2690    0.5785    2.5199 N   0  0  0  0  0  0  0  0  0  0  0  0
    3.1108   -0.6190    2.6229 C   0  0  0  0  0  0  0  0  0  0  0  0
    3.7977   -0.8621    1.3130 C   0  0  0  0  0  0  0  0  0  0  0  0
    3.3663   -1.8719    0.4403 C   0  0  0  0  0  0  0  0  0  0  0  0
    3.9893   -2.0350   -0.7573 N   0  0  0  0  0  0  0  0  0  0  0  0
    5.0225   -1.2343   -1.1250 C   0  0  0  0  0  0  0  0  0  0  0  0
    5.6216   -1.3931   -2.3305 N   0  0  0  0  0  0  0  0  0  0  0  0
    6.6467   -0.5841   -2.7107 C   0  0  0  0  0  0  0  0  0  0  0  0
    7.2578   -0.7591   -3.9837 N   0  0  0  0  0  0  0  0  0  0  0  0
    7.0835    0.3992   -1.8772 N   0  0  0  0  0  0  0  0  0  0  0  0
    6.5157    0.6003   -0.6588 C   0  0  0  0  0  0  0  0  0  0  0  0
    6.9973    1.6558    0.1775 N   0  0  0  0  0  0  0  0  0  0  0  0
    5.4568   -0.2229   -0.2535 C   0  0  0  0  0  0  0  0  0  0  0  0
    4.8301   -0.0582    0.9410 N   0  0  0  0  0  0  0  0  0  0  0  0
    1.0504    0.5272    1.7588 C   0  0  0  0  0  0  0  0  0  0  0  0
    0.0287   -0.3611    2.1199 C   0  0  0  0  0  0  0  0  0  0  0  0
   -1.1460   -0.4307    1.3671 C   0  0  0  0  0  0  0  0  0  0  0  0
   -1.3224    0.3934    0.2407 C   0  0  0  0  0  0  0  0  0  0  0  0
   -0.2880    1.2748   -0.1240 C   0  0  0  0  0  0  0  0  0  0  0  0
    0.8852    1.3443    0.6312 C   0  0  0  0  0  0  0  0  0  0  0  0
   -2.5590    0.3210   -0.5757 C   0  0  0  0  0  0  0  0  0  0  0  0
   -2.5367    0.7296   -1.7690 O   0  0  0  0  0  0  0  0  0  0  0  0
   -3.7845   -0.1892   -0.0237 N   0  0  0  0  0  0  0  0  0  0  0  0
   -4.9760   -0.4116   -0.8452 C   0  0  1  0  0  0  0  0  0  0  0  0
   -5.8431   -1.5251   -0.2185 C   0  0  0  0  0  0  0  0  0  0  0  0
   -6.9744   -2.0165   -1.1381 C   0  0  0  0  0  0  0  0  0  0  0  0
   -8.1407   -1.0756   -1.1548 C   0  0  0  0  0  0  0  0  0  0  0  0
   -8.4977   -0.5307   -2.2332 O   0  0  0  0  0  0  0  0  0  0  0  0
   -8.8373   -0.8137    0.0213 O   0  0  0  0  0  0  0  0  0  0  0  0
   -5.7312    0.8795   -0.9747 C   0  0  0  0  0  0  0  0  0  0  0  0
   -6.1641    1.4667    0.0528 O   0  0  0  0  0  0  0  0  0  0  0  0
   -5.9436    1.4340   -2.2324 O   0  0  0  0  0  0  0  0  0  0  0  0
    2.8276    2.6160    2.3627 H   0  0  0  0  0  0  0  0  0  0  0  0
    1.8863    2.1799    3.8439 H   0  0  0  0  0  0  0  0  0  0  0  0
    3.6254    1.7297    3.7044 H   0  0  0  0  0  0  0  0  0  0  0  0
    3.8812   -0.5026    3.4151 H   0  0  0  0  0  0  0  0  0  0  0  0
    2.4911   -1.4943    2.9136 H   0  0  0  0  0  0  0  0  0  0  0  0
    2.5373   -2.5163    0.7022 H   0  0  0  0  0  0  0  0  0  0  0  0
    8.0472   -0.1441   -4.2817 H   0  0  0  0  0  0  0  0  0  0  0  0
    6.9237   -1.5072   -4.6322 H   0  0  0  0  0  0  0  0  0  0  0  0
    7.7881    2.2573   -0.1446 H   0  0  0  0  0  0  0  0  0  0  0  0
    6.5860    1.8369    1.1189 H   0  0  0  0  0  0  0  0  0  0  0  0
    0.1413   -0.9997    2.9866 H   0  0  0  0  0  0  0  0  0  0  0  0
   -1.9008   -1.1481    1.6583 H   0  0  0  0  0  0  0  0  0  0  0  0
   -0.3874    1.9136   -0.9933 H   0  0  0  0  0  0  0  0  0  0  0  0
    1.6745    2.0188    0.3231 H   0  0  0  0  0  0  0  0  0  0  0  0
   -3.8815   -0.2602    1.0139 H   0  0  0  0  0  0  0  0  0  0  0  0
   -4.6582   -0.7526   -1.8546 H   0  0  0  0  0  0  0  0  0  0  0  0
   -6.2536   -1.1958    0.7613 H   0  0  0  0  0  0  0  0  0  0  0  0
   -5.1833   -2.3947   -0.0107 H   0  0  0  0  0  0  0  0  0  0  0  0
   -6.5892   -2.1718   -2.1693 H   0  0  0  0  0  0  0  0  0  0  0  0
   -7.3358   -2.9994   -0.7673 H   0  0  0  0  0  0  0  0  0  0  0  0
   -9.6302   -0.1819    0.0254 H   0  0  0  0  0  0  0  0  0  0  0  0
   -6.4495    2.3039   -2.3368 H   0  0  0  0  0  0  0  0  0  0  0  0
  1  2  1  0
  2  3  1  0
  3  4  1  0
  4  5  2  0
  5  6  1  0
  6  7  2  0
  7  8  1  0
  8  9  2  0
  9 10  1  0
  9 11  1  0
 11 12  2  0
 12 13  1  0
 12 14  1  0
 14  7  1  0
 14 15  2  0
 15  4  1  0
  2 16  1  0
 16 17  2  0
 17 18  1  0
 18 19  2  0
 19 20  1  0
 20 21  2  0
 21 16  1  0
 19 22  1  0
 22 23  2  0
 22 24  1  0
 24 25  1  0
 25 26  1  0
 26 27  1  0
 27 28  1  0
 28 29  2  0
 28 30  1  0
 25 31  1  0
 31 32  2  0
 31 33  1  0
  1 34  1  0
  1 35  1  0
  1 36  1  0
  3 37  1  0
  3 38  1  0
  5 39  1  0
 10 40  1  0
 10 41  1  0
 13 42  1  0
 13 43  1  0
 17 44  1  0
 18 45  1  0
 20 46  1  0
 21 47  1  0
 24 48  1  0
 25 49  1  6
 26 50  1  0
 26 51  1  0
 27 52  1  0
 27 53  1  0
 30 54  1  0
 33 55  1  0
M  END
> <ID>
HT1347

> <Class>
1.0

> <Clusters>
111

> <Fold>
3

$$$$