
     RDKit          3D

 32 32  0  0  0  0  0  0  0  0999 V2000
   -3.4026    0.9454    2.7044 C   0  0  0  0  0  0  0  0  0  0  0  0
   -2.4756    0.5826    1.6864 O   0  0  0  0  0  0  0  0  0  0  0  0
   -2.8193   -0.0819    0.4984 C   0  0  0  0  0  0  0  0  0  0  0  0
   -4.1466   -0.4553    0.2072 C   0  0  0  0  0  0  0  0  0  0  0  0
   -4.4476   -1.1152   -0.9862 C   0  0  0  0  0  0  0  0  0  0  0  0
   -3.4341   -1.4089   -1.8983 C   0  0  0  0  0  0  0  0  0  0  0  0
   -2.1149   -1.0442   -1.6212 C   0  0  0  0  0  0  0  0  0  0  0  0
   -1.7984   -0.3779   -0.4205 C   0  0  0  0  0  0  0  0  0  0  0  0
   -0.4857    0.0057   -0.1045 O   0  0  0  0  0  0  0  0  0  0  0  0
    0.6473   -0.2238   -0.9390 C   0  0  0  0  0  0  0  0  0  0  0  0
    1.9057    0.3320   -0.2601 C   0  0  0  0  0  0  0  0  0  0  0  0
    1.7608    1.7052    0.0057 O   0  0  0  0  0  0  0  0  0  0  0  0
    3.1580    0.0733   -1.1164 C   0  0  0  0  0  0  0  0  0  0  0  0
    4.3214    0.6205   -0.4969 O   0  0  0  0  0  0  0  0  0  0  0  0
    4.9319    0.0603    0.6306 C   0  0  0  0  0  0  0  0  0  0  0  0
    4.5116   -1.0219    1.1223 O   0  0  0  0  0  0  0  0  0  0  0  0
    6.0502    0.7164    1.2215 N   0  0  0  0  0  0  0  0  0  0  0  0
   -4.1652    1.6416    2.2959 H   0  0  0  0  0  0  0  0  0  0  0  0
   -3.8938    0.0378    3.1146 H   0  0  0  0  0  0  0  0  0  0  0  0
   -2.8583    1.4563    3.5248 H   0  0  0  0  0  0  0  0  0  0  0  0
   -4.9519   -0.2402    0.8961 H   0  0  0  0  0  0  0  0  0  0  0  0
   -5.4691   -1.3993   -1.2041 H   0  0  0  0  0  0  0  0  0  0  0  0
   -3.6708   -1.9205   -2.8223 H   0  0  0  0  0  0  0  0  0  0  0  0
   -1.3494   -1.2846   -2.3460 H   0  0  0  0  0  0  0  0  0  0  0  0
    0.7696   -1.3171   -1.1016 H   0  0  0  0  0  0  0  0  0  0  0  0
    0.4955    0.2770   -1.9204 H   0  0  0  0  0  0  0  0  0  0  0  0
    2.0261   -0.1941    0.7109 H   0  0  0  0  0  0  0  0  0  0  0  0
    1.6487    2.1698   -0.8650 H   0  0  0  0  0  0  0  0  0  0  0  0
    3.2974   -1.0169   -1.2871 H   0  0  0  0  0  0  0  0  0  0  0  0
    3.0319    0.5570   -2.1087 H   0  0  0  0  0  0  0  0  0  0  0  0
    6.4068    1.6108    0.8184 H   0  0  0  0  0  0  0  0  0  0  0  0
    6.5203    0.3102    2.0607 H   0  0  0  0  0  0  0  0  0  0  0  0
  1  2  1  0
  2  3  1  0
  3  4  2  0
  4  5  1  0
  5  6  2  0
  6  7  1  0
  7  8  2  0
  8  3  1  0
  8  9  1  0
  9 10  1  0
 10 11  1  0
 11 12  1  0
 11 13  1  0
 13 14  1  0
 14 15  1  0
 15 16  2  0
 15 17  1  0
  1 18  1  0
  1 19  1  0
  1 20  1  0
  4 21  1  0
  5 22  1  0
  6 23  1  0
  7 24  1  0
 10 25  1  0
 10 26  1  0
 11 27  1  0
 12 28  1  0
 13 29  1  0
 13 30  1  0
 17 31  1  0
 17 32  1  0
M  END
> <ID>
HT1344

> <Class>
1.0

> <Clusters>
121

> <Fold>
3

$$$$