
     RDKit          3D

 52 57  0  0  0  0  0  0  0  0999 V2000
   -2.2462   -1.4384   -0.9609 C   0  0  0  0  0  0  0  0  0  0  0  0
   -1.5735   -0.2493   -0.3499 N   0  0  0  0  0  0  0  0  0  0  0  0
   -2.6543    0.6282    0.2305 C   0  0  0  0  0  0  0  0  0  0  0  0
   -3.8083    1.0030   -0.7348 C   0  0  0  0  0  0  0  0  0  0  0  0
   -4.9713    1.7088   -0.0490 C   0  0  0  0  0  0  0  0  0  0  0  0
   -5.1327    0.2780   -0.5301 C   0  0  0  0  0  0  0  0  0  0  0  0
   -0.8556    0.5163   -1.4200 C   0  0  0  0  0  0  0  0  0  0  0  0
    0.4732   -0.1205   -1.8883 C   0  0  0  0  0  0  0  0  0  0  0  0
    1.3947   -0.4997   -0.7071 C   0  0  2  0  0  0  0  0  0  0  0  0
    2.8191   -0.9353   -1.2081 C   0  0  1  0  0  0  0  0  0  0  0  0
    3.6470    0.2205   -1.0174 O   0  0  0  0  0  0  0  0  0  0  0  0
    3.0054    1.1379   -0.2106 C   0  0  0  0  0  0  0  0  0  0  0  0
    3.5574    2.2616    0.4024 C   0  0  0  0  0  0  0  0  0  0  0  0
    4.8466    2.6795    0.0832 O   0  0  0  0  0  0  0  0  0  0  0  0
    2.7853    2.9314    1.3748 C   0  0  0  0  0  0  0  0  0  0  0  0
    1.5267    2.4179    1.7580 C   0  0  0  0  0  0  0  0  0  0  0  0
    0.9998    1.2850    1.1077 C   0  0  0  0  0  0  0  0  0  0  0  0
   -0.1366    0.4816    1.6978 C   0  0  0  0  0  0  0  0  0  0  0  0
   -0.6220   -0.6991    0.7633 C   0  0  2  0  0  0  0  0  0  0  0  0
    0.6471   -1.4904    0.2219 C   0  0  1  0  0  0  0  0  0  0  0  0
    0.2203   -2.6532   -0.4533 O   0  0  0  0  0  0  0  0  0  0  0  0
    1.6083   -1.9627    1.3454 C   0  0  0  0  0  0  0  0  0  0  0  0
    2.8089   -2.7331    0.7787 C   0  0  0  0  0  0  0  0  0  0  0  0
    3.4328   -2.0949   -0.4445 C   0  0  0  0  0  0  0  0  0  0  0  0
    4.4910   -2.5512   -0.8497 O   0  0  0  0  0  0  0  0  0  0  0  0
    1.7316    0.7424    0.0518 C   0  0  0  0  0  0  0  0  0  0  0  0
   -2.6579   -2.1181   -0.1829 H   0  0  0  0  0  0  0  0  0  0  0  0
   -1.5911   -2.0077   -1.6417 H   0  0  0  0  0  0  0  0  0  0  0  0
   -3.0758   -1.1624   -1.6411 H   0  0  0  0  0  0  0  0  0  0  0  0
   -2.2430    1.6184    0.5154 H   0  0  0  0  0  0  0  0  0  0  0  0
   -3.0633    0.1626    1.1573 H   0  0  0  0  0  0  0  0  0  0  0  0
   -3.6007    1.4038   -1.7489 H   0  0  0  0  0  0  0  0  0  0  0  0
   -4.9109    1.8037    1.0567 H   0  0  0  0  0  0  0  0  0  0  0  0
   -5.5011    2.4534   -0.6801 H   0  0  0  0  0  0  0  0  0  0  0  0
   -5.7403    0.1742   -1.4535 H   0  0  0  0  0  0  0  0  0  0  0  0
   -5.1527   -0.4792    0.2824 H   0  0  0  0  0  0  0  0  0  0  0  0
   -1.4993    0.6327   -2.3198 H   0  0  0  0  0  0  0  0  0  0  0  0
   -0.6328    1.5521   -1.0802 H   0  0  0  0  0  0  0  0  0  0  0  0
    0.2672   -1.0122   -2.5165 H   0  0  0  0  0  0  0  0  0  0  0  0
    0.9924    0.6085   -2.5503 H   0  0  0  0  0  0  0  0  0  0  0  0
    2.7906   -1.1959   -2.2891 H   0  0  0  0  0  0  0  0  0  0  0  0
    5.2643    3.4870    0.5304 H   0  0  0  0  0  0  0  0  0  0  0  0
    3.1866    3.7979    1.8844 H   0  0  0  0  0  0  0  0  0  0  0  0
    0.9959    2.8661    2.5882 H   0  0  0  0  0  0  0  0  0  0  0  0
   -0.9371    1.1465    2.0647 H   0  0  0  0  0  0  0  0  0  0  0  0
    0.2354    0.0339    2.6433 H   0  0  0  0  0  0  0  0  0  0  0  0
   -1.1721   -1.3975    1.4355 H   0  0  0  0  0  0  0  0  0  0  0  0
    0.8983   -2.9141   -1.1285 H   0  0  0  0  0  0  0  0  0  0  0  0
    2.0161   -1.1171    1.9352 H   0  0  0  0  0  0  0  0  0  0  0  0
    1.0580   -2.6199    2.0534 H   0  0  0  0  0  0  0  0  0  0  0  0
    2.4980   -3.7680    0.5191 H   0  0  0  0  0  0  0  0  0  0  0  0
    3.5806   -2.8128    1.5750 H   0  0  0  0  0  0  0  0  0  0  0  0
  1  2  1  0
  2  3  1  0
  3  4  1  0
  4  5  1  0
  5  6  1  0
  6  4  1  0
  2  7  1  0
  7  8  1  0
  9  8  1  6
  9 10  1  0
 10 11  1  0
 11 12  1  0
 12 13  2  0
 13 14  1  0
 13 15  1  0
 15 16  2  0
 16 17  1  0
 17 18  1  0
 19 18  1  0
 19  2  1  0
 19 20  1  0
 20  9  1  0
 20 21  1  6
 20 22  1  0
 22 23  1  0
 23 24  1  0
 24 10  1  0
 24 25  2  0
 17 26  2  0
 26  9  1  0
 26 12  1  0
  1 27  1  0
  1 28  1  0
  1 29  1  0
  3 30  1  0
  3 31  1  0
  4 32  1  0
  5 33  1  0
  5 34  1  0
  6 35  1  0
  6 36  1  0
  7 37  1  0
  7 38  1  0
  8 39  1  0
  8 40  1  0
 10 41  1  6
 14 42  1  0
 15 43  1  0
 16 44  1  0
 18 45  1  0
 18 46  1  0
 19 47  1  1
 21 48  1  0
 22 49  1  0
 22 50  1  0
 23 51  1  0
 23 52  1  0
M  CHG  1   2   1
M  END
> <ID>
HT1364

> <Class>
1.0

> <Clusters>
175

> <Fold>
3

$$$$