
     RDKit          3D

 69 72  0  0  0  0  0  0  0  0999 V2000
   -4.2617    4.2857   -4.0091 C   0  0  0  0  0  0  0  0  0  0  0  0
   -3.1621    3.3224   -3.5896 C   0  0  0  0  0  0  0  0  0  0  0  0
   -3.1741    3.1896   -2.1830 O   0  0  0  0  0  0  0  0  0  0  0  0
   -2.3036    2.1491   -1.7726 C   0  0  0  0  0  0  0  0  0  0  0  0
   -1.7958    2.4709   -0.4960 O   0  0  0  0  0  0  0  0  0  0  0  0
   -1.7320    1.2766    0.2526 C   0  0  2  0  0  0  0  0  0  0  0  0
   -0.3123    0.6445    0.1162 C   0  0  2  0  0  0  0  0  0  0  0  0
    0.0469   -0.1949    1.3546 C   0  0  0  0  0  0  0  0  0  0  0  0
    1.3128   -0.7888    1.1612 O   0  0  0  0  0  0  0  0  0  0  0  0
    1.5931   -1.6825    2.2194 C   0  0  0  0  0  0  0  0  0  0  0  0
    3.0214   -2.1676    2.1583 C   0  0  0  0  0  0  0  0  0  0  0  0
    3.9288   -1.7167    1.1770 C   0  0  0  0  0  0  0  0  0  0  0  0
    5.2466   -2.1831    1.1664 C   0  0  0  0  0  0  0  0  0  0  0  0
    5.6743   -3.0983    2.1300 C   0  0  0  0  0  0  0  0  0  0  0  0
    4.7840   -3.5517    3.1068 C   0  0  0  0  0  0  0  0  0  0  0  0
    3.4640   -3.0898    3.1213 C   0  0  0  0  0  0  0  0  0  0  0  0
    0.6441    1.6894    0.0025 O   0  0  0  0  0  0  0  0  0  0  0  0
    1.5241    1.4660   -1.0783 C   0  0  0  0  0  0  0  0  0  0  0  0
    2.5471    2.5644   -1.1078 C   0  0  0  0  0  0  0  0  0  0  0  0
    3.9116    2.2851   -0.9109 C   0  0  0  0  0  0  0  0  0  0  0  0
    4.8523    3.3195   -0.9360 C   0  0  0  0  0  0  0  0  0  0  0  0
    4.4392    4.6366   -1.1556 C   0  0  0  0  0  0  0  0  0  0  0  0
    3.0842    4.9214   -1.3547 C   0  0  0  0  0  0  0  0  0  0  0  0
    2.1402    3.8901   -1.3310 C   0  0  0  0  0  0  0  0  0  0  0  0
   -2.8896    0.3923   -0.2286 C   0  0  2  0  0  0  0  0  0  0  0  0
   -2.6038   -0.9933   -0.1291 O   0  0  0  0  0  0  0  0  0  0  0  0
   -3.3404   -1.5870    0.9217 C   0  0  0  0  0  0  0  0  0  0  0  0
   -2.8506   -2.9850    1.2108 C   0  0  0  0  0  0  0  0  0  0  0  0
   -3.4897   -3.7301    2.2155 C   0  0  0  0  0  0  0  0  0  0  0  0
   -3.0510   -5.0204    2.5292 C   0  0  0  0  0  0  0  0  0  0  0  0
   -1.9688   -5.5789    1.8438 C   0  0  0  0  0  0  0  0  0  0  0  0
   -1.3252   -4.8485    0.8424 C   0  0  0  0  0  0  0  0  0  0  0  0
   -1.7608   -3.5584    0.5236 C   0  0  0  0  0  0  0  0  0  0  0  0
   -3.0296    0.7943   -1.6813 C   0  0  1  0  0  0  0  0  0  0  0  0
   -4.3781    0.8440   -2.0879 O   0  0  0  0  0  0  0  0  0  0  0  0
   -5.2479    3.9046   -3.6699 H   0  0  0  0  0  0  0  0  0  0  0  0
   -4.2734    4.3845   -5.1140 H   0  0  0  0  0  0  0  0  0  0  0  0
   -4.0838    5.2855   -3.5604 H   0  0  0  0  0  0  0  0  0  0  0  0
   -2.1849    3.7339   -3.9277 H   0  0  0  0  0  0  0  0  0  0  0  0
   -3.3431    2.3449   -4.0932 H   0  0  0  0  0  0  0  0  0  0  0  0
   -1.4226    2.0496   -2.4532 H   0  0  0  0  0  0  0  0  0  0  0  0
   -1.9087    1.5407    1.3187 H   0  0  0  0  0  0  0  0  0  0  0  0
   -0.3204   -0.0349   -0.7723 H   0  0  0  0  0  0  0  0  0  0  0  0
    0.0734    0.4733    2.2457 H   0  0  0  0  0  0  0  0  0  0  0  0
   -0.7260   -0.9729    1.5184 H   0  0  0  0  0  0  0  0  0  0  0  0
    0.9212   -2.5681    2.1486 H   0  0  0  0  0  0  0  0  0  0  0  0
    1.4440   -1.1894    3.2085 H   0  0  0  0  0  0  0  0  0  0  0  0
    3.6294   -1.0048    0.4201 H   0  0  0  0  0  0  0  0  0  0  0  0
    5.9380   -1.8311    0.4114 H   0  0  0  0  0  0  0  0  0  0  0  0
    6.6960   -3.4554    2.1197 H   0  0  0  0  0  0  0  0  0  0  0  0
    5.1166   -4.2609    3.8534 H   0  0  0  0  0  0  0  0  0  0  0  0
    2.7852   -3.4510    3.8845 H   0  0  0  0  0  0  0  0  0  0  0  0
    2.0277    0.4802   -0.9782 H   0  0  0  0  0  0  0  0  0  0  0  0
    0.9688    1.4790   -2.0415 H   0  0  0  0  0  0  0  0  0  0  0  0
    4.2477    1.2707   -0.7373 H   0  0  0  0  0  0  0  0  0  0  0  0
    5.9010    3.0991   -0.7863 H   0  0  0  0  0  0  0  0  0  0  0  0
    5.1677    5.4367   -1.1761 H   0  0  0  0  0  0  0  0  0  0  0  0
    2.7663    5.9421   -1.5267 H   0  0  0  0  0  0  0  0  0  0  0  0
    1.0923    4.1215   -1.4881 H   0  0  0  0  0  0  0  0  0  0  0  0
   -3.8131    0.7017    0.3223 H   0  0  0  0  0  0  0  0  0  0  0  0
   -4.4143   -1.6401    0.6366 H   0  0  0  0  0  0  0  0  0  0  0  0
   -3.2394   -0.9952    1.8607 H   0  0  0  0  0  0  0  0  0  0  0  0
   -4.3266   -3.3086    2.7582 H   0  0  0  0  0  0  0  0  0  0  0  0
   -3.5494   -5.5863    3.3058 H   0  0  0  0  0  0  0  0  0  0  0  0
   -1.6301   -6.5774    2.0889 H   0  0  0  0  0  0  0  0  0  0  0  0
   -0.4847   -5.2810    0.3129 H   0  0  0  0  0  0  0  0  0  0  0  0
   -1.2384   -3.0147   -0.2524 H   0  0  0  0  0  0  0  0  0  0  0  0
   -2.4974    0.0636   -2.3304 H   0  0  0  0  0  0  0  0  0  0  0  0
   -4.8564    1.4931   -1.5085 H   0  0  0  0  0  0  0  0  0  0  0  0
  1  2  1  0
  2  3  1  0
  3  4  1  0
  4  5  1  0
  5  6  1  0
  6  7  1  0
  7  8  1  0
  8  9  1  0
  9 10  1  0
 10 11  1  0
 11 12  2  0
 12 13  1  0
 13 14  2  0
 14 15  1  0
 15 16  2  0
 16 11  1  0
  7 17  1  0
 17 18  1  0
 18 19  1  0
 19 20  2  0
 20 21  1  0
 21 22  2  0
 22 23  1  0
 23 24  2  0
 24 19  1  0
  6 25  1  0
 25 26  1  0
 26 27  1  0
 27 28  1  0
 28 29  2  0
 29 30  1  0
 30 31  2  0
 31 32  1  0
 32 33  2  0
 33 28  1  0
 25 34  1  0
 34  4  1  0
 34 35  1  0
  1 36  1  0
  1 37  1  0
  1 38  1  0
  2 39  1  0
  2 40  1  0
  4 41  1  0
  6 42  1  1
  7 43  1  6
  8 44  1  0
  8 45  1  0
 10 46  1  0
 10 47  1  0
 12 48  1  0
 13 49  1  0
 14 50  1  0
 15 51  1  0
 16 52  1  0
 18 53  1  0
 18 54  1  0
 20 55  1  0
 21 56  1  0
 22 57  1  0
 23 58  1  0
 24 59  1  0
 25 60  1  1
 27 61  1  0
 27 62  1  0
 29 63  1  0
 30 64  1  0
 31 65  1  0
 32 66  1  0
 33 67  1  0
 34 68  1  6
 35 69  1  0
M  END
> <ID>
HT3869

> <Class>
0.0

> <Clusters>
31

> <Fold>
5

$$$$