
     RDKit          3D

 36 37  0  0  0  0  0  0  0  0999 V2000
    4.6170   -2.3784    2.5723 O   0  0  0  0  0  0  0  0  0  0  0  0
    3.3055   -1.9166    2.5173 C   0  0  0  0  0  0  0  0  0  0  0  0
    2.3530   -2.7336    2.4018 O   0  0  0  0  0  0  0  0  0  0  0  0
    3.0288   -0.4521    2.5648 C   0  0  0  0  0  0  0  0  0  0  0  0
    2.6489   -0.0029    1.2692 O   0  0  0  0  0  0  0  0  0  0  0  0
    2.2953    1.3229    1.0042 C   0  0  0  0  0  0  0  0  0  0  0  0
    2.3455    2.1954    1.9145 O   0  0  0  0  0  0  0  0  0  0  0  0
    1.8444    1.7077   -0.3704 C   0  0  0  0  0  0  0  0  0  0  0  0
    0.3907    2.1200   -0.3569 C   0  0  0  0  0  0  0  0  0  0  0  0
    0.0783    3.4902   -0.2965 C   0  0  0  0  0  0  0  0  0  0  0  0
   -1.2501    3.9171   -0.2839 C   0  0  0  0  0  0  0  0  0  0  0  0
   -2.2846    2.9843   -0.3262 C   0  0  0  0  0  0  0  0  0  0  0  0
   -1.9955    1.6206   -0.3843 C   0  0  0  0  0  0  0  0  0  0  0  0
   -0.6612    1.1684   -0.4076 C   0  0  0  0  0  0  0  0  0  0  0  0
   -0.3788   -0.2449   -0.4600 N   0  0  0  0  0  0  0  0  0  0  0  0
   -1.3117   -1.2223   -0.9481 C   0  0  0  0  0  0  0  0  0  0  0  0
   -1.8146   -1.1500   -2.2648 C   0  0  0  0  0  0  0  0  0  0  0  0
   -1.2829    0.0979   -3.3855 Cl  0  0  0  0  0  0  0  0  0  0  0  0
   -2.7218   -2.1138   -2.7188 C   0  0  0  0  0  0  0  0  0  0  0  0
   -3.1238   -3.1541   -1.8788 C   0  0  0  0  0  0  0  0  0  0  0  0
   -2.6146   -3.2430   -0.5825 C   0  0  0  0  0  0  0  0  0  0  0  0
   -1.7063   -2.2873   -0.1157 C   0  0  0  0  0  0  0  0  0  0  0  0
   -1.1002   -2.4232    1.5306 Cl  0  0  0  0  0  0  0  0  0  0  0  0
    4.8204   -3.3698    2.5314 H   0  0  0  0  0  0  0  0  0  0  0  0
    3.9394    0.0912    2.8991 H   0  0  0  0  0  0  0  0  0  0  0  0
    2.2065   -0.2572    3.2871 H   0  0  0  0  0  0  0  0  0  0  0  0
    2.0028    0.8692   -1.0828 H   0  0  0  0  0  0  0  0  0  0  0  0
    2.4846    2.5436   -0.7282 H   0  0  0  0  0  0  0  0  0  0  0  0
    0.8671    4.2323   -0.2545 H   0  0  0  0  0  0  0  0  0  0  0  0
   -1.4774    4.9744   -0.2361 H   0  0  0  0  0  0  0  0  0  0  0  0
   -3.3137    3.3183   -0.3087 H   0  0  0  0  0  0  0  0  0  0  0  0
   -2.8179    0.9168   -0.4006 H   0  0  0  0  0  0  0  0  0  0  0  0
    0.4907   -0.6058   -0.0121 H   0  0  0  0  0  0  0  0  0  0  0  0
   -3.1095   -2.0629   -3.7280 H   0  0  0  0  0  0  0  0  0  0  0  0
   -3.8257   -3.8972   -2.2357 H   0  0  0  0  0  0  0  0  0  0  0  0
   -2.9286   -4.0551    0.0613 H   0  0  0  0  0  0  0  0  0  0  0  0
  1  2  1  0
  2  3  2  0
  2  4  1  0
  4  5  1  0
  5  6  1  0
  6  7  2  0
  6  8  1  0
  8  9  1  0
  9 10  2  0
 10 11  1  0
 11 12  2  0
 12 13  1  0
 13 14  2  0
 14  9  1  0
 14 15  1  0
 15 16  1  0
 16 17  2  0
 17 18  1  0
 17 19  1  0
 19 20  2  0
 20 21  1  0
 21 22  2  0
 22 16  1  0
 22 23  1  0
  1 24  1  0
  4 25  1  0
  4 26  1  0
  8 27  1  0
  8 28  1  0
 10 29  1  0
 11 30  1  0
 12 31  1  0
 13 32  1  0
 15 33  1  0
 19 34  1  0
 20 35  1  0
 21 36  1  0
M  END
> <ID>
HT0048

> <Class>
0.0

> <Clusters>
75

> <Fold>
5

$$$$