
     RDKit          3D

 69 68  0  0  0  0  0  0  0  0999 V2000
    9.9972    0.0180   -1.8443 C   0  0  0  0  0  0  0  0  0  0  0  0
    8.8201    0.2137   -0.8926 C   0  0  0  0  0  0  0  0  0  0  0  0
    7.8327   -0.9597   -0.9889 C   0  0  0  0  0  0  0  0  0  0  0  0
    6.7033   -0.8715    0.0486 C   0  0  0  0  0  0  0  0  0  0  0  0
    5.7584    0.3224   -0.2052 C   0  0  0  0  0  0  0  0  0  0  0  0
    4.4422    0.2733    0.6104 C   0  0  0  0  0  0  0  0  0  0  0  0
    4.7230    0.2118    2.1322 C   0  0  0  0  0  0  0  0  0  0  0  0
    3.4867    0.5145    2.9806 C   0  0  0  0  0  0  0  0  0  0  0  0
    3.5222   -0.8783    0.1289 C   0  0  0  0  0  0  0  0  0  0  0  0
    2.1566   -0.6314    0.4640 O   0  0  0  0  0  0  0  0  0  0  0  0
    1.3747    0.3503   -0.1568 C   0  0  0  0  0  0  0  0  0  0  0  0
    1.8350    1.0312   -1.1143 O   0  0  0  0  0  0  0  0  0  0  0  0
   -0.0080    0.6200    0.3562 C   0  0  0  0  0  0  0  0  0  0  0  0
   -1.0654    0.6396   -0.7637 C   0  0  0  0  0  0  0  0  0  0  0  0
   -2.3852    1.0843   -0.2023 C   0  0  0  0  0  0  0  0  0  0  0  0
   -2.8854    2.1781   -0.5792 O   0  0  0  0  0  0  0  0  0  0  0  0
   -3.0266    0.3008    0.7613 O   0  0  0  0  0  0  0  0  0  0  0  0
   -4.2386    0.6721    1.4202 C   0  0  0  0  0  0  0  0  0  0  0  0
   -5.4957    0.1520    0.6795 C   0  0  0  0  0  0  0  0  0  0  0  0
   -5.3968   -1.3559    0.3371 C   0  0  0  0  0  0  0  0  0  0  0  0
   -5.1083   -2.2432    1.5518 C   0  0  0  0  0  0  0  0  0  0  0  0
   -5.7754    1.0024   -0.5868 C   0  0  0  0  0  0  0  0  0  0  0  0
   -7.1376    0.7544   -1.2629 C   0  0  0  0  0  0  0  0  0  0  0  0
   -8.3335    1.0843   -0.3549 C   0  0  0  0  0  0  0  0  0  0  0  0
   -9.6391    1.0930   -1.1456 C   0  0  0  0  0  0  0  0  0  0  0  0
   -1.2393   -0.9697   -1.5409 S   0  0  0  0  0  0  0  0  0  0  0  0
   -0.0445   -1.2293   -2.4134 O   0  0  0  0  0  0  0  0  0  0  0  0
   -2.4744   -0.9906   -2.3971 O   0  0  0  0  0  0  0  0  0  0  0  0
   -1.3375   -2.1801   -0.3766 O   0  0  0  0  0  0  0  0  0  0  0  0
   10.5679   -0.8949   -1.5715 H   0  0  0  0  0  0  0  0  0  0  0  0
   10.6786    0.8929   -1.7794 H   0  0  0  0  0  0  0  0  0  0  0  0
    9.6344   -0.0742   -2.8914 H   0  0  0  0  0  0  0  0  0  0  0  0
    9.2069    0.2998    0.1467 H   0  0  0  0  0  0  0  0  0  0  0  0
    8.3091    1.1644   -1.1582 H   0  0  0  0  0  0  0  0  0  0  0  0
    8.3845   -1.9098   -0.8131 H   0  0  0  0  0  0  0  0  0  0  0  0
    7.4005   -1.0050   -2.0131 H   0  0  0  0  0  0  0  0  0  0  0  0
    7.1478   -0.7926    1.0668 H   0  0  0  0  0  0  0  0  0  0  0  0
    6.1294   -1.8228    0.0004 H   0  0  0  0  0  0  0  0  0  0  0  0
    5.5071    0.3750   -1.2877 H   0  0  0  0  0  0  0  0  0  0  0  0
    6.2930    1.2639    0.0487 H   0  0  0  0  0  0  0  0  0  0  0  0
    3.9308    1.2380    0.4044 H   0  0  0  0  0  0  0  0  0  0  0  0
    5.1167   -0.7888    2.4197 H   0  0  0  0  0  0  0  0  0  0  0  0
    5.4974    0.9689    2.3898 H   0  0  0  0  0  0  0  0  0  0  0  0
    2.7568   -0.3214    2.9267 H   0  0  0  0  0  0  0  0  0  0  0  0
    3.0025    1.4550    2.6417 H   0  0  0  0  0  0  0  0  0  0  0  0
    3.7864    0.6367    4.0432 H   0  0  0  0  0  0  0  0  0  0  0  0
    3.6009   -1.0230   -0.9712 H   0  0  0  0  0  0  0  0  0  0  0  0
    3.8313   -1.8313    0.6077 H   0  0  0  0  0  0  0  0  0  0  0  0
   -0.2748   -0.1463    1.1169 H   0  0  0  0  0  0  0  0  0  0  0  0
    0.0106    1.6078    0.8661 H   0  0  0  0  0  0  0  0  0  0  0  0
   -0.7521    1.3675   -1.5455 H   0  0  0  0  0  0  0  0  0  0  0  0
   -4.2864    1.7743    1.5732 H   0  0  0  0  0  0  0  0  0  0  0  0
   -4.2180    0.2294    2.4399 H   0  0  0  0  0  0  0  0  0  0  0  0
   -6.3423    0.2895    1.3843 H   0  0  0  0  0  0  0  0  0  0  0  0
   -6.3623   -1.6984   -0.0869 H   0  0  0  0  0  0  0  0  0  0  0  0
   -4.6135   -1.5267   -0.4319 H   0  0  0  0  0  0  0  0  0  0  0  0
   -5.8317   -2.0331    2.3688 H   0  0  0  0  0  0  0  0  0  0  0  0
   -4.0733   -2.0836    1.9200 H   0  0  0  0  0  0  0  0  0  0  0  0
   -5.2056   -3.3118    1.2612 H   0  0  0  0  0  0  0  0  0  0  0  0
   -5.7173    2.0811   -0.3270 H   0  0  0  0  0  0  0  0  0  0  0  0
   -4.9841    0.8002   -1.3407 H   0  0  0  0  0  0  0  0  0  0  0  0
   -7.2113   -0.2944   -1.6162 H   0  0  0  0  0  0  0  0  0  0  0  0
   -7.1824    1.3969   -2.1696 H   0  0  0  0  0  0  0  0  0  0  0  0
   -8.4185    0.3202    0.4471 H   0  0  0  0  0  0  0  0  0  0  0  0
   -8.1907    2.0819    0.1133 H   0  0  0  0  0  0  0  0  0  0  0  0
   -9.6105    1.8810   -1.9303 H   0  0  0  0  0  0  0  0  0  0  0  0
  -10.4876    1.3066   -0.4605 H   0  0  0  0  0  0  0  0  0  0  0  0
   -9.8066    0.1046   -1.6272 H   0  0  0  0  0  0  0  0  0  0  0  0
   -2.2842   -2.1841   -0.0860 H   0  0  0  0  0  0  0  0  0  0  0  0
  1  2  1  0
  2  3  1  0
  3  4  1  0
  4  5  1  0
  5  6  1  0
  6  7  1  0
  7  8  1  0
  6  9  1  0
  9 10  1  0
 10 11  1  0
 11 12  2  0
 11 13  1  0
 13 14  1  0
 14 15  1  0
 15 16  2  0
 15 17  1  0
 17 18  1  0
 18 19  1  0
 19 20  1  0
 20 21  1  0
 19 22  1  0
 22 23  1  0
 23 24  1  0
 24 25  1  0
 14 26  1  0
 26 27  2  0
 26 28  2  0
 26 29  1  0
  1 30  1  0
  1 31  1  0
  1 32  1  0
  2 33  1  0
  2 34  1  0
  3 35  1  0
  3 36  1  0
  4 37  1  0
  4 38  1  0
  5 39  1  0
  5 40  1  0
  6 41  1  0
  7 42  1  0
  7 43  1  0
  8 44  1  0
  8 45  1  0
  8 46  1  0
  9 47  1  0
  9 48  1  0
 13 49  1  0
 13 50  1  0
 14 51  1  0
 18 52  1  0
 18 53  1  0
 19 54  1  0
 20 55  1  0
 20 56  1  0
 21 57  1  0
 21 58  1  0
 21 59  1  0
 22 60  1  0
 22 61  1  0
 23 62  1  0
 23 63  1  0
 24 64  1  0
 24 65  1  0
 25 66  1  0
 25 67  1  0
 25 68  1  0
 29 69  1  0
M  END
> <ID>
HT2261

> <Class>
0.0

> <Clusters>
83

> <Fold>
5

$$$$