
     RDKit          3D

  8  7  0  0  0  0  0  0  0  0999 V2000
    1.6605    0.2632   -0.2334 O   0  0  0  0  0  0  0  0  0  0  0  0
    0.4004    0.6299    0.2296 C   0  0  0  0  0  0  0  0  0  0  0  0
    0.2194    1.7918    0.6797 O   0  0  0  0  0  0  0  0  0  0  0  0
   -0.7448   -0.3273    0.1538 C   0  0  0  0  0  0  0  0  0  0  0  0
   -1.4440   -0.2935   -1.4819 Cl  0  0  0  0  0  0  0  0  0  0  0  0
    1.8288   -0.6584   -0.6190 H   0  0  0  0  0  0  0  0  0  0  0  0
   -0.3926   -1.3554    0.3800 H   0  0  0  0  0  0  0  0  0  0  0  0
   -1.5277   -0.0503    0.8912 H   0  0  0  0  0  0  0  0  0  0  0  0
  1  2  1  0
  2  3  2  0
  2  4  1  0
  4  5  1  0
  1  6  1  0
  4  7  1  0
  4  8  1  0
M  END
> <ID>
HT2389

> <Class>
0.0

> <Clusters>
243

> <Fold>
5

$$$$