
     RDKit          3D

 80 83  0  0  0  0  0  0  0  0999 V2000
   -6.7255    0.6393   -2.5576 C   0  0  0  0  0  0  0  0  0  0  0  0
   -6.1114   -0.0663   -1.4998 O   0  0  0  0  0  0  0  0  0  0  0  0
   -7.0740   -0.5102   -0.5503 C   0  0  2  0  0  0  0  0  0  0  0  0
   -7.1965    0.5356    0.5870 C   0  0  1  0  0  0  0  0  0  0  0  0
   -8.5528    0.5854    1.0455 O   0  0  0  0  0  0  0  0  0  0  0  0
   -9.3690    1.7212    0.9802 C   0  0  0  0  0  0  0  0  0  0  0  0
   -8.9390    2.8052    0.4994 O   0  0  0  0  0  0  0  0  0  0  0  0
  -10.7045    1.6507    1.4700 N   0  0  0  0  0  0  0  0  0  0  0  0
   -6.2388    0.2552    1.7704 C   0  0  1  0  0  0  0  0  0  0  0  0
   -6.9265   -0.2957    2.8667 O   0  0  0  0  0  0  0  0  0  0  0  0
   -5.1083   -0.7000    1.3695 C   0  0  2  0  0  0  0  0  0  0  0  0
   -4.2792   -0.1008    0.3704 O   0  0  0  0  0  0  0  0  0  0  0  0
   -2.8831    0.0314    0.4267 C   0  0  0  0  0  0  0  0  0  0  0  0
   -2.0884   -0.8398    1.1877 C   0  0  0  0  0  0  0  0  0  0  0  0
   -0.7024   -0.6876    1.2296 C   0  0  0  0  0  0  0  0  0  0  0  0
   -0.0720    0.3349    0.4972 C   0  0  0  0  0  0  0  0  0  0  0  0
    1.3278    0.5501    0.5208 C   0  0  0  0  0  0  0  0  0  0  0  0
    1.8796    1.5525   -0.2976 C   0  0  0  0  0  0  0  0  0  0  0  0
    3.2910    1.8320   -0.2916 N   0  0  0  0  0  0  0  0  0  0  0  0
    4.2979    0.8142   -0.4075 C   0  0  0  0  0  0  0  0  0  0  0  0
    3.9830   -0.3320   -0.8327 O   0  0  0  0  0  0  0  0  0  0  0  0
    5.7118    1.1104   -0.0753 C   0  0  0  0  0  0  0  0  0  0  0  0
    6.0354    2.1568    0.8022 C   0  0  0  0  0  0  0  0  0  0  0  0
    7.3671    2.4367    1.1089 C   0  0  0  0  0  0  0  0  0  0  0  0
    8.4021    1.6837    0.5482 C   0  0  0  0  0  0  0  0  0  0  0  0
    9.7150    2.0109    0.8959 O   0  0  0  0  0  0  0  0  0  0  0  0
    8.0965    0.6232   -0.3380 C   0  0  0  0  0  0  0  0  0  0  0  0
    9.1802   -0.2188   -0.9694 C   0  0  0  0  0  0  0  0  0  0  0  0
    9.7986   -1.1552    0.0406 C   0  0  0  0  0  0  0  0  0  0  0  0
   10.8338   -1.9725   -0.2520 C   0  0  0  0  0  0  0  0  0  0  0  0
   11.4208   -2.8577    0.8167 C   0  0  0  0  0  0  0  0  0  0  0  0
   11.4602   -1.9955   -1.6233 C   0  0  0  0  0  0  0  0  0  0  0  0
    6.7489    0.3378   -0.6263 C   0  0  0  0  0  0  0  0  0  0  0  0
    1.0166    2.3443   -1.0674 C   0  0  0  0  0  0  0  0  0  0  0  0
    1.4773    3.2624   -1.7969 O   0  0  0  0  0  0  0  0  0  0  0  0
   -0.2922    2.1364   -1.0421 O   0  0  0  0  0  0  0  0  0  0  0  0
   -0.8669    1.1889   -0.3074 C   0  0  0  0  0  0  0  0  0  0  0  0
   -2.2699    1.0467   -0.3305 C   0  0  0  0  0  0  0  0  0  0  0  0
   -3.1182    1.9397   -1.2023 C   0  0  0  0  0  0  0  0  0  0  0  0
    2.1852   -0.1695    1.3604 O   0  0  0  0  0  0  0  0  0  0  0  0
   -5.5842   -1.9581    0.9224 O   0  0  0  0  0  0  0  0  0  0  0  0
   -6.6694   -1.9305   -0.0093 C   0  0  0  0  0  0  0  0  0  0  0  0
   -6.2650   -2.8292   -1.1949 C   0  0  0  0  0  0  0  0  0  0  0  0
   -7.8859   -2.5930    0.6720 C   0  0  0  0  0  0  0  0  0  0  0  0
   -7.3385   -0.0488   -3.1817 H   0  0  0  0  0  0  0  0  0  0  0  0
   -7.3503    1.4810   -2.1832 H   0  0  0  0  0  0  0  0  0  0  0  0
   -5.9331    1.0694   -3.2032 H   0  0  0  0  0  0  0  0  0  0  0  0
   -8.0807   -0.6225   -1.0276 H   0  0  0  0  0  0  0  0  0  0  0  0
   -6.9071    1.5249    0.1681 H   0  0  0  0  0  0  0  0  0  0  0  0
  -11.3226    2.4913    1.4423 H   0  0  0  0  0  0  0  0  0  0  0  0
  -11.0691    0.7615    1.8787 H   0  0  0  0  0  0  0  0  0  0  0  0
   -5.7654    1.2165    2.0836 H   0  0  0  0  0  0  0  0  0  0  0  0
   -7.3397    0.4607    3.3596 H   0  0  0  0  0  0  0  0  0  0  0  0
   -4.5196   -0.8762    2.2937 H   0  0  0  0  0  0  0  0  0  0  0  0
   -2.5299   -1.6655    1.7286 H   0  0  0  0  0  0  0  0  0  0  0  0
   -0.1479   -1.3984    1.8205 H   0  0  0  0  0  0  0  0  0  0  0  0
    3.5913    2.8306   -0.3543 H   0  0  0  0  0  0  0  0  0  0  0  0
    5.2609    2.7491    1.2715 H   0  0  0  0  0  0  0  0  0  0  0  0
    7.5975    3.2434    1.7934 H   0  0  0  0  0  0  0  0  0  0  0  0
   10.5229    1.5079    0.5536 H   0  0  0  0  0  0  0  0  0  0  0  0
    9.9550    0.4495   -1.4004 H   0  0  0  0  0  0  0  0  0  0  0  0
    8.7684   -0.8177   -1.8106 H   0  0  0  0  0  0  0  0  0  0  0  0
    9.3899   -1.1625    1.0487 H   0  0  0  0  0  0  0  0  0  0  0  0
   11.4823   -3.9024    0.4443 H   0  0  0  0  0  0  0  0  0  0  0  0
   10.8076   -2.8587    1.7436 H   0  0  0  0  0  0  0  0  0  0  0  0
   12.4430   -2.5044    1.0680 H   0  0  0  0  0  0  0  0  0  0  0  0
   11.8598   -0.9914   -1.8781 H   0  0  0  0  0  0  0  0  0  0  0  0
   12.3013   -2.7200   -1.6603 H   0  0  0  0  0  0  0  0  0  0  0  0
   10.7070   -2.2990   -2.3803 H   0  0  0  0  0  0  0  0  0  0  0  0
    6.5092   -0.4773   -1.2988 H   0  0  0  0  0  0  0  0  0  0  0  0
   -2.6090    2.8996   -1.4291 H   0  0  0  0  0  0  0  0  0  0  0  0
   -3.3429    1.4179   -2.1558 H   0  0  0  0  0  0  0  0  0  0  0  0
   -4.0729    2.1924   -0.6942 H   0  0  0  0  0  0  0  0  0  0  0  0
    1.8817   -0.8420    2.0496 H   0  0  0  0  0  0  0  0  0  0  0  0
   -6.0769   -3.8697   -0.8525 H   0  0  0  0  0  0  0  0  0  0  0  0
   -7.0645   -2.8484   -1.9668 H   0  0  0  0  0  0  0  0  0  0  0  0
   -5.3266   -2.4609   -1.6614 H   0  0  0  0  0  0  0  0  0  0  0  0
   -7.6141   -3.6002    1.0550 H   0  0  0  0  0  0  0  0  0  0  0  0
   -8.2426   -1.9940    1.5321 H   0  0  0  0  0  0  0  0  0  0  0  0
   -8.7300   -2.7090   -0.0420 H   0  0  0  0  0  0  0  0  0  0  0  0
  1  2  1  0
  3  2  1  0
  3  4  1  0
  4  5  1  0
  5  6  1  0
  6  7  2  0
  6  8  1  0
  4  9  1  0
  9 10  1  0
  9 11  1  0
 11 12  1  0
 12 13  1  0
 13 14  2  0
 14 15  1  0
 15 16  2  0
 16 17  1  0
 17 18  2  0
 18 19  1  0
 19 20  1  0
 20 21  2  0
 20 22  1  0
 22 23  2  0
 23 24  1  0
 24 25  2  0
 25 26  1  0
 25 27  1  0
 27 28  1  0
 28 29  1  0
 29 30  2  3
 30 31  1  0
 30 32  1  0
 27 33  2  0
 33 22  1  0
 18 34  1  0
 34 35  2  0
 34 36  1  0
 36 37  1  0
 37 16  1  0
 37 38  2  0
 38 13  1  0
 38 39  1  0
 17 40  1  0
 11 41  1  0
 41 42  1  0
 42  3  1  0
 42 43  1  0
 42 44  1  0
  1 45  1  0
  1 46  1  0
  1 47  1  0
  3 48  1  6
  4 49  1  6
  8 50  1  0
  8 51  1  0
  9 52  1  1
 10 53  1  0
 11 54  1  1
 14 55  1  0
 15 56  1  0
 19 57  1  0
 23 58  1  0
 24 59  1  0
 26 60  1  0
 28 61  1  0
 28 62  1  0
 29 63  1  0
 31 64  1  0
 31 65  1  0
 31 66  1  0
 32 67  1  0
 32 68  1  0
 32 69  1  0
 33 70  1  0
 39 71  1  0
 39 72  1  0
 39 73  1  0
 40 74  1  0
 43 75  1  0
 43 76  1  0
 43 77  1  0
 44 78  1  0
 44 79  1  0
 44 80  1  0
M  END
> <ID>
HT1529

> <Class>
0.0

> <Clusters>
86

> <Fold>
5

$$$$