
     RDKit          3D

 72 73  0  0  0  0  0  0  0  0999 V2000
   -8.5697    1.5042   -0.1585 C   0  0  0  0  0  0  0  0  0  0  0  0
   -7.9288    0.2284   -0.7372 C   0  0  0  0  0  0  0  0  0  0  0  0
   -8.2482    0.1955   -2.2521 C   0  0  0  0  0  0  0  0  0  0  0  0
   -8.5896   -1.0209   -0.1078 C   0  0  0  0  0  0  0  0  0  0  0  0
   -6.3618    0.2032   -0.5933 C   0  0  0  0  0  0  0  0  0  0  0  0
   -5.6103    0.5328    0.7522 C   0  0  0  0  0  0  0  0  0  0  0  0
   -6.2225   -0.2261    1.9531 C   0  0  0  0  0  0  0  0  0  0  0  0
   -5.6580    2.0495    1.0836 C   0  0  0  0  0  0  0  0  0  0  0  0
   -4.1239    0.1440    0.5366 C   0  0  0  0  0  0  0  0  0  0  0  0
   -3.5004   -0.9350    1.2107 C   0  0  0  0  0  0  0  0  0  0  0  0
   -2.1643   -1.2668    0.9621 C   0  0  0  0  0  0  0  0  0  0  0  0
   -1.4153   -0.5427    0.0209 C   0  0  0  0  0  0  0  0  0  0  0  0
   -0.0802   -0.8465   -0.2786 O   0  0  0  0  0  0  0  0  0  0  0  0
    0.6693   -1.8995    0.3231 C   0  0  0  0  0  0  0  0  0  0  0  0
    2.0485   -1.9570   -0.3164 C   0  0  0  0  0  0  0  0  0  0  0  0
    2.7236   -0.7376   -0.0732 O   0  0  0  0  0  0  0  0  0  0  0  0
    3.4860   -0.3571   -1.2009 C   0  0  0  0  0  0  0  0  0  0  0  0
    4.3264    0.8978   -0.8687 C   0  0  0  0  0  0  0  0  0  0  0  0
    5.6341    0.6491   -0.1754 N   0  0  0  0  0  0  0  0  0  0  0  0
    5.4368   -0.2072    1.0212 C   0  0  0  0  0  0  0  0  0  0  0  0
    6.1475    1.9696    0.2755 C   0  0  0  0  0  0  0  0  0  0  0  0
    6.6072    0.0301   -1.1337 C   0  0  0  0  0  0  0  0  0  0  0  0
    8.0064   -0.1717   -0.5762 C   0  0  0  0  0  0  0  0  0  0  0  0
    8.3378   -1.3569    0.1051 C   0  0  0  0  0  0  0  0  0  0  0  0
    9.6396   -1.5626    0.5724 C   0  0  0  0  0  0  0  0  0  0  0  0
   10.6247   -0.5967    0.3510 C   0  0  0  0  0  0  0  0  0  0  0  0
   10.3109    0.5748   -0.3429 C   0  0  0  0  0  0  0  0  0  0  0  0
    9.0104    0.7853   -0.8119 C   0  0  0  0  0  0  0  0  0  0  0  0
   -2.0179    0.5181   -0.6551 C   0  0  0  0  0  0  0  0  0  0  0  0
   -3.3494    0.8555   -0.4082 C   0  0  0  0  0  0  0  0  0  0  0  0
   -9.6346    1.5807   -0.4684 H   0  0  0  0  0  0  0  0  0  0  0  0
   -8.0413    2.4112   -0.5255 H   0  0  0  0  0  0  0  0  0  0  0  0
   -8.5718    1.4945    0.9490 H   0  0  0  0  0  0  0  0  0  0  0  0
   -7.8400    1.0949   -2.7618 H   0  0  0  0  0  0  0  0  0  0  0  0
   -9.3455    0.1726   -2.4323 H   0  0  0  0  0  0  0  0  0  0  0  0
   -7.8033   -0.7049   -2.7276 H   0  0  0  0  0  0  0  0  0  0  0  0
   -8.6221   -0.9733    0.9962 H   0  0  0  0  0  0  0  0  0  0  0  0
   -8.0541   -1.9476   -0.4098 H   0  0  0  0  0  0  0  0  0  0  0  0
   -9.6466   -1.1146   -0.4408 H   0  0  0  0  0  0  0  0  0  0  0  0
   -6.0264   -0.8066   -0.9239 H   0  0  0  0  0  0  0  0  0  0  0  0
   -5.9531    0.8957   -1.3617 H   0  0  0  0  0  0  0  0  0  0  0  0
   -6.3317   -1.3082    1.7271 H   0  0  0  0  0  0  0  0  0  0  0  0
   -5.5850   -0.1079    2.8566 H   0  0  0  0  0  0  0  0  0  0  0  0
   -7.2120    0.1828    2.2345 H   0  0  0  0  0  0  0  0  0  0  0  0
   -6.6099    2.3531    1.5608 H   0  0  0  0  0  0  0  0  0  0  0  0
   -4.8521    2.3155    1.8043 H   0  0  0  0  0  0  0  0  0  0  0  0
   -5.5249    2.6738    0.1736 H   0  0  0  0  0  0  0  0  0  0  0  0
   -4.0305   -1.5461    1.9258 H   0  0  0  0  0  0  0  0  0  0  0  0
   -1.7267   -2.0962    1.5019 H   0  0  0  0  0  0  0  0  0  0  0  0
    0.1544   -2.8709    0.1568 H   0  0  0  0  0  0  0  0  0  0  0  0
    0.7695   -1.7146    1.4148 H   0  0  0  0  0  0  0  0  0  0  0  0
    1.9075   -2.1884   -1.3999 H   0  0  0  0  0  0  0  0  0  0  0  0
    2.6270   -2.7873    0.1435 H   0  0  0  0  0  0  0  0  0  0  0  0
    4.1207   -1.1922   -1.5624 H   0  0  0  0  0  0  0  0  0  0  0  0
    2.7905   -0.0805   -2.0263 H   0  0  0  0  0  0  0  0  0  0  0  0
    4.5050    1.4523   -1.8193 H   0  0  0  0  0  0  0  0  0  0  0  0
    3.6785    1.5675   -0.2560 H   0  0  0  0  0  0  0  0  0  0  0  0
    5.2063   -1.2557    0.7337 H   0  0  0  0  0  0  0  0  0  0  0  0
    4.6051    0.1759    1.6529 H   0  0  0  0  0  0  0  0  0  0  0  0
    6.3464   -0.2297    1.6604 H   0  0  0  0  0  0  0  0  0  0  0  0
    6.3443    2.6401   -0.5916 H   0  0  0  0  0  0  0  0  0  0  0  0
    5.4181    2.4795    0.9453 H   0  0  0  0  0  0  0  0  0  0  0  0
    7.0904    1.8703    0.8562 H   0  0  0  0  0  0  0  0  0  0  0  0
    6.2503   -0.9600   -1.4819 H   0  0  0  0  0  0  0  0  0  0  0  0
    6.6831    0.6500   -2.0560 H   0  0  0  0  0  0  0  0  0  0  0  0
    7.5886   -2.1219    0.2717 H   0  0  0  0  0  0  0  0  0  0  0  0
    9.8870   -2.4738    1.1007 H   0  0  0  0  0  0  0  0  0  0  0  0
   11.6321   -0.7576    0.7146 H   0  0  0  0  0  0  0  0  0  0  0  0
   11.0761    1.3194   -0.5200 H   0  0  0  0  0  0  0  0  0  0  0  0
    8.7864    1.6938   -1.3556 H   0  0  0  0  0  0  0  0  0  0  0  0
   -1.4515    1.0834   -1.3843 H   0  0  0  0  0  0  0  0  0  0  0  0
   -3.7731    1.6775   -0.9679 H   0  0  0  0  0  0  0  0  0  0  0  0
  1  2  1  0
  2  3  1  0
  2  4  1  0
  2  5  1  0
  5  6  1  0
  6  7  1  0
  6  8  1  0
  6  9  1  0
  9 10  2  0
 10 11  1  0
 11 12  2  0
 12 13  1  0
 13 14  1  0
 14 15  1  0
 15 16  1  0
 16 17  1  0
 17 18  1  0
 18 19  1  0
 19 20  1  0
 19 21  1  0
 19 22  1  0
 22 23  1  0
 23 24  2  0
 24 25  1  0
 25 26  2  0
 26 27  1  0
 27 28  2  0
 28 23  1  0
 12 29  1  0
 29 30  2  0
 30  9  1  0
  1 31  1  0
  1 32  1  0
  1 33  1  0
  3 34  1  0
  3 35  1  0
  3 36  1  0
  4 37  1  0
  4 38  1  0
  4 39  1  0
  5 40  1  0
  5 41  1  0
  7 42  1  0
  7 43  1  0
  7 44  1  0
  8 45  1  0
  8 46  1  0
  8 47  1  0
 10 48  1  0
 11 49  1  0
 14 50  1  0
 14 51  1  0
 15 52  1  0
 15 53  1  0
 17 54  1  0
 17 55  1  0
 18 56  1  0
 18 57  1  0
 20 58  1  0
 20 59  1  0
 20 60  1  0
 21 61  1  0
 21 62  1  0
 21 63  1  0
 22 64  1  0
 22 65  1  0
 24 66  1  0
 25 67  1  0
 26 68  1  0
 27 69  1  0
 28 70  1  0
 29 71  1  0
 30 72  1  0
M  CHG  1  19   1
M  END
> <ID>
HT3789

> <Class>
0.0

> <Clusters>
39

> <Fold>
5

$$$$