
     RDKit          3D

 45 47  0  0  0  0  0  0  0  0999 V2000
    3.5234   -1.2561   -1.9324 C   0  0  0  0  0  0  0  0  0  0  0  0
    2.7829   -0.2206   -1.0742 C   0  0  0  0  0  0  0  0  0  0  0  0
    2.8684   -0.5761    0.3076 O   0  0  0  0  0  0  0  0  0  0  0  0
    4.0070   -0.4516    1.1214 C   0  0  0  0  0  0  0  0  0  0  0  0
    5.1960    0.1704    0.6865 C   0  0  0  0  0  0  0  0  0  0  0  0
    6.2955    0.2649    1.5458 C   0  0  0  0  0  0  0  0  0  0  0  0
    6.2200   -0.2523    2.8415 C   0  0  0  0  0  0  0  0  0  0  0  0
    5.0434   -0.8636    3.2817 C   0  0  0  0  0  0  0  0  0  0  0  0
    3.9426   -0.9611    2.4254 C   0  0  0  0  0  0  0  0  0  0  0  0
    1.3261   -0.1132   -1.4457 C   0  0  0  0  0  0  0  0  0  0  0  0
    0.8296   -0.8565   -2.3371 O   0  0  0  0  0  0  0  0  0  0  0  0
    0.4989    0.8465   -0.7748 N   0  0  0  0  0  0  0  0  0  0  0  0
   -0.9187    1.0009   -1.1050 C   0  0  0  0  0  0  0  0  0  0  0  0
   -1.7384   -0.0379   -0.5355 C   0  0  0  0  0  0  0  0  0  0  0  0
   -2.9688   -0.7884   -1.6559 S   0  0  0  0  0  0  0  0  0  0  0  0
   -4.3941    0.1263   -0.8903 C   0  0  0  0  0  0  0  0  0  0  0  0
   -5.5869   -0.8358   -0.7298 C   0  0  0  0  0  0  0  0  0  0  0  0
   -4.7950    1.2467   -1.8677 C   0  0  0  0  0  0  0  0  0  0  0  0
   -3.9084    0.7605    0.4541 C   0  0  0  0  0  0  0  0  0  0  0  0
   -2.4843    0.8676    0.2832 N   0  0  0  0  0  0  0  0  0  0  0  0
   -1.6074    1.9638   -0.1894 C   0  0  0  0  0  0  0  0  0  0  0  0
   -1.5303    3.2010    0.0279 O   0  0  0  0  0  0  0  0  0  0  0  0
   -4.1833   -0.0775    1.6744 C   0  0  0  0  0  0  0  0  0  0  0  0
   -4.9557    0.3532    2.5718 O   0  0  0  0  0  0  0  0  0  0  0  0
   -3.5834   -1.3256    1.8184 O   0  0  0  0  0  0  0  0  0  0  0  0
    3.4524   -0.9845   -3.0072 H   0  0  0  0  0  0  0  0  0  0  0  0
    4.5969   -1.2943   -1.6584 H   0  0  0  0  0  0  0  0  0  0  0  0
    3.0876   -2.2665   -1.7803 H   0  0  0  0  0  0  0  0  0  0  0  0
    3.2308    0.7826   -1.2388 H   0  0  0  0  0  0  0  0  0  0  0  0
    5.2846    0.5870   -0.3060 H   0  0  0  0  0  0  0  0  0  0  0  0
    7.2066    0.7421    1.2073 H   0  0  0  0  0  0  0  0  0  0  0  0
    7.0722   -0.1774    3.5047 H   0  0  0  0  0  0  0  0  0  0  0  0
    4.9839   -1.2616    4.2868 H   0  0  0  0  0  0  0  0  0  0  0  0
    3.0347   -1.4365    2.7752 H   0  0  0  0  0  0  0  0  0  0  0  0
    0.9331    1.4643   -0.0510 H   0  0  0  0  0  0  0  0  0  0  0  0
   -1.0967    1.2288   -2.1788 H   0  0  0  0  0  0  0  0  0  0  0  0
   -1.1989   -0.7890    0.0845 H   0  0  0  0  0  0  0  0  0  0  0  0
   -6.4254   -0.3304   -0.2048 H   0  0  0  0  0  0  0  0  0  0  0  0
   -5.9483   -1.1787   -1.7234 H   0  0  0  0  0  0  0  0  0  0  0  0
   -5.2943   -1.7394   -0.1562 H   0  0  0  0  0  0  0  0  0  0  0  0
   -5.0729    0.8231   -2.8569 H   0  0  0  0  0  0  0  0  0  0  0  0
   -3.9512    1.9530   -2.0214 H   0  0  0  0  0  0  0  0  0  0  0  0
   -5.6641    1.8166   -1.4736 H   0  0  0  0  0  0  0  0  0  0  0  0
   -4.3444    1.7740    0.6037 H   0  0  0  0  0  0  0  0  0  0  0  0
   -3.7657   -1.8989    2.6334 H   0  0  0  0  0  0  0  0  0  0  0  0
  1  2  1  0
  2  3  1  0
  3  4  1  0
  4  5  2  0
  5  6  1  0
  6  7  2  0
  7  8  1  0
  8  9  2  0
  9  4  1  0
  2 10  1  0
 10 11  2  0
 10 12  1  0
 12 13  1  0
 13 14  1  0
 14 15  1  0
 15 16  1  0
 16 17  1  0
 16 18  1  0
 16 19  1  0
 19 20  1  0
 20 14  1  0
 20 21  1  0
 21 13  1  0
 21 22  2  0
 19 23  1  0
 23 24  2  0
 23 25  1  0
  1 26  1  0
  1 27  1  0
  1 28  1  0
  2 29  1  0
  5 30  1  0
  6 31  1  0
  7 32  1  0
  8 33  1  0
  9 34  1  0
 12 35  1  0
 13 36  1  0
 14 37  1  0
 17 38  1  0
 17 39  1  0
 17 40  1  0
 18 41  1  0
 18 42  1  0
 18 43  1  0
 19 44  1  0
 25 45  1  0
M  END
> <ID>
HT3659

> <Class>
0.0

> <Clusters>
18

> <Fold>
5

$$$$