
     RDKit          3D

 22 22  0  0  0  0  0  0  0  0999 V2000
    4.2579   -0.7339    1.0458 O   0  0  0  0  0  0  0  0  0  0  0  0
    3.4076   -1.6600    0.4494 C   0  0  0  0  0  0  0  0  0  0  0  0
    3.3782   -2.8425    0.8807 O   0  0  0  0  0  0  0  0  0  0  0  0
    2.4944   -1.2470   -0.6646 C   0  0  0  0  0  0  0  0  0  0  0  0
    1.2926   -0.6070   -0.1333 N   0  0  0  0  0  0  0  0  0  0  0  0
    0.2487   -0.1421   -0.9992 C   0  0  0  0  0  0  0  0  0  0  0  0
    0.4213   -0.1362   -2.2486 O   0  0  0  0  0  0  0  0  0  0  0  0
   -1.0101    0.3886   -0.4408 C   0  0  0  0  0  0  0  0  0  0  0  0
   -1.4758    1.6364   -0.8898 C   0  0  0  0  0  0  0  0  0  0  0  0
   -2.6511    2.1837   -0.3697 C   0  0  0  0  0  0  0  0  0  0  0  0
   -3.3791    1.4872    0.5955 C   0  0  0  0  0  0  0  0  0  0  0  0
   -2.9399    0.2365    1.0345 C   0  0  0  0  0  0  0  0  0  0  0  0
   -1.7629   -0.3236    0.5211 C   0  0  0  0  0  0  0  0  0  0  0  0
   -1.2647   -2.2864    1.1614 I   0  0  0  0  0  0  0  0  0  0  0  0
    4.2839    0.2294    0.7332 H   0  0  0  0  0  0  0  0  0  0  0  0
    2.2053   -2.1408   -1.2591 H   0  0  0  0  0  0  0  0  0  0  0  0
    3.0287   -0.5388   -1.3334 H   0  0  0  0  0  0  0  0  0  0  0  0
    1.1956   -0.4543    0.8969 H   0  0  0  0  0  0  0  0  0  0  0  0
   -0.9187    2.1951   -1.6323 H   0  0  0  0  0  0  0  0  0  0  0  0
   -2.9966    3.1497   -0.7145 H   0  0  0  0  0  0  0  0  0  0  0  0
   -4.2907    1.9116    0.9960 H   0  0  0  0  0  0  0  0  0  0  0  0
   -3.5247   -0.3055    1.7665 H   0  0  0  0  0  0  0  0  0  0  0  0
  1  2  1  0
  2  3  2  0
  2  4  1  0
  4  5  1  0
  5  6  1  0
  6  7  2  0
  6  8  1  0
  8  9  2  0
  9 10  1  0
 10 11  2  0
 11 12  1  0
 12 13  2  0
 13  8  1  0
 13 14  1  0
  1 15  1  0
  4 16  1  0
  4 17  1  0
  5 18  1  0
  9 19  1  0
 10 20  1  0
 11 21  1  0
 12 22  1  0
M  END
> <ID>
HT3383

> <Class>
0.0

> <Clusters>
15

> <Fold>
5

$$$$