
     RDKit          3D

 60 63  0  0  0  0  0  0  0  0999 V2000
    7.4642    2.0356   -2.6653 C   0  0  0  0  0  0  0  0  0  0  0  0
    7.3071    1.4701   -1.2949 C   0  0  0  0  0  0  0  0  0  0  0  0
    8.0302    0.5034   -0.9267 O   0  0  0  0  0  0  0  0  0  0  0  0
    6.3542    2.0226   -0.4314 O   0  0  0  0  0  0  0  0  0  0  0  0
    5.9009    1.3640    0.7478 C   0  0  0  0  0  0  0  0  0  0  0  0
    4.8145    0.3507    0.3794 C   0  0  0  0  0  0  0  0  0  0  0  0
    4.4122   -0.4474    1.5624 N   0  0  0  0  0  0  0  0  0  0  0  0
    3.3633    0.2203    2.3752 C   0  0  0  0  0  0  0  0  0  0  0  0
    1.9302   -0.2081    1.9869 C   0  0  0  0  0  0  0  0  0  0  0  0
    1.8964   -0.5906    0.5635 N   0  0  0  0  0  0  0  0  0  0  0  0
    0.5232   -0.7785    0.0534 C   0  0  0  0  0  0  0  0  0  0  0  0
   -0.2535    0.5526    0.0147 C   0  0  0  0  0  0  0  0  0  0  0  0
   -1.3357    0.5875   -1.0726 C   0  0  0  0  0  0  0  0  0  0  0  0
   -2.3600   -0.5047   -0.8857 C   0  0  0  0  0  0  0  0  0  0  0  0
   -3.6813   -0.3079   -0.7015 C   0  0  0  0  0  0  0  0  0  0  0  0
   -4.2877    1.0133   -0.3782 C   0  0  0  0  0  0  0  0  0  0  0  0
   -3.8091    1.7842    0.6948 C   0  0  0  0  0  0  0  0  0  0  0  0
   -4.5327    2.8894    1.1485 C   0  0  0  0  0  0  0  0  0  0  0  0
   -5.7525    3.2222    0.5549 C   0  0  0  0  0  0  0  0  0  0  0  0
   -6.2500    2.4535   -0.4969 C   0  0  0  0  0  0  0  0  0  0  0  0
   -5.5235    1.3538   -0.9654 C   0  0  0  0  0  0  0  0  0  0  0  0
   -6.1590    0.3765   -2.3308 S   0  0  0  0  0  0  0  0  0  0  0  0
   -5.8782   -1.1858   -1.4827 C   0  0  0  0  0  0  0  0  0  0  0  0
   -6.8607   -2.1791   -1.5085 C   0  0  0  0  0  0  0  0  0  0  0  0
   -6.5954   -3.4406   -0.9696 C   0  0  0  0  0  0  0  0  0  0  0  0
   -5.3439   -3.7134   -0.4046 C   0  0  0  0  0  0  0  0  0  0  0  0
   -5.0049   -5.3062    0.2485 Cl  0  0  0  0  0  0  0  0  0  0  0  0
   -4.3721   -2.7097   -0.3369 C   0  0  0  0  0  0  0  0  0  0  0  0
   -4.6355   -1.4349   -0.8687 C   0  0  0  0  0  0  0  0  0  0  0  0
    2.7002   -1.8139    0.3416 C   0  0  0  0  0  0  0  0  0  0  0  0
    4.0004   -1.8155    1.1838 C   0  0  0  0  0  0  0  0  0  0  0  0
    6.5145    1.9048   -3.2259 H   0  0  0  0  0  0  0  0  0  0  0  0
    8.2803    1.5122   -3.2092 H   0  0  0  0  0  0  0  0  0  0  0  0
    7.7023    3.1181   -2.6001 H   0  0  0  0  0  0  0  0  0  0  0  0
    6.7441    0.8604    1.2688 H   0  0  0  0  0  0  0  0  0  0  0  0
    5.4839    2.1269    1.4361 H   0  0  0  0  0  0  0  0  0  0  0  0
    3.9478    0.8896   -0.0652 H   0  0  0  0  0  0  0  0  0  0  0  0
    5.2272   -0.3087   -0.4172 H   0  0  0  0  0  0  0  0  0  0  0  0
    3.4431    1.3279    2.2939 H   0  0  0  0  0  0  0  0  0  0  0  0
    3.5328   -0.0252    3.4476 H   0  0  0  0  0  0  0  0  0  0  0  0
    1.6026   -1.0610    2.6234 H   0  0  0  0  0  0  0  0  0  0  0  0
    1.2517    0.6459    2.1958 H   0  0  0  0  0  0  0  0  0  0  0  0
   -0.0332   -1.5176    0.6757 H   0  0  0  0  0  0  0  0  0  0  0  0
    0.5799   -1.1880   -0.9808 H   0  0  0  0  0  0  0  0  0  0  0  0
   -0.7276    0.7207    1.0030 H   0  0  0  0  0  0  0  0  0  0  0  0
    0.4491    1.3929   -0.1717 H   0  0  0  0  0  0  0  0  0  0  0  0
   -1.7977    1.5956   -1.0934 H   0  0  0  0  0  0  0  0  0  0  0  0
   -0.8553    0.4389   -2.0645 H   0  0  0  0  0  0  0  0  0  0  0  0
   -2.0057   -1.5089   -1.0776 H   0  0  0  0  0  0  0  0  0  0  0  0
   -2.9071    1.5009    1.2185 H   0  0  0  0  0  0  0  0  0  0  0  0
   -4.1519    3.4828    1.9721 H   0  0  0  0  0  0  0  0  0  0  0  0
   -6.3116    4.0768    0.9105 H   0  0  0  0  0  0  0  0  0  0  0  0
   -7.1988    2.7132   -0.9480 H   0  0  0  0  0  0  0  0  0  0  0  0
   -7.8129   -1.9879   -1.9850 H   0  0  0  0  0  0  0  0  0  0  0  0
   -7.3466   -4.2157   -1.0253 H   0  0  0  0  0  0  0  0  0  0  0  0
   -3.4201   -2.9231    0.1340 H   0  0  0  0  0  0  0  0  0  0  0  0
    2.1147   -2.7328    0.5829 H   0  0  0  0  0  0  0  0  0  0  0  0
    2.9796   -1.8604   -0.7356 H   0  0  0  0  0  0  0  0  0  0  0  0
    4.8177   -2.3298    0.6321 H   0  0  0  0  0  0  0  0  0  0  0  0
    3.8359   -2.4116    2.1101 H   0  0  0  0  0  0  0  0  0  0  0  0
  1  2  1  0
  2  3  2  0
  2  4  1  0
  4  5  1  0
  5  6  1  0
  6  7  1  0
  7  8  1  0
  8  9  1  0
  9 10  1  0
 10 11  1  0
 11 12  1  0
 12 13  1  0
 13 14  1  0
 14 15  2  3
 15 16  1  0
 16 17  2  0
 17 18  1  0
 18 19  2  0
 19 20  1  0
 20 21  2  0
 21 16  1  0
 21 22  1  0
 22 23  1  0
 23 24  2  0
 24 25  1  0
 25 26  2  0
 26 27  1  0
 26 28  1  0
 28 29  2  0
 29 15  1  0
 29 23  1  0
 10 30  1  0
 30 31  1  0
 31  7  1  0
  1 32  1  0
  1 33  1  0
  1 34  1  0
  5 35  1  0
  5 36  1  0
  6 37  1  0
  6 38  1  0
  8 39  1  0
  8 40  1  0
  9 41  1  0
  9 42  1  0
 11 43  1  0
 11 44  1  0
 12 45  1  0
 12 46  1  0
 13 47  1  0
 13 48  1  0
 14 49  1  0
 17 50  1  0
 18 51  1  0
 19 52  1  0
 20 53  1  0
 24 54  1  0
 25 55  1  0
 28 56  1  0
 30 57  1  0
 30 58  1  0
 31 59  1  0
 31 60  1  0
M  END
> <ID>
HT2272

> <Class>
0.0

> <Clusters>
240

> <Fold>
5

$$$$