
     RDKit          3D

 39 41  0  0  0  0  0  0  0  0999 V2000
   -1.7750    1.6059    3.0599 C   0  0  0  0  0  0  0  0  0  0  0  0
   -1.4406    1.3866    1.6478 N   0  0  0  0  0  0  0  0  0  0  0  0
   -0.0708    1.4287    1.1920 C   0  0  0  0  0  0  0  0  0  0  0  0
    1.1210    2.0209    2.1661 S   0  0  0  0  0  0  0  0  0  0  0  0
    0.2215    1.0284   -0.1225 O   0  0  0  0  0  0  0  0  0  0  0  0
    1.4428    0.5006   -0.5644 C   0  0  0  0  0  0  0  0  0  0  0  0
    1.8559    0.7738   -1.8730 C   0  0  0  0  0  0  0  0  0  0  0  0
    3.0587    0.2577   -2.3622 C   0  0  0  0  0  0  0  0  0  0  0  0
    3.8602   -0.5545   -1.5474 C   0  0  0  0  0  0  0  0  0  0  0  0
    5.0703   -1.0791   -2.0276 C   0  0  0  0  0  0  0  0  0  0  0  0
    5.8555   -1.8948   -1.2077 C   0  0  0  0  0  0  0  0  0  0  0  0
    5.4398   -2.1935    0.0926 C   0  0  0  0  0  0  0  0  0  0  0  0
    4.2367   -1.6776    0.5829 C   0  0  0  0  0  0  0  0  0  0  0  0
    3.4401   -0.8547   -0.2288 C   0  0  0  0  0  0  0  0  0  0  0  0
    2.2302   -0.3310    0.2516 C   0  0  0  0  0  0  0  0  0  0  0  0
   -2.4904    1.0727    0.7141 C   0  0  0  0  0  0  0  0  0  0  0  0
   -2.6443    1.8287   -0.4590 C   0  0  0  0  0  0  0  0  0  0  0  0
   -3.6675    1.5291   -1.3615 C   0  0  0  0  0  0  0  0  0  0  0  0
   -4.5430    0.4712   -1.1040 C   0  0  0  0  0  0  0  0  0  0  0  0
   -4.3921   -0.3042    0.0556 C   0  0  0  0  0  0  0  0  0  0  0  0
   -5.3540   -1.4165    0.3511 C   0  0  0  0  0  0  0  0  0  0  0  0
   -3.3741    0.0108    0.9695 C   0  0  0  0  0  0  0  0  0  0  0  0
   -1.2703    0.8423    3.6886 H   0  0  0  0  0  0  0  0  0  0  0  0
   -2.8706    1.5381    3.2319 H   0  0  0  0  0  0  0  0  0  0  0  0
   -1.4480    2.6199    3.3722 H   0  0  0  0  0  0  0  0  0  0  0  0
    1.2436    1.3977   -2.5118 H   0  0  0  0  0  0  0  0  0  0  0  0
    3.3607    0.4916   -3.3762 H   0  0  0  0  0  0  0  0  0  0  0  0
    5.4069   -0.8600   -3.0339 H   0  0  0  0  0  0  0  0  0  0  0  0
    6.7879   -2.2975   -1.5817 H   0  0  0  0  0  0  0  0  0  0  0  0
    6.0517   -2.8266    0.7222 H   0  0  0  0  0  0  0  0  0  0  0  0
    3.9306   -1.9196    1.5937 H   0  0  0  0  0  0  0  0  0  0  0  0
    1.8906   -0.5868    1.2477 H   0  0  0  0  0  0  0  0  0  0  0  0
   -1.9788    2.6575   -0.6653 H   0  0  0  0  0  0  0  0  0  0  0  0
   -3.7857    2.1215   -2.2595 H   0  0  0  0  0  0  0  0  0  0  0  0
   -5.3373    0.2566   -1.8083 H   0  0  0  0  0  0  0  0  0  0  0  0
   -4.8555   -2.2207    0.9332 H   0  0  0  0  0  0  0  0  0  0  0  0
   -5.7391   -1.8631   -0.5903 H   0  0  0  0  0  0  0  0  0  0  0  0
   -6.2076   -1.0195    0.9392 H   0  0  0  0  0  0  0  0  0  0  0  0
   -3.2598   -0.5761    1.8730 H   0  0  0  0  0  0  0  0  0  0  0  0
  1  2  1  0
  2  3  1  0
  3  4  2  0
  3  5  1  0
  5  6  1  0
  6  7  2  0
  7  8  1  0
  8  9  2  0
  9 10  1  0
 10 11  2  0
 11 12  1  0
 12 13  2  0
 13 14  1  0
 14  9  1  0
 14 15  2  0
 15  6  1  0
  2 16  1  0
 16 17  2  0
 17 18  1  0
 18 19  2  0
 19 20  1  0
 20 21  1  0
 20 22  2  0
 22 16  1  0
  1 23  1  0
  1 24  1  0
  1 25  1  0
  7 26  1  0
  8 27  1  0
 10 28  1  0
 11 29  1  0
 12 30  1  0
 13 31  1  0
 15 32  1  0
 17 33  1  0
 18 34  1  0
 19 35  1  0
 21 36  1  0
 21 37  1  0
 21 38  1  0
 22 39  1  0
M  END
> <ID>
HT2085

> <Class>
0.0

> <Clusters>
39

> <Fold>
5

$$$$