
     RDKit          3D

 50 51  0  0  0  0  0  0  0  0999 V2000
    5.7354   -0.2658    1.2847 C   0  0  0  0  0  0  0  0  0  0  0  0
    5.2256   -0.5882   -0.1374 C   0  0  0  0  0  0  0  0  0  0  0  0
    5.4164    0.6361   -1.0589 C   0  0  0  0  0  0  0  0  0  0  0  0
    6.0714   -1.7455   -0.7081 C   0  0  0  0  0  0  0  0  0  0  0  0
    3.8047   -1.0156   -0.1331 N   0  0  0  0  0  0  0  0  0  0  0  0
    2.8764   -0.1067    0.5612 C   0  0  0  0  0  0  0  0  0  0  0  0
    1.4308   -0.4192    0.1395 C   0  0  2  0  0  0  0  0  0  0  0  0
    1.2751   -0.2732   -1.2500 O   0  0  0  0  0  0  0  0  0  0  0  0
    0.4278    0.4655    0.8942 C   0  0  0  0  0  0  0  0  0  0  0  0
   -0.9043    0.1559    0.4801 O   0  0  0  0  0  0  0  0  0  0  0  0
   -1.7766    1.0108   -0.2159 C   0  0  0  0  0  0  0  0  0  0  0  0
   -1.3008    2.1095   -0.9618 C   0  0  0  0  0  0  0  0  0  0  0  0
   -2.1872    2.9369   -1.6510 C   0  0  0  0  0  0  0  0  0  0  0  0
   -3.5553    2.6798   -1.6162 C   0  0  0  0  0  0  0  0  0  0  0  0
   -4.0432    1.5900   -0.8960 C   0  0  0  0  0  0  0  0  0  0  0  0
   -3.1665    0.7426   -0.1899 C   0  0  0  0  0  0  0  0  0  0  0  0
   -3.7240   -0.4520    0.5750 C   0  0  0  0  0  0  0  0  0  0  0  0
   -4.3708   -1.4839   -0.3580 C   0  0  0  0  0  0  0  0  0  0  0  0
   -5.6331   -1.9471    0.3477 C   0  0  0  0  0  0  0  0  0  0  0  0
   -6.0750   -0.7689    1.1932 C   0  0  0  0  0  0  0  0  0  0  0  0
   -4.7964   -0.0537    1.6023 C   0  0  0  0  0  0  0  0  0  0  0  0
    5.2466    0.6442    1.6908 H   0  0  0  0  0  0  0  0  0  0  0  0
    6.8303   -0.0793    1.2732 H   0  0  0  0  0  0  0  0  0  0  0  0
    5.5311   -1.1135    1.9722 H   0  0  0  0  0  0  0  0  0  0  0  0
    4.9343    0.4566   -2.0441 H   0  0  0  0  0  0  0  0  0  0  0  0
    6.4955    0.8383   -1.2308 H   0  0  0  0  0  0  0  0  0  0  0  0
    4.9852    1.5555   -0.6175 H   0  0  0  0  0  0  0  0  0  0  0  0
    6.0081   -2.6372   -0.0495 H   0  0  0  0  0  0  0  0  0  0  0  0
    5.7032   -2.0318   -1.7144 H   0  0  0  0  0  0  0  0  0  0  0  0
    7.1404   -1.4580   -0.7928 H   0  0  0  0  0  0  0  0  0  0  0  0
    3.7286   -1.9510    0.3343 H   0  0  0  0  0  0  0  0  0  0  0  0
    3.0895    0.9540    0.3208 H   0  0  0  0  0  0  0  0  0  0  0  0
    2.9701   -0.2391    1.6621 H   0  0  0  0  0  0  0  0  0  0  0  0
    1.2126   -1.4783    0.3990 H   0  0  0  0  0  0  0  0  0  0  0  0
    1.5075    0.6641   -1.4815 H   0  0  0  0  0  0  0  0  0  0  0  0
    0.6712    1.5395    0.7654 H   0  0  0  0  0  0  0  0  0  0  0  0
    0.5050    0.2549    1.9819 H   0  0  0  0  0  0  0  0  0  0  0  0
   -0.2461    2.3225   -1.0457 H   0  0  0  0  0  0  0  0  0  0  0  0
   -1.8099    3.7752   -2.2225 H   0  0  0  0  0  0  0  0  0  0  0  0
   -4.2397    3.3211   -2.1556 H   0  0  0  0  0  0  0  0  0  0  0  0
   -5.1100    1.4034   -0.8912 H   0  0  0  0  0  0  0  0  0  0  0  0
   -2.9136   -0.9712    1.1318 H   0  0  0  0  0  0  0  0  0  0  0  0
   -3.6861   -2.3399   -0.5474 H   0  0  0  0  0  0  0  0  0  0  0  0
   -4.6506   -1.0366   -1.3379 H   0  0  0  0  0  0  0  0  0  0  0  0
   -6.4199   -2.2411   -0.3785 H   0  0  0  0  0  0  0  0  0  0  0  0
   -5.3995   -2.8109    1.0068 H   0  0  0  0  0  0  0  0  0  0  0  0
   -6.7030   -0.0876    0.5783 H   0  0  0  0  0  0  0  0  0  0  0  0
   -6.6574   -1.1038    2.0788 H   0  0  0  0  0  0  0  0  0  0  0  0
   -4.4921   -0.4019    2.6138 H   0  0  0  0  0  0  0  0  0  0  0  0
   -4.9622    1.0444    1.6577 H   0  0  0  0  0  0  0  0  0  0  0  0
  1  2  1  0
  2  3  1  0
  2  4  1  0
  2  5  1  0
  5  6  1  0
  6  7  1  0
  7  8  1  0
  7  9  1  0
  9 10  1  0
 10 11  1  0
 11 12  2  0
 12 13  1  0
 13 14  2  0
 14 15  1  0
 15 16  2  0
 16 11  1  0
 16 17  1  0
 17 18  1  0
 18 19  1  0
 19 20  1  0
 20 21  1  0
 21 17  1  0
  1 22  1  0
  1 23  1  0
  1 24  1  0
  3 25  1  0
  3 26  1  0
  3 27  1  0
  4 28  1  0
  4 29  1  0
  4 30  1  0
  5 31  1  0
  6 32  1  0
  6 33  1  0
  7 34  1  6
  8 35  1  0
  9 36  1  0
  9 37  1  0
 12 38  1  0
 13 39  1  0
 14 40  1  0
 15 41  1  0
 17 42  1  0
 18 43  1  0
 18 44  1  0
 19 45  1  0
 19 46  1  0
 20 47  1  0
 20 48  1  0
 21 49  1  0
 21 50  1  0
M  END
> <ID>
HT1610

> <Class>
0.0

> <Clusters>
145

> <Fold>
5

$$$$