
     RDKit          3D

 65 66  0  0  0  0  0  0  0  0999 V2000
   -0.8708    3.9400   -3.1792 C   0  0  0  0  0  0  0  0  0  0  0  0
   -1.6609    4.2500   -1.8904 C   0  0  0  0  0  0  0  0  0  0  0  0
   -2.0568    5.7359   -1.8653 C   0  0  0  0  0  0  0  0  0  0  0  0
   -0.5708    3.9151   -0.4710 S   0  0  0  0  0  0  0  0  0  0  0  0
   -1.5241    2.4244   -0.0083 C   0  0  0  0  0  0  0  0  0  0  0  0
   -2.4260    2.0701   -1.1092 N   0  0  0  0  0  0  0  0  0  0  0  0
   -2.8895    3.3280   -1.6957 C   0  0  0  0  0  0  0  0  0  0  0  0
   -3.6989    3.0951   -2.9513 C   0  0  0  0  0  0  0  0  0  0  0  0
   -3.7965    1.9424   -3.4539 O   0  0  0  0  0  0  0  0  0  0  0  0
   -4.3694    4.1603   -3.5451 O   0  0  0  0  0  0  0  0  0  0  0  0
   -0.5815    1.2537    0.3439 C   0  0  0  0  0  0  0  0  0  0  0  0
   -1.3657    0.0395    0.5912 N   0  0  0  0  0  0  0  0  0  0  0  0
   -1.3647   -1.0858   -0.3005 C   0  0  0  0  0  0  0  0  0  0  0  0
   -0.5480   -1.1379   -1.2606 O   0  0  0  0  0  0  0  0  0  0  0  0
   -2.4005   -2.1623   -0.1489 C   0  0  0  0  0  0  0  0  0  0  0  0
   -1.8079   -3.5313   -0.3558 C   0  0  0  0  0  0  0  0  0  0  0  0
   -2.0852   -4.2588   -1.5267 C   0  0  0  0  0  0  0  0  0  0  0  0
   -1.5368   -5.5319   -1.7104 C   0  0  0  0  0  0  0  0  0  0  0  0
   -0.7097   -6.0873   -0.7296 C   0  0  0  0  0  0  0  0  0  0  0  0
   -0.4303   -5.3711    0.4374 C   0  0  0  0  0  0  0  0  0  0  0  0
   -0.9729   -4.0954    0.6242 C   0  0  0  0  0  0  0  0  0  0  0  0
    0.2454    1.5703    1.5627 C   0  0  0  0  0  0  0  0  0  0  0  0
   -0.3240    1.7639    2.6719 O   0  0  0  0  0  0  0  0  0  0  0  0
    1.6743    1.6486    1.4629 N   0  0  0  0  0  0  0  0  0  0  0  0
    2.5407    1.7940    2.6324 C   0  0  0  0  0  0  0  0  0  0  0  0
    2.5375    0.5275    3.5088 C   0  0  0  0  0  0  0  0  0  0  0  0
    2.6780   -0.7890    2.7238 C   0  0  0  0  0  0  0  0  0  0  0  0
    4.0370   -0.9110    2.0042 C   0  0  0  0  0  0  0  0  0  0  0  0
    4.1574   -2.1570    1.0931 C   0  0  0  0  0  0  0  0  0  0  0  0
    4.1653   -3.4054    1.8630 N   0  0  0  0  0  0  0  0  0  0  0  0
    3.1018   -2.1659    0.0084 C   0  0  0  0  0  0  0  0  0  0  0  0
    3.0541   -1.2061   -0.8067 O   0  0  0  0  0  0  0  0  0  0  0  0
    2.1791   -3.2016   -0.1278 O   0  0  0  0  0  0  0  0  0  0  0  0
   -0.5502    2.8786   -3.2016 H   0  0  0  0  0  0  0  0  0  0  0  0
    0.0397    4.5732   -3.2319 H   0  0  0  0  0  0  0  0  0  0  0  0
   -1.4817    4.1469   -4.0818 H   0  0  0  0  0  0  0  0  0  0  0  0
   -1.1484    6.3768   -1.9101 H   0  0  0  0  0  0  0  0  0  0  0  0
   -2.6044    5.9801   -0.9298 H   0  0  0  0  0  0  0  0  0  0  0  0
   -2.7011    5.9900   -2.7330 H   0  0  0  0  0  0  0  0  0  0  0  0
   -2.1439    2.6762    0.8809 H   0  0  0  0  0  0  0  0  0  0  0  0
   -1.8828    1.5430   -1.8340 H   0  0  0  0  0  0  0  0  0  0  0  0
   -3.5855    3.7968   -0.9621 H   0  0  0  0  0  0  0  0  0  0  0  0
   -4.9400    4.0174   -4.3691 H   0  0  0  0  0  0  0  0  0  0  0  0
    0.1027    1.0982   -0.5181 H   0  0  0  0  0  0  0  0  0  0  0  0
   -2.0307    0.0361    1.3977 H   0  0  0  0  0  0  0  0  0  0  0  0
   -2.8636   -2.1183    0.8601 H   0  0  0  0  0  0  0  0  0  0  0  0
   -3.2072   -1.9684   -0.8876 H   0  0  0  0  0  0  0  0  0  0  0  0
   -2.7221   -3.8424   -2.2972 H   0  0  0  0  0  0  0  0  0  0  0  0
   -1.7535   -6.0889   -2.6128 H   0  0  0  0  0  0  0  0  0  0  0  0
   -0.2858   -7.0730   -0.8726 H   0  0  0  0  0  0  0  0  0  0  0  0
    0.2125   -5.8012    1.1940 H   0  0  0  0  0  0  0  0  0  0  0  0
   -0.7433   -3.5477    1.5295 H   0  0  0  0  0  0  0  0  0  0  0  0
    2.1246    1.6032    0.5213 H   0  0  0  0  0  0  0  0  0  0  0  0
    2.2076    2.6668    3.2341 H   0  0  0  0  0  0  0  0  0  0  0  0
    3.5783    2.0089    2.2988 H   0  0  0  0  0  0  0  0  0  0  0  0
    1.5829    0.4936    4.0776 H   0  0  0  0  0  0  0  0  0  0  0  0
    3.3586    0.6013    4.2562 H   0  0  0  0  0  0  0  0  0  0  0  0
    1.8426   -0.8819    1.9973 H   0  0  0  0  0  0  0  0  0  0  0  0
    2.5717   -1.6160    3.4546 H   0  0  0  0  0  0  0  0  0  0  0  0
    4.8477   -0.9316    2.7647 H   0  0  0  0  0  0  0  0  0  0  0  0
    4.2093   -0.0151    1.3707 H   0  0  0  0  0  0  0  0  0  0  0  0
    5.1380   -2.0856    0.5737 H   0  0  0  0  0  0  0  0  0  0  0  0
    3.3012   -3.4783    2.4427 H   0  0  0  0  0  0  0  0  0  0  0  0
    4.9784   -3.3892    2.5192 H   0  0  0  0  0  0  0  0  0  0  0  0
    2.1687   -4.0103    0.4805 H   0  0  0  0  0  0  0  0  0  0  0  0
  1  2  1  0
  2  3  1  0
  2  4  1  0
  4  5  1  0
  5  6  1  0
  6  7  1  0
  7  2  1  0
  7  8  1  0
  8  9  2  0
  8 10  1  0
  5 11  1  0
 11 12  1  0
 12 13  1  0
 13 14  2  0
 13 15  1  0
 15 16  1  0
 16 17  2  0
 17 18  1  0
 18 19  2  0
 19 20  1  0
 20 21  2  0
 21 16  1  0
 11 22  1  0
 22 23  2  0
 22 24  1  0
 24 25  1  0
 25 26  1  0
 26 27  1  0
 27 28  1  0
 28 29  1  0
 29 30  1  0
 29 31  1  0
 31 32  2  0
 31 33  1  0
  1 34  1  0
  1 35  1  0
  1 36  1  0
  3 37  1  0
  3 38  1  0
  3 39  1  0
  5 40  1  0
  6 41  1  0
  7 42  1  0
 10 43  1  0
 11 44  1  0
 12 45  1  0
 15 46  1  0
 15 47  1  0
 17 48  1  0
 18 49  1  0
 19 50  1  0
 20 51  1  0
 21 52  1  0
 24 53  1  0
 25 54  1  0
 25 55  1  0
 26 56  1  0
 26 57  1  0
 27 58  1  0
 27 59  1  0
 28 60  1  0
 28 61  1  0
 29 62  1  0
 30 63  1  0
 30 64  1  0
 33 65  1  0
M  END
> <ID>
HT0261

> <Class>
0.0

> <Clusters>
18

> <Fold>
5

$$$$