
     RDKit          3D

 23 25  0  0  0  0  0  0  0  0999 V2000
   -0.0152    0.8499   -2.2026 S   0  0  0  0  0  0  0  0  0  0  0  0
    0.1626    0.2854   -0.5691 P   0  0  0  0  0  0  0  0  0  0  0  0
    0.2946   -1.4888   -0.6450 N   0  0  0  0  0  0  0  0  0  0  0  0
   -1.0410   -2.1023   -0.8260 C   0  0  0  0  0  0  0  0  0  0  0  0
   -0.3937   -2.1644    0.4791 C   0  0  0  0  0  0  0  0  0  0  0  0
   -1.1543    0.7871    0.5308 N   0  0  0  0  0  0  0  0  0  0  0  0
   -1.4077    2.2418    0.4233 C   0  0  0  0  0  0  0  0  0  0  0  0
   -2.3717    1.2997   -0.1400 C   0  0  0  0  0  0  0  0  0  0  0  0
    1.6521    1.0216    0.0559 N   0  0  0  0  0  0  0  0  0  0  0  0
    2.2729    0.1846    1.1058 C   0  0  0  0  0  0  0  0  0  0  0  0
    2.8403    0.1901   -0.2401 C   0  0  0  0  0  0  0  0  0  0  0  0
   -1.8998   -1.4014   -0.8969 H   0  0  0  0  0  0  0  0  0  0  0  0
   -0.9925   -3.0424   -1.4141 H   0  0  0  0  0  0  0  0  0  0  0  0
   -0.8097   -1.5075    1.2684 H   0  0  0  0  0  0  0  0  0  0  0  0
    0.0724   -3.1423    0.7207 H   0  0  0  0  0  0  0  0  0  0  0  0
   -0.7922    2.7954   -0.3179 H   0  0  0  0  0  0  0  0  0  0  0  0
   -1.7055    2.6862    1.3959 H   0  0  0  0  0  0  0  0  0  0  0  0
   -2.4057    1.2200   -1.2425 H   0  0  0  0  0  0  0  0  0  0  0  0
   -3.2799    1.1421    0.4782 H   0  0  0  0  0  0  0  0  0  0  0  0
    2.8309    0.7936    1.8473 H   0  0  0  0  0  0  0  0  0  0  0  0
    1.7223   -0.7329    1.3945 H   0  0  0  0  0  0  0  0  0  0  0  0
    3.7577    0.8043   -0.3553 H   0  0  0  0  0  0  0  0  0  0  0  0
    2.6632   -0.7198   -0.8503 H   0  0  0  0  0  0  0  0  0  0  0  0
  1  2  2  0
  2  3  1  0
  3  4  1  0
  4  5  1  0
  5  3  1  0
  2  6  1  0
  6  7  1  0
  7  8  1  0
  8  6  1  0
  2  9  1  0
  9 10  1  0
 10 11  1  0
 11  9  1  0
  4 12  1  0
  4 13  1  0
  5 14  1  0
  5 15  1  0
  7 16  1  0
  7 17  1  0
  8 18  1  0
  8 19  1  0
 10 20  1  0
 10 21  1  0
 11 22  1  0
 11 23  1  0
M  END
> <ID>
HT2047

> <Class>
0.0

> <Clusters>
115

> <Fold>
5

$$$$