
     RDKit          3D

 44 46  0  0  0  0  0  0  0  0999 V2000
   -4.5223    2.0713   -3.8816 Cl  0  0  0  0  0  0  0  0  0  0  0  0
   -3.4611    1.7343   -2.5264 C   0  0  0  0  0  0  0  0  0  0  0  0
   -3.9809    1.6690   -1.2296 C   0  0  0  0  0  0  0  0  0  0  0  0
   -3.1369    1.3979   -0.1484 C   0  0  0  0  0  0  0  0  0  0  0  0
   -1.7632    1.1877   -0.3573 C   0  0  0  0  0  0  0  0  0  0  0  0
   -0.8493    0.8634    0.7992 C   0  0  0  0  0  0  0  0  0  0  0  0
   -0.3590   -0.5755    0.7403 C   0  0  0  0  0  0  0  0  0  0  0  0
    0.8919   -0.9484    1.0902 C   0  0  0  0  0  0  0  0  0  0  0  0
    1.9950   -0.0438    1.5777 C   0  0  0  0  0  0  0  0  0  0  0  0
    3.0632    0.0434    0.5651 N   0  0  0  0  0  0  0  0  0  0  0  0
    4.2717    0.6752    1.1020 C   0  0  0  0  0  0  0  0  0  0  0  0
    5.0042    1.2982   -0.0784 C   0  0  0  0  0  0  0  0  0  0  0  0
    3.9812    1.3653   -1.2013 C   0  0  0  0  0  0  0  0  0  0  0  0
    2.6853    0.8625   -0.5894 C   0  0  0  0  0  0  0  0  0  0  0  0
   -1.3207   -1.6409    0.3550 C   0  0  0  0  0  0  0  0  0  0  0  0
   -1.0011   -2.5535   -0.6664 C   0  0  0  0  0  0  0  0  0  0  0  0
   -1.9185   -3.5380   -1.0453 C   0  0  0  0  0  0  0  0  0  0  0  0
   -3.1603   -3.6201   -0.4100 C   0  0  0  0  0  0  0  0  0  0  0  0
   -3.4865   -2.7183    0.6060 C   0  0  0  0  0  0  0  0  0  0  0  0
   -2.5721   -1.7324    0.9888 C   0  0  0  0  0  0  0  0  0  0  0  0
   -1.2483    1.2575   -1.6627 C   0  0  0  0  0  0  0  0  0  0  0  0
   -2.0946    1.5293   -2.7415 C   0  0  0  0  0  0  0  0  0  0  0  0
   -5.0382    1.8257   -1.0585 H   0  0  0  0  0  0  0  0  0  0  0  0
   -3.5563    1.3451    0.8484 H   0  0  0  0  0  0  0  0  0  0  0  0
   -1.3713    1.0194    1.7675 H   0  0  0  0  0  0  0  0  0  0  0  0
   -0.0244    1.5969    0.7588 H   0  0  0  0  0  0  0  0  0  0  0  0
    1.1564   -1.9983    1.0257 H   0  0  0  0  0  0  0  0  0  0  0  0
    2.4069   -0.5216    2.4938 H   0  0  0  0  0  0  0  0  0  0  0  0
    1.6492    0.9586    1.9015 H   0  0  0  0  0  0  0  0  0  0  0  0
    4.9084   -0.0872    1.6005 H   0  0  0  0  0  0  0  0  0  0  0  0
    4.0204    1.4756    1.8368 H   0  0  0  0  0  0  0  0  0  0  0  0
    5.3775    2.3130    0.1816 H   0  0  0  0  0  0  0  0  0  0  0  0
    5.8638    0.6601   -0.3801 H   0  0  0  0  0  0  0  0  0  0  0  0
    4.2895    0.6993   -2.0373 H   0  0  0  0  0  0  0  0  0  0  0  0
    3.8662    2.4032   -1.5833 H   0  0  0  0  0  0  0  0  0  0  0  0
    2.1167    0.2515   -1.3229 H   0  0  0  0  0  0  0  0  0  0  0  0
    2.0726    1.7404   -0.2839 H   0  0  0  0  0  0  0  0  0  0  0  0
   -0.0488   -2.4922   -1.1790 H   0  0  0  0  0  0  0  0  0  0  0  0
   -1.6683   -4.2349   -1.8347 H   0  0  0  0  0  0  0  0  0  0  0  0
   -3.8699   -4.3821   -0.7055 H   0  0  0  0  0  0  0  0  0  0  0  0
   -4.4484   -2.7833    1.0979 H   0  0  0  0  0  0  0  0  0  0  0  0
   -2.8380   -1.0456    1.7822 H   0  0  0  0  0  0  0  0  0  0  0  0
   -0.1938    1.0946   -1.8438 H   0  0  0  0  0  0  0  0  0  0  0  0
   -1.6877    1.5778   -3.7435 H   0  0  0  0  0  0  0  0  0  0  0  0
  1  2  1  0
  2  3  2  0
  3  4  1  0
  4  5  2  0
  5  6  1  0
  6  7  1  0
  7  8  2  3
  8  9  1  0
  9 10  1  0
 10 11  1  0
 11 12  1  0
 12 13  1  0
 13 14  1  0
 14 10  1  0
  7 15  1  0
 15 16  2  0
 16 17  1  0
 17 18  2  0
 18 19  1  0
 19 20  2  0
 20 15  1  0
  5 21  1  0
 21 22  2  0
 22  2  1  0
  3 23  1  0
  4 24  1  0
  6 25  1  0
  6 26  1  0
  8 27  1  0
  9 28  1  0
  9 29  1  0
 11 30  1  0
 11 31  1  0
 12 32  1  0
 12 33  1  0
 13 34  1  0
 13 35  1  0
 14 36  1  0
 14 37  1  0
 16 38  1  0
 17 39  1  0
 18 40  1  0
 19 41  1  0
 20 42  1  0
 21 43  1  0
 22 44  1  0
M  END
> <ID>
HT3418

> <Class>
0.0

> <Clusters>
236

> <Fold>
5

$$$$