
     RDKit          3D

 71 74  0  0  0  0  0  0  0  0999 V2000
    6.6775    1.9566   -3.2235 C   0  0  0  0  0  0  0  0  0  0  0  0
    5.9528    1.7816   -1.8922 C   0  0  0  0  0  0  0  0  0  0  0  0
    4.9646    0.6107   -1.9450 C   0  0  0  0  0  0  0  0  0  0  0  0
    4.2161    0.4676   -0.6117 C   0  0  0  0  0  0  0  0  0  0  0  0
    3.2113   -0.6480   -0.6152 C   0  0  0  0  0  0  0  0  0  0  0  0
    3.1097   -1.4233   -1.6045 O   0  0  0  0  0  0  0  0  0  0  0  0
    2.4040   -0.8108    0.5200 O   0  0  0  0  0  0  0  0  0  0  0  0
    1.2436   -1.6597    0.6471 C   0  0  1  0  0  0  0  0  0  0  0  0
    0.8013   -1.7097    2.1516 C   0  0  1  0  0  0  0  0  0  0  0  0
    1.6552   -0.8514    3.1020 C   0  0  0  0  0  0  0  0  0  0  0  0
   -0.6727   -1.3052    2.2101 C   0  0  0  0  0  0  0  0  0  0  0  0
   -1.2025   -1.3930    0.7787 C   0  0  1  0  0  0  0  0  0  0  0  0
   -2.5167   -0.5707    0.5768 C   0  0  2  0  0  0  0  0  0  0  0  0
   -3.4294   -1.1684   -0.5111 C   0  0  0  0  0  0  0  0  0  0  0  0
   -4.8666   -0.6481   -0.3453 C   0  0  0  0  0  0  0  0  0  0  0  0
   -4.9036    0.7736    0.1760 C   0  0  0  0  0  0  0  0  0  0  0  0
   -6.0219    1.2077    0.7802 C   0  0  0  0  0  0  0  0  0  0  0  0
   -6.1055    2.5639    1.3240 C   0  0  0  0  0  0  0  0  0  0  0  0
   -7.1677    2.9655    1.8693 O   0  0  0  0  0  0  0  0  0  0  0  0
   -4.9411    3.4448    1.2479 C   0  0  0  0  0  0  0  0  0  0  0  0
   -3.8270    3.0405    0.6361 C   0  0  0  0  0  0  0  0  0  0  0  0
   -3.7002    1.6973   -0.0867 C   0  0  2  0  0  0  0  0  0  0  0  0
   -3.7652    2.0449   -1.5988 C   0  0  0  0  0  0  0  0  0  0  0  0
   -2.3373    0.9763    0.3789 C   0  0  1  0  0  0  0  0  0  0  0  0
   -1.9989    1.4766    1.6313 F   0  0  0  0  0  0  0  0  0  0  0  0
   -1.1388    1.2899   -0.5623 C   0  0  1  0  0  0  0  0  0  0  0  0
   -0.8640    2.6680   -0.5138 O   0  0  0  0  0  0  0  0  0  0  0  0
    0.1415    0.5270   -0.1739 C   0  0  0  0  0  0  0  0  0  0  0  0
   -0.0036   -1.0276   -0.1205 C   0  0  1  0  0  0  0  0  0  0  0  0
   -0.1947   -1.5854   -1.5649 C   0  0  0  0  0  0  0  0  0  0  0  0
    1.6143   -3.1052    0.2653 C   0  0  0  0  0  0  0  0  0  0  0  0
    0.7806   -3.8620   -0.2071 O   0  0  0  0  0  0  0  0  0  0  0  0
    2.9590   -3.6804    0.6248 C   0  0  0  0  0  0  0  0  0  0  0  0
    2.7866   -4.7390    1.5250 O   0  0  0  0  0  0  0  0  0  0  0  0
    7.3926    2.8038   -3.1467 H   0  0  0  0  0  0  0  0  0  0  0  0
    5.9486    2.1781   -4.0332 H   0  0  0  0  0  0  0  0  0  0  0  0
    7.2433    1.0358   -3.4805 H   0  0  0  0  0  0  0  0  0  0  0  0
    6.7036    1.5998   -1.0927 H   0  0  0  0  0  0  0  0  0  0  0  0
    5.4079    2.7223   -1.6552 H   0  0  0  0  0  0  0  0  0  0  0  0
    5.5186   -0.3296   -2.1619 H   0  0  0  0  0  0  0  0  0  0  0  0
    4.2301    0.7874   -2.7608 H   0  0  0  0  0  0  0  0  0  0  0  0
    4.9443    0.2813    0.2064 H   0  0  0  0  0  0  0  0  0  0  0  0
    3.6776    1.4140   -0.3889 H   0  0  0  0  0  0  0  0  0  0  0  0
    0.8628   -2.7490    2.5519 H   0  0  0  0  0  0  0  0  0  0  0  0
    2.7081   -1.2010    3.0901 H   0  0  0  0  0  0  0  0  0  0  0  0
    1.2741   -0.9448    4.1421 H   0  0  0  0  0  0  0  0  0  0  0  0
    1.6248    0.2186    2.8107 H   0  0  0  0  0  0  0  0  0  0  0  0
   -0.7754   -0.2774    2.6085 H   0  0  0  0  0  0  0  0  0  0  0  0
   -1.2452   -1.9842    2.8791 H   0  0  0  0  0  0  0  0  0  0  0  0
   -1.4402   -2.4704    0.6272 H   0  0  0  0  0  0  0  0  0  0  0  0
   -3.0825   -0.7025    1.5294 H   0  0  0  0  0  0  0  0  0  0  0  0
   -3.0457   -0.9179   -1.5192 H   0  0  0  0  0  0  0  0  0  0  0  0
   -3.4538   -2.2779   -0.4381 H   0  0  0  0  0  0  0  0  0  0  0  0
   -5.3995   -0.7015   -1.3182 H   0  0  0  0  0  0  0  0  0  0  0  0
   -5.3946   -1.3158    0.3710 H   0  0  0  0  0  0  0  0  0  0  0  0
   -6.8732    0.5469    0.8975 H   0  0  0  0  0  0  0  0  0  0  0  0
   -4.9812    4.4272    1.7014 H   0  0  0  0  0  0  0  0  0  0  0  0
   -2.9976    3.7364    0.5872 H   0  0  0  0  0  0  0  0  0  0  0  0
   -3.0066    2.8039   -1.8844 H   0  0  0  0  0  0  0  0  0  0  0  0
   -3.6312    1.1509   -2.2401 H   0  0  0  0  0  0  0  0  0  0  0  0
   -4.7575    2.4804   -1.8506 H   0  0  0  0  0  0  0  0  0  0  0  0
   -1.4027    1.0166   -1.6022 H   0  0  0  0  0  0  0  0  0  0  0  0
   -0.3291    2.8879   -1.3213 H   0  0  0  0  0  0  0  0  0  0  0  0
    0.4804    0.9145    0.8107 H   0  0  0  0  0  0  0  0  0  0  0  0
    0.9300    0.7946   -0.9100 H   0  0  0  0  0  0  0  0  0  0  0  0
    0.7697   -1.6834   -2.0931 H   0  0  0  0  0  0  0  0  0  0  0  0
   -0.6993   -2.5720   -1.5715 H   0  0  0  0  0  0  0  0  0  0  0  0
   -0.8249   -0.9397   -2.1975 H   0  0  0  0  0  0  0  0  0  0  0  0
    3.4509   -4.0521   -0.2991 H   0  0  0  0  0  0  0  0  0  0  0  0
    3.6115   -2.9094    1.0906 H   0  0  0  0  0  0  0  0  0  0  0  0
    3.7006   -5.0768    1.7254 H   0  0  0  0  0  0  0  0  0  0  0  0
  1  2  1  0
  2  3  1  0
  3  4  1  0
  4  5  1  0
  5  6  2  0
  5  7  1  0
  8  7  1  1
  8  9  1  0
  9 10  1  0
  9 11  1  0
 12 11  1  0
 12 13  1  0
 13 14  1  0
 14 15  1  0
 15 16  1  0
 16 17  2  0
 17 18  1  0
 18 19  2  0
 18 20  1  0
 20 21  2  0
 21 22  1  0
 22 16  1  0
 22 23  1  6
 22 24  1  0
 24 13  1  0
 24 25  1  1
 24 26  1  0
 26 27  1  0
 26 28  1  0
 28 29  1  0
 29  8  1  0
 29 12  1  0
 29 30  1  6
  8 31  1  0
 31 32  2  0
 31 33  1  0
 33 34  1  0
  1 35  1  0
  1 36  1  0
  1 37  1  0
  2 38  1  0
  2 39  1  0
  3 40  1  0
  3 41  1  0
  4 42  1  0
  4 43  1  0
  9 44  1  1
 10 45  1  0
 10 46  1  0
 10 47  1  0
 11 48  1  0
 11 49  1  0
 12 50  1  6
 13 51  1  1
 14 52  1  0
 14 53  1  0
 15 54  1  0
 15 55  1  0
 17 56  1  0
 20 57  1  0
 21 58  1  0
 23 59  1  0
 23 60  1  0
 23 61  1  0
 26 62  1  6
 27 63  1  0
 28 64  1  0
 28 65  1  0
 30 66  1  0
 30 67  1  0
 30 68  1  0
 33 69  1  0
 33 70  1  0
 34 71  1  0
M  END
> <ID>
HT0272

> <Class>
0.0

> <Clusters>
34

> <Fold>
5

$$$$