
     RDKit          3D

 38 38  0  0  0  0  0  0  0  0999 V2000
   -0.8978   -2.5457   -1.3639 C   0  0  0  0  0  0  0  0  0  0  0  0
   -1.2989   -1.8966   -0.0345 C   0  0  0  0  0  0  0  0  0  0  0  0
   -1.5889   -0.3637   -0.0808 C   0  0  0  0  0  0  0  0  0  0  0  0
   -2.5366   -0.0015   -1.2452 C   0  0  0  0  0  0  0  0  0  0  0  0
   -0.3031    0.5542    0.0552 C   0  0  0  0  0  0  0  0  0  0  0  0
   -0.6561    2.0807    0.0711 C   0  0  0  0  0  0  0  0  0  0  0  0
   -1.6624    2.4896    1.1235 C   0  0  0  0  0  0  0  0  0  0  0  0
   -1.3478    3.3311    2.1130 C   0  0  0  0  0  0  0  0  0  0  0  0
    0.6335    0.3447   -1.1350 C   0  0  0  0  0  0  0  0  0  0  0  0
    0.2490    0.7174   -2.2784 O   0  0  0  0  0  0  0  0  0  0  0  0
    1.9369   -0.2531   -1.0042 N   0  0  0  0  0  0  0  0  0  0  0  0
    2.7221   -0.5667   -2.2055 C   0  0  0  0  0  0  0  0  0  0  0  0
    2.4253   -0.6480    0.2826 C   0  0  0  0  0  0  0  0  0  0  0  0
    3.4748   -1.3445    0.3719 O   0  0  0  0  0  0  0  0  0  0  0  0
    1.7333   -0.2474    1.4694 N   0  0  0  0  0  0  0  0  0  0  0  0
    2.3387   -0.4977    2.7829 C   0  0  0  0  0  0  0  0  0  0  0  0
    0.3803    0.2320    1.3873 C   0  0  0  0  0  0  0  0  0  0  0  0
   -0.2846    0.3589    2.4537 O   0  0  0  0  0  0  0  0  0  0  0  0
    0.0237   -2.0994   -1.7787 H   0  0  0  0  0  0  0  0  0  0  0  0
   -0.7005   -3.6251   -1.1940 H   0  0  0  0  0  0  0  0  0  0  0  0
   -1.7169   -2.4684   -2.1081 H   0  0  0  0  0  0  0  0  0  0  0  0
   -0.5161   -2.1239    0.7186 H   0  0  0  0  0  0  0  0  0  0  0  0
   -2.2194   -2.4136    0.3163 H   0  0  0  0  0  0  0  0  0  0  0  0
   -2.1983   -0.1793    0.8316 H   0  0  0  0  0  0  0  0  0  0  0  0
   -3.4231   -0.6711   -1.2279 H   0  0  0  0  0  0  0  0  0  0  0  0
   -2.0469   -0.1113   -2.2319 H   0  0  0  0  0  0  0  0  0  0  0  0
   -2.9163    1.0350   -1.1479 H   0  0  0  0  0  0  0  0  0  0  0  0
   -1.0653    2.3996   -0.9109 H   0  0  0  0  0  0  0  0  0  0  0  0
    0.2861    2.6607    0.2033 H   0  0  0  0  0  0  0  0  0  0  0  0
   -2.6790    2.1148    1.0639 H   0  0  0  0  0  0  0  0  0  0  0  0
   -2.0990    3.6133    2.8434 H   0  0  0  0  0  0  0  0  0  0  0  0
   -0.3464    3.7394    2.2081 H   0  0  0  0  0  0  0  0  0  0  0  0
    2.4364   -1.5694   -2.5861 H   0  0  0  0  0  0  0  0  0  0  0  0
    2.5529    0.1892   -3.0010 H   0  0  0  0  0  0  0  0  0  0  0  0
    3.8102   -0.5573   -1.9824 H   0  0  0  0  0  0  0  0  0  0  0  0
    2.0554   -1.5113    3.1365 H   0  0  0  0  0  0  0  0  0  0  0  0
    1.9992    0.2582    3.5226 H   0  0  0  0  0  0  0  0  0  0  0  0
    3.4457   -0.4238    2.7286 H   0  0  0  0  0  0  0  0  0  0  0  0
  1  2  1  0
  2  3  1  0
  3  4  1  0
  3  5  1  0
  5  6  1  0
  6  7  1  0
  7  8  2  3
  5  9  1  0
  9 10  2  0
  9 11  1  0
 11 12  1  0
 11 13  1  0
 13 14  2  0
 13 15  1  0
 15 16  1  0
 15 17  1  0
 17  5  1  0
 17 18  2  0
  1 19  1  0
  1 20  1  0
  1 21  1  0
  2 22  1  0
  2 23  1  0
  3 24  1  0
  4 25  1  0
  4 26  1  0
  4 27  1  0
  6 28  1  0
  6 29  1  0
  7 30  1  0
  8 31  1  0
  8 32  1  0
 12 33  1  0
 12 34  1  0
 12 35  1  0
 16 36  1  0
 16 37  1  0
 16 38  1  0
M  END
> <ID>
HT1974

> <Class>
0.0

> <Clusters>
258

> <Fold>
5

$$$$