
     RDKit          3D

 61 63  0  0  0  0  0  0  0  0999 V2000
    3.9876    2.9585   -0.7906 C   0  0  0  0  0  0  0  0  0  0  0  0
    2.8741    1.9714   -1.1677 C   0  0  0  0  0  0  0  0  0  0  0  0
    3.1831    1.3076   -2.5168 C   0  0  0  0  0  0  0  0  0  0  0  0
    2.6946    0.9191   -0.0629 C   0  0  0  0  0  0  0  0  0  0  0  0
    1.5805    0.1055   -0.3614 O   0  0  0  0  0  0  0  0  0  0  0  0
    1.4065   -0.8550    0.6583 C   0  0  0  0  0  0  0  0  0  0  0  0
    0.1291   -1.7033    0.4122 C   0  0  0  0  0  0  0  0  0  0  0  0
   -1.0756   -0.8478   -0.0442 C   0  0  0  0  0  0  0  0  0  0  0  0
   -1.5006    0.0989    0.9970 N   0  0  0  0  0  0  0  0  0  0  0  0
   -1.2408    1.5406    0.8697 C   0  0  0  0  0  0  0  0  0  0  0  0
   -1.9902    2.2002   -0.2673 C   0  0  0  0  0  0  0  0  0  0  0  0
   -3.0400    1.5668   -0.9684 C   0  0  0  0  0  0  0  0  0  0  0  0
   -3.7080    2.2371   -1.9980 C   0  0  0  0  0  0  0  0  0  0  0  0
   -3.3418    3.5412   -2.3354 C   0  0  0  0  0  0  0  0  0  0  0  0
   -2.3107    4.1827   -1.6406 C   0  0  0  0  0  0  0  0  0  0  0  0
   -1.6427    3.5184   -0.6093 C   0  0  0  0  0  0  0  0  0  0  0  0
   -2.1631   -0.3825    2.1771 C   0  0  0  0  0  0  0  0  0  0  0  0
   -1.4424   -0.5359    3.3756 C   0  0  0  0  0  0  0  0  0  0  0  0
   -2.0995   -0.9227    4.5495 C   0  0  0  0  0  0  0  0  0  0  0  0
   -3.4843   -1.1337    4.5367 C   0  0  0  0  0  0  0  0  0  0  0  0
   -4.2077   -0.9903    3.3407 C   0  0  0  0  0  0  0  0  0  0  0  0
   -3.5515   -0.6171    2.1634 C   0  0  0  0  0  0  0  0  0  0  0  0
    0.3279   -2.8500   -0.5173 N   0  0  0  0  0  0  0  0  0  0  0  0
    0.8907   -2.5173   -1.8358 C   0  0  0  0  0  0  0  0  0  0  0  0
    2.3168   -3.0435   -1.8737 C   0  0  0  0  0  0  0  0  0  0  0  0
    2.2916   -4.2276   -0.9329 C   0  0  0  0  0  0  0  0  0  0  0  0
    1.1589   -3.9274    0.0528 C   0  0  0  0  0  0  0  0  0  0  0  0
    3.7273    3.4921    0.1497 H   0  0  0  0  0  0  0  0  0  0  0  0
    4.9506    2.4246   -0.6449 H   0  0  0  0  0  0  0  0  0  0  0  0
    4.1150    3.7169   -1.5938 H   0  0  0  0  0  0  0  0  0  0  0  0
    1.9243    2.5439   -1.2672 H   0  0  0  0  0  0  0  0  0  0  0  0
    3.2865    2.0844   -3.3075 H   0  0  0  0  0  0  0  0  0  0  0  0
    2.3541    0.6284   -2.8158 H   0  0  0  0  0  0  0  0  0  0  0  0
    4.1255    0.7219   -2.4570 H   0  0  0  0  0  0  0  0  0  0  0  0
    3.6246    0.3083    0.0145 H   0  0  0  0  0  0  0  0  0  0  0  0
    2.5302    1.4533    0.9031 H   0  0  0  0  0  0  0  0  0  0  0  0
    1.2986   -0.3524    1.6437 H   0  0  0  0  0  0  0  0  0  0  0  0
    2.2952   -1.5134    0.7197 H   0  0  0  0  0  0  0  0  0  0  0  0
   -0.1595   -2.1314    1.3980 H   0  0  0  0  0  0  0  0  0  0  0  0
   -0.8245   -0.3010   -0.9768 H   0  0  0  0  0  0  0  0  0  0  0  0
   -1.9272   -1.5182   -0.2949 H   0  0  0  0  0  0  0  0  0  0  0  0
   -1.5048    2.0674    1.8142 H   0  0  0  0  0  0  0  0  0  0  0  0
   -0.1533    1.6932    0.7168 H   0  0  0  0  0  0  0  0  0  0  0  0
   -3.3516    0.5587   -0.7332 H   0  0  0  0  0  0  0  0  0  0  0  0
   -4.5151    1.7465   -2.5282 H   0  0  0  0  0  0  0  0  0  0  0  0
   -3.8618    4.0599   -3.1301 H   0  0  0  0  0  0  0  0  0  0  0  0
   -2.0320    5.1978   -1.8998 H   0  0  0  0  0  0  0  0  0  0  0  0
   -0.8528    4.0322   -0.0733 H   0  0  0  0  0  0  0  0  0  0  0  0
   -0.3739   -0.3506    3.3966 H   0  0  0  0  0  0  0  0  0  0  0  0
   -1.5393   -1.0339    5.4765 H   0  0  0  0  0  0  0  0  0  0  0  0
   -3.9984   -1.4113    5.4501 H   0  0  0  0  0  0  0  0  0  0  0  0
   -5.2848   -1.1362    3.3355 H   0  0  0  0  0  0  0  0  0  0  0  0
   -4.1267   -0.4796    1.2516 H   0  0  0  0  0  0  0  0  0  0  0  0
    0.8537   -1.4361   -2.0799 H   0  0  0  0  0  0  0  0  0  0  0  0
    0.2925   -3.0498   -2.6125 H   0  0  0  0  0  0  0  0  0  0  0  0
    2.6222   -3.3369   -2.9039 H   0  0  0  0  0  0  0  0  0  0  0  0
    3.0197   -2.2686   -1.4856 H   0  0  0  0  0  0  0  0  0  0  0  0
    3.2721   -4.3539   -0.4148 H   0  0  0  0  0  0  0  0  0  0  0  0
    2.0568   -5.1570   -1.5074 H   0  0  0  0  0  0  0  0  0  0  0  0
    1.5876   -3.6587    1.0467 H   0  0  0  0  0  0  0  0  0  0  0  0
    0.5270   -4.8342    0.1990 H   0  0  0  0  0  0  0  0  0  0  0  0
  1  2  1  0
  2  3  1  0
  2  4  1  0
  4  5  1  0
  5  6  1  0
  6  7  1  0
  7  8  1  0
  8  9  1  0
  9 10  1  0
 10 11  1  0
 11 12  2  0
 12 13  1  0
 13 14  2  0
 14 15  1  0
 15 16  2  0
 16 11  1  0
  9 17  1  0
 17 18  2  0
 18 19  1  0
 19 20  2  0
 20 21  1  0
 21 22  2  0
 22 17  1  0
  7 23  1  0
 23 24  1  0
 24 25  1  0
 25 26  1  0
 26 27  1  0
 27 23  1  0
  1 28  1  0
  1 29  1  0
  1 30  1  0
  2 31  1  0
  3 32  1  0
  3 33  1  0
  3 34  1  0
  4 35  1  0
  4 36  1  0
  6 37  1  0
  6 38  1  0
  7 39  1  0
  8 40  1  0
  8 41  1  0
 10 42  1  0
 10 43  1  0
 12 44  1  0
 13 45  1  0
 14 46  1  0
 15 47  1  0
 16 48  1  0
 18 49  1  0
 19 50  1  0
 20 51  1  0
 21 52  1  0
 22 53  1  0
 24 54  1  0
 24 55  1  0
 25 56  1  0
 25 57  1  0
 26 58  1  0
 26 59  1  0
 27 60  1  0
 27 61  1  0
M  END
> <ID>
HT0263

> <Class>
0.0

> <Clusters>
31

> <Fold>
5

$$$$