
     RDKit          3D

 46 50  0  0  0  0  0  0  0  0999 V2000
    4.2695    0.4814    2.3983 N   0  0  0  0  0  0  0  0  0  0  0  0
    4.0760    1.0381    1.0576 C   0  0  2  0  0  0  0  0  0  0  0  0
    2.6550    1.6160    0.9173 C   0  0  0  0  0  0  0  0  0  0  0  0
    1.9101    0.6954    0.0630 N   0  0  0  0  0  0  0  0  0  0  0  0
    2.7114   -0.3640   -0.5215 C   0  0  0  0  0  0  0  0  0  0  0  0
    4.1015   -0.0726    0.0027 C   0  0  0  0  0  0  0  0  0  0  0  0
    5.1765   -1.1488   -0.0356 C   0  0  0  0  0  0  0  0  0  0  0  0
    5.2156   -0.0005   -1.0380 C   0  0  0  0  0  0  0  0  0  0  0  0
    0.5234    0.8753   -0.2509 C   0  0  0  0  0  0  0  0  0  0  0  0
    0.1495    1.8954   -1.1261 C   0  0  0  0  0  0  0  0  0  0  0  0
    1.0921    2.6859   -1.6989 F   0  0  0  0  0  0  0  0  0  0  0  0
   -1.1930    2.1371   -1.3863 C   0  0  0  0  0  0  0  0  0  0  0  0
   -2.1909    1.3175   -0.8303 C   0  0  0  0  0  0  0  0  0  0  0  0
   -3.5506    1.6085   -1.0464 C   0  0  0  0  0  0  0  0  0  0  0  0
   -3.8778    2.6065   -1.7475 O   0  0  0  0  0  0  0  0  0  0  0  0
   -4.5416    0.7992   -0.4663 C   0  0  0  0  0  0  0  0  0  0  0  0
   -4.1397   -0.3422    0.2368 C   0  0  0  0  0  0  0  0  0  0  0  0
   -2.8213   -0.6866    0.3582 N   0  0  0  0  0  0  0  0  0  0  0  0
   -2.5440   -2.0320    0.8963 C   0  0  2  0  0  0  0  0  0  0  0  0
   -1.7000   -2.9309   -0.0094 C   0  0  0  0  0  0  0  0  0  0  0  0
   -3.1860   -3.1836    0.1148 C   0  0  2  0  0  0  0  0  0  0  0  0
   -3.8624   -2.8466   -1.0459 F   0  0  0  0  0  0  0  0  0  0  0  0
   -1.8296    0.1975   -0.0305 C   0  0  0  0  0  0  0  0  0  0  0  0
   -0.4549    0.0510    0.3381 C   0  0  0  0  0  0  0  0  0  0  0  0
    0.0783   -0.9517    1.6963 Cl  0  0  0  0  0  0  0  0  0  0  0  0
   -5.9935    1.0952   -0.6063 C   0  0  0  0  0  0  0  0  0  0  0  0
   -6.3889    2.1285   -1.2106 O   0  0  0  0  0  0  0  0  0  0  0  0
   -6.9397    0.2299   -0.0620 O   0  0  0  0  0  0  0  0  0  0  0  0
    5.2712    0.2004    2.4957 H   0  0  0  0  0  0  0  0  0  0  0  0
    4.1345    1.2509    3.0940 H   0  0  0  0  0  0  0  0  0  0  0  0
    4.8345    1.8292    0.8585 H   0  0  0  0  0  0  0  0  0  0  0  0
    2.6968    2.6171    0.4370 H   0  0  0  0  0  0  0  0  0  0  0  0
    2.1441    1.7122    1.9002 H   0  0  0  0  0  0  0  0  0  0  0  0
    2.6549   -0.3134   -1.6304 H   0  0  0  0  0  0  0  0  0  0  0  0
    2.3583   -1.3532   -0.1610 H   0  0  0  0  0  0  0  0  0  0  0  0
    4.8641   -2.1167   -0.4822 H   0  0  0  0  0  0  0  0  0  0  0  0
    5.9792   -1.0837    0.7271 H   0  0  0  0  0  0  0  0  0  0  0  0
    6.0436    0.7124   -0.8374 H   0  0  0  0  0  0  0  0  0  0  0  0
    4.9656   -0.3272   -2.0700 H   0  0  0  0  0  0  0  0  0  0  0  0
   -1.4487    2.9716   -2.0281 H   0  0  0  0  0  0  0  0  0  0  0  0
   -4.8985   -1.0015    0.6443 H   0  0  0  0  0  0  0  0  0  0  0  0
   -2.4979   -2.1712    1.9973 H   0  0  0  0  0  0  0  0  0  0  0  0
   -1.3884   -2.4821   -0.9771 H   0  0  0  0  0  0  0  0  0  0  0  0
   -1.0691   -3.6623    0.5379 H   0  0  0  0  0  0  0  0  0  0  0  0
   -3.4581   -4.1019    0.6761 H   0  0  0  0  0  0  0  0  0  0  0  0
   -7.9309    0.4206   -0.1487 H   0  0  0  0  0  0  0  0  0  0  0  0
  2  1  1  0
  2  3  1  0
  3  4  1  0
  4  5  1  0
  5  6  1  0
  6  2  1  0
  6  7  1  0
  7  8  1  0
  8  6  1  0
  4  9  1  0
  9 10  2  0
 10 11  1  0
 10 12  1  0
 12 13  2  0
 13 14  1  0
 14 15  2  0
 14 16  1  0
 16 17  2  0
 17 18  1  0
 19 18  1  0
 19 20  1  0
 20 21  1  0
 21 19  1  0
 21 22  1  0
 18 23  1  0
 23 13  1  0
 23 24  2  0
 24  9  1  0
 24 25  1  0
 16 26  1  0
 26 27  2  0
 26 28  1  0
  1 29  1  0
  1 30  1  0
  2 31  1  6
  3 32  1  0
  3 33  1  0
  5 34  1  0
  5 35  1  0
  7 36  1  0
  7 37  1  0
  8 38  1  0
  8 39  1  0
 12 40  1  0
 17 41  1  0
 19 42  1  1
 20 43  1  0
 20 44  1  0
 21 45  1  1
 28 46  1  0
M  END
> <ID>
HT1892

> <Class>
0.0

> <Clusters>
117

> <Fold>
5

$$$$