
     RDKit          3D

 42 45  0  0  0  0  0  0  0  0999 V2000
    0.0968   -2.6022    0.2340 O   0  0  0  0  0  0  0  0  0  0  0  0
    0.0203   -1.3499    0.0864 C   0  0  0  0  0  0  0  0  0  0  0  0
   -1.2033   -0.7287    0.0821 N   0  0  0  0  0  0  0  0  0  0  0  0
   -1.2992    0.6247   -0.0887 C   0  0  0  0  0  0  0  0  0  0  0  0
   -0.1512    1.4178   -0.2490 C   0  0  0  0  0  0  0  0  0  0  0  0
    1.0981    0.7865   -0.2535 C   0  0  0  0  0  0  0  0  0  0  0  0
    1.1976   -0.5977   -0.0789 C   0  0  0  0  0  0  0  0  0  0  0  0
    2.5323   -1.2474   -0.0941 C   0  0  0  0  0  0  0  0  0  0  0  0
    2.8119   -2.2125   -1.0773 C   0  0  0  0  0  0  0  0  0  0  0  0
    4.0631   -2.8315   -1.1277 C   0  0  0  0  0  0  0  0  0  0  0  0
    5.0483   -2.4955   -0.1982 C   0  0  0  0  0  0  0  0  0  0  0  0
    4.7853   -1.5412    0.7871 C   0  0  0  0  0  0  0  0  0  0  0  0
    3.5334   -0.9127    0.8482 C   0  0  0  0  0  0  0  0  0  0  0  0
    3.2876    0.0422    1.9027 C   0  0  0  0  0  0  0  0  0  0  0  0
    3.0898    0.8079    2.7477 N   0  0  0  0  0  0  0  0  0  0  0  0
   -0.2405    2.8884   -0.4380 C   0  0  0  0  0  0  0  0  0  0  0  0
   -1.2811    3.6458    0.1317 C   0  0  0  0  0  0  0  0  0  0  0  0
   -1.3176    5.0271   -0.0705 C   0  0  0  0  0  0  0  0  0  0  0  0
   -0.3237    5.6465   -0.8280 C   0  0  0  0  0  0  0  0  0  0  0  0
    0.7014    4.8713   -1.3707 C   0  0  0  0  0  0  0  0  0  0  0  0
    0.7208    3.5277   -1.1645 N   0  0  0  0  0  0  0  0  0  0  0  0
   -2.4155   -1.4905    0.2535 C   0  0  0  0  0  0  0  0  0  0  0  0
   -3.4226   -1.4509   -0.7263 C   0  0  0  0  0  0  0  0  0  0  0  0
   -4.6017   -2.1829   -0.5555 C   0  0  0  0  0  0  0  0  0  0  0  0
   -4.7862   -2.9556    0.5943 C   0  0  0  0  0  0  0  0  0  0  0  0
   -3.7925   -2.9964    1.5762 C   0  0  0  0  0  0  0  0  0  0  0  0
   -2.6118   -2.2661    1.4093 C   0  0  0  0  0  0  0  0  0  0  0  0
   -2.2779    1.0887   -0.1130 H   0  0  0  0  0  0  0  0  0  0  0  0
    2.0006    1.3712   -0.3891 H   0  0  0  0  0  0  0  0  0  0  0  0
    2.0622   -2.4781   -1.8128 H   0  0  0  0  0  0  0  0  0  0  0  0
    4.2697   -3.5712   -1.8903 H   0  0  0  0  0  0  0  0  0  0  0  0
    6.0168   -2.9772   -0.2394 H   0  0  0  0  0  0  0  0  0  0  0  0
    5.5580   -1.2963    1.5063 H   0  0  0  0  0  0  0  0  0  0  0  0
   -2.0436    3.1863    0.7463 H   0  0  0  0  0  0  0  0  0  0  0  0
   -2.1127    5.6179    0.3659 H   0  0  0  0  0  0  0  0  0  0  0  0
   -0.3441    6.7167   -0.9878 H   0  0  0  0  0  0  0  0  0  0  0  0
    1.4829    5.3372   -1.9558 H   0  0  0  0  0  0  0  0  0  0  0  0
   -3.2879   -0.8591   -1.6230 H   0  0  0  0  0  0  0  0  0  0  0  0
   -5.3723   -2.1514   -1.3149 H   0  0  0  0  0  0  0  0  0  0  0  0
   -5.6996   -3.5212    0.7252 H   0  0  0  0  0  0  0  0  0  0  0  0
   -3.9383   -3.5918    2.4683 H   0  0  0  0  0  0  0  0  0  0  0  0
   -1.8537   -2.2958    2.1818 H   0  0  0  0  0  0  0  0  0  0  0  0
  1  2  2  0
  2  3  1  0
  3  4  1  0
  4  5  2  0
  5  6  1  0
  6  7  2  0
  7  2  1  0
  7  8  1  0
  8  9  2  0
  9 10  1  0
 10 11  2  0
 11 12  1  0
 12 13  2  0
 13  8  1  0
 13 14  1  0
 14 15  3  0
  5 16  1  0
 16 17  2  0
 17 18  1  0
 18 19  2  0
 19 20  1  0
 20 21  2  0
 21 16  1  0
  3 22  1  0
 22 23  2  0
 23 24  1  0
 24 25  2  0
 25 26  1  0
 26 27  2  0
 27 22  1  0
  4 28  1  0
  6 29  1  0
  9 30  1  0
 10 31  1  0
 11 32  1  0
 12 33  1  0
 17 34  1  0
 18 35  1  0
 19 36  1  0
 20 37  1  0
 23 38  1  0
 24 39  1  0
 25 40  1  0
 26 41  1  0
 27 42  1  0
M  END
> <ID>
HT1629

> <Class>
0.0

> <Clusters>
195

> <Fold>
5

$$$$