
     RDKit          3D

 28 28  0  0  0  0  0  0  0  0999 V2000
   -4.6815    0.5148   -0.6244 C   0  0  0  0  0  0  0  0  0  0  0  0
   -3.2249    0.7024   -0.2108 C   0  0  0  0  0  0  0  0  0  0  0  0
   -2.7220   -0.4989    0.6022 C   0  0  0  0  0  0  0  0  0  0  0  0
   -1.2623   -0.3230    1.0427 C   0  0  0  0  0  0  0  0  0  0  0  0
   -0.3375   -0.4312   -0.0894 N   0  0  0  0  0  0  0  0  0  0  0  0
    1.0887   -0.2778    0.0399 C   0  0  0  0  0  0  0  0  0  0  0  0
    1.8967   -0.3791   -1.1034 C   0  0  0  0  0  0  0  0  0  0  0  0
    3.2839   -0.2347   -1.0108 C   0  0  0  0  0  0  0  0  0  0  0  0
    3.8896    0.0140    0.2315 C   0  0  0  0  0  0  0  0  0  0  0  0
    5.3511    0.1694    0.3501 C   0  0  0  0  0  0  0  0  0  0  0  0
    6.0987    0.0837   -0.6602 O   0  0  0  0  0  0  0  0  0  0  0  0
    3.0865    0.1152    1.3764 C   0  0  0  0  0  0  0  0  0  0  0  0
    1.6989   -0.0291    1.2844 C   0  0  0  0  0  0  0  0  0  0  0  0
   -5.0189    1.3972   -1.2080 H   0  0  0  0  0  0  0  0  0  0  0  0
   -5.3281    0.4146    0.2734 H   0  0  0  0  0  0  0  0  0  0  0  0
   -4.7889   -0.3918   -1.2573 H   0  0  0  0  0  0  0  0  0  0  0  0
   -2.6088    0.8309   -1.1263 H   0  0  0  0  0  0  0  0  0  0  0  0
   -3.1420    1.6282    0.3993 H   0  0  0  0  0  0  0  0  0  0  0  0
   -2.8207   -1.4332    0.0067 H   0  0  0  0  0  0  0  0  0  0  0  0
   -3.3516   -0.6072    1.5126 H   0  0  0  0  0  0  0  0  0  0  0  0
   -1.1406    0.6666    1.5348 H   0  0  0  0  0  0  0  0  0  0  0  0
   -1.0200   -1.1159    1.7829 H   0  0  0  0  0  0  0  0  0  0  0  0
   -0.7219   -0.6471   -1.0378 H   0  0  0  0  0  0  0  0  0  0  0  0
    1.4501   -0.5701   -2.0712 H   0  0  0  0  0  0  0  0  0  0  0  0
    3.8809   -0.3176   -1.9105 H   0  0  0  0  0  0  0  0  0  0  0  0
    5.7983    0.3606    1.3174 H   0  0  0  0  0  0  0  0  0  0  0  0
    3.5338    0.3059    2.3445 H   0  0  0  0  0  0  0  0  0  0  0  0
    1.1124    0.0532    2.1890 H   0  0  0  0  0  0  0  0  0  0  0  0
  1  2  1  0
  2  3  1  0
  3  4  1  0
  4  5  1  0
  5  6  1  0
  6  7  2  0
  7  8  1  0
  8  9  2  0
  9 10  1  0
 10 11  2  0
  9 12  1  0
 12 13  2  0
 13  6  1  0
  1 14  1  0
  1 15  1  0
  1 16  1  0
  2 17  1  0
  2 18  1  0
  3 19  1  0
  3 20  1  0
  4 21  1  0
  4 22  1  0
  5 23  1  0
  7 24  1  0
  8 25  1  0
 10 26  1  0
 12 27  1  0
 13 28  1  0
M  END
> <ID>
HT0250

> <Class>
0.0

> <Clusters>
2

> <Fold>
5

$$$$