
     RDKit          3D

 57 61  0  0  0  0  0  0  0  0999 V2000
   -7.7780    3.0133    2.7378 F   0  0  0  0  0  0  0  0  0  0  0  0
   -6.8464    2.2985    2.0619 C   0  0  0  0  0  0  0  0  0  0  0  0
   -6.8370    0.9040    2.1508 C   0  0  0  0  0  0  0  0  0  0  0  0
   -5.8742    0.1644    1.4571 C   0  0  0  0  0  0  0  0  0  0  0  0
   -4.9177    0.8169    0.6601 C   0  0  0  0  0  0  0  0  0  0  0  0
   -4.9241    2.2203    0.5893 C   0  0  0  0  0  0  0  0  0  0  0  0
   -5.8881    2.9569    1.2841 C   0  0  0  0  0  0  0  0  0  0  0  0
   -3.9086    0.0647   -0.0354 N   0  0  0  0  0  0  0  0  0  0  0  0
   -2.5803    0.3277   -0.0142 C   0  0  0  0  0  0  0  0  0  0  0  0
   -1.8850   -0.6136   -0.7704 C   0  0  0  0  0  0  0  0  0  0  0  0
   -0.3883   -0.7099   -0.9401 C   0  0  0  0  0  0  0  0  0  0  0  0
    0.2093    0.6267   -1.4062 C   0  0  0  0  0  0  0  0  0  0  0  0
    1.7365    0.5260   -1.4953 C   0  0  0  0  0  0  0  0  0  0  0  0
    2.3086    0.1365   -0.1887 N   0  0  0  0  0  0  0  0  0  0  0  0
    3.7866    0.1318   -0.2597 C   0  0  0  0  0  0  0  0  0  0  0  0
    4.3975    0.3395    1.1318 C   0  0  0  0  0  0  0  0  0  0  0  0
    5.8392    0.5542    1.0278 N   0  0  0  0  0  0  0  0  0  0  0  0
    6.5331    1.8013    1.3263 C   0  0  0  0  0  0  0  0  0  0  0  0
    8.0371    1.5106    1.0851 C   0  0  0  0  0  0  0  0  0  0  0  0
    8.1147    0.1111    0.6875 N   0  0  0  0  0  0  0  0  0  0  0  0
    6.8070   -0.4091    0.6724 C   0  0  0  0  0  0  0  0  0  0  0  0
    6.5376   -1.6048    0.3828 O   0  0  0  0  0  0  0  0  0  0  0  0
    1.7968   -1.1927    0.2130 C   0  0  0  0  0  0  0  0  0  0  0  0
    0.2729   -1.1570    0.3708 C   0  0  0  0  0  0  0  0  0  0  0  0
   -2.8465   -1.4828   -1.2568 C   0  0  0  0  0  0  0  0  0  0  0  0
   -2.7345   -2.6154   -2.0658 C   0  0  0  0  0  0  0  0  0  0  0  0
   -3.9150   -3.2903   -2.4241 C   0  0  0  0  0  0  0  0  0  0  0  0
   -3.8287   -4.7149   -3.4424 Cl  0  0  0  0  0  0  0  0  0  0  0  0
   -5.1691   -2.8205   -1.9784 C   0  0  0  0  0  0  0  0  0  0  0  0
   -5.2542   -1.6801   -1.1619 C   0  0  0  0  0  0  0  0  0  0  0  0
   -4.0646   -1.0382   -0.7998 C   0  0  0  0  0  0  0  0  0  0  0  0
   -7.5704    0.3942    2.7634 H   0  0  0  0  0  0  0  0  0  0  0  0
   -5.8604   -0.9128    1.5587 H   0  0  0  0  0  0  0  0  0  0  0  0
   -4.1873    2.7410   -0.0106 H   0  0  0  0  0  0  0  0  0  0  0  0
   -5.8905    4.0371    1.2197 H   0  0  0  0  0  0  0  0  0  0  0  0
   -2.1331    1.1410    0.5431 H   0  0  0  0  0  0  0  0  0  0  0  0
   -0.1621   -1.4689   -1.7195 H   0  0  0  0  0  0  0  0  0  0  0  0
   -0.0523    1.4401   -0.6952 H   0  0  0  0  0  0  0  0  0  0  0  0
   -0.2007    0.8916   -2.4047 H   0  0  0  0  0  0  0  0  0  0  0  0
    2.0231   -0.2042   -2.2863 H   0  0  0  0  0  0  0  0  0  0  0  0
    2.1193    1.5263   -1.7954 H   0  0  0  0  0  0  0  0  0  0  0  0
    4.1652   -0.8128   -0.7111 H   0  0  0  0  0  0  0  0  0  0  0  0
    4.1491    0.9681   -0.9004 H   0  0  0  0  0  0  0  0  0  0  0  0
    4.2107   -0.5408    1.7816 H   0  0  0  0  0  0  0  0  0  0  0  0
    3.9239    1.2274    1.6074 H   0  0  0  0  0  0  0  0  0  0  0  0
    6.1737    2.6057    0.6490 H   0  0  0  0  0  0  0  0  0  0  0  0
    6.3546    2.0891    2.3844 H   0  0  0  0  0  0  0  0  0  0  0  0
    8.6240    1.6704    2.0144 H   0  0  0  0  0  0  0  0  0  0  0  0
    8.4366    2.1536    0.2723 H   0  0  0  0  0  0  0  0  0  0  0  0
    8.9869   -0.4133    0.4519 H   0  0  0  0  0  0  0  0  0  0  0  0
    2.0752   -1.9691   -0.5355 H   0  0  0  0  0  0  0  0  0  0  0  0
    2.2265   -1.4935    1.1905 H   0  0  0  0  0  0  0  0  0  0  0  0
   -0.0903   -2.1713    0.6460 H   0  0  0  0  0  0  0  0  0  0  0  0
    0.0093   -0.4571    1.1941 H   0  0  0  0  0  0  0  0  0  0  0  0
   -1.7733   -2.9672   -2.4153 H   0  0  0  0  0  0  0  0  0  0  0  0
   -6.0753   -3.3366   -2.2697 H   0  0  0  0  0  0  0  0  0  0  0  0
   -6.2192   -1.3132   -0.8413 H   0  0  0  0  0  0  0  0  0  0  0  0
  1  2  1  0
  2  3  2  0
  3  4  1  0
  4  5  2  0
  5  6  1  0
  6  7  2  0
  7  2  1  0
  5  8  1  0
  8  9  1  0
  9 10  2  0
 10 11  1  0
 11 12  1  0
 12 13  1  0
 13 14  1  0
 14 15  1  0
 15 16  1  0
 16 17  1  0
 17 18  1  0
 18 19  1  0
 19 20  1  0
 20 21  1  0
 21 17  1  0
 21 22  2  0
 14 23  1  0
 23 24  1  0
 24 11  1  0
 10 25  1  0
 25 26  2  0
 26 27  1  0
 27 28  1  0
 27 29  2  0
 29 30  1  0
 30 31  2  0
 31  8  1  0
 31 25  1  0
  3 32  1  0
  4 33  1  0
  6 34  1  0
  7 35  1  0
  9 36  1  0
 11 37  1  0
 12 38  1  0
 12 39  1  0
 13 40  1  0
 13 41  1  0
 15 42  1  0
 15 43  1  0
 16 44  1  0
 16 45  1  0
 18 46  1  0
 18 47  1  0
 19 48  1  0
 19 49  1  0
 20 50  1  0
 23 51  1  0
 23 52  1  0
 24 53  1  0
 24 54  1  0
 26 55  1  0
 29 56  1  0
 30 57  1  0
M  END
> <ID>
HT1880

> <Class>
0.0

> <Clusters>
198

> <Fold>
5

$$$$