
     RDKit          3D

 85 90  0  0  0  0  0  0  0  0999 V2000
    7.1007   -0.0915   -2.0798 C   0  0  0  0  0  0  0  0  0  0  0  0
    6.2158    1.1310   -1.7859 C   0  0  0  0  0  0  0  0  0  0  0  0
    4.9096    0.7654   -1.3611 O   0  0  0  0  0  0  0  0  0  0  0  0
    4.8765    0.2623   -0.0340 C   0  0  0  0  0  0  0  0  0  0  0  0
    3.5418   -0.0733    0.2985 O   0  0  0  0  0  0  0  0  0  0  0  0
    3.1187   -1.2877   -0.3084 C   0  0  0  0  0  0  0  0  0  0  0  0
    2.3159   -1.0130   -1.5897 C   0  0  0  0  0  0  0  0  0  0  0  0
    1.0009   -0.2577   -1.3140 C   0  0  0  0  0  0  0  0  0  0  0  0
    1.2883    1.0216   -0.8011 O   0  0  0  0  0  0  0  0  0  0  0  0
    0.0535   -1.0674   -0.3435 C   0  0  0  0  0  0  0  0  0  0  0  0
   -0.4806   -2.3469   -1.1174 C   0  0  0  0  0  0  0  0  0  0  0  0
    0.1416   -3.5408   -0.7370 O   0  0  0  0  0  0  0  0  0  0  0  0
   -1.1992   -0.1704    0.0880 C   0  0  0  0  0  0  0  0  0  0  0  0
   -2.1296    0.3625   -1.0720 C   0  0  0  0  0  0  0  0  0  0  0  0
   -1.8734   -0.2651   -2.3012 O   0  0  0  0  0  0  0  0  0  0  0  0
   -3.6290    0.2564   -0.8038 C   0  0  0  0  0  0  0  0  0  0  0  0
   -4.0435    0.6330    0.6409 C   0  0  0  0  0  0  0  0  0  0  0  0
   -3.6206    2.0880    0.9869 C   0  0  0  0  0  0  0  0  0  0  0  0
   -5.5754    0.4141    0.8357 C   0  0  0  0  0  0  0  0  0  0  0  0
   -5.7279   -1.1021    1.0616 C   0  0  0  0  0  0  0  0  0  0  0  0
   -4.3502   -1.6249    1.4699 C   0  0  0  0  0  0  0  0  0  0  0  0
   -3.4374   -0.3865    1.6382 C   0  0  0  0  0  0  0  0  0  0  0  0
   -3.6382    0.1146    2.9476 O   0  0  0  0  0  0  0  0  0  0  0  0
   -1.8912   -0.6633    1.4321 C   0  0  0  0  0  0  0  0  0  0  0  0
   -1.4763   -2.0965    1.8572 C   0  0  0  0  0  0  0  0  0  0  0  0
    0.0475   -2.2977    1.9491 C   0  0  0  0  0  0  0  0  0  0  0  0
    0.8760   -1.3958    0.9842 C   0  0  0  0  0  0  0  0  0  0  0  0
    1.1330   -0.1733    1.6506 O   0  0  0  0  0  0  0  0  0  0  0  0
    2.2584   -2.0720    0.6921 C   0  0  0  0  0  0  0  0  0  0  0  0
   -6.4956    1.0031   -0.2327 C   0  0  0  0  0  0  0  0  0  0  0  0
   -6.5074    2.4650   -0.6254 C   0  0  0  0  0  0  0  0  0  0  0  0
   -7.6524    2.5901   -1.4591 O   0  0  0  0  0  0  0  0  0  0  0  0
   -8.2547    1.3558   -1.5669 C   0  0  0  0  0  0  0  0  0  0  0  0
   -9.3007    1.1359   -2.2316 O   0  0  0  0  0  0  0  0  0  0  0  0
   -7.5364    0.3789   -0.7907 C   0  0  0  0  0  0  0  0  0  0  0  0
    5.3505    1.3426    0.9564 C   0  0  0  0  0  0  0  0  0  0  0  0
    5.2510    0.9047    2.2899 O   0  0  0  0  0  0  0  0  0  0  0  0
    6.7859    1.7837    0.6281 C   0  0  0  0  0  0  0  0  0  0  0  0
    7.6940    0.7508    0.9216 O   0  0  0  0  0  0  0  0  0  0  0  0
    6.8826    2.1819   -0.8561 C   0  0  0  0  0  0  0  0  0  0  0  0
    6.2494    3.4257   -1.0278 O   0  0  0  0  0  0  0  0  0  0  0  0
    7.3970   -0.6340   -1.1593 H   0  0  0  0  0  0  0  0  0  0  0  0
    8.0282    0.2315   -2.6014 H   0  0  0  0  0  0  0  0  0  0  0  0
    6.5527   -0.7933   -2.7455 H   0  0  0  0  0  0  0  0  0  0  0  0
    6.0887    1.6254   -2.7750 H   0  0  0  0  0  0  0  0  0  0  0  0
    5.5401   -0.6253    0.0830 H   0  0  0  0  0  0  0  0  0  0  0  0
    3.9709   -1.9546   -0.5822 H   0  0  0  0  0  0  0  0  0  0  0  0
    2.9300   -0.4302   -2.3056 H   0  0  0  0  0  0  0  0  0  0  0  0
    2.0947   -1.9788   -2.0925 H   0  0  0  0  0  0  0  0  0  0  0  0
    0.5048   -0.1254   -2.2997 H   0  0  0  0  0  0  0  0  0  0  0  0
    1.6599    1.5606   -1.5468 H   0  0  0  0  0  0  0  0  0  0  0  0
   -1.5775   -2.4650   -0.9788 H   0  0  0  0  0  0  0  0  0  0  0  0
   -0.3479   -2.2313   -2.2162 H   0  0  0  0  0  0  0  0  0  0  0  0
   -0.2716   -4.2631   -1.2798 H   0  0  0  0  0  0  0  0  0  0  0  0
   -0.7330    0.7833    0.4234 H   0  0  0  0  0  0  0  0  0  0  0  0
   -1.9097    1.4537   -1.1940 H   0  0  0  0  0  0  0  0  0  0  0  0
   -2.1014    0.3788   -3.0226 H   0  0  0  0  0  0  0  0  0  0  0  0
   -4.1454    0.9179   -1.5304 H   0  0  0  0  0  0  0  0  0  0  0  0
   -3.9587   -0.7733   -1.0552 H   0  0  0  0  0  0  0  0  0  0  0  0
   -4.1508    2.4600    1.8881 H   0  0  0  0  0  0  0  0  0  0  0  0
   -3.8275    2.7835    0.1514 H   0  0  0  0  0  0  0  0  0  0  0  0
   -2.5329    2.1473    1.1959 H   0  0  0  0  0  0  0  0  0  0  0  0
   -5.8761    0.9047    1.7887 H   0  0  0  0  0  0  0  0  0  0  0  0
   -6.0314   -1.6339    0.1355 H   0  0  0  0  0  0  0  0  0  0  0  0
   -6.4803   -1.3056    1.8549 H   0  0  0  0  0  0  0  0  0  0  0  0
   -3.9756   -2.2911    0.6644 H   0  0  0  0  0  0  0  0  0  0  0  0
   -4.4180   -2.2255    2.4032 H   0  0  0  0  0  0  0  0  0  0  0  0
   -3.3140   -0.5629    3.5972 H   0  0  0  0  0  0  0  0  0  0  0  0
   -1.4104   -0.0384    2.2232 H   0  0  0  0  0  0  0  0  0  0  0  0
   -1.9075   -2.3281    2.8547 H   0  0  0  0  0  0  0  0  0  0  0  0
   -1.8927   -2.8540    1.1672 H   0  0  0  0  0  0  0  0  0  0  0  0
    0.3644   -2.1151    2.9992 H   0  0  0  0  0  0  0  0  0  0  0  0
    0.2621   -3.3728    1.7694 H   0  0  0  0  0  0  0  0  0  0  0  0
    1.6756   -0.3508    2.4641 H   0  0  0  0  0  0  0  0  0  0  0  0
    2.1506   -3.1105    0.3264 H   0  0  0  0  0  0  0  0  0  0  0  0
    2.8313   -2.1691    1.6409 H   0  0  0  0  0  0  0  0  0  0  0  0
   -5.6062    2.7361   -1.2099 H   0  0  0  0  0  0  0  0  0  0  0  0
   -6.6141    3.1125    0.2702 H   0  0  0  0  0  0  0  0  0  0  0  0
   -7.8566   -0.6402   -0.6265 H   0  0  0  0  0  0  0  0  0  0  0  0
    4.6820    2.2253    0.8465 H   0  0  0  0  0  0  0  0  0  0  0  0
    5.7406    0.0451    2.3673 H   0  0  0  0  0  0  0  0  0  0  0  0
    7.0274    2.6695    1.2616 H   0  0  0  0  0  0  0  0  0  0  0  0
    8.5973    1.1605    0.9453 H   0  0  0  0  0  0  0  0  0  0  0  0
    7.9609    2.2857   -1.1243 H   0  0  0  0  0  0  0  0  0  0  0  0
    6.6086    3.8211   -1.8651 H   0  0  0  0  0  0  0  0  0  0  0  0
  1  2  1  0
  2  3  1  0
  3  4  1  0
  4  5  1  0
  5  6  1  0
  6  7  1  0
  7  8  1  0
  8  9  1  0
  8 10  1  0
 10 11  1  0
 11 12  1  0
 10 13  1  0
 13 14  1  0
 14 15  1  0
 14 16  1  0
 16 17  1  0
 17 18  1  0
 17 19  1  0
 19 20  1  0
 20 21  1  0
 21 22  1  0
 22 17  1  0
 22 23  1  0
 22 24  1  0
 24 13  1  0
 24 25  1  0
 25 26  1  0
 26 27  1  0
 27 10  1  0
 27 28  1  0
 27 29  1  0
 29  6  1  0
 19 30  1  0
 30 31  1  0
 31 32  1  0
 32 33  1  0
 33 34  2  0
 33 35  1  0
 35 30  2  0
  4 36  1  0
 36 37  1  0
 36 38  1  0
 38 39  1  0
 38 40  1  0
 40  2  1  0
 40 41  1  0
  1 42  1  0
  1 43  1  0
  1 44  1  0
  2 45  1  0
  4 46  1  0
  6 47  1  0
  7 48  1  0
  7 49  1  0
  8 50  1  0
  9 51  1  0
 11 52  1  0
 11 53  1  0
 12 54  1  0
 13 55  1  0
 14 56  1  0
 15 57  1  0
 16 58  1  0
 16 59  1  0
 18 60  1  0
 18 61  1  0
 18 62  1  0
 19 63  1  0
 20 64  1  0
 20 65  1  0
 21 66  1  0
 21 67  1  0
 23 68  1  0
 24 69  1  0
 25 70  1  0
 25 71  1  0
 26 72  1  0
 26 73  1  0
 28 74  1  0
 29 75  1  0
 29 76  1  0
 31 77  1  0
 31 78  1  0
 35 79  1  0
 36 80  1  0
 37 81  1  0
 38 82  1  0
 39 83  1  0
 40 84  1  0
 41 85  1  0
M  END
> <ID>
HT1548

> <Class>
0.0

> <Clusters>
78

> <Fold>
5

$$$$