
     RDKit          3D

 26 26  0  0  0  0  0  0  0  0999 V2000
    4.0476   -1.4546    1.7240 O   0  0  0  0  0  0  0  0  0  0  0  0
    2.9336   -1.0674    1.2796 C   0  0  0  0  0  0  0  0  0  0  0  0
    2.8402   -0.5790    0.0130 N   0  0  0  0  0  0  0  0  0  0  0  0
    1.8259   -1.1376    2.0675 N   0  0  0  0  0  0  0  0  0  0  0  0
    0.6137   -0.7240    1.6074 C   0  0  0  0  0  0  0  0  0  0  0  0
   -0.3951   -0.7814    2.3612 O   0  0  0  0  0  0  0  0  0  0  0  0
    0.4957   -0.2231    0.3035 C   0  0  0  0  0  0  0  0  0  0  0  0
    1.6485   -0.1574   -0.4849 C   0  0  0  0  0  0  0  0  0  0  0  0
   -0.7721    0.2176   -0.2141 N   0  0  0  0  0  0  0  0  0  0  0  0
   -0.9556    1.6226   -0.5986 C   0  0  0  0  0  0  0  0  0  0  0  0
   -1.8167   -0.7702   -0.5053 C   0  0  0  0  0  0  0  0  0  0  0  0
   -1.0173    2.5077    0.6433 C   0  0  0  0  0  0  0  0  0  0  0  0
   -1.6217   -1.3462   -1.9049 C   0  0  0  0  0  0  0  0  0  0  0  0
   -1.2842    4.2054    0.1747 Cl  0  0  0  0  0  0  0  0  0  0  0  0
   -2.8976   -2.5367   -2.2618 Cl  0  0  0  0  0  0  0  0  0  0  0  0
    3.6919   -0.5274   -0.5906 H   0  0  0  0  0  0  0  0  0  0  0  0
    1.9083   -1.5106    3.0411 H   0  0  0  0  0  0  0  0  0  0  0  0
    1.5935    0.2165   -1.4997 H   0  0  0  0  0  0  0  0  0  0  0  0
   -1.8970    1.7474   -1.1775 H   0  0  0  0  0  0  0  0  0  0  0  0
   -0.1190    1.9497   -1.2525 H   0  0  0  0  0  0  0  0  0  0  0  0
   -1.7858   -1.5939    0.2403 H   0  0  0  0  0  0  0  0  0  0  0  0
   -2.8198   -0.2960   -0.4322 H   0  0  0  0  0  0  0  0  0  0  0  0
   -1.8515    2.1799    1.2992 H   0  0  0  0  0  0  0  0  0  0  0  0
   -0.0640    2.4405    1.2090 H   0  0  0  0  0  0  0  0  0  0  0  0
   -1.6681   -0.5333   -2.6602 H   0  0  0  0  0  0  0  0  0  0  0  0
   -0.6337   -1.8485   -1.9747 H   0  0  0  0  0  0  0  0  0  0  0  0
  1  2  2  0
  2  3  1  0
  4  2  1  0
  5  4  1  0
  6  5  2  0
  7  5  1  0
  8  7  2  0
  7  9  1  0
  3  8  1  0
  9 10  1  0
  9 11  1  0
 10 12  1  0
 11 13  1  0
 12 14  1  0
 13 15  1  0
  3 16  1  0
  4 17  1  0
  8 18  1  0
 10 19  1  0
 10 20  1  0
 11 21  1  0
 11 22  1  0
 12 23  1  0
 12 24  1  0
 13 25  1  0
 13 26  1  0
M  END
> <ID>
HT2153

> <Class>
0.0

> <Clusters>
107

> <Fold>
5

$$$$