
     RDKit          3D

 28 28  0  0  0  0  0  0  0  0999 V2000
   -5.9446    0.1819   -0.5042 C   0  0  0  0  0  0  0  0  0  0  0  0
   -4.5541   -0.0229    0.0050 C   0  0  0  0  0  0  0  0  0  0  0  0
   -4.3906   -0.4477    1.1804 O   0  0  0  0  0  0  0  0  0  0  0  0
   -3.4249    0.2213   -0.8494 N   0  0  0  0  0  0  0  0  0  0  0  0
   -2.0623    0.2627   -0.3910 C   0  0  0  0  0  0  0  0  0  0  0  0
   -1.0364   -0.1674   -1.2446 C   0  0  0  0  0  0  0  0  0  0  0  0
    0.2985   -0.1177   -0.8327 C   0  0  0  0  0  0  0  0  0  0  0  0
    0.6313    0.3802    0.4396 C   0  0  0  0  0  0  0  0  0  0  0  0
    2.0330    0.4447    0.8994 C   0  0  0  0  0  0  0  0  0  0  0  0
    3.0041    0.0373    0.1427 N   0  0  0  0  0  0  0  0  0  0  0  0
    4.3434    0.0903    0.5623 N   0  0  0  0  0  0  0  0  0  0  0  0
    5.4009   -0.3651   -0.2896 C   0  0  0  0  0  0  0  0  0  0  0  0
    5.0761   -0.9626   -1.7824 S   0  0  0  0  0  0  0  0  0  0  0  0
    6.7538   -0.2999    0.1620 N   0  0  0  0  0  0  0  0  0  0  0  0
   -0.3930    0.8329    1.2847 C   0  0  0  0  0  0  0  0  0  0  0  0
   -1.7278    0.7816    0.8721 C   0  0  0  0  0  0  0  0  0  0  0  0
   -6.4975   -0.7801   -0.4735 H   0  0  0  0  0  0  0  0  0  0  0  0
   -6.4679    0.9237    0.1346 H   0  0  0  0  0  0  0  0  0  0  0  0
   -5.9341    0.5566   -1.5491 H   0  0  0  0  0  0  0  0  0  0  0  0
   -3.5961    0.2850   -1.8786 H   0  0  0  0  0  0  0  0  0  0  0  0
   -1.2737   -0.5522   -2.2286 H   0  0  0  0  0  0  0  0  0  0  0  0
    1.0674   -0.4666   -1.5106 H   0  0  0  0  0  0  0  0  0  0  0  0
    2.2479    0.8394    1.8862 H   0  0  0  0  0  0  0  0  0  0  0  0
    4.5834    0.4657    1.5083 H   0  0  0  0  0  0  0  0  0  0  0  0
    6.9777    0.0775    1.1093 H   0  0  0  0  0  0  0  0  0  0  0  0
    7.5367   -0.6277   -0.4464 H   0  0  0  0  0  0  0  0  0  0  0  0
   -0.1593    1.2352    2.2630 H   0  0  0  0  0  0  0  0  0  0  0  0
   -2.4919    1.1716    1.5310 H   0  0  0  0  0  0  0  0  0  0  0  0
  1  2  1  0
  2  3  2  0
  2  4  1  0
  4  5  1  0
  5  6  2  0
  6  7  1  0
  7  8  2  0
  8  9  1  0
  9 10  2  3
 10 11  1  0
 11 12  1  0
 12 13  2  0
 12 14  1  0
  8 15  1  0
 15 16  2  0
 16  5  1  0
  1 17  1  0
  1 18  1  0
  1 19  1  0
  4 20  1  0
  6 21  1  0
  7 22  1  0
  9 23  1  0
 11 24  1  0
 14 25  1  0
 14 26  1  0
 15 27  1  0
 16 28  1  0
M  END
> <ID>
HT2035

> <Class>
0.0

> <Clusters>
2

> <Fold>
5

$$$$