
     RDKit          3D

 31 32  0  0  0  0  0  0  0  0999 V2000
    1.9347    2.3998   -2.0158 C   0  0  0  0  0  0  0  0  0  0  0  0
    1.9162    1.1711   -1.4890 C   0  0  0  0  0  0  0  0  0  0  0  0
    1.7442    0.9412   -0.0060 C   0  0  0  0  0  0  0  0  0  0  0  0
    0.5454    0.0312    0.4202 C   0  0  0  0  0  0  0  0  0  0  0  0
   -0.8432    0.7513    0.2208 C   0  0  0  0  0  0  0  0  0  0  0  0
   -2.0386   -0.0673    0.7708 C   0  0  0  0  0  0  0  0  0  0  0  0
   -3.0207   -0.2446   -0.3897 C   0  0  0  0  0  0  0  0  0  0  0  0
   -2.3977    0.4849   -1.5198 C   0  0  0  0  0  0  0  0  0  0  0  0
   -1.2327    1.0188   -1.2004 C   0  0  0  0  0  0  0  0  0  0  0  0
    0.5855   -1.3000   -0.3461 C   0  0  0  0  0  0  0  0  0  0  0  0
    0.3238   -1.3218   -1.5791 O   0  0  0  0  0  0  0  0  0  0  0  0
    0.9124   -2.5379    0.2905 N   0  0  0  0  0  0  0  0  0  0  0  0
    1.1188   -2.6236    1.6939 C   0  0  0  0  0  0  0  0  0  0  0  0
    1.3965   -3.7319    2.2239 O   0  0  0  0  0  0  0  0  0  0  0  0
    1.0027   -1.4591    2.4998 N   0  0  0  0  0  0  0  0  0  0  0  0
    0.7216   -0.1793    1.9284 C   0  0  0  0  0  0  0  0  0  0  0  0
    0.6363    0.8143    2.7020 O   0  0  0  0  0  0  0  0  0  0  0  0
    2.0997    2.5302   -3.0803 H   0  0  0  0  0  0  0  0  0  0  0  0
    1.7796    3.2798   -1.3993 H   0  0  0  0  0  0  0  0  0  0  0  0
    2.1125    0.3273   -2.1416 H   0  0  0  0  0  0  0  0  0  0  0  0
    2.6912    0.4766    0.3484 H   0  0  0  0  0  0  0  0  0  0  0  0
    1.6646    1.9196    0.5195 H   0  0  0  0  0  0  0  0  0  0  0  0
   -0.8193    1.7377    0.7365 H   0  0  0  0  0  0  0  0  0  0  0  0
   -1.7342   -1.0654    1.1540 H   0  0  0  0  0  0  0  0  0  0  0  0
   -2.5277    0.4853    1.6031 H   0  0  0  0  0  0  0  0  0  0  0  0
   -3.1397   -1.3174   -0.6538 H   0  0  0  0  0  0  0  0  0  0  0  0
   -4.0093    0.2011   -0.1479 H   0  0  0  0  0  0  0  0  0  0  0  0
   -2.8542    0.5907   -2.4985 H   0  0  0  0  0  0  0  0  0  0  0  0
   -0.6749    1.6350   -1.8924 H   0  0  0  0  0  0  0  0  0  0  0  0
    0.9733   -3.4076   -0.2858 H   0  0  0  0  0  0  0  0  0  0  0  0
    1.1330   -1.5400    3.5336 H   0  0  0  0  0  0  0  0  0  0  0  0
  1  2  2  3
  2  3  1  0
  3  4  1  0
  4  5  1  0
  5  6  1  0
  6  7  1  0
  7  8  1  0
  8  9  2  0
  9  5  1  0
  4 10  1  0
 10 11  2  0
 10 12  1  0
 12 13  1  0
 13 14  2  0
 13 15  1  0
 15 16  1  0
 16  4  1  0
 16 17  2  0
  1 18  1  0
  1 19  1  0
  2 20  1  0
  3 21  1  0
  3 22  1  0
  5 23  1  0
  6 24  1  0
  6 25  1  0
  7 26  1  0
  7 27  1  0
  8 28  1  0
  9 29  1  0
 12 30  1  0
 15 31  1  0
M  END
> <ID>
HT3017

> <Class>
0.0

> <Clusters>
258

> <Fold>
5

$$$$