
     RDKit          3D

 50 52  0  0  0  0  0  0  0  0999 V2000
   -3.9720   -1.9559   -0.6416 C   0  0  0  0  0  0  0  0  0  0  0  0
   -2.4951   -1.5399   -0.7701 C   0  0  0  0  0  0  0  0  0  0  0  0
   -2.2970   -0.1783   -1.4849 C   0  0  0  0  0  0  0  0  0  0  0  0
   -2.7715    1.0216   -0.7012 C   0  0  0  0  0  0  0  0  0  0  0  0
   -4.1198    1.4188   -0.7498 C   0  0  0  0  0  0  0  0  0  0  0  0
   -4.5524    2.5362   -0.0288 C   0  0  0  0  0  0  0  0  0  0  0  0
   -3.6424    3.2725    0.7354 C   0  0  0  0  0  0  0  0  0  0  0  0
   -2.2964    2.8968    0.7744 C   0  0  0  0  0  0  0  0  0  0  0  0
   -1.8588    1.7804    0.0538 C   0  0  0  0  0  0  0  0  0  0  0  0
   -1.7847   -1.6018    0.5291 N   0  0  0  0  0  0  0  0  0  0  0  0
   -2.3544   -1.0062    1.7471 C   0  0  0  0  0  0  0  0  0  0  0  0
   -0.5539   -2.3461    0.6748 C   0  0  0  0  0  0  0  0  0  0  0  0
   -0.2464   -2.8215    1.8045 O   0  0  0  0  0  0  0  0  0  0  0  0
    0.3902   -2.5781   -0.4767 C   0  0  0  0  0  0  0  0  0  0  0  0
    1.7681   -2.2945   -0.0597 N   0  0  0  0  0  0  0  0  0  0  0  0
    2.1516   -1.0143   -0.0091 N   0  0  0  0  0  0  0  0  0  0  0  0
    3.3981   -0.6333    0.3840 C   0  0  0  0  0  0  0  0  0  0  0  0
    4.3085   -1.6266    0.7712 C   0  0  0  0  0  0  0  0  0  0  0  0
    3.9225   -2.9628    0.7244 C   0  0  0  0  0  0  0  0  0  0  0  0
    2.6350   -3.2915    0.3032 C   0  0  0  0  0  0  0  0  0  0  0  0
    2.2828   -4.5035    0.2744 O   0  0  0  0  0  0  0  0  0  0  0  0
    3.7465    0.8127    0.4035 C   0  0  0  0  0  0  0  0  0  0  0  0
    5.0821    1.2499    0.2834 C   0  0  0  0  0  0  0  0  0  0  0  0
    5.3858    2.6145    0.2941 C   0  0  0  0  0  0  0  0  0  0  0  0
    4.3647    3.5604    0.4143 C   0  0  0  0  0  0  0  0  0  0  0  0
    3.0356    3.1440    0.5184 C   0  0  0  0  0  0  0  0  0  0  0  0
    2.7258    1.7803    0.5117 C   0  0  0  0  0  0  0  0  0  0  0  0
   -4.4370   -2.0123   -1.6490 H   0  0  0  0  0  0  0  0  0  0  0  0
   -4.5641   -1.2454   -0.0280 H   0  0  0  0  0  0  0  0  0  0  0  0
   -4.0356   -2.9636   -0.1734 H   0  0  0  0  0  0  0  0  0  0  0  0
   -2.0637   -2.3057   -1.4532 H   0  0  0  0  0  0  0  0  0  0  0  0
   -2.8153   -0.2003   -2.4689 H   0  0  0  0  0  0  0  0  0  0  0  0
   -1.2165   -0.0538   -1.7208 H   0  0  0  0  0  0  0  0  0  0  0  0
   -4.8345    0.8646   -1.3457 H   0  0  0  0  0  0  0  0  0  0  0  0
   -5.5931    2.8322   -0.0647 H   0  0  0  0  0  0  0  0  0  0  0  0
   -3.9795    4.1363    1.2941 H   0  0  0  0  0  0  0  0  0  0  0  0
   -1.5914    3.4701    1.3632 H   0  0  0  0  0  0  0  0  0  0  0  0
   -0.8132    1.4992    0.0963 H   0  0  0  0  0  0  0  0  0  0  0  0
   -3.2311   -0.3661    1.5335 H   0  0  0  0  0  0  0  0  0  0  0  0
   -2.6738   -1.8097    2.4435 H   0  0  0  0  0  0  0  0  0  0  0  0
   -1.5902   -0.3731    2.2459 H   0  0  0  0  0  0  0  0  0  0  0  0
    0.2771   -3.6261   -0.8278 H   0  0  0  0  0  0  0  0  0  0  0  0
    0.1495   -1.9243   -1.3380 H   0  0  0  0  0  0  0  0  0  0  0  0
    5.2986   -1.3824    1.1306 H   0  0  0  0  0  0  0  0  0  0  0  0
    4.6180   -3.7372    1.0253 H   0  0  0  0  0  0  0  0  0  0  0  0
    5.8937    0.5466    0.1543 H   0  0  0  0  0  0  0  0  0  0  0  0
    6.4152    2.9382    0.2019 H   0  0  0  0  0  0  0  0  0  0  0  0
    4.6026    4.6164    0.4196 H   0  0  0  0  0  0  0  0  0  0  0  0
    2.2443    3.8790    0.6058 H   0  0  0  0  0  0  0  0  0  0  0  0
    1.6877    1.4836    0.6003 H   0  0  0  0  0  0  0  0  0  0  0  0
  1  2  1  0
  2  3  1  0
  3  4  1  0
  4  5  2  0
  5  6  1  0
  6  7  2  0
  7  8  1  0
  8  9  2  0
  9  4  1  0
  2 10  1  0
 10 11  1  0
 10 12  1  0
 12 13  2  0
 12 14  1  0
 14 15  1  0
 15 16  1  0
 16 17  2  0
 17 18  1  0
 18 19  2  0
 19 20  1  0
 20 15  1  0
 20 21  2  0
 17 22  1  0
 22 23  2  0
 23 24  1  0
 24 25  2  0
 25 26  1  0
 26 27  2  0
 27 22  1  0
  1 28  1  0
  1 29  1  0
  1 30  1  0
  2 31  1  0
  3 32  1  0
  3 33  1  0
  5 34  1  0
  6 35  1  0
  7 36  1  0
  8 37  1  0
  9 38  1  0
 11 39  1  0
 11 40  1  0
 11 41  1  0
 14 42  1  0
 14 43  1  0
 18 44  1  0
 19 45  1  0
 23 46  1  0
 24 47  1  0
 25 48  1  0
 26 49  1  0
 27 50  1  0
M  END
> <ID>
HT3648

> <Class>
0.0

> <Clusters>
31

> <Fold>
5

$$$$