
     RDKit          3D

 45 44  0  0  0  0  0  0  0  0999 V2000
    6.8292   -0.8313    0.0565 C   0  0  0  0  0  0  0  0  0  0  0  0
    6.0346    0.4120    0.4453 C   0  0  0  0  0  0  0  0  0  0  0  0
    4.5775    0.3052   -0.0182 C   0  0  0  0  0  0  0  0  0  0  0  0
    3.7826    1.5548    0.3743 C   0  0  0  0  0  0  0  0  0  0  0  0
    2.4058    1.4594   -0.1070 N   0  0  0  0  0  0  0  0  0  0  0  0
    1.4300    0.6037    0.4979 C   0  0  0  0  0  0  0  0  0  0  0  0
    1.7265   -0.0843    1.5135 O   0  0  0  0  0  0  0  0  0  0  0  0
    0.1438    0.5464   -0.0444 O   0  0  0  0  0  0  0  0  0  0  0  0
   -0.8862   -0.2783    0.4977 C   0  0  0  0  0  0  0  0  0  0  0  0
   -2.2016   -0.1245   -0.3124 C   0  0  0  0  0  0  0  0  0  0  0  0
   -1.9458   -0.5640   -1.7727 C   0  0  0  0  0  0  0  0  0  0  0  0
   -2.6402    1.3742   -0.2539 C   0  0  0  0  0  0  0  0  0  0  0  0
   -3.9565    1.7097   -0.9820 C   0  0  0  0  0  0  0  0  0  0  0  0
   -4.2441    3.2081   -0.9258 C   0  0  0  0  0  0  0  0  0  0  0  0
   -3.2891   -1.0349    0.3183 C   0  0  0  0  0  0  0  0  0  0  0  0
   -2.8317   -2.3871    0.4119 O   0  0  0  0  0  0  0  0  0  0  0  0
   -3.4388   -3.4711   -0.2327 C   0  0  0  0  0  0  0  0  0  0  0  0
   -4.4512   -3.3075   -0.9661 O   0  0  0  0  0  0  0  0  0  0  0  0
   -2.8982   -4.7780   -0.0610 N   0  0  0  0  0  0  0  0  0  0  0  0
    6.3882   -1.7347    0.5292 H   0  0  0  0  0  0  0  0  0  0  0  0
    7.8786   -0.7254    0.4037 H   0  0  0  0  0  0  0  0  0  0  0  0
    6.8314   -0.9584   -1.0471 H   0  0  0  0  0  0  0  0  0  0  0  0
    6.5118    1.3029   -0.0185 H   0  0  0  0  0  0  0  0  0  0  0  0
    6.0685    0.5295    1.5505 H   0  0  0  0  0  0  0  0  0  0  0  0
    4.5476    0.1890   -1.1240 H   0  0  0  0  0  0  0  0  0  0  0  0
    4.1116   -0.5929    0.4419 H   0  0  0  0  0  0  0  0  0  0  0  0
    3.7858    1.6896    1.4781 H   0  0  0  0  0  0  0  0  0  0  0  0
    4.2622    2.4487   -0.0814 H   0  0  0  0  0  0  0  0  0  0  0  0
    2.1071    2.0730   -0.8981 H   0  0  0  0  0  0  0  0  0  0  0  0
   -1.0615    0.0064    1.5592 H   0  0  0  0  0  0  0  0  0  0  0  0
   -0.5408   -1.3356    0.4810 H   0  0  0  0  0  0  0  0  0  0  0  0
   -1.2726    0.1533   -2.2893 H   0  0  0  0  0  0  0  0  0  0  0  0
   -2.8945   -0.6308   -2.3452 H   0  0  0  0  0  0  0  0  0  0  0  0
   -1.4698   -1.5677   -1.8033 H   0  0  0  0  0  0  0  0  0  0  0  0
   -2.7453    1.6787    0.8115 H   0  0  0  0  0  0  0  0  0  0  0  0
   -1.8356    2.0055   -0.6920 H   0  0  0  0  0  0  0  0  0  0  0  0
   -3.8993    1.4095   -2.0485 H   0  0  0  0  0  0  0  0  0  0  0  0
   -4.8080    1.1821   -0.5049 H   0  0  0  0  0  0  0  0  0  0  0  0
   -4.3317    3.5454    0.1291 H   0  0  0  0  0  0  0  0  0  0  0  0
   -3.4319    3.7769   -1.4267 H   0  0  0  0  0  0  0  0  0  0  0  0
   -5.2005    3.4233   -1.4474 H   0  0  0  0  0  0  0  0  0  0  0  0
   -4.2269   -0.9805   -0.2728 H   0  0  0  0  0  0  0  0  0  0  0  0
   -3.5283   -0.6783    1.3433 H   0  0  0  0  0  0  0  0  0  0  0  0
   -2.0576   -4.9228    0.5407 H   0  0  0  0  0  0  0  0  0  0  0  0
   -3.3353   -5.5992   -0.5352 H   0  0  0  0  0  0  0  0  0  0  0  0
  1  2  1  0
  2  3  1  0
  3  4  1  0
  4  5  1  0
  5  6  1  0
  6  7  2  0
  6  8  1  0
  8  9  1  0
  9 10  1  0
 10 11  1  0
 10 12  1  0
 12 13  1  0
 13 14  1  0
 10 15  1  0
 15 16  1  0
 16 17  1  0
 17 18  2  0
 17 19  1  0
  1 20  1  0
  1 21  1  0
  1 22  1  0
  2 23  1  0
  2 24  1  0
  3 25  1  0
  3 26  1  0
  4 27  1  0
  4 28  1  0
  5 29  1  0
  9 30  1  0
  9 31  1  0
 11 32  1  0
 11 33  1  0
 11 34  1  0
 12 35  1  0
 12 36  1  0
 13 37  1  0
 13 38  1  0
 14 39  1  0
 14 40  1  0
 14 41  1  0
 15 42  1  0
 15 43  1  0
 19 44  1  0
 19 45  1  0
M  END
> <ID>
HT3222

> <Class>
0.0

> <Clusters>
43

> <Fold>
5

$$$$