
     RDKit          3D

 49 51  0  0  0  0  0  0  0  0999 V2000
   -1.9253    1.7445   -0.8911 C   0  0  0  0  0  0  0  0  0  0  0  0
   -2.3426    1.2143    0.4904 C   0  0  0  0  0  0  0  0  0  0  0  0
   -1.2411    1.3739    1.4656 N   0  0  0  0  0  0  0  0  0  0  0  0
   -0.1285    0.4264    1.2966 C   0  0  0  0  0  0  0  0  0  0  0  0
    1.0671    0.8809    2.1355 C   0  0  0  0  0  0  0  0  0  0  0  0
    2.2073   -0.0119    1.9242 N   0  0  0  0  0  0  0  0  0  0  0  0
    2.6333   -0.9854    2.7670 C   0  0  0  0  0  0  0  0  0  0  0  0
    3.7146   -1.6622    2.3016 N   0  0  0  0  0  0  0  0  0  0  0  0
    3.9533   -1.0671    1.1160 C   0  0  0  0  0  0  0  0  0  0  0  0
    4.9563   -1.3617    0.2456 N   0  0  0  0  0  0  0  0  0  0  0  0
    5.9341   -2.4104    0.5645 C   0  0  0  0  0  0  0  0  0  0  0  0
    5.0674   -0.5968   -0.8957 C   0  0  0  0  0  0  0  0  0  0  0  0
    6.0189   -0.8124   -1.6979 O   0  0  0  0  0  0  0  0  0  0  0  0
    4.1531    0.4087   -1.1666 N   0  0  0  0  0  0  0  0  0  0  0  0
    4.2948    1.2262   -2.3831 C   0  0  0  0  0  0  0  0  0  0  0  0
    3.1546    0.6991   -0.2653 C   0  0  0  0  0  0  0  0  0  0  0  0
    2.3536    1.6533   -0.4658 O   0  0  0  0  0  0  0  0  0  0  0  0
    3.0602   -0.0770    0.8849 C   0  0  0  0  0  0  0  0  0  0  0  0
   -2.8964   -0.2424    0.4168 C   0  0  0  0  0  0  0  0  0  0  0  0
   -3.1565   -0.7612    1.6986 O   0  0  0  0  0  0  0  0  0  0  0  0
   -4.1433   -0.3417   -0.4457 C   0  0  0  0  0  0  0  0  0  0  0  0
   -5.3319    0.3217   -0.0829 C   0  0  0  0  0  0  0  0  0  0  0  0
   -6.4721    0.2214   -0.8850 C   0  0  0  0  0  0  0  0  0  0  0  0
   -6.4431   -0.5465   -2.0506 C   0  0  0  0  0  0  0  0  0  0  0  0
   -5.2696   -1.2049   -2.4233 C   0  0  0  0  0  0  0  0  0  0  0  0
   -4.1248   -1.1051   -1.6275 C   0  0  0  0  0  0  0  0  0  0  0  0
   -2.8192    1.8670   -1.5390 H   0  0  0  0  0  0  0  0  0  0  0  0
   -1.2245    1.0509   -1.3995 H   0  0  0  0  0  0  0  0  0  0  0  0
   -1.4412    2.7379   -0.7853 H   0  0  0  0  0  0  0  0  0  0  0  0
   -3.1683    1.8773    0.8331 H   0  0  0  0  0  0  0  0  0  0  0  0
   -1.6284    1.2597    2.4320 H   0  0  0  0  0  0  0  0  0  0  0  0
    0.1813    0.3671    0.2340 H   0  0  0  0  0  0  0  0  0  0  0  0
   -0.4291   -0.5899    1.6348 H   0  0  0  0  0  0  0  0  0  0  0  0
    1.3510    1.9249    1.8824 H   0  0  0  0  0  0  0  0  0  0  0  0
    0.7772    0.8673    3.2095 H   0  0  0  0  0  0  0  0  0  0  0  0
    2.1599   -1.2078    3.7148 H   0  0  0  0  0  0  0  0  0  0  0  0
    5.4685   -3.2168    1.1713 H   0  0  0  0  0  0  0  0  0  0  0  0
    6.7792   -1.9700    1.1337 H   0  0  0  0  0  0  0  0  0  0  0  0
    6.3251   -2.8869   -0.3605 H   0  0  0  0  0  0  0  0  0  0  0  0
    4.9374    2.1061   -2.1682 H   0  0  0  0  0  0  0  0  0  0  0  0
    3.3055    1.5762   -2.7479 H   0  0  0  0  0  0  0  0  0  0  0  0
    4.7434    0.6404   -3.2135 H   0  0  0  0  0  0  0  0  0  0  0  0
   -2.1072   -0.8820   -0.0344 H   0  0  0  0  0  0  0  0  0  0  0  0
   -3.7454   -0.1205    2.1759 H   0  0  0  0  0  0  0  0  0  0  0  0
   -5.3784    0.9223    0.8155 H   0  0  0  0  0  0  0  0  0  0  0  0
   -7.3794    0.7390   -0.6024 H   0  0  0  0  0  0  0  0  0  0  0  0
   -7.3280   -0.6248   -2.6684 H   0  0  0  0  0  0  0  0  0  0  0  0
   -5.2473   -1.7971   -3.3294 H   0  0  0  0  0  0  0  0  0  0  0  0
   -3.2255   -1.6241   -1.9351 H   0  0  0  0  0  0  0  0  0  0  0  0
  1  2  1  0
  2  3  1  0
  3  4  1  0
  4  5  1  0
  5  6  1  0
  6  7  1  0
  7  8  2  0
  8  9  1  0
  9 10  1  0
 10 11  1  0
 10 12  1  0
 12 13  2  0
 12 14  1  0
 14 15  1  0
 14 16  1  0
 16 17  2  0
 16 18  1  0
 18  6  1  0
 18  9  2  0
  2 19  1  0
 19 20  1  0
 19 21  1  0
 21 22  2  0
 22 23  1  0
 23 24  2  0
 24 25  1  0
 25 26  2  0
 26 21  1  0
  1 27  1  0
  1 28  1  0
  1 29  1  0
  2 30  1  0
  3 31  1  0
  4 32  1  0
  4 33  1  0
  5 34  1  0
  5 35  1  0
  7 36  1  0
 11 37  1  0
 11 38  1  0
 11 39  1  0
 15 40  1  0
 15 41  1  0
 15 42  1  0
 19 43  1  0
 20 44  1  0
 22 45  1  0
 23 46  1  0
 24 47  1  0
 25 48  1  0
 26 49  1  0
M  END
> <ID>
HT3627

> <Class>
0.0

> <Clusters>
259

> <Fold>
5

$$$$