
     RDKit          3D

 46 50  0  0  0  0  0  0  0  0999 V2000
   -2.1213    2.9385    0.4066 C   0  0  0  0  0  0  0  0  0  0  0  0
   -2.1403    1.4821    0.2916 N   0  0  0  0  0  0  0  0  0  0  0  0
   -1.4713    0.7748   -0.6476 C   0  0  0  0  0  0  0  0  0  0  0  0
   -1.6811   -0.5886   -0.4676 C   0  0  0  0  0  0  0  0  0  0  0  0
   -1.1027   -1.6801   -1.2749 C   0  0  0  0  0  0  0  0  0  0  0  0
    0.1425   -1.7379   -1.7662 C   0  0  0  0  0  0  0  0  0  0  0  0
    0.2185   -2.9054   -2.6463 C   0  0  0  0  0  0  0  0  0  0  0  0
    1.2371   -3.2712   -3.2897 O   0  0  0  0  0  0  0  0  0  0  0  0
   -1.0213   -3.5937   -2.6812 N   0  0  0  0  0  0  0  0  0  0  0  0
   -1.8474   -2.8141   -1.8309 C   0  0  0  0  0  0  0  0  0  0  0  0
   -3.0712   -3.0470   -1.6484 O   0  0  0  0  0  0  0  0  0  0  0  0
    1.2460   -0.7932   -1.5109 C   0  0  0  0  0  0  0  0  0  0  0  0
    2.0956   -0.2548   -2.4709 C   0  0  0  0  0  0  0  0  0  0  0  0
    2.9763    0.5932   -1.8904 N   0  0  0  0  0  0  0  0  0  0  0  0
    4.0251    1.3474   -2.5699 C   0  0  0  0  0  0  0  0  0  0  0  0
    2.7054    0.5827   -0.5696 C   0  0  0  0  0  0  0  0  0  0  0  0
    3.3620    1.2830    0.4451 C   0  0  0  0  0  0  0  0  0  0  0  0
    2.9295    1.0993    1.7788 C   0  0  0  0  0  0  0  0  0  0  0  0
    1.8601    0.2035    2.0467 C   0  0  0  0  0  0  0  0  0  0  0  0
    1.2239   -0.4919    1.0050 C   0  0  0  0  0  0  0  0  0  0  0  0
    1.6585   -0.2614   -0.2996 C   0  0  0  0  0  0  0  0  0  0  0  0
    3.5759    1.8068    2.8522 N   0  0  0  0  0  0  0  0  0  0  0  0
    3.2029    1.6508    4.0334 O   0  0  0  0  0  0  0  0  0  0  0  0
    4.6147    2.6716    2.5936 O   0  0  0  0  0  0  0  0  0  0  0  0
   -2.5142   -0.6993    0.6306 C   0  0  0  0  0  0  0  0  0  0  0  0
   -3.0027   -1.8223    1.3004 C   0  0  0  0  0  0  0  0  0  0  0  0
   -3.8084   -1.6155    2.4326 C   0  0  0  0  0  0  0  0  0  0  0  0
   -4.0947   -0.3078    2.8767 C   0  0  0  0  0  0  0  0  0  0  0  0
   -3.5721    0.8074    2.1982 C   0  0  0  0  0  0  0  0  0  0  0  0
   -2.7750    0.5779    1.0703 C   0  0  0  0  0  0  0  0  0  0  0  0
   -2.5135    3.3897   -0.5289 H   0  0  0  0  0  0  0  0  0  0  0  0
   -2.7417    3.2914    1.2532 H   0  0  0  0  0  0  0  0  0  0  0  0
   -1.0781    3.2841    0.5655 H   0  0  0  0  0  0  0  0  0  0  0  0
   -0.8607    1.2222   -1.4220 H   0  0  0  0  0  0  0  0  0  0  0  0
   -1.2797   -4.4353   -3.2422 H   0  0  0  0  0  0  0  0  0  0  0  0
    2.0575   -0.4610   -3.5333 H   0  0  0  0  0  0  0  0  0  0  0  0
    5.0196    1.0200   -2.2005 H   0  0  0  0  0  0  0  0  0  0  0  0
    3.9777    1.1804   -3.6672 H   0  0  0  0  0  0  0  0  0  0  0  0
    3.8965    2.4318   -2.3692 H   0  0  0  0  0  0  0  0  0  0  0  0
    4.1838    1.9457    0.2079 H   0  0  0  0  0  0  0  0  0  0  0  0
    1.5235    0.0376    3.0618 H   0  0  0  0  0  0  0  0  0  0  0  0
    0.4292   -1.1929    1.2203 H   0  0  0  0  0  0  0  0  0  0  0  0
   -2.7602   -2.8247    0.9750 H   0  0  0  0  0  0  0  0  0  0  0  0
   -4.2051   -2.4656    2.9722 H   0  0  0  0  0  0  0  0  0  0  0  0
   -4.7133   -0.1618    3.7527 H   0  0  0  0  0  0  0  0  0  0  0  0
   -3.7862    1.8037    2.5572 H   0  0  0  0  0  0  0  0  0  0  0  0
  1  2  1  0
  2  3  1  0
  3  4  2  0
  4  5  1  0
  5  6  2  0
  6  7  1  0
  7  8  2  0
  7  9  1  0
  9 10  1  0
 10  5  1  0
 10 11  2  0
  6 12  1  0
 12 13  2  0
 13 14  1  0
 14 15  1  0
 14 16  1  0
 16 17  2  0
 17 18  1  0
 18 19  2  0
 19 20  1  0
 20 21  2  0
 21 12  1  0
 21 16  1  0
 18 22  1  0
 22 23  2  0
 22 24  1  0
  4 25  1  0
 25 26  2  0
 26 27  1  0
 27 28  2  0
 28 29  1  0
 29 30  2  0
 30  2  1  0
 30 25  1  0
  1 31  1  0
  1 32  1  0
  1 33  1  0
  3 34  1  0
  9 35  1  0
 13 36  1  0
 15 37  1  0
 15 38  1  0
 15 39  1  0
 17 40  1  0
 19 41  1  0
 20 42  1  0
 26 43  1  0
 27 44  1  0
 28 45  1  0
 29 46  1  0
M  CHG  2  22   1  24  -1
M  END
> <ID>
HT3756

> <Class>
0.0

> <Clusters>
272

> <Fold>
5

$$$$