
     RDKit          3D

 28 28  0  0  0  0  0  0  0  0999 V2000
    0.5052   -1.0833    2.9907 C   0  0  0  0  0  0  0  0  0  0  0  0
    0.0589   -0.6593    1.5869 C   0  0  0  0  0  0  0  0  0  0  0  0
    0.3209   -2.0350    0.4074 S   0  0  0  0  0  0  0  0  0  0  0  0
    2.0567   -1.6759    0.1184 C   0  0  0  0  0  0  0  0  0  0  0  0
    2.9278   -2.2553    0.8195 O   0  0  0  0  0  0  0  0  0  0  0  0
    2.4662   -0.7297   -0.9310 C   0  0  0  0  0  0  0  0  0  0  0  0
    3.7737   -0.3661   -1.2333 C   0  0  0  0  0  0  0  0  0  0  0  0
    3.8626    0.5605   -2.2795 C   0  0  0  0  0  0  0  0  0  0  0  0
    2.6312    0.9302   -2.8044 C   0  0  0  0  0  0  0  0  0  0  0  0
    1.4318    0.1033   -1.9657 S   0  0  0  0  0  0  0  0  0  0  0  0
   -1.3934   -0.2558    1.5428 C   0  0  0  0  0  0  0  0  0  0  0  0
   -2.1402   -0.4303    2.5457 O   0  0  0  0  0  0  0  0  0  0  0  0
   -1.9268    0.3337    0.3491 N   0  0  0  0  0  0  0  0  0  0  0  0
   -3.3385    0.7176    0.2576 C   0  0  0  0  0  0  0  0  0  0  0  0
   -3.7048    1.3054   -1.0774 C   0  0  0  0  0  0  0  0  0  0  0  0
   -2.8559    1.4233   -2.0021 O   0  0  0  0  0  0  0  0  0  0  0  0
   -5.0138    1.7246   -1.2910 O   0  0  0  0  0  0  0  0  0  0  0  0
    0.3264   -0.2593    3.7142 H   0  0  0  0  0  0  0  0  0  0  0  0
    1.5910   -1.3122    2.9951 H   0  0  0  0  0  0  0  0  0  0  0  0
   -0.0511   -1.9862    3.3222 H   0  0  0  0  0  0  0  0  0  0  0  0
    0.6601    0.2251    1.2820 H   0  0  0  0  0  0  0  0  0  0  0  0
    4.6405   -0.7552   -0.7151 H   0  0  0  0  0  0  0  0  0  0  0  0
    4.8026    0.9523   -2.6445 H   0  0  0  0  0  0  0  0  0  0  0  0
    2.4738    1.6304   -3.6135 H   0  0  0  0  0  0  0  0  0  0  0  0
   -1.2755    0.4833   -0.4536 H   0  0  0  0  0  0  0  0  0  0  0  0
   -3.5634    1.4678    1.0454 H   0  0  0  0  0  0  0  0  0  0  0  0
   -3.9722   -0.1779    0.4322 H   0  0  0  0  0  0  0  0  0  0  0  0
   -5.2936    2.1241   -2.1789 H   0  0  0  0  0  0  0  0  0  0  0  0
  1  2  1  0
  2  3  1  0
  3  4  1  0
  4  5  2  0
  4  6  1  0
  6  7  2  0
  7  8  1  0
  8  9  2  0
  9 10  1  0
 10  6  1  0
  2 11  1  0
 11 12  2  0
 11 13  1  0
 13 14  1  0
 14 15  1  0
 15 16  2  0
 15 17  1  0
  1 18  1  0
  1 19  1  0
  1 20  1  0
  2 21  1  0
  7 22  1  0
  8 23  1  0
  9 24  1  0
 13 25  1  0
 14 26  1  0
 14 27  1  0
 17 28  1  0
M  END
> <ID>
HT1916

> <Class>
0.0

> <Clusters>
15

> <Fold>
5

$$$$