
     RDKit          3D

 63 68  0  0  0  0  0  0  0  0999 V2000
    2.9699   -3.0191    1.9687 C   0  0  0  0  0  0  0  0  0  0  0  0
    3.3353   -2.1640    0.8272 N   0  0  0  0  0  0  0  0  0  0  0  0
    4.7429   -2.4056    0.4644 C   0  0  0  0  0  0  0  0  0  0  0  0
    3.1013   -0.7355    1.1437 C   0  0  0  0  0  0  0  0  0  0  0  0
    2.6923    0.0287   -0.1298 C   0  0  2  0  0  0  0  0  0  0  0  0
    2.6202    1.5620    0.0909 C   0  0  0  0  0  0  0  0  0  0  0  0
    1.5721    2.0522    1.1097 C   0  0  0  0  0  0  0  0  0  0  0  0
    0.2375    2.1693    0.5166 N   0  0  0  0  0  0  0  0  0  0  0  0
   -0.8175    1.3622    0.7781 C   0  0  0  0  0  0  0  0  0  0  0  0
   -1.9759    1.8780    0.2022 C   0  0  0  0  0  0  0  0  0  0  0  0
   -3.3162    1.2654    0.2457 C   0  0  0  0  0  0  0  0  0  0  0  0
   -3.5923   -0.0119   -0.0248 C   0  0  0  0  0  0  0  0  0  0  0  0
   -5.0074   -0.2374    0.2596 C   0  0  0  0  0  0  0  0  0  0  0  0
   -5.6201   -1.3272    0.1121 O   0  0  0  0  0  0  0  0  0  0  0  0
   -5.6209    0.9594    0.7174 N   0  0  0  0  0  0  0  0  0  0  0  0
   -4.5525    1.8967    0.7076 C   0  0  0  0  0  0  0  0  0  0  0  0
   -4.6692    3.0935    1.0804 O   0  0  0  0  0  0  0  0  0  0  0  0
   -2.6438   -0.9764   -0.5956 C   0  0  0  0  0  0  0  0  0  0  0  0
   -1.7888   -0.7092   -1.6562 C   0  0  0  0  0  0  0  0  0  0  0  0
   -0.7927   -1.6213   -1.7030 N   0  0  0  0  0  0  0  0  0  0  0  0
    0.4149   -1.4797   -2.5179 C   0  0  0  0  0  0  0  0  0  0  0  0
    1.2940   -0.3450   -1.9842 C   0  0  0  0  0  0  0  0  0  0  0  0
    1.4571   -0.4948   -0.5845 O   0  0  0  0  0  0  0  0  0  0  0  0
   -1.0076   -2.4672   -0.6697 C   0  0  0  0  0  0  0  0  0  0  0  0
   -0.1844   -3.5037   -0.2145 C   0  0  0  0  0  0  0  0  0  0  0  0
   -0.5597   -4.1790    0.9604 C   0  0  0  0  0  0  0  0  0  0  0  0
   -1.7178   -3.7952    1.6689 C   0  0  0  0  0  0  0  0  0  0  0  0
   -2.5145   -2.7333    1.2082 C   0  0  0  0  0  0  0  0  0  0  0  0
   -2.1399   -2.1030    0.0216 C   0  0  0  0  0  0  0  0  0  0  0  0
   -1.5974    3.0452   -0.4285 C   0  0  0  0  0  0  0  0  0  0  0  0
   -2.3339    3.9657   -1.1738 C   0  0  0  0  0  0  0  0  0  0  0  0
   -1.6552    5.0806   -1.6960 C   0  0  0  0  0  0  0  0  0  0  0  0
   -0.2722    5.2484   -1.4668 C   0  0  0  0  0  0  0  0  0  0  0  0
    0.4477    4.2997   -0.7185 C   0  0  0  0  0  0  0  0  0  0  0  0
   -0.2470    3.1945   -0.2182 C   0  0  0  0  0  0  0  0  0  0  0  0
    3.5558   -2.7494    2.8760 H   0  0  0  0  0  0  0  0  0  0  0  0
    1.8864   -2.9142    2.1917 H   0  0  0  0  0  0  0  0  0  0  0  0
    3.1472   -4.0886    1.7231 H   0  0  0  0  0  0  0  0  0  0  0  0
    5.0407   -1.7743   -0.3981 H   0  0  0  0  0  0  0  0  0  0  0  0
    4.8786   -3.4635    0.1527 H   0  0  0  0  0  0  0  0  0  0  0  0
    5.4232   -2.1912    1.3187 H   0  0  0  0  0  0  0  0  0  0  0  0
    2.2766   -0.6400    1.8823 H   0  0  0  0  0  0  0  0  0  0  0  0
    4.0023   -0.2687    1.6040 H   0  0  0  0  0  0  0  0  0  0  0  0
    3.5131   -0.1449   -0.8613 H   0  0  0  0  0  0  0  0  0  0  0  0
    3.6202    1.9033    0.4376 H   0  0  0  0  0  0  0  0  0  0  0  0
    2.4477    2.0627   -0.8857 H   0  0  0  0  0  0  0  0  0  0  0  0
    1.8817    3.0517    1.4850 H   0  0  0  0  0  0  0  0  0  0  0  0
    1.5360    1.4038    2.0064 H   0  0  0  0  0  0  0  0  0  0  0  0
   -0.7600    0.4617    1.3772 H   0  0  0  0  0  0  0  0  0  0  0  0
   -6.6132    1.1103    1.0046 H   0  0  0  0  0  0  0  0  0  0  0  0
   -1.8258    0.1763   -2.2791 H   0  0  0  0  0  0  0  0  0  0  0  0
    0.1265   -1.2541   -3.5675 H   0  0  0  0  0  0  0  0  0  0  0  0
    0.9919   -2.4273   -2.5334 H   0  0  0  0  0  0  0  0  0  0  0  0
    0.7960    0.6281   -2.1868 H   0  0  0  0  0  0  0  0  0  0  0  0
    2.2474   -0.3730   -2.5591 H   0  0  0  0  0  0  0  0  0  0  0  0
    0.7245   -3.7801   -0.7298 H   0  0  0  0  0  0  0  0  0  0  0  0
    0.0564   -4.9859    1.3352 H   0  0  0  0  0  0  0  0  0  0  0  0
   -1.9844   -4.3099    2.5828 H   0  0  0  0  0  0  0  0  0  0  0  0
   -3.3836   -2.4101    1.7663 H   0  0  0  0  0  0  0  0  0  0  0  0
   -3.3933    3.8303   -1.3483 H   0  0  0  0  0  0  0  0  0  0  0  0
   -2.1969    5.8155   -2.2771 H   0  0  0  0  0  0  0  0  0  0  0  0
    0.2385    6.1122   -1.8720 H   0  0  0  0  0  0  0  0  0  0  0  0
    1.5083    4.4263   -0.5470 H   0  0  0  0  0  0  0  0  0  0  0  0
  1  2  1  0
  2  3  1  0
  2  4  1  0
  5  4  1  0
  5  6  1  0
  6  7  1  0
  7  8  1  0
  8  9  1  0
  9 10  2  0
 10 11  1  0
 11 12  2  0
 12 13  1  0
 13 14  2  0
 13 15  1  0
 15 16  1  0
 16 11  1  0
 16 17  2  0
 12 18  1  0
 18 19  2  0
 19 20  1  0
 20 21  1  0
 21 22  1  0
 22 23  1  0
 23  5  1  0
 20 24  1  0
 24 25  2  0
 25 26  1  0
 26 27  2  0
 27 28  1  0
 28 29  2  0
 29 18  1  0
 29 24  1  0
 10 30  1  0
 30 31  2  0
 31 32  1  0
 32 33  2  0
 33 34  1  0
 34 35  2  0
 35  8  1  0
 35 30  1  0
  1 36  1  0
  1 37  1  0
  1 38  1  0
  3 39  1  0
  3 40  1  0
  3 41  1  0
  4 42  1  0
  4 43  1  0
  5 44  1  6
  6 45  1  0
  6 46  1  0
  7 47  1  0
  7 48  1  0
  9 49  1  0
 15 50  1  0
 19 51  1  0
 21 52  1  0
 21 53  1  0
 22 54  1  0
 22 55  1  0
 25 56  1  0
 26 57  1  0
 27 58  1  0
 28 59  1  0
 31 60  1  0
 32 61  1  0
 33 62  1  0
 34 63  1  0
M  END
> <ID>
HT1855

> <Class>
0.0

> <Clusters>
272

> <Fold>
5

$$$$