
     RDKit          3D

 39 40  0  0  0  0  0  0  0  0999 V2000
    1.2760   -0.7565   -1.7441 C   0  0  0  0  0  0  0  0  0  0  0  0
    0.7046   -0.6146   -0.3191 C   0  0  0  0  0  0  0  0  0  0  0  0
    1.3795    0.6040    0.3806 C   0  0  0  0  0  0  0  0  0  0  0  0
    2.8813    0.4650    0.4784 C   0  0  0  0  0  0  0  0  0  0  0  0
    3.7256    1.3184   -0.2533 C   0  0  0  0  0  0  0  0  0  0  0  0
    5.1145    1.1861   -0.1592 C   0  0  0  0  0  0  0  0  0  0  0  0
    5.6709    0.2071    0.6682 C   0  0  0  0  0  0  0  0  0  0  0  0
    4.8394   -0.6405    1.4048 C   0  0  0  0  0  0  0  0  0  0  0  0
    3.4501   -0.5124    1.3135 C   0  0  0  0  0  0  0  0  0  0  0  0
   -0.7895   -0.5366   -0.4169 N   0  0  0  0  0  0  0  0  0  0  0  0
   -1.3660   -1.9013   -0.4224 C   0  0  0  0  0  0  0  0  0  0  0  0
   -1.4547    0.2824    0.6281 C   0  0  0  0  0  0  0  0  0  0  0  0
   -2.9317    0.4399    0.3571 C   0  0  0  0  0  0  0  0  0  0  0  0
   -3.3669    1.0725   -0.8195 C   0  0  0  0  0  0  0  0  0  0  0  0
   -4.7336    1.2182   -1.0767 C   0  0  0  0  0  0  0  0  0  0  0  0
   -5.6737    0.7364   -0.1618 C   0  0  0  0  0  0  0  0  0  0  0  0
   -5.2487    0.1085    1.0124 C   0  0  0  0  0  0  0  0  0  0  0  0
   -3.8828   -0.0394    1.2738 C   0  0  0  0  0  0  0  0  0  0  0  0
    1.0912    0.1719   -2.3258 H   0  0  0  0  0  0  0  0  0  0  0  0
    0.8099   -1.6022   -2.2873 H   0  0  0  0  0  0  0  0  0  0  0  0
    2.3681   -0.9541   -1.7166 H   0  0  0  0  0  0  0  0  0  0  0  0
    0.9990   -1.5205    0.2601 H   0  0  0  0  0  0  0  0  0  0  0  0
    1.1168    1.5342   -0.1704 H   0  0  0  0  0  0  0  0  0  0  0  0
    1.0061    0.7078    1.4216 H   0  0  0  0  0  0  0  0  0  0  0  0
    3.3105    2.0799   -0.9016 H   0  0  0  0  0  0  0  0  0  0  0  0
    5.7597    1.8429   -0.7282 H   0  0  0  0  0  0  0  0  0  0  0  0
    6.7462    0.1065    0.7399 H   0  0  0  0  0  0  0  0  0  0  0  0
    5.2715   -1.3961    2.0481 H   0  0  0  0  0  0  0  0  0  0  0  0
    2.8181   -1.1716    1.8955 H   0  0  0  0  0  0  0  0  0  0  0  0
   -0.8370   -2.5663   -1.1348 H   0  0  0  0  0  0  0  0  0  0  0  0
   -1.3125   -2.3620    0.5890 H   0  0  0  0  0  0  0  0  0  0  0  0
   -2.4244   -1.8757   -0.7561 H   0  0  0  0  0  0  0  0  0  0  0  0
   -1.0537    1.3164    0.6286 H   0  0  0  0  0  0  0  0  0  0  0  0
   -1.2750   -0.1569    1.6357 H   0  0  0  0  0  0  0  0  0  0  0  0
   -2.6472    1.4491   -1.5359 H   0  0  0  0  0  0  0  0  0  0  0  0
   -5.0637    1.7047   -1.9855 H   0  0  0  0  0  0  0  0  0  0  0  0
   -6.7312    0.8497   -0.3624 H   0  0  0  0  0  0  0  0  0  0  0  0
   -5.9778   -0.2642    1.7200 H   0  0  0  0  0  0  0  0  0  0  0  0
   -3.5690   -0.5305    2.1864 H   0  0  0  0  0  0  0  0  0  0  0  0
  1  2  1  0
  2  3  1  0
  3  4  1  0
  4  5  2  0
  5  6  1  0
  6  7  2  0
  7  8  1  0
  8  9  2  0
  9  4  1  0
  2 10  1  0
 10 11  1  0
 10 12  1  0
 12 13  1  0
 13 14  2  0
 14 15  1  0
 15 16  2  0
 16 17  1  0
 17 18  2  0
 18 13  1  0
  1 19  1  0
  1 20  1  0
  1 21  1  0
  2 22  1  0
  3 23  1  0
  3 24  1  0
  5 25  1  0
  6 26  1  0
  7 27  1  0
  8 28  1  0
  9 29  1  0
 11 30  1  0
 11 31  1  0
 11 32  1  0
 12 33  1  0
 12 34  1  0
 14 35  1  0
 15 36  1  0
 16 37  1  0
 17 38  1  0
 18 39  1  0
M  END
> <ID>
HT0253

> <Class>
0.0

> <Clusters>
31

> <Fold>
5

$$$$