
     RDKit          3D

 73 76  0  0  0  0  0  0  0  0999 V2000
    7.4539    1.2795   -3.2532 C   0  0  0  0  0  0  0  0  0  0  0  0
    5.9889    1.6535   -3.5072 C   0  0  0  0  0  0  0  0  0  0  0  0
    5.0217    0.7492   -2.7935 C   0  0  0  0  0  0  0  0  0  0  0  0
    5.4314   -0.1654   -2.0217 O   0  0  0  0  0  0  0  0  0  0  0  0
    3.6476    0.9425   -2.9965 O   0  0  0  0  0  0  0  0  0  0  0  0
    2.6479    0.0921   -2.4299 C   0  0  0  0  0  0  0  0  0  0  0  0
    2.5202    0.2877   -0.9299 C   0  0  0  0  0  0  0  0  0  0  0  0
    3.2194    1.1382   -0.3955 O   0  0  0  0  0  0  0  0  0  0  0  0
    1.4603   -0.4797   -0.1032 C   0  0  1  0  0  0  0  0  0  0  0  0
    1.0641   -1.6567   -0.8337 O   0  0  0  0  0  0  0  0  0  0  0  0
    1.8809   -2.7611   -1.1190 C   0  0  0  0  0  0  0  0  0  0  0  0
    3.0915   -2.7774   -0.7760 O   0  0  0  0  0  0  0  0  0  0  0  0
    1.3189   -3.8944   -1.9134 C   0  0  0  0  0  0  0  0  0  0  0  0
    1.5068   -3.6457   -3.4037 C   0  0  0  0  0  0  0  0  0  0  0  0
    1.8902   -0.9374    1.3560 C   0  0  1  0  0  0  0  0  0  0  0  0
    3.2440   -0.4567    1.8907 C   0  0  0  0  0  0  0  0  0  0  0  0
    0.7392   -0.5571    2.3057 C   0  0  0  0  0  0  0  0  0  0  0  0
   -0.4362   -0.3408    1.3658 C   0  0  1  0  0  0  0  0  0  0  0  0
   -1.7172    0.3320    1.9148 C   0  0  2  0  0  0  0  0  0  0  0  0
   -2.2327   -0.4104    3.1707 C   0  0  0  0  0  0  0  0  0  0  0  0
   -3.5141    0.2243    3.7000 C   0  0  0  0  0  0  0  0  0  0  0  0
   -4.5512    0.2815    2.6090 C   0  0  0  0  0  0  0  0  0  0  0  0
   -5.7661   -0.2454    2.8261 C   0  0  0  0  0  0  0  0  0  0  0  0
   -6.7878   -0.2239    1.7902 C   0  0  0  0  0  0  0  0  0  0  0  0
   -7.9497   -0.6447    2.0351 O   0  0  0  0  0  0  0  0  0  0  0  0
   -6.4545    0.2728    0.4578 C   0  0  0  0  0  0  0  0  0  0  0  0
   -5.2560    0.7975    0.2133 C   0  0  0  0  0  0  0  0  0  0  0  0
   -4.1770    0.9809    1.2907 C   0  0  1  0  0  0  0  0  0  0  0  0
   -4.0934    2.5037    1.5841 C   0  0  0  0  0  0  0  0  0  0  0  0
   -2.8143    0.3416    0.7843 C   0  0  2  0  0  0  0  0  0  0  0  0
   -3.1017   -0.9888    0.4993 F   0  0  0  0  0  0  0  0  0  0  0  0
   -2.2671    0.9441   -0.5671 C   0  0  1  0  0  0  0  0  0  0  0  0
   -2.1832    2.3471   -0.5216 O   0  0  0  0  0  0  0  0  0  0  0  0
   -0.8886    0.3590   -0.9868 C   0  0  0  0  0  0  0  0  0  0  0  0
    0.1692    0.3860    0.1559 C   0  0  2  0  0  0  0  0  0  0  0  0
    0.5560    1.8718    0.4752 C   0  0  0  0  0  0  0  0  0  0  0  0
    8.1114    1.9357   -3.8591 H   0  0  0  0  0  0  0  0  0  0  0  0
    7.6398    0.2218   -3.5495 H   0  0  0  0  0  0  0  0  0  0  0  0
    7.7028    1.4178   -2.1802 H   0  0  0  0  0  0  0  0  0  0  0  0
    5.7942    1.5880   -4.6018 H   0  0  0  0  0  0  0  0  0  0  0  0
    5.8082    2.7027   -3.1840 H   0  0  0  0  0  0  0  0  0  0  0  0
    1.6746    0.3329   -2.9099 H   0  0  0  0  0  0  0  0  0  0  0  0
    2.8996   -0.9569   -2.6844 H   0  0  0  0  0  0  0  0  0  0  0  0
    0.2376   -4.0005   -1.6953 H   0  0  0  0  0  0  0  0  0  0  0  0
    1.8299   -4.8399   -1.6341 H   0  0  0  0  0  0  0  0  0  0  0  0
    2.5894   -3.6058   -3.6550 H   0  0  0  0  0  0  0  0  0  0  0  0
    1.0195   -2.6876   -3.7036 H   0  0  0  0  0  0  0  0  0  0  0  0
    1.0400   -4.4712   -3.9788 H   0  0  0  0  0  0  0  0  0  0  0  0
    1.9384   -2.0490    1.3871 H   0  0  0  0  0  0  0  0  0  0  0  0
    3.2578    0.6394    2.0503 H   0  0  0  0  0  0  0  0  0  0  0  0
    3.4442   -0.9413    2.8682 H   0  0  0  0  0  0  0  0  0  0  0  0
    4.0565   -0.7453    1.1952 H   0  0  0  0  0  0  0  0  0  0  0  0
    0.9552    0.3727    2.8774 H   0  0  0  0  0  0  0  0  0  0  0  0
    0.5334   -1.3798    3.0290 H   0  0  0  0  0  0  0  0  0  0  0  0
   -0.7417   -1.3643    1.0356 H   0  0  0  0  0  0  0  0  0  0  0  0
   -1.4717    1.3581    2.2369 H   0  0  0  0  0  0  0  0  0  0  0  0
   -1.4677   -0.3557    3.9769 H   0  0  0  0  0  0  0  0  0  0  0  0
   -2.4192   -1.4869    2.9518 H   0  0  0  0  0  0  0  0  0  0  0  0
   -3.8696   -0.3677    4.5714 H   0  0  0  0  0  0  0  0  0  0  0  0
   -3.2961    1.2512    4.0646 H   0  0  0  0  0  0  0  0  0  0  0  0
   -6.0133   -0.6929    3.7802 H   0  0  0  0  0  0  0  0  0  0  0  0
   -7.1949    0.2199   -0.3377 H   0  0  0  0  0  0  0  0  0  0  0  0
   -5.0818    1.1938   -0.7810 H   0  0  0  0  0  0  0  0  0  0  0  0
   -4.2322    3.1078    0.6553 H   0  0  0  0  0  0  0  0  0  0  0  0
   -3.1215    2.8031    2.0416 H   0  0  0  0  0  0  0  0  0  0  0  0
   -4.9080    2.8144    2.2810 H   0  0  0  0  0  0  0  0  0  0  0  0
   -2.9666    0.6347   -1.3814 H   0  0  0  0  0  0  0  0  0  0  0  0
   -2.8272    2.7138   -1.1856 H   0  0  0  0  0  0  0  0  0  0  0  0
   -1.0716   -0.6810   -1.3312 H   0  0  0  0  0  0  0  0  0  0  0  0
   -0.5050    0.9164   -1.8665 H   0  0  0  0  0  0  0  0  0  0  0  0
    1.3798    1.9341    1.2167 H   0  0  0  0  0  0  0  0  0  0  0  0
   -0.2715    2.4792    0.8783 H   0  0  0  0  0  0  0  0  0  0  0  0
    0.8858    2.3889   -0.4514 H   0  0  0  0  0  0  0  0  0  0  0  0
  1  2  1  0
  2  3  1  0
  3  4  2  0
  3  5  1  0
  5  6  1  0
  6  7  1  0
  7  8  2  0
  7  9  1  0
  9 10  1  6
 10 11  1  0
 11 12  2  0
 11 13  1  0
 13 14  1  0
  9 15  1  0
 15 16  1  0
 15 17  1  0
 18 17  1  0
 18 19  1  0
 19 20  1  0
 20 21  1  0
 21 22  1  0
 22 23  2  0
 23 24  1  0
 24 25  2  0
 24 26  1  0
 26 27  2  0
 27 28  1  0
 28 22  1  0
 28 29  1  1
 28 30  1  0
 30 19  1  0
 30 31  1  6
 30 32  1  0
 32 33  1  0
 32 34  1  0
 34 35  1  0
 35  9  1  0
 35 18  1  0
 35 36  1  1
  1 37  1  0
  1 38  1  0
  1 39  1  0
  2 40  1  0
  2 41  1  0
  6 42  1  0
  6 43  1  0
 13 44  1  0
 13 45  1  0
 14 46  1  0
 14 47  1  0
 14 48  1  0
 15 49  1  6
 16 50  1  0
 16 51  1  0
 16 52  1  0
 17 53  1  0
 17 54  1  0
 18 55  1  6
 19 56  1  1
 20 57  1  0
 20 58  1  0
 21 59  1  0
 21 60  1  0
 23 61  1  0
 26 62  1  0
 27 63  1  0
 29 64  1  0
 29 65  1  0
 29 66  1  0
 32 67  1  6
 33 68  1  0
 34 69  1  0
 34 70  1  0
 36 71  1  0
 36 72  1  0
 36 73  1  0
M  END
> <ID>
HT0270

> <Class>
0.0

> <Clusters>
34

> <Fold>
5

$$$$