
     RDKit          3D

 40 39  0  0  0  0  0  0  0  0999 V2000
   -5.7426    0.8195   -0.5645 N   0  0  0  0  0  0  0  0  0  0  0  0
   -5.6936   -0.6264   -0.3678 C   0  0  0  0  0  0  0  0  0  0  0  0
   -4.5903   -1.2636   -1.2256 C   0  0  0  0  0  0  0  0  0  0  0  0
   -3.1786   -1.0427   -0.6649 C   0  0  0  0  0  0  0  0  0  0  0  0
   -2.7824    0.3683   -0.7879 N   0  0  0  0  0  0  0  0  0  0  0  0
   -1.3212    0.5430   -0.7916 C   0  0  0  0  0  0  0  0  0  0  0  0
   -0.6881    0.2306    0.5761 C   0  0  0  0  0  0  0  0  0  0  0  0
    0.8148    0.5332    0.5666 C   0  0  0  0  0  0  0  0  0  0  0  0
    1.4530    0.2000    1.9252 C   0  0  0  0  0  0  0  0  0  0  0  0
    2.8664    0.6032    1.9924 N   0  0  0  0  0  0  0  0  0  0  0  0
    3.7568   -0.2307    1.1614 C   0  0  0  0  0  0  0  0  0  0  0  0
    4.2870    0.5391   -0.0625 C   0  0  0  0  0  0  0  0  0  0  0  0
    5.0609   -0.3623   -1.0399 C   0  0  0  0  0  0  0  0  0  0  0  0
    6.3147   -0.8574   -0.4720 N   0  0  0  0  0  0  0  0  0  0  0  0
   -6.4593    1.2059    0.0916 H   0  0  0  0  0  0  0  0  0  0  0  0
   -6.0932    1.0073   -1.5320 H   0  0  0  0  0  0  0  0  0  0  0  0
   -6.6744   -1.0696   -0.6515 H   0  0  0  0  0  0  0  0  0  0  0  0
   -5.5184   -0.8533    0.7068 H   0  0  0  0  0  0  0  0  0  0  0  0
   -4.6470   -0.8851   -2.2697 H   0  0  0  0  0  0  0  0  0  0  0  0
   -4.7752   -2.3593   -1.2628 H   0  0  0  0  0  0  0  0  0  0  0  0
   -3.1408   -1.3673    0.3990 H   0  0  0  0  0  0  0  0  0  0  0  0
   -2.4876   -1.6948   -1.2448 H   0  0  0  0  0  0  0  0  0  0  0  0
   -3.1807    0.9053    0.0177 H   0  0  0  0  0  0  0  0  0  0  0  0
   -0.8592   -0.0880   -1.5830 H   0  0  0  0  0  0  0  0  0  0  0  0
   -1.1027    1.6006   -1.0556 H   0  0  0  0  0  0  0  0  0  0  0  0
   -0.8370   -0.8431    0.8202 H   0  0  0  0  0  0  0  0  0  0  0  0
   -1.1819    0.8451    1.3604 H   0  0  0  0  0  0  0  0  0  0  0  0
    0.9720    1.6104    0.3396 H   0  0  0  0  0  0  0  0  0  0  0  0
    1.2973   -0.0733   -0.2295 H   0  0  0  0  0  0  0  0  0  0  0  0
    1.3526   -0.8867    2.1425 H   0  0  0  0  0  0  0  0  0  0  0  0
    0.9028    0.7414    2.7251 H   0  0  0  0  0  0  0  0  0  0  0  0
    2.9583    1.6222    1.7679 H   0  0  0  0  0  0  0  0  0  0  0  0
    4.6176   -0.5331    1.7932 H   0  0  0  0  0  0  0  0  0  0  0  0
    3.2561   -1.1686    0.8305 H   0  0  0  0  0  0  0  0  0  0  0  0
    3.4328    0.9862   -0.6135 H   0  0  0  0  0  0  0  0  0  0  0  0
    4.9389    1.3743    0.2746 H   0  0  0  0  0  0  0  0  0  0  0  0
    4.4273   -1.2214   -1.3513 H   0  0  0  0  0  0  0  0  0  0  0  0
    5.2954    0.2246   -1.9538 H   0  0  0  0  0  0  0  0  0  0  0  0
    6.8478   -0.0584   -0.0581 H   0  0  0  0  0  0  0  0  0  0  0  0
    6.1018   -1.5384    0.2917 H   0  0  0  0  0  0  0  0  0  0  0  0
  1  2  1  0
  2  3  1  0
  3  4  1  0
  4  5  1  0
  5  6  1  0
  6  7  1  0
  7  8  1  0
  8  9  1  0
  9 10  1  0
 10 11  1  0
 11 12  1  0
 12 13  1  0
 13 14  1  0
  1 15  1  0
  1 16  1  0
  2 17  1  0
  2 18  1  0
  3 19  1  0
  3 20  1  0
  4 21  1  0
  4 22  1  0
  5 23  1  0
  6 24  1  0
  6 25  1  0
  7 26  1  0
  7 27  1  0
  8 28  1  0
  8 29  1  0
  9 30  1  0
  9 31  1  0
 10 32  1  0
 11 33  1  0
 11 34  1  0
 12 35  1  0
 12 36  1  0
 13 37  1  0
 13 38  1  0
 14 39  1  0
 14 40  1  0
M  END
> <ID>
HT1910

> <Class>
0.0

> <Clusters>
123

> <Fold>
5

$$$$