
     RDKit          3D

 52 55  0  0  0  0  0  0  0  0999 V2000
    8.1053   -0.4795   -1.6307 O   0  0  0  0  0  0  0  0  0  0  0  0
    7.0500   -0.0816   -0.7985 C   0  0  0  0  0  0  0  0  0  0  0  0
    5.7939   -0.9025   -1.1060 C   0  0  0  0  0  0  0  0  0  0  0  0
    4.7053   -0.5518   -0.1693 N   0  0  0  0  0  0  0  0  0  0  0  0
    3.9779    0.6781   -0.5809 C   0  0  0  0  0  0  0  0  0  0  0  0
    2.6317    0.3702   -1.2603 C   0  0  0  0  0  0  0  0  0  0  0  0
    1.7302   -0.4404   -0.4001 N   0  0  0  0  0  0  0  0  0  0  0  0
    0.6797    0.3757    0.2444 C   0  0  0  0  0  0  0  0  0  0  0  0
   -0.4868    0.6018   -0.7238 C   0  0  0  0  0  0  0  0  0  0  0  0
   -1.6216    1.3056   -0.0265 C   0  0  0  0  0  0  0  0  0  0  0  0
   -2.8593    0.7994    0.1531 C   0  0  0  0  0  0  0  0  0  0  0  0
   -3.9496    1.6599    0.6782 C   0  0  0  0  0  0  0  0  0  0  0  0
   -3.7623    2.4754    1.8078 C   0  0  0  0  0  0  0  0  0  0  0  0
   -4.8495    3.1463    2.3766 C   0  0  0  0  0  0  0  0  0  0  0  0
   -6.1298    2.9955    1.8356 C   0  0  0  0  0  0  0  0  0  0  0  0
   -6.3258    2.1874    0.7122 C   0  0  0  0  0  0  0  0  0  0  0  0
   -5.2387    1.5331    0.1232 C   0  0  0  0  0  0  0  0  0  0  0  0
   -5.4638    0.5973   -1.3983 S   0  0  0  0  0  0  0  0  0  0  0  0
   -4.5096   -0.8063   -0.8023 C   0  0  0  0  0  0  0  0  0  0  0  0
   -5.0086   -2.1041   -0.9551 C   0  0  0  0  0  0  0  0  0  0  0  0
   -4.2582   -3.1984   -0.5185 C   0  0  0  0  0  0  0  0  0  0  0  0
   -3.0184   -2.9978    0.0961 C   0  0  0  0  0  0  0  0  0  0  0  0
   -2.0954   -4.3714    0.6776 Cl  0  0  0  0  0  0  0  0  0  0  0  0
   -2.5284   -1.7001    0.2777 C   0  0  0  0  0  0  0  0  0  0  0  0
   -3.2538   -0.5930   -0.1978 C   0  0  0  0  0  0  0  0  0  0  0  0
    2.4519   -1.2610    0.5993 C   0  0  0  0  0  0  0  0  0  0  0  0
    3.8136   -1.7114    0.0623 C   0  0  0  0  0  0  0  0  0  0  0  0
    7.9238   -0.0883   -2.5251 H   0  0  0  0  0  0  0  0  0  0  0  0
    7.3485   -0.2559    0.2571 H   0  0  0  0  0  0  0  0  0  0  0  0
    6.8571    1.0073   -0.9210 H   0  0  0  0  0  0  0  0  0  0  0  0
    5.4770   -0.7452   -2.1619 H   0  0  0  0  0  0  0  0  0  0  0  0
    6.0729   -1.9760   -0.9992 H   0  0  0  0  0  0  0  0  0  0  0  0
    3.7850    1.2917    0.3251 H   0  0  0  0  0  0  0  0  0  0  0  0
    4.5839    1.3136   -1.2631 H   0  0  0  0  0  0  0  0  0  0  0  0
    2.8283   -0.1969   -2.1953 H   0  0  0  0  0  0  0  0  0  0  0  0
    2.1617    1.3286   -1.5718 H   0  0  0  0  0  0  0  0  0  0  0  0
    0.2775   -0.1465    1.1424 H   0  0  0  0  0  0  0  0  0  0  0  0
    1.0907    1.3511    0.5917 H   0  0  0  0  0  0  0  0  0  0  0  0
   -0.7966   -0.3635   -1.1720 H   0  0  0  0  0  0  0  0  0  0  0  0
   -0.1571    1.2458   -1.5653 H   0  0  0  0  0  0  0  0  0  0  0  0
   -1.4289    2.3311    0.2668 H   0  0  0  0  0  0  0  0  0  0  0  0
   -2.7878    2.5618    2.2716 H   0  0  0  0  0  0  0  0  0  0  0  0
   -4.7029    3.7682    3.2503 H   0  0  0  0  0  0  0  0  0  0  0  0
   -6.9698    3.5096    2.2844 H   0  0  0  0  0  0  0  0  0  0  0  0
   -7.3163    2.0915    0.2861 H   0  0  0  0  0  0  0  0  0  0  0  0
   -5.9710   -2.2665   -1.4234 H   0  0  0  0  0  0  0  0  0  0  0  0
   -4.6457   -4.2008   -0.6484 H   0  0  0  0  0  0  0  0  0  0  0  0
   -1.6048   -1.5584    0.8215 H   0  0  0  0  0  0  0  0  0  0  0  0
    1.8422   -2.1594    0.8372 H   0  0  0  0  0  0  0  0  0  0  0  0
    2.6160   -0.6928    1.5440 H   0  0  0  0  0  0  0  0  0  0  0  0
    4.2876   -2.3895    0.8043 H   0  0  0  0  0  0  0  0  0  0  0  0
    3.6488   -2.2871   -0.8779 H   0  0  0  0  0  0  0  0  0  0  0  0
  1  2  1  0
  2  3  1  0
  3  4  1  0
  4  5  1  0
  5  6  1  0
  6  7  1  0
  7  8  1  0
  8  9  1  0
  9 10  1  0
 10 11  2  3
 11 12  1  0
 12 13  2  0
 13 14  1  0
 14 15  2  0
 15 16  1  0
 16 17  2  0
 17 12  1  0
 17 18  1  0
 18 19  1  0
 19 20  2  0
 20 21  1  0
 21 22  2  0
 22 23  1  0
 22 24  1  0
 24 25  2  0
 25 11  1  0
 25 19  1  0
  7 26  1  0
 26 27  1  0
 27  4  1  0
  1 28  1  0
  2 29  1  0
  2 30  1  0
  3 31  1  0
  3 32  1  0
  5 33  1  0
  5 34  1  0
  6 35  1  0
  6 36  1  0
  8 37  1  0
  8 38  1  0
  9 39  1  0
  9 40  1  0
 10 41  1  0
 13 42  1  0
 14 43  1  0
 15 44  1  0
 16 45  1  0
 20 46  1  0
 21 47  1  0
 24 48  1  0
 26 49  1  0
 26 50  1  0
 27 51  1  0
 27 52  1  0
M  END
> <ID>
HT2224

> <Class>
0.0

> <Clusters>
240

> <Fold>
5

$$$$