
     RDKit          3D

 61 63  0  0  0  0  0  0  0  0999 V2000
   -2.6138    3.5343    0.5738 C   0  0  0  0  0  0  0  0  0  0  0  0
   -3.5612    2.3162    0.6270 C   0  0  0  0  0  0  0  0  0  0  0  0
   -5.0204    2.8084    0.5912 C   0  0  0  0  0  0  0  0  0  0  0  0
   -3.3112    1.5438    1.9359 C   0  0  0  0  0  0  0  0  0  0  0  0
   -3.3246    1.3865   -0.5475 C   0  0  0  0  0  0  0  0  0  0  0  0
   -2.4555    1.6578   -1.4230 O   0  0  0  0  0  0  0  0  0  0  0  0
   -4.0834    0.2150   -0.6546 O   0  0  0  0  0  0  0  0  0  0  0  0
   -3.8330   -0.7793   -1.6424 C   0  0  0  0  0  0  0  0  0  0  0  0
   -2.5958   -1.4355   -1.3804 O   0  0  0  0  0  0  0  0  0  0  0  0
   -2.3804   -2.2228   -0.2426 C   0  0  0  0  0  0  0  0  0  0  0  0
   -3.2715   -2.3211    0.6458 O   0  0  0  0  0  0  0  0  0  0  0  0
   -1.0914   -2.9924   -0.0920 C   0  0  0  0  0  0  0  0  0  0  0  0
    0.0369   -2.0959   -0.2189 N   0  0  0  0  0  0  0  0  0  0  0  0
    1.0547   -2.2782   -1.2110 C   0  0  0  0  0  0  0  0  0  0  0  0
    0.2482   -3.2902   -2.4901 S   0  0  0  0  0  0  0  0  0  0  0  0
   -0.8521   -4.0627   -1.2123 C   0  0  0  0  0  0  0  0  0  0  0  0
   -2.1410   -4.5695   -1.8905 C   0  0  0  0  0  0  0  0  0  0  0  0
   -0.1069   -5.2737   -0.6177 C   0  0  0  0  0  0  0  0  0  0  0  0
    1.1741   -0.8684   -1.4798 C   0  0  0  0  0  0  0  0  0  0  0  0
    2.5154   -0.3253   -1.2175 N   0  0  0  0  0  0  0  0  0  0  0  0
    3.2132   -0.3962    0.0439 C   0  0  0  0  0  0  0  0  0  0  0  0
    2.6636   -0.9399    1.0420 O   0  0  0  0  0  0  0  0  0  0  0  0
    4.5858    0.2149    0.2301 C   0  0  0  0  0  0  0  0  0  0  0  0
    5.4749   -0.0255   -0.9117 N   0  0  0  0  0  0  0  0  0  0  0  0
    4.4850    1.6950    0.5482 C   0  0  0  0  0  0  0  0  0  0  0  0
    3.9767    2.6148   -0.3916 C   0  0  0  0  0  0  0  0  0  0  0  0
    3.8867    3.9746   -0.0768 C   0  0  0  0  0  0  0  0  0  0  0  0
    4.2963    4.4327    1.1768 C   0  0  0  0  0  0  0  0  0  0  0  0
    4.7947    3.5311    2.1202 C   0  0  0  0  0  0  0  0  0  0  0  0
    4.8891    2.1703    1.8102 C   0  0  0  0  0  0  0  0  0  0  0  0
    0.2076   -0.6284   -0.3641 C   0  0  0  0  0  0  0  0  0  0  0  0
   -0.2914    0.3878    0.1838 O   0  0  0  0  0  0  0  0  0  0  0  0
   -2.7811    4.1201   -0.3553 H   0  0  0  0  0  0  0  0  0  0  0  0
   -1.5514    3.2061    0.5950 H   0  0  0  0  0  0  0  0  0  0  0  0
   -2.7856    4.2064    1.4437 H   0  0  0  0  0  0  0  0  0  0  0  0
   -5.2298    3.3418   -0.3610 H   0  0  0  0  0  0  0  0  0  0  0  0
   -5.7282    1.9554    0.6747 H   0  0  0  0  0  0  0  0  0  0  0  0
   -5.2189    3.5042    1.4349 H   0  0  0  0  0  0  0  0  0  0  0  0
   -3.4708    2.2026    2.8158 H   0  0  0  0  0  0  0  0  0  0  0  0
   -2.2679    1.1621    1.9714 H   0  0  0  0  0  0  0  0  0  0  0  0
   -4.0005    0.6766    2.0239 H   0  0  0  0  0  0  0  0  0  0  0  0
   -4.6580   -1.5216   -1.6349 H   0  0  0  0  0  0  0  0  0  0  0  0
   -3.7981   -0.3131   -2.6496 H   0  0  0  0  0  0  0  0  0  0  0  0
   -1.0675   -3.4571    0.9189 H   0  0  0  0  0  0  0  0  0  0  0  0
    1.9572   -2.7676   -0.7819 H   0  0  0  0  0  0  0  0  0  0  0  0
   -2.8562   -4.9470   -1.1292 H   0  0  0  0  0  0  0  0  0  0  0  0
   -2.6290   -3.7634   -2.4759 H   0  0  0  0  0  0  0  0  0  0  0  0
   -1.9107   -5.3948   -2.5981 H   0  0  0  0  0  0  0  0  0  0  0  0
    0.1629   -5.9982   -1.4164 H   0  0  0  0  0  0  0  0  0  0  0  0
   -0.7452   -5.7952    0.1276 H   0  0  0  0  0  0  0  0  0  0  0  0
    0.8290   -4.9538   -0.1116 H   0  0  0  0  0  0  0  0  0  0  0  0
    0.7691   -0.5481   -2.4650 H   0  0  0  0  0  0  0  0  0  0  0  0
    2.9852    0.1267   -2.0309 H   0  0  0  0  0  0  0  0  0  0  0  0
    5.0494   -0.3038    1.0998 H   0  0  0  0  0  0  0  0  0  0  0  0
    5.4550   -1.0440   -1.1491 H   0  0  0  0  0  0  0  0  0  0  0  0
    5.1613    0.5037   -1.7548 H   0  0  0  0  0  0  0  0  0  0  0  0
    3.6499    2.2882   -1.3682 H   0  0  0  0  0  0  0  0  0  0  0  0
    3.4987    4.6737   -0.8066 H   0  0  0  0  0  0  0  0  0  0  0  0
    4.2267    5.4858    1.4176 H   0  0  0  0  0  0  0  0  0  0  0  0
    5.1089    3.8873    3.0931 H   0  0  0  0  0  0  0  0  0  0  0  0
    5.2764    1.4890    2.5578 H   0  0  0  0  0  0  0  0  0  0  0  0
  1  2  1  0
  2  3  1  0
  2  4  1  0
  2  5  1  0
  5  6  2  0
  5  7  1  0
  7  8  1  0
  8  9  1  0
  9 10  1  0
 10 11  2  0
 10 12  1  0
 12 13  1  0
 13 14  1  0
 14 15  1  0
 15 16  1  0
 16 12  1  0
 16 17  1  0
 16 18  1  0
 14 19  1  0
 19 20  1  0
 20 21  1  0
 21 22  2  0
 21 23  1  0
 23 24  1  0
 23 25  1  0
 25 26  2  0
 26 27  1  0
 27 28  2  0
 28 29  1  0
 29 30  2  0
 30 25  1  0
 19 31  1  0
 31 13  1  0
 31 32  2  0
  1 33  1  0
  1 34  1  0
  1 35  1  0
  3 36  1  0
  3 37  1  0
  3 38  1  0
  4 39  1  0
  4 40  1  0
  4 41  1  0
  8 42  1  0
  8 43  1  0
 12 44  1  0
 14 45  1  0
 17 46  1  0
 17 47  1  0
 17 48  1  0
 18 49  1  0
 18 50  1  0
 18 51  1  0
 19 52  1  0
 20 53  1  0
 23 54  1  0
 24 55  1  0
 24 56  1  0
 26 57  1  0
 27 58  1  0
 28 59  1  0
 29 60  1  0
 30 61  1  0
M  END
> <ID>
HT1699

> <Class>
0.0

> <Clusters>
18

> <Fold>
5

$$$$