
     RDKit          3D

 21 21  0  0  0  0  0  0  0  0999 V2000
    2.4972   -1.0342   -0.0467 C   0  0  0  0  0  0  0  0  0  0  0  0
    1.1157   -0.4106    0.0926 C   0  0  0  0  0  0  0  0  0  0  0  0
    0.1387   -1.4014   -0.1668 O   0  0  0  0  0  0  0  0  0  0  0  0
   -1.0976   -0.8190   -0.5448 C   0  0  0  0  0  0  0  0  0  0  0  0
   -2.2309   -1.6673    0.0152 C   0  0  0  0  0  0  0  0  0  0  0  0
   -1.2338    0.5009   -0.0576 O   0  0  0  0  0  0  0  0  0  0  0  0
   -0.2467    1.3168   -0.6654 C   0  0  0  0  0  0  0  0  0  0  0  0
   -0.0722    2.5922    0.1523 C   0  0  0  0  0  0  0  0  0  0  0  0
    1.0093    0.6694   -0.8137 O   0  0  0  0  0  0  0  0  0  0  0  0
    2.6067   -1.8776    0.6678 H   0  0  0  0  0  0  0  0  0  0  0  0
    3.2789   -0.2763    0.1730 H   0  0  0  0  0  0  0  0  0  0  0  0
    2.6427   -1.4148   -1.0803 H   0  0  0  0  0  0  0  0  0  0  0  0
    1.0157   -0.0532    1.1445 H   0  0  0  0  0  0  0  0  0  0  0  0
   -1.1861   -0.8369   -1.6568 H   0  0  0  0  0  0  0  0  0  0  0  0
   -3.2101   -1.2431   -0.2929 H   0  0  0  0  0  0  0  0  0  0  0  0
   -2.1542   -2.7060   -0.3709 H   0  0  0  0  0  0  0  0  0  0  0  0
   -2.1791   -1.6894    1.1248 H   0  0  0  0  0  0  0  0  0  0  0  0
   -0.6046    1.6137   -1.6762 H   0  0  0  0  0  0  0  0  0  0  0  0
   -1.0387    3.1358    0.2163 H   0  0  0  0  0  0  0  0  0  0  0  0
    0.2714    2.3480    1.1797 H   0  0  0  0  0  0  0  0  0  0  0  0
    0.6777    3.2531   -0.3318 H   0  0  0  0  0  0  0  0  0  0  0  0
  1  2  1  0
  2  3  1  0
  3  4  1  0
  4  5  1  0
  4  6  1  0
  6  7  1  0
  7  8  1  0
  7  9  1  0
  9  2  1  0
  1 10  1  0
  1 11  1  0
  1 12  1  0
  2 13  1  0
  4 14  1  0
  5 15  1  0
  5 16  1  0
  5 17  1  0
  7 18  1  0
  8 19  1  0
  8 20  1  0
  8 21  1  0
M  END
> <ID>
HT2550

> <Class>
0.0

> <Clusters>
119

> <Fold>
5

$$$$