
     RDKit          3D

 59 61  0  0  0  0  0  0  0  0999 V2000
   -8.1018    0.6114    1.9111 C   0  0  0  0  0  0  0  0  0  0  0  0
   -7.1407    1.5342    1.1732 C   0  0  0  0  0  0  0  0  0  0  0  0
   -6.7758    0.9837   -0.0887 O   0  0  0  0  0  0  0  0  0  0  0  0
   -5.8705   -0.0720   -0.2358 C   0  0  0  0  0  0  0  0  0  0  0  0
   -5.3379   -0.6065    0.7776 O   0  0  0  0  0  0  0  0  0  0  0  0
   -5.5568   -0.5211   -1.5243 O   0  0  0  0  0  0  0  0  0  0  0  0
   -4.5434   -1.4901   -1.7801 C   0  0  0  0  0  0  0  0  0  0  0  0
   -4.6666   -1.9717   -3.2180 C   0  0  0  0  0  0  0  0  0  0  0  0
   -3.2601   -0.8888   -1.6004 O   0  0  0  0  0  0  0  0  0  0  0  0
   -2.3459   -1.2590   -0.6087 C   0  0  0  0  0  0  0  0  0  0  0  0
   -2.6444   -2.1291    0.2541 O   0  0  0  0  0  0  0  0  0  0  0  0
   -1.0107   -0.5666   -0.5627 C   0  0  2  0  0  0  0  0  0  0  0  0
   -0.0557   -1.3047    0.2270 N   0  0  0  0  0  0  0  0  0  0  0  0
    0.7208   -0.6980    1.2656 C   0  0  2  0  0  0  0  0  0  0  0  0
    0.6085    1.0933    0.9162 S   0  0  0  0  0  0  0  0  0  0  0  0
   -1.0206    0.8633    0.0633 C   0  0  0  0  0  0  0  0  0  0  0  0
   -2.1253    1.0496    1.1243 C   0  0  0  0  0  0  0  0  0  0  0  0
   -1.1685    1.9378   -1.0250 C   0  0  0  0  0  0  0  0  0  0  0  0
    1.9270   -1.4125    0.9088 C   0  0  2  0  0  0  0  0  0  0  0  0
    2.9678   -0.5826    0.2952 N   0  0  0  0  0  0  0  0  0  0  0  0
    3.8640    0.2121    1.0899 C   0  0  0  0  0  0  0  0  0  0  0  0
    3.8181    0.1368    2.3492 O   0  0  0  0  0  0  0  0  0  0  0  0
    4.8998    1.1085    0.4530 C   0  0  2  0  0  0  0  0  0  0  0  0
    4.4443    1.6119   -0.8470 N   0  0  0  0  0  0  0  0  0  0  0  0
    6.2388    0.4032    0.3339 C   0  0  0  0  0  0  0  0  0  0  0  0
    7.3969    1.0009    0.8582 C   0  0  0  0  0  0  0  0  0  0  0  0
    8.6387    0.3655    0.7440 C   0  0  0  0  0  0  0  0  0  0  0  0
    8.7373   -0.8715    0.1099 C   0  0  0  0  0  0  0  0  0  0  0  0
    7.5928   -1.4790   -0.4113 C   0  0  0  0  0  0  0  0  0  0  0  0
    6.3482   -0.8466   -0.3078 C   0  0  0  0  0  0  0  0  0  0  0  0
    1.1180   -2.1389   -0.1219 C   0  0  0  0  0  0  0  0  0  0  0  0
    1.3545   -3.0333   -0.9761 O   0  0  0  0  0  0  0  0  0  0  0  0
   -8.3927    1.0713    2.8776 H   0  0  0  0  0  0  0  0  0  0  0  0
   -9.0127    0.4516    1.2999 H   0  0  0  0  0  0  0  0  0  0  0  0
   -7.6249   -0.3691    2.1175 H   0  0  0  0  0  0  0  0  0  0  0  0
   -6.2333    1.7224    1.7883 H   0  0  0  0  0  0  0  0  0  0  0  0
   -7.6464    2.5062    1.0004 H   0  0  0  0  0  0  0  0  0  0  0  0
   -4.6873   -2.3673   -1.1100 H   0  0  0  0  0  0  0  0  0  0  0  0
   -4.5426   -1.1188   -3.9179 H   0  0  0  0  0  0  0  0  0  0  0  0
   -3.8849   -2.7306   -3.4302 H   0  0  0  0  0  0  0  0  0  0  0  0
   -5.6650   -2.4317   -3.3796 H   0  0  0  0  0  0  0  0  0  0  0  0
   -0.6220   -0.5257   -1.6054 H   0  0  0  0  0  0  0  0  0  0  0  0
    0.3240   -0.9677    2.2688 H   0  0  0  0  0  0  0  0  0  0  0  0
   -2.0085    2.0301    1.6356 H   0  0  0  0  0  0  0  0  0  0  0  0
   -3.1327    1.0277    0.6571 H   0  0  0  0  0  0  0  0  0  0  0  0
   -2.0668    0.2508    1.8939 H   0  0  0  0  0  0  0  0  0  0  0  0
   -1.1465    2.9527   -0.5720 H   0  0  0  0  0  0  0  0  0  0  0  0
   -0.3363    1.8682   -1.7586 H   0  0  0  0  0  0  0  0  0  0  0  0
   -2.1316    1.8133   -1.5671 H   0  0  0  0  0  0  0  0  0  0  0  0
    2.3175   -2.0939    1.6954 H   0  0  0  0  0  0  0  0  0  0  0  0
    3.0786   -0.6034   -0.7460 H   0  0  0  0  0  0  0  0  0  0  0  0
    5.0100    1.9889    1.1268 H   0  0  0  0  0  0  0  0  0  0  0  0
    5.0481    2.4255   -1.1080 H   0  0  0  0  0  0  0  0  0  0  0  0
    4.5892    0.8849   -1.5880 H   0  0  0  0  0  0  0  0  0  0  0  0
    7.3438    1.9625    1.3511 H   0  0  0  0  0  0  0  0  0  0  0  0
    9.5262    0.8354    1.1445 H   0  0  0  0  0  0  0  0  0  0  0  0
    9.6988   -1.3624    0.0222 H   0  0  0  0  0  0  0  0  0  0  0  0
    7.6720   -2.4360   -0.9085 H   0  0  0  0  0  0  0  0  0  0  0  0
    5.4755   -1.3289   -0.7347 H   0  0  0  0  0  0  0  0  0  0  0  0
  1  2  1  0
  2  3  1  0
  3  4  1  0
  4  5  2  0
  4  6  1  0
  6  7  1  0
  7  8  1  0
  7  9  1  0
  9 10  1  0
 10 11  2  0
 12 10  1  0
 12 13  1  0
 13 14  1  0
 14 15  1  0
 15 16  1  0
 16 12  1  0
 16 17  1  0
 16 18  1  0
 14 19  1  0
 19 20  1  0
 20 21  1  0
 21 22  2  0
 21 23  1  0
 23 24  1  0
 23 25  1  0
 25 26  2  0
 26 27  1  0
 27 28  2  0
 28 29  1  0
 29 30  2  0
 30 25  1  0
 19 31  1  0
 31 13  1  0
 31 32  2  0
  1 33  1  0
  1 34  1  0
  1 35  1  0
  2 36  1  0
  2 37  1  0
  7 38  1  0
  8 39  1  0
  8 40  1  0
  8 41  1  0
 12 42  1  6
 14 43  1  1
 17 44  1  0
 17 45  1  0
 17 46  1  0
 18 47  1  0
 18 48  1  0
 18 49  1  0
 19 50  1  1
 20 51  1  0
 23 52  1  1
 24 53  1  0
 24 54  1  0
 26 55  1  0
 27 56  1  0
 28 57  1  0
 29 58  1  0
 30 59  1  0
M  END
> <ID>
HT0221

> <Class>
0.0

> <Clusters>
18

> <Fold>
5

$$$$