
     RDKit          3D

 43 45  0  0  0  0  0  0  0  0999 V2000
   -3.4591   -3.2864   -1.0889 C   0  0  0  0  0  0  0  0  0  0  0  0
   -2.6569   -2.1197   -0.5935 C   0  0  0  0  0  0  0  0  0  0  0  0
   -2.6283   -1.7941    0.7719 C   0  0  0  0  0  0  0  0  0  0  0  0
   -1.8753   -0.7051    1.2204 C   0  0  0  0  0  0  0  0  0  0  0  0
   -1.1328    0.0631    0.3107 C   0  0  0  0  0  0  0  0  0  0  0  0
   -1.1761   -0.2509   -1.0555 C   0  0  0  0  0  0  0  0  0  0  0  0
   -1.9284   -1.3400   -1.5038 C   0  0  0  0  0  0  0  0  0  0  0  0
   -0.3505    1.2313    0.7772 C   0  0  0  0  0  0  0  0  0  0  0  0
    0.7735    1.0717    1.5092 C   0  0  0  0  0  0  0  0  0  0  0  0
    1.4056   -0.2555    1.8468 C   0  0  0  0  0  0  0  0  0  0  0  0
    2.6016   -0.4709    1.0118 N   0  0  0  0  0  0  0  0  0  0  0  0
    3.4205   -1.5781    1.5130 C   0  0  0  0  0  0  0  0  0  0  0  0
    4.1835   -2.1368    0.3200 C   0  0  0  0  0  0  0  0  0  0  0  0
    3.4589   -1.6090   -0.9081 C   0  0  0  0  0  0  0  0  0  0  0  0
    2.2659   -0.8410   -0.3665 C   0  0  0  0  0  0  0  0  0  0  0  0
   -0.8040    2.6019    0.4014 C   0  0  0  0  0  0  0  0  0  0  0  0
   -2.1188    2.8415   -0.0433 C   0  0  0  0  0  0  0  0  0  0  0  0
   -2.5043    4.1373   -0.3922 C   0  0  0  0  0  0  0  0  0  0  0  0
   -1.5891    5.1851   -0.2976 C   0  0  0  0  0  0  0  0  0  0  0  0
   -0.2945    4.9201    0.1488 C   0  0  0  0  0  0  0  0  0  0  0  0
    0.0637    3.6521    0.4835 N   0  0  0  0  0  0  0  0  0  0  0  0
   -2.7876   -4.0138   -1.5916 H   0  0  0  0  0  0  0  0  0  0  0  0
   -4.2209   -2.9335   -1.8155 H   0  0  0  0  0  0  0  0  0  0  0  0
   -3.9804   -3.8057   -0.2567 H   0  0  0  0  0  0  0  0  0  0  0  0
   -3.1891   -2.3797    1.4897 H   0  0  0  0  0  0  0  0  0  0  0  0
   -1.8674   -0.4608    2.2756 H   0  0  0  0  0  0  0  0  0  0  0  0
   -0.6202    0.3432   -1.7704 H   0  0  0  0  0  0  0  0  0  0  0  0
   -1.9447   -1.5755   -2.5609 H   0  0  0  0  0  0  0  0  0  0  0  0
    1.3291    1.9448    1.8295 H   0  0  0  0  0  0  0  0  0  0  0  0
    0.6997   -1.1091    1.7681 H   0  0  0  0  0  0  0  0  0  0  0  0
    1.7088   -0.2017    2.9157 H   0  0  0  0  0  0  0  0  0  0  0  0
    2.7882   -2.3864    1.9500 H   0  0  0  0  0  0  0  0  0  0  0  0
    4.1237   -1.2082    2.2900 H   0  0  0  0  0  0  0  0  0  0  0  0
    5.2350   -1.7742    0.3302 H   0  0  0  0  0  0  0  0  0  0  0  0
    4.1814   -3.2487    0.3371 H   0  0  0  0  0  0  0  0  0  0  0  0
    4.1246   -0.9238   -1.4779 H   0  0  0  0  0  0  0  0  0  0  0  0
    3.1312   -2.4382   -1.5727 H   0  0  0  0  0  0  0  0  0  0  0  0
    2.0762    0.0702   -0.9739 H   0  0  0  0  0  0  0  0  0  0  0  0
    1.3697   -1.5020   -0.4048 H   0  0  0  0  0  0  0  0  0  0  0  0
   -2.8457    2.0426   -0.1124 H   0  0  0  0  0  0  0  0  0  0  0  0
   -3.5134    4.3291   -0.7335 H   0  0  0  0  0  0  0  0  0  0  0  0
   -1.8804    6.1925   -0.5656 H   0  0  0  0  0  0  0  0  0  0  0  0
    0.4270    5.7221    0.2292 H   0  0  0  0  0  0  0  0  0  0  0  0
  1  2  1  0
  2  3  2  0
  3  4  1  0
  4  5  2  0
  5  6  1  0
  6  7  2  0
  7  2  1  0
  5  8  1  0
  8  9  2  0
  9 10  1  0
 10 11  1  0
 11 12  1  0
 12 13  1  0
 13 14  1  0
 14 15  1  0
 15 11  1  0
  8 16  1  0
 16 17  2  0
 17 18  1  0
 18 19  2  0
 19 20  1  0
 20 21  2  0
 21 16  1  0
  1 22  1  0
  1 23  1  0
  1 24  1  0
  3 25  1  0
  4 26  1  0
  6 27  1  0
  7 28  1  0
  9 29  1  0
 10 30  1  0
 10 31  1  0
 12 32  1  0
 12 33  1  0
 13 34  1  0
 13 35  1  0
 14 36  1  0
 14 37  1  0
 15 38  1  0
 15 39  1  0
 17 40  1  0
 18 41  1  0
 19 42  1  0
 20 43  1  0
M  END
> <ID>
HT2133

> <Class>
0.0

> <Clusters>
236

> <Fold>
5

$$$$