
     RDKit          3D

 45 47  0  0  0  0  0  0  0  0999 V2000
    4.6239    0.6291   -1.0098 C   0  0  0  0  0  0  0  0  0  0  0  0
    3.4920   -0.3529   -0.8637 C   0  0  0  0  0  0  0  0  0  0  0  0
    2.2446    0.0788   -0.6127 C   0  0  0  0  0  0  0  0  0  0  0  0
    1.1015   -0.8718   -0.4724 C   0  0  0  0  0  0  0  0  0  0  0  0
   -0.1593   -0.4301   -0.2094 C   0  0  0  0  0  0  0  0  0  0  0  0
   -1.3350   -1.3331   -0.2677 C   0  0  0  0  0  0  0  0  0  0  0  0
   -1.6771   -1.9825   -1.4655 C   0  0  0  0  0  0  0  0  0  0  0  0
   -2.8062   -2.8044   -1.5243 C   0  0  0  0  0  0  0  0  0  0  0  0
   -3.6137   -2.9768   -0.3915 C   0  0  0  0  0  0  0  0  0  0  0  0
   -4.7691   -3.8170   -0.4524 N   0  0  0  0  0  0  0  0  0  0  0  0
   -3.2839   -2.3159    0.8000 C   0  0  0  0  0  0  0  0  0  0  0  0
   -2.1547   -1.4939    0.8602 C   0  0  0  0  0  0  0  0  0  0  0  0
   -0.4358    0.9812    0.1558 C   0  0  0  0  0  0  0  0  0  0  0  0
   -1.3240    1.7426   -0.6135 C   0  0  0  0  0  0  0  0  0  0  0  0
   -1.6121    3.0606   -0.2576 C   0  0  0  0  0  0  0  0  0  0  0  0
   -1.0277    3.6391    0.8789 C   0  0  0  0  0  0  0  0  0  0  0  0
   -1.3484    4.9975    1.2100 N   0  0  0  0  0  0  0  0  0  0  0  0
   -0.1421    2.8722    1.6728 C   0  0  0  0  0  0  0  0  0  0  0  0
    0.5019    3.4474    2.9053 C   0  0  0  0  0  0  0  0  0  0  0  0
    0.1388    1.5449    1.3053 C   0  0  0  0  0  0  0  0  0  0  0  0
    1.3954   -2.3251   -0.6290 C   0  0  0  0  0  0  0  0  0  0  0  0
    2.6330   -2.7568   -0.8777 C   0  0  0  0  0  0  0  0  0  0  0  0
    3.7514   -1.8044   -1.0080 C   0  0  0  0  0  0  0  0  0  0  0  0
    4.9508   -2.2339   -1.2472 N   0  0  0  0  0  0  0  0  0  0  0  0
    5.4013    0.4153   -0.2465 H   0  0  0  0  0  0  0  0  0  0  0  0
    4.2877    1.6801   -0.8782 H   0  0  0  0  0  0  0  0  0  0  0  0
    5.0722    0.5311   -2.0207 H   0  0  0  0  0  0  0  0  0  0  0  0
    2.0694    1.1447   -0.5447 H   0  0  0  0  0  0  0  0  0  0  0  0
   -1.0705   -1.8485   -2.3529 H   0  0  0  0  0  0  0  0  0  0  0  0
   -3.0542   -3.3028   -2.4530 H   0  0  0  0  0  0  0  0  0  0  0  0
   -5.0241   -4.3121   -1.3360 H   0  0  0  0  0  0  0  0  0  0  0  0
   -5.3777   -3.9508    0.3858 H   0  0  0  0  0  0  0  0  0  0  0  0
   -3.9026   -2.4359    1.6804 H   0  0  0  0  0  0  0  0  0  0  0  0
   -1.9154   -0.9874    1.7873 H   0  0  0  0  0  0  0  0  0  0  0  0
   -1.7888    1.3167   -1.4944 H   0  0  0  0  0  0  0  0  0  0  0  0
   -2.2960    3.6345   -0.8704 H   0  0  0  0  0  0  0  0  0  0  0  0
   -0.9444    5.4777    2.0433 H   0  0  0  0  0  0  0  0  0  0  0  0
   -2.0054    5.5470    0.6121 H   0  0  0  0  0  0  0  0  0  0  0  0
   -0.2811    3.7513    3.6314 H   0  0  0  0  0  0  0  0  0  0  0  0
    1.1173    4.3297    2.6306 H   0  0  0  0  0  0  0  0  0  0  0  0
    1.1653    2.7099    3.4051 H   0  0  0  0  0  0  0  0  0  0  0  0
    0.8049    0.9436    1.9133 H   0  0  0  0  0  0  0  0  0  0  0  0
    0.6176   -3.0677   -0.5099 H   0  0  0  0  0  0  0  0  0  0  0  0
    2.8152   -3.8205   -0.9733 H   0  0  0  0  0  0  0  0  0  0  0  0
    5.1655   -3.2509   -1.3543 H   0  0  0  0  0  0  0  0  0  0  0  0
  1  2  1  0
  2  3  2  0
  3  4  1  0
  4  5  2  3
  5  6  1  0
  6  7  2  0
  7  8  1  0
  8  9  2  0
  9 10  1  0
  9 11  1  0
 11 12  2  0
 12  6  1  0
  5 13  1  0
 13 14  2  0
 14 15  1  0
 15 16  2  0
 16 17  1  0
 16 18  1  0
 18 19  1  0
 18 20  2  0
 20 13  1  0
  4 21  1  0
 21 22  2  0
 22 23  1  0
 23  2  1  0
 23 24  2  3
  1 25  1  0
  1 26  1  0
  1 27  1  0
  3 28  1  0
  7 29  1  0
  8 30  1  0
 10 31  1  0
 10 32  1  0
 11 33  1  0
 12 34  1  0
 14 35  1  0
 15 36  1  0
 17 37  1  0
 17 38  1  0
 19 39  1  0
 19 40  1  0
 19 41  1  0
 20 42  1  0
 21 43  1  0
 22 44  1  0
 24 45  1  0
M  END
> <ID>
HT3442

> <Class>
0.0

> <Clusters>
266

> <Fold>
5

$$$$