
     RDKit          3D

 59 60  0  0  0  0  0  0  0  0999 V2000
   -5.5864    1.6148    1.0601 C   0  0  0  0  0  0  0  0  0  0  0  0
   -5.4381    0.2231    0.4148 C   0  0  0  0  0  0  0  0  0  0  0  0
   -4.2741    0.0604   -0.5212 N   0  0  0  0  0  0  0  0  0  0  0  0
   -4.3232    1.1280   -1.5591 C   0  0  0  0  0  0  0  0  0  0  0  0
   -4.4142   -1.2538   -1.2342 C   0  0  0  0  0  0  0  0  0  0  0  0
   -4.3736   -2.5026   -0.3339 C   0  0  0  0  0  0  0  0  0  0  0  0
   -2.9892    0.1588    0.2496 C   0  0  0  0  0  0  0  0  0  0  0  0
   -1.7126   -0.1799   -0.5445 C   0  0  0  0  0  0  0  0  0  0  0  0
   -0.5762    0.0788    0.2733 O   0  0  0  0  0  0  0  0  0  0  0  0
    0.7367   -0.1165   -0.1691 C   0  0  0  0  0  0  0  0  0  0  0  0
    0.9459   -0.5098   -1.3497 O   0  0  0  0  0  0  0  0  0  0  0  0
    1.8971    0.2248    0.7620 C   0  0  0  0  0  0  0  0  0  0  0  0
    1.4332    0.0723    2.0877 O   0  0  0  0  0  0  0  0  0  0  0  0
    3.1119   -0.7583    0.5966 C   0  0  0  0  0  0  0  0  0  0  0  0
    3.9355   -0.5607   -0.7042 C   0  0  0  0  0  0  0  0  0  0  0  0
    5.1528   -1.4947   -0.7290 C   0  0  0  0  0  0  0  0  0  0  0  0
    4.7281   -2.9597   -0.5765 C   0  0  0  0  0  0  0  0  0  0  0  0
    3.9205   -3.1665    0.7097 C   0  0  0  0  0  0  0  0  0  0  0  0
    2.6962   -2.2429    0.7459 C   0  0  0  0  0  0  0  0  0  0  0  0
    2.3736    1.6767    0.5760 C   0  0  0  0  0  0  0  0  0  0  0  0
    2.0462    2.4493   -0.5625 C   0  0  0  0  0  0  0  0  0  0  0  0
    2.5218    3.7571   -0.6965 C   0  0  0  0  0  0  0  0  0  0  0  0
    3.3325    4.3149    0.2925 C   0  0  0  0  0  0  0  0  0  0  0  0
    3.6741    3.5649    1.4179 C   0  0  0  0  0  0  0  0  0  0  0  0
    3.2031    2.2569    1.5587 C   0  0  0  0  0  0  0  0  0  0  0  0
   -4.6964    1.8882    1.6603 H   0  0  0  0  0  0  0  0  0  0  0  0
   -5.7905    2.3974    0.3013 H   0  0  0  0  0  0  0  0  0  0  0  0
   -6.4555    1.5972    1.7514 H   0  0  0  0  0  0  0  0  0  0  0  0
   -5.3673   -0.5041    1.2530 H   0  0  0  0  0  0  0  0  0  0  0  0
   -6.3941    0.0052   -0.1142 H   0  0  0  0  0  0  0  0  0  0  0  0
   -3.6421    0.9110   -2.4106 H   0  0  0  0  0  0  0  0  0  0  0  0
   -5.3471    1.2256   -1.9852 H   0  0  0  0  0  0  0  0  0  0  0  0
   -4.0207    2.1171   -1.1508 H   0  0  0  0  0  0  0  0  0  0  0  0
   -5.3771   -1.2829   -1.7944 H   0  0  0  0  0  0  0  0  0  0  0  0
   -3.6287   -1.3704   -2.0130 H   0  0  0  0  0  0  0  0  0  0  0  0
   -4.3951   -3.4080   -0.9767 H   0  0  0  0  0  0  0  0  0  0  0  0
   -3.4478   -2.5496    0.2720 H   0  0  0  0  0  0  0  0  0  0  0  0
   -5.2612   -2.5524    0.3284 H   0  0  0  0  0  0  0  0  0  0  0  0
   -3.0191   -0.4942    1.1494 H   0  0  0  0  0  0  0  0  0  0  0  0
   -2.8514    1.1919    0.6358 H   0  0  0  0  0  0  0  0  0  0  0  0
   -1.7004   -1.2520   -0.8303 H   0  0  0  0  0  0  0  0  0  0  0  0
   -1.6430    0.4463   -1.4577 H   0  0  0  0  0  0  0  0  0  0  0  0
    0.7745    0.7922    2.2793 H   0  0  0  0  0  0  0  0  0  0  0  0
    3.8066   -0.5413    1.4406 H   0  0  0  0  0  0  0  0  0  0  0  0
    4.3067    0.4836   -0.7724 H   0  0  0  0  0  0  0  0  0  0  0  0
    3.3224   -0.7623   -1.6049 H   0  0  0  0  0  0  0  0  0  0  0  0
    5.6923   -1.3691   -1.6926 H   0  0  0  0  0  0  0  0  0  0  0  0
    5.8524   -1.2207    0.0913 H   0  0  0  0  0  0  0  0  0  0  0  0
    5.6341   -3.6027   -0.5473 H   0  0  0  0  0  0  0  0  0  0  0  0
    4.1182   -3.2661   -1.4549 H   0  0  0  0  0  0  0  0  0  0  0  0
    3.5835   -4.2241    0.7643 H   0  0  0  0  0  0  0  0  0  0  0  0
    4.5664   -2.9679    1.5934 H   0  0  0  0  0  0  0  0  0  0  0  0
    2.0022   -2.5392   -0.0697 H   0  0  0  0  0  0  0  0  0  0  0  0
    2.1693   -2.3944    1.7126 H   0  0  0  0  0  0  0  0  0  0  0  0
    1.4320    2.0528   -1.3582 H   0  0  0  0  0  0  0  0  0  0  0  0
    2.2633    4.3386   -1.5722 H   0  0  0  0  0  0  0  0  0  0  0  0
    3.6991    5.3276    0.1849 H   0  0  0  0  0  0  0  0  0  0  0  0
    4.3066    3.9967    2.1827 H   0  0  0  0  0  0  0  0  0  0  0  0
    3.4859    1.6948    2.4398 H   0  0  0  0  0  0  0  0  0  0  0  0
  1  2  1  0
  2  3  1  0
  3  4  1  0
  3  5  1  0
  5  6  1  0
  3  7  1  0
  7  8  1  0
  8  9  1  0
  9 10  1  0
 10 11  2  0
 10 12  1  0
 12 13  1  0
 12 14  1  0
 14 15  1  0
 15 16  1  0
 16 17  1  0
 17 18  1  0
 18 19  1  0
 19 14  1  0
 12 20  1  0
 20 21  2  0
 21 22  1  0
 22 23  2  0
 23 24  1  0
 24 25  2  0
 25 20  1  0
  1 26  1  0
  1 27  1  0
  1 28  1  0
  2 29  1  0
  2 30  1  0
  4 31  1  0
  4 32  1  0
  4 33  1  0
  5 34  1  0
  5 35  1  0
  6 36  1  0
  6 37  1  0
  6 38  1  0
  7 39  1  0
  7 40  1  0
  8 41  1  0
  8 42  1  0
 13 43  1  0
 14 44  1  0
 15 45  1  0
 15 46  1  0
 16 47  1  0
 16 48  1  0
 17 49  1  0
 17 50  1  0
 18 51  1  0
 18 52  1  0
 19 53  1  0
 19 54  1  0
 21 55  1  0
 22 56  1  0
 23 57  1  0
 24 58  1  0
 25 59  1  0
M  CHG  1   3   1
M  END
> <ID>
HT1574

> <Class>
0.0

> <Clusters>
187

> <Fold>
5

$$$$