
     RDKit          3D

 52 52  0  0  0  0  0  0  0  0999 V2000
   -4.2939    3.5144    0.8173 C   0  0  0  0  0  0  0  0  0  0  0  0
   -4.6956    2.2908   -0.0054 C   0  0  0  0  0  0  0  0  0  0  0  0
   -3.7610    2.0432   -1.2018 C   0  0  0  0  0  0  0  0  0  0  0  0
   -2.3276    1.6599   -0.7979 C   0  0  0  0  0  0  0  0  0  0  0  0
   -2.3235    0.4853    0.1055 N   0  0  0  0  0  0  0  0  0  0  0  0
   -2.3032   -0.7886   -0.6525 C   0  0  0  0  0  0  0  0  0  0  0  0
   -2.6373   -1.9931    0.2445 C   0  0  0  0  0  0  0  0  0  0  0  0
   -2.8610   -3.2844   -0.5595 C   0  0  0  0  0  0  0  0  0  0  0  0
   -4.2336   -3.3334   -1.2314 C   0  0  0  0  0  0  0  0  0  0  0  0
   -1.2826    0.5926    1.1581 C   0  0  0  0  0  0  0  0  0  0  0  0
    0.1608    0.4866    0.6259 C   0  0  0  0  0  0  0  0  0  0  0  0
    1.1746    0.8393    1.7190 C   0  0  0  0  0  0  0  0  0  0  0  0
    2.5067    0.7546    1.2159 O   0  0  0  0  0  0  0  0  0  0  0  0
    3.1613   -0.4567    0.9567 C   0  0  0  0  0  0  0  0  0  0  0  0
    2.6060   -1.5518    1.2490 O   0  0  0  0  0  0  0  0  0  0  0  0
    4.5104   -0.4481    0.3495 C   0  0  0  0  0  0  0  0  0  0  0  0
    5.1332    0.7691    0.0215 C   0  0  0  0  0  0  0  0  0  0  0  0
    6.4074    0.7808   -0.5540 C   0  0  0  0  0  0  0  0  0  0  0  0
    7.0782   -0.4220   -0.8105 C   0  0  0  0  0  0  0  0  0  0  0  0
    8.3814   -0.4085   -1.3991 N   0  0  0  0  0  0  0  0  0  0  0  0
    6.4631   -1.6382   -0.4864 C   0  0  0  0  0  0  0  0  0  0  0  0
    5.1889   -1.6527    0.0891 C   0  0  0  0  0  0  0  0  0  0  0  0
   -3.3336    3.3352    1.3436 H   0  0  0  0  0  0  0  0  0  0  0  0
   -5.0733    3.7167    1.5819 H   0  0  0  0  0  0  0  0  0  0  0  0
   -4.1984    4.4079    0.1645 H   0  0  0  0  0  0  0  0  0  0  0  0
   -4.7301    1.3952    0.6515 H   0  0  0  0  0  0  0  0  0  0  0  0
   -5.7236    2.4554   -0.3947 H   0  0  0  0  0  0  0  0  0  0  0  0
   -4.1964    1.2357   -1.8273 H   0  0  0  0  0  0  0  0  0  0  0  0
   -3.7253    2.9552   -1.8368 H   0  0  0  0  0  0  0  0  0  0  0  0
   -1.8573    2.5481   -0.3210 H   0  0  0  0  0  0  0  0  0  0  0  0
   -1.7327    1.4573   -1.7172 H   0  0  0  0  0  0  0  0  0  0  0  0
   -1.3266   -0.9438   -1.1583 H   0  0  0  0  0  0  0  0  0  0  0  0
   -3.0651   -0.7406   -1.4565 H   0  0  0  0  0  0  0  0  0  0  0  0
   -1.7847   -2.1776    0.9316 H   0  0  0  0  0  0  0  0  0  0  0  0
   -3.5332   -1.7690    0.8640 H   0  0  0  0  0  0  0  0  0  0  0  0
   -2.7888   -4.1485    0.1364 H   0  0  0  0  0  0  0  0  0  0  0  0
   -2.0640   -3.4040   -1.3254 H   0  0  0  0  0  0  0  0  0  0  0  0
   -4.3755   -4.3274   -1.7056 H   0  0  0  0  0  0  0  0  0  0  0  0
   -5.0391   -3.1840   -0.4813 H   0  0  0  0  0  0  0  0  0  0  0  0
   -4.3185   -2.5605   -2.0222 H   0  0  0  0  0  0  0  0  0  0  0  0
   -1.4487   -0.1822    1.9349 H   0  0  0  0  0  0  0  0  0  0  0  0
   -1.4093    1.5600    1.6930 H   0  0  0  0  0  0  0  0  0  0  0  0
    0.3559   -0.5503    0.2839 H   0  0  0  0  0  0  0  0  0  0  0  0
    0.3089    1.1767   -0.2314 H   0  0  0  0  0  0  0  0  0  0  0  0
    0.9979    1.8835    2.0545 H   0  0  0  0  0  0  0  0  0  0  0  0
    1.0558    0.1695    2.5989 H   0  0  0  0  0  0  0  0  0  0  0  0
    4.6372    1.7132    0.2082 H   0  0  0  0  0  0  0  0  0  0  0  0
    6.8717    1.7276   -0.8000 H   0  0  0  0  0  0  0  0  0  0  0  0
    8.8893   -1.3001   -1.5941 H   0  0  0  0  0  0  0  0  0  0  0  0
    8.8480    0.4932   -1.6442 H   0  0  0  0  0  0  0  0  0  0  0  0
    6.9707   -2.5749   -0.6797 H   0  0  0  0  0  0  0  0  0  0  0  0
    4.7361   -2.6066    0.3294 H   0  0  0  0  0  0  0  0  0  0  0  0
  1  2  1  0
  2  3  1  0
  3  4  1  0
  4  5  1  0
  5  6  1  0
  6  7  1  0
  7  8  1  0
  8  9  1  0
  5 10  1  0
 10 11  1  0
 11 12  1  0
 12 13  1  0
 13 14  1  0
 14 15  2  0
 14 16  1  0
 16 17  2  0
 17 18  1  0
 18 19  2  0
 19 20  1  0
 19 21  1  0
 21 22  2  0
 22 16  1  0
  1 23  1  0
  1 24  1  0
  1 25  1  0
  2 26  1  0
  2 27  1  0
  3 28  1  0
  3 29  1  0
  4 30  1  0
  4 31  1  0
  6 32  1  0
  6 33  1  0
  7 34  1  0
  7 35  1  0
  8 36  1  0
  8 37  1  0
  9 38  1  0
  9 39  1  0
  9 40  1  0
 10 41  1  0
 10 42  1  0
 11 43  1  0
 11 44  1  0
 12 45  1  0
 12 46  1  0
 17 47  1  0
 18 48  1  0
 20 49  1  0
 20 50  1  0
 21 51  1  0
 22 52  1  0
M  END
> <ID>
HT3390

> <Class>
0.0

> <Clusters>
204

> <Fold>
5

$$$$