
     RDKit          3D

 41 42  0  0  0  0  0  0  0  0999 V2000
    0.4003    0.6331   -0.3940 C   0  0  0  0  0  0  0  0  0  0  0  0
    0.8648   -0.5617    0.3545 N   0  0  0  0  0  0  0  0  0  0  0  0
    1.1774   -0.1779    1.7556 C   0  0  0  0  0  0  0  0  0  0  0  0
   -0.1785   -1.6420    0.3409 C   0  0  0  0  0  0  0  0  0  0  0  0
   -1.6109   -1.2242    0.7434 C   0  0  0  0  0  0  0  0  0  0  0  0
   -2.2743   -0.6126   -0.3615 O   0  0  0  0  0  0  0  0  0  0  0  0
   -3.5935   -0.1380   -0.3338 C   0  0  0  0  0  0  0  0  0  0  0  0
   -4.4124   -0.2443    0.8083 C   0  0  0  0  0  0  0  0  0  0  0  0
   -5.7216    0.2474    0.7826 C   0  0  0  0  0  0  0  0  0  0  0  0
   -6.2234    0.8462   -0.3758 C   0  0  0  0  0  0  0  0  0  0  0  0
   -5.4168    0.9542   -1.5114 C   0  0  0  0  0  0  0  0  0  0  0  0
   -4.1075    0.4637   -1.4896 C   0  0  0  0  0  0  0  0  0  0  0  0
    2.0867   -1.1337   -0.3015 C   0  0  0  0  0  0  0  0  0  0  0  0
    3.2929   -0.2103   -0.3452 C   0  0  0  0  0  0  0  0  0  0  0  0
    3.5197    0.6123   -1.4634 C   0  0  0  0  0  0  0  0  0  0  0  0
    4.6533    1.4284   -1.5224 C   0  0  0  0  0  0  0  0  0  0  0  0
    5.5809    1.4156   -0.4777 C   0  0  0  0  0  0  0  0  0  0  0  0
    5.3805    0.5801    0.6239 C   0  0  0  0  0  0  0  0  0  0  0  0
    4.2482   -0.2376    0.6869 C   0  0  0  0  0  0  0  0  0  0  0  0
   -0.4790    1.1038    0.0954 H   0  0  0  0  0  0  0  0  0  0  0  0
    1.1779    1.4250   -0.4208 H   0  0  0  0  0  0  0  0  0  0  0  0
    0.1298    0.3676   -1.4400 H   0  0  0  0  0  0  0  0  0  0  0  0
    1.5728   -1.0448    2.3301 H   0  0  0  0  0  0  0  0  0  0  0  0
    1.9293    0.6392    1.7936 H   0  0  0  0  0  0  0  0  0  0  0  0
    0.2888    0.2136    2.2890 H   0  0  0  0  0  0  0  0  0  0  0  0
   -0.2519   -2.1002   -0.6726 H   0  0  0  0  0  0  0  0  0  0  0  0
    0.1320   -2.4691    1.0205 H   0  0  0  0  0  0  0  0  0  0  0  0
   -1.6191   -0.5440    1.6162 H   0  0  0  0  0  0  0  0  0  0  0  0
   -2.1711   -2.1421    1.0260 H   0  0  0  0  0  0  0  0  0  0  0  0
   -4.0489   -0.7040    1.7170 H   0  0  0  0  0  0  0  0  0  0  0  0
   -6.3476    0.1640    1.6617 H   0  0  0  0  0  0  0  0  0  0  0  0
   -7.2368    1.2261   -0.3935 H   0  0  0  0  0  0  0  0  0  0  0  0
   -5.8056    1.4181   -2.4087 H   0  0  0  0  0  0  0  0  0  0  0  0
   -3.4886    0.5521   -2.3736 H   0  0  0  0  0  0  0  0  0  0  0  0
    1.8521   -1.4405   -1.3473 H   0  0  0  0  0  0  0  0  0  0  0  0
    2.3909   -2.0757    0.2114 H   0  0  0  0  0  0  0  0  0  0  0  0
    2.8159    0.6248   -2.2864 H   0  0  0  0  0  0  0  0  0  0  0  0
    4.8152    2.0674   -2.3808 H   0  0  0  0  0  0  0  0  0  0  0  0
    6.4588    2.0468   -0.5257 H   0  0  0  0  0  0  0  0  0  0  0  0
    6.1056    0.5620    1.4273 H   0  0  0  0  0  0  0  0  0  0  0  0
    4.1137   -0.8889    1.5415 H   0  0  0  0  0  0  0  0  0  0  0  0
  1  2  1  0
  2  3  1  0
  2  4  1  0
  4  5  1  0
  5  6  1  0
  6  7  1  0
  7  8  2  0
  8  9  1  0
  9 10  2  0
 10 11  1  0
 11 12  2  0
 12  7  1  0
  2 13  1  0
 13 14  1  0
 14 15  2  0
 15 16  1  0
 16 17  2  0
 17 18  1  0
 18 19  2  0
 19 14  1  0
  1 20  1  0
  1 21  1  0
  1 22  1  0
  3 23  1  0
  3 24  1  0
  3 25  1  0
  4 26  1  0
  4 27  1  0
  5 28  1  0
  5 29  1  0
  8 30  1  0
  9 31  1  0
 10 32  1  0
 11 33  1  0
 12 34  1  0
 13 35  1  0
 13 36  1  0
 15 37  1  0
 16 38  1  0
 17 39  1  0
 18 40  1  0
 19 41  1  0
M  CHG  1   2   1
M  END
> <ID>
HT3130

> <Class>
0.0

> <Clusters>
31

> <Fold>
5

$$$$