
     RDKit          3D

 46 47  0  0  0  0  0  0  0  0999 V2000
    2.7170   -2.5726   -0.2716 O   0  0  0  0  0  0  0  0  0  0  0  0
    2.1826   -1.4355   -0.1581 C   0  0  0  0  0  0  0  0  0  0  0  0
    0.7404   -1.2470   -0.5441 C   0  0  0  0  0  0  0  0  0  0  0  0
    2.9209   -0.3443    0.3166 O   0  0  0  0  0  0  0  0  0  0  0  0
    4.3136   -0.4075    0.6129 C   0  0  0  0  0  0  0  0  0  0  0  0
    5.1343   -0.4037   -0.6713 C   0  0  0  0  0  0  0  0  0  0  0  0
   -0.0875   -0.7013    0.6530 C   0  0  0  0  0  0  0  0  0  0  0  0
    0.6818   -0.3214   -1.7316 C   0  0  0  0  0  0  0  0  0  0  0  0
   -0.0065    0.8138    0.7995 C   0  0  0  0  0  0  0  0  0  0  0  0
   -1.5414   -1.1423    0.5708 C   0  0  0  0  0  0  0  0  0  0  0  0
    0.5267    0.9563   -1.5609 N   0  0  0  0  0  0  0  0  0  0  0  0
    0.9050   -0.8446   -3.1162 C   0  0  0  0  0  0  0  0  0  0  0  0
    0.3052    1.5737   -0.2831 C   0  0  0  0  0  0  0  0  0  0  0  0
   -0.3467    1.3940    2.1291 C   0  0  0  0  0  0  0  0  0  0  0  0
   -2.0607   -2.0228    1.5353 C   0  0  0  0  0  0  0  0  0  0  0  0
   -2.3883   -0.6825   -0.4570 C   0  0  0  0  0  0  0  0  0  0  0  0
    0.4083    3.0710   -0.2319 C   0  0  0  0  0  0  0  0  0  0  0  0
   -0.2234    0.6842    3.1652 O   0  0  0  0  0  0  0  0  0  0  0  0
   -0.8473    2.6952    2.2403 O   0  0  0  0  0  0  0  0  0  0  0  0
   -3.3921   -2.4362    1.4731 C   0  0  0  0  0  0  0  0  0  0  0  0
   -3.7309   -1.0953   -0.5263 C   0  0  0  0  0  0  0  0  0  0  0  0
   -1.2012    3.2798    3.4876 C   0  0  0  0  0  0  0  0  0  0  0  0
   -4.2238   -1.9781    0.4503 C   0  0  0  0  0  0  0  0  0  0  0  0
   -4.5855   -0.6180   -1.5821 N   0  0  0  0  0  0  0  0  0  0  0  0
   -5.7795   -0.9777   -1.6467 O   0  0  0  0  0  0  0  0  0  0  0  0
   -4.1005    0.2427   -2.5402 O   0  0  0  0  0  0  0  0  0  0  0  0
    0.3265   -2.2385   -0.8385 H   0  0  0  0  0  0  0  0  0  0  0  0
    4.5415   -1.3134    1.2156 H   0  0  0  0  0  0  0  0  0  0  0  0
    4.5874    0.4849    1.2141 H   0  0  0  0  0  0  0  0  0  0  0  0
    4.9130   -1.3085   -1.2749 H   0  0  0  0  0  0  0  0  0  0  0  0
    4.8951    0.5005   -1.2703 H   0  0  0  0  0  0  0  0  0  0  0  0
    6.2164   -0.3959   -0.4231 H   0  0  0  0  0  0  0  0  0  0  0  0
    0.3576   -1.1507    1.5700 H   0  0  0  0  0  0  0  0  0  0  0  0
    1.7888   -0.3450   -3.5655 H   0  0  0  0  0  0  0  0  0  0  0  0
    1.0854   -1.9401   -3.1059 H   0  0  0  0  0  0  0  0  0  0  0  0
    0.0107   -0.6360   -3.7398 H   0  0  0  0  0  0  0  0  0  0  0  0
   -1.4356   -2.3929    2.3383 H   0  0  0  0  0  0  0  0  0  0  0  0
   -2.0055    0.0023   -1.1994 H   0  0  0  0  0  0  0  0  0  0  0  0
   -0.6044    3.5197   -0.1601 H   0  0  0  0  0  0  0  0  0  0  0  0
    0.8868    3.4520   -1.1589 H   0  0  0  0  0  0  0  0  0  0  0  0
    1.0383    3.3906    0.6250 H   0  0  0  0  0  0  0  0  0  0  0  0
   -3.7812   -3.1152    2.2209 H   0  0  0  0  0  0  0  0  0  0  0  0
   -1.5671    4.3126    3.3148 H   0  0  0  0  0  0  0  0  0  0  0  0
   -2.0078    2.6879    3.9697 H   0  0  0  0  0  0  0  0  0  0  0  0
   -0.3137    3.3191    4.1542 H   0  0  0  0  0  0  0  0  0  0  0  0
   -5.2526   -2.3135    0.4239 H   0  0  0  0  0  0  0  0  0  0  0  0
  1  2  2  0
  2  3  1  0
  4  2  1  0
  5  4  1  0
  6  5  1  0
  3  7  1  0
  8  3  1  0
  7  9  1  0
  7 10  1  0
 11  8  2  0
  8 12  1  0
  9 13  2  0
  9 14  1  0
 10 15  2  0
 16 10  1  0
 13 11  1  0
 13 17  1  0
 14 18  2  0
 14 19  1  0
 15 20  1  0
 21 16  2  0
 19 22  1  0
 20 23  2  0
 23 21  1  0
 21 24  1  0
 24 25  2  0
 24 26  1  0
  3 27  1  0
  5 28  1  0
  5 29  1  0
  6 30  1  0
  6 31  1  0
  6 32  1  0
  7 33  1  0
 12 34  1  0
 12 35  1  0
 12 36  1  0
 15 37  1  0
 16 38  1  0
 17 39  1  0
 17 40  1  0
 17 41  1  0
 20 42  1  0
 22 43  1  0
 22 44  1  0
 22 45  1  0
 23 46  1  0
M  CHG  2  24   1  26  -1
M  END
> <ID>
HT1505

> <Class>
0.0

> <Clusters>
102

> <Fold>
5

$$$$