
     RDKit          3D

 67 71  0  0  0  0  0  0  0  0999 V2000
    1.9375   -6.1547   -3.6119 C   0  0  0  0  0  0  0  0  0  0  0  0
    2.0207   -4.9690   -2.8294 O   0  0  0  0  0  0  0  0  0  0  0  0
    3.2049   -4.2570   -2.5762 C   0  0  0  0  0  0  0  0  0  0  0  0
    4.4476   -4.7181   -3.0511 C   0  0  0  0  0  0  0  0  0  0  0  0
    5.6118   -3.9921   -2.8103 C   0  0  0  0  0  0  0  0  0  0  0  0
    5.5564   -2.7925   -2.1054 C   0  0  0  0  0  0  0  0  0  0  0  0
    4.3295   -2.3082   -1.6242 C   0  0  0  0  0  0  0  0  0  0  0  0
    4.2725   -1.0342   -0.8776 C   0  0  0  0  0  0  0  0  0  0  0  0
    5.3318   -0.5622   -0.3813 O   0  0  0  0  0  0  0  0  0  0  0  0
    2.9634   -0.3662   -0.6455 C   0  0  0  0  0  0  0  0  0  0  0  0
    2.8720    1.0015   -0.2915 C   0  0  0  0  0  0  0  0  0  0  0  0
    3.9755    1.8580   -0.3673 O   0  0  0  0  0  0  0  0  0  0  0  0
    1.6412    1.5362    0.1259 C   0  0  0  0  0  0  0  0  0  0  0  0
    1.5453    2.9715    0.6105 C   0  0  0  0  0  0  0  0  0  0  0  0
    0.2028    3.6840    0.2260 C   0  0  0  0  0  0  0  0  0  0  0  0
   -0.0997    4.6245    1.2339 O   0  0  0  0  0  0  0  0  0  0  0  0
   -1.0101    2.7005    0.1368 C   0  0  0  0  0  0  0  0  0  0  0  0
   -0.7325    1.3562    0.8244 C   0  0  0  0  0  0  0  0  0  0  0  0
   -1.8816    0.5309    0.7559 O   0  0  0  0  0  0  0  0  0  0  0  0
   -2.7321    0.6860    1.8789 C   0  0  0  0  0  0  0  0  0  0  0  0
   -2.3818   -0.3958    2.9189 C   0  0  0  0  0  0  0  0  0  0  0  0
   -3.3459   -0.3266    4.1121 C   0  0  0  0  0  0  0  0  0  0  0  0
   -3.0914    0.8316    4.8686 O   0  0  0  0  0  0  0  0  0  0  0  0
   -4.8005   -0.3232    3.6041 C   0  0  0  0  0  0  0  0  0  0  0  0
   -5.7028   -0.1328    4.6677 O   0  0  0  0  0  0  0  0  0  0  0  0
   -4.9863    0.7388    2.4897 C   0  0  0  0  0  0  0  0  0  0  0  0
   -6.4003    0.6752    1.9126 C   0  0  0  0  0  0  0  0  0  0  0  0
   -4.0664    0.5101    1.4347 O   0  0  0  0  0  0  0  0  0  0  0  0
    0.4847    0.7348    0.1492 C   0  0  0  0  0  0  0  0  0  0  0  0
    0.5332   -0.5613   -0.4273 C   0  0  0  0  0  0  0  0  0  0  0  0
   -0.6270   -1.2829   -0.7196 O   0  0  0  0  0  0  0  0  0  0  0  0
    1.7826   -1.1343   -0.7628 C   0  0  0  0  0  0  0  0  0  0  0  0
    1.8741   -2.5364   -1.2707 C   0  0  0  0  0  0  0  0  0  0  0  0
    0.8784   -3.3058   -1.1851 O   0  0  0  0  0  0  0  0  0  0  0  0
    3.1484   -3.0469   -1.8408 C   0  0  0  0  0  0  0  0  0  0  0  0
    0.3571    4.4131   -1.1114 C   0  0  0  0  0  0  0  0  0  0  0  0
    0.1978    5.6248   -1.1639 O   0  0  0  0  0  0  0  0  0  0  0  0
    0.7004    3.6826   -2.3859 C   0  0  0  0  0  0  0  0  0  0  0  0
   -0.3413    3.8206   -3.3127 O   0  0  0  0  0  0  0  0  0  0  0  0
    2.2928   -5.9560   -4.6453 H   0  0  0  0  0  0  0  0  0  0  0  0
    0.8797   -6.4818   -3.6570 H   0  0  0  0  0  0  0  0  0  0  0  0
    2.5367   -6.9654   -3.1474 H   0  0  0  0  0  0  0  0  0  0  0  0
    4.5249   -5.6398   -3.6104 H   0  0  0  0  0  0  0  0  0  0  0  0
    6.5612   -4.3571   -3.1798 H   0  0  0  0  0  0  0  0  0  0  0  0
    6.4735   -2.2409   -1.9420 H   0  0  0  0  0  0  0  0  0  0  0  0
    4.8053    1.6553   -0.9075 H   0  0  0  0  0  0  0  0  0  0  0  0
    1.6386    2.9395    1.7184 H   0  0  0  0  0  0  0  0  0  0  0  0
    2.3991    3.5861    0.2500 H   0  0  0  0  0  0  0  0  0  0  0  0
    0.6817    5.2292    1.3423 H   0  0  0  0  0  0  0  0  0  0  0  0
   -1.2884    2.4883   -0.9193 H   0  0  0  0  0  0  0  0  0  0  0  0
   -1.9091    3.1701    0.5919 H   0  0  0  0  0  0  0  0  0  0  0  0
   -0.4351    1.5461    1.8848 H   0  0  0  0  0  0  0  0  0  0  0  0
   -2.6298    1.7010    2.3393 H   0  0  0  0  0  0  0  0  0  0  0  0
   -2.4576   -1.3987    2.4427 H   0  0  0  0  0  0  0  0  0  0  0  0
   -1.3353   -0.2669    3.2716 H   0  0  0  0  0  0  0  0  0  0  0  0
   -3.2017   -1.2298    4.7508 H   0  0  0  0  0  0  0  0  0  0  0  0
   -2.2612    0.6607    5.3851 H   0  0  0  0  0  0  0  0  0  0  0  0
   -5.0059   -1.3249    3.1642 H   0  0  0  0  0  0  0  0  0  0  0  0
   -5.6127    0.8047    4.9796 H   0  0  0  0  0  0  0  0  0  0  0  0
   -4.8499    1.7626    2.9085 H   0  0  0  0  0  0  0  0  0  0  0  0
   -7.1523    0.8880    2.7010 H   0  0  0  0  0  0  0  0  0  0  0  0
   -6.5980   -0.3282    1.4790 H   0  0  0  0  0  0  0  0  0  0  0  0
   -6.5123    1.4356    1.1105 H   0  0  0  0  0  0  0  0  0  0  0  0
   -1.4910   -0.8480   -1.0152 H   0  0  0  0  0  0  0  0  0  0  0  0
    0.8501    2.6021   -2.1967 H   0  0  0  0  0  0  0  0  0  0  0  0
    1.6528    4.0809   -2.8017 H   0  0  0  0  0  0  0  0  0  0  0  0
   -0.2260    4.7068   -3.7456 H   0  0  0  0  0  0  0  0  0  0  0  0
  1  2  1  0
  2  3  1  0
  3  4  2  0
  4  5  1  0
  5  6  2  0
  6  7  1  0
  7  8  1  0
  8  9  2  0
  8 10  1  0
 10 11  2  0
 11 12  1  0
 11 13  1  0
 13 14  1  0
 14 15  1  0
 15 16  1  0
 15 17  1  0
 17 18  1  0
 18 19  1  0
 19 20  1  0
 20 21  1  0
 21 22  1  0
 22 23  1  0
 22 24  1  0
 24 25  1  0
 24 26  1  0
 26 27  1  0
 26 28  1  0
 28 20  1  0
 18 29  1  0
 29 13  2  0
 29 30  1  0
 30 31  1  0
 30 32  2  0
 32 10  1  0
 32 33  1  0
 33 34  2  0
 33 35  1  0
 35  3  1  0
 35  7  2  0
 15 36  1  0
 36 37  2  0
 36 38  1  0
 38 39  1  0
  1 40  1  0
  1 41  1  0
  1 42  1  0
  4 43  1  0
  5 44  1  0
  6 45  1  0
 12 46  1  0
 14 47  1  0
 14 48  1  0
 16 49  1  0
 17 50  1  0
 17 51  1  0
 18 52  1  0
 20 53  1  0
 21 54  1  0
 21 55  1  0
 22 56  1  0
 23 57  1  0
 24 58  1  0
 25 59  1  0
 26 60  1  0
 27 61  1  0
 27 62  1  0
 27 63  1  0
 31 64  1  0
 38 65  1  0
 38 66  1  0
 39 67  1  0
M  END
> <ID>
HT3923

> <Class>
0.0

> <Clusters>
86

> <Fold>
5

$$$$