
     RDKit          3D

 80 85  0  0  0  0  0  0  0  0999 V2000
    5.7454    2.6060    0.3364 C   0  0  0  0  0  0  0  0  0  0  0  0
    6.5033    1.7581   -0.7016 C   0  0  0  0  0  0  0  0  0  0  0  0
    5.6416    0.8450   -1.3759 O   0  0  0  0  0  0  0  0  0  0  0  0
    5.2216   -0.2597   -0.5809 C   0  0  0  0  0  0  0  0  0  0  0  0
    4.1574    0.1230    0.2764 O   0  0  0  0  0  0  0  0  0  0  0  0
    2.9240    0.1763   -0.4209 C   0  0  0  0  0  0  0  0  0  0  0  0
    2.0377    1.2375    0.2310 C   0  0  0  0  0  0  0  0  0  0  0  0
    0.6504    1.3187   -0.4407 C   0  0  0  0  0  0  0  0  0  0  0  0
    0.0810   -0.0423   -1.0196 C   0  0  0  0  0  0  0  0  0  0  0  0
    0.2319   -0.0077   -2.5628 C   0  0  0  0  0  0  0  0  0  0  0  0
   -1.4397   -0.1826   -0.5978 C   0  0  0  0  0  0  0  0  0  0  0  0
   -2.3552   -0.9694   -1.5778 C   0  0  0  0  0  0  0  0  0  0  0  0
   -3.6205   -1.5724   -0.9257 C   0  0  0  0  0  0  0  0  0  0  0  0
   -4.1451   -0.8371    0.3479 C   0  0  0  0  0  0  0  0  0  0  0  0
   -5.2867   -1.7264    0.9232 C   0  0  0  0  0  0  0  0  0  0  0  0
   -4.6564    0.6069   -0.0279 C   0  0  0  0  0  0  0  0  0  0  0  0
   -3.9870    1.6074    0.9269 C   0  0  0  0  0  0  0  0  0  0  0  0
   -3.2808    0.7931    1.9928 C   0  0  0  0  0  0  0  0  0  0  0  0
   -3.0124   -0.6253    1.4310 C   0  0  0  0  0  0  0  0  0  0  0  0
   -3.1493   -1.5472    2.4956 O   0  0  0  0  0  0  0  0  0  0  0  0
   -1.5512   -0.7427    0.8433 C   0  0  0  0  0  0  0  0  0  0  0  0
   -0.9637   -2.1865    0.9402 C   0  0  0  0  0  0  0  0  0  0  0  0
    0.1608   -2.4961   -0.0707 C   0  0  0  0  0  0  0  0  0  0  0  0
    0.8862   -1.2402   -0.4905 C   0  0  0  0  0  0  0  0  0  0  0  0
    2.2170   -1.1451   -0.2959 C   0  0  0  0  0  0  0  0  0  0  0  0
   -6.1742    0.7899   -0.0905 C   0  0  0  0  0  0  0  0  0  0  0  0
   -6.9601    0.9605    1.0698 C   0  0  0  0  0  0  0  0  0  0  0  0
   -8.2772    1.1245    0.9820 O   0  0  0  0  0  0  0  0  0  0  0  0
   -8.9225    1.1336   -0.1806 C   0  0  0  0  0  0  0  0  0  0  0  0
  -10.1716    1.3004   -0.1990 O   0  0  0  0  0  0  0  0  0  0  0  0
   -8.2215    0.9607   -1.3787 C   0  0  0  0  0  0  0  0  0  0  0  0
   -6.8372    0.7838   -1.3304 C   0  0  0  0  0  0  0  0  0  0  0  0
    6.3714   -0.9323    0.2221 C   0  0  0  0  0  0  0  0  0  0  0  0
    6.2386   -0.6611    1.5988 O   0  0  0  0  0  0  0  0  0  0  0  0
    7.7323   -0.4401   -0.2961 C   0  0  0  0  0  0  0  0  0  0  0  0
    8.7855   -1.0354    0.4162 O   0  0  0  0  0  0  0  0  0  0  0  0
    7.8118    1.0877   -0.1753 C   0  0  0  0  0  0  0  0  0  0  0  0
    8.0682    1.4575    1.1618 O   0  0  0  0  0  0  0  0  0  0  0  0
    4.8192    3.0163   -0.1181 H   0  0  0  0  0  0  0  0  0  0  0  0
    5.4845    2.0120    1.2389 H   0  0  0  0  0  0  0  0  0  0  0  0
    6.3753    3.4669    0.6540 H   0  0  0  0  0  0  0  0  0  0  0  0
    6.8271    2.4846   -1.4778 H   0  0  0  0  0  0  0  0  0  0  0  0
    4.8705   -1.0451   -1.2911 H   0  0  0  0  0  0  0  0  0  0  0  0
    3.0556    0.4471   -1.4926 H   0  0  0  0  0  0  0  0  0  0  0  0
    1.9055    0.9891    1.3092 H   0  0  0  0  0  0  0  0  0  0  0  0
    2.5346    2.2297    0.1710 H   0  0  0  0  0  0  0  0  0  0  0  0
    0.7043    2.0858   -1.2483 H   0  0  0  0  0  0  0  0  0  0  0  0
   -0.0354    1.7636    0.3157 H   0  0  0  0  0  0  0  0  0  0  0  0
    1.2575    0.2880   -2.8632 H   0  0  0  0  0  0  0  0  0  0  0  0
   -0.4680    0.7342   -3.0065 H   0  0  0  0  0  0  0  0  0  0  0  0
    0.0480   -1.0034   -3.0180 H   0  0  0  0  0  0  0  0  0  0  0  0
   -1.8546    0.8405   -0.5931 H   0  0  0  0  0  0  0  0  0  0  0  0
   -1.8068   -1.8042   -2.0585 H   0  0  0  0  0  0  0  0  0  0  0  0
   -2.6672   -0.2879   -2.4026 H   0  0  0  0  0  0  0  0  0  0  0  0
   -3.4032   -2.6316   -0.6699 H   0  0  0  0  0  0  0  0  0  0  0  0
   -4.4224   -1.6177   -1.6925 H   0  0  0  0  0  0  0  0  0  0  0  0
   -4.9140   -2.7459    1.1570 H   0  0  0  0  0  0  0  0  0  0  0  0
   -6.1125   -1.8473    0.1892 H   0  0  0  0  0  0  0  0  0  0  0  0
   -5.6920   -1.3006    1.8626 H   0  0  0  0  0  0  0  0  0  0  0  0
   -4.2741    0.8732   -1.0382 H   0  0  0  0  0  0  0  0  0  0  0  0
   -4.7005    2.3231    1.3941 H   0  0  0  0  0  0  0  0  0  0  0  0
   -3.2500    2.2367    0.3814 H   0  0  0  0  0  0  0  0  0  0  0  0
   -3.9635    0.7180    2.8686 H   0  0  0  0  0  0  0  0  0  0  0  0
   -2.3605    1.3110    2.3368 H   0  0  0  0  0  0  0  0  0  0  0  0
   -2.4962   -1.2996    3.1963 H   0  0  0  0  0  0  0  0  0  0  0  0
   -0.8846   -0.1279    1.4856 H   0  0  0  0  0  0  0  0  0  0  0  0
   -1.7578   -2.9537    0.8137 H   0  0  0  0  0  0  0  0  0  0  0  0
   -0.5580   -2.3293    1.9702 H   0  0  0  0  0  0  0  0  0  0  0  0
    0.8533   -3.2390    0.3839 H   0  0  0  0  0  0  0  0  0  0  0  0
   -0.2657   -2.9827   -0.9707 H   0  0  0  0  0  0  0  0  0  0  0  0
    2.7662   -1.9873    0.1153 H   0  0  0  0  0  0  0  0  0  0  0  0
   -6.5009    0.9552    2.0510 H   0  0  0  0  0  0  0  0  0  0  0  0
   -8.7382    0.9556   -2.3304 H   0  0  0  0  0  0  0  0  0  0  0  0
   -6.2897    0.6390   -2.2544 H   0  0  0  0  0  0  0  0  0  0  0  0
    6.3075   -2.0360    0.0615 H   0  0  0  0  0  0  0  0  0  0  0  0
    6.7812   -1.3357    2.0830 H   0  0  0  0  0  0  0  0  0  0  0  0
    7.8245   -0.7086   -1.3741 H   0  0  0  0  0  0  0  0  0  0  0  0
    8.8356   -1.9810    0.1166 H   0  0  0  0  0  0  0  0  0  0  0  0
    8.6584    1.4299   -0.8230 H   0  0  0  0  0  0  0  0  0  0  0  0
    9.0534    1.4440    1.2872 H   0  0  0  0  0  0  0  0  0  0  0  0
  1  2  1  0
  2  3  1  0
  3  4  1  0
  4  5  1  0
  5  6  1  0
  6  7  1  0
  7  8  1  0
  8  9  1  0
  9 10  1  0
  9 11  1  0
 11 12  1  0
 12 13  1  0
 13 14  1  0
 14 15  1  0
 14 16  1  0
 16 17  1  0
 17 18  1  0
 18 19  1  0
 19 14  1  0
 19 20  1  0
 19 21  1  0
 21 11  1  0
 21 22  1  0
 22 23  1  0
 23 24  1  0
 24  9  1  0
 24 25  2  0
 25  6  1  0
 16 26  1  0
 26 27  2  0
 27 28  1  0
 28 29  1  0
 29 30  2  0
 29 31  1  0
 31 32  2  0
 32 26  1  0
  4 33  1  0
 33 34  1  0
 33 35  1  0
 35 36  1  0
 35 37  1  0
 37  2  1  0
 37 38  1  0
  1 39  1  0
  1 40  1  0
  1 41  1  0
  2 42  1  0
  4 43  1  0
  6 44  1  0
  7 45  1  0
  7 46  1  0
  8 47  1  0
  8 48  1  0
 10 49  1  0
 10 50  1  0
 10 51  1  0
 11 52  1  0
 12 53  1  0
 12 54  1  0
 13 55  1  0
 13 56  1  0
 15 57  1  0
 15 58  1  0
 15 59  1  0
 16 60  1  0
 17 61  1  0
 17 62  1  0
 18 63  1  0
 18 64  1  0
 20 65  1  0
 21 66  1  0
 22 67  1  0
 22 68  1  0
 23 69  1  0
 23 70  1  0
 25 71  1  0
 27 72  1  0
 31 73  1  0
 32 74  1  0
 33 75  1  0
 34 76  1  0
 35 77  1  0
 36 78  1  0
 37 79  1  0
 38 80  1  0
M  END
> <ID>
HT3908

> <Class>
0.0

> <Clusters>
78

> <Fold>
5

$$$$