
     RDKit          3D

 40 43  0  0  0  0  0  0  0  0999 V2000
   -1.4140    1.4241   -1.3400 C   0  0  0  0  0  0  0  0  0  0  0  0
   -0.0580    1.0015   -0.9338 N   0  0  0  0  0  0  0  0  0  0  0  0
    0.1347   -0.4610   -1.1211 C   0  0  0  0  0  0  0  0  0  0  0  0
    1.6079   -0.8684   -1.3319 C   0  0  0  0  0  0  0  0  0  0  0  0
    2.5194    0.1042   -0.7119 N   0  0  0  0  0  0  0  0  0  0  0  0
    2.3259    1.5339   -0.9925 C   0  0  0  0  0  0  0  0  0  0  0  0
    0.9655    1.7858   -1.6468 C   0  0  0  0  0  0  0  0  0  0  0  0
    3.6315   -0.3185    0.1053 C   0  0  0  0  0  0  0  0  0  0  0  0
    4.4824    0.6054    0.6339 N   0  0  0  0  0  0  0  0  0  0  0  0
    5.5378    0.2331    1.4035 C   0  0  0  0  0  0  0  0  0  0  0  0
    5.7659   -1.1165    1.6637 C   0  0  0  0  0  0  0  0  0  0  0  0
    4.8914   -2.0536    1.1175 C   0  0  0  0  0  0  0  0  0  0  0  0
    3.8476   -1.6407    0.3530 N   0  0  0  0  0  0  0  0  0  0  0  0
   -2.4545    0.8330   -0.4245 C   0  0  0  0  0  0  0  0  0  0  0  0
   -2.4512    1.1622    0.9555 C   0  0  0  0  0  0  0  0  0  0  0  0
   -3.4114    0.6116    1.8236 C   0  0  0  0  0  0  0  0  0  0  0  0
   -4.3538   -0.2570    1.2821 C   0  0  0  0  0  0  0  0  0  0  0  0
   -5.3839   -0.9175    1.9233 O   0  0  0  0  0  0  0  0  0  0  0  0
   -6.0848   -1.6993    0.9458 C   0  0  0  0  0  0  0  0  0  0  0  0
   -5.4012   -1.4516   -0.2909 O   0  0  0  0  0  0  0  0  0  0  0  0
   -4.3641   -0.5750   -0.0370 C   0  0  0  0  0  0  0  0  0  0  0  0
   -3.4329   -0.0525   -0.9299 C   0  0  0  0  0  0  0  0  0  0  0  0
   -1.5089    2.5305   -1.2708 H   0  0  0  0  0  0  0  0  0  0  0  0
   -1.6069    1.1485   -2.4021 H   0  0  0  0  0  0  0  0  0  0  0  0
   -0.4543   -0.8433   -1.9858 H   0  0  0  0  0  0  0  0  0  0  0  0
   -0.2421   -0.9773   -0.2117 H   0  0  0  0  0  0  0  0  0  0  0  0
    1.8203   -0.9002   -2.4228 H   0  0  0  0  0  0  0  0  0  0  0  0
    1.7612   -1.8958   -0.9395 H   0  0  0  0  0  0  0  0  0  0  0  0
    2.3598    2.1024   -0.0370 H   0  0  0  0  0  0  0  0  0  0  0  0
    3.1388    1.9017   -1.6547 H   0  0  0  0  0  0  0  0  0  0  0  0
    0.7484    2.8752   -1.5802 H   0  0  0  0  0  0  0  0  0  0  0  0
    0.9967    1.5047   -2.7243 H   0  0  0  0  0  0  0  0  0  0  0  0
    6.1989    0.9855    1.8123 H   0  0  0  0  0  0  0  0  0  0  0  0
    6.6024   -1.4294    2.2750 H   0  0  0  0  0  0  0  0  0  0  0  0
    5.0415   -3.1092    1.3002 H   0  0  0  0  0  0  0  0  0  0  0  0
   -1.7051    1.8398    1.3518 H   0  0  0  0  0  0  0  0  0  0  0  0
   -3.4172    0.8544    2.8779 H   0  0  0  0  0  0  0  0  0  0  0  0
   -6.0291   -2.7774    1.2048 H   0  0  0  0  0  0  0  0  0  0  0  0
   -7.1411   -1.3657    0.8730 H   0  0  0  0  0  0  0  0  0  0  0  0
   -3.4636   -0.3276   -1.9765 H   0  0  0  0  0  0  0  0  0  0  0  0
  1  2  1  0
  2  3  1  0
  3  4  1  0
  4  5  1  0
  5  6  1  0
  6  7  1  0
  7  2  1  0
  5  8  1  0
  8  9  2  0
  9 10  1  0
 10 11  2  0
 11 12  1  0
 12 13  2  0
 13  8  1  0
  1 14  1  0
 14 15  2  0
 15 16  1  0
 16 17  2  0
 17 18  1  0
 18 19  1  0
 19 20  1  0
 20 21  1  0
 21 17  1  0
 21 22  2  0
 22 14  1  0
  1 23  1  0
  1 24  1  0
  3 25  1  0
  3 26  1  0
  4 27  1  0
  4 28  1  0
  6 29  1  0
  6 30  1  0
  7 31  1  0
  7 32  1  0
 10 33  1  0
 11 34  1  0
 12 35  1  0
 15 36  1  0
 16 37  1  0
 19 38  1  0
 19 39  1  0
 22 40  1  0
M  END
> <ID>
HT1693

> <Class>
0.0

> <Clusters>
150

> <Fold>
5

$$$$