
     RDKit          3D

 45 46  0  0  0  0  0  0  0  0999 V2000
   -3.6614    2.7702    0.7325 C   0  0  0  0  0  0  0  0  0  0  0  0
   -3.9961    1.4147    0.5264 O   0  0  0  0  0  0  0  0  0  0  0  0
   -2.9941    0.7731   -0.2430 C   0  0  0  0  0  0  0  0  0  0  0  0
   -1.8668    0.5293    0.5949 O   0  0  0  0  0  0  0  0  0  0  0  0
   -0.9712   -0.3930    0.0054 C   0  0  0  0  0  0  0  0  0  0  0  0
    0.2279   -0.3755    0.7626 O   0  0  0  0  0  0  0  0  0  0  0  0
    1.3790   -0.6004   -0.0383 C   0  0  0  0  0  0  0  0  0  0  0  0
    2.4163   -1.3713    0.7929 C   0  0  0  0  0  0  0  0  0  0  0  0
    2.5821   -0.7502    2.0436 O   0  0  0  0  0  0  0  0  0  0  0  0
    3.7658   -1.4399    0.0528 C   0  0  0  0  0  0  0  0  0  0  0  0
    3.7194   -2.3878   -0.9873 O   0  0  0  0  0  0  0  0  0  0  0  0
    4.1933   -0.0520   -0.4725 C   0  0  0  0  0  0  0  0  0  0  0  0
    4.6109    0.7694    0.5879 O   0  0  0  0  0  0  0  0  0  0  0  0
    3.1747    0.5746   -1.2431 O   0  0  0  0  0  0  0  0  0  0  0  0
    1.9564    0.7475   -0.5266 C   0  0  0  0  0  0  0  0  0  0  0  0
    2.1134    1.6416    0.5640 O   0  0  0  0  0  0  0  0  0  0  0  0
    2.1652    2.9728    0.0992 C   0  0  0  0  0  0  0  0  0  0  0  0
   -1.5953   -1.8136    0.0628 C   0  0  0  0  0  0  0  0  0  0  0  0
   -1.0510   -2.6375   -0.9385 O   0  0  0  0  0  0  0  0  0  0  0  0
   -3.1439   -1.7650   -0.0428 C   0  0  0  0  0  0  0  0  0  0  0  0
   -3.7149   -1.6960    1.2403 O   0  0  0  0  0  0  0  0  0  0  0  0
   -3.5813   -0.5377   -0.8563 C   0  0  0  0  0  0  0  0  0  0  0  0
   -4.9839   -0.4916   -0.9285 O   0  0  0  0  0  0  0  0  0  0  0  0
   -2.6724    2.8776    1.2307 H   0  0  0  0  0  0  0  0  0  0  0  0
   -4.4228    3.2243    1.3992 H   0  0  0  0  0  0  0  0  0  0  0  0
   -3.6764    3.3334   -0.2265 H   0  0  0  0  0  0  0  0  0  0  0  0
   -2.6830    1.4211   -1.0992 H   0  0  0  0  0  0  0  0  0  0  0  0
   -0.7929   -0.0897   -1.0578 H   0  0  0  0  0  0  0  0  0  0  0  0
    1.1503   -1.2301   -0.9302 H   0  0  0  0  0  0  0  0  0  0  0  0
    2.0323   -2.4076    0.9474 H   0  0  0  0  0  0  0  0  0  0  0  0
    3.0012   -1.4199    2.6451 H   0  0  0  0  0  0  0  0  0  0  0  0
    4.5407   -1.7901    0.7696 H   0  0  0  0  0  0  0  0  0  0  0  0
    3.1700   -2.0155   -1.7245 H   0  0  0  0  0  0  0  0  0  0  0  0
    5.0672   -0.2165   -1.1433 H   0  0  0  0  0  0  0  0  0  0  0  0
    5.0140    1.5771    0.1752 H   0  0  0  0  0  0  0  0  0  0  0  0
    1.2075    1.1471   -1.2499 H   0  0  0  0  0  0  0  0  0  0  0  0
    1.1812    3.2846   -0.3149 H   0  0  0  0  0  0  0  0  0  0  0  0
    2.3950    3.6375    0.9569 H   0  0  0  0  0  0  0  0  0  0  0  0
    2.9676    3.1123   -0.6589 H   0  0  0  0  0  0  0  0  0  0  0  0
   -1.3315   -2.2740    1.0409 H   0  0  0  0  0  0  0  0  0  0  0  0
   -1.3144   -2.2589   -1.8175 H   0  0  0  0  0  0  0  0  0  0  0  0
   -3.5150   -2.6809   -0.5616 H   0  0  0  0  0  0  0  0  0  0  0  0
   -3.6774   -2.6123    1.6210 H   0  0  0  0  0  0  0  0  0  0  0  0
   -3.1753   -0.6617   -1.8884 H   0  0  0  0  0  0  0  0  0  0  0  0
   -5.2100    0.1610   -1.6419 H   0  0  0  0  0  0  0  0  0  0  0  0
  1  2  1  0
  2  3  1  0
  3  4  1  0
  4  5  1  0
  5  6  1  0
  6  7  1  0
  7  8  1  0
  8  9  1  0
  8 10  1  0
 10 11  1  0
 10 12  1  0
 12 13  1  0
 12 14  1  0
 14 15  1  0
 15  7  1  0
 15 16  1  0
 16 17  1  0
  5 18  1  0
 18 19  1  0
 18 20  1  0
 20 21  1  0
 20 22  1  0
 22  3  1  0
 22 23  1  0
  1 24  1  0
  1 25  1  0
  1 26  1  0
  3 27  1  0
  5 28  1  0
  7 29  1  0
  8 30  1  0
  9 31  1  0
 10 32  1  0
 11 33  1  0
 12 34  1  0
 13 35  1  0
 15 36  1  0
 17 37  1  0
 17 38  1  0
 17 39  1  0
 18 40  1  0
 19 41  1  0
 20 42  1  0
 21 43  1  0
 22 44  1  0
 23 45  1  0
M  END
> <ID>
HT3563

> <Class>
0.0

> <Clusters>
143

> <Fold>
5

$$$$