
     RDKit          3D

 57 60  0  0  0  0  0  0  0  0999 V2000
   -3.9520   -1.7753    1.8584 C   0  0  0  0  0  0  0  0  0  0  0  0
   -2.9155   -1.6708    0.7247 C   0  0  0  0  0  0  0  0  0  0  0  0
   -1.4782   -1.8343    1.2667 C   0  0  0  0  0  0  0  0  0  0  0  0
   -0.6525   -0.8729    0.4272 C   0  0  0  0  0  0  0  0  0  0  0  0
    0.8062   -0.5712    0.8982 C   0  0  0  0  0  0  0  0  0  0  0  0
    1.6797   -1.8010    0.5150 C   0  0  0  0  0  0  0  0  0  0  0  0
    3.1743   -1.5955    0.6994 C   0  0  0  0  0  0  0  0  0  0  0  0
    3.4910   -1.5215    2.0434 F   0  0  0  0  0  0  0  0  0  0  0  0
    3.5929   -0.3472   -0.0296 C   0  0  0  0  0  0  0  0  0  0  0  0
    4.5374   -0.4249   -0.9825 C   0  0  0  0  0  0  0  0  0  0  0  0
    4.9348    0.7560   -1.7492 C   0  0  0  0  0  0  0  0  0  0  0  0
    5.8308    0.6682   -2.6294 O   0  0  0  0  0  0  0  0  0  0  0  0
    4.2782    2.0353   -1.4950 C   0  0  0  0  0  0  0  0  0  0  0  0
    3.3388    2.1367   -0.5553 C   0  0  0  0  0  0  0  0  0  0  0  0
    2.9017    0.9711    0.3323 C   0  0  0  0  0  0  0  0  0  0  0  0
    3.3340    1.3708    1.7663 C   0  0  0  0  0  0  0  0  0  0  0  0
    1.3319    0.7934    0.2879 C   0  0  0  0  0  0  0  0  0  0  0  0
    0.6365    1.1051   -1.0724 C   0  0  0  0  0  0  0  0  0  0  0  0
    0.9447    0.0993   -2.0043 O   0  0  0  0  0  0  0  0  0  0  0  0
   -0.9131    1.2558   -0.9061 C   0  0  0  0  0  0  0  0  0  0  0  0
   -1.5499    0.3511    0.2172 C   0  0  0  0  0  0  0  0  0  0  0  0
   -1.7047    1.1852    1.5388 C   0  0  0  0  0  0  0  0  0  0  0  0
   -2.9421   -0.3251   -0.1118 C   0  0  0  0  0  0  0  0  0  0  0  0
   -3.9969    0.5177    0.3065 O   0  0  0  0  0  0  0  0  0  0  0  0
   -3.1052   -0.6463   -1.6129 C   0  0  0  0  0  0  0  0  0  0  0  0
   -2.4825   -1.5752   -2.1087 O   0  0  0  0  0  0  0  0  0  0  0  0
   -4.0015    0.1618   -2.5192 C   0  0  0  0  0  0  0  0  0  0  0  0
   -3.3140    0.4832   -3.6967 O   0  0  0  0  0  0  0  0  0  0  0  0
   -4.9778   -1.8239    1.4370 H   0  0  0  0  0  0  0  0  0  0  0  0
   -3.8892   -0.9179    2.5572 H   0  0  0  0  0  0  0  0  0  0  0  0
   -3.7849   -2.7099    2.4356 H   0  0  0  0  0  0  0  0  0  0  0  0
   -3.1188   -2.5414    0.0615 H   0  0  0  0  0  0  0  0  0  0  0  0
   -1.1225   -2.8806    1.1437 H   0  0  0  0  0  0  0  0  0  0  0  0
   -1.4067   -1.5589    2.3420 H   0  0  0  0  0  0  0  0  0  0  0  0
   -0.5674   -1.3626   -0.5688 H   0  0  0  0  0  0  0  0  0  0  0  0
    0.8158   -0.4770    2.0063 H   0  0  0  0  0  0  0  0  0  0  0  0
    1.5205   -2.0743   -0.5516 H   0  0  0  0  0  0  0  0  0  0  0  0
    1.3674   -2.6766    1.1247 H   0  0  0  0  0  0  0  0  0  0  0  0
    3.6950   -2.4916    0.2941 H   0  0  0  0  0  0  0  0  0  0  0  0
    5.0128   -1.3710   -1.2132 H   0  0  0  0  0  0  0  0  0  0  0  0
    4.5563    2.9072   -2.0741 H   0  0  0  0  0  0  0  0  0  0  0  0
    2.8896    3.1092   -0.3878 H   0  0  0  0  0  0  0  0  0  0  0  0
    2.8821    0.7133    2.5352 H   0  0  0  0  0  0  0  0  0  0  0  0
    4.4408    1.3342    1.8678 H   0  0  0  0  0  0  0  0  0  0  0  0
    3.0027    2.4047    2.0087 H   0  0  0  0  0  0  0  0  0  0  0  0
    0.9754    1.6146    0.9354 H   0  0  0  0  0  0  0  0  0  0  0  0
    0.9961    2.0818   -1.4661 H   0  0  0  0  0  0  0  0  0  0  0  0
    0.7466    0.4667   -2.9050 H   0  0  0  0  0  0  0  0  0  0  0  0
   -1.1362    2.3236   -0.6908 H   0  0  0  0  0  0  0  0  0  0  0  0
   -1.3676    1.0854   -1.8982 H   0  0  0  0  0  0  0  0  0  0  0  0
   -2.2356    2.1397    1.3360 H   0  0  0  0  0  0  0  0  0  0  0  0
   -2.2977    0.6465    2.3006 H   0  0  0  0  0  0  0  0  0  0  0  0
   -0.7591    1.4290    2.0454 H   0  0  0  0  0  0  0  0  0  0  0  0
   -4.8553    0.0643    0.0980 H   0  0  0  0  0  0  0  0  0  0  0  0
   -4.3319    1.1022   -2.0281 H   0  0  0  0  0  0  0  0  0  0  0  0
   -4.8983   -0.4486   -2.7647 H   0  0  0  0  0  0  0  0  0  0  0  0
   -3.9569    0.9825   -4.2645 H   0  0  0  0  0  0  0  0  0  0  0  0
  1  2  1  0
  2  3  1  0
  3  4  1  0
  4  5  1  0
  5  6  1  0
  6  7  1  0
  7  8  1  0
  7  9  1  0
  9 10  2  0
 10 11  1  0
 11 12  2  0
 11 13  1  0
 13 14  2  0
 14 15  1  0
 15  9  1  0
 15 16  1  0
 15 17  1  0
 17  5  1  0
 17 18  1  0
 18 19  1  0
 18 20  1  0
 20 21  1  0
 21  4  1  0
 21 22  1  0
 21 23  1  0
 23  2  1  0
 23 24  1  0
 23 25  1  0
 25 26  2  0
 25 27  1  0
 27 28  1  0
  1 29  1  0
  1 30  1  0
  1 31  1  0
  2 32  1  0
  3 33  1  0
  3 34  1  0
  4 35  1  0
  5 36  1  0
  6 37  1  0
  6 38  1  0
  7 39  1  0
 10 40  1  0
 13 41  1  0
 14 42  1  0
 16 43  1  0
 16 44  1  0
 16 45  1  0
 17 46  1  0
 18 47  1  0
 19 48  1  0
 20 49  1  0
 20 50  1  0
 22 51  1  0
 22 52  1  0
 22 53  1  0
 24 54  1  0
 27 55  1  0
 27 56  1  0
 28 57  1  0
M  END
> <ID>
HT1591

> <Class>
0.0

> <Clusters>
189

> <Fold>
5

$$$$