
     RDKit          3D

 15 15  0  0  0  0  0  0  0  0999 V2000
   -2.6035    0.0570   -0.1114 N   0  0  0  0  0  0  0  0  0  0  0  0
   -1.1768    0.0001   -0.0342 C   0  0  0  0  0  0  0  0  0  0  0  0
   -0.3966    0.9962   -0.6396 C   0  0  0  0  0  0  0  0  0  0  0  0
    0.9988    0.9400   -0.5637 C   0  0  0  0  0  0  0  0  0  0  0  0
    1.6246   -0.1129    0.1183 C   0  0  0  0  0  0  0  0  0  0  0  0
    3.0135   -0.1799    0.2008 O   0  0  0  0  0  0  0  0  0  0  0  0
    0.8476   -1.1071    0.7226 C   0  0  0  0  0  0  0  0  0  0  0  0
   -0.5479   -1.0521    0.6475 C   0  0  0  0  0  0  0  0  0  0  0  0
   -3.0809    0.8365   -0.6168 H   0  0  0  0  0  0  0  0  0  0  0  0
   -3.1929   -0.6800    0.3362 H   0  0  0  0  0  0  0  0  0  0  0  0
   -0.8690    1.8141   -1.1690 H   0  0  0  0  0  0  0  0  0  0  0  0
    1.5918    1.7139   -1.0344 H   0  0  0  0  0  0  0  0  0  0  0  0
    3.6038    0.5245   -0.2262 H   0  0  0  0  0  0  0  0  0  0  0  0
    1.3255   -1.9226    1.2506 H   0  0  0  0  0  0  0  0  0  0  0  0
   -1.1380   -1.8277    1.1193 H   0  0  0  0  0  0  0  0  0  0  0  0
  1  2  1  0
  2  3  2  0
  3  4  1  0
  4  5  2  0
  5  6  1  0
  5  7  1  0
  7  8  2  0
  8  2  1  0
  1  9  1  0
  1 10  1  0
  3 11  1  0
  4 12  1  0
  6 13  1  0
  7 14  1  0
  8 15  1  0
M  END
> <ID>
HT1588

> <Class>
0.0

> <Clusters>
249

> <Fold>
5

$$$$