
     RDKit          3D

 12 11  0  0  0  0  0  0  0  0999 V2000
    1.2452   -0.1487    0.4107 C   0  0  0  0  0  0  0  0  0  0  0  0
    0.0730    0.2791   -0.4780 C   0  0  0  0  0  0  0  0  0  0  0  0
   -1.1730   -0.5689   -0.2042 C   0  0  0  0  0  0  0  0  0  0  0  0
   -0.2088    1.6447   -0.3026 O   0  0  0  0  0  0  0  0  0  0  0  0
    2.1336    0.4795    0.1884 H   0  0  0  0  0  0  0  0  0  0  0  0
    0.9851   -0.0335    1.4848 H   0  0  0  0  0  0  0  0  0  0  0  0
    1.5067   -1.2105    0.2148 H   0  0  0  0  0  0  0  0  0  0  0  0
    0.3696    0.1235   -1.5379 H   0  0  0  0  0  0  0  0  0  0  0  0
   -2.0037   -0.2394   -0.8636 H   0  0  0  0  0  0  0  0  0  0  0  0
   -0.9612   -1.6394   -0.4127 H   0  0  0  0  0  0  0  0  0  0  0  0
   -1.4934   -0.4642    0.8546 H   0  0  0  0  0  0  0  0  0  0  0  0
   -0.4731    1.7778    0.6457 H   0  0  0  0  0  0  0  0  0  0  0  0
  1  2  1  0
  2  3  1  0
  2  4  1  0
  1  5  1  0
  1  6  1  0
  1  7  1  0
  2  8  1  0
  3  9  1  0
  3 10  1  0
  3 11  1  0
  4 12  1  0
M  END
> <ID>
HT1757

> <Class>
0.0

> <Clusters>
151

> <Fold>
5

$$$$