
     RDKit          3D

 49 48  0  0  0  0  0  0  0  0999 V2000
   -5.1297   -1.5636   -0.4923 C   0  0  0  0  0  0  0  0  0  0  0  0
   -4.4192   -2.8225   -0.9924 C   0  0  0  0  0  0  0  0  0  0  0  0
   -2.9943   -2.9439   -0.4370 C   0  0  0  0  0  0  0  0  0  0  0  0
   -2.1011   -1.8625   -0.9617 C   0  0  0  0  0  0  0  0  0  0  0  0
   -1.7892   -1.8429   -2.1839 O   0  0  0  0  0  0  0  0  0  0  0  0
   -1.6406   -0.8726   -0.0877 O   0  0  0  0  0  0  0  0  0  0  0  0
   -0.8114    0.2175   -0.4925 C   0  0  0  0  0  0  0  0  0  0  0  0
   -0.9360    1.3422    0.5373 C   0  0  0  0  0  0  0  0  0  0  0  0
   -2.2952    1.7604    0.6111 O   0  0  0  0  0  0  0  0  0  0  0  0
   -2.7372    2.7496    1.4928 C   0  0  0  0  0  0  0  0  0  0  0  0
   -1.9313    3.3213    2.2769 O   0  0  0  0  0  0  0  0  0  0  0  0
   -4.1904    3.1007    1.5293 C   0  0  0  0  0  0  0  0  0  0  0  0
   -4.9855    2.0144    2.2443 C   0  0  0  0  0  0  0  0  0  0  0  0
    0.6444   -0.2458   -0.6393 C   0  0  0  0  0  0  0  0  0  0  0  0
    1.0770   -0.8430    0.5613 O   0  0  0  0  0  0  0  0  0  0  0  0
    2.7190   -1.2692    0.3921 P   0  0  0  0  0  0  0  0  0  0  0  0
    3.1818   -1.9000    1.6865 O   0  0  0  0  0  0  0  0  0  0  0  0
    2.8952   -2.3953   -0.8625 O   0  0  0  0  0  0  0  0  0  0  0  0
    3.6399    0.1329    0.0729 O   0  0  0  0  0  0  0  0  0  0  0  0
    4.9968   -0.2325   -0.0274 C   0  0  0  0  0  0  0  0  0  0  0  0
    5.8342    1.0073   -0.3849 C   0  0  0  0  0  0  0  0  0  0  0  0
    5.4160    1.5793   -1.6697 N   0  0  0  0  0  0  0  0  0  0  0  0
    7.2996    0.6606   -0.4116 C   0  0  0  0  0  0  0  0  0  0  0  0
    7.9721    0.7744   -1.4725 O   0  0  0  0  0  0  0  0  0  0  0  0
    7.9215    0.2186    0.7526 O   0  0  0  0  0  0  0  0  0  0  0  0
   -4.6110   -0.6515   -0.8573 H   0  0  0  0  0  0  0  0  0  0  0  0
   -6.1722   -1.5506   -0.8740 H   0  0  0  0  0  0  0  0  0  0  0  0
   -5.1579   -1.5499    0.6183 H   0  0  0  0  0  0  0  0  0  0  0  0
   -4.3970   -2.8203   -2.1041 H   0  0  0  0  0  0  0  0  0  0  0  0
   -5.0035   -3.7104   -0.6679 H   0  0  0  0  0  0  0  0  0  0  0  0
   -2.5698   -3.9299   -0.7237 H   0  0  0  0  0  0  0  0  0  0  0  0
   -3.0233   -2.9005    0.6735 H   0  0  0  0  0  0  0  0  0  0  0  0
   -1.1641    0.6142   -1.4714 H   0  0  0  0  0  0  0  0  0  0  0  0
   -0.6060    0.9799    1.5357 H   0  0  0  0  0  0  0  0  0  0  0  0
   -0.3014    2.2041    0.2355 H   0  0  0  0  0  0  0  0  0  0  0  0
   -4.3359    4.0706    2.0523 H   0  0  0  0  0  0  0  0  0  0  0  0
   -4.5657    3.2070    0.4891 H   0  0  0  0  0  0  0  0  0  0  0  0
   -4.8780    1.0438    1.7137 H   0  0  0  0  0  0  0  0  0  0  0  0
   -6.0604    2.2919    2.2619 H   0  0  0  0  0  0  0  0  0  0  0  0
   -4.6294    1.9020    3.2909 H   0  0  0  0  0  0  0  0  0  0  0  0
    1.2706    0.6375   -0.9022 H   0  0  0  0  0  0  0  0  0  0  0  0
    0.6899   -0.9788   -1.4746 H   0  0  0  0  0  0  0  0  0  0  0  0
    2.9493   -1.8534   -1.6897 H   0  0  0  0  0  0  0  0  0  0  0  0
    5.1491   -1.0047   -0.8163 H   0  0  0  0  0  0  0  0  0  0  0  0
    5.3558   -0.6319    0.9487 H   0  0  0  0  0  0  0  0  0  0  0  0
    5.6881    1.7747    0.4074 H   0  0  0  0  0  0  0  0  0  0  0  0
    4.4479    1.9631   -1.5717 H   0  0  0  0  0  0  0  0  0  0  0  0
    5.3818    0.8254   -2.3948 H   0  0  0  0  0  0  0  0  0  0  0  0
    8.9066   -0.0176    0.7586 H   0  0  0  0  0  0  0  0  0  0  0  0
  1  2  1  0
  2  3  1  0
  3  4  1  0
  4  5  2  0
  4  6  1  0
  6  7  1  0
  7  8  1  0
  8  9  1  0
  9 10  1  0
 10 11  2  0
 10 12  1  0
 12 13  1  0
  7 14  1  0
 14 15  1  0
 15 16  1  0
 16 17  2  0
 16 18  1  0
 16 19  1  0
 19 20  1  0
 20 21  1  0
 21 22  1  0
 21 23  1  0
 23 24  2  0
 23 25  1  0
  1 26  1  0
  1 27  1  0
  1 28  1  0
  2 29  1  0
  2 30  1  0
  3 31  1  0
  3 32  1  0
  7 33  1  0
  8 34  1  0
  8 35  1  0
 12 36  1  0
 12 37  1  0
 13 38  1  0
 13 39  1  0
 13 40  1  0
 14 41  1  0
 14 42  1  0
 18 43  1  0
 20 44  1  0
 20 45  1  0
 21 46  1  0
 22 47  1  0
 22 48  1  0
 25 49  1  0
M  END
> <ID>
HT1664

> <Class>
0.0

> <Clusters>
83

> <Fold>
5

$$$$