
     RDKit          3D

 25 25  0  0  0  0  0  0  0  0999 V2000
   -1.2794   -2.2974   -0.8900 C   0  0  0  0  0  0  0  0  0  0  0  0
   -0.4741   -1.6893    0.2649 C   0  0  0  0  0  0  0  0  0  0  0  0
   -0.1494   -0.1669    0.1551 C   0  0  0  0  0  0  0  0  0  0  0  0
   -1.4625    0.6766    0.1216 C   0  0  0  0  0  0  0  0  0  0  0  0
   -1.2258    2.1924    0.1440 C   0  0  0  0  0  0  0  0  0  0  0  0
    0.6317    0.1952    1.4178 C   0  0  0  0  0  0  0  0  0  0  0  0
    0.0519    0.1434    2.5374 O   0  0  0  0  0  0  0  0  0  0  0  0
    2.0141    0.5589    1.3824 N   0  0  0  0  0  0  0  0  0  0  0  0
    2.7317    0.6286    0.1562 C   0  0  0  0  0  0  0  0  0  0  0  0
    3.9606    0.9047    0.1600 O   0  0  0  0  0  0  0  0  0  0  0  0
    2.0573    0.3999   -1.0751 N   0  0  0  0  0  0  0  0  0  0  0  0
    0.6599    0.1001   -1.1147 C   0  0  0  0  0  0  0  0  0  0  0  0
    0.0876    0.0620   -2.2381 O   0  0  0  0  0  0  0  0  0  0  0  0
   -2.2579   -1.7918   -1.0136 H   0  0  0  0  0  0  0  0  0  0  0  0
   -1.4816   -3.3658   -0.6644 H   0  0  0  0  0  0  0  0  0  0  0  0
   -0.7091   -2.2632   -1.8397 H   0  0  0  0  0  0  0  0  0  0  0  0
    0.4790   -2.2583    0.3484 H   0  0  0  0  0  0  0  0  0  0  0  0
   -1.0444   -1.8792    1.2015 H   0  0  0  0  0  0  0  0  0  0  0  0
   -2.1065    0.4099    0.9884 H   0  0  0  0  0  0  0  0  0  0  0  0
   -2.0469    0.4481   -0.7944 H   0  0  0  0  0  0  0  0  0  0  0  0
   -0.6011    2.5067   -0.7181 H   0  0  0  0  0  0  0  0  0  0  0  0
   -2.2016    2.7181    0.0770 H   0  0  0  0  0  0  0  0  0  0  0  0
   -0.7312    2.5032    1.0877 H   0  0  0  0  0  0  0  0  0  0  0  0
    2.5120    0.7660    2.2776 H   0  0  0  0  0  0  0  0  0  0  0  0
    2.5853    0.4982   -1.9716 H   0  0  0  0  0  0  0  0  0  0  0  0
  1  2  1  0
  2  3  1  0
  3  4  1  0
  4  5  1  0
  3  6  1  0
  6  7  2  0
  6  8  1  0
  8  9  1  0
  9 10  2  0
  9 11  1  0
 11 12  1  0
 12  3  1  0
 12 13  2  0
  1 14  1  0
  1 15  1  0
  1 16  1  0
  2 17  1  0
  2 18  1  0
  4 19  1  0
  4 20  1  0
  5 21  1  0
  5 22  1  0
  5 23  1  0
  8 24  1  0
 11 25  1  0
M  END
> <ID>
HT0226

> <Class>
0.0

> <Clusters>
28

> <Fold>
5

$$$$