
     RDKit          3D

 42 44  0  0  0  0  0  0  0  0999 V2000
   -4.6574   -1.1253    0.3825 C   0  0  0  0  0  0  0  0  0  0  0  0
   -3.2211   -1.5793    0.3749 C   0  0  0  0  0  0  0  0  0  0  0  0
   -2.2524   -0.6659    0.2014 C   0  0  0  0  0  0  0  0  0  0  0  0
   -0.8095   -1.0475    0.1724 C   0  0  0  0  0  0  0  0  0  0  0  0
    0.1671   -0.1142    0.0025 C   0  0  0  0  0  0  0  0  0  0  0  0
    1.5818   -0.4936   -0.2340 C   0  0  0  0  0  0  0  0  0  0  0  0
    2.5867   -0.0372    0.6332 C   0  0  0  0  0  0  0  0  0  0  0  0
    3.9252   -0.3625    0.3948 C   0  0  0  0  0  0  0  0  0  0  0  0
    4.2761   -1.1374   -0.7195 C   0  0  0  0  0  0  0  0  0  0  0  0
    5.6456   -1.4693   -0.9628 N   0  0  0  0  0  0  0  0  0  0  0  0
    3.2762   -1.5802   -1.5965 C   0  0  0  0  0  0  0  0  0  0  0  0
    1.9375   -1.2552   -1.3595 C   0  0  0  0  0  0  0  0  0  0  0  0
   -0.1218    1.3404    0.0452 C   0  0  0  0  0  0  0  0  0  0  0  0
   -0.6601    1.9272    1.2026 C   0  0  0  0  0  0  0  0  0  0  0  0
   -0.8991    3.3036    1.2494 C   0  0  0  0  0  0  0  0  0  0  0  0
   -0.5910    4.1115    0.1460 C   0  0  0  0  0  0  0  0  0  0  0  0
   -0.8349    5.5197    0.1946 N   0  0  0  0  0  0  0  0  0  0  0  0
   -0.0373    3.5306   -1.0035 C   0  0  0  0  0  0  0  0  0  0  0  0
    0.2017    2.1541   -1.0517 C   0  0  0  0  0  0  0  0  0  0  0  0
   -0.4798   -2.4915    0.3384 C   0  0  0  0  0  0  0  0  0  0  0  0
   -1.4379   -3.4032    0.5125 C   0  0  0  0  0  0  0  0  0  0  0  0
   -2.8592   -3.0092    0.5438 C   0  0  0  0  0  0  0  0  0  0  0  0
   -3.7779   -3.9068    0.7175 N   0  0  0  0  0  0  0  0  0  0  0  0
   -4.9009   -0.6383   -0.5856 H   0  0  0  0  0  0  0  0  0  0  0  0
   -5.3629   -1.9679    0.5317 H   0  0  0  0  0  0  0  0  0  0  0  0
   -4.8138   -0.3942    1.2038 H   0  0  0  0  0  0  0  0  0  0  0  0
   -2.5430    0.3660    0.0473 H   0  0  0  0  0  0  0  0  0  0  0  0
    2.3322    0.5652    1.4967 H   0  0  0  0  0  0  0  0  0  0  0  0
    4.6885   -0.0092    1.0766 H   0  0  0  0  0  0  0  0  0  0  0  0
    5.9171   -2.0446   -1.7912 H   0  0  0  0  0  0  0  0  0  0  0  0
    6.3979   -1.1426   -0.3162 H   0  0  0  0  0  0  0  0  0  0  0  0
    3.5346   -2.1726   -2.4652 H   0  0  0  0  0  0  0  0  0  0  0  0
    1.1777   -1.5933   -2.0536 H   0  0  0  0  0  0  0  0  0  0  0  0
   -0.8913    1.3180    2.0678 H   0  0  0  0  0  0  0  0  0  0  0  0
   -1.3199    3.7408    2.1461 H   0  0  0  0  0  0  0  0  0  0  0  0
   -0.6071    6.1302   -0.6216 H   0  0  0  0  0  0  0  0  0  0  0  0
   -1.2455    5.9620    1.0470 H   0  0  0  0  0  0  0  0  0  0  0  0
    0.2107    4.1444   -1.8603 H   0  0  0  0  0  0  0  0  0  0  0  0
    0.6329    1.7209   -1.9461 H   0  0  0  0  0  0  0  0  0  0  0  0
    0.5474   -2.8307    0.3566 H   0  0  0  0  0  0  0  0  0  0  0  0
   -1.1629   -4.4430    0.6430 H   0  0  0  0  0  0  0  0  0  0  0  0
   -3.5503   -4.9194    0.8388 H   0  0  0  0  0  0  0  0  0  0  0  0
  1  2  1  0
  2  3  2  0
  3  4  1  0
  4  5  2  3
  5  6  1  0
  6  7  2  0
  7  8  1  0
  8  9  2  0
  9 10  1  0
  9 11  1  0
 11 12  2  0
 12  6  1  0
  5 13  1  0
 13 14  2  0
 14 15  1  0
 15 16  2  0
 16 17  1  0
 16 18  1  0
 18 19  2  0
 19 13  1  0
  4 20  1  0
 20 21  2  0
 21 22  1  0
 22  2  1  0
 22 23  2  3
  1 24  1  0
  1 25  1  0
  1 26  1  0
  3 27  1  0
  7 28  1  0
  8 29  1  0
 10 30  1  0
 10 31  1  0
 11 32  1  0
 12 33  1  0
 14 34  1  0
 15 35  1  0
 17 36  1  0
 17 37  1  0
 18 38  1  0
 19 39  1  0
 20 40  1  0
 21 41  1  0
 23 42  1  0
M  END
> <ID>
HT3362

> <Class>
0.0

> <Clusters>
266

> <Fold>
5

$$$$