
     RDKit          3D

 35 36  0  0  0  0  0  0  0  0999 V2000
   -4.5983    2.8415   -0.0929 C   0  0  0  0  0  0  0  0  0  0  0  0
   -3.6370    1.7059   -0.2084 C   0  0  0  0  0  0  0  0  0  0  0  0
   -2.5298    1.8230   -0.9833 N   0  0  0  0  0  0  0  0  0  0  0  0
   -1.6476    0.7995   -1.1002 C   0  0  0  0  0  0  0  0  0  0  0  0
   -1.8658   -0.4104   -0.4248 C   0  0  0  0  0  0  0  0  0  0  0  0
   -0.8457   -1.5170   -0.5778 C   0  0  0  0  0  0  0  0  0  0  0  0
    0.3141   -1.2759    0.2942 N   0  0  0  0  0  0  0  0  0  0  0  0
    0.2115   -1.3022    1.6461 C   0  0  0  0  0  0  0  0  0  0  0  0
    1.6921   -0.9977    2.3703 S   0  0  0  0  0  0  0  0  0  0  0  0
    2.5153   -0.8441    0.9135 C   0  0  0  0  0  0  0  0  0  0  0  0
    3.9742   -0.5020    0.8133 C   0  0  0  0  0  0  0  0  0  0  0  0
    4.1665    0.9958    0.5859 C   0  0  0  0  0  0  0  0  0  0  0  0
    5.5342    1.2824    0.5004 O   0  0  0  0  0  0  0  0  0  0  0  0
    1.5946   -1.0162   -0.1310 C   0  0  0  0  0  0  0  0  0  0  0  0
    1.9721   -0.9453   -1.5880 C   0  0  0  0  0  0  0  0  0  0  0  0
   -3.0186   -0.5062    0.3927 C   0  0  0  0  0  0  0  0  0  0  0  0
   -3.3305   -1.6796    1.1531 N   0  0  0  0  0  0  0  0  0  0  0  0
   -3.8685    0.5528    0.4687 N   0  0  0  0  0  0  0  0  0  0  0  0
   -5.5994    2.5189   -0.4476 H   0  0  0  0  0  0  0  0  0  0  0  0
   -4.2607    3.7045   -0.7053 H   0  0  0  0  0  0  0  0  0  0  0  0
   -4.6715    3.1604    0.9678 H   0  0  0  0  0  0  0  0  0  0  0  0
   -0.7749    0.9297   -1.7257 H   0  0  0  0  0  0  0  0  0  0  0  0
   -0.5448   -1.5685   -1.6441 H   0  0  0  0  0  0  0  0  0  0  0  0
   -1.2698   -2.5175   -0.3685 H   0  0  0  0  0  0  0  0  0  0  0  0
   -0.7071   -1.4876    2.1850 H   0  0  0  0  0  0  0  0  0  0  0  0
    4.4820   -0.7932    1.7582 H   0  0  0  0  0  0  0  0  0  0  0  0
    4.4499   -1.0812   -0.0058 H   0  0  0  0  0  0  0  0  0  0  0  0
    3.6616    1.3031   -0.3571 H   0  0  0  0  0  0  0  0  0  0  0  0
    3.7190    1.5602    1.4351 H   0  0  0  0  0  0  0  0  0  0  0  0
    5.6015    2.2621    0.3568 H   0  0  0  0  0  0  0  0  0  0  0  0
    1.3511   -0.1833   -2.1008 H   0  0  0  0  0  0  0  0  0  0  0  0
    1.8096   -1.9357   -2.0616 H   0  0  0  0  0  0  0  0  0  0  0  0
    3.0321   -0.6631   -1.7376 H   0  0  0  0  0  0  0  0  0  0  0  0
   -2.6987   -2.5040    1.2247 H   0  0  0  0  0  0  0  0  0  0  0  0
   -4.2129   -1.7089    1.7107 H   0  0  0  0  0  0  0  0  0  0  0  0
  1  2  1  0
  2  3  2  0
  3  4  1  0
  4  5  2  0
  5  6  1  0
  6  7  1  0
  7  8  2  0
  8  9  1  0
  9 10  1  0
 10 11  1  0
 11 12  1  0
 12 13  1  0
 10 14  2  0
 14  7  1  0
 14 15  1  0
  5 16  1  0
 16 17  1  0
 16 18  2  0
 18  2  1  0
  1 19  1  0
  1 20  1  0
  1 21  1  0
  4 22  1  0
  6 23  1  0
  6 24  1  0
  8 25  1  0
 11 26  1  0
 11 27  1  0
 12 28  1  0
 12 29  1  0
 13 30  1  0
 15 31  1  0
 15 32  1  0
 15 33  1  0
 17 34  1  0
 17 35  1  0
M  CHG  1   7   1
M  END
> <ID>
HT2036

> <Class>
0.0

> <Clusters>
210

> <Fold>
5

$$$$