
     RDKit          3D

 47 49  0  0  0  0  0  0  0  0999 V2000
   -4.7262    2.0318   -1.0221 C   0  0  0  0  0  0  0  0  0  0  0  0
   -4.0700    1.2393    0.0207 N   0  0  0  0  0  0  0  0  0  0  0  0
   -2.8390    0.5772   -0.4626 C   0  0  2  0  0  0  0  0  0  0  0  0
   -2.7937   -0.8718    0.1026 C   0  0  2  0  0  0  0  0  0  0  0  0
   -3.0925   -0.9047    1.4790 O   0  0  0  0  0  0  0  0  0  0  0  0
   -1.4513   -1.6022   -0.2243 C   0  0  2  0  0  0  0  0  0  0  0  0
   -1.3396   -2.9158    0.4402 N   0  0  0  0  0  0  0  0  0  0  0  0
   -2.2652   -3.9061   -0.1158 C   0  0  0  0  0  0  0  0  0  0  0  0
   -0.2502   -0.7284    0.1799 C   0  0  1  0  0  0  0  0  0  0  0  0
    0.9619   -1.3353   -0.1933 O   0  0  0  0  0  0  0  0  0  0  0  0
    2.0278   -0.6885    0.4815 C   0  0  2  0  0  0  0  0  0  0  0  0
    2.0318   -1.1708    1.8097 O   0  0  0  0  0  0  0  0  0  0  0  0
    1.8768    0.9046    0.4711 C   0  0  1  0  0  0  0  0  0  0  0  0
    3.0661    1.5981    0.1072 O   0  0  0  0  0  0  0  0  0  0  0  0
    4.2239    1.0475    0.6947 C   0  0  2  0  0  0  0  0  0  0  0  0
    5.3743    2.0422    0.5437 C   0  0  0  0  0  0  0  0  0  0  0  0
    4.5641   -0.2736   -0.0080 C   0  0  0  0  0  0  0  0  0  0  0  0
    3.3274   -1.1065   -0.1744 C   0  0  0  0  0  0  0  0  0  0  0  0
    3.3888   -2.1453   -0.8156 O   0  0  0  0  0  0  0  0  0  0  0  0
    0.8667    1.3998   -0.4029 O   0  0  0  0  0  0  0  0  0  0  0  0
   -0.3079    0.6144   -0.5425 C   0  0  2  0  0  0  0  0  0  0  0  0
   -1.5608    1.3963   -0.1105 C   0  0  1  0  0  0  0  0  0  0  0  0
   -1.5991    2.6272   -0.7862 O   0  0  0  0  0  0  0  0  0  0  0  0
   -4.0563    2.8331   -1.3982 H   0  0  0  0  0  0  0  0  0  0  0  0
   -5.0382    1.3768   -1.8636 H   0  0  0  0  0  0  0  0  0  0  0  0
   -5.6388    2.5059   -0.6032 H   0  0  0  0  0  0  0  0  0  0  0  0
   -3.8633    1.8636    0.8354 H   0  0  0  0  0  0  0  0  0  0  0  0
   -2.8679    0.4712   -1.5736 H   0  0  0  0  0  0  0  0  0  0  0  0
   -3.6066   -1.4272   -0.4128 H   0  0  0  0  0  0  0  0  0  0  0  0
   -2.4502   -0.3185    1.9523 H   0  0  0  0  0  0  0  0  0  0  0  0
   -1.3971   -1.7510   -1.3278 H   0  0  0  0  0  0  0  0  0  0  0  0
   -1.5194   -2.8245    1.4671 H   0  0  0  0  0  0  0  0  0  0  0  0
   -2.0194   -4.9051    0.3009 H   0  0  0  0  0  0  0  0  0  0  0  0
   -2.1655   -3.9647   -1.2210 H   0  0  0  0  0  0  0  0  0  0  0  0
   -3.3148   -3.6682    0.1590 H   0  0  0  0  0  0  0  0  0  0  0  0
   -0.3034   -0.5750    1.2847 H   0  0  0  0  0  0  0  0  0  0  0  0
    2.8094   -0.7953    2.2931 H   0  0  0  0  0  0  0  0  0  0  0  0
    1.5970    1.2347    1.4972 H   0  0  0  0  0  0  0  0  0  0  0  0
    4.0836    0.8958    1.7873 H   0  0  0  0  0  0  0  0  0  0  0  0
    5.1264    2.9855    1.0753 H   0  0  0  0  0  0  0  0  0  0  0  0
    5.5516    2.2766   -0.5280 H   0  0  0  0  0  0  0  0  0  0  0  0
    6.3047    1.6237    0.9837 H   0  0  0  0  0  0  0  0  0  0  0  0
    4.9809   -0.0683   -1.0187 H   0  0  0  0  0  0  0  0  0  0  0  0
    5.3183   -0.8372    0.5823 H   0  0  0  0  0  0  0  0  0  0  0  0
   -0.4020    0.4086   -1.6332 H   0  0  0  0  0  0  0  0  0  0  0  0
   -1.5198    1.5731    0.9903 H   0  0  0  0  0  0  0  0  0  0  0  0
   -1.0235    3.2568   -0.2780 H   0  0  0  0  0  0  0  0  0  0  0  0
  1  2  1  0
  3  2  1  0
  3  4  1  0
  4  5  1  0
  4  6  1  0
  6  7  1  0
  7  8  1  0
  6  9  1  0
  9 10  1  0
 10 11  1  0
 11 12  1  1
 11 13  1  0
 13 14  1  0
 14 15  1  0
 15 16  1  0
 15 17  1  0
 17 18  1  0
 18 11  1  0
 18 19  2  0
 13 20  1  0
 21 20  1  0
 21  9  1  0
 21 22  1  0
 22  3  1  0
 22 23  1  0
  1 24  1  0
  1 25  1  0
  1 26  1  0
  2 27  1  0
  3 28  1  6
  4 29  1  6
  5 30  1  0
  6 31  1  6
  7 32  1  0
  8 33  1  0
  8 34  1  0
  8 35  1  0
  9 36  1  1
 12 37  1  0
 13 38  1  1
 15 39  1  1
 16 40  1  0
 16 41  1  0
 16 42  1  0
 17 43  1  0
 17 44  1  0
 21 45  1  6
 22 46  1  1
 23 47  1  0
M  END
> <ID>
HT1909

> <Class>
0.0

> <Clusters>
119

> <Fold>
5

$$$$