
     RDKit          3D

 43 44  0  0  0  0  0  0  0  0999 V2000
    0.4098   -0.6215   -2.4419 C   0  0  0  0  0  0  0  0  0  0  0  0
    0.1716   -0.9504   -0.9525 C   0  0  0  0  0  0  0  0  0  0  0  0
    1.2044   -0.2560   -0.0525 C   0  0  0  0  0  0  0  0  0  0  0  0
    2.5088   -0.7623   -0.3292 O   0  0  0  0  0  0  0  0  0  0  0  0
    3.6760   -0.3474    0.3282 C   0  0  0  0  0  0  0  0  0  0  0  0
    4.8943   -0.9261   -0.0505 C   0  0  0  0  0  0  0  0  0  0  0  0
    6.0852   -0.5451    0.5755 C   0  0  0  0  0  0  0  0  0  0  0  0
    6.0670    0.4190    1.5866 C   0  0  0  0  0  0  0  0  0  0  0  0
    4.8578    1.0029    1.9727 C   0  0  0  0  0  0  0  0  0  0  0  0
    3.6645    0.6245    1.3490 C   0  0  0  0  0  0  0  0  0  0  0  0
   -1.2066   -0.6341   -0.4845 N   0  0  0  0  0  0  0  0  0  0  0  0
   -2.1729   -1.7150   -0.7949 C   0  0  0  0  0  0  0  0  0  0  0  0
   -2.2004   -2.7498    0.3305 C   0  0  0  0  0  0  0  0  0  0  0  0
   -2.7825   -2.0210    1.8503 Cl  0  0  0  0  0  0  0  0  0  0  0  0
   -1.7043    0.6953   -0.9062 C   0  0  0  0  0  0  0  0  0  0  0  0
   -2.7078    1.2110    0.0905 C   0  0  0  0  0  0  0  0  0  0  0  0
   -2.3106    1.4719    1.4126 C   0  0  0  0  0  0  0  0  0  0  0  0
   -3.2380    1.9427    2.3468 C   0  0  0  0  0  0  0  0  0  0  0  0
   -4.5654    2.1600    1.9673 C   0  0  0  0  0  0  0  0  0  0  0  0
   -4.9669    1.9084    0.6524 C   0  0  0  0  0  0  0  0  0  0  0  0
   -4.0426    1.4372   -0.2852 C   0  0  0  0  0  0  0  0  0  0  0  0
    1.3762   -1.0570   -2.7737 H   0  0  0  0  0  0  0  0  0  0  0  0
   -0.3926   -1.0540   -3.0739 H   0  0  0  0  0  0  0  0  0  0  0  0
    0.4517    0.4738   -2.6162 H   0  0  0  0  0  0  0  0  0  0  0  0
    0.3547   -2.0424   -0.8351 H   0  0  0  0  0  0  0  0  0  0  0  0
    0.9511   -0.4616    1.0107 H   0  0  0  0  0  0  0  0  0  0  0  0
    1.1925    0.8420   -0.2192 H   0  0  0  0  0  0  0  0  0  0  0  0
    4.9172   -1.6738   -0.8332 H   0  0  0  0  0  0  0  0  0  0  0  0
    7.0220   -0.9973    0.2765 H   0  0  0  0  0  0  0  0  0  0  0  0
    6.9892    0.7133    2.0706 H   0  0  0  0  0  0  0  0  0  0  0  0
    4.8449    1.7496    2.7563 H   0  0  0  0  0  0  0  0  0  0  0  0
    2.7424    1.0915    1.6668 H   0  0  0  0  0  0  0  0  0  0  0  0
   -1.9214   -2.2220   -1.7519 H   0  0  0  0  0  0  0  0  0  0  0  0
   -3.2073   -1.3206   -0.9103 H   0  0  0  0  0  0  0  0  0  0  0  0
   -1.1908   -3.1785    0.4973 H   0  0  0  0  0  0  0  0  0  0  0  0
   -2.8874   -3.5766    0.0521 H   0  0  0  0  0  0  0  0  0  0  0  0
   -2.1412    0.6413   -1.9294 H   0  0  0  0  0  0  0  0  0  0  0  0
   -0.8827    1.4404   -0.9466 H   0  0  0  0  0  0  0  0  0  0  0  0
   -1.2849    1.3046    1.7184 H   0  0  0  0  0  0  0  0  0  0  0  0
   -2.9279    2.1381    3.3651 H   0  0  0  0  0  0  0  0  0  0  0  0
   -5.2825    2.5239    2.6918 H   0  0  0  0  0  0  0  0  0  0  0  0
   -5.9951    2.0777    0.3598 H   0  0  0  0  0  0  0  0  0  0  0  0
   -4.3694    1.2434   -1.2992 H   0  0  0  0  0  0  0  0  0  0  0  0
  1  2  1  0
  2  3  1  0
  3  4  1  0
  4  5  1  0
  5  6  2  0
  6  7  1  0
  7  8  2  0
  8  9  1  0
  9 10  2  0
 10  5  1  0
  2 11  1  0
 11 12  1  0
 12 13  1  0
 13 14  1  0
 11 15  1  0
 15 16  1  0
 16 17  2  0
 17 18  1  0
 18 19  2  0
 19 20  1  0
 20 21  2  0
 21 16  1  0
  1 22  1  0
  1 23  1  0
  1 24  1  0
  2 25  1  0
  3 26  1  0
  3 27  1  0
  6 28  1  0
  7 29  1  0
  8 30  1  0
  9 31  1  0
 10 32  1  0
 12 33  1  0
 12 34  1  0
 13 35  1  0
 13 36  1  0
 15 37  1  0
 15 38  1  0
 17 39  1  0
 18 40  1  0
 19 41  1  0
 20 42  1  0
 21 43  1  0
M  END
> <ID>
HT1654

> <Class>
0.0

> <Clusters>
31

> <Fold>
5

$$$$