
     RDKit          3D

 40 44  0  0  0  0  0  0  0  0999 V2000
    2.9909    0.0456   -1.8471 C   0  0  0  0  0  0  0  0  0  0  0  0
    2.6988   -0.1340   -0.3426 C   0  0  0  0  0  0  0  0  0  0  0  0
    3.3977   -1.4431    0.1043 C   0  0  0  0  0  0  0  0  0  0  0  0
    3.2634    0.9703    0.3277 O   0  0  0  0  0  0  0  0  0  0  0  0
    1.1390   -0.2279   -0.1144 C   0  0  0  0  0  0  0  0  0  0  0  0
    0.6930   -0.4809    1.3617 C   0  0  0  0  0  0  0  0  0  0  0  0
    0.9328    0.8154    1.9100 O   0  0  0  0  0  0  0  0  0  0  0  0
    0.5928    1.7553    0.9393 C   0  0  0  0  0  0  0  0  0  0  0  0
    0.5627    2.9953    1.1537 O   0  0  0  0  0  0  0  0  0  0  0  0
    0.3487    1.1024   -0.3901 C   0  0  0  0  0  0  0  0  0  0  0  0
   -1.1911    0.7481   -0.6866 C   0  0  0  0  0  0  0  0  0  0  0  0
   -1.3376    0.5411   -2.0747 O   0  0  0  0  0  0  0  0  0  0  0  0
   -2.2737    1.7582   -0.2599 C   0  0  0  0  0  0  0  0  0  0  0  0
   -3.4816    0.9052    0.1743 C   0  0  0  0  0  0  0  0  0  0  0  0
   -3.3612    0.6022    1.4846 O   0  0  0  0  0  0  0  0  0  0  0  0
   -3.0607   -0.4968    0.6009 C   0  0  0  0  0  0  0  0  0  0  0  0
   -2.9032   -1.5383    1.7012 C   0  0  0  0  0  0  0  0  0  0  0  0
   -3.8490   -2.2141    2.1836 O   0  0  0  0  0  0  0  0  0  0  0  0
   -1.5582   -1.7035    2.0915 O   0  0  0  0  0  0  0  0  0  0  0  0
   -0.8693   -0.6618    1.4270 C   0  0  0  0  0  0  0  0  0  0  0  0
   -1.6167   -0.5468    0.0811 C   0  0  0  0  0  0  0  0  0  0  0  0
   -1.5129   -1.8558   -0.7993 C   0  0  0  0  0  0  0  0  0  0  0  0
    4.0864    0.0317   -2.0343 H   0  0  0  0  0  0  0  0  0  0  0  0
    2.6161    1.0189   -2.2214 H   0  0  0  0  0  0  0  0  0  0  0  0
    2.5252   -0.7685   -2.4435 H   0  0  0  0  0  0  0  0  0  0  0  0
    3.3325   -1.5882    1.2014 H   0  0  0  0  0  0  0  0  0  0  0  0
    2.9407   -2.3235   -0.3970 H   0  0  0  0  0  0  0  0  0  0  0  0
    4.4786   -1.4136   -0.1522 H   0  0  0  0  0  0  0  0  0  0  0  0
    3.3556    0.7449    1.2896 H   0  0  0  0  0  0  0  0  0  0  0  0
    0.8294   -1.0543   -0.7631 H   0  0  0  0  0  0  0  0  0  0  0  0
    1.2311   -1.2788    1.9095 H   0  0  0  0  0  0  0  0  0  0  0  0
    0.7845    1.7209   -1.1993 H   0  0  0  0  0  0  0  0  0  0  0  0
   -1.0705    1.3775   -2.5390 H   0  0  0  0  0  0  0  0  0  0  0  0
   -1.9417    2.3963    0.5853 H   0  0  0  0  0  0  0  0  0  0  0  0
   -2.5683    2.4303   -1.0942 H   0  0  0  0  0  0  0  0  0  0  0  0
   -4.5320    1.1186   -0.1116 H   0  0  0  0  0  0  0  0  0  0  0  0
   -1.1668    0.2193    2.0493 H   0  0  0  0  0  0  0  0  0  0  0  0
   -0.9059   -1.7515   -1.7195 H   0  0  0  0  0  0  0  0  0  0  0  0
   -2.5131   -2.1763   -1.1655 H   0  0  0  0  0  0  0  0  0  0  0  0
   -1.0865   -2.7029   -0.2207 H   0  0  0  0  0  0  0  0  0  0  0  0
  1  2  1  0
  2  3  1  0
  2  4  1  0
  2  5  1  0
  5  6  1  0
  6  7  1  0
  7  8  1  0
  8  9  2  0
  8 10  1  0
 10  5  1  0
 10 11  1  0
 11 12  1  0
 11 13  1  0
 13 14  1  0
 14 15  1  0
 15 16  1  0
 16 14  1  0
 16 17  1  0
 17 18  2  0
 17 19  1  0
 19 20  1  0
 20  6  1  0
 20 21  1  0
 21 11  1  0
 21 16  1  0
 21 22  1  0
  1 23  1  0
  1 24  1  0
  1 25  1  0
  3 26  1  0
  3 27  1  0
  3 28  1  0
  4 29  1  0
  5 30  1  0
  6 31  1  0
 10 32  1  0
 12 33  1  0
 13 34  1  0
 13 35  1  0
 14 36  1  0
 20 37  1  0
 22 38  1  0
 22 39  1  0
 22 40  1  0
M  END
> <ID>
HT1671

> <Class>
0.0

> <Clusters>
119

> <Fold>
5

$$$$