
     RDKit          3D

 66 68  0  0  0  0  0  0  0  0999 V2000
   -5.7671    2.8898   -0.1989 O   0  0  0  0  0  0  0  0  0  0  0  0
   -5.3920    2.0530   -1.2597 C   0  0  0  0  0  0  0  0  0  0  0  0
   -5.2014    0.6098   -0.7668 C   0  0  0  0  0  0  0  0  0  0  0  0
   -4.3171    0.6271    0.3495 O   0  0  0  0  0  0  0  0  0  0  0  0
   -3.6506   -0.6054    0.6236 C   0  0  0  0  0  0  0  0  0  0  0  0
   -2.3380   -0.5678    0.0912 O   0  0  0  0  0  0  0  0  0  0  0  0
   -1.4709    0.2502    0.8665 C   0  0  0  0  0  0  0  0  0  0  0  0
   -0.7668    1.2730   -0.0595 C   0  0  0  0  0  0  0  0  0  0  0  0
   -1.6449    1.7499   -1.0459 O   0  0  0  0  0  0  0  0  0  0  0  0
    0.4778    0.6592   -0.7191 C   0  0  0  0  0  0  0  0  0  0  0  0
    0.0877   -0.3627   -1.6013 O   0  0  0  0  0  0  0  0  0  0  0  0
    1.4446    0.0974    0.3683 C   0  0  0  0  0  0  0  0  0  0  0  0
    2.5479    0.9847    0.4790 O   0  0  0  0  0  0  0  0  0  0  0  0
    3.7971    0.3713    0.1920 C   0  0  0  0  0  0  0  0  0  0  0  0
    4.4480   -0.1416    1.4943 C   0  0  0  0  0  0  0  0  0  0  0  0
    3.6512   -1.1159    2.1210 O   0  0  0  0  0  0  0  0  0  0  0  0
    5.8772   -0.6888    1.2312 C   0  0  0  0  0  0  0  0  0  0  0  0
    6.7197   -0.3903    2.3174 O   0  0  0  0  0  0  0  0  0  0  0  0
    6.4566   -0.1491   -0.0981 C   0  0  0  0  0  0  0  0  0  0  0  0
    7.8511   -0.2997   -0.1002 O   0  0  0  0  0  0  0  0  0  0  0  0
    6.1327    1.2205   -0.2583 O   0  0  0  0  0  0  0  0  0  0  0  0
    4.7347    1.4421   -0.4442 C   0  0  0  0  0  0  0  0  0  0  0  0
    4.4224    1.6934   -1.9292 C   0  0  0  0  0  0  0  0  0  0  0  0
    4.7193    0.5674   -2.7112 O   0  0  0  0  0  0  0  0  0  0  0  0
    0.8274    0.0233    1.6461 O   0  0  0  0  0  0  0  0  0  0  0  0
   -0.4142   -0.6540    1.5650 C   0  0  0  0  0  0  0  0  0  0  0  0
   -0.8594   -1.0538    2.9782 C   0  0  0  0  0  0  0  0  0  0  0  0
    0.1001   -1.8872    3.5730 O   0  0  0  0  0  0  0  0  0  0  0  0
   -4.3731   -1.8595    0.0876 C   0  0  0  0  0  0  0  0  0  0  0  0
   -5.6152   -1.9826    0.7367 O   0  0  0  0  0  0  0  0  0  0  0  0
   -4.5698   -1.7725   -1.4428 C   0  0  0  0  0  0  0  0  0  0  0  0
   -3.4795   -2.3825   -2.0859 O   0  0  0  0  0  0  0  0  0  0  0  0
   -4.6993   -0.3036   -1.9170 C   0  0  0  0  0  0  0  0  0  0  0  0
   -5.5360   -0.2273   -3.0455 O   0  0  0  0  0  0  0  0  0  0  0  0
   -6.7219    2.6960   -0.0059 H   0  0  0  0  0  0  0  0  0  0  0  0
   -6.1624    2.0934   -2.0626 H   0  0  0  0  0  0  0  0  0  0  0  0
   -4.4412    2.4339   -1.6885 H   0  0  0  0  0  0  0  0  0  0  0  0
   -6.1969    0.2478   -0.4248 H   0  0  0  0  0  0  0  0  0  0  0  0
   -3.6192   -0.7319    1.7301 H   0  0  0  0  0  0  0  0  0  0  0  0
   -2.0083    0.8627    1.6332 H   0  0  0  0  0  0  0  0  0  0  0  0
   -0.4177    2.1332    0.5617 H   0  0  0  0  0  0  0  0  0  0  0  0
   -2.2638    2.3783   -0.5911 H   0  0  0  0  0  0  0  0  0  0  0  0
    0.9840    1.4653   -1.3011 H   0  0  0  0  0  0  0  0  0  0  0  0
    0.8622   -0.5341   -2.1981 H   0  0  0  0  0  0  0  0  0  0  0  0
    1.7421   -0.9387    0.0778 H   0  0  0  0  0  0  0  0  0  0  0  0
    3.7108   -0.4755   -0.5281 H   0  0  0  0  0  0  0  0  0  0  0  0
    4.5159    0.7263    2.1883 H   0  0  0  0  0  0  0  0  0  0  0  0
    3.5373   -1.8680    1.4838 H   0  0  0  0  0  0  0  0  0  0  0  0
    5.8373   -1.7961    1.1376 H   0  0  0  0  0  0  0  0  0  0  0  0
    6.8527    0.5938    2.3329 H   0  0  0  0  0  0  0  0  0  0  0  0
    6.0453   -0.7491   -0.9447 H   0  0  0  0  0  0  0  0  0  0  0  0
    8.1632   -0.0109   -0.9975 H   0  0  0  0  0  0  0  0  0  0  0  0
    4.5152    2.4005    0.0779 H   0  0  0  0  0  0  0  0  0  0  0  0
    3.3567    1.9981   -2.0498 H   0  0  0  0  0  0  0  0  0  0  0  0
    5.0450    2.5398   -2.2879 H   0  0  0  0  0  0  0  0  0  0  0  0
    3.8691    0.0736   -2.8448 H   0  0  0  0  0  0  0  0  0  0  0  0
   -0.2987   -1.6048    0.9886 H   0  0  0  0  0  0  0  0  0  0  0  0
   -1.0326   -0.1484    3.6048 H   0  0  0  0  0  0  0  0  0  0  0  0
   -1.8123   -1.6187    2.9212 H   0  0  0  0  0  0  0  0  0  0  0  0
    0.7963   -1.2938    3.9571 H   0  0  0  0  0  0  0  0  0  0  0  0
   -3.7470   -2.7506    0.3343 H   0  0  0  0  0  0  0  0  0  0  0  0
   -5.9106   -2.9232    0.6161 H   0  0  0  0  0  0  0  0  0  0  0  0
   -5.4982   -2.3360   -1.7000 H   0  0  0  0  0  0  0  0  0  0  0  0
   -3.7528   -2.5392   -3.0275 H   0  0  0  0  0  0  0  0  0  0  0  0
   -3.6932    0.0655   -2.2188 H   0  0  0  0  0  0  0  0  0  0  0  0
   -6.4571   -0.4573   -2.7516 H   0  0  0  0  0  0  0  0  0  0  0  0
  1  2  1  0
  2  3  1  0
  3  4  1  0
  4  5  1  0
  5  6  1  0
  6  7  1  0
  7  8  1  0
  8  9  1  0
  8 10  1  0
 10 11  1  0
 10 12  1  0
 12 13  1  0
 13 14  1  0
 14 15  1  0
 15 16  1  0
 15 17  1  0
 17 18  1  0
 17 19  1  0
 19 20  1  0
 19 21  1  0
 21 22  1  0
 22 14  1  0
 22 23  1  0
 23 24  1  0
 12 25  1  0
 25 26  1  0
 26  7  1  0
 26 27  1  0
 27 28  1  0
  5 29  1  0
 29 30  1  0
 29 31  1  0
 31 32  1  0
 31 33  1  0
 33  3  1  0
 33 34  1  0
  1 35  1  0
  2 36  1  0
  2 37  1  0
  3 38  1  0
  5 39  1  0
  7 40  1  0
  8 41  1  0
  9 42  1  0
 10 43  1  0
 11 44  1  0
 12 45  1  0
 14 46  1  0
 15 47  1  0
 16 48  1  0
 17 49  1  0
 18 50  1  0
 19 51  1  0
 20 52  1  0
 22 53  1  0
 23 54  1  0
 23 55  1  0
 24 56  1  0
 26 57  1  0
 27 58  1  0
 27 59  1  0
 28 60  1  0
 29 61  1  0
 30 62  1  0
 31 63  1  0
 32 64  1  0
 33 65  1  0
 34 66  1  0
M  END
> <ID>
HT3889

> <Class>
0.0

> <Clusters>
143

> <Fold>
5

$$$$