
     RDKit          3D

 38 41  0  0  0  0  0  0  0  0999 V2000
    2.5941   -2.3676    1.5267 C   0  0  0  0  0  0  0  0  0  0  0  0
    1.5200   -1.9312    0.5073 C   0  0  1  0  0  0  0  0  0  0  0  0
    0.1393   -2.2829    1.0931 C   0  0  0  0  0  0  0  0  0  0  0  0
   -0.8900   -1.6849    0.3272 O   0  0  0  0  0  0  0  0  0  0  0  0
   -0.7950   -0.3479   -0.0436 C   0  0  0  0  0  0  0  0  0  0  0  0
    0.4775    0.2545   -0.1121 C   0  0  0  0  0  0  0  0  0  0  0  0
    1.6129   -0.4838    0.1503 N   0  0  0  0  0  0  0  0  0  0  0  0
    2.8462    0.0842   -0.0494 C   0  0  0  0  0  0  0  0  0  0  0  0
    2.9963    1.4346   -0.4062 C   0  0  0  0  0  0  0  0  0  0  0  0
    4.3630    2.0069   -0.5604 C   0  0  0  0  0  0  0  0  0  0  0  0
    5.3793    1.2980   -0.3255 O   0  0  0  0  0  0  0  0  0  0  0  0
    4.5446    3.3273   -0.9640 O   0  0  0  0  0  0  0  0  0  0  0  0
    1.8410    2.2043   -0.6257 C   0  0  0  0  0  0  0  0  0  0  0  0
    1.9376    3.4217   -0.9452 O   0  0  0  0  0  0  0  0  0  0  0  0
    0.5741    1.6109   -0.5069 C   0  0  0  0  0  0  0  0  0  0  0  0
   -0.5958    2.3321   -0.8113 C   0  0  0  0  0  0  0  0  0  0  0  0
   -1.8461    1.7180   -0.7505 C   0  0  0  0  0  0  0  0  0  0  0  0
   -2.9492    2.4308   -1.0937 F   0  0  0  0  0  0  0  0  0  0  0  0
   -1.9579    0.3787   -0.3524 C   0  0  0  0  0  0  0  0  0  0  0  0
   -3.3096   -0.2906   -0.3155 C   0  0  0  0  0  0  0  0  0  0  0  0
   -3.7408   -0.9918   -1.5273 N   0  0  0  0  0  0  0  0  0  0  0  0
   -3.7417   -0.9226    1.0042 C   0  0  0  0  0  0  0  0  0  0  0  0
   -4.4126    0.3570    0.5158 C   0  0  0  0  0  0  0  0  0  0  0  0
    2.6587   -1.6358    2.3603 H   0  0  0  0  0  0  0  0  0  0  0  0
    3.5866   -2.4698    1.0422 H   0  0  0  0  0  0  0  0  0  0  0  0
    2.3516   -3.3664    1.9498 H   0  0  0  0  0  0  0  0  0  0  0  0
    1.6611   -2.5285   -0.4205 H   0  0  0  0  0  0  0  0  0  0  0  0
    0.0628   -1.9043    2.1367 H   0  0  0  0  0  0  0  0  0  0  0  0
   -0.0102   -3.3836    1.1073 H   0  0  0  0  0  0  0  0  0  0  0  0
    3.7403   -0.5109    0.0616 H   0  0  0  0  0  0  0  0  0  0  0  0
    5.4738    3.7171   -1.0687 H   0  0  0  0  0  0  0  0  0  0  0  0
   -0.5453    3.3679   -1.1245 H   0  0  0  0  0  0  0  0  0  0  0  0
   -3.8742   -0.2725   -2.2740 H   0  0  0  0  0  0  0  0  0  0  0  0
   -4.6705   -1.4501   -1.3854 H   0  0  0  0  0  0  0  0  0  0  0  0
   -3.0640   -0.7572    1.8692 H   0  0  0  0  0  0  0  0  0  0  0  0
   -4.3892   -1.8219    0.9284 H   0  0  0  0  0  0  0  0  0  0  0  0
   -5.4502    0.2055    0.1497 H   0  0  0  0  0  0  0  0  0  0  0  0
   -4.1186    1.2548    1.1005 H   0  0  0  0  0  0  0  0  0  0  0  0
  2  1  1  0
  2  3  1  0
  3  4  1  0
  4  5  1  0
  5  6  2  0
  6  7  1  0
  7  2  1  0
  7  8  1  0
  8  9  2  0
  9 10  1  0
 10 11  2  0
 10 12  1  0
  9 13  1  0
 13 14  2  0
 13 15  1  0
 15  6  1  0
 15 16  2  0
 16 17  1  0
 17 18  1  0
 17 19  2  0
 19  5  1  0
 19 20  1  0
 20 21  1  0
 20 22  1  0
 22 23  1  0
 23 20  1  0
  1 24  1  0
  1 25  1  0
  1 26  1  0
  2 27  1  6
  3 28  1  0
  3 29  1  0
  8 30  1  0
 12 31  1  0
 16 32  1  0
 21 33  1  0
 21 34  1  0
 22 35  1  0
 22 36  1  0
 23 37  1  0
 23 38  1  0
M  END
> <ID>
HT1601

> <Class>
0.0

> <Clusters>
117

> <Fold>
5

$$$$