
     RDKit          3D

 30 30  0  0  0  0  0  0  0  0999 V2000
    3.4867    0.4343   -1.3701 C   0  0  0  0  0  0  0  0  0  0  0  0
    2.2770    0.0125   -0.5241 C   0  0  0  0  0  0  0  0  0  0  0  0
    2.6561   -1.2061    0.3329 C   0  0  0  0  0  0  0  0  0  0  0  0
    1.7927    1.2107    0.3403 C   0  0  0  0  0  0  0  0  0  0  0  0
    0.3228    1.1517    0.8105 C   0  0  0  0  0  0  0  0  0  0  0  0
    0.0726    0.0116    1.6848 N   0  0  0  0  0  0  0  0  0  0  0  0
   -0.9626   -0.7732    1.1099 C   0  0  0  0  0  0  0  0  0  0  0  0
   -1.6069   -2.0813    1.8550 S   0  0  0  0  0  0  0  0  0  0  0  0
   -1.4221   -0.2468   -0.1284 N   0  0  0  0  0  0  0  0  0  0  0  0
   -2.6558   -0.6121   -0.8252 C   0  0  0  0  0  0  0  0  0  0  0  0
   -3.8277    0.0871   -0.1946 C   0  0  0  0  0  0  0  0  0  0  0  0
   -4.8289   -0.5866    0.3783 C   0  0  0  0  0  0  0  0  0  0  0  0
   -0.6561    0.9445   -0.3132 C   0  0  0  0  0  0  0  0  0  0  0  0
   -0.9761    2.0680   -1.4637 S   0  0  0  0  0  0  0  0  0  0  0  0
    4.3256    0.7600   -0.7178 H   0  0  0  0  0  0  0  0  0  0  0  0
    3.8308   -0.4113   -2.0033 H   0  0  0  0  0  0  0  0  0  0  0  0
    3.2104    1.2717   -2.0460 H   0  0  0  0  0  0  0  0  0  0  0  0
    1.4778   -0.2949   -1.2322 H   0  0  0  0  0  0  0  0  0  0  0  0
    3.0975   -2.0019   -0.3045 H   0  0  0  0  0  0  0  0  0  0  0  0
    1.7651   -1.6451    0.8208 H   0  0  0  0  0  0  0  0  0  0  0  0
    3.3975   -0.9260    1.1115 H   0  0  0  0  0  0  0  0  0  0  0  0
    1.8997    2.1507   -0.2451 H   0  0  0  0  0  0  0  0  0  0  0  0
    2.4516    1.3256    1.2288 H   0  0  0  0  0  0  0  0  0  0  0  0
    0.0687    2.0870    1.3549 H   0  0  0  0  0  0  0  0  0  0  0  0
    0.5179   -0.1520    2.6153 H   0  0  0  0  0  0  0  0  0  0  0  0
   -2.5882   -0.3141   -1.8924 H   0  0  0  0  0  0  0  0  0  0  0  0
   -2.7808   -1.7166   -0.8042 H   0  0  0  0  0  0  0  0  0  0  0  0
   -3.8565    1.1726   -0.2023 H   0  0  0  0  0  0  0  0  0  0  0  0
   -4.8316   -1.6719    0.4094 H   0  0  0  0  0  0  0  0  0  0  0  0
   -5.6575   -0.0480    0.8263 H   0  0  0  0  0  0  0  0  0  0  0  0
  1  2  1  0
  2  3  1  0
  2  4  1  0
  4  5  1  0
  5  6  1  0
  6  7  1  0
  7  8  2  0
  7  9  1  0
  9 10  1  0
 10 11  1  0
 11 12  2  3
  9 13  1  0
 13  5  1  0
 13 14  2  0
  1 15  1  0
  1 16  1  0
  1 17  1  0
  2 18  1  0
  3 19  1  0
  3 20  1  0
  3 21  1  0
  4 22  1  0
  4 23  1  0
  5 24  1  0
  6 25  1  0
 10 26  1  0
 10 27  1  0
 11 28  1  0
 12 29  1  0
 12 30  1  0
M  END
> <ID>
HT2993

> <Class>
0.0

> <Clusters>
258

> <Fold>
5

$$$$