
     RDKit          3D

 59 60  0  0  0  0  0  0  0  0999 V2000
   -4.2090   -0.0499    1.8808 C   0  0  0  0  0  0  0  0  0  0  0  0
   -3.8696   -0.5225    0.4518 C   0  0  0  0  0  0  0  0  0  0  0  0
   -2.6930    0.1492   -0.2044 N   0  0  0  0  0  0  0  0  0  0  0  0
   -2.6011   -0.3386   -1.6260 C   0  0  0  0  0  0  0  0  0  0  0  0
   -2.3944   -1.8542   -1.8118 C   0  0  0  0  0  0  0  0  0  0  0  0
   -2.8559    1.6466   -0.2315 C   0  0  0  0  0  0  0  0  0  0  0  0
   -4.2066    2.1737   -0.7553 C   0  0  0  0  0  0  0  0  0  0  0  0
   -1.4515   -0.1881    0.5824 C   0  0  0  0  0  0  0  0  0  0  0  0
   -0.1154    0.4174    0.0537 C   0  0  0  0  0  0  0  0  0  0  0  0
    1.1594   -0.0488    0.8455 C   0  0  0  0  0  0  0  0  0  0  0  0
    0.9746    0.2999    2.2039 O   0  0  0  0  0  0  0  0  0  0  0  0
    2.4567    0.7057    0.3656 C   0  0  0  0  0  0  0  0  0  0  0  0
    2.8016    0.5109   -1.1336 C   0  0  0  0  0  0  0  0  0  0  0  0
    4.1374    1.1799   -1.4855 C   0  0  0  0  0  0  0  0  0  0  0  0
    4.1214    2.6704   -1.1323 C   0  0  0  0  0  0  0  0  0  0  0  0
    3.7820    2.8781    0.3470 C   0  0  0  0  0  0  0  0  0  0  0  0
    2.4407    2.2219    0.6975 C   0  0  0  0  0  0  0  0  0  0  0  0
    1.4136   -1.5704    0.7324 C   0  0  0  0  0  0  0  0  0  0  0  0
    1.1394   -2.2941   -0.4504 C   0  0  0  0  0  0  0  0  0  0  0  0
    1.3955   -3.6656   -0.5288 C   0  0  0  0  0  0  0  0  0  0  0  0
    1.9529   -4.3383    0.5575 C   0  0  0  0  0  0  0  0  0  0  0  0
    2.2705   -3.6372    1.7199 C   0  0  0  0  0  0  0  0  0  0  0  0
    2.0152   -2.2659    1.8053 C   0  0  0  0  0  0  0  0  0  0  0  0
   -3.4501   -0.3949    2.6116 H   0  0  0  0  0  0  0  0  0  0  0  0
   -4.3250    1.0475    1.9558 H   0  0  0  0  0  0  0  0  0  0  0  0
   -5.1750   -0.5041    2.1846 H   0  0  0  0  0  0  0  0  0  0  0  0
   -4.7835   -0.4139   -0.1740 H   0  0  0  0  0  0  0  0  0  0  0  0
   -3.6937   -1.6177    0.5335 H   0  0  0  0  0  0  0  0  0  0  0  0
   -3.5371   -0.1048   -2.1752 H   0  0  0  0  0  0  0  0  0  0  0  0
   -1.8057    0.1953   -2.1872 H   0  0  0  0  0  0  0  0  0  0  0  0
   -2.2112   -2.0613   -2.8873 H   0  0  0  0  0  0  0  0  0  0  0  0
   -1.5263   -2.2404   -1.2540 H   0  0  0  0  0  0  0  0  0  0  0  0
   -3.3027   -2.4218   -1.5244 H   0  0  0  0  0  0  0  0  0  0  0  0
   -2.6916    2.0822    0.7787 H   0  0  0  0  0  0  0  0  0  0  0  0
   -2.0796    2.1077   -0.8811 H   0  0  0  0  0  0  0  0  0  0  0  0
   -5.0514    1.8678   -0.1130 H   0  0  0  0  0  0  0  0  0  0  0  0
   -4.3979    1.8655   -1.7999 H   0  0  0  0  0  0  0  0  0  0  0  0
   -4.1833    3.2839   -0.7438 H   0  0  0  0  0  0  0  0  0  0  0  0
   -1.3422   -1.2857    0.7011 H   0  0  0  0  0  0  0  0  0  0  0  0
   -1.5672    0.2024    1.6132 H   0  0  0  0  0  0  0  0  0  0  0  0
   -0.1905    1.5160    0.1550 H   0  0  0  0  0  0  0  0  0  0  0  0
    0.0099    0.2095   -1.0202 H   0  0  0  0  0  0  0  0  0  0  0  0
    0.3326   -0.3319    2.6199 H   0  0  0  0  0  0  0  0  0  0  0  0
    3.3017    0.2705    0.9486 H   0  0  0  0  0  0  0  0  0  0  0  0
    2.8998   -0.5660   -1.3738 H   0  0  0  0  0  0  0  0  0  0  0  0
    2.0083    0.9447   -1.7786 H   0  0  0  0  0  0  0  0  0  0  0  0
    4.3295    1.0649   -2.5741 H   0  0  0  0  0  0  0  0  0  0  0  0
    4.9644    0.6758   -0.9385 H   0  0  0  0  0  0  0  0  0  0  0  0
    3.3741    3.1970   -1.7654 H   0  0  0  0  0  0  0  0  0  0  0  0
    5.1201    3.1079   -1.3457 H   0  0  0  0  0  0  0  0  0  0  0  0
    3.7230    3.9672    0.5587 H   0  0  0  0  0  0  0  0  0  0  0  0
    4.5887    2.4490    0.9812 H   0  0  0  0  0  0  0  0  0  0  0  0
    2.2528    2.3813    1.7806 H   0  0  0  0  0  0  0  0  0  0  0  0
    1.6423    2.7425    0.1287 H   0  0  0  0  0  0  0  0  0  0  0  0
    0.7548   -1.8072   -1.3323 H   0  0  0  0  0  0  0  0  0  0  0  0
    1.1722   -4.2052   -1.4403 H   0  0  0  0  0  0  0  0  0  0  0  0
    2.1547   -5.3994    0.4922 H   0  0  0  0  0  0  0  0  0  0  0  0
    2.7224   -4.1556    2.5556 H   0  0  0  0  0  0  0  0  0  0  0  0
    2.2984   -1.7487    2.7130 H   0  0  0  0  0  0  0  0  0  0  0  0
  1  2  1  0
  2  3  1  0
  3  4  1  0
  4  5  1  0
  3  6  1  0
  6  7  1  0
  3  8  1  0
  8  9  1  0
  9 10  1  0
 10 11  1  0
 10 12  1  0
 12 13  1  0
 13 14  1  0
 14 15  1  0
 15 16  1  0
 16 17  1  0
 17 12  1  0
 10 18  1  0
 18 19  2  0
 19 20  1  0
 20 21  2  0
 21 22  1  0
 22 23  2  0
 23 18  1  0
  1 24  1  0
  1 25  1  0
  1 26  1  0
  2 27  1  0
  2 28  1  0
  4 29  1  0
  4 30  1  0
  5 31  1  0
  5 32  1  0
  5 33  1  0
  6 34  1  0
  6 35  1  0
  7 36  1  0
  7 37  1  0
  7 38  1  0
  8 39  1  0
  8 40  1  0
  9 41  1  0
  9 42  1  0
 11 43  1  0
 12 44  1  0
 13 45  1  0
 13 46  1  0
 14 47  1  0
 14 48  1  0
 15 49  1  0
 15 50  1  0
 16 51  1  0
 16 52  1  0
 17 53  1  0
 17 54  1  0
 19 55  1  0
 20 56  1  0
 21 57  1  0
 22 58  1  0
 23 59  1  0
M  CHG  1   3   1
M  END
> <ID>
HT2116

> <Class>
0.0

> <Clusters>
187

> <Fold>
5

$$$$