
     RDKit          3D

 40 40  0  0  0  0  0  0  0  0999 V2000
    3.2957   -1.2204   -0.9043 C   0  0  0  0  0  0  0  0  0  0  0  0
    2.8022    0.1634   -0.9954 N   0  0  0  0  0  0  0  0  0  0  0  0
    3.6927    1.0973   -0.2892 C   0  0  0  0  0  0  0  0  0  0  0  0
    1.3840    0.2994   -0.5930 C   0  0  0  0  0  0  0  0  0  0  0  0
    1.1361    0.1254    0.9265 C   0  0  0  0  0  0  0  0  0  0  0  0
   -0.3389   -0.1541    1.3202 C   0  0  0  0  0  0  0  0  0  0  0  0
   -1.2151    1.0980    1.1933 C   0  0  0  0  0  0  0  0  0  0  0  0
   -1.5793    1.5613   -0.0227 C   0  0  0  0  0  0  0  0  0  0  0  0
   -2.3605    2.8012   -0.2404 C   0  0  0  0  0  0  0  0  0  0  0  0
   -2.8517    3.1524   -1.4320 C   0  0  0  0  0  0  0  0  0  0  0  0
   -2.6695    2.0973   -3.0229 Br  0  0  0  0  0  0  0  0  0  0  0  0
   -1.7007    1.7672    2.4290 C   0  0  0  0  0  0  0  0  0  0  0  0
   -0.9367    1.9279    3.5084 C   0  0  0  0  0  0  0  0  0  0  0  0
   -0.9123   -1.3947    0.6468 C   0  0  0  0  0  0  0  0  0  0  0  0
   -0.2884   -2.6435    0.8180 C   0  0  0  0  0  0  0  0  0  0  0  0
   -0.8297   -3.7757    0.2063 C   0  0  0  0  0  0  0  0  0  0  0  0
   -1.9907   -3.6649   -0.5584 C   0  0  0  0  0  0  0  0  0  0  0  0
   -2.5992   -2.4170   -0.6954 C   0  0  0  0  0  0  0  0  0  0  0  0
   -2.0560   -1.3258   -0.0940 N   0  0  0  0  0  0  0  0  0  0  0  0
    2.5751   -1.9263   -1.3707 H   0  0  0  0  0  0  0  0  0  0  0  0
    4.2521   -1.3091   -1.4621 H   0  0  0  0  0  0  0  0  0  0  0  0
    3.4777   -1.5270    0.1476 H   0  0  0  0  0  0  0  0  0  0  0  0
    3.8197    0.8109    0.7776 H   0  0  0  0  0  0  0  0  0  0  0  0
    3.2903    2.1317   -0.3444 H   0  0  0  0  0  0  0  0  0  0  0  0
    4.6915    1.1017   -0.7755 H   0  0  0  0  0  0  0  0  0  0  0  0
    0.7746   -0.4273   -1.1718 H   0  0  0  0  0  0  0  0  0  0  0  0
    1.0360    1.3088   -0.8983 H   0  0  0  0  0  0  0  0  0  0  0  0
    1.4754    1.0438    1.4530 H   0  0  0  0  0  0  0  0  0  0  0  0
    1.7579   -0.7017    1.3212 H   0  0  0  0  0  0  0  0  0  0  0  0
   -0.3086   -0.4236    2.3987 H   0  0  0  0  0  0  0  0  0  0  0  0
   -1.2665    1.0106   -0.8972 H   0  0  0  0  0  0  0  0  0  0  0  0
   -2.5338    3.4798    0.5844 H   0  0  0  0  0  0  0  0  0  0  0  0
   -3.4012    4.0811   -1.5184 H   0  0  0  0  0  0  0  0  0  0  0  0
   -2.7069    2.1666    2.4547 H   0  0  0  0  0  0  0  0  0  0  0  0
    0.0909    1.5900    3.5329 H   0  0  0  0  0  0  0  0  0  0  0  0
   -1.3352    2.4300    4.3804 H   0  0  0  0  0  0  0  0  0  0  0  0
    0.6037   -2.7432    1.4223 H   0  0  0  0  0  0  0  0  0  0  0  0
   -0.3518   -4.7390    0.3293 H   0  0  0  0  0  0  0  0  0  0  0  0
   -2.4181   -4.5377   -1.0347 H   0  0  0  0  0  0  0  0  0  0  0  0
   -3.5045   -2.3150   -1.2786 H   0  0  0  0  0  0  0  0  0  0  0  0
  1  2  1  0
  2  3  1  0
  2  4  1  0
  4  5  1  0
  5  6  1  0
  6  7  1  0
  7  8  2  3
  8  9  1  0
  9 10  2  3
 10 11  1  0
  7 12  1  0
 12 13  2  3
  6 14  1  0
 14 15  2  0
 15 16  1  0
 16 17  2  0
 17 18  1  0
 18 19  2  0
 19 14  1  0
  1 20  1  0
  1 21  1  0
  1 22  1  0
  3 23  1  0
  3 24  1  0
  3 25  1  0
  4 26  1  0
  4 27  1  0
  5 28  1  0
  5 29  1  0
  6 30  1  0
  8 31  1  0
  9 32  1  0
 10 33  1  0
 12 34  1  0
 13 35  1  0
 13 36  1  0
 15 37  1  0
 16 38  1  0
 17 39  1  0
 18 40  1  0
M  END
> <ID>
HT3466

> <Class>
0.0

> <Clusters>
0

> <Fold>
5

$$$$