
     RDKit          3D

 28 28  0  0  0  0  0  0  0  0999 V2000
    3.2706    2.5992    1.0372 O   0  0  0  0  0  0  0  0  0  0  0  0
    3.2626    1.4752    0.5582 C   0  0  0  0  0  0  0  0  0  0  0  0
    1.9422    0.7582    0.3693 C   0  0  0  0  0  0  0  0  0  0  0  0
    4.5723    0.8369    0.1868 C   0  0  0  0  0  0  0  0  0  0  0  0
    1.7900    0.3706   -1.0411 C   0  0  0  0  0  0  0  0  0  0  0  0
    1.8063   -0.4597    1.2637 C   0  0  0  0  0  0  0  0  0  0  0  0
    1.6683    0.0651   -2.1508 N   0  0  0  0  0  0  0  0  0  0  0  0
    2.7372   -0.7646    2.0586 O   0  0  0  0  0  0  0  0  0  0  0  0
    0.6566   -1.3203    1.1956 N   0  0  0  0  0  0  0  0  0  0  0  0
   -0.6188   -0.9238    0.6725 C   0  0  0  0  0  0  0  0  0  0  0  0
   -1.2894   -1.7632   -0.2256 C   0  0  0  0  0  0  0  0  0  0  0  0
   -1.2416    0.2551    1.1080 C   0  0  0  0  0  0  0  0  0  0  0  0
   -2.5433   -1.4032   -0.7279 C   0  0  0  0  0  0  0  0  0  0  0  0
   -2.4957    0.6168    0.6078 C   0  0  0  0  0  0  0  0  0  0  0  0
   -3.1468   -0.1951   -0.3372 C   0  0  0  0  0  0  0  0  0  0  0  0
   -4.5206    0.1699   -0.8402 C   0  0  0  0  0  0  0  0  0  0  0  0
   -4.6768    1.5447   -0.8799 F   0  0  0  0  0  0  0  0  0  0  0  0
   -5.4727   -0.3675    0.0056 F   0  0  0  0  0  0  0  0  0  0  0  0
   -4.7207   -0.3250   -2.1173 F   0  0  0  0  0  0  0  0  0  0  0  0
    1.1269    1.4701    0.6091 H   0  0  0  0  0  0  0  0  0  0  0  0
    5.2244    0.7771    1.0833 H   0  0  0  0  0  0  0  0  0  0  0  0
    4.4202   -0.1888   -0.2101 H   0  0  0  0  0  0  0  0  0  0  0  0
    5.0766    1.4489   -0.5899 H   0  0  0  0  0  0  0  0  0  0  0  0
    0.7793   -2.3182    1.4810 H   0  0  0  0  0  0  0  0  0  0  0  0
   -0.8347   -2.6936   -0.5421 H   0  0  0  0  0  0  0  0  0  0  0  0
   -0.7686    0.8805    1.8541 H   0  0  0  0  0  0  0  0  0  0  0  0
   -3.0427   -2.0710   -1.4187 H   0  0  0  0  0  0  0  0  0  0  0  0
   -2.9612    1.5258    0.9676 H   0  0  0  0  0  0  0  0  0  0  0  0
  1  2  2  0
  2  3  1  0
  4  2  1  0
  3  5  1  0
  3  6  1  0
  5  7  3  0
  6  8  2  0
  6  9  1  0
  9 10  1  0
 10 11  2  0
 12 10  1  0
 11 13  1  0
 14 12  2  0
 13 15  2  0
 15 14  1  0
 15 16  1  0
 16 17  1  0
 16 18  1  0
 16 19  1  0
  3 20  1  0
  4 21  1  0
  4 22  1  0
  4 23  1  0
  9 24  1  0
 11 25  1  0
 12 26  1  0
 13 27  1  0
 14 28  1  0
M  END
> <ID>
HT2012

> <Class>
0.0

> <Clusters>
108

> <Fold>
5

$$$$