
     RDKit          3D

 53 55  0  0  0  0  0  0  0  0999 V2000
    2.7329   -1.7986   -0.8243 C   0  0  0  0  0  0  0  0  0  0  0  0
    3.0684   -0.4416   -0.3803 N   0  0  0  0  0  0  0  0  0  0  0  0
    4.0764   -0.2793    0.6690 C   0  0  0  0  0  0  0  0  0  0  0  0
    5.0373    0.8360    0.2758 C   0  0  0  0  0  0  0  0  0  0  0  0
    4.2586    2.1337    0.0268 C   0  0  0  0  0  0  0  0  0  0  0  0
    3.0358    1.9114   -0.7518 N   0  0  0  0  0  0  0  0  0  0  0  0
    2.4845    0.7494   -0.9593 C   0  0  0  0  0  0  0  0  0  0  0  0
    1.2214    0.6963   -1.7677 C   0  0  0  0  0  0  0  0  0  0  0  0
    0.1986    0.0826   -0.9932 O   0  0  0  0  0  0  0  0  0  0  0  0
   -1.1013   -0.1114   -1.4591 C   0  0  0  0  0  0  0  0  0  0  0  0
   -1.3860    0.2277   -2.6426 O   0  0  0  0  0  0  0  0  0  0  0  0
   -2.1976   -0.7029   -0.5696 C   0  0  0  0  0  0  0  0  0  0  0  0
   -3.1909   -1.2090   -1.4417 O   0  0  0  0  0  0  0  0  0  0  0  0
   -2.9237    0.3914    0.3066 C   0  0  0  0  0  0  0  0  0  0  0  0
   -2.2093    0.9175    1.5820 C   0  0  0  0  0  0  0  0  0  0  0  0
   -1.2237    2.0585    1.3134 C   0  0  0  0  0  0  0  0  0  0  0  0
   -1.9145    3.2128    0.5866 C   0  0  0  0  0  0  0  0  0  0  0  0
   -2.5311    2.7391   -0.7299 C   0  0  0  0  0  0  0  0  0  0  0  0
   -3.5138    1.5745   -0.5134 C   0  0  0  0  0  0  0  0  0  0  0  0
   -1.6916   -1.8729    0.3162 C   0  0  0  0  0  0  0  0  0  0  0  0
   -0.4817   -1.8110    1.0510 C   0  0  0  0  0  0  0  0  0  0  0  0
   -0.0572   -2.8861    1.8364 C   0  0  0  0  0  0  0  0  0  0  0  0
   -0.8332   -4.0390    1.9274 C   0  0  0  0  0  0  0  0  0  0  0  0
   -2.0476   -4.1121    1.2493 C   0  0  0  0  0  0  0  0  0  0  0  0
   -2.4798   -3.0409    0.4627 C   0  0  0  0  0  0  0  0  0  0  0  0
    1.9724   -1.8081   -1.6280 H   0  0  0  0  0  0  0  0  0  0  0  0
    2.3412   -2.3838    0.0333 H   0  0  0  0  0  0  0  0  0  0  0  0
    3.6450   -2.2982   -1.2133 H   0  0  0  0  0  0  0  0  0  0  0  0
    4.6468   -1.2216    0.8244 H   0  0  0  0  0  0  0  0  0  0  0  0
    3.5711   -0.0182    1.6245 H   0  0  0  0  0  0  0  0  0  0  0  0
    5.5771    0.5435   -0.6515 H   0  0  0  0  0  0  0  0  0  0  0  0
    5.7853    0.9943    1.0822 H   0  0  0  0  0  0  0  0  0  0  0  0
    3.9835    2.5986    0.9977 H   0  0  0  0  0  0  0  0  0  0  0  0
    4.9112    2.8455   -0.5213 H   0  0  0  0  0  0  0  0  0  0  0  0
    0.9002    1.7245   -2.0463 H   0  0  0  0  0  0  0  0  0  0  0  0
    1.3960    0.1245   -2.7036 H   0  0  0  0  0  0  0  0  0  0  0  0
   -2.7763   -1.8994   -2.0263 H   0  0  0  0  0  0  0  0  0  0  0  0
   -3.8151   -0.1457    0.7073 H   0  0  0  0  0  0  0  0  0  0  0  0
   -2.9905    1.3135    2.2694 H   0  0  0  0  0  0  0  0  0  0  0  0
   -1.7180    0.1132    2.1565 H   0  0  0  0  0  0  0  0  0  0  0  0
   -0.3568    1.7021    0.7275 H   0  0  0  0  0  0  0  0  0  0  0  0
   -0.8306    2.4303    2.2841 H   0  0  0  0  0  0  0  0  0  0  0  0
   -1.1704    4.0111    0.3767 H   0  0  0  0  0  0  0  0  0  0  0  0
   -2.7068    3.6457    1.2365 H   0  0  0  0  0  0  0  0  0  0  0  0
   -3.0787    3.5875   -1.1942 H   0  0  0  0  0  0  0  0  0  0  0  0
   -1.7241    2.4559   -1.4330 H   0  0  0  0  0  0  0  0  0  0  0  0
   -4.3975    1.9739    0.0326 H   0  0  0  0  0  0  0  0  0  0  0  0
   -3.8868    1.2255   -1.4996 H   0  0  0  0  0  0  0  0  0  0  0  0
    0.1259   -0.9216    1.0762 H   0  0  0  0  0  0  0  0  0  0  0  0
    0.8713   -2.8172    2.3888 H   0  0  0  0  0  0  0  0  0  0  0  0
   -0.5026   -4.8684    2.5392 H   0  0  0  0  0  0  0  0  0  0  0  0
   -2.6616   -4.9992    1.3382 H   0  0  0  0  0  0  0  0  0  0  0  0
   -3.4417   -3.1342   -0.0232 H   0  0  0  0  0  0  0  0  0  0  0  0
  1  2  1  0
  2  3  1  0
  3  4  1  0
  4  5  1  0
  5  6  1  0
  6  7  2  0
  7  2  1  0
  7  8  1  0
  8  9  1  0
  9 10  1  0
 10 11  2  0
 10 12  1  0
 12 13  1  0
 12 14  1  0
 14 15  1  0
 15 16  1  0
 16 17  1  0
 17 18  1  0
 18 19  1  0
 19 14  1  0
 12 20  1  0
 20 21  2  0
 21 22  1  0
 22 23  2  0
 23 24  1  0
 24 25  2  0
 25 20  1  0
  1 26  1  0
  1 27  1  0
  1 28  1  0
  3 29  1  0
  3 30  1  0
  4 31  1  0
  4 32  1  0
  5 33  1  0
  5 34  1  0
  8 35  1  0
  8 36  1  0
 13 37  1  0
 14 38  1  0
 15 39  1  0
 15 40  1  0
 16 41  1  0
 16 42  1  0
 17 43  1  0
 17 44  1  0
 18 45  1  0
 18 46  1  0
 19 47  1  0
 19 48  1  0
 21 49  1  0
 22 50  1  0
 23 51  1  0
 24 52  1  0
 25 53  1  0
M  END
> <ID>
HT1572

> <Class>
0.0

> <Clusters>
187

> <Fold>
5

$$$$