
     RDKit          3D

 50 53  0  0  0  0  0  0  0  0999 V2000
   -3.1020   -1.7875   -2.0956 C   0  0  0  0  0  0  0  0  0  0  0  0
   -3.6013   -0.3874   -1.7316 C   0  0  2  0  0  0  0  0  0  0  0  0
   -2.4254    0.6263   -1.6896 C   0  0  0  0  0  0  0  0  0  0  0  0
   -1.8757    0.7484   -0.3374 N   0  0  0  0  0  0  0  0  0  0  0  0
   -2.7733    0.8936    0.8116 C   0  0  0  0  0  0  0  0  0  0  0  0
   -4.2386    0.7263    0.3771 C   0  0  2  0  0  0  0  0  0  0  0  0
   -5.1472    0.6104    1.6054 C   0  0  0  0  0  0  0  0  0  0  0  0
   -4.3565   -0.4780   -0.4604 N   0  0  0  0  0  0  0  0  0  0  0  0
   -0.4623    0.9233   -0.1546 C   0  0  0  0  0  0  0  0  0  0  0  0
    0.0541    2.1978    0.0654 C   0  0  0  0  0  0  0  0  0  0  0  0
   -0.7911    3.2620    0.0799 F   0  0  0  0  0  0  0  0  0  0  0  0
    1.4341    2.4033    0.1752 C   0  0  0  0  0  0  0  0  0  0  0  0
    1.9014    3.7598    0.2368 N   0  0  0  0  0  0  0  0  0  0  0  0
    2.3244    1.2859    0.1555 C   0  0  0  0  0  0  0  0  0  0  0  0
    3.7225    1.4257    0.3512 C   0  0  0  0  0  0  0  0  0  0  0  0
    4.2302    2.5443    0.6327 O   0  0  0  0  0  0  0  0  0  0  0  0
    4.5661    0.3148    0.2251 C   0  0  0  0  0  0  0  0  0  0  0  0
    4.0055   -0.9340   -0.0306 C   0  0  0  0  0  0  0  0  0  0  0  0
    2.6525   -1.1178   -0.0647 N   0  0  0  0  0  0  0  0  0  0  0  0
    2.1717   -2.5094   -0.1814 C   0  0  0  0  0  0  0  0  0  0  0  0
    1.3920   -3.0044    1.0347 C   0  0  0  0  0  0  0  0  0  0  0  0
    2.8006   -3.5041    0.7979 C   0  0  0  0  0  0  0  0  0  0  0  0
    1.7967   -0.0288   -0.0530 C   0  0  0  0  0  0  0  0  0  0  0  0
    0.3966   -0.1733   -0.2543 C   0  0  0  0  0  0  0  0  0  0  0  0
   -0.1609   -1.3630   -0.5866 F   0  0  0  0  0  0  0  0  0  0  0  0
    6.0397    0.4292    0.3529 C   0  0  0  0  0  0  0  0  0  0  0  0
    6.7854   -0.2382   -0.4124 O   0  0  0  0  0  0  0  0  0  0  0  0
    6.6259    1.2353    1.3274 O   0  0  0  0  0  0  0  0  0  0  0  0
   -2.5344   -1.7671   -3.0503 H   0  0  0  0  0  0  0  0  0  0  0  0
   -3.9648   -2.4744   -2.2232 H   0  0  0  0  0  0  0  0  0  0  0  0
   -2.4521   -2.1883   -1.2895 H   0  0  0  0  0  0  0  0  0  0  0  0
   -4.2882   -0.0623   -2.5484 H   0  0  0  0  0  0  0  0  0  0  0  0
   -2.8056    1.6251   -1.9996 H   0  0  0  0  0  0  0  0  0  0  0  0
   -1.6296    0.3529   -2.4178 H   0  0  0  0  0  0  0  0  0  0  0  0
   -2.5127    0.1157    1.5636 H   0  0  0  0  0  0  0  0  0  0  0  0
   -2.6370    1.8939    1.2764 H   0  0  0  0  0  0  0  0  0  0  0  0
   -4.5586    1.6239   -0.2022 H   0  0  0  0  0  0  0  0  0  0  0  0
   -6.2111    0.5429    1.2886 H   0  0  0  0  0  0  0  0  0  0  0  0
   -4.8908   -0.2967    2.1946 H   0  0  0  0  0  0  0  0  0  0  0  0
   -5.0320    1.5075    2.2535 H   0  0  0  0  0  0  0  0  0  0  0  0
   -5.3677   -0.6270   -0.6967 H   0  0  0  0  0  0  0  0  0  0  0  0
    2.7317    4.0677   -0.3147 H   0  0  0  0  0  0  0  0  0  0  0  0
    1.2817    4.5184    0.5983 H   0  0  0  0  0  0  0  0  0  0  0  0
    4.6688   -1.7853   -0.1377 H   0  0  0  0  0  0  0  0  0  0  0  0
    1.8922   -2.9016   -1.1821 H   0  0  0  0  0  0  0  0  0  0  0  0
    1.3046   -2.2835    1.8769 H   0  0  0  0  0  0  0  0  0  0  0  0
    0.6020   -3.7489    0.8011 H   0  0  0  0  0  0  0  0  0  0  0  0
    3.5204   -3.1073    1.5453 H   0  0  0  0  0  0  0  0  0  0  0  0
    2.8393   -4.5531    0.4373 H   0  0  0  0  0  0  0  0  0  0  0  0
    6.0789    1.6870    2.0499 H   0  0  0  0  0  0  0  0  0  0  0  0
  2  1  1  0
  2  3  1  0
  3  4  1  0
  4  5  1  0
  5  6  1  0
  6  7  1  0
  6  8  1  0
  8  2  1  0
  4  9  1  0
  9 10  2  0
 10 11  1  0
 10 12  1  0
 12 13  1  0
 12 14  2  0
 14 15  1  0
 15 16  2  0
 15 17  1  0
 17 18  2  0
 18 19  1  0
 19 20  1  0
 20 21  1  0
 21 22  1  0
 22 20  1  0
 19 23  1  0
 23 14  1  0
 23 24  2  0
 24  9  1  0
 24 25  1  0
 17 26  1  0
 26 27  2  0
 26 28  1  0
  1 29  1  0
  1 30  1  0
  1 31  1  0
  2 32  1  6
  3 33  1  0
  3 34  1  0
  5 35  1  0
  5 36  1  0
  6 37  1  6
  7 38  1  0
  7 39  1  0
  7 40  1  0
  8 41  1  0
 13 42  1  0
 13 43  1  0
 18 44  1  0
 20 45  1  0
 21 46  1  0
 21 47  1  0
 22 48  1  0
 22 49  1  0
 28 50  1  0
M  END
> <ID>
HT1908

> <Class>
0.0

> <Clusters>
117

> <Fold>
5

$$$$