
     RDKit          3D

 75 76  0  0  0  0  0  0  0  0999 V2000
   -3.7048    0.9063    1.8753 C   0  0  0  0  0  0  0  0  0  0  0  0
   -3.5902    0.9357    0.4060 N   0  0  0  0  0  0  0  0  0  0  0  0
   -2.3566    0.4341   -0.1779 C   0  0  0  0  0  0  0  0  0  0  0  0
   -2.3667   -0.0938   -1.3234 O   0  0  0  0  0  0  0  0  0  0  0  0
   -1.0547    0.4783    0.6038 C   0  0  0  0  0  0  0  0  0  0  0  0
    0.1741    0.4838   -0.2305 N   0  0  0  0  0  0  0  0  0  0  0  0
    0.1890    1.5987   -1.2064 C   0  0  0  0  0  0  0  0  0  0  0  0
    1.6277    2.0100   -1.5275 C   0  0  0  0  0  0  0  0  0  0  0  0
    1.6335    3.1622   -2.3253 O   0  0  0  0  0  0  0  0  0  0  0  0
    0.4761   -0.8410   -0.8306 C   0  0  0  0  0  0  0  0  0  0  0  0
    1.7500   -1.4470   -0.2853 C   0  0  0  0  0  0  0  0  0  0  0  0
    2.1846   -2.4949   -0.8378 O   0  0  0  0  0  0  0  0  0  0  0  0
    2.4363   -0.9183    0.8725 N   0  0  0  0  0  0  0  0  0  0  0  0
    1.6459   -0.8733    2.1166 C   0  0  0  0  0  0  0  0  0  0  0  0
    3.9314   -0.8565    0.9178 C   0  0  0  0  0  0  0  0  0  0  0  0
    4.3856    0.2265    1.9345 C   0  0  0  0  0  0  0  0  0  0  0  0
    4.4746   -2.2333    1.3629 C   0  0  0  0  0  0  0  0  0  0  0  0
    4.5046   -0.4575   -0.4883 C   0  0  0  0  0  0  0  0  0  0  0  0
    6.0176   -0.3781   -0.5693 C   0  0  0  0  0  0  0  0  0  0  0  0
    6.7820   -1.5369   -0.7952 C   0  0  0  0  0  0  0  0  0  0  0  0
    8.1747   -1.4551   -0.8831 C   0  0  0  0  0  0  0  0  0  0  0  0
    8.8162   -0.2179   -0.7709 C   0  0  0  0  0  0  0  0  0  0  0  0
    8.0648    0.9433   -0.5815 C   0  0  0  0  0  0  0  0  0  0  0  0
    6.6743    0.8657   -0.4850 C   0  0  0  0  0  0  0  0  0  0  0  0
   -4.6936    1.4732   -0.4515 C   0  0  0  0  0  0  0  0  0  0  0  0
   -4.1101    2.4380   -1.5196 C   0  0  0  0  0  0  0  0  0  0  0  0
   -5.7142    2.3139    0.3675 C   0  0  0  0  0  0  0  0  0  0  0  0
   -5.4435    0.3121   -1.1689 C   0  0  0  0  0  0  0  0  0  0  0  0
   -5.9465   -0.7637   -0.2325 C   0  0  0  0  0  0  0  0  0  0  0  0
   -5.0875   -1.7894    0.2035 C   0  0  0  0  0  0  0  0  0  0  0  0
   -5.5683   -2.8025    1.0419 C   0  0  0  0  0  0  0  0  0  0  0  0
   -6.9095   -2.8092    1.4437 C   0  0  0  0  0  0  0  0  0  0  0  0
   -7.7781   -1.8056    0.9963 C   0  0  0  0  0  0  0  0  0  0  0  0
   -7.3005   -0.7867    0.1603 C   0  0  0  0  0  0  0  0  0  0  0  0
   -3.0611    0.1109    2.3091 H   0  0  0  0  0  0  0  0  0  0  0  0
   -3.4141    1.8940    2.3013 H   0  0  0  0  0  0  0  0  0  0  0  0
   -4.7354    0.6351    2.1898 H   0  0  0  0  0  0  0  0  0  0  0  0
   -1.0483    1.3913    1.2378 H   0  0  0  0  0  0  0  0  0  0  0  0
   -1.0375   -0.3848    1.3025 H   0  0  0  0  0  0  0  0  0  0  0  0
   -0.3210    1.3156   -2.1538 H   0  0  0  0  0  0  0  0  0  0  0  0
   -0.3330    2.4906   -0.7907 H   0  0  0  0  0  0  0  0  0  0  0  0
    2.1640    1.1846   -2.0479 H   0  0  0  0  0  0  0  0  0  0  0  0
    2.1789    2.2293   -0.5893 H   0  0  0  0  0  0  0  0  0  0  0  0
    1.4470    2.8711   -3.2548 H   0  0  0  0  0  0  0  0  0  0  0  0
   -0.3464   -1.5711   -0.6512 H   0  0  0  0  0  0  0  0  0  0  0  0
    0.5824   -0.7659   -1.9356 H   0  0  0  0  0  0  0  0  0  0  0  0
    2.2461   -1.1558    3.0005 H   0  0  0  0  0  0  0  0  0  0  0  0
    1.2377    0.1506    2.2717 H   0  0  0  0  0  0  0  0  0  0  0  0
    0.8186   -1.6131    2.0897 H   0  0  0  0  0  0  0  0  0  0  0  0
    5.4881    0.3337    1.9517 H   0  0  0  0  0  0  0  0  0  0  0  0
    3.9400    1.2110    1.6714 H   0  0  0  0  0  0  0  0  0  0  0  0
    4.1077   -0.0308    2.9738 H   0  0  0  0  0  0  0  0  0  0  0  0
    4.3191   -2.9922    0.5728 H   0  0  0  0  0  0  0  0  0  0  0  0
    5.5572   -2.1761    1.5932 H   0  0  0  0  0  0  0  0  0  0  0  0
    3.9690   -2.5887    2.2786 H   0  0  0  0  0  0  0  0  0  0  0  0
    4.1684   -1.1575   -1.2844 H   0  0  0  0  0  0  0  0  0  0  0  0
    4.0829    0.5346   -0.7698 H   0  0  0  0  0  0  0  0  0  0  0  0
    6.3035   -2.5049   -0.8959 H   0  0  0  0  0  0  0  0  0  0  0  0
    8.7614   -2.3536   -1.0391 H   0  0  0  0  0  0  0  0  0  0  0  0
    9.8944   -0.1577   -0.8431 H   0  0  0  0  0  0  0  0  0  0  0  0
    8.5603    1.9031   -0.5100 H   0  0  0  0  0  0  0  0  0  0  0  0
    6.1142    1.7712   -0.3277 H   0  0  0  0  0  0  0  0  0  0  0  0
   -3.5051    3.2332   -1.0340 H   0  0  0  0  0  0  0  0  0  0  0  0
   -3.4678    1.9081   -2.2493 H   0  0  0  0  0  0  0  0  0  0  0  0
   -4.9185    2.9230   -2.1039 H   0  0  0  0  0  0  0  0  0  0  0  0
   -6.3177    1.6964    1.0658 H   0  0  0  0  0  0  0  0  0  0  0  0
   -5.1835    3.0974    0.9464 H   0  0  0  0  0  0  0  0  0  0  0  0
   -6.4407    2.8259   -0.3044 H   0  0  0  0  0  0  0  0  0  0  0  0
   -6.3007    0.7295   -1.7475 H   0  0  0  0  0  0  0  0  0  0  0  0
   -4.7855   -0.1635   -1.9274 H   0  0  0  0  0  0  0  0  0  0  0  0
   -4.0516   -1.8143   -0.1119 H   0  0  0  0  0  0  0  0  0  0  0  0
   -4.9036   -3.5900    1.3694 H   0  0  0  0  0  0  0  0  0  0  0  0
   -7.2844   -3.6061    2.0797 H   0  0  0  0  0  0  0  0  0  0  0  0
   -8.8213   -1.8201    1.2916 H   0  0  0  0  0  0  0  0  0  0  0  0
   -7.9818   -0.0151   -0.1797 H   0  0  0  0  0  0  0  0  0  0  0  0
  1  2  1  0
  2  3  1  0
  3  4  2  0
  3  5  1  0
  5  6  1  0
  6  7  1  0
  7  8  1  0
  8  9  1  0
  6 10  1  0
 10 11  1  0
 11 12  2  0
 11 13  1  0
 13 14  1  0
 13 15  1  0
 15 16  1  0
 15 17  1  0
 15 18  1  0
 18 19  1  0
 19 20  2  0
 20 21  1  0
 21 22  2  0
 22 23  1  0
 23 24  2  0
 24 19  1  0
  2 25  1  0
 25 26  1  0
 25 27  1  0
 25 28  1  0
 28 29  1  0
 29 30  2  0
 30 31  1  0
 31 32  2  0
 32 33  1  0
 33 34  2  0
 34 29  1  0
  1 35  1  0
  1 36  1  0
  1 37  1  0
  5 38  1  0
  5 39  1  0
  7 40  1  0
  7 41  1  0
  8 42  1  0
  8 43  1  0
  9 44  1  0
 10 45  1  0
 10 46  1  0
 14 47  1  0
 14 48  1  0
 14 49  1  0
 16 50  1  0
 16 51  1  0
 16 52  1  0
 17 53  1  0
 17 54  1  0
 17 55  1  0
 18 56  1  0
 18 57  1  0
 20 58  1  0
 21 59  1  0
 22 60  1  0
 23 61  1  0
 24 62  1  0
 26 63  1  0
 26 64  1  0
 26 65  1  0
 27 66  1  0
 27 67  1  0
 27 68  1  0
 28 69  1  0
 28 70  1  0
 30 71  1  0
 31 72  1  0
 32 73  1  0
 33 74  1  0
 34 75  1  0
M  END
> <ID>
HT1558

> <Class>
0.0

> <Clusters>
31

> <Fold>
5

$$$$