
     RDKit          3D

 83 88  0  0  0  0  0  0  0  0999 V2000
    5.3104    3.0285    3.1170 C   0  0  0  0  0  0  0  0  0  0  0  0
    5.4254    1.8405    2.3607 O   0  0  0  0  0  0  0  0  0  0  0  0
    5.2904    2.1159    0.9774 C   0  0  2  0  0  0  0  0  0  0  0  0
    3.7949    2.0109    0.5629 C   0  0  0  0  0  0  0  0  0  0  0  0
    3.6032    1.4759   -0.8156 N   0  0  0  0  0  0  0  0  0  0  0  0
    4.7180    1.9599   -1.6624 C   0  0  0  0  0  0  0  0  0  0  0  0
    6.0828    1.4760   -1.1201 C   0  0  0  0  0  0  0  0  0  0  0  0
    6.0503    1.1597    0.2644 O   0  0  0  0  0  0  0  0  0  0  0  0
    3.3930   -0.0099   -0.8556 C   0  0  1  0  0  0  0  0  0  0  0  0
    2.1316   -0.4188   -0.0366 C   0  0  0  0  0  0  0  0  0  0  0  0
    1.4059   -1.6548   -0.6031 C   0  0  2  0  0  0  0  0  0  0  0  0
    0.6993   -2.2822    0.4529 O   0  0  0  0  0  0  0  0  0  0  0  0
   -0.6408   -2.5815    0.0995 C   0  0  1  0  0  0  0  0  0  0  0  0
   -1.1426   -3.7393    0.9793 C   0  0  0  0  0  0  0  0  0  0  0  0
   -1.2792   -3.3701    2.5012 C   0  0  2  0  0  0  0  0  0  0  0  0
   -2.5387   -3.8040    2.9659 O   0  0  0  0  0  0  0  0  0  0  0  0
   -1.1474   -1.8392    2.7723 C   0  0  0  0  0  0  0  0  0  0  0  0
   -1.7953   -1.0192    1.6770 C   0  0  0  0  0  0  0  0  0  0  0  0
   -2.6822    0.0312    1.9682 C   0  0  0  0  0  0  0  0  0  0  0  0
   -3.0575    0.2287    3.3022 O   0  0  0  0  0  0  0  0  0  0  0  0
   -3.1875    0.8383    0.9167 C   0  0  0  0  0  0  0  0  0  0  0  0
   -3.9679    2.0797    1.1829 C   0  0  0  0  0  0  0  0  0  0  0  0
   -3.9098    2.6504    2.3079 O   0  0  0  0  0  0  0  0  0  0  0  0
   -4.7609    2.6995    0.1011 C   0  0  0  0  0  0  0  0  0  0  0  0
   -5.7453    3.6554    0.3978 C   0  0  0  0  0  0  0  0  0  0  0  0
   -6.4795    4.2510   -0.6244 C   0  0  0  0  0  0  0  0  0  0  0  0
   -6.2449    3.8984   -1.9528 C   0  0  0  0  0  0  0  0  0  0  0  0
   -5.2588    2.9441   -2.2770 C   0  0  0  0  0  0  0  0  0  0  0  0
   -5.0167    2.5662   -3.6096 O   0  0  0  0  0  0  0  0  0  0  0  0
   -5.7304    3.0613   -4.7384 C   0  0  0  0  0  0  0  0  0  0  0  0
   -4.5046    2.3471   -1.2383 C   0  0  0  0  0  0  0  0  0  0  0  0
   -3.4118    1.3826   -1.5162 C   0  0  0  0  0  0  0  0  0  0  0  0
   -2.8510    1.3929   -2.6433 O   0  0  0  0  0  0  0  0  0  0  0  0
   -2.9088    0.4904   -0.4307 C   0  0  0  0  0  0  0  0  0  0  0  0
   -2.1346   -0.6686   -0.7078 C   0  0  0  0  0  0  0  0  0  0  0  0
   -1.9741   -1.1633   -2.0078 O   0  0  0  0  0  0  0  0  0  0  0  0
   -1.5228   -1.3697    0.3459 C   0  0  0  0  0  0  0  0  0  0  0  0
   -0.1961   -4.0937    3.2901 C   0  0  0  0  0  0  0  0  0  0  0  0
    0.9807   -3.8814    3.0257 O   0  0  0  0  0  0  0  0  0  0  0  0
   -0.5470   -5.0670    4.3886 C   0  0  0  0  0  0  0  0  0  0  0  0
    0.6139   -5.6055    4.9615 O   0  0  0  0  0  0  0  0  0  0  0  0
    2.3490   -2.5764   -1.1086 O   0  0  0  0  0  0  0  0  0  0  0  0
    2.9884   -2.0939   -2.2837 C   0  0  1  0  0  0  0  0  0  0  0  0
    2.2594   -2.6044   -3.5303 C   0  0  0  0  0  0  0  0  0  0  0  0
    3.2446   -0.5532   -2.3049 C   0  0  1  0  0  0  0  0  0  0  0  0
    2.1891    0.1201   -2.9557 O   0  0  0  0  0  0  0  0  0  0  0  0
    5.3241    2.7647    4.1974 H   0  0  0  0  0  0  0  0  0  0  0  0
    6.1760    3.7020    2.9232 H   0  0  0  0  0  0  0  0  0  0  0  0
    4.3520    3.5542    2.9056 H   0  0  0  0  0  0  0  0  0  0  0  0
    5.6753    3.1379    0.7219 H   0  0  0  0  0  0  0  0  0  0  0  0
    3.3519    3.0290    0.6037 H   0  0  0  0  0  0  0  0  0  0  0  0
    3.2388    1.4249    1.3206 H   0  0  0  0  0  0  0  0  0  0  0  0
    4.5935    1.6974   -2.7306 H   0  0  0  0  0  0  0  0  0  0  0  0
    4.7071    3.0754   -1.6535 H   0  0  0  0  0  0  0  0  0  0  0  0
    6.3777    0.5583   -1.6722 H   0  0  0  0  0  0  0  0  0  0  0  0
    6.8615    2.2453   -1.3133 H   0  0  0  0  0  0  0  0  0  0  0  0
    4.2706   -0.5232   -0.3993 H   0  0  0  0  0  0  0  0  0  0  0  0
    1.4025    0.4238   -0.0064 H   0  0  0  0  0  0  0  0  0  0  0  0
    2.4423   -0.6424    1.0083 H   0  0  0  0  0  0  0  0  0  0  0  0
    0.7324   -1.2999   -1.4218 H   0  0  0  0  0  0  0  0  0  0  0  0
   -0.7121   -2.9458   -0.9507 H   0  0  0  0  0  0  0  0  0  0  0  0
   -0.4780   -4.6186    0.8308 H   0  0  0  0  0  0  0  0  0  0  0  0
   -2.1341   -4.0563    0.5834 H   0  0  0  0  0  0  0  0  0  0  0  0
   -3.2352   -3.2788    2.4919 H   0  0  0  0  0  0  0  0  0  0  0  0
   -0.0774   -1.5370    2.8071 H   0  0  0  0  0  0  0  0  0  0  0  0
   -1.5641   -1.6085    3.7767 H   0  0  0  0  0  0  0  0  0  0  0  0
   -3.9116    0.6979    3.5789 H   0  0  0  0  0  0  0  0  0  0  0  0
   -5.9517    3.9392    1.4218 H   0  0  0  0  0  0  0  0  0  0  0  0
   -7.2333    4.9917   -0.3842 H   0  0  0  0  0  0  0  0  0  0  0  0
   -6.8309    4.3803   -2.7231 H   0  0  0  0  0  0  0  0  0  0  0  0
   -6.8116    2.8196   -4.6457 H   0  0  0  0  0  0  0  0  0  0  0  0
   -5.5871    4.1597   -4.8245 H   0  0  0  0  0  0  0  0  0  0  0  0
   -5.3340    2.5798   -5.6566 H   0  0  0  0  0  0  0  0  0  0  0  0
   -2.5640   -0.9048   -2.7868 H   0  0  0  0  0  0  0  0  0  0  0  0
   -1.1639   -5.8887    3.9577 H   0  0  0  0  0  0  0  0  0  0  0  0
   -1.1371   -4.5319    5.1675 H   0  0  0  0  0  0  0  0  0  0  0  0
    0.3074   -6.2388    5.6634 H   0  0  0  0  0  0  0  0  0  0  0  0
    3.9903   -2.5752   -2.3010 H   0  0  0  0  0  0  0  0  0  0  0  0
    1.2097   -2.2502   -3.5523 H   0  0  0  0  0  0  0  0  0  0  0  0
    2.7769   -2.2531   -4.4483 H   0  0  0  0  0  0  0  0  0  0  0  0
    2.2514   -3.7142   -3.5310 H   0  0  0  0  0  0  0  0  0  0  0  0
    4.1987   -0.4204   -2.8658 H   0  0  0  0  0  0  0  0  0  0  0  0
    2.5921    0.7981   -3.5555 H   0  0  0  0  0  0  0  0  0  0  0  0
  1  2  1  0
  3  2  1  0
  3  4  1  0
  4  5  1  0
  5  6  1  0
  6  7  1  0
  7  8  1  0
  8  3  1  0
  9  5  1  0
  9 10  1  0
 10 11  1  0
 11 12  1  0
 13 12  1  0
 13 14  1  0
 14 15  1  0
 15 16  1  1
 15 17  1  0
 17 18  1  0
 18 19  2  0
 19 20  1  0
 19 21  1  0
 21 22  1  0
 22 23  2  0
 22 24  1  0
 24 25  2  0
 25 26  1  0
 26 27  2  0
 27 28  1  0
 28 29  1  0
 29 30  1  0
 28 31  2  0
 31 24  1  0
 31 32  1  0
 32 33  2  0
 32 34  1  0
 34 21  2  0
 34 35  1  0
 35 36  1  0
 35 37  2  0
 37 13  1  0
 37 18  1  0
 15 38  1  0
 38 39  2  0
 38 40  1  0
 40 41  1  0
 11 42  1  0
 42 43  1  0
 43 44  1  0
 43 45  1  0
 45  9  1  0
 45 46  1  0
  1 47  1  0
  1 48  1  0
  1 49  1  0
  3 50  1  1
  4 51  1  0
  4 52  1  0
  6 53  1  0
  6 54  1  0
  7 55  1  0
  7 56  1  0
  9 57  1  1
 10 58  1  0
 10 59  1  0
 11 60  1  6
 13 61  1  6
 14 62  1  0
 14 63  1  0
 16 64  1  0
 17 65  1  0
 17 66  1  0
 20 67  1  0
 25 68  1  0
 26 69  1  0
 27 70  1  0
 30 71  1  0
 30 72  1  0
 30 73  1  0
 36 74  1  0
 40 75  1  0
 40 76  1  0
 41 77  1  0
 43 78  1  6
 44 79  1  0
 44 80  1  0
 44 81  1  0
 45 82  1  6
 46 83  1  0
M  END
> <ID>
HT3974

> <Class>
0.0

> <Clusters>
86

> <Fold>
5

$$$$