
     RDKit          3D

 49 52  0  0  0  0  0  0  0  0999 V2000
    4.0345   -2.0284   -0.1223 S   0  0  0  0  0  0  0  0  0  0  0  0
    4.9387   -3.3005    0.4983 O   0  0  0  0  0  0  0  0  0  0  0  0
    2.6657   -1.6341    0.9499 C   0  0  0  0  0  0  0  0  0  0  0  0
    5.0573   -0.6283   -0.3899 C   0  0  0  0  0  0  0  0  0  0  0  0
    5.7471   -0.0441    0.6805 C   0  0  0  0  0  0  0  0  0  0  0  0
    5.1727   -0.0832   -1.6746 C   0  0  0  0  0  0  0  0  0  0  0  0
    6.5505    1.0802    0.4650 C   0  0  0  0  0  0  0  0  0  0  0  0
    5.9767    1.0413   -1.8882 C   0  0  0  0  0  0  0  0  0  0  0  0
    6.6655    1.6227   -0.8189 C   0  0  0  0  0  0  0  0  0  0  0  0
    1.7713   -0.5717    0.3040 C   0  0  0  0  0  0  0  0  0  0  0  0
    0.6120   -0.1531    1.2254 C   0  0  0  0  0  0  0  0  0  0  0  0
   -0.1311    1.0161    0.6495 C   0  0  0  0  0  0  0  0  0  0  0  0
   -0.5045   -1.1595    1.2509 C   0  0  0  0  0  0  0  0  0  0  0  0
    0.3614    2.1678    0.5108 O   0  0  0  0  0  0  0  0  0  0  0  0
   -1.4859    0.6966    0.3386 N   0  0  0  0  0  0  0  0  0  0  0  0
   -0.3932   -2.3365    1.6861 O   0  0  0  0  0  0  0  0  0  0  0  0
   -1.7202   -0.6292    0.7252 N   0  0  0  0  0  0  0  0  0  0  0  0
   -2.5103    1.6594    0.0344 C   0  0  0  0  0  0  0  0  0  0  0  0
   -2.8483   -1.4190    0.3106 C   0  0  0  0  0  0  0  0  0  0  0  0
   -3.7368    1.6373    0.7197 C   0  0  0  0  0  0  0  0  0  0  0  0
   -2.2944    2.6310   -0.9562 C   0  0  0  0  0  0  0  0  0  0  0  0
   -3.4175   -2.3545    1.1896 C   0  0  0  0  0  0  0  0  0  0  0  0
   -3.3947   -1.2620   -0.9743 C   0  0  0  0  0  0  0  0  0  0  0  0
   -4.7326    2.5694    0.4127 C   0  0  0  0  0  0  0  0  0  0  0  0
   -3.2925    3.5619   -1.2604 C   0  0  0  0  0  0  0  0  0  0  0  0
   -4.5198   -3.1168    0.7907 C   0  0  0  0  0  0  0  0  0  0  0  0
   -4.4970   -2.0257   -1.3696 C   0  0  0  0  0  0  0  0  0  0  0  0
   -4.5110    3.5307   -0.5770 C   0  0  0  0  0  0  0  0  0  0  0  0
   -5.0597   -2.9522   -0.4877 C   0  0  0  0  0  0  0  0  0  0  0  0
    2.0920   -2.5652    1.1324 H   0  0  0  0  0  0  0  0  0  0  0  0
    3.0645   -1.2620    1.9175 H   0  0  0  0  0  0  0  0  0  0  0  0
    5.6607   -0.4571    1.6776 H   0  0  0  0  0  0  0  0  0  0  0  0
    4.6392   -0.5258   -2.5063 H   0  0  0  0  0  0  0  0  0  0  0  0
    7.0828    1.5313    1.2924 H   0  0  0  0  0  0  0  0  0  0  0  0
    6.0648    1.4624   -2.8813 H   0  0  0  0  0  0  0  0  0  0  0  0
    7.2870    2.4932   -0.9848 H   0  0  0  0  0  0  0  0  0  0  0  0
    1.3744   -0.9527   -0.6636 H   0  0  0  0  0  0  0  0  0  0  0  0
    2.3936    0.3246    0.0880 H   0  0  0  0  0  0  0  0  0  0  0  0
    0.9609    0.0816    2.2543 H   0  0  0  0  0  0  0  0  0  0  0  0
   -3.9175    0.9074    1.4982 H   0  0  0  0  0  0  0  0  0  0  0  0
   -1.3609    2.6559   -1.5037 H   0  0  0  0  0  0  0  0  0  0  0  0
   -3.0191   -2.4801    2.1881 H   0  0  0  0  0  0  0  0  0  0  0  0
   -2.9610   -0.5578   -1.6725 H   0  0  0  0  0  0  0  0  0  0  0  0
   -5.6752    2.5482    0.9442 H   0  0  0  0  0  0  0  0  0  0  0  0
   -3.1225    4.3052   -2.0285 H   0  0  0  0  0  0  0  0  0  0  0  0
   -4.9578   -3.8327    1.4742 H   0  0  0  0  0  0  0  0  0  0  0  0
   -4.9134   -1.9010   -2.3609 H   0  0  0  0  0  0  0  0  0  0  0  0
   -5.2829    4.2515   -0.8138 H   0  0  0  0  0  0  0  0  0  0  0  0
   -5.9132   -3.5425   -0.7949 H   0  0  0  0  0  0  0  0  0  0  0  0
  1  2  1  0
  1  3  1  0
  1  4  1  0
  4  5  2  0
  6  4  1  0
  5  7  1  0
  8  6  2  0
  7  9  2  0
  9  8  1  0
 10  3  1  0
 11 10  1  0
 12 11  1  0
 11 13  1  0
 14 12  2  0
 15 12  1  0
 13 16  2  0
 13 17  1  0
 17 15  1  0
 15 18  1  0
 17 19  1  0
 18 20  2  0
 21 18  1  0
 19 22  2  0
 23 19  1  0
 20 24  1  0
 25 21  2  0
 22 26  1  0
 27 23  2  0
 24 28  2  0
 28 25  1  0
 26 29  2  0
 29 27  1  0
  3 30  1  0
  3 31  1  0
  5 32  1  0
  6 33  1  0
  7 34  1  0
  8 35  1  0
  9 36  1  0
 10 37  1  0
 10 38  1  0
 11 39  1  0
 20 40  1  0
 21 41  1  0
 22 42  1  0
 23 43  1  0
 24 44  1  0
 25 45  1  0
 26 46  1  0
 27 47  1  0
 28 48  1  0
 29 49  1  0
M  CHG  2   1   1   2  -1
M  END
> <ID>
HT1954

> <Class>
0.0

> <Clusters>
195

> <Fold>
5

$$$$