
     RDKit          3D

 21 21  0  0  0  0  0  0  0  0999 V2000
    3.1700   -0.4547   -0.1406 C   0  0  0  0  0  0  0  0  0  0  0  0
    1.6727   -0.3841   -0.1742 C   0  0  0  0  0  0  0  0  0  0  0  0
    0.9879   -1.4279   -0.7049 N   0  0  0  0  0  0  0  0  0  0  0  0
   -0.3646   -1.4505   -0.7726 C   0  0  0  0  0  0  0  0  0  0  0  0
   -1.1260   -0.3807   -0.2711 C   0  0  0  0  0  0  0  0  0  0  0  0
   -2.6433   -0.4271   -0.3433 C   0  0  0  0  0  0  0  0  0  0  0  0
   -3.1281   -1.7175   -0.6071 O   0  0  0  0  0  0  0  0  0  0  0  0
   -0.4447    0.7470    0.2594 C   0  0  0  0  0  0  0  0  0  0  0  0
   -1.2067    1.9370    0.7266 C   0  0  0  0  0  0  0  0  0  0  0  0
   -0.6772    2.8146    1.4586 O   0  0  0  0  0  0  0  0  0  0  0  0
    0.9700    0.7362    0.3145 C   0  0  0  0  0  0  0  0  0  0  0  0
    1.6553    1.8382    0.8369 O   0  0  0  0  0  0  0  0  0  0  0  0
    3.5254   -1.4159   -0.5694 H   0  0  0  0  0  0  0  0  0  0  0  0
    3.6019    0.3744   -0.7396 H   0  0  0  0  0  0  0  0  0  0  0  0
    3.5286   -0.3872    0.9080 H   0  0  0  0  0  0  0  0  0  0  0  0
   -0.8398   -2.3141   -1.2176 H   0  0  0  0  0  0  0  0  0  0  0  0
   -2.9805    0.2473   -1.1581 H   0  0  0  0  0  0  0  0  0  0  0  0
   -3.0862   -0.0639    0.6116 H   0  0  0  0  0  0  0  0  0  0  0  0
   -3.0368   -2.2330    0.2369 H   0  0  0  0  0  0  0  0  0  0  0  0
   -2.2418    2.0732    0.4477 H   0  0  0  0  0  0  0  0  0  0  0  0
    2.6641    1.8884    0.8985 H   0  0  0  0  0  0  0  0  0  0  0  0
  1  2  1  0
  2  3  2  0
  3  4  1  0
  4  5  2  0
  5  6  1  0
  6  7  1  0
  5  8  1  0
  8  9  1  0
  9 10  2  0
  8 11  2  0
 11  2  1  0
 11 12  1  0
  1 13  1  0
  1 14  1  0
  1 15  1  0
  4 16  1  0
  6 17  1  0
  6 18  1  0
  7 19  1  0
  9 20  1  0
 12 21  1  0
M  END
> <ID>
HT1777

> <Class>
0.0

> <Clusters>
210

> <Fold>
5

$$$$