
     RDKit          3D

 66 69  0  0  0  0  0  0  0  0999 V2000
   -0.1361   -1.3339    0.9329 O   0  0  0  0  0  0  0  0  0  0  0  0
   -0.1272   -0.1715    0.1415 C   0  0  0  0  0  0  0  0  0  0  0  0
   -0.0434   -0.5405   -1.3556 C   0  0  0  0  0  0  0  0  0  0  0  0
    1.1182   -1.3451   -1.5657 O   0  0  0  0  0  0  0  0  0  0  0  0
    1.0956   -2.6639   -2.0399 C   0  0  0  0  0  0  0  0  0  0  0  0
    0.0005   -3.2167   -2.3364 O   0  0  0  0  0  0  0  0  0  0  0  0
    2.3655   -3.4093   -2.1892 C   0  0  0  0  0  0  0  0  0  0  0  0
    2.3710   -4.7275   -2.6716 C   0  0  0  0  0  0  0  0  0  0  0  0
    3.5745   -5.4302   -2.8103 C   0  0  0  0  0  0  0  0  0  0  0  0
    3.5698   -6.7390   -3.2907 O   0  0  0  0  0  0  0  0  0  0  0  0
    4.7914   -4.8244   -2.4681 C   0  0  0  0  0  0  0  0  0  0  0  0
    5.9626   -5.5697   -2.6264 O   0  0  0  0  0  0  0  0  0  0  0  0
    4.7956   -3.4963   -1.9800 C   0  0  0  0  0  0  0  0  0  0  0  0
    5.9681   -2.8293   -1.6182 O   0  0  0  0  0  0  0  0  0  0  0  0
    3.5855   -2.8052   -1.8466 C   0  0  0  0  0  0  0  0  0  0  0  0
    0.0497    0.5962   -2.2083 O   0  0  0  0  0  0  0  0  0  0  0  0
   -0.6509    1.7511   -1.7548 C   0  0  0  0  0  0  0  0  0  0  0  0
    0.2643    2.6082   -1.0673 O   0  0  0  0  0  0  0  0  0  0  0  0
    0.5920    3.9095   -1.4690 C   0  0  0  0  0  0  0  0  0  0  0  0
    0.0827    4.4032   -2.5128 O   0  0  0  0  0  0  0  0  0  0  0  0
    1.5401    4.7050   -0.6583 C   0  0  0  0  0  0  0  0  0  0  0  0
    1.8955    6.0096   -1.0425 C   0  0  0  0  0  0  0  0  0  0  0  0
    2.7933    6.7598   -0.2707 C   0  0  0  0  0  0  0  0  0  0  0  0
    3.1427    8.0531   -0.6561 O   0  0  0  0  0  0  0  0  0  0  0  0
    3.3448    6.2121    0.8942 C   0  0  0  0  0  0  0  0  0  0  0  0
    4.2367    6.9742    1.6494 O   0  0  0  0  0  0  0  0  0  0  0  0
    2.9959    4.9094    1.2873 C   0  0  0  0  0  0  0  0  0  0  0  0
    3.5425    4.3606    2.4466 O   0  0  0  0  0  0  0  0  0  0  0  0
    2.0976    4.1629    0.5121 C   0  0  0  0  0  0  0  0  0  0  0  0
   -1.8528    1.4352   -0.8374 C   0  0  0  0  0  0  0  0  0  0  0  0
   -2.5010    2.6207   -0.4539 O   0  0  0  0  0  0  0  0  0  0  0  0
   -1.3947    0.6692    0.4201 C   0  0  0  0  0  0  0  0  0  0  0  0
   -2.4644   -0.1788    0.8511 O   0  0  0  0  0  0  0  0  0  0  0  0
   -3.1119   -0.0713    2.0891 C   0  0  0  0  0  0  0  0  0  0  0  0
   -2.7821    0.8331    2.9051 O   0  0  0  0  0  0  0  0  0  0  0  0
   -4.1882   -1.0257    2.4358 C   0  0  0  0  0  0  0  0  0  0  0  0
   -4.8616   -0.9329    3.6664 C   0  0  0  0  0  0  0  0  0  0  0  0
   -5.8803   -1.8392    3.9928 C   0  0  0  0  0  0  0  0  0  0  0  0
   -6.5415   -1.7374    5.2161 O   0  0  0  0  0  0  0  0  0  0  0  0
   -6.2343   -2.8509    3.0848 C   0  0  0  0  0  0  0  0  0  0  0  0
   -7.2447   -3.7644    3.3873 O   0  0  0  0  0  0  0  0  0  0  0  0
   -5.5679   -2.9499    1.8571 C   0  0  0  0  0  0  0  0  0  0  0  0
   -5.9228   -3.9559    0.9599 O   0  0  0  0  0  0  0  0  0  0  0  0
   -4.5503   -2.0415    1.5353 C   0  0  0  0  0  0  0  0  0  0  0  0
    0.8069   -1.6297    1.0281 H   0  0  0  0  0  0  0  0  0  0  0  0
    0.7670    0.4461    0.3985 H   0  0  0  0  0  0  0  0  0  0  0  0
   -0.9620   -1.1061   -1.6297 H   0  0  0  0  0  0  0  0  0  0  0  0
    1.4426   -5.2153   -2.9421 H   0  0  0  0  0  0  0  0  0  0  0  0
    2.7088   -7.2077   -3.5475 H   0  0  0  0  0  0  0  0  0  0  0  0
    6.8866   -5.2248   -2.4105 H   0  0  0  0  0  0  0  0  0  0  0  0
    6.8907   -3.2357   -1.6740 H   0  0  0  0  0  0  0  0  0  0  0  0
    3.6060   -1.7894   -1.4708 H   0  0  0  0  0  0  0  0  0  0  0  0
   -1.0541    2.2576   -2.6580 H   0  0  0  0  0  0  0  0  0  0  0  0
    1.4785    6.4487   -1.9404 H   0  0  0  0  0  0  0  0  0  0  0  0
    2.7617    8.4787   -1.4932 H   0  0  0  0  0  0  0  0  0  0  0  0
    4.6614    6.6221    2.4989 H   0  0  0  0  0  0  0  0  0  0  0  0
    3.3078    3.4235    2.7527 H   0  0  0  0  0  0  0  0  0  0  0  0
    1.8377    3.1602    0.8287 H   0  0  0  0  0  0  0  0  0  0  0  0
   -2.5643    0.7944   -1.4112 H   0  0  0  0  0  0  0  0  0  0  0  0
   -2.9974    2.9471   -1.2494 H   0  0  0  0  0  0  0  0  0  0  0  0
   -1.1320    1.4063    1.2125 H   0  0  0  0  0  0  0  0  0  0  0  0
   -4.5994   -0.1581    4.3763 H   0  0  0  0  0  0  0  0  0  0  0  0
   -6.3060   -1.0174    5.8891 H   0  0  0  0  0  0  0  0  0  0  0  0
   -7.7550   -3.7337    4.2618 H   0  0  0  0  0  0  0  0  0  0  0  0
   -5.4604   -4.0551    0.0636 H   0  0  0  0  0  0  0  0  0  0  0  0
   -4.0455   -2.1338    0.5816 H   0  0  0  0  0  0  0  0  0  0  0  0
  1  2  1  0
  2  3  1  0
  3  4  1  0
  4  5  1  0
  5  6  2  0
  5  7  1  0
  7  8  2  0
  8  9  1  0
  9 10  1  0
  9 11  2  0
 11 12  1  0
 11 13  1  0
 13 14  1  0
 13 15  2  0
 15  7  1  0
  3 16  1  0
 16 17  1  0
 17 18  1  0
 18 19  1  0
 19 20  2  0
 19 21  1  0
 21 22  2  0
 22 23  1  0
 23 24  1  0
 23 25  2  0
 25 26  1  0
 25 27  1  0
 27 28  1  0
 27 29  2  0
 29 21  1  0
 17 30  1  0
 30 31  1  0
 30 32  1  0
 32  2  1  0
 32 33  1  0
 33 34  1  0
 34 35  2  0
 34 36  1  0
 36 37  2  0
 37 38  1  0
 38 39  1  0
 38 40  2  0
 40 41  1  0
 40 42  1  0
 42 43  1  0
 42 44  2  0
 44 36  1  0
  1 45  1  0
  2 46  1  0
  3 47  1  0
  8 48  1  0
 10 49  1  0
 12 50  1  0
 14 51  1  0
 15 52  1  0
 17 53  1  0
 22 54  1  0
 24 55  1  0
 26 56  1  0
 28 57  1  0
 29 58  1  0
 30 59  1  0
 31 60  1  0
 32 61  1  0
 37 62  1  0
 39 63  1  0
 41 64  1  0
 43 65  1  0
 44 66  1  0
M  END
> <ID>
HT3955

> <Class>
0.0

> <Clusters>
86

> <Fold>
5

$$$$