
     RDKit          3D

 41 44  0  0  0  0  0  0  0  0999 V2000
    5.2554   -0.5914   -0.6123 C   0  0  0  0  0  0  0  0  0  0  0  0
    4.0574   -0.0586    0.0537 N   0  0  0  0  0  0  0  0  0  0  0  0
    3.2217    0.6707   -0.9221 C   0  0  0  0  0  0  0  0  0  0  0  0
    2.0020    1.2790   -0.2254 C   0  0  0  0  0  0  0  0  0  0  0  0
    1.2863    0.2280    0.5062 N   0  0  0  0  0  0  0  0  0  0  0  0
    2.0770   -0.6072    1.4169 C   0  0  0  0  0  0  0  0  0  0  0  0
    3.2920   -1.1617    0.6701 C   0  0  0  0  0  0  0  0  0  0  0  0
   -0.1214   -0.0072    0.2939 C   0  0  0  0  0  0  0  0  0  0  0  0
   -0.5849   -1.2238    0.4195 N   0  0  0  0  0  0  0  0  0  0  0  0
   -1.9454   -1.6640    0.2624 C   0  0  0  0  0  0  0  0  0  0  0  0
   -2.4815   -2.5454    1.2101 C   0  0  0  0  0  0  0  0  0  0  0  0
   -3.8106   -2.9676    1.1106 C   0  0  0  0  0  0  0  0  0  0  0  0
   -4.6100   -2.5216    0.0550 C   0  0  0  0  0  0  0  0  0  0  0  0
   -4.0759   -1.6697   -0.9151 C   0  0  0  0  0  0  0  0  0  0  0  0
   -2.7404   -1.2585   -0.8293 C   0  0  0  0  0  0  0  0  0  0  0  0
   -2.0469   -0.2389   -2.1250 S   0  0  0  0  0  0  0  0  0  0  0  0
   -1.9588    1.1508   -1.0039 C   0  0  0  0  0  0  0  0  0  0  0  0
   -2.8297    2.2327   -1.1749 C   0  0  0  0  0  0  0  0  0  0  0  0
   -2.7526    3.3363   -0.3223 C   0  0  0  0  0  0  0  0  0  0  0  0
   -1.8078    3.3604    0.7076 C   0  0  0  0  0  0  0  0  0  0  0  0
   -1.7089    4.7490    1.7746 Cl  0  0  0  0  0  0  0  0  0  0  0  0
   -0.9471    2.2733    0.8933 C   0  0  0  0  0  0  0  0  0  0  0  0
   -1.0232    1.1532    0.0488 C   0  0  0  0  0  0  0  0  0  0  0  0
    4.9845   -1.3057   -1.4219 H   0  0  0  0  0  0  0  0  0  0  0  0
    5.9044   -1.1100    0.1259 H   0  0  0  0  0  0  0  0  0  0  0  0
    5.8524    0.2391   -1.0470 H   0  0  0  0  0  0  0  0  0  0  0  0
    2.8795   -0.0082   -1.7370 H   0  0  0  0  0  0  0  0  0  0  0  0
    3.8072    1.4978   -1.3811 H   0  0  0  0  0  0  0  0  0  0  0  0
    1.3524    1.7570   -0.9901 H   0  0  0  0  0  0  0  0  0  0  0  0
    2.3351    2.0618    0.4901 H   0  0  0  0  0  0  0  0  0  0  0  0
    2.4217    0.0142    2.2717 H   0  0  0  0  0  0  0  0  0  0  0  0
    1.4804   -1.4483    1.8301 H   0  0  0  0  0  0  0  0  0  0  0  0
    2.9496   -1.8880   -0.1026 H   0  0  0  0  0  0  0  0  0  0  0  0
    3.9303   -1.7055    1.4012 H   0  0  0  0  0  0  0  0  0  0  0  0
   -1.8738   -2.8856    2.0392 H   0  0  0  0  0  0  0  0  0  0  0  0
   -4.2226   -3.6363    1.8553 H   0  0  0  0  0  0  0  0  0  0  0  0
   -5.6401   -2.8458   -0.0178 H   0  0  0  0  0  0  0  0  0  0  0  0
   -4.6942   -1.3462   -1.7428 H   0  0  0  0  0  0  0  0  0  0  0  0
   -3.5586    2.2246   -1.9754 H   0  0  0  0  0  0  0  0  0  0  0  0
   -3.4244    4.1730   -0.4652 H   0  0  0  0  0  0  0  0  0  0  0  0
   -0.2306    2.2942    1.7056 H   0  0  0  0  0  0  0  0  0  0  0  0
  1  2  1  0
  2  3  1  0
  3  4  1  0
  4  5  1  0
  5  6  1  0
  6  7  1  0
  7  2  1  0
  5  8  1  0
  8  9  2  0
  9 10  1  0
 10 11  2  0
 11 12  1  0
 12 13  2  0
 13 14  1  0
 14 15  2  0
 15 10  1  0
 15 16  1  0
 16 17  1  0
 17 18  2  0
 18 19  1  0
 19 20  2  0
 20 21  1  0
 20 22  1  0
 22 23  2  0
 23  8  1  0
 23 17  1  0
  1 24  1  0
  1 25  1  0
  1 26  1  0
  3 27  1  0
  3 28  1  0
  4 29  1  0
  4 30  1  0
  6 31  1  0
  6 32  1  0
  7 33  1  0
  7 34  1  0
 11 35  1  0
 12 36  1  0
 13 37  1  0
 14 38  1  0
 18 39  1  0
 19 40  1  0
 22 41  1  0
M  END
> <ID>
HT3574

> <Class>
0.0

> <Clusters>
150

> <Fold>
5

$$$$