
     RDKit          3D

 38 38  0  0  0  0  0  0  0  0999 V2000
   -1.4873   -3.0618    0.5956 C   0  0  0  0  0  0  0  0  0  0  0  0
   -0.9665   -1.9155   -0.2667 C   0  0  0  0  0  0  0  0  0  0  0  0
   -1.7643   -0.6279   -0.0272 C   0  0  0  0  0  0  0  0  0  0  0  0
   -1.2965    0.4360   -0.9421 N   0  0  0  0  0  0  0  0  0  0  0  0
   -2.3978    1.1889   -1.5806 C   0  0  0  0  0  0  0  0  0  0  0  0
   -3.3367    1.9169   -0.5840 C   0  0  0  0  0  0  0  0  0  0  0  0
   -3.2172    3.4380   -0.6785 C   0  0  0  0  0  0  0  0  0  0  0  0
   -0.1219    1.4985   -0.1918 S   0  0  0  0  0  0  0  0  0  0  0  0
   -0.6629    2.0588    1.0958 O   0  0  0  0  0  0  0  0  0  0  0  0
    0.2024    2.6417   -1.1134 O   0  0  0  0  0  0  0  0  0  0  0  0
    1.3662    0.6123    0.1227 C   0  0  0  0  0  0  0  0  0  0  0  0
    2.1489    0.1741   -0.9522 C   0  0  0  0  0  0  0  0  0  0  0  0
    3.3158   -0.5603   -0.7220 C   0  0  0  0  0  0  0  0  0  0  0  0
    3.7158   -0.8691    0.5911 C   0  0  0  0  0  0  0  0  0  0  0  0
    2.9249   -0.4264    1.6665 C   0  0  0  0  0  0  0  0  0  0  0  0
    1.7576    0.3076    1.4334 C   0  0  0  0  0  0  0  0  0  0  0  0
    4.9433   -1.6575    0.8399 C   0  0  0  0  0  0  0  0  0  0  0  0
    5.6400   -2.0768   -0.1252 O   0  0  0  0  0  0  0  0  0  0  0  0
    5.3355   -1.9522    2.1435 O   0  0  0  0  0  0  0  0  0  0  0  0
   -2.5404   -3.3021    0.3270 H   0  0  0  0  0  0  0  0  0  0  0  0
   -1.4339   -2.7878    1.6724 H   0  0  0  0  0  0  0  0  0  0  0  0
   -0.8603   -3.9631    0.4294 H   0  0  0  0  0  0  0  0  0  0  0  0
   -1.0385   -2.2055   -1.3382 H   0  0  0  0  0  0  0  0  0  0  0  0
    0.1019   -1.7527   -0.0191 H   0  0  0  0  0  0  0  0  0  0  0  0
   -2.8417   -0.8589   -0.2017 H   0  0  0  0  0  0  0  0  0  0  0  0
   -1.6666   -0.3197    1.0387 H   0  0  0  0  0  0  0  0  0  0  0  0
   -3.0045    0.4761   -2.1827 H   0  0  0  0  0  0  0  0  0  0  0  0
   -1.9767    1.8973   -2.3271 H   0  0  0  0  0  0  0  0  0  0  0  0
   -4.3895    1.6436   -0.8182 H   0  0  0  0  0  0  0  0  0  0  0  0
   -3.1508    1.6057    0.4650 H   0  0  0  0  0  0  0  0  0  0  0  0
   -2.1867    3.7678   -0.4337 H   0  0  0  0  0  0  0  0  0  0  0  0
   -3.9189    3.9112    0.0411 H   0  0  0  0  0  0  0  0  0  0  0  0
   -3.4748    3.7820   -1.7035 H   0  0  0  0  0  0  0  0  0  0  0  0
    1.8484    0.3916   -1.9701 H   0  0  0  0  0  0  0  0  0  0  0  0
    3.9002   -0.8913   -1.5725 H   0  0  0  0  0  0  0  0  0  0  0  0
    3.2036   -0.6524    2.6883 H   0  0  0  0  0  0  0  0  0  0  0  0
    1.1576    0.6273    2.2760 H   0  0  0  0  0  0  0  0  0  0  0  0
    6.1722   -2.4942    2.3241 H   0  0  0  0  0  0  0  0  0  0  0  0
  1  2  1  0
  2  3  1  0
  3  4  1  0
  4  5  1  0
  5  6  1  0
  6  7  1  0
  4  8  1  0
  8  9  2  0
  8 10  2  0
  8 11  1  0
 11 12  2  0
 12 13  1  0
 13 14  2  0
 14 15  1  0
 15 16  2  0
 16 11  1  0
 14 17  1  0
 17 18  2  0
 17 19  1  0
  1 20  1  0
  1 21  1  0
  1 22  1  0
  2 23  1  0
  2 24  1  0
  3 25  1  0
  3 26  1  0
  5 27  1  0
  5 28  1  0
  6 29  1  0
  6 30  1  0
  7 31  1  0
  7 32  1  0
  7 33  1  0
 12 34  1  0
 13 35  1  0
 15 36  1  0
 16 37  1  0
 19 38  1  0
M  END
> <ID>
HT1741

> <Class>
0.0

> <Clusters>
204

> <Fold>
5

$$$$