
     RDKit          3D

 17 16  0  0  0  0  0  0  0  0999 V2000
   -1.8286    0.9513    0.2246 C   0  0  0  0  0  0  0  0  0  0  0  0
   -0.6394    0.1037    0.4127 N   0  0  0  0  0  0  0  0  0  0  0  0
   -0.9410   -1.2652   -0.0425 C   0  0  0  0  0  0  0  0  0  0  0  0
    0.5096    0.6758   -0.3251 C   0  0  0  0  0  0  0  0  0  0  0  0
    1.8443    0.1546    0.2196 C   0  0  0  0  0  0  0  0  0  0  0  0
    2.1505   -1.0899   -0.3449 O   0  0  0  0  0  0  0  0  0  0  0  0
   -2.0967    1.0355   -0.8526 H   0  0  0  0  0  0  0  0  0  0  0  0
   -1.6437    1.9677    0.6341 H   0  0  0  0  0  0  0  0  0  0  0  0
   -2.6941    0.5336    0.7833 H   0  0  0  0  0  0  0  0  0  0  0  0
   -1.1160   -1.3003   -1.1410 H   0  0  0  0  0  0  0  0  0  0  0  0
   -1.8443   -1.6552    0.4752 H   0  0  0  0  0  0  0  0  0  0  0  0
   -0.1126   -1.9522    0.2224 H   0  0  0  0  0  0  0  0  0  0  0  0
    0.5282    1.7820   -0.1961 H   0  0  0  0  0  0  0  0  0  0  0  0
    0.4327    0.4815   -1.4194 H   0  0  0  0  0  0  0  0  0  0  0  0
    2.6479    0.8781   -0.0451 H   0  0  0  0  0  0  0  0  0  0  0  0
    1.7958    0.0746    1.3290 H   0  0  0  0  0  0  0  0  0  0  0  0
    3.0074   -1.3755    0.0660 H   0  0  0  0  0  0  0  0  0  0  0  0
  1  2  1  0
  2  3  1  0
  2  4  1  0
  4  5  1  0
  5  6  1  0
  1  7  1  0
  1  8  1  0
  1  9  1  0
  3 10  1  0
  3 11  1  0
  3 12  1  0
  4 13  1  0
  4 14  1  0
  5 15  1  0
  5 16  1  0
  6 17  1  0
M  END
> <ID>
HT2376

> <Class>
0.0

> <Clusters>
0

> <Fold>
5

$$$$