
     RDKit          3D

 24 24  0  0  0  0  0  0  0  0999 V2000
    4.3314   -1.5633   -0.3898 O   0  0  0  0  0  0  0  0  0  0  0  0
    3.6709   -0.4098   -0.1296 N   0  0  0  0  0  0  0  0  0  0  0  0
    2.8668   -0.2820    1.0461 C   0  0  0  0  0  0  0  0  0  0  0  0
    2.7722   -1.2473    1.8507 O   0  0  0  0  0  0  0  0  0  0  0  0
    2.1072    0.9812    1.3158 C   0  0  0  0  0  0  0  0  0  0  0  0
    0.6857    0.7828    1.0432 N   0  0  0  0  0  0  0  0  0  0  0  0
    0.1725    0.6422   -0.2920 C   0  0  0  0  0  0  0  0  0  0  0  0
    0.9246    0.8830   -1.2759 O   0  0  0  0  0  0  0  0  0  0  0  0
   -1.2335    0.2379   -0.5341 C   0  0  0  0  0  0  0  0  0  0  0  0
   -1.9547   -0.4973    0.4258 C   0  0  0  0  0  0  0  0  0  0  0  0
   -3.2777   -0.8775    0.1794 C   0  0  0  0  0  0  0  0  0  0  0  0
   -3.8941   -0.5350   -1.0272 C   0  0  0  0  0  0  0  0  0  0  0  0
   -5.5535   -1.0145   -1.3333 Cl  0  0  0  0  0  0  0  0  0  0  0  0
   -3.1841    0.1845   -1.9921 C   0  0  0  0  0  0  0  0  0  0  0  0
   -1.8608    0.5658   -1.7505 C   0  0  0  0  0  0  0  0  0  0  0  0
    5.2253   -1.4423    0.0212 H   0  0  0  0  0  0  0  0  0  0  0  0
    3.7371    0.3792   -0.8110 H   0  0  0  0  0  0  0  0  0  0  0  0
    2.4986    1.8204    0.7015 H   0  0  0  0  0  0  0  0  0  0  0  0
    2.2430    1.2578    2.3838 H   0  0  0  0  0  0  0  0  0  0  0  0
    0.0268    0.8053    1.8530 H   0  0  0  0  0  0  0  0  0  0  0  0
   -1.4956   -0.8022    1.3565 H   0  0  0  0  0  0  0  0  0  0  0  0
   -3.8204   -1.4444    0.9252 H   0  0  0  0  0  0  0  0  0  0  0  0
   -3.6559    0.4491   -2.9299 H   0  0  0  0  0  0  0  0  0  0  0  0
   -1.3316    1.1265   -2.5111 H   0  0  0  0  0  0  0  0  0  0  0  0
  1  2  1  0
  2  3  1  0
  3  4  2  0
  3  5  1  0
  5  6  1  0
  6  7  1  0
  7  8  2  0
  7  9  1  0
  9 10  2  0
 10 11  1  0
 11 12  2  0
 12 13  1  0
 12 14  1  0
 14 15  2  0
 15  9  1  0
  1 16  1  0
  2 17  1  0
  5 18  1  0
  5 19  1  0
  6 20  1  0
 10 21  1  0
 11 22  1  0
 14 23  1  0
 15 24  1  0
M  END
> <ID>
HT0243

> <Class>
0.0

> <Clusters>
15

> <Fold>
5

$$$$