
     RDKit          3D

 24 24  0  0  0  0  0  0  0  0999 V2000
   -2.1739   -1.0891    0.1390 C   0  0  0  0  0  0  0  0  0  0  0  0
   -1.9848    0.4238    0.3198 C   0  0  0  0  0  0  0  0  0  0  0  0
   -3.2779    1.0971    0.1849 N   0  0  0  0  0  0  0  0  0  0  0  0
   -0.9969    0.9892   -0.7229 C   0  0  0  0  0  0  0  0  0  0  0  0
    0.3994    0.4437   -0.5463 C   0  0  0  0  0  0  0  0  0  0  0  0
    0.9534   -0.4202   -1.5060 C   0  0  0  0  0  0  0  0  0  0  0  0
    2.2475   -0.9229   -1.3393 C   0  0  0  0  0  0  0  0  0  0  0  0
    3.0031   -0.5636   -0.2151 C   0  0  0  0  0  0  0  0  0  0  0  0
    4.2931   -1.0586   -0.0385 O   0  0  0  0  0  0  0  0  0  0  0  0
    2.4584    0.3011    0.7393 C   0  0  0  0  0  0  0  0  0  0  0  0
    1.1645    0.8049    0.5755 C   0  0  0  0  0  0  0  0  0  0  0  0
   -2.5567   -1.3146   -0.8794 H   0  0  0  0  0  0  0  0  0  0  0  0
   -1.2131   -1.6242    0.2922 H   0  0  0  0  0  0  0  0  0  0  0  0
   -2.8996   -1.4747    0.8863 H   0  0  0  0  0  0  0  0  0  0  0  0
   -1.5882    0.6101    1.3438 H   0  0  0  0  0  0  0  0  0  0  0  0
   -3.9151    0.7447    0.9363 H   0  0  0  0  0  0  0  0  0  0  0  0
   -3.1427    2.1153    0.3839 H   0  0  0  0  0  0  0  0  0  0  0  0
   -1.3785    0.7677   -1.7444 H   0  0  0  0  0  0  0  0  0  0  0  0
   -0.9507    2.0964   -0.6322 H   0  0  0  0  0  0  0  0  0  0  0  0
    0.3824   -0.7109   -2.3790 H   0  0  0  0  0  0  0  0  0  0  0  0
    2.6615   -1.5911   -2.0836 H   0  0  0  0  0  0  0  0  0  0  0  0
    4.7160   -1.6867   -0.7120 H   0  0  0  0  0  0  0  0  0  0  0  0
    3.0389    0.5843    1.6082 H   0  0  0  0  0  0  0  0  0  0  0  0
    0.7599    1.4784    1.3207 H   0  0  0  0  0  0  0  0  0  0  0  0
  1  2  1  0
  2  3  1  0
  2  4  1  0
  4  5  1  0
  5  6  2  0
  6  7  1  0
  7  8  2  0
  8  9  1  0
  8 10  1  0
 10 11  2  0
 11  5  1  0
  1 12  1  0
  1 13  1  0
  1 14  1  0
  2 15  1  0
  3 16  1  0
  3 17  1  0
  4 18  1  0
  4 19  1  0
  6 20  1  0
  7 21  1  0
  9 22  1  0
 10 23  1  0
 11 24  1  0
M  END
> <ID>
HT2636

> <Class>
0.0

> <Clusters>
249

> <Fold>
5

$$$$