
     RDKit          3D

 43 43  0  0  0  0  0  0  0  0999 V2000
   -6.1421   -0.0634   -1.1405 C   0  0  0  0  0  0  0  0  0  0  0  0
   -6.3446    0.8092    0.0966 C   0  0  0  0  0  0  0  0  0  0  0  0
   -5.4625    0.3911    1.2856 C   0  0  0  0  0  0  0  0  0  0  0  0
   -3.9626    0.6542    1.0601 C   0  0  0  0  0  0  0  0  0  0  0  0
   -3.3179   -0.4425    0.3320 N   0  0  0  0  0  0  0  0  0  0  0  0
   -1.9312   -0.4237   -0.0565 C   0  0  0  0  0  0  0  0  0  0  0  0
   -1.4100   -1.4988   -0.7920 C   0  0  0  0  0  0  0  0  0  0  0  0
   -0.0687   -1.5105   -1.1844 C   0  0  0  0  0  0  0  0  0  0  0  0
    0.7814   -0.4433   -0.8481 C   0  0  0  0  0  0  0  0  0  0  0  0
    0.2622    0.6330   -0.1100 C   0  0  0  0  0  0  0  0  0  0  0  0
   -1.0795    0.6442    0.2827 C   0  0  0  0  0  0  0  0  0  0  0  0
    2.2034   -0.4518   -1.2556 C   0  0  0  0  0  0  0  0  0  0  0  0
    2.6750   -1.4363   -1.8891 O   0  0  0  0  0  0  0  0  0  0  0  0
    3.0250    0.6365   -0.9348 O   0  0  0  0  0  0  0  0  0  0  0  0
    4.4267    0.6668   -1.1939 C   0  0  0  0  0  0  0  0  0  0  0  0
    5.2006   -0.1986   -0.1936 C   0  0  0  0  0  0  0  0  0  0  0  0
    5.1580    0.4062    1.1584 N   0  0  0  0  0  0  0  0  0  0  0  0
    4.0832   -0.1848    1.9751 C   0  0  0  0  0  0  0  0  0  0  0  0
    6.4469    0.2321    1.8481 C   0  0  0  0  0  0  0  0  0  0  0  0
   -6.2640   -1.1371   -0.8838 H   0  0  0  0  0  0  0  0  0  0  0  0
   -6.8988    0.2038   -1.9079 H   0  0  0  0  0  0  0  0  0  0  0  0
   -5.1359    0.1064   -1.5770 H   0  0  0  0  0  0  0  0  0  0  0  0
   -7.4089    0.7295    0.4072 H   0  0  0  0  0  0  0  0  0  0  0  0
   -6.1528    1.8725   -0.1649 H   0  0  0  0  0  0  0  0  0  0  0  0
   -5.7848    0.9921    2.1638 H   0  0  0  0  0  0  0  0  0  0  0  0
   -5.6411   -0.6750    1.5465 H   0  0  0  0  0  0  0  0  0  0  0  0
   -3.8266    1.6078    0.5051 H   0  0  0  0  0  0  0  0  0  0  0  0
   -3.4704    0.7573    2.0514 H   0  0  0  0  0  0  0  0  0  0  0  0
   -3.8795   -1.2913    0.0925 H   0  0  0  0  0  0  0  0  0  0  0  0
   -2.0460   -2.3319   -1.0641 H   0  0  0  0  0  0  0  0  0  0  0  0
    0.3014   -2.3556   -1.7513 H   0  0  0  0  0  0  0  0  0  0  0  0
    0.8930    1.4679    0.1687 H   0  0  0  0  0  0  0  0  0  0  0  0
   -1.4407    1.4887    0.8531 H   0  0  0  0  0  0  0  0  0  0  0  0
    4.6270    0.3212   -2.2317 H   0  0  0  0  0  0  0  0  0  0  0  0
    4.7813    1.7166   -1.1165 H   0  0  0  0  0  0  0  0  0  0  0  0
    4.8092   -1.2409   -0.1977 H   0  0  0  0  0  0  0  0  0  0  0  0
    6.2460   -0.2588   -0.5741 H   0  0  0  0  0  0  0  0  0  0  0  0
    3.0964   -0.0310    1.4944 H   0  0  0  0  0  0  0  0  0  0  0  0
    4.2450   -1.2751    2.1293 H   0  0  0  0  0  0  0  0  0  0  0  0
    4.0374    0.3154    2.9665 H   0  0  0  0  0  0  0  0  0  0  0  0
    6.7114   -0.8454    1.9384 H   0  0  0  0  0  0  0  0  0  0  0  0
    6.4075    0.6839    2.8629 H   0  0  0  0  0  0  0  0  0  0  0  0
    7.2507    0.7594    1.2906 H   0  0  0  0  0  0  0  0  0  0  0  0
  1  2  1  0
  2  3  1  0
  3  4  1  0
  4  5  1  0
  5  6  1  0
  6  7  2  0
  7  8  1  0
  8  9  2  0
  9 10  1  0
 10 11  2  0
 11  6  1  0
  9 12  1  0
 12 13  2  0
 12 14  1  0
 14 15  1  0
 15 16  1  0
 16 17  1  0
 17 18  1  0
 17 19  1  0
  1 20  1  0
  1 21  1  0
  1 22  1  0
  2 23  1  0
  2 24  1  0
  3 25  1  0
  3 26  1  0
  4 27  1  0
  4 28  1  0
  5 29  1  0
  7 30  1  0
  8 31  1  0
 10 32  1  0
 11 33  1  0
 15 34  1  0
 15 35  1  0
 16 36  1  0
 16 37  1  0
 18 38  1  0
 18 39  1  0
 18 40  1  0
 19 41  1  0
 19 42  1  0
 19 43  1  0
M  END
> <ID>
HT2024

> <Class>
0.0

> <Clusters>
204

> <Fold>
5

$$$$