
     RDKit          3D

 41 42  0  0  0  0  0  0  0  0999 V2000
    0.4096   -2.4611   -2.2801 C   0  0  0  0  0  0  0  0  0  0  0  0
   -0.5403   -2.3123   -1.0949 C   0  0  0  0  0  0  0  0  0  0  0  0
   -0.9643   -0.9110   -0.9379 N   0  0  0  0  0  0  0  0  0  0  0  0
   -2.3673   -0.5492   -1.1933 C   0  0  0  0  0  0  0  0  0  0  0  0
   -3.0346   -0.1323    0.0900 C   0  0  0  0  0  0  0  0  0  0  0  0
   -3.4491    1.1933    0.2859 C   0  0  0  0  0  0  0  0  0  0  0  0
   -4.0433    1.5556    1.4972 C   0  0  0  0  0  0  0  0  0  0  0  0
   -4.2173    0.6286    2.4763 N   0  0  0  0  0  0  0  0  0  0  0  0
   -3.8262   -0.6630    2.3123 C   0  0  0  0  0  0  0  0  0  0  0  0
   -3.2289   -1.0677    1.1164 C   0  0  0  0  0  0  0  0  0  0  0  0
   -0.0330    0.1353   -0.5687 C   0  0  0  0  0  0  0  0  0  0  0  0
   -0.2887    1.3254   -0.9029 O   0  0  0  0  0  0  0  0  0  0  0  0
    1.1736   -0.1344    0.3137 C   0  0  0  0  0  0  0  0  0  0  0  0
    0.7994    0.0193    1.7968 C   0  0  0  0  0  0  0  0  0  0  0  0
   -0.1100   -0.9811    2.1655 O   0  0  0  0  0  0  0  0  0  0  0  0
    2.3514    0.7534   -0.0622 C   0  0  0  0  0  0  0  0  0  0  0  0
    3.4827    0.1915   -0.6846 C   0  0  0  0  0  0  0  0  0  0  0  0
    4.5708    0.9947   -1.0389 C   0  0  0  0  0  0  0  0  0  0  0  0
    4.5441    2.3662   -0.7784 C   0  0  0  0  0  0  0  0  0  0  0  0
    3.4285    2.9382   -0.1638 C   0  0  0  0  0  0  0  0  0  0  0  0
    2.3373    2.1404    0.1927 C   0  0  0  0  0  0  0  0  0  0  0  0
    1.3289   -1.8588   -2.1292 H   0  0  0  0  0  0  0  0  0  0  0  0
   -0.0935   -2.1252   -3.2114 H   0  0  0  0  0  0  0  0  0  0  0  0
    0.6992   -3.5269   -2.3939 H   0  0  0  0  0  0  0  0  0  0  0  0
   -0.0681   -2.6840   -0.1627 H   0  0  0  0  0  0  0  0  0  0  0  0
   -1.4149   -2.9743   -1.2724 H   0  0  0  0  0  0  0  0  0  0  0  0
   -2.4068    0.2649   -1.9497 H   0  0  0  0  0  0  0  0  0  0  0  0
   -2.9355   -1.3988   -1.6295 H   0  0  0  0  0  0  0  0  0  0  0  0
   -3.3080    1.9399   -0.4856 H   0  0  0  0  0  0  0  0  0  0  0  0
   -4.3644    2.5758    1.6598 H   0  0  0  0  0  0  0  0  0  0  0  0
   -3.9771   -1.3763    3.1115 H   0  0  0  0  0  0  0  0  0  0  0  0
   -2.9144   -2.0967    0.9934 H   0  0  0  0  0  0  0  0  0  0  0  0
    1.4999   -1.1843    0.1817 H   0  0  0  0  0  0  0  0  0  0  0  0
    1.7167   -0.0747    2.4209 H   0  0  0  0  0  0  0  0  0  0  0  0
    0.3454    1.0190    1.9806 H   0  0  0  0  0  0  0  0  0  0  0  0
   -0.3408   -0.8090    3.1152 H   0  0  0  0  0  0  0  0  0  0  0  0
    3.5246   -0.8691   -0.8991 H   0  0  0  0  0  0  0  0  0  0  0  0
    5.4355    0.5527   -1.5168 H   0  0  0  0  0  0  0  0  0  0  0  0
    5.3875    2.9860   -1.0539 H   0  0  0  0  0  0  0  0  0  0  0  0
    3.4082    4.0018    0.0358 H   0  0  0  0  0  0  0  0  0  0  0  0
    1.4830    2.6080    0.6640 H   0  0  0  0  0  0  0  0  0  0  0  0
  1  2  1  0
  2  3  1  0
  3  4  1  0
  4  5  1  0
  5  6  2  0
  6  7  1  0
  7  8  2  0
  8  9  1  0
  9 10  2  0
 10  5  1  0
  3 11  1  0
 11 12  2  0
 11 13  1  0
 13 14  1  0
 14 15  1  0
 13 16  1  0
 16 17  2  0
 17 18  1  0
 18 19  2  0
 19 20  1  0
 20 21  2  0
 21 16  1  0
  1 22  1  0
  1 23  1  0
  1 24  1  0
  2 25  1  0
  2 26  1  0
  4 27  1  0
  4 28  1  0
  6 29  1  0
  7 30  1  0
  9 31  1  0
 10 32  1  0
 13 33  1  0
 14 34  1  0
 14 35  1  0
 15 36  1  0
 17 37  1  0
 18 38  1  0
 19 39  1  0
 20 40  1  0
 21 41  1  0
M  END
> <ID>
HT2140

> <Class>
0.0

> <Clusters>
0

> <Fold>
5

$$$$