
     RDKit          3D

 44 45  0  0  0  0  0  0  0  0999 V2000
   -5.2421    1.9632    1.4964 C   0  0  0  0  0  0  0  0  0  0  0  0
   -4.3974    0.9114    0.8452 C   0  0  0  0  0  0  0  0  0  0  0  0
   -3.9480   -0.1250    1.5908 N   0  0  0  0  0  0  0  0  0  0  0  0
   -3.1701   -1.1053    1.0730 C   0  0  0  0  0  0  0  0  0  0  0  0
   -2.7697   -1.0734   -0.2791 C   0  0  0  0  0  0  0  0  0  0  0  0
   -1.8502   -2.1435   -0.8509 C   0  0  0  0  0  0  0  0  0  0  0  0
   -1.0200   -3.2368    0.3642 S   0  0  0  0  0  0  0  0  0  0  0  0
    0.2109   -1.6993    1.2006 S   0  0  0  0  0  0  0  0  0  0  0  0
    1.5448   -1.9021   -0.0287 C   0  0  0  0  0  0  0  0  0  0  0  0
    2.8182   -1.2603    0.4712 C   0  0  0  0  0  0  0  0  0  0  0  0
    3.8433   -2.0988    0.9307 C   0  0  0  0  0  0  0  0  0  0  0  0
    5.0284   -1.5841    1.3372 N   0  0  0  0  0  0  0  0  0  0  0  0
    5.2850   -0.2532    1.3105 C   0  0  0  0  0  0  0  0  0  0  0  0
    6.6283    0.2387    1.7518 C   0  0  0  0  0  0  0  0  0  0  0  0
    4.3057    0.6412    0.8538 C   0  0  0  0  0  0  0  0  0  0  0  0
    4.6257    2.0035    0.7966 O   0  0  0  0  0  0  0  0  0  0  0  0
    3.0382    0.1441    0.4519 C   0  0  0  0  0  0  0  0  0  0  0  0
    1.9740    1.1052   -0.0487 C   0  0  0  0  0  0  0  0  0  0  0  0
    2.2863    1.5511   -1.3386 O   0  0  0  0  0  0  0  0  0  0  0  0
   -3.2795   -0.0314   -1.1056 C   0  0  0  0  0  0  0  0  0  0  0  0
   -3.0310    0.0025   -2.6030 C   0  0  0  0  0  0  0  0  0  0  0  0
   -4.2418   -0.1336   -3.2966 O   0  0  0  0  0  0  0  0  0  0  0  0
   -4.0838    0.9801   -0.5206 C   0  0  0  0  0  0  0  0  0  0  0  0
   -4.5844    2.0541   -1.2644 O   0  0  0  0  0  0  0  0  0  0  0  0
   -5.3913    1.7357    2.5728 H   0  0  0  0  0  0  0  0  0  0  0  0
   -4.7445    2.9517    1.4081 H   0  0  0  0  0  0  0  0  0  0  0  0
   -6.2342    2.0037    1.0011 H   0  0  0  0  0  0  0  0  0  0  0  0
   -2.8636   -1.9010    1.7360 H   0  0  0  0  0  0  0  0  0  0  0  0
   -1.0459   -1.6666   -1.4480 H   0  0  0  0  0  0  0  0  0  0  0  0
   -2.4431   -2.7911   -1.5276 H   0  0  0  0  0  0  0  0  0  0  0  0
    1.2500   -1.4534   -0.9989 H   0  0  0  0  0  0  0  0  0  0  0  0
    1.7075   -2.9878   -0.2189 H   0  0  0  0  0  0  0  0  0  0  0  0
    3.7013   -3.1723    0.9666 H   0  0  0  0  0  0  0  0  0  0  0  0
    6.5117    0.9117    2.6266 H   0  0  0  0  0  0  0  0  0  0  0  0
    7.2803   -0.6107    2.0411 H   0  0  0  0  0  0  0  0  0  0  0  0
    7.1149    0.7942    0.9239 H   0  0  0  0  0  0  0  0  0  0  0  0
    3.9959    2.7142    0.4408 H   0  0  0  0  0  0  0  0  0  0  0  0
    1.9103    1.9776    0.6319 H   0  0  0  0  0  0  0  0  0  0  0  0
    0.9548    0.6743   -0.0359 H   0  0  0  0  0  0  0  0  0  0  0  0
    2.1169    0.7895   -1.9529 H   0  0  0  0  0  0  0  0  0  0  0  0
   -2.3217   -0.7665   -2.9621 H   0  0  0  0  0  0  0  0  0  0  0  0
   -2.5686    0.9730   -2.8715 H   0  0  0  0  0  0  0  0  0  0  0  0
   -4.5032   -1.0897   -3.2211 H   0  0  0  0  0  0  0  0  0  0  0  0
   -4.3980    2.1944   -2.2494 H   0  0  0  0  0  0  0  0  0  0  0  0
  1  2  1  0
  2  3  2  0
  3  4  1  0
  4  5  2  0
  5  6  1  0
  6  7  1  0
  7  8  1  0
  8  9  1  0
  9 10  1  0
 10 11  2  0
 11 12  1  0
 12 13  2  0
 13 14  1  0
 13 15  1  0
 15 16  1  0
 15 17  2  0
 17 10  1  0
 17 18  1  0
 18 19  1  0
  5 20  1  0
 20 21  1  0
 21 22  1  0
 20 23  2  0
 23  2  1  0
 23 24  1  0
  1 25  1  0
  1 26  1  0
  1 27  1  0
  4 28  1  0
  6 29  1  0
  6 30  1  0
  9 31  1  0
  9 32  1  0
 11 33  1  0
 14 34  1  0
 14 35  1  0
 14 36  1  0
 16 37  1  0
 18 38  1  0
 18 39  1  0
 19 40  1  0
 21 41  1  0
 21 42  1  0
 22 43  1  0
 24 44  1  0
M  END
> <ID>
HT1781

> <Class>
0.0

> <Clusters>
210

> <Fold>
5

$$$$