
     RDKit          3D

 62 65  0  0  0  0  0  0  0  0999 V2000
    3.2070   -1.0359   -3.2343 C   0  0  0  0  0  0  0  0  0  0  0  0
    2.2526   -1.5610   -2.1510 C   0  0  2  0  0  0  0  0  0  0  0  0
    0.7699   -1.3171   -2.5188 C   0  0  0  0  0  0  0  0  0  0  0  0
    0.2201   -0.4855   -1.3668 C   0  0  1  0  0  0  0  0  0  0  0  0
   -1.3096   -0.4544   -1.1408 C   0  0  2  0  0  0  0  0  0  0  0  0
   -2.0284   -0.0277   -2.4406 C   0  0  0  0  0  0  0  0  0  0  0  0
   -3.5361    0.1001   -2.2349 C   0  0  2  0  0  0  0  0  0  0  0  0
   -4.1181    0.5000   -3.4283 F   0  0  0  0  0  0  0  0  0  0  0  0
   -3.8079    1.0708   -1.1053 C   0  0  0  0  0  0  0  0  0  0  0  0
   -4.5662    2.1626   -1.3129 C   0  0  0  0  0  0  0  0  0  0  0  0
   -4.7828    3.1438   -0.2510 C   0  0  0  0  0  0  0  0  0  0  0  0
   -5.5119    4.1495   -0.4564 O   0  0  0  0  0  0  0  0  0  0  0  0
   -4.1372    2.9585    1.0438 C   0  0  0  0  0  0  0  0  0  0  0  0
   -3.3810    1.8863    1.2765 C   0  0  0  0  0  0  0  0  0  0  0  0
   -3.1675    0.7619    0.2609 C   0  0  1  0  0  0  0  0  0  0  0  0
   -3.8712   -0.4914    0.8371 C   0  0  0  0  0  0  0  0  0  0  0  0
   -1.6185    0.5578    0.0192 C   0  0  1  0  0  0  0  0  0  0  0  0
   -0.7621    0.2802    1.3052 C   0  0  1  0  0  0  0  0  0  0  0  0
   -1.2501   -0.8289    2.0112 O   0  0  0  0  0  0  0  0  0  0  0  0
    0.7511    0.0971    0.9986 C   0  0  0  0  0  0  0  0  0  0  0  0
    1.0226   -0.9331   -0.1336 C   0  0  1  0  0  0  0  0  0  0  0  0
    0.6472   -2.3760    0.3509 C   0  0  0  0  0  0  0  0  0  0  0  0
    2.4754   -0.9311   -0.7230 C   0  0  2  0  0  0  0  0  0  0  0  0
    2.9130    0.4072   -0.8594 O   0  0  0  0  0  0  0  0  0  0  0  0
    3.4910   -1.7153    0.1309 C   0  0  0  0  0  0  0  0  0  0  0  0
    4.0172   -2.7228   -0.3185 O   0  0  0  0  0  0  0  0  0  0  0  0
    3.8678   -1.2922    1.5291 C   0  0  0  0  0  0  0  0  0  0  0  0
    3.8584    0.1255    1.6541 O   0  0  0  0  0  0  0  0  0  0  0  0
    4.1384    0.7801    2.8557 C   0  0  0  0  0  0  0  0  0  0  0  0
    4.4868    0.1294    3.8788 O   0  0  0  0  0  0  0  0  0  0  0  0
    4.0566    2.2676    2.9122 C   0  0  0  0  0  0  0  0  0  0  0  0
    3.0468    0.0485   -3.4154 H   0  0  0  0  0  0  0  0  0  0  0  0
    4.2608   -1.2062   -2.9282 H   0  0  0  0  0  0  0  0  0  0  0  0
    3.0296   -1.5797   -4.1866 H   0  0  0  0  0  0  0  0  0  0  0  0
    2.3953   -2.6636   -2.1130 H   0  0  0  0  0  0  0  0  0  0  0  0
    0.2237   -2.2837   -2.5892 H   0  0  0  0  0  0  0  0  0  0  0  0
    0.6521   -0.7756   -3.4837 H   0  0  0  0  0  0  0  0  0  0  0  0
    0.5095    0.5679   -1.6051 H   0  0  0  0  0  0  0  0  0  0  0  0
   -1.6724   -1.4676   -0.8845 H   0  0  0  0  0  0  0  0  0  0  0  0
   -1.6247    0.9454   -2.8001 H   0  0  0  0  0  0  0  0  0  0  0  0
   -1.8505   -0.7851   -3.2345 H   0  0  0  0  0  0  0  0  0  0  0  0
   -3.9584   -0.8938   -1.9761 H   0  0  0  0  0  0  0  0  0  0  0  0
   -5.0188    2.3554   -2.2773 H   0  0  0  0  0  0  0  0  0  0  0  0
   -4.2824    3.6940    1.8258 H   0  0  0  0  0  0  0  0  0  0  0  0
   -2.9694    1.7787    2.2718 H   0  0  0  0  0  0  0  0  0  0  0  0
   -3.5852   -1.4185    0.3027 H   0  0  0  0  0  0  0  0  0  0  0  0
   -4.9745   -0.3801    0.7550 H   0  0  0  0  0  0  0  0  0  0  0  0
   -3.6522   -0.6311    1.9159 H   0  0  0  0  0  0  0  0  0  0  0  0
   -1.2555    1.5485   -0.3448 H   0  0  0  0  0  0  0  0  0  0  0  0
   -0.8307    1.1781    1.9602 H   0  0  0  0  0  0  0  0  0  0  0  0
   -0.8945   -0.7661    2.9359 H   0  0  0  0  0  0  0  0  0  0  0  0
    1.1596    1.0919    0.7177 H   0  0  0  0  0  0  0  0  0  0  0  0
    1.2707   -0.2086    1.9297 H   0  0  0  0  0  0  0  0  0  0  0  0
   -0.4309   -2.5164    0.5332 H   0  0  0  0  0  0  0  0  0  0  0  0
    1.1618   -2.6108    1.3043 H   0  0  0  0  0  0  0  0  0  0  0  0
    0.9383   -3.1546   -0.3816 H   0  0  0  0  0  0  0  0  0  0  0  0
    3.8793    0.4035   -1.0896 H   0  0  0  0  0  0  0  0  0  0  0  0
    4.8869   -1.6676    1.7672 H   0  0  0  0  0  0  0  0  0  0  0  0
    3.1560   -1.7400    2.2527 H   0  0  0  0  0  0  0  0  0  0  0  0
    3.9743    2.6130    3.9649 H   0  0  0  0  0  0  0  0  0  0  0  0
    4.9668    2.7055    2.4528 H   0  0  0  0  0  0  0  0  0  0  0  0
    3.1620    2.6127    2.3519 H   0  0  0  0  0  0  0  0  0  0  0  0
  2  1  1  0
  2  3  1  0
  4  3  1  0
  4  5  1  0
  5  6  1  0
  6  7  1  0
  7  8  1  0
  7  9  1  0
  9 10  2  0
 10 11  1  0
 11 12  2  0
 11 13  1  0
 13 14  2  0
 14 15  1  0
 15  9  1  0
 15 16  1  1
 15 17  1  0
 17  5  1  0
 17 18  1  0
 18 19  1  0
 18 20  1  0
 20 21  1  0
 21  4  1  0
 21 22  1  1
 21 23  1  0
 23  2  1  0
 23 24  1  6
 23 25  1  0
 25 26  2  0
 25 27  1  0
 27 28  1  0
 28 29  1  0
 29 30  2  0
 29 31  1  0
  1 32  1  0
  1 33  1  0
  1 34  1  0
  2 35  1  1
  3 36  1  0
  3 37  1  0
  4 38  1  6
  5 39  1  1
  6 40  1  0
  6 41  1  0
  7 42  1  1
 10 43  1  0
 13 44  1  0
 14 45  1  0
 16 46  1  0
 16 47  1  0
 16 48  1  0
 17 49  1  6
 18 50  1  1
 19 51  1  0
 20 52  1  0
 20 53  1  0
 22 54  1  0
 22 55  1  0
 22 56  1  0
 24 57  1  0
 27 58  1  0
 27 59  1  0
 31 60  1  0
 31 61  1  0
 31 62  1  0
M  END
> <ID>
HT1592

> <Class>
0.0

> <Clusters>
189

> <Fold>
5

$$$$