
     RDKit          3D

 37 37  0  0  0  0  0  0  0  0999 V2000
   -3.8722   -2.1247    0.4667 C   0  0  0  0  0  0  0  0  0  0  0  0
   -3.6507   -1.2943   -0.8067 C   0  0  0  0  0  0  0  0  0  0  0  0
   -3.1063    0.0585   -0.5487 N   0  0  0  0  0  0  0  0  0  0  0  0
   -3.9600    0.8580    0.3560 C   0  0  0  0  0  0  0  0  0  0  0  0
   -3.7531    2.3515    0.1164 C   0  0  0  0  0  0  0  0  0  0  0  0
   -1.6773    0.0423   -0.1544 C   0  0  0  0  0  0  0  0  0  0  0  0
   -0.8411    0.6873   -1.2599 C   0  0  0  0  0  0  0  0  0  0  0  0
    0.5341    0.7463   -0.8856 O   0  0  0  0  0  0  0  0  0  0  0  0
    1.3793   -0.3708   -0.8626 C   0  0  0  0  0  0  0  0  0  0  0  0
    0.9595   -1.4910   -1.2650 O   0  0  0  0  0  0  0  0  0  0  0  0
    2.7694   -0.2310   -0.3757 C   0  0  0  0  0  0  0  0  0  0  0  0
    3.6376   -1.3379   -0.3531 C   0  0  0  0  0  0  0  0  0  0  0  0
    4.9498   -1.1997    0.1094 C   0  0  0  0  0  0  0  0  0  0  0  0
    5.4144    0.0441    0.5560 C   0  0  0  0  0  0  0  0  0  0  0  0
    6.7567    0.1841    1.0289 N   0  0  0  0  0  0  0  0  0  0  0  0
    4.5544    1.1498    0.5363 C   0  0  0  0  0  0  0  0  0  0  0  0
    3.2417    1.0145    0.0743 C   0  0  0  0  0  0  0  0  0  0  0  0
   -4.6859   -1.6897    1.0833 H   0  0  0  0  0  0  0  0  0  0  0  0
   -4.1729   -3.1552    0.1831 H   0  0  0  0  0  0  0  0  0  0  0  0
   -2.9481   -2.1874    1.0763 H   0  0  0  0  0  0  0  0  0  0  0  0
   -2.9675   -1.8481   -1.4880 H   0  0  0  0  0  0  0  0  0  0  0  0
   -4.6181   -1.2022   -1.3466 H   0  0  0  0  0  0  0  0  0  0  0  0
   -5.0346    0.6422    0.1627 H   0  0  0  0  0  0  0  0  0  0  0  0
   -3.7520    0.6148    1.4220 H   0  0  0  0  0  0  0  0  0  0  0  0
   -3.9211    2.5923   -0.9548 H   0  0  0  0  0  0  0  0  0  0  0  0
   -2.7259    2.6574    0.4038 H   0  0  0  0  0  0  0  0  0  0  0  0
   -4.4748    2.9304    0.7306 H   0  0  0  0  0  0  0  0  0  0  0  0
   -1.4997    0.5962    0.7945 H   0  0  0  0  0  0  0  0  0  0  0  0
   -1.3031   -0.9905    0.0132 H   0  0  0  0  0  0  0  0  0  0  0  0
   -0.9558    0.1268   -2.2134 H   0  0  0  0  0  0  0  0  0  0  0  0
   -1.2010    1.7241   -1.4276 H   0  0  0  0  0  0  0  0  0  0  0  0
    3.3039   -2.3105   -0.6923 H   0  0  0  0  0  0  0  0  0  0  0  0
    5.6042   -2.0623    0.1196 H   0  0  0  0  0  0  0  0  0  0  0  0
    7.1120    1.1073    1.3639 H   0  0  0  0  0  0  0  0  0  0  0  0
    7.4051   -0.6345    1.0474 H   0  0  0  0  0  0  0  0  0  0  0  0
    4.9010    2.1167    0.8791 H   0  0  0  0  0  0  0  0  0  0  0  0
    2.5983    1.8853    0.0706 H   0  0  0  0  0  0  0  0  0  0  0  0
  1  2  1  0
  2  3  1  0
  3  4  1  0
  4  5  1  0
  3  6  1  0
  6  7  1  0
  7  8  1  0
  8  9  1  0
  9 10  2  0
  9 11  1  0
 11 12  2  0
 12 13  1  0
 13 14  2  0
 14 15  1  0
 14 16  1  0
 16 17  2  0
 17 11  1  0
  1 18  1  0
  1 19  1  0
  1 20  1  0
  2 21  1  0
  2 22  1  0
  4 23  1  0
  4 24  1  0
  5 25  1  0
  5 26  1  0
  5 27  1  0
  6 28  1  0
  6 29  1  0
  7 30  1  0
  7 31  1  0
 12 32  1  0
 13 33  1  0
 15 34  1  0
 15 35  1  0
 16 36  1  0
 17 37  1  0
M  END
> <ID>
HT1744

> <Class>
0.0

> <Clusters>
204

> <Fold>
5

$$$$