
     RDKit          3D

 52 56  0  0  0  0  0  0  0  0999 V2000
    4.4213   -2.2977   -1.6698 C   0  0  0  0  0  0  0  0  0  0  0  0
    4.3183   -1.2657   -0.6936 O   0  0  0  0  0  0  0  0  0  0  0  0
    3.1194   -0.6652   -0.2774 C   0  0  0  0  0  0  0  0  0  0  0  0
    1.8861   -1.0574   -0.8325 C   0  0  0  0  0  0  0  0  0  0  0  0
    0.6818   -0.4711   -0.4205 C   0  0  0  0  0  0  0  0  0  0  0  0
    0.7199    0.5343    0.5590 C   0  0  0  0  0  0  0  0  0  0  0  0
    1.9382    0.9434    1.1260 C   0  0  0  0  0  0  0  0  0  0  0  0
    1.9965    1.9448    2.1096 O   0  0  0  0  0  0  0  0  0  0  0  0
    0.8648    2.6339    2.6321 C   0  0  0  0  0  0  0  0  0  0  0  0
    3.1410    0.3484    0.7143 C   0  0  0  0  0  0  0  0  0  0  0  0
    4.3185    0.8127    1.3322 O   0  0  0  0  0  0  0  0  0  0  0  0
    5.6448    0.3620    1.0800 C   0  0  0  0  0  0  0  0  0  0  0  0
   -0.6303   -0.9497   -1.0362 C   0  0  1  0  0  0  0  0  0  0  0  0
   -1.2732   -2.1342   -0.2894 C   0  0  2  0  0  0  0  0  0  0  0  0
   -1.8978   -1.6656    1.0163 C   0  0  2  0  0  0  0  0  0  0  0  0
   -2.0272   -2.9445    1.8560 C   0  0  0  0  0  0  0  0  0  0  0  0
   -0.9590   -3.7628    1.3862 O   0  0  0  0  0  0  0  0  0  0  0  0
   -0.4640   -3.2768    0.1872 C   0  0  0  0  0  0  0  0  0  0  0  0
    0.4506   -3.8440   -0.4654 O   0  0  0  0  0  0  0  0  0  0  0  0
   -3.1579   -0.8438    0.7164 C   0  0  1  0  0  0  0  0  0  0  0  0
   -3.6394   -0.2531    1.8988 O   0  0  0  0  0  0  0  0  0  0  0  0
   -2.8591    0.2155   -0.3509 C   0  0  0  0  0  0  0  0  0  0  0  0
   -3.8044    1.2437   -0.5662 C   0  0  0  0  0  0  0  0  0  0  0  0
   -3.5253    2.2090   -1.5255 C   0  0  0  0  0  0  0  0  0  0  0  0
   -4.2888    3.3016   -1.8893 O   0  0  0  0  0  0  0  0  0  0  0  0
   -3.5874    4.0086   -2.9211 C   0  0  0  0  0  0  0  0  0  0  0  0
   -2.3812    3.2617   -3.1303 O   0  0  0  0  0  0  0  0  0  0  0  0
   -2.3905    2.1851   -2.2644 C   0  0  0  0  0  0  0  0  0  0  0  0
   -1.4343    1.1885   -2.1186 C   0  0  0  0  0  0  0  0  0  0  0  0
   -1.6618    0.1740   -1.1622 C   0  0  0  0  0  0  0  0  0  0  0  0
    4.0375   -1.9384   -2.6480 H   0  0  0  0  0  0  0  0  0  0  0  0
    3.8544   -3.1938   -1.3398 H   0  0  0  0  0  0  0  0  0  0  0  0
    5.4880   -2.5772   -1.7891 H   0  0  0  0  0  0  0  0  0  0  0  0
    1.8535   -1.8246   -1.5935 H   0  0  0  0  0  0  0  0  0  0  0  0
   -0.2011    1.0004    0.8778 H   0  0  0  0  0  0  0  0  0  0  0  0
    0.1690    1.9152    3.1145 H   0  0  0  0  0  0  0  0  0  0  0  0
    0.3446    3.1848    1.8202 H   0  0  0  0  0  0  0  0  0  0  0  0
    1.2054    3.3641    3.3944 H   0  0  0  0  0  0  0  0  0  0  0  0
    6.3443    0.9270    1.7293 H   0  0  0  0  0  0  0  0  0  0  0  0
    5.9223    0.5550    0.0224 H   0  0  0  0  0  0  0  0  0  0  0  0
    5.7384   -0.7164    1.3269 H   0  0  0  0  0  0  0  0  0  0  0  0
   -0.4193   -1.3098   -2.0687 H   0  0  0  0  0  0  0  0  0  0  0  0
   -2.0626   -2.5673   -0.9475 H   0  0  0  0  0  0  0  0  0  0  0  0
   -1.1790   -1.0190    1.5644 H   0  0  0  0  0  0  0  0  0  0  0  0
   -2.9973   -3.4564    1.6776 H   0  0  0  0  0  0  0  0  0  0  0  0
   -1.8998   -2.7253    2.9377 H   0  0  0  0  0  0  0  0  0  0  0  0
   -3.9496   -1.5160    0.3203 H   0  0  0  0  0  0  0  0  0  0  0  0
   -2.9626    0.4079    2.2025 H   0  0  0  0  0  0  0  0  0  0  0  0
   -4.7232    1.2945    0.0040 H   0  0  0  0  0  0  0  0  0  0  0  0
   -3.3465    5.0390   -2.5851 H   0  0  0  0  0  0  0  0  0  0  0  0
   -4.1919    4.0287   -3.8521 H   0  0  0  0  0  0  0  0  0  0  0  0
   -0.5439    1.1918   -2.7347 H   0  0  0  0  0  0  0  0  0  0  0  0
  1  2  1  0
  2  3  1  0
  3  4  2  0
  4  5  1  0
  5  6  2  0
  6  7  1  0
  7  8  1  0
  8  9  1  0
  7 10  2  0
 10  3  1  0
 10 11  1  0
 11 12  1  0
 13  5  1  0
 13 14  1  0
 14 15  1  0
 15 16  1  0
 16 17  1  0
 17 18  1  0
 14 18  1  0
 18 19  2  0
 15 20  1  0
 20 21  1  0
 20 22  1  0
 22 23  2  0
 23 24  1  0
 24 25  1  0
 25 26  1  0
 26 27  1  0
 27 28  1  0
 28 24  2  0
 28 29  1  0
 29 30  2  0
 30 13  1  0
 30 22  1  0
  1 31  1  0
  1 32  1  0
  1 33  1  0
  4 34  1  0
  6 35  1  0
  9 36  1  0
  9 37  1  0
  9 38  1  0
 12 39  1  0
 12 40  1  0
 12 41  1  0
 13 42  1  6
 14 43  1  6
 15 44  1  1
 16 45  1  0
 16 46  1  0
 20 47  1  6
 21 48  1  0
 23 49  1  0
 26 50  1  0
 26 51  1  0
 29 52  1  0
M  END
> <ID>
HT1704

> <Class>
0.0

> <Clusters>
99

> <Fold>
5

$$$$