
     RDKit          3D

 43 45  0  0  0  0  0  0  0  0999 V2000
   -4.2279    2.2246    0.9095 C   0  0  0  0  0  0  0  0  0  0  0  0
   -3.4523    1.1130    0.1866 C   0  0  0  0  0  0  0  0  0  0  0  0
   -4.1694    0.7603   -1.1307 C   0  0  0  0  0  0  0  0  0  0  0  0
   -1.7646    1.7483   -0.2641 S   0  0  0  0  0  0  0  0  0  0  0  0
   -0.9145    0.2301    0.2983 C   0  0  0  0  0  0  0  0  0  0  0  0
   -0.4746   -0.6606   -0.7426 C   0  0  0  0  0  0  0  0  0  0  0  0
    0.8881   -1.1468   -0.5198 N   0  0  0  0  0  0  0  0  0  0  0  0
    1.9813   -0.7623   -1.3679 C   0  0  0  0  0  0  0  0  0  0  0  0
    1.7683   -0.0626   -2.3953 O   0  0  0  0  0  0  0  0  0  0  0  0
    3.4012   -1.1284   -1.0167 C   0  0  0  0  0  0  0  0  0  0  0  0
    3.4755   -2.4631   -0.4285 N   0  0  0  0  0  0  0  0  0  0  0  0
    3.1746   -3.4631   -1.0816 N   0  0  0  0  0  0  0  0  0  0  0  0
    2.8735   -4.4617   -1.7334 N   0  0  0  0  0  0  0  0  0  0  0  0
    3.9732   -0.1062   -0.0617 C   0  0  0  0  0  0  0  0  0  0  0  0
    4.9096    0.8391   -0.5186 C   0  0  0  0  0  0  0  0  0  0  0  0
    5.4245    1.8037    0.3531 C   0  0  0  0  0  0  0  0  0  0  0  0
    5.0076    1.8382    1.6858 C   0  0  0  0  0  0  0  0  0  0  0  0
    4.0741    0.9086    2.1499 C   0  0  0  0  0  0  0  0  0  0  0  0
    3.5565   -0.0584    1.2829 C   0  0  0  0  0  0  0  0  0  0  0  0
   -1.4930   -1.6396   -0.2558 C   0  0  0  0  0  0  0  0  0  0  0  0
   -1.8416   -2.8018   -0.5903 O   0  0  0  0  0  0  0  0  0  0  0  0
   -1.9615   -0.6405    0.7375 N   0  0  0  0  0  0  0  0  0  0  0  0
   -3.2468   -0.1155    1.1240 C   0  0  0  0  0  0  0  0  0  0  0  0
   -4.3354   -1.1652    1.1051 C   0  0  0  0  0  0  0  0  0  0  0  0
   -4.4929   -1.9130    0.1040 O   0  0  0  0  0  0  0  0  0  0  0  0
   -5.1843   -1.3162    2.1982 O   0  0  0  0  0  0  0  0  0  0  0  0
   -4.3590    3.1049    0.2441 H   0  0  0  0  0  0  0  0  0  0  0  0
   -3.6781    2.5573    1.8158 H   0  0  0  0  0  0  0  0  0  0  0  0
   -5.2309    1.8586    1.2177 H   0  0  0  0  0  0  0  0  0  0  0  0
   -3.6354   -0.0577   -1.6594 H   0  0  0  0  0  0  0  0  0  0  0  0
   -4.1942    1.6436   -1.8045 H   0  0  0  0  0  0  0  0  0  0  0  0
   -5.2189    0.4486   -0.9426 H   0  0  0  0  0  0  0  0  0  0  0  0
   -0.1787    0.4205    1.1122 H   0  0  0  0  0  0  0  0  0  0  0  0
   -0.6762   -0.3212   -1.7824 H   0  0  0  0  0  0  0  0  0  0  0  0
    1.0839   -1.7181    0.3336 H   0  0  0  0  0  0  0  0  0  0  0  0
    4.0015   -1.1341   -1.9550 H   0  0  0  0  0  0  0  0  0  0  0  0
    5.2392    0.8336   -1.5501 H   0  0  0  0  0  0  0  0  0  0  0  0
    6.1453    2.5268   -0.0061 H   0  0  0  0  0  0  0  0  0  0  0  0
    5.4067    2.5863    2.3585 H   0  0  0  0  0  0  0  0  0  0  0  0
    3.7505    0.9374    3.1823 H   0  0  0  0  0  0  0  0  0  0  0  0
    2.8351   -0.7696    1.6625 H   0  0  0  0  0  0  0  0  0  0  0  0
   -3.1387    0.2487    2.1693 H   0  0  0  0  0  0  0  0  0  0  0  0
   -5.1013   -0.7267    3.0177 H   0  0  0  0  0  0  0  0  0  0  0  0
  1  2  1  0
  2  3  1  0
  2  4  1  0
  4  5  1  0
  5  6  1  0
  6  7  1  0
  7  8  1  0
  8  9  2  0
  8 10  1  0
 10 11  1  0
 11 12  2  3
 12 13  2  0
 10 14  1  0
 14 15  2  0
 15 16  1  0
 16 17  2  0
 17 18  1  0
 18 19  2  0
 19 14  1  0
  6 20  1  0
 20 21  2  0
 20 22  1  0
 22  5  1  0
 22 23  1  0
 23  2  1  0
 23 24  1  0
 24 25  2  0
 24 26  1  0
  1 27  1  0
  1 28  1  0
  1 29  1  0
  3 30  1  0
  3 31  1  0
  3 32  1  0
  5 33  1  0
  6 34  1  0
  7 35  1  0
 10 36  1  0
 15 37  1  0
 16 38  1  0
 17 39  1  0
 18 40  1  0
 19 41  1  0
 23 42  1  0
 26 43  1  0
M  CHG  2  12   1  13  -1
M  END
> <ID>
HT0216

> <Class>
0.0

> <Clusters>
18

> <Fold>
5

$$$$