
     RDKit          3D

 25 25  0  0  0  0  0  0  0  0999 V2000
   -2.5912   -1.0510   -0.8430 C   0  0  0  0  0  0  0  0  0  0  0  0
   -1.9916    0.2086   -0.2058 C   0  0  0  0  0  0  0  0  0  0  0  0
   -2.6198    0.4832    1.1661 C   0  0  0  0  0  0  0  0  0  0  0  0
   -0.4768    0.1033   -0.1037 C   0  0  0  0  0  0  0  0  0  0  0  0
    0.1116   -0.9092    0.6795 C   0  0  0  0  0  0  0  0  0  0  0  0
    1.4999   -1.0165    0.7825 C   0  0  0  0  0  0  0  0  0  0  0  0
    2.3308   -0.1075    0.1168 C   0  0  0  0  0  0  0  0  0  0  0  0
    3.8223   -0.2480    0.1971 C   0  0  0  0  0  0  0  0  0  0  0  0
    1.7577    0.8922   -0.6802 C   0  0  0  0  0  0  0  0  0  0  0  0
    0.3639    1.0075   -0.7902 C   0  0  0  0  0  0  0  0  0  0  0  0
   -0.1809    2.0182   -1.5827 O   0  0  0  0  0  0  0  0  0  0  0  0
   -2.1216   -1.2367   -1.8326 H   0  0  0  0  0  0  0  0  0  0  0  0
   -3.6831   -0.9159   -0.9973 H   0  0  0  0  0  0  0  0  0  0  0  0
   -2.4351   -1.9418   -0.1984 H   0  0  0  0  0  0  0  0  0  0  0  0
   -2.2738    1.0609   -0.8604 H   0  0  0  0  0  0  0  0  0  0  0  0
   -2.1708    1.3955    1.6140 H   0  0  0  0  0  0  0  0  0  0  0  0
   -3.7124    0.6525    1.0568 H   0  0  0  0  0  0  0  0  0  0  0  0
   -2.4643   -0.3710    1.8586 H   0  0  0  0  0  0  0  0  0  0  0  0
   -0.5039   -1.6226    1.2117 H   0  0  0  0  0  0  0  0  0  0  0  0
    1.9267   -1.8098    1.3839 H   0  0  0  0  0  0  0  0  0  0  0  0
    4.1233   -0.6853    1.1729 H   0  0  0  0  0  0  0  0  0  0  0  0
    4.1751   -0.9103   -0.6208 H   0  0  0  0  0  0  0  0  0  0  0  0
    4.3149    0.7429    0.0992 H   0  0  0  0  0  0  0  0  0  0  0  0
    2.3948    1.5846   -1.2172 H   0  0  0  0  0  0  0  0  0  0  0  0
    0.4045    2.6764   -2.0837 H   0  0  0  0  0  0  0  0  0  0  0  0
  1  2  1  0
  2  3  1  0
  2  4  1  0
  4  5  2  0
  5  6  1  0
  6  7  2  0
  7  8  1  0
  7  9  1  0
  9 10  2  0
 10  4  1  0
 10 11  1  0
  1 12  1  0
  1 13  1  0
  1 14  1  0
  2 15  1  0
  3 16  1  0
  3 17  1  0
  3 18  1  0
  5 19  1  0
  6 20  1  0
  8 21  1  0
  8 22  1  0
  8 23  1  0
  9 24  1  0
 11 25  1  0
M  END
> <ID>
HT2631

> <Class>
0.0

> <Clusters>
208

> <Fold>
5

$$$$