
     RDKit          3D

 33 34  0  0  0  0  0  0  0  0999 V2000
   -5.0028    1.1863   -0.9252 N   0  0  0  0  0  0  0  0  0  0  0  0
   -4.3710    0.1994   -0.1094 C   0  0  0  0  0  0  0  0  0  0  0  0
   -4.6060    0.1729    1.1286 O   0  0  0  0  0  0  0  0  0  0  0  0
   -3.4687   -0.8333   -0.7214 C   0  0  0  0  0  0  0  0  0  0  0  0
   -2.1466   -0.9054    0.0109 C   0  0  0  0  0  0  0  0  0  0  0  0
   -1.9064   -2.0077    0.8489 C   0  0  0  0  0  0  0  0  0  0  0  0
   -0.7055   -2.1260    1.5429 C   0  0  0  0  0  0  0  0  0  0  0  0
    0.2720   -1.1434    1.4217 C   0  0  0  0  0  0  0  0  0  0  0  0
    0.0655   -0.0281    0.5959 C   0  0  0  0  0  0  0  0  0  0  0  0
    1.1118    1.0188    0.5524 C   0  0  0  0  0  0  0  0  0  0  0  0
    0.7888    2.2073    0.8247 O   0  0  0  0  0  0  0  0  0  0  0  0
    2.5271    0.7007    0.2315 C   0  0  0  0  0  0  0  0  0  0  0  0
    2.8695   -0.4845   -0.4489 C   0  0  0  0  0  0  0  0  0  0  0  0
    4.2049   -0.7671   -0.7518 C   0  0  0  0  0  0  0  0  0  0  0  0
    5.2116    0.1289   -0.3865 C   0  0  0  0  0  0  0  0  0  0  0  0
    4.8847    1.3120    0.2793 C   0  0  0  0  0  0  0  0  0  0  0  0
    3.5509    1.6001    0.5846 C   0  0  0  0  0  0  0  0  0  0  0  0
   -1.1487    0.0976   -0.1271 C   0  0  0  0  0  0  0  0  0  0  0  0
   -1.3427    1.2060   -1.0242 N   0  0  0  0  0  0  0  0  0  0  0  0
   -4.8457    1.2095   -1.9571 H   0  0  0  0  0  0  0  0  0  0  0  0
   -5.6356    1.8970   -0.4955 H   0  0  0  0  0  0  0  0  0  0  0  0
   -3.2930   -0.6290   -1.7988 H   0  0  0  0  0  0  0  0  0  0  0  0
   -3.9975   -1.8101   -0.6782 H   0  0  0  0  0  0  0  0  0  0  0  0
   -2.6544   -2.7818    0.9689 H   0  0  0  0  0  0  0  0  0  0  0  0
   -0.5357   -2.9797    2.1864 H   0  0  0  0  0  0  0  0  0  0  0  0
    1.1905   -1.2445    1.9875 H   0  0  0  0  0  0  0  0  0  0  0  0
    2.1072   -1.1874   -0.7595 H   0  0  0  0  0  0  0  0  0  0  0  0
    4.4587   -1.6803   -1.2745 H   0  0  0  0  0  0  0  0  0  0  0  0
    6.2445   -0.0917   -0.6226 H   0  0  0  0  0  0  0  0  0  0  0  0
    5.6655    2.0072    0.5595 H   0  0  0  0  0  0  0  0  0  0  0  0
    3.3218    2.5220    1.1046 H   0  0  0  0  0  0  0  0  0  0  0  0
   -2.2589    1.4006   -1.4801 H   0  0  0  0  0  0  0  0  0  0  0  0
   -0.5557    1.8339   -1.2971 H   0  0  0  0  0  0  0  0  0  0  0  0
  1  2  1  0
  2  3  2  0
  2  4  1  0
  4  5  1  0
  5  6  2  0
  6  7  1  0
  7  8  2  0
  8  9  1  0
  9 10  1  0
 10 11  2  0
 10 12  1  0
 12 13  2  0
 13 14  1  0
 14 15  2  0
 15 16  1  0
 16 17  2  0
 17 12  1  0
  9 18  2  0
 18  5  1  0
 18 19  1  0
  1 20  1  0
  1 21  1  0
  4 22  1  0
  4 23  1  0
  6 24  1  0
  7 25  1  0
  8 26  1  0
 13 27  1  0
 14 28  1  0
 15 29  1  0
 16 30  1  0
 17 31  1  0
 19 32  1  0
 19 33  1  0
M  END
> <ID>
HT1476

> <Class>
0.0

> <Clusters>
142

> <Fold>
5

$$$$