
     RDKit          3D

 33 34  0  0  0  0  0  0  0  0999 V2000
    0.6762   -1.8924    2.6204 O   0  0  0  0  0  0  0  0  0  0  0  0
    1.7521   -1.0395    2.5324 N   0  0  0  0  0  0  0  0  0  0  0  0
    2.5427   -0.9667    3.4959 O   0  0  0  0  0  0  0  0  0  0  0  0
    2.0773   -0.4097    1.2809 C   0  0  0  0  0  0  0  0  0  0  0  0
    3.4236   -0.3421    0.8790 C   0  0  0  0  0  0  0  0  0  0  0  0
    3.7815    0.1864   -0.3711 C   0  0  0  0  0  0  0  0  0  0  0  0
    2.7787    0.7000   -1.2045 C   0  0  0  0  0  0  0  0  0  0  0  0
    1.4408    0.6560   -0.8126 C   0  0  0  0  0  0  0  0  0  0  0  0
    1.0700    0.1071    0.4273 C   0  0  0  0  0  0  0  0  0  0  0  0
   -0.3518    0.1722    0.8471 C   0  0  0  0  0  0  0  0  0  0  0  0
   -0.6329    0.5082    2.0307 O   0  0  0  0  0  0  0  0  0  0  0  0
   -1.4782   -0.0955   -0.1317 C   0  0  0  0  0  0  0  0  0  0  0  0
   -2.2242    1.1826   -0.4717 C   0  0  0  0  0  0  0  0  0  0  0  0
   -1.6804    2.2715   -0.3526 O   0  0  0  0  0  0  0  0  0  0  0  0
   -3.6037    1.1114   -1.0758 C   0  0  0  0  0  0  0  0  0  0  0  0
   -4.4802    0.1091   -0.3149 C   0  0  0  0  0  0  0  0  0  0  0  0
   -3.8062   -1.2637   -0.2396 C   0  0  0  0  0  0  0  0  0  0  0  0
   -2.4503   -1.1324    0.3982 C   0  0  0  0  0  0  0  0  0  0  0  0
   -2.1368   -1.8858    1.3089 O   0  0  0  0  0  0  0  0  0  0  0  0
    5.2332    0.2852   -0.7698 C   0  0  0  0  0  0  0  0  0  0  0  0
    5.7575    1.4698   -0.2876 F   0  0  0  0  0  0  0  0  0  0  0  0
    5.9555   -0.7736   -0.2471 F   0  0  0  0  0  0  0  0  0  0  0  0
    5.3674    0.2607   -2.1474 F   0  0  0  0  0  0  0  0  0  0  0  0
    4.1938   -0.7255    1.5369 H   0  0  0  0  0  0  0  0  0  0  0  0
    3.0301    1.1512   -2.1562 H   0  0  0  0  0  0  0  0  0  0  0  0
    0.6971    1.0885   -1.4699 H   0  0  0  0  0  0  0  0  0  0  0  0
   -1.0667   -0.5053   -1.0788 H   0  0  0  0  0  0  0  0  0  0  0  0
   -4.0873    2.1121   -1.0467 H   0  0  0  0  0  0  0  0  0  0  0  0
   -3.5157    0.8002   -2.1390 H   0  0  0  0  0  0  0  0  0  0  0  0
   -5.4582    0.0101   -0.8330 H   0  0  0  0  0  0  0  0  0  0  0  0
   -4.6732    0.4874    0.7136 H   0  0  0  0  0  0  0  0  0  0  0  0
   -4.4455   -1.9617    0.3438 H   0  0  0  0  0  0  0  0  0  0  0  0
   -3.6863   -1.6757   -1.2649 H   0  0  0  0  0  0  0  0  0  0  0  0
  1  2  1  0
  2  3  2  0
  2  4  1  0
  4  5  2  0
  5  6  1  0
  6  7  2  0
  7  8  1  0
  8  9  2  0
  9  4  1  0
  9 10  1  0
 10 11  2  0
 10 12  1  0
 12 13  1  0
 13 14  2  0
 13 15  1  0
 15 16  1  0
 16 17  1  0
 17 18  1  0
 18 12  1  0
 18 19  2  0
  6 20  1  0
 20 21  1  0
 20 22  1  0
 20 23  1  0
  5 24  1  0
  7 25  1  0
  8 26  1  0
 12 27  1  0
 15 28  1  0
 15 29  1  0
 16 30  1  0
 16 31  1  0
 17 32  1  0
 17 33  1  0
M  CHG  2   1  -1   2   1
M  END
> <ID>
HT1501

> <Class>
0.0

> <Clusters>
108

> <Fold>
5

$$$$