
     RDKit          3D

 26 26  0  0  0  0  0  0  0  0999 V2000
   -2.4399   -2.4220    0.9845 O   0  0  0  0  0  0  0  0  0  0  0  0
   -1.1783   -1.4426    1.5456 P   0  0  0  0  0  0  0  0  0  0  0  0
    0.1096   -2.2322    1.4995 O   0  0  0  0  0  0  0  0  0  0  0  0
   -1.4872   -0.9729    3.1427 O   0  0  0  0  0  0  0  0  0  0  0  0
   -1.0210    0.0336    0.4890 C   0  0  0  0  0  0  0  0  0  0  0  0
    0.2700    1.1387    1.1643 S   0  0  0  0  0  0  0  0  0  0  0  0
    1.5291    0.6855   -0.0316 C   0  0  0  0  0  0  0  0  0  0  0  0
    2.4645   -0.3108    0.2735 C   0  0  0  0  0  0  0  0  0  0  0  0
    3.4440   -0.6618   -0.6608 C   0  0  0  0  0  0  0  0  0  0  0  0
    3.4946   -0.0139   -1.9005 C   0  0  0  0  0  0  0  0  0  0  0  0
    4.7231   -0.4548   -3.0722 Cl  0  0  0  0  0  0  0  0  0  0  0  0
    2.5653    0.9882   -2.2029 C   0  0  0  0  0  0  0  0  0  0  0  0
    1.5858    1.3396   -1.2688 C   0  0  0  0  0  0  0  0  0  0  0  0
   -2.5976    0.9414    0.4281 P   0  0  0  0  0  0  0  0  0  0  0  0
   -3.0359    1.3141    1.8266 O   0  0  0  0  0  0  0  0  0  0  0  0
   -2.3939    2.3517   -0.4848 O   0  0  0  0  0  0  0  0  0  0  0  0
   -3.7840   -0.0228   -0.2975 O   0  0  0  0  0  0  0  0  0  0  0  0
   -3.2448   -2.1015    1.4641 H   0  0  0  0  0  0  0  0  0  0  0  0
   -1.6053   -1.8225    3.6379 H   0  0  0  0  0  0  0  0  0  0  0  0
   -0.7798   -0.2921   -0.5447 H   0  0  0  0  0  0  0  0  0  0  0  0
    2.4365   -0.8102    1.2332 H   0  0  0  0  0  0  0  0  0  0  0  0
    4.1630   -1.4344   -0.4201 H   0  0  0  0  0  0  0  0  0  0  0  0
    2.6011    1.4939   -3.1593 H   0  0  0  0  0  0  0  0  0  0  0  0
    0.8682    2.1138   -1.5091 H   0  0  0  0  0  0  0  0  0  0  0  0
   -2.1035    2.0348   -1.3771 H   0  0  0  0  0  0  0  0  0  0  0  0
   -4.5834    0.5591   -0.3529 H   0  0  0  0  0  0  0  0  0  0  0  0
  1  2  1  0
  2  3  2  0
  2  4  1  0
  2  5  1  0
  5  6  1  0
  6  7  1  0
  7  8  2  0
  8  9  1  0
  9 10  2  0
 10 11  1  0
 10 12  1  0
 12 13  2  0
 13  7  1  0
  5 14  1  0
 14 15  2  0
 14 16  1  0
 14 17  1  0
  1 18  1  0
  4 19  1  0
  5 20  1  0
  8 21  1  0
  9 22  1  0
 12 23  1  0
 13 24  1  0
 16 25  1  0
 17 26  1  0
M  END
> <ID>
HT2062

> <Class>
0.0

> <Clusters>
249

> <Fold>
5

$$$$