
     RDKit          3D

 26 26  0  0  0  0  0  0  0  0999 V2000
   -0.9789   -2.2459    1.1453 N   0  0  0  0  0  0  0  0  0  0  0  0
   -0.9800   -2.0142   -0.2984 C   0  0  0  0  0  0  0  0  0  0  0  0
   -0.8152   -0.5196   -0.6460 C   0  0  0  0  0  0  0  0  0  0  0  0
   -1.9471    0.3401   -0.0294 C   0  0  0  0  0  0  0  0  0  0  0  0
   -1.9638    1.7702   -0.5064 C   0  0  0  0  0  0  0  0  0  0  0  0
   -1.1512    2.1782   -1.3787 O   0  0  0  0  0  0  0  0  0  0  0  0
   -2.8999    2.6587    0.0129 O   0  0  0  0  0  0  0  0  0  0  0  0
    0.5786   -0.0120   -0.2968 C   0  0  0  0  0  0  0  0  0  0  0  0
    1.5114    0.2189   -1.3254 C   0  0  0  0  0  0  0  0  0  0  0  0
    2.7941    0.6897   -1.0302 C   0  0  0  0  0  0  0  0  0  0  0  0
    3.1630    0.9372    0.2945 C   0  0  0  0  0  0  0  0  0  0  0  0
    4.7730    1.5283    0.6624 Cl  0  0  0  0  0  0  0  0  0  0  0  0
    2.2470    0.7135    1.3256 C   0  0  0  0  0  0  0  0  0  0  0  0
    0.9632    0.2429    1.0352 C   0  0  0  0  0  0  0  0  0  0  0  0
   -1.4231   -3.1761    1.3211 H   0  0  0  0  0  0  0  0  0  0  0  0
    0.0134   -2.3400    1.4613 H   0  0  0  0  0  0  0  0  0  0  0  0
   -0.1694   -2.6063   -0.7809 H   0  0  0  0  0  0  0  0  0  0  0  0
   -1.9438   -2.3725   -0.7253 H   0  0  0  0  0  0  0  0  0  0  0  0
   -0.9457   -0.4619   -1.7507 H   0  0  0  0  0  0  0  0  0  0  0  0
   -2.9277   -0.1104   -0.2954 H   0  0  0  0  0  0  0  0  0  0  0  0
   -1.8789    0.3368    1.0781 H   0  0  0  0  0  0  0  0  0  0  0  0
   -3.5705    2.3620    0.7119 H   0  0  0  0  0  0  0  0  0  0  0  0
    1.2483    0.0327   -2.3591 H   0  0  0  0  0  0  0  0  0  0  0  0
    3.5002    0.8615   -1.8327 H   0  0  0  0  0  0  0  0  0  0  0  0
    2.5280    0.9050    2.3534 H   0  0  0  0  0  0  0  0  0  0  0  0
    0.2751    0.0832    1.8536 H   0  0  0  0  0  0  0  0  0  0  0  0
  1  2  1  0
  2  3  1  0
  3  4  1  0
  4  5  1  0
  5  6  2  0
  5  7  1  0
  3  8  1  0
  8  9  2  0
  9 10  1  0
 10 11  2  0
 11 12  1  0
 11 13  1  0
 13 14  2  0
 14  8  1  0
  1 15  1  0
  1 16  1  0
  2 17  1  0
  2 18  1  0
  3 19  1  0
  4 20  1  0
  4 21  1  0
  7 22  1  0
  9 23  1  0
 10 24  1  0
 13 25  1  0
 14 26  1  0
M  END
> <ID>
HT0223

> <Class>
0.0

> <Clusters>
249

> <Fold>
5

$$$$