
     RDKit          3D

 63 66  0  0  0  0  0  0  0  0999 V2000
    3.3531   -1.3274    2.1785 O   0  0  0  0  0  0  0  0  0  0  0  0
    3.6644   -0.5689    1.0269 C   0  0  0  0  0  0  0  0  0  0  0  0
    3.0290    0.8425    1.2320 C   0  0  0  0  0  0  0  0  0  0  0  0
    2.1739    1.3035    0.0389 C   0  0  0  0  0  0  0  0  0  0  0  0
    1.1033    0.3339   -0.3033 N   0  0  0  0  0  0  0  0  0  0  0  0
   -0.1336    0.5902    0.4681 C   0  0  0  0  0  0  0  0  0  0  0  0
   -1.3406   -0.1084   -0.1763 C   0  0  0  0  0  0  0  0  0  0  0  0
   -2.6465    0.2636    0.5440 C   0  0  0  0  0  0  0  0  0  0  0  0
   -3.8683   -0.4731   -0.0546 C   0  0  0  0  0  0  0  0  0  0  0  0
   -4.1470   -0.0837   -1.4975 C   0  0  0  0  0  0  0  0  0  0  0  0
   -4.1861   -1.0780   -2.4935 C   0  0  0  0  0  0  0  0  0  0  0  0
   -4.4450   -0.7399   -3.8250 C   0  0  0  0  0  0  0  0  0  0  0  0
   -4.6693    0.5923   -4.1790 C   0  0  0  0  0  0  0  0  0  0  0  0
   -4.9202    0.9180   -5.4709 F   0  0  0  0  0  0  0  0  0  0  0  0
   -4.6355    1.5888   -3.2010 C   0  0  0  0  0  0  0  0  0  0  0  0
   -4.3775    1.2562   -1.8680 C   0  0  0  0  0  0  0  0  0  0  0  0
   -5.1224   -0.3170    0.7915 C   0  0  0  0  0  0  0  0  0  0  0  0
   -5.9219   -1.4453    1.0584 C   0  0  0  0  0  0  0  0  0  0  0  0
   -7.0923   -1.3259    1.8134 C   0  0  0  0  0  0  0  0  0  0  0  0
   -7.4829   -0.0801    2.3086 C   0  0  0  0  0  0  0  0  0  0  0  0
   -8.6186    0.0334    3.0403 F   0  0  0  0  0  0  0  0  0  0  0  0
   -6.7040    1.0490    2.0474 C   0  0  0  0  0  0  0  0  0  0  0  0
   -5.5330    0.9359    1.2920 C   0  0  0  0  0  0  0  0  0  0  0  0
    1.5233   -1.0925   -0.2246 C   0  0  0  0  0  0  0  0  0  0  0  0
    3.0470   -1.2711   -0.2188 C   0  0  0  0  0  0  0  0  0  0  0  0
    5.1892   -0.4417    0.8629 C   0  0  0  0  0  0  0  0  0  0  0  0
    6.0827   -1.0201    1.7869 C   0  0  0  0  0  0  0  0  0  0  0  0
    7.4613   -0.8858    1.6264 C   0  0  0  0  0  0  0  0  0  0  0  0
    7.9864   -0.1668    0.5512 C   0  0  0  0  0  0  0  0  0  0  0  0
    9.7386   -0.0393    0.4185 Cl  0  0  0  0  0  0  0  0  0  0  0  0
    7.1199    0.4383   -0.3835 C   0  0  0  0  0  0  0  0  0  0  0  0
    5.7287    0.2973   -0.2114 C   0  0  0  0  0  0  0  0  0  0  0  0
    7.6750    1.2326   -1.5475 C   0  0  0  0  0  0  0  0  0  0  0  0
    6.6704    1.7379   -2.3552 F   0  0  0  0  0  0  0  0  0  0  0  0
    8.4832    0.4195   -2.3214 F   0  0  0  0  0  0  0  0  0  0  0  0
    8.4218    2.2944   -1.0700 F   0  0  0  0  0  0  0  0  0  0  0  0
    3.6132   -2.2727    2.0183 H   0  0  0  0  0  0  0  0  0  0  0  0
    2.3734    0.8398    2.1308 H   0  0  0  0  0  0  0  0  0  0  0  0
    3.8072    1.6120    1.4317 H   0  0  0  0  0  0  0  0  0  0  0  0
    1.7594    2.3127    0.2556 H   0  0  0  0  0  0  0  0  0  0  0  0
    2.8224    1.4440   -0.8505 H   0  0  0  0  0  0  0  0  0  0  0  0
   -0.0151    0.2587    1.5242 H   0  0  0  0  0  0  0  0  0  0  0  0
   -0.3549    1.6807    0.4814 H   0  0  0  0  0  0  0  0  0  0  0  0
   -1.2044   -1.2101   -0.1323 H   0  0  0  0  0  0  0  0  0  0  0  0
   -1.4028    0.1958   -1.2439 H   0  0  0  0  0  0  0  0  0  0  0  0
   -2.5525   -0.0162    1.6169 H   0  0  0  0  0  0  0  0  0  0  0  0
   -2.7846    1.3638    0.4937 H   0  0  0  0  0  0  0  0  0  0  0  0
   -3.5979   -1.5537   -0.0335 H   0  0  0  0  0  0  0  0  0  0  0  0
   -4.0178   -2.1176   -2.2417 H   0  0  0  0  0  0  0  0  0  0  0  0
   -4.4723   -1.5130   -4.5822 H   0  0  0  0  0  0  0  0  0  0  0  0
   -4.8088    2.6217   -3.4750 H   0  0  0  0  0  0  0  0  0  0  0  0
   -4.3531    2.0485   -1.1341 H   0  0  0  0  0  0  0  0  0  0  0  0
   -5.6438   -2.4197    0.6761 H   0  0  0  0  0  0  0  0  0  0  0  0
   -7.6981   -2.2008    2.0114 H   0  0  0  0  0  0  0  0  0  0  0  0
   -7.0075    2.0152    2.4298 H   0  0  0  0  0  0  0  0  0  0  0  0
   -4.9524    1.8284    1.1096 H   0  0  0  0  0  0  0  0  0  0  0  0
    1.1120   -1.6292   -1.1061 H   0  0  0  0  0  0  0  0  0  0  0  0
    1.1159   -1.5924    0.6836 H   0  0  0  0  0  0  0  0  0  0  0  0
    3.4494   -0.8590   -1.1682 H   0  0  0  0  0  0  0  0  0  0  0  0
    3.2934   -2.3553   -0.2204 H   0  0  0  0  0  0  0  0  0  0  0  0
    5.7292   -1.5736    2.6456 H   0  0  0  0  0  0  0  0  0  0  0  0
    8.1265   -1.3424    2.3486 H   0  0  0  0  0  0  0  0  0  0  0  0
    5.0575    0.7719   -0.9112 H   0  0  0  0  0  0  0  0  0  0  0  0
  1  2  1  0
  2  3  1  0
  3  4  1  0
  4  5  1  0
  5  6  1  0
  6  7  1  0
  7  8  1  0
  8  9  1  0
  9 10  1  0
 10 11  2  0
 11 12  1  0
 12 13  2  0
 13 14  1  0
 13 15  1  0
 15 16  2  0
 16 10  1  0
  9 17  1  0
 17 18  2  0
 18 19  1  0
 19 20  2  0
 20 21  1  0
 20 22  1  0
 22 23  2  0
 23 17  1  0
  5 24  1  0
 24 25  1  0
 25  2  1  0
  2 26  1  0
 26 27  2  0
 27 28  1  0
 28 29  2  0
 29 30  1  0
 29 31  1  0
 31 32  2  0
 32 26  1  0
 31 33  1  0
 33 34  1  0
 33 35  1  0
 33 36  1  0
  1 37  1  0
  3 38  1  0
  3 39  1  0
  4 40  1  0
  4 41  1  0
  6 42  1  0
  6 43  1  0
  7 44  1  0
  7 45  1  0
  8 46  1  0
  8 47  1  0
  9 48  1  0
 11 49  1  0
 12 50  1  0
 15 51  1  0
 16 52  1  0
 18 53  1  0
 19 54  1  0
 22 55  1  0
 23 56  1  0
 24 57  1  0
 24 58  1  0
 25 59  1  0
 25 60  1  0
 27 61  1  0
 28 62  1  0
 32 63  1  0
M  END
> <ID>
HT1612

> <Class>
0.0

> <Clusters>
198

> <Fold>
5

$$$$