
     RDKit          3D

 96 97  0  0  0  0  0  0  0  0999 V2000
    2.6902    2.3048    1.0751 C   0  0  0  0  0  0  0  0  0  0  0  0
    2.9352    0.9925    0.3656 C   0  0  0  0  0  0  0  0  0  0  0  0
    1.9170    0.2163   -0.0541 C   0  0  0  0  0  0  0  0  0  0  0  0
    0.4906    0.5564    0.1438 C   0  0  0  0  0  0  0  0  0  0  0  0
   -0.4780   -0.2962   -0.1990 C   0  0  0  0  0  0  0  0  0  0  0  0
   -1.8993    0.0873   -0.0592 C   0  0  0  0  0  0  0  0  0  0  0  0
   -2.9376   -0.7505   -0.2380 C   0  0  0  0  0  0  0  0  0  0  0  0
   -2.7271   -2.2213   -0.5137 C   0  0  0  0  0  0  0  0  0  0  0  0
   -4.3071   -0.1761   -0.1779 C   0  0  0  0  0  0  0  0  0  0  0  0
   -5.3682   -0.7329   -0.7747 C   0  0  0  0  0  0  0  0  0  0  0  0
   -6.6860   -0.0628   -0.7287 C   0  0  0  0  0  0  0  0  0  0  0  0
   -7.8127   -0.5661   -1.2656 C   0  0  0  0  0  0  0  0  0  0  0  0
   -7.8211   -1.8853   -1.9998 C   0  0  0  0  0  0  0  0  0  0  0  0
   -9.0506    0.2370   -1.1441 C   0  0  0  0  0  0  0  0  0  0  0  0
  -10.2623   -0.3072   -1.0064 C   0  0  0  0  0  0  0  0  0  0  0  0
  -11.4837    0.5276   -0.8727 C   0  0  0  0  0  0  0  0  0  0  0  0
  -12.3991    0.5219   -1.8718 C   0  0  0  0  0  0  0  0  0  0  0  0
  -12.1911   -0.2857   -3.1299 C   0  0  0  0  0  0  0  0  0  0  0  0
  -13.6648    1.3234   -1.7266 C   0  0  0  0  0  0  0  0  0  0  0  0
  -14.2530    1.1164   -0.3341 C   0  0  0  0  0  0  0  0  0  0  0  0
  -13.2393    1.3717    0.8036 C   0  0  0  0  0  0  0  0  0  0  0  0
  -11.7241    1.3829    0.3884 C   0  0  0  0  0  0  0  0  0  0  0  0
  -11.2679    2.8366    0.1193 C   0  0  0  0  0  0  0  0  0  0  0  0
  -10.9024    0.8541    1.5900 C   0  0  0  0  0  0  0  0  0  0  0  0
    4.3175    0.5631    0.0504 C   0  0  0  0  0  0  0  0  0  0  0  0
    5.3463    0.7827    0.8746 C   0  0  0  0  0  0  0  0  0  0  0  0
    6.7202    0.4096    0.4764 C   0  0  0  0  0  0  0  0  0  0  0  0
    7.8107    0.6085    1.2400 C   0  0  0  0  0  0  0  0  0  0  0  0
    7.7176    1.2270    2.6154 C   0  0  0  0  0  0  0  0  0  0  0  0
    9.1274    0.2173    0.6848 C   0  0  0  0  0  0  0  0  0  0  0  0
   10.1300   -0.2341    1.4445 C   0  0  0  0  0  0  0  0  0  0  0  0
   11.4622   -0.5671    0.8799 C   0  0  0  0  0  0  0  0  0  0  0  0
   12.5621    0.0701    1.3574 C   0  0  0  0  0  0  0  0  0  0  0  0
   12.4483    1.1431    2.4158 C   0  0  0  0  0  0  0  0  0  0  0  0
   13.9303   -0.1763    0.7587 C   0  0  0  0  0  0  0  0  0  0  0  0
   14.1620   -1.5999    0.2084 C   0  0  0  0  0  0  0  0  0  0  0  0
   12.8983   -2.4690    0.1453 C   0  0  0  0  0  0  0  0  0  0  0  0
   11.6170   -1.6639   -0.1840 C   0  0  0  0  0  0  0  0  0  0  0  0
   10.4338   -2.6634   -0.1666 C   0  0  0  0  0  0  0  0  0  0  0  0
   11.7111   -1.0439   -1.5981 C   0  0  0  0  0  0  0  0  0  0  0  0
    2.1760    2.1191    2.0410 H   0  0  0  0  0  0  0  0  0  0  0  0
    2.0664    2.9672    0.4391 H   0  0  0  0  0  0  0  0  0  0  0  0
    3.6353    2.8501    1.2769 H   0  0  0  0  0  0  0  0  0  0  0  0
    2.1458   -0.7135   -0.5686 H   0  0  0  0  0  0  0  0  0  0  0  0
    0.2173    1.5101    0.5700 H   0  0  0  0  0  0  0  0  0  0  0  0
   -0.2123   -1.2577   -0.6125 H   0  0  0  0  0  0  0  0  0  0  0  0
   -2.1061    1.1281    0.1678 H   0  0  0  0  0  0  0  0  0  0  0  0
   -2.4789   -2.3693   -1.5848 H   0  0  0  0  0  0  0  0  0  0  0  0
   -3.6314   -2.8140   -0.2629 H   0  0  0  0  0  0  0  0  0  0  0  0
   -1.9111   -2.6275    0.1205 H   0  0  0  0  0  0  0  0  0  0  0  0
   -4.4379    0.7756    0.3264 H   0  0  0  0  0  0  0  0  0  0  0  0
   -5.2553   -1.6553   -1.3250 H   0  0  0  0  0  0  0  0  0  0  0  0
   -6.7430    0.8912   -0.2104 H   0  0  0  0  0  0  0  0  0  0  0  0
   -8.7981   -2.0831   -2.4866 H   0  0  0  0  0  0  0  0  0  0  0  0
   -7.0590   -1.8771   -2.8061 H   0  0  0  0  0  0  0  0  0  0  0  0
   -7.5974   -2.7102   -1.2921 H   0  0  0  0  0  0  0  0  0  0  0  0
   -8.9506    1.3135   -1.1228 H   0  0  0  0  0  0  0  0  0  0  0  0
  -10.3849   -1.3825   -1.0114 H   0  0  0  0  0  0  0  0  0  0  0  0
  -11.2418    0.0209   -3.6176 H   0  0  0  0  0  0  0  0  0  0  0  0
  -12.1481   -1.3676   -2.8844 H   0  0  0  0  0  0  0  0  0  0  0  0
  -13.0124   -0.1314   -3.8597 H   0  0  0  0  0  0  0  0  0  0  0  0
  -13.4597    2.3973   -1.9041 H   0  0  0  0  0  0  0  0  0  0  0  0
  -14.4230    1.0152   -2.4795 H   0  0  0  0  0  0  0  0  0  0  0  0
  -14.6210    0.0663   -0.2675 H   0  0  0  0  0  0  0  0  0  0  0  0
  -15.1328    1.7831   -0.2063 H   0  0  0  0  0  0  0  0  0  0  0  0
  -13.4180    0.5800    1.5671 H   0  0  0  0  0  0  0  0  0  0  0  0
  -13.5043    2.3272    1.3105 H   0  0  0  0  0  0  0  0  0  0  0  0
  -11.4532    3.4759    1.0103 H   0  0  0  0  0  0  0  0  0  0  0  0
  -10.1808    2.8861   -0.0950 H   0  0  0  0  0  0  0  0  0  0  0  0
  -11.8037    3.2899   -0.7375 H   0  0  0  0  0  0  0  0  0  0  0  0
   -9.8115    0.9687    1.4201 H   0  0  0  0  0  0  0  0  0  0  0  0
  -11.1483    1.4253    2.5096 H   0  0  0  0  0  0  0  0  0  0  0  0
  -11.1206   -0.2193    1.7736 H   0  0  0  0  0  0  0  0  0  0  0  0
    4.4874    0.0235   -0.8754 H   0  0  0  0  0  0  0  0  0  0  0  0
    5.1646    1.2378    1.8394 H   0  0  0  0  0  0  0  0  0  0  0  0
    6.8486   -0.0437   -0.5032 H   0  0  0  0  0  0  0  0  0  0  0  0
    7.1057    2.1529    2.5911 H   0  0  0  0  0  0  0  0  0  0  0  0
    7.2713    0.5009    3.3241 H   0  0  0  0  0  0  0  0  0  0  0  0
    8.7142    1.5294    2.9979 H   0  0  0  0  0  0  0  0  0  0  0  0
    9.2635    0.2828   -0.3863 H   0  0  0  0  0  0  0  0  0  0  0  0
   10.0000   -0.3261    2.5163 H   0  0  0  0  0  0  0  0  0  0  0  0
   11.7318    1.9256    2.0893 H   0  0  0  0  0  0  0  0  0  0  0  0
   12.1015    0.6946    3.3701 H   0  0  0  0  0  0  0  0  0  0  0  0
   13.4269    1.6356    2.5994 H   0  0  0  0  0  0  0  0  0  0  0  0
   14.0821    0.5612   -0.0573 H   0  0  0  0  0  0  0  0  0  0  0  0
   14.7161    0.0323    1.5198 H   0  0  0  0  0  0  0  0  0  0  0  0
   14.9109   -2.1206    0.8480 H   0  0  0  0  0  0  0  0  0  0  0  0
   14.6084   -1.5270   -0.8064 H   0  0  0  0  0  0  0  0  0  0  0  0
   13.0542   -3.2821   -0.5973 H   0  0  0  0  0  0  0  0  0  0  0  0
   12.7696   -2.9599    1.1381 H   0  0  0  0  0  0  0  0  0  0  0  0
   10.6326   -3.5184   -0.8492 H   0  0  0  0  0  0  0  0  0  0  0  0
   10.2756   -3.0700    0.8562 H   0  0  0  0  0  0  0  0  0  0  0  0
    9.4915   -2.1881   -0.5077 H   0  0  0  0  0  0  0  0  0  0  0  0
   10.7584   -0.5511   -1.8826 H   0  0  0  0  0  0  0  0  0  0  0  0
   12.5145   -0.2815   -1.6626 H   0  0  0  0  0  0  0  0  0  0  0  0
   11.9224   -1.8327   -2.3520 H   0  0  0  0  0  0  0  0  0  0  0  0
  1  2  1  0
  2  3  2  0
  3  4  1  0
  4  5  2  0
  5  6  1  0
  6  7  2  0
  7  8  1  0
  7  9  1  0
  9 10  2  0
 10 11  1  0
 11 12  2  0
 12 13  1  0
 12 14  1  0
 14 15  2  0
 15 16  1  0
 16 17  2  0
 17 18  1  0
 17 19  1  0
 19 20  1  0
 20 21  1  0
 21 22  1  0
 22 16  1  0
 22 23  1  0
 22 24  1  0
  2 25  1  0
 25 26  2  0
 26 27  1  0
 27 28  2  0
 28 29  1  0
 28 30  1  0
 30 31  2  0
 31 32  1  0
 32 33  2  0
 33 34  1  0
 33 35  1  0
 35 36  1  0
 36 37  1  0
 37 38  1  0
 38 32  1  0
 38 39  1  0
 38 40  1  0
  1 41  1  0
  1 42  1  0
  1 43  1  0
  3 44  1  0
  4 45  1  0
  5 46  1  0
  6 47  1  0
  8 48  1  0
  8 49  1  0
  8 50  1  0
  9 51  1  0
 10 52  1  0
 11 53  1  0
 13 54  1  0
 13 55  1  0
 13 56  1  0
 14 57  1  0
 15 58  1  0
 18 59  1  0
 18 60  1  0
 18 61  1  0
 19 62  1  0
 19 63  1  0
 20 64  1  0
 20 65  1  0
 21 66  1  0
 21 67  1  0
 23 68  1  0
 23 69  1  0
 23 70  1  0
 24 71  1  0
 24 72  1  0
 24 73  1  0
 25 74  1  0
 26 75  1  0
 27 76  1  0
 29 77  1  0
 29 78  1  0
 29 79  1  0
 30 80  1  0
 31 81  1  0
 34 82  1  0
 34 83  1  0
 34 84  1  0
 35 85  1  0
 35 86  1  0
 36 87  1  0
 36 88  1  0
 37 89  1  0
 37 90  1  0
 39 91  1  0
 39 92  1  0
 39 93  1  0
 40 94  1  0
 40 95  1  0
 40 96  1  0
M  END
> <ID>
HT0267

> <Class>
0.0

> <Clusters>
33

> <Fold>
5

$$$$