
     RDKit          3D

 25 24  0  0  0  0  0  0  0  0999 V2000
   -3.6105    1.5597   -0.6726 C   0  0  0  0  0  0  0  0  0  0  0  0
   -2.1821    1.2944   -0.3199 C   0  0  0  0  0  0  0  0  0  0  0  0
   -1.3523    2.2421   -0.3714 O   0  0  0  0  0  0  0  0  0  0  0  0
   -1.7604   -0.0198    0.0767 N   0  0  0  0  0  0  0  0  0  0  0  0
   -0.3635   -0.3277    0.4022 C   0  0  0  0  0  0  0  0  0  0  0  0
    0.4633   -0.4500   -0.8970 C   0  0  0  0  0  0  0  0  0  0  0  0
    1.9785   -0.5808   -0.6469 C   0  0  0  0  0  0  0  0  0  0  0  0
    2.6396    0.6911   -0.1822 C   0  0  0  0  0  0  0  0  0  0  0  0
    1.9961    1.7732   -0.1133 O   0  0  0  0  0  0  0  0  0  0  0  0
    4.0228    0.6769    0.1677 N   0  0  0  0  0  0  0  0  0  0  0  0
   -0.2962   -1.6004    1.2044 C   0  0  0  0  0  0  0  0  0  0  0  0
    0.1655   -1.5832    2.3770 O   0  0  0  0  0  0  0  0  0  0  0  0
   -0.7442   -2.7985    0.6547 O   0  0  0  0  0  0  0  0  0  0  0  0
   -3.6721    1.9291   -1.7176 H   0  0  0  0  0  0  0  0  0  0  0  0
   -4.0249    2.3298    0.0111 H   0  0  0  0  0  0  0  0  0  0  0  0
   -4.2213    0.6371   -0.5839 H   0  0  0  0  0  0  0  0  0  0  0  0
   -2.4854   -0.7690    0.1598 H   0  0  0  0  0  0  0  0  0  0  0  0
    0.0427    0.4974    1.0275 H   0  0  0  0  0  0  0  0  0  0  0  0
    0.1183   -1.3420   -1.4649 H   0  0  0  0  0  0  0  0  0  0  0  0
    0.2791    0.4285   -1.5527 H   0  0  0  0  0  0  0  0  0  0  0  0
    2.1724   -1.3835    0.0958 H   0  0  0  0  0  0  0  0  0  0  0  0
    2.4656   -0.8889   -1.5967 H   0  0  0  0  0  0  0  0  0  0  0  0
    4.4958    1.5517    0.4859 H   0  0  0  0  0  0  0  0  0  0  0  0
    4.5765   -0.2066    0.1099 H   0  0  0  0  0  0  0  0  0  0  0  0
   -0.7031   -3.6607    1.1846 H   0  0  0  0  0  0  0  0  0  0  0  0
  1  2  1  0
  2  3  2  0
  2  4  1  0
  4  5  1  0
  5  6  1  0
  6  7  1  0
  7  8  1  0
  8  9  2  0
  8 10  1  0
  5 11  1  0
 11 12  2  0
 11 13  1  0
  1 14  1  0
  1 15  1  0
  1 16  1  0
  4 17  1  0
  5 18  1  0
  6 19  1  0
  6 20  1  0
  7 21  1  0
  7 22  1  0
 10 23  1  0
 10 24  1  0
 13 25  1  0
M  END
> <ID>
HT2809

> <Class>
0.0

> <Clusters>
5

> <Fold>
5

$$$$