
     RDKit          3D

 29 30  0  0  0  0  0  0  0  0999 V2000
   -5.0702    0.5061   -1.5458 C   0  0  0  0  0  0  0  0  0  0  0  0
   -3.9541   -0.3696   -1.6684 O   0  0  0  0  0  0  0  0  0  0  0  0
   -2.7952   -0.2915   -0.8816 C   0  0  0  0  0  0  0  0  0  0  0  0
   -1.7743   -1.2177   -1.1108 C   0  0  0  0  0  0  0  0  0  0  0  0
   -0.6038   -1.1864   -0.3508 C   0  0  0  0  0  0  0  0  0  0  0  0
   -0.4287   -0.2194    0.6524 C   0  0  0  0  0  0  0  0  0  0  0  0
    0.8022   -0.2506    1.4732 C   0  0  0  0  0  0  0  0  0  0  0  0
    0.6910   -0.2891    2.7290 O   0  0  0  0  0  0  0  0  0  0  0  0
    2.1545   -0.2752    0.8587 C   0  0  0  0  0  0  0  0  0  0  0  0
    2.3609    0.1691   -0.4623 C   0  0  0  0  0  0  0  0  0  0  0  0
    3.6407    0.1481   -1.0250 C   0  0  0  0  0  0  0  0  0  0  0  0
    4.7281   -0.3088   -0.2775 C   0  0  0  0  0  0  0  0  0  0  0  0
    4.5387   -0.7421    1.0364 C   0  0  0  0  0  0  0  0  0  0  0  0
    3.2612   -0.7231    1.6046 C   0  0  0  0  0  0  0  0  0  0  0  0
   -1.4521    0.7286    0.8818 C   0  0  0  0  0  0  0  0  0  0  0  0
   -1.3253    1.7407    1.8358 O   0  0  0  0  0  0  0  0  0  0  0  0
   -2.6272    0.6808    0.1215 C   0  0  0  0  0  0  0  0  0  0  0  0
   -5.5080    0.4264   -0.5283 H   0  0  0  0  0  0  0  0  0  0  0  0
   -5.8416    0.2164   -2.2883 H   0  0  0  0  0  0  0  0  0  0  0  0
   -4.7582    1.5527   -1.7468 H   0  0  0  0  0  0  0  0  0  0  0  0
   -1.8923   -1.9721   -1.8783 H   0  0  0  0  0  0  0  0  0  0  0  0
    0.1632   -1.9287   -0.5362 H   0  0  0  0  0  0  0  0  0  0  0  0
    1.5388    0.5456   -1.0571 H   0  0  0  0  0  0  0  0  0  0  0  0
    3.7900    0.4910   -2.0407 H   0  0  0  0  0  0  0  0  0  0  0  0
    5.7179   -0.3235   -0.7150 H   0  0  0  0  0  0  0  0  0  0  0  0
    5.3827   -1.0934    1.6159 H   0  0  0  0  0  0  0  0  0  0  0  0
    3.1379   -1.0674    2.6239 H   0  0  0  0  0  0  0  0  0  0  0  0
   -0.4780    1.8971    2.3660 H   0  0  0  0  0  0  0  0  0  0  0  0
   -3.3986    1.4142    0.3140 H   0  0  0  0  0  0  0  0  0  0  0  0
  1  2  1  0
  2  3  1  0
  3  4  2  0
  4  5  1  0
  5  6  2  0
  6  7  1  0
  7  8  2  0
  7  9  1  0
  9 10  2  0
 10 11  1  0
 11 12  2  0
 12 13  1  0
 13 14  2  0
 14  9  1  0
  6 15  1  0
 15 16  1  0
 15 17  2  0
 17  3  1  0
  1 18  1  0
  1 19  1  0
  1 20  1  0
  4 21  1  0
  5 22  1  0
 10 23  1  0
 11 24  1  0
 12 25  1  0
 13 26  1  0
 14 27  1  0
 16 28  1  0
 17 29  1  0
M  END
> <ID>
HT1563

> <Class>
0.0

> <Clusters>
142

> <Fold>
5

$$$$