
     RDKit          3D

 32 32  0  0  0  0  0  0  0  0999 V2000
   -0.3364    2.8897    1.7430 C   0  0  0  0  0  0  0  0  0  0  0  0
    0.2837    1.9059    0.7506 C   0  0  0  0  0  0  0  0  0  0  0  0
   -0.8008    1.0449    0.0199 C   0  0  0  0  0  0  0  0  0  0  0  0
   -1.1787    1.7891   -1.2876 C   0  0  0  0  0  0  0  0  0  0  0  0
   -0.4170   -0.4863   -0.2023 C   0  0  0  0  0  0  0  0  0  0  0  0
    0.7305   -0.6554   -1.2537 C   0  0  0  0  0  0  0  0  0  0  0  0
    2.0303    0.0198   -0.8988 C   0  0  0  0  0  0  0  0  0  0  0  0
    2.9041   -0.5226   -0.0456 C   0  0  0  0  0  0  0  0  0  0  0  0
   -0.0387   -1.2076    1.0967 C   0  0  0  0  0  0  0  0  0  0  0  0
    0.0462   -0.6030    2.1986 O   0  0  0  0  0  0  0  0  0  0  0  0
    0.1243   -2.6313    1.0804 N   0  0  0  0  0  0  0  0  0  0  0  0
   -0.6007   -3.3992    0.1176 C   0  0  0  0  0  0  0  0  0  0  0  0
   -0.4764   -4.6516    0.0780 O   0  0  0  0  0  0  0  0  0  0  0  0
   -1.5057   -2.7343   -0.7671 N   0  0  0  0  0  0  0  0  0  0  0  0
   -1.6078   -1.3045   -0.7187 C   0  0  0  0  0  0  0  0  0  0  0  0
   -2.6973   -0.7663   -1.0500 O   0  0  0  0  0  0  0  0  0  0  0  0
   -0.8739    2.3390    2.5440 H   0  0  0  0  0  0  0  0  0  0  0  0
   -1.0450    3.5703    1.2261 H   0  0  0  0  0  0  0  0  0  0  0  0
    0.4635    3.5013    2.2113 H   0  0  0  0  0  0  0  0  0  0  0  0
    0.8846    2.4917    0.0210 H   0  0  0  0  0  0  0  0  0  0  0  0
    1.0278    1.2995    1.2971 H   0  0  0  0  0  0  0  0  0  0  0  0
   -1.7161    1.0358    0.6547 H   0  0  0  0  0  0  0  0  0  0  0  0
   -1.5932    2.7899   -1.0429 H   0  0  0  0  0  0  0  0  0  0  0  0
   -1.9420    1.2680   -1.8909 H   0  0  0  0  0  0  0  0  0  0  0  0
   -0.2878    1.9427   -1.9320 H   0  0  0  0  0  0  0  0  0  0  0  0
    0.3936   -0.2573   -2.2341 H   0  0  0  0  0  0  0  0  0  0  0  0
    0.9436   -1.7305   -1.4416 H   0  0  0  0  0  0  0  0  0  0  0  0
    2.2873    0.9525   -1.3920 H   0  0  0  0  0  0  0  0  0  0  0  0
    3.8390   -0.0150    0.1678 H   0  0  0  0  0  0  0  0  0  0  0  0
    2.7028   -1.4736    0.4365 H   0  0  0  0  0  0  0  0  0  0  0  0
    0.6354   -3.1112    1.8549 H   0  0  0  0  0  0  0  0  0  0  0  0
   -2.1789   -3.2904   -1.3408 H   0  0  0  0  0  0  0  0  0  0  0  0
  1  2  1  0
  2  3  1  0
  3  4  1  0
  3  5  1  0
  5  6  1  0
  6  7  1  0
  7  8  2  3
  5  9  1  0
  9 10  2  0
  9 11  1  0
 11 12  1  0
 12 13  2  0
 12 14  1  0
 14 15  1  0
 15  5  1  0
 15 16  2  0
  1 17  1  0
  1 18  1  0
  1 19  1  0
  2 20  1  0
  2 21  1  0
  3 22  1  0
  4 23  1  0
  4 24  1  0
  4 25  1  0
  6 26  1  0
  6 27  1  0
  7 28  1  0
  8 29  1  0
  8 30  1  0
 11 31  1  0
 14 32  1  0
M  END
> <ID>
HT2974

> <Class>
0.0

> <Clusters>
258

> <Fold>
5

$$$$