
     RDKit          3D

 30 31  0  0  0  0  0  0  0  0999 V2000
   -3.9592    1.2463   -0.2157 C   0  0  0  0  0  0  0  0  0  0  0  0
   -3.0307    0.1674   -0.7862 C   0  0  0  0  0  0  0  0  0  0  0  0
   -3.6215   -1.2063   -0.5782 C   0  0  0  0  0  0  0  0  0  0  0  0
   -2.9979   -2.0975    0.0606 O   0  0  0  0  0  0  0  0  0  0  0  0
   -4.8696   -1.5001   -1.1198 O   0  0  0  0  0  0  0  0  0  0  0  0
   -1.6303    0.2973   -0.2090 C   0  0  0  0  0  0  0  0  0  0  0  0
   -0.5372    0.5341   -1.0595 C   0  0  0  0  0  0  0  0  0  0  0  0
    0.7540    0.6583   -0.5392 C   0  0  0  0  0  0  0  0  0  0  0  0
    0.9810    0.5362    0.8418 C   0  0  0  0  0  0  0  0  0  0  0  0
   -0.1121    0.3187    1.6952 C   0  0  0  0  0  0  0  0  0  0  0  0
   -1.4034    0.1942    1.1759 C   0  0  0  0  0  0  0  0  0  0  0  0
    2.3413    0.6846    1.4079 C   0  0  0  0  0  0  0  0  0  0  0  0
    2.4814    1.2690    2.5161 O   0  0  0  0  0  0  0  0  0  0  0  0
    3.5424    0.1636    0.7263 C   0  0  0  0  0  0  0  0  0  0  0  0
    3.5870   -0.8328   -0.2454 C   0  0  0  0  0  0  0  0  0  0  0  0
    4.8873   -1.1430   -0.6621 C   0  0  0  0  0  0  0  0  0  0  0  0
    5.8716   -0.4067   -0.0168 C   0  0  0  0  0  0  0  0  0  0  0  0
    5.1219    0.6276    1.0756 S   0  0  0  0  0  0  0  0  0  0  0  0
   -3.5073    2.2518   -0.3553 H   0  0  0  0  0  0  0  0  0  0  0  0
   -4.1458    1.0824    0.8669 H   0  0  0  0  0  0  0  0  0  0  0  0
   -4.9349    1.2314   -0.7469 H   0  0  0  0  0  0  0  0  0  0  0  0
   -2.9868    0.3283   -1.8860 H   0  0  0  0  0  0  0  0  0  0  0  0
   -5.2859   -2.4159   -1.0001 H   0  0  0  0  0  0  0  0  0  0  0  0
   -0.6824    0.6304   -2.1283 H   0  0  0  0  0  0  0  0  0  0  0  0
    1.5721    0.8688   -1.2164 H   0  0  0  0  0  0  0  0  0  0  0  0
    0.0353    0.2315    2.7648 H   0  0  0  0  0  0  0  0  0  0  0  0
   -2.2261    0.0107    1.8551 H   0  0  0  0  0  0  0  0  0  0  0  0
    2.7135   -1.3416   -0.6306 H   0  0  0  0  0  0  0  0  0  0  0  0
    5.1057   -1.8950   -1.4085 H   0  0  0  0  0  0  0  0  0  0  0  0
    6.9368   -0.4938   -0.1823 H   0  0  0  0  0  0  0  0  0  0  0  0
  1  2  1  0
  2  3  1  0
  3  4  2  0
  3  5  1  0
  2  6  1  0
  6  7  2  0
  7  8  1  0
  8  9  2  0
  9 10  1  0
 10 11  2  0
 11  6  1  0
  9 12  1  0
 12 13  2  0
 12 14  1  0
 14 15  2  0
 15 16  1  0
 16 17  2  0
 17 18  1  0
 18 14  1  0
  1 19  1  0
  1 20  1  0
  1 21  1  0
  2 22  1  0
  5 23  1  0
  7 24  1  0
  8 25  1  0
 10 26  1  0
 11 27  1  0
 15 28  1  0
 16 29  1  0
 17 30  1  0
M  END
> <ID>
HT1967

> <Class>
0.0

> <Clusters>
142

> <Fold>
5

$$$$