
     RDKit          3D

 28 29  0  0  0  0  0  0  0  0999 V2000
   -1.9441   -2.3783   -0.4766 C   0  0  0  0  0  0  0  0  0  0  0  0
   -1.6252   -1.1370    0.3663 C   0  0  0  0  0  0  0  0  0  0  0  0
   -2.4888   -0.0119   -0.0228 N   0  0  0  0  0  0  0  0  0  0  0  0
   -3.3908    0.4455    0.8810 O   0  0  0  0  0  0  0  0  0  0  0  0
   -2.3893    0.6412   -1.3046 C   0  0  0  0  0  0  0  0  0  0  0  0
   -1.5179    0.2801   -2.1404 O   0  0  0  0  0  0  0  0  0  0  0  0
   -3.2723    1.7125   -1.6417 N   0  0  0  0  0  0  0  0  0  0  0  0
   -0.1707   -0.7349    0.3172 C   0  0  0  0  0  0  0  0  0  0  0  0
    0.3796    0.3156    1.0551 C   0  0  0  0  0  0  0  0  0  0  0  0
    1.7500    0.4745    0.8250 C   0  0  0  0  0  0  0  0  0  0  0  0
    2.5783    1.4360    1.4103 C   0  0  0  0  0  0  0  0  0  0  0  0
    3.9407    1.4556    1.0656 C   0  0  0  0  0  0  0  0  0  0  0  0
    4.4581    0.5213    0.1467 C   0  0  0  0  0  0  0  0  0  0  0  0
    3.6177   -0.4405   -0.4355 C   0  0  0  0  0  0  0  0  0  0  0  0
    2.2716   -0.4395   -0.0782 C   0  0  0  0  0  0  0  0  0  0  0  0
    1.0523   -1.4612   -0.6107 S   0  0  0  0  0  0  0  0  0  0  0  0
   -1.3665   -3.2507   -0.1030 H   0  0  0  0  0  0  0  0  0  0  0  0
   -1.6966   -2.2175   -1.5463 H   0  0  0  0  0  0  0  0  0  0  0  0
   -3.0255   -2.6184   -0.3958 H   0  0  0  0  0  0  0  0  0  0  0  0
   -1.8476   -1.4058    1.4230 H   0  0  0  0  0  0  0  0  0  0  0  0
   -4.2134   -0.0814    0.7105 H   0  0  0  0  0  0  0  0  0  0  0  0
   -4.0064    2.0398   -0.9761 H   0  0  0  0  0  0  0  0  0  0  0  0
   -3.1930    2.1845   -2.5697 H   0  0  0  0  0  0  0  0  0  0  0  0
   -0.1938    0.9393    1.7293 H   0  0  0  0  0  0  0  0  0  0  0  0
    2.1821    2.1547    2.1166 H   0  0  0  0  0  0  0  0  0  0  0  0
    4.5967    2.1933    1.5091 H   0  0  0  0  0  0  0  0  0  0  0  0
    5.5087    0.5452   -0.1118 H   0  0  0  0  0  0  0  0  0  0  0  0
    4.0062   -1.1620   -1.1424 H   0  0  0  0  0  0  0  0  0  0  0  0
  1  2  1  0
  2  3  1  0
  3  4  1  0
  3  5  1  0
  5  6  2  0
  5  7  1  0
  2  8  1  0
  8  9  2  0
  9 10  1  0
 10 11  2  0
 11 12  1  0
 12 13  2  0
 13 14  1  0
 14 15  2  0
 15 10  1  0
 15 16  1  0
 16  8  1  0
  1 17  1  0
  1 18  1  0
  1 19  1  0
  2 20  1  0
  4 21  1  0
  7 22  1  0
  7 23  1  0
  9 24  1  0
 11 25  1  0
 12 26  1  0
 13 27  1  0
 14 28  1  0
M  END
> <ID>
HT2213

> <Class>
0.0

> <Clusters>
142

> <Fold>
5

$$$$