
     RDKit          3D

 26 25  0  0  0  0  0  0  0  0999 V2000
   -2.9596   -0.4961   -1.3220 C   0  0  0  0  0  0  0  0  0  0  0  0
   -2.0134   -0.4346   -0.1073 C   0  0  0  0  0  0  0  0  0  0  0  0
   -2.4036    0.7570    0.7825 C   0  0  0  0  0  0  0  0  0  0  0  0
   -2.1853   -1.9900    0.8427 S   0  0  0  0  0  0  0  0  0  0  0  0
   -0.5650   -0.2915   -0.5407 C   0  0  0  0  0  0  0  0  0  0  0  0
   -0.2750   -0.1801   -1.7647 O   0  0  0  0  0  0  0  0  0  0  0  0
    0.4869   -0.2783    0.4398 N   0  0  0  0  0  0  0  0  0  0  0  0
    1.8925   -0.0810    0.0717 C   0  0  2  0  0  0  0  0  0  0  0  0
    2.8097   -0.4193    1.2590 C   0  0  0  0  0  0  0  0  0  0  0  0
    4.5696   -0.3580    0.7846 S   0  0  0  0  0  0  0  0  0  0  0  0
    2.1014    1.3376   -0.3806 C   0  0  0  0  0  0  0  0  0  0  0  0
    1.8335    2.2974    0.3917 O   0  0  0  0  0  0  0  0  0  0  0  0
    2.5861    1.5914   -1.6598 O   0  0  0  0  0  0  0  0  0  0  0  0
   -2.7056   -1.3639   -1.9683 H   0  0  0  0  0  0  0  0  0  0  0  0
   -4.0151   -0.6071   -0.9931 H   0  0  0  0  0  0  0  0  0  0  0  0
   -2.8821    0.4331   -1.9272 H   0  0  0  0  0  0  0  0  0  0  0  0
   -3.4722    0.6912    1.0799 H   0  0  0  0  0  0  0  0  0  0  0  0
   -1.7929    0.7787    1.7096 H   0  0  0  0  0  0  0  0  0  0  0  0
   -2.2508    1.7141    0.2382 H   0  0  0  0  0  0  0  0  0  0  0  0
   -3.5524   -1.8029    1.1250 H   0  0  0  0  0  0  0  0  0  0  0  0
    0.2404   -0.4417    1.4425 H   0  0  0  0  0  0  0  0  0  0  0  0
    2.1420   -0.7738   -0.7623 H   0  0  0  0  0  0  0  0  0  0  0  0
    2.5835   -1.4444    1.6236 H   0  0  0  0  0  0  0  0  0  0  0  0
    2.6370    0.2904    2.0965 H   0  0  0  0  0  0  0  0  0  0  0  0
    4.4601   -1.4694   -0.0730 H   0  0  0  0  0  0  0  0  0  0  0  0
    2.7304    2.5410   -1.9816 H   0  0  0  0  0  0  0  0  0  0  0  0
  1  2  1  0
  2  3  1  0
  2  4  1  0
  2  5  1  0
  5  6  2  0
  5  7  1  0
  7  8  1  0
  8  9  1  0
  9 10  1  0
  8 11  1  0
 11 12  2  0
 11 13  1  0
  1 14  1  0
  1 15  1  0
  1 16  1  0
  3 17  1  0
  3 18  1  0
  3 19  1  0
  4 20  1  0
  7 21  1  0
  8 22  1  6
  9 23  1  0
  9 24  1  0
 10 25  1  0
 13 26  1  0
M  END
> <ID>
HT0320

> <Class>
0.0

> <Clusters>
5

> <Fold>
5

$$$$