
     RDKit          3D

 26 26  0  0  0  0  0  0  0  0999 V2000
   -4.0565    1.1561   -0.7102 C   0  0  0  0  0  0  0  0  0  0  0  0
   -2.6456    0.7063   -0.4774 C   0  0  0  0  0  0  0  0  0  0  0  0
   -1.6332    1.4733   -0.9540 N   0  0  0  0  0  0  0  0  0  0  0  0
   -0.3299    1.1465   -0.7796 C   0  0  0  0  0  0  0  0  0  0  0  0
    0.0316   -0.0136   -0.0716 C   0  0  0  0  0  0  0  0  0  0  0  0
    1.4976   -0.3320    0.1542 C   0  0  0  0  0  0  0  0  0  0  0  0
    2.2976    0.8196    0.0032 O   0  0  0  0  0  0  0  0  0  0  0  0
    3.9302    0.3807    0.2332 P   0  0  0  0  0  0  0  0  0  0  0  0
    4.1409   -0.1120    1.6480 O   0  0  0  0  0  0  0  0  0  0  0  0
    4.3686   -0.8338   -0.8620 O   0  0  0  0  0  0  0  0  0  0  0  0
    4.9054    1.7377   -0.0317 O   0  0  0  0  0  0  0  0  0  0  0  0
   -1.0047   -0.8713    0.3907 C   0  0  0  0  0  0  0  0  0  0  0  0
   -0.7321   -2.1697    1.0593 C   0  0  0  0  0  0  0  0  0  0  0  0
    0.3232   -2.8208    0.8407 O   0  0  0  0  0  0  0  0  0  0  0  0
   -2.3510   -0.4909    0.2047 C   0  0  0  0  0  0  0  0  0  0  0  0
   -3.3722   -1.3173    0.6868 O   0  0  0  0  0  0  0  0  0  0  0  0
   -4.0730    2.1188   -1.2645 H   0  0  0  0  0  0  0  0  0  0  0  0
   -4.6013    0.3983   -1.3117 H   0  0  0  0  0  0  0  0  0  0  0  0
   -4.5716    1.3047    0.2621 H   0  0  0  0  0  0  0  0  0  0  0  0
    0.4219    1.8067   -1.1906 H   0  0  0  0  0  0  0  0  0  0  0  0
    1.7880   -1.1114   -0.5854 H   0  0  0  0  0  0  0  0  0  0  0  0
    1.6156   -0.7210    1.1902 H   0  0  0  0  0  0  0  0  0  0  0  0
    5.3357   -0.9788   -0.7048 H   0  0  0  0  0  0  0  0  0  0  0  0
    4.5438    2.4310    0.5763 H   0  0  0  0  0  0  0  0  0  0  0  0
   -1.4735   -2.6044    1.7169 H   0  0  0  0  0  0  0  0  0  0  0  0
   -4.3555   -1.1026    0.5827 H   0  0  0  0  0  0  0  0  0  0  0  0
  1  2  1  0
  2  3  2  0
  3  4  1  0
  4  5  2  0
  5  6  1  0
  6  7  1  0
  7  8  1  0
  8  9  2  0
  8 10  1  0
  8 11  1  0
  5 12  1  0
 12 13  1  0
 13 14  2  0
 12 15  2  0
 15  2  1  0
 15 16  1  0
  1 17  1  0
  1 18  1  0
  1 19  1  0
  4 20  1  0
  6 21  1  0
  6 22  1  0
 10 23  1  0
 11 24  1  0
 13 25  1  0
 16 26  1  0
M  END
> <ID>
HT1778

> <Class>
0.0

> <Clusters>
210

> <Fold>
5

$$$$