
     RDKit          3D

  9  8  0  0  0  0  0  0  0  0999 V2000
    1.7422   -0.1602    0.3292 O   0  0  0  0  0  0  0  0  0  0  0  0
    0.4066   -0.5145    0.0885 C   0  0  0  0  0  0  0  0  0  0  0  0
   -0.4902    0.6887    0.1245 C   0  0  0  0  0  0  0  0  0  0  0  0
   -0.0173    1.8356    0.3445 O   0  0  0  0  0  0  0  0  0  0  0  0
   -1.8581    0.5443   -0.0841 O   0  0  0  0  0  0  0  0  0  0  0  0
    2.0925    0.2204   -0.5185 H   0  0  0  0  0  0  0  0  0  0  0  0
    0.3100   -1.0228   -0.8973 H   0  0  0  0  0  0  0  0  0  0  0  0
    0.0801   -1.2257    0.8755 H   0  0  0  0  0  0  0  0  0  0  0  0
   -2.2659   -0.3658   -0.2623 H   0  0  0  0  0  0  0  0  0  0  0  0
  1  2  1  0
  2  3  1  0
  3  4  2  0
  3  5  1  0
  1  6  1  0
  2  7  1  0
  2  8  1  0
  5  9  1  0
M  END
> <ID>
HT2339

> <Class>
0.0

> <Clusters>
243

> <Fold>
5

$$$$