
     RDKit          3D

 59 62  0  0  0  0  0  0  0  0999 V2000
    6.3108    2.5573   -0.3281 C   0  0  0  0  0  0  0  0  0  0  0  0
    5.5432    2.3959   -1.5691 N   0  0  0  0  0  0  0  0  0  0  0  0
    4.2274    3.0339   -1.4373 C   0  0  0  0  0  0  0  0  0  0  0  0
    5.3456    0.6974   -1.9255 S   0  0  0  0  0  0  0  0  0  0  0  0
    4.5887    0.5413   -3.2153 O   0  0  0  0  0  0  0  0  0  0  0  0
    6.6978    0.0638   -2.1022 O   0  0  0  0  0  0  0  0  0  0  0  0
    4.4754   -0.1374   -0.6366 C   0  0  0  0  0  0  0  0  0  0  0  0
    5.1802   -0.7419    0.4140 C   0  0  0  0  0  0  0  0  0  0  0  0
    4.4927   -1.3943    1.4407 C   0  0  0  0  0  0  0  0  0  0  0  0
    3.0959   -1.4401    1.4287 C   0  0  0  0  0  0  0  0  0  0  0  0
    2.2031   -2.1508    2.8215 S   0  0  0  0  0  0  0  0  0  0  0  0
    1.0781   -3.0813    1.7700 C   0  0  0  0  0  0  0  0  0  0  0  0
    0.8137   -4.4259    2.0515 C   0  0  0  0  0  0  0  0  0  0  0  0
   -0.0844   -5.1431    1.2577 C   0  0  0  0  0  0  0  0  0  0  0  0
   -0.6997   -4.5266    0.1655 C   0  0  0  0  0  0  0  0  0  0  0  0
   -0.4192   -3.1909   -0.1376 C   0  0  0  0  0  0  0  0  0  0  0  0
    0.4498   -2.4454    0.6790 C   0  0  0  0  0  0  0  0  0  0  0  0
    0.9148   -1.0876    0.2837 C   0  0  0  0  0  0  0  0  0  0  0  0
    0.0859   -0.0722   -0.0312 C   0  0  0  0  0  0  0  0  0  0  0  0
   -1.4174   -0.1614    0.0418 C   0  0  0  0  0  0  0  0  0  0  0  0
   -2.0546    1.2450    0.0338 C   0  0  0  0  0  0  0  0  0  0  0  0
   -3.5347    1.2449    0.0172 N   0  0  0  0  0  0  0  0  0  0  0  0
   -4.1488    0.4283    1.0745 C   0  0  0  0  0  0  0  0  0  0  0  0
   -5.6378    0.7976    1.2175 C   0  0  0  0  0  0  0  0  0  0  0  0
   -6.2583    1.2465   -0.0538 N   0  0  0  0  0  0  0  0  0  0  0  0
   -6.3279    2.7152   -0.1512 C   0  0  0  0  0  0  0  0  0  0  0  0
   -5.6166    0.6460   -1.2409 C   0  0  0  0  0  0  0  0  0  0  0  0
   -4.1042    0.9537   -1.3147 C   0  0  0  0  0  0  0  0  0  0  0  0
    2.3783   -0.8588    0.3663 C   0  0  0  0  0  0  0  0  0  0  0  0
    3.0752   -0.2056   -0.6632 C   0  0  0  0  0  0  0  0  0  0  0  0
    7.3033    2.0686   -0.4262 H   0  0  0  0  0  0  0  0  0  0  0  0
    6.4923    3.6360   -0.1330 H   0  0  0  0  0  0  0  0  0  0  0  0
    5.7747    2.1208    0.5429 H   0  0  0  0  0  0  0  0  0  0  0  0
    3.6405    2.8976   -2.3702 H   0  0  0  0  0  0  0  0  0  0  0  0
    4.3514    4.1272   -1.2828 H   0  0  0  0  0  0  0  0  0  0  0  0
    3.6540    2.6145   -0.5818 H   0  0  0  0  0  0  0  0  0  0  0  0
    6.2613   -0.6965    0.4458 H   0  0  0  0  0  0  0  0  0  0  0  0
    5.0454   -1.8365    2.2597 H   0  0  0  0  0  0  0  0  0  0  0  0
    1.2927   -4.9116    2.8922 H   0  0  0  0  0  0  0  0  0  0  0  0
   -0.2936   -6.1812    1.4811 H   0  0  0  0  0  0  0  0  0  0  0  0
   -1.3714   -5.0939   -0.4658 H   0  0  0  0  0  0  0  0  0  0  0  0
   -0.8358   -2.7655   -1.0393 H   0  0  0  0  0  0  0  0  0  0  0  0
    0.5213    0.8963   -0.2532 H   0  0  0  0  0  0  0  0  0  0  0  0
   -1.6956   -0.6848    0.9810 H   0  0  0  0  0  0  0  0  0  0  0  0
   -1.7832   -0.7436   -0.8240 H   0  0  0  0  0  0  0  0  0  0  0  0
   -1.6789    1.8175   -0.8439 H   0  0  0  0  0  0  0  0  0  0  0  0
   -1.7124    1.7960    0.9371 H   0  0  0  0  0  0  0  0  0  0  0  0
   -3.6392    0.6028    2.0481 H   0  0  0  0  0  0  0  0  0  0  0  0
   -4.0636   -0.6536    0.8248 H   0  0  0  0  0  0  0  0  0  0  0  0
   -5.7466    1.5717    2.0107 H   0  0  0  0  0  0  0  0  0  0  0  0
   -6.1897   -0.0947    1.5830 H   0  0  0  0  0  0  0  0  0  0  0  0
   -5.3218    3.1789   -0.0670 H   0  0  0  0  0  0  0  0  0  0  0  0
   -6.9744    3.1150    0.6588 H   0  0  0  0  0  0  0  0  0  0  0  0
   -6.7879    3.0188   -1.1161 H   0  0  0  0  0  0  0  0  0  0  0  0
   -5.7593   -0.4565   -1.1992 H   0  0  0  0  0  0  0  0  0  0  0  0
   -6.1207    0.9883   -2.1714 H   0  0  0  0  0  0  0  0  0  0  0  0
   -3.9550    1.8442   -1.9630 H   0  0  0  0  0  0  0  0  0  0  0  0
   -3.5939    0.0967   -1.8016 H   0  0  0  0  0  0  0  0  0  0  0  0
    2.5331    0.2237   -1.4967 H   0  0  0  0  0  0  0  0  0  0  0  0
  1  2  1  0
  2  3  1  0
  2  4  1  0
  4  5  2  0
  4  6  2  0
  4  7  1  0
  7  8  2  0
  8  9  1  0
  9 10  2  0
 10 11  1  0
 11 12  1  0
 12 13  2  0
 13 14  1  0
 14 15  2  0
 15 16  1  0
 16 17  2  0
 17 12  1  0
 17 18  1  0
 18 19  2  0
 19 20  1  0
 20 21  1  0
 21 22  1  0
 22 23  1  0
 23 24  1  0
 24 25  1  0
 25 26  1  0
 25 27  1  0
 27 28  1  0
 28 22  1  0
 18 29  1  0
 29 10  1  0
 29 30  2  0
 30  7  1  0
  1 31  1  0
  1 32  1  0
  1 33  1  0
  3 34  1  0
  3 35  1  0
  3 36  1  0
  8 37  1  0
  9 38  1  0
 13 39  1  0
 14 40  1  0
 15 41  1  0
 16 42  1  0
 19 43  1  0
 20 44  1  0
 20 45  1  0
 21 46  1  0
 21 47  1  0
 23 48  1  0
 23 49  1  0
 24 50  1  0
 24 51  1  0
 26 52  1  0
 26 53  1  0
 26 54  1  0
 27 55  1  0
 27 56  1  0
 28 57  1  0
 28 58  1  0
 30 59  1  0
M  END
> <ID>
HT2048

> <Class>
0.0

> <Clusters>
240

> <Fold>
5

$$$$