
     RDKit          3D

 47 48  0  0  0  0  0  0  0  0999 V2000
    0.7244   -1.9901    1.3710 C   0  0  0  0  0  0  0  0  0  0  0  0
    0.8197   -1.2595    0.0222 C   0  0  0  0  0  0  0  0  0  0  0  0
    2.2932   -0.9603   -0.3474 C   0  0  0  0  0  0  0  0  0  0  0  0
    3.0045   -0.0218    0.6444 C   0  0  0  0  0  0  0  0  0  0  0  0
    4.3755    0.3506    0.1411 C   0  0  0  0  0  0  0  0  0  0  0  0
    4.6452    1.6599   -0.2935 C   0  0  0  0  0  0  0  0  0  0  0  0
    5.9201    1.9999   -0.7571 C   0  0  0  0  0  0  0  0  0  0  0  0
    6.9342    1.0389   -0.7877 C   0  0  0  0  0  0  0  0  0  0  0  0
    6.6758   -0.2639   -0.3536 C   0  0  0  0  0  0  0  0  0  0  0  0
    5.4027   -0.6086    0.1106 C   0  0  0  0  0  0  0  0  0  0  0  0
    0.0146   -0.0199    0.0587 N   0  0  0  0  0  0  0  0  0  0  0  0
   -1.4196   -0.2476   -0.2189 C   0  0  0  0  0  0  0  0  0  0  0  0
   -1.6981   -0.1995   -1.7355 C   0  0  0  0  0  0  0  0  0  0  0  0
   -2.2512    0.8165    0.5387 C   0  0  0  0  0  0  0  0  0  0  0  0
   -1.9627    0.7623    1.9138 O   0  0  0  0  0  0  0  0  0  0  0  0
   -3.7395    0.6072    0.3517 C   0  0  0  0  0  0  0  0  0  0  0  0
   -4.5069    1.5520   -0.3522 C   0  0  0  0  0  0  0  0  0  0  0  0
   -5.8799    1.3568   -0.5300 C   0  0  0  0  0  0  0  0  0  0  0  0
   -6.5036    0.2207   -0.0057 C   0  0  0  0  0  0  0  0  0  0  0  0
   -7.8723    0.0397   -0.1914 O   0  0  0  0  0  0  0  0  0  0  0  0
   -5.7474   -0.7233    0.7010 C   0  0  0  0  0  0  0  0  0  0  0  0
   -4.3744   -0.5316    0.8803 C   0  0  0  0  0  0  0  0  0  0  0  0
    0.9436   -1.2969    2.2103 H   0  0  0  0  0  0  0  0  0  0  0  0
   -0.2950   -2.4010    1.5209 H   0  0  0  0  0  0  0  0  0  0  0  0
    1.4386   -2.8403    1.4043 H   0  0  0  0  0  0  0  0  0  0  0  0
    0.4347   -1.9486   -0.7630 H   0  0  0  0  0  0  0  0  0  0  0  0
    2.8512   -1.9202   -0.4120 H   0  0  0  0  0  0  0  0  0  0  0  0
    2.3170   -0.5043   -1.3621 H   0  0  0  0  0  0  0  0  0  0  0  0
    3.1127   -0.5166    1.6329 H   0  0  0  0  0  0  0  0  0  0  0  0
    2.3937    0.8939    0.7968 H   0  0  0  0  0  0  0  0  0  0  0  0
    3.8698    2.4157   -0.2787 H   0  0  0  0  0  0  0  0  0  0  0  0
    6.1217    3.0088   -1.0930 H   0  0  0  0  0  0  0  0  0  0  0  0
    7.9203    1.3041   -1.1466 H   0  0  0  0  0  0  0  0  0  0  0  0
    7.4627   -1.0068   -0.3754 H   0  0  0  0  0  0  0  0  0  0  0  0
    5.2176   -1.6205    0.4490 H   0  0  0  0  0  0  0  0  0  0  0  0
    0.3877    0.6867   -0.6192 H   0  0  0  0  0  0  0  0  0  0  0  0
   -1.7305   -1.2497    0.1495 H   0  0  0  0  0  0  0  0  0  0  0  0
   -1.5176    0.8213   -2.1353 H   0  0  0  0  0  0  0  0  0  0  0  0
   -2.7498   -0.4857   -1.9471 H   0  0  0  0  0  0  0  0  0  0  0  0
   -1.0404   -0.9118   -2.2750 H   0  0  0  0  0  0  0  0  0  0  0  0
   -1.9704    1.8230    0.1440 H   0  0  0  0  0  0  0  0  0  0  0  0
   -1.1357    1.2912    2.0629 H   0  0  0  0  0  0  0  0  0  0  0  0
   -4.0434    2.4369   -0.7699 H   0  0  0  0  0  0  0  0  0  0  0  0
   -6.4599    2.0894   -1.0767 H   0  0  0  0  0  0  0  0  0  0  0  0
   -8.3535   -0.7728    0.1762 H   0  0  0  0  0  0  0  0  0  0  0  0
   -6.2224   -1.6048    1.1124 H   0  0  0  0  0  0  0  0  0  0  0  0
   -3.8071   -1.2693    1.4339 H   0  0  0  0  0  0  0  0  0  0  0  0
  1  2  1  0
  2  3  1  0
  3  4  1  0
  4  5  1  0
  5  6  2  0
  6  7  1  0
  7  8  2  0
  8  9  1  0
  9 10  2  0
 10  5  1  0
  2 11  1  0
 11 12  1  0
 12 13  1  0
 12 14  1  0
 14 15  1  0
 14 16  1  0
 16 17  2  0
 17 18  1  0
 18 19  2  0
 19 20  1  0
 19 21  1  0
 21 22  2  0
 22 16  1  0
  1 23  1  0
  1 24  1  0
  1 25  1  0
  2 26  1  0
  3 27  1  0
  3 28  1  0
  4 29  1  0
  4 30  1  0
  6 31  1  0
  7 32  1  0
  8 33  1  0
  9 34  1  0
 10 35  1  0
 11 36  1  0
 12 37  1  0
 13 38  1  0
 13 39  1  0
 13 40  1  0
 14 41  1  0
 15 42  1  0
 17 43  1  0
 18 44  1  0
 20 45  1  0
 21 46  1  0
 22 47  1  0
M  END
> <ID>
HT3352

> <Class>
0.0

> <Clusters>
265

> <Fold>
5

$$$$