
     RDKit          3D

 49 48  0  0  0  0  0  0  0  0999 V2000
   -4.1634    2.6677    0.7928 C   0  0  0  0  0  0  0  0  0  0  0  0
   -3.0160    1.7151    0.4673 C   0  0  0  0  0  0  0  0  0  0  0  0
   -3.5232    0.4769   -0.2863 C   0  0  0  0  0  0  0  0  0  0  0  0
   -2.3810   -0.4199   -0.8001 C   0  0  0  0  0  0  0  0  0  0  0  0
   -1.4607   -1.0202    0.2993 C   0  0  0  0  0  0  0  0  0  0  0  0
   -2.2348   -1.7725    1.4155 C   0  0  0  0  0  0  0  0  0  0  0  0
   -3.0818   -2.9496    0.9223 C   0  0  0  0  0  0  0  0  0  0  0  0
   -0.3672   -1.9361   -0.3152 C   0  0  0  0  0  0  0  0  0  0  0  0
    0.6645   -1.2170   -1.2110 C   0  0  0  0  0  0  0  0  0  0  0  0
    1.4536   -0.0865   -0.5058 C   0  0  0  0  0  0  0  0  0  0  0  0
    2.6560    0.4010   -1.3524 C   0  0  0  0  0  0  0  0  0  0  0  0
    3.3501    1.6590   -0.7720 C   0  0  0  0  0  0  0  0  0  0  0  0
    2.5062    2.9265   -0.9804 C   0  0  0  0  0  0  0  0  0  0  0  0
    4.7293    1.8437   -1.4179 C   0  0  0  0  0  0  0  0  0  0  0  0
    1.7620   -0.3637    0.8552 O   0  0  0  0  0  0  0  0  0  0  0  0
    2.9985   -1.5180    1.0763 S   0  0  0  0  0  0  0  0  0  0  0  0
    2.8609   -2.0668    2.4689 O   0  0  0  0  0  0  0  0  0  0  0  0
    4.3477   -0.8650    0.9499 O   0  0  0  0  0  0  0  0  0  0  0  0
    2.8993   -2.8000   -0.0112 O   0  0  0  0  0  0  0  0  0  0  0  0
   -4.6315    3.0421   -0.1438 H   0  0  0  0  0  0  0  0  0  0  0  0
   -4.9326    2.1509    1.4072 H   0  0  0  0  0  0  0  0  0  0  0  0
   -3.7742    3.5355    1.3667 H   0  0  0  0  0  0  0  0  0  0  0  0
   -2.2647    2.2538   -0.1514 H   0  0  0  0  0  0  0  0  0  0  0  0
   -2.5352    1.4101    1.4212 H   0  0  0  0  0  0  0  0  0  0  0  0
   -4.2179   -0.1032    0.3552 H   0  0  0  0  0  0  0  0  0  0  0  0
   -4.1086    0.8115   -1.1698 H   0  0  0  0  0  0  0  0  0  0  0  0
   -2.8217   -1.2402   -1.4070 H   0  0  0  0  0  0  0  0  0  0  0  0
   -1.7709    0.1945   -1.4950 H   0  0  0  0  0  0  0  0  0  0  0  0
   -0.9447   -0.1804    0.8081 H   0  0  0  0  0  0  0  0  0  0  0  0
   -2.8891   -1.0643    1.9657 H   0  0  0  0  0  0  0  0  0  0  0  0
   -1.5088   -2.1549    2.1660 H   0  0  0  0  0  0  0  0  0  0  0  0
   -2.4452   -3.7266    0.4514 H   0  0  0  0  0  0  0  0  0  0  0  0
   -3.8534   -2.6124    0.2007 H   0  0  0  0  0  0  0  0  0  0  0  0
   -3.6024   -3.4122    1.7873 H   0  0  0  0  0  0  0  0  0  0  0  0
    0.1805   -2.4578    0.4990 H   0  0  0  0  0  0  0  0  0  0  0  0
   -0.8513   -2.7261   -0.9292 H   0  0  0  0  0  0  0  0  0  0  0  0
    0.1529   -0.7987   -2.1035 H   0  0  0  0  0  0  0  0  0  0  0  0
    1.3597   -1.9729   -1.6261 H   0  0  0  0  0  0  0  0  0  0  0  0
    0.7438    0.7655   -0.4809 H   0  0  0  0  0  0  0  0  0  0  0  0
    3.3884   -0.4269   -1.4598 H   0  0  0  0  0  0  0  0  0  0  0  0
    2.3042    0.6276   -2.3838 H   0  0  0  0  0  0  0  0  0  0  0  0
    3.5079    1.5292    0.3204 H   0  0  0  0  0  0  0  0  0  0  0  0
    1.5580    2.8687   -0.4085 H   0  0  0  0  0  0  0  0  0  0  0  0
    2.2730    3.0729   -2.0568 H   0  0  0  0  0  0  0  0  0  0  0  0
    3.0574    3.8178   -0.6121 H   0  0  0  0  0  0  0  0  0  0  0  0
    5.2403    2.7325   -0.9889 H   0  0  0  0  0  0  0  0  0  0  0  0
    4.6317    1.9794   -2.5178 H   0  0  0  0  0  0  0  0  0  0  0  0
    5.3683    0.9556   -1.2206 H   0  0  0  0  0  0  0  0  0  0  0  0
    3.3862   -3.5454    0.4211 H   0  0  0  0  0  0  0  0  0  0  0  0
  1  2  1  0
  2  3  1  0
  3  4  1  0
  4  5  1  0
  5  6  1  0
  6  7  1  0
  5  8  1  0
  8  9  1  0
  9 10  1  0
 10 11  1  0
 11 12  1  0
 12 13  1  0
 12 14  1  0
 10 15  1  0
 15 16  1  0
 16 17  2  0
 16 18  2  0
 16 19  1  0
  1 20  1  0
  1 21  1  0
  1 22  1  0
  2 23  1  0
  2 24  1  0
  3 25  1  0
  3 26  1  0
  4 27  1  0
  4 28  1  0
  5 29  1  0
  6 30  1  0
  6 31  1  0
  7 32  1  0
  7 33  1  0
  7 34  1  0
  8 35  1  0
  8 36  1  0
  9 37  1  0
  9 38  1  0
 10 39  1  0
 11 40  1  0
 11 41  1  0
 12 42  1  0
 13 43  1  0
 13 44  1  0
 13 45  1  0
 14 46  1  0
 14 47  1  0
 14 48  1  0
 19 49  1  0
M  END
> <ID>
HT1903

> <Class>
0.0

> <Clusters>
83

> <Fold>
5

$$$$