
     RDKit          3D

 35 35  0  0  0  0  0  0  0  0999 V2000
    3.8791   -1.1160    1.0838 C   0  0  0  0  0  0  0  0  0  0  0  0
    2.9897   -0.0695    0.4180 C   0  0  0  0  0  0  0  0  0  0  0  0
    1.5402   -0.5691    0.2997 C   0  0  0  0  0  0  0  0  0  0  0  0
    0.5851    0.4877   -0.3302 C   0  0  0  0  0  0  0  0  0  0  0  0
    0.7548    0.5183   -1.8643 C   0  0  0  0  0  0  0  0  0  0  0  0
   -0.9085    0.3017    0.1721 C   0  0  0  0  0  0  0  0  0  0  0  0
   -1.9163    1.2656   -0.5462 C   0  0  0  0  0  0  0  0  0  0  0  0
   -2.3843    0.8483   -1.9237 C   0  0  0  0  0  0  0  0  0  0  0  0
   -2.2932    1.6607   -2.9814 C   0  0  0  0  0  0  0  0  0  0  0  0
   -1.3566   -1.1607    0.0076 C   0  0  0  0  0  0  0  0  0  0  0  0
   -1.2411   -1.7296   -1.1108 O   0  0  0  0  0  0  0  0  0  0  0  0
   -1.9007   -1.9210    1.0892 N   0  0  0  0  0  0  0  0  0  0  0  0
   -1.9156   -1.4206    2.4184 C   0  0  0  0  0  0  0  0  0  0  0  0
   -2.3725   -2.1291    3.3542 O   0  0  0  0  0  0  0  0  0  0  0  0
   -1.4062   -0.1234    2.6917 N   0  0  0  0  0  0  0  0  0  0  0  0
   -0.9336    0.7302    1.6470 C   0  0  0  0  0  0  0  0  0  0  0  0
   -0.5522    1.8929    1.9563 O   0  0  0  0  0  0  0  0  0  0  0  0
    3.5134   -1.3388    2.1088 H   0  0  0  0  0  0  0  0  0  0  0  0
    3.8873   -2.0519    0.4854 H   0  0  0  0  0  0  0  0  0  0  0  0
    4.9181   -0.7306    1.1543 H   0  0  0  0  0  0  0  0  0  0  0  0
    3.4076    0.1574   -0.5842 H   0  0  0  0  0  0  0  0  0  0  0  0
    3.0164    0.8596    1.0279 H   0  0  0  0  0  0  0  0  0  0  0  0
    1.5162   -1.5047   -0.3018 H   0  0  0  0  0  0  0  0  0  0  0  0
    1.1938   -0.8319    1.3226 H   0  0  0  0  0  0  0  0  0  0  0  0
    0.9281    1.4919    0.0073 H   0  0  0  0  0  0  0  0  0  0  0  0
    0.3171   -0.3708   -2.3561 H   0  0  0  0  0  0  0  0  0  0  0  0
    1.8261    0.5603   -2.1442 H   0  0  0  0  0  0  0  0  0  0  0  0
    0.3009    1.4373   -2.2821 H   0  0  0  0  0  0  0  0  0  0  0  0
   -1.4806    2.2895   -0.5804 H   0  0  0  0  0  0  0  0  0  0  0  0
   -2.8407    1.3430    0.0690 H   0  0  0  0  0  0  0  0  0  0  0  0
   -2.8985   -0.0988   -2.0480 H   0  0  0  0  0  0  0  0  0  0  0  0
   -2.6813    1.3429   -3.9436 H   0  0  0  0  0  0  0  0  0  0  0  0
   -1.8376    2.6427   -2.9002 H   0  0  0  0  0  0  0  0  0  0  0  0
   -2.2516   -2.8885    0.9071 H   0  0  0  0  0  0  0  0  0  0  0  0
   -1.4026    0.2248    3.6771 H   0  0  0  0  0  0  0  0  0  0  0  0
  1  2  1  0
  2  3  1  0
  3  4  1  0
  4  5  1  0
  4  6  1  0
  6  7  1  0
  7  8  1  0
  8  9  2  3
  6 10  1  0
 10 11  2  0
 10 12  1  0
 12 13  1  0
 13 14  2  0
 13 15  1  0
 15 16  1  0
 16  6  1  0
 16 17  2  0
  1 18  1  0
  1 19  1  0
  1 20  1  0
  2 21  1  0
  2 22  1  0
  3 23  1  0
  3 24  1  0
  4 25  1  0
  5 26  1  0
  5 27  1  0
  5 28  1  0
  7 29  1  0
  7 30  1  0
  8 31  1  0
  9 32  1  0
  9 33  1  0
 12 34  1  0
 15 35  1  0
M  END
> <ID>
HT1873

> <Class>
0.0

> <Clusters>
258

> <Fold>
5

$$$$