
     RDKit          3D

 73 76  0  0  0  0  0  0  0  0999 V2000
    7.1586    1.8300   -2.2144 C   0  0  0  0  0  0  0  0  0  0  0  0
    6.3085    1.0805   -3.2363 C   0  0  0  0  0  0  0  0  0  0  0  0
    5.2315    0.2912   -2.5605 C   0  0  0  0  0  0  0  0  0  0  0  0
    5.5395   -0.6251   -1.7505 O   0  0  0  0  0  0  0  0  0  0  0  0
    3.8906    0.5719   -2.8451 O   0  0  0  0  0  0  0  0  0  0  0  0
    2.8032   -0.0669   -2.1790 C   0  0  0  0  0  0  0  0  0  0  0  0
    2.6114    0.4889   -0.7833 C   0  0  0  0  0  0  0  0  0  0  0  0
    3.2013    1.5183   -0.4923 O   0  0  0  0  0  0  0  0  0  0  0  0
    1.5842   -0.1315    0.1902 C   0  0  1  0  0  0  0  0  0  0  0  0
    1.5135   -1.5463   -0.0642 O   0  0  0  0  0  0  0  0  0  0  0  0
    2.5699   -2.4562    0.0965 C   0  0  0  0  0  0  0  0  0  0  0  0
    3.7125   -2.0672    0.4641 O   0  0  0  0  0  0  0  0  0  0  0  0
    2.3339   -3.9052   -0.1896 C   0  0  0  0  0  0  0  0  0  0  0  0
    1.9195   -4.1088   -1.6434 C   0  0  0  0  0  0  0  0  0  0  0  0
    1.8420    0.0627    1.7484 C   0  0  1  0  0  0  0  0  0  0  0  0
    2.9655    1.0097    2.1971 C   0  0  0  0  0  0  0  0  0  0  0  0
    0.4915    0.4679    2.3788 C   0  0  0  0  0  0  0  0  0  0  0  0
   -0.5247    0.0805    1.3186 C   0  0  1  0  0  0  0  0  0  0  0  0
   -1.9851    0.5837    1.4566 C   0  0  2  0  0  0  0  0  0  0  0  0
   -2.5646    0.2377    2.8484 C   0  0  0  0  0  0  0  0  0  0  0  0
   -4.0127    0.7085    2.9896 C   0  0  0  0  0  0  0  0  0  0  0  0
   -4.8486    0.1828    1.8478 C   0  0  0  0  0  0  0  0  0  0  0  0
   -5.9576   -0.5255    2.1123 C   0  0  0  0  0  0  0  0  0  0  0  0
   -6.7668   -1.0888    1.0326 C   0  0  0  0  0  0  0  0  0  0  0  0
   -7.8161   -1.7311    1.2976 O   0  0  0  0  0  0  0  0  0  0  0  0
   -6.3437   -0.9123   -0.3540 C   0  0  0  0  0  0  0  0  0  0  0  0
   -5.2458   -0.2138   -0.6445 C   0  0  0  0  0  0  0  0  0  0  0  0
   -4.3817    0.4825    0.4119 C   0  0  1  0  0  0  0  0  0  0  0  0
   -4.5812    2.0050    0.1829 C   0  0  0  0  0  0  0  0  0  0  0  0
   -2.8722   -0.0168    0.2926 C   0  0  2  0  0  0  0  0  0  0  0  0
   -2.9199   -1.8274    0.4697 Cl  0  0  0  0  0  0  0  0  0  0  0  0
   -2.2052    0.2474   -1.1115 C   0  0  1  0  0  0  0  0  0  0  0  0
   -2.3571    1.5835   -1.5099 O   0  0  0  0  0  0  0  0  0  0  0  0
   -0.6977   -0.1522   -1.1624 C   0  0  0  0  0  0  0  0  0  0  0  0
    0.1433    0.4731   -0.0090 C   0  0  2  0  0  0  0  0  0  0  0  0
    0.2388    2.0250   -0.2101 C   0  0  0  0  0  0  0  0  0  0  0  0
    7.9254    2.4368   -2.7414 H   0  0  0  0  0  0  0  0  0  0  0  0
    7.6761    1.1113   -1.5426 H   0  0  0  0  0  0  0  0  0  0  0  0
    6.5204    2.5095   -1.6094 H   0  0  0  0  0  0  0  0  0  0  0  0
    6.9550    0.3951   -3.8264 H   0  0  0  0  0  0  0  0  0  0  0  0
    5.8509    1.8152   -3.9340 H   0  0  0  0  0  0  0  0  0  0  0  0
    1.8859    0.1160   -2.7675 H   0  0  0  0  0  0  0  0  0  0  0  0
    2.9789   -1.1603   -2.1635 H   0  0  0  0  0  0  0  0  0  0  0  0
    1.5271   -4.2773    0.4772 H   0  0  0  0  0  0  0  0  0  0  0  0
    3.2557   -4.4933    0.0146 H   0  0  0  0  0  0  0  0  0  0  0  0
    2.7313   -3.7752   -2.3242 H   0  0  0  0  0  0  0  0  0  0  0  0
    0.9941   -3.5370   -1.8684 H   0  0  0  0  0  0  0  0  0  0  0  0
    1.7228   -5.1872   -1.8247 H   0  0  0  0  0  0  0  0  0  0  0  0
    2.1008   -0.9231    2.1925 H   0  0  0  0  0  0  0  0  0  0  0  0
    2.7641    2.0585    1.8974 H   0  0  0  0  0  0  0  0  0  0  0  0
    3.0489    0.9863    3.3056 H   0  0  0  0  0  0  0  0  0  0  0  0
    3.9412    0.6742    1.7860 H   0  0  0  0  0  0  0  0  0  0  0  0
    0.4330    1.5588    2.5873 H   0  0  0  0  0  0  0  0  0  0  0  0
    0.3147   -0.0858    3.3277 H   0  0  0  0  0  0  0  0  0  0  0  0
   -0.5698   -1.0319    1.3739 H   0  0  0  0  0  0  0  0  0  0  0  0
   -1.9788    1.6865    1.3998 H   0  0  0  0  0  0  0  0  0  0  0  0
   -1.9665    0.7399    3.6396 H   0  0  0  0  0  0  0  0  0  0  0  0
   -2.5096   -0.8560    3.0369 H   0  0  0  0  0  0  0  0  0  0  0  0
   -4.4007    0.3719    3.9757 H   0  0  0  0  0  0  0  0  0  0  0  0
   -4.0432    1.8180    2.9886 H   0  0  0  0  0  0  0  0  0  0  0  0
   -6.2644   -0.7076    3.1356 H   0  0  0  0  0  0  0  0  0  0  0  0
   -6.9277   -1.3525   -1.1528 H   0  0  0  0  0  0  0  0  0  0  0  0
   -4.9949   -0.0872   -1.6904 H   0  0  0  0  0  0  0  0  0  0  0  0
   -4.5502    2.2771   -0.8922 H   0  0  0  0  0  0  0  0  0  0  0  0
   -3.8385    2.6221    0.7229 H   0  0  0  0  0  0  0  0  0  0  0  0
   -5.5896    2.3122    0.5391 H   0  0  0  0  0  0  0  0  0  0  0  0
   -2.7224   -0.3953   -1.8610 H   0  0  0  0  0  0  0  0  0  0  0  0
   -2.1532    1.6276   -2.4817 H   0  0  0  0  0  0  0  0  0  0  0  0
   -0.6397   -1.2608   -1.1314 H   0  0  0  0  0  0  0  0  0  0  0  0
   -0.2813    0.1482   -2.1451 H   0  0  0  0  0  0  0  0  0  0  0  0
    0.9418    2.4944    0.5037 H   0  0  0  0  0  0  0  0  0  0  0  0
   -0.7186    2.5585   -0.0894 H   0  0  0  0  0  0  0  0  0  0  0  0
    0.6026    2.2568   -1.2335 H   0  0  0  0  0  0  0  0  0  0  0  0
  1  2  1  0
  2  3  1  0
  3  4  2  0
  3  5  1  0
  5  6  1  0
  6  7  1  0
  7  8  2  0
  7  9  1  0
  9 10  1  1
 10 11  1  0
 11 12  2  0
 11 13  1  0
 13 14  1  0
  9 15  1  0
 15 16  1  0
 15 17  1  0
 18 17  1  0
 18 19  1  0
 19 20  1  0
 20 21  1  0
 21 22  1  0
 22 23  2  0
 23 24  1  0
 24 25  2  0
 24 26  1  0
 26 27  2  0
 27 28  1  0
 28 22  1  0
 28 29  1  6
 28 30  1  0
 30 19  1  0
 30 31  1  1
 30 32  1  0
 32 33  1  0
 32 34  1  0
 34 35  1  0
 35  9  1  0
 35 18  1  0
 35 36  1  6
  1 37  1  0
  1 38  1  0
  1 39  1  0
  2 40  1  0
  2 41  1  0
  6 42  1  0
  6 43  1  0
 13 44  1  0
 13 45  1  0
 14 46  1  0
 14 47  1  0
 14 48  1  0
 15 49  1  1
 16 50  1  0
 16 51  1  0
 16 52  1  0
 17 53  1  0
 17 54  1  0
 18 55  1  6
 19 56  1  6
 20 57  1  0
 20 58  1  0
 21 59  1  0
 21 60  1  0
 23 61  1  0
 26 62  1  0
 27 63  1  0
 29 64  1  0
 29 65  1  0
 29 66  1  0
 32 67  1  6
 33 68  1  0
 34 69  1  0
 34 70  1  0
 36 71  1  0
 36 72  1  0
 36 73  1  0
M  END
> <ID>
HT0231

> <Class>
0.0

> <Clusters>
34

> <Fold>
5

$$$$