
     RDKit          3D

 55 57  0  0  0  0  0  0  0  0999 V2000
   -4.0755   -2.0300    1.5625 C   0  0  0  0  0  0  0  0  0  0  0  0
   -4.1593   -0.6967    0.8253 C   0  0  0  0  0  0  0  0  0  0  0  0
   -2.9454    0.1079    1.0903 N   0  0  0  0  0  0  0  0  0  0  0  0
   -3.2483    1.5502    1.2715 C   0  0  0  0  0  0  0  0  0  0  0  0
   -3.7578    2.2613    0.0036 C   0  0  0  0  0  0  0  0  0  0  0  0
   -2.6782    2.7131   -0.7660 O   0  0  0  0  0  0  0  0  0  0  0  0
   -1.8757   -0.1701    0.1047 C   0  0  0  0  0  0  0  0  0  0  0  0
   -0.5059    0.2893    0.6183 C   0  0  0  0  0  0  0  0  0  0  0  0
    0.5634   -0.2570   -0.2242 N   0  0  0  0  0  0  0  0  0  0  0  0
    1.2183    0.3575   -1.2494 C   0  0  0  0  0  0  0  0  0  0  0  0
    0.9782    1.7733   -1.6935 C   0  0  0  0  0  0  0  0  0  0  0  0
    1.6907    2.7503   -0.7944 C   0  0  0  0  0  0  0  0  0  0  0  0
    0.9677    3.7201   -0.0776 C   0  0  0  0  0  0  0  0  0  0  0  0
    1.6351    4.6290    0.7491 C   0  0  0  0  0  0  0  0  0  0  0  0
    3.0272    4.5842    0.8604 C   0  0  0  0  0  0  0  0  0  0  0  0
    3.7553    3.6324    0.1419 C   0  0  0  0  0  0  0  0  0  0  0  0
    3.0925    2.7213   -0.6860 C   0  0  0  0  0  0  0  0  0  0  0  0
    2.1506   -0.4328   -1.8420 N   0  0  0  0  0  0  0  0  0  0  0  0
    2.0545   -1.5837   -1.1500 C   0  0  0  0  0  0  0  0  0  0  0  0
    2.7691   -2.7215   -1.3631 N   0  0  0  0  0  0  0  0  0  0  0  0
    3.7472   -2.8000   -2.4565 C   0  0  0  0  0  0  0  0  0  0  0  0
    2.4897   -3.8177   -0.5767 C   0  0  0  0  0  0  0  0  0  0  0  0
    3.0937   -4.9068   -0.7911 O   0  0  0  0  0  0  0  0  0  0  0  0
    1.5510   -3.7400    0.4386 N   0  0  0  0  0  0  0  0  0  0  0  0
    1.2581   -4.9262    1.2610 C   0  0  0  0  0  0  0  0  0  0  0  0
    0.8333   -2.5816    0.6324 C   0  0  0  0  0  0  0  0  0  0  0  0
   -0.0579   -2.5111    1.5222 O   0  0  0  0  0  0  0  0  0  0  0  0
    1.1089   -1.4894   -0.1859 C   0  0  0  0  0  0  0  0  0  0  0  0
   -5.0093   -2.6074    1.3965 H   0  0  0  0  0  0  0  0  0  0  0  0
   -3.9537   -1.8528    2.6525 H   0  0  0  0  0  0  0  0  0  0  0  0
   -3.2191   -2.6319    1.1942 H   0  0  0  0  0  0  0  0  0  0  0  0
   -4.2954   -0.8805   -0.2647 H   0  0  0  0  0  0  0  0  0  0  0  0
   -5.0774   -0.1802    1.1858 H   0  0  0  0  0  0  0  0  0  0  0  0
   -2.3593    2.0825    1.6699 H   0  0  0  0  0  0  0  0  0  0  0  0
   -4.0168    1.6577    2.0688 H   0  0  0  0  0  0  0  0  0  0  0  0
   -4.3689    3.1386    0.3125 H   0  0  0  0  0  0  0  0  0  0  0  0
   -4.4056    1.5891   -0.6000 H   0  0  0  0  0  0  0  0  0  0  0  0
   -3.0719    3.1494   -1.5658 H   0  0  0  0  0  0  0  0  0  0  0  0
   -1.8149   -1.2640   -0.0807 H   0  0  0  0  0  0  0  0  0  0  0  0
   -2.0952    0.2956   -0.8786 H   0  0  0  0  0  0  0  0  0  0  0  0
   -0.3568   -0.0284    1.6717 H   0  0  0  0  0  0  0  0  0  0  0  0
   -0.4593    1.3946    0.6137 H   0  0  0  0  0  0  0  0  0  0  0  0
   -0.1148    1.9689   -1.7201 H   0  0  0  0  0  0  0  0  0  0  0  0
    1.3526    1.9026   -2.7318 H   0  0  0  0  0  0  0  0  0  0  0  0
   -0.1108    3.7735   -0.1558 H   0  0  0  0  0  0  0  0  0  0  0  0
    1.0724    5.3699    1.3023 H   0  0  0  0  0  0  0  0  0  0  0  0
    3.5419    5.2894    1.5002 H   0  0  0  0  0  0  0  0  0  0  0  0
    4.8340    3.6018    0.2249 H   0  0  0  0  0  0  0  0  0  0  0  0
    3.6703    1.9928   -1.2411 H   0  0  0  0  0  0  0  0  0  0  0  0
    4.1402   -1.7948   -2.7201 H   0  0  0  0  0  0  0  0  0  0  0  0
    4.6192   -3.4210   -2.1586 H   0  0  0  0  0  0  0  0  0  0  0  0
    3.2679   -3.2476   -3.3526 H   0  0  0  0  0  0  0  0  0  0  0  0
    0.9347   -4.6370    2.2844 H   0  0  0  0  0  0  0  0  0  0  0  0
    0.4547   -5.5238    0.7799 H   0  0  0  0  0  0  0  0  0  0  0  0
    2.1607   -5.5620    1.3871 H   0  0  0  0  0  0  0  0  0  0  0  0
  1  2  1  0
  2  3  1  0
  3  4  1  0
  4  5  1  0
  5  6  1  0
  3  7  1  0
  7  8  1  0
  8  9  1  0
  9 10  1  0
 10 11  1  0
 11 12  1  0
 12 13  2  0
 13 14  1  0
 14 15  2  0
 15 16  1  0
 16 17  2  0
 17 12  1  0
 10 18  2  0
 18 19  1  0
 19 20  1  0
 20 21  1  0
 20 22  1  0
 22 23  2  0
 22 24  1  0
 24 25  1  0
 24 26  1  0
 26 27  2  0
 26 28  1  0
 28  9  1  0
 28 19  2  0
  1 29  1  0
  1 30  1  0
  1 31  1  0
  2 32  1  0
  2 33  1  0
  4 34  1  0
  4 35  1  0
  5 36  1  0
  5 37  1  0
  6 38  1  0
  7 39  1  0
  7 40  1  0
  8 41  1  0
  8 42  1  0
 11 43  1  0
 11 44  1  0
 13 45  1  0
 14 46  1  0
 15 47  1  0
 16 48  1  0
 17 49  1  0
 21 50  1  0
 21 51  1  0
 21 52  1  0
 25 53  1  0
 25 54  1  0
 25 55  1  0
M  END
> <ID>
HT3727

> <Class>
0.0

> <Clusters>
259

> <Fold>
5

$$$$