
     RDKit          3D

 98 99  0  0  0  0  0  0  0  0999 V2000
   -2.1324   -1.3884   -0.5043 C   0  0  0  0  0  0  0  0  0  0  0  0
   -1.7498   -0.1992   -1.3446 C   0  0  0  0  0  0  0  0  0  0  0  0
   -0.6541    0.5295   -1.0774 C   0  0  0  0  0  0  0  0  0  0  0  0
    0.2734    0.2771    0.0547 C   0  0  0  0  0  0  0  0  0  0  0  0
    1.5420    0.7276    0.0496 C   0  0  0  0  0  0  0  0  0  0  0  0
    2.1182    1.4347   -1.1147 C   0  0  0  0  0  0  0  0  0  0  0  0
    2.5168    0.7728   -2.2163 C   0  0  0  0  0  0  0  0  0  0  0  0
    2.5559    1.4858   -3.5438 C   0  0  0  0  0  0  0  0  0  0  0  0
    2.7494   -0.6909   -2.2031 C   0  0  0  0  0  0  0  0  0  0  0  0
    3.5961   -1.3270   -1.3791 C   0  0  0  0  0  0  0  0  0  0  0  0
    4.4701   -0.6768   -0.3570 C   0  0  0  0  0  0  0  0  0  0  0  0
    5.4028    0.2747   -0.5851 C   0  0  0  0  0  0  0  0  0  0  0  0
    5.6145    0.8960   -1.9359 C   0  0  0  0  0  0  0  0  0  0  0  0
    6.0422    0.9233    0.5856 C   0  0  0  0  0  0  0  0  0  0  0  0
    6.7846    0.2319    1.4669 C   0  0  0  0  0  0  0  0  0  0  0  0
    8.2462   -0.0309    1.2706 C   0  0  0  0  0  0  0  0  0  0  0  0
    9.1336    0.6896    2.0115 C   0  0  0  0  0  0  0  0  0  0  0  0
    8.7004    1.8198    2.9245 C   0  0  0  0  0  0  0  0  0  0  0  0
   10.5990    0.3497    1.9705 C   0  0  0  0  0  0  0  0  0  0  0  0
   10.7911   -1.1672    2.0436 C   0  0  0  0  0  0  0  0  0  0  0  0
   10.3869   -1.6421    3.3064 O   0  0  0  0  0  0  0  0  0  0  0  0
    9.9926   -1.9084    0.9446 C   0  0  0  0  0  0  0  0  0  0  0  0
    8.7808   -1.1293    0.3173 C   0  0  0  0  0  0  0  0  0  0  0  0
    9.2409   -0.4607   -0.9964 C   0  0  0  0  0  0  0  0  0  0  0  0
    7.6907   -2.1686   -0.0294 C   0  0  0  0  0  0  0  0  0  0  0  0
   -2.4720    0.0907   -2.6082 C   0  0  0  0  0  0  0  0  0  0  0  0
   -3.7835    0.3330   -2.7285 C   0  0  0  0  0  0  0  0  0  0  0  0
   -4.7554    0.3235   -1.6082 C   0  0  0  0  0  0  0  0  0  0  0  0
   -6.0132    0.8082   -1.7147 C   0  0  0  0  0  0  0  0  0  0  0  0
   -6.4747    1.5663   -2.9472 C   0  0  0  0  0  0  0  0  0  0  0  0
   -6.9555    0.5605   -0.5923 C   0  0  0  0  0  0  0  0  0  0  0  0
   -8.2889    0.5269   -0.7491 C   0  0  0  0  0  0  0  0  0  0  0  0
   -9.2732    0.2541    0.3884 C   0  0  0  0  0  0  0  0  0  0  0  0
   -8.9756    1.0657    1.6548 C   0  0  0  0  0  0  0  0  0  0  0  0
   -9.2165    0.5773    2.8936 C   0  0  0  0  0  0  0  0  0  0  0  0
   -9.7507   -0.8039    3.1705 C   0  0  0  0  0  0  0  0  0  0  0  0
   -8.7170   -1.5858    3.7099 O   0  0  0  0  0  0  0  0  0  0  0  0
  -10.3572   -1.4557    1.9115 C   0  0  0  0  0  0  0  0  0  0  0  0
   -9.4805   -1.2775    0.6496 C   0  0  0  0  0  0  0  0  0  0  0  0
   -8.1410   -2.0321    0.8311 C   0  0  0  0  0  0  0  0  0  0  0  0
  -10.2444   -1.9092   -0.5397 C   0  0  0  0  0  0  0  0  0  0  0  0
   -8.5887    2.5220    1.5424 C   0  0  0  0  0  0  0  0  0  0  0  0
   -1.2665   -2.0817   -0.4113 H   0  0  0  0  0  0  0  0  0  0  0  0
   -2.9776   -1.9371   -0.9664 H   0  0  0  0  0  0  0  0  0  0  0  0
   -2.4228   -1.0548    0.5202 H   0  0  0  0  0  0  0  0  0  0  0  0
   -0.4070    1.3265   -1.7605 H   0  0  0  0  0  0  0  0  0  0  0  0
   -0.0658   -0.2875    0.9076 H   0  0  0  0  0  0  0  0  0  0  0  0
    2.1793    0.5321    0.9079 H   0  0  0  0  0  0  0  0  0  0  0  0
    1.9602    2.5092   -1.1533 H   0  0  0  0  0  0  0  0  0  0  0  0
    1.5138    1.6045   -3.9050 H   0  0  0  0  0  0  0  0  0  0  0  0
    3.1395    0.8974   -4.2878 H   0  0  0  0  0  0  0  0  0  0  0  0
    3.0231    2.4900   -3.4436 H   0  0  0  0  0  0  0  0  0  0  0  0
    2.1774   -1.3010   -2.8926 H   0  0  0  0  0  0  0  0  0  0  0  0
    3.5392   -2.4053   -1.3330 H   0  0  0  0  0  0  0  0  0  0  0  0
    4.3950   -1.0794    0.6483 H   0  0  0  0  0  0  0  0  0  0  0  0
    5.3669    0.1782   -2.7459 H   0  0  0  0  0  0  0  0  0  0  0  0
    5.0107    1.8161   -2.0214 H   0  0  0  0  0  0  0  0  0  0  0  0
    6.6687    1.1931   -2.0695 H   0  0  0  0  0  0  0  0  0  0  0  0
    5.3590    1.6481    1.0371 H   0  0  0  0  0  0  0  0  0  0  0  0
    6.4980    0.3998    2.4963 H   0  0  0  0  0  0  0  0  0  0  0  0
    8.0492    2.5275    2.3666 H   0  0  0  0  0  0  0  0  0  0  0  0
    9.5741    2.3828    3.3117 H   0  0  0  0  0  0  0  0  0  0  0  0
    8.1400    1.4122    3.7915 H   0  0  0  0  0  0  0  0  0  0  0  0
   11.1434    0.8182    2.8177 H   0  0  0  0  0  0  0  0  0  0  0  0
   11.0633    0.7549    1.0475 H   0  0  0  0  0  0  0  0  0  0  0  0
   11.8753   -1.3970    1.9014 H   0  0  0  0  0  0  0  0  0  0  0  0
   11.0904   -1.3835    3.9591 H   0  0  0  0  0  0  0  0  0  0  0  0
   10.7041   -2.2059    0.1476 H   0  0  0  0  0  0  0  0  0  0  0  0
    9.6457   -2.8715    1.3844 H   0  0  0  0  0  0  0  0  0  0  0  0
    8.4864    0.2360   -1.3861 H   0  0  0  0  0  0  0  0  0  0  0  0
   10.1685    0.1213   -0.8706 H   0  0  0  0  0  0  0  0  0  0  0  0
    9.4308   -1.2189   -1.7828 H   0  0  0  0  0  0  0  0  0  0  0  0
    8.1422   -3.0597   -0.5207 H   0  0  0  0  0  0  0  0  0  0  0  0
    7.1708   -2.5128    0.8923 H   0  0  0  0  0  0  0  0  0  0  0  0
    6.9600   -1.7631   -0.7503 H   0  0  0  0  0  0  0  0  0  0  0  0
   -1.8622    0.1865   -3.4990 H   0  0  0  0  0  0  0  0  0  0  0  0
   -4.1455    0.5561   -3.7277 H   0  0  0  0  0  0  0  0  0  0  0  0
   -4.4610   -0.1482   -0.6749 H   0  0  0  0  0  0  0  0  0  0  0  0
   -6.8067    0.8583   -3.7330 H   0  0  0  0  0  0  0  0  0  0  0  0
   -7.3014    2.2464   -2.6807 H   0  0  0  0  0  0  0  0  0  0  0  0
   -5.6625    2.2176   -3.3429 H   0  0  0  0  0  0  0  0  0  0  0  0
   -6.5362    0.3481    0.3832 H   0  0  0  0  0  0  0  0  0  0  0  0
   -8.7144    0.6984   -1.7284 H   0  0  0  0  0  0  0  0  0  0  0  0
  -10.2535    0.6565    0.0415 H   0  0  0  0  0  0  0  0  0  0  0  0
   -9.0038    1.2017    3.7601 H   0  0  0  0  0  0  0  0  0  0  0  0
  -10.5609   -0.7186    3.9304 H   0  0  0  0  0  0  0  0  0  0  0  0
   -9.1288   -2.4254    4.0257 H   0  0  0  0  0  0  0  0  0  0  0  0
  -11.3494   -0.9838    1.7227 H   0  0  0  0  0  0  0  0  0  0  0  0
  -10.5488   -2.5330    2.1006 H   0  0  0  0  0  0  0  0  0  0  0  0
   -8.3225   -3.0661    1.1921 H   0  0  0  0  0  0  0  0  0  0  0  0
   -7.4936   -1.5164    1.5632 H   0  0  0  0  0  0  0  0  0  0  0  0
   -7.5783   -2.0982   -0.1234 H   0  0  0  0  0  0  0  0  0  0  0  0
   -9.6737   -1.8184   -1.4889 H   0  0  0  0  0  0  0  0  0  0  0  0
  -10.4378   -2.9866   -0.3487 H   0  0  0  0  0  0  0  0  0  0  0  0
  -11.2314   -1.4186   -0.6755 H   0  0  0  0  0  0  0  0  0  0  0  0
   -7.5693    2.6688    1.9599 H   0  0  0  0  0  0  0  0  0  0  0  0
   -9.3030    3.1642    2.0964 H   0  0  0  0  0  0  0  0  0  0  0  0
   -8.5943    2.8643    0.4875 H   0  0  0  0  0  0  0  0  0  0  0  0
  1  2  1  0
  2  3  2  3
  3  4  1  0
  4  5  2  3
  5  6  1  0
  6  7  2  3
  7  8  1  0
  7  9  1  0
  9 10  2  3
 10 11  1  0
 11 12  2  3
 12 13  1  0
 12 14  1  0
 14 15  2  3
 15 16  1  0
 16 17  2  0
 17 18  1  0
 17 19  1  0
 19 20  1  0
 20 21  1  0
 20 22  1  0
 22 23  1  0
 23 16  1  0
 23 24  1  0
 23 25  1  0
  2 26  1  0
 26 27  2  3
 27 28  1  0
 28 29  2  3
 29 30  1  0
 29 31  1  0
 31 32  2  3
 32 33  1  0
 33 34  1  0
 34 35  2  0
 35 36  1  0
 36 37  1  0
 36 38  1  0
 38 39  1  0
 39 33  1  0
 39 40  1  0
 39 41  1  0
 34 42  1  0
  1 43  1  0
  1 44  1  0
  1 45  1  0
  3 46  1  0
  4 47  1  0
  5 48  1  0
  6 49  1  0
  8 50  1  0
  8 51  1  0
  8 52  1  0
  9 53  1  0
 10 54  1  0
 11 55  1  0
 13 56  1  0
 13 57  1  0
 13 58  1  0
 14 59  1  0
 15 60  1  0
 18 61  1  0
 18 62  1  0
 18 63  1  0
 19 64  1  0
 19 65  1  0
 20 66  1  0
 21 67  1  0
 22 68  1  0
 22 69  1  0
 24 70  1  0
 24 71  1  0
 24 72  1  0
 25 73  1  0
 25 74  1  0
 25 75  1  0
 26 76  1  0
 27 77  1  0
 28 78  1  0
 30 79  1  0
 30 80  1  0
 30 81  1  0
 31 82  1  0
 32 83  1  0
 33 84  1  0
 35 85  1  0
 36 86  1  0
 37 87  1  0
 38 88  1  0
 38 89  1  0
 40 90  1  0
 40 91  1  0
 40 92  1  0
 41 93  1  0
 41 94  1  0
 41 95  1  0
 42 96  1  0
 42 97  1  0
 42 98  1  0
M  END
> <ID>
HT2199

> <Class>
0.0

> <Clusters>
33

> <Fold>
5

$$$$