
     RDKit          3D

 87 91  0  0  0  0  0  0  0  0999 V2000
   10.2706   -0.5571    1.4670 C   0  0  0  0  0  0  0  0  0  0  0  0
    9.8610   -1.9977    1.1602 C   0  0  0  0  0  0  0  0  0  0  0  0
    8.3402   -2.1667    1.0122 C   0  0  0  0  0  0  0  0  0  0  0  0
    7.7904   -1.5128   -0.2680 C   0  0  0  0  0  0  0  0  0  0  0  0
    6.3125   -1.7193   -0.4426 C   0  0  0  0  0  0  0  0  0  0  0  0
    5.6610   -2.4542    0.3508 O   0  0  0  0  0  0  0  0  0  0  0  0
    5.6656   -1.0685   -1.5005 O   0  0  0  0  0  0  0  0  0  0  0  0
    4.2500   -1.0865   -1.6907 C   0  0  0  0  0  0  0  0  0  0  0  0
    3.5459   -0.1882   -0.7009 C   0  0  0  0  0  0  0  0  0  0  0  0
    4.1871    0.3107    0.2160 O   0  0  0  0  0  0  0  0  0  0  0  0
    2.0566    0.1249   -0.8242 C   0  0  1  0  0  0  0  0  0  0  0  0
    1.4967   -0.5687   -1.9192 O   0  0  0  0  0  0  0  0  0  0  0  0
    1.3318   -0.2498    0.4828 C   0  0  0  0  0  0  0  0  0  0  0  0
   -0.1807    0.0132    0.3962 C   0  0  2  0  0  0  0  0  0  0  0  0
   -0.7930   -0.9861   -0.4080 O   0  0  0  0  0  0  0  0  0  0  0  0
   -1.5366   -1.9093    0.3662 C   0  0  1  0  0  0  0  0  0  0  0  0
   -2.3535   -2.8036   -0.5872 C   0  0  0  0  0  0  0  0  0  0  0  0
   -2.7061   -4.1591    0.0625 C   0  0  2  0  0  0  0  0  0  0  0  0
   -3.9939   -4.6465   -0.4443 N   0  0  0  0  0  0  0  0  0  0  0  0
   -4.1604   -5.9331   -1.0610 C   0  0  0  0  0  0  0  0  0  0  0  0
   -3.1871   -6.7313   -1.1484 O   0  0  0  0  0  0  0  0  0  0  0  0
   -5.5101   -6.3499   -1.5648 C   0  0  0  0  0  0  0  0  0  0  0  0
   -6.3557   -6.5549   -0.4926 F   0  0  0  0  0  0  0  0  0  0  0  0
   -6.0355   -5.3565   -2.3706 F   0  0  0  0  0  0  0  0  0  0  0  0
   -5.4144   -7.5207   -2.2985 F   0  0  0  0  0  0  0  0  0  0  0  0
   -2.7346   -4.0446    1.5978 C   0  0  2  0  0  0  0  0  0  0  0  0
   -3.7808   -3.1905    2.0002 O   0  0  0  0  0  0  0  0  0  0  0  0
   -1.3547   -3.5059    2.0930 C   0  0  2  0  0  0  0  0  0  0  0  0
   -1.4359   -2.7814    3.4426 C   0  0  0  0  0  0  0  0  0  0  0  0
   -0.6565   -2.7063    1.1412 O   0  0  0  0  0  0  0  0  0  0  0  0
   -0.5063    1.3753   -0.2023 C   0  0  0  0  0  0  0  0  0  0  0  0
   -1.8193    1.8680   -0.0664 C   0  0  0  0  0  0  0  0  0  0  0  0
   -2.7277    1.1278    0.6984 O   0  0  0  0  0  0  0  0  0  0  0  0
   -2.1870    3.0990   -0.6558 C   0  0  0  0  0  0  0  0  0  0  0  0
   -3.6042    3.5468   -0.7149 C   0  0  0  0  0  0  0  0  0  0  0  0
   -4.5356    2.6957   -0.7281 O   0  0  0  0  0  0  0  0  0  0  0  0
   -3.9185    4.9851   -0.8894 C   0  0  0  0  0  0  0  0  0  0  0  0
   -5.2019    5.5043   -0.5976 C   0  0  0  0  0  0  0  0  0  0  0  0
   -6.1941    4.6459   -0.0952 O   0  0  0  0  0  0  0  0  0  0  0  0
   -7.5326    5.0346    0.2047 C   0  0  0  0  0  0  0  0  0  0  0  0
   -5.4543    6.8738   -0.8069 C   0  0  0  0  0  0  0  0  0  0  0  0
   -4.4532    7.7096   -1.2950 C   0  0  0  0  0  0  0  0  0  0  0  0
   -3.1896    7.1990   -1.5845 C   0  0  0  0  0  0  0  0  0  0  0  0
   -2.9119    5.8370   -1.3823 C   0  0  0  0  0  0  0  0  0  0  0  0
   -1.5719    5.2873   -1.6941 C   0  0  0  0  0  0  0  0  0  0  0  0
   -0.7517    5.9957   -2.3406 O   0  0  0  0  0  0  0  0  0  0  0  0
   -1.1969    3.9170   -1.2363 C   0  0  0  0  0  0  0  0  0  0  0  0
    0.1294    3.4409   -1.3510 C   0  0  0  0  0  0  0  0  0  0  0  0
    1.1039    4.2794   -1.9083 O   0  0  0  0  0  0  0  0  0  0  0  0
    0.4632    2.1416   -0.8975 C   0  0  0  0  0  0  0  0  0  0  0  0
    1.8850    1.6365   -1.0682 C   0  0  0  0  0  0  0  0  0  0  0  0
   11.3567   -0.5237    1.6955 H   0  0  0  0  0  0  0  0  0  0  0  0
   10.0815    0.1016    0.5930 H   0  0  0  0  0  0  0  0  0  0  0  0
    9.7140   -0.1736    2.3483 H   0  0  0  0  0  0  0  0  0  0  0  0
   10.2031   -2.6419    1.9994 H   0  0  0  0  0  0  0  0  0  0  0  0
   10.3768   -2.3439    0.2402 H   0  0  0  0  0  0  0  0  0  0  0  0
    8.1182   -3.2563    0.9826 H   0  0  0  0  0  0  0  0  0  0  0  0
    7.8289   -1.7420    1.9062 H   0  0  0  0  0  0  0  0  0  0  0  0
    8.3116   -1.9289   -1.1587 H   0  0  0  0  0  0  0  0  0  0  0  0
    7.9743   -0.4172   -0.2325 H   0  0  0  0  0  0  0  0  0  0  0  0
    3.8654   -2.1237   -1.6050 H   0  0  0  0  0  0  0  0  0  0  0  0
    4.0374   -0.7174   -2.7162 H   0  0  0  0  0  0  0  0  0  0  0  0
    1.5015   -1.5400   -1.7056 H   0  0  0  0  0  0  0  0  0  0  0  0
    1.7492    0.3477    1.3261 H   0  0  0  0  0  0  0  0  0  0  0  0
    1.5141   -1.3207    0.7235 H   0  0  0  0  0  0  0  0  0  0  0  0
   -0.5446    0.0163    1.4530 H   0  0  0  0  0  0  0  0  0  0  0  0
   -2.2593   -1.3619    1.0172 H   0  0  0  0  0  0  0  0  0  0  0  0
   -3.2786   -2.2569   -0.8761 H   0  0  0  0  0  0  0  0  0  0  0  0
   -1.7757   -2.9964   -1.5184 H   0  0  0  0  0  0  0  0  0  0  0  0
   -1.8970   -4.8784   -0.1971 H   0  0  0  0  0  0  0  0  0  0  0  0
   -4.8365   -4.0358   -0.3376 H   0  0  0  0  0  0  0  0  0  0  0  0
   -2.8872   -5.0625    2.0329 H   0  0  0  0  0  0  0  0  0  0  0  0
   -4.5815   -3.7597    2.1484 H   0  0  0  0  0  0  0  0  0  0  0  0
   -0.7176   -4.4010    2.2635 H   0  0  0  0  0  0  0  0  0  0  0  0
   -0.4135   -2.5259    3.7940 H   0  0  0  0  0  0  0  0  0  0  0  0
   -1.9156   -3.4387    4.1995 H   0  0  0  0  0  0  0  0  0  0  0  0
   -2.0190   -1.8412    3.3573 H   0  0  0  0  0  0  0  0  0  0  0  0
   -3.5916    1.5028    1.0662 H   0  0  0  0  0  0  0  0  0  0  0  0
   -8.0909    4.1538    0.5833 H   0  0  0  0  0  0  0  0  0  0  0  0
   -7.5364    5.8211    0.9904 H   0  0  0  0  0  0  0  0  0  0  0  0
   -8.0344    5.4023   -0.7133 H   0  0  0  0  0  0  0  0  0  0  0  0
   -6.4225    7.3036   -0.5884 H   0  0  0  0  0  0  0  0  0  0  0  0
   -4.6558    8.7617   -1.4464 H   0  0  0  0  0  0  0  0  0  0  0  0
   -2.4300    7.8723   -1.9618 H   0  0  0  0  0  0  0  0  0  0  0  0
    2.0886    4.0483   -1.9729 H   0  0  0  0  0  0  0  0  0  0  0  0
    2.5281    2.2140   -0.3683 H   0  0  0  0  0  0  0  0  0  0  0  0
    2.2330    1.8423   -2.1034 H   0  0  0  0  0  0  0  0  0  0  0  0
  1  2  1  0
  2  3  1  0
  3  4  1  0
  4  5  1  0
  5  6  2  0
  5  7  1  0
  7  8  1  0
  8  9  1  0
  9 10  2  0
  9 11  1  0
 11 12  1  6
 11 13  1  0
 13 14  1  0
 14 15  1  0
 16 15  1  0
 16 17  1  0
 17 18  1  0
 18 19  1  0
 19 20  1  0
 20 21  2  0
 20 22  1  0
 22 23  1  0
 22 24  1  0
 22 25  1  0
 18 26  1  0
 26 27  1  0
 26 28  1  0
 28 29  1  0
 28 30  1  0
 30 16  1  0
 14 31  1  0
 31 32  2  0
 32 33  1  0
 32 34  1  0
 34 35  1  0
 35 36  2  0
 35 37  1  0
 37 38  2  0
 38 39  1  0
 39 40  1  0
 38 41  1  0
 41 42  2  0
 42 43  1  0
 43 44  2  0
 44 37  1  0
 44 45  1  0
 45 46  2  0
 45 47  1  0
 47 34  2  0
 47 48  1  0
 48 49  1  0
 48 50  2  0
 50 31  1  0
 50 51  1  0
 51 11  1  0
  1 52  1  0
  1 53  1  0
  1 54  1  0
  2 55  1  0
  2 56  1  0
  3 57  1  0
  3 58  1  0
  4 59  1  0
  4 60  1  0
  8 61  1  0
  8 62  1  0
 12 63  1  0
 13 64  1  0
 13 65  1  0
 14 66  1  1
 16 67  1  1
 17 68  1  0
 17 69  1  0
 18 70  1  1
 19 71  1  0
 26 72  1  1
 27 73  1  0
 28 74  1  1
 29 75  1  0
 29 76  1  0
 29 77  1  0
 33 78  1  0
 40 79  1  0
 40 80  1  0
 40 81  1  0
 41 82  1  0
 42 83  1  0
 43 84  1  0
 49 85  1  0
 51 86  1  0
 51 87  1  0
M  END
> <ID>
HT2163

> <Class>
0.0

> <Clusters>
86

> <Fold>
5

$$$$