
     RDKit          3D

 19 19  0  0  0  0  0  0  0  0999 V2000
    3.7958   -0.4437    0.0714 C   0  0  0  0  0  0  0  0  0  0  0  0
    2.3744   -0.5267    0.1511 O   0  0  0  0  0  0  0  0  0  0  0  0
    1.5060    0.5292   -0.1564 C   0  0  0  0  0  0  0  0  0  0  0  0
    1.9651    1.6432   -0.5320 O   0  0  0  0  0  0  0  0  0  0  0  0
    0.0437    0.3337   -0.0390 C   0  0  0  0  0  0  0  0  0  0  0  0
   -0.4761   -0.9046    0.3788 C   0  0  0  0  0  0  0  0  0  0  0  0
   -1.8573   -1.0918    0.4905 C   0  0  0  0  0  0  0  0  0  0  0  0
   -2.7371   -0.0453    0.1865 C   0  0  0  0  0  0  0  0  0  0  0  0
   -4.1148   -0.2209    0.2943 O   0  0  0  0  0  0  0  0  0  0  0  0
   -2.2286    1.1884   -0.2295 C   0  0  0  0  0  0  0  0  0  0  0  0
   -0.8481    1.3796   -0.3424 C   0  0  0  0  0  0  0  0  0  0  0  0
    4.1424    0.5565   -0.2633 H   0  0  0  0  0  0  0  0  0  0  0  0
    4.1646   -1.2061   -0.6451 H   0  0  0  0  0  0  0  0  0  0  0  0
    4.2285   -0.6538    1.0711 H   0  0  0  0  0  0  0  0  0  0  0  0
    0.1826   -1.7294    0.6197 H   0  0  0  0  0  0  0  0  0  0  0  0
   -2.2424   -2.0507    0.8134 H   0  0  0  0  0  0  0  0  0  0  0  0
   -4.5143   -1.1030    0.5930 H   0  0  0  0  0  0  0  0  0  0  0  0
   -2.9043    2.0006   -0.4657 H   0  0  0  0  0  0  0  0  0  0  0  0
   -0.4801    2.3450   -0.6667 H   0  0  0  0  0  0  0  0  0  0  0  0
  1  2  1  0
  2  3  1  0
  3  4  2  0
  3  5  1  0
  5  6  2  0
  6  7  1  0
  7  8  2  0
  8  9  1  0
  8 10  1  0
 10 11  2  0
 11  5  1  0
  1 12  1  0
  1 13  1  0
  1 14  1  0
  6 15  1  0
  7 16  1  0
  9 17  1  0
 10 18  1  0
 11 19  1  0
M  END
> <ID>
HT2639

> <Class>
0.0

> <Clusters>
2

> <Fold>
5

$$$$