
     RDKit          3D

 78 85  0  0  0  0  0  0  0  0999 V2000
   -6.2372   -1.9134   -4.5911 C   0  0  0  0  0  0  0  0  0  0  0  0
   -6.7258   -0.9687   -3.6442 O   0  0  0  0  0  0  0  0  0  0  0  0
   -5.9938   -0.4848   -2.5479 C   0  0  0  0  0  0  0  0  0  0  0  0
   -4.6797   -0.9124   -2.2849 C   0  0  0  0  0  0  0  0  0  0  0  0
   -3.9621   -0.4099   -1.1866 C   0  0  0  0  0  0  0  0  0  0  0  0
   -4.5834    0.5302   -0.3435 C   0  0  0  0  0  0  0  0  0  0  0  0
   -5.8982    0.9624   -0.5902 C   0  0  0  0  0  0  0  0  0  0  0  0
   -6.5441    1.8947    0.2378 O   0  0  0  0  0  0  0  0  0  0  0  0
   -5.9567    2.4955    1.3882 C   0  0  0  0  0  0  0  0  0  0  0  0
   -6.5968    0.4544   -1.6928 C   0  0  0  0  0  0  0  0  0  0  0  0
   -7.8997    0.8971   -1.9267 O   0  0  0  0  0  0  0  0  0  0  0  0
   -2.5338   -0.8913   -0.9451 C   0  0  1  0  0  0  0  0  0  0  0  0
   -1.4662   -0.0384   -1.6566 C   0  0  2  0  0  0  0  0  0  0  0  0
   -1.2250    1.2612   -0.8980 C   0  0  2  0  0  0  0  0  0  0  0  0
   -0.5895    2.2006   -1.9353 C   0  0  0  0  0  0  0  0  0  0  0  0
   -1.1136    1.7343   -3.1748 O   0  0  0  0  0  0  0  0  0  0  0  0
   -1.6805    0.4790   -3.0263 C   0  0  0  0  0  0  0  0  0  0  0  0
   -2.1690   -0.1768   -3.9839 O   0  0  0  0  0  0  0  0  0  0  0  0
   -0.4790    0.9699    0.4074 C   0  0  2  0  0  0  0  0  0  0  0  0
    0.8227    0.4909    0.1000 O   0  0  0  0  0  0  0  0  0  0  0  0
    1.7829    0.7922    1.1004 C   0  0  2  0  0  0  0  0  0  0  0  0
    2.7504    1.6677    0.5185 O   0  0  0  0  0  0  0  0  0  0  0  0
    4.0759    1.3174    0.8508 C   0  0  2  0  0  0  0  0  0  0  0  0
    5.0682    2.3220    0.2725 C   0  0  0  0  0  0  0  0  0  0  0  0
    6.3910    1.8939    0.5352 O   0  0  0  0  0  0  0  0  0  0  0  0
    6.6153    0.6166   -0.0446 C   0  0  2  0  0  0  0  0  0  0  0  0
    5.7620   -0.3669    0.5250 O   0  0  0  0  0  0  0  0  0  0  0  0
    4.4134   -0.0464    0.2453 C   0  0  1  0  0  0  0  0  0  0  0  0
    3.4666   -1.1447    0.7921 C   0  0  2  0  0  0  0  0  0  0  0  0
    2.9009   -1.8654   -0.2742 O   0  0  0  0  0  0  0  0  0  0  0  0
    2.3259   -0.5623    1.6618 C   0  0  1  0  0  0  0  0  0  0  0  0
    2.7728   -0.3752    2.9831 O   0  0  0  0  0  0  0  0  0  0  0  0
    8.0303    0.2172    0.2279 C   0  0  0  0  0  0  0  0  0  0  0  0
    8.5996    0.0484    1.4844 C   0  0  0  0  0  0  0  0  0  0  0  0
    9.9424   -0.3448    1.4319 C   0  0  0  0  0  0  0  0  0  0  0  0
   10.4322   -0.4880    0.1396 C   0  0  0  0  0  0  0  0  0  0  0  0
    9.1933   -0.1242   -0.9384 S   0  0  0  0  0  0  0  0  0  0  0  0
   -1.2605   -0.0921    1.1897 C   0  0  0  0  0  0  0  0  0  0  0  0
   -1.0651   -0.1900    2.5866 C   0  0  0  0  0  0  0  0  0  0  0  0
   -1.7572   -1.1692    3.2867 C   0  0  0  0  0  0  0  0  0  0  0  0
   -1.7088   -1.4505    4.6382 O   0  0  0  0  0  0  0  0  0  0  0  0
   -2.5955   -2.5477    4.8944 C   0  0  0  0  0  0  0  0  0  0  0  0
   -3.1593   -2.8765    3.6171 O   0  0  0  0  0  0  0  0  0  0  0  0
   -2.6189   -2.0181    2.6791 C   0  0  0  0  0  0  0  0  0  0  0  0
   -2.8718   -1.9624    1.3156 C   0  0  0  0  0  0  0  0  0  0  0  0
   -2.1986   -0.9876    0.5455 C   0  0  0  0  0  0  0  0  0  0  0  0
   -5.9873   -2.8702   -4.0845 H   0  0  0  0  0  0  0  0  0  0  0  0
   -7.0242   -2.1065   -5.3483 H   0  0  0  0  0  0  0  0  0  0  0  0
   -5.3413   -1.5078   -5.1058 H   0  0  0  0  0  0  0  0  0  0  0  0
   -4.2081   -1.6412   -2.9295 H   0  0  0  0  0  0  0  0  0  0  0  0
   -4.0471    0.9165    0.5100 H   0  0  0  0  0  0  0  0  0  0  0  0
   -5.6912    1.7150    2.1330 H   0  0  0  0  0  0  0  0  0  0  0  0
   -5.0515    3.0704    1.0989 H   0  0  0  0  0  0  0  0  0  0  0  0
   -6.6880    3.1918    1.8468 H   0  0  0  0  0  0  0  0  0  0  0  0
   -8.4542    0.5648   -2.7067 H   0  0  0  0  0  0  0  0  0  0  0  0
   -2.4398   -1.9206   -1.3599 H   0  0  0  0  0  0  0  0  0  0  0  0
   -0.5280   -0.6371   -1.7004 H   0  0  0  0  0  0  0  0  0  0  0  0
   -2.1983    1.7299   -0.6344 H   0  0  0  0  0  0  0  0  0  0  0  0
    0.5181    2.1203   -1.9455 H   0  0  0  0  0  0  0  0  0  0  0  0
   -0.8947    3.2535   -1.7579 H   0  0  0  0  0  0  0  0  0  0  0  0
   -0.4654    1.9336    0.9693 H   0  0  0  0  0  0  0  0  0  0  0  0
    1.3528    1.3434    1.9668 H   0  0  0  0  0  0  0  0  0  0  0  0
    4.2223    1.3210    1.9543 H   0  0  0  0  0  0  0  0  0  0  0  0
    4.9102    3.3079    0.7601 H   0  0  0  0  0  0  0  0  0  0  0  0
    4.9088    2.4624   -0.8213 H   0  0  0  0  0  0  0  0  0  0  0  0
    6.4872    0.6599   -1.1528 H   0  0  0  0  0  0  0  0  0  0  0  0
    4.2635    0.0121   -0.8605 H   0  0  0  0  0  0  0  0  0  0  0  0
    4.0488   -1.8546    1.4265 H   0  0  0  0  0  0  0  0  0  0  0  0
    3.6282   -2.4133   -0.6684 H   0  0  0  0  0  0  0  0  0  0  0  0
    1.4826   -1.2940    1.6808 H   0  0  0  0  0  0  0  0  0  0  0  0
    2.7868   -1.2696    3.4152 H   0  0  0  0  0  0  0  0  0  0  0  0
    8.0615    0.2034    2.4110 H   0  0  0  0  0  0  0  0  0  0  0  0
   10.5422   -0.5250    2.3142 H   0  0  0  0  0  0  0  0  0  0  0  0
   11.4386   -0.7853   -0.1244 H   0  0  0  0  0  0  0  0  0  0  0  0
   -0.4018    0.4776    3.1187 H   0  0  0  0  0  0  0  0  0  0  0  0
   -2.0301   -3.4140    5.2976 H   0  0  0  0  0  0  0  0  0  0  0  0
   -3.3956   -2.2371    5.5976 H   0  0  0  0  0  0  0  0  0  0  0  0
   -3.5811   -2.6451    0.8648 H   0  0  0  0  0  0  0  0  0  0  0  0
  1  2  1  0
  2  3  1  0
  3  4  2  0
  4  5  1  0
  5  6  2  0
  6  7  1  0
  7  8  1  0
  8  9  1  0
  7 10  2  0
 10  3  1  0
 10 11  1  0
 12  5  1  0
 12 13  1  0
 13 14  1  0
 14 15  1  0
 15 16  1  0
 16 17  1  0
 13 17  1  0
 17 18  2  0
 14 19  1  0
 19 20  1  0
 21 20  1  0
 21 22  1  0
 22 23  1  0
 23 24  1  0
 24 25  1  0
 25 26  1  0
 26 27  1  0
 28 27  1  0
 28 23  1  0
 28 29  1  0
 29 30  1  0
 29 31  1  0
 31 21  1  0
 31 32  1  0
 26 33  1  0
 33 34  2  0
 34 35  1  0
 35 36  2  0
 36 37  1  0
 37 33  1  0
 19 38  1  0
 38 39  2  0
 39 40  1  0
 40 41  1  0
 41 42  1  0
 42 43  1  0
 43 44  1  0
 44 40  2  0
 44 45  1  0
 45 46  2  0
 46 12  1  0
 46 38  1  0
  1 47  1  0
  1 48  1  0
  1 49  1  0
  4 50  1  0
  6 51  1  0
  9 52  1  0
  9 53  1  0
  9 54  1  0
 11 55  1  0
 12 56  1  6
 13 57  1  6
 14 58  1  1
 15 59  1  0
 15 60  1  0
 19 61  1  1
 21 62  1  1
 23 63  1  1
 24 64  1  0
 24 65  1  0
 26 66  1  6
 28 67  1  6
 29 68  1  1
 30 69  1  0
 31 70  1  1
 32 71  1  0
 34 72  1  0
 35 73  1  0
 36 74  1  0
 39 75  1  0
 42 76  1  0
 42 77  1  0
 45 78  1  0
M  END
> <ID>
HT2002

> <Class>
0.0

> <Clusters>
99

> <Fold>
5

$$$$