
     RDKit          3D

 43 45  0  0  0  0  0  0  0  0999 V2000
    5.5509    2.2802   -0.7955 N   0  0  0  0  0  0  0  0  0  0  0  0
    4.5392    1.4555   -0.1386 C   0  0  0  0  0  0  0  0  0  0  0  0
    3.2161    2.2125    0.0173 C   0  0  0  0  0  0  0  0  0  0  0  0
    2.2346    1.3671    0.6960 N   0  0  0  0  0  0  0  0  0  0  0  0
    0.9495    1.0595    0.1297 C   0  0  0  0  0  0  0  0  0  0  0  0
    0.1781    2.1167   -0.3593 C   0  0  0  0  0  0  0  0  0  0  0  0
   -1.1198    1.9080   -0.7909 C   0  0  0  0  0  0  0  0  0  0  0  0
   -1.7068    0.6438   -0.7103 C   0  0  0  0  0  0  0  0  0  0  0  0
   -3.0620    0.4963   -1.1645 N   0  0  0  0  0  0  0  0  0  0  0  0
   -4.1034    1.0782   -0.6431 C   0  0  0  0  0  0  0  0  0  0  0  0
   -4.0320    1.9175    0.6043 C   0  0  0  0  0  0  0  0  0  0  0  0
   -5.3759    2.2485    1.0662 N   0  0  0  0  0  0  0  0  0  0  0  0
   -0.9440   -0.4700   -0.2503 C   0  0  0  0  0  0  0  0  0  0  0  0
   -1.5001   -1.7764   -0.1923 C   0  0  0  0  0  0  0  0  0  0  0  0
   -2.7959   -1.9864   -0.6816 O   0  0  0  0  0  0  0  0  0  0  0  0
   -0.7467   -2.8480    0.3462 C   0  0  0  0  0  0  0  0  0  0  0  0
   -1.3200   -4.1208    0.5631 C   0  0  0  0  0  0  0  0  0  0  0  0
   -0.5519   -5.1542    1.0904 C   0  0  0  0  0  0  0  0  0  0  0  0
    0.7418   -4.9387    1.4219 N   0  0  0  0  0  0  0  0  0  0  0  0
    1.3335   -3.7316    1.2458 C   0  0  0  0  0  0  0  0  0  0  0  0
    0.6122   -2.6475    0.6960 C   0  0  0  0  0  0  0  0  0  0  0  0
    1.2073   -1.3776    0.5180 C   0  0  0  0  0  0  0  0  0  0  0  0
    2.5914   -1.2112    0.6506 O   0  0  0  0  0  0  0  0  0  0  0  0
    0.4108   -0.2617    0.1543 C   0  0  0  0  0  0  0  0  0  0  0  0
    5.1933    2.5693   -1.7351 H   0  0  0  0  0  0  0  0  0  0  0  0
    5.6985    3.1480   -0.2303 H   0  0  0  0  0  0  0  0  0  0  0  0
    4.9150    1.1485    0.8617 H   0  0  0  0  0  0  0  0  0  0  0  0
    4.3724    0.5368   -0.7417 H   0  0  0  0  0  0  0  0  0  0  0  0
    3.3772    3.1317    0.6203 H   0  0  0  0  0  0  0  0  0  0  0  0
    2.8483    2.5094   -0.9891 H   0  0  0  0  0  0  0  0  0  0  0  0
    2.4603    1.0162    1.6545 H   0  0  0  0  0  0  0  0  0  0  0  0
    0.5765    3.1234   -0.3768 H   0  0  0  0  0  0  0  0  0  0  0  0
   -1.6831    2.7459   -1.1821 H   0  0  0  0  0  0  0  0  0  0  0  0
   -5.0717    0.8832   -1.0866 H   0  0  0  0  0  0  0  0  0  0  0  0
   -3.5073    1.3430    1.3985 H   0  0  0  0  0  0  0  0  0  0  0  0
   -3.4673    2.8532    0.4039 H   0  0  0  0  0  0  0  0  0  0  0  0
   -5.2834    2.7584    1.9746 H   0  0  0  0  0  0  0  0  0  0  0  0
   -5.7972    2.9252    0.3883 H   0  0  0  0  0  0  0  0  0  0  0  0
   -3.2037   -2.8885   -0.8786 H   0  0  0  0  0  0  0  0  0  0  0  0
   -2.3580   -4.3377    0.3696 H   0  0  0  0  0  0  0  0  0  0  0  0
   -0.9927   -6.1283    1.2564 H   0  0  0  0  0  0  0  0  0  0  0  0
    2.3525   -3.6325    1.5825 H   0  0  0  0  0  0  0  0  0  0  0  0
    3.2632   -1.9648    0.6779 H   0  0  0  0  0  0  0  0  0  0  0  0
  1  2  1  0
  2  3  1  0
  3  4  1  0
  4  5  1  0
  5  6  2  0
  6  7  1  0
  7  8  2  0
  8  9  1  0
  9 10  2  3
 10 11  1  0
 11 12  1  0
  8 13  1  0
 13 14  2  0
 14 15  1  0
 14 16  1  0
 16 17  2  0
 17 18  1  0
 18 19  2  0
 19 20  1  0
 20 21  2  0
 21 16  1  0
 21 22  1  0
 22 23  1  0
 22 24  2  0
 24  5  1  0
 24 13  1  0
  1 25  1  0
  1 26  1  0
  2 27  1  0
  2 28  1  0
  3 29  1  0
  3 30  1  0
  4 31  1  0
  6 32  1  0
  7 33  1  0
 10 34  1  0
 11 35  1  0
 11 36  1  0
 12 37  1  0
 12 38  1  0
 15 39  1  0
 17 40  1  0
 18 41  1  0
 20 42  1  0
 23 43  1  0
M  END
> <ID>
HT1701

> <Class>
0.0

> <Clusters>
127

> <Fold>
5

$$$$