
     RDKit          3D

 13 13  0  0  0  0  0  0  0  0999 V2000
   -2.5025   -0.5756   -0.0293 O   0  0  0  0  0  0  0  0  0  0  0  0
   -1.1392   -0.2905   -0.0043 C   0  0  0  0  0  0  0  0  0  0  0  0
   -0.2325   -1.2820    0.3881 C   0  0  0  0  0  0  0  0  0  0  0  0
    1.1389   -1.0083    0.4174 C   0  0  0  0  0  0  0  0  0  0  0  0
    1.6086    0.2591    0.0541 C   0  0  0  0  0  0  0  0  0  0  0  0
    3.3285    0.6021    0.0910 Cl  0  0  0  0  0  0  0  0  0  0  0  0
    0.7043    1.2525   -0.3386 C   0  0  0  0  0  0  0  0  0  0  0  0
   -0.6672    0.9792   -0.3681 C   0  0  0  0  0  0  0  0  0  0  0  0
   -3.1838    0.1206   -0.3086 H   0  0  0  0  0  0  0  0  0  0  0  0
   -0.5908   -2.2639    0.6700 H   0  0  0  0  0  0  0  0  0  0  0  0
    1.8341   -1.7803    0.7220 H   0  0  0  0  0  0  0  0  0  0  0  0
    1.0623    2.2345   -0.6206 H   0  0  0  0  0  0  0  0  0  0  0  0
   -1.3606    1.7526   -0.6730 H   0  0  0  0  0  0  0  0  0  0  0  0
  1  2  1  0
  2  3  2  0
  3  4  1  0
  4  5  2  0
  5  6  1  0
  5  7  1  0
  7  8  2  0
  8  2  1  0
  1  9  1  0
  3 10  1  0
  4 11  1  0
  7 12  1  0
  8 13  1  0
M  END
> <ID>
HT2535

> <Class>
0.0

> <Clusters>
249

> <Fold>
5

$$$$