
     RDKit          3D

 45 46  0  0  0  0  0  0  0  0999 V2000
   -4.5570    0.5499    0.3227 C   0  0  0  0  0  0  0  0  0  0  0  0
   -3.2204    0.1025    0.9466 C   0  0  0  0  0  0  0  0  0  0  0  0
   -3.5175   -0.4454    2.3590 C   0  0  0  0  0  0  0  0  0  0  0  0
   -2.2916    1.3362    1.0476 C   0  0  0  0  0  0  0  0  0  0  0  0
   -2.6432   -0.9470    0.0669 N   0  0  0  0  0  0  0  0  0  0  0  0
   -1.3872   -1.5561    0.5493 C   0  0  0  0  0  0  0  0  0  0  0  0
   -0.8668   -2.6230   -0.4430 C   0  0  2  0  0  0  0  0  0  0  0  0
    0.1414   -3.3962    0.1598 O   0  0  0  0  0  0  0  0  0  0  0  0
   -0.3599   -2.0261   -1.7698 C   0  0  0  0  0  0  0  0  0  0  0  0
    0.6163   -1.0126   -1.5227 O   0  0  0  0  0  0  0  0  0  0  0  0
    0.4661    0.3361   -1.8686 C   0  0  0  0  0  0  0  0  0  0  0  0
   -0.6130    0.7679   -2.5748 N   0  0  0  0  0  0  0  0  0  0  0  0
   -0.2842    2.3749   -2.7230 S   0  0  0  0  0  0  0  0  0  0  0  0
    1.1520    2.5969   -1.9486 N   0  0  0  0  0  0  0  0  0  0  0  0
    1.4342    1.3376   -1.5144 C   0  0  0  0  0  0  0  0  0  0  0  0
    2.6523    1.0768   -0.7702 N   0  0  0  0  0  0  0  0  0  0  0  0
    3.7667    2.0315   -0.9190 C   0  0  0  0  0  0  0  0  0  0  0  0
    4.8439    1.8459    0.1554 C   0  0  0  0  0  0  0  0  0  0  0  0
    5.1322    0.4799    0.3486 O   0  0  0  0  0  0  0  0  0  0  0  0
    4.0112   -0.1388    0.9376 C   0  0  0  0  0  0  0  0  0  0  0  0
    2.8393   -0.1924   -0.0458 C   0  0  0  0  0  0  0  0  0  0  0  0
   -4.3968    0.9679   -0.6926 H   0  0  0  0  0  0  0  0  0  0  0  0
   -5.0456    1.3291    0.9465 H   0  0  0  0  0  0  0  0  0  0  0  0
   -5.2476   -0.3156    0.2321 H   0  0  0  0  0  0  0  0  0  0  0  0
   -4.1026   -1.3877    2.2911 H   0  0  0  0  0  0  0  0  0  0  0  0
   -2.5835   -0.6414    2.9245 H   0  0  0  0  0  0  0  0  0  0  0  0
   -4.1017    0.2939    2.9501 H   0  0  0  0  0  0  0  0  0  0  0  0
   -1.3699    1.1076    1.6233 H   0  0  0  0  0  0  0  0  0  0  0  0
   -2.8046    2.1690    1.5746 H   0  0  0  0  0  0  0  0  0  0  0  0
   -1.9993    1.6909    0.0363 H   0  0  0  0  0  0  0  0  0  0  0  0
   -2.4589   -0.5139   -0.8678 H   0  0  0  0  0  0  0  0  0  0  0  0
   -0.6027   -0.7881    0.7119 H   0  0  0  0  0  0  0  0  0  0  0  0
   -1.5696   -2.0743    1.5119 H   0  0  0  0  0  0  0  0  0  0  0  0
   -1.7076   -3.3118   -0.6830 H   0  0  0  0  0  0  0  0  0  0  0  0
    0.9042   -2.7941    0.3608 H   0  0  0  0  0  0  0  0  0  0  0  0
    0.1128   -2.8302   -2.3728 H   0  0  0  0  0  0  0  0  0  0  0  0
   -1.2119   -1.6458   -2.3690 H   0  0  0  0  0  0  0  0  0  0  0  0
    3.3922    3.0746   -0.8339 H   0  0  0  0  0  0  0  0  0  0  0  0
    4.2193    1.9028   -1.9268 H   0  0  0  0  0  0  0  0  0  0  0  0
    5.7722    2.3564   -0.1748 H   0  0  0  0  0  0  0  0  0  0  0  0
    4.5415    2.3396    1.1093 H   0  0  0  0  0  0  0  0  0  0  0  0
    3.7077    0.3696    1.8818 H   0  0  0  0  0  0  0  0  0  0  0  0
    4.2869   -1.1779    1.2154 H   0  0  0  0  0  0  0  0  0  0  0  0
    3.0276   -1.0043   -0.7818 H   0  0  0  0  0  0  0  0  0  0  0  0
    1.9229   -0.4292    0.5393 H   0  0  0  0  0  0  0  0  0  0  0  0
  1  2  1  0
  2  3  1  0
  2  4  1  0
  2  5  1  0
  5  6  1  0
  6  7  1  0
  7  8  1  0
  7  9  1  0
  9 10  1  0
 10 11  1  0
 11 12  2  0
 12 13  1  0
 13 14  1  0
 14 15  2  0
 15 11  1  0
 15 16  1  0
 16 17  1  0
 17 18  1  0
 18 19  1  0
 19 20  1  0
 20 21  1  0
 21 16  1  0
  1 22  1  0
  1 23  1  0
  1 24  1  0
  3 25  1  0
  3 26  1  0
  3 27  1  0
  4 28  1  0
  4 29  1  0
  4 30  1  0
  5 31  1  0
  6 32  1  0
  6 33  1  0
  7 34  1  6
  8 35  1  0
  9 36  1  0
  9 37  1  0
 17 38  1  0
 17 39  1  0
 18 40  1  0
 18 41  1  0
 20 42  1  0
 20 43  1  0
 21 44  1  0
 21 45  1  0
M  END
> <ID>
HT2064

> <Class>
0.0

> <Clusters>
145

> <Fold>
5

$$$$