
     RDKit          3D

 94 95  0  0  0  0  0  0  0  0999 V2000
   -2.6501   -3.7551   -1.4312 C   0  0  0  0  0  0  0  0  0  0  0  0
   -2.2768   -2.3185   -1.6852 C   0  0  0  0  0  0  0  0  0  0  0  0
   -1.0256   -1.9094   -1.4358 C   0  0  0  0  0  0  0  0  0  0  0  0
   -0.6370   -0.4817   -1.5228 C   0  0  0  0  0  0  0  0  0  0  0  0
    0.6120   -0.0867   -1.7820 C   0  0  0  0  0  0  0  0  0  0  0  0
    1.6411   -1.0164   -2.2745 C   0  0  0  0  0  0  0  0  0  0  0  0
    2.8045   -1.2267   -1.6439 C   0  0  0  0  0  0  0  0  0  0  0  0
    3.0444   -0.6471   -0.2710 C   0  0  0  0  0  0  0  0  0  0  0  0
    3.8142   -2.0839   -2.3185 C   0  0  0  0  0  0  0  0  0  0  0  0
    5.1451   -1.9280   -2.2511 C   0  0  0  0  0  0  0  0  0  0  0  0
    5.8247   -0.7911   -1.5925 C   0  0  0  0  0  0  0  0  0  0  0  0
    7.0155   -0.9063   -0.9864 C   0  0  0  0  0  0  0  0  0  0  0  0
    7.7913   -2.2044   -1.0053 C   0  0  0  0  0  0  0  0  0  0  0  0
    7.5184    0.2472   -0.2088 C   0  0  0  0  0  0  0  0  0  0  0  0
    8.0777    0.0854    0.9905 C   0  0  0  0  0  0  0  0  0  0  0  0
    8.5953    1.2146    1.8020 C   0  0  0  0  0  0  0  0  0  0  0  0
    9.9108    1.2109    2.1688 C   0  0  0  0  0  0  0  0  0  0  0  0
   10.8406    0.1057    1.6995 C   0  0  0  0  0  0  0  0  0  0  0  0
   10.4455    2.2663    3.0701 C   0  0  0  0  0  0  0  0  0  0  0  0
   11.6763    2.3093    3.3288 O   0  0  0  0  0  0  0  0  0  0  0  0
    9.5496    3.3180    3.6583 C   0  0  0  0  0  0  0  0  0  0  0  0
    8.0860    2.8766    3.6288 C   0  0  0  0  0  0  0  0  0  0  0  0
    7.6586    2.3604    2.2306 C   0  0  0  0  0  0  0  0  0  0  0  0
    7.7285    3.5120    1.1959 C   0  0  0  0  0  0  0  0  0  0  0  0
    6.1907    1.8780    2.3553 C   0  0  0  0  0  0  0  0  0  0  0  0
   -3.2230   -1.4308   -2.3952 C   0  0  0  0  0  0  0  0  0  0  0  0
   -4.3423   -0.9277   -1.8713 C   0  0  0  0  0  0  0  0  0  0  0  0
   -4.8459   -1.2311   -0.5121 C   0  0  0  0  0  0  0  0  0  0  0  0
   -5.7388   -0.4506    0.1299 C   0  0  0  0  0  0  0  0  0  0  0  0
   -6.1649   -0.8164    1.5267 C   0  0  0  0  0  0  0  0  0  0  0  0
   -6.0587    0.8935   -0.3879 C   0  0  0  0  0  0  0  0  0  0  0  0
   -7.2866    1.4179   -0.4763 C   0  0  0  0  0  0  0  0  0  0  0  0
   -8.5817    0.7122   -0.2540 C   0  0  0  0  0  0  0  0  0  0  0  0
   -9.4431    1.2259    0.6588 C   0  0  0  0  0  0  0  0  0  0  0  0
   -9.0034    2.3125    1.6159 C   0  0  0  0  0  0  0  0  0  0  0  0
  -10.8783    0.8208    0.6624 C   0  0  0  0  0  0  0  0  0  0  0  0
  -11.6560    1.2550    1.5590 O   0  0  0  0  0  0  0  0  0  0  0  0
  -11.4473   -0.0780   -0.3940 C   0  0  0  0  0  0  0  0  0  0  0  0
  -10.5272   -0.1621   -1.6121 C   0  0  0  0  0  0  0  0  0  0  0  0
   -9.0480   -0.4153   -1.2075 C   0  0  0  0  0  0  0  0  0  0  0  0
   -8.2218   -0.4679   -2.5176 C   0  0  0  0  0  0  0  0  0  0  0  0
   -8.9249   -1.7811   -0.4988 C   0  0  0  0  0  0  0  0  0  0  0  0
   -3.7167   -3.9261   -1.6667 H   0  0  0  0  0  0  0  0  0  0  0  0
   -2.4762   -4.0178   -0.3706 H   0  0  0  0  0  0  0  0  0  0  0  0
   -2.0363   -4.4275   -2.0699 H   0  0  0  0  0  0  0  0  0  0  0  0
   -0.2856   -2.6286   -1.0992 H   0  0  0  0  0  0  0  0  0  0  0  0
   -1.3726    0.2774   -1.2859 H   0  0  0  0  0  0  0  0  0  0  0  0
    0.8627    0.9639   -1.7037 H   0  0  0  0  0  0  0  0  0  0  0  0
    1.4587   -1.4986   -3.2335 H   0  0  0  0  0  0  0  0  0  0  0  0
    3.2663    0.4310   -0.3584 H   0  0  0  0  0  0  0  0  0  0  0  0
    2.1447   -0.7772    0.3713 H   0  0  0  0  0  0  0  0  0  0  0  0
    3.8842   -1.1542    0.2335 H   0  0  0  0  0  0  0  0  0  0  0  0
    3.4446   -2.8944   -2.9451 H   0  0  0  0  0  0  0  0  0  0  0  0
    5.7549   -2.6602   -2.7677 H   0  0  0  0  0  0  0  0  0  0  0  0
    5.3022    0.1509   -1.5311 H   0  0  0  0  0  0  0  0  0  0  0  0
    8.8146   -2.0587   -0.6002 H   0  0  0  0  0  0  0  0  0  0  0  0
    7.2591   -2.9684   -0.3949 H   0  0  0  0  0  0  0  0  0  0  0  0
    7.9120   -2.5743   -2.0436 H   0  0  0  0  0  0  0  0  0  0  0  0
    7.3625    1.2432   -0.6034 H   0  0  0  0  0  0  0  0  0  0  0  0
    8.2076   -0.9119    1.3927 H   0  0  0  0  0  0  0  0  0  0  0  0
   10.5152   -0.8700    2.1287 H   0  0  0  0  0  0  0  0  0  0  0  0
   11.8936    0.2823    2.0088 H   0  0  0  0  0  0  0  0  0  0  0  0
   10.8203    0.0469    0.5902 H   0  0  0  0  0  0  0  0  0  0  0  0
    9.8418    3.5045    4.7161 H   0  0  0  0  0  0  0  0  0  0  0  0
    9.6741    4.2640    3.0852 H   0  0  0  0  0  0  0  0  0  0  0  0
    7.4494    3.7307    3.9399 H   0  0  0  0  0  0  0  0  0  0  0  0
    7.9492    2.0637    4.3757 H   0  0  0  0  0  0  0  0  0  0  0  0
    7.3134    4.4451    1.6262 H   0  0  0  0  0  0  0  0  0  0  0  0
    7.1359    3.2885    0.2915 H   0  0  0  0  0  0  0  0  0  0  0  0
    8.7730    3.7066    0.8699 H   0  0  0  0  0  0  0  0  0  0  0  0
    5.7440    1.6157    1.3696 H   0  0  0  0  0  0  0  0  0  0  0  0
    6.1294    0.9869    3.0264 H   0  0  0  0  0  0  0  0  0  0  0  0
    5.5548    2.6755    2.7910 H   0  0  0  0  0  0  0  0  0  0  0  0
   -2.9287   -1.0793   -3.3775 H   0  0  0  0  0  0  0  0  0  0  0  0
   -4.8832   -0.2256   -2.4813 H   0  0  0  0  0  0  0  0  0  0  0  0
   -4.5042   -2.1357   -0.0187 H   0  0  0  0  0  0  0  0  0  0  0  0
   -7.0812   -0.2678    1.8204 H   0  0  0  0  0  0  0  0  0  0  0  0
   -6.3723   -1.9055    1.6090 H   0  0  0  0  0  0  0  0  0  0  0  0
   -5.3534   -0.5565    2.2290 H   0  0  0  0  0  0  0  0  0  0  0  0
   -5.2257    1.5221   -0.6674 H   0  0  0  0  0  0  0  0  0  0  0  0
   -7.3448    2.4538   -0.7865 H   0  0  0  0  0  0  0  0  0  0  0  0
   -8.0503    2.0358    2.1090 H   0  0  0  0  0  0  0  0  0  0  0  0
   -8.8649    3.2723    1.0666 H   0  0  0  0  0  0  0  0  0  0  0  0
   -9.7485    2.4841    2.4256 H   0  0  0  0  0  0  0  0  0  0  0  0
  -12.4341    0.3198   -0.7208 H   0  0  0  0  0  0  0  0  0  0  0  0
  -11.6086   -1.0886    0.0439 H   0  0  0  0  0  0  0  0  0  0  0  0
  -10.8883   -0.9761   -2.2812 H   0  0  0  0  0  0  0  0  0  0  0  0
  -10.5969    0.7981   -2.1754 H   0  0  0  0  0  0  0  0  0  0  0  0
   -7.1912   -0.8241   -2.3232 H   0  0  0  0  0  0  0  0  0  0  0  0
   -8.6662   -1.1728   -3.2550 H   0  0  0  0  0  0  0  0  0  0  0  0
   -8.1612    0.5351   -2.9904 H   0  0  0  0  0  0  0  0  0  0  0  0
   -9.4143   -2.5880   -1.1005 H   0  0  0  0  0  0  0  0  0  0  0  0
   -7.8577   -2.0646   -0.3752 H   0  0  0  0  0  0  0  0  0  0  0  0
   -9.3943   -1.7516    0.5046 H   0  0  0  0  0  0  0  0  0  0  0  0
  1  2  1  0
  2  3  2  3
  3  4  1  0
  4  5  2  3
  5  6  1  0
  6  7  2  3
  7  8  1  0
  7  9  1  0
  9 10  2  3
 10 11  1  0
 11 12  2  3
 12 13  1  0
 12 14  1  0
 14 15  2  3
 15 16  1  0
 16 17  2  0
 17 18  1  0
 17 19  1  0
 19 20  2  0
 19 21  1  0
 21 22  1  0
 22 23  1  0
 23 16  1  0
 23 24  1  0
 23 25  1  0
  2 26  1  0
 26 27  2  3
 27 28  1  0
 28 29  2  3
 29 30  1  0
 29 31  1  0
 31 32  2  3
 32 33  1  0
 33 34  2  0
 34 35  1  0
 34 36  1  0
 36 37  2  0
 36 38  1  0
 38 39  1  0
 39 40  1  0
 40 33  1  0
 40 41  1  0
 40 42  1  0
  1 43  1  0
  1 44  1  0
  1 45  1  0
  3 46  1  0
  4 47  1  0
  5 48  1  0
  6 49  1  0
  8 50  1  0
  8 51  1  0
  8 52  1  0
  9 53  1  0
 10 54  1  0
 11 55  1  0
 13 56  1  0
 13 57  1  0
 13 58  1  0
 14 59  1  0
 15 60  1  0
 18 61  1  0
 18 62  1  0
 18 63  1  0
 21 64  1  0
 21 65  1  0
 22 66  1  0
 22 67  1  0
 24 68  1  0
 24 69  1  0
 24 70  1  0
 25 71  1  0
 25 72  1  0
 25 73  1  0
 26 74  1  0
 27 75  1  0
 28 76  1  0
 30 77  1  0
 30 78  1  0
 30 79  1  0
 31 80  1  0
 32 81  1  0
 35 82  1  0
 35 83  1  0
 35 84  1  0
 38 85  1  0
 38 86  1  0
 39 87  1  0
 39 88  1  0
 41 89  1  0
 41 90  1  0
 41 91  1  0
 42 92  1  0
 42 93  1  0
 42 94  1  0
M  END
> <ID>
HT3935

> <Class>
0.0

> <Clusters>
33

> <Fold>
5

$$$$