
     RDKit          3D

 43 45  0  0  0  0  0  0  0  0999 V2000
   -0.0832   -1.7520   -1.3491 C   0  0  0  0  0  0  0  0  0  0  0  0
   -0.2946   -1.7617    0.1108 N   0  0  0  0  0  0  0  0  0  0  0  0
    0.9622   -2.0519    0.8356 C   0  0  0  0  0  0  0  0  0  0  0  0
    2.0009   -0.9678    0.6664 C   0  0  0  0  0  0  0  0  0  0  0  0
    3.1706   -1.2047    0.0588 C   0  0  0  0  0  0  0  0  0  0  0  0
    4.2216   -0.1761   -0.1332 C   0  0  0  0  0  0  0  0  0  0  0  0
    5.5410   -0.5978   -0.3721 C   0  0  0  0  0  0  0  0  0  0  0  0
    6.5613    0.3375   -0.5697 C   0  0  0  0  0  0  0  0  0  0  0  0
    6.2742    1.7036   -0.5417 C   0  0  0  0  0  0  0  0  0  0  0  0
    4.9649    2.1369   -0.3225 C   0  0  0  0  0  0  0  0  0  0  0  0
    3.9402    1.2061   -0.1233 C   0  0  0  0  0  0  0  0  0  0  0  0
   -0.9483   -0.5163    0.5761 C   0  0  0  0  0  0  0  0  0  0  0  0
   -2.4661   -0.5573    0.4459 C   0  0  0  0  0  0  0  0  0  0  0  0
   -3.1256   -1.7561    0.0973 C   0  0  0  0  0  0  0  0  0  0  0  0
   -4.5122   -1.8020   -0.0350 C   0  0  0  0  0  0  0  0  0  0  0  0
   -5.2790   -0.6632    0.1880 C   0  0  0  0  0  0  0  0  0  0  0  0
   -4.6655    0.5380    0.5624 C   0  0  0  0  0  0  0  0  0  0  0  0
   -5.4514    1.6763    0.8029 C   0  0  0  0  0  0  0  0  0  0  0  0
   -4.8542    2.8751    1.1912 C   0  0  0  0  0  0  0  0  0  0  0  0
   -3.4711    2.9491    1.3469 C   0  0  0  0  0  0  0  0  0  0  0  0
   -2.6731    1.8273    1.1098 C   0  0  0  0  0  0  0  0  0  0  0  0
   -3.2516    0.6024    0.7054 C   0  0  0  0  0  0  0  0  0  0  0  0
    0.3365   -2.7257   -1.6809 H   0  0  0  0  0  0  0  0  0  0  0  0
    0.6077   -0.9364   -1.6554 H   0  0  0  0  0  0  0  0  0  0  0  0
   -1.0496   -1.6105   -1.8776 H   0  0  0  0  0  0  0  0  0  0  0  0
    0.7461   -2.1663    1.9197 H   0  0  0  0  0  0  0  0  0  0  0  0
    1.3555   -3.0386    0.5037 H   0  0  0  0  0  0  0  0  0  0  0  0
    1.7794    0.0066    1.0783 H   0  0  0  0  0  0  0  0  0  0  0  0
    3.3835   -2.2098   -0.2874 H   0  0  0  0  0  0  0  0  0  0  0  0
    5.7839   -1.6533   -0.3976 H   0  0  0  0  0  0  0  0  0  0  0  0
    7.5753    0.0023   -0.7458 H   0  0  0  0  0  0  0  0  0  0  0  0
    7.0649    2.4263   -0.6968 H   0  0  0  0  0  0  0  0  0  0  0  0
    4.7418    3.1960   -0.3143 H   0  0  0  0  0  0  0  0  0  0  0  0
    2.9333    1.5755    0.0119 H   0  0  0  0  0  0  0  0  0  0  0  0
   -0.7245   -0.3384    1.6518 H   0  0  0  0  0  0  0  0  0  0  0  0
   -0.5505    0.3526    0.0048 H   0  0  0  0  0  0  0  0  0  0  0  0
   -2.5764   -2.6721   -0.0726 H   0  0  0  0  0  0  0  0  0  0  0  0
   -4.9961   -2.7303   -0.3106 H   0  0  0  0  0  0  0  0  0  0  0  0
   -6.3554   -0.7241    0.0779 H   0  0  0  0  0  0  0  0  0  0  0  0
   -6.5289    1.6376    0.6938 H   0  0  0  0  0  0  0  0  0  0  0  0
   -5.4660    3.7485    1.3768 H   0  0  0  0  0  0  0  0  0  0  0  0
   -3.0139    3.8806    1.6552 H   0  0  0  0  0  0  0  0  0  0  0  0
   -1.6075    1.9341    1.2557 H   0  0  0  0  0  0  0  0  0  0  0  0
  1  2  1  0
  2  3  1  0
  3  4  1  0
  4  5  2  0
  5  6  1  0
  6  7  2  0
  7  8  1  0
  8  9  2  0
  9 10  1  0
 10 11  2  0
 11  6  1  0
  2 12  1  0
 12 13  1  0
 13 14  2  0
 14 15  1  0
 15 16  2  0
 16 17  1  0
 17 18  2  0
 18 19  1  0
 19 20  2  0
 20 21  1  0
 21 22  2  0
 22 13  1  0
 22 17  1  0
  1 23  1  0
  1 24  1  0
  1 25  1  0
  3 26  1  0
  3 27  1  0
  4 28  1  0
  5 29  1  0
  7 30  1  0
  8 31  1  0
  9 32  1  0
 10 33  1  0
 11 34  1  0
 12 35  1  0
 12 36  1  0
 14 37  1  0
 15 38  1  0
 16 39  1  0
 18 40  1  0
 19 41  1  0
 20 42  1  0
 21 43  1  0
M  END
> <ID>
HT1454

> <Class>
0.0

> <Clusters>
39

> <Fold>
5

$$$$