
     RDKit          3D

 32 32  0  0  0  0  0  0  0  0999 V2000
    4.0836   -0.4629   -0.2755 C   0  0  0  0  0  0  0  0  0  0  0  0
    3.1664   -0.2461    0.9222 C   0  0  0  0  0  0  0  0  0  0  0  0
    1.8388    0.3174    0.4686 C   0  0  0  0  0  0  0  0  0  0  0  0
    0.6460   -0.3351    0.5410 C   0  0  0  0  0  0  0  0  0  0  0  0
    0.5922   -1.7471    1.0954 C   0  0  0  0  0  0  0  0  0  0  0  0
   -0.6812    0.2896    0.0507 C   0  0  0  0  0  0  0  0  0  0  0  0
   -0.5387    1.7528   -0.4796 C   0  0  0  0  0  0  0  0  0  0  0  0
   -1.8597    2.3791   -0.9477 C   0  0  0  0  0  0  0  0  0  0  0  0
   -1.1881   -0.5794   -1.0939 C   0  0  0  0  0  0  0  0  0  0  0  0
   -0.4641   -0.7347   -2.1151 O   0  0  0  0  0  0  0  0  0  0  0  0
   -2.4668   -1.2184   -1.0539 N   0  0  0  0  0  0  0  0  0  0  0  0
   -3.3188   -1.1036    0.0812 C   0  0  0  0  0  0  0  0  0  0  0  0
   -4.4434   -1.6706    0.0837 O   0  0  0  0  0  0  0  0  0  0  0  0
   -2.8979   -0.3532    1.2156 N   0  0  0  0  0  0  0  0  0  0  0  0
   -1.6320    0.3114    1.2417 C   0  0  0  0  0  0  0  0  0  0  0  0
   -1.2999    0.9435    2.2817 O   0  0  0  0  0  0  0  0  0  0  0  0
    4.2563    0.4958   -0.8100 H   0  0  0  0  0  0  0  0  0  0  0  0
    3.6309   -1.1972   -0.9758 H   0  0  0  0  0  0  0  0  0  0  0  0
    5.0621   -0.8574    0.0709 H   0  0  0  0  0  0  0  0  0  0  0  0
    3.6394    0.4832    1.6137 H   0  0  0  0  0  0  0  0  0  0  0  0
    3.0725   -1.2015    1.4753 H   0  0  0  0  0  0  0  0  0  0  0  0
    1.9013    1.3153    0.0551 H   0  0  0  0  0  0  0  0  0  0  0  0
    0.9042   -1.7489    2.1609 H   0  0  0  0  0  0  0  0  0  0  0  0
   -0.4337   -2.1680    1.0472 H   0  0  0  0  0  0  0  0  0  0  0  0
    1.2544   -2.4143    0.5040 H   0  0  0  0  0  0  0  0  0  0  0  0
   -0.1214    2.4061    0.3184 H   0  0  0  0  0  0  0  0  0  0  0  0
    0.1639    1.7777   -1.3418 H   0  0  0  0  0  0  0  0  0  0  0  0
   -2.3043    1.7921   -1.7782 H   0  0  0  0  0  0  0  0  0  0  0  0
   -1.6676    3.4088   -1.3161 H   0  0  0  0  0  0  0  0  0  0  0  0
   -2.5872    2.4421   -0.1118 H   0  0  0  0  0  0  0  0  0  0  0  0
   -2.7812   -1.7859   -1.8731 H   0  0  0  0  0  0  0  0  0  0  0  0
   -3.5260   -0.2906    2.0484 H   0  0  0  0  0  0  0  0  0  0  0  0
  1  2  1  0
  2  3  1  0
  3  4  2  3
  4  5  1  0
  4  6  1  0
  6  7  1  0
  7  8  1  0
  6  9  1  0
  9 10  2  0
  9 11  1  0
 11 12  1  0
 12 13  2  0
 12 14  1  0
 14 15  1  0
 15  6  1  0
 15 16  2  0
  1 17  1  0
  1 18  1  0
  1 19  1  0
  2 20  1  0
  2 21  1  0
  3 22  1  0
  5 23  1  0
  5 24  1  0
  5 25  1  0
  7 26  1  0
  7 27  1  0
  8 28  1  0
  8 29  1  0
  8 30  1  0
 11 31  1  0
 14 32  1  0
M  END
> <ID>
HT2975

> <Class>
0.0

> <Clusters>
28

> <Fold>
5

$$$$