
     RDKit          3D

 39 39  0  0  0  0  0  0  0  0999 V2000
   -2.6050   -3.6182    0.5961 C   0  0  0  0  0  0  0  0  0  0  0  0
   -2.0613   -2.2090    0.8132 C   0  0  0  0  0  0  0  0  0  0  0  0
   -1.2200   -1.7511   -0.3826 C   0  0  0  0  0  0  0  0  0  0  0  0
   -0.8201   -0.3413   -0.2481 N   0  0  0  0  0  0  0  0  0  0  0  0
   -1.7602    0.6959   -0.7172 C   0  0  0  0  0  0  0  0  0  0  0  0
   -1.3525    2.1199   -0.3006 C   0  0  0  0  0  0  0  0  0  0  0  0
   -2.4044    3.1393   -0.7279 C   0  0  0  0  0  0  0  0  0  0  0  0
    0.5809   -0.0490   -0.0621 C   0  0  0  0  0  0  0  0  0  0  0  0
    1.1285   -0.0111    1.2434 C   0  0  0  0  0  0  0  0  0  0  0  0
    2.4958    0.2601    1.4114 C   0  0  0  0  0  0  0  0  0  0  0  0
    3.3267    0.5052    0.3108 C   0  0  0  0  0  0  0  0  0  0  0  0
    2.7709    0.5087   -0.9746 C   0  0  0  0  0  0  0  0  0  0  0  0
    1.4170    0.2062   -1.1789 C   0  0  0  0  0  0  0  0  0  0  0  0
    0.9118    0.1684   -2.5243 N   0  0  0  0  0  0  0  0  0  0  0  0
    0.1287   -0.7342   -2.8826 O   0  0  0  0  0  0  0  0  0  0  0  0
    1.4422    1.0033   -3.4808 O   0  0  0  0  0  0  0  0  0  0  0  0
    4.7788    0.8616    0.5154 C   0  0  0  0  0  0  0  0  0  0  0  0
    5.2823    0.2368    1.6434 F   0  0  0  0  0  0  0  0  0  0  0  0
    4.8936    2.2304    0.6699 F   0  0  0  0  0  0  0  0  0  0  0  0
    5.5385    0.4653   -0.5718 F   0  0  0  0  0  0  0  0  0  0  0  0
    0.3103   -0.2232    2.4083 N   0  0  0  0  0  0  0  0  0  0  0  0
    0.8070   -0.7168    3.4420 O   0  0  0  0  0  0  0  0  0  0  0  0
   -0.9798    0.2503    2.4576 O   0  0  0  0  0  0  0  0  0  0  0  0
   -3.2665   -3.6436   -0.2960 H   0  0  0  0  0  0  0  0  0  0  0  0
   -3.1949   -3.9299    1.4837 H   0  0  0  0  0  0  0  0  0  0  0  0
   -1.7695   -4.3366    0.4545 H   0  0  0  0  0  0  0  0  0  0  0  0
   -2.9152   -1.5166    0.9704 H   0  0  0  0  0  0  0  0  0  0  0  0
   -1.4341   -2.2136    1.7286 H   0  0  0  0  0  0  0  0  0  0  0  0
   -1.8017   -1.8829   -1.3218 H   0  0  0  0  0  0  0  0  0  0  0  0
   -0.3212   -2.4036   -0.4597 H   0  0  0  0  0  0  0  0  0  0  0  0
   -1.8363    0.6493   -1.8244 H   0  0  0  0  0  0  0  0  0  0  0  0
   -2.7698    0.4832   -0.3045 H   0  0  0  0  0  0  0  0  0  0  0  0
   -1.2305    2.1756    0.8005 H   0  0  0  0  0  0  0  0  0  0  0  0
   -0.3874    2.3940   -0.7776 H   0  0  0  0  0  0  0  0  0  0  0  0
   -2.0805    4.1572   -0.4248 H   0  0  0  0  0  0  0  0  0  0  0  0
   -2.5331    3.1212   -1.8311 H   0  0  0  0  0  0  0  0  0  0  0  0
   -3.3778    2.9172   -0.2408 H   0  0  0  0  0  0  0  0  0  0  0  0
    2.9082    0.3076    2.4118 H   0  0  0  0  0  0  0  0  0  0  0  0
    3.4007    0.7242   -1.8289 H   0  0  0  0  0  0  0  0  0  0  0  0
  1  2  1  0
  2  3  1  0
  3  4  1  0
  4  5  1  0
  5  6  1  0
  6  7  1  0
  4  8  1  0
  8  9  2  0
  9 10  1  0
 10 11  2  0
 11 12  1  0
 12 13  2  0
 13  8  1  0
 13 14  1  0
 14 15  2  0
 14 16  1  0
 11 17  1  0
 17 18  1  0
 17 19  1  0
 17 20  1  0
  9 21  1  0
 21 22  2  0
 21 23  1  0
  1 24  1  0
  1 25  1  0
  1 26  1  0
  2 27  1  0
  2 28  1  0
  3 29  1  0
  3 30  1  0
  5 31  1  0
  5 32  1  0
  6 33  1  0
  6 34  1  0
  7 35  1  0
  7 36  1  0
  7 37  1  0
 10 38  1  0
 12 39  1  0
M  CHG  4  14   1  16  -1  21   1  23  -1
M  END
> <ID>
HT3535

> <Class>
0.0

> <Clusters>
108

> <Fold>
5

$$$$