
     RDKit          3D

 57 58  0  0  0  0  0  0  0  0999 V2000
    5.9626   -1.2213    0.3291 C   0  0  0  0  0  0  0  0  0  0  0  0
    5.6879    0.0368   -0.4843 C   0  0  0  0  0  0  0  0  0  0  0  0
    4.6844    0.8709    0.2178 N   0  0  0  0  0  0  0  0  0  0  0  0
    5.2931    1.9603    1.0165 C   0  0  0  0  0  0  0  0  0  0  0  0
    5.7883    3.1500    0.1787 C   0  0  0  0  0  0  0  0  0  0  0  0
    3.5958    1.3381   -0.6627 C   0  0  0  0  0  0  0  0  0  0  0  0
    2.6803    0.2307   -0.9585 C   0  0  0  0  0  0  0  0  0  0  0  0
    1.9288   -0.6806   -1.1968 C   0  0  0  0  0  0  0  0  0  0  0  0
    1.0061   -1.7847   -1.4785 C   0  0  0  0  0  0  0  0  0  0  0  0
   -0.3077   -1.4476   -1.0435 O   0  0  0  0  0  0  0  0  0  0  0  0
   -0.6610   -1.3120    0.3060 C   0  0  0  0  0  0  0  0  0  0  0  0
    0.1506   -1.6516    1.2112 O   0  0  0  0  0  0  0  0  0  0  0  0
   -2.0457   -0.8130    0.6862 C   0  0  0  0  0  0  0  0  0  0  0  0
   -1.9643   -0.0962    1.9014 O   0  0  0  0  0  0  0  0  0  0  0  0
   -2.6497    0.1219   -0.4248 C   0  0  0  0  0  0  0  0  0  0  0  0
   -4.1173    0.5190   -0.0992 C   0  0  0  0  0  0  0  0  0  0  0  0
   -4.5728    1.7131   -0.9434 C   0  0  0  0  0  0  0  0  0  0  0  0
   -3.7371    2.9744   -0.6498 C   0  0  0  0  0  0  0  0  0  0  0  0
   -2.3224    2.6632   -0.1268 C   0  0  0  0  0  0  0  0  0  0  0  0
   -1.7633    1.3712   -0.7364 C   0  0  0  0  0  0  0  0  0  0  0  0
   -2.9386   -2.0449    0.8782 C   0  0  0  0  0  0  0  0  0  0  0  0
   -3.6196   -2.2812    2.0934 C   0  0  0  0  0  0  0  0  0  0  0  0
   -4.4418   -3.4019    2.2437 C   0  0  0  0  0  0  0  0  0  0  0  0
   -4.6011   -4.3027    1.1903 C   0  0  0  0  0  0  0  0  0  0  0  0
   -3.9393   -4.0854   -0.0182 C   0  0  0  0  0  0  0  0  0  0  0  0
   -3.1161   -2.9674   -0.1766 C   0  0  0  0  0  0  0  0  0  0  0  0
    6.6964   -1.8608   -0.2057 H   0  0  0  0  0  0  0  0  0  0  0  0
    6.3798   -0.9533    1.3230 H   0  0  0  0  0  0  0  0  0  0  0  0
    5.0219   -1.7953    0.4706 H   0  0  0  0  0  0  0  0  0  0  0  0
    6.6468    0.5751   -0.6423 H   0  0  0  0  0  0  0  0  0  0  0  0
    5.3297   -0.2814   -1.4892 H   0  0  0  0  0  0  0  0  0  0  0  0
    6.1429    1.5607    1.6125 H   0  0  0  0  0  0  0  0  0  0  0  0
    4.5455    2.3307    1.7511 H   0  0  0  0  0  0  0  0  0  0  0  0
    6.4882    2.8263   -0.6174 H   0  0  0  0  0  0  0  0  0  0  0  0
    6.3222    3.8643    0.8400 H   0  0  0  0  0  0  0  0  0  0  0  0
    4.9356    3.6892   -0.2835 H   0  0  0  0  0  0  0  0  0  0  0  0
    3.9994    1.7501   -1.6138 H   0  0  0  0  0  0  0  0  0  0  0  0
    2.9986    2.1302   -0.1603 H   0  0  0  0  0  0  0  0  0  0  0  0
    0.9881   -1.9608   -2.5735 H   0  0  0  0  0  0  0  0  0  0  0  0
    1.3547   -2.7112   -0.9747 H   0  0  0  0  0  0  0  0  0  0  0  0
   -1.2436    0.5820    1.8260 H   0  0  0  0  0  0  0  0  0  0  0  0
   -2.6929   -0.4622   -1.3714 H   0  0  0  0  0  0  0  0  0  0  0  0
   -4.7921   -0.3409   -0.3031 H   0  0  0  0  0  0  0  0  0  0  0  0
   -4.2245    0.7813    0.9763 H   0  0  0  0  0  0  0  0  0  0  0  0
   -5.6455    1.9234   -0.7419 H   0  0  0  0  0  0  0  0  0  0  0  0
   -4.4801    1.4485   -2.0200 H   0  0  0  0  0  0  0  0  0  0  0  0
   -3.6609    3.5767   -1.5814 H   0  0  0  0  0  0  0  0  0  0  0  0
   -4.2635    3.5989    0.1046 H   0  0  0  0  0  0  0  0  0  0  0  0
   -1.6452    3.5111   -0.3675 H   0  0  0  0  0  0  0  0  0  0  0  0
   -2.3515    2.5651    0.9799 H   0  0  0  0  0  0  0  0  0  0  0  0
   -1.7071    1.5090   -1.8393 H   0  0  0  0  0  0  0  0  0  0  0  0
   -0.7169    1.2353   -0.3917 H   0  0  0  0  0  0  0  0  0  0  0  0
   -3.5281   -1.6026    2.9307 H   0  0  0  0  0  0  0  0  0  0  0  0
   -4.9585   -3.5706    3.1798 H   0  0  0  0  0  0  0  0  0  0  0  0
   -5.2388   -5.1689    1.3104 H   0  0  0  0  0  0  0  0  0  0  0  0
   -4.0644   -4.7842   -0.8352 H   0  0  0  0  0  0  0  0  0  0  0  0
   -2.6161   -2.8247   -1.1253 H   0  0  0  0  0  0  0  0  0  0  0  0
  1  2  1  0
  2  3  1  0
  3  4  1  0
  4  5  1  0
  3  6  1  0
  6  7  1  0
  7  8  3  0
  8  9  1  0
  9 10  1  0
 10 11  1  0
 11 12  2  0
 11 13  1  0
 13 14  1  0
 13 15  1  0
 15 16  1  0
 16 17  1  0
 17 18  1  0
 18 19  1  0
 19 20  1  0
 20 15  1  0
 13 21  1  0
 21 22  2  0
 22 23  1  0
 23 24  2  0
 24 25  1  0
 25 26  2  0
 26 21  1  0
  1 27  1  0
  1 28  1  0
  1 29  1  0
  2 30  1  0
  2 31  1  0
  4 32  1  0
  4 33  1  0
  5 34  1  0
  5 35  1  0
  5 36  1  0
  6 37  1  0
  6 38  1  0
  9 39  1  0
  9 40  1  0
 14 41  1  0
 15 42  1  0
 16 43  1  0
 16 44  1  0
 17 45  1  0
 17 46  1  0
 18 47  1  0
 18 48  1  0
 19 49  1  0
 19 50  1  0
 20 51  1  0
 20 52  1  0
 22 53  1  0
 23 54  1  0
 24 55  1  0
 25 56  1  0
 26 57  1  0
M  END
> <ID>
HT1565

> <Class>
0.0

> <Clusters>
187

> <Fold>
5

$$$$