
     RDKit          3D

 19 19  0  0  0  0  0  0  0  0999 V2000
    1.2159   -2.3176    0.5274 C   0  0  0  0  0  0  0  0  0  0  0  0
    0.8515   -1.1388    1.2345 O   0  0  0  0  0  0  0  0  0  0  0  0
    0.5367    0.0452    0.5622 C   0  0  0  0  0  0  0  0  0  0  0  0
    1.5227    1.0350    0.4305 C   0  0  0  0  0  0  0  0  0  0  0  0
    3.1219    0.8016    1.1207 Cl  0  0  0  0  0  0  0  0  0  0  0  0
    1.2458    2.2126   -0.2642 C   0  0  0  0  0  0  0  0  0  0  0  0
   -0.0151    2.4173   -0.8210 C   0  0  0  0  0  0  0  0  0  0  0  0
   -1.0173    1.4506   -0.6861 C   0  0  0  0  0  0  0  0  0  0  0  0
   -2.6051    1.8299   -1.3489 Cl  0  0  0  0  0  0  0  0  0  0  0  0
   -0.7527    0.2484    0.0132 C   0  0  0  0  0  0  0  0  0  0  0  0
   -1.8054   -0.7804    0.1906 C   0  0  0  0  0  0  0  0  0  0  0  0
   -1.8673   -1.4467    1.2590 O   0  0  0  0  0  0  0  0  0  0  0  0
   -2.7236   -1.0353   -0.8239 O   0  0  0  0  0  0  0  0  0  0  0  0
    2.1324   -2.1313   -0.0714 H   0  0  0  0  0  0  0  0  0  0  0  0
    1.4191   -3.1305    1.2541 H   0  0  0  0  0  0  0  0  0  0  0  0
    0.3921   -2.6339   -0.1462 H   0  0  0  0  0  0  0  0  0  0  0  0
    2.0082    2.9738   -0.3712 H   0  0  0  0  0  0  0  0  0  0  0  0
   -0.2184    3.3408   -1.3485 H   0  0  0  0  0  0  0  0  0  0  0  0
   -3.4415   -1.7409   -0.7108 H   0  0  0  0  0  0  0  0  0  0  0  0
  1  2  1  0
  2  3  1  0
  3  4  2  0
  4  5  1  0
  4  6  1  0
  6  7  2  0
  7  8  1  0
  8  9  1  0
  8 10  2  0
 10  3  1  0
 10 11  1  0
 11 12  2  0
 11 13  1  0
  1 14  1  0
  1 15  1  0
  1 16  1  0
  6 17  1  0
  7 18  1  0
 13 19  1  0
M  END
> <ID>
HT2953

> <Class>
0.0

> <Clusters>
75

> <Fold>
5

$$$$