
     RDKit          3D

 32 32  0  0  0  0  0  0  0  0999 V2000
   -6.1720   -0.3758    1.4304 Br  0  0  0  0  0  0  0  0  0  0  0  0
   -4.7104   -1.4001    0.6761 C   0  0  0  0  0  0  0  0  0  0  0  0
   -3.4916   -0.4991    0.4641 C   0  0  0  0  0  0  0  0  0  0  0  0
   -2.3142   -1.2270   -0.1438 C   0  0  0  0  0  0  0  0  0  0  0  0
   -2.3738   -2.4791   -0.2985 O   0  0  0  0  0  0  0  0  0  0  0  0
   -1.1241   -0.5195   -0.5627 N   0  0  0  0  0  0  0  0  0  0  0  0
   -0.9513    0.9219   -0.3187 C   0  0  0  0  0  0  0  0  0  0  0  0
    0.5107    1.2378    0.0183 C   0  0  0  0  0  0  0  0  0  0  0  0
    1.4439    0.6059   -0.9277 N   0  0  0  0  0  0  0  0  0  0  0  0
    0.9267   -0.3010   -1.9605 C   0  0  0  0  0  0  0  0  0  0  0  0
   -0.1224   -1.2439   -1.3625 C   0  0  0  0  0  0  0  0  0  0  0  0
    2.8413    0.9716   -0.9335 C   0  0  0  0  0  0  0  0  0  0  0  0
    3.5225    0.8198   -1.9844 O   0  0  0  0  0  0  0  0  0  0  0  0
    3.5414    1.4771    0.3019 C   0  0  0  0  0  0  0  0  0  0  0  0
    4.3085    0.3542    1.0008 C   0  0  0  0  0  0  0  0  0  0  0  0
    3.1089   -0.9774    1.7477 Br  0  0  0  0  0  0  0  0  0  0  0  0
   -5.0434   -1.8290   -0.2932 H   0  0  0  0  0  0  0  0  0  0  0  0
   -4.4612   -2.2255    1.3767 H   0  0  0  0  0  0  0  0  0  0  0  0
   -3.1886   -0.0792    1.4467 H   0  0  0  0  0  0  0  0  0  0  0  0
   -3.7826    0.3346   -0.2106 H   0  0  0  0  0  0  0  0  0  0  0  0
   -1.5736    1.2736    0.5287 H   0  0  0  0  0  0  0  0  0  0  0  0
   -1.2573    1.4840   -1.2273 H   0  0  0  0  0  0  0  0  0  0  0  0
    0.7251    0.8716    1.0449 H   0  0  0  0  0  0  0  0  0  0  0  0
    0.6453    2.3412   -0.0035 H   0  0  0  0  0  0  0  0  0  0  0  0
    1.7431   -0.9187   -2.3945 H   0  0  0  0  0  0  0  0  0  0  0  0
    0.4717    0.2980   -2.7789 H   0  0  0  0  0  0  0  0  0  0  0  0
    0.3858   -1.9913   -0.7151 H   0  0  0  0  0  0  0  0  0  0  0  0
   -0.6235   -1.7826   -2.1962 H   0  0  0  0  0  0  0  0  0  0  0  0
    2.8379    1.9476    1.0174 H   0  0  0  0  0  0  0  0  0  0  0  0
    4.2647    2.2657    0.0013 H   0  0  0  0  0  0  0  0  0  0  0  0
    5.0054   -0.1390    0.2897 H   0  0  0  0  0  0  0  0  0  0  0  0
    4.9069    0.7835    1.8318 H   0  0  0  0  0  0  0  0  0  0  0  0
  1  2  1  0
  2  3  1  0
  3  4  1  0
  4  5  2  0
  4  6  1  0
  6  7  1  0
  7  8  1  0
  8  9  1  0
  9 10  1  0
 10 11  1  0
 11  6  1  0
  9 12  1  0
 12 13  2  0
 12 14  1  0
 14 15  1  0
 15 16  1  0
  2 17  1  0
  2 18  1  0
  3 19  1  0
  3 20  1  0
  7 21  1  0
  7 22  1  0
  8 23  1  0
  8 24  1  0
 10 25  1  0
 10 26  1  0
 11 27  1  0
 11 28  1  0
 14 29  1  0
 14 30  1  0
 15 31  1  0
 15 32  1  0
M  END
> <ID>
HT1685

> <Class>
0.0

> <Clusters>
115

> <Fold>
5

$$$$