
     RDKit          3D

 25 25  0  0  0  0  0  0  0  0999 V2000
    4.7531   -0.3265    0.5854 C   0  0  0  0  0  0  0  0  0  0  0  0
    3.2835    0.0086    0.8221 C   0  0  0  0  0  0  0  0  0  0  0  0
    2.4111   -0.4755   -0.3337 C   0  0  0  0  0  0  0  0  0  0  0  0
    1.0518   -0.1427   -0.0715 O   0  0  0  0  0  0  0  0  0  0  0  0
    0.0118   -0.4581   -0.9526 C   0  0  0  0  0  0  0  0  0  0  0  0
    0.2607   -1.0626   -2.0324 O   0  0  0  0  0  0  0  0  0  0  0  0
   -1.3786   -0.0813   -0.6153 C   0  0  0  0  0  0  0  0  0  0  0  0
   -2.4388   -0.3893   -1.4880 C   0  0  0  0  0  0  0  0  0  0  0  0
   -3.7505   -0.0302   -1.1629 C   0  0  0  0  0  0  0  0  0  0  0  0
   -4.0204    0.6405    0.0366 C   0  0  0  0  0  0  0  0  0  0  0  0
   -5.3234    1.0030    0.3706 O   0  0  0  0  0  0  0  0  0  0  0  0
   -2.9726    0.9498    0.9084 C   0  0  0  0  0  0  0  0  0  0  0  0
   -1.6595    0.5924    0.5869 C   0  0  0  0  0  0  0  0  0  0  0  0
    5.1164    0.1651   -0.3422 H   0  0  0  0  0  0  0  0  0  0  0  0
    4.8887   -1.4255    0.4959 H   0  0  0  0  0  0  0  0  0  0  0  0
    5.3596    0.0376    1.4412 H   0  0  0  0  0  0  0  0  0  0  0  0
    2.9471   -0.4735    1.7656 H   0  0  0  0  0  0  0  0  0  0  0  0
    3.1737    1.1094    0.9315 H   0  0  0  0  0  0  0  0  0  0  0  0
    2.5080   -1.5784   -0.4400 H   0  0  0  0  0  0  0  0  0  0  0  0
    2.7359    0.0132   -1.2786 H   0  0  0  0  0  0  0  0  0  0  0  0
   -2.2556   -0.9072   -2.4212 H   0  0  0  0  0  0  0  0  0  0  0  0
   -4.5559   -0.2738   -1.8441 H   0  0  0  0  0  0  0  0  0  0  0  0
   -6.1043    0.7931   -0.2401 H   0  0  0  0  0  0  0  0  0  0  0  0
   -3.1759    1.4681    1.8369 H   0  0  0  0  0  0  0  0  0  0  0  0
   -0.8663    0.8439    1.2797 H   0  0  0  0  0  0  0  0  0  0  0  0
  1  2  1  0
  2  3  1  0
  3  4  1  0
  4  5  1  0
  5  6  2  0
  5  7  1  0
  7  8  2  0
  8  9  1  0
  9 10  2  0
 10 11  1  0
 10 12  1  0
 12 13  2  0
 13  7  1  0
  1 14  1  0
  1 15  1  0
  1 16  1  0
  2 17  1  0
  2 18  1  0
  3 19  1  0
  3 20  1  0
  8 21  1  0
  9 22  1  0
 11 23  1  0
 12 24  1  0
 13 25  1  0
M  END
> <ID>
HT2774

> <Class>
0.0

> <Clusters>
204

> <Fold>
5

$$$$