
     RDKit          3D

 16 15  0  0  0  0  0  0  0  0999 V2000
    1.7258   -1.8321   -0.6853 O   0  0  0  0  0  0  0  0  0  0  0  0
    1.5250   -0.7591    0.1777 C   0  0  0  0  0  0  0  0  0  0  0  0
    1.9017   -0.8459    1.3779 O   0  0  0  0  0  0  0  0  0  0  0  0
    0.8601    0.4935   -0.3302 C   0  0  2  0  0  0  0  0  0  0  0  0
    1.8104    1.9580    0.2121 S   0  0  0  0  0  0  0  0  0  0  0  0
   -0.6308    0.6173    0.0857 C   0  0  2  0  0  0  0  0  0  0  0  0
   -0.8545    0.5978    1.9037 S   0  0  0  0  0  0  0  0  0  0  0  0
   -1.5342   -0.4108   -0.5553 C   0  0  0  0  0  0  0  0  0  0  0  0
   -1.0650   -1.3373   -1.2680 O   0  0  0  0  0  0  0  0  0  0  0  0
   -2.9131   -0.3314   -0.3792 O   0  0  0  0  0  0  0  0  0  0  0  0
    2.1689   -2.6836   -0.3616 H   0  0  0  0  0  0  0  0  0  0  0  0
    0.9119    0.4828   -1.4412 H   0  0  0  0  0  0  0  0  0  0  0  0
    1.1265    2.8308   -0.6560 H   0  0  0  0  0  0  0  0  0  0  0  0
   -0.9897    1.6078   -0.2671 H   0  0  0  0  0  0  0  0  0  0  0  0
   -0.7118   -0.7986    2.0180 H   0  0  0  0  0  0  0  0  0  0  0  0
   -3.3312    0.4109    0.1687 H   0  0  0  0  0  0  0  0  0  0  0  0
  1  2  1  0
  2  3  2  0
  2  4  1  0
  4  5  1  0
  4  6  1  0
  6  7  1  0
  6  8  1  0
  8  9  2  0
  8 10  1  0
  1 11  1  0
  4 12  1  6
  5 13  1  0
  6 14  1  6
  7 15  1  0
 10 16  1  0
M  END
> <ID>
HT1923

> <Class>
0.0

> <Clusters>
5

> <Fold>
5

$$$$