
     RDKit          3D

 82 87  0  0  0  0  0  0  0  0999 V2000
   -6.8250   -4.3744   -1.4875 C   0  0  0  0  0  0  0  0  0  0  0  0
   -5.6088   -3.8270   -0.9878 O   0  0  0  0  0  0  0  0  0  0  0  0
   -4.5288   -4.5843   -0.5017 C   0  0  0  0  0  0  0  0  0  0  0  0
   -4.6035   -5.9873   -0.4244 C   0  0  0  0  0  0  0  0  0  0  0  0
   -3.5212   -6.7281    0.0503 C   0  0  0  0  0  0  0  0  0  0  0  0
   -2.3539   -6.0856    0.4500 C   0  0  0  0  0  0  0  0  0  0  0  0
   -2.2503   -4.6894    0.3740 C   0  0  0  0  0  0  0  0  0  0  0  0
   -1.0067   -4.0075    0.7874 C   0  0  0  0  0  0  0  0  0  0  0  0
   -0.2078   -4.5970    1.5619 O   0  0  0  0  0  0  0  0  0  0  0  0
   -0.7534   -2.6059    0.3620 C   0  0  0  0  0  0  0  0  0  0  0  0
    0.5447   -2.0482    0.3405 C   0  0  0  0  0  0  0  0  0  0  0  0
    1.6822   -2.8408    0.5360 O   0  0  0  0  0  0  0  0  0  0  0  0
    0.7293   -0.6745    0.0839 C   0  0  0  0  0  0  0  0  0  0  0  0
    2.1472   -0.1364    0.0574 C   0  0  0  0  0  0  0  0  0  0  0  0
    2.3229    1.2190   -0.6763 C   0  0  0  0  0  0  0  0  0  0  0  0
    2.1930    1.0533   -2.0701 O   0  0  0  0  0  0  0  0  0  0  0  0
    1.2213    2.1681   -0.1354 C   0  0  0  0  0  0  0  0  0  0  0  0
   -0.2380    1.6671   -0.2677 C   0  0  0  0  0  0  0  0  0  0  0  0
   -1.0298    2.2464    0.7596 O   0  0  0  0  0  0  0  0  0  0  0  0
   -1.3426    3.6092    0.5231 C   0  0  0  0  0  0  0  0  0  0  0  0
   -1.2473    4.3390    1.8735 C   0  0  0  0  0  0  0  0  0  0  0  0
   -1.7171    5.8007    1.7721 C   0  0  0  0  0  0  0  0  0  0  0  0
   -0.6885    6.6566    1.1720 N   0  0  0  0  0  0  0  0  0  0  0  0
   -3.0510    5.8888    0.9973 C   0  0  0  0  0  0  0  0  0  0  0  0
   -3.3403    7.2253    0.6791 O   0  0  0  0  0  0  0  0  0  0  0  0
   -2.9989    5.0350   -0.2897 C   0  0  0  0  0  0  0  0  0  0  0  0
   -4.3573    5.0355   -0.9976 C   0  0  0  0  0  0  0  0  0  0  0  0
   -2.6638    3.6940    0.0208 O   0  0  0  0  0  0  0  0  0  0  0  0
   -0.3863    0.1572   -0.1505 C   0  0  0  0  0  0  0  0  0  0  0  0
   -1.6722   -0.4323   -0.2771 C   0  0  0  0  0  0  0  0  0  0  0  0
   -2.7824    0.3324   -0.6578 O   0  0  0  0  0  0  0  0  0  0  0  0
   -1.8575   -1.8096   -0.0173 C   0  0  0  0  0  0  0  0  0  0  0  0
   -3.2049   -2.4475   -0.1336 C   0  0  0  0  0  0  0  0  0  0  0  0
   -4.2363   -1.7309   -0.2591 O   0  0  0  0  0  0  0  0  0  0  0  0
   -3.3395   -3.9289   -0.0898 C   0  0  0  0  0  0  0  0  0  0  0  0
    3.7125    1.8666   -0.4258 C   0  0  0  0  0  0  0  0  0  0  0  0
    4.8257    1.2101   -0.2404 N   0  0  0  0  0  0  0  0  0  0  0  0
    5.0300   -0.1700   -0.3830 N   0  0  0  0  0  0  0  0  0  0  0  0
    5.9244   -0.8395    0.5138 C   0  0  0  0  0  0  0  0  0  0  0  0
    6.6239   -0.1448    1.3013 O   0  0  0  0  0  0  0  0  0  0  0  0
    6.0383   -2.3209    0.5570 C   0  0  0  0  0  0  0  0  0  0  0  0
    7.0624   -2.9207    1.3171 C   0  0  0  0  0  0  0  0  0  0  0  0
    7.1710   -4.3102    1.3934 C   0  0  0  0  0  0  0  0  0  0  0  0
    6.2565   -5.1257    0.7227 C   0  0  0  0  0  0  0  0  0  0  0  0
    5.2288   -4.5493   -0.0247 C   0  0  0  0  0  0  0  0  0  0  0  0
    5.1163   -3.1553   -0.1074 C   0  0  0  0  0  0  0  0  0  0  0  0
    3.8569    3.3684   -0.4264 C   0  0  0  0  0  0  0  0  0  0  0  0
   -7.3432   -4.9453   -0.6918 H   0  0  0  0  0  0  0  0  0  0  0  0
   -7.4858   -3.5472   -1.8133 H   0  0  0  0  0  0  0  0  0  0  0  0
   -6.6201   -5.0314   -2.3586 H   0  0  0  0  0  0  0  0  0  0  0  0
   -5.4924   -6.5222   -0.7257 H   0  0  0  0  0  0  0  0  0  0  0  0
   -3.5914   -7.8065    0.1029 H   0  0  0  0  0  0  0  0  0  0  0  0
   -1.5228   -6.6849    0.8117 H   0  0  0  0  0  0  0  0  0  0  0  0
    1.6930   -3.8472    0.4377 H   0  0  0  0  0  0  0  0  0  0  0  0
    2.5216   -0.0587    1.1034 H   0  0  0  0  0  0  0  0  0  0  0  0
    2.7336   -0.8936   -0.4840 H   0  0  0  0  0  0  0  0  0  0  0  0
    1.3030    0.6695   -2.2632 H   0  0  0  0  0  0  0  0  0  0  0  0
    1.4294    2.3697    0.9411 H   0  0  0  0  0  0  0  0  0  0  0  0
    1.2844    3.1322   -0.6745 H   0  0  0  0  0  0  0  0  0  0  0  0
   -0.6099    1.9623   -1.2762 H   0  0  0  0  0  0  0  0  0  0  0  0
   -0.6329    4.0880   -0.1888 H   0  0  0  0  0  0  0  0  0  0  0  0
   -1.8918    3.8094    2.6126 H   0  0  0  0  0  0  0  0  0  0  0  0
   -0.2031    4.2959    2.2545 H   0  0  0  0  0  0  0  0  0  0  0  0
   -1.9019    6.1685    2.8046 H   0  0  0  0  0  0  0  0  0  0  0  0
   -0.4121    6.2977    0.2348 H   0  0  0  0  0  0  0  0  0  0  0  0
    0.1595    6.6312    1.7832 H   0  0  0  0  0  0  0  0  0  0  0  0
   -3.8599    5.4781    1.6468 H   0  0  0  0  0  0  0  0  0  0  0  0
   -3.6851    7.6503    1.5070 H   0  0  0  0  0  0  0  0  0  0  0  0
   -2.2650    5.4692   -1.0065 H   0  0  0  0  0  0  0  0  0  0  0  0
   -5.1401    4.6051   -0.3362 H   0  0  0  0  0  0  0  0  0  0  0  0
   -4.6444    6.0678   -1.2908 H   0  0  0  0  0  0  0  0  0  0  0  0
   -4.2968    4.4174   -1.9173 H   0  0  0  0  0  0  0  0  0  0  0  0
   -2.7410    1.3058   -0.9203 H   0  0  0  0  0  0  0  0  0  0  0  0
    4.7147   -0.6429   -1.2583 H   0  0  0  0  0  0  0  0  0  0  0  0
    7.7830   -2.3144    1.8544 H   0  0  0  0  0  0  0  0  0  0  0  0
    7.9709   -4.7567    1.9704 H   0  0  0  0  0  0  0  0  0  0  0  0
    6.3433   -6.2028    0.7913 H   0  0  0  0  0  0  0  0  0  0  0  0
    4.5161   -5.1822   -0.5390 H   0  0  0  0  0  0  0  0  0  0  0  0
    4.2980   -2.7482   -0.6809 H   0  0  0  0  0  0  0  0  0  0  0  0
    4.9253    3.6685   -0.4060 H   0  0  0  0  0  0  0  0  0  0  0  0
    3.4199    3.7884   -1.3558 H   0  0  0  0  0  0  0  0  0  0  0  0
    3.3697    3.8079    0.4666 H   0  0  0  0  0  0  0  0  0  0  0  0
  1  2  1  0
  2  3  1  0
  3  4  2  0
  4  5  1  0
  5  6  2  0
  6  7  1  0
  7  8  1  0
  8  9  2  0
  8 10  1  0
 10 11  2  0
 11 12  1  0
 11 13  1  0
 13 14  1  0
 14 15  1  0
 15 16  1  0
 15 17  1  0
 17 18  1  0
 18 19  1  0
 19 20  1  0
 20 21  1  0
 21 22  1  0
 22 23  1  0
 22 24  1  0
 24 25  1  0
 24 26  1  0
 26 27  1  0
 26 28  1  0
 28 20  1  0
 18 29  1  0
 29 13  2  0
 29 30  1  0
 30 31  1  0
 30 32  2  0
 32 10  1  0
 32 33  1  0
 33 34  2  0
 33 35  1  0
 35  3  1  0
 35  7  2  0
 15 36  1  0
 36 37  2  3
 37 38  1  0
 38 39  1  0
 39 40  2  0
 39 41  1  0
 41 42  2  0
 42 43  1  0
 43 44  2  0
 44 45  1  0
 45 46  2  0
 46 41  1  0
 36 47  1  0
  1 48  1  0
  1 49  1  0
  1 50  1  0
  4 51  1  0
  5 52  1  0
  6 53  1  0
 12 54  1  0
 14 55  1  0
 14 56  1  0
 16 57  1  0
 17 58  1  0
 17 59  1  0
 18 60  1  0
 20 61  1  0
 21 62  1  0
 21 63  1  0
 22 64  1  0
 23 65  1  0
 23 66  1  0
 24 67  1  0
 25 68  1  0
 26 69  1  0
 27 70  1  0
 27 71  1  0
 27 72  1  0
 31 73  1  0
 38 74  1  0
 42 75  1  0
 43 76  1  0
 44 77  1  0
 45 78  1  0
 46 79  1  0
 47 80  1  0
 47 81  1  0
 47 82  1  0
M  END
> <ID>
HT3975

> <Class>
0.0

> <Clusters>
86

> <Fold>
5

$$$$