
     RDKit          3D

 51 55  0  0  0  0  0  0  0  0999 V2000
    0.4674    2.4746   -0.5259 O   0  0  0  0  0  0  0  0  0  0  0  0
    0.3695    1.2472   -0.2586 C   0  0  0  0  0  0  0  0  0  0  0  0
    1.1736    0.5912    0.7328 N   0  0  0  0  0  0  0  0  0  0  0  0
    2.4268    1.1104    1.2790 C   0  0  0  0  0  0  0  0  0  0  0  0
    3.5665    0.8766    0.3219 C   0  0  0  0  0  0  0  0  0  0  0  0
    3.7676    1.7403   -0.7675 C   0  0  0  0  0  0  0  0  0  0  0  0
    4.8109    1.5068   -1.6688 C   0  0  0  0  0  0  0  0  0  0  0  0
    5.6590    0.4106   -1.4901 C   0  0  0  0  0  0  0  0  0  0  0  0
    5.4659   -0.4533   -0.4089 C   0  0  0  0  0  0  0  0  0  0  0  0
    4.4243   -0.2230    0.4950 C   0  0  0  0  0  0  0  0  0  0  0  0
    0.9218   -0.8049    0.4192 C   0  0  0  0  0  0  0  0  0  0  0  0
    1.0013   -1.8877    1.4700 C   0  0  0  0  0  0  0  0  0  0  0  0
    0.1375   -3.2023    0.6002 S   0  0  0  0  0  0  0  0  0  0  0  0
   -1.2561   -3.8304    1.4929 C   0  0  0  0  0  0  0  0  0  0  0  0
   -2.4918   -3.1468    0.9054 C   0  0  0  0  0  0  0  0  0  0  0  0
   -2.1876   -2.6995   -0.5334 C   0  0  0  0  0  0  0  0  0  0  0  0
   -0.7349   -2.2204   -0.6117 C   0  0  0  0  0  0  0  0  0  0  0  0
   -0.5153   -0.8098   -0.0601 C   0  0  0  0  0  0  0  0  0  0  0  0
   -0.5675    0.3728   -0.9072 N   0  0  0  0  0  0  0  0  0  0  0  0
   -1.7061    0.8136   -1.7130 C   0  0  0  0  0  0  0  0  0  0  0  0
   -2.6310    1.6945   -0.9109 C   0  0  0  0  0  0  0  0  0  0  0  0
   -2.6801    3.0785   -1.1532 C   0  0  0  0  0  0  0  0  0  0  0  0
   -3.5290    3.8969   -0.4017 C   0  0  0  0  0  0  0  0  0  0  0  0
   -4.3365    3.3418    0.5941 C   0  0  0  0  0  0  0  0  0  0  0  0
   -4.2975    1.9668    0.8390 C   0  0  0  0  0  0  0  0  0  0  0  0
   -3.4501    1.1449    0.0900 C   0  0  0  0  0  0  0  0  0  0  0  0
    2.3253    2.1957    1.4956 H   0  0  0  0  0  0  0  0  0  0  0  0
    2.6294    0.6064    2.2486 H   0  0  0  0  0  0  0  0  0  0  0  0
    3.1212    2.5952   -0.9175 H   0  0  0  0  0  0  0  0  0  0  0  0
    4.9617    2.1758   -2.5061 H   0  0  0  0  0  0  0  0  0  0  0  0
    6.4654    0.2308   -2.1892 H   0  0  0  0  0  0  0  0  0  0  0  0
    6.1224   -1.3029   -0.2721 H   0  0  0  0  0  0  0  0  0  0  0  0
    4.2837   -0.9046    1.3245 H   0  0  0  0  0  0  0  0  0  0  0  0
    1.6071   -1.0905   -0.4196 H   0  0  0  0  0  0  0  0  0  0  0  0
    2.0523   -2.1727    1.6833 H   0  0  0  0  0  0  0  0  0  0  0  0
    0.4643   -1.5981    2.3988 H   0  0  0  0  0  0  0  0  0  0  0  0
   -1.3164   -4.9275    1.3318 H   0  0  0  0  0  0  0  0  0  0  0  0
   -1.1582   -3.6184    2.5785 H   0  0  0  0  0  0  0  0  0  0  0  0
   -3.3635   -3.8359    0.9211 H   0  0  0  0  0  0  0  0  0  0  0  0
   -2.7476   -2.2577    1.5215 H   0  0  0  0  0  0  0  0  0  0  0  0
   -2.3070   -3.5745   -1.2091 H   0  0  0  0  0  0  0  0  0  0  0  0
   -2.9020   -1.9189   -0.8623 H   0  0  0  0  0  0  0  0  0  0  0  0
   -0.3012   -2.3411   -1.6280 H   0  0  0  0  0  0  0  0  0  0  0  0
   -1.1925   -0.6358    0.8103 H   0  0  0  0  0  0  0  0  0  0  0  0
   -1.3171    1.3625   -2.5975 H   0  0  0  0  0  0  0  0  0  0  0  0
   -2.2618   -0.0618   -2.1063 H   0  0  0  0  0  0  0  0  0  0  0  0
   -2.0573    3.5256   -1.9180 H   0  0  0  0  0  0  0  0  0  0  0  0
   -3.5598    4.9621   -0.5909 H   0  0  0  0  0  0  0  0  0  0  0  0
   -4.9929    3.9766    1.1751 H   0  0  0  0  0  0  0  0  0  0  0  0
   -4.9252    1.5372    1.6090 H   0  0  0  0  0  0  0  0  0  0  0  0
   -3.4388    0.0831    0.2902 H   0  0  0  0  0  0  0  0  0  0  0  0
  1  2  2  0
  2  3  1  0
  3  4  1  0
  4  5  1  0
  5  6  2  0
  6  7  1  0
  7  8  2  0
  8  9  1  0
  9 10  2  0
 10  5  1  0
  3 11  1  0
 11 12  1  0
 12 13  1  0
 13 14  1  0
 14 15  1  0
 15 16  1  0
 16 17  1  0
 17 13  1  0
 17 18  1  0
 18 11  1  0
 18 19  1  0
 19  2  1  0
 19 20  1  0
 20 21  1  0
 21 22  2  0
 22 23  1  0
 23 24  2  0
 24 25  1  0
 25 26  2  0
 26 21  1  0
  4 27  1  0
  4 28  1  0
  6 29  1  0
  7 30  1  0
  8 31  1  0
  9 32  1  0
 10 33  1  0
 11 34  1  0
 12 35  1  0
 12 36  1  0
 14 37  1  0
 14 38  1  0
 15 39  1  0
 15 40  1  0
 16 41  1  0
 16 42  1  0
 17 43  1  0
 18 44  1  0
 20 45  1  0
 20 46  1  0
 22 47  1  0
 23 48  1  0
 24 49  1  0
 25 50  1  0
 26 51  1  0
M  CHG  1  13   1
M  END
> <ID>
HT2125

> <Class>
0.0

> <Clusters>
31

> <Fold>
5

$$$$