
     RDKit          3D

 45 46  0  0  0  0  0  0  0  0999 V2000
   -5.3326   -0.9303    0.6580 C   0  0  0  0  0  0  0  0  0  0  0  0
   -4.5089    0.3351    0.3262 C   0  0  0  0  0  0  0  0  0  0  0  0
   -4.6105    1.3544    1.4825 C   0  0  0  0  0  0  0  0  0  0  0  0
   -5.1106    0.9925   -0.9343 C   0  0  0  0  0  0  0  0  0  0  0  0
   -3.0879    0.0114    0.0421 N   0  0  0  0  0  0  0  0  0  0  0  0
   -2.4078   -0.7972    1.0712 C   0  0  0  0  0  0  0  0  0  0  0  0
   -0.8806   -0.6360    0.9677 C   0  0  0  0  0  0  0  0  0  0  0  0
   -0.5362    0.7220    1.0536 O   0  0  0  0  0  0  0  0  0  0  0  0
   -0.3289   -1.2392   -0.3350 C   0  0  0  0  0  0  0  0  0  0  0  0
    1.0991   -1.2847   -0.3094 O   0  0  0  0  0  0  0  0  0  0  0  0
    1.9730   -0.2144   -0.5759 C   0  0  0  0  0  0  0  0  0  0  0  0
    1.5238    1.0019   -1.1236 C   0  0  0  0  0  0  0  0  0  0  0  0
    2.4202    2.0401   -1.3643 C   0  0  0  0  0  0  0  0  0  0  0  0
    3.7760    1.8730   -1.0938 C   0  0  0  0  0  0  0  0  0  0  0  0
    4.2595    0.6679   -0.5611 C   0  0  0  0  0  0  0  0  0  0  0  0
    5.7665    0.5092   -0.4810 C   0  0  0  0  0  0  0  0  0  0  0  0
    6.2758   -0.7884    0.1564 C   0  0  0  0  0  0  0  0  0  0  0  0
    5.4629   -1.9955   -0.2899 C   0  0  0  0  0  0  0  0  0  0  0  0
    3.8504   -1.9088    0.5277 S   0  0  0  0  0  0  0  0  0  0  0  0
    3.3417   -0.3786   -0.2837 C   0  0  0  0  0  0  0  0  0  0  0  0
   -6.4121   -0.6811    0.7477 H   0  0  0  0  0  0  0  0  0  0  0  0
   -5.0127   -1.3783    1.6222 H   0  0  0  0  0  0  0  0  0  0  0  0
   -5.2125   -1.6913   -0.1427 H   0  0  0  0  0  0  0  0  0  0  0  0
   -4.3675    0.8972    2.4629 H   0  0  0  0  0  0  0  0  0  0  0  0
   -3.9178    2.2054    1.3072 H   0  0  0  0  0  0  0  0  0  0  0  0
   -5.6445    1.7543    1.5636 H   0  0  0  0  0  0  0  0  0  0  0  0
   -6.1680    1.2910   -0.7647 H   0  0  0  0  0  0  0  0  0  0  0  0
   -4.5296    1.8985   -1.2119 H   0  0  0  0  0  0  0  0  0  0  0  0
   -5.0862    0.2884   -1.7940 H   0  0  0  0  0  0  0  0  0  0  0  0
   -3.0402   -0.5269   -0.8556 H   0  0  0  0  0  0  0  0  0  0  0  0
   -2.6781   -1.8715    0.9606 H   0  0  0  0  0  0  0  0  0  0  0  0
   -2.7025   -0.4854    2.0928 H   0  0  0  0  0  0  0  0  0  0  0  0
   -0.4160   -1.1929    1.8152 H   0  0  0  0  0  0  0  0  0  0  0  0
   -0.6452    0.9872    2.0042 H   0  0  0  0  0  0  0  0  0  0  0  0
   -0.6912   -2.2860   -0.4180 H   0  0  0  0  0  0  0  0  0  0  0  0
   -0.6953   -0.7045   -1.2350 H   0  0  0  0  0  0  0  0  0  0  0  0
    0.4845    1.1635   -1.3670 H   0  0  0  0  0  0  0  0  0  0  0  0
    2.0654    2.9726   -1.7844 H   0  0  0  0  0  0  0  0  0  0  0  0
    4.4600    2.6795   -1.3295 H   0  0  0  0  0  0  0  0  0  0  0  0
    6.1671    0.5615   -1.5173 H   0  0  0  0  0  0  0  0  0  0  0  0
    6.1950    1.3679    0.0803 H   0  0  0  0  0  0  0  0  0  0  0  0
    6.2447   -0.6998    1.2650 H   0  0  0  0  0  0  0  0  0  0  0  0
    7.3385   -0.9378   -0.1335 H   0  0  0  0  0  0  0  0  0  0  0  0
    5.9733   -2.9263    0.0351 H   0  0  0  0  0  0  0  0  0  0  0  0
    5.3459   -2.0196   -1.3953 H   0  0  0  0  0  0  0  0  0  0  0  0
  1  2  1  0
  2  3  1  0
  2  4  1  0
  2  5  1  0
  5  6  1  0
  6  7  1  0
  7  8  1  0
  7  9  1  0
  9 10  1  0
 10 11  1  0
 11 12  2  0
 12 13  1  0
 13 14  2  0
 14 15  1  0
 15 16  1  0
 16 17  1  0
 17 18  1  0
 18 19  1  0
 19 20  1  0
 20 11  1  0
 20 15  2  0
  1 21  1  0
  1 22  1  0
  1 23  1  0
  3 24  1  0
  3 25  1  0
  3 26  1  0
  4 27  1  0
  4 28  1  0
  4 29  1  0
  5 30  1  0
  6 31  1  0
  6 32  1  0
  7 33  1  0
  8 34  1  0
  9 35  1  0
  9 36  1  0
 12 37  1  0
 13 38  1  0
 14 39  1  0
 16 40  1  0
 16 41  1  0
 17 42  1  0
 17 43  1  0
 18 44  1  0
 18 45  1  0
M  END
> <ID>
HT2015

> <Class>
0.0

> <Clusters>
145

> <Fold>
5

$$$$