
     RDKit          3D

 31 32  0  0  0  0  0  0  0  0999 V2000
    4.1421    0.8534    0.4365 C   0  0  0  0  0  0  0  0  0  0  0  0
    2.8475    0.2860   -0.1503 C   0  0  0  0  0  0  0  0  0  0  0  0
    3.1398   -0.4760   -1.2928 O   0  0  0  0  0  0  0  0  0  0  0  0
    2.1332   -0.5999    0.8803 C   0  0  0  0  0  0  0  0  0  0  0  0
    0.8534   -1.0769    0.3526 N   0  0  0  0  0  0  0  0  0  0  0  0
    0.5980   -2.3155   -0.1375 C   0  0  0  0  0  0  0  0  0  0  0  0
   -0.6800   -2.4683   -0.5697 N   0  0  0  0  0  0  0  0  0  0  0  0
   -1.2261   -1.2603   -0.3254 C   0  0  0  0  0  0  0  0  0  0  0  0
   -2.5137   -0.8864   -0.5575 N   0  0  0  0  0  0  0  0  0  0  0  0
   -3.4677   -1.8140   -1.1804 C   0  0  0  0  0  0  0  0  0  0  0  0
   -2.8781    0.4058   -0.2466 C   0  0  0  0  0  0  0  0  0  0  0  0
   -4.0623    0.7878   -0.4678 O   0  0  0  0  0  0  0  0  0  0  0  0
   -1.9634    1.2863    0.3073 N   0  0  0  0  0  0  0  0  0  0  0  0
   -2.3875    2.6479    0.6750 C   0  0  0  0  0  0  0  0  0  0  0  0
   -0.6789    0.8723    0.5787 C   0  0  0  0  0  0  0  0  0  0  0  0
    0.1491    1.6417    1.1386 O   0  0  0  0  0  0  0  0  0  0  0  0
   -0.3169   -0.4235    0.2271 C   0  0  0  0  0  0  0  0  0  0  0  0
    4.8358    0.0312    0.7147 H   0  0  0  0  0  0  0  0  0  0  0  0
    4.6423    1.5043   -0.3115 H   0  0  0  0  0  0  0  0  0  0  0  0
    3.9207    1.4637    1.3381 H   0  0  0  0  0  0  0  0  0  0  0  0
    2.1805    1.1356   -0.4225 H   0  0  0  0  0  0  0  0  0  0  0  0
    3.3197    0.1664   -2.0284 H   0  0  0  0  0  0  0  0  0  0  0  0
    1.9616   -0.0455    1.8279 H   0  0  0  0  0  0  0  0  0  0  0  0
    2.7825   -1.4701    1.1241 H   0  0  0  0  0  0  0  0  0  0  0  0
    1.3370   -3.1048   -0.1879 H   0  0  0  0  0  0  0  0  0  0  0  0
   -4.4731   -1.7071   -0.7198 H   0  0  0  0  0  0  0  0  0  0  0  0
   -3.1577   -2.8715   -1.0408 H   0  0  0  0  0  0  0  0  0  0  0  0
   -3.5385   -1.5997   -2.2675 H   0  0  0  0  0  0  0  0  0  0  0  0
   -2.8192    2.6393    1.6979 H   0  0  0  0  0  0  0  0  0  0  0  0
   -1.5354    3.3601    0.6455 H   0  0  0  0  0  0  0  0  0  0  0  0
   -3.1448    3.0378   -0.0381 H   0  0  0  0  0  0  0  0  0  0  0  0
  1  2  1  0
  2  3  1  0
  2  4  1  0
  4  5  1  0
  5  6  1  0
  6  7  2  0
  7  8  1  0
  8  9  1  0
  9 10  1  0
  9 11  1  0
 11 12  2  0
 11 13  1  0
 13 14  1  0
 13 15  1  0
 15 16  2  0
 15 17  1  0
 17  5  1  0
 17  8  2  0
  1 18  1  0
  1 19  1  0
  1 20  1  0
  2 21  1  0
  3 22  1  0
  4 23  1  0
  4 24  1  0
  6 25  1  0
 10 26  1  0
 10 27  1  0
 10 28  1  0
 14 29  1  0
 14 30  1  0
 14 31  1  0
M  END
> <ID>
HT3040

> <Class>
0.0

> <Clusters>
259

> <Fold>
5

$$$$