
     RDKit          3D

 45 47  0  0  0  0  0  0  0  0999 V2000
   -0.0661    3.0064    1.2530 C   0  0  0  0  0  0  0  0  0  0  0  0
   -0.5959    2.4336    0.0752 O   0  0  0  0  0  0  0  0  0  0  0  0
   -0.2114    1.0722   -0.0586 C   0  0  0  0  0  0  0  0  0  0  0  0
    1.2167    0.9188   -0.3938 N   0  0  0  0  0  0  0  0  0  0  0  0
    1.9441   -0.3250   -0.3794 C   0  0  0  0  0  0  0  0  0  0  0  0
    1.3418   -1.4141   -0.1734 O   0  0  0  0  0  0  0  0  0  0  0  0
    3.4335   -0.3313   -0.6217 C   0  0  0  0  0  0  0  0  0  0  0  0
    3.7751   -1.0685   -1.8919 C   0  0  0  0  0  0  0  0  0  0  0  0
    3.4067   -2.2628   -2.0563 O   0  0  0  0  0  0  0  0  0  0  0  0
    4.5069   -0.4433   -2.8988 O   0  0  0  0  0  0  0  0  0  0  0  0
    4.1751   -0.9047    0.5632 C   0  0  0  0  0  0  0  0  0  0  0  0
    5.0446   -0.1376    1.3576 C   0  0  0  0  0  0  0  0  0  0  0  0
    5.6156   -0.8448    2.4049 C   0  0  0  0  0  0  0  0  0  0  0  0
    5.0395   -2.4213    2.3466 S   0  0  0  0  0  0  0  0  0  0  0  0
    4.0621   -2.2269    0.9953 C   0  0  0  0  0  0  0  0  0  0  0  0
   -1.0843    0.3356   -0.9521 C   0  0  0  0  0  0  0  0  0  0  0  0
   -2.5288    1.1951   -1.6645 S   0  0  0  0  0  0  0  0  0  0  0  0
   -3.6457   -0.1939   -1.1519 C   0  0  0  0  0  0  0  0  0  0  0  0
   -5.0782    0.3472   -0.9755 C   0  0  0  0  0  0  0  0  0  0  0  0
   -3.6534   -1.2336   -2.2896 C   0  0  0  0  0  0  0  0  0  0  0  0
   -3.0386   -0.8377    0.1415 C   0  0  0  0  0  0  0  0  0  0  0  0
   -1.6420   -0.4642    0.0988 N   0  0  0  0  0  0  0  0  0  0  0  0
   -0.6964    0.1729    1.0489 C   0  0  0  0  0  0  0  0  0  0  0  0
   -0.4450    0.0431    2.2757 O   0  0  0  0  0  0  0  0  0  0  0  0
   -3.6560   -0.3486    1.4283 C   0  0  0  0  0  0  0  0  0  0  0  0
   -4.2570   -1.1578    2.1843 O   0  0  0  0  0  0  0  0  0  0  0  0
   -3.5549    0.9927    1.7906 O   0  0  0  0  0  0  0  0  0  0  0  0
   -0.6718    2.7058    2.1330 H   0  0  0  0  0  0  0  0  0  0  0  0
    1.0038    2.7499    1.4171 H   0  0  0  0  0  0  0  0  0  0  0  0
   -0.1317    4.1098    1.1674 H   0  0  0  0  0  0  0  0  0  0  0  0
    1.7293    1.7788   -0.6936 H   0  0  0  0  0  0  0  0  0  0  0  0
    3.7644    0.7221   -0.7475 H   0  0  0  0  0  0  0  0  0  0  0  0
    4.8270    0.5140   -2.8067 H   0  0  0  0  0  0  0  0  0  0  0  0
    5.2522    0.9093    1.1782 H   0  0  0  0  0  0  0  0  0  0  0  0
    6.3076   -0.4457    3.1339 H   0  0  0  0  0  0  0  0  0  0  0  0
    3.4506   -2.9982    0.5477 H   0  0  0  0  0  0  0  0  0  0  0  0
   -0.5674   -0.3010   -1.7044 H   0  0  0  0  0  0  0  0  0  0  0  0
   -5.4817    0.7047   -1.9470 H   0  0  0  0  0  0  0  0  0  0  0  0
   -5.0966    1.2084   -0.2768 H   0  0  0  0  0  0  0  0  0  0  0  0
   -5.7487   -0.4489   -0.5868 H   0  0  0  0  0  0  0  0  0  0  0  0
   -2.6359   -1.6483   -2.4520 H   0  0  0  0  0  0  0  0  0  0  0  0
   -4.3378   -2.0745   -2.0444 H   0  0  0  0  0  0  0  0  0  0  0  0
   -3.9930   -0.7706   -3.2412 H   0  0  0  0  0  0  0  0  0  0  0  0
   -3.1162   -1.9472    0.1082 H   0  0  0  0  0  0  0  0  0  0  0  0
   -3.9622    1.3304    2.6549 H   0  0  0  0  0  0  0  0  0  0  0  0
  1  2  1  0
  2  3  1  0
  3  4  1  0
  4  5  1  0
  5  6  2  0
  5  7  1  0
  7  8  1  0
  8  9  2  0
  8 10  1  0
  7 11  1  0
 11 12  1  0
 12 13  2  0
 13 14  1  0
 14 15  1  0
 15 11  2  0
  3 16  1  0
 16 17  1  0
 17 18  1  0
 18 19  1  0
 18 20  1  0
 18 21  1  0
 21 22  1  0
 22 16  1  0
 22 23  1  0
 23  3  1  0
 23 24  2  0
 21 25  1  0
 25 26  2  0
 25 27  1  0
  1 28  1  0
  1 29  1  0
  1 30  1  0
  4 31  1  0
  7 32  1  0
 10 33  1  0
 12 34  1  0
 13 35  1  0
 15 36  1  0
 16 37  1  0
 19 38  1  0
 19 39  1  0
 19 40  1  0
 20 41  1  0
 20 42  1  0
 20 43  1  0
 21 44  1  0
 27 45  1  0
M  END
> <ID>
HT1998

> <Class>
0.0

> <Clusters>
18

> <Fold>
5

$$$$