
     RDKit          3D

 41 42  0  0  0  0  0  0  0  0999 V2000
    4.0497   -1.7256    0.3878 C   0  0  0  0  0  0  0  0  0  0  0  0
    4.1742   -0.2016    0.5175 C   0  0  0  0  0  0  0  0  0  0  0  0
    4.7765    0.1445    1.8878 C   0  0  0  0  0  0  0  0  0  0  0  0
    2.8452    0.4236    0.3638 N   0  0  0  0  0  0  0  0  0  0  0  0
    2.5183    0.6733   -1.0506 C   0  0  0  0  0  0  0  0  0  0  0  0
    0.9983    0.8110   -1.2495 C   0  0  0  0  0  0  0  0  0  0  0  0
    0.4341    2.0692   -0.5683 C   0  0  0  0  0  0  0  0  0  0  0  0
   -1.0784    2.1742   -0.8038 C   0  0  0  0  0  0  0  0  0  0  0  0
   -1.7968    0.8879   -0.4689 C   0  0  0  0  0  0  0  0  0  0  0  0
   -3.1709    0.9103   -0.1989 C   0  0  0  0  0  0  0  0  0  0  0  0
   -3.8656   -0.2692    0.1301 C   0  0  0  0  0  0  0  0  0  0  0  0
   -5.3407   -0.1948    0.4700 C   0  0  0  0  0  0  0  0  0  0  0  0
   -5.6732    1.0302    1.0682 O   0  0  0  0  0  0  0  0  0  0  0  0
   -3.1733   -1.5063    0.1057 C   0  0  0  0  0  0  0  0  0  0  0  0
   -1.7944   -1.5195   -0.1633 C   0  0  0  0  0  0  0  0  0  0  0  0
   -1.1065   -0.3372   -0.4567 C   0  0  0  0  0  0  0  0  0  0  0  0
    0.2976   -0.3780   -0.7557 N   0  0  0  0  0  0  0  0  0  0  0  0
   -3.8533   -2.7542    0.3251 N   0  0  0  0  0  0  0  0  0  0  0  0
   -3.2661   -3.6947    0.8991 O   0  0  0  0  0  0  0  0  0  0  0  0
   -5.0642   -2.9999   -0.2803 O   0  0  0  0  0  0  0  0  0  0  0  0
    5.0408   -2.2069    0.5309 H   0  0  0  0  0  0  0  0  0  0  0  0
    3.3432   -2.1220    1.1484 H   0  0  0  0  0  0  0  0  0  0  0  0
    3.6793   -2.0086   -0.6185 H   0  0  0  0  0  0  0  0  0  0  0  0
    4.8801    0.1718   -0.2603 H   0  0  0  0  0  0  0  0  0  0  0  0
    4.0986   -0.1832    2.7052 H   0  0  0  0  0  0  0  0  0  0  0  0
    4.9337    1.2411    1.9702 H   0  0  0  0  0  0  0  0  0  0  0  0
    5.7624   -0.3520    2.0141 H   0  0  0  0  0  0  0  0  0  0  0  0
    2.8460    1.3548    0.8431 H   0  0  0  0  0  0  0  0  0  0  0  0
    2.8661   -0.1623   -1.6962 H   0  0  0  0  0  0  0  0  0  0  0  0
    3.0309    1.5960   -1.4061 H   0  0  0  0  0  0  0  0  0  0  0  0
    0.8082    0.8975   -2.3426 H   0  0  0  0  0  0  0  0  0  0  0  0
    0.6185    2.0275    0.5271 H   0  0  0  0  0  0  0  0  0  0  0  0
    0.9317    2.9773   -0.9729 H   0  0  0  0  0  0  0  0  0  0  0  0
   -1.2763    2.4291   -1.8674 H   0  0  0  0  0  0  0  0  0  0  0  0
   -1.4723    3.0012   -0.1734 H   0  0  0  0  0  0  0  0  0  0  0  0
   -3.6955    1.8577   -0.2309 H   0  0  0  0  0  0  0  0  0  0  0  0
   -5.6331   -1.0177    1.1595 H   0  0  0  0  0  0  0  0  0  0  0  0
   -5.9274   -0.3040   -0.4659 H   0  0  0  0  0  0  0  0  0  0  0  0
   -5.2934    1.0103    1.9856 H   0  0  0  0  0  0  0  0  0  0  0  0
   -1.2588   -2.4609   -0.1786 H   0  0  0  0  0  0  0  0  0  0  0  0
    0.8067   -1.2899   -0.6994 H   0  0  0  0  0  0  0  0  0  0  0  0
  1  2  1  0
  2  3  1  0
  2  4  1  0
  4  5  1  0
  5  6  1  0
  6  7  1  0
  7  8  1  0
  8  9  1  0
  9 10  2  0
 10 11  1  0
 11 12  1  0
 12 13  1  0
 11 14  2  0
 14 15  1  0
 15 16  2  0
 16  9  1  0
 16 17  1  0
 17  6  1  0
 14 18  1  0
 18 19  2  0
 18 20  1  0
  1 21  1  0
  1 22  1  0
  1 23  1  0
  2 24  1  0
  3 25  1  0
  3 26  1  0
  3 27  1  0
  4 28  1  0
  5 29  1  0
  5 30  1  0
  6 31  1  0
  7 32  1  0
  7 33  1  0
  8 34  1  0
  8 35  1  0
 10 36  1  0
 12 37  1  0
 12 38  1  0
 13 39  1  0
 15 40  1  0
 17 41  1  0
M  CHG  2  18   1  20  -1
M  END
> <ID>
HT1552

> <Class>
0.0

> <Clusters>
108

> <Fold>
5

$$$$