
     RDKit          3D

 49 50  0  0  0  0  0  0  0  0999 V2000
   -5.4313    1.8522   -0.7333 C   0  0  0  0  0  0  0  0  0  0  0  0
   -5.3227    0.3606   -0.3468 C   0  0  0  0  0  0  0  0  0  0  0  0
   -5.6271   -0.5283   -1.5743 C   0  0  0  0  0  0  0  0  0  0  0  0
   -6.3840    0.0760    0.7371 C   0  0  0  0  0  0  0  0  0  0  0  0
   -3.9867    0.0672    0.2320 N   0  0  0  0  0  0  0  0  0  0  0  0
   -2.8622    0.1258   -0.7185 C   0  0  0  0  0  0  0  0  0  0  0  0
   -1.5282    0.1668    0.0488 C   0  0  0  0  0  0  0  0  0  0  0  0
   -1.3747   -0.9736    0.8571 O   0  0  0  0  0  0  0  0  0  0  0  0
   -0.3385    0.3110   -0.9111 C   0  0  0  0  0  0  0  0  0  0  0  0
    0.8751    0.4315   -0.1667 O   0  0  0  0  0  0  0  0  0  0  0  0
    1.9281   -0.5006   -0.1395 C   0  0  0  0  0  0  0  0  0  0  0  0
    1.7384   -1.8513   -0.4890 C   0  0  0  0  0  0  0  0  0  0  0  0
    2.8010   -2.7515   -0.4341 C   0  0  0  0  0  0  0  0  0  0  0  0
    4.0598   -2.3270   -0.0160 C   0  0  0  0  0  0  0  0  0  0  0  0
    4.2708   -0.9949    0.3657 C   0  0  0  0  0  0  0  0  0  0  0  0
    5.6576   -0.5799    0.7949 C   0  0  0  0  0  0  0  0  0  0  0  0
    5.6592    0.7398    1.5814 C   0  0  1  0  0  0  0  0  0  0  0  0
    6.9770    1.1874    1.7653 O   0  0  0  0  0  0  0  0  0  0  0  0
    4.8593    1.8094    0.8285 C   0  0  1  0  0  0  0  0  0  0  0  0
    5.4222    2.0233   -0.4423 O   0  0  0  0  0  0  0  0  0  0  0  0
    3.3872    1.3823    0.6938 C   0  0  0  0  0  0  0  0  0  0  0  0
    3.2043   -0.0652    0.2808 C   0  0  0  0  0  0  0  0  0  0  0  0
   -4.8375    2.0889   -1.6395 H   0  0  0  0  0  0  0  0  0  0  0  0
   -6.4846    2.1235   -0.9624 H   0  0  0  0  0  0  0  0  0  0  0  0
   -5.0772    2.4936    0.1020 H   0  0  0  0  0  0  0  0  0  0  0  0
   -4.9688   -0.2707   -2.4309 H   0  0  0  0  0  0  0  0  0  0  0  0
   -6.6779   -0.3865   -1.9079 H   0  0  0  0  0  0  0  0  0  0  0  0
   -5.4795   -1.6004   -1.3226 H   0  0  0  0  0  0  0  0  0  0  0  0
   -7.4056    0.3174    0.3710 H   0  0  0  0  0  0  0  0  0  0  0  0
   -6.3684   -0.9963    1.0290 H   0  0  0  0  0  0  0  0  0  0  0  0
   -6.1821    0.6853    1.6448 H   0  0  0  0  0  0  0  0  0  0  0  0
   -3.9997   -0.8987    0.6386 H   0  0  0  0  0  0  0  0  0  0  0  0
   -2.8754   -0.7636   -1.3875 H   0  0  0  0  0  0  0  0  0  0  0  0
   -2.9213    1.0363   -1.3475 H   0  0  0  0  0  0  0  0  0  0  0  0
   -1.5409    1.0588    0.7130 H   0  0  0  0  0  0  0  0  0  0  0  0
   -1.4055   -1.7688    0.2635 H   0  0  0  0  0  0  0  0  0  0  0  0
   -0.3096   -0.5296   -1.6340 H   0  0  0  0  0  0  0  0  0  0  0  0
   -0.4626    1.2384   -1.5098 H   0  0  0  0  0  0  0  0  0  0  0  0
    0.7701   -2.2294   -0.7795 H   0  0  0  0  0  0  0  0  0  0  0  0
    2.6455   -3.7871   -0.7081 H   0  0  0  0  0  0  0  0  0  0  0  0
    4.8727   -3.0421    0.0194 H   0  0  0  0  0  0  0  0  0  0  0  0
    6.2931   -0.4790   -0.1119 H   0  0  0  0  0  0  0  0  0  0  0  0
    6.1034   -1.3731    1.4346 H   0  0  0  0  0  0  0  0  0  0  0  0
    5.1803    0.5750    2.5761 H   0  0  0  0  0  0  0  0  0  0  0  0
    7.3850    0.6002    2.4543 H   0  0  0  0  0  0  0  0  0  0  0  0
    4.9013    2.7552    1.4189 H   0  0  0  0  0  0  0  0  0  0  0  0
    5.0923    2.9047   -0.7587 H   0  0  0  0  0  0  0  0  0  0  0  0
    2.8739    1.5324    1.6686 H   0  0  0  0  0  0  0  0  0  0  0  0
    2.8946    2.0491   -0.0475 H   0  0  0  0  0  0  0  0  0  0  0  0
  1  2  1  0
  2  3  1  0
  2  4  1  0
  2  5  1  0
  5  6  1  0
  6  7  1  0
  7  8  1  0
  7  9  1  0
  9 10  1  0
 10 11  1  0
 11 12  2  0
 12 13  1  0
 13 14  2  0
 14 15  1  0
 15 16  1  0
 16 17  1  0
 17 18  1  0
 17 19  1  0
 19 20  1  0
 19 21  1  0
 21 22  1  0
 22 11  1  0
 22 15  2  0
  1 23  1  0
  1 24  1  0
  1 25  1  0
  3 26  1  0
  3 27  1  0
  3 28  1  0
  4 29  1  0
  4 30  1  0
  4 31  1  0
  5 32  1  0
  6 33  1  0
  6 34  1  0
  7 35  1  0
  8 36  1  0
  9 37  1  0
  9 38  1  0
 12 39  1  0
 13 40  1  0
 14 41  1  0
 16 42  1  0
 16 43  1  0
 17 44  1  1
 18 45  1  0
 19 46  1  1
 20 47  1  0
 21 48  1  0
 21 49  1  0
M  END
> <ID>
HT1450

> <Class>
0.0

> <Clusters>
145

> <Fold>
5

$$$$