
     RDKit          3D

 52 53  0  0  0  0  0  0  0  0999 V2000
   -3.9761    1.5515   -2.0719 O   0  0  0  0  0  0  0  0  0  0  0  0
   -3.3706    1.4930   -0.9668 C   0  0  0  0  0  0  0  0  0  0  0  0
   -1.8990    1.8266   -0.9042 C   0  0  0  0  0  0  0  0  0  0  0  0
   -4.0382    1.0637    0.1855 O   0  0  0  0  0  0  0  0  0  0  0  0
   -5.3932    0.6342    0.1715 C   0  0  0  0  0  0  0  0  0  0  0  0
   -1.0240    0.5413   -0.9940 C   0  0  0  0  0  0  0  0  0  0  0  0
   -1.5256    2.6749    0.2945 C   0  0  0  0  0  0  0  0  0  0  0  0
    0.4345    0.8120   -0.6481 C   0  0  0  0  0  0  0  0  0  0  0  0
   -1.5617   -0.6126   -0.1400 C   0  0  0  0  0  0  0  0  0  0  0  0
   -0.2955    2.6816    0.7115 N   0  0  0  0  0  0  0  0  0  0  0  0
   -2.4708    3.6801    0.8883 C   0  0  0  0  0  0  0  0  0  0  0  0
    0.7434    1.8454    0.1769 C   0  0  0  0  0  0  0  0  0  0  0  0
    1.4546   -0.1400   -1.1644 C   0  0  0  0  0  0  0  0  0  0  0  0
   -1.4749   -0.5372    1.2672 C   0  0  0  0  0  0  0  0  0  0  0  0
   -2.2428   -1.7201   -0.7176 C   0  0  0  0  0  0  0  0  0  0  0  0
    2.1495    2.1635    0.5966 C   0  0  0  0  0  0  0  0  0  0  0  0
    1.2525   -0.7317   -2.2600 O   0  0  0  0  0  0  0  0  0  0  0  0
    2.6092   -0.4235   -0.4274 O   0  0  0  0  0  0  0  0  0  0  0  0
   -2.0481   -1.5190    2.0759 C   0  0  0  0  0  0  0  0  0  0  0  0
   -2.8299   -2.6863    0.1144 C   0  0  0  0  0  0  0  0  0  0  0  0
   -2.3776   -1.8705   -2.1364 N   0  0  0  0  0  0  0  0  0  0  0  0
    3.5808   -1.3742   -0.8550 C   0  0  0  0  0  0  0  0  0  0  0  0
   -2.7290   -2.5885    1.5012 C   0  0  0  0  0  0  0  0  0  0  0  0
   -1.3602   -2.0089   -2.8455 O   0  0  0  0  0  0  0  0  0  0  0  0
   -3.6073   -2.1784   -2.6705 O   0  0  0  0  0  0  0  0  0  0  0  0
    4.7227   -1.4597    0.1689 C   0  0  0  0  0  0  0  0  0  0  0  0
    5.4940   -0.1359    0.2479 C   0  0  0  0  0  0  0  0  0  0  0  0
    5.6748   -2.6076   -0.1866 C   0  0  0  0  0  0  0  0  0  0  0  0
   -1.6607    2.4522   -1.7942 H   0  0  0  0  0  0  0  0  0  0  0  0
   -5.6923    0.3415    1.1987 H   0  0  0  0  0  0  0  0  0  0  0  0
   -6.0503    1.4596   -0.1750 H   0  0  0  0  0  0  0  0  0  0  0  0
   -5.5047   -0.2441   -0.4992 H   0  0  0  0  0  0  0  0  0  0  0  0
   -1.0558    0.2667   -2.0663 H   0  0  0  0  0  0  0  0  0  0  0  0
   -3.4013    3.7803    0.2932 H   0  0  0  0  0  0  0  0  0  0  0  0
   -1.9837    4.6775    0.9217 H   0  0  0  0  0  0  0  0  0  0  0  0
   -2.7335    3.3722    1.9217 H   0  0  0  0  0  0  0  0  0  0  0  0
   -0.9757    0.2904    1.7493 H   0  0  0  0  0  0  0  0  0  0  0  0
    2.4944    1.4258    1.3507 H   0  0  0  0  0  0  0  0  0  0  0  0
    2.8289    2.1695   -0.2819 H   0  0  0  0  0  0  0  0  0  0  0  0
    2.1906    3.1722    1.0591 H   0  0  0  0  0  0  0  0  0  0  0  0
   -1.9736   -1.4429    3.1531 H   0  0  0  0  0  0  0  0  0  0  0  0
   -3.3588   -3.5267   -0.3175 H   0  0  0  0  0  0  0  0  0  0  0  0
    3.9811   -1.0799   -1.8505 H   0  0  0  0  0  0  0  0  0  0  0  0
    3.0915   -2.3688   -0.9497 H   0  0  0  0  0  0  0  0  0  0  0  0
   -3.1799   -3.3441    2.1314 H   0  0  0  0  0  0  0  0  0  0  0  0
    4.2848   -1.6716    1.1696 H   0  0  0  0  0  0  0  0  0  0  0  0
    6.3105   -0.2127    0.9973 H   0  0  0  0  0  0  0  0  0  0  0  0
    5.9363    0.1207   -0.7387 H   0  0  0  0  0  0  0  0  0  0  0  0
    4.8198    0.6869    0.5632 H   0  0  0  0  0  0  0  0  0  0  0  0
    6.1331   -2.4420   -1.1855 H   0  0  0  0  0  0  0  0  0  0  0  0
    5.1245   -3.5725   -0.1997 H   0  0  0  0  0  0  0  0  0  0  0  0
    6.4836   -2.6840    0.5713 H   0  0  0  0  0  0  0  0  0  0  0  0
  1  2  2  0
  2  3  1  0
  4  2  1  0
  5  4  1  0
  3  6  1  0
  7  3  1  0
  6  8  1  0
  6  9  1  0
 10  7  2  0
  7 11  1  0
  8 12  2  0
  8 13  1  0
  9 14  2  0
 15  9  1  0
 12 10  1  0
 12 16  1  0
 13 17  2  0
 13 18  1  0
 14 19  1  0
 20 15  2  0
 15 21  1  0
 18 22  1  0
 19 23  2  0
 23 20  1  0
 21 24  2  0
 21 25  1  0
 22 26  1  0
 26 27  1  0
 26 28  1  0
  3 29  1  0
  5 30  1  0
  5 31  1  0
  5 32  1  0
  6 33  1  0
 11 34  1  0
 11 35  1  0
 11 36  1  0
 14 37  1  0
 16 38  1  0
 16 39  1  0
 16 40  1  0
 19 41  1  0
 20 42  1  0
 22 43  1  0
 22 44  1  0
 23 45  1  0
 26 46  1  0
 27 47  1  0
 27 48  1  0
 27 49  1  0
 28 50  1  0
 28 51  1  0
 28 52  1  0
M  CHG  2  21   1  25  -1
M  END
> <ID>
HT1499

> <Class>
0.0

> <Clusters>
102

> <Fold>
5

$$$$