
     RDKit          3D

 42 44  0  0  0  0  0  0  0  0999 V2000
    4.7065   -2.2011    0.5639 C   0  0  0  0  0  0  0  0  0  0  0  0
    3.8661   -1.9511   -0.6880 C   0  0  0  0  0  0  0  0  0  0  0  0
    3.1997   -0.5646   -0.6971 C   0  0  0  0  0  0  0  0  0  0  0  0
    2.1578   -0.3568    0.4199 C   0  0  0  0  0  0  0  0  0  0  0  0
    1.5669    1.0208    0.3420 C   0  0  0  0  0  0  0  0  0  0  0  0
    2.2009    2.0775    0.6022 O   0  0  0  0  0  0  0  0  0  0  0  0
    0.1769    0.9861    0.0283 N   0  0  0  0  0  0  0  0  0  0  0  0
   -0.2307   -0.3457   -0.0317 N   0  0  0  0  0  0  0  0  0  0  0  0
    0.9080   -1.1720    0.2198 C   0  0  0  0  0  0  0  0  0  0  0  0
    0.8528   -2.4219    0.3585 O   0  0  0  0  0  0  0  0  0  0  0  0
   -1.6296   -0.6718    0.0145 C   0  0  0  0  0  0  0  0  0  0  0  0
   -2.1153   -1.9872   -0.0816 C   0  0  0  0  0  0  0  0  0  0  0  0
   -3.4970   -2.2339   -0.0325 C   0  0  0  0  0  0  0  0  0  0  0  0
   -4.0139   -3.6413   -0.0921 C   0  0  0  0  0  0  0  0  0  0  0  0
   -4.3876   -1.1622    0.1342 C   0  0  0  0  0  0  0  0  0  0  0  0
   -3.9088    0.1481    0.2091 C   0  0  0  0  0  0  0  0  0  0  0  0
   -2.5355    0.3988    0.1421 C   0  0  0  0  0  0  0  0  0  0  0  0
   -2.0529    1.7538    0.1867 N   0  0  0  0  0  0  0  0  0  0  0  0
   -0.7855    2.0507    0.1242 C   0  0  0  0  0  0  0  0  0  0  0  0
   -0.3767    3.4275    0.1170 N   0  0  0  0  0  0  0  0  0  0  0  0
    0.4656    3.9427   -0.9631 C   0  0  0  0  0  0  0  0  0  0  0  0
   -0.9753    4.3611    1.0705 C   0  0  0  0  0  0  0  0  0  0  0  0
    5.4219   -1.3671    0.7264 H   0  0  0  0  0  0  0  0  0  0  0  0
    4.0572   -2.3135    1.4565 H   0  0  0  0  0  0  0  0  0  0  0  0
    5.2831   -3.1417    0.4388 H   0  0  0  0  0  0  0  0  0  0  0  0
    3.1063   -2.7526   -0.7945 H   0  0  0  0  0  0  0  0  0  0  0  0
    4.5357   -2.0174   -1.5728 H   0  0  0  0  0  0  0  0  0  0  0  0
    3.9924    0.2103   -0.6040 H   0  0  0  0  0  0  0  0  0  0  0  0
    2.7131   -0.4160   -1.6870 H   0  0  0  0  0  0  0  0  0  0  0  0
    2.5808   -0.5223    1.4326 H   0  0  0  0  0  0  0  0  0  0  0  0
   -1.4406   -2.8193   -0.2132 H   0  0  0  0  0  0  0  0  0  0  0  0
   -4.0340   -4.0704    0.9314 H   0  0  0  0  0  0  0  0  0  0  0  0
   -3.3628   -4.2700   -0.7361 H   0  0  0  0  0  0  0  0  0  0  0  0
   -5.0406   -3.6661   -0.5154 H   0  0  0  0  0  0  0  0  0  0  0  0
   -5.4542   -1.3402    0.1956 H   0  0  0  0  0  0  0  0  0  0  0  0
   -4.6064    0.9691    0.3171 H   0  0  0  0  0  0  0  0  0  0  0  0
    0.8577    3.1185   -1.5966 H   0  0  0  0  0  0  0  0  0  0  0  0
    1.3233    4.5043   -0.5367 H   0  0  0  0  0  0  0  0  0  0  0  0
   -0.1306    4.6230   -1.6069 H   0  0  0  0  0  0  0  0  0  0  0  0
   -0.5795    5.3890    0.9228 H   0  0  0  0  0  0  0  0  0  0  0  0
   -0.7378    4.0383    2.1060 H   0  0  0  0  0  0  0  0  0  0  0  0
   -2.0774    4.3864    0.9375 H   0  0  0  0  0  0  0  0  0  0  0  0
  1  2  1  0
  2  3  1  0
  3  4  1  0
  4  5  1  0
  5  6  2  0
  5  7  1  0
  7  8  1  0
  8  9  1  0
  9  4  1  0
  9 10  2  0
  8 11  1  0
 11 12  2  0
 12 13  1  0
 13 14  1  0
 13 15  2  0
 15 16  1  0
 16 17  2  0
 17 11  1  0
 17 18  1  0
 18 19  2  0
 19  7  1  0
 19 20  1  0
 20 21  1  0
 20 22  1  0
  1 23  1  0
  1 24  1  0
  1 25  1  0
  2 26  1  0
  2 27  1  0
  3 28  1  0
  3 29  1  0
  4 30  1  0
 12 31  1  0
 14 32  1  0
 14 33  1  0
 14 34  1  0
 15 35  1  0
 16 36  1  0
 21 37  1  0
 21 38  1  0
 21 39  1  0
 22 40  1  0
 22 41  1  0
 22 42  1  0
M  END
> <ID>
HT0210

> <Class>
0.0

> <Clusters>
195

> <Fold>
5

$$$$