
     RDKit          3D

 23 23  0  0  0  0  0  0  0  0999 V2000
   -3.9706   -0.4433    0.6614 C   0  0  0  0  0  0  0  0  0  0  0  0
   -3.4221    0.3760   -0.5017 C   0  0  0  0  0  0  0  0  0  0  0  0
   -2.0194    0.1656   -0.6533 O   0  0  0  0  0  0  0  0  0  0  0  0
   -1.0582    0.6905    0.2204 C   0  0  0  0  0  0  0  0  0  0  0  0
   -1.4083    1.4556    1.1612 O   0  0  0  0  0  0  0  0  0  0  0  0
    0.3701    0.3547    0.0301 C   0  0  0  0  0  0  0  0  0  0  0  0
    0.7656   -0.4963   -1.0170 C   0  0  0  0  0  0  0  0  0  0  0  0
    2.1145   -0.8164   -1.1991 C   0  0  0  0  0  0  0  0  0  0  0  0
    3.0878   -0.2920   -0.3389 C   0  0  0  0  0  0  0  0  0  0  0  0
    4.4670   -0.6203   -0.5264 N   0  0  0  0  0  0  0  0  0  0  0  0
    2.7004    0.5562    0.7066 C   0  0  0  0  0  0  0  0  0  0  0  0
    1.3523    0.8779    0.8910 C   0  0  0  0  0  0  0  0  0  0  0  0
   -3.7390   -1.5188    0.5092 H   0  0  0  0  0  0  0  0  0  0  0  0
   -5.0723   -0.3174    0.7192 H   0  0  0  0  0  0  0  0  0  0  0  0
   -3.5241   -0.1067    1.6199 H   0  0  0  0  0  0  0  0  0  0  0  0
   -3.6368    1.4563   -0.3512 H   0  0  0  0  0  0  0  0  0  0  0  0
   -3.9296    0.0504   -1.4341 H   0  0  0  0  0  0  0  0  0  0  0  0
    0.0343   -0.9159   -1.6962 H   0  0  0  0  0  0  0  0  0  0  0  0
    2.4007   -1.4734   -2.0109 H   0  0  0  0  0  0  0  0  0  0  0  0
    4.7654   -1.2519   -1.3029 H   0  0  0  0  0  0  0  0  0  0  0  0
    5.1998   -0.2343    0.1099 H   0  0  0  0  0  0  0  0  0  0  0  0
    3.4427    0.9681    1.3787 H   0  0  0  0  0  0  0  0  0  0  0  0
    1.0800    1.5356    1.7070 H   0  0  0  0  0  0  0  0  0  0  0  0
  1  2  1  0
  2  3  1  0
  3  4  1  0
  4  5  2  0
  4  6  1  0
  6  7  2  0
  7  8  1  0
  8  9  2  0
  9 10  1  0
  9 11  1  0
 11 12  2  0
 12  6  1  0
  1 13  1  0
  1 14  1  0
  1 15  1  0
  2 16  1  0
  2 17  1  0
  7 18  1  0
  8 19  1  0
 10 20  1  0
 10 21  1  0
 11 22  1  0
 12 23  1  0
M  END
> <ID>
HT0248

> <Class>
0.0

> <Clusters>
204

> <Fold>
5

$$$$