
     RDKit          3D

 29 29  0  0  0  0  0  0  0  0999 V2000
   -4.5868    0.6776   -0.6547 C   0  0  0  0  0  0  0  0  0  0  0  0
   -3.2419    0.0381   -0.2909 C   0  0  0  0  0  0  0  0  0  0  0  0
   -3.2479   -0.4181    1.1742 C   0  0  0  0  0  0  0  0  0  0  0  0
   -2.0913    1.0197   -0.5586 C   0  0  0  0  0  0  0  0  0  0  0  0
   -0.8403    0.3765   -0.3325 O   0  0  0  0  0  0  0  0  0  0  0  0
    0.3873    1.0262   -0.4980 C   0  0  0  0  0  0  0  0  0  0  0  0
    0.4187    2.2308   -0.8737 O   0  0  0  0  0  0  0  0  0  0  0  0
    1.6466    0.2974   -0.2305 C   0  0  0  0  0  0  0  0  0  0  0  0
    1.6135   -1.0408    0.1997 C   0  0  0  0  0  0  0  0  0  0  0  0
    2.8014   -1.7329    0.4542 C   0  0  0  0  0  0  0  0  0  0  0  0
    4.0391   -1.0994    0.2831 C   0  0  0  0  0  0  0  0  0  0  0  0
    5.2533   -1.8085    0.5437 N   0  0  0  0  0  0  0  0  0  0  0  0
    4.0788    0.2339   -0.1451 C   0  0  0  0  0  0  0  0  0  0  0  0
    2.8924    0.9284   -0.4003 C   0  0  0  0  0  0  0  0  0  0  0  0
   -4.5950    0.9697   -1.7266 H   0  0  0  0  0  0  0  0  0  0  0  0
   -4.7720    1.5814   -0.0350 H   0  0  0  0  0  0  0  0  0  0  0  0
   -5.4129   -0.0465   -0.4894 H   0  0  0  0  0  0  0  0  0  0  0  0
   -3.0990   -0.8569   -0.9361 H   0  0  0  0  0  0  0  0  0  0  0  0
   -2.2952   -0.9320    1.4232 H   0  0  0  0  0  0  0  0  0  0  0  0
   -3.3761    0.4506    1.8553 H   0  0  0  0  0  0  0  0  0  0  0  0
   -4.0782   -1.1354    1.3483 H   0  0  0  0  0  0  0  0  0  0  0  0
   -2.1823    1.9055    0.1087 H   0  0  0  0  0  0  0  0  0  0  0  0
   -2.1346    1.3642   -1.6154 H   0  0  0  0  0  0  0  0  0  0  0  0
    0.6707   -1.5544    0.3407 H   0  0  0  0  0  0  0  0  0  0  0  0
    2.7569   -2.7630    0.7849 H   0  0  0  0  0  0  0  0  0  0  0  0
    5.2337   -2.8027    0.8633 H   0  0  0  0  0  0  0  0  0  0  0  0
    6.1807   -1.3446    0.4191 H   0  0  0  0  0  0  0  0  0  0  0  0
    5.0289    0.7352   -0.2812 H   0  0  0  0  0  0  0  0  0  0  0  0
    2.9513    1.9581   -0.7303 H   0  0  0  0  0  0  0  0  0  0  0  0
  1  2  1  0
  2  3  1  0
  2  4  1  0
  4  5  1  0
  5  6  1  0
  6  7  2  0
  6  8  1  0
  8  9  2  0
  9 10  1  0
 10 11  2  0
 11 12  1  0
 11 13  1  0
 13 14  2  0
 14  8  1  0
  1 15  1  0
  1 16  1  0
  1 17  1  0
  2 18  1  0
  3 19  1  0
  3 20  1  0
  3 21  1  0
  4 22  1  0
  4 23  1  0
  9 24  1  0
 10 25  1  0
 12 26  1  0
 12 27  1  0
 13 28  1  0
 14 29  1  0
M  END
> <ID>
HT2826

> <Class>
0.0

> <Clusters>
204

> <Fold>
5

$$$$