
     RDKit          3D

 33 33  0  0  0  0  0  0  0  0999 V2000
   -3.7053   -1.2301   -1.6194 O   0  0  0  0  0  0  0  0  0  0  0  0
   -3.1465   -1.5028   -0.3751 C   0  0  0  0  0  0  0  0  0  0  0  0
   -2.7479   -2.6670   -0.1040 O   0  0  0  0  0  0  0  0  0  0  0  0
   -2.9787   -0.4007    0.6211 C   0  0  0  0  0  0  0  0  0  0  0  0
   -1.8278    0.4335    0.2580 N   0  0  0  0  0  0  0  0  0  0  0  0
   -2.0179    1.8658    0.0034 C   0  0  0  0  0  0  0  0  0  0  0  0
   -2.3121    2.5838    1.2861 C   0  0  0  0  0  0  0  0  0  0  0  0
   -1.4388    2.6273    2.1921 O   0  0  0  0  0  0  0  0  0  0  0  0
   -3.5418    3.2029    1.4918 O   0  0  0  0  0  0  0  0  0  0  0  0
   -0.5007   -0.1147    0.3396 C   0  0  0  0  0  0  0  0  0  0  0  0
    0.1064   -0.9525    1.6593 S   0  0  0  0  0  0  0  0  0  0  0  0
    1.6252   -1.2674    0.9999 C   0  0  0  0  0  0  0  0  0  0  0  0
    2.6868   -1.9826    1.7355 C   0  0  0  0  0  0  0  0  0  0  0  0
    2.4362   -2.4676    2.8712 O   0  0  0  0  0  0  0  0  0  0  0  0
    3.9653   -2.1194    1.2066 O   0  0  0  0  0  0  0  0  0  0  0  0
    1.6676   -0.7331   -0.3023 C   0  0  0  0  0  0  0  0  0  0  0  0
    2.8628   -0.8097   -1.2218 C   0  0  0  0  0  0  0  0  0  0  0  0
    3.8282    0.2921   -0.9169 C   0  0  0  0  0  0  0  0  0  0  0  0
    5.0116    0.0221   -0.5788 O   0  0  0  0  0  0  0  0  0  0  0  0
    3.4222    1.6190   -1.0233 O   0  0  0  0  0  0  0  0  0  0  0  0
    0.4664   -0.0780   -0.6608 C   0  0  0  0  0  0  0  0  0  0  0  0
    0.2310    0.5140   -1.9553 C   0  0  0  0  0  0  0  0  0  0  0  0
    0.0417    0.9888   -2.9935 N   0  0  0  0  0  0  0  0  0  0  0  0
   -3.8103   -1.9609   -2.3130 H   0  0  0  0  0  0  0  0  0  0  0  0
   -2.8383   -0.8186    1.6413 H   0  0  0  0  0  0  0  0  0  0  0  0
   -3.9119    0.2033    0.6376 H   0  0  0  0  0  0  0  0  0  0  0  0
   -1.1096    2.3167   -0.4486 H   0  0  0  0  0  0  0  0  0  0  0  0
   -2.8503    2.0044   -0.7193 H   0  0  0  0  0  0  0  0  0  0  0  0
   -4.2683    3.1801    0.7863 H   0  0  0  0  0  0  0  0  0  0  0  0
    4.6915   -2.6060    1.7184 H   0  0  0  0  0  0  0  0  0  0  0  0
    3.3518   -1.8022   -1.1397 H   0  0  0  0  0  0  0  0  0  0  0  0
    2.5471   -0.7170   -2.2817 H   0  0  0  0  0  0  0  0  0  0  0  0
    4.0645    2.3765   -0.8241 H   0  0  0  0  0  0  0  0  0  0  0  0
  1  2  1  0
  2  3  2  0
  2  4  1  0
  4  5  1  0
  5  6  1  0
  6  7  1  0
  7  8  2  0
  7  9  1  0
  5 10  1  0
 10 11  1  0
 11 12  1  0
 12 13  1  0
 13 14  2  0
 13 15  1  0
 12 16  2  0
 16 17  1  0
 17 18  1  0
 18 19  2  0
 18 20  1  0
 16 21  1  0
 21 10  2  0
 21 22  1  0
 22 23  3  0
  1 24  1  0
  4 25  1  0
  4 26  1  0
  6 27  1  0
  6 28  1  0
  9 29  1  0
 15 30  1  0
 17 31  1  0
 17 32  1  0
 20 33  1  0
M  END
> <ID>
HT1921

> <Class>
0.0

> <Clusters>
114

> <Fold>
5

$$$$