
     RDKit          3D

 71 72  0  0  0  0  0  0  0  0999 V2000
   -4.6178    4.1944   -1.1799 C   0  0  0  0  0  0  0  0  0  0  0  0
   -4.3140    2.9289   -0.3706 C   0  0  0  0  0  0  0  0  0  0  0  0
   -3.2158    1.9922   -0.9737 C   0  0  0  0  0  0  0  0  0  0  0  0
   -3.6525    1.4721   -2.3624 C   0  0  0  0  0  0  0  0  0  0  0  0
   -1.8738    2.7370   -1.1006 C   0  0  0  0  0  0  0  0  0  0  0  0
   -3.0113    0.7872   -0.0657 C   0  0  0  0  0  0  0  0  0  0  0  0
   -3.6506    0.6869    1.0231 O   0  0  0  0  0  0  0  0  0  0  0  0
   -2.1120   -0.2251   -0.4409 O   0  0  0  0  0  0  0  0  0  0  0  0
   -2.1058   -1.5208    0.1657 C   0  0  0  0  0  0  0  0  0  0  0  0
   -3.2750   -2.3072   -0.4400 C   0  0  0  0  0  0  0  0  0  0  0  0
   -3.3986   -3.7055    0.1745 C   0  0  0  0  0  0  0  0  0  0  0  0
   -4.3359   -4.5731   -0.6752 C   0  0  0  0  0  0  0  0  0  0  0  0
   -2.0650   -4.3870    0.3132 C   0  0  0  0  0  0  0  0  0  0  0  0
   -0.8816   -3.7441    0.2522 C   0  0  0  0  0  0  0  0  0  0  0  0
    0.3406   -4.5305    0.5202 C   0  0  0  0  0  0  0  0  0  0  0  0
    1.5324   -3.9552    0.6501 C   0  0  0  0  0  0  0  0  0  0  0  0
    1.7565   -2.4965    0.3636 C   0  0  0  0  0  0  0  0  0  0  0  0
    2.3074   -2.3593   -1.0685 C   0  0  0  0  0  0  0  0  0  0  0  0
    0.4716   -1.6397    0.6326 C   0  0  0  0  0  0  0  0  0  0  0  0
    0.6729   -0.1241    0.3195 C   0  0  0  0  0  0  0  0  0  0  0  0
    1.9176    0.5155    0.9735 C   0  0  0  0  0  0  0  0  0  0  0  0
    2.1694    1.9489    0.4574 C   0  0  0  0  0  0  0  0  0  0  0  0
    1.0119    2.7384    0.5755 O   0  0  0  0  0  0  0  0  0  0  0  0
    3.3564    2.6602    1.1542 C   0  0  0  0  0  0  0  0  0  0  0  0
    4.7049    1.9126    1.0145 C   0  0  0  0  0  0  0  0  0  0  0  0
    4.7905    0.9270    2.0177 O   0  0  0  0  0  0  0  0  0  0  0  0
    5.8834    2.8938    1.1675 C   0  0  0  0  0  0  0  0  0  0  0  0
    7.2371    2.2684    0.9359 C   0  0  0  0  0  0  0  0  0  0  0  0
    7.3570    1.0466    0.6412 O   0  0  0  0  0  0  0  0  0  0  0  0
    8.3746    3.0622    1.0276 O   0  0  0  0  0  0  0  0  0  0  0  0
   -0.7651   -2.2611   -0.1135 C   0  0  0  0  0  0  0  0  0  0  0  0
   -4.9488    3.9482   -2.2068 H   0  0  0  0  0  0  0  0  0  0  0  0
   -5.4472    4.7500   -0.6922 H   0  0  0  0  0  0  0  0  0  0  0  0
   -3.7382    4.8648   -1.2122 H   0  0  0  0  0  0  0  0  0  0  0  0
   -4.0169    3.2451    0.6531 H   0  0  0  0  0  0  0  0  0  0  0  0
   -5.2676    2.3623   -0.2753 H   0  0  0  0  0  0  0  0  0  0  0  0
   -2.9313    0.7214   -2.7544 H   0  0  0  0  0  0  0  0  0  0  0  0
   -3.6985    2.2883   -3.1095 H   0  0  0  0  0  0  0  0  0  0  0  0
   -4.6532    0.9963   -2.3037 H   0  0  0  0  0  0  0  0  0  0  0  0
   -1.9281    3.5561   -1.8513 H   0  0  0  0  0  0  0  0  0  0  0  0
   -1.0674    2.0442   -1.4270 H   0  0  0  0  0  0  0  0  0  0  0  0
   -1.5800    3.1684   -0.1162 H   0  0  0  0  0  0  0  0  0  0  0  0
   -2.2420   -1.4286    1.2668 H   0  0  0  0  0  0  0  0  0  0  0  0
   -4.2251   -1.7576   -0.2600 H   0  0  0  0  0  0  0  0  0  0  0  0
   -3.1233   -2.3763   -1.5435 H   0  0  0  0  0  0  0  0  0  0  0  0
   -3.8409   -3.6103    1.1929 H   0  0  0  0  0  0  0  0  0  0  0  0
   -5.3280   -4.0823   -0.7914 H   0  0  0  0  0  0  0  0  0  0  0  0
   -3.8913   -4.7229   -1.6862 H   0  0  0  0  0  0  0  0  0  0  0  0
   -4.4894   -5.5643   -0.1972 H   0  0  0  0  0  0  0  0  0  0  0  0
   -2.0830   -5.4335    0.5913 H   0  0  0  0  0  0  0  0  0  0  0  0
    0.2728   -5.6012    0.6829 H   0  0  0  0  0  0  0  0  0  0  0  0
    2.3934   -4.5813    0.8712 H   0  0  0  0  0  0  0  0  0  0  0  0
    2.5486   -2.1865    1.0776 H   0  0  0  0  0  0  0  0  0  0  0  0
    1.6030   -2.7870   -1.8137 H   0  0  0  0  0  0  0  0  0  0  0  0
    3.2702   -2.9132   -1.1516 H   0  0  0  0  0  0  0  0  0  0  0  0
    2.5110   -1.3021   -1.3285 H   0  0  0  0  0  0  0  0  0  0  0  0
    0.2632   -1.7082    1.7257 H   0  0  0  0  0  0  0  0  0  0  0  0
   -0.1904    0.4323    0.7361 H   0  0  0  0  0  0  0  0  0  0  0  0
    0.6885    0.0388   -0.7824 H   0  0  0  0  0  0  0  0  0  0  0  0
    1.7908    0.5259    2.0780 H   0  0  0  0  0  0  0  0  0  0  0  0
    2.8202   -0.0795    0.7329 H   0  0  0  0  0  0  0  0  0  0  0  0
    2.4103    1.8780   -0.6246 H   0  0  0  0  0  0  0  0  0  0  0  0
    0.7712    2.7887    1.5412 H   0  0  0  0  0  0  0  0  0  0  0  0
    3.4418    3.6731    0.6891 H   0  0  0  0  0  0  0  0  0  0  0  0
    3.1261    2.8240    2.2317 H   0  0  0  0  0  0  0  0  0  0  0  0
    4.7610    1.4613   -0.0062 H   0  0  0  0  0  0  0  0  0  0  0  0
    5.0669    0.0798    1.5840 H   0  0  0  0  0  0  0  0  0  0  0  0
    5.8681    3.3382    2.1890 H   0  0  0  0  0  0  0  0  0  0  0  0
    5.7699    3.7248    0.4366 H   0  0  0  0  0  0  0  0  0  0  0  0
    9.2829    2.6873    0.7980 H   0  0  0  0  0  0  0  0  0  0  0  0
   -0.5789   -2.2058   -1.2093 H   0  0  0  0  0  0  0  0  0  0  0  0
  1  2  1  0
  2  3  1  0
  3  4  1  0
  3  5  1  0
  3  6  1  0
  6  7  2  0
  6  8  1  0
  8  9  1  0
  9 10  1  0
 10 11  1  0
 11 12  1  0
 11 13  1  0
 13 14  2  0
 14 15  1  0
 15 16  2  0
 16 17  1  0
 17 18  1  0
 17 19  1  0
 19 20  1  0
 20 21  1  0
 21 22  1  0
 22 23  1  0
 22 24  1  0
 24 25  1  0
 25 26  1  0
 25 27  1  0
 27 28  1  0
 28 29  2  0
 28 30  1  0
 19 31  1  0
 31  9  1  0
 31 14  1  0
  1 32  1  0
  1 33  1  0
  1 34  1  0
  2 35  1  0
  2 36  1  0
  4 37  1  0
  4 38  1  0
  4 39  1  0
  5 40  1  0
  5 41  1  0
  5 42  1  0
  9 43  1  0
 10 44  1  0
 10 45  1  0
 11 46  1  0
 12 47  1  0
 12 48  1  0
 12 49  1  0
 13 50  1  0
 15 51  1  0
 16 52  1  0
 17 53  1  0
 18 54  1  0
 18 55  1  0
 18 56  1  0
 19 57  1  0
 20 58  1  0
 20 59  1  0
 21 60  1  0
 21 61  1  0
 22 62  1  0
 23 63  1  0
 24 64  1  0
 24 65  1  0
 25 66  1  0
 26 67  1  0
 27 68  1  0
 27 69  1  0
 30 70  1  0
 31 71  1  0
M  END
> <ID>
HT2003

> <Class>
0.0

> <Clusters>
149

> <Fold>
5

$$$$