
     RDKit          3D

 12 11  0  0  0  0  0  0  0  0999 V2000
    1.7219    0.4277   -0.8680 O   0  0  0  0  0  0  0  0  0  0  0  0
    1.3457   -0.5541    0.0607 C   0  0  0  0  0  0  0  0  0  0  0  0
   -0.1234   -0.4784    0.3887 C   0  0  0  0  0  0  0  0  0  0  0  0
   -0.5836   -1.2673    1.2008 O   0  0  0  0  0  0  0  0  0  0  0  0
   -1.0215    0.5558   -0.2456 C   0  0  0  0  0  0  0  0  0  0  0  0
   -2.3593    0.3694    0.1337 O   0  0  0  0  0  0  0  0  0  0  0  0
    1.8427    1.2709   -0.3577 H   0  0  0  0  0  0  0  0  0  0  0  0
    1.9431   -0.4533    0.9954 H   0  0  0  0  0  0  0  0  0  0  0  0
    1.5621   -1.5522   -0.3746 H   0  0  0  0  0  0  0  0  0  0  0  0
   -0.6981    1.5641    0.0872 H   0  0  0  0  0  0  0  0  0  0  0  0
   -0.9271    0.5106   -1.3542 H   0  0  0  0  0  0  0  0  0  0  0  0
   -2.7025   -0.3931   -0.4018 H   0  0  0  0  0  0  0  0  0  0  0  0
  1  2  1  0
  2  3  1  0
  3  4  2  0
  3  5  1  0
  5  6  1  0
  1  7  1  0
  2  8  1  0
  2  9  1  0
  5 10  1  0
  5 11  1  0
  6 12  1  0
M  END
> <ID>
HT2378

> <Class>
0.0

> <Clusters>
243

> <Fold>
5

$$$$