
     RDKit          3D

 31 31  0  0  0  0  0  0  0  0999 V2000
    3.9104    0.3463    0.0259 C   0  0  0  0  0  0  0  0  0  0  0  0
    3.0780   -0.6494   -0.7824 C   0  0  0  0  0  0  0  0  0  0  0  0
    1.6286   -0.1828   -0.9971 C   0  0  0  0  0  0  0  0  0  0  0  0
    0.7908   -0.2533    0.2984 C   0  0  0  0  0  0  0  0  0  0  0  0
   -0.7186    0.1208    0.1622 C   0  0  0  0  0  0  0  0  0  0  0  0
   -0.8809    1.5788   -0.3725 C   0  0  0  0  0  0  0  0  0  0  0  0
   -2.3347    2.0679   -0.4090 C   0  0  0  0  0  0  0  0  0  0  0  0
   -1.4119   -0.8542   -0.7910 C   0  0  0  0  0  0  0  0  0  0  0  0
   -1.2479   -0.7354   -2.0359 O   0  0  0  0  0  0  0  0  0  0  0  0
   -2.2494   -1.9107   -0.3150 N   0  0  0  0  0  0  0  0  0  0  0  0
   -2.6477   -1.9809    1.0487 C   0  0  0  0  0  0  0  0  0  0  0  0
   -3.3985   -2.9138    1.4391 O   0  0  0  0  0  0  0  0  0  0  0  0
   -2.2116   -0.9861    1.9674 N   0  0  0  0  0  0  0  0  0  0  0  0
   -1.3055    0.0471    1.5720 C   0  0  0  0  0  0  0  0  0  0  0  0
   -0.9505    0.8980    2.4336 O   0  0  0  0  0  0  0  0  0  0  0  0
    4.9718    0.0202    0.0305 H   0  0  0  0  0  0  0  0  0  0  0  0
    3.8550    1.3590   -0.4270 H   0  0  0  0  0  0  0  0  0  0  0  0
    3.5610    0.3909    1.0779 H   0  0  0  0  0  0  0  0  0  0  0  0
    3.0923   -1.6413   -0.2807 H   0  0  0  0  0  0  0  0  0  0  0  0
    3.5575   -0.7719   -1.7779 H   0  0  0  0  0  0  0  0  0  0  0  0
    1.1864   -0.8494   -1.7641 H   0  0  0  0  0  0  0  0  0  0  0  0
    1.6395    0.8505   -1.4023 H   0  0  0  0  0  0  0  0  0  0  0  0
    0.8639   -1.2864    0.7073 H   0  0  0  0  0  0  0  0  0  0  0  0
    1.2558    0.4252    1.0458 H   0  0  0  0  0  0  0  0  0  0  0  0
   -0.2904    2.2809    0.2566 H   0  0  0  0  0  0  0  0  0  0  0  0
   -0.4801    1.6595   -1.4049 H   0  0  0  0  0  0  0  0  0  0  0  0
   -2.3677    3.0914   -0.8383 H   0  0  0  0  0  0  0  0  0  0  0  0
   -2.9584    1.4041   -1.0434 H   0  0  0  0  0  0  0  0  0  0  0  0
   -2.7659    2.1092    0.6128 H   0  0  0  0  0  0  0  0  0  0  0  0
   -2.6219   -2.6140   -0.9924 H   0  0  0  0  0  0  0  0  0  0  0  0
   -2.5497   -1.0202    2.9556 H   0  0  0  0  0  0  0  0  0  0  0  0
  1  2  1  0
  2  3  1  0
  3  4  1  0
  4  5  1  0
  5  6  1  0
  6  7  1  0
  5  8  1  0
  8  9  2  0
  8 10  1  0
 10 11  1  0
 11 12  2  0
 11 13  1  0
 13 14  1  0
 14  5  1  0
 14 15  2  0
  1 16  1  0
  1 17  1  0
  1 18  1  0
  2 19  1  0
  2 20  1  0
  3 21  1  0
  3 22  1  0
  4 23  1  0
  4 24  1  0
  6 25  1  0
  6 26  1  0
  7 27  1  0
  7 28  1  0
  7 29  1  0
 10 30  1  0
 13 31  1  0
M  END
> <ID>
HT0336

> <Class>
0.0

> <Clusters>
28

> <Fold>
5

$$$$