
     RDKit          3D

 31 31  0  0  0  0  0  0  0  0999 V2000
    3.0160   -0.8992   -0.8832 C   0  0  0  0  0  0  0  0  0  0  0  0
    1.6132   -1.0211   -0.2843 C   0  0  0  0  0  0  0  0  0  0  0  0
    0.9101    0.3536   -0.0849 C   0  0  0  0  0  0  0  0  0  0  0  0
    1.6451    1.1706    1.0041 C   0  0  0  0  0  0  0  0  0  0  0  0
   -0.6456    0.1824    0.1645 C   0  0  0  0  0  0  0  0  0  0  0  0
   -1.3829    1.5330    0.4614 C   0  0  0  0  0  0  0  0  0  0  0  0
   -1.1837    2.6603   -0.5612 C   0  0  0  0  0  0  0  0  0  0  0  0
   -1.2707   -0.4228   -1.1005 C   0  0  0  0  0  0  0  0  0  0  0  0
   -1.0833    0.1374   -2.2147 O   0  0  0  0  0  0  0  0  0  0  0  0
   -2.0389   -1.6282   -1.0763 N   0  0  0  0  0  0  0  0  0  0  0  0
   -2.1570   -2.4105    0.1035 C   0  0  0  0  0  0  0  0  0  0  0  0
   -2.7949   -3.4964    0.0791 O   0  0  0  0  0  0  0  0  0  0  0  0
   -1.5530   -1.9670    1.3104 N   0  0  0  0  0  0  0  0  0  0  0  0
   -0.8734   -0.7118    1.3902 C   0  0  0  0  0  0  0  0  0  0  0  0
   -0.4703   -0.3278    2.5216 O   0  0  0  0  0  0  0  0  0  0  0  0
    3.7176   -0.4383   -0.1581 H   0  0  0  0  0  0  0  0  0  0  0  0
    3.3999   -1.9114   -1.1312 H   0  0  0  0  0  0  0  0  0  0  0  0
    2.9918   -0.2951   -1.8149 H   0  0  0  0  0  0  0  0  0  0  0  0
    1.6814   -1.5630    0.6840 H   0  0  0  0  0  0  0  0  0  0  0  0
    1.0205   -1.6576   -0.9745 H   0  0  0  0  0  0  0  0  0  0  0  0
    1.0379    0.9214   -1.0326 H   0  0  0  0  0  0  0  0  0  0  0  0
    1.1359    2.1278    1.2240 H   0  0  0  0  0  0  0  0  0  0  0  0
    1.7559    0.5922    1.9436 H   0  0  0  0  0  0  0  0  0  0  0  0
    2.6613    1.4440    0.6534 H   0  0  0  0  0  0  0  0  0  0  0  0
   -2.4760    1.3358    0.5362 H   0  0  0  0  0  0  0  0  0  0  0  0
   -1.0861    1.9275    1.4568 H   0  0  0  0  0  0  0  0  0  0  0  0
   -1.6700    3.5826   -0.1791 H   0  0  0  0  0  0  0  0  0  0  0  0
   -1.6628    2.4160   -1.5297 H   0  0  0  0  0  0  0  0  0  0  0  0
   -0.1112    2.8890   -0.7187 H   0  0  0  0  0  0  0  0  0  0  0  0
   -2.4791   -1.9711   -1.9600 H   0  0  0  0  0  0  0  0  0  0  0  0
   -1.6476   -2.5522    2.1711 H   0  0  0  0  0  0  0  0  0  0  0  0
  1  2  1  0
  2  3  1  0
  3  4  1  0
  3  5  1  0
  5  6  1  0
  6  7  1  0
  5  8  1  0
  8  9  2  0
  8 10  1  0
 10 11  1  0
 11 12  2  0
 11 13  1  0
 13 14  1  0
 14  5  1  0
 14 15  2  0
  1 16  1  0
  1 17  1  0
  1 18  1  0
  2 19  1  0
  2 20  1  0
  3 21  1  0
  4 22  1  0
  4 23  1  0
  4 24  1  0
  6 25  1  0
  6 26  1  0
  7 27  1  0
  7 28  1  0
  7 29  1  0
 10 30  1  0
 13 31  1  0
M  END
> <ID>
HT0333

> <Class>
0.0

> <Clusters>
258

> <Fold>
5

$$$$