
     RDKit          3D

 37 37  0  0  0  0  0  0  0  0999 V2000
    3.3666   -2.0247   -1.1561 C   0  0  0  0  0  0  0  0  0  0  0  0
    3.7553   -1.2576    0.1078 C   0  0  0  0  0  0  0  0  0  0  0  0
    3.2033    0.1163    0.0902 N   0  0  0  0  0  0  0  0  0  0  0  0
    3.9053    0.9697    1.0754 C   0  0  0  0  0  0  0  0  0  0  0  0
    3.7067    2.4511    0.7559 C   0  0  0  0  0  0  0  0  0  0  0  0
    1.7321    0.1240    0.3028 C   0  0  0  0  0  0  0  0  0  0  0  0
    1.0405    0.6672   -0.9486 C   0  0  0  0  0  0  0  0  0  0  0  0
   -0.3724    0.7225   -0.7617 O   0  0  0  0  0  0  0  0  0  0  0  0
   -1.2009   -0.4058   -0.7766 C   0  0  0  0  0  0  0  0  0  0  0  0
   -0.7092   -1.5413   -1.0267 O   0  0  0  0  0  0  0  0  0  0  0  0
   -2.6505   -0.2835   -0.4787 C   0  0  0  0  0  0  0  0  0  0  0  0
   -3.3501   -1.4234   -0.0377 C   0  0  0  0  0  0  0  0  0  0  0  0
   -4.7095   -1.3542    0.2727 C   0  0  0  0  0  0  0  0  0  0  0  0
   -5.4011   -0.1461    0.1451 C   0  0  0  0  0  0  0  0  0  0  0  0
   -6.7937   -0.0767    0.4633 N   0  0  0  0  0  0  0  0  0  0  0  0
   -4.7225    0.9931   -0.3019 C   0  0  0  0  0  0  0  0  0  0  0  0
   -3.3584    0.9368   -0.6168 C   0  0  0  0  0  0  0  0  0  0  0  0
   -2.6156    2.4108   -1.2330 Cl  0  0  0  0  0  0  0  0  0  0  0  0
    3.6538   -1.4434   -2.0579 H   0  0  0  0  0  0  0  0  0  0  0  0
    2.2756   -2.2244   -1.1815 H   0  0  0  0  0  0  0  0  0  0  0  0
    3.8969   -3.0001   -1.1768 H   0  0  0  0  0  0  0  0  0  0  0  0
    4.8674   -1.2306    0.1270 H   0  0  0  0  0  0  0  0  0  0  0  0
    3.4198   -1.8125    1.0128 H   0  0  0  0  0  0  0  0  0  0  0  0
    3.5637    0.7500    2.1122 H   0  0  0  0  0  0  0  0  0  0  0  0
    5.0024    0.7872    1.0424 H   0  0  0  0  0  0  0  0  0  0  0  0
    4.3313    3.0657    1.4381 H   0  0  0  0  0  0  0  0  0  0  0  0
    4.0127    2.6584   -0.2916 H   0  0  0  0  0  0  0  0  0  0  0  0
    2.6472    2.7504    0.8922 H   0  0  0  0  0  0  0  0  0  0  0  0
    1.3341   -0.8892    0.5306 H   0  0  0  0  0  0  0  0  0  0  0  0
    1.4308    0.7567    1.1677 H   0  0  0  0  0  0  0  0  0  0  0  0
    1.2850    0.0462   -1.8373 H   0  0  0  0  0  0  0  0  0  0  0  0
    1.4067    1.6972   -1.1429 H   0  0  0  0  0  0  0  0  0  0  0  0
   -2.8414   -2.3722    0.0818 H   0  0  0  0  0  0  0  0  0  0  0  0
   -5.2234   -2.2436    0.6156 H   0  0  0  0  0  0  0  0  0  0  0  0
   -7.3091   -0.9222    0.7956 H   0  0  0  0  0  0  0  0  0  0  0  0
   -7.3198    0.8207    0.3696 H   0  0  0  0  0  0  0  0  0  0  0  0
   -5.2595    1.9273   -0.4134 H   0  0  0  0  0  0  0  0  0  0  0  0
  1  2  1  0
  2  3  1  0
  3  4  1  0
  4  5  1  0
  3  6  1  0
  6  7  1  0
  7  8  1  0
  8  9  1  0
  9 10  2  0
  9 11  1  0
 11 12  2  0
 12 13  1  0
 13 14  2  0
 14 15  1  0
 14 16  1  0
 16 17  2  0
 17 11  1  0
 17 18  1  0
  1 19  1  0
  1 20  1  0
  1 21  1  0
  2 22  1  0
  2 23  1  0
  4 24  1  0
  4 25  1  0
  5 26  1  0
  5 27  1  0
  5 28  1  0
  6 29  1  0
  6 30  1  0
  7 31  1  0
  7 32  1  0
 12 33  1  0
 13 34  1  0
 15 35  1  0
 15 36  1  0
 16 37  1  0
M  END
> <ID>
HT0457

> <Class>
0.0

> <Clusters>
204

> <Fold>
5

$$$$