
     RDKit          3D

 45 46  0  0  0  0  0  0  0  0999 V2000
   -5.0766    0.8489   -0.4373 C   0  0  0  0  0  0  0  0  0  0  0  0
   -4.5428   -0.3798    0.3340 C   0  0  0  0  0  0  0  0  0  0  0  0
   -4.9188   -1.6776   -0.4145 C   0  0  0  0  0  0  0  0  0  0  0  0
   -5.2225   -0.4199    1.7189 C   0  0  0  0  0  0  0  0  0  0  0  0
   -3.0752   -0.3046    0.5477 N   0  0  0  0  0  0  0  0  0  0  0  0
   -2.2694   -0.1185   -0.6716 C   0  0  0  0  0  0  0  0  0  0  0  0
   -0.7857   -0.3425   -0.3536 C   0  0  0  0  0  0  0  0  0  0  0  0
   -0.6068   -1.6563    0.1102 O   0  0  0  0  0  0  0  0  0  0  0  0
    0.0738   -0.1122   -1.6087 C   0  0  0  0  0  0  0  0  0  0  0  0
    1.4620   -0.2809   -1.3180 O   0  0  0  0  0  0  0  0  0  0  0  0
    2.2561    0.5969   -0.5581 C   0  0  0  0  0  0  0  0  0  0  0  0
    1.7997    1.8742   -0.1752 C   0  0  0  0  0  0  0  0  0  0  0  0
    2.6033    2.7105    0.6011 C   0  0  0  0  0  0  0  0  0  0  0  0
    3.8724    2.2935    0.9996 C   0  0  0  0  0  0  0  0  0  0  0  0
    4.3538    1.0371    0.6143 C   0  0  0  0  0  0  0  0  0  0  0  0
    5.6693    0.6223    1.0088 N   0  0  0  0  0  0  0  0  0  0  0  0
    6.2685   -0.5363    0.4221 C   0  0  0  0  0  0  0  0  0  0  0  0
    7.4049   -0.9219    0.8047 O   0  0  0  0  0  0  0  0  0  0  0  0
    5.5720   -1.2408   -0.7030 C   0  0  0  0  0  0  0  0  0  0  0  0
    4.0514   -1.2066   -0.5042 C   0  0  0  0  0  0  0  0  0  0  0  0
    3.5494    0.1842   -0.1729 C   0  0  0  0  0  0  0  0  0  0  0  0
   -6.1878    0.8397   -0.4654 H   0  0  0  0  0  0  0  0  0  0  0  0
   -4.7187    0.8509   -1.4884 H   0  0  0  0  0  0  0  0  0  0  0  0
   -4.7451    1.7891    0.0533 H   0  0  0  0  0  0  0  0  0  0  0  0
   -6.0179   -1.8419   -0.3888 H   0  0  0  0  0  0  0  0  0  0  0  0
   -4.6270   -1.6367   -1.4838 H   0  0  0  0  0  0  0  0  0  0  0  0
   -4.4218   -2.5524    0.0573 H   0  0  0  0  0  0  0  0  0  0  0  0
   -6.3263   -0.5107    1.6216 H   0  0  0  0  0  0  0  0  0  0  0  0
   -4.8491   -1.2859    2.3072 H   0  0  0  0  0  0  0  0  0  0  0  0
   -5.0029    0.5078    2.2904 H   0  0  0  0  0  0  0  0  0  0  0  0
   -2.8657    0.5015    1.1843 H   0  0  0  0  0  0  0  0  0  0  0  0
   -2.4004    0.9159   -1.0606 H   0  0  0  0  0  0  0  0  0  0  0  0
   -2.5666   -0.8375   -1.4617 H   0  0  0  0  0  0  0  0  0  0  0  0
   -0.4910    0.3838    0.4383 H   0  0  0  0  0  0  0  0  0  0  0  0
    0.2429   -1.6677    0.6238 H   0  0  0  0  0  0  0  0  0  0  0  0
   -0.1087    0.8914   -2.0489 H   0  0  0  0  0  0  0  0  0  0  0  0
   -0.2086   -0.8620   -2.3784 H   0  0  0  0  0  0  0  0  0  0  0  0
    0.8234    2.2329   -0.4672 H   0  0  0  0  0  0  0  0  0  0  0  0
    2.2401    3.6869    0.8949 H   0  0  0  0  0  0  0  0  0  0  0  0
    4.4856    2.9530    1.6007 H   0  0  0  0  0  0  0  0  0  0  0  0
    6.2122    1.1838    1.7034 H   0  0  0  0  0  0  0  0  0  0  0  0
    5.8331   -0.7339   -1.6568 H   0  0  0  0  0  0  0  0  0  0  0  0
    5.9124   -2.2973   -0.7614 H   0  0  0  0  0  0  0  0  0  0  0  0
    3.5727   -1.5934   -1.4292 H   0  0  0  0  0  0  0  0  0  0  0  0
    3.7767   -1.8868    0.3309 H   0  0  0  0  0  0  0  0  0  0  0  0
  1  2  1  0
  2  3  1  0
  2  4  1  0
  2  5  1  0
  5  6  1  0
  6  7  1  0
  7  8  1  0
  7  9  1  0
  9 10  1  0
 10 11  1  0
 11 12  2  0
 12 13  1  0
 13 14  2  0
 14 15  1  0
 15 16  1  0
 16 17  1  0
 17 18  2  0
 17 19  1  0
 19 20  1  0
 20 21  1  0
 21 11  1  0
 21 15  2  0
  1 22  1  0
  1 23  1  0
  1 24  1  0
  3 25  1  0
  3 26  1  0
  3 27  1  0
  4 28  1  0
  4 29  1  0
  4 30  1  0
  5 31  1  0
  6 32  1  0
  6 33  1  0
  7 34  1  0
  8 35  1  0
  9 36  1  0
  9 37  1  0
 12 38  1  0
 13 39  1  0
 14 40  1  0
 16 41  1  0
 19 42  1  0
 19 43  1  0
 20 44  1  0
 20 45  1  0
M  END
> <ID>
HT0389

> <Class>
0.0

> <Clusters>
145

> <Fold>
5

$$$$