
     RDKit          3D

 44 46  0  0  0  0  0  0  0  0999 V2000
   -4.5208   -1.6059    0.1622 C   0  0  0  0  0  0  0  0  0  0  0  0
   -3.4566   -0.5412    0.5015 C   0  0  0  0  0  0  0  0  0  0  0  0
   -3.7229    0.0217    1.9052 C   0  0  0  0  0  0  0  0  0  0  0  0
   -1.8081   -1.3931    0.5015 S   0  0  0  0  0  0  0  0  0  0  0  0
   -1.5484   -0.9743   -1.2574 C   0  0  2  0  0  0  0  0  0  0  0  0
   -0.3088   -0.3445   -1.6546 C   0  0  2  0  0  0  0  0  0  0  0  0
    0.6383   -0.1354   -0.5568 N   0  0  0  0  0  0  0  0  0  0  0  0
    1.6954   -1.0657   -0.2852 C   0  0  0  0  0  0  0  0  0  0  0  0
    1.8762   -2.0554   -1.0486 O   0  0  0  0  0  0  0  0  0  0  0  0
    2.6081   -0.8265    0.8932 C   0  0  0  0  0  0  0  0  0  0  0  0
    3.3759   -2.0625    1.2886 C   0  0  0  0  0  0  0  0  0  0  0  0
    3.1799   -2.5899    2.4171 O   0  0  0  0  0  0  0  0  0  0  0  0
    4.3021   -2.6285    0.4160 O   0  0  0  0  0  0  0  0  0  0  0  0
    3.5535    0.3252    0.6178 C   0  0  0  0  0  0  0  0  0  0  0  0
    3.6255    1.4080    1.5139 C   0  0  0  0  0  0  0  0  0  0  0  0
    4.4961    2.4747    1.2689 C   0  0  0  0  0  0  0  0  0  0  0  0
    5.3056    2.4715    0.1309 C   0  0  0  0  0  0  0  0  0  0  0  0
    5.2460    1.4017   -0.7655 C   0  0  0  0  0  0  0  0  0  0  0  0
    4.3764    0.3327   -0.5260 C   0  0  0  0  0  0  0  0  0  0  0  0
   -1.1001    0.8933   -1.9433 C   0  0  0  0  0  0  0  0  0  0  0  0
   -0.8305    2.0483   -2.3656 O   0  0  0  0  0  0  0  0  0  0  0  0
   -2.3198    0.2152   -1.4465 N   0  0  0  0  0  0  0  0  0  0  0  0
   -3.3823    0.6101   -0.5544 C   0  0  1  0  0  0  0  0  0  0  0  0
   -4.6605    0.8776   -1.3048 C   0  0  0  0  0  0  0  0  0  0  0  0
   -4.7595    0.5975   -2.5306 O   0  0  0  0  0  0  0  0  0  0  0  0
   -5.7423    1.4421   -0.6353 O   0  0  0  0  0  0  0  0  0  0  0  0
   -5.5460   -1.1842    0.2376 H   0  0  0  0  0  0  0  0  0  0  0  0
   -4.4522   -2.4605    0.8699 H   0  0  0  0  0  0  0  0  0  0  0  0
   -4.3684   -1.9951   -0.8673 H   0  0  0  0  0  0  0  0  0  0  0  0
   -3.7485   -0.7982    2.6548 H   0  0  0  0  0  0  0  0  0  0  0  0
   -2.9201    0.7321    2.1978 H   0  0  0  0  0  0  0  0  0  0  0  0
   -4.6966    0.5560    1.9303 H   0  0  0  0  0  0  0  0  0  0  0  0
   -1.8827   -1.7798   -1.9480 H   0  0  0  0  0  0  0  0  0  0  0  0
    0.1574   -0.7633   -2.5735 H   0  0  0  0  0  0  0  0  0  0  0  0
    0.5089    0.6786    0.0889 H   0  0  0  0  0  0  0  0  0  0  0  0
    1.9495   -0.5602    1.7510 H   0  0  0  0  0  0  0  0  0  0  0  0
    4.8213   -3.4593    0.6756 H   0  0  0  0  0  0  0  0  0  0  0  0
    3.0080    1.4288    2.4028 H   0  0  0  0  0  0  0  0  0  0  0  0
    4.5437    3.3042    1.9628 H   0  0  0  0  0  0  0  0  0  0  0  0
    5.9785    3.2985   -0.0565 H   0  0  0  0  0  0  0  0  0  0  0  0
    5.8733    1.4008   -1.6475 H   0  0  0  0  0  0  0  0  0  0  0  0
    4.3410   -0.4852   -1.2348 H   0  0  0  0  0  0  0  0  0  0  0  0
   -3.0727    1.5612   -0.0671 H   0  0  0  0  0  0  0  0  0  0  0  0
   -6.6128    1.6291   -1.1188 H   0  0  0  0  0  0  0  0  0  0  0  0
  1  2  1  0
  2  3  1  0
  2  4  1  0
  5  4  1  0
  5  6  1  0
  6  7  1  0
  7  8  1  0
  8  9  2  0
  8 10  1  0
 10 11  1  0
 11 12  2  0
 11 13  1  0
 10 14  1  0
 14 15  2  0
 15 16  1  0
 16 17  2  0
 17 18  1  0
 18 19  2  0
 19 14  1  0
  6 20  1  0
 20 21  2  0
 20 22  1  0
 22  5  1  0
 22 23  1  0
 23  2  1  0
 23 24  1  0
 24 25  2  0
 24 26  1  0
  1 27  1  0
  1 28  1  0
  1 29  1  0
  3 30  1  0
  3 31  1  0
  3 32  1  0
  5 33  1  6
  6 34  1  6
  7 35  1  0
 10 36  1  0
 13 37  1  0
 15 38  1  0
 16 39  1  0
 17 40  1  0
 18 41  1  0
 19 42  1  0
 23 43  1  1
 26 44  1  0
M  END
> <ID>
HT0373

> <Class>
0.0

> <Clusters>
18

> <Fold>
5

$$$$