
     RDKit          3D

 61 65  0  0  0  0  0  0  0  0999 V2000
   -6.2086   -1.2853    1.1547 C   0  0  0  0  0  0  0  0  0  0  0  0
   -4.8435   -0.5881    0.9925 C   0  0  0  0  0  0  0  0  0  0  0  0
   -3.8054   -1.3508    1.8357 C   0  0  0  0  0  0  0  0  0  0  0  0
   -4.3157   -0.7044   -0.7869 S   0  0  0  0  0  0  0  0  0  0  0  0
   -3.8121    1.0533   -0.8783 C   0  0  2  0  0  0  0  0  0  0  0  0
   -2.4046    1.3786   -0.9168 C   0  0  2  0  0  0  0  0  0  0  0  0
   -1.5114    0.2177   -0.9243 N   0  0  0  0  0  0  0  0  0  0  0  0
   -0.7373   -0.1384   -2.0786 C   0  0  0  0  0  0  0  0  0  0  0  0
   -0.9426    0.4497   -3.1761 O   0  0  0  0  0  0  0  0  0  0  0  0
    0.2708   -1.2649   -1.9918 C   0  0  0  0  0  0  0  0  0  0  0  0
    1.1339   -1.1353   -0.7659 C   0  0  0  0  0  0  0  0  0  0  0  0
    1.5368   -2.1766   -0.1797 O   0  0  0  0  0  0  0  0  0  0  0  0
    1.4608    0.1376   -0.2772 O   0  0  0  0  0  0  0  0  0  0  0  0
    2.4594    0.4110    0.6664 C   0  0  0  0  0  0  0  0  0  0  0  0
    2.2907    1.5206    1.5162 C   0  0  0  0  0  0  0  0  0  0  0  0
    3.2673    1.8432    2.4698 C   0  0  0  0  0  0  0  0  0  0  0  0
    4.4143    1.0527    2.5507 C   0  0  0  0  0  0  0  0  0  0  0  0
    5.5521    1.2370    3.4791 C   0  0  0  0  0  0  0  0  0  0  0  0
    6.5316    0.1095    3.0985 C   0  0  0  0  0  0  0  0  0  0  0  0
    5.8877   -0.7003    1.9568 C   0  0  0  0  0  0  0  0  0  0  0  0
    4.5963   -0.0184    1.7152 C   0  0  0  0  0  0  0  0  0  0  0  0
    3.6373   -0.3619    0.7594 C   0  0  0  0  0  0  0  0  0  0  0  0
    1.1519   -1.3482   -3.2233 C   0  0  0  0  0  0  0  0  0  0  0  0
    1.1108   -2.4874   -4.0471 C   0  0  0  0  0  0  0  0  0  0  0  0
    1.9255   -2.5700   -5.1806 C   0  0  0  0  0  0  0  0  0  0  0  0
    2.7880   -1.5194   -5.5028 C   0  0  0  0  0  0  0  0  0  0  0  0
    2.8369   -0.3825   -4.6930 C   0  0  0  0  0  0  0  0  0  0  0  0
    2.0248   -0.2944   -3.5587 C   0  0  0  0  0  0  0  0  0  0  0  0
   -2.5597    1.9483    0.4574 C   0  0  0  0  0  0  0  0  0  0  0  0
   -1.7868    2.4808    1.2949 O   0  0  0  0  0  0  0  0  0  0  0  0
   -3.9882    1.5539    0.4497 N   0  0  0  0  0  0  0  0  0  0  0  0
   -4.8466    0.9191    1.4143 C   0  0  1  0  0  0  0  0  0  0  0  0
   -6.1962    1.5865    1.3749 C   0  0  0  0  0  0  0  0  0  0  0  0
   -6.8004    1.7456    0.2799 O   0  0  0  0  0  0  0  0  0  0  0  0
   -6.7801    2.0296    2.5572 O   0  0  0  0  0  0  0  0  0  0  0  0
   -6.1201   -2.3708    0.9327 H   0  0  0  0  0  0  0  0  0  0  0  0
   -6.5846   -1.1679    2.1938 H   0  0  0  0  0  0  0  0  0  0  0  0
   -6.9561   -0.8649    0.4502 H   0  0  0  0  0  0  0  0  0  0  0  0
   -4.1145   -1.3772    2.9029 H   0  0  0  0  0  0  0  0  0  0  0  0
   -3.6984   -2.3966    1.4753 H   0  0  0  0  0  0  0  0  0  0  0  0
   -2.8121   -0.8595    1.7767 H   0  0  0  0  0  0  0  0  0  0  0  0
   -4.4198    1.6336   -1.6068 H   0  0  0  0  0  0  0  0  0  0  0  0
   -2.1349    2.1579   -1.6628 H   0  0  0  0  0  0  0  0  0  0  0  0
   -1.4302   -0.3739   -0.0665 H   0  0  0  0  0  0  0  0  0  0  0  0
   -0.3193   -2.2029   -1.8917 H   0  0  0  0  0  0  0  0  0  0  0  0
    1.3968    2.1263    1.4406 H   0  0  0  0  0  0  0  0  0  0  0  0
    3.1338    2.6919    3.1280 H   0  0  0  0  0  0  0  0  0  0  0  0
    6.0153    2.2359    3.3265 H   0  0  0  0  0  0  0  0  0  0  0  0
    5.2091    1.1275    4.5305 H   0  0  0  0  0  0  0  0  0  0  0  0
    7.4997    0.5415    2.7626 H   0  0  0  0  0  0  0  0  0  0  0  0
    6.7214   -0.5471    3.9757 H   0  0  0  0  0  0  0  0  0  0  0  0
    5.7123   -1.7532    2.2647 H   0  0  0  0  0  0  0  0  0  0  0  0
    6.5163   -0.6668    1.0414 H   0  0  0  0  0  0  0  0  0  0  0  0
    3.8232   -1.1895    0.0888 H   0  0  0  0  0  0  0  0  0  0  0  0
    0.4500   -3.3127   -3.8137 H   0  0  0  0  0  0  0  0  0  0  0  0
    1.8882   -3.4499   -5.8094 H   0  0  0  0  0  0  0  0  0  0  0  0
    3.4179   -1.5860   -6.3804 H   0  0  0  0  0  0  0  0  0  0  0  0
    3.5045    0.4314   -4.9442 H   0  0  0  0  0  0  0  0  0  0  0  0
    2.0734    0.5950   -2.9430 H   0  0  0  0  0  0  0  0  0  0  0  0
   -4.4218    1.0550    2.4337 H   0  0  0  0  0  0  0  0  0  0  0  0
   -7.6876    2.4792    2.5517 H   0  0  0  0  0  0  0  0  0  0  0  0
  1  2  1  0
  2  3  1  0
  2  4  1  0
  5  4  1  0
  5  6  1  0
  6  7  1  0
  7  8  1  0
  8  9  2  0
  8 10  1  0
 10 11  1  0
 11 12  2  0
 11 13  1  0
 13 14  1  0
 14 15  2  0
 15 16  1  0
 16 17  2  0
 17 18  1  0
 18 19  1  0
 19 20  1  0
 20 21  1  0
 21 17  1  0
 21 22  2  0
 22 14  1  0
 10 23  1  0
 23 24  2  0
 24 25  1  0
 25 26  2  0
 26 27  1  0
 27 28  2  0
 28 23  1  0
  6 29  1  0
 29 30  2  0
 29 31  1  0
 31  5  1  0
 31 32  1  0
 32  2  1  0
 32 33  1  0
 33 34  2  0
 33 35  1  0
  1 36  1  0
  1 37  1  0
  1 38  1  0
  3 39  1  0
  3 40  1  0
  3 41  1  0
  5 42  1  6
  6 43  1  6
  7 44  1  0
 10 45  1  0
 15 46  1  0
 16 47  1  0
 18 48  1  0
 18 49  1  0
 19 50  1  0
 19 51  1  0
 20 52  1  0
 20 53  1  0
 22 54  1  0
 24 55  1  0
 25 56  1  0
 26 57  1  0
 27 58  1  0
 28 59  1  0
 32 60  1  1
 35 61  1  0
M  END
> <ID>
HT0374

> <Class>
0.0

> <Clusters>
18

> <Fold>
5

$$$$