
     RDKit          3D

 51 53  0  0  0  0  0  0  0  0999 V2000
    0.5885   -1.1042    2.7738 C   0  0  0  0  0  0  0  0  0  0  0  0
    1.3047   -0.4469    1.6691 N   0  0  0  0  0  0  0  0  0  0  0  0
    0.7030    0.8523    1.2806 C   0  0  0  0  0  0  0  0  0  0  0  0
   -0.6881    0.7436    0.6869 C   0  0  0  0  0  0  0  0  0  0  0  0
   -1.8107    0.6004    1.5133 C   0  0  0  0  0  0  0  0  0  0  0  0
   -3.0943    0.5244    0.9664 C   0  0  0  0  0  0  0  0  0  0  0  0
   -3.2963    0.6110   -0.4307 C   0  0  0  0  0  0  0  0  0  0  0  0
   -2.1587    0.7984   -1.2462 C   0  0  0  0  0  0  0  0  0  0  0  0
   -0.8784    0.8755   -0.6943 C   0  0  0  0  0  0  0  0  0  0  0  0
   -4.6938    0.5291   -1.0790 C   0  0  0  0  0  0  0  0  0  0  0  0
   -5.8277    0.3006   -0.0503 C   0  0  0  0  0  0  0  0  0  0  0  0
   -4.7285   -0.6452   -2.0817 C   0  0  0  0  0  0  0  0  0  0  0  0
   -4.9934    1.8481   -1.8235 C   0  0  0  0  0  0  0  0  0  0  0  0
    1.5104   -1.3785    0.5388 C   0  0  0  0  0  0  0  0  0  0  0  0
    2.6047   -0.8858   -0.3873 C   0  0  0  0  0  0  0  0  0  0  0  0
    2.2816   -0.6394   -1.7332 C   0  0  0  0  0  0  0  0  0  0  0  0
    3.2388   -0.1544   -2.6221 C   0  0  0  0  0  0  0  0  0  0  0  0
    4.5416    0.0839   -2.1922 C   0  0  0  0  0  0  0  0  0  0  0  0
    4.9058   -0.1782   -0.8649 C   0  0  0  0  0  0  0  0  0  0  0  0
    6.2259    0.0485   -0.4446 C   0  0  0  0  0  0  0  0  0  0  0  0
    6.6023   -0.2232    0.8705 C   0  0  0  0  0  0  0  0  0  0  0  0
    5.6700   -0.7303    1.7746 C   0  0  0  0  0  0  0  0  0  0  0  0
    4.3521   -0.9621    1.3736 C   0  0  0  0  0  0  0  0  0  0  0  0
    3.9415   -0.6787    0.0524 C   0  0  0  0  0  0  0  0  0  0  0  0
    0.3804   -0.3818    3.5920 H   0  0  0  0  0  0  0  0  0  0  0  0
    1.2237   -1.9073    3.2042 H   0  0  0  0  0  0  0  0  0  0  0  0
   -0.3630   -1.5597    2.4233 H   0  0  0  0  0  0  0  0  0  0  0  0
    0.6695    1.5262    2.1643 H   0  0  0  0  0  0  0  0  0  0  0  0
    1.3812    1.3635    0.5633 H   0  0  0  0  0  0  0  0  0  0  0  0
   -1.6975    0.5569    2.5886 H   0  0  0  0  0  0  0  0  0  0  0  0
   -3.9155    0.4041    1.6568 H   0  0  0  0  0  0  0  0  0  0  0  0
   -2.2546    0.8953   -2.3190 H   0  0  0  0  0  0  0  0  0  0  0  0
   -0.0350    1.0452   -1.3493 H   0  0  0  0  0  0  0  0  0  0  0  0
   -5.8836    1.1433    0.6728 H   0  0  0  0  0  0  0  0  0  0  0  0
   -6.8142    0.2350   -0.5587 H   0  0  0  0  0  0  0  0  0  0  0  0
   -5.6733   -0.6504    0.5040 H   0  0  0  0  0  0  0  0  0  0  0  0
   -5.7433   -0.7583   -2.5218 H   0  0  0  0  0  0  0  0  0  0  0  0
   -4.0185   -0.4884   -2.9207 H   0  0  0  0  0  0  0  0  0  0  0  0
   -4.4618   -1.5962   -1.5713 H   0  0  0  0  0  0  0  0  0  0  0  0
   -6.0130    1.8281   -2.2662 H   0  0  0  0  0  0  0  0  0  0  0  0
   -4.9335    2.7096   -1.1231 H   0  0  0  0  0  0  0  0  0  0  0  0
   -4.2744    2.0217   -2.6514 H   0  0  0  0  0  0  0  0  0  0  0  0
    1.8241   -2.3780    0.9141 H   0  0  0  0  0  0  0  0  0  0  0  0
    0.5550   -1.5445   -0.0058 H   0  0  0  0  0  0  0  0  0  0  0  0
    1.2803   -0.8230   -2.1014 H   0  0  0  0  0  0  0  0  0  0  0  0
    2.9682    0.0373   -3.6526 H   0  0  0  0  0  0  0  0  0  0  0  0
    5.2682    0.4638   -2.9004 H   0  0  0  0  0  0  0  0  0  0  0  0
    6.9673    0.4337   -1.1347 H   0  0  0  0  0  0  0  0  0  0  0  0
    7.6218   -0.0466    1.1882 H   0  0  0  0  0  0  0  0  0  0  0  0
    5.9704   -0.9474    2.7914 H   0  0  0  0  0  0  0  0  0  0  0  0
    3.6703   -1.3710    2.1049 H   0  0  0  0  0  0  0  0  0  0  0  0
  1  2  1  0
  2  3  1  0
  3  4  1  0
  4  5  2  0
  5  6  1  0
  6  7  2  0
  7  8  1  0
  8  9  2  0
  9  4  1  0
  7 10  1  0
 10 11  1  0
 10 12  1  0
 10 13  1  0
  2 14  1  0
 14 15  1  0
 15 16  2  0
 16 17  1  0
 17 18  2  0
 18 19  1  0
 19 20  2  0
 20 21  1  0
 21 22  2  0
 22 23  1  0
 23 24  2  0
 24 15  1  0
 24 19  1  0
  1 25  1  0
  1 26  1  0
  1 27  1  0
  3 28  1  0
  3 29  1  0
  5 30  1  0
  6 31  1  0
  8 32  1  0
  9 33  1  0
 11 34  1  0
 11 35  1  0
 11 36  1  0
 12 37  1  0
 12 38  1  0
 12 39  1  0
 13 40  1  0
 13 41  1  0
 13 42  1  0
 14 43  1  0
 14 44  1  0
 16 45  1  0
 17 46  1  0
 18 47  1  0
 20 48  1  0
 21 49  1  0
 22 50  1  0
 23 51  1  0
M  END
> <ID>
HT0335

> <Class>
0.0

> <Clusters>
39

> <Fold>
5

$$$$