
     RDKit          3D

 10  9  0  0  0  0  0  0  0  0999 V2000
   -1.1445   -0.2330   -0.0383 C   0  0  0  0  0  0  0  0  0  0  0  0
    0.2159    0.4196    0.1912 C   0  0  0  0  0  0  0  0  0  0  0  0
    1.2679   -0.3697   -0.4437 N   0  0  0  0  0  0  0  0  0  0  0  0
    0.2076    2.0666   -0.4971 Cl  0  0  0  0  0  0  0  0  0  0  0  0
   -1.9425    0.3775    0.4352 H   0  0  0  0  0  0  0  0  0  0  0  0
   -1.3524   -0.3196   -1.1262 H   0  0  0  0  0  0  0  0  0  0  0  0
   -1.1626   -1.2470    0.4146 H   0  0  0  0  0  0  0  0  0  0  0  0
    0.4074    0.4945    1.2849 H   0  0  0  0  0  0  0  0  0  0  0  0
    2.1815    0.1059   -0.2624 H   0  0  0  0  0  0  0  0  0  0  0  0
    1.3216   -1.2949    0.0418 H   0  0  0  0  0  0  0  0  0  0  0  0
  1  2  1  0
  2  3  1  0
  2  4  1  0
  1  5  1  0
  1  6  1  0
  1  7  1  0
  2  8  1  0
  3  9  1  0
  3 10  1  0
M  END
> <ID>
HT0451

> <Class>
0.0

> <Clusters>
151

> <Fold>
5

$$$$