
     RDKit          3D

 32 32  0  0  0  0  0  0  0  0999 V2000
   -1.5661    2.2318    0.5754 C   0  0  0  0  0  0  0  0  0  0  0  0
   -1.9941    0.7631    0.4252 C   0  0  0  0  0  0  0  0  0  0  0  0
   -3.4873    0.7078    0.0621 C   0  0  0  0  0  0  0  0  0  0  0  0
   -1.1745   -0.0114   -0.6497 C   0  0  0  0  0  0  0  0  0  0  0  0
    0.3394   -0.3308   -0.3851 C   0  0  0  0  0  0  0  0  0  0  0  0
    1.2443    0.8913   -0.7375 C   0  0  0  0  0  0  0  0  0  0  0  0
    2.7186    0.5821   -0.5976 C   0  0  0  0  0  0  0  0  0  0  0  0
    3.4927    1.2062    0.2953 C   0  0  0  0  0  0  0  0  0  0  0  0
    0.5663   -0.7274    1.0745 C   0  0  0  0  0  0  0  0  0  0  0  0
    0.5905    0.1634    1.9667 O   0  0  0  0  0  0  0  0  0  0  0  0
    0.7545   -2.0884    1.4693 N   0  0  0  0  0  0  0  0  0  0  0  0
    0.9675   -3.1139    0.5071 C   0  0  0  0  0  0  0  0  0  0  0  0
    1.1532   -4.3018    0.8822 O   0  0  0  0  0  0  0  0  0  0  0  0
    0.9881   -2.7931   -0.8786 N   0  0  0  0  0  0  0  0  0  0  0  0
    0.7056   -1.4698   -1.3411 C   0  0  0  0  0  0  0  0  0  0  0  0
    0.7127   -1.2531   -2.5842 O   0  0  0  0  0  0  0  0  0  0  0  0
   -2.3519    2.8213    1.0946 H   0  0  0  0  0  0  0  0  0  0  0  0
   -1.3804    2.6959   -0.4167 H   0  0  0  0  0  0  0  0  0  0  0  0
   -0.6615    2.3125    1.2082 H   0  0  0  0  0  0  0  0  0  0  0  0
   -1.8948    0.2590    1.4097 H   0  0  0  0  0  0  0  0  0  0  0  0
   -4.0963    1.2091    0.8448 H   0  0  0  0  0  0  0  0  0  0  0  0
   -3.8325   -0.3461   -0.0052 H   0  0  0  0  0  0  0  0  0  0  0  0
   -3.6719    1.2093   -0.9125 H   0  0  0  0  0  0  0  0  0  0  0  0
   -1.2746    0.5145   -1.6256 H   0  0  0  0  0  0  0  0  0  0  0  0
   -1.6942   -0.9883   -0.7842 H   0  0  0  0  0  0  0  0  0  0  0  0
    1.0614    1.2129   -1.7857 H   0  0  0  0  0  0  0  0  0  0  0  0
    0.9943    1.7630   -0.1071 H   0  0  0  0  0  0  0  0  0  0  0  0
    3.1656   -0.1667   -1.2447 H   0  0  0  0  0  0  0  0  0  0  0  0
    3.0871    1.9600    0.9631 H   0  0  0  0  0  0  0  0  0  0  0  0
    4.5468    0.9585    0.3650 H   0  0  0  0  0  0  0  0  0  0  0  0
    0.7988   -2.3253    2.4862 H   0  0  0  0  0  0  0  0  0  0  0  0
    1.1928   -3.5459   -1.5740 H   0  0  0  0  0  0  0  0  0  0  0  0
  1  2  1  0
  2  3  1  0
  2  4  1  0
  4  5  1  0
  5  6  1  0
  6  7  1  0
  7  8  2  3
  5  9  1  0
  9 10  2  0
  9 11  1  0
 11 12  1  0
 12 13  2  0
 12 14  1  0
 14 15  1  0
 15  5  1  0
 15 16  2  0
  1 17  1  0
  1 18  1  0
  1 19  1  0
  2 20  1  0
  3 21  1  0
  3 22  1  0
  3 23  1  0
  4 24  1  0
  4 25  1  0
  6 26  1  0
  6 27  1  0
  7 28  1  0
  8 29  1  0
  8 30  1  0
 11 31  1  0
 14 32  1  0
M  END
> <ID>
HT0334

> <Class>
0.0

> <Clusters>
258

> <Fold>
5

$$$$