
     RDKit          3D

 42 41  0  0  0  0  0  0  0  0999 V2000
   -3.5896   -0.5220    3.2687 C   0  0  0  0  0  0  0  0  0  0  0  0
   -2.4748   -1.3066    2.5757 C   0  0  0  0  0  0  0  0  0  0  0  0
   -1.4023   -0.3856    1.9433 C   0  0  0  0  0  0  0  0  0  0  0  0
   -1.4958   -0.1708    0.3971 C   0  0  0  0  0  0  0  0  0  0  0  0
   -1.2317   -1.4969   -0.3554 C   0  0  0  0  0  0  0  0  0  0  0  0
   -2.8895    0.3843    0.0053 C   0  0  0  0  0  0  0  0  0  0  0  0
   -2.9718    0.6204   -1.4024 O   0  0  0  0  0  0  0  0  0  0  0  0
   -3.1489    1.8841   -1.9775 C   0  0  0  0  0  0  0  0  0  0  0  0
   -3.1547    2.9256   -1.2679 O   0  0  0  0  0  0  0  0  0  0  0  0
   -3.3065    1.9932   -3.3891 N   0  0  0  0  0  0  0  0  0  0  0  0
   -0.4145    0.8623   -0.0196 C   0  0  0  0  0  0  0  0  0  0  0  0
    0.8891    0.4191    0.3643 O   0  0  0  0  0  0  0  0  0  0  0  0
    1.9496    0.2226   -0.5268 C   0  0  0  0  0  0  0  0  0  0  0  0
    1.7993    0.4271   -1.7623 O   0  0  0  0  0  0  0  0  0  0  0  0
    3.2162   -0.2063   -0.0142 N   0  0  0  0  0  0  0  0  0  0  0  0
    4.3834   -0.4263   -0.8755 C   0  0  0  0  0  0  0  0  0  0  0  0
    4.9919    0.9174   -1.2907 C   0  0  0  0  0  0  0  0  0  0  0  0
    5.4266   -1.2809   -0.1472 C   0  0  0  0  0  0  0  0  0  0  0  0
   -4.3101   -1.2312    3.7287 H   0  0  0  0  0  0  0  0  0  0  0  0
   -4.1391    0.1157    2.5473 H   0  0  0  0  0  0  0  0  0  0  0  0
   -3.1670    0.1189    4.0711 H   0  0  0  0  0  0  0  0  0  0  0  0
   -1.9857   -1.9412    3.3477 H   0  0  0  0  0  0  0  0  0  0  0  0
   -2.9211   -2.0004    1.8353 H   0  0  0  0  0  0  0  0  0  0  0  0
   -0.4078   -0.8279    2.1763 H   0  0  0  0  0  0  0  0  0  0  0  0
   -1.4118    0.6031    2.4551 H   0  0  0  0  0  0  0  0  0  0  0  0
   -1.1211   -1.3133   -1.4461 H   0  0  0  0  0  0  0  0  0  0  0  0
   -2.0679   -2.2137   -0.2261 H   0  0  0  0  0  0  0  0  0  0  0  0
   -0.2986   -1.9785    0.0072 H   0  0  0  0  0  0  0  0  0  0  0  0
   -3.6815   -0.3480    0.2630 H   0  0  0  0  0  0  0  0  0  0  0  0
   -3.0977    1.3106    0.5834 H   0  0  0  0  0  0  0  0  0  0  0  0
   -3.4116    2.9279   -3.8409 H   0  0  0  0  0  0  0  0  0  0  0  0
   -3.3254    1.1342   -3.9799 H   0  0  0  0  0  0  0  0  0  0  0  0
   -0.6121    1.8337    0.4826 H   0  0  0  0  0  0  0  0  0  0  0  0
   -0.4647    1.0523   -1.1136 H   0  0  0  0  0  0  0  0  0  0  0  0
    3.2864   -0.3922    1.0122 H   0  0  0  0  0  0  0  0  0  0  0  0
    4.0691   -0.9798   -1.7880 H   0  0  0  0  0  0  0  0  0  0  0  0
    4.2485    1.5198   -1.8540 H   0  0  0  0  0  0  0  0  0  0  0  0
    5.8751    0.7538   -1.9463 H   0  0  0  0  0  0  0  0  0  0  0  0
    5.3082    1.4931   -0.3937 H   0  0  0  0  0  0  0  0  0  0  0  0
    5.7802   -0.7662    0.7729 H   0  0  0  0  0  0  0  0  0  0  0  0
    6.2984   -1.4737   -0.8090 H   0  0  0  0  0  0  0  0  0  0  0  0
    4.9812   -2.2577    0.1373 H   0  0  0  0  0  0  0  0  0  0  0  0
  1  2  1  0
  2  3  1  0
  3  4  1  0
  4  5  1  0
  4  6  1  0
  6  7  1  0
  7  8  1  0
  8  9  2  0
  8 10  1  0
  4 11  1  0
 11 12  1  0
 12 13  1  0
 13 14  2  0
 13 15  1  0
 15 16  1  0
 16 17  1  0
 16 18  1  0
  1 19  1  0
  1 20  1  0
  1 21  1  0
  2 22  1  0
  2 23  1  0
  3 24  1  0
  3 25  1  0
  5 26  1  0
  5 27  1  0
  5 28  1  0
  6 29  1  0
  6 30  1  0
 10 31  1  0
 10 32  1  0
 11 33  1  0
 11 34  1  0
 15 35  1  0
 16 36  1  0
 17 37  1  0
 17 38  1  0
 17 39  1  0
 18 40  1  0
 18 41  1  0
 18 42  1  0
M  END
> <ID>
HT0385

> <Class>
0.0

> <Clusters>
43

> <Fold>
5

$$$$