
     RDKit          3D

 24 25  0  0  0  0  0  0  0  0999 V2000
   -2.2778   -2.2140   -0.0043 C   0  0  0  0  0  0  0  0  0  0  0  0
   -1.3856   -1.0422   -0.0075 N   0  0  0  0  0  0  0  0  0  0  0  0
   -1.8931    0.2450   -0.1022 C   0  0  0  0  0  0  0  0  0  0  0  0
   -3.1394    0.4255   -0.2042 O   0  0  0  0  0  0  0  0  0  0  0  0
   -1.0508    1.3367   -0.0904 N   0  0  0  0  0  0  0  0  0  0  0  0
   -1.5754    2.7023   -0.2248 C   0  0  0  0  0  0  0  0  0  0  0  0
    0.2889    1.1089   -0.0205 C   0  0  0  0  0  0  0  0  0  0  0  0
    1.2694    2.0348   -0.0329 N   0  0  0  0  0  0  0  0  0  0  0  0
    2.3969    1.2819    0.0557 C   0  0  0  0  0  0  0  0  0  0  0  0
    2.1458   -0.0489    0.1201 N   0  0  0  0  0  0  0  0  0  0  0  0
    3.1273   -1.1251    0.2097 C   0  0  0  0  0  0  0  0  0  0  0  0
    0.8064   -0.1372    0.0684 C   0  0  0  0  0  0  0  0  0  0  0  0
   -0.0280   -1.2467    0.0794 C   0  0  0  0  0  0  0  0  0  0  0  0
    0.4522   -2.4107    0.1630 O   0  0  0  0  0  0  0  0  0  0  0  0
   -3.3501   -1.9377   -0.0746 H   0  0  0  0  0  0  0  0  0  0  0  0
   -2.0394   -2.8695   -0.8690 H   0  0  0  0  0  0  0  0  0  0  0  0
   -2.1387   -2.7888    0.9363 H   0  0  0  0  0  0  0  0  0  0  0  0
   -1.7761    2.9198   -1.2950 H   0  0  0  0  0  0  0  0  0  0  0  0
   -2.5159    2.8187    0.3552 H   0  0  0  0  0  0  0  0  0  0  0  0
   -0.8572    3.4532    0.1680 H   0  0  0  0  0  0  0  0  0  0  0  0
    3.3923    1.7069    0.0705 H   0  0  0  0  0  0  0  0  0  0  0  0
    2.9509   -1.7174    1.1319 H   0  0  0  0  0  0  0  0  0  0  0  0
    3.0406   -1.7857   -0.6784 H   0  0  0  0  0  0  0  0  0  0  0  0
    4.1568   -0.7097    0.2457 H   0  0  0  0  0  0  0  0  0  0  0  0
  1  2  1  0
  2  3  1  0
  3  4  2  0
  3  5  1  0
  5  6  1  0
  5  7  1  0
  7  8  1  0
  8  9  2  0
  9 10  1  0
 10 11  1  0
 10 12  1  0
 12  7  2  0
 12 13  1  0
 13  2  1  0
 13 14  2  0
  1 15  1  0
  1 16  1  0
  1 17  1  0
  6 18  1  0
  6 19  1  0
  6 20  1  0
  9 21  1  0
 11 22  1  0
 11 23  1  0
 11 24  1  0
M  END
> <ID>
HT0348

> <Class>
0.0

> <Clusters>
259

> <Fold>
5

$$$$