
     RDKit          3D

 30 31  0  0  0  0  0  0  0  0999 V2000
   -6.1933    0.2624    0.1940 O   0  0  0  0  0  0  0  0  0  0  0  0
   -5.2069    1.2229   -0.0212 C   0  0  0  0  0  0  0  0  0  0  0  0
   -5.5429    2.4358   -0.0746 O   0  0  0  0  0  0  0  0  0  0  0  0
   -3.7795    0.8506   -0.1497 C   0  0  0  0  0  0  0  0  0  0  0  0
   -2.7965    1.7026    0.3807 C   0  0  0  0  0  0  0  0  0  0  0  0
   -1.4424    1.3733    0.2867 C   0  0  0  0  0  0  0  0  0  0  0  0
   -1.0437    0.1799   -0.3359 C   0  0  0  0  0  0  0  0  0  0  0  0
    0.3447   -0.1704   -0.4669 N   0  0  0  0  0  0  0  0  0  0  0  0
    1.3283    0.0536    0.5615 C   0  0  0  0  0  0  0  0  0  0  0  0
    0.9714    0.4977    1.6870 O   0  0  0  0  0  0  0  0  0  0  0  0
    2.7642   -0.2360    0.3293 C   0  0  0  0  0  0  0  0  0  0  0  0
    3.7442    0.4990    1.0224 C   0  0  0  0  0  0  0  0  0  0  0  0
    5.1028    0.2380    0.8199 C   0  0  0  0  0  0  0  0  0  0  0  0
    5.4987   -0.7639   -0.0682 C   0  0  0  0  0  0  0  0  0  0  0  0
    4.5365   -1.5106   -0.7511 C   0  0  0  0  0  0  0  0  0  0  0  0
    3.1760   -1.2533   -0.5536 C   0  0  0  0  0  0  0  0  0  0  0  0
   -2.0179   -0.6498   -0.9068 C   0  0  0  0  0  0  0  0  0  0  0  0
   -3.3795   -0.3231   -0.8215 C   0  0  0  0  0  0  0  0  0  0  0  0
   -4.3249   -1.1488   -1.4297 O   0  0  0  0  0  0  0  0  0  0  0  0
   -5.9676   -0.7075    0.3755 H   0  0  0  0  0  0  0  0  0  0  0  0
   -3.0777    2.6236    0.8770 H   0  0  0  0  0  0  0  0  0  0  0  0
   -0.7091    2.0647    0.6797 H   0  0  0  0  0  0  0  0  0  0  0  0
    0.6265   -0.6583   -1.3451 H   0  0  0  0  0  0  0  0  0  0  0  0
    3.4593    1.2843    1.7119 H   0  0  0  0  0  0  0  0  0  0  0  0
    5.8491    0.8136    1.3522 H   0  0  0  0  0  0  0  0  0  0  0  0
    6.5508   -0.9660   -0.2225 H   0  0  0  0  0  0  0  0  0  0  0  0
    4.8448   -2.2960   -1.4292 H   0  0  0  0  0  0  0  0  0  0  0  0
    2.4568   -1.8730   -1.0707 H   0  0  0  0  0  0  0  0  0  0  0  0
   -1.7156   -1.5540   -1.4208 H   0  0  0  0  0  0  0  0  0  0  0  0
   -4.0564   -1.9913   -1.9246 H   0  0  0  0  0  0  0  0  0  0  0  0
  1  2  1  0
  2  3  2  0
  2  4  1  0
  4  5  2  0
  5  6  1  0
  6  7  2  0
  7  8  1  0
  8  9  1  0
  9 10  2  0
  9 11  1  0
 11 12  2  0
 12 13  1  0
 13 14  2  0
 14 15  1  0
 15 16  2  0
 16 11  1  0
  7 17  1  0
 17 18  2  0
 18  4  1  0
 18 19  1  0
  1 20  1  0
  5 21  1  0
  6 22  1  0
  8 23  1  0
 12 24  1  0
 13 25  1  0
 14 26  1  0
 15 27  1  0
 16 28  1  0
 17 29  1  0
 19 30  1  0
M  END
> <ID>
HT0352

> <Class>
0.0

> <Clusters>
142

> <Fold>
5

$$$$