
     RDKit          3D

 40 40  0  0  0  0  0  0  0  0999 V2000
   -5.4707   -2.0645   -0.6235 C   0  0  0  0  0  0  0  0  0  0  0  0
   -4.9255   -0.7051   -0.2978 C   0  0  0  0  0  0  0  0  0  0  0  0
   -5.7793    0.3327    0.1033 C   0  0  0  0  0  0  0  0  0  0  0  0
   -5.2595    1.5932    0.4037 C   0  0  0  0  0  0  0  0  0  0  0  0
   -3.8846    1.8303    0.3068 C   0  0  0  0  0  0  0  0  0  0  0  0
   -3.2593    3.4269    0.6909 Cl  0  0  0  0  0  0  0  0  0  0  0  0
   -3.0157    0.8031   -0.0932 C   0  0  0  0  0  0  0  0  0  0  0  0
   -1.6419    1.0782   -0.1789 O   0  0  0  0  0  0  0  0  0  0  0  0
   -0.6501    0.1332   -0.5736 C   0  0  0  0  0  0  0  0  0  0  0  0
    0.7326    0.7978   -0.5443 C   0  0  0  0  0  0  0  0  0  0  0  0
    0.7487    1.9339   -1.3739 O   0  0  0  0  0  0  0  0  0  0  0  0
    1.8398   -0.2012   -0.9534 C   0  0  0  0  0  0  0  0  0  0  0  0
    3.1976    0.3697   -0.8067 N   0  0  0  0  0  0  0  0  0  0  0  0
    4.0181   -0.1562    0.3135 C   0  0  0  0  0  0  0  0  0  0  0  0
    5.3496    0.6245    0.3367 C   0  0  0  0  0  0  0  0  0  0  0  0
    3.3175    0.0384    1.6766 C   0  0  0  0  0  0  0  0  0  0  0  0
    4.3532   -1.6482    0.0902 C   0  0  0  0  0  0  0  0  0  0  0  0
   -3.5462   -0.4673   -0.3951 C   0  0  0  0  0  0  0  0  0  0  0  0
   -5.2241   -2.3231   -1.6748 H   0  0  0  0  0  0  0  0  0  0  0  0
   -6.5742   -2.1019   -0.5017 H   0  0  0  0  0  0  0  0  0  0  0  0
   -5.0167   -2.8199    0.0519 H   0  0  0  0  0  0  0  0  0  0  0  0
   -6.8467    0.1683    0.1842 H   0  0  0  0  0  0  0  0  0  0  0  0
   -5.9275    2.3873    0.7124 H   0  0  0  0  0  0  0  0  0  0  0  0
   -0.8703   -0.2328   -1.6005 H   0  0  0  0  0  0  0  0  0  0  0  0
   -0.6607   -0.7267    0.1316 H   0  0  0  0  0  0  0  0  0  0  0  0
    0.9229    1.1312    0.4979 H   0  0  0  0  0  0  0  0  0  0  0  0
    0.5694    1.6311   -2.3026 H   0  0  0  0  0  0  0  0  0  0  0  0
    1.7128   -1.1379   -0.3760 H   0  0  0  0  0  0  0  0  0  0  0  0
    1.6983   -0.4791   -2.0197 H   0  0  0  0  0  0  0  0  0  0  0  0
    3.1543    1.4152   -0.7566 H   0  0  0  0  0  0  0  0  0  0  0  0
    5.8751    0.5213   -0.6373 H   0  0  0  0  0  0  0  0  0  0  0  0
    5.1679    1.7058    0.5189 H   0  0  0  0  0  0  0  0  0  0  0  0
    6.0204    0.2487    1.1398 H   0  0  0  0  0  0  0  0  0  0  0  0
    3.0493    1.1063    1.8247 H   0  0  0  0  0  0  0  0  0  0  0  0
    2.3941   -0.5718    1.7528 H   0  0  0  0  0  0  0  0  0  0  0  0
    3.9893   -0.2704    2.5064 H   0  0  0  0  0  0  0  0  0  0  0  0
    4.7527   -1.8030   -0.9351 H   0  0  0  0  0  0  0  0  0  0  0  0
    5.1185   -1.9913    0.8198 H   0  0  0  0  0  0  0  0  0  0  0  0
    3.4678   -2.3014    0.2247 H   0  0  0  0  0  0  0  0  0  0  0  0
   -2.8969   -1.2753   -0.7054 H   0  0  0  0  0  0  0  0  0  0  0  0
  1  2  1  0
  2  3  2  0
  3  4  1  0
  4  5  2  0
  5  6  1  0
  5  7  1  0
  7  8  1  0
  8  9  1  0
  9 10  1  0
 10 11  1  0
 10 12  1  0
 12 13  1  0
 13 14  1  0
 14 15  1  0
 14 16  1  0
 14 17  1  0
  7 18  2  0
 18  2  1  0
  1 19  1  0
  1 20  1  0
  1 21  1  0
  3 22  1  0
  4 23  1  0
  9 24  1  0
  9 25  1  0
 10 26  1  0
 11 27  1  0
 12 28  1  0
 12 29  1  0
 13 30  1  0
 15 31  1  0
 15 32  1  0
 15 33  1  0
 16 34  1  0
 16 35  1  0
 16 36  1  0
 17 37  1  0
 17 38  1  0
 17 39  1  0
 18 40  1  0
M  END
> <ID>
HT0328

> <Class>
0.0

> <Clusters>
145

> <Fold>
5

$$$$