
     RDKit          3D

 18 18  0  0  0  0  0  0  0  0999 V2000
   -1.2720    1.6954    0.1211 N   0  0  0  0  0  0  0  0  0  0  0  0
   -0.9119    0.3330   -0.2906 C   0  0  1  0  0  0  0  0  0  0  0  0
    0.3165   -0.1862    0.4961 C   0  0  2  0  0  0  0  0  0  0  0  0
    1.6168    0.5841    0.1801 C   0  0  0  0  0  0  0  0  0  0  0  0
    2.5009   -0.5047   -0.3178 C   0  0  0  0  0  0  0  0  0  0  0  0
    1.9193   -1.6496   -0.3472 N   0  0  0  0  0  0  0  0  0  0  0  0
    0.6366   -1.5180    0.1143 O   0  0  0  0  0  0  0  0  0  0  0  0
    4.1568   -0.2732   -0.8376 Cl  0  0  0  0  0  0  0  0  0  0  0  0
   -2.0906   -0.5885   -0.1036 C   0  0  0  0  0  0  0  0  0  0  0  0
   -3.1121   -0.2099    0.5320 O   0  0  0  0  0  0  0  0  0  0  0  0
   -2.0586   -1.8678   -0.6510 O   0  0  0  0  0  0  0  0  0  0  0  0
   -1.2980    1.7538    1.1657 H   0  0  0  0  0  0  0  0  0  0  0  0
   -0.5431    2.3651   -0.2140 H   0  0  0  0  0  0  0  0  0  0  0  0
   -0.6716    0.3439   -1.3773 H   0  0  0  0  0  0  0  0  0  0  0  0
    0.1116   -0.1655    1.5895 H   0  0  0  0  0  0  0  0  0  0  0  0
    2.0464    1.0415    1.0967 H   0  0  0  0  0  0  0  0  0  0  0  0
    1.4947    1.3475   -0.6168 H   0  0  0  0  0  0  0  0  0  0  0  0
   -2.8416   -2.5007   -0.5396 H   0  0  0  0  0  0  0  0  0  0  0  0
  2  1  1  0
  3  2  1  0
  3  4  1  0
  4  5  1  0
  5  6  2  0
  6  7  1  0
  7  3  1  0
  5  8  1  0
  2  9  1  0
  9 10  2  0
  9 11  1  0
  1 12  1  0
  1 13  1  0
  2 14  1  6
  3 15  1  1
  4 16  1  0
  4 17  1  0
 11 18  1  0
M  END
> <ID>
HT0066

> <Class>
0.0

> <Clusters>
151

> <Fold>
5

$$$$