
     RDKit          3D

 18 17  0  0  0  0  0  0  0  0999 V2000
   -0.3164    1.8161    0.0404 C   0  0  0  0  0  0  0  0  0  0  0  0
   -0.2044    0.3973   -0.3138 N   0  0  0  0  0  0  0  0  0  0  0  0
    0.8009   -0.0216   -1.3045 C   0  0  0  0  0  0  0  0  0  0  0  0
    1.9888   -0.6502   -0.6394 C   0  0  0  0  0  0  0  0  0  0  0  0
    2.9094   -1.1388   -1.3470 O   0  0  0  0  0  0  0  0  0  0  0  0
    2.0903   -0.6880    0.7490 O   0  0  0  0  0  0  0  0  0  0  0  0
   -1.0776   -0.5824    0.2985 C   0  0  0  0  0  0  0  0  0  0  0  0
   -0.9455   -1.8381    0.0014 N   0  0  0  0  0  0  0  0  0  0  0  0
   -2.0909   -0.1884    1.2349 N   0  0  0  0  0  0  0  0  0  0  0  0
   -0.1569    1.9446    1.1318 H   0  0  0  0  0  0  0  0  0  0  0  0
    0.4446    2.4314   -0.4843 H   0  0  0  0  0  0  0  0  0  0  0  0
   -1.3212    2.1963   -0.2403 H   0  0  0  0  0  0  0  0  0  0  0  0
    1.1508    0.8436   -1.9075 H   0  0  0  0  0  0  0  0  0  0  0  0
    0.3474   -0.7431   -2.0180 H   0  0  0  0  0  0  0  0  0  0  0  0
    2.8934   -1.1092    1.2002 H   0  0  0  0  0  0  0  0  0  0  0  0
   -1.5560   -2.5729    0.4236 H   0  0  0  0  0  0  0  0  0  0  0  0
   -2.7104   -0.9045    1.6754 H   0  0  0  0  0  0  0  0  0  0  0  0
   -2.2462    0.8080    1.4997 H   0  0  0  0  0  0  0  0  0  0  0  0
  1  2  1  0
  2  3  1  0
  3  4  1  0
  4  5  2  0
  4  6  1  0
  2  7  1  0
  7  8  2  3
  7  9  1  0
  1 10  1  0
  1 11  1  0
  1 12  1  0
  3 13  1  0
  3 14  1  0
  6 15  1  0
  8 16  1  0
  9 17  1  0
  9 18  1  0
M  END
> <ID>
HT0552

> <Class>
0.0

> <Clusters>
243

> <Fold>
5

$$$$