
     RDKit          3D

 56 59  0  0  0  0  0  0  0  0999 V2000
    3.9458   -2.1713    0.8089 C   0  0  0  0  0  0  0  0  0  0  0  0
    2.9826   -1.0244    1.1510 C   0  0  0  0  0  0  0  0  0  0  0  0
    1.5239   -1.5264    1.2907 C   0  0  0  0  0  0  0  0  0  0  0  0
    0.7079   -0.3759    0.7195 C   0  0  0  0  0  0  0  0  0  0  0  0
   -0.8346   -0.4779    0.5721 C   0  0  0  0  0  0  0  0  0  0  0  0
   -1.4202   -1.7487   -0.0657 C   0  0  0  0  0  0  0  0  0  0  0  0
   -2.8999   -1.8821    0.3393 C   0  0  0  0  0  0  0  0  0  0  0  0
   -3.5586   -2.7151   -0.5485 F   0  0  0  0  0  0  0  0  0  0  0  0
   -3.6080   -0.5388    0.4043 C   0  0  0  0  0  0  0  0  0  0  0  0
   -4.7640   -0.4619    1.0830 C   0  0  0  0  0  0  0  0  0  0  0  0
   -5.4934    0.8019    1.1932 C   0  0  0  0  0  0  0  0  0  0  0  0
   -6.5845    0.8506    1.8195 O   0  0  0  0  0  0  0  0  0  0  0  0
   -4.9397    2.0108    0.5881 C   0  0  0  0  0  0  0  0  0  0  0  0
   -3.8024    1.9592   -0.1059 C   0  0  0  0  0  0  0  0  0  0  0  0
   -3.0376    0.6607   -0.3807 C   0  0  0  0  0  0  0  0  0  0  0  0
   -3.3607    0.3608   -1.8681 C   0  0  0  0  0  0  0  0  0  0  0  0
   -1.4676    0.8479   -0.0154 C   0  0  0  0  0  0  0  0  0  0  0  0
   -1.3414    2.0380    1.3581 Cl  0  0  0  0  0  0  0  0  0  0  0  0
   -0.5900    1.4730   -1.1815 C   0  0  0  0  0  0  0  0  0  0  0  0
   -0.7681    0.8039   -2.4004 O   0  0  0  0  0  0  0  0  0  0  0  0
    0.9365    1.5196   -0.8701 C   0  0  0  0  0  0  0  0  0  0  0  0
    1.5041    0.1286   -0.4844 C   0  0  0  0  0  0  0  0  0  0  0  0
    1.4892   -0.8483   -1.6990 C   0  0  0  0  0  0  0  0  0  0  0  0
    2.9307    0.1773    0.1420 C   0  0  0  0  0  0  0  0  0  0  0  0
    4.0914    0.3053   -0.8416 C   0  0  0  0  0  0  0  0  0  0  0  0
    4.3618   -0.6041   -1.6117 O   0  0  0  0  0  0  0  0  0  0  0  0
    4.9301    1.5548   -0.8889 C   0  0  0  0  0  0  0  0  0  0  0  0
    6.2483    1.2637   -0.5147 O   0  0  0  0  0  0  0  0  0  0  0  0
    3.8972   -2.9465    1.6029 H   0  0  0  0  0  0  0  0  0  0  0  0
    4.9897   -1.7949    0.7665 H   0  0  0  0  0  0  0  0  0  0  0  0
    3.6872   -2.6505   -0.1566 H   0  0  0  0  0  0  0  0  0  0  0  0
    3.3036   -0.6260    2.1408 H   0  0  0  0  0  0  0  0  0  0  0  0
    1.2611   -1.7186    2.3541 H   0  0  0  0  0  0  0  0  0  0  0  0
    1.3575   -2.4538    0.7028 H   0  0  0  0  0  0  0  0  0  0  0  0
    0.8154    0.4105    1.5092 H   0  0  0  0  0  0  0  0  0  0  0  0
   -1.1741   -0.5532    1.6341 H   0  0  0  0  0  0  0  0  0  0  0  0
   -1.3479   -1.7269   -1.1642 H   0  0  0  0  0  0  0  0  0  0  0  0
   -0.8803   -2.6516    0.2862 H   0  0  0  0  0  0  0  0  0  0  0  0
   -2.9322   -2.3530    1.3475 H   0  0  0  0  0  0  0  0  0  0  0  0
   -5.1646   -1.3374    1.5811 H   0  0  0  0  0  0  0  0  0  0  0  0
   -5.4537    2.9564    0.7086 H   0  0  0  0  0  0  0  0  0  0  0  0
   -3.4368    2.8759   -0.5544 H   0  0  0  0  0  0  0  0  0  0  0  0
   -3.1371    1.2325   -2.5206 H   0  0  0  0  0  0  0  0  0  0  0  0
   -4.4486    0.1595   -1.9905 H   0  0  0  0  0  0  0  0  0  0  0  0
   -2.8339   -0.5318   -2.2538 H   0  0  0  0  0  0  0  0  0  0  0  0
   -0.9332    2.5265   -1.3131 H   0  0  0  0  0  0  0  0  0  0  0  0
   -0.4837    1.4238   -3.1226 H   0  0  0  0  0  0  0  0  0  0  0  0
    1.1108    2.2472   -0.0478 H   0  0  0  0  0  0  0  0  0  0  0  0
    1.4879    1.9154   -1.7509 H   0  0  0  0  0  0  0  0  0  0  0  0
    1.9762   -0.3747   -2.5774 H   0  0  0  0  0  0  0  0  0  0  0  0
    2.0210   -1.7933   -1.4789 H   0  0  0  0  0  0  0  0  0  0  0  0
    0.4847   -1.1421   -2.0194 H   0  0  0  0  0  0  0  0  0  0  0  0
    2.9656    1.0898    0.7807 H   0  0  0  0  0  0  0  0  0  0  0  0
    4.5161    2.3567   -0.2378 H   0  0  0  0  0  0  0  0  0  0  0  0
    4.9307    1.9459   -1.9280 H   0  0  0  0  0  0  0  0  0  0  0  0
    6.2397    1.1331    0.4697 H   0  0  0  0  0  0  0  0  0  0  0  0
  1  2  1  0
  2  3  1  0
  3  4  1  0
  4  5  1  0
  5  6  1  0
  6  7  1  0
  7  8  1  0
  7  9  1  0
  9 10  2  0
 10 11  1  0
 11 12  2  0
 11 13  1  0
 13 14  2  0
 14 15  1  0
 15  9  1  0
 15 16  1  0
 15 17  1  0
 17  5  1  0
 17 18  1  0
 17 19  1  0
 19 20  1  0
 19 21  1  0
 21 22  1  0
 22  4  1  0
 22 23  1  0
 22 24  1  0
 24  2  1  0
 24 25  1  0
 25 26  2  0
 25 27  1  0
 27 28  1  0
  1 29  1  0
  1 30  1  0
  1 31  1  0
  2 32  1  0
  3 33  1  0
  3 34  1  0
  4 35  1  0
  5 36  1  0
  6 37  1  0
  6 38  1  0
  7 39  1  0
 10 40  1  0
 13 41  1  0
 14 42  1  0
 16 43  1  0
 16 44  1  0
 16 45  1  0
 19 46  1  0
 20 47  1  0
 21 48  1  0
 21 49  1  0
 23 50  1  0
 23 51  1  0
 23 52  1  0
 24 53  1  0
 27 54  1  0
 27 55  1  0
 28 56  1  0
M  END
> <ID>
HT0519

> <Class>
0.0

> <Clusters>
189

> <Fold>
5

$$$$