
     RDKit          3D

 51 54  0  0  0  0  0  0  0  0999 V2000
   -5.1575   -0.4030   -2.1703 C   0  0  0  0  0  0  0  0  0  0  0  0
   -5.3517   -0.1561   -0.6996 C   0  0  0  0  0  0  0  0  0  0  0  0
   -6.6438   -0.2067   -0.1475 C   0  0  0  0  0  0  0  0  0  0  0  0
   -6.8400    0.0148    1.2179 C   0  0  0  0  0  0  0  0  0  0  0  0
   -5.7501    0.2821    2.0474 C   0  0  0  0  0  0  0  0  0  0  0  0
   -4.4612    0.3322    1.5139 C   0  0  0  0  0  0  0  0  0  0  0  0
   -4.2519    0.1196    0.1441 C   0  0  0  0  0  0  0  0  0  0  0  0
   -2.9136    0.1695   -0.3704 N   0  0  0  0  0  0  0  0  0  0  0  0
   -2.4419    1.3658   -1.0768 C   0  0  0  0  0  0  0  0  0  0  0  0
   -1.0022    1.7442   -0.6590 C   0  0  0  0  0  0  0  0  0  0  0  0
   -0.3111    0.6677    0.0879 N   0  0  0  0  0  0  0  0  0  0  0  0
    1.1415    0.9308    0.1600 C   0  0  0  0  0  0  0  0  0  0  0  0
    1.7336    0.3102    1.4310 C   0  0  0  0  0  0  0  0  0  0  0  0
    3.1952    0.6238    1.5497 C   0  0  0  0  0  0  0  0  0  0  0  0
    3.6919    1.5689    2.3759 N   0  0  0  0  0  0  0  0  0  0  0  0
    5.0128    1.5421    2.2521 N   0  0  0  0  0  0  0  0  0  0  0  0
    5.2959    0.5737    1.3602 C   0  0  0  0  0  0  0  0  0  0  0  0
    6.6711    0.1775    0.9254 C   0  0  0  0  0  0  0  0  0  0  0  0
    6.6469   -1.2506    0.3579 C   0  0  0  0  0  0  0  0  0  0  0  0
    5.4994   -1.4308   -0.6510 C   0  0  0  0  0  0  0  0  0  0  0  0
    4.1282   -1.1758    0.0019 C   0  0  0  0  0  0  0  0  0  0  0  0
    4.1831   -0.0091    0.8864 N   0  0  0  0  0  0  0  0  0  0  0  0
   -0.5949   -0.6455   -0.5212 C   0  0  0  0  0  0  0  0  0  0  0  0
   -2.0516   -1.0089   -0.2354 C   0  0  0  0  0  0  0  0  0  0  0  0
   -4.4527   -1.2473   -2.3216 H   0  0  0  0  0  0  0  0  0  0  0  0
   -4.7504    0.5083   -2.6554 H   0  0  0  0  0  0  0  0  0  0  0  0
   -6.1157   -0.6583   -2.6710 H   0  0  0  0  0  0  0  0  0  0  0  0
   -7.5023   -0.4159   -0.7733 H   0  0  0  0  0  0  0  0  0  0  0  0
   -7.8385   -0.0238    1.6332 H   0  0  0  0  0  0  0  0  0  0  0  0
   -5.9046    0.4522    3.1052 H   0  0  0  0  0  0  0  0  0  0  0  0
   -3.6211    0.5408    2.1648 H   0  0  0  0  0  0  0  0  0  0  0  0
   -3.1234    2.2251   -0.8889 H   0  0  0  0  0  0  0  0  0  0  0  0
   -2.4574    1.1590   -2.1686 H   0  0  0  0  0  0  0  0  0  0  0  0
   -0.4302    2.0146   -1.5759 H   0  0  0  0  0  0  0  0  0  0  0  0
   -1.0468    2.6483   -0.0135 H   0  0  0  0  0  0  0  0  0  0  0  0
    1.3353    2.0273    0.2094 H   0  0  0  0  0  0  0  0  0  0  0  0
    1.6595    0.5503   -0.7475 H   0  0  0  0  0  0  0  0  0  0  0  0
    1.5991   -0.7909    1.4431 H   0  0  0  0  0  0  0  0  0  0  0  0
    1.2005    0.7265    2.3132 H   0  0  0  0  0  0  0  0  0  0  0  0
    7.3686    0.2258    1.7888 H   0  0  0  0  0  0  0  0  0  0  0  0
    7.0193    0.8861    0.1441 H   0  0  0  0  0  0  0  0  0  0  0  0
    6.5230   -1.9784    1.1893 H   0  0  0  0  0  0  0  0  0  0  0  0
    7.6160   -1.4628   -0.1414 H   0  0  0  0  0  0  0  0  0  0  0  0
    5.5249   -2.4616   -1.0649 H   0  0  0  0  0  0  0  0  0  0  0  0
    5.6419   -0.7209   -1.4952 H   0  0  0  0  0  0  0  0  0  0  0  0
    3.8257   -2.0652    0.5957 H   0  0  0  0  0  0  0  0  0  0  0  0
    3.3755   -1.0155   -0.7965 H   0  0  0  0  0  0  0  0  0  0  0  0
    0.0530   -1.4406   -0.0950 H   0  0  0  0  0  0  0  0  0  0  0  0
   -0.4172   -0.6173   -1.6212 H   0  0  0  0  0  0  0  0  0  0  0  0
   -2.1205   -1.3956    0.8051 H   0  0  0  0  0  0  0  0  0  0  0  0
   -2.3893   -1.8068   -0.9304 H   0  0  0  0  0  0  0  0  0  0  0  0
  1  2  1  0
  2  3  2  0
  3  4  1  0
  4  5  2  0
  5  6  1  0
  6  7  2  0
  7  2  1  0
  7  8  1  0
  8  9  1  0
  9 10  1  0
 10 11  1  0
 11 12  1  0
 12 13  1  0
 13 14  1  0
 14 15  2  0
 15 16  1  0
 16 17  2  0
 17 18  1  0
 18 19  1  0
 19 20  1  0
 20 21  1  0
 21 22  1  0
 22 14  1  0
 22 17  1  0
 11 23  1  0
 23 24  1  0
 24  8  1  0
  1 25  1  0
  1 26  1  0
  1 27  1  0
  3 28  1  0
  4 29  1  0
  5 30  1  0
  6 31  1  0
  9 32  1  0
  9 33  1  0
 10 34  1  0
 10 35  1  0
 12 36  1  0
 12 37  1  0
 13 38  1  0
 13 39  1  0
 18 40  1  0
 18 41  1  0
 19 42  1  0
 19 43  1  0
 20 44  1  0
 20 45  1  0
 21 46  1  0
 21 47  1  0
 23 48  1  0
 23 49  1  0
 24 50  1  0
 24 51  1  0
M  END
> <ID>
HT0590

> <Class>
0.0

> <Clusters>
213

> <Fold>
5

$$$$