
     RDKit          3D

 64 67  0  0  0  0  0  0  0  0999 V2000
    5.3819    0.6864    3.5644 C   0  0  0  0  0  0  0  0  0  0  0  0
    4.5829    1.1395    2.3432 C   0  0  0  0  0  0  0  0  0  0  0  0
    3.8291    0.0227    1.6813 C   0  0  0  0  0  0  0  0  0  0  0  0
    3.8881   -1.1530    2.1360 O   0  0  0  0  0  0  0  0  0  0  0  0
    3.0574    0.3252    0.5470 O   0  0  0  0  0  0  0  0  0  0  0  0
    2.2532   -0.5825   -0.2382 C   0  0  0  0  0  0  0  0  0  0  0  0
    1.9588    0.1278   -1.5903 C   0  0  0  0  0  0  0  0  0  0  0  0
    3.1470    0.8470   -2.2558 C   0  0  0  0  0  0  0  0  0  0  0  0
    0.8227    1.1236   -1.2880 C   0  0  0  0  0  0  0  0  0  0  0  0
    0.2265    0.7119    0.0737 C   0  0  0  0  0  0  0  0  0  0  0  0
   -1.3185    0.8729    0.2620 C   0  0  0  0  0  0  0  0  0  0  0  0
   -1.8587    2.1611   -0.3846 C   0  0  0  0  0  0  0  0  0  0  0  0
   -3.2867    2.4507    0.0809 C   0  0  0  0  0  0  0  0  0  0  0  0
   -4.1599    1.2180    0.1105 C   0  0  0  0  0  0  0  0  0  0  0  0
   -5.3924    1.3433    0.6298 C   0  0  0  0  0  0  0  0  0  0  0  0
   -6.2813    0.1877    0.7506 C   0  0  0  0  0  0  0  0  0  0  0  0
   -7.4519    0.3303    1.1918 O   0  0  0  0  0  0  0  0  0  0  0  0
   -5.7858   -1.1387    0.3936 C   0  0  0  0  0  0  0  0  0  0  0  0
   -4.5702   -1.2832   -0.1349 C   0  0  0  0  0  0  0  0  0  0  0  0
   -3.6747   -0.1001   -0.5221 C   0  0  0  0  0  0  0  0  0  0  0  0
   -3.8455    0.0396   -2.0562 C   0  0  0  0  0  0  0  0  0  0  0  0
   -2.1841   -0.4059   -0.0370 C   0  0  0  0  0  0  0  0  0  0  0  0
   -2.3164   -1.0566    1.1869 F   0  0  0  0  0  0  0  0  0  0  0  0
   -1.4162   -1.3965   -0.9500 C   0  0  0  0  0  0  0  0  0  0  0  0
   -1.1978   -0.8538   -2.2255 O   0  0  0  0  0  0  0  0  0  0  0  0
   -0.0674   -1.8282   -0.3283 C   0  0  0  0  0  0  0  0  0  0  0  0
    0.7970   -0.6966    0.3707 C   0  0  0  0  0  0  0  0  0  0  0  0
    0.8246   -0.9496    1.9008 C   0  0  0  0  0  0  0  0  0  0  0  0
    3.0019   -1.9168   -0.4210 C   0  0  0  0  0  0  0  0  0  0  0  0
    2.5129   -2.9641   -0.0235 O   0  0  0  0  0  0  0  0  0  0  0  0
    4.4048   -1.9710   -0.9584 C   0  0  0  0  0  0  0  0  0  0  0  0
    4.4072   -2.7235   -2.5722 Cl  0  0  0  0  0  0  0  0  0  0  0  0
    6.1351   -0.0759    3.2714 H   0  0  0  0  0  0  0  0  0  0  0  0
    5.9123    1.5571    4.0043 H   0  0  0  0  0  0  0  0  0  0  0  0
    4.7028    0.2601    4.3335 H   0  0  0  0  0  0  0  0  0  0  0  0
    5.2786    1.5872    1.6019 H   0  0  0  0  0  0  0  0  0  0  0  0
    3.8579    1.9210    2.6556 H   0  0  0  0  0  0  0  0  0  0  0  0
    1.5799   -0.6207   -2.3217 H   0  0  0  0  0  0  0  0  0  0  0  0
    3.8505    0.1199   -2.7024 H   0  0  0  0  0  0  0  0  0  0  0  0
    3.6869    1.5019   -1.5406 H   0  0  0  0  0  0  0  0  0  0  0  0
    2.7792    1.4794   -3.0922 H   0  0  0  0  0  0  0  0  0  0  0  0
    1.2082    2.1658   -1.2114 H   0  0  0  0  0  0  0  0  0  0  0  0
    0.0926    1.1203   -2.1177 H   0  0  0  0  0  0  0  0  0  0  0  0
    0.6863    1.4187    0.8062 H   0  0  0  0  0  0  0  0  0  0  0  0
   -1.4366    1.0582    1.3564 H   0  0  0  0  0  0  0  0  0  0  0  0
   -1.2170    3.0201   -0.0882 H   0  0  0  0  0  0  0  0  0  0  0  0
   -1.8206    2.1111   -1.4873 H   0  0  0  0  0  0  0  0  0  0  0  0
   -3.7427    3.2156   -0.5844 H   0  0  0  0  0  0  0  0  0  0  0  0
   -3.2364    2.8758    1.1082 H   0  0  0  0  0  0  0  0  0  0  0  0
   -5.7325    2.3010    1.0076 H   0  0  0  0  0  0  0  0  0  0  0  0
   -6.4021   -2.0106    0.5751 H   0  0  0  0  0  0  0  0  0  0  0  0
   -4.2541   -2.2855   -0.3955 H   0  0  0  0  0  0  0  0  0  0  0  0
   -3.1686    0.7882   -2.5022 H   0  0  0  0  0  0  0  0  0  0  0  0
   -4.8849    0.3531   -2.2982 H   0  0  0  0  0  0  0  0  0  0  0  0
   -3.6793   -0.9305   -2.5720 H   0  0  0  0  0  0  0  0  0  0  0  0
   -2.0363   -2.3165   -1.0570 H   0  0  0  0  0  0  0  0  0  0  0  0
   -1.0333   -1.6128   -2.8445 H   0  0  0  0  0  0  0  0  0  0  0  0
   -0.2765   -2.6464    0.3966 H   0  0  0  0  0  0  0  0  0  0  0  0
    0.4941   -2.3246   -1.1447 H   0  0  0  0  0  0  0  0  0  0  0  0
    1.3668   -1.8897    2.1312 H   0  0  0  0  0  0  0  0  0  0  0  0
   -0.1991   -1.0488    2.3092 H   0  0  0  0  0  0  0  0  0  0  0  0
    1.3013   -0.1138    2.4523 H   0  0  0  0  0  0  0  0  0  0  0  0
    4.8635   -0.9640   -1.0074 H   0  0  0  0  0  0  0  0  0  0  0  0
    5.0355   -2.5824   -0.2790 H   0  0  0  0  0  0  0  0  0  0  0  0
  1  2  1  0
  2  3  1  0
  3  4  2  0
  3  5  1  0
  5  6  1  0
  6  7  1  0
  7  8  1  0
  7  9  1  0
  9 10  1  0
 10 11  1  0
 11 12  1  0
 12 13  1  0
 13 14  1  0
 14 15  2  0
 15 16  1  0
 16 17  2  0
 16 18  1  0
 18 19  2  0
 19 20  1  0
 20 14  1  0
 20 21  1  0
 20 22  1  0
 22 11  1  0
 22 23  1  0
 22 24  1  0
 24 25  1  0
 24 26  1  0
 26 27  1  0
 27  6  1  0
 27 10  1  0
 27 28  1  0
  6 29  1  0
 29 30  2  0
 29 31  1  0
 31 32  1  0
  1 33  1  0
  1 34  1  0
  1 35  1  0
  2 36  1  0
  2 37  1  0
  7 38  1  0
  8 39  1  0
  8 40  1  0
  8 41  1  0
  9 42  1  0
  9 43  1  0
 10 44  1  0
 11 45  1  0
 12 46  1  0
 12 47  1  0
 13 48  1  0
 13 49  1  0
 15 50  1  0
 18 51  1  0
 19 52  1  0
 21 53  1  0
 21 54  1  0
 21 55  1  0
 24 56  1  0
 25 57  1  0
 26 58  1  0
 26 59  1  0
 28 60  1  0
 28 61  1  0
 28 62  1  0
 31 63  1  0
 31 64  1  0
M  END
> <ID>
HT0517

> <Class>
0.0

> <Clusters>
34

> <Fold>
5

$$$$