
     RDKit          3D

 98100  0  0  0  0  0  0  0  0999 V2000
    7.3588   -1.9060    2.7699 C   0  0  0  0  0  0  0  0  0  0  0  0
    6.6724   -1.7350    1.4161 C   0  0  0  0  0  0  0  0  0  0  0  0
    6.2934   -0.3168    1.2147 N   0  0  0  0  0  0  0  0  0  0  0  0
    7.3860    0.4834    0.6010 C   0  0  0  0  0  0  0  0  0  0  0  0
    7.5491    0.2958   -0.9158 C   0  0  0  0  0  0  0  0  0  0  0  0
    4.9800   -0.1839    0.5436 C   0  0  0  0  0  0  0  0  0  0  0  0
    4.4666    1.2636    0.5687 C   0  0  0  0  0  0  0  0  0  0  0  0
    2.7692    1.3597    0.0141 S   0  0  0  0  0  0  0  0  0  0  0  0
    1.8837    0.7949    1.0914 O   0  0  0  0  0  0  0  0  0  0  0  0
    2.4113    2.8050   -0.1989 O   0  0  0  0  0  0  0  0  0  0  0  0
    2.5272    0.4427   -1.5200 C   0  0  0  0  0  0  0  0  0  0  0  0
    3.3490    1.0613   -2.6602 C   0  0  0  0  0  0  0  0  0  0  0  0
    2.3962    1.9910   -3.4039 C   0  0  0  0  0  0  0  0  0  0  0  0
    1.0632    1.6100   -2.9685 N   0  0  0  0  0  0  0  0  0  0  0  0
    1.0666    0.5328   -1.9870 C   0  0  0  0  0  0  0  0  0  0  0  0
    0.6237   -0.7686   -2.6336 C   0  0  0  0  0  0  0  0  0  0  0  0
    0.5610   -0.8473   -3.8908 O   0  0  0  0  0  0  0  0  0  0  0  0
    0.3367   -1.9221   -1.8932 O   0  0  0  0  0  0  0  0  0  0  0  0
    0.2088   -1.9989   -0.4697 C   0  0  0  0  0  0  0  0  0  0  0  0
    0.6813   -3.4139   -0.0017 C   0  0  0  0  0  0  0  0  0  0  0  0
    0.8590   -3.5101    1.5240 C   0  0  0  0  0  0  0  0  0  0  0  0
    2.0209   -3.7809   -0.6690 C   0  0  0  0  0  0  0  0  0  0  0  0
   -1.2494   -1.6002   -0.0861 C   0  0  0  0  0  0  0  0  0  0  0  0
   -2.3182   -2.4763   -0.7664 C   0  0  0  0  0  0  0  0  0  0  0  0
   -1.4037   -1.3244    1.4026 C   0  0  0  0  0  0  0  0  0  0  0  0
   -2.2545   -1.8702    2.2910 C   0  0  0  0  0  0  0  0  0  0  0  0
   -3.1376   -3.0255    2.0573 C   0  0  0  0  0  0  0  0  0  0  0  0
   -2.6296   -4.1517    1.8079 O   0  0  0  0  0  0  0  0  0  0  0  0
   -4.5638   -2.9137    2.1902 N   0  0  0  0  0  0  0  0  0  0  0  0
   -5.2442   -1.6786    2.5728 C   0  0  0  0  0  0  0  0  0  0  0  0
   -5.1814   -0.6751    1.4570 C   0  0  0  0  0  0  0  0  0  0  0  0
   -6.2787   -0.2759    0.8071 C   0  0  0  0  0  0  0  0  0  0  0  0
   -6.2394    0.7759   -0.2316 C   0  0  0  0  0  0  0  0  0  0  0  0
   -5.8606    2.0441    0.0310 C   0  0  0  0  0  0  0  0  0  0  0  0
   -5.3623    2.5203    1.3793 C   0  0  0  0  0  0  0  0  0  0  0  0
   -6.3348    2.2386    2.3549 O   0  0  0  0  0  0  0  0  0  0  0  0
   -5.0743    4.0336    1.3938 C   0  0  0  0  0  0  0  0  0  0  0  0
   -4.0951    4.4757    0.3343 C   0  0  0  0  0  0  0  0  0  0  0  0
   -4.4472    5.3091   -0.4915 O   0  0  0  0  0  0  0  0  0  0  0  0
   -2.6852    3.9435    0.2902 C   0  0  0  0  0  0  0  0  0  0  0  0
   -2.3499    3.3664   -1.0550 C   0  0  0  0  0  0  0  0  0  0  0  0
   -3.2078    3.2472   -2.0468 O   0  0  0  0  0  0  0  0  0  0  0  0
   -2.5499    2.7704   -3.0737 C   0  0  0  0  0  0  0  0  0  0  0  0
   -1.2469    2.5806   -2.6744 C   0  0  0  0  0  0  0  0  0  0  0  0
   -1.1088    2.9576   -1.3889 N   0  0  0  0  0  0  0  0  0  0  0  0
   -0.1306    2.1650   -3.5350 C   0  0  0  0  0  0  0  0  0  0  0  0
   -0.2139    2.3242   -4.7834 O   0  0  0  0  0  0  0  0  0  0  0  0
   -6.8392    0.4560   -1.5695 C   0  0  0  0  0  0  0  0  0  0  0  0
    8.3238   -1.3584    2.7926 H   0  0  0  0  0  0  0  0  0  0  0  0
    6.7007   -1.5172    3.5770 H   0  0  0  0  0  0  0  0  0  0  0  0
    7.5547   -2.9826    2.9546 H   0  0  0  0  0  0  0  0  0  0  0  0
    5.7782   -2.3959    1.4196 H   0  0  0  0  0  0  0  0  0  0  0  0
    7.3422   -2.1057    0.6113 H   0  0  0  0  0  0  0  0  0  0  0  0
    7.2195    1.5596    0.8128 H   0  0  0  0  0  0  0  0  0  0  0  0
    8.3541    0.2387    1.0844 H   0  0  0  0  0  0  0  0  0  0  0  0
    8.4642    0.8315   -1.2519 H   0  0  0  0  0  0  0  0  0  0  0  0
    7.6606   -0.7740   -1.1868 H   0  0  0  0  0  0  0  0  0  0  0  0
    6.6901    0.7305   -1.4704 H   0  0  0  0  0  0  0  0  0  0  0  0
    4.2312   -0.8017    1.0866 H   0  0  0  0  0  0  0  0  0  0  0  0
    5.0302   -0.5687   -0.4966 H   0  0  0  0  0  0  0  0  0  0  0  0
    4.5226    1.6602    1.6054 H   0  0  0  0  0  0  0  0  0  0  0  0
    5.0841    1.9083   -0.0889 H   0  0  0  0  0  0  0  0  0  0  0  0
    2.8394   -0.6096   -1.3484 H   0  0  0  0  0  0  0  0  0  0  0  0
    3.6785    0.2504   -3.3480 H   0  0  0  0  0  0  0  0  0  0  0  0
    4.2521    1.6045   -2.3080 H   0  0  0  0  0  0  0  0  0  0  0  0
    2.5014    1.8619   -4.5037 H   0  0  0  0  0  0  0  0  0  0  0  0
    2.5876    3.0513   -3.1276 H   0  0  0  0  0  0  0  0  0  0  0  0
    0.3850    0.7867   -1.1497 H   0  0  0  0  0  0  0  0  0  0  0  0
    0.9027   -1.2697   -0.0052 H   0  0  0  0  0  0  0  0  0  0  0  0
   -0.0588   -4.1825   -0.3141 H   0  0  0  0  0  0  0  0  0  0  0  0
    1.4716   -2.6668    1.9084 H   0  0  0  0  0  0  0  0  0  0  0  0
   -0.1156   -3.5234    2.0395 H   0  0  0  0  0  0  0  0  0  0  0  0
    1.3598   -4.4629    1.8043 H   0  0  0  0  0  0  0  0  0  0  0  0
    1.9106   -3.8326   -1.7741 H   0  0  0  0  0  0  0  0  0  0  0  0
    2.3630   -4.7824   -0.3302 H   0  0  0  0  0  0  0  0  0  0  0  0
    2.8054   -3.0333   -0.4152 H   0  0  0  0  0  0  0  0  0  0  0  0
   -1.4121   -0.5998   -0.5404 H   0  0  0  0  0  0  0  0  0  0  0  0
   -3.3377   -2.1259   -0.4973 H   0  0  0  0  0  0  0  0  0  0  0  0
   -2.2286   -2.3835   -1.8701 H   0  0  0  0  0  0  0  0  0  0  0  0
   -2.2084   -3.5472   -0.5190 H   0  0  0  0  0  0  0  0  0  0  0  0
   -0.7845   -0.5172    1.7765 H   0  0  0  0  0  0  0  0  0  0  0  0
   -2.2788   -1.4431    3.2851 H   0  0  0  0  0  0  0  0  0  0  0  0
   -5.1341   -3.7831    2.0933 H   0  0  0  0  0  0  0  0  0  0  0  0
   -4.7722   -1.2475    3.4829 H   0  0  0  0  0  0  0  0  0  0  0  0
   -6.3011   -1.9145    2.8321 H   0  0  0  0  0  0  0  0  0  0  0  0
   -4.2200   -0.2572    1.1923 H   0  0  0  0  0  0  0  0  0  0  0  0
   -7.2292   -0.7590    1.0025 H   0  0  0  0  0  0  0  0  0  0  0  0
   -5.9436    2.7754   -0.7663 H   0  0  0  0  0  0  0  0  0  0  0  0
   -4.4204    1.9819    1.6183 H   0  0  0  0  0  0  0  0  0  0  0  0
   -5.8646    2.1835    3.2302 H   0  0  0  0  0  0  0  0  0  0  0  0
   -6.0335    4.5857    1.2688 H   0  0  0  0  0  0  0  0  0  0  0  0
   -4.6620    4.3119    2.3885 H   0  0  0  0  0  0  0  0  0  0  0  0
   -1.9926    4.7861    0.4995 H   0  0  0  0  0  0  0  0  0  0  0  0
   -2.5206    3.1701    1.0700 H   0  0  0  0  0  0  0  0  0  0  0  0
   -2.9753    2.5766   -4.0497 H   0  0  0  0  0  0  0  0  0  0  0  0
   -6.2696    0.9604   -2.3818 H   0  0  0  0  0  0  0  0  0  0  0  0
   -7.8974    0.7952   -1.5938 H   0  0  0  0  0  0  0  0  0  0  0  0
   -6.8098   -0.6383   -1.7575 H   0  0  0  0  0  0  0  0  0  0  0  0
  1  2  1  0
  2  3  1  0
  3  4  1  0
  4  5  1  0
  3  6  1  0
  6  7  1  0
  7  8  1  0
  8  9  2  0
  8 10  2  0
  8 11  1  0
 11 12  1  0
 12 13  1  0
 13 14  1  0
 14 15  1  0
 15 11  1  0
 15 16  1  0
 16 17  2  0
 16 18  1  0
 18 19  1  0
 19 20  1  0
 20 21  1  0
 20 22  1  0
 19 23  1  0
 23 24  1  0
 23 25  1  0
 25 26  2  3
 26 27  1  0
 27 28  2  0
 27 29  1  0
 29 30  1  0
 30 31  1  0
 31 32  2  3
 32 33  1  0
 33 34  2  3
 34 35  1  0
 35 36  1  0
 35 37  1  0
 37 38  1  0
 38 39  2  0
 38 40  1  0
 40 41  1  0
 41 42  1  0
 42 43  1  0
 43 44  2  0
 44 45  1  0
 45 41  2  0
 44 46  1  0
 46 14  1  0
 46 47  2  0
 33 48  1  0
  1 49  1  0
  1 50  1  0
  1 51  1  0
  2 52  1  0
  2 53  1  0
  4 54  1  0
  4 55  1  0
  5 56  1  0
  5 57  1  0
  5 58  1  0
  6 59  1  0
  6 60  1  0
  7 61  1  0
  7 62  1  0
 11 63  1  0
 12 64  1  0
 12 65  1  0
 13 66  1  0
 13 67  1  0
 15 68  1  0
 19 69  1  0
 20 70  1  0
 21 71  1  0
 21 72  1  0
 21 73  1  0
 22 74  1  0
 22 75  1  0
 22 76  1  0
 23 77  1  0
 24 78  1  0
 24 79  1  0
 24 80  1  0
 25 81  1  0
 26 82  1  0
 29 83  1  0
 30 84  1  0
 30 85  1  0
 31 86  1  0
 32 87  1  0
 34 88  1  0
 35 89  1  0
 36 90  1  0
 37 91  1  0
 37 92  1  0
 40 93  1  0
 40 94  1  0
 43 95  1  0
 48 96  1  0
 48 97  1  0
 48 98  1  0
M  END
> <ID>
HT0585

> <Class>
0.0

> <Clusters>
149

> <Fold>
5

$$$$