
     RDKit          3D

 42 45  0  0  0  0  0  0  0  0999 V2000
    5.3695   -1.2442    0.6935 N   0  0  0  0  0  0  0  0  0  0  0  0
    4.6030    0.0024    0.6352 C   0  0  0  0  0  0  0  0  0  0  0  0
    4.6987    0.6583   -0.7484 C   0  0  0  0  0  0  0  0  0  0  0  0
    3.3341    1.2883   -0.9999 C   0  0  0  0  0  0  0  0  0  0  0  0
    2.4341    0.6424   -0.0629 N   0  0  0  0  0  0  0  0  0  0  0  0
    3.1086   -0.2155    0.8924 C   0  0  0  0  0  0  0  0  0  0  0  0
    1.0245    0.8991   -0.0225 C   0  0  0  0  0  0  0  0  0  0  0  0
    0.5697    2.1206    0.4745 C   0  0  0  0  0  0  0  0  0  0  0  0
    1.4509    3.0404    0.9422 F   0  0  0  0  0  0  0  0  0  0  0  0
   -0.7855    2.4210    0.4609 C   0  0  0  0  0  0  0  0  0  0  0  0
   -1.7259    1.4774    0.0125 C   0  0  0  0  0  0  0  0  0  0  0  0
   -3.0906    1.8137   -0.0510 C   0  0  0  0  0  0  0  0  0  0  0  0
   -3.4710    2.9790    0.2519 O   0  0  0  0  0  0  0  0  0  0  0  0
   -4.0220    0.8679   -0.4978 C   0  0  0  0  0  0  0  0  0  0  0  0
   -3.5723   -0.4120   -0.8312 C   0  0  0  0  0  0  0  0  0  0  0  0
   -2.2598   -0.7724   -0.6900 N   0  0  0  0  0  0  0  0  0  0  0  0
   -1.9584   -2.2095   -0.8264 C   0  0  0  0  0  0  0  0  0  0  0  0
   -2.7915   -3.1166    0.0816 C   0  0  0  0  0  0  0  0  0  0  0  0
   -1.3393   -2.8522    0.4132 C   0  0  0  0  0  0  0  0  0  0  0  0
   -1.2988    0.1824   -0.3998 C   0  0  0  0  0  0  0  0  0  0  0  0
    0.1091   -0.0577   -0.5037 C   0  0  0  0  0  0  0  0  0  0  0  0
    0.7979   -1.3987   -1.4320 Cl  0  0  0  0  0  0  0  0  0  0  0  0
   -5.4669    1.1808   -0.6170 C   0  0  0  0  0  0  0  0  0  0  0  0
   -6.1352    0.6877   -1.5642 O   0  0  0  0  0  0  0  0  0  0  0  0
   -6.1192    1.9851    0.3158 O   0  0  0  0  0  0  0  0  0  0  0  0
    4.9572   -1.9409    0.0303 H   0  0  0  0  0  0  0  0  0  0  0  0
    5.2764   -1.6411    1.6567 H   0  0  0  0  0  0  0  0  0  0  0  0
    5.0022    0.7138    1.3932 H   0  0  0  0  0  0  0  0  0  0  0  0
    5.5062    1.4219   -0.7771 H   0  0  0  0  0  0  0  0  0  0  0  0
    4.8969   -0.1058   -1.5326 H   0  0  0  0  0  0  0  0  0  0  0  0
    3.0011    1.1039   -2.0442 H   0  0  0  0  0  0  0  0  0  0  0  0
    3.3661    2.3810   -0.8009 H   0  0  0  0  0  0  0  0  0  0  0  0
    2.8454    0.0832    1.9304 H   0  0  0  0  0  0  0  0  0  0  0  0
    2.8053   -1.2709    0.7235 H   0  0  0  0  0  0  0  0  0  0  0  0
   -1.0975    3.3982    0.8094 H   0  0  0  0  0  0  0  0  0  0  0  0
   -4.3023   -1.1526   -1.1421 H   0  0  0  0  0  0  0  0  0  0  0  0
   -1.7364   -2.6218   -1.8337 H   0  0  0  0  0  0  0  0  0  0  0  0
   -3.4912   -2.6213    0.7885 H   0  0  0  0  0  0  0  0  0  0  0  0
   -2.9749   -4.1357   -0.3192 H   0  0  0  0  0  0  0  0  0  0  0  0
   -1.1904   -2.1765    1.2826 H   0  0  0  0  0  0  0  0  0  0  0  0
   -0.6617   -3.7043    0.1953 H   0  0  0  0  0  0  0  0  0  0  0  0
   -5.6659    2.3012    1.1639 H   0  0  0  0  0  0  0  0  0  0  0  0
  1  2  1  0
  2  3  1  0
  3  4  1  0
  4  5  1  0
  5  6  1  0
  6  2  1  0
  5  7  1  0
  7  8  2  0
  8  9  1  0
  8 10  1  0
 10 11  2  0
 11 12  1  0
 12 13  2  0
 12 14  1  0
 14 15  2  0
 15 16  1  0
 16 17  1  0
 17 18  1  0
 18 19  1  0
 19 17  1  0
 16 20  1  0
 20 11  1  0
 20 21  2  0
 21  7  1  0
 21 22  1  0
 14 23  1  0
 23 24  2  0
 23 25  1  0
  1 26  1  0
  1 27  1  0
  2 28  1  0
  3 29  1  0
  3 30  1  0
  4 31  1  0
  4 32  1  0
  6 33  1  0
  6 34  1  0
 10 35  1  0
 15 36  1  0
 17 37  1  0
 18 38  1  0
 18 39  1  0
 19 40  1  0
 19 41  1  0
 25 42  1  0
M  END
> <ID>
HT0510

> <Class>
0.0

> <Clusters>
117

> <Fold>
5

$$$$