
     RDKit          3D

 39 41  0  0  0  0  0  0  0  0999 V2000
    4.2597   -0.4307   -0.5287 C   0  0  0  0  0  0  0  0  0  0  0  0
    3.3434   -0.6312    0.6053 N   0  0  0  0  0  0  0  0  0  0  0  0
    4.1120   -1.0631    1.7860 C   0  0  0  0  0  0  0  0  0  0  0  0
    2.5901    0.6127    0.8849 C   0  0  0  0  0  0  0  0  0  0  0  0
    1.2395    0.3091    1.5473 C   0  0  0  0  0  0  0  0  0  0  0  0
    0.3816   -0.5590    0.6612 C   0  0  0  0  0  0  0  0  0  0  0  0
   -0.8217   -0.2146    0.1577 C   0  0  0  0  0  0  0  0  0  0  0  0
   -1.6586   -1.2279   -0.5330 C   0  0  0  0  0  0  0  0  0  0  0  0
   -1.1233   -2.0723   -1.5212 C   0  0  0  0  0  0  0  0  0  0  0  0
   -1.9669   -2.9003   -2.2684 C   0  0  0  0  0  0  0  0  0  0  0  0
   -3.3474   -2.8795   -2.0482 C   0  0  0  0  0  0  0  0  0  0  0  0
   -3.8888   -2.0439   -1.0671 C   0  0  0  0  0  0  0  0  0  0  0  0
   -3.0482   -1.2314   -0.2991 C   0  0  0  0  0  0  0  0  0  0  0  0
   -3.7246   -0.2516    1.0515 S   0  0  0  0  0  0  0  0  0  0  0  0
   -2.8123    1.2249    0.5786 C   0  0  0  0  0  0  0  0  0  0  0  0
   -3.4698    2.4572    0.5054 C   0  0  0  0  0  0  0  0  0  0  0  0
   -2.7600    3.6098    0.1605 C   0  0  0  0  0  0  0  0  0  0  0  0
   -1.3964    3.5300   -0.1383 C   0  0  0  0  0  0  0  0  0  0  0  0
   -0.5173    4.9722   -0.6115 Cl  0  0  0  0  0  0  0  0  0  0  0  0
   -0.7404    2.2950   -0.0940 C   0  0  0  0  0  0  0  0  0  0  0  0
   -1.4338    1.1354    0.2958 C   0  0  0  0  0  0  0  0  0  0  0  0
    4.9717    0.4010   -0.3283 H   0  0  0  0  0  0  0  0  0  0  0  0
    4.8337   -1.3607   -0.7316 H   0  0  0  0  0  0  0  0  0  0  0  0
    3.6811   -0.2011   -1.4494 H   0  0  0  0  0  0  0  0  0  0  0  0
    3.4365   -1.2519    2.6453 H   0  0  0  0  0  0  0  0  0  0  0  0
    4.8673   -0.3001    2.0795 H   0  0  0  0  0  0  0  0  0  0  0  0
    4.6337   -2.0207    1.5720 H   0  0  0  0  0  0  0  0  0  0  0  0
    2.3817    1.1690   -0.0565 H   0  0  0  0  0  0  0  0  0  0  0  0
    3.1755    1.3017    1.5355 H   0  0  0  0  0  0  0  0  0  0  0  0
    0.7425    1.2630    1.8132 H   0  0  0  0  0  0  0  0  0  0  0  0
    1.3976   -0.2230    2.5075 H   0  0  0  0  0  0  0  0  0  0  0  0
    0.7372   -1.5716    0.5092 H   0  0  0  0  0  0  0  0  0  0  0  0
   -0.0630   -2.0627   -1.7409 H   0  0  0  0  0  0  0  0  0  0  0  0
   -1.5523   -3.5444   -3.0330 H   0  0  0  0  0  0  0  0  0  0  0  0
   -3.9976   -3.5155   -2.6348 H   0  0  0  0  0  0  0  0  0  0  0  0
   -4.9564   -2.0481   -0.8877 H   0  0  0  0  0  0  0  0  0  0  0  0
   -4.5273    2.5249    0.7269 H   0  0  0  0  0  0  0  0  0  0  0  0
   -3.2729    4.5620    0.1141 H   0  0  0  0  0  0  0  0  0  0  0  0
    0.2942    2.2372   -0.4018 H   0  0  0  0  0  0  0  0  0  0  0  0
  1  2  1  0
  2  3  1  0
  2  4  1  0
  4  5  1  0
  5  6  1  0
  6  7  2  3
  7  8  1  0
  8  9  2  0
  9 10  1  0
 10 11  2  0
 11 12  1  0
 12 13  2  0
 13  8  1  0
 13 14  1  0
 14 15  1  0
 15 16  2  0
 16 17  1  0
 17 18  2  0
 18 19  1  0
 18 20  1  0
 20 21  2  0
 21  7  1  0
 21 15  1  0
  1 22  1  0
  1 23  1  0
  1 24  1  0
  3 25  1  0
  3 26  1  0
  3 27  1  0
  4 28  1  0
  4 29  1  0
  5 30  1  0
  5 31  1  0
  6 32  1  0
  9 33  1  0
 10 34  1  0
 11 35  1  0
 12 36  1  0
 16 37  1  0
 17 38  1  0
 20 39  1  0
M  END
> <ID>
HT0470

> <Class>
0.0

> <Clusters>
240

> <Fold>
5

$$$$