
     RDKit          3D

 53 54  0  0  0  0  0  0  0  0999 V2000
    0.0981    0.7832    2.9367 O   0  0  0  0  0  0  0  0  0  0  0  0
    0.4706    0.9447    1.7414 C   0  0  0  0  0  0  0  0  0  0  0  0
   -0.3801    1.7342    0.7790 C   0  0  0  0  0  0  0  0  0  0  0  0
    1.6370    0.3353    1.2729 O   0  0  0  0  0  0  0  0  0  0  0  0
    2.4550   -0.4936    2.0912 C   0  0  0  0  0  0  0  0  0  0  0  0
    3.5474   -0.9909    1.3261 O   0  0  0  0  0  0  0  0  0  0  0  0
    3.3767   -1.8461    0.2323 C   0  0  0  0  0  0  0  0  0  0  0  0
    4.5726   -2.3083   -0.5365 C   0  0  0  0  0  0  0  0  0  0  0  0
    2.2297   -2.2603   -0.0891 O   0  0  0  0  0  0  0  0  0  0  0  0
    5.2357   -3.4949    0.1684 C   0  0  0  0  0  0  0  0  0  0  0  0
    6.4465   -3.9933   -0.6146 C   0  0  0  0  0  0  0  0  0  0  0  0
   -1.6465    0.9119    0.4029 C   0  0  1  0  0  0  0  0  0  0  0  0
   -0.7269    3.1055    1.3123 C   0  0  0  0  0  0  0  0  0  0  0  0
   -2.7727    1.7627   -0.1842 C   0  0  0  0  0  0  0  0  0  0  0  0
   -1.2408   -0.2405   -0.5169 C   0  0  0  0  0  0  0  0  0  0  0  0
   -1.8036    3.7016    0.9020 N   0  0  0  0  0  0  0  0  0  0  0  0
    0.2845    3.9136    2.0749 C   0  0  0  0  0  0  0  0  0  0  0  0
   -2.8017    3.0942    0.0699 C   0  0  0  0  0  0  0  0  0  0  0  0
   -3.9505    1.0833   -0.7909 C   0  0  0  0  0  0  0  0  0  0  0  0
   -0.7945    0.0533   -1.8217 C   0  0  0  0  0  0  0  0  0  0  0  0
   -1.2735   -1.5947   -0.0940 C   0  0  0  0  0  0  0  0  0  0  0  0
   -3.8958    3.9927   -0.4382 C   0  0  0  0  0  0  0  0  0  0  0  0
   -3.7884    0.1717   -1.6472 O   0  0  0  0  0  0  0  0  0  0  0  0
   -5.2423    1.4311   -0.3829 O   0  0  0  0  0  0  0  0  0  0  0  0
   -0.3990   -0.9646   -2.6879 C   0  0  0  0  0  0  0  0  0  0  0  0
   -0.8747   -2.6135   -0.9823 C   0  0  0  0  0  0  0  0  0  0  0  0
   -1.7846   -2.0421    1.5377 Cl  0  0  0  0  0  0  0  0  0  0  0  0
   -6.4084    0.8252   -0.9282 C   0  0  0  0  0  0  0  0  0  0  0  0
   -0.4377   -2.2928   -2.2702 C   0  0  0  0  0  0  0  0  0  0  0  0
   -0.8996   -4.3076   -0.5046 Cl  0  0  0  0  0  0  0  0  0  0  0  0
    0.2266    1.9196   -0.1336 H   0  0  0  0  0  0  0  0  0  0  0  0
    1.8607   -1.3430    2.4931 H   0  0  0  0  0  0  0  0  0  0  0  0
    2.8536    0.1017    2.9395 H   0  0  0  0  0  0  0  0  0  0  0  0
    5.2949   -1.4673   -0.6197 H   0  0  0  0  0  0  0  0  0  0  0  0
    4.2609   -2.6017   -1.5626 H   0  0  0  0  0  0  0  0  0  0  0  0
    4.5064   -4.3288    0.2706 H   0  0  0  0  0  0  0  0  0  0  0  0
    5.5661   -3.1895    1.1857 H   0  0  0  0  0  0  0  0  0  0  0  0
    7.1951   -3.1799   -0.7266 H   0  0  0  0  0  0  0  0  0  0  0  0
    6.9192   -4.8386   -0.0705 H   0  0  0  0  0  0  0  0  0  0  0  0
    6.1364   -4.3465   -1.6207 H   0  0  0  0  0  0  0  0  0  0  0  0
   -2.0760    0.5204    1.3474 H   0  0  0  0  0  0  0  0  0  0  0  0
   -0.1329    4.9052    2.3539 H   0  0  0  0  0  0  0  0  0  0  0  0
    1.1850    4.0714    1.4456 H   0  0  0  0  0  0  0  0  0  0  0  0
    0.5775    3.3918    3.0089 H   0  0  0  0  0  0  0  0  0  0  0  0
   -0.7627    1.0774   -2.1725 H   0  0  0  0  0  0  0  0  0  0  0  0
   -4.1772    3.7269   -1.4801 H   0  0  0  0  0  0  0  0  0  0  0  0
   -4.7822    3.9223    0.2258 H   0  0  0  0  0  0  0  0  0  0  0  0
   -3.5469    5.0467   -0.4429 H   0  0  0  0  0  0  0  0  0  0  0  0
   -0.0587   -0.7224   -3.6863 H   0  0  0  0  0  0  0  0  0  0  0  0
   -6.3811   -0.2723   -0.7592 H   0  0  0  0  0  0  0  0  0  0  0  0
   -6.4717    1.0363   -2.0175 H   0  0  0  0  0  0  0  0  0  0  0  0
   -7.3046    1.2445   -0.4281 H   0  0  0  0  0  0  0  0  0  0  0  0
   -0.1207   -3.0749   -2.9484 H   0  0  0  0  0  0  0  0  0  0  0  0
  1  2  2  0
  2  3  1  0
  4  2  1  0
  5  4  1  0
  6  5  1  0
  7  6  1  0
  8  7  1  0
  7  9  2  0
 10  8  1  0
 11 10  1  0
  3 12  1  0
 13  3  1  0
 12 14  1  0
 12 15  1  0
 16 13  2  0
 13 17  1  0
 14 18  2  0
 14 19  1  0
 15 20  2  0
 21 15  1  0
 18 16  1  0
 18 22  1  0
 19 23  2  0
 19 24  1  0
 20 25  1  0
 26 21  2  0
 21 27  1  0
 24 28  1  0
 25 29  2  0
 29 26  1  0
 26 30  1  0
  3 31  1  0
  5 32  1  0
  5 33  1  0
  8 34  1  0
  8 35  1  0
 10 36  1  0
 10 37  1  0
 11 38  1  0
 11 39  1  0
 11 40  1  0
 12 41  1  1
 17 42  1  0
 17 43  1  0
 17 44  1  0
 20 45  1  0
 22 46  1  0
 22 47  1  0
 22 48  1  0
 25 49  1  0
 28 50  1  0
 28 51  1  0
 28 52  1  0
 29 53  1  0
M  END
> <ID>
HT0508

> <Class>
0.0

> <Clusters>
102

> <Fold>
5

$$$$