
     RDKit          3D

 32 33  0  0  0  0  0  0  0  0999 V2000
   -2.3414    2.8517   -1.0387 C   0  0  0  0  0  0  0  0  0  0  0  0
   -2.0632    1.4501   -0.6814 N   0  0  0  0  0  0  0  0  0  0  0  0
   -3.0786    0.6017   -0.2678 C   0  0  0  0  0  0  0  0  0  0  0  0
   -4.2683    1.0231   -0.2102 O   0  0  0  0  0  0  0  0  0  0  0  0
   -2.8067   -0.7037    0.0810 N   0  0  0  0  0  0  0  0  0  0  0  0
   -3.8799   -1.6184    0.4934 C   0  0  0  0  0  0  0  0  0  0  0  0
   -1.5233   -1.1415   -0.0322 C   0  0  0  0  0  0  0  0  0  0  0  0
   -1.0657   -2.3793    0.2429 N   0  0  0  0  0  0  0  0  0  0  0  0
    0.2625   -2.2757   -0.0189 C   0  0  0  0  0  0  0  0  0  0  0  0
    0.6299   -1.0420   -0.4458 N   0  0  0  0  0  0  0  0  0  0  0  0
    1.9922   -0.6012   -0.7500 C   0  0  0  0  0  0  0  0  0  0  0  0
    2.6166    0.1061    0.4684 C   0  0  0  0  0  0  0  0  0  0  0  0
    2.6760   -0.7534    1.5801 O   0  0  0  0  0  0  0  0  0  0  0  0
    4.0059    0.6779    0.1481 C   0  0  0  0  0  0  0  0  0  0  0  0
    4.8895   -0.3451   -0.2224 O   0  0  0  0  0  0  0  0  0  0  0  0
   -0.5158   -0.3353   -0.4402 C   0  0  0  0  0  0  0  0  0  0  0  0
   -0.7693    0.9914   -0.7702 C   0  0  0  0  0  0  0  0  0  0  0  0
    0.1643    1.7525   -1.1455 O   0  0  0  0  0  0  0  0  0  0  0  0
   -3.4126    3.1190   -0.9288 H   0  0  0  0  0  0  0  0  0  0  0  0
   -1.7556    3.5297   -0.3818 H   0  0  0  0  0  0  0  0  0  0  0  0
   -2.0539    3.0334   -2.0964 H   0  0  0  0  0  0  0  0  0  0  0  0
   -4.6133   -1.0933    1.1421 H   0  0  0  0  0  0  0  0  0  0  0  0
   -4.4007   -2.0097   -0.4057 H   0  0  0  0  0  0  0  0  0  0  0  0
   -3.4816   -2.4731    1.0807 H   0  0  0  0  0  0  0  0  0  0  0  0
    0.9562   -3.0965    0.1103 H   0  0  0  0  0  0  0  0  0  0  0  0
    2.6104   -1.4802   -1.0368 H   0  0  0  0  0  0  0  0  0  0  0  0
    1.9791    0.0800   -1.6270 H   0  0  0  0  0  0  0  0  0  0  0  0
    1.9640    0.9630    0.7419 H   0  0  0  0  0  0  0  0  0  0  0  0
    3.2089   -1.5497    1.3199 H   0  0  0  0  0  0  0  0  0  0  0  0
    4.3978    1.2029    1.0480 H   0  0  0  0  0  0  0  0  0  0  0  0
    3.9195    1.4185   -0.6787 H   0  0  0  0  0  0  0  0  0  0  0  0
    5.7571    0.0968   -0.4138 H   0  0  0  0  0  0  0  0  0  0  0  0
  1  2  1  0
  2  3  1  0
  3  4  2  0
  3  5  1  0
  5  6  1  0
  5  7  1  0
  7  8  1  0
  8  9  2  0
  9 10  1  0
 10 11  1  0
 11 12  1  0
 12 13  1  0
 12 14  1  0
 14 15  1  0
 10 16  1  0
 16  7  2  0
 16 17  1  0
 17  2  1  0
 17 18  2  0
  1 19  1  0
  1 20  1  0
  1 21  1  0
  6 22  1  0
  6 23  1  0
  6 24  1  0
  9 25  1  0
 11 26  1  0
 11 27  1  0
 12 28  1  0
 13 29  1  0
 14 30  1  0
 14 31  1  0
 15 32  1  0
M  END
> <ID>
HT0736

> <Class>
0.0

> <Clusters>
259

> <Fold>
5

$$$$