
     RDKit          3D

 57 60  0  0  0  0  0  0  0  0999 V2000
    3.6274    1.6901    2.3085 C   0  0  0  0  0  0  0  0  0  0  0  0
    2.9473    1.4846    0.9465 C   0  0  2  0  0  0  0  0  0  0  0  0
    1.4759    1.9655    0.9583 C   0  0  0  0  0  0  0  0  0  0  0  0
    0.6668    0.7226    0.6135 C   0  0  1  0  0  0  0  0  0  0  0  0
   -0.7963    0.8951    0.1240 C   0  0  2  0  0  0  0  0  0  0  0  0
   -1.6193    1.7860    1.1008 C   0  0  2  0  0  0  0  0  0  0  0  0
   -1.5572    1.2171    2.8053 Cl  0  0  0  0  0  0  0  0  0  0  0  0
   -3.0797    1.8860    0.6576 C   0  0  0  0  0  0  0  0  0  0  0  0
   -3.6660    0.5030    0.5228 C   0  0  0  0  0  0  0  0  0  0  0  0
   -4.7458    0.1688    1.2478 C   0  0  0  0  0  0  0  0  0  0  0  0
   -5.2938   -1.1856    1.1973 C   0  0  0  0  0  0  0  0  0  0  0  0
   -6.3191   -1.4802    1.8661 O   0  0  0  0  0  0  0  0  0  0  0  0
   -4.6346   -2.1990    0.3783 C   0  0  0  0  0  0  0  0  0  0  0  0
   -3.5621   -1.8888   -0.3507 C   0  0  0  0  0  0  0  0  0  0  0  0
   -2.9751   -0.4789   -0.4363 C   0  0  1  0  0  0  0  0  0  0  0  0
   -3.2411    0.0259   -1.8747 C   0  0  0  0  0  0  0  0  0  0  0  0
   -1.4423   -0.5265   -0.0444 C   0  0  1  0  0  0  0  0  0  0  0  0
   -0.5440   -1.5142   -0.8846 C   0  0  1  0  0  0  0  0  0  0  0  0
   -0.6737   -1.3753   -2.2760 O   0  0  0  0  0  0  0  0  0  0  0  0
    0.9554   -1.5075   -0.4745 C   0  0  0  0  0  0  0  0  0  0  0  0
    1.5698   -0.0837   -0.3343 C   0  0  1  0  0  0  0  0  0  0  0  0
    1.7451    0.5849   -1.7432 C   0  0  0  0  0  0  0  0  0  0  0  0
    2.9299   -0.0119    0.4459 C   0  0  2  0  0  0  0  0  0  0  0  0
    2.8724   -0.8864    1.5571 O   0  0  0  0  0  0  0  0  0  0  0  0
    4.1470   -0.3805   -0.4184 C   0  0  0  0  0  0  0  0  0  0  0  0
    4.9296    0.4826   -0.7889 O   0  0  0  0  0  0  0  0  0  0  0  0
    4.4473   -1.8125   -0.7749 C   0  0  0  0  0  0  0  0  0  0  0  0
    4.5297   -1.9604   -2.1662 O   0  0  0  0  0  0  0  0  0  0  0  0
    3.0745    1.1617    3.1143 H   0  0  0  0  0  0  0  0  0  0  0  0
    3.6549    2.7729    2.5553 H   0  0  0  0  0  0  0  0  0  0  0  0
    4.6727    1.3170    2.2718 H   0  0  0  0  0  0  0  0  0  0  0  0
    3.4903    2.1326    0.2244 H   0  0  0  0  0  0  0  0  0  0  0  0
    1.1678    2.3760    1.9452 H   0  0  0  0  0  0  0  0  0  0  0  0
    1.3181    2.7489    0.1843 H   0  0  0  0  0  0  0  0  0  0  0  0
    0.5958    0.1483    1.5678 H   0  0  0  0  0  0  0  0  0  0  0  0
   -0.8035    1.4207   -0.8482 H   0  0  0  0  0  0  0  0  0  0  0  0
   -1.1963    2.8137    1.0877 H   0  0  0  0  0  0  0  0  0  0  0  0
   -3.6426    2.5076    1.3889 H   0  0  0  0  0  0  0  0  0  0  0  0
   -3.1389    2.4118   -0.3187 H   0  0  0  0  0  0  0  0  0  0  0  0
   -5.2137    0.8911    1.9062 H   0  0  0  0  0  0  0  0  0  0  0  0
   -5.0236   -3.2096    0.3593 H   0  0  0  0  0  0  0  0  0  0  0  0
   -3.1408   -2.6689   -0.9719 H   0  0  0  0  0  0  0  0  0  0  0  0
   -4.3185    0.2717   -2.0001 H   0  0  0  0  0  0  0  0  0  0  0  0
   -2.6584    0.9385   -2.1108 H   0  0  0  0  0  0  0  0  0  0  0  0
   -3.0130   -0.7482   -2.6361 H   0  0  0  0  0  0  0  0  0  0  0  0
   -1.4325   -0.9703    0.9787 H   0  0  0  0  0  0  0  0  0  0  0  0
   -0.8935   -2.5426   -0.6521 H   0  0  0  0  0  0  0  0  0  0  0  0
   -0.6810   -0.4144   -2.4954 H   0  0  0  0  0  0  0  0  0  0  0  0
    1.5311   -2.1059   -1.2103 H   0  0  0  0  0  0  0  0  0  0  0  0
    1.0305   -2.0472    0.4941 H   0  0  0  0  0  0  0  0  0  0  0  0
    0.8289    1.0333   -2.1525 H   0  0  0  0  0  0  0  0  0  0  0  0
    2.4732    1.4202   -1.7236 H   0  0  0  0  0  0  0  0  0  0  0  0
    2.1217   -0.1524   -2.4816 H   0  0  0  0  0  0  0  0  0  0  0  0
    3.7786   -0.9511    1.9586 H   0  0  0  0  0  0  0  0  0  0  0  0
    3.6935   -2.5094   -0.3469 H   0  0  0  0  0  0  0  0  0  0  0  0
    5.4283   -2.0860   -0.3331 H   0  0  0  0  0  0  0  0  0  0  0  0
    3.6026   -2.0808   -2.4975 H   0  0  0  0  0  0  0  0  0  0  0  0
  2  1  1  0
  2  3  1  0
  4  3  1  0
  5  4  1  0
  5  6  1  0
  6  7  1  0
  6  8  1  0
  8  9  1  0
  9 10  2  0
 10 11  1  0
 11 12  2  0
 11 13  1  0
 13 14  2  0
 14 15  1  0
 15  9  1  0
 15 16  1  6
 15 17  1  0
 17  5  1  0
 17 18  1  0
 18 19  1  0
 18 20  1  0
 20 21  1  0
 21  4  1  0
 21 22  1  6
 21 23  1  0
 23  2  1  0
 23 24  1  1
 23 25  1  0
 25 26  2  0
 25 27  1  0
 27 28  1  0
  1 29  1  0
  1 30  1  0
  1 31  1  0
  2 32  1  6
  3 33  1  0
  3 34  1  0
  4 35  1  1
  5 36  1  6
  6 37  1  1
  8 38  1  0
  8 39  1  0
 10 40  1  0
 13 41  1  0
 14 42  1  0
 16 43  1  0
 16 44  1  0
 16 45  1  0
 17 46  1  1
 18 47  1  1
 19 48  1  0
 20 49  1  0
 20 50  1  0
 22 51  1  0
 22 52  1  0
 22 53  1  0
 24 54  1  0
 27 55  1  0
 27 56  1  0
 28 57  1  0
M  END
> <ID>
HT0090

> <Class>
0.0

> <Clusters>
189

> <Fold>
5

$$$$