
     RDKit          3D

 54 58  0  0  0  0  0  0  0  0999 V2000
    2.8896   -1.2679    2.3643 O   0  0  0  0  0  0  0  0  0  0  0  0
    3.8913   -1.1531    1.6084 C   0  0  0  0  0  0  0  0  0  0  0  0
    5.1559   -1.4197    2.0127 N   0  0  0  0  0  0  0  0  0  0  0  0
    3.8138   -0.7410    0.3174 N   0  0  0  0  0  0  0  0  0  0  0  0
    2.6224   -0.3022   -0.4101 C   0  0  0  0  0  0  0  0  0  0  0  0
    5.0965   -0.7294   -0.0970 C   0  0  0  0  0  0  0  0  0  0  0  0
    2.4521    1.2146   -0.2755 C   0  0  0  0  0  0  0  0  0  0  0  0
    5.6191   -0.3507   -1.3351 C   0  0  0  0  0  0  0  0  0  0  0  0
    5.9026   -1.1463    0.9285 C   0  0  0  0  0  0  0  0  0  0  0  0
    1.2578    1.7402   -1.0779 C   0  0  0  0  0  0  0  0  0  0  0  0
    7.0151   -0.4211   -1.5029 C   0  0  0  0  0  0  0  0  0  0  0  0
    7.2868   -1.2243    0.7952 C   0  0  0  0  0  0  0  0  0  0  0  0
   -0.0043    1.1966   -0.5243 N   0  0  0  0  0  0  0  0  0  0  0  0
    7.8445   -0.8567   -0.4438 C   0  0  0  0  0  0  0  0  0  0  0  0
   -0.6626    0.2606   -1.4558 C   0  0  0  0  0  0  0  0  0  0  0  0
   -0.9349    2.2733   -0.1128 C   0  0  0  0  0  0  0  0  0  0  0  0
   -1.7304   -0.5578   -0.7117 C   0  0  0  0  0  0  0  0  0  0  0  0
   -2.3452    1.7422    0.2333 C   0  0  0  0  0  0  0  0  0  0  0  0
   -2.3388    0.2225    0.4763 C   0  0  0  0  0  0  0  0  0  0  0  0
   -3.6843   -0.2714    0.8173 N   0  0  0  0  0  0  0  0  0  0  0  0
   -4.0646   -0.8230    2.0007 C   0  0  0  0  0  0  0  0  0  0  0  0
   -4.8236   -0.2780    0.0831 C   0  0  0  0  0  0  0  0  0  0  0  0
   -3.2819   -0.9954    2.9733 O   0  0  0  0  0  0  0  0  0  0  0  0
   -5.3709   -1.1707    2.0422 N   0  0  0  0  0  0  0  0  0  0  0  0
   -5.0484    0.1612   -1.2270 C   0  0  0  0  0  0  0  0  0  0  0  0
   -5.8349   -0.8223    0.8318 C   0  0  0  0  0  0  0  0  0  0  0  0
   -6.3481    0.0321   -1.7507 C   0  0  0  0  0  0  0  0  0  0  0  0
   -7.1310   -0.9635    0.3422 C   0  0  0  0  0  0  0  0  0  0  0  0
   -7.3859   -0.5265   -0.9705 C   0  0  0  0  0  0  0  0  0  0  0  0
   -8.9985   -0.6791   -1.6425 Cl  0  0  0  0  0  0  0  0  0  0  0  0
    5.4773   -1.7437    2.9522 H   0  0  0  0  0  0  0  0  0  0  0  0
    1.7290   -0.8221   -0.0014 H   0  0  0  0  0  0  0  0  0  0  0  0
    2.7140   -0.5827   -1.4815 H   0  0  0  0  0  0  0  0  0  0  0  0
    2.3203    1.4795    0.7965 H   0  0  0  0  0  0  0  0  0  0  0  0
    3.3739    1.7170   -0.6416 H   0  0  0  0  0  0  0  0  0  0  0  0
    4.9815   -0.0116   -2.1406 H   0  0  0  0  0  0  0  0  0  0  0  0
    1.3918    1.4875   -2.1547 H   0  0  0  0  0  0  0  0  0  0  0  0
    1.2892    2.8523   -1.0215 H   0  0  0  0  0  0  0  0  0  0  0  0
    7.4568   -0.1371   -2.4492 H   0  0  0  0  0  0  0  0  0  0  0  0
    7.9124   -1.5517    1.6154 H   0  0  0  0  0  0  0  0  0  0  0  0
    8.9164   -0.9041   -0.5852 H   0  0  0  0  0  0  0  0  0  0  0  0
    0.0750   -0.4478   -1.8938 H   0  0  0  0  0  0  0  0  0  0  0  0
   -1.1325    0.8205   -2.2968 H   0  0  0  0  0  0  0  0  0  0  0  0
   -1.0321    3.0377   -0.9177 H   0  0  0  0  0  0  0  0  0  0  0  0
   -0.5147    2.7780    0.7847 H   0  0  0  0  0  0  0  0  0  0  0  0
   -2.5056   -0.8749   -1.4378 H   0  0  0  0  0  0  0  0  0  0  0  0
   -1.2666   -1.4886   -0.3170 H   0  0  0  0  0  0  0  0  0  0  0  0
   -2.7259    2.2605    1.1404 H   0  0  0  0  0  0  0  0  0  0  0  0
   -3.0318    1.9950   -0.5987 H   0  0  0  0  0  0  0  0  0  0  0  0
   -1.6650    0.0541    1.3474 H   0  0  0  0  0  0  0  0  0  0  0  0
   -5.8961   -1.6075    2.8324 H   0  0  0  0  0  0  0  0  0  0  0  0
   -4.2633    0.5798   -1.8388 H   0  0  0  0  0  0  0  0  0  0  0  0
   -6.5499    0.3625   -2.7615 H   0  0  0  0  0  0  0  0  0  0  0  0
   -7.9135   -1.3958    0.9527 H   0  0  0  0  0  0  0  0  0  0  0  0
  1  2  2  0
  2  3  1  0
  4  2  1  0
  4  5  1  0
  6  4  1  0
  5  7  1  0
  8  6  1  0
  6  9  2  0
  7 10  1  0
 11  8  2  0
  3  9  1  0
  9 12  1  0
 10 13  1  0
 14 11  1  0
 12 14  2  0
 13 15  1  0
 16 13  1  0
 15 17  1  0
 18 16  1  0
 17 19  1  0
 19 18  1  0
 19 20  1  0
 20 21  1  0
 22 20  1  0
 23 21  2  0
 21 24  1  0
 25 22  2  0
 22 26  1  0
 24 26  1  0
 27 25  1  0
 26 28  2  0
 29 27  2  0
 28 29  1  0
 29 30  1  0
  3 31  1  0
  5 32  1  0
  5 33  1  0
  7 34  1  0
  7 35  1  0
  8 36  1  0
 10 37  1  0
 10 38  1  0
 11 39  1  0
 12 40  1  0
 14 41  1  0
 15 42  1  0
 15 43  1  0
 16 44  1  0
 16 45  1  0
 17 46  1  0
 17 47  1  0
 18 48  1  0
 18 49  1  0
 19 50  1  0
 24 51  1  0
 25 52  1  0
 27 53  1  0
 28 54  1  0
M  END
> <ID>
HT0707

> <Class>
0.0

> <Clusters>
198

> <Fold>
5

$$$$