
     RDKit          3D

 73 76  0  0  0  0  0  0  0  0999 V2000
    7.7213   -1.5982   -0.9965 C   0  0  0  0  0  0  0  0  0  0  0  0
    6.8418   -0.7173   -1.8837 C   0  0  0  0  0  0  0  0  0  0  0  0
    5.3875   -0.7676   -1.5108 C   0  0  0  0  0  0  0  0  0  0  0  0
    4.9815   -1.5294   -0.5908 O   0  0  0  0  0  0  0  0  0  0  0  0
    4.4873    0.0337   -2.2196 O   0  0  0  0  0  0  0  0  0  0  0  0
    3.0950    0.1365   -1.9151 C   0  0  0  0  0  0  0  0  0  0  0  0
    2.8512    1.0711   -0.7512 C   0  0  0  0  0  0  0  0  0  0  0  0
    3.8041    1.7219   -0.3466 O   0  0  0  0  0  0  0  0  0  0  0  0
    1.5063    1.2442   -0.0093 C   0  0  1  0  0  0  0  0  0  0  0  0
    1.7042    0.9208    1.3836 O   0  0  0  0  0  0  0  0  0  0  0  0
    2.3702   -0.1972    1.9061 C   0  0  0  0  0  0  0  0  0  0  0  0
    2.8781   -1.0679    1.1505 O   0  0  0  0  0  0  0  0  0  0  0  0
    2.4218   -0.3848    3.3888 C   0  0  0  0  0  0  0  0  0  0  0  0
    1.4843   -1.5091    3.8199 C   0  0  0  0  0  0  0  0  0  0  0  0
    1.0731    2.7568   -0.0765 C   0  0  2  0  0  0  0  0  0  0  0  0
    1.6767    3.6409    1.0314 C   0  0  0  0  0  0  0  0  0  0  0  0
   -0.4735    2.7895   -0.0328 C   0  0  0  0  0  0  0  0  0  0  0  0
   -0.8767    1.3410    0.1922 C   0  0  1  0  0  0  0  0  0  0  0  0
   -2.3456    0.9330   -0.1105 C   0  0  2  0  0  0  0  0  0  0  0  0
   -3.3560    1.8295    0.6600 C   0  0  2  0  0  0  0  0  0  0  0  0
   -3.0782    1.8506    2.4362 Cl  0  0  0  0  0  0  0  0  0  0  0  0
   -4.7930    1.3932    0.3734 C   0  0  0  0  0  0  0  0  0  0  0  0
   -4.9604   -0.0656    0.7164 C   0  0  0  0  0  0  0  0  0  0  0  0
   -5.9040   -0.4288    1.5998 C   0  0  0  0  0  0  0  0  0  0  0  0
   -6.0529   -1.8238    2.0079 C   0  0  0  0  0  0  0  0  0  0  0  0
   -6.9653   -2.1553    2.8078 O   0  0  0  0  0  0  0  0  0  0  0  0
   -5.1265   -2.8274    1.4912 C   0  0  0  0  0  0  0  0  0  0  0  0
   -4.1821   -2.4899    0.6130 C   0  0  0  0  0  0  0  0  0  0  0  0
   -4.0299   -1.0818    0.0321 C   0  0  1  0  0  0  0  0  0  0  0  0
   -4.4514   -1.1684   -1.4541 C   0  0  0  0  0  0  0  0  0  0  0  0
   -2.5403   -0.5865    0.2352 C   0  0  1  0  0  0  0  0  0  0  0  0
   -1.4351   -1.4854   -0.4238 C   0  0  1  0  0  0  0  0  0  0  0  0
   -1.6363   -1.6085   -1.8064 O   0  0  0  0  0  0  0  0  0  0  0  0
   -0.0008   -0.9635   -0.1317 C   0  0  0  0  0  0  0  0  0  0  0  0
    0.2000    0.5212   -0.5477 C   0  0  2  0  0  0  0  0  0  0  0  0
    0.0725    0.6628   -2.1039 C   0  0  0  0  0  0  0  0  0  0  0  0
    8.7791   -1.5218   -1.3295 H   0  0  0  0  0  0  0  0  0  0  0  0
    7.4033   -2.6621   -1.0711 H   0  0  0  0  0  0  0  0  0  0  0  0
    7.6584   -1.2646    0.0616 H   0  0  0  0  0  0  0  0  0  0  0  0
    7.1925    0.3348   -1.8100 H   0  0  0  0  0  0  0  0  0  0  0  0
    6.9514   -1.0474   -2.9389 H   0  0  0  0  0  0  0  0  0  0  0  0
    2.6137    0.5579   -2.8161 H   0  0  0  0  0  0  0  0  0  0  0  0
    2.6821   -0.8714   -1.7083 H   0  0  0  0  0  0  0  0  0  0  0  0
    2.1137    0.5581    3.8942 H   0  0  0  0  0  0  0  0  0  0  0  0
    3.4650   -0.6224    3.6959 H   0  0  0  0  0  0  0  0  0  0  0  0
    1.5262   -1.6267    4.9229 H   0  0  0  0  0  0  0  0  0  0  0  0
    1.7888   -2.4683    3.3489 H   0  0  0  0  0  0  0  0  0  0  0  0
    0.4381   -1.2729    3.5291 H   0  0  0  0  0  0  0  0  0  0  0  0
    1.3956    3.1955   -1.0485 H   0  0  0  0  0  0  0  0  0  0  0  0
    1.3738    4.6974    0.8718 H   0  0  0  0  0  0  0  0  0  0  0  0
    1.3204    3.3246    2.0350 H   0  0  0  0  0  0  0  0  0  0  0  0
    2.7839    3.5974    1.0121 H   0  0  0  0  0  0  0  0  0  0  0  0
   -0.8687    3.4367    0.7810 H   0  0  0  0  0  0  0  0  0  0  0  0
   -0.8800    3.1554   -1.0013 H   0  0  0  0  0  0  0  0  0  0  0  0
   -0.7402    1.1593    1.2842 H   0  0  0  0  0  0  0  0  0  0  0  0
   -2.5639    1.0979   -1.1808 H   0  0  0  0  0  0  0  0  0  0  0  0
   -3.2503    2.8769    0.3030 H   0  0  0  0  0  0  0  0  0  0  0  0
   -5.4929    2.0396    0.9476 H   0  0  0  0  0  0  0  0  0  0  0  0
   -5.0247    1.5492   -0.7020 H   0  0  0  0  0  0  0  0  0  0  0  0
   -6.5571    0.3114    2.0471 H   0  0  0  0  0  0  0  0  0  0  0  0
   -5.2105   -3.8555    1.8205 H   0  0  0  0  0  0  0  0  0  0  0  0
   -3.5586   -3.2862    0.2290 H   0  0  0  0  0  0  0  0  0  0  0  0
   -4.0095   -2.0536   -1.9579 H   0  0  0  0  0  0  0  0  0  0  0  0
   -5.5550   -1.2843   -1.5309 H   0  0  0  0  0  0  0  0  0  0  0  0
   -4.1671   -0.2610   -2.0231 H   0  0  0  0  0  0  0  0  0  0  0  0
   -2.3530   -0.6742    1.3311 H   0  0  0  0  0  0  0  0  0  0  0  0
   -1.4920   -2.4965    0.0373 H   0  0  0  0  0  0  0  0  0  0  0  0
   -1.1122   -2.3961   -2.1075 H   0  0  0  0  0  0  0  0  0  0  0  0
    0.7429   -1.6131   -0.6375 H   0  0  0  0  0  0  0  0  0  0  0  0
    0.1520   -1.0833    0.9588 H   0  0  0  0  0  0  0  0  0  0  0  0
    0.5330   -0.2018   -2.6219 H   0  0  0  0  0  0  0  0  0  0  0  0
   -0.9665    0.6872   -2.4690 H   0  0  0  0  0  0  0  0  0  0  0  0
    0.5395    1.5936   -2.4842 H   0  0  0  0  0  0  0  0  0  0  0  0
  1  2  1  0
  2  3  1  0
  3  4  2  0
  3  5  1  0
  5  6  1  0
  6  7  1  0
  7  8  2  0
  7  9  1  0
  9 10  1  1
 10 11  1  0
 11 12  2  0
 11 13  1  0
 13 14  1  0
  9 15  1  0
 15 16  1  0
 15 17  1  0
 18 17  1  0
 18 19  1  0
 19 20  1  0
 20 21  1  0
 20 22  1  0
 22 23  1  0
 23 24  2  0
 24 25  1  0
 25 26  2  0
 25 27  1  0
 27 28  2  0
 28 29  1  0
 29 23  1  0
 29 30  1  6
 29 31  1  0
 31 19  1  0
 31 32  1  0
 32 33  1  0
 32 34  1  0
 34 35  1  0
 35  9  1  0
 35 18  1  0
 35 36  1  6
  1 37  1  0
  1 38  1  0
  1 39  1  0
  2 40  1  0
  2 41  1  0
  6 42  1  0
  6 43  1  0
 13 44  1  0
 13 45  1  0
 14 46  1  0
 14 47  1  0
 14 48  1  0
 15 49  1  6
 16 50  1  0
 16 51  1  0
 16 52  1  0
 17 53  1  0
 17 54  1  0
 18 55  1  1
 19 56  1  6
 20 57  1  6
 22 58  1  0
 22 59  1  0
 24 60  1  0
 27 61  1  0
 28 62  1  0
 30 63  1  0
 30 64  1  0
 30 65  1  0
 31 66  1  1
 32 67  1  1
 33 68  1  0
 34 69  1  0
 34 70  1  0
 36 71  1  0
 36 72  1  0
 36 73  1  0
M  END
> <ID>
HT0091

> <Class>
0.0

> <Clusters>
34

> <Fold>
5

$$$$