
     RDKit          3D

 66 65  0  0  0  0  0  0  0  0999 V2000
   -7.4251   -0.6382   -1.2525 C   0  0  0  0  0  0  0  0  0  0  0  0
   -6.8682    0.6476   -0.6408 C   0  0  0  0  0  0  0  0  0  0  0  0
   -5.3356    0.7292   -0.7394 C   0  0  0  0  0  0  0  0  0  0  0  0
   -4.6027   -0.1918    0.2643 C   0  0  0  0  0  0  0  0  0  0  0  0
   -3.9520    0.5710    1.4469 C   0  0  0  0  0  0  0  0  0  0  0  0
   -4.9803    1.2647    2.3761 C   0  0  0  0  0  0  0  0  0  0  0  0
   -5.8831    0.3093    3.1631 C   0  0  0  0  0  0  0  0  0  0  0  0
   -3.0072   -0.3562    2.2423 C   0  0  0  0  0  0  0  0  0  0  0  0
   -1.8991   -0.7710    1.4436 O   0  0  0  0  0  0  0  0  0  0  0  0
   -0.8198    0.0608    1.1247 C   0  0  0  0  0  0  0  0  0  0  0  0
   -0.7290    1.2184    1.6186 O   0  0  0  0  0  0  0  0  0  0  0  0
    0.2534   -0.4483    0.2113 C   0  0  0  0  0  0  0  0  0  0  0  0
    0.4219    0.4270   -1.0448 C   0  0  0  0  0  0  0  0  0  0  0  0
    1.5923   -0.0557   -1.8506 C   0  0  0  0  0  0  0  0  0  0  0  0
    1.5888   -1.2208   -2.3354 O   0  0  0  0  0  0  0  0  0  0  0  0
    2.6824    0.7988   -2.0488 O   0  0  0  0  0  0  0  0  0  0  0  0
    3.9113    0.3999   -2.6587 C   0  0  0  0  0  0  0  0  0  0  0  0
    4.9703    0.0083   -1.6011 C   0  0  0  0  0  0  0  0  0  0  0  0
    4.6180   -1.3077   -0.8633 C   0  0  0  0  0  0  0  0  0  0  0  0
    4.6880   -2.5389   -1.7688 C   0  0  0  0  0  0  0  0  0  0  0  0
    5.1729    1.1769   -0.6027 C   0  0  0  0  0  0  0  0  0  0  0  0
    6.4425    1.0340    0.2685 C   0  0  0  0  0  0  0  0  0  0  0  0
    6.1035    0.8014    1.7484 C   0  0  0  0  0  0  0  0  0  0  0  0
    7.3680    0.6069    2.5805 C   0  0  0  0  0  0  0  0  0  0  0  0
   -1.0596    0.4417   -2.0619 S   0  0  0  0  0  0  0  0  0  0  0  0
   -2.0775    1.3561   -1.4421 O   0  0  0  0  0  0  0  0  0  0  0  0
   -0.7323    0.9508   -3.4382 O   0  0  0  0  0  0  0  0  0  0  0  0
   -1.7105   -1.1054   -2.1790 O   0  0  0  0  0  0  0  0  0  0  0  0
   -7.0750   -1.5299   -0.6937 H   0  0  0  0  0  0  0  0  0  0  0  0
   -8.5349   -0.6148   -1.2141 H   0  0  0  0  0  0  0  0  0  0  0  0
   -7.1118   -0.7298   -2.3148 H   0  0  0  0  0  0  0  0  0  0  0  0
   -7.1987    0.7314    0.4155 H   0  0  0  0  0  0  0  0  0  0  0  0
   -7.3025    1.5082   -1.1951 H   0  0  0  0  0  0  0  0  0  0  0  0
   -5.0259    1.7865   -0.5933 H   0  0  0  0  0  0  0  0  0  0  0  0
   -5.0275    0.4651   -1.7752 H   0  0  0  0  0  0  0  0  0  0  0  0
   -5.2642   -0.9965    0.6438 H   0  0  0  0  0  0  0  0  0  0  0  0
   -3.7971   -0.7115   -0.2980 H   0  0  0  0  0  0  0  0  0  0  0  0
   -3.3260    1.3835    1.0178 H   0  0  0  0  0  0  0  0  0  0  0  0
   -4.4296    1.8983    3.1052 H   0  0  0  0  0  0  0  0  0  0  0  0
   -5.6163    1.9561    1.7845 H   0  0  0  0  0  0  0  0  0  0  0  0
   -5.2878   -0.3026    3.8723 H   0  0  0  0  0  0  0  0  0  0  0  0
   -6.6114    0.9034    3.7547 H   0  0  0  0  0  0  0  0  0  0  0  0
   -6.4549   -0.3583    2.4879 H   0  0  0  0  0  0  0  0  0  0  0  0
   -3.5586   -1.2658    2.5611 H   0  0  0  0  0  0  0  0  0  0  0  0
   -2.6360    0.1508    3.1597 H   0  0  0  0  0  0  0  0  0  0  0  0
    1.2095   -0.4666    0.7792 H   0  0  0  0  0  0  0  0  0  0  0  0
    0.0200   -1.4946   -0.0829 H   0  0  0  0  0  0  0  0  0  0  0  0
    0.6290    1.4729   -0.7281 H   0  0  0  0  0  0  0  0  0  0  0  0
    4.2991    1.2661   -3.2365 H   0  0  0  0  0  0  0  0  0  0  0  0
    3.7501   -0.4081   -3.4025 H   0  0  0  0  0  0  0  0  0  0  0  0
    5.9293   -0.1433   -2.1464 H   0  0  0  0  0  0  0  0  0  0  0  0
    5.3459   -1.4799   -0.0439 H   0  0  0  0  0  0  0  0  0  0  0  0
    3.6130   -1.2397   -0.3964 H   0  0  0  0  0  0  0  0  0  0  0  0
    3.9003   -2.5149   -2.5469 H   0  0  0  0  0  0  0  0  0  0  0  0
    5.6842   -2.6048   -2.2551 H   0  0  0  0  0  0  0  0  0  0  0  0
    4.5347   -3.4530   -1.1578 H   0  0  0  0  0  0  0  0  0  0  0  0
    5.2694    2.1233   -1.1805 H   0  0  0  0  0  0  0  0  0  0  0  0
    4.2637    1.2914    0.0294 H   0  0  0  0  0  0  0  0  0  0  0  0
    7.0929    0.2110   -0.1032 H   0  0  0  0  0  0  0  0  0  0  0  0
    7.0374    1.9715    0.1902 H   0  0  0  0  0  0  0  0  0  0  0  0
    5.4601   -0.0968    1.8594 H   0  0  0  0  0  0  0  0  0  0  0  0
    5.5465    1.6791    2.1431 H   0  0  0  0  0  0  0  0  0  0  0  0
    8.0262    1.4980    2.4982 H   0  0  0  0  0  0  0  0  0  0  0  0
    7.0915    0.4655    3.6468 H   0  0  0  0  0  0  0  0  0  0  0  0
    7.9216   -0.2923    2.2349 H   0  0  0  0  0  0  0  0  0  0  0  0
   -1.0976   -1.5994   -2.7795 H   0  0  0  0  0  0  0  0  0  0  0  0
  1  2  1  0
  2  3  1  0
  3  4  1  0
  4  5  1  0
  5  6  1  0
  6  7  1  0
  5  8  1  0
  8  9  1  0
  9 10  1  0
 10 11  2  0
 10 12  1  0
 12 13  1  0
 13 14  1  0
 14 15  2  0
 14 16  1  0
 16 17  1  0
 17 18  1  0
 18 19  1  0
 19 20  1  0
 18 21  1  0
 21 22  1  0
 22 23  1  0
 23 24  1  0
 13 25  1  0
 25 26  2  0
 25 27  2  0
 25 28  1  0
  1 29  1  0
  1 30  1  0
  1 31  1  0
  2 32  1  0
  2 33  1  0
  3 34  1  0
  3 35  1  0
  4 36  1  0
  4 37  1  0
  5 38  1  0
  6 39  1  0
  6 40  1  0
  7 41  1  0
  7 42  1  0
  7 43  1  0
  8 44  1  0
  8 45  1  0
 12 46  1  0
 12 47  1  0
 13 48  1  0
 17 49  1  0
 17 50  1  0
 18 51  1  0
 19 52  1  0
 19 53  1  0
 20 54  1  0
 20 55  1  0
 20 56  1  0
 21 57  1  0
 21 58  1  0
 22 59  1  0
 22 60  1  0
 23 61  1  0
 23 62  1  0
 24 63  1  0
 24 64  1  0
 24 65  1  0
 28 66  1  0
M  END
> <ID>
HT0704

> <Class>
0.0

> <Clusters>
83

> <Fold>
5

$$$$