
     RDKit          3D

 17 17  0  0  0  0  0  0  0  0999 V2000
    3.2564    0.0583    0.5534 N   0  0  0  0  0  0  0  0  0  0  0  0
    2.0273    0.0823   -0.1707 C   0  0  0  0  0  0  0  0  0  0  0  0
    2.0053    0.5445   -1.3433 O   0  0  0  0  0  0  0  0  0  0  0  0
    0.8287   -0.4201    0.4338 N   0  0  0  0  0  0  0  0  0  0  0  0
   -0.4549   -0.4077   -0.2694 C   0  0  0  0  0  0  0  0  0  0  0  0
   -0.9621    0.9587   -0.3732 N   0  0  0  0  0  0  0  0  0  0  0  0
   -2.1990    1.0216    0.3228 C   0  0  0  0  0  0  0  0  0  0  0  0
   -2.8906    2.0694    0.4142 O   0  0  0  0  0  0  0  0  0  0  0  0
   -2.5775   -0.2134    0.8972 N   0  0  0  0  0  0  0  0  0  0  0  0
   -1.5238   -1.0928    0.5341 C   0  0  0  0  0  0  0  0  0  0  0  0
   -1.5100   -2.3126    0.8465 O   0  0  0  0  0  0  0  0  0  0  0  0
    4.1328    0.4216    0.1174 H   0  0  0  0  0  0  0  0  0  0  0  0
    3.2930   -0.3209    1.5254 H   0  0  0  0  0  0  0  0  0  0  0  0
    0.8914   -0.8299    1.3937 H   0  0  0  0  0  0  0  0  0  0  0  0
   -0.3649   -0.8726   -1.2748 H   0  0  0  0  0  0  0  0  0  0  0  0
   -0.5117    1.7465   -0.8897 H   0  0  0  0  0  0  0  0  0  0  0  0
   -3.4406   -0.4327    1.4421 H   0  0  0  0  0  0  0  0  0  0  0  0
  1  2  1  0
  2  3  2  0
  2  4  1  0
  4  5  1  0
  5  6  1  0
  6  7  1  0
  7  8  2  0
  7  9  1  0
  9 10  1  0
 10  5  1  0
 10 11  2  0
  1 12  1  0
  1 13  1  0
  4 14  1  0
  5 15  1  0
  6 16  1  0
  9 17  1  0
M  END
> <ID>
HT0101

> <Class>
0.0

> <Clusters>
28

> <Fold>
5

$$$$