
     RDKit          3D

 31 31  0  0  0  0  0  0  0  0999 V2000
   -3.9236   -1.5654    0.4378 N   0  0  0  0  0  0  0  0  0  0  0  0
   -2.5136   -1.7259    0.3123 C   0  0  0  0  0  0  0  0  0  0  0  0
   -2.0510   -2.5619   -0.5104 O   0  0  0  0  0  0  0  0  0  0  0  0
   -1.6594   -0.9570    1.1099 O   0  0  0  0  0  0  0  0  0  0  0  0
   -0.2360   -0.9973    1.0056 C   0  0  0  0  0  0  0  0  0  0  0  0
    0.2476   -0.2653   -0.2629 C   0  0  0  0  0  0  0  0  0  0  0  0
    1.7820   -0.2559   -0.3512 C   0  0  0  0  0  0  0  0  0  0  0  0
    2.2690   -1.5876   -0.4932 O   0  0  0  0  0  0  0  0  0  0  0  0
    3.6298   -1.8852   -0.6029 C   0  0  0  0  0  0  0  0  0  0  0  0
    4.4936   -0.9669   -0.5815 O   0  0  0  0  0  0  0  0  0  0  0  0
    4.0435   -3.2417   -0.7402 N   0  0  0  0  0  0  0  0  0  0  0  0
   -0.3040    1.1481   -0.3237 C   0  0  0  0  0  0  0  0  0  0  0  0
   -1.1630    1.5233   -1.3731 C   0  0  0  0  0  0  0  0  0  0  0  0
   -1.6825    2.8199   -1.4340 C   0  0  0  0  0  0  0  0  0  0  0  0
   -1.3517    3.7546   -0.4504 C   0  0  0  0  0  0  0  0  0  0  0  0
   -0.5009    3.3946    0.5971 C   0  0  0  0  0  0  0  0  0  0  0  0
    0.0212    2.0994    0.6634 C   0  0  0  0  0  0  0  0  0  0  0  0
   -4.5759   -2.1323   -0.1482 H   0  0  0  0  0  0  0  0  0  0  0  0
   -4.3144   -0.8748    1.1161 H   0  0  0  0  0  0  0  0  0  0  0  0
    0.1944   -0.5152    1.9087 H   0  0  0  0  0  0  0  0  0  0  0  0
    0.1087   -2.0546    0.9999 H   0  0  0  0  0  0  0  0  0  0  0  0
   -0.1201   -0.8391   -1.1423 H   0  0  0  0  0  0  0  0  0  0  0  0
    2.2210    0.2029    0.5617 H   0  0  0  0  0  0  0  0  0  0  0  0
    2.0969    0.3410   -1.2357 H   0  0  0  0  0  0  0  0  0  0  0  0
    3.3339   -4.0071   -0.7582 H   0  0  0  0  0  0  0  0  0  0  0  0
    5.0564   -3.4811   -0.8233 H   0  0  0  0  0  0  0  0  0  0  0  0
   -1.4343    0.8128   -2.1439 H   0  0  0  0  0  0  0  0  0  0  0  0
   -2.3431    3.0997   -2.2444 H   0  0  0  0  0  0  0  0  0  0  0  0
   -1.7552    4.7577   -0.4994 H   0  0  0  0  0  0  0  0  0  0  0  0
   -0.2461    4.1195    1.3593 H   0  0  0  0  0  0  0  0  0  0  0  0
    0.6767    1.8408    1.4847 H   0  0  0  0  0  0  0  0  0  0  0  0
  1  2  1  0
  2  3  2  0
  2  4  1  0
  4  5  1  0
  5  6  1  0
  6  7  1  0
  7  8  1  0
  8  9  1  0
  9 10  2  0
  9 11  1  0
  6 12  1  0
 12 13  2  0
 13 14  1  0
 14 15  2  0
 15 16  1  0
 16 17  2  0
 17 12  1  0
  1 18  1  0
  1 19  1  0
  5 20  1  0
  5 21  1  0
  6 22  1  0
  7 23  1  0
  7 24  1  0
 11 25  1  0
 11 26  1  0
 13 27  1  0
 14 28  1  0
 15 29  1  0
 16 30  1  0
 17 31  1  0
M  END
> <ID>
HT0851

> <Class>
0.0

> <Clusters>
142

> <Fold>
5

$$$$