
     RDKit          3D

 13 13  0  0  0  0  0  0  0  0999 V2000
   -2.2653   -1.6861   -1.1642 O   0  0  0  0  0  0  0  0  0  0  0  0
   -1.5188   -0.8188   -0.6386 C   0  0  0  0  0  0  0  0  0  0  0  0
   -0.1831   -1.0521   -0.5114 N   0  0  0  0  0  0  0  0  0  0  0  0
   -2.0512    0.3509   -0.1986 N   0  0  0  0  0  0  0  0  0  0  0  0
   -1.2696    1.3030    0.3718 C   0  0  0  0  0  0  0  0  0  0  0  0
    0.1000    1.0863    0.5125 C   0  0  0  0  0  0  0  0  0  0  0  0
    0.6381   -0.1233    0.0554 C   0  0  0  0  0  0  0  0  0  0  0  0
    0.8847    2.0353    1.0820 F   0  0  0  0  0  0  0  0  0  0  0  0
    2.0387   -0.3877    0.1797 N   0  0  0  0  0  0  0  0  0  0  0  0
    0.2152   -1.9561   -0.8537 H   0  0  0  0  0  0  0  0  0  0  0  0
   -1.7132    2.2279    0.7157 H   0  0  0  0  0  0  0  0  0  0  0  0
    2.6848    0.3103    0.6106 H   0  0  0  0  0  0  0  0  0  0  0  0
    2.4395   -1.2896   -0.1612 H   0  0  0  0  0  0  0  0  0  0  0  0
  1  2  2  0
  2  3  1  0
  2  4  1  0
  4  5  2  0
  5  6  1  0
  6  7  2  0
  6  8  1  0
  9  7  1  0
  7  3  1  0
  3 10  1  0
  5 11  1  0
  9 12  1  0
  9 13  1  0
M  END
> <ID>
HT0890

> <Class>
0.0

> <Clusters>
107

> <Fold>
5

$$$$