
     RDKit          3D

 45 48  0  0  0  0  0  0  0  0999 V2000
   -2.0114   -0.4285    1.9114 C   0  0  0  0  0  0  0  0  0  0  0  0
   -2.0509   -0.7764    0.3873 C   0  0  2  0  0  0  0  0  0  0  0  0
   -1.2789   -2.0877    0.1273 C   0  0  0  0  0  0  0  0  0  0  0  0
    0.2434   -1.9065    0.3589 C   0  0  0  0  0  0  0  0  0  0  0  0
    0.8467   -0.6928   -0.4157 C   0  0  1  0  0  0  0  0  0  0  0  0
    0.0170    0.6050   -0.1794 C   0  0  1  0  0  0  0  0  0  0  0  0
    0.5972    1.7251   -1.0499 C   0  0  0  0  0  0  0  0  0  0  0  0
    2.0146    2.0770   -0.5864 C   0  0  0  0  0  0  0  0  0  0  0  0
    2.8644    0.8739   -0.2345 C   0  0  0  0  0  0  0  0  0  0  0  0
    4.2282    1.0919    0.0197 C   0  0  0  0  0  0  0  0  0  0  0  0
    5.0760    0.0259    0.3333 C   0  0  0  0  0  0  0  0  0  0  0  0
    6.4297    0.2428    0.5808 O   0  0  0  0  0  0  0  0  0  0  0  0
    4.5648   -1.2687    0.3925 C   0  0  0  0  0  0  0  0  0  0  0  0
    3.2096   -1.5039    0.1556 C   0  0  0  0  0  0  0  0  0  0  0  0
    2.3266   -0.4384   -0.1250 C   0  0  0  0  0  0  0  0  0  0  0  0
   -1.4558    0.3085   -0.5198 C   0  0  2  0  0  0  0  0  0  0  0  0
   -2.4754    1.4400   -0.4874 C   0  0  0  0  0  0  0  0  0  0  0  0
   -3.8349    0.7171   -0.3518 C   0  0  1  0  0  0  0  0  0  0  0  0
   -4.5953    0.8552   -1.5236 O   0  0  0  0  0  0  0  0  0  0  0  0
   -3.5112   -0.7779   -0.1063 C   0  0  2  0  0  0  0  0  0  0  0  0
   -4.3894   -1.3512    0.8283 O   0  0  0  0  0  0  0  0  0  0  0  0
   -0.9849   -0.3159    2.3064 H   0  0  0  0  0  0  0  0  0  0  0  0
   -2.5599    0.5090    2.1365 H   0  0  0  0  0  0  0  0  0  0  0  0
   -2.4840   -1.2431    2.5005 H   0  0  0  0  0  0  0  0  0  0  0  0
   -1.4390   -2.4226   -0.9217 H   0  0  0  0  0  0  0  0  0  0  0  0
   -1.6614   -2.8937    0.7906 H   0  0  0  0  0  0  0  0  0  0  0  0
    0.4607   -1.8107    1.4433 H   0  0  0  0  0  0  0  0  0  0  0  0
    0.7202   -2.8461    0.0117 H   0  0  0  0  0  0  0  0  0  0  0  0
    0.7864   -0.9528   -1.4971 H   0  0  0  0  0  0  0  0  0  0  0  0
    0.1036    0.9305    0.8787 H   0  0  0  0  0  0  0  0  0  0  0  0
    0.6187    1.4104   -2.1171 H   0  0  0  0  0  0  0  0  0  0  0  0
   -0.0308    2.6388   -0.9772 H   0  0  0  0  0  0  0  0  0  0  0  0
    1.9515    2.7336    0.3088 H   0  0  0  0  0  0  0  0  0  0  0  0
    2.5108    2.6557   -1.3958 H   0  0  0  0  0  0  0  0  0  0  0  0
    4.6348    2.0948   -0.0366 H   0  0  0  0  0  0  0  0  0  0  0  0
    6.8332    1.1717    0.5435 H   0  0  0  0  0  0  0  0  0  0  0  0
    5.2219   -2.0990    0.6189 H   0  0  0  0  0  0  0  0  0  0  0  0
    2.8695   -2.5271    0.1924 H   0  0  0  0  0  0  0  0  0  0  0  0
   -1.4651   -0.0649   -1.5745 H   0  0  0  0  0  0  0  0  0  0  0  0
   -2.4211    2.0507   -1.4154 H   0  0  0  0  0  0  0  0  0  0  0  0
   -2.2964    2.1015    0.3880 H   0  0  0  0  0  0  0  0  0  0  0  0
   -4.3944    1.1336    0.5189 H   0  0  0  0  0  0  0  0  0  0  0  0
   -4.9459    1.7840   -1.5247 H   0  0  0  0  0  0  0  0  0  0  0  0
   -3.5738   -1.3405   -1.0692 H   0  0  0  0  0  0  0  0  0  0  0  0
   -5.2696   -1.4285    0.3760 H   0  0  0  0  0  0  0  0  0  0  0  0
  2  1  1  1
  2  3  1  0
  3  4  1  0
  5  4  1  0
  5  6  1  0
  6  7  1  0
  7  8  1  0
  8  9  1  0
  9 10  2  0
 10 11  1  0
 11 12  1  0
 11 13  2  0
 13 14  1  0
 14 15  2  0
 15  5  1  0
 15  9  1  0
  6 16  1  0
 16  2  1  0
 16 17  1  0
 17 18  1  0
 18 19  1  0
 18 20  1  0
 20  2  1  0
 20 21  1  0
  1 22  1  0
  1 23  1  0
  1 24  1  0
  3 25  1  0
  3 26  1  0
  4 27  1  0
  4 28  1  0
  5 29  1  6
  6 30  1  1
  7 31  1  0
  7 32  1  0
  8 33  1  0
  8 34  1  0
 10 35  1  0
 12 36  1  0
 13 37  1  0
 14 38  1  0
 16 39  1  6
 17 40  1  0
 17 41  1  0
 18 42  1  1
 19 43  1  0
 20 44  1  6
 21 45  1  0
M  END
> <ID>
HT0797

> <Class>
0.0

> <Clusters>
96

> <Fold>
5

$$$$