
     RDKit          3D

 33 34  0  0  0  0  0  0  0  0999 V2000
   -5.1634    1.1961   -1.4874 O   0  0  0  0  0  0  0  0  0  0  0  0
   -5.3001    0.1973   -0.5278 C   0  0  0  0  0  0  0  0  0  0  0  0
   -6.4501   -0.2113   -0.2179 O   0  0  0  0  0  0  0  0  0  0  0  0
   -4.0904   -0.4228    0.1022 C   0  0  0  0  0  0  0  0  0  0  0  0
   -3.5200   -1.5200   -0.8025 C   0  0  0  0  0  0  0  0  0  0  0  0
   -2.2877   -2.1397   -0.1960 C   0  0  0  0  0  0  0  0  0  0  0  0
   -2.3655   -3.3287    0.2182 O   0  0  0  0  0  0  0  0  0  0  0  0
   -0.9967   -1.4067   -0.0690 C   0  0  0  0  0  0  0  0  0  0  0  0
    0.0304   -1.9349    0.7342 C   0  0  0  0  0  0  0  0  0  0  0  0
    1.2504   -1.2665    0.8660 C   0  0  0  0  0  0  0  0  0  0  0  0
    1.4764   -0.0529    0.1959 C   0  0  0  0  0  0  0  0  0  0  0  0
    0.4552    0.4752   -0.6113 C   0  0  0  0  0  0  0  0  0  0  0  0
   -0.7648   -0.1933   -0.7449 C   0  0  0  0  0  0  0  0  0  0  0  0
    2.7726    0.6589    0.3370 C   0  0  0  0  0  0  0  0  0  0  0  0
    2.8097    2.0610    0.4601 C   0  0  0  0  0  0  0  0  0  0  0  0
    4.0312    2.7284    0.5933 C   0  0  0  0  0  0  0  0  0  0  0  0
    5.2268    2.0068    0.6042 C   0  0  0  0  0  0  0  0  0  0  0  0
    5.2036    0.6157    0.4824 C   0  0  0  0  0  0  0  0  0  0  0  0
    3.9850   -0.0571    0.3499 C   0  0  0  0  0  0  0  0  0  0  0  0
   -4.2490    1.5287   -1.7695 H   0  0  0  0  0  0  0  0  0  0  0  0
   -4.3662   -0.8581    1.0879 H   0  0  0  0  0  0  0  0  0  0  0  0
   -3.3342    0.3700    0.2816 H   0  0  0  0  0  0  0  0  0  0  0  0
   -4.2962   -2.3063   -0.9364 H   0  0  0  0  0  0  0  0  0  0  0  0
   -3.2868   -1.1219   -1.8129 H   0  0  0  0  0  0  0  0  0  0  0  0
   -0.1112   -2.8639    1.2724 H   0  0  0  0  0  0  0  0  0  0  0  0
    2.0112   -1.6912    1.5089 H   0  0  0  0  0  0  0  0  0  0  0  0
    0.6066    1.3979   -1.1574 H   0  0  0  0  0  0  0  0  0  0  0  0
   -1.5156    0.2447   -1.3871 H   0  0  0  0  0  0  0  0  0  0  0  0
    1.8943    2.6392    0.4713 H   0  0  0  0  0  0  0  0  0  0  0  0
    4.0502    3.8062    0.6916 H   0  0  0  0  0  0  0  0  0  0  0  0
    6.1712    2.5255    0.7070 H   0  0  0  0  0  0  0  0  0  0  0  0
    6.1311    0.0579    0.4871 H   0  0  0  0  0  0  0  0  0  0  0  0
    3.9920   -1.1342    0.2397 H   0  0  0  0  0  0  0  0  0  0  0  0
  1  2  1  0
  2  3  2  0
  2  4  1  0
  4  5  1  0
  5  6  1  0
  6  7  2  0
  6  8  1  0
  8  9  2  0
  9 10  1  0
 10 11  2  0
 11 12  1  0
 12 13  2  0
 13  8  1  0
 11 14  1  0
 14 15  2  0
 15 16  1  0
 16 17  2  0
 17 18  1  0
 18 19  2  0
 19 14  1  0
  1 20  1  0
  4 21  1  0
  4 22  1  0
  5 23  1  0
  5 24  1  0
  9 25  1  0
 10 26  1  0
 12 27  1  0
 13 28  1  0
 15 29  1  0
 16 30  1  0
 17 31  1  0
 18 32  1  0
 19 33  1  0
M  END
> <ID>
HT0854

> <Class>
0.0

> <Clusters>
142

> <Fold>
5

$$$$