
     RDKit          3D

 48 49  0  0  0  0  0  0  0  0999 V2000
   -0.8814   -2.2267    1.3911 C   0  0  0  0  0  0  0  0  0  0  0  0
   -0.1546   -2.5948    0.1023 C   0  0  0  0  0  0  0  0  0  0  0  0
   -0.1955   -1.4665   -0.8618 N   0  0  0  0  0  0  0  0  0  0  0  0
    1.0321   -1.4511   -1.6955 C   0  0  0  0  0  0  0  0  0  0  0  0
    2.2156   -0.7984   -0.9594 C   0  0  0  0  0  0  0  0  0  0  0  0
    1.8968    0.6301   -0.4988 C   0  0  0  0  0  0  0  0  0  0  0  0
    3.0967    1.2695    0.1507 C   0  0  0  0  0  0  0  0  0  0  0  0
    4.2003    1.6580   -0.6283 C   0  0  0  0  0  0  0  0  0  0  0  0
    5.3124    2.2555   -0.0272 C   0  0  0  0  0  0  0  0  0  0  0  0
    5.3304    2.4724    1.3532 C   0  0  0  0  0  0  0  0  0  0  0  0
    4.2357    2.0935    2.1347 C   0  0  0  0  0  0  0  0  0  0  0  0
    3.1212    1.4957    1.5379 C   0  0  0  0  0  0  0  0  0  0  0  0
   -1.4111   -1.5686   -1.7076 C   0  0  0  0  0  0  0  0  0  0  0  0
   -1.7986   -0.2315   -2.3721 C   0  0  0  0  0  0  0  0  0  0  0  0
   -1.9323    0.9511   -1.3979 C   0  0  0  0  0  0  0  0  0  0  0  0
   -2.9281    0.7051   -0.2913 C   0  0  0  0  0  0  0  0  0  0  0  0
   -2.5185    0.7535    1.0522 C   0  0  0  0  0  0  0  0  0  0  0  0
   -3.4403    0.5317    2.0796 C   0  0  0  0  0  0  0  0  0  0  0  0
   -4.7792    0.2732    1.7756 C   0  0  0  0  0  0  0  0  0  0  0  0
   -5.2000    0.2437    0.4435 C   0  0  0  0  0  0  0  0  0  0  0  0
   -4.2814    0.4649   -0.5872 C   0  0  0  0  0  0  0  0  0  0  0  0
   -1.9619   -2.0641    1.2019 H   0  0  0  0  0  0  0  0  0  0  0  0
   -0.4375   -1.3068    1.8268 H   0  0  0  0  0  0  0  0  0  0  0  0
   -0.7777   -3.0526    2.1259 H   0  0  0  0  0  0  0  0  0  0  0  0
    0.8860   -2.8587    0.3875 H   0  0  0  0  0  0  0  0  0  0  0  0
   -0.6007   -3.5201   -0.3295 H   0  0  0  0  0  0  0  0  0  0  0  0
    1.3126   -2.4833   -2.0069 H   0  0  0  0  0  0  0  0  0  0  0  0
    0.8793   -0.8761   -2.6320 H   0  0  0  0  0  0  0  0  0  0  0  0
    3.0821   -0.7784   -1.6557 H   0  0  0  0  0  0  0  0  0  0  0  0
    2.5162   -1.4088   -0.0825 H   0  0  0  0  0  0  0  0  0  0  0  0
    1.0520    0.5970    0.2227 H   0  0  0  0  0  0  0  0  0  0  0  0
    1.5782    1.2489   -1.3659 H   0  0  0  0  0  0  0  0  0  0  0  0
    4.1969    1.5009   -1.6999 H   0  0  0  0  0  0  0  0  0  0  0  0
    6.1597    2.5519   -0.6319 H   0  0  0  0  0  0  0  0  0  0  0  0
    6.1920    2.9352    1.8169 H   0  0  0  0  0  0  0  0  0  0  0  0
    4.2506    2.2629    3.2036 H   0  0  0  0  0  0  0  0  0  0  0  0
    2.2819    1.2059    2.1581 H   0  0  0  0  0  0  0  0  0  0  0  0
   -2.2847   -1.8962   -1.1021 H   0  0  0  0  0  0  0  0  0  0  0  0
   -1.2725   -2.3403   -2.4987 H   0  0  0  0  0  0  0  0  0  0  0  0
   -2.7622   -0.3748   -2.9065 H   0  0  0  0  0  0  0  0  0  0  0  0
   -1.0600    0.0382   -3.1542 H   0  0  0  0  0  0  0  0  0  0  0  0
   -2.2593    1.8455   -1.9706 H   0  0  0  0  0  0  0  0  0  0  0  0
   -0.9332    1.1920   -0.9820 H   0  0  0  0  0  0  0  0  0  0  0  0
   -1.4855    0.9567    1.3056 H   0  0  0  0  0  0  0  0  0  0  0  0
   -3.1162    0.5604    3.1118 H   0  0  0  0  0  0  0  0  0  0  0  0
   -5.4916    0.1017    2.5721 H   0  0  0  0  0  0  0  0  0  0  0  0
   -6.2393    0.0525    0.2094 H   0  0  0  0  0  0  0  0  0  0  0  0
   -4.6257    0.4499   -1.6133 H   0  0  0  0  0  0  0  0  0  0  0  0
  1  2  1  0
  2  3  1  0
  3  4  1  0
  4  5  1  0
  5  6  1  0
  6  7  1  0
  7  8  2  0
  8  9  1  0
  9 10  2  0
 10 11  1  0
 11 12  2  0
 12  7  1  0
  3 13  1  0
 13 14  1  0
 14 15  1  0
 15 16  1  0
 16 17  2  0
 17 18  1  0
 18 19  2  0
 19 20  1  0
 20 21  2  0
 21 16  1  0
  1 22  1  0
  1 23  1  0
  1 24  1  0
  2 25  1  0
  2 26  1  0
  4 27  1  0
  4 28  1  0
  5 29  1  0
  5 30  1  0
  6 31  1  0
  6 32  1  0
  8 33  1  0
  9 34  1  0
 10 35  1  0
 11 36  1  0
 12 37  1  0
 13 38  1  0
 13 39  1  0
 14 40  1  0
 14 41  1  0
 15 42  1  0
 15 43  1  0
 17 44  1  0
 18 45  1  0
 19 46  1  0
 20 47  1  0
 21 48  1  0
M  END
> <ID>
HT0120

> <Class>
0.0

> <Clusters>
31

> <Fold>
5

$$$$