
     RDKit          3D

 26 27  0  0  0  0  0  0  0  0999 V2000
    3.1399   -1.0402    0.3185 S   0  0  0  0  0  0  0  0  0  0  0  0
    3.7661   -0.7166    1.8432 O   0  0  0  0  0  0  0  0  0  0  0  0
    1.4377   -0.6009    0.2406 C   0  0  0  0  0  0  0  0  0  0  0  0
    4.0767   -0.2208   -0.9512 C   0  0  0  0  0  0  0  0  0  0  0  0
    0.4995   -1.5746   -0.0999 C   0  0  0  0  0  0  0  0  0  0  0  0
    1.0116    0.7016    0.5129 C   0  0  0  0  0  0  0  0  0  0  0  0
   -0.8348   -1.2810   -0.1766 N   0  0  0  0  0  0  0  0  0  0  0  0
    1.8564    1.5855    0.8269 O   0  0  0  0  0  0  0  0  0  0  0  0
   -0.3561    1.0158    0.4366 C   0  0  0  0  0  0  0  0  0  0  0  0
   -1.7621   -2.3640   -0.5437 C   0  0  0  0  0  0  0  0  0  0  0  0
   -1.2848   -0.0023    0.0844 C   0  0  0  0  0  0  0  0  0  0  0  0
   -0.8146    2.3207    0.7039 C   0  0  0  0  0  0  0  0  0  0  0  0
   -2.6579    0.3340    0.0128 C   0  0  0  0  0  0  0  0  0  0  0  0
   -2.1731    2.6230    0.6256 C   0  0  0  0  0  0  0  0  0  0  0  0
   -3.0914    1.6339    0.2815 C   0  0  0  0  0  0  0  0  0  0  0  0
   -4.4113    1.9354    0.2073 F   0  0  0  0  0  0  0  0  0  0  0  0
    3.6347   -0.4499   -1.9426 H   0  0  0  0  0  0  0  0  0  0  0  0
    4.0568    0.8753   -0.7821 H   0  0  0  0  0  0  0  0  0  0  0  0
    5.1264   -0.5783   -0.9238 H   0  0  0  0  0  0  0  0  0  0  0  0
    0.8531   -2.5786   -0.3062 H   0  0  0  0  0  0  0  0  0  0  0  0
   -1.2348   -3.3270   -0.7185 H   0  0  0  0  0  0  0  0  0  0  0  0
   -2.2966   -2.1032   -1.4819 H   0  0  0  0  0  0  0  0  0  0  0  0
   -2.4937   -2.5301    0.2754 H   0  0  0  0  0  0  0  0  0  0  0  0
   -0.1246    3.1108    0.9738 H   0  0  0  0  0  0  0  0  0  0  0  0
   -3.4088   -0.3977   -0.2498 H   0  0  0  0  0  0  0  0  0  0  0  0
   -2.5143    3.6292    0.8330 H   0  0  0  0  0  0  0  0  0  0  0  0
  1  2  1  0
  1  3  1  0
  1  4  1  0
  5  3  2  0
  3  6  1  0
  7  5  1  0
  6  8  2  0
  6  9  1  0
 10  7  1  0
 11  7  1  0
  9 12  2  0
 11  9  1  0
 13 11  2  0
 12 14  1  0
 15 13  1  0
 14 15  2  0
 15 16  1  0
  4 17  1  0
  4 18  1  0
  4 19  1  0
  5 20  1  0
 10 21  1  0
 10 22  1  0
 10 23  1  0
 12 24  1  0
 13 25  1  0
 14 26  1  0
M  CHG  2   1   1   2  -1
M  END
> <ID>
HT0885

> <Class>
0.0

> <Clusters>
272

> <Fold>
5

$$$$