
     RDKit          3D

 27 27  0  0  0  0  0  0  0  0999 V2000
    1.2202    3.0531    0.4051 C   0  0  0  0  0  0  0  0  0  0  0  0
    0.1372    2.3586    0.0417 C   0  0  0  0  0  0  0  0  0  0  0  0
   -0.4656    1.2906    0.9314 C   0  0  0  0  0  0  0  0  0  0  0  0
   -0.5632   -0.1285    0.2717 C   0  0  0  0  0  0  0  0  0  0  0  0
    0.7805   -0.5508   -0.3887 C   0  0  0  0  0  0  0  0  0  0  0  0
    1.9400   -0.5725    0.5799 C   0  0  0  0  0  0  0  0  0  0  0  0
    3.0369    0.1658    0.3889 C   0  0  0  0  0  0  0  0  0  0  0  0
   -1.6420   -0.1597   -0.8119 C   0  0  0  0  0  0  0  0  0  0  0  0
   -1.9699    0.8870   -1.4319 O   0  0  0  0  0  0  0  0  0  0  0  0
   -2.2575   -1.3971   -1.1854 N   0  0  0  0  0  0  0  0  0  0  0  0
   -2.1819   -2.5285   -0.3211 C   0  0  0  0  0  0  0  0  0  0  0  0
   -2.6946   -3.6254   -0.6675 O   0  0  0  0  0  0  0  0  0  0  0  0
   -1.5595   -2.3993    0.9551 N   0  0  0  0  0  0  0  0  0  0  0  0
   -0.9303   -1.1698    1.3314 C   0  0  0  0  0  0  0  0  0  0  0  0
   -0.6235   -0.9929    2.5421 O   0  0  0  0  0  0  0  0  0  0  0  0
    1.7228    2.8631    1.3483 H   0  0  0  0  0  0  0  0  0  0  0  0
    1.6159    3.8218   -0.2506 H   0  0  0  0  0  0  0  0  0  0  0  0
   -0.3307    2.6053   -0.9040 H   0  0  0  0  0  0  0  0  0  0  0  0
    0.1331    1.2293    1.8668 H   0  0  0  0  0  0  0  0  0  0  0  0
   -1.4814    1.6250    1.2353 H   0  0  0  0  0  0  0  0  0  0  0  0
    0.6818   -1.5738   -0.8138 H   0  0  0  0  0  0  0  0  0  0  0  0
    1.0035    0.1210   -1.2477 H   0  0  0  0  0  0  0  0  0  0  0  0
    1.8952   -1.2275    1.4445 H   0  0  0  0  0  0  0  0  0  0  0  0
    3.8543    0.1157    1.1007 H   0  0  0  0  0  0  0  0  0  0  0  0
    3.1309    0.8230   -0.4700 H   0  0  0  0  0  0  0  0  0  0  0  0
   -2.8310   -1.4498   -2.0573 H   0  0  0  0  0  0  0  0  0  0  0  0
   -1.6214   -3.1834    1.6430 H   0  0  0  0  0  0  0  0  0  0  0  0
  1  2  2  3
  2  3  1  0
  3  4  1  0
  4  5  1  0
  5  6  1  0
  6  7  2  3
  4  8  1  0
  8  9  2  0
  8 10  1  0
 10 11  1  0
 11 12  2  0
 11 13  1  0
 13 14  1  0
 14  4  1  0
 14 15  2  0
  1 16  1  0
  1 17  1  0
  2 18  1  0
  3 19  1  0
  3 20  1  0
  5 21  1  0
  5 22  1  0
  6 23  1  0
  7 24  1  0
  7 25  1  0
 10 26  1  0
 13 27  1  0
M  END
> <ID>
HT0102

> <Class>
0.0

> <Clusters>
258

> <Fold>
5

$$$$