
     RDKit          3D

 12 12  0  0  0  0  0  0  0  0999 V2000
   -2.0241   -1.7998   -0.0035 O   0  0  0  0  0  0  0  0  0  0  0  0
   -1.0829   -0.9629   -0.0019 C   0  0  0  0  0  0  0  0  0  0  0  0
    0.2761   -1.4171   -0.0010 N   0  0  0  0  0  0  0  0  0  0  0  0
    1.3603   -0.4821    0.0009 C   0  0  0  0  0  0  0  0  0  0  0  0
    2.5495   -0.8983    0.0016 O   0  0  0  0  0  0  0  0  0  0  0  0
    1.0798    0.9601    0.0019 C   0  0  0  0  0  0  0  0  0  0  0  0
    2.0217    1.7976    0.0035 O   0  0  0  0  0  0  0  0  0  0  0  0
   -0.3197    1.4074    0.0009 C   0  0  0  0  0  0  0  0  0  0  0  0
   -0.5940    2.6371    0.0017 O   0  0  0  0  0  0  0  0  0  0  0  0
   -1.3751    0.4399   -0.0009 N   0  0  0  0  0  0  0  0  0  0  0  0
    0.4781   -2.4423   -0.0017 H   0  0  0  0  0  0  0  0  0  0  0  0
   -2.3696    0.7604   -0.0016 H   0  0  0  0  0  0  0  0  0  0  0  0
  1  2  2  0
  2  3  1  0
  3  4  1  0
  4  5  2  0
  4  6  1  0
  6  7  2  0
  6  8  1  0
  8  9  2  0
  8 10  1  0
 10  2  1  0
  3 11  1  0
 10 12  1  0
M  END
> <ID>
HT0104

> <Class>
0.0

> <Clusters>
28

> <Fold>
5

$$$$