
     RDKit          3D

 21 21  0  0  0  0  0  0  0  0999 V2000
    2.2898   -0.8812    0.1024 C   0  0  0  0  0  0  0  0  0  0  0  0
    1.0627   -0.5450   -0.7515 C   0  0  0  0  0  0  0  0  0  0  0  0
   -0.0577    0.2529   -0.0242 C   0  0  0  0  0  0  0  0  0  0  0  0
    0.4690    1.5663    0.5882 C   0  0  0  0  0  0  0  0  0  0  0  0
   -1.2241    0.5518   -1.0231 C   0  0  0  0  0  0  0  0  0  0  0  0
   -2.3981   -0.1537   -0.4339 C   0  0  0  0  0  0  0  0  0  0  0  0
   -3.5463   -0.1578   -0.9503 O   0  0  0  0  0  0  0  0  0  0  0  0
   -2.1039   -0.8210    0.7732 N   0  0  0  0  0  0  0  0  0  0  0  0
   -0.7375   -0.5790    1.0364 C   0  0  0  0  0  0  0  0  0  0  0  0
   -0.1761   -0.9906    2.0864 O   0  0  0  0  0  0  0  0  0  0  0  0
    2.0125   -1.4909    0.9849 H   0  0  0  0  0  0  0  0  0  0  0  0
    2.8122    0.0409    0.4299 H   0  0  0  0  0  0  0  0  0  0  0  0
    3.0040   -1.4737   -0.5074 H   0  0  0  0  0  0  0  0  0  0  0  0
    0.6408   -1.4981   -1.1413 H   0  0  0  0  0  0  0  0  0  0  0  0
    1.4120    0.0414   -1.6299 H   0  0  0  0  0  0  0  0  0  0  0  0
    0.9791    2.1760   -0.1880 H   0  0  0  0  0  0  0  0  0  0  0  0
   -0.3684    2.1630    1.0110 H   0  0  0  0  0  0  0  0  0  0  0  0
    1.1829    1.3659    1.4143 H   0  0  0  0  0  0  0  0  0  0  0  0
   -1.0310    0.1511   -2.0423 H   0  0  0  0  0  0  0  0  0  0  0  0
   -1.4504    1.6373   -1.1066 H   0  0  0  0  0  0  0  0  0  0  0  0
   -2.7718   -1.3557    1.3718 H   0  0  0  0  0  0  0  0  0  0  0  0
  1  2  1  0
  2  3  1  0
  3  4  1  0
  3  5  1  0
  5  6  1  0
  6  7  2  0
  6  8  1  0
  8  9  1  0
  9  3  1  0
  9 10  2  0
  1 11  1  0
  1 12  1  0
  1 13  1  0
  2 14  1  0
  2 15  1  0
  4 16  1  0
  4 17  1  0
  4 18  1  0
  5 19  1  0
  5 20  1  0
  8 21  1  0
M  END
> <ID>
HT0811

> <Class>
0.0

> <Clusters>
28

> <Fold>
5

$$$$