
     RDKit          3D

 79 85  0  0  0  0  0  0  0  0999 V2000
   -5.8263    1.8660   -2.9074 C   0  0  0  0  0  0  0  0  0  0  0  0
   -6.1906    1.1730   -1.7157 O   0  0  0  0  0  0  0  0  0  0  0  0
   -5.2826    0.5876   -0.8152 C   0  0  0  0  0  0  0  0  0  0  0  0
   -3.8918    0.6586   -1.0097 C   0  0  0  0  0  0  0  0  0  0  0  0
   -3.0107    0.0521   -0.1025 C   0  0  0  0  0  0  0  0  0  0  0  0
   -3.5346   -0.6154    1.0127 C   0  0  0  0  0  0  0  0  0  0  0  0
   -4.9248   -0.6988    1.2292 C   0  0  0  0  0  0  0  0  0  0  0  0
   -5.4327   -1.3755    2.3460 O   0  0  0  0  0  0  0  0  0  0  0  0
   -4.6497   -2.0763    3.3079 C   0  0  0  0  0  0  0  0  0  0  0  0
   -5.8076   -0.0927    0.2960 C   0  0  0  0  0  0  0  0  0  0  0  0
   -7.2135   -0.1262    0.3836 O   0  0  0  0  0  0  0  0  0  0  0  0
   -8.1738   -0.9934    1.5196 P   0  0  0  0  0  0  0  0  0  0  0  0
   -9.6323   -0.8296    1.1496 O   0  0  0  0  0  0  0  0  0  0  0  0
   -7.7754   -2.6411    1.4738 O   0  0  0  0  0  0  0  0  0  0  0  0
   -7.9235   -0.3792    3.0797 O   0  0  0  0  0  0  0  0  0  0  0  0
   -1.5089    0.0401   -0.3606 C   0  0  0  0  0  0  0  0  0  0  0  0
   -1.2053   -0.7469   -1.6668 C   0  0  0  0  0  0  0  0  0  0  0  0
    0.2780   -0.6802   -2.1386 C   0  0  0  0  0  0  0  0  0  0  0  0
    0.7805   -2.1523   -2.2145 C   0  0  0  0  0  0  0  0  0  0  0  0
   -0.3101   -2.9621   -1.8120 O   0  0  0  0  0  0  0  0  0  0  0  0
   -1.4254   -2.2082   -1.5116 C   0  0  0  0  0  0  0  0  0  0  0  0
   -2.5226   -2.7292   -1.1767 O   0  0  0  0  0  0  0  0  0  0  0  0
    1.1949    0.2576   -1.2989 C   0  0  0  0  0  0  0  0  0  0  0  0
    1.5966   -0.3773   -0.0890 O   0  0  0  0  0  0  0  0  0  0  0  0
    2.9868   -0.2123    0.1475 C   0  0  0  0  0  0  0  0  0  0  0  0
    3.7079   -1.1033   -0.6963 O   0  0  0  0  0  0  0  0  0  0  0  0
    5.1031   -0.9119   -0.5360 C   0  0  0  0  0  0  0  0  0  0  0  0
    5.8958   -1.7621   -1.5436 C   0  0  0  0  0  0  0  0  0  0  0  0
    6.8331   -2.6270   -0.9215 O   0  0  0  0  0  0  0  0  0  0  0  0
    7.6427   -1.9594    0.0508 C   0  0  0  0  0  0  0  0  0  0  0  0
    8.7427   -1.1286   -0.6157 C   0  0  0  0  0  0  0  0  0  0  0  0
    6.9284   -1.1484    0.9874 O   0  0  0  0  0  0  0  0  0  0  0  0
    5.5346   -1.3222    0.8755 C   0  0  0  0  0  0  0  0  0  0  0  0
    4.7949   -0.4471    1.8993 C   0  0  0  0  0  0  0  0  0  0  0  0
    5.0682   -0.8894    3.2039 O   0  0  0  0  0  0  0  0  0  0  0  0
    3.2758   -0.5211    1.6309 C   0  0  0  0  0  0  0  0  0  0  0  0
    2.5993    0.4122    2.4368 O   0  0  0  0  0  0  0  0  0  0  0  0
    0.4508    1.5226   -0.9356 C   0  0  0  0  0  0  0  0  0  0  0  0
    1.0923    2.7789   -1.0176 C   0  0  0  0  0  0  0  0  0  0  0  0
    0.3988    3.8965   -0.5702 C   0  0  0  0  0  0  0  0  0  0  0  0
    0.8217    5.2086   -0.5290 O   0  0  0  0  0  0  0  0  0  0  0  0
   -0.2300    5.9967    0.0402 C   0  0  0  0  0  0  0  0  0  0  0  0
   -1.2880    5.0676    0.3076 O   0  0  0  0  0  0  0  0  0  0  0  0
   -0.8578    3.8107   -0.0717 C   0  0  0  0  0  0  0  0  0  0  0  0
   -1.5356    2.5990    0.0241 C   0  0  0  0  0  0  0  0  0  0  0  0
   -0.8800    1.4259   -0.4332 C   0  0  0  0  0  0  0  0  0  0  0  0
   -6.7488    2.2159   -3.4201 H   0  0  0  0  0  0  0  0  0  0  0  0
   -5.2782    1.1806   -3.5914 H   0  0  0  0  0  0  0  0  0  0  0  0
   -5.1991    2.7492   -2.6631 H   0  0  0  0  0  0  0  0  0  0  0  0
   -3.4848    1.1885   -1.8636 H   0  0  0  0  0  0  0  0  0  0  0  0
   -2.8463   -1.0864    1.7005 H   0  0  0  0  0  0  0  0  0  0  0  0
   -3.9679   -1.3757    3.8388 H   0  0  0  0  0  0  0  0  0  0  0  0
   -4.0744   -2.8832    2.8031 H   0  0  0  0  0  0  0  0  0  0  0  0
   -5.3280   -2.5405    4.0530 H   0  0  0  0  0  0  0  0  0  0  0  0
   -8.3788   -3.0672    2.1332 H   0  0  0  0  0  0  0  0  0  0  0  0
   -7.9803    0.6052    2.9726 H   0  0  0  0  0  0  0  0  0  0  0  0
   -0.9938   -0.4844    0.4777 H   0  0  0  0  0  0  0  0  0  0  0  0
   -1.8533   -0.3784   -2.4960 H   0  0  0  0  0  0  0  0  0  0  0  0
    0.2736   -0.2787   -3.1809 H   0  0  0  0  0  0  0  0  0  0  0  0
    1.6405   -2.3635   -1.5464 H   0  0  0  0  0  0  0  0  0  0  0  0
    1.0717   -2.4143   -3.2597 H   0  0  0  0  0  0  0  0  0  0  0  0
    2.0541    0.5191   -1.9674 H   0  0  0  0  0  0  0  0  0  0  0  0
    3.2918    0.8480   -0.0402 H   0  0  0  0  0  0  0  0  0  0  0  0
    5.3750    0.1571   -0.7199 H   0  0  0  0  0  0  0  0  0  0  0  0
    5.1933   -2.3907   -2.1272 H   0  0  0  0  0  0  0  0  0  0  0  0
    6.4102   -1.1155   -2.2860 H   0  0  0  0  0  0  0  0  0  0  0  0
    8.1592   -2.7511    0.6385 H   0  0  0  0  0  0  0  0  0  0  0  0
    9.3742   -1.7773   -1.2573 H   0  0  0  0  0  0  0  0  0  0  0  0
    9.3795   -0.6744    0.1699 H   0  0  0  0  0  0  0  0  0  0  0  0
    8.3087   -0.3000   -1.2244 H   0  0  0  0  0  0  0  0  0  0  0  0
    5.2658   -2.3858    1.0759 H   0  0  0  0  0  0  0  0  0  0  0  0
    5.1305    0.6116    1.7852 H   0  0  0  0  0  0  0  0  0  0  0  0
    5.9856   -0.5768    3.4254 H   0  0  0  0  0  0  0  0  0  0  0  0
    2.9180   -1.5558    1.8475 H   0  0  0  0  0  0  0  0  0  0  0  0
    2.4900   -0.0060    3.3285 H   0  0  0  0  0  0  0  0  0  0  0  0
    2.1042    2.8780   -1.3922 H   0  0  0  0  0  0  0  0  0  0  0  0
    0.1112    6.4677    0.9849 H   0  0  0  0  0  0  0  0  0  0  0  0
   -0.5673    6.7670   -0.6825 H   0  0  0  0  0  0  0  0  0  0  0  0
   -2.5300    2.5811    0.4455 H   0  0  0  0  0  0  0  0  0  0  0  0
  1  2  1  0
  2  3  1  0
  3  4  2  0
  4  5  1  0
  5  6  2  0
  6  7  1  0
  7  8  1  0
  8  9  1  0
  7 10  2  0
 10  3  1  0
 10 11  1  0
 11 12  1  0
 12 13  2  0
 12 14  1  0
 12 15  1  0
  5 16  1  0
 16 17  1  0
 17 18  1  0
 18 19  1  0
 19 20  1  0
 20 21  1  0
 21 17  1  0
 21 22  2  0
 18 23  1  0
 23 24  1  0
 24 25  1  0
 25 26  1  0
 26 27  1  0
 27 28  1  0
 28 29  1  0
 29 30  1  0
 30 31  1  0
 30 32  1  0
 32 33  1  0
 33 27  1  0
 33 34  1  0
 34 35  1  0
 34 36  1  0
 36 25  1  0
 36 37  1  0
 23 38  1  0
 38 39  2  0
 39 40  1  0
 40 41  1  0
 41 42  1  0
 42 43  1  0
 43 44  1  0
 44 40  2  0
 44 45  1  0
 45 46  2  0
 46 16  1  0
 46 38  1  0
  1 47  1  0
  1 48  1  0
  1 49  1  0
  4 50  1  0
  6 51  1  0
  9 52  1  0
  9 53  1  0
  9 54  1  0
 14 55  1  0
 15 56  1  0
 16 57  1  0
 17 58  1  0
 18 59  1  0
 19 60  1  0
 19 61  1  0
 23 62  1  0
 25 63  1  0
 27 64  1  0
 28 65  1  0
 28 66  1  0
 30 67  1  0
 31 68  1  0
 31 69  1  0
 31 70  1  0
 33 71  1  0
 34 72  1  0
 35 73  1  0
 36 74  1  0
 37 75  1  0
 39 76  1  0
 42 77  1  0
 42 78  1  0
 45 79  1  0
M  END
> <ID>
HT0832

> <Class>
0.0

> <Clusters>
99

> <Fold>
5

$$$$