
     RDKit          3D

 44 47  0  0  0  0  0  0  0  0999 V2000
    5.4906    0.5118    1.0114 C   0  0  0  0  0  0  0  0  0  0  0  0
    4.3440   -0.2701    0.5222 N   0  0  0  0  0  0  0  0  0  0  0  0
    3.1139    0.1467    1.2242 C   0  0  0  0  0  0  0  0  0  0  0  0
    1.9362   -0.7219    0.7775 C   0  0  0  0  0  0  0  0  0  0  0  0
    1.8254   -0.6930   -0.6861 N   0  0  0  0  0  0  0  0  0  0  0  0
    3.0447   -0.9457   -1.4652 C   0  0  0  0  0  0  0  0  0  0  0  0
    4.1892   -0.0786   -0.9333 C   0  0  0  0  0  0  0  0  0  0  0  0
    0.5396   -0.5787   -1.3262 C   0  0  0  0  0  0  0  0  0  0  0  0
    0.4450   -0.6689   -2.5815 O   0  0  0  0  0  0  0  0  0  0  0  0
   -0.6075   -0.3630   -0.5538 O   0  0  0  0  0  0  0  0  0  0  0  0
   -1.9230   -0.2986   -1.1000 C   0  0  0  0  0  0  0  0  0  0  0  0
   -2.8556    0.2327   -0.0871 N   0  0  0  0  0  0  0  0  0  0  0  0
   -3.8164   -0.7844    0.2185 C   0  0  0  0  0  0  0  0  0  0  0  0
   -4.7522   -0.6685    1.0536 O   0  0  0  0  0  0  0  0  0  0  0  0
   -3.5438   -1.9472   -0.5779 C   0  0  0  0  0  0  0  0  0  0  0  0
   -4.1860   -3.1393   -0.6239 N   0  0  0  0  0  0  0  0  0  0  0  0
   -3.7201   -4.0960   -1.4799 C   0  0  0  0  0  0  0  0  0  0  0  0
   -2.5942   -3.8291   -2.2906 C   0  0  0  0  0  0  0  0  0  0  0  0
   -1.9720   -2.6151   -2.2154 N   0  0  0  0  0  0  0  0  0  0  0  0
   -2.4524   -1.6811   -1.3565 C   0  0  0  0  0  0  0  0  0  0  0  0
   -2.8078    1.5498    0.4963 C   0  0  0  0  0  0  0  0  0  0  0  0
   -1.8598    2.4979    0.0719 C   0  0  0  0  0  0  0  0  0  0  0  0
   -1.8416    3.7642    0.6594 C   0  0  0  0  0  0  0  0  0  0  0  0
   -2.7611    4.0805    1.6610 C   0  0  0  0  0  0  0  0  0  0  0  0
   -2.7512    5.6678    2.4062 Cl  0  0  0  0  0  0  0  0  0  0  0  0
   -3.6895    3.1175    2.0617 C   0  0  0  0  0  0  0  0  0  0  0  0
   -3.6916    1.8900    1.4771 N   0  0  0  0  0  0  0  0  0  0  0  0
    5.3526    1.5998    0.8169 H   0  0  0  0  0  0  0  0  0  0  0  0
    5.6240    0.3532    2.1035 H   0  0  0  0  0  0  0  0  0  0  0  0
    6.4248    0.1700    0.5152 H   0  0  0  0  0  0  0  0  0  0  0  0
    3.2406    0.0199    2.3223 H   0  0  0  0  0  0  0  0  0  0  0  0
    2.8826    1.2185    1.0219 H   0  0  0  0  0  0  0  0  0  0  0  0
    1.0107   -0.3499    1.2677 H   0  0  0  0  0  0  0  0  0  0  0  0
    2.1065   -1.7702    1.1089 H   0  0  0  0  0  0  0  0  0  0  0  0
    3.3173   -2.0201   -1.3812 H   0  0  0  0  0  0  0  0  0  0  0  0
    2.8969   -0.7070   -2.5400 H   0  0  0  0  0  0  0  0  0  0  0  0
    3.9805    0.9893   -1.1720 H   0  0  0  0  0  0  0  0  0  0  0  0
    5.1243   -0.3748   -1.4589 H   0  0  0  0  0  0  0  0  0  0  0  0
   -1.9582    0.3224   -2.0219 H   0  0  0  0  0  0  0  0  0  0  0  0
   -4.2143   -5.0565   -1.5355 H   0  0  0  0  0  0  0  0  0  0  0  0
   -2.2220   -4.5841   -2.9698 H   0  0  0  0  0  0  0  0  0  0  0  0
   -1.1441    2.2695   -0.7064 H   0  0  0  0  0  0  0  0  0  0  0  0
   -1.1143    4.4977    0.3351 H   0  0  0  0  0  0  0  0  0  0  0  0
   -4.4108    3.3425    2.8361 H   0  0  0  0  0  0  0  0  0  0  0  0
  1  2  1  0
  2  3  1  0
  3  4  1  0
  4  5  1  0
  5  6  1  0
  6  7  1  0
  7  2  1  0
  5  8  1  0
  8  9  2  0
  8 10  1  0
 10 11  1  0
 11 12  1  0
 12 13  1  0
 13 14  2  0
 13 15  1  0
 15 16  2  0
 16 17  1  0
 17 18  2  0
 18 19  1  0
 19 20  2  0
 20 11  1  0
 20 15  1  0
 12 21  1  0
 21 22  2  0
 22 23  1  0
 23 24  2  0
 24 25  1  0
 24 26  1  0
 26 27  2  0
 27 21  1  0
  1 28  1  0
  1 29  1  0
  1 30  1  0
  3 31  1  0
  3 32  1  0
  4 33  1  0
  4 34  1  0
  6 35  1  0
  6 36  1  0
  7 37  1  0
  7 38  1  0
 11 39  1  0
 17 40  1  0
 18 41  1  0
 22 42  1  0
 23 43  1  0
 26 44  1  0
M  END
> <ID>
HT0800

> <Class>
0.0

> <Clusters>
150

> <Fold>
5

$$$$