
     RDKit          3D

 63 65  0  0  0  0  0  0  0  0999 V2000
    2.2586    1.3872   -1.2853 C   0  0  0  0  0  0  0  0  0  0  0  0
    2.4281    1.1307    0.2294 C   0  0  0  0  0  0  0  0  0  0  0  0
    1.0686    1.3244    0.9359 C   0  0  0  0  0  0  0  0  0  0  0  0
    0.1174    0.2691    0.5288 N   0  0  0  0  0  0  0  0  0  0  0  0
   -1.2388    0.5266    1.0668 C   0  0  0  0  0  0  0  0  0  0  0  0
   -2.0256    1.5174    0.1744 C   0  0  0  0  0  0  0  0  0  0  0  0
   -2.1590    1.0636   -1.3007 C   0  0  0  0  0  0  0  0  0  0  0  0
   -2.9093   -0.2323   -1.4956 C   0  0  0  0  0  0  0  0  0  0  0  0
   -2.2165   -1.4530   -1.5409 C   0  0  0  0  0  0  0  0  0  0  0  0
   -2.9091   -2.6511   -1.7366 C   0  0  0  0  0  0  0  0  0  0  0  0
   -4.2942   -2.6392   -1.9117 C   0  0  0  0  0  0  0  0  0  0  0  0
   -4.9899   -1.4271   -1.8969 C   0  0  0  0  0  0  0  0  0  0  0  0
   -4.3004   -0.2263   -1.7014 C   0  0  0  0  0  0  0  0  0  0  0  0
   -3.3641    1.8773    0.7848 C   0  0  0  0  0  0  0  0  0  0  0  0
   -3.6534    3.0954    0.9386 O   0  0  0  0  0  0  0  0  0  0  0  0
   -4.3003    0.8667    1.2004 N   0  0  0  0  0  0  0  0  0  0  0  0
   -5.6461    1.1983    1.6665 C   0  0  0  0  0  0  0  0  0  0  0  0
   -5.6289    1.7404    3.0645 C   0  0  0  0  0  0  0  0  0  0  0  0
   -4.5626    1.7660    3.7368 O   0  0  0  0  0  0  0  0  0  0  0  0
   -6.8113    2.2110    3.6272 O   0  0  0  0  0  0  0  0  0  0  0  0
    0.6151   -1.0438    0.9843 C   0  0  0  0  0  0  0  0  0  0  0  0
    1.9621   -1.3720    0.3208 C   0  0  0  0  0  0  0  0  0  0  0  0
    3.0532   -0.2778    0.5533 C   0  0  0  0  0  0  0  0  0  0  0  0
    3.5059   -0.3376    2.0386 C   0  0  0  0  0  0  0  0  0  0  0  0
    4.3253   -0.5194   -0.2981 C   0  0  0  0  0  0  0  0  0  0  0  0
    5.3786    0.4248   -0.2578 C   0  0  0  0  0  0  0  0  0  0  0  0
    6.5427    0.2413   -1.0070 C   0  0  0  0  0  0  0  0  0  0  0  0
    6.6904   -0.8896   -1.8070 C   0  0  0  0  0  0  0  0  0  0  0  0
    5.6744   -1.8493   -1.8558 C   0  0  0  0  0  0  0  0  0  0  0  0
    5.8157   -2.9894   -2.6453 O   0  0  0  0  0  0  0  0  0  0  0  0
    4.5060   -1.6703   -1.1058 C   0  0  0  0  0  0  0  0  0  0  0  0
    3.2378    1.3817   -1.8058 H   0  0  0  0  0  0  0  0  0  0  0  0
    1.8077    2.3879   -1.4554 H   0  0  0  0  0  0  0  0  0  0  0  0
    1.5993    0.6276   -1.7536 H   0  0  0  0  0  0  0  0  0  0  0  0
    3.1022    1.9271    0.6143 H   0  0  0  0  0  0  0  0  0  0  0  0
    1.2010    1.3362    2.0399 H   0  0  0  0  0  0  0  0  0  0  0  0
    0.6820    2.3284    0.6651 H   0  0  0  0  0  0  0  0  0  0  0  0
   -1.8162   -0.4211    1.1258 H   0  0  0  0  0  0  0  0  0  0  0  0
   -1.1822    0.9216    2.1079 H   0  0  0  0  0  0  0  0  0  0  0  0
   -1.4445    2.4627    0.1378 H   0  0  0  0  0  0  0  0  0  0  0  0
   -1.1436    0.9743   -1.7464 H   0  0  0  0  0  0  0  0  0  0  0  0
   -2.6642    1.8675   -1.8800 H   0  0  0  0  0  0  0  0  0  0  0  0
   -1.1405   -1.4770   -1.4347 H   0  0  0  0  0  0  0  0  0  0  0  0
   -2.3700   -3.5887   -1.7601 H   0  0  0  0  0  0  0  0  0  0  0  0
   -4.8276   -3.5688   -2.0635 H   0  0  0  0  0  0  0  0  0  0  0  0
   -6.0627   -1.4170   -2.0396 H   0  0  0  0  0  0  0  0  0  0  0  0
   -4.8510    0.7064   -1.6967 H   0  0  0  0  0  0  0  0  0  0  0  0
   -4.0566   -0.1449    1.1050 H   0  0  0  0  0  0  0  0  0  0  0  0
   -6.2787    0.2858    1.6476 H   0  0  0  0  0  0  0  0  0  0  0  0
   -6.1043    1.9442    0.9827 H   0  0  0  0  0  0  0  0  0  0  0  0
   -6.8306    2.5712    4.5738 H   0  0  0  0  0  0  0  0  0  0  0  0
    0.6916   -1.0819    2.0938 H   0  0  0  0  0  0  0  0  0  0  0  0
   -0.0980   -1.8442    0.6880 H   0  0  0  0  0  0  0  0  0  0  0  0
    1.7643   -1.4860   -0.7668 H   0  0  0  0  0  0  0  0  0  0  0  0
    2.3138   -2.3554    0.7048 H   0  0  0  0  0  0  0  0  0  0  0  0
    4.0151   -1.3040    2.2461 H   0  0  0  0  0  0  0  0  0  0  0  0
    4.2154    0.4825    2.2772 H   0  0  0  0  0  0  0  0  0  0  0  0
    2.6633   -0.2487    2.7505 H   0  0  0  0  0  0  0  0  0  0  0  0
    5.3039    1.3145    0.3523 H   0  0  0  0  0  0  0  0  0  0  0  0
    7.3328    0.9801   -0.9670 H   0  0  0  0  0  0  0  0  0  0  0  0
    7.5961   -1.0227   -2.3849 H   0  0  0  0  0  0  0  0  0  0  0  0
    6.6502   -3.1508   -3.1975 H   0  0  0  0  0  0  0  0  0  0  0  0
    3.7613   -2.4503   -1.1656 H   0  0  0  0  0  0  0  0  0  0  0  0
  1  2  1  0
  2  3  1  0
  3  4  1  0
  4  5  1  0
  5  6  1  0
  6  7  1  0
  7  8  1  0
  8  9  2  0
  9 10  1  0
 10 11  2  0
 11 12  1  0
 12 13  2  0
 13  8  1  0
  6 14  1  0
 14 15  2  0
 14 16  1  0
 16 17  1  0
 17 18  1  0
 18 19  2  0
 18 20  1  0
  4 21  1  0
 21 22  1  0
 22 23  1  0
 23  2  1  0
 23 24  1  0
 23 25  1  0
 25 26  2  0
 26 27  1  0
 27 28  2  0
 28 29  1  0
 29 30  1  0
 29 31  2  0
 31 25  1  0
  1 32  1  0
  1 33  1  0
  1 34  1  0
  2 35  1  0
  3 36  1  0
  3 37  1  0
  5 38  1  0
  5 39  1  0
  6 40  1  0
  7 41  1  0
  7 42  1  0
  9 43  1  0
 10 44  1  0
 11 45  1  0
 12 46  1  0
 13 47  1  0
 16 48  1  0
 17 49  1  0
 17 50  1  0
 20 51  1  0
 21 52  1  0
 21 53  1  0
 22 54  1  0
 22 55  1  0
 24 56  1  0
 24 57  1  0
 24 58  1  0
 26 59  1  0
 27 60  1  0
 28 61  1  0
 30 62  1  0
 31 63  1  0
M  END
> <ID>
HT0121

> <Class>
0.0

> <Clusters>
142

> <Fold>
5

$$$$