
     RDKit          3D

 37 39  0  0  0  0  0  0  0  0999 V2000
    5.6702    0.7352    0.0448 O   0  0  0  0  0  0  0  0  0  0  0  0
    4.3423    0.3285    0.1533 C   0  0  0  0  0  0  0  0  0  0  0  0
    3.5335    0.2191   -0.9849 C   0  0  0  0  0  0  0  0  0  0  0  0
    2.2027   -0.1898   -0.8637 C   0  0  0  0  0  0  0  0  0  0  0  0
    1.6626   -0.4990    0.4001 C   0  0  0  0  0  0  0  0  0  0  0  0
    2.4817   -0.3804    1.5375 C   0  0  0  0  0  0  0  0  0  0  0  0
    3.8127    0.0286    1.4119 C   0  0  0  0  0  0  0  0  0  0  0  0
    0.2064   -0.9287    0.5379 C   0  0  0  0  0  0  0  0  0  0  0  0
   -0.0437   -2.2247   -0.3036 C   0  0  0  0  0  0  0  0  0  0  0  0
   -1.1288   -2.0611   -1.2820 N   0  0  0  0  0  0  0  0  0  0  0  0
   -2.4468   -2.3194   -0.6818 C   0  0  0  0  0  0  0  0  0  0  0  0
   -2.7087   -1.4475    0.5550 C   0  0  0  0  0  0  0  0  0  0  0  0
   -2.2077   -0.0332    0.3386 C   0  0  0  0  0  0  0  0  0  0  0  0
   -3.1189    1.0325    0.1384 C   0  0  0  0  0  0  0  0  0  0  0  0
   -4.8659    0.7651    0.0985 Cl  0  0  0  0  0  0  0  0  0  0  0  0
   -2.6553    2.3404   -0.0638 C   0  0  0  0  0  0  0  0  0  0  0  0
   -3.5982    3.3525   -0.2692 O   0  0  0  0  0  0  0  0  0  0  0  0
   -1.2708    2.5985   -0.0567 C   0  0  0  0  0  0  0  0  0  0  0  0
   -0.7412    3.8812   -0.2187 O   0  0  0  0  0  0  0  0  0  0  0  0
   -0.3720    1.5479    0.1237 C   0  0  0  0  0  0  0  0  0  0  0  0
   -0.8063    0.2158    0.2968 C   0  0  0  0  0  0  0  0  0  0  0  0
    6.0833    0.9603   -0.8527 H   0  0  0  0  0  0  0  0  0  0  0  0
    3.9338    0.4538   -1.9630 H   0  0  0  0  0  0  0  0  0  0  0  0
    1.5870   -0.2572   -1.7522 H   0  0  0  0  0  0  0  0  0  0  0  0
    2.0919   -0.6018    2.5231 H   0  0  0  0  0  0  0  0  0  0  0  0
    4.4333    0.1146    2.2948 H   0  0  0  0  0  0  0  0  0  0  0  0
    0.0518   -1.2244    1.5995 H   0  0  0  0  0  0  0  0  0  0  0  0
    0.8779   -2.5299   -0.8485 H   0  0  0  0  0  0  0  0  0  0  0  0
   -0.2541   -3.0820    0.3770 H   0  0  0  0  0  0  0  0  0  0  0  0
   -0.9919   -2.7668   -2.0434 H   0  0  0  0  0  0  0  0  0  0  0  0
   -2.5456   -3.3938   -0.4073 H   0  0  0  0  0  0  0  0  0  0  0  0
   -3.2271   -2.0960   -1.4415 H   0  0  0  0  0  0  0  0  0  0  0  0
   -2.2110   -1.8866    1.4454 H   0  0  0  0  0  0  0  0  0  0  0  0
   -3.7901   -1.4905    0.7910 H   0  0  0  0  0  0  0  0  0  0  0  0
   -3.3670    4.3177   -0.4534 H   0  0  0  0  0  0  0  0  0  0  0  0
   -1.2972    4.7170   -0.3257 H   0  0  0  0  0  0  0  0  0  0  0  0
    0.6772    1.8041    0.1449 H   0  0  0  0  0  0  0  0  0  0  0  0
  1  2  1  0
  2  3  2  0
  3  4  1  0
  4  5  2  0
  5  6  1  0
  6  7  2  0
  7  2  1  0
  5  8  1  0
  8  9  1  0
  9 10  1  0
 10 11  1  0
 11 12  1  0
 12 13  1  0
 13 14  2  0
 14 15  1  0
 14 16  1  0
 16 17  1  0
 16 18  2  0
 18 19  1  0
 18 20  1  0
 20 21  2  0
 21  8  1  0
 21 13  1  0
  1 22  1  0
  3 23  1  0
  4 24  1  0
  6 25  1  0
  7 26  1  0
  8 27  1  0
  9 28  1  0
  9 29  1  0
 10 30  1  0
 11 31  1  0
 11 32  1  0
 12 33  1  0
 12 34  1  0
 17 35  1  0
 19 36  1  0
 20 37  1  0
M  END
> <ID>
HT0861

> <Class>
0.0

> <Clusters>
249

> <Fold>
5

$$$$