
     RDKit          3D

 60 60  0  0  0  0  0  0  0  0999 V2000
   -5.8846    0.5158   -0.6253 C   0  0  0  0  0  0  0  0  0  0  0  0
   -4.4506    0.2376   -0.1670 C   0  0  0  0  0  0  0  0  0  0  0  0
   -4.3843    0.2838    1.2347 O   0  0  0  0  0  0  0  0  0  0  0  0
   -3.4827    1.2789   -0.7571 C   0  0  0  0  0  0  0  0  0  0  0  0
   -2.1031    1.0701   -0.2602 N   0  0  0  0  0  0  0  0  0  0  0  0
   -1.4743   -0.1380   -0.8568 C   0  0  0  0  0  0  0  0  0  0  0  0
   -1.2113   -1.1920    0.2332 C   0  0  0  0  0  0  0  0  0  0  0  0
    0.0229   -1.9529   -0.0678 N   0  0  0  0  0  0  0  0  0  0  0  0
   -0.1647   -3.0032   -1.0961 C   0  0  0  0  0  0  0  0  0  0  0  0
   -0.9807   -4.1948   -0.6554 C   0  0  0  0  0  0  0  0  0  0  0  0
   -1.4469   -4.2861    0.5118 O   0  0  0  0  0  0  0  0  0  0  0  0
   -1.2175   -5.2176   -1.5678 O   0  0  0  0  0  0  0  0  0  0  0  0
    0.7475   -2.4211    1.1334 C   0  0  0  0  0  0  0  0  0  0  0  0
    1.6435   -1.3144    1.7496 C   0  0  0  0  0  0  0  0  0  0  0  0
    2.8095   -0.8824    0.9338 N   0  0  0  0  0  0  0  0  0  0  0  0
    3.6364   -2.0089    0.4542 C   0  0  0  0  0  0  0  0  0  0  0  0
    5.0675   -1.5937    0.2774 C   0  0  0  0  0  0  0  0  0  0  0  0
    5.8969   -2.4143   -0.1977 O   0  0  0  0  0  0  0  0  0  0  0  0
    5.4909   -0.3192    0.6462 O   0  0  0  0  0  0  0  0  0  0  0  0
    2.4669    0.0752   -0.1433 C   0  0  0  0  0  0  0  0  0  0  0  0
    2.3130    1.5049    0.4037 C   0  0  0  0  0  0  0  0  0  0  0  0
    1.2246    2.2102   -0.3172 N   0  0  0  0  0  0  0  0  0  0  0  0
    1.6435    3.5110   -0.8910 C   0  0  0  0  0  0  0  0  0  0  0  0
    2.1238    4.5252    0.1203 C   0  0  0  0  0  0  0  0  0  0  0  0
    2.4695    5.6687   -0.2795 O   0  0  0  0  0  0  0  0  0  0  0  0
    2.2012    4.2247    1.4778 O   0  0  0  0  0  0  0  0  0  0  0  0
   -0.0397    2.2932    0.4531 C   0  0  0  0  0  0  0  0  0  0  0  0
   -1.2725    2.2796   -0.4804 C   0  0  0  0  0  0  0  0  0  0  0  0
   -5.9461    0.4874   -1.7343 H   0  0  0  0  0  0  0  0  0  0  0  0
   -6.5680   -0.2588   -0.2170 H   0  0  0  0  0  0  0  0  0  0  0  0
   -6.2220    1.5121   -0.2673 H   0  0  0  0  0  0  0  0  0  0  0  0
   -4.1655   -0.7760   -0.5294 H   0  0  0  0  0  0  0  0  0  0  0  0
   -4.7646   -0.5705    1.5688 H   0  0  0  0  0  0  0  0  0  0  0  0
   -3.8551    2.2815   -0.4480 H   0  0  0  0  0  0  0  0  0  0  0  0
   -3.5079    1.2471   -1.8704 H   0  0  0  0  0  0  0  0  0  0  0  0
   -2.1052   -0.5962   -1.6512 H   0  0  0  0  0  0  0  0  0  0  0  0
   -0.5234    0.1108   -1.3732 H   0  0  0  0  0  0  0  0  0  0  0  0
   -2.0922   -1.8621    0.3214 H   0  0  0  0  0  0  0  0  0  0  0  0
   -1.1200   -0.6794    1.2142 H   0  0  0  0  0  0  0  0  0  0  0  0
   -0.6451   -2.5632   -1.9955 H   0  0  0  0  0  0  0  0  0  0  0  0
    0.8319   -3.3653   -1.4284 H   0  0  0  0  0  0  0  0  0  0  0  0
   -1.7607   -6.0319   -1.3068 H   0  0  0  0  0  0  0  0  0  0  0  0
    0.0232   -2.7457    1.9131 H   0  0  0  0  0  0  0  0  0  0  0  0
    1.3655   -3.3158    0.9061 H   0  0  0  0  0  0  0  0  0  0  0  0
    2.0320   -1.7026    2.7160 H   0  0  0  0  0  0  0  0  0  0  0  0
    1.0204   -0.4419    2.0262 H   0  0  0  0  0  0  0  0  0  0  0  0
    3.2400   -2.4021   -0.5089 H   0  0  0  0  0  0  0  0  0  0  0  0
    3.6362   -2.8381    1.1958 H   0  0  0  0  0  0  0  0  0  0  0  0
    6.4571   -0.0384    0.5303 H   0  0  0  0  0  0  0  0  0  0  0  0
    1.5654   -0.2393   -0.6865 H   0  0  0  0  0  0  0  0  0  0  0  0
    3.2661    0.1018   -0.9178 H   0  0  0  0  0  0  0  0  0  0  0  0
    3.2923    2.0188    0.2713 H   0  0  0  0  0  0  0  0  0  0  0  0
    2.1353    1.5033    1.5016 H   0  0  0  0  0  0  0  0  0  0  0  0
    2.4578    3.3339   -1.6266 H   0  0  0  0  0  0  0  0  0  0  0  0
    0.8010    3.9570   -1.4617 H   0  0  0  0  0  0  0  0  0  0  0  0
    2.5289    4.9124    2.1452 H   0  0  0  0  0  0  0  0  0  0  0  0
   -0.1209    1.4498    1.1690 H   0  0  0  0  0  0  0  0  0  0  0  0
   -0.0637    3.2106    1.0796 H   0  0  0  0  0  0  0  0  0  0  0  0
   -0.9809    2.3620   -1.5521 H   0  0  0  0  0  0  0  0  0  0  0  0
   -1.8566    3.1986   -0.2503 H   0  0  0  0  0  0  0  0  0  0  0  0
  1  2  1  0
  2  3  1  0
  2  4  1  0
  4  5  1  0
  5  6  1  0
  6  7  1  0
  7  8  1  0
  8  9  1  0
  9 10  1  0
 10 11  2  0
 10 12  1  0
  8 13  1  0
 13 14  1  0
 14 15  1  0
 15 16  1  0
 16 17  1  0
 17 18  2  0
 17 19  1  0
 15 20  1  0
 20 21  1  0
 21 22  1  0
 22 23  1  0
 23 24  1  0
 24 25  2  0
 24 26  1  0
 22 27  1  0
 27 28  1  0
 28  5  1  0
  1 29  1  0
  1 30  1  0
  1 31  1  0
  2 32  1  0
  3 33  1  0
  4 34  1  0
  4 35  1  0
  6 36  1  0
  6 37  1  0
  7 38  1  0
  7 39  1  0
  9 40  1  0
  9 41  1  0
 12 42  1  0
 13 43  1  0
 13 44  1  0
 14 45  1  0
 14 46  1  0
 16 47  1  0
 16 48  1  0
 19 49  1  0
 20 50  1  0
 20 51  1  0
 21 52  1  0
 21 53  1  0
 23 54  1  0
 23 55  1  0
 26 56  1  0
 27 57  1  0
 27 58  1  0
 28 59  1  0
 28 60  1  0
M  END
> <ID>
HT0956

> <Class>
0.0

> <Clusters>
115

> <Fold>
5

$$$$