
     RDKit          3D

 48 51  0  0  0  0  0  0  0  0999 V2000
   -7.2891   -0.1318   -0.8740 C   0  0  0  0  0  0  0  0  0  0  0  0
   -5.9542   -0.4319   -0.5043 O   0  0  0  0  0  0  0  0  0  0  0  0
   -4.9847    0.5442   -0.5440 N   0  0  0  0  0  0  0  0  0  0  0  0
   -3.7546    0.3087   -0.2051 C   0  0  0  0  0  0  0  0  0  0  0  0
   -2.6892    1.3160   -0.3883 C   0  0  0  0  0  0  0  0  0  0  0  0
   -1.4572    0.5631   -0.2097 N   0  0  0  0  0  0  0  0  0  0  0  0
   -1.6974   -0.8525    0.0704 C   0  0  0  0  0  0  0  0  0  0  0  0
   -3.2209   -1.0263    0.2180 C   0  0  0  0  0  0  0  0  0  0  0  0
   -3.5955   -1.3579    1.6780 C   0  0  0  0  0  0  0  0  0  0  0  0
   -5.0202   -1.6451    1.8092 N   0  0  0  0  0  0  0  0  0  0  0  0
   -0.1231    1.0985   -0.3478 C   0  0  0  0  0  0  0  0  0  0  0  0
    0.9375    0.2534   -0.2319 N   0  0  0  0  0  0  0  0  0  0  0  0
    2.2373    0.6501   -0.3438 C   0  0  0  0  0  0  0  0  0  0  0  0
    3.2588   -0.2633   -0.2148 N   0  0  0  0  0  0  0  0  0  0  0  0
    4.5623    0.1622   -0.3324 C   0  0  0  0  0  0  0  0  0  0  0  0
    4.8875    1.5063   -0.5811 C   0  0  0  0  0  0  0  0  0  0  0  0
    6.3189    1.9010   -0.6974 C   0  0  0  0  0  0  0  0  0  0  0  0
    6.6450    3.0982   -0.9203 O   0  0  0  0  0  0  0  0  0  0  0  0
    7.3228    0.9450   -0.5603 O   0  0  0  0  0  0  0  0  0  0  0  0
    3.8430    2.4387   -0.7123 C   0  0  0  0  0  0  0  0  0  0  0  0
    4.0961    3.6552   -0.9358 O   0  0  0  0  0  0  0  0  0  0  0  0
    2.5125    2.0119   -0.5938 C   0  0  0  0  0  0  0  0  0  0  0  0
    1.4383    2.9093   -0.7170 C   0  0  0  0  0  0  0  0  0  0  0  0
    0.1231    2.4621   -0.5952 C   0  0  0  0  0  0  0  0  0  0  0  0
   -0.8811    3.3648   -0.7158 F   0  0  0  0  0  0  0  0  0  0  0  0
    2.9010   -1.6874    0.0496 C   0  0  0  0  0  0  0  0  0  0  0  0
    3.8503   -2.4842    0.9366 C   0  0  0  0  0  0  0  0  0  0  0  0
    3.8016   -2.7511   -0.5669 C   0  0  0  0  0  0  0  0  0  0  0  0
   -7.6940    0.6598   -0.2092 H   0  0  0  0  0  0  0  0  0  0  0  0
   -7.9110   -1.0448   -0.7740 H   0  0  0  0  0  0  0  0  0  0  0  0
   -7.3181    0.2160   -1.9279 H   0  0  0  0  0  0  0  0  0  0  0  0
   -2.7810    2.1086    0.3843 H   0  0  0  0  0  0  0  0  0  0  0  0
   -2.7353    1.7376   -1.4154 H   0  0  0  0  0  0  0  0  0  0  0  0
   -1.1454   -1.1531    0.9885 H   0  0  0  0  0  0  0  0  0  0  0  0
   -1.3256   -1.4632   -0.7813 H   0  0  0  0  0  0  0  0  0  0  0  0
   -3.5776   -1.8256   -0.4689 H   0  0  0  0  0  0  0  0  0  0  0  0
   -3.0152   -2.2454    2.0182 H   0  0  0  0  0  0  0  0  0  0  0  0
   -3.3296   -0.5023    2.3387 H   0  0  0  0  0  0  0  0  0  0  0  0
   -5.2239   -1.7923    2.8242 H   0  0  0  0  0  0  0  0  0  0  0  0
   -5.2152   -2.5552    1.3318 H   0  0  0  0  0  0  0  0  0  0  0  0
    5.3795   -0.5348   -0.2353 H   0  0  0  0  0  0  0  0  0  0  0  0
    8.2999    1.2010   -0.6373 H   0  0  0  0  0  0  0  0  0  0  0  0
    1.6123    3.9616   -0.9072 H   0  0  0  0  0  0  0  0  0  0  0  0
    1.8317   -1.9769    0.1358 H   0  0  0  0  0  0  0  0  0  0  0  0
    4.7657   -1.9769    1.2993 H   0  0  0  0  0  0  0  0  0  0  0  0
    3.3522   -3.2699    1.5430 H   0  0  0  0  0  0  0  0  0  0  0  0
    3.2753   -3.6918   -0.8336 H   0  0  0  0  0  0  0  0  0  0  0  0
    4.6868   -2.4097   -1.1386 H   0  0  0  0  0  0  0  0  0  0  0  0
  1  2  1  0
  2  3  1  0
  3  4  2  0
  4  5  1  0
  5  6  1  0
  6  7  1  0
  7  8  1  0
  8  4  1  0
  8  9  1  0
  9 10  1  0
  6 11  1  0
 11 12  2  0
 12 13  1  0
 13 14  1  0
 14 15  1  0
 15 16  2  0
 16 17  1  0
 17 18  2  0
 17 19  1  0
 16 20  1  0
 20 21  2  0
 20 22  1  0
 22 13  2  0
 22 23  1  0
 23 24  2  0
 24 11  1  0
 24 25  1  0
 14 26  1  0
 26 27  1  0
 27 28  1  0
 28 26  1  0
  1 29  1  0
  1 30  1  0
  1 31  1  0
  5 32  1  0
  5 33  1  0
  7 34  1  0
  7 35  1  0
  8 36  1  0
  9 37  1  0
  9 38  1  0
 10 39  1  0
 10 40  1  0
 15 41  1  0
 19 42  1  0
 23 43  1  0
 26 44  1  0
 27 45  1  0
 27 46  1  0
 28 47  1  0
 28 48  1  0
M  END
> <ID>
HT0971

> <Class>
0.0

> <Clusters>
117

> <Fold>
5

$$$$