
     RDKit          3D

 65 65  0  0  0  0  0  0  0  0999 V2000
   -5.0025    2.2296   -0.2894 O   0  0  0  0  0  0  0  0  0  0  0  0
   -5.4216    0.9459   -0.6740 C   0  0  0  0  0  0  0  0  0  0  0  0
   -4.3434   -0.1143   -0.3576 C   0  0  0  0  0  0  0  0  0  0  0  0
   -4.1069   -0.1364    1.0300 O   0  0  0  0  0  0  0  0  0  0  0  0
   -3.0145    0.1349   -1.1589 C   0  0  0  0  0  0  0  0  0  0  0  0
   -3.0117   -0.6099   -2.5089 C   0  0  0  0  0  0  0  0  0  0  0  0
   -4.0286   -0.1259   -3.3424 O   0  0  0  0  0  0  0  0  0  0  0  0
   -1.7788   -0.2079   -0.4002 N   0  0  0  0  0  0  0  0  0  0  0  0
   -1.3604    0.8565    0.5463 C   0  0  0  0  0  0  0  0  0  0  0  0
   -0.2706    1.7259   -0.0964 C   0  0  0  0  0  0  0  0  0  0  0  0
    0.6950    2.1786    0.9353 N   0  0  0  0  0  0  0  0  0  0  0  0
    0.4262    3.5323    1.4567 C   0  0  0  0  0  0  0  0  0  0  0  0
    0.6787    4.6419    0.4652 C   0  0  0  0  0  0  0  0  0  0  0  0
    1.0957    4.3992   -0.7003 O   0  0  0  0  0  0  0  0  0  0  0  0
    0.4415    5.9604    0.8387 O   0  0  0  0  0  0  0  0  0  0  0  0
    2.1233    1.9092    0.6367 C   0  0  0  0  0  0  0  0  0  0  0  0
    2.6422    0.7545    1.5177 C   0  0  0  0  0  0  0  0  0  0  0  0
    3.3398   -0.2575    0.6757 N   0  0  0  0  0  0  0  0  0  0  0  0
    4.7593   -0.4149    1.0574 C   0  0  0  0  0  0  0  0  0  0  0  0
    5.5391    0.8065    0.6752 C   0  0  0  0  0  0  0  0  0  0  0  0
    6.2435    1.4049    1.5354 O   0  0  0  0  0  0  0  0  0  0  0  0
    5.4919    1.2736   -0.6366 O   0  0  0  0  0  0  0  0  0  0  0  0
    2.6426   -1.5661    0.6581 C   0  0  0  0  0  0  0  0  0  0  0  0
    1.3603   -1.4671   -0.1775 C   0  0  0  0  0  0  0  0  0  0  0  0
    0.5696   -2.7194   -0.2020 N   0  0  0  0  0  0  0  0  0  0  0  0
    1.2684   -3.7903   -0.9587 C   0  0  0  0  0  0  0  0  0  0  0  0
    1.9463   -4.7325   -0.0116 C   0  0  0  0  0  0  0  0  0  0  0  0
    3.1708   -4.9942   -0.1530 O   0  0  0  0  0  0  0  0  0  0  0  0
    1.2235   -5.3633    0.9959 O   0  0  0  0  0  0  0  0  0  0  0  0
   -0.7705   -2.4660   -0.7936 C   0  0  0  0  0  0  0  0  0  0  0  0
   -1.6854   -1.6045    0.1124 C   0  0  0  0  0  0  0  0  0  0  0  0
   -5.0666    2.2713    0.7005 H   0  0  0  0  0  0  0  0  0  0  0  0
   -6.3742    0.6850   -0.1573 H   0  0  0  0  0  0  0  0  0  0  0  0
   -5.6429    0.9582   -1.7617 H   0  0  0  0  0  0  0  0  0  0  0  0
   -4.7608   -1.1065   -0.6594 H   0  0  0  0  0  0  0  0  0  0  0  0
   -4.9021   -0.5521    1.4544 H   0  0  0  0  0  0  0  0  0  0  0  0
   -2.9532    1.2160   -1.4234 H   0  0  0  0  0  0  0  0  0  0  0  0
   -3.1522   -1.7005   -2.3428 H   0  0  0  0  0  0  0  0  0  0  0  0
   -2.0316   -0.4511   -3.0100 H   0  0  0  0  0  0  0  0  0  0  0  0
   -3.9852   -0.6619   -4.1759 H   0  0  0  0  0  0  0  0  0  0  0  0
   -2.2118    1.5120    0.8300 H   0  0  0  0  0  0  0  0  0  0  0  0
   -0.9702    0.4332    1.4988 H   0  0  0  0  0  0  0  0  0  0  0  0
   -0.7388    2.5771   -0.6276 H   0  0  0  0  0  0  0  0  0  0  0  0
    0.2341    1.1441   -0.8970 H   0  0  0  0  0  0  0  0  0  0  0  0
    1.0634    3.7116    2.3537 H   0  0  0  0  0  0  0  0  0  0  0  0
   -0.6326    3.5907    1.7952 H   0  0  0  0  0  0  0  0  0  0  0  0
    0.1151    6.1852    1.7713 H   0  0  0  0  0  0  0  0  0  0  0  0
    2.2850    1.6833   -0.4400 H   0  0  0  0  0  0  0  0  0  0  0  0
    2.7531    2.8045    0.8323 H   0  0  0  0  0  0  0  0  0  0  0  0
    1.8078    0.3076    2.1029 H   0  0  0  0  0  0  0  0  0  0  0  0
    3.3146    1.1853    2.2895 H   0  0  0  0  0  0  0  0  0  0  0  0
    4.8575   -0.6259    2.1467 H   0  0  0  0  0  0  0  0  0  0  0  0
    5.2182   -1.2640    0.5066 H   0  0  0  0  0  0  0  0  0  0  0  0
    6.0148    2.0959   -0.9144 H   0  0  0  0  0  0  0  0  0  0  0  0
    2.4078   -1.9000    1.6905 H   0  0  0  0  0  0  0  0  0  0  0  0
    3.2908   -2.3322    0.1918 H   0  0  0  0  0  0  0  0  0  0  0  0
    1.6006   -1.1178   -1.2084 H   0  0  0  0  0  0  0  0  0  0  0  0
    0.7603   -0.6953    0.3108 H   0  0  0  0  0  0  0  0  0  0  0  0
    2.0028   -3.3765   -1.6863 H   0  0  0  0  0  0  0  0  0  0  0  0
    0.5657   -4.4128   -1.5585 H   0  0  0  0  0  0  0  0  0  0  0  0
    0.2419   -5.1531    1.1528 H   0  0  0  0  0  0  0  0  0  0  0  0
   -0.6664   -2.0159   -1.8068 H   0  0  0  0  0  0  0  0  0  0  0  0
   -1.3034   -3.4386   -0.9315 H   0  0  0  0  0  0  0  0  0  0  0  0
   -1.3171   -1.6576    1.1597 H   0  0  0  0  0  0  0  0  0  0  0  0
   -2.6878   -2.0834    0.1381 H   0  0  0  0  0  0  0  0  0  0  0  0
  1  2  1  0
  2  3  1  0
  3  4  1  0
  3  5  1  0
  5  6  1  0
  6  7  1  0
  5  8  1  0
  8  9  1  0
  9 10  1  0
 10 11  1  0
 11 12  1  0
 12 13  1  0
 13 14  2  0
 13 15  1  0
 11 16  1  0
 16 17  1  0
 17 18  1  0
 18 19  1  0
 19 20  1  0
 20 21  2  0
 20 22  1  0
 18 23  1  0
 23 24  1  0
 24 25  1  0
 25 26  1  0
 26 27  1  0
 27 28  2  0
 27 29  1  0
 25 30  1  0
 30 31  1  0
 31  8  1  0
  1 32  1  0
  2 33  1  0
  2 34  1  0
  3 35  1  0
  4 36  1  0
  5 37  1  0
  6 38  1  0
  6 39  1  0
  7 40  1  0
  9 41  1  0
  9 42  1  0
 10 43  1  0
 10 44  1  0
 12 45  1  0
 12 46  1  0
 15 47  1  0
 16 48  1  0
 16 49  1  0
 17 50  1  0
 17 51  1  0
 19 52  1  0
 19 53  1  0
 22 54  1  0
 23 55  1  0
 23 56  1  0
 24 57  1  0
 24 58  1  0
 26 59  1  0
 26 60  1  0
 29 61  1  0
 30 62  1  0
 30 63  1  0
 31 64  1  0
 31 65  1  0
M  END
> <ID>
HT0951

> <Class>
0.0

> <Clusters>
115

> <Fold>
5

$$$$