
     RDKit          3D

 63 66  0  0  0  0  0  0  0  0999 V2000
    6.7123    1.1109   -1.3666 O   0  0  0  0  0  0  0  0  0  0  0  0
    5.7182    0.3607   -1.1679 C   0  0  0  0  0  0  0  0  0  0  0  0
    4.4926    0.8071   -0.8544 N   0  0  0  0  0  0  0  0  0  0  0  0
    5.7456   -0.9779   -1.2619 N   0  0  0  0  0  0  0  0  0  0  0  0
    4.5259   -1.4308   -1.0244 N   0  0  0  0  0  0  0  0  0  0  0  0
    7.1086   -1.9833   -1.7212 P   0  0  0  0  0  0  0  0  0  0  0  0
    3.7723   -0.3338   -0.7758 C   0  0  0  0  0  0  0  0  0  0  0  0
    7.5837   -1.5872   -3.1010 O   0  0  0  0  0  0  0  0  0  0  0  0
    8.3646   -1.7736   -0.6064 O   0  0  0  0  0  0  0  0  0  0  0  0
    6.6426   -3.6105   -1.7354 O   0  0  0  0  0  0  0  0  0  0  0  0
    2.2945   -0.3818   -0.5169 C   0  0  0  0  0  0  0  0  0  0  0  0
    2.0081   -0.3632    0.9434 N   0  0  0  0  0  0  0  0  0  0  0  0
    2.2128   -1.7035    1.5502 C   0  0  0  0  0  0  0  0  0  0  0  0
    0.6284    0.0928    1.2591 C   0  0  2  0  0  0  0  0  0  0  0  0
    0.9304   -2.5684    1.5127 C   0  0  0  0  0  0  0  0  0  0  0  0
   -0.4175   -0.8704    0.5978 C   0  0  2  0  0  0  0  0  0  0  0  0
    0.3870    1.5808    1.0052 C   0  0  0  0  0  0  0  0  0  0  0  0
    0.0941   -2.1932    0.4368 O   0  0  0  0  0  0  0  0  0  0  0  0
   -0.7777   -0.3525   -0.6752 O   0  0  0  0  0  0  0  0  0  0  0  0
    1.4505    2.4789    0.7817 C   0  0  0  0  0  0  0  0  0  0  0  0
   -0.9157    2.1070    1.1319 C   0  0  0  0  0  0  0  0  0  0  0  0
   -1.8810   -1.0479   -1.2329 C   0  0  2  0  0  0  0  0  0  0  0  0
    1.2037    3.8407    0.5898 C   0  0  0  0  0  0  0  0  0  0  0  0
   -1.1593    3.4706    0.9428 C   0  0  0  0  0  0  0  0  0  0  0  0
   -1.8562   -0.8638   -2.7514 C   0  0  0  0  0  0  0  0  0  0  0  0
   -3.1897   -0.5309   -0.6646 C   0  0  0  0  0  0  0  0  0  0  0  0
   -0.1007    4.3360    0.6584 C   0  0  0  0  0  0  0  0  0  0  0  0
   -4.0885   -1.4209   -0.0513 C   0  0  0  0  0  0  0  0  0  0  0  0
   -3.5174    0.8337   -0.7427 C   0  0  0  0  0  0  0  0  0  0  0  0
   -0.3344    5.6608    0.4844 F   0  0  0  0  0  0  0  0  0  0  0  0
   -5.2979   -0.9593    0.4946 C   0  0  0  0  0  0  0  0  0  0  0  0
   -4.7433    1.3059   -0.2392 C   0  0  0  0  0  0  0  0  0  0  0  0
   -5.6240    0.4030    0.3789 C   0  0  0  0  0  0  0  0  0  0  0  0
   -6.2819   -1.9311    1.1048 C   0  0  0  0  0  0  0  0  0  0  0  0
   -5.1124    2.7692   -0.3069 C   0  0  0  0  0  0  0  0  0  0  0  0
   -7.0187   -1.3162    2.1045 F   0  0  0  0  0  0  0  0  0  0  0  0
   -7.1435   -2.3828    0.1216 F   0  0  0  0  0  0  0  0  0  0  0  0
   -5.6247   -3.0171    1.6597 F   0  0  0  0  0  0  0  0  0  0  0  0
   -6.4099    2.9053   -0.7779 F   0  0  0  0  0  0  0  0  0  0  0  0
   -5.0365    3.3201    0.9602 F   0  0  0  0  0  0  0  0  0  0  0  0
   -4.2640    3.4725   -1.1516 F   0  0  0  0  0  0  0  0  0  0  0  0
    4.1733    1.7962   -0.7494 H   0  0  0  0  0  0  0  0  0  0  0  0
    8.7636   -0.8946   -0.8344 H   0  0  0  0  0  0  0  0  0  0  0  0
    5.9030   -3.6556   -2.3932 H   0  0  0  0  0  0  0  0  0  0  0  0
    1.8330    0.4909   -1.0300 H   0  0  0  0  0  0  0  0  0  0  0  0
    1.8810   -1.2877   -1.0067 H   0  0  0  0  0  0  0  0  0  0  0  0
    2.5198   -1.5738    2.6111 H   0  0  0  0  0  0  0  0  0  0  0  0
    3.0473   -2.2525    1.0572 H   0  0  0  0  0  0  0  0  0  0  0  0
    0.4880   -0.0011    2.3622 H   0  0  0  0  0  0  0  0  0  0  0  0
    0.3778   -2.5036    2.4799 H   0  0  0  0  0  0  0  0  0  0  0  0
    1.2187   -3.6341    1.3771 H   0  0  0  0  0  0  0  0  0  0  0  0
   -1.3138   -0.9102    1.2600 H   0  0  0  0  0  0  0  0  0  0  0  0
    2.4740    2.1388    0.7836 H   0  0  0  0  0  0  0  0  0  0  0  0
   -1.7458    1.4637    1.3906 H   0  0  0  0  0  0  0  0  0  0  0  0
   -1.7973   -2.1477   -1.0657 H   0  0  0  0  0  0  0  0  0  0  0  0
    2.0278    4.5179    0.4081 H   0  0  0  0  0  0  0  0  0  0  0  0
   -2.1685    3.8565    1.0277 H   0  0  0  0  0  0  0  0  0  0  0  0
   -0.9411   -1.3350   -3.1696 H   0  0  0  0  0  0  0  0  0  0  0  0
   -1.8503    0.2129   -3.0216 H   0  0  0  0  0  0  0  0  0  0  0  0
   -2.7435   -1.3468   -3.2134 H   0  0  0  0  0  0  0  0  0  0  0  0
   -3.8453   -2.4764   -0.0013 H   0  0  0  0  0  0  0  0  0  0  0  0
   -2.8148    1.5217   -1.2000 H   0  0  0  0  0  0  0  0  0  0  0  0
   -6.5676    0.7646    0.7714 H   0  0  0  0  0  0  0  0  0  0  0  0
  1  2  2  0
  2  3  1  0
  2  4  1  0
  4  5  1  0
  4  6  1  0
  5  7  2  0
  6  8  2  0
  6  9  1  0
  6 10  1  0
 11  7  1  0
  7  3  1  0
 12 11  1  0
 13 12  1  0
 12 14  1  0
 15 13  1  0
 14 16  1  0
 14 17  1  0
 18 15  1  0
 16 19  1  0
 16 18  1  0
 17 20  2  0
 21 17  1  0
 22 19  1  0
 20 23  1  0
 24 21  2  0
 22 25  1  0
 22 26  1  0
 23 27  2  0
 27 24  1  0
 26 28  2  0
 29 26  1  0
 27 30  1  0
 28 31  1  0
 32 29  2  0
 31 33  2  0
 31 34  1  0
 33 32  1  0
 32 35  1  0
 34 36  1  0
 34 37  1  0
 34 38  1  0
 35 39  1  0
 35 40  1  0
 35 41  1  0
  3 42  1  0
  9 43  1  0
 10 44  1  0
 11 45  1  0
 11 46  1  0
 13 47  1  0
 13 48  1  0
 14 49  1  1
 15 50  1  0
 15 51  1  0
 16 52  1  1
 20 53  1  0
 21 54  1  0
 22 55  1  6
 23 56  1  0
 24 57  1  0
 25 58  1  0
 25 59  1  0
 25 60  1  0
 28 61  1  0
 29 62  1  0
 33 63  1  0
M  END
> <ID>
HT0935

> <Class>
0.0

> <Clusters>
198

> <Fold>
5

$$$$