
     RDKit          3D

 55 58  0  0  0  0  0  0  0  0999 V2000
    7.1270   -0.6221   -0.6869 O   0  0  0  0  0  0  0  0  0  0  0  0
    6.8247   -1.3902    0.4445 C   0  0  0  0  0  0  0  0  0  0  0  0
    5.5458   -0.8756    1.1155 C   0  0  0  0  0  0  0  0  0  0  0  0
    4.3340   -1.4541    0.4907 N   0  0  0  0  0  0  0  0  0  0  0  0
    3.1986   -1.3770    1.4293 C   0  0  0  0  0  0  0  0  0  0  0  0
    1.9618   -2.0381    0.8122 C   0  0  0  0  0  0  0  0  0  0  0  0
    1.5811   -1.3985   -0.4619 N   0  0  0  0  0  0  0  0  0  0  0  0
    0.9241   -0.0839   -0.2801 C   0  0  0  0  0  0  0  0  0  0  0  0
   -0.1920    0.0839   -1.3141 C   0  0  0  0  0  0  0  0  0  0  0  0
   -0.9727    1.3452   -1.0507 C   0  0  0  0  0  0  0  0  0  0  0  0
   -2.2821    1.3968   -0.7287 C   0  0  0  0  0  0  0  0  0  0  0  0
   -2.9899    2.7013   -0.6826 C   0  0  0  0  0  0  0  0  0  0  0  0
   -2.4430    3.8109   -0.0149 C   0  0  0  0  0  0  0  0  0  0  0  0
   -3.2026    4.9730    0.1532 C   0  0  0  0  0  0  0  0  0  0  0  0
   -4.5147    5.0304   -0.3260 C   0  0  0  0  0  0  0  0  0  0  0  0
   -5.0672    3.9324   -0.9913 C   0  0  0  0  0  0  0  0  0  0  0  0
   -4.3045    2.7758   -1.1848 C   0  0  0  0  0  0  0  0  0  0  0  0
   -4.9656    1.4091   -2.1524 S   0  0  0  0  0  0  0  0  0  0  0  0
   -4.4380    0.1691   -0.9607 C   0  0  0  0  0  0  0  0  0  0  0  0
   -5.3299   -0.8237   -0.5477 C   0  0  0  0  0  0  0  0  0  0  0  0
   -4.9166   -1.8078    0.3531 C   0  0  0  0  0  0  0  0  0  0  0  0
   -3.6062   -1.8037    0.8604 C   0  0  0  0  0  0  0  0  0  0  0  0
   -2.7328   -0.7674    0.4881 C   0  0  0  0  0  0  0  0  0  0  0  0
   -3.1240    0.1991   -0.4549 C   0  0  0  0  0  0  0  0  0  0  0  0
   -3.1797   -2.8222    1.8872 C   0  0  0  0  0  0  0  0  0  0  0  0
   -3.4457   -2.3327    3.1524 F   0  0  0  0  0  0  0  0  0  0  0  0
   -1.8241   -3.0819    1.7793 F   0  0  0  0  0  0  0  0  0  0  0  0
   -3.8634   -4.0127    1.7108 F   0  0  0  0  0  0  0  0  0  0  0  0
    2.7233   -1.3532   -1.3994 C   0  0  0  0  0  0  0  0  0  0  0  0
    3.9901   -0.7516   -0.7628 C   0  0  0  0  0  0  0  0  0  0  0  0
    7.9443   -1.0231   -1.0818 H   0  0  0  0  0  0  0  0  0  0  0  0
    7.6673   -1.3124    1.1680 H   0  0  0  0  0  0  0  0  0  0  0  0
    6.7018   -2.4606    0.1637 H   0  0  0  0  0  0  0  0  0  0  0  0
    5.5201    0.2381    1.1069 H   0  0  0  0  0  0  0  0  0  0  0  0
    5.6071   -1.1852    2.1837 H   0  0  0  0  0  0  0  0  0  0  0  0
    3.4407   -1.9277    2.3651 H   0  0  0  0  0  0  0  0  0  0  0  0
    2.9741   -0.3195    1.6982 H   0  0  0  0  0  0  0  0  0  0  0  0
    2.1816   -3.1123    0.6259 H   0  0  0  0  0  0  0  0  0  0  0  0
    1.1163   -2.0132    1.5344 H   0  0  0  0  0  0  0  0  0  0  0  0
    1.6453    0.7560   -0.3743 H   0  0  0  0  0  0  0  0  0  0  0  0
    0.4735    0.0007    0.7334 H   0  0  0  0  0  0  0  0  0  0  0  0
   -0.8355   -0.8187   -1.3250 H   0  0  0  0  0  0  0  0  0  0  0  0
    0.2534    0.1640   -2.3279 H   0  0  0  0  0  0  0  0  0  0  0  0
   -0.4398    2.2730   -1.2238 H   0  0  0  0  0  0  0  0  0  0  0  0
   -1.4480    3.7654    0.4095 H   0  0  0  0  0  0  0  0  0  0  0  0
   -2.7808    5.8230    0.6737 H   0  0  0  0  0  0  0  0  0  0  0  0
   -5.1021    5.9286   -0.1858 H   0  0  0  0  0  0  0  0  0  0  0  0
   -6.0768    3.9909   -1.3775 H   0  0  0  0  0  0  0  0  0  0  0  0
   -6.3417   -0.8406   -0.9322 H   0  0  0  0  0  0  0  0  0  0  0  0
   -5.6254   -2.5660    0.6617 H   0  0  0  0  0  0  0  0  0  0  0  0
   -1.7634   -0.6941    0.9613 H   0  0  0  0  0  0  0  0  0  0  0  0
    2.4583   -0.7748   -2.3109 H   0  0  0  0  0  0  0  0  0  0  0  0
    2.9498   -2.3885   -1.7361 H   0  0  0  0  0  0  0  0  0  0  0  0
    3.8553    0.3381   -0.5859 H   0  0  0  0  0  0  0  0  0  0  0  0
    4.8089   -0.8718   -1.5012 H   0  0  0  0  0  0  0  0  0  0  0  0
  1  2  1  0
  2  3  1  0
  3  4  1  0
  4  5  1  0
  5  6  1  0
  6  7  1  0
  7  8  1  0
  8  9  1  0
  9 10  1  0
 10 11  2  3
 11 12  1  0
 12 13  2  0
 13 14  1  0
 14 15  2  0
 15 16  1  0
 16 17  2  0
 17 12  1  0
 17 18  1  0
 18 19  1  0
 19 20  2  0
 20 21  1  0
 21 22  2  0
 22 23  1  0
 23 24  2  0
 24 11  1  0
 24 19  1  0
 22 25  1  0
 25 26  1  0
 25 27  1  0
 25 28  1  0
  7 29  1  0
 29 30  1  0
 30  4  1  0
  1 31  1  0
  2 32  1  0
  2 33  1  0
  3 34  1  0
  3 35  1  0
  5 36  1  0
  5 37  1  0
  6 38  1  0
  6 39  1  0
  8 40  1  0
  8 41  1  0
  9 42  1  0
  9 43  1  0
 10 44  1  0
 13 45  1  0
 14 46  1  0
 15 47  1  0
 16 48  1  0
 20 49  1  0
 21 50  1  0
 23 51  1  0
 29 52  1  0
 29 53  1  0
 30 54  1  0
 30 55  1  0
M  END
> <ID>
HT0912

> <Class>
0.0

> <Clusters>
240

> <Fold>
5

$$$$