
     RDKit          3D

 64 63  0  0  0  0  0  0  0  0999 V2000
   -8.9908   -0.2555    2.1728 N   0  0  0  0  0  0  0  0  0  0  0  0
   -8.8617   -0.1263    0.7224 C   0  0  0  0  0  0  0  0  0  0  0  0
   -7.9815    1.0750    0.3481 C   0  0  0  0  0  0  0  0  0  0  0  0
   -6.5431    1.0254    0.9101 C   0  0  0  0  0  0  0  0  0  0  0  0
   -5.7651   -0.1458    0.4739 N   0  0  0  0  0  0  0  0  0  0  0  0
   -5.5228   -0.1631   -0.9754 C   0  0  0  0  0  0  0  0  0  0  0  0
   -4.3871   -1.1398   -1.3168 C   0  0  0  0  0  0  0  0  0  0  0  0
   -2.9820   -0.5578   -1.0842 C   0  0  0  0  0  0  0  0  0  0  0  0
   -2.6792   -0.2875    0.3953 C   0  0  0  0  0  0  0  0  0  0  0  0
   -1.2625    0.0233    0.5701 N   0  0  0  0  0  0  0  0  0  0  0  0
   -0.2578   -0.9957    0.6802 C   0  0  0  0  0  0  0  0  0  0  0  0
   -0.5873   -2.2122    0.6806 O   0  0  0  0  0  0  0  0  0  0  0  0
    1.1936   -0.6250    0.8224 C   0  0  0  0  0  0  0  0  0  0  0  0
    1.4392   -0.0483    2.0801 O   0  0  0  0  0  0  0  0  0  0  0  0
    1.5909    0.2927   -0.2487 N   0  0  0  0  0  0  0  0  0  0  0  0
    2.0902   -0.1736   -1.5115 C   0  0  0  0  0  0  0  0  0  0  0  0
    2.0940   -1.4074   -1.7768 O   0  0  0  0  0  0  0  0  0  0  0  0
    2.5915    0.8015   -2.5395 C   0  0  0  0  0  0  0  0  0  0  0  0
    4.0773    0.5784   -2.8818 C   0  0  0  0  0  0  0  0  0  0  0  0
    5.0562    1.3762   -1.9972 C   0  0  0  0  0  0  0  0  0  0  0  0
    5.0188    1.0367   -0.4976 C   0  0  0  0  0  0  0  0  0  0  0  0
    5.4121   -0.4196   -0.1978 C   0  0  0  0  0  0  0  0  0  0  0  0
    5.3837   -0.7161    1.3082 C   0  0  0  0  0  0  0  0  0  0  0  0
    6.3931    0.0606    2.0280 N   0  0  0  0  0  0  0  0  0  0  0  0
    7.6767   -0.1614    2.0499 C   0  0  0  0  0  0  0  0  0  0  0  0
    8.2663   -1.2756    1.3661 N   0  0  0  0  0  0  0  0  0  0  0  0
    8.5163    0.7220    2.7919 N   0  0  0  0  0  0  0  0  0  0  0  0
   -8.1414   -0.7454    2.5350 H   0  0  0  0  0  0  0  0  0  0  0  0
   -9.7940   -0.8980    2.3644 H   0  0  0  0  0  0  0  0  0  0  0  0
   -8.4668   -1.0661    0.2795 H   0  0  0  0  0  0  0  0  0  0  0  0
   -9.8698    0.0418    0.2840 H   0  0  0  0  0  0  0  0  0  0  0  0
   -8.4695    1.9970    0.7319 H   0  0  0  0  0  0  0  0  0  0  0  0
   -7.9501    1.1729   -0.7578 H   0  0  0  0  0  0  0  0  0  0  0  0
   -6.0101    1.9574    0.6145 H   0  0  0  0  0  0  0  0  0  0  0  0
   -6.5806    1.0345    2.0205 H   0  0  0  0  0  0  0  0  0  0  0  0
   -6.2440   -1.0287    0.7640 H   0  0  0  0  0  0  0  0  0  0  0  0
   -5.2640    0.8524   -1.3510 H   0  0  0  0  0  0  0  0  0  0  0  0
   -6.4428   -0.5014   -1.5022 H   0  0  0  0  0  0  0  0  0  0  0  0
   -4.4686   -1.3993   -2.3952 H   0  0  0  0  0  0  0  0  0  0  0  0
   -4.5086   -2.0863   -0.7456 H   0  0  0  0  0  0  0  0  0  0  0  0
   -2.8622    0.3846   -1.6644 H   0  0  0  0  0  0  0  0  0  0  0  0
   -2.2406   -1.2876   -1.4783 H   0  0  0  0  0  0  0  0  0  0  0  0
   -3.2763    0.5838    0.7397 H   0  0  0  0  0  0  0  0  0  0  0  0
   -2.9557   -1.1634    1.0229 H   0  0  0  0  0  0  0  0  0  0  0  0
   -0.9838    1.0273    0.6450 H   0  0  0  0  0  0  0  0  0  0  0  0
    1.8107   -1.5485    0.7607 H   0  0  0  0  0  0  0  0  0  0  0  0
    0.9169    0.7933    2.1386 H   0  0  0  0  0  0  0  0  0  0  0  0
    1.4752    1.3216   -0.1018 H   0  0  0  0  0  0  0  0  0  0  0  0
    1.9879    0.6552   -3.4608 H   0  0  0  0  0  0  0  0  0  0  0  0
    2.4241    1.8482   -2.2066 H   0  0  0  0  0  0  0  0  0  0  0  0
    4.2365    0.9223   -3.9273 H   0  0  0  0  0  0  0  0  0  0  0  0
    4.3344   -0.5020   -2.8802 H   0  0  0  0  0  0  0  0  0  0  0  0
    4.8436    2.4608   -2.1161 H   0  0  0  0  0  0  0  0  0  0  0  0
    6.0885    1.2086   -2.3750 H   0  0  0  0  0  0  0  0  0  0  0  0
    4.0172    1.2626   -0.0811 H   0  0  0  0  0  0  0  0  0  0  0  0
    5.7368    1.7136    0.0151 H   0  0  0  0  0  0  0  0  0  0  0  0
    4.6957   -1.1114   -0.6862 H   0  0  0  0  0  0  0  0  0  0  0  0
    6.4217   -0.6259   -0.6122 H   0  0  0  0  0  0  0  0  0  0  0  0
    5.5219   -1.8020    1.4981 H   0  0  0  0  0  0  0  0  0  0  0  0
    4.3819   -0.4478    1.7066 H   0  0  0  0  0  0  0  0  0  0  0  0
    9.2983   -1.4229    1.4105 H   0  0  0  0  0  0  0  0  0  0  0  0
    7.6997   -1.9893    0.8598 H   0  0  0  0  0  0  0  0  0  0  0  0
    9.5480    0.5666    2.8299 H   0  0  0  0  0  0  0  0  0  0  0  0
    8.1106    1.5403    3.2994 H   0  0  0  0  0  0  0  0  0  0  0  0
  1  2  1  0
  2  3  1  0
  3  4  1  0
  4  5  1  0
  5  6  1  0
  6  7  1  0
  7  8  1  0
  8  9  1  0
  9 10  1  0
 10 11  1  0
 11 12  2  0
 11 13  1  0
 13 14  1  0
 13 15  1  0
 15 16  1  0
 16 17  2  0
 16 18  1  0
 18 19  1  0
 19 20  1  0
 20 21  1  0
 21 22  1  0
 22 23  1  0
 23 24  1  0
 24 25  2  3
 25 26  1  0
 25 27  1  0
  1 28  1  0
  1 29  1  0
  2 30  1  0
  2 31  1  0
  3 32  1  0
  3 33  1  0
  4 34  1  0
  4 35  1  0
  5 36  1  0
  6 37  1  0
  6 38  1  0
  7 39  1  0
  7 40  1  0
  8 41  1  0
  8 42  1  0
  9 43  1  0
  9 44  1  0
 10 45  1  0
 13 46  1  0
 14 47  1  0
 15 48  1  0
 18 49  1  0
 18 50  1  0
 19 51  1  0
 19 52  1  0
 20 53  1  0
 20 54  1  0
 21 55  1  0
 21 56  1  0
 22 57  1  0
 22 58  1  0
 23 59  1  0
 23 60  1  0
 26 61  1  0
 26 62  1  0
 27 63  1  0
 27 64  1  0
M  END
> <ID>
HT1012

> <Class>
0.0

> <Clusters>
123

> <Fold>
5

$$$$