
     RDKit          3D

 17 16  0  0  0  0  0  0  0  0999 V2000
    2.3403    0.4579   -0.2019 C   0  0  0  0  0  0  0  0  0  0  0  0
    0.8171    0.5465   -0.2356 C   0  0  0  0  0  0  0  0  0  0  0  0
    0.1769   -0.7347    0.3229 C   0  0  0  0  0  0  0  0  0  0  0  0
   -1.3581   -0.7525    0.2021 C   0  0  0  0  0  0  0  0  0  0  0  0
   -2.0258    0.3153    1.0710 C   0  0  0  0  0  0  0  0  0  0  0  0
   -1.7305   -0.5665   -1.1187 F   0  0  0  0  0  0  0  0  0  0  0  0
   -1.8142   -1.9946    0.6094 F   0  0  0  0  0  0  0  0  0  0  0  0
    2.6954    0.3153    0.8410 H   0  0  0  0  0  0  0  0  0  0  0  0
    2.7765    1.3983   -0.6001 H   0  0  0  0  0  0  0  0  0  0  0  0
    2.6922   -0.3892   -0.8286 H   0  0  0  0  0  0  0  0  0  0  0  0
    0.5058    1.4237    0.3700 H   0  0  0  0  0  0  0  0  0  0  0  0
    0.4931    0.7077   -1.2864 H   0  0  0  0  0  0  0  0  0  0  0  0
    0.5763   -1.6088   -0.2372 H   0  0  0  0  0  0  0  0  0  0  0  0
    0.4658   -0.8603    1.3897 H   0  0  0  0  0  0  0  0  0  0  0  0
   -3.1275    0.1765    1.0497 H   0  0  0  0  0  0  0  0  0  0  0  0
   -1.6806    0.2326    2.1237 H   0  0  0  0  0  0  0  0  0  0  0  0
   -1.8026    1.3328    0.6886 H   0  0  0  0  0  0  0  0  0  0  0  0
  1  2  1  0
  2  3  1  0
  3  4  1  0
  4  5  1  0
  4  6  1  0
  4  7  1  0
  1  8  1  0
  1  9  1  0
  1 10  1  0
  2 11  1  0
  2 12  1  0
  3 13  1  0
  3 14  1  0
  5 15  1  0
  5 16  1  0
  5 17  1  0
M  END
> <ID>
HT0027

> <Class>
0.0

> <Clusters>
43

> <Fold>
5

$$$$