
     RDKit          3D

 67 67  0  0  0  0  0  0  0  0999 V2000
    2.8844   -3.3553   -1.6888 O   0  0  0  0  0  0  0  0  0  0  0  0
    2.7593   -2.0569   -2.1730 C   0  0  0  0  0  0  0  0  0  0  0  0
    3.5341   -1.6567   -3.0810 O   0  0  0  0  0  0  0  0  0  0  0  0
    1.7133   -1.1344   -1.6195 C   0  0  0  0  0  0  0  0  0  0  0  0
    1.9153   -0.8913   -0.1742 N   0  0  0  0  0  0  0  0  0  0  0  0
    3.2164   -0.2554    0.1520 C   0  0  0  0  0  0  0  0  0  0  0  0
    3.4301    1.1201   -0.5186 C   0  0  0  0  0  0  0  0  0  0  0  0
    4.5943    1.8204    0.0718 N   0  0  0  0  0  0  0  0  0  0  0  0
    4.5750    3.2526   -0.2955 C   0  0  0  0  0  0  0  0  0  0  0  0
    5.4750    4.0345    0.6108 C   0  0  0  0  0  0  0  0  0  0  0  0
    6.4279    4.7057    0.1310 O   0  0  0  0  0  0  0  0  0  0  0  0
    5.2505    4.0259    1.9835 O   0  0  0  0  0  0  0  0  0  0  0  0
    5.8805    1.1775   -0.3118 C   0  0  0  0  0  0  0  0  0  0  0  0
    6.4839    0.4565    0.8593 C   0  0  0  0  0  0  0  0  0  0  0  0
    5.9328    0.4905    1.9920 O   0  0  0  0  0  0  0  0  0  0  0  0
    7.6725   -0.2513    0.7030 O   0  0  0  0  0  0  0  0  0  0  0  0
    0.7637   -0.1863    0.4386 C   0  0  0  0  0  0  0  0  0  0  0  0
   -0.1474   -1.1870    1.1582 C   0  0  0  0  0  0  0  0  0  0  0  0
   -0.9576   -1.9582    0.1864 N   0  0  0  0  0  0  0  0  0  0  0  0
   -0.9555   -3.4437    0.2763 C   0  0  0  0  0  0  0  0  0  0  0  0
   -0.6803   -4.0018    1.6517 C   0  0  0  0  0  0  0  0  0  0  0  0
    0.4267   -4.5551    1.8839 O   0  0  0  0  0  0  0  0  0  0  0  0
   -1.6236   -3.9268    2.6734 O   0  0  0  0  0  0  0  0  0  0  0  0
   -2.2292   -1.3097   -0.2232 C   0  0  0  0  0  0  0  0  0  0  0  0
   -3.3777   -1.5584    0.7807 C   0  0  0  0  0  0  0  0  0  0  0  0
   -4.5056   -0.7718    0.4391 O   0  0  0  0  0  0  0  0  0  0  0  0
   -4.5591    0.3994    1.2269 C   0  0  0  0  0  0  0  0  0  0  0  0
   -5.6852    1.2652    0.7385 C   0  0  0  0  0  0  0  0  0  0  0  0
   -7.0086    0.8000    0.8168 C   0  0  0  0  0  0  0  0  0  0  0  0
   -8.0641    1.5959    0.3594 C   0  0  0  0  0  0  0  0  0  0  0  0
   -7.8059    2.8600   -0.1780 C   0  0  0  0  0  0  0  0  0  0  0  0
   -6.4925    3.3307   -0.2583 C   0  0  0  0  0  0  0  0  0  0  0  0
   -5.4340    2.5385    0.1980 C   0  0  0  0  0  0  0  0  0  0  0  0
   -2.5835   -1.7151   -1.6338 C   0  0  0  0  0  0  0  0  0  0  0  0
   -3.6284   -2.3766   -1.8808 O   0  0  0  0  0  0  0  0  0  0  0  0
   -1.7416   -1.3489   -2.6785 O   0  0  0  0  0  0  0  0  0  0  0  0
    2.2844   -3.6971   -0.9489 H   0  0  0  0  0  0  0  0  0  0  0  0
    0.7362   -1.6316   -1.7814 H   0  0  0  0  0  0  0  0  0  0  0  0
    1.6862   -0.1799   -2.1886 H   0  0  0  0  0  0  0  0  0  0  0  0
    4.0408   -0.9418   -0.1336 H   0  0  0  0  0  0  0  0  0  0  0  0
    3.2979   -0.1394    1.2555 H   0  0  0  0  0  0  0  0  0  0  0  0
    3.5684    1.0045   -1.6160 H   0  0  0  0  0  0  0  0  0  0  0  0
    2.5085    1.7209   -0.3640 H   0  0  0  0  0  0  0  0  0  0  0  0
    4.8715    3.3905   -1.3605 H   0  0  0  0  0  0  0  0  0  0  0  0
    3.5559    3.6799   -0.1723 H   0  0  0  0  0  0  0  0  0  0  0  0
    5.8466    4.5513    2.6120 H   0  0  0  0  0  0  0  0  0  0  0  0
    5.7554    0.4516   -1.1463 H   0  0  0  0  0  0  0  0  0  0  0  0
    6.6335    1.9187   -0.6633 H   0  0  0  0  0  0  0  0  0  0  0  0
    8.1411   -0.2928   -0.1940 H   0  0  0  0  0  0  0  0  0  0  0  0
    0.1914    0.4021   -0.3132 H   0  0  0  0  0  0  0  0  0  0  0  0
    1.1002    0.5455    1.2077 H   0  0  0  0  0  0  0  0  0  0  0  0
   -0.8070   -0.6384    1.8650 H   0  0  0  0  0  0  0  0  0  0  0  0
    0.5109   -1.8335    1.7735 H   0  0  0  0  0  0  0  0  0  0  0  0
   -1.9080   -3.8790   -0.0921 H   0  0  0  0  0  0  0  0  0  0  0  0
   -0.1716   -3.8163   -0.4170 H   0  0  0  0  0  0  0  0  0  0  0  0
   -2.5569   -3.5762    2.5163 H   0  0  0  0  0  0  0  0  0  0  0  0
   -2.0748   -0.2102   -0.2641 H   0  0  0  0  0  0  0  0  0  0  0  0
   -3.6899   -2.6218    0.7339 H   0  0  0  0  0  0  0  0  0  0  0  0
   -3.0244   -1.3839    1.8237 H   0  0  0  0  0  0  0  0  0  0  0  0
   -4.7575    0.1396    2.2905 H   0  0  0  0  0  0  0  0  0  0  0  0
   -3.5979    0.9586    1.1747 H   0  0  0  0  0  0  0  0  0  0  0  0
   -7.2205   -0.1778    1.2323 H   0  0  0  0  0  0  0  0  0  0  0  0
   -9.0822    1.2331    0.4214 H   0  0  0  0  0  0  0  0  0  0  0  0
   -8.6235    3.4753   -0.5327 H   0  0  0  0  0  0  0  0  0  0  0  0
   -6.2945    4.3095   -0.6764 H   0  0  0  0  0  0  0  0  0  0  0  0
   -4.4225    2.9175    0.1249 H   0  0  0  0  0  0  0  0  0  0  0  0
   -1.9531   -1.6120   -3.6336 H   0  0  0  0  0  0  0  0  0  0  0  0
  1  2  1  0
  2  3  2  0
  2  4  1  0
  4  5  1  0
  5  6  1  0
  6  7  1  0
  7  8  1  0
  8  9  1  0
  9 10  1  0
 10 11  2  0
 10 12  1  0
  8 13  1  0
 13 14  1  0
 14 15  2  0
 14 16  1  0
  5 17  1  0
 17 18  1  0
 18 19  1  0
 19 20  1  0
 20 21  1  0
 21 22  2  0
 21 23  1  0
 19 24  1  0
 24 25  1  0
 25 26  1  0
 26 27  1  0
 27 28  1  0
 28 29  2  0
 29 30  1  0
 30 31  2  0
 31 32  1  0
 32 33  2  0
 33 28  1  0
 24 34  1  0
 34 35  2  0
 34 36  1  0
  1 37  1  0
  4 38  1  0
  4 39  1  0
  6 40  1  0
  6 41  1  0
  7 42  1  0
  7 43  1  0
  9 44  1  0
  9 45  1  0
 12 46  1  0
 13 47  1  0
 13 48  1  0
 16 49  1  0
 17 50  1  0
 17 51  1  0
 18 52  1  0
 18 53  1  0
 20 54  1  0
 20 55  1  0
 23 56  1  0
 24 57  1  0
 25 58  1  0
 25 59  1  0
 27 60  1  0
 27 61  1  0
 29 62  1  0
 30 63  1  0
 31 64  1  0
 32 65  1  0
 33 66  1  0
 36 67  1  0
M  END
> <ID>
HT0950

> <Class>
0.0

> <Clusters>
114

> <Fold>
5

$$$$