
     RDKit          3D

 50 49  0  0  0  0  0  0  0  0999 V2000
    0.9376   -3.9210    0.5633 O   0  0  0  0  0  0  0  0  0  0  0  0
    0.4291   -3.5046   -0.6628 C   0  0  0  0  0  0  0  0  0  0  0  0
    0.7728   -4.0958   -1.7210 O   0  0  0  0  0  0  0  0  0  0  0  0
   -0.5052   -2.3384   -0.7281 C   0  0  0  0  0  0  0  0  0  0  0  0
    0.1748   -1.1802   -1.3448 N   0  0  0  0  0  0  0  0  0  0  0  0
    1.0281   -0.4631   -0.3678 C   0  0  0  0  0  0  0  0  0  0  0  0
    1.9617    0.5551   -1.0658 C   0  0  0  0  0  0  0  0  0  0  0  0
    3.0619    1.0707   -0.2123 N   0  0  0  0  0  0  0  0  0  0  0  0
    2.5916    1.9225    0.9052 C   0  0  0  0  0  0  0  0  0  0  0  0
    2.2153    3.2976    0.4355 C   0  0  0  0  0  0  0  0  0  0  0  0
    2.4631    3.6723   -0.7428 O   0  0  0  0  0  0  0  0  0  0  0  0
    1.6069    4.1768    1.3252 O   0  0  0  0  0  0  0  0  0  0  0  0
    3.9833    0.0072    0.2444 C   0  0  0  0  0  0  0  0  0  0  0  0
    5.3868    0.5263    0.3860 C   0  0  0  0  0  0  0  0  0  0  0  0
    5.6720    1.7120    0.0692 O   0  0  0  0  0  0  0  0  0  0  0  0
    6.3920   -0.3110    0.8600 O   0  0  0  0  0  0  0  0  0  0  0  0
   -0.7498   -0.3174   -2.1269 C   0  0  0  0  0  0  0  0  0  0  0  0
   -1.6661    0.6042   -1.2929 C   0  0  0  0  0  0  0  0  0  0  0  0
   -2.5687   -0.1748   -0.4164 N   0  0  0  0  0  0  0  0  0  0  0  0
   -3.8328   -0.5665   -1.0822 C   0  0  0  0  0  0  0  0  0  0  0  0
   -4.3474   -1.8803   -0.5618 C   0  0  0  0  0  0  0  0  0  0  0  0
   -3.7010   -2.5353    0.2984 O   0  0  0  0  0  0  0  0  0  0  0  0
   -5.5494   -2.3917   -1.0406 O   0  0  0  0  0  0  0  0  0  0  0  0
   -2.7791    0.4510    0.9123 C   0  0  0  0  0  0  0  0  0  0  0  0
   -3.3727    1.8429    0.8858 C   0  0  0  0  0  0  0  0  0  0  0  0
   -3.6698    2.4153   -0.1958 O   0  0  0  0  0  0  0  0  0  0  0  0
   -3.5973    2.5130    2.0841 O   0  0  0  0  0  0  0  0  0  0  0  0
    1.5786   -4.7029    0.6208 H   0  0  0  0  0  0  0  0  0  0  0  0
   -0.8674   -2.0929    0.2951 H   0  0  0  0  0  0  0  0  0  0  0  0
   -1.3864   -2.6575   -1.3267 H   0  0  0  0  0  0  0  0  0  0  0  0
    0.4040    0.0285    0.4038 H   0  0  0  0  0  0  0  0  0  0  0  0
    1.6552   -1.2057    0.1666 H   0  0  0  0  0  0  0  0  0  0  0  0
    1.3582    1.4096   -1.4354 H   0  0  0  0  0  0  0  0  0  0  0  0
    2.4035    0.0785   -1.9685 H   0  0  0  0  0  0  0  0  0  0  0  0
    3.3957    2.0544    1.6619 H   0  0  0  0  0  0  0  0  0  0  0  0
    1.7330    1.4639    1.4351 H   0  0  0  0  0  0  0  0  0  0  0  0
    1.3500    5.1131    1.0366 H   0  0  0  0  0  0  0  0  0  0  0  0
    4.0210   -0.8283   -0.4893 H   0  0  0  0  0  0  0  0  0  0  0  0
    3.6504   -0.4129    1.2197 H   0  0  0  0  0  0  0  0  0  0  0  0
    6.1937   -1.2693    1.1212 H   0  0  0  0  0  0  0  0  0  0  0  0
   -0.1539    0.3160   -2.8169 H   0  0  0  0  0  0  0  0  0  0  0  0
   -1.3727   -0.9435   -2.8018 H   0  0  0  0  0  0  0  0  0  0  0  0
   -2.2537    1.2350   -1.9970 H   0  0  0  0  0  0  0  0  0  0  0  0
   -1.0423    1.3168   -0.7120 H   0  0  0  0  0  0  0  0  0  0  0  0
   -4.6192    0.2050   -0.9458 H   0  0  0  0  0  0  0  0  0  0  0  0
   -3.6812   -0.6910   -2.1763 H   0  0  0  0  0  0  0  0  0  0  0  0
   -6.0910   -1.8905   -1.7346 H   0  0  0  0  0  0  0  0  0  0  0  0
   -3.4376   -0.1949    1.5309 H   0  0  0  0  0  0  0  0  0  0  0  0
   -1.8060    0.4974    1.4459 H   0  0  0  0  0  0  0  0  0  0  0  0
   -3.3697    2.0845    2.9734 H   0  0  0  0  0  0  0  0  0  0  0  0
  1  2  1  0
  2  3  2  0
  2  4  1  0
  4  5  1  0
  5  6  1  0
  6  7  1  0
  7  8  1  0
  8  9  1  0
  9 10  1  0
 10 11  2  0
 10 12  1  0
  8 13  1  0
 13 14  1  0
 14 15  2  0
 14 16  1  0
  5 17  1  0
 17 18  1  0
 18 19  1  0
 19 20  1  0
 20 21  1  0
 21 22  2  0
 21 23  1  0
 19 24  1  0
 24 25  1  0
 25 26  2  0
 25 27  1  0
  1 28  1  0
  4 29  1  0
  4 30  1  0
  6 31  1  0
  6 32  1  0
  7 33  1  0
  7 34  1  0
  9 35  1  0
  9 36  1  0
 12 37  1  0
 13 38  1  0
 13 39  1  0
 16 40  1  0
 17 41  1  0
 17 42  1  0
 18 43  1  0
 18 44  1  0
 20 45  1  0
 20 46  1  0
 23 47  1  0
 24 48  1  0
 24 49  1  0
 27 50  1  0
M  END
> <ID>
HT0955

> <Class>
0.0

> <Clusters>
114

> <Fold>
5

$$$$