
     RDKit          3D

 54 57  0  0  0  0  0  0  0  0999 V2000
    1.9331    0.2914    1.7450 C   0  0  0  0  0  0  0  0  0  0  0  0
    1.6031    0.5774    0.2381 C   0  0  2  0  0  0  0  0  0  0  0  0
    0.7395    1.8639    0.1002 C   0  0  0  0  0  0  0  0  0  0  0  0
   -0.7263    1.6929    0.5913 C   0  0  2  0  0  0  0  0  0  0  0  0
   -0.8024    1.8521    1.9853 O   0  0  0  0  0  0  0  0  0  0  0  0
   -1.4297    0.3909    0.0438 C   0  0  1  0  0  0  0  0  0  0  0  0
   -0.5305   -0.8901    0.1688 C   0  0  1  0  0  0  0  0  0  0  0  0
   -1.1742   -2.0820   -0.5766 C   0  0  0  0  0  0  0  0  0  0  0  0
   -2.5927   -2.3624   -0.0851 C   0  0  2  0  0  0  0  0  0  0  0  0
   -3.1148   -3.4245   -0.8074 F   0  0  0  0  0  0  0  0  0  0  0  0
   -3.4285   -1.1070   -0.2191 C   0  0  0  0  0  0  0  0  0  0  0  0
   -4.5542   -1.1115   -0.9561 C   0  0  0  0  0  0  0  0  0  0  0  0
   -5.3341    0.1099   -1.1490 C   0  0  0  0  0  0  0  0  0  0  0  0
   -6.3973    0.0829   -1.8224 O   0  0  0  0  0  0  0  0  0  0  0  0
   -4.8668    1.3633   -0.5660 C   0  0  0  0  0  0  0  0  0  0  0  0
   -3.7567    1.3948    0.1707 C   0  0  0  0  0  0  0  0  0  0  0  0
   -2.9242    0.1554    0.5029 C   0  0  2  0  0  0  0  0  0  0  0  0
   -3.0811   -0.0859    2.0233 C   0  0  0  0  0  0  0  0  0  0  0  0
    0.8536   -0.5729   -0.4498 C   0  0  2  0  0  0  0  0  0  0  0  0
    1.8853   -1.6866   -0.5656 C   0  0  0  0  0  0  0  0  0  0  0  0
    3.2246   -0.9507   -0.7582 C   0  0  0  0  0  0  0  0  0  0  0  0
    2.9362    0.5774   -0.5826 C   0  0  1  0  0  0  0  0  0  0  0  0
    2.7057    1.1383   -1.8572 O   0  0  0  0  0  0  0  0  0  0  0  0
    4.0503    1.3883    0.0922 C   0  0  0  0  0  0  0  0  0  0  0  0
    3.8716    2.5852    0.2690 O   0  0  0  0  0  0  0  0  0  0  0  0
    5.3771    0.8006    0.4972 C   0  0  0  0  0  0  0  0  0  0  0  0
    6.0445    0.3181   -0.6385 O   0  0  0  0  0  0  0  0  0  0  0  0
    1.1105   -0.1638    2.3134 H   0  0  0  0  0  0  0  0  0  0  0  0
    2.2283    1.2290    2.2624 H   0  0  0  0  0  0  0  0  0  0  0  0
    2.7766   -0.4197    1.8572 H   0  0  0  0  0  0  0  0  0  0  0  0
    0.6912    2.1699   -0.9675 H   0  0  0  0  0  0  0  0  0  0  0  0
    1.2157    2.7082    0.6438 H   0  0  0  0  0  0  0  0  0  0  0  0
   -1.2691    2.5595    0.1585 H   0  0  0  0  0  0  0  0  0  0  0  0
   -0.6669    0.9725    2.4098 H   0  0  0  0  0  0  0  0  0  0  0  0
   -1.5101    0.5788   -1.0540 H   0  0  0  0  0  0  0  0  0  0  0  0
   -0.4221   -1.1883    1.2281 H   0  0  0  0  0  0  0  0  0  0  0  0
   -1.2028   -1.8790   -1.6708 H   0  0  0  0  0  0  0  0  0  0  0  0
   -0.5632   -2.9967   -0.4158 H   0  0  0  0  0  0  0  0  0  0  0  0
   -2.5587   -2.6712    0.9809 H   0  0  0  0  0  0  0  0  0  0  0  0
   -4.9000   -2.0132   -1.4447 H   0  0  0  0  0  0  0  0  0  0  0  0
   -5.4318    2.2731   -0.7261 H   0  0  0  0  0  0  0  0  0  0  0  0
   -3.4839    2.3426    0.6167 H   0  0  0  0  0  0  0  0  0  0  0  0
   -2.9849    0.8542    2.6048 H   0  0  0  0  0  0  0  0  0  0  0  0
   -4.0956   -0.4845    2.2431 H   0  0  0  0  0  0  0  0  0  0  0  0
   -2.3427   -0.8159    2.4100 H   0  0  0  0  0  0  0  0  0  0  0  0
    0.6422   -0.2655   -1.5041 H   0  0  0  0  0  0  0  0  0  0  0  0
    1.9027   -2.2952    0.3655 H   0  0  0  0  0  0  0  0  0  0  0  0
    1.6670   -2.3482   -1.4319 H   0  0  0  0  0  0  0  0  0  0  0  0
    3.6452   -1.1696   -1.7634 H   0  0  0  0  0  0  0  0  0  0  0  0
    3.9365   -1.3447   -0.0069 H   0  0  0  0  0  0  0  0  0  0  0  0
    3.5534    1.0828   -2.3732 H   0  0  0  0  0  0  0  0  0  0  0  0
    6.0095    1.5839    0.9684 H   0  0  0  0  0  0  0  0  0  0  0  0
    5.2194    0.0092    1.2658 H   0  0  0  0  0  0  0  0  0  0  0  0
    6.3224   -0.6174   -0.4420 H   0  0  0  0  0  0  0  0  0  0  0  0
  2  1  1  1
  2  3  1  0
  3  4  1  0
  4  5  1  0
  4  6  1  0
  6  7  1  0
  7  8  1  0
  8  9  1  0
  9 10  1  0
  9 11  1  0
 11 12  2  0
 12 13  1  0
 13 14  2  0
 13 15  1  0
 15 16  2  0
 16 17  1  0
 17  6  1  0
 17 11  1  0
 17 18  1  1
  7 19  1  0
 19  2  1  0
 19 20  1  0
 20 21  1  0
 21 22  1  0
 22  2  1  0
 22 23  1  6
 22 24  1  0
 24 25  2  0
 24 26  1  0
 26 27  1  0
  1 28  1  0
  1 29  1  0
  1 30  1  0
  3 31  1  0
  3 32  1  0
  4 33  1  6
  5 34  1  0
  6 35  1  6
  7 36  1  1
  8 37  1  0
  8 38  1  0
  9 39  1  1
 12 40  1  0
 15 41  1  0
 16 42  1  0
 18 43  1  0
 18 44  1  0
 18 45  1  0
 19 46  1  6
 20 47  1  0
 20 48  1  0
 21 49  1  0
 21 50  1  0
 23 51  1  0
 26 52  1  0
 26 53  1  0
 27 54  1  0
M  END
> <ID>
HT0916

> <Class>
0.0

> <Clusters>
189

> <Fold>
5

$$$$