
     RDKit          3D

 54 59  0  0  0  0  0  0  0  0999 V2000
    5.5134   -0.1235   -0.1927 C   0  0  0  0  0  0  0  0  0  0  0  0
    4.1574    0.4328    0.2663 C   0  0  0  0  0  0  0  0  0  0  0  0
    4.0246    0.2545    1.7340 C   0  0  0  0  0  0  0  0  0  0  0  0
    4.6480    0.9302    2.5941 O   0  0  0  0  0  0  0  0  0  0  0  0
    3.1353   -0.7442    2.0652 O   0  0  0  0  0  0  0  0  0  0  0  0
    2.6604   -1.3865    0.8935 C   0  0  0  0  0  0  0  0  0  0  0  0
    1.1634   -1.6061    0.9361 C   0  0  0  0  0  0  0  0  0  0  0  0
    0.5112   -0.2997    0.4268 C   0  0  0  0  0  0  0  0  0  0  0  0
    0.1675    0.6781    1.5861 C   0  0  0  0  0  0  0  0  0  0  0  0
    0.8540    1.8832    1.2976 O   0  0  0  0  0  0  0  0  0  0  0  0
    1.5836    1.7796    0.1389 C   0  0  0  0  0  0  0  0  0  0  0  0
    2.1036    2.7802   -0.4223 O   0  0  0  0  0  0  0  0  0  0  0  0
    1.5832    0.3999   -0.4279 C   0  0  0  0  0  0  0  0  0  0  0  0
    1.1723    0.4422   -1.7770 O   0  0  0  0  0  0  0  0  0  0  0  0
   -0.1060   -0.1465   -1.8837 C   0  0  0  0  0  0  0  0  0  0  0  0
    0.0068   -1.4384   -2.4640 O   0  0  0  0  0  0  0  0  0  0  0  0
   -0.6882   -2.3770   -1.7316 C   0  0  0  0  0  0  0  0  0  0  0  0
   -0.7261   -3.5973   -2.0385 O   0  0  0  0  0  0  0  0  0  0  0  0
   -1.4456   -1.7639   -0.6179 C   0  0  0  0  0  0  0  0  0  0  0  0
   -1.4150   -2.5223    0.5629 O   0  0  0  0  0  0  0  0  0  0  0  0
   -0.7433   -0.3733   -0.4920 C   0  0  0  0  0  0  0  0  0  0  0  0
   -1.6489    0.8170    0.0032 C   0  0  0  0  0  0  0  0  0  0  0  0
   -1.3341    0.9203    1.5064 C   0  0  0  0  0  0  0  0  0  0  0  0
   -1.9992   -0.0805    2.2321 O   0  0  0  0  0  0  0  0  0  0  0  0
   -3.1818    0.9919   -0.3874 C   0  0  0  0  0  0  0  0  0  0  0  0
   -4.1554    0.0552    0.3808 C   0  0  0  0  0  0  0  0  0  0  0  0
   -3.6171    2.4444   -0.0493 C   0  0  0  0  0  0  0  0  0  0  0  0
   -3.3893    0.8393   -1.9152 C   0  0  0  0  0  0  0  0  0  0  0  0
    2.9344   -0.3963   -0.2543 C   0  0  0  0  0  0  0  0  0  0  0  0
    3.2679   -1.0792   -1.4442 O   0  0  0  0  0  0  0  0  0  0  0  0
    6.3403    0.4286    0.3035 H   0  0  0  0  0  0  0  0  0  0  0  0
    5.6261    0.0079   -1.2896 H   0  0  0  0  0  0  0  0  0  0  0  0
    5.6057   -1.2036    0.0539 H   0  0  0  0  0  0  0  0  0  0  0  0
    4.1203    1.5019   -0.0142 H   0  0  0  0  0  0  0  0  0  0  0  0
    3.2112   -2.3445    0.7551 H   0  0  0  0  0  0  0  0  0  0  0  0
    0.9740   -2.4557    0.2536 H   0  0  0  0  0  0  0  0  0  0  0  0
    0.8215   -1.8938    1.9539 H   0  0  0  0  0  0  0  0  0  0  0  0
    0.4765    0.3139    2.5906 H   0  0  0  0  0  0  0  0  0  0  0  0
   -0.7353    0.4843   -2.5408 H   0  0  0  0  0  0  0  0  0  0  0  0
   -2.4780   -1.6904   -0.9882 H   0  0  0  0  0  0  0  0  0  0  0  0
   -2.0094   -3.3043    0.4187 H   0  0  0  0  0  0  0  0  0  0  0  0
   -1.1708    1.7217   -0.4422 H   0  0  0  0  0  0  0  0  0  0  0  0
   -1.5854    1.9285    1.9079 H   0  0  0  0  0  0  0  0  0  0  0  0
   -1.9571    0.1839    3.1881 H   0  0  0  0  0  0  0  0  0  0  0  0
   -5.1534    0.0402   -0.1077 H   0  0  0  0  0  0  0  0  0  0  0  0
   -3.8079   -0.9857    0.4679 H   0  0  0  0  0  0  0  0  0  0  0  0
   -4.3198    0.4156    1.4187 H   0  0  0  0  0  0  0  0  0  0  0  0
   -2.9763    3.1888   -0.5698 H   0  0  0  0  0  0  0  0  0  0  0  0
   -3.5631    2.6452    1.0407 H   0  0  0  0  0  0  0  0  0  0  0  0
   -4.6689    2.6250   -0.3625 H   0  0  0  0  0  0  0  0  0  0  0  0
   -3.1233   -0.1600   -2.2987 H   0  0  0  0  0  0  0  0  0  0  0  0
   -2.7826    1.5896   -2.4659 H   0  0  0  0  0  0  0  0  0  0  0  0
   -4.4528    1.0152   -2.1871 H   0  0  0  0  0  0  0  0  0  0  0  0
    2.5715   -1.7665   -1.6119 H   0  0  0  0  0  0  0  0  0  0  0  0
  1  2  1  0
  2  3  1  0
  3  4  2  0
  3  5  1  0
  5  6  1  0
  6  7  1  0
  7  8  1  0
  8  9  1  0
  9 10  1  0
 10 11  1  0
 11 12  2  0
 11 13  1  0
 13  8  1  0
 13 14  1  0
 14 15  1  0
 15 16  1  0
 16 17  1  0
 17 18  2  0
 17 19  1  0
 19 20  1  0
 19 21  1  0
 21  8  1  0
 21 15  1  0
 21 22  1  0
 22 23  1  0
 23  9  1  0
 23 24  1  0
 22 25  1  0
 25 26  1  0
 25 27  1  0
 25 28  1  0
 13 29  1  0
 29  2  1  0
 29  6  1  0
 29 30  1  0
  1 31  1  0
  1 32  1  0
  1 33  1  0
  2 34  1  0
  6 35  1  0
  7 36  1  0
  7 37  1  0
  9 38  1  0
 15 39  1  0
 19 40  1  0
 20 41  1  0
 22 42  1  0
 23 43  1  0
 24 44  1  0
 26 45  1  0
 26 46  1  0
 26 47  1  0
 27 48  1  0
 27 49  1  0
 27 50  1  0
 28 51  1  0
 28 52  1  0
 28 53  1  0
 30 54  1  0
M  END
> <ID>
HT0978

> <Class>
0.0

> <Clusters>
119

> <Fold>
5

$$$$