
     RDKit          3D

 24 24  0  0  0  0  0  0  0  0999 V2000
    4.0483    0.5034   -0.5446 N   0  0  0  0  0  0  0  0  0  0  0  0
    3.0709    0.1203   -1.5154 C   0  0  0  0  0  0  0  0  0  0  0  0
    3.3061    0.3443   -2.7688 N   0  0  0  0  0  0  0  0  0  0  0  0
    1.8694   -0.5653   -1.1254 N   0  0  0  0  0  0  0  0  0  0  0  0
    1.2134   -0.3695    0.1371 C   0  0  0  0  0  0  0  0  0  0  0  0
    1.5701    0.5639    0.9061 O   0  0  0  0  0  0  0  0  0  0  0  0
    0.0649   -1.2492    0.5374 C   0  0  0  0  0  0  0  0  0  0  0  0
   -1.2251   -0.4565    0.5836 C   0  0  0  0  0  0  0  0  0  0  0  0
   -1.9990   -0.2738   -0.5884 C   0  0  0  0  0  0  0  0  0  0  0  0
   -1.5215   -0.9515   -2.1424 Cl  0  0  0  0  0  0  0  0  0  0  0  0
   -3.1850    0.4669   -0.5392 C   0  0  0  0  0  0  0  0  0  0  0  0
   -3.6127    1.0364    0.6586 C   0  0  0  0  0  0  0  0  0  0  0  0
   -2.8562    0.8745    1.8178 C   0  0  0  0  0  0  0  0  0  0  0  0
   -1.6669    0.1378    1.7917 C   0  0  0  0  0  0  0  0  0  0  0  0
   -0.7565    0.0033    3.2945 Cl  0  0  0  0  0  0  0  0  0  0  0  0
    4.8926    1.0454   -0.8346 H   0  0  0  0  0  0  0  0  0  0  0  0
    3.9910    0.1696    0.4422 H   0  0  0  0  0  0  0  0  0  0  0  0
    2.6294    0.0620   -3.5127 H   0  0  0  0  0  0  0  0  0  0  0  0
    1.4118   -1.1878   -1.8286 H   0  0  0  0  0  0  0  0  0  0  0  0
   -0.0313   -2.1082   -0.1593 H   0  0  0  0  0  0  0  0  0  0  0  0
    0.2903   -1.7070    1.5223 H   0  0  0  0  0  0  0  0  0  0  0  0
   -3.7781    0.6042   -1.4346 H   0  0  0  0  0  0  0  0  0  0  0  0
   -4.5309    1.6088    0.6877 H   0  0  0  0  0  0  0  0  0  0  0  0
   -3.1949    1.3281    2.7409 H   0  0  0  0  0  0  0  0  0  0  0  0
  1  2  1  0
  2  3  2  3
  2  4  1  0
  4  5  1  0
  5  6  2  0
  5  7  1  0
  7  8  1  0
  8  9  2  0
  9 10  1  0
  9 11  1  0
 11 12  2  0
 12 13  1  0
 13 14  2  0
 14  8  1  0
 14 15  1  0
  1 16  1  0
  1 17  1  0
  3 18  1  0
  4 19  1  0
  7 20  1  0
  7 21  1  0
 11 22  1  0
 12 23  1  0
 13 24  1  0
M  END
> <ID>
HT1010

> <Class>
0.0

> <Clusters>
75

> <Fold>
5

$$$$