
     RDKit          3D

 50 53  0  0  0  0  0  0  0  0999 V2000
   -4.2980   -1.3752    1.8143 C   0  0  0  0  0  0  0  0  0  0  0  0
   -3.4182   -0.2254    1.2826 C   0  0  0  0  0  0  0  0  0  0  0  0
   -3.6842    1.0449    2.1037 C   0  0  0  0  0  0  0  0  0  0  0  0
   -1.6509   -0.7301    1.5223 S   0  0  0  0  0  0  0  0  0  0  0  0
   -1.5612   -1.4107   -0.1723 C   0  0  2  0  0  0  0  0  0  0  0  0
   -0.4825   -1.0071   -1.0573 C   0  0  2  0  0  0  0  0  0  0  0  0
    0.5429   -0.1673   -0.3999 N   0  0  0  0  0  0  0  0  0  0  0  0
    1.4584   -0.7089    0.5279 C   0  0  0  0  0  0  0  0  0  0  0  0
    1.4453   -1.9145    0.8977 O   0  0  0  0  0  0  0  0  0  0  0  0
    2.3930    0.3035    1.0354 C   0  0  2  0  0  0  0  0  0  0  0  0
    2.1369    1.4939    0.2142 N   0  0  0  0  0  0  0  0  0  0  0  0
    0.9337    1.2363   -0.6254 C   0  0  0  0  0  0  0  0  0  0  0  0
   -0.2087    2.1926   -0.2199 C   0  0  0  0  0  0  0  0  0  0  0  0
    1.3427    1.4695   -2.0888 C   0  0  0  0  0  0  0  0  0  0  0  0
    3.8325   -0.1345    0.8962 C   0  0  0  0  0  0  0  0  0  0  0  0
    4.3708   -0.4636   -0.3626 C   0  0  0  0  0  0  0  0  0  0  0  0
    5.7025   -0.8736   -0.4761 C   0  0  0  0  0  0  0  0  0  0  0  0
    6.5080   -0.9608    0.6617 C   0  0  0  0  0  0  0  0  0  0  0  0
    5.9839   -0.6362    1.9155 C   0  0  0  0  0  0  0  0  0  0  0  0
    4.6535   -0.2231    2.0344 C   0  0  0  0  0  0  0  0  0  0  0  0
   -1.5189   -0.2930   -1.8787 C   0  0  0  0  0  0  0  0  0  0  0  0
   -1.5369    0.3300   -2.9713 O   0  0  0  0  0  0  0  0  0  0  0  0
   -2.5497   -0.6672   -0.8863 N   0  0  0  0  0  0  0  0  0  0  0  0
   -3.6184    0.0523   -0.2424 C   0  0  1  0  0  0  0  0  0  0  0  0
   -4.9504   -0.3628   -0.8040 C   0  0  0  0  0  0  0  0  0  0  0  0
   -5.9139    0.4500   -0.7980 O   0  0  0  0  0  0  0  0  0  0  0  0
   -5.1285   -1.6456   -1.3171 O   0  0  0  0  0  0  0  0  0  0  0  0
   -5.3745   -1.1044    1.7727 H   0  0  0  0  0  0  0  0  0  0  0  0
   -4.0427   -1.6000    2.8718 H   0  0  0  0  0  0  0  0  0  0  0  0
   -4.1357   -2.2980    1.2175 H   0  0  0  0  0  0  0  0  0  0  0  0
   -2.9978    1.8604    1.7905 H   0  0  0  0  0  0  0  0  0  0  0  0
   -3.5194    0.8520    3.1856 H   0  0  0  0  0  0  0  0  0  0  0  0
   -4.7305    1.3875    1.9578 H   0  0  0  0  0  0  0  0  0  0  0  0
   -1.7834   -2.5003   -0.2068 H   0  0  0  0  0  0  0  0  0  0  0  0
   -0.0310   -1.8567   -1.6138 H   0  0  0  0  0  0  0  0  0  0  0  0
    2.1355    0.5102    2.0996 H   0  0  0  0  0  0  0  0  0  0  0  0
    2.0195    2.3259    0.8401 H   0  0  0  0  0  0  0  0  0  0  0  0
   -1.0982    2.0724   -0.8660 H   0  0  0  0  0  0  0  0  0  0  0  0
    0.1264    3.2484   -0.3073 H   0  0  0  0  0  0  0  0  0  0  0  0
   -0.5066    2.0061    0.8332 H   0  0  0  0  0  0  0  0  0  0  0  0
    1.9500    2.3972   -2.1710 H   0  0  0  0  0  0  0  0  0  0  0  0
    1.9501    0.6201   -2.4644 H   0  0  0  0  0  0  0  0  0  0  0  0
    0.4687    1.6027   -2.7500 H   0  0  0  0  0  0  0  0  0  0  0  0
    3.7598   -0.4074   -1.2529 H   0  0  0  0  0  0  0  0  0  0  0  0
    6.1100   -1.1245   -1.4466 H   0  0  0  0  0  0  0  0  0  0  0  0
    7.5388   -1.2801    0.5724 H   0  0  0  0  0  0  0  0  0  0  0  0
    6.6086   -0.7050    2.7963 H   0  0  0  0  0  0  0  0  0  0  0  0
    4.2631    0.0216    3.0146 H   0  0  0  0  0  0  0  0  0  0  0  0
   -3.4712    1.1336   -0.4614 H   0  0  0  0  0  0  0  0  0  0  0  0
   -6.0233   -1.9353   -1.6926 H   0  0  0  0  0  0  0  0  0  0  0  0
  1  2  1  0
  2  3  1  0
  2  4  1  0
  5  4  1  0
  5  6  1  0
  6  7  1  0
  7  8  1  0
  8  9  2  0
  8 10  1  0
 10 11  1  0
 11 12  1  0
 12  7  1  0
 12 13  1  0
 12 14  1  0
 10 15  1  0
 15 16  2  0
 16 17  1  0
 17 18  2  0
 18 19  1  0
 19 20  2  0
 20 15  1  0
  6 21  1  0
 21 22  2  0
 21 23  1  0
 23  5  1  0
 23 24  1  0
 24  2  1  0
 24 25  1  0
 25 26  2  0
 25 27  1  0
  1 28  1  0
  1 29  1  0
  1 30  1  0
  3 31  1  0
  3 32  1  0
  3 33  1  0
  5 34  1  1
  6 35  1  6
 10 36  1  1
 11 37  1  0
 13 38  1  0
 13 39  1  0
 13 40  1  0
 14 41  1  0
 14 42  1  0
 14 43  1  0
 16 44  1  0
 17 45  1  0
 18 46  1  0
 19 47  1  0
 20 48  1  0
 24 49  1  1
 27 50  1  0
M  END
> <ID>
HT1027

> <Class>
0.0

> <Clusters>
18

> <Fold>
5

$$$$