
     RDKit          3D

 10  9  0  0  0  0  0  0  0  0999 V2000
   -1.9914   -0.4676    0.4491 O   0  0  0  0  0  0  0  0  0  0  0  0
   -1.2250    0.0874   -0.5697 C   0  0  0  0  0  0  0  0  0  0  0  0
   -1.7917    0.5705   -1.5838 O   0  0  0  0  0  0  0  0  0  0  0  0
    0.5578    0.1615   -0.4248 P   0  0  0  0  0  0  0  0  0  0  0  0
    1.1673    0.4233   -1.7834 O   0  0  0  0  0  0  0  0  0  0  0  0
    0.9850    1.4118    0.6321 O   0  0  0  0  0  0  0  0  0  0  0  0
    1.1344   -1.3116    0.1759 O   0  0  0  0  0  0  0  0  0  0  0  0
   -1.5566   -0.8471    1.2813 H   0  0  0  0  0  0  0  0  0  0  0  0
    0.6161    1.1376    1.5094 H   0  0  0  0  0  0  0  0  0  0  0  0
    2.1042   -1.1659    0.3139 H   0  0  0  0  0  0  0  0  0  0  0  0
  1  2  1  0
  2  3  2  0
  2  4  1  0
  4  5  2  0
  4  6  1  0
  4  7  1  0
  1  8  1  0
  6  9  1  0
  7 10  1  0
M  END
> <ID>
HT0936

> <Class>
0.0

> <Clusters>
243

> <Fold>
5

$$$$