
     RDKit          3D

 51 55  0  0  0  0  0  0  0  0999 V2000
    6.0487   -2.0566   -1.4543 C   0  0  0  0  0  0  0  0  0  0  0  0
    5.4739   -1.4912   -0.1478 C   0  0  1  0  0  0  0  0  0  0  0  0
    6.1851   -0.2656    0.2896 N   0  0  0  0  0  0  0  0  0  0  0  0
    5.2026    0.8356    0.3185 C   0  0  0  0  0  0  0  0  0  0  0  0
    3.9061    0.2341   -0.0518 C   0  0  0  0  0  0  0  0  0  0  0  0
    2.6603    0.8587   -0.1265 C   0  0  0  0  0  0  0  0  0  0  0  0
    1.5313    0.0858   -0.4735 C   0  0  0  0  0  0  0  0  0  0  0  0
    1.6943   -1.2944   -0.7417 C   0  0  0  0  0  0  0  0  0  0  0  0
    2.9616   -1.8909   -0.6563 C   0  0  0  0  0  0  0  0  0  0  0  0
    4.0550   -1.0921   -0.3147 C   0  0  0  0  0  0  0  0  0  0  0  0
    0.1903    0.7149   -0.5577 C   0  0  0  0  0  0  0  0  0  0  0  0
    0.0387    1.9104   -1.2666 C   0  0  0  0  0  0  0  0  0  0  0  0
   -1.2012    2.5318   -1.3482 C   0  0  0  0  0  0  0  0  0  0  0  0
   -2.3380    1.9442   -0.7670 C   0  0  0  0  0  0  0  0  0  0  0  0
   -3.5855    2.5906   -0.8313 C   0  0  0  0  0  0  0  0  0  0  0  0
   -3.7015    3.6858   -1.4489 O   0  0  0  0  0  0  0  0  0  0  0  0
   -4.7044    2.0099   -0.2193 C   0  0  0  0  0  0  0  0  0  0  0  0
   -4.5735    0.7407    0.3523 C   0  0  0  0  0  0  0  0  0  0  0  0
   -3.3826    0.0671    0.3435 N   0  0  0  0  0  0  0  0  0  0  0  0
   -3.4022   -1.3207    0.8440 C   0  0  0  0  0  0  0  0  0  0  0  0
   -4.4402   -2.2210    0.1726 C   0  0  0  0  0  0  0  0  0  0  0  0
   -2.9756   -2.3722   -0.1774 C   0  0  0  0  0  0  0  0  0  0  0  0
   -2.2305    0.6906   -0.1042 C   0  0  0  0  0  0  0  0  0  0  0  0
   -0.9290    0.1342    0.0770 C   0  0  0  0  0  0  0  0  0  0  0  0
   -0.7210   -0.9538    0.9295 O   0  0  0  0  0  0  0  0  0  0  0  0
   -0.4321   -0.7730    2.3116 C   0  0  0  0  0  0  0  0  0  0  0  0
    0.7928   -0.1507    2.4660 F   0  0  0  0  0  0  0  0  0  0  0  0
   -0.3941   -2.0066    2.9319 F   0  0  0  0  0  0  0  0  0  0  0  0
   -6.0278    2.6800   -0.2064 C   0  0  0  0  0  0  0  0  0  0  0  0
   -7.0783    1.9911   -0.3004 O   0  0  0  0  0  0  0  0  0  0  0  0
   -6.1433    4.0613   -0.0605 O   0  0  0  0  0  0  0  0  0  0  0  0
    5.9596   -1.3124   -2.2751 H   0  0  0  0  0  0  0  0  0  0  0  0
    7.1202   -2.3125   -1.3141 H   0  0  0  0  0  0  0  0  0  0  0  0
    5.5064   -2.9813   -1.7447 H   0  0  0  0  0  0  0  0  0  0  0  0
    5.5483   -2.2593    0.6519 H   0  0  0  0  0  0  0  0  0  0  0  0
    6.9540   -0.0117   -0.3752 H   0  0  0  0  0  0  0  0  0  0  0  0
    5.1471    1.2591    1.3434 H   0  0  0  0  0  0  0  0  0  0  0  0
    5.4715    1.6347   -0.4078 H   0  0  0  0  0  0  0  0  0  0  0  0
    2.5692    1.9139    0.0993 H   0  0  0  0  0  0  0  0  0  0  0  0
    0.8442   -1.9032   -1.0234 H   0  0  0  0  0  0  0  0  0  0  0  0
    3.0864   -2.9475   -0.8542 H   0  0  0  0  0  0  0  0  0  0  0  0
    0.8891    2.3725   -1.7532 H   0  0  0  0  0  0  0  0  0  0  0  0
   -1.2680    3.4740   -1.8786 H   0  0  0  0  0  0  0  0  0  0  0  0
   -5.4495    0.2763    0.7936 H   0  0  0  0  0  0  0  0  0  0  0  0
   -3.2278   -1.5087    1.9243 H   0  0  0  0  0  0  0  0  0  0  0  0
   -5.0368   -1.7766   -0.6526 H   0  0  0  0  0  0  0  0  0  0  0  0
   -4.8291   -3.0408    0.8126 H   0  0  0  0  0  0  0  0  0  0  0  0
   -2.4899   -3.2662    0.2673 H   0  0  0  0  0  0  0  0  0  0  0  0
   -2.7088   -1.9841   -1.1838 H   0  0  0  0  0  0  0  0  0  0  0  0
   -1.2216   -0.1534    2.7873 H   0  0  0  0  0  0  0  0  0  0  0  0
   -5.3444    4.6491    0.1422 H   0  0  0  0  0  0  0  0  0  0  0  0
  2  1  1  0
  2  3  1  0
  3  4  1  0
  4  5  1  0
  5  6  2  0
  6  7  1  0
  7  8  2  0
  8  9  1  0
  9 10  2  0
 10  2  1  0
 10  5  1  0
  7 11  1  0
 11 12  2  0
 12 13  1  0
 13 14  2  0
 14 15  1  0
 15 16  2  0
 15 17  1  0
 17 18  2  0
 18 19  1  0
 19 20  1  0
 20 21  1  0
 21 22  1  0
 22 20  1  0
 19 23  1  0
 23 14  1  0
 23 24  2  0
 24 11  1  0
 24 25  1  0
 25 26  1  0
 26 27  1  0
 26 28  1  0
 17 29  1  0
 29 30  2  0
 29 31  1  0
  1 32  1  0
  1 33  1  0
  1 34  1  0
  2 35  1  1
  3 36  1  0
  4 37  1  0
  4 38  1  0
  6 39  1  0
  8 40  1  0
  9 41  1  0
 12 42  1  0
 13 43  1  0
 18 44  1  0
 20 45  1  0
 21 46  1  0
 21 47  1  0
 22 48  1  0
 22 49  1  0
 26 50  1  0
 31 51  1  0
M  END
> <ID>
HT0966

> <Class>
0.0

> <Clusters>
117

> <Fold>
5

$$$$