
     RDKit          3D

 10  9  0  0  0  0  0  0  0  0999 V2000
   -1.6766   -0.0062    0.2214 N   0  0  0  0  0  0  0  0  0  0  0  0
   -0.4369   -0.5463   -0.3359 C   0  0  0  0  0  0  0  0  0  0  0  0
    0.7743    0.2460    0.0734 C   0  0  0  0  0  0  0  0  0  0  0  0
    0.6705    1.2580    0.8186 O   0  0  0  0  0  0  0  0  0  0  0  0
    2.0281   -0.1494   -0.3811 O   0  0  0  0  0  0  0  0  0  0  0  0
   -1.6082   -0.0037    1.2654 H   0  0  0  0  0  0  0  0  0  0  0  0
   -1.7921    0.9828   -0.1001 H   0  0  0  0  0  0  0  0  0  0  0  0
   -0.5077   -0.5499   -1.4444 H   0  0  0  0  0  0  0  0  0  0  0  0
   -0.3126   -1.5965    0.0042 H   0  0  0  0  0  0  0  0  0  0  0  0
    2.8612    0.3652   -0.1215 H   0  0  0  0  0  0  0  0  0  0  0  0
  1  2  1  0
  2  3  1  0
  3  4  2  0
  3  5  1  0
  1  6  1  0
  1  7  1  0
  2  8  1  0
  2  9  1  0
  5 10  1  0
M  END
> <ID>
HT0997

> <Class>
0.0

> <Clusters>
243

> <Fold>
5

$$$$