
     RDKit          3D

 54 59  0  0  0  0  0  0  0  0999 V2000
   -2.8034   -0.5663    2.7002 C   0  0  0  0  0  0  0  0  0  0  0  0
   -3.4167    0.0302    1.4254 C   0  0  0  0  0  0  0  0  0  0  0  0
   -3.3913    1.5123    1.3841 C   0  0  0  0  0  0  0  0  0  0  0  0
   -3.6893    2.2612    2.3514 O   0  0  0  0  0  0  0  0  0  0  0  0
   -3.0419    1.9973    0.1402 O   0  0  0  0  0  0  0  0  0  0  0  0
   -2.9273    0.9380   -0.7982 C   0  0  0  0  0  0  0  0  0  0  0  0
   -1.7145    1.0925   -1.7209 C   0  0  0  0  0  0  0  0  0  0  0  0
   -2.1062    0.6788   -3.0074 O   0  0  0  0  0  0  0  0  0  0  0  0
   -0.5686    0.1973   -1.1401 C   0  0  0  0  0  0  0  0  0  0  0  0
    0.0506   -0.8241   -2.1407 C   0  0  0  0  0  0  0  0  0  0  0  0
    1.5532   -0.6431   -2.1008 C   0  0  0  0  0  0  0  0  0  0  0  0
    1.9085   -0.0198   -0.7397 C   0  0  0  0  0  0  0  0  0  0  0  0
    2.7035   -1.0312    0.2335 C   0  0  0  0  0  0  0  0  0  0  0  0
    1.9948   -2.3764    0.4977 C   0  0  0  0  0  0  0  0  0  0  0  0
    3.0577   -0.4162    1.6054 C   0  0  0  0  0  0  0  0  0  0  0  0
    4.0764   -1.3738   -0.4255 C   0  0  0  0  0  0  0  0  0  0  0  0
    0.6142    0.8826   -0.3914 C   0  0  0  0  0  0  0  0  0  0  0  0
    0.0117    0.8489    0.9849 C   0  0  0  0  0  0  0  0  0  0  0  0
    0.9645    1.4352    1.8365 O   0  0  0  0  0  0  0  0  0  0  0  0
    1.5398    2.4432    1.0623 C   0  0  0  0  0  0  0  0  0  0  0  0
    2.3484    3.2913    1.5217 O   0  0  0  0  0  0  0  0  0  0  0  0
    1.0723    2.3898   -0.3720 C   0  0  0  0  0  0  0  0  0  0  0  0
    0.0210    3.3035   -0.5268 O   0  0  0  0  0  0  0  0  0  0  0  0
   -0.4951   -0.4274    1.2094 O   0  0  0  0  0  0  0  0  0  0  0  0
   -1.2183   -0.6745   -0.0040 C   0  0  0  0  0  0  0  0  0  0  0  0
   -0.9650   -2.0609   -0.4692 C   0  0  0  0  0  0  0  0  0  0  0  0
   -1.3144   -3.0945    0.1602 O   0  0  0  0  0  0  0  0  0  0  0  0
   -0.2895   -2.1138   -1.6631 O   0  0  0  0  0  0  0  0  0  0  0  0
   -2.7699   -0.3499    0.0446 C   0  0  0  0  0  0  0  0  0  0  0  0
   -3.5057   -1.4017   -0.5528 O   0  0  0  0  0  0  0  0  0  0  0  0
   -2.5030   -1.6212    2.5273 H   0  0  0  0  0  0  0  0  0  0  0  0
   -1.9393    0.0267    3.0649 H   0  0  0  0  0  0  0  0  0  0  0  0
   -3.5610   -0.5563    3.5127 H   0  0  0  0  0  0  0  0  0  0  0  0
   -4.4902   -0.2622    1.4229 H   0  0  0  0  0  0  0  0  0  0  0  0
   -3.8697    0.9226   -1.3921 H   0  0  0  0  0  0  0  0  0  0  0  0
   -1.4497    2.1600   -1.7789 H   0  0  0  0  0  0  0  0  0  0  0  0
   -1.5504    1.1811   -3.6601 H   0  0  0  0  0  0  0  0  0  0  0  0
   -0.2911   -0.7383   -3.1905 H   0  0  0  0  0  0  0  0  0  0  0  0
    1.8356    0.0680   -2.9107 H   0  0  0  0  0  0  0  0  0  0  0  0
    2.0565   -1.6017   -2.3285 H   0  0  0  0  0  0  0  0  0  0  0  0
    2.7230    0.6904   -0.9955 H   0  0  0  0  0  0  0  0  0  0  0  0
    2.6603   -3.0553    1.0748 H   0  0  0  0  0  0  0  0  0  0  0  0
    1.7474   -2.9069   -0.4414 H   0  0  0  0  0  0  0  0  0  0  0  0
    1.0946   -2.2473    1.1213 H   0  0  0  0  0  0  0  0  0  0  0  0
    2.2021   -0.4615    2.3060 H   0  0  0  0  0  0  0  0  0  0  0  0
    3.8551   -1.0008    2.1144 H   0  0  0  0  0  0  0  0  0  0  0  0
    3.4419    0.6177    1.4923 H   0  0  0  0  0  0  0  0  0  0  0  0
    3.9681   -1.9159   -1.3846 H   0  0  0  0  0  0  0  0  0  0  0  0
    4.6699   -0.4528   -0.6126 H   0  0  0  0  0  0  0  0  0  0  0  0
    4.6879   -2.0320    0.2301 H   0  0  0  0  0  0  0  0  0  0  0  0
   -0.8509    1.5479    1.0602 H   0  0  0  0  0  0  0  0  0  0  0  0
    1.8857    2.6285   -1.0943 H   0  0  0  0  0  0  0  0  0  0  0  0
    0.4325    4.2045   -0.5964 H   0  0  0  0  0  0  0  0  0  0  0  0
   -4.4546   -1.1242   -0.6461 H   0  0  0  0  0  0  0  0  0  0  0  0
  1  2  1  0
  2  3  1  0
  3  4  2  0
  3  5  1  0
  5  6  1  0
  6  7  1  0
  7  8  1  0
  7  9  1  0
  9 10  1  0
 10 11  1  0
 11 12  1  0
 12 13  1  0
 13 14  1  0
 13 15  1  0
 13 16  1  0
 12 17  1  0
 17  9  1  0
 17 18  1  0
 18 19  1  0
 19 20  1  0
 20 21  2  0
 20 22  1  0
 22 17  1  0
 22 23  1  0
 18 24  1  0
 24 25  1  0
 25  9  1  0
 25 26  1  0
 26 27  2  0
 26 28  1  0
 28 10  1  0
 25 29  1  0
 29  2  1  0
 29  6  1  0
 29 30  1  0
  1 31  1  0
  1 32  1  0
  1 33  1  0
  2 34  1  0
  6 35  1  0
  7 36  1  0
  8 37  1  0
 10 38  1  0
 11 39  1  0
 11 40  1  0
 12 41  1  0
 14 42  1  0
 14 43  1  0
 14 44  1  0
 15 45  1  0
 15 46  1  0
 15 47  1  0
 16 48  1  0
 16 49  1  0
 16 50  1  0
 18 51  1  0
 22 52  1  0
 23 53  1  0
 30 54  1  0
M  END
> <ID>
HT0976

> <Class>
0.0

> <Clusters>
119

> <Fold>
5

$$$$