
     RDKit          3D

 58 60  0  0  0  0  0  0  0  0999 V2000
   -1.9390    6.2020    0.6187 C   0  0  0  0  0  0  0  0  0  0  0  0
   -2.3923    5.1243   -0.2710 N   0  0  0  0  0  0  0  0  0  0  0  0
   -3.4565    5.4104   -1.2429 C   0  0  0  0  0  0  0  0  0  0  0  0
   -1.8106    3.7945   -0.1815 C   0  0  0  0  0  0  0  0  0  0  0  0
   -1.0331    3.4138    0.9336 C   0  0  0  0  0  0  0  0  0  0  0  0
   -0.4826    2.1324    1.0215 C   0  0  0  0  0  0  0  0  0  0  0  0
   -0.7009    1.1954    0.0049 C   0  0  0  0  0  0  0  0  0  0  0  0
   -1.4498    1.5680   -1.1195 C   0  0  0  0  0  0  0  0  0  0  0  0
   -2.0037    2.8473   -1.2097 C   0  0  0  0  0  0  0  0  0  0  0  0
   -0.0864   -0.1534    0.0909 C   0  0  0  0  0  0  0  0  0  0  0  0
   -0.8351   -1.2895    0.0388 C   0  0  0  0  0  0  0  0  0  0  0  0
   -2.3196   -1.2445    0.1119 C   0  0  0  0  0  0  0  0  0  0  0  0
   -3.0566   -2.3557    0.0440 C   0  0  0  0  0  0  0  0  0  0  0  0
   -2.4299   -3.7021   -0.1089 C   0  0  0  0  0  0  0  0  0  0  0  0
   -3.1595   -4.8041   -0.1886 N   0  0  0  0  0  0  0  0  0  0  0  0
   -4.6318   -4.7517   -0.1360 C   0  0  0  0  0  0  0  0  0  0  0  0
   -2.5299   -6.1286   -0.3354 C   0  0  0  0  0  0  0  0  0  0  0  0
   -0.9381   -3.7426   -0.1668 C   0  0  0  0  0  0  0  0  0  0  0  0
   -0.2043   -2.6293   -0.0963 C   0  0  0  0  0  0  0  0  0  0  0  0
    1.3906   -0.1937    0.2291 C   0  0  0  0  0  0  0  0  0  0  0  0
    2.2024    0.4268   -0.7309 C   0  0  0  0  0  0  0  0  0  0  0  0
    3.5921    0.4265   -0.5880 C   0  0  0  0  0  0  0  0  0  0  0  0
    4.2008   -0.1838    0.5275 C   0  0  0  0  0  0  0  0  0  0  0  0
    3.3763   -0.7917    1.4958 C   0  0  0  0  0  0  0  0  0  0  0  0
    1.9865   -0.7912    1.3504 C   0  0  0  0  0  0  0  0  0  0  0  0
    5.6412   -0.1773    0.6804 N   0  0  0  0  0  0  0  0  0  0  0  0
    6.2452   -0.1947    2.0173 C   0  0  0  0  0  0  0  0  0  0  0  0
    6.5155   -0.0963   -0.4938 C   0  0  0  0  0  0  0  0  0  0  0  0
   -0.8351    6.3026    0.5547 H   0  0  0  0  0  0  0  0  0  0  0  0
   -2.3802    7.1826    0.3411 H   0  0  0  0  0  0  0  0  0  0  0  0
   -2.2368    5.9783    1.6642 H   0  0  0  0  0  0  0  0  0  0  0  0
   -4.2675    4.6580   -1.1469 H   0  0  0  0  0  0  0  0  0  0  0  0
   -3.0425    5.3876   -2.2729 H   0  0  0  0  0  0  0  0  0  0  0  0
   -3.9102    6.4097   -1.0771 H   0  0  0  0  0  0  0  0  0  0  0  0
   -0.8497    4.0975    1.7492 H   0  0  0  0  0  0  0  0  0  0  0  0
    0.1093    1.8673    1.8892 H   0  0  0  0  0  0  0  0  0  0  0  0
   -1.6021    0.8664   -1.9301 H   0  0  0  0  0  0  0  0  0  0  0  0
   -2.5736    3.0891   -2.0956 H   0  0  0  0  0  0  0  0  0  0  0  0
   -2.8380   -0.3060    0.2572 H   0  0  0  0  0  0  0  0  0  0  0  0
   -4.1294   -2.2411    0.1157 H   0  0  0  0  0  0  0  0  0  0  0  0
   -5.0934   -5.7569   -0.2257 H   0  0  0  0  0  0  0  0  0  0  0  0
   -5.0217   -4.1382   -0.9762 H   0  0  0  0  0  0  0  0  0  0  0  0
   -4.9629   -4.3252    0.8346 H   0  0  0  0  0  0  0  0  0  0  0  0
   -1.8725   -6.3374    0.5358 H   0  0  0  0  0  0  0  0  0  0  0  0
   -1.9402   -6.1681   -1.2761 H   0  0  0  0  0  0  0  0  0  0  0  0
   -3.2774   -6.9475   -0.3833 H   0  0  0  0  0  0  0  0  0  0  0  0
   -0.4060   -4.6773   -0.2801 H   0  0  0  0  0  0  0  0  0  0  0  0
    0.8701   -2.7303   -0.1786 H   0  0  0  0  0  0  0  0  0  0  0  0
    1.7575    0.9104   -1.5928 H   0  0  0  0  0  0  0  0  0  0  0  0
    4.1864    0.9216   -1.3445 H   0  0  0  0  0  0  0  0  0  0  0  0
    3.8019   -1.2760    2.3646 H   0  0  0  0  0  0  0  0  0  0  0  0
    1.3724   -1.2545    2.1145 H   0  0  0  0  0  0  0  0  0  0  0  0
    6.1635   -1.2113    2.4575 H   0  0  0  0  0  0  0  0  0  0  0  0
    5.7296    0.5392    2.6742 H   0  0  0  0  0  0  0  0  0  0  0  0
    7.3212    0.0834    1.9789 H   0  0  0  0  0  0  0  0  0  0  0  0
    6.1506   -0.7836   -1.2876 H   0  0  0  0  0  0  0  0  0  0  0  0
    7.5569   -0.3961   -0.2424 H   0  0  0  0  0  0  0  0  0  0  0  0
    6.5286    0.9446   -0.8806 H   0  0  0  0  0  0  0  0  0  0  0  0
  1  2  1  0
  2  3  1  0
  2  4  1  0
  4  5  2  0
  5  6  1  0
  6  7  2  0
  7  8  1  0
  8  9  2  0
  9  4  1  0
  7 10  1  0
 10 11  2  3
 11 12  1  0
 12 13  2  0
 13 14  1  0
 14 15  2  3
 15 16  1  0
 15 17  1  0
 14 18  1  0
 18 19  2  0
 19 11  1  0
 10 20  1  0
 20 21  2  0
 21 22  1  0
 22 23  2  0
 23 24  1  0
 24 25  2  0
 25 20  1  0
 23 26  1  0
 26 27  1  0
 26 28  1  0
  1 29  1  0
  1 30  1  0
  1 31  1  0
  3 32  1  0
  3 33  1  0
  3 34  1  0
  5 35  1  0
  6 36  1  0
  8 37  1  0
  9 38  1  0
 12 39  1  0
 13 40  1  0
 16 41  1  0
 16 42  1  0
 16 43  1  0
 17 44  1  0
 17 45  1  0
 17 46  1  0
 18 47  1  0
 19 48  1  0
 21 49  1  0
 22 50  1  0
 24 51  1  0
 25 52  1  0
 27 53  1  0
 27 54  1  0
 27 55  1  0
 28 56  1  0
 28 57  1  0
 28 58  1  0
M  CHG  1  15   1
M  END
> <ID>
HT0973

> <Class>
0.0

> <Clusters>
266

> <Fold>
5

$$$$