
     RDKit          3D

 72 71  0  0  0  0  0  0  0  0999 V2000
   -9.4486    1.7363   -1.1659 C   0  0  0  0  0  0  0  0  0  0  0  0
   -8.5026    2.7085   -0.7771 O   0  0  0  0  0  0  0  0  0  0  0  0
   -7.2295    2.1168   -0.5938 C   0  0  0  0  0  0  0  0  0  0  0  0
   -6.3608    2.3395   -1.8360 C   0  0  0  0  0  0  0  0  0  0  0  0
   -5.0492    1.7186   -1.6592 N   0  0  0  0  0  0  0  0  0  0  0  0
   -4.0751    2.2233   -0.7340 C   0  0  0  0  0  0  0  0  0  0  0  0
   -4.2238    3.3584   -0.2076 O   0  0  0  0  0  0  0  0  0  0  0  0
   -2.8840    1.3895   -0.3710 C   0  0  0  0  0  0  0  0  0  0  0  0
   -3.3238    0.0467    0.0626 N   0  0  0  0  0  0  0  0  0  0  0  0
   -2.2968   -0.9964   -0.1850 C   0  0  0  0  0  0  0  0  0  0  0  0
   -1.0469   -0.8876    0.7102 C   0  0  0  0  0  0  0  0  0  0  0  0
   -0.0022   -1.8104    0.2117 N   0  0  0  0  0  0  0  0  0  0  0  0
    1.3560   -1.2184    0.2322 C   0  0  0  0  0  0  0  0  0  0  0  0
    2.3549   -2.0493   -0.5852 C   0  0  0  0  0  0  0  0  0  0  0  0
    3.6219   -1.3024   -0.7373 N   0  0  0  0  0  0  0  0  0  0  0  0
    4.2870   -1.5081   -2.0452 C   0  0  0  0  0  0  0  0  0  0  0  0
    4.6874   -2.9353   -2.3282 C   0  0  0  0  0  0  0  0  0  0  0  0
    5.2113   -3.2135   -3.4397 O   0  0  0  0  0  0  0  0  0  0  0  0
    4.4994   -3.9461   -1.3888 O   0  0  0  0  0  0  0  0  0  0  0  0
    4.5398   -1.4301    0.4179 C   0  0  0  0  0  0  0  0  0  0  0  0
    5.0608   -0.0886    0.8593 C   0  0  0  0  0  0  0  0  0  0  0  0
    5.8711   -0.0518    1.8260 O   0  0  0  0  0  0  0  0  0  0  0  0
    4.6576    1.1357    0.2165 N   0  0  0  0  0  0  0  0  0  0  0  0
    5.2483    2.4299    0.5577 C   0  0  0  0  0  0  0  0  0  0  0  0
    6.6890    2.5173    0.0394 C   0  0  0  0  0  0  0  0  0  0  0  0
    7.1912    3.8339    0.1757 O   0  0  0  0  0  0  0  0  0  0  0  0
    7.8246    3.9936    1.4289 C   0  0  0  0  0  0  0  0  0  0  0  0
   -0.1061   -3.1716    0.7976 C   0  0  0  0  0  0  0  0  0  0  0  0
    0.4140   -3.3054    2.2096 C   0  0  0  0  0  0  0  0  0  0  0  0
    0.7303   -4.4492    2.6384 O   0  0  0  0  0  0  0  0  0  0  0  0
    0.5069   -2.2077    3.0612 O   0  0  0  0  0  0  0  0  0  0  0  0
   -3.8465    0.0626    1.4469 C   0  0  0  0  0  0  0  0  0  0  0  0
   -4.5408   -1.2232    1.7796 C   0  0  0  0  0  0  0  0  0  0  0  0
   -5.5559   -1.5794    1.1226 O   0  0  0  0  0  0  0  0  0  0  0  0
   -4.0655   -2.0262    2.8109 O   0  0  0  0  0  0  0  0  0  0  0  0
   -9.1303    1.2024   -2.0884 H   0  0  0  0  0  0  0  0  0  0  0  0
   -9.6309    1.0120   -0.3415 H   0  0  0  0  0  0  0  0  0  0  0  0
  -10.4104    2.2451   -1.3836 H   0  0  0  0  0  0  0  0  0  0  0  0
   -7.2695    1.0277   -0.3477 H   0  0  0  0  0  0  0  0  0  0  0  0
   -6.7480    2.6120    0.2744 H   0  0  0  0  0  0  0  0  0  0  0  0
   -6.8613    1.8861   -2.7184 H   0  0  0  0  0  0  0  0  0  0  0  0
   -6.2403    3.4265   -2.0372 H   0  0  0  0  0  0  0  0  0  0  0  0
   -4.8306    0.8528   -2.2011 H   0  0  0  0  0  0  0  0  0  0  0  0
   -2.2379    1.3292   -1.2742 H   0  0  0  0  0  0  0  0  0  0  0  0
   -2.2968    1.8916    0.4306 H   0  0  0  0  0  0  0  0  0  0  0  0
   -2.7566   -1.9991   -0.0531 H   0  0  0  0  0  0  0  0  0  0  0  0
   -1.9829   -0.9574   -1.2502 H   0  0  0  0  0  0  0  0  0  0  0  0
   -1.3179   -1.1257    1.7590 H   0  0  0  0  0  0  0  0  0  0  0  0
   -0.6891    0.1640    0.7000 H   0  0  0  0  0  0  0  0  0  0  0  0
    1.7255   -1.0818    1.2685 H   0  0  0  0  0  0  0  0  0  0  0  0
    1.3221   -0.2094   -0.2370 H   0  0  0  0  0  0  0  0  0  0  0  0
    1.8954   -2.2503   -1.5786 H   0  0  0  0  0  0  0  0  0  0  0  0
    2.5353   -3.0260   -0.0878 H   0  0  0  0  0  0  0  0  0  0  0  0
    5.1938   -0.8664   -2.1058 H   0  0  0  0  0  0  0  0  0  0  0  0
    3.6059   -1.1631   -2.8535 H   0  0  0  0  0  0  0  0  0  0  0  0
    4.7743   -4.9007   -1.5878 H   0  0  0  0  0  0  0  0  0  0  0  0
    4.0318   -1.8944    1.2912 H   0  0  0  0  0  0  0  0  0  0  0  0
    5.4095   -2.0757    0.1768 H   0  0  0  0  0  0  0  0  0  0  0  0
    3.8777    1.1331   -0.4767 H   0  0  0  0  0  0  0  0  0  0  0  0
    4.6487    3.2419    0.0874 H   0  0  0  0  0  0  0  0  0  0  0  0
    5.2155    2.5743    1.6580 H   0  0  0  0  0  0  0  0  0  0  0  0
    7.3348    1.7514    0.5259 H   0  0  0  0  0  0  0  0  0  0  0  0
    6.6796    2.2761   -1.0452 H   0  0  0  0  0  0  0  0  0  0  0  0
    7.1227    3.7984    2.2688 H   0  0  0  0  0  0  0  0  0  0  0  0
    8.7200    3.3352    1.5153 H   0  0  0  0  0  0  0  0  0  0  0  0
    8.1653    5.0440    1.5216 H   0  0  0  0  0  0  0  0  0  0  0  0
   -1.1629   -3.5149    0.7876 H   0  0  0  0  0  0  0  0  0  0  0  0
    0.4315   -3.8904    0.1444 H   0  0  0  0  0  0  0  0  0  0  0  0
    0.8471   -2.3111    4.0093 H   0  0  0  0  0  0  0  0  0  0  0  0
   -3.0387    0.2694    2.1798 H   0  0  0  0  0  0  0  0  0  0  0  0
   -4.5955    0.8773    1.5607 H   0  0  0  0  0  0  0  0  0  0  0  0
   -4.5302   -2.8938    3.0507 H   0  0  0  0  0  0  0  0  0  0  0  0
  1  2  1  0
  2  3  1  0
  3  4  1  0
  4  5  1  0
  5  6  1  0
  6  7  2  0
  6  8  1  0
  8  9  1  0
  9 10  1  0
 10 11  1  0
 11 12  1  0
 12 13  1  0
 13 14  1  0
 14 15  1  0
 15 16  1  0
 16 17  1  0
 17 18  2  0
 17 19  1  0
 15 20  1  0
 20 21  1  0
 21 22  2  0
 21 23  1  0
 23 24  1  0
 24 25  1  0
 25 26  1  0
 26 27  1  0
 12 28  1  0
 28 29  1  0
 29 30  2  0
 29 31  1  0
  9 32  1  0
 32 33  1  0
 33 34  2  0
 33 35  1  0
  1 36  1  0
  1 37  1  0
  1 38  1  0
  3 39  1  0
  3 40  1  0
  4 41  1  0
  4 42  1  0
  5 43  1  0
  8 44  1  0
  8 45  1  0
 10 46  1  0
 10 47  1  0
 11 48  1  0
 11 49  1  0
 13 50  1  0
 13 51  1  0
 14 52  1  0
 14 53  1  0
 16 54  1  0
 16 55  1  0
 19 56  1  0
 20 57  1  0
 20 58  1  0
 23 59  1  0
 24 60  1  0
 24 61  1  0
 25 62  1  0
 25 63  1  0
 27 64  1  0
 27 65  1  0
 27 66  1  0
 28 67  1  0
 28 68  1  0
 31 69  1  0
 32 70  1  0
 32 71  1  0
 35 72  1  0
M  END
> <ID>
HT0957

> <Class>
0.0

> <Clusters>
114

> <Fold>
5

$$$$