
     RDKit          3D

 36 37  0  0  0  0  0  0  0  0999 V2000
   -2.1154    2.5377   -0.3548 N   0  0  0  0  0  0  0  0  0  0  0  0
   -3.0013    1.4108   -0.2332 C   0  0  0  0  0  0  0  0  0  0  0  0
   -4.3289    1.5028   -0.7122 C   0  0  0  0  0  0  0  0  0  0  0  0
   -5.0227    3.1000   -1.5189 Br  0  0  0  0  0  0  0  0  0  0  0  0
   -5.1873    0.4033   -0.6244 C   0  0  0  0  0  0  0  0  0  0  0  0
   -4.7453   -0.7957   -0.0698 C   0  0  0  0  0  0  0  0  0  0  0  0
   -5.9254   -2.2946    0.0281 Br  0  0  0  0  0  0  0  0  0  0  0  0
   -3.4416   -0.9020    0.4124 C   0  0  0  0  0  0  0  0  0  0  0  0
   -2.5628    0.1936    0.3564 C   0  0  0  0  0  0  0  0  0  0  0  0
   -1.1613    0.0119    0.8916 C   0  0  0  0  0  0  0  0  0  0  0  0
   -0.2548   -0.3715   -0.1994 N   0  0  0  0  0  0  0  0  0  0  0  0
    1.1177   -0.6258    0.2766 C   0  0  2  0  0  0  0  0  0  0  0  0
    1.9129    0.6886    0.4620 C   0  0  0  0  0  0  0  0  0  0  0  0
    3.3596    0.4032    0.8849 C   0  0  0  0  0  0  0  0  0  0  0  0
    4.0644   -0.5123   -0.1306 C   0  0  1  0  0  0  0  0  0  0  0  0
    5.3586   -0.8160    0.3184 O   0  0  0  0  0  0  0  0  0  0  0  0
    3.2776   -1.8180   -0.3118 C   0  0  0  0  0  0  0  0  0  0  0  0
    1.8310   -1.5365   -0.7372 C   0  0  0  0  0  0  0  0  0  0  0  0
   -1.0970    2.4762   -0.1431 H   0  0  0  0  0  0  0  0  0  0  0  0
   -2.4501    3.4645   -0.6949 H   0  0  0  0  0  0  0  0  0  0  0  0
   -6.2011    0.4789   -0.9969 H   0  0  0  0  0  0  0  0  0  0  0  0
   -3.1139   -1.8435    0.8365 H   0  0  0  0  0  0  0  0  0  0  0  0
   -0.8188    0.9343    1.4034 H   0  0  0  0  0  0  0  0  0  0  0  0
   -1.1659   -0.7845    1.6690 H   0  0  0  0  0  0  0  0  0  0  0  0
   -0.2432    0.3788   -0.9298 H   0  0  0  0  0  0  0  0  0  0  0  0
    1.0891   -1.1690    1.2499 H   0  0  0  0  0  0  0  0  0  0  0  0
    1.4381    1.3160    1.2447 H   0  0  0  0  0  0  0  0  0  0  0  0
    1.9176    1.2706   -0.4861 H   0  0  0  0  0  0  0  0  0  0  0  0
    3.3655   -0.0735    1.8902 H   0  0  0  0  0  0  0  0  0  0  0  0
    3.9109    1.3655    0.9599 H   0  0  0  0  0  0  0  0  0  0  0  0
    4.1226    0.0060   -1.1172 H   0  0  0  0  0  0  0  0  0  0  0  0
    5.9102   -0.0033    0.1727 H   0  0  0  0  0  0  0  0  0  0  0  0
    3.7705   -2.4398   -1.0903 H   0  0  0  0  0  0  0  0  0  0  0  0
    3.2794   -2.3958    0.6391 H   0  0  0  0  0  0  0  0  0  0  0  0
    1.2836   -2.5010   -0.8152 H   0  0  0  0  0  0  0  0  0  0  0  0
    1.8276   -1.0600   -1.7428 H   0  0  0  0  0  0  0  0  0  0  0  0
  1  2  1  0
  2  3  2  0
  3  4  1  0
  3  5  1  0
  5  6  2  0
  6  7  1  0
  6  8  1  0
  8  9  2  0
  9  2  1  0
  9 10  1  0
 10 11  1  0
 12 11  1  0
 12 13  1  0
 13 14  1  0
 14 15  1  0
 15 16  1  0
 15 17  1  0
 17 18  1  0
 18 12  1  0
  1 19  1  0
  1 20  1  0
  5 21  1  0
  8 22  1  0
 10 23  1  0
 10 24  1  0
 11 25  1  0
 12 26  1  1
 13 27  1  0
 13 28  1  0
 14 29  1  0
 14 30  1  0
 15 31  1  6
 16 32  1  0
 17 33  1  0
 17 34  1  0
 18 35  1  0
 18 36  1  0
M  END
> <ID>
HT0125

> <Class>
0.0

> <Clusters>
96

> <Fold>
5

$$$$