
     RDKit          3D

 51 53  0  0  0  0  0  0  0  0999 V2000
    5.2204   -0.2436   -0.8769 C   0  0  0  0  0  0  0  0  0  0  0  0
    4.3522    0.4431    0.1112 N   0  0  0  0  0  0  0  0  0  0  0  0
    4.9633    1.7407    0.4773 C   0  0  0  0  0  0  0  0  0  0  0  0
    4.1570   -0.4084    1.3038 C   0  0  0  0  0  0  0  0  0  0  0  0
    2.9448   -1.2942    1.0372 C   0  0  0  0  0  0  0  0  0  0  0  0
    2.1931   -0.6267   -0.1083 C   0  0  0  0  0  0  0  0  0  0  0  0
    2.9937    0.6309   -0.4404 C   0  0  0  0  0  0  0  0  0  0  0  0
    0.8682   -0.2783    0.2996 O   0  0  0  0  0  0  0  0  0  0  0  0
   -0.2938   -0.7138   -0.3483 C   0  0  0  0  0  0  0  0  0  0  0  0
   -0.2203   -1.4441   -1.3756 O   0  0  0  0  0  0  0  0  0  0  0  0
   -1.6398   -0.2294    0.1616 C   0  0  0  0  0  0  0  0  0  0  0  0
   -1.6045   -0.1884    1.5741 O   0  0  0  0  0  0  0  0  0  0  0  0
   -2.8179   -1.1549   -0.3077 C   0  0  0  0  0  0  0  0  0  0  0  0
   -2.6818   -2.6302    0.1235 C   0  0  0  0  0  0  0  0  0  0  0  0
   -3.8605   -2.9259    1.0361 C   0  0  0  0  0  0  0  0  0  0  0  0
   -4.9361   -1.9373    0.6348 C   0  0  0  0  0  0  0  0  0  0  0  0
   -4.1872   -0.6843    0.2172 C   0  0  0  0  0  0  0  0  0  0  0  0
   -1.8565    1.1864   -0.3838 C   0  0  0  0  0  0  0  0  0  0  0  0
   -2.0930    2.2820    0.4764 C   0  0  0  0  0  0  0  0  0  0  0  0
   -2.2954    3.5646   -0.0417 C   0  0  0  0  0  0  0  0  0  0  0  0
   -2.2672    3.7780   -1.4201 C   0  0  0  0  0  0  0  0  0  0  0  0
   -2.0373    2.7088   -2.2860 C   0  0  0  0  0  0  0  0  0  0  0  0
   -1.8346    1.4237   -1.7760 C   0  0  0  0  0  0  0  0  0  0  0  0
    4.7939   -1.2268   -1.1759 H   0  0  0  0  0  0  0  0  0  0  0  0
    5.3394    0.3715   -1.7968 H   0  0  0  0  0  0  0  0  0  0  0  0
    6.2347   -0.4252   -0.4564 H   0  0  0  0  0  0  0  0  0  0  0  0
    4.3404    2.2879    1.2198 H   0  0  0  0  0  0  0  0  0  0  0  0
    5.0720    2.3911   -0.4191 H   0  0  0  0  0  0  0  0  0  0  0  0
    5.9702    1.5886    0.9262 H   0  0  0  0  0  0  0  0  0  0  0  0
    3.9364    0.2094    2.2054 H   0  0  0  0  0  0  0  0  0  0  0  0
    5.0556   -1.0234    1.5391 H   0  0  0  0  0  0  0  0  0  0  0  0
    2.3156   -1.3863    1.9501 H   0  0  0  0  0  0  0  0  0  0  0  0
    3.2784   -2.3102    0.7315 H   0  0  0  0  0  0  0  0  0  0  0  0
    2.1908   -1.3038   -0.9918 H   0  0  0  0  0  0  0  0  0  0  0  0
    3.0033    0.8150   -1.5392 H   0  0  0  0  0  0  0  0  0  0  0  0
    2.4916    1.5086    0.0307 H   0  0  0  0  0  0  0  0  0  0  0  0
   -1.3012   -1.0685    1.9165 H   0  0  0  0  0  0  0  0  0  0  0  0
   -2.8648   -1.1428   -1.4202 H   0  0  0  0  0  0  0  0  0  0  0  0
   -1.7237   -2.8655    0.6321 H   0  0  0  0  0  0  0  0  0  0  0  0
   -2.7494   -3.2842   -0.7744 H   0  0  0  0  0  0  0  0  0  0  0  0
   -3.5669   -2.7470    2.0943 H   0  0  0  0  0  0  0  0  0  0  0  0
   -4.2115   -3.9746    0.9237 H   0  0  0  0  0  0  0  0  0  0  0  0
   -5.5071   -2.3386   -0.2317 H   0  0  0  0  0  0  0  0  0  0  0  0
   -5.6350   -1.7350    1.4752 H   0  0  0  0  0  0  0  0  0  0  0  0
   -4.0805   -0.0221    1.1041 H   0  0  0  0  0  0  0  0  0  0  0  0
   -4.7494   -0.1305   -0.5661 H   0  0  0  0  0  0  0  0  0  0  0  0
   -2.1285    2.1567    1.5502 H   0  0  0  0  0  0  0  0  0  0  0  0
   -2.4761    4.3952    0.6285 H   0  0  0  0  0  0  0  0  0  0  0  0
   -2.4243    4.7725   -1.8175 H   0  0  0  0  0  0  0  0  0  0  0  0
   -2.0155    2.8753   -3.3552 H   0  0  0  0  0  0  0  0  0  0  0  0
   -1.6553    0.6141   -2.4712 H   0  0  0  0  0  0  0  0  0  0  0  0
  1  2  1  0
  2  3  1  0
  2  4  1  0
  4  5  1  0
  5  6  1  0
  6  7  1  0
  7  2  1  0
  6  8  1  0
  8  9  1  0
  9 10  2  0
  9 11  1  0
 11 12  1  0
 11 13  1  0
 13 14  1  0
 14 15  1  0
 15 16  1  0
 16 17  1  0
 17 13  1  0
 11 18  1  0
 18 19  2  0
 19 20  1  0
 20 21  2  0
 21 22  1  0
 22 23  2  0
 23 18  1  0
  1 24  1  0
  1 25  1  0
  1 26  1  0
  3 27  1  0
  3 28  1  0
  3 29  1  0
  4 30  1  0
  4 31  1  0
  5 32  1  0
  5 33  1  0
  6 34  1  0
  7 35  1  0
  7 36  1  0
 12 37  1  0
 13 38  1  0
 14 39  1  0
 14 40  1  0
 15 41  1  0
 15 42  1  0
 16 43  1  0
 16 44  1  0
 17 45  1  0
 17 46  1  0
 19 47  1  0
 20 48  1  0
 21 49  1  0
 22 50  1  0
 23 51  1  0
M  CHG  1   2   1
M  END
> <ID>
HT0999

> <Class>
0.0

> <Clusters>
187

> <Fold>
5

$$$$