
     RDKit          3D

 54 59  0  0  0  0  0  0  0  0999 V2000
    4.8198   -0.4727    1.7663 C   0  0  0  0  0  0  0  0  0  0  0  0
    3.8642   -0.7369    0.5989 C   0  0  0  0  0  0  0  0  0  0  0  0
    2.9878    0.4994    0.2619 C   0  0  0  0  0  0  0  0  0  0  0  0
    3.0099    0.6329   -1.2648 C   0  0  0  0  0  0  0  0  0  0  0  0
    4.0896   -0.1760   -1.7091 O   0  0  0  0  0  0  0  0  0  0  0  0
    4.5940   -0.9411   -0.6775 C   0  0  0  0  0  0  0  0  0  0  0  0
    5.5237   -1.7746   -0.8399 O   0  0  0  0  0  0  0  0  0  0  0  0
    1.6487    0.1102   -1.7506 C   0  0  0  0  0  0  0  0  0  0  0  0
    1.7481   -1.2625   -2.0427 O   0  0  0  0  0  0  0  0  0  0  0  0
    0.6375    0.4531   -0.5998 C   0  0  0  0  0  0  0  0  0  0  0  0
    0.0821    1.9048   -0.7214 C   0  0  0  0  0  0  0  0  0  0  0  0
    0.4453    2.5669    0.4835 O   0  0  0  0  0  0  0  0  0  0  0  0
    1.1328    1.7289    1.3262 C   0  0  0  0  0  0  0  0  0  0  0  0
    1.4668    2.0542    2.4958 O   0  0  0  0  0  0  0  0  0  0  0  0
    1.4912    0.4468    0.6733 C   0  0  0  0  0  0  0  0  0  0  0  0
    1.1512   -0.6615    1.4775 O   0  0  0  0  0  0  0  0  0  0  0  0
   -0.0454   -1.2332    0.9792 C   0  0  0  0  0  0  0  0  0  0  0  0
    0.2076   -2.5443    0.4952 O   0  0  0  0  0  0  0  0  0  0  0  0
   -0.2947   -2.7225   -0.7783 C   0  0  0  0  0  0  0  0  0  0  0  0
   -0.1921   -3.8076   -1.4084 O   0  0  0  0  0  0  0  0  0  0  0  0
   -1.0215   -1.5309   -1.2725 C   0  0  0  0  0  0  0  0  0  0  0  0
   -0.7246   -1.1893   -2.6008 O   0  0  0  0  0  0  0  0  0  0  0  0
   -0.5939   -0.4414   -0.2349 C   0  0  0  0  0  0  0  0  0  0  0  0
   -1.7308    0.5891    0.1563 C   0  0  0  0  0  0  0  0  0  0  0  0
   -1.4341    1.7739   -0.7759 C   0  0  0  0  0  0  0  0  0  0  0  0
   -2.0420    2.9604   -0.3396 O   0  0  0  0  0  0  0  0  0  0  0  0
   -3.2706    0.1934    0.2808 C   0  0  0  0  0  0  0  0  0  0  0  0
   -3.4612   -1.1255    1.0787 C   0  0  0  0  0  0  0  0  0  0  0  0
   -4.0188    1.2706    1.1199 C   0  0  0  0  0  0  0  0  0  0  0  0
   -4.0039    0.1309   -1.0883 C   0  0  0  0  0  0  0  0  0  0  0  0
    5.4301   -1.3783    1.9695 H   0  0  0  0  0  0  0  0  0  0  0  0
    4.2358   -0.2314    2.6797 H   0  0  0  0  0  0  0  0  0  0  0  0
    5.5019    0.3751    1.5391 H   0  0  0  0  0  0  0  0  0  0  0  0
    3.2646   -1.6469    0.8100 H   0  0  0  0  0  0  0  0  0  0  0  0
    3.4888    1.4092    0.6719 H   0  0  0  0  0  0  0  0  0  0  0  0
    3.1637    1.6918   -1.5702 H   0  0  0  0  0  0  0  0  0  0  0  0
    1.3646    0.6303   -2.6907 H   0  0  0  0  0  0  0  0  0  0  0  0
    2.0546   -1.7345   -1.2288 H   0  0  0  0  0  0  0  0  0  0  0  0
    0.4747    2.4693   -1.5949 H   0  0  0  0  0  0  0  0  0  0  0  0
   -0.7793   -1.2973    1.8070 H   0  0  0  0  0  0  0  0  0  0  0  0
   -2.0775   -1.8107   -1.2103 H   0  0  0  0  0  0  0  0  0  0  0  0
   -1.1286   -1.8890   -3.1780 H   0  0  0  0  0  0  0  0  0  0  0  0
   -1.4633    0.9348    1.1818 H   0  0  0  0  0  0  0  0  0  0  0  0
   -1.7468    1.5302   -1.8180 H   0  0  0  0  0  0  0  0  0  0  0  0
   -1.9613    3.6099   -1.0860 H   0  0  0  0  0  0  0  0  0  0  0  0
   -2.9472   -2.0031    0.6591 H   0  0  0  0  0  0  0  0  0  0  0  0
   -3.0906   -1.0018    2.1190 H   0  0  0  0  0  0  0  0  0  0  0  0
   -4.5387   -1.3911    1.1438 H   0  0  0  0  0  0  0  0  0  0  0  0
   -4.1071    2.2384    0.5893 H   0  0  0  0  0  0  0  0  0  0  0  0
   -3.5130    1.4492    2.0933 H   0  0  0  0  0  0  0  0  0  0  0  0
   -5.0605    0.9472    1.3379 H   0  0  0  0  0  0  0  0  0  0  0  0
   -3.4699   -0.4292   -1.8710 H   0  0  0  0  0  0  0  0  0  0  0  0
   -5.0128   -0.3199   -0.9718 H   0  0  0  0  0  0  0  0  0  0  0  0
   -4.1492    1.1521   -1.5016 H   0  0  0  0  0  0  0  0  0  0  0  0
  1  2  1  0
  2  3  1  0
  3  4  1  0
  4  5  1  0
  5  6  1  0
  6  2  1  0
  6  7  2  0
  4  8  1  0
  8  9  1  0
  8 10  1  0
 10 11  1  0
 11 12  1  0
 12 13  1  0
 13 14  2  0
 13 15  1  0
 15  3  1  0
 15 10  1  0
 15 16  1  0
 16 17  1  0
 17 18  1  0
 18 19  1  0
 19 20  2  0
 19 21  1  0
 21 22  1  0
 21 23  1  0
 23 10  1  0
 23 17  1  0
 23 24  1  0
 24 25  1  0
 25 11  1  0
 25 26  1  0
 24 27  1  0
 27 28  1  0
 27 29  1  0
 27 30  1  0
  1 31  1  0
  1 32  1  0
  1 33  1  0
  2 34  1  0
  3 35  1  0
  4 36  1  0
  8 37  1  0
  9 38  1  0
 11 39  1  0
 17 40  1  0
 21 41  1  0
 22 42  1  0
 24 43  1  0
 25 44  1  0
 26 45  1  0
 28 46  1  0
 28 47  1  0
 28 48  1  0
 29 49  1  0
 29 50  1  0
 29 51  1  0
 30 52  1  0
 30 53  1  0
 30 54  1  0
M  END
> <ID>
HT0979

> <Class>
0.0

> <Clusters>
119

> <Fold>
5

$$$$