
     RDKit          3D

 53 58  0  0  0  0  0  0  0  0999 V2000
    4.7574   -0.4618   -1.5168 C   0  0  0  0  0  0  0  0  0  0  0  0
    4.1935    0.4958   -0.4671 C   0  0  0  0  0  0  0  0  0  0  0  0
    4.7545    0.1996    0.9087 C   0  0  0  0  0  0  0  0  0  0  0  0
    5.9308    0.4662    1.2691 O   0  0  0  0  0  0  0  0  0  0  0  0
    3.8077   -0.3709    1.7638 O   0  0  0  0  0  0  0  0  0  0  0  0
    2.7378   -0.7417    0.9241 C   0  0  0  0  0  0  0  0  0  0  0  0
    1.3071   -0.9402    1.4039 C   0  0  0  0  0  0  0  0  0  0  0  0
    0.4664   -0.4978    0.1374 C   0  0  0  0  0  0  0  0  0  0  0  0
   -0.2635   -1.6233   -0.5823 C   0  0  0  0  0  0  0  0  0  0  0  0
   -1.3999   -1.9589    0.3130 C   0  0  0  0  0  0  0  0  0  0  0  0
   -1.9076   -0.4883    0.5746 C   0  0  0  0  0  0  0  0  0  0  0  0
   -3.3548   -0.1890   -0.0211 C   0  0  0  0  0  0  0  0  0  0  0  0
   -3.5672   -0.6718   -1.4833 C   0  0  0  0  0  0  0  0  0  0  0  0
   -3.7078    1.3128    0.0497 C   0  0  0  0  0  0  0  0  0  0  0  0
   -4.3989   -0.9347    0.8486 C   0  0  0  0  0  0  0  0  0  0  0  0
   -0.6602    0.5106    0.2769 C   0  0  0  0  0  0  0  0  0  0  0  0
   -0.4410    1.2334   -1.1165 C   0  0  0  0  0  0  0  0  0  0  0  0
   -0.4549    2.6230   -0.8581 O   0  0  0  0  0  0  0  0  0  0  0  0
   -0.5703    2.9001    0.4798 C   0  0  0  0  0  0  0  0  0  0  0  0
   -0.6098    4.0766    0.9261 O   0  0  0  0  0  0  0  0  0  0  0  0
   -0.6492    1.6966    1.3276 C   0  0  0  0  0  0  0  0  0  0  0  0
    0.4275    1.7119    2.2209 O   0  0  0  0  0  0  0  0  0  0  0  0
    0.8229    0.8967   -1.7182 O   0  0  0  0  0  0  0  0  0  0  0  0
    1.4562   -0.1054   -0.9440 C   0  0  0  0  0  0  0  0  0  0  0  0
    1.6085   -1.4559   -1.6593 C   0  0  0  0  0  0  0  0  0  0  0  0
    2.3427   -1.6680   -2.6577 O   0  0  0  0  0  0  0  0  0  0  0  0
    0.7355   -2.4251   -1.1481 O   0  0  0  0  0  0  0  0  0  0  0  0
    2.6838    0.3626   -0.1191 C   0  0  0  0  0  0  0  0  0  0  0  0
    2.3403    1.5781    0.5095 O   0  0  0  0  0  0  0  0  0  0  0  0
    4.3492   -0.2015   -2.5146 H   0  0  0  0  0  0  0  0  0  0  0  0
    5.8605   -0.3437   -1.5696 H   0  0  0  0  0  0  0  0  0  0  0  0
    4.5387   -1.5215   -1.2735 H   0  0  0  0  0  0  0  0  0  0  0  0
    4.4471    1.5378   -0.7637 H   0  0  0  0  0  0  0  0  0  0  0  0
    3.0371   -1.7132    0.4596 H   0  0  0  0  0  0  0  0  0  0  0  0
    1.1560   -2.0168    1.6339 H   0  0  0  0  0  0  0  0  0  0  0  0
    1.1149   -0.4097    2.3441 H   0  0  0  0  0  0  0  0  0  0  0  0
   -0.8130   -1.2721   -1.5008 H   0  0  0  0  0  0  0  0  0  0  0  0
   -2.1253   -2.6371   -0.1749 H   0  0  0  0  0  0  0  0  0  0  0  0
   -1.0529   -2.4454    1.2498 H   0  0  0  0  0  0  0  0  0  0  0  0
   -2.0324   -0.4556    1.6813 H   0  0  0  0  0  0  0  0  0  0  0  0
   -3.5305   -1.7749   -1.5735 H   0  0  0  0  0  0  0  0  0  0  0  0
   -4.5758   -0.3724   -1.8426 H   0  0  0  0  0  0  0  0  0  0  0  0
   -2.8455   -0.2501   -2.1971 H   0  0  0  0  0  0  0  0  0  0  0  0
   -3.6804    1.6821    1.0948 H   0  0  0  0  0  0  0  0  0  0  0  0
   -4.7395    1.4907   -0.3246 H   0  0  0  0  0  0  0  0  0  0  0  0
   -3.0313    1.9228   -0.5764 H   0  0  0  0  0  0  0  0  0  0  0  0
   -4.2164   -2.0301    0.8425 H   0  0  0  0  0  0  0  0  0  0  0  0
   -4.3615   -0.5856    1.9034 H   0  0  0  0  0  0  0  0  0  0  0  0
   -5.4306   -0.7601    0.4718 H   0  0  0  0  0  0  0  0  0  0  0  0
   -1.2373    1.0199   -1.8391 H   0  0  0  0  0  0  0  0  0  0  0  0
   -1.6097    1.7578    1.8846 H   0  0  0  0  0  0  0  0  0  0  0  0
    0.0632    1.5653    3.1332 H   0  0  0  0  0  0  0  0  0  0  0  0
    2.3277    2.2823   -0.1908 H   0  0  0  0  0  0  0  0  0  0  0  0
  1  2  1  0
  2  3  1  0
  3  4  2  0
  3  5  1  0
  5  6  1  0
  6  7  1  0
  7  8  1  0
  8  9  1  0
  9 10  1  0
 10 11  1  0
 11 12  1  0
 12 13  1  0
 12 14  1  0
 12 15  1  0
 11 16  1  0
 16  8  1  0
 16 17  1  0
 17 18  1  0
 18 19  1  0
 19 20  2  0
 19 21  1  0
 21 16  1  0
 21 22  1  0
 17 23  1  0
 23 24  1  0
 24  8  1  0
 24 25  1  0
 25 26  2  0
 25 27  1  0
 27  9  1  0
 24 28  1  0
 28  2  1  0
 28  6  1  0
 28 29  1  0
  1 30  1  0
  1 31  1  0
  1 32  1  0
  2 33  1  0
  6 34  1  0
  7 35  1  0
  7 36  1  0
  9 37  1  0
 10 38  1  0
 10 39  1  0
 11 40  1  0
 13 41  1  0
 13 42  1  0
 13 43  1  0
 14 44  1  0
 14 45  1  0
 14 46  1  0
 15 47  1  0
 15 48  1  0
 15 49  1  0
 17 50  1  0
 21 51  1  0
 22 52  1  0
 29 53  1  0
M  END
> <ID>
HT0975

> <Class>
0.0

> <Clusters>
119

> <Fold>
5

$$$$