
     RDKit          3D

 55 60  0  0  0  0  0  0  0  0999 V2000
    4.6080    1.7200   -0.2556 C   0  0  0  0  0  0  0  0  0  0  0  0
    4.3065    0.4423    0.5353 C   0  0  0  0  0  0  0  0  0  0  0  0
    4.9328   -0.7600   -0.1348 C   0  0  0  0  0  0  0  0  0  0  0  0
    6.1639   -1.0231   -0.1202 O   0  0  0  0  0  0  0  0  0  0  0  0
    3.9870   -1.5827   -0.7460 O   0  0  0  0  0  0  0  0  0  0  0  0
    2.7935   -0.8308   -0.7550 C   0  0  0  0  0  0  0  0  0  0  0  0
    1.4225   -1.4665   -0.7572 C   0  0  0  0  0  0  0  0  0  0  0  0
    1.1062   -1.9928   -2.0203 O   0  0  0  0  0  0  0  0  0  0  0  0
    0.5372   -0.2115   -0.3752 C   0  0  0  0  0  0  0  0  0  0  0  0
    0.1435    0.6453   -1.6147 C   0  0  0  0  0  0  0  0  0  0  0  0
    0.7409    1.9190   -1.4220 O   0  0  0  0  0  0  0  0  0  0  0  0
    1.4644    1.9830   -0.2559 C   0  0  0  0  0  0  0  0  0  0  0  0
    1.9236    3.0655    0.1920 O   0  0  0  0  0  0  0  0  0  0  0  0
    1.4726    0.7003    0.4865 C   0  0  0  0  0  0  0  0  0  0  0  0
    0.9172    0.8881    1.7688 O   0  0  0  0  0  0  0  0  0  0  0  0
   -0.2363    0.0832    1.8801 C   0  0  0  0  0  0  0  0  0  0  0  0
    0.0632   -1.1114    2.5881 O   0  0  0  0  0  0  0  0  0  0  0  0
   -0.4312   -2.2158    1.9277 C   0  0  0  0  0  0  0  0  0  0  0  0
   -0.2839   -3.3920    2.3513 O   0  0  0  0  0  0  0  0  0  0  0  0
   -1.2213   -1.8425    0.7330 C   0  0  0  0  0  0  0  0  0  0  0  0
   -1.0088   -2.6963   -0.3596 O   0  0  0  0  0  0  0  0  0  0  0  0
   -0.7417   -0.3739    0.4899 C   0  0  0  0  0  0  0  0  0  0  0  0
   -1.7876    0.6353   -0.1312 C   0  0  0  0  0  0  0  0  0  0  0  0
   -1.3770    0.7552   -1.6101 C   0  0  0  0  0  0  0  0  0  0  0  0
   -1.7743    1.9846   -2.1622 O   0  0  0  0  0  0  0  0  0  0  0  0
   -3.3510    0.4676    0.1211 C   0  0  0  0  0  0  0  0  0  0  0  0
   -3.6508    0.5074    1.6420 C   0  0  0  0  0  0  0  0  0  0  0  0
   -4.1066    1.6838   -0.4808 C   0  0  0  0  0  0  0  0  0  0  0  0
   -3.9579   -0.8244   -0.5115 C   0  0  0  0  0  0  0  0  0  0  0  0
    2.8316   -0.0630    0.5481 C   0  0  0  0  0  0  0  0  0  0  0  0
    2.7488   -0.9932    1.6143 O   0  0  0  0  0  0  0  0  0  0  0  0
    4.3235    2.6070    0.3436 H   0  0  0  0  0  0  0  0  0  0  0  0
    5.7007    1.7974   -0.4406 H   0  0  0  0  0  0  0  0  0  0  0  0
    4.0894    1.7403   -1.2356 H   0  0  0  0  0  0  0  0  0  0  0  0
    4.7069    0.5526    1.5672 H   0  0  0  0  0  0  0  0  0  0  0  0
    2.8476   -0.1423   -1.6345 H   0  0  0  0  0  0  0  0  0  0  0  0
    1.3913   -2.2694    0.0110 H   0  0  0  0  0  0  0  0  0  0  0  0
    1.6446   -2.8203   -2.1241 H   0  0  0  0  0  0  0  0  0  0  0  0
    0.4939    0.2393   -2.5865 H   0  0  0  0  0  0  0  0  0  0  0  0
   -1.0061    0.6445    2.4466 H   0  0  0  0  0  0  0  0  0  0  0  0
   -2.2717   -1.9043    1.0526 H   0  0  0  0  0  0  0  0  0  0  0  0
   -1.4777   -3.5475   -0.1565 H   0  0  0  0  0  0  0  0  0  0  0  0
   -1.5354    1.6305    0.3073 H   0  0  0  0  0  0  0  0  0  0  0  0
   -1.7993   -0.0878   -2.2002 H   0  0  0  0  0  0  0  0  0  0  0  0
   -1.6622    1.9035   -3.1454 H   0  0  0  0  0  0  0  0  0  0  0  0
   -4.7442    0.4298    1.8281 H   0  0  0  0  0  0  0  0  0  0  0  0
   -3.2987    1.4645    2.0841 H   0  0  0  0  0  0  0  0  0  0  0  0
   -3.1713   -0.3175    2.1991 H   0  0  0  0  0  0  0  0  0  0  0  0
   -3.6525    2.6431   -0.1506 H   0  0  0  0  0  0  0  0  0  0  0  0
   -4.1119    1.6512   -1.5901 H   0  0  0  0  0  0  0  0  0  0  0  0
   -5.1727    1.6852   -0.1638 H   0  0  0  0  0  0  0  0  0  0  0  0
   -3.2203   -1.3922   -1.1090 H   0  0  0  0  0  0  0  0  0  0  0  0
   -4.3628   -1.5132    0.2607 H   0  0  0  0  0  0  0  0  0  0  0  0
   -4.8086   -0.6052   -1.1925 H   0  0  0  0  0  0  0  0  0  0  0  0
    2.8624   -0.4898    2.4631 H   0  0  0  0  0  0  0  0  0  0  0  0
  1  2  1  0
  2  3  1  0
  3  4  2  0
  3  5  1  0
  5  6  1  0
  6  7  1  0
  7  8  1  0
  7  9  1  0
  9 10  1  0
 10 11  1  0
 11 12  1  0
 12 13  2  0
 12 14  1  0
 14  9  1  0
 14 15  1  0
 15 16  1  0
 16 17  1  0
 17 18  1  0
 18 19  2  0
 18 20  1  0
 20 21  1  0
 20 22  1  0
 22  9  1  0
 22 16  1  0
 22 23  1  0
 23 24  1  0
 24 10  1  0
 24 25  1  0
 23 26  1  0
 26 27  1  0
 26 28  1  0
 26 29  1  0
 14 30  1  0
 30  2  1  0
 30  6  1  0
 30 31  1  0
  1 32  1  0
  1 33  1  0
  1 34  1  0
  2 35  1  0
  6 36  1  0
  7 37  1  0
  8 38  1  0
 10 39  1  0
 16 40  1  0
 20 41  1  0
 21 42  1  0
 23 43  1  0
 24 44  1  0
 25 45  1  0
 27 46  1  0
 27 47  1  0
 27 48  1  0
 28 49  1  0
 28 50  1  0
 28 51  1  0
 29 52  1  0
 29 53  1  0
 29 54  1  0
 31 55  1  0
M  END
> <ID>
HT0977

> <Class>
0.0

> <Clusters>
119

> <Fold>
5

$$$$