
     RDKit          3D

 62 66  0  0  0  0  0  0  0  0999 V2000
   -2.8676   -0.3756   -3.0544 C   0  0  0  0  0  0  0  0  0  0  0  0
   -3.4495   -0.3184   -1.6383 C   0  0  0  0  0  0  0  0  0  0  0  0
   -4.8784   -0.8772   -1.6500 C   0  0  0  0  0  0  0  0  0  0  0  0
   -3.4803    1.0255   -1.2144 O   0  0  0  0  0  0  0  0  0  0  0  0
   -2.7792    1.0788   -0.0079 C   0  0  2  0  0  0  0  0  0  0  0  0
   -1.4194    1.7847   -0.2155 C   0  0  0  0  0  0  0  0  0  0  0  0
   -0.4026    0.6499   -0.1961 C   0  0  1  0  0  0  0  0  0  0  0  0
    1.0914    0.9702    0.0280 C   0  0  2  0  0  0  0  0  0  0  0  0
    1.5707    2.0137   -1.0045 C   0  0  0  0  0  0  0  0  0  0  0  0
    3.0673    2.2889   -0.8714 C   0  0  2  0  0  0  0  0  0  0  0  0
    3.4389    3.2159   -1.8332 F   0  0  0  0  0  0  0  0  0  0  0  0
    3.8318    0.9875   -0.9972 C   0  0  0  0  0  0  0  0  0  0  0  0
    4.7732    0.8394   -1.9470 C   0  0  0  0  0  0  0  0  0  0  0  0
    5.4696   -0.4334   -2.1271 C   0  0  0  0  0  0  0  0  0  0  0  0
    6.3608   -0.5489   -3.0091 O   0  0  0  0  0  0  0  0  0  0  0  0
    5.1169   -1.5733   -1.2878 C   0  0  0  0  0  0  0  0  0  0  0  0
    4.1904   -1.4537   -0.3378 C   0  0  0  0  0  0  0  0  0  0  0  0
    3.4680   -0.1438   -0.0171 C   0  0  1  0  0  0  0  0  0  0  0  0
    3.9398    0.2865    1.3939 C   0  0  0  0  0  0  0  0  0  0  0  0
    1.9068   -0.3664   -0.1171 C   0  0  1  0  0  0  0  0  0  0  0  0
    1.3274   -1.5403    0.7554 C   0  0  1  0  0  0  0  0  0  0  0  0
    1.6916   -1.4023    2.1026 O   0  0  0  0  0  0  0  0  0  0  0  0
   -0.2165   -1.6930    0.6281 C   0  0  0  0  0  0  0  0  0  0  0  0
   -0.9695   -0.3504    0.8161 C   0  0  1  0  0  0  0  0  0  0  0  0
   -0.8382    0.1418    2.2968 C   0  0  0  0  0  0  0  0  0  0  0  0
   -2.4758   -0.3684    0.4002 C   0  0  2  0  0  0  0  0  0  0  0  0
   -2.6461   -1.1033   -0.7829 O   0  0  0  0  0  0  0  0  0  0  0  0
   -3.3931   -0.9854    1.4624 C   0  0  0  0  0  0  0  0  0  0  0  0
   -3.5122   -2.2020    1.4846 O   0  0  0  0  0  0  0  0  0  0  0  0
   -4.1515   -0.1924    2.4996 C   0  0  0  0  0  0  0  0  0  0  0  0
   -5.4986   -0.0829    2.1318 O   0  0  0  0  0  0  0  0  0  0  0  0
   -1.8490    0.0630   -3.0724 H   0  0  0  0  0  0  0  0  0  0  0  0
   -3.5037    0.2016   -3.7594 H   0  0  0  0  0  0  0  0  0  0  0  0
   -2.8041   -1.4280   -3.4052 H   0  0  0  0  0  0  0  0  0  0  0  0
   -4.8759   -1.9398   -1.9747 H   0  0  0  0  0  0  0  0  0  0  0  0
   -5.3228   -0.8223   -0.6353 H   0  0  0  0  0  0  0  0  0  0  0  0
   -5.5200   -0.2896   -2.3412 H   0  0  0  0  0  0  0  0  0  0  0  0
   -3.3772    1.6529    0.7238 H   0  0  0  0  0  0  0  0  0  0  0  0
   -1.3865    2.3377   -1.1801 H   0  0  0  0  0  0  0  0  0  0  0  0
   -1.2197    2.4993    0.6123 H   0  0  0  0  0  0  0  0  0  0  0  0
   -0.4575    0.1886   -1.2102 H   0  0  0  0  0  0  0  0  0  0  0  0
    1.2351    1.4152    1.0305 H   0  0  0  0  0  0  0  0  0  0  0  0
    1.3541    1.6589   -2.0372 H   0  0  0  0  0  0  0  0  0  0  0  0
    1.0258    2.9702   -0.8504 H   0  0  0  0  0  0  0  0  0  0  0  0
    3.2719    2.7407    0.1221 H   0  0  0  0  0  0  0  0  0  0  0  0
    5.0241    1.6507   -2.6184 H   0  0  0  0  0  0  0  0  0  0  0  0
    5.6188   -2.5222   -1.4329 H   0  0  0  0  0  0  0  0  0  0  0  0
    4.0056   -2.3194    0.2855 H   0  0  0  0  0  0  0  0  0  0  0  0
    4.9840    0.6659    1.3464 H   0  0  0  0  0  0  0  0  0  0  0  0
    3.9513   -0.5638    2.1064 H   0  0  0  0  0  0  0  0  0  0  0  0
    3.3092    1.0888    1.8237 H   0  0  0  0  0  0  0  0  0  0  0  0
    1.7378   -0.7030   -1.1679 H   0  0  0  0  0  0  0  0  0  0  0  0
    1.7577   -2.4920    0.3680 H   0  0  0  0  0  0  0  0  0  0  0  0
    1.5791   -2.2921    2.5285 H   0  0  0  0  0  0  0  0  0  0  0  0
   -0.4292   -2.1105   -0.3801 H   0  0  0  0  0  0  0  0  0  0  0  0
   -0.5853   -2.4405    1.3637 H   0  0  0  0  0  0  0  0  0  0  0  0
    0.1963    0.3679    2.6039 H   0  0  0  0  0  0  0  0  0  0  0  0
   -1.4179    1.0693    2.4734 H   0  0  0  0  0  0  0  0  0  0  0  0
   -1.2120   -0.6357    2.9961 H   0  0  0  0  0  0  0  0  0  0  0  0
   -4.0942   -0.7310    3.4692 H   0  0  0  0  0  0  0  0  0  0  0  0
   -3.7131    0.8086    2.6874 H   0  0  0  0  0  0  0  0  0  0  0  0
   -5.5489    0.6389    1.4523 H   0  0  0  0  0  0  0  0  0  0  0  0
  1  2  1  0
  2  3  1  0
  2  4  1  0
  4  5  1  0
  5  6  1  0
  7  6  1  0
  7  8  1  0
  8  9  1  0
  9 10  1  0
 10 11  1  0
 10 12  1  0
 12 13  2  0
 13 14  1  0
 14 15  2  0
 14 16  1  0
 16 17  2  0
 17 18  1  0
 18 12  1  0
 18 19  1  1
 18 20  1  0
 20  8  1  0
 20 21  1  0
 21 22  1  0
 21 23  1  0
 23 24  1  0
 24  7  1  0
 24 25  1  1
 24 26  1  0
 26  5  1  0
 26 27  1  0
 27  2  1  0
 26 28  1  1
 28 29  2  0
 28 30  1  0
 30 31  1  0
  1 32  1  0
  1 33  1  0
  1 34  1  0
  3 35  1  0
  3 36  1  0
  3 37  1  0
  5 38  1  1
  6 39  1  0
  6 40  1  0
  7 41  1  6
  8 42  1  1
  9 43  1  0
  9 44  1  0
 10 45  1  1
 13 46  1  0
 16 47  1  0
 17 48  1  0
 19 49  1  0
 19 50  1  0
 19 51  1  0
 20 52  1  6
 21 53  1  6
 22 54  1  0
 23 55  1  0
 23 56  1  0
 25 57  1  0
 25 58  1  0
 25 59  1  0
 30 60  1  0
 30 61  1  0
 31 62  1  0
M  END
> <ID>
HT0901

> <Class>
0.0

> <Clusters>
189

> <Fold>
5

$$$$