
     RDKit          3D

 37 36  0  0  0  0  0  0  0  0999 V2000
    4.9703   -0.3153   -2.2521 N   0  0  0  0  0  0  0  0  0  0  0  0
    4.3165   -0.0535   -0.9688 C   0  0  0  0  0  0  0  0  0  0  0  0
    2.8393   -0.4906   -1.0343 C   0  0  0  0  0  0  0  0  0  0  0  0
    2.0628   -0.1035    0.2366 C   0  0  0  0  0  0  0  0  0  0  0  0
    0.6015   -0.4584    0.1685 C   0  0  0  0  0  0  0  0  0  0  0  0
    0.1273   -1.0470   -0.8428 O   0  0  0  0  0  0  0  0  0  0  0  0
   -0.2522   -0.1273    1.2726 N   0  0  0  0  0  0  0  0  0  0  0  0
   -1.6817   -0.4571    1.2816 C   0  0  0  0  0  0  0  0  0  0  0  0
   -2.2799   -0.2703    2.6844 C   0  0  0  0  0  0  0  0  0  0  0  0
   -1.5399   -1.4341    3.8765 S   0  0  0  0  0  0  0  0  0  0  0  0
   -2.4112    0.4183    0.2976 C   0  0  0  0  0  0  0  0  0  0  0  0
   -2.3214    1.6737    0.3980 O   0  0  0  0  0  0  0  0  0  0  0  0
   -3.2180   -0.1681   -0.7352 N   0  0  0  0  0  0  0  0  0  0  0  0
   -3.9429    0.6393   -1.7164 C   0  0  0  0  0  0  0  0  0  0  0  0
   -5.1234    1.3319   -1.1016 C   0  0  0  0  0  0  0  0  0  0  0  0
   -5.4334    1.1401    0.1063 O   0  0  0  0  0  0  0  0  0  0  0  0
   -5.8871    2.1929   -1.8833 O   0  0  0  0  0  0  0  0  0  0  0  0
    5.0492   -0.7878    0.1265 C   0  0  0  0  0  0  0  0  0  0  0  0
    5.1832   -2.0388    0.0681 O   0  0  0  0  0  0  0  0  0  0  0  0
    5.5836   -0.0967    1.2113 O   0  0  0  0  0  0  0  0  0  0  0  0
    4.5104    0.2749   -2.9848 H   0  0  0  0  0  0  0  0  0  0  0  0
    5.9588    0.0225   -2.1925 H   0  0  0  0  0  0  0  0  0  0  0  0
    4.3528    1.0413   -0.7677 H   0  0  0  0  0  0  0  0  0  0  0  0
    2.7786   -1.5908   -1.1927 H   0  0  0  0  0  0  0  0  0  0  0  0
    2.3594    0.0066   -1.9062 H   0  0  0  0  0  0  0  0  0  0  0  0
    2.1496    0.9915    0.4009 H   0  0  0  0  0  0  0  0  0  0  0  0
    2.5022   -0.6231    1.1143 H   0  0  0  0  0  0  0  0  0  0  0  0
    0.1752    0.3454    2.1024 H   0  0  0  0  0  0  0  0  0  0  0  0
   -1.8086   -1.5250    0.9958 H   0  0  0  0  0  0  0  0  0  0  0  0
   -2.1062    0.7668    3.0440 H   0  0  0  0  0  0  0  0  0  0  0  0
   -3.3749   -0.4504    2.6537 H   0  0  0  0  0  0  0  0  0  0  0  0
   -2.1271   -2.5594    3.2625 H   0  0  0  0  0  0  0  0  0  0  0  0
   -3.2472   -1.2068   -0.8306 H   0  0  0  0  0  0  0  0  0  0  0  0
   -4.3071   -0.0158   -2.5370 H   0  0  0  0  0  0  0  0  0  0  0  0
   -3.2566    1.3935   -2.1582 H   0  0  0  0  0  0  0  0  0  0  0  0
   -6.6921    2.6731   -1.4926 H   0  0  0  0  0  0  0  0  0  0  0  0
    5.4903    0.9079    1.2951 H   0  0  0  0  0  0  0  0  0  0  0  0
  1  2  1  0
  2  3  1  0
  3  4  1  0
  4  5  1  0
  5  6  2  0
  5  7  1  0
  7  8  1  0
  8  9  1  0
  9 10  1  0
  8 11  1  0
 11 12  2  0
 11 13  1  0
 13 14  1  0
 14 15  1  0
 15 16  2  0
 15 17  1  0
  2 18  1  0
 18 19  2  0
 18 20  1  0
  1 21  1  0
  1 22  1  0
  2 23  1  0
  3 24  1  0
  3 25  1  0
  4 26  1  0
  4 27  1  0
  7 28  1  0
  8 29  1  0
  9 30  1  0
  9 31  1  0
 10 32  1  0
 13 33  1  0
 14 34  1  0
 14 35  1  0
 17 36  1  0
 20 37  1  0
M  END
> <ID>
HT0993

> <Class>
0.0

> <Clusters>
5

> <Fold>
5

$$$$