
     RDKit          3D

 40 40  0  0  0  0  0  0  0  0999 V2000
   -1.3702   -3.2715    0.4444 C   0  0  0  0  0  0  0  0  0  0  0  0
   -1.3020   -2.2814   -0.7246 C   0  0  0  0  0  0  0  0  0  0  0  0
   -2.2476   -2.7012   -1.8571 C   0  0  0  0  0  0  0  0  0  0  0  0
   -1.5979   -0.8622   -0.2575 C   0  0  0  0  0  0  0  0  0  0  0  0
   -2.8631   -0.5485    0.2719 C   0  0  0  0  0  0  0  0  0  0  0  0
   -3.1587    0.7472    0.6875 C   0  0  0  0  0  0  0  0  0  0  0  0
   -2.2047    1.7552    0.5752 C   0  0  0  0  0  0  0  0  0  0  0  0
   -0.9289    1.4816    0.0490 C   0  0  0  0  0  0  0  0  0  0  0  0
    0.0943    2.6025   -0.0800 C   0  0  0  0  0  0  0  0  0  0  0  0
    0.4886    3.1481    1.2977 C   0  0  0  0  0  0  0  0  0  0  0  0
   -0.4208    3.7248   -0.9902 C   0  0  0  0  0  0  0  0  0  0  0  0
   -0.6197    0.1578   -0.3475 C   0  0  0  0  0  0  0  0  0  0  0  0
    0.6556   -0.1428   -0.8338 O   0  0  0  0  0  0  0  0  0  0  0  0
    1.7023   -0.5527    0.0380 C   0  0  0  0  0  0  0  0  0  0  0  0
    2.8618   -0.7750   -0.7257 O   0  0  0  0  0  0  0  0  0  0  0  0
    4.1087   -1.2783    0.3236 P   0  0  0  0  0  0  0  0  0  0  0  0
    3.7530   -2.6090    0.9487 O   0  0  0  0  0  0  0  0  0  0  0  0
    5.5361   -1.4502   -0.5682 O   0  0  0  0  0  0  0  0  0  0  0  0
    4.3518   -0.1286    1.5427 O   0  0  0  0  0  0  0  0  0  0  0  0
   -0.6828   -2.9503    1.2560 H   0  0  0  0  0  0  0  0  0  0  0  0
   -2.4004   -3.3404    0.8533 H   0  0  0  0  0  0  0  0  0  0  0  0
   -1.0575   -4.2821    0.1052 H   0  0  0  0  0  0  0  0  0  0  0  0
   -0.2738   -2.3461   -1.1386 H   0  0  0  0  0  0  0  0  0  0  0  0
   -1.9483   -3.6953   -2.2527 H   0  0  0  0  0  0  0  0  0  0  0  0
   -3.2980   -2.7671   -1.5030 H   0  0  0  0  0  0  0  0  0  0  0  0
   -2.1938   -1.9667   -2.6891 H   0  0  0  0  0  0  0  0  0  0  0  0
   -3.6278   -1.3086    0.3639 H   0  0  0  0  0  0  0  0  0  0  0  0
   -4.1362    0.9730    1.0940 H   0  0  0  0  0  0  0  0  0  0  0  0
   -2.4658    2.7534    0.9015 H   0  0  0  0  0  0  0  0  0  0  0  0
    1.0245    2.2235   -0.5533 H   0  0  0  0  0  0  0  0  0  0  0  0
   -0.3750    3.6353    1.7982 H   0  0  0  0  0  0  0  0  0  0  0  0
    1.3029    3.8963    1.1916 H   0  0  0  0  0  0  0  0  0  0  0  0
    0.8579    2.3230    1.9434 H   0  0  0  0  0  0  0  0  0  0  0  0
   -1.2947    4.2415   -0.5406 H   0  0  0  0  0  0  0  0  0  0  0  0
    0.3811    4.4755   -1.1577 H   0  0  0  0  0  0  0  0  0  0  0  0
   -0.7170    3.3084   -1.9767 H   0  0  0  0  0  0  0  0  0  0  0  0
    1.8744    0.2510    0.7883 H   0  0  0  0  0  0  0  0  0  0  0  0
    1.3875   -1.4856    0.5577 H   0  0  0  0  0  0  0  0  0  0  0  0
    6.2311   -1.6613    0.1052 H   0  0  0  0  0  0  0  0  0  0  0  0
    4.5732    0.7069    1.0593 H   0  0  0  0  0  0  0  0  0  0  0  0
  1  2  1  0
  2  3  1  0
  2  4  1  0
  4  5  2  0
  5  6  1  0
  6  7  2  0
  7  8  1  0
  8  9  1  0
  9 10  1  0
  9 11  1  0
  8 12  2  0
 12  4  1  0
 12 13  1  0
 13 14  1  0
 14 15  1  0
 15 16  1  0
 16 17  2  0
 16 18  1  0
 16 19  1  0
  1 20  1  0
  1 21  1  0
  1 22  1  0
  2 23  1  0
  3 24  1  0
  3 25  1  0
  3 26  1  0
  5 27  1  0
  6 28  1  0
  7 29  1  0
  9 30  1  0
 10 31  1  0
 10 32  1  0
 10 33  1  0
 11 34  1  0
 11 35  1  0
 11 36  1  0
 14 37  1  0
 14 38  1  0
 18 39  1  0
 19 40  1  0
M  END
> <ID>
HT0940

> <Class>
0.0

> <Clusters>
208

> <Fold>
5

$$$$