
     RDKit          3D

 35 36  0  0  0  0  0  0  0  0999 V2000
    2.7276   -2.1033   -0.5002 C   0  0  0  0  0  0  0  0  0  0  0  0
    2.1700   -0.8891    0.2528 C   0  0  0  0  0  0  0  0  0  0  0  0
    3.3033   -0.1074    0.9248 C   0  0  0  0  0  0  0  0  0  0  0  0
    1.4024    0.0159   -0.6799 C   0  0  0  0  0  0  0  0  0  0  0  0
    1.9800    0.4851   -1.6981 O   0  0  0  0  0  0  0  0  0  0  0  0
    0.0204    0.4462   -0.3829 C   0  0  0  0  0  0  0  0  0  0  0  0
   -1.0903   -0.3116    0.0156 C   0  0  0  0  0  0  0  0  0  0  0  0
   -2.1636    0.4995    0.1805 N   0  0  0  0  0  0  0  0  0  0  0  0
   -1.7678    1.7271   -0.1046 N   0  0  0  0  0  0  0  0  0  0  0  0
   -2.5352    2.8456   -0.0610 C   0  0  0  0  0  0  0  0  0  0  0  0
   -1.9418    4.0729   -0.3904 C   0  0  0  0  0  0  0  0  0  0  0  0
   -0.5812    4.1103   -0.7499 C   0  0  0  0  0  0  0  0  0  0  0  0
    0.1764    2.9287   -0.7819 C   0  0  0  0  0  0  0  0  0  0  0  0
   -0.4714    1.7362   -0.4523 C   0  0  0  0  0  0  0  0  0  0  0  0
   -1.1689   -1.8079    0.1827 C   0  0  0  0  0  0  0  0  0  0  0  0
   -1.3952   -2.1649    1.6545 C   0  0  0  0  0  0  0  0  0  0  0  0
   -2.2847   -2.3861   -0.6938 C   0  0  0  0  0  0  0  0  0  0  0  0
    3.4761   -1.7873   -1.2586 H   0  0  0  0  0  0  0  0  0  0  0  0
    3.2166   -2.8008    0.2129 H   0  0  0  0  0  0  0  0  0  0  0  0
    1.9132   -2.6515   -1.0179 H   0  0  0  0  0  0  0  0  0  0  0  0
    1.5018   -1.2528    1.0609 H   0  0  0  0  0  0  0  0  0  0  0  0
    2.8887    0.7597    1.4827 H   0  0  0  0  0  0  0  0  0  0  0  0
    3.8412   -0.7587    1.6464 H   0  0  0  0  0  0  0  0  0  0  0  0
    4.0293    0.2660    0.1704 H   0  0  0  0  0  0  0  0  0  0  0  0
   -3.5786    2.7926    0.2229 H   0  0  0  0  0  0  0  0  0  0  0  0
   -2.5246    4.9844   -0.3650 H   0  0  0  0  0  0  0  0  0  0  0  0
   -0.1159    5.0549   -1.0000 H   0  0  0  0  0  0  0  0  0  0  0  0
    1.2249    2.9520   -1.0474 H   0  0  0  0  0  0  0  0  0  0  0  0
   -0.2222   -2.2756   -0.1483 H   0  0  0  0  0  0  0  0  0  0  0  0
   -2.3650   -1.7580    2.0139 H   0  0  0  0  0  0  0  0  0  0  0  0
   -0.5796   -1.7465    2.2817 H   0  0  0  0  0  0  0  0  0  0  0  0
   -1.4003   -3.2683    1.7830 H   0  0  0  0  0  0  0  0  0  0  0  0
   -3.2769   -1.9906   -0.3862 H   0  0  0  0  0  0  0  0  0  0  0  0
   -2.3012   -3.4937   -0.6088 H   0  0  0  0  0  0  0  0  0  0  0  0
   -2.1073   -2.1226   -1.7586 H   0  0  0  0  0  0  0  0  0  0  0  0
  1  2  1  0
  2  3  1  0
  2  4  1  0
  4  5  2  0
  4  6  1  0
  6  7  1  0
  7  8  2  0
  8  9  1  0
  9 10  1  0
 10 11  2  0
 11 12  1  0
 12 13  2  0
 13 14  1  0
 14  6  2  0
 14  9  1  0
  7 15  1  0
 15 16  1  0
 15 17  1  0
  1 18  1  0
  1 19  1  0
  1 20  1  0
  2 21  1  0
  3 22  1  0
  3 23  1  0
  3 24  1  0
 10 25  1  0
 11 26  1  0
 12 27  1  0
 13 28  1  0
 15 29  1  0
 16 30  1  0
 16 31  1  0
 16 32  1  0
 17 33  1  0
 17 34  1  0
 17 35  1  0
M  END
> <ID>
HT1067

> <Class>
0.0

> <Clusters>
208

> <Fold>
5

$$$$