
     RDKit          3D

 42 43  0  0  0  0  0  0  0  0999 V2000
    1.4825    3.5931   -0.3251 C   0  0  0  0  0  0  0  0  0  0  0  0
    1.0004    2.2793    0.2875 C   0  0  0  0  0  0  0  0  0  0  0  0
   -0.4158    1.9421   -0.1918 C   0  0  0  0  0  0  0  0  0  0  0  0
   -0.8611    0.6851    0.4257 N   0  0  0  0  0  0  0  0  0  0  0  0
   -2.0734    0.1393   -0.2116 C   0  0  0  0  0  0  0  0  0  0  0  0
   -3.3422    0.9243    0.1987 C   0  0  0  0  0  0  0  0  0  0  0  0
   -4.6023    0.2954   -0.4099 C   0  0  0  0  0  0  0  0  0  0  0  0
   -4.7271   -1.1813   -0.0184 C   0  0  0  0  0  0  0  0  0  0  0  0
   -3.4753   -1.9643   -0.4293 C   0  0  0  0  0  0  0  0  0  0  0  0
   -2.2139   -1.3420    0.1818 C   0  0  0  0  0  0  0  0  0  0  0  0
    1.8902    1.2306   -0.1022 O   0  0  0  0  0  0  0  0  0  0  0  0
    2.6136    0.4341    0.7954 C   0  0  0  0  0  0  0  0  0  0  0  0
    2.5290    0.6357    2.0383 O   0  0  0  0  0  0  0  0  0  0  0  0
    3.4760   -0.6511    0.2788 C   0  0  0  0  0  0  0  0  0  0  0  0
    4.2207   -1.4591    1.1589 C   0  0  0  0  0  0  0  0  0  0  0  0
    5.0316   -2.4847    0.6624 C   0  0  0  0  0  0  0  0  0  0  0  0
    5.1077   -2.7147   -0.7130 C   0  0  0  0  0  0  0  0  0  0  0  0
    4.3729   -1.9196   -1.5954 C   0  0  0  0  0  0  0  0  0  0  0  0
    3.5605   -0.8925   -1.1048 C   0  0  0  0  0  0  0  0  0  0  0  0
    0.8082    4.4261   -0.0324 H   0  0  0  0  0  0  0  0  0  0  0  0
    2.5054    3.8227    0.0415 H   0  0  0  0  0  0  0  0  0  0  0  0
    1.5101    3.5185   -1.4334 H   0  0  0  0  0  0  0  0  0  0  0  0
    0.9790    2.4051    1.3928 H   0  0  0  0  0  0  0  0  0  0  0  0
   -0.4022    1.8473   -1.3008 H   0  0  0  0  0  0  0  0  0  0  0  0
   -1.1033    2.7705    0.0885 H   0  0  0  0  0  0  0  0  0  0  0  0
   -1.0412    0.8517    1.4444 H   0  0  0  0  0  0  0  0  0  0  0  0
   -1.9673    0.1795   -1.3203 H   0  0  0  0  0  0  0  0  0  0  0  0
   -3.4398    0.9421    1.3067 H   0  0  0  0  0  0  0  0  0  0  0  0
   -3.2723    1.9736   -0.1570 H   0  0  0  0  0  0  0  0  0  0  0  0
   -5.4978    0.8464   -0.0500 H   0  0  0  0  0  0  0  0  0  0  0  0
   -4.5672    0.3863   -1.5179 H   0  0  0  0  0  0  0  0  0  0  0  0
   -5.6158   -1.6202   -0.5208 H   0  0  0  0  0  0  0  0  0  0  0  0
   -4.8776   -1.2656    1.0804 H   0  0  0  0  0  0  0  0  0  0  0  0
   -3.3878   -1.9760   -1.5381 H   0  0  0  0  0  0  0  0  0  0  0  0
   -3.5705   -3.0157   -0.0825 H   0  0  0  0  0  0  0  0  0  0  0  0
   -1.3241   -1.9045   -0.1756 H   0  0  0  0  0  0  0  0  0  0  0  0
   -2.2556   -1.4376    1.2897 H   0  0  0  0  0  0  0  0  0  0  0  0
    4.1772   -1.2997    2.2290 H   0  0  0  0  0  0  0  0  0  0  0  0
    5.6013   -3.1017    1.3453 H   0  0  0  0  0  0  0  0  0  0  0  0
    5.7358   -3.5090   -1.0951 H   0  0  0  0  0  0  0  0  0  0  0  0
    4.4324   -2.0991   -2.6612 H   0  0  0  0  0  0  0  0  0  0  0  0
    2.9995   -0.2902   -1.8083 H   0  0  0  0  0  0  0  0  0  0  0  0
  1  2  1  0
  2  3  1  0
  3  4  1  0
  4  5  1  0
  5  6  1  0
  6  7  1  0
  7  8  1  0
  8  9  1  0
  9 10  1  0
 10  5  1  0
  2 11  1  0
 11 12  1  0
 12 13  2  0
 12 14  1  0
 14 15  2  0
 15 16  1  0
 16 17  2  0
 17 18  1  0
 18 19  2  0
 19 14  1  0
  1 20  1  0
  1 21  1  0
  1 22  1  0
  2 23  1  0
  3 24  1  0
  3 25  1  0
  4 26  1  0
  5 27  1  0
  6 28  1  0
  6 29  1  0
  7 30  1  0
  7 31  1  0
  8 32  1  0
  8 33  1  0
  9 34  1  0
  9 35  1  0
 10 36  1  0
 10 37  1  0
 15 38  1  0
 16 39  1  0
 17 40  1  0
 18 41  1  0
 19 42  1  0
M  END
> <ID>
HT1034

> <Class>
0.0

> <Clusters>
187

> <Fold>
5

$$$$