
     RDKit          3D

 45 46  0  0  0  0  0  0  0  0999 V2000
   -1.0213   -2.5985   -0.6705 C   0  0  0  0  0  0  0  0  0  0  0  0
   -0.6940   -1.4422    0.2884 C   0  0  0  0  0  0  0  0  0  0  0  0
   -1.7069   -0.2912    0.1778 C   0  0  0  0  0  0  0  0  0  0  0  0
   -2.9998   -0.7457    0.5729 O   0  0  0  0  0  0  0  0  0  0  0  0
   -4.1484    0.0586    0.6009 C   0  0  0  0  0  0  0  0  0  0  0  0
   -5.3578   -0.5226    1.0036 C   0  0  0  0  0  0  0  0  0  0  0  0
   -6.5302    0.2382    1.0476 C   0  0  0  0  0  0  0  0  0  0  0  0
   -6.5022    1.5882    0.6887 C   0  0  0  0  0  0  0  0  0  0  0  0
   -5.3018    2.1787    0.2855 C   0  0  0  0  0  0  0  0  0  0  0  0
   -4.1270    1.4210    0.2402 C   0  0  0  0  0  0  0  0  0  0  0  0
    0.6969   -0.9578    0.1531 N   0  0  0  0  0  0  0  0  0  0  0  0
    1.0986   -0.4836   -1.1929 C   0  0  0  0  0  0  0  0  0  0  0  0
    1.9795   -1.5211   -1.9174 C   0  0  0  0  0  0  0  0  0  0  0  0
    1.8287    0.8844   -1.0986 C   0  0  0  0  0  0  0  0  0  0  0  0
    0.9743    1.8956   -0.6227 O   0  0  0  0  0  0  0  0  0  0  0  0
    3.1231    0.8380   -0.2968 C   0  0  0  0  0  0  0  0  0  0  0  0
    3.1190    0.6787    1.1031 C   0  0  0  0  0  0  0  0  0  0  0  0
    4.3208    0.6331    1.8156 C   0  0  0  0  0  0  0  0  0  0  0  0
    5.5436    0.7489    1.1435 C   0  0  0  0  0  0  0  0  0  0  0  0
    6.7468    0.7039    1.8439 O   0  0  0  0  0  0  0  0  0  0  0  0
    5.5580    0.9119   -0.2440 C   0  0  0  0  0  0  0  0  0  0  0  0
    4.3586    0.9581   -0.9602 C   0  0  0  0  0  0  0  0  0  0  0  0
   -0.2598   -3.4004   -0.5723 H   0  0  0  0  0  0  0  0  0  0  0  0
   -1.0614   -2.2551   -1.7248 H   0  0  0  0  0  0  0  0  0  0  0  0
   -2.0094   -3.0357   -0.4133 H   0  0  0  0  0  0  0  0  0  0  0  0
   -0.7966   -1.8487    1.3201 H   0  0  0  0  0  0  0  0  0  0  0  0
   -1.7574    0.0917   -0.8629 H   0  0  0  0  0  0  0  0  0  0  0  0
   -1.3925    0.5322    0.8543 H   0  0  0  0  0  0  0  0  0  0  0  0
   -5.3882   -1.5681    1.2832 H   0  0  0  0  0  0  0  0  0  0  0  0
   -7.4602   -0.2190    1.3599 H   0  0  0  0  0  0  0  0  0  0  0  0
   -7.4101    2.1764    0.7230 H   0  0  0  0  0  0  0  0  0  0  0  0
   -5.2813    3.2247    0.0078 H   0  0  0  0  0  0  0  0  0  0  0  0
   -3.2113    1.9022   -0.0749 H   0  0  0  0  0  0  0  0  0  0  0  0
    1.3522   -1.6956    0.5051 H   0  0  0  0  0  0  0  0  0  0  0  0
    0.2119   -0.3159   -1.8394 H   0  0  0  0  0  0  0  0  0  0  0  0
    1.4263   -2.4705   -2.0614 H   0  0  0  0  0  0  0  0  0  0  0  0
    2.9008   -1.7365   -1.3356 H   0  0  0  0  0  0  0  0  0  0  0  0
    2.2722   -1.1431   -2.9201 H   0  0  0  0  0  0  0  0  0  0  0  0
    2.0779    1.1732   -2.1440 H   0  0  0  0  0  0  0  0  0  0  0  0
    0.6700    1.6446    0.2858 H   0  0  0  0  0  0  0  0  0  0  0  0
    2.1916    0.5916    1.6521 H   0  0  0  0  0  0  0  0  0  0  0  0
    4.3002    0.5088    2.8908 H   0  0  0  0  0  0  0  0  0  0  0  0
    6.7696    0.5868    2.8502 H   0  0  0  0  0  0  0  0  0  0  0  0
    6.5006    1.0019   -0.7689 H   0  0  0  0  0  0  0  0  0  0  0  0
    4.3968    1.0800   -2.0356 H   0  0  0  0  0  0  0  0  0  0  0  0
  1  2  1  0
  2  3  1  0
  3  4  1  0
  4  5  1  0
  5  6  2  0
  6  7  1  0
  7  8  2  0
  8  9  1  0
  9 10  2  0
 10  5  1  0
  2 11  1  0
 11 12  1  0
 12 13  1  0
 12 14  1  0
 14 15  1  0
 14 16  1  0
 16 17  2  0
 17 18  1  0
 18 19  2  0
 19 20  1  0
 19 21  1  0
 21 22  2  0
 22 16  1  0
  1 23  1  0
  1 24  1  0
  1 25  1  0
  2 26  1  0
  3 27  1  0
  3 28  1  0
  6 29  1  0
  7 30  1  0
  8 31  1  0
  9 32  1  0
 10 33  1  0
 11 34  1  0
 12 35  1  0
 13 36  1  0
 13 37  1  0
 13 38  1  0
 14 39  1  0
 15 40  1  0
 17 41  1  0
 18 42  1  0
 20 43  1  0
 21 44  1  0
 22 45  1  0
M  END
> <ID>
HT1145

> <Class>
0.0

> <Clusters>
265

> <Fold>
5

$$$$