
     RDKit          3D

 13 12  0  0  0  0  0  0  0  0999 V2000
   -0.6512    1.2889   -0.2300 C   0  0  0  0  0  0  0  0  0  0  0  0
   -0.4246   -0.2237   -0.2420 C   0  0  0  0  0  0  0  0  0  0  0  0
   -1.2923   -0.8616    0.7525 N   0  0  0  0  0  0  0  0  0  0  0  0
    1.0337   -0.5396   -0.0118 C   0  0  0  0  0  0  0  0  0  0  0  0
    1.4040   -1.2045    0.9939 O   0  0  0  0  0  0  0  0  0  0  0  0
    1.9820   -0.0975   -0.9296 O   0  0  0  0  0  0  0  0  0  0  0  0
   -0.0593    1.7747   -1.0350 H   0  0  0  0  0  0  0  0  0  0  0  0
   -0.3516    1.7204    0.7494 H   0  0  0  0  0  0  0  0  0  0  0  0
   -1.7254    1.5111   -0.4054 H   0  0  0  0  0  0  0  0  0  0  0  0
   -0.7046   -0.6069   -1.2477 H   0  0  0  0  0  0  0  0  0  0  0  0
   -1.1721   -1.8991    0.6901 H   0  0  0  0  0  0  0  0  0  0  0  0
   -1.0045   -0.5634    1.7137 H   0  0  0  0  0  0  0  0  0  0  0  0
    2.9660   -0.2987   -0.7982 H   0  0  0  0  0  0  0  0  0  0  0  0
  1  2  1  0
  2  3  1  0
  2  4  1  0
  4  5  2  0
  4  6  1  0
  1  7  1  0
  1  8  1  0
  1  9  1  0
  2 10  1  0
  3 11  1  0
  3 12  1  0
  6 13  1  0
M  END
> <ID>
HT1167

> <Class>
0.0

> <Clusters>
151

> <Fold>
5

$$$$