
     RDKit          3D

  5  4  0  0  0  0  0  0  0  0999 V2000
    2.0087   -0.2344   -0.4545 I   0  0  0  0  0  0  0  0  0  0  0  0
   -0.0050    0.0021    0.2045 C   0  0  0  0  0  0  0  0  0  0  0  0
   -0.7868    1.8388   -0.5443 I   0  0  0  0  0  0  0  0  0  0  0  0
   -1.1846   -1.6198   -0.5191 I   0  0  0  0  0  0  0  0  0  0  0  0
   -0.0324    0.0133    1.3135 H   0  0  0  0  0  0  0  0  0  0  0  0
  1  2  1  0
  2  3  1  0
  2  4  1  0
  2  5  1  0
M  END
> <ID>
HT1105

> <Class>
0.0

> <Clusters>
133

> <Fold>
5

$$$$