
     RDKit          3D

 63 67  0  0  0  0  0  0  0  0999 V2000
    4.5684   -2.3158   -1.5109 C   0  0  0  0  0  0  0  0  0  0  0  0
    3.5725   -1.6541   -0.5513 C   0  0  2  0  0  0  0  0  0  0  0  0
    3.7805   -0.2472   -0.6054 O   0  0  0  0  0  0  0  0  0  0  0  0
    3.0365    0.4447    0.3850 C   0  0  2  0  0  0  0  0  0  0  0  0
    3.5928    0.1476    1.7949 C   0  0  0  0  0  0  0  0  0  0  0  0
    4.2992   -1.2202    1.8828 C   0  0  2  0  0  0  0  0  0  0  0  0
    5.7415   -1.0655    1.6573 N   0  0  0  0  0  0  0  0  0  0  0  0
    3.6527   -2.2270    0.9025 C   0  0  2  0  0  0  0  0  0  0  0  0
    4.3163   -3.4666    0.9437 O   0  0  0  0  0  0  0  0  0  0  0  0
    1.6598    0.0834    0.3287 O   0  0  0  0  0  0  0  0  0  0  0  0
    0.8714    1.0212   -0.3860 C   0  0  1  0  0  0  0  0  0  0  0  0
    1.1293    0.8984   -1.9080 C   0  0  0  0  0  0  0  0  0  0  0  0
    0.0757    1.6343   -2.8017 C   0  0  1  0  0  0  0  0  0  0  0  0
   -0.6737    0.6407   -3.4718 O   0  0  0  0  0  0  0  0  0  0  0  0
   -0.8947    2.5017   -1.9500 C   0  0  0  0  0  0  0  0  0  0  0  0
   -1.5039    1.6625   -0.8411 C   0  0  0  0  0  0  0  0  0  0  0  0
   -2.8965    1.6083   -0.6017 C   0  0  0  0  0  0  0  0  0  0  0  0
   -3.7815    2.4639   -1.2676 O   0  0  0  0  0  0  0  0  0  0  0  0
   -3.4157    0.6985    0.3479 C   0  0  0  0  0  0  0  0  0  0  0  0
   -4.8908    0.5591    0.5554 C   0  0  0  0  0  0  0  0  0  0  0  0
   -5.7019    1.2809   -0.0867 O   0  0  0  0  0  0  0  0  0  0  0  0
   -5.4222   -0.4467    1.5018 C   0  0  0  0  0  0  0  0  0  0  0  0
   -6.8052   -0.6935    1.5919 C   0  0  0  0  0  0  0  0  0  0  0  0
   -7.2973   -1.6343    2.4995 C   0  0  0  0  0  0  0  0  0  0  0  0
   -6.4186   -2.3335    3.3272 C   0  0  0  0  0  0  0  0  0  0  0  0
   -5.0449   -2.0947    3.2495 C   0  0  0  0  0  0  0  0  0  0  0  0
   -4.5376   -1.1543    2.3342 C   0  0  0  0  0  0  0  0  0  0  0  0
   -3.0893   -0.8786    2.2592 C   0  0  0  0  0  0  0  0  0  0  0  0
   -2.3499   -1.2341    3.2169 O   0  0  0  0  0  0  0  0  0  0  0  0
   -2.5322   -0.0938    1.1191 C   0  0  0  0  0  0  0  0  0  0  0  0
   -1.1422   -0.0726    0.8401 C   0  0  0  0  0  0  0  0  0  0  0  0
   -0.2760   -0.9862    1.4484 O   0  0  0  0  0  0  0  0  0  0  0  0
   -0.6223    0.8491   -0.0993 C   0  0  0  0  0  0  0  0  0  0  0  0
    0.7877    2.5157   -3.8274 C   0  0  0  0  0  0  0  0  0  0  0  0
    0.6454    2.2986   -5.0221 O   0  0  0  0  0  0  0  0  0  0  0  0
    1.6788    3.6542   -3.4126 C   0  0  0  0  0  0  0  0  0  0  0  0
    5.6096   -2.1968   -1.1457 H   0  0  0  0  0  0  0  0  0  0  0  0
    4.4905   -1.8459   -2.5146 H   0  0  0  0  0  0  0  0  0  0  0  0
    4.3412   -3.3976   -1.6221 H   0  0  0  0  0  0  0  0  0  0  0  0
    2.5630   -1.8833   -0.9621 H   0  0  0  0  0  0  0  0  0  0  0  0
    3.1972    1.5347    0.2155 H   0  0  0  0  0  0  0  0  0  0  0  0
    4.3023    0.9502    2.0968 H   0  0  0  0  0  0  0  0  0  0  0  0
    2.7571    0.1776    2.5290 H   0  0  0  0  0  0  0  0  0  0  0  0
    4.1616   -1.6058    2.9180 H   0  0  0  0  0  0  0  0  0  0  0  0
    6.2117   -1.9931    1.7646 H   0  0  0  0  0  0  0  0  0  0  0  0
    5.9250   -0.7211    0.6887 H   0  0  0  0  0  0  0  0  0  0  0  0
    2.6012   -2.3833    1.2443 H   0  0  0  0  0  0  0  0  0  0  0  0
    4.0997   -3.8811    1.8195 H   0  0  0  0  0  0  0  0  0  0  0  0
    1.1155    2.0590   -0.0594 H   0  0  0  0  0  0  0  0  0  0  0  0
    2.1562    1.2677   -2.1171 H   0  0  0  0  0  0  0  0  0  0  0  0
    1.1456   -0.1824   -2.1717 H   0  0  0  0  0  0  0  0  0  0  0  0
   -1.3802    1.0864   -4.0099 H   0  0  0  0  0  0  0  0  0  0  0  0
   -1.6450    2.9390   -2.6339 H   0  0  0  0  0  0  0  0  0  0  0  0
   -0.3569    3.3521   -1.4804 H   0  0  0  0  0  0  0  0  0  0  0  0
   -3.5074    3.3014   -1.7605 H   0  0  0  0  0  0  0  0  0  0  0  0
   -7.5062   -0.1614    0.9611 H   0  0  0  0  0  0  0  0  0  0  0  0
   -8.3618   -1.8200    2.5621 H   0  0  0  0  0  0  0  0  0  0  0  0
   -6.8024   -3.0608    4.0310 H   0  0  0  0  0  0  0  0  0  0  0  0
   -4.3796   -2.6481    3.9006 H   0  0  0  0  0  0  0  0  0  0  0  0
   -0.5761   -1.8661    1.8452 H   0  0  0  0  0  0  0  0  0  0  0  0
    1.7894    3.7067   -2.3099 H   0  0  0  0  0  0  0  0  0  0  0  0
    2.6869    3.5164   -3.8566 H   0  0  0  0  0  0  0  0  0  0  0  0
    1.2498    4.6114   -3.7753 H   0  0  0  0  0  0  0  0  0  0  0  0
  2  1  1  0
  2  3  1  0
  3  4  1  0
  4  5  1  0
  5  6  1  0
  6  7  1  0
  6  8  1  0
  8  2  1  0
  8  9  1  0
  4 10  1  0
 11 10  1  0
 11 12  1  0
 12 13  1  0
 13 14  1  6
 13 15  1  0
 15 16  1  0
 16 17  2  0
 17 18  1  0
 17 19  1  0
 19 20  1  0
 20 21  2  0
 20 22  1  0
 22 23  2  0
 23 24  1  0
 24 25  2  0
 25 26  1  0
 26 27  2  0
 27 22  1  0
 27 28  1  0
 28 29  2  0
 28 30  1  0
 30 19  2  0
 30 31  1  0
 31 32  1  0
 31 33  2  0
 33 11  1  0
 33 16  1  0
 13 34  1  0
 34 35  2  0
 34 36  1  0
  1 37  1  0
  1 38  1  0
  1 39  1  0
  2 40  1  6
  4 41  1  6
  5 42  1  0
  5 43  1  0
  6 44  1  1
  7 45  1  0
  7 46  1  0
  8 47  1  1
  9 48  1  0
 11 49  1  1
 12 50  1  0
 12 51  1  0
 14 52  1  0
 15 53  1  0
 15 54  1  0
 18 55  1  0
 23 56  1  0
 24 57  1  0
 25 58  1  0
 26 59  1  0
 32 60  1  0
 36 61  1  0
 36 62  1  0
 36 63  1  0
M  END
> <ID>
HT1074

> <Class>
0.0

> <Clusters>
86

> <Fold>
5

$$$$