
     RDKit          3D

 45 46  0  0  0  0  0  0  0  0999 V2000
   -4.8182   -0.7996   -1.2772 O   0  0  0  0  0  0  0  0  0  0  0  0
   -3.7815   -0.1874   -0.5580 C   0  0  0  0  0  0  0  0  0  0  0  0
   -2.4965   -1.0341   -0.5795 C   0  0  1  0  0  0  0  0  0  0  0  0
   -1.5283   -0.4028    0.2421 O   0  0  0  0  0  0  0  0  0  0  0  0
   -0.2651   -1.0329    0.1057 C   0  0  1  0  0  0  0  0  0  0  0  0
    0.6754   -0.3257    0.8938 O   0  0  0  0  0  0  0  0  0  0  0  0
    1.4420    0.5889    0.1251 C   0  0  2  0  0  0  0  0  0  0  0  0
    2.6569    1.0424    0.9373 C   0  0  1  0  0  0  0  0  0  0  0  0
    3.9203    0.2467    0.5899 C   0  0  0  0  0  0  0  0  0  0  0  0
    3.7107   -1.1173    0.8293 O   0  0  0  0  0  0  0  0  0  0  0  0
    2.8830    2.4185    0.7150 O   0  0  0  0  0  0  0  0  0  0  0  0
    1.8630    2.9048   -0.1296 C   0  0  2  0  0  0  0  0  0  0  0  0
    2.4057    3.0218   -1.4265 O   0  0  0  0  0  0  0  0  0  0  0  0
    1.4161    4.2831    0.4028 C   0  0  0  0  0  0  0  0  0  0  0  0
    0.3632    4.8097   -0.3666 O   0  0  0  0  0  0  0  0  0  0  0  0
    0.7136    1.8879   -0.1024 C   0  0  1  0  0  0  0  0  0  0  0  0
    0.0075    1.8654   -1.3183 O   0  0  0  0  0  0  0  0  0  0  0  0
   -0.3398   -2.4774    0.6408 C   0  0  2  0  0  0  0  0  0  0  0  0
    0.9104   -3.1100    0.5333 O   0  0  0  0  0  0  0  0  0  0  0  0
   -1.4335   -3.2656   -0.1108 C   0  0  1  0  0  0  0  0  0  0  0  0
   -1.6238   -4.5225    0.4853 O   0  0  0  0  0  0  0  0  0  0  0  0
   -2.7532   -2.4789   -0.0935 C   0  0  1  0  0  0  0  0  0  0  0  0
   -3.2802   -2.4578    1.2105 O   0  0  0  0  0  0  0  0  0  0  0  0
   -4.5148   -0.8864   -2.2145 H   0  0  0  0  0  0  0  0  0  0  0  0
   -4.1190   -0.0343    0.4897 H   0  0  0  0  0  0  0  0  0  0  0  0
   -3.5712    0.8172   -0.9879 H   0  0  0  0  0  0  0  0  0  0  0  0
   -2.1474   -1.0582   -1.6388 H   0  0  0  0  0  0  0  0  0  0  0  0
    0.0300   -1.0821   -0.9724 H   0  0  0  0  0  0  0  0  0  0  0  0
    1.7937    0.1624   -0.8471 H   0  0  0  0  0  0  0  0  0  0  0  0
    2.4507    0.9090    2.0243 H   0  0  0  0  0  0  0  0  0  0  0  0
    4.1880    0.4088   -0.4797 H   0  0  0  0  0  0  0  0  0  0  0  0
    4.7602    0.6086    1.2254 H   0  0  0  0  0  0  0  0  0  0  0  0
    4.5497   -1.5753    0.5654 H   0  0  0  0  0  0  0  0  0  0  0  0
    1.7516    3.4966   -2.0040 H   0  0  0  0  0  0  0  0  0  0  0  0
    2.2888    4.9755    0.4207 H   0  0  0  0  0  0  0  0  0  0  0  0
    1.0663    4.1756    1.4511 H   0  0  0  0  0  0  0  0  0  0  0  0
    0.7308    5.5735   -0.8860 H   0  0  0  0  0  0  0  0  0  0  0  0
    0.0404    2.0959    0.7660 H   0  0  0  0  0  0  0  0  0  0  0  0
   -0.9547    1.7877   -1.1012 H   0  0  0  0  0  0  0  0  0  0  0  0
   -0.6105   -2.4400    1.7190 H   0  0  0  0  0  0  0  0  0  0  0  0
    1.1273   -3.1999   -0.4320 H   0  0  0  0  0  0  0  0  0  0  0  0
   -1.1290   -3.3985   -1.1767 H   0  0  0  0  0  0  0  0  0  0  0  0
   -0.8937   -5.1093    0.1554 H   0  0  0  0  0  0  0  0  0  0  0  0
   -3.4605   -2.9731   -0.8023 H   0  0  0  0  0  0  0  0  0  0  0  0
   -4.0242   -3.1110    1.2371 H   0  0  0  0  0  0  0  0  0  0  0  0
  1  2  1  0
  3  2  1  0
  3  4  1  0
  4  5  1  0
  5  6  1  0
  7  6  1  0
  7  8  1  0
  8  9  1  0
  9 10  1  0
  8 11  1  0
 11 12  1  0
 12 13  1  6
 12 14  1  0
 14 15  1  0
 12 16  1  0
 16  7  1  0
 16 17  1  0
  5 18  1  0
 18 19  1  0
 18 20  1  0
 20 21  1  0
 20 22  1  0
 22  3  1  0
 22 23  1  0
  1 24  1  0
  2 25  1  0
  2 26  1  0
  3 27  1  6
  5 28  1  6
  7 29  1  6
  8 30  1  1
  9 31  1  0
  9 32  1  0
 10 33  1  0
 13 34  1  0
 14 35  1  0
 14 36  1  0
 15 37  1  0
 16 38  1  1
 17 39  1  0
 18 40  1  1
 19 41  1  0
 20 42  1  6
 21 43  1  0
 22 44  1  6
 23 45  1  0
M  END
> <ID>
HT1166

> <Class>
0.0

> <Clusters>
143

> <Fold>
5

$$$$