
     RDKit          3D

 14 14  0  0  0  0  0  0  0  0999 V2000
   -2.6832    0.4895   -0.6275 O   0  0  0  0  0  0  0  0  0  0  0  0
   -1.3378    0.2972   -0.3222 C   0  0  0  0  0  0  0  0  0  0  0  0
   -0.8529   -0.9783    0.0011 C   0  0  0  0  0  0  0  0  0  0  0  0
    0.5003   -1.1579    0.3057 C   0  0  0  0  0  0  0  0  0  0  0  0
    1.3764   -0.0630    0.2886 C   0  0  0  0  0  0  0  0  0  0  0  0
    2.7263   -0.2285    0.5900 O   0  0  0  0  0  0  0  0  0  0  0  0
    0.8911    1.2093   -0.0343 C   0  0  0  0  0  0  0  0  0  0  0  0
   -0.4622    1.3889   -0.3389 C   0  0  0  0  0  0  0  0  0  0  0  0
   -3.3420   -0.2804   -0.6241 H   0  0  0  0  0  0  0  0  0  0  0  0
   -1.5225   -1.8288    0.0166 H   0  0  0  0  0  0  0  0  0  0  0  0
    0.8664   -2.1459    0.5543 H   0  0  0  0  0  0  0  0  0  0  0  0
    3.1082   -1.1365    0.8276 H   0  0  0  0  0  0  0  0  0  0  0  0
    1.5626    2.0584   -0.0491 H   0  0  0  0  0  0  0  0  0  0  0  0
   -0.8307    2.3760   -0.5878 H   0  0  0  0  0  0  0  0  0  0  0  0
  1  2  1  0
  2  3  2  0
  3  4  1  0
  4  5  2  0
  5  6  1  0
  5  7  1  0
  7  8  2  0
  8  2  1  0
  1  9  1  0
  3 10  1  0
  4 11  1  0
  6 12  1  0
  7 13  1  0
  8 14  1  0
M  END
> <ID>
HT1059

> <Class>
0.0

> <Clusters>
249

> <Fold>
5

$$$$