
     RDKit          3D

 24 24  0  0  0  0  0  0  0  0999 V2000
    4.7451   -0.0205    0.0212 N   0  0  0  0  0  0  0  0  0  0  0  0
    3.3211   -0.1216   -0.0628 C   0  0  0  0  0  0  0  0  0  0  0  0
    2.5263    0.1660    1.0541 C   0  0  0  0  0  0  0  0  0  0  0  0
    1.1337    0.0678    0.9741 C   0  0  0  0  0  0  0  0  0  0  0  0
    0.5134   -0.3148   -0.2297 C   0  0  0  0  0  0  0  0  0  0  0  0
    1.3192   -0.6147   -1.3431 C   0  0  0  0  0  0  0  0  0  0  0  0
    2.7111   -0.5146   -1.2606 C   0  0  0  0  0  0  0  0  0  0  0  0
   -0.9616   -0.4303   -0.3318 C   0  0  0  0  0  0  0  0  0  0  0  0
   -1.4613   -1.2017   -1.1963 O   0  0  0  0  0  0  0  0  0  0  0  0
   -1.8303    0.3343    0.5217 N   0  0  0  0  0  0  0  0  0  0  0  0
   -3.2795    0.1345    0.5385 C   0  0  0  0  0  0  0  0  0  0  0  0
   -3.9350    0.7200   -0.6805 C   0  0  0  0  0  0  0  0  0  0  0  0
   -3.2655    1.3776   -1.5215 O   0  0  0  0  0  0  0  0  0  0  0  0
   -5.3012    0.5515   -0.8820 O   0  0  0  0  0  0  0  0  0  0  0  0
    5.3459   -0.2350   -0.8058 H   0  0  0  0  0  0  0  0  0  0  0  0
    5.2089    0.2700    0.9107 H   0  0  0  0  0  0  0  0  0  0  0  0
    2.9862    0.4598    1.9894 H   0  0  0  0  0  0  0  0  0  0  0  0
    0.5522    0.2668    1.8640 H   0  0  0  0  0  0  0  0  0  0  0  0
    0.8719   -0.9161   -2.2823 H   0  0  0  0  0  0  0  0  0  0  0  0
    3.3139   -0.7432   -2.1307 H   0  0  0  0  0  0  0  0  0  0  0  0
   -1.4330    1.0575    1.1613 H   0  0  0  0  0  0  0  0  0  0  0  0
   -3.7090    0.6252    1.4379 H   0  0  0  0  0  0  0  0  0  0  0  0
   -3.5058   -0.9515    0.6004 H   0  0  0  0  0  0  0  0  0  0  0  0
   -5.8667    0.0331   -0.2204 H   0  0  0  0  0  0  0  0  0  0  0  0
  1  2  1  0
  2  3  2  0
  3  4  1  0
  4  5  2  0
  5  6  1  0
  6  7  2  0
  7  2  1  0
  5  8  1  0
  8  9  2  0
  8 10  1  0
 10 11  1  0
 11 12  1  0
 12 13  2  0
 12 14  1  0
  1 15  1  0
  1 16  1  0
  3 17  1  0
  4 18  1  0
  6 19  1  0
  7 20  1  0
 10 21  1  0
 11 22  1  0
 11 23  1  0
 14 24  1  0
M  END
> <ID>
HT0135

> <Class>
0.0

> <Clusters>
15

> <Fold>
5

$$$$