
     RDKit          3D

 45 46  0  0  0  0  0  0  0  0999 V2000
    4.0934    2.9708    0.0776 O   0  0  0  0  0  0  0  0  0  0  0  0
    3.0322    2.3803   -0.6242 C   0  0  0  0  0  0  0  0  0  0  0  0
    2.5413    1.1089    0.0853 C   0  0  1  0  0  0  0  0  0  0  0  0
    1.4465    0.5793   -0.6431 O   0  0  0  0  0  0  0  0  0  0  0  0
    0.8285   -0.4756    0.0767 C   0  0  1  0  0  0  0  0  0  0  0  0
   -0.3036   -0.9175   -0.6537 O   0  0  0  0  0  0  0  0  0  0  0  0
   -1.4972   -0.2538   -0.2609 C   0  0  1  0  0  0  0  0  0  0  0  0
   -1.5832    1.1473   -0.9234 C   0  0  2  0  0  0  0  0  0  0  0  0
   -0.9164    2.1096   -0.1426 O   0  0  0  0  0  0  0  0  0  0  0  0
   -3.0442    1.5810   -1.1985 C   0  0  1  0  0  0  0  0  0  0  0  0
   -3.3762    1.2895   -2.5333 O   0  0  0  0  0  0  0  0  0  0  0  0
   -4.0258    0.8554   -0.2511 C   0  0  2  0  0  0  0  0  0  0  0  0
   -3.8062    1.2647    1.0730 O   0  0  0  0  0  0  0  0  0  0  0  0
   -3.9742   -0.5661   -0.3303 O   0  0  0  0  0  0  0  0  0  0  0  0
   -2.7118   -1.1102   -0.7065 C   0  0  2  0  0  0  0  0  0  0  0  0
   -2.6223   -2.5430   -0.1524 C   0  0  0  0  0  0  0  0  0  0  0  0
   -2.5848   -2.5428    1.2501 O   0  0  0  0  0  0  0  0  0  0  0  0
    1.8005   -1.6625    0.2085 C   0  0  2  0  0  0  0  0  0  0  0  0
    1.1876   -2.6790    0.9594 O   0  0  0  0  0  0  0  0  0  0  0  0
    3.0970   -1.2040    0.9018 C   0  0  1  0  0  0  0  0  0  0  0  0
    4.0386   -2.2456    0.8778 O   0  0  0  0  0  0  0  0  0  0  0  0
    3.6614    0.0504    0.2039 C   0  0  1  0  0  0  0  0  0  0  0  0
    4.1404   -0.2812   -1.0765 O   0  0  0  0  0  0  0  0  0  0  0  0
    3.6971    3.4118    0.8739 H   0  0  0  0  0  0  0  0  0  0  0  0
    2.1898    3.1032   -0.7196 H   0  0  0  0  0  0  0  0  0  0  0  0
    3.3736    2.1363   -1.6526 H   0  0  0  0  0  0  0  0  0  0  0  0
    2.2150    1.4177    1.1069 H   0  0  0  0  0  0  0  0  0  0  0  0
    0.5590   -0.1443    1.1106 H   0  0  0  0  0  0  0  0  0  0  0  0
   -1.5738   -0.1609    0.8476 H   0  0  0  0  0  0  0  0  0  0  0  0
   -1.0526    1.1021   -1.9008 H   0  0  0  0  0  0  0  0  0  0  0  0
   -1.3862    2.1733    0.7290 H   0  0  0  0  0  0  0  0  0  0  0  0
   -3.1323    2.6820   -1.0374 H   0  0  0  0  0  0  0  0  0  0  0  0
   -4.1837    1.8235   -2.7542 H   0  0  0  0  0  0  0  0  0  0  0  0
   -5.0538    1.1694   -0.5422 H   0  0  0  0  0  0  0  0  0  0  0  0
   -4.5336    0.8640    1.6168 H   0  0  0  0  0  0  0  0  0  0  0  0
   -2.6904   -1.1976   -1.8161 H   0  0  0  0  0  0  0  0  0  0  0  0
   -3.4899   -3.1408   -0.5145 H   0  0  0  0  0  0  0  0  0  0  0  0
   -1.7065   -3.0427   -0.5336 H   0  0  0  0  0  0  0  0  0  0  0  0
   -3.5139   -2.3832    1.5609 H   0  0  0  0  0  0  0  0  0  0  0  0
    2.0389   -2.0362   -0.8162 H   0  0  0  0  0  0  0  0  0  0  0  0
    1.6690   -3.5217    0.7500 H   0  0  0  0  0  0  0  0  0  0  0  0
    2.8559   -0.9478    1.9613 H   0  0  0  0  0  0  0  0  0  0  0  0
    4.7470   -2.0048    1.5305 H   0  0  0  0  0  0  0  0  0  0  0  0
    4.4864    0.4680    0.8284 H   0  0  0  0  0  0  0  0  0  0  0  0
    5.0634   -0.6274   -0.9596 H   0  0  0  0  0  0  0  0  0  0  0  0
  1  2  1  0
  3  2  1  0
  3  4  1  0
  4  5  1  0
  5  6  1  0
  7  6  1  0
  7  8  1  0
  8  9  1  0
  8 10  1  0
 10 11  1  0
 10 12  1  0
 12 13  1  0
 12 14  1  0
 14 15  1  0
 15  7  1  0
 15 16  1  0
 16 17  1  0
  5 18  1  0
 18 19  1  0
 18 20  1  0
 20 21  1  0
 20 22  1  0
 22  3  1  0
 22 23  1  0
  1 24  1  0
  2 25  1  0
  2 26  1  0
  3 27  1  1
  5 28  1  1
  7 29  1  1
  8 30  1  6
  9 31  1  0
 10 32  1  6
 11 33  1  0
 12 34  1  6
 13 35  1  0
 15 36  1  6
 16 37  1  0
 16 38  1  0
 17 39  1  0
 18 40  1  6
 19 41  1  0
 20 42  1  1
 21 43  1  0
 22 44  1  1
 23 45  1  0
M  END
> <ID>
HT1165

> <Class>
0.0

> <Clusters>
143

> <Fold>
5

$$$$