
     RDKit          3D

 58 61  0  0  0  0  0  0  0  0999 V2000
   -4.1180   -3.1029    1.3201 C   0  0  0  0  0  0  0  0  0  0  0  0
   -3.6700   -2.1442    0.3675 O   0  0  0  0  0  0  0  0  0  0  0  0
   -4.1128   -0.8129    0.3069 C   0  0  0  0  0  0  0  0  0  0  0  0
   -5.0677   -0.2994    1.2067 C   0  0  0  0  0  0  0  0  0  0  0  0
   -5.4908    1.0404    1.1253 C   0  0  0  0  0  0  0  0  0  0  0  0
   -4.9422    1.8616    0.1243 C   0  0  0  0  0  0  0  0  0  0  0  0
   -3.9964    1.3579   -0.7700 C   0  0  0  0  0  0  0  0  0  0  0  0
   -3.5757    0.0194   -0.6847 C   0  0  0  0  0  0  0  0  0  0  0  0
   -2.6256   -0.5213   -1.5645 O   0  0  0  0  0  0  0  0  0  0  0  0
   -1.9519    0.2154   -2.5826 C   0  0  0  0  0  0  0  0  0  0  0  0
   -0.9490   -0.6864   -3.3067 C   0  0  0  0  0  0  0  0  0  0  0  0
    0.0962   -1.2893   -2.3544 C   0  0  0  0  0  0  0  0  0  0  0  0
    0.8401   -0.2297   -1.6394 N   0  0  0  0  0  0  0  0  0  0  0  0
    1.9298    0.3571   -2.4679 C   0  0  0  0  0  0  0  0  0  0  0  0
    3.3291   -0.0715   -2.0064 C   0  0  0  0  0  0  0  0  0  0  0  0
    3.5781    0.3712   -0.5461 C   0  0  0  0  0  0  0  0  0  0  0  0
    2.2992    0.2472    0.3223 C   0  0  0  0  0  0  0  0  0  0  0  0
    1.2765   -0.7056   -0.3056 C   0  0  0  0  0  0  0  0  0  0  0  0
    4.7389   -0.3706    0.0768 C   0  0  0  0  0  0  0  0  0  0  0  0
    5.3356   -1.4743   -0.4399 N   0  0  0  0  0  0  0  0  0  0  0  0
    6.3001   -1.8216    0.3715 O   0  0  0  0  0  0  0  0  0  0  0  0
    6.3578   -0.9946    1.3856 C   0  0  0  0  0  0  0  0  0  0  0  0
    7.2345   -1.0031    2.4668 C   0  0  0  0  0  0  0  0  0  0  0  0
    7.0896    0.0130    3.4319 C   0  0  0  0  0  0  0  0  0  0  0  0
    7.9198    0.0476    4.5030 F   0  0  0  0  0  0  0  0  0  0  0  0
    6.0840    0.9986    3.2889 C   0  0  0  0  0  0  0  0  0  0  0  0
    5.2144    0.9763    2.1816 C   0  0  0  0  0  0  0  0  0  0  0  0
    5.3865   -0.0463    1.2505 C   0  0  0  0  0  0  0  0  0  0  0  0
   -6.4996    1.5639    2.0868 C   0  0  0  0  0  0  0  0  0  0  0  0
   -6.9814    0.8000    2.9673 O   0  0  0  0  0  0  0  0  0  0  0  0
   -6.9708    2.9869    2.0456 C   0  0  0  0  0  0  0  0  0  0  0  0
   -3.8751   -2.7617    2.3487 H   0  0  0  0  0  0  0  0  0  0  0  0
   -5.2123   -3.2611    1.2172 H   0  0  0  0  0  0  0  0  0  0  0  0
   -3.6010   -4.0666    1.1346 H   0  0  0  0  0  0  0  0  0  0  0  0
   -5.4821   -0.9407    1.9723 H   0  0  0  0  0  0  0  0  0  0  0  0
   -5.2391    2.8968    0.0242 H   0  0  0  0  0  0  0  0  0  0  0  0
   -3.5991    2.0199   -1.5272 H   0  0  0  0  0  0  0  0  0  0  0  0
   -1.4205    1.0831   -2.1346 H   0  0  0  0  0  0  0  0  0  0  0  0
   -2.6932    0.5917   -3.3202 H   0  0  0  0  0  0  0  0  0  0  0  0
   -1.5011   -1.5142   -3.8022 H   0  0  0  0  0  0  0  0  0  0  0  0
   -0.4457   -0.0995   -4.1038 H   0  0  0  0  0  0  0  0  0  0  0  0
    0.7926   -1.9440   -2.9254 H   0  0  0  0  0  0  0  0  0  0  0  0
   -0.4428   -1.9510   -1.6382 H   0  0  0  0  0  0  0  0  0  0  0  0
    1.8572    1.4642   -2.4049 H   0  0  0  0  0  0  0  0  0  0  0  0
    1.8217    0.1018   -3.5451 H   0  0  0  0  0  0  0  0  0  0  0  0
    3.4008   -1.1765   -2.1099 H   0  0  0  0  0  0  0  0  0  0  0  0
    4.0967    0.3828   -2.6702 H   0  0  0  0  0  0  0  0  0  0  0  0
    3.8628    1.4470   -0.5758 H   0  0  0  0  0  0  0  0  0  0  0  0
    2.5335   -0.1000    1.3525 H   0  0  0  0  0  0  0  0  0  0  0  0
    1.8260    1.2492    0.4208 H   0  0  0  0  0  0  0  0  0  0  0  0
    1.7235   -1.7242   -0.3720 H   0  0  0  0  0  0  0  0  0  0  0  0
    0.3913   -0.7644    0.3649 H   0  0  0  0  0  0  0  0  0  0  0  0
    8.0000   -1.7623    2.5604 H   0  0  0  0  0  0  0  0  0  0  0  0
    5.9817    1.7761    4.0348 H   0  0  0  0  0  0  0  0  0  0  0  0
    4.4431    1.7258    2.0612 H   0  0  0  0  0  0  0  0  0  0  0  0
   -6.1113    3.6734    2.1947 H   0  0  0  0  0  0  0  0  0  0  0  0
   -7.4528    3.1964    1.0678 H   0  0  0  0  0  0  0  0  0  0  0  0
   -7.7133    3.1752    2.8502 H   0  0  0  0  0  0  0  0  0  0  0  0
  1  2  1  0
  2  3  1  0
  3  4  2  0
  4  5  1  0
  5  6  2  0
  6  7  1  0
  7  8  2  0
  8  3  1  0
  8  9  1  0
  9 10  1  0
 10 11  1  0
 11 12  1  0
 12 13  1  0
 13 14  1  0
 14 15  1  0
 15 16  1  0
 16 17  1  0
 17 18  1  0
 18 13  1  0
 16 19  1  0
 19 20  2  0
 20 21  1  0
 21 22  1  0
 22 23  2  0
 23 24  1  0
 24 25  1  0
 24 26  2  0
 26 27  1  0
 27 28  2  0
 28 19  1  0
 28 22  1  0
  5 29  1  0
 29 30  2  0
 29 31  1  0
  1 32  1  0
  1 33  1  0
  1 34  1  0
  4 35  1  0
  6 36  1  0
  7 37  1  0
 10 38  1  0
 10 39  1  0
 11 40  1  0
 11 41  1  0
 12 42  1  0
 12 43  1  0
 14 44  1  0
 14 45  1  0
 15 46  1  0
 15 47  1  0
 16 48  1  0
 17 49  1  0
 17 50  1  0
 18 51  1  0
 18 52  1  0
 23 53  1  0
 26 54  1  0
 27 55  1  0
 31 56  1  0
 31 57  1  0
 31 58  1  0
M  END
> <ID>
HT1078

> <Class>
0.0

> <Clusters>
213

> <Fold>
5

$$$$