
     RDKit          3D

 25 24  0  0  0  0  0  0  0  0999 V2000
   -3.3207   -0.2504   -0.2470 C   0  0  0  0  0  0  0  0  0  0  0  0
   -1.8582   -0.3040    0.2059 C   0  0  0  0  0  0  0  0  0  0  0  0
   -1.7929   -0.5783    1.7087 C   0  0  0  0  0  0  0  0  0  0  0  0
   -1.2379    0.9427   -0.0496 O   0  0  0  0  0  0  0  0  0  0  0  0
   -0.3008    0.8575   -1.4771 P   0  0  0  0  0  0  0  0  0  0  0  0
   -1.1661    0.4106   -2.6337 O   0  0  0  0  0  0  0  0  0  0  0  0
    0.2780    2.3902   -1.8325 F   0  0  0  0  0  0  0  0  0  0  0  0
    0.9728   -0.2681   -1.2791 O   0  0  0  0  0  0  0  0  0  0  0  0
    2.0812    0.3394   -0.6444 C   0  0  0  0  0  0  0  0  0  0  0  0
    3.3369   -0.4369   -1.0415 C   0  0  0  0  0  0  0  0  0  0  0  0
    1.9159    0.3090    0.8800 C   0  0  0  0  0  0  0  0  0  0  0  0
   -3.8308   -1.2108   -0.0191 H   0  0  0  0  0  0  0  0  0  0  0  0
   -3.8567    0.5757    0.2679 H   0  0  0  0  0  0  0  0  0  0  0  0
   -3.3794   -0.0803   -1.3414 H   0  0  0  0  0  0  0  0  0  0  0  0
   -1.3610   -1.1681   -0.2964 H   0  0  0  0  0  0  0  0  0  0  0  0
   -2.2909   -1.5421    1.9490 H   0  0  0  0  0  0  0  0  0  0  0  0
   -2.2888    0.2382    2.2764 H   0  0  0  0  0  0  0  0  0  0  0  0
   -0.7343   -0.6443    2.0348 H   0  0  0  0  0  0  0  0  0  0  0  0
    2.2493    1.3886   -0.9750 H   0  0  0  0  0  0  0  0  0  0  0  0
    3.2589   -1.4969   -0.7168 H   0  0  0  0  0  0  0  0  0  0  0  0
    3.4595   -0.4120   -2.1453 H   0  0  0  0  0  0  0  0  0  0  0  0
    4.2387    0.0192   -0.5795 H   0  0  0  0  0  0  0  0  0  0  0  0
    2.8387    0.6774    1.3770 H   0  0  0  0  0  0  0  0  0  0  0  0
    1.0814    0.9697    1.1907 H   0  0  0  0  0  0  0  0  0  0  0  0
    1.7074   -0.7259    1.2262 H   0  0  0  0  0  0  0  0  0  0  0  0
  1  2  1  0
  2  3  1  0
  2  4  1  0
  4  5  1  0
  5  6  2  0
  5  7  1  0
  5  8  1  0
  8  9  1  0
  9 10  1  0
  9 11  1  0
  1 12  1  0
  1 13  1  0
  1 14  1  0
  2 15  1  0
  3 16  1  0
  3 17  1  0
  3 18  1  0
  9 19  1  0
 10 20  1  0
 10 21  1  0
 10 22  1  0
 11 23  1  0
 11 24  1  0
 11 25  1  0
M  END
> <ID>
HT1133

> <Class>
0.0

> <Clusters>
208

> <Fold>
5

$$$$