
     RDKit          3D

 49 51  0  0  0  0  0  0  0  0999 V2000
    3.3008   -2.9154    1.4526 C   0  0  0  0  0  0  0  0  0  0  0  0
    3.5277   -1.4078    1.4759 C   0  0  0  0  0  0  0  0  0  0  0  0
    3.8169   -0.9208    0.1079 N   0  0  0  0  0  0  0  0  0  0  0  0
    4.9234    0.0621    0.0839 C   0  0  0  0  0  0  0  0  0  0  0  0
    5.4194    0.3256   -1.3380 C   0  0  0  0  0  0  0  0  0  0  0  0
    2.5905   -0.4976   -0.6157 C   0  0  0  0  0  0  0  0  0  0  0  0
    2.0619    0.8941   -0.2170 C   0  0  0  0  0  0  0  0  0  0  0  0
    0.7281    1.0971   -0.7824 N   0  0  0  0  0  0  0  0  0  0  0  0
   -0.4122    1.4283    0.0283 C   0  0  0  0  0  0  0  0  0  0  0  0
   -0.2869    2.5115    0.9067 C   0  0  0  0  0  0  0  0  0  0  0  0
   -1.3687    2.9697    1.6412 C   0  0  0  0  0  0  0  0  0  0  0  0
   -2.6304    2.3878    1.4919 C   0  0  0  0  0  0  0  0  0  0  0  0
   -3.7852    2.9257    2.3201 C   0  0  0  0  0  0  0  0  0  0  0  0
   -3.6773    4.3116    2.5129 O   0  0  0  0  0  0  0  0  0  0  0  0
   -2.7668    1.2585    0.6467 C   0  0  0  0  0  0  0  0  0  0  0  0
   -4.2583    0.4752    0.5005 S   0  0  0  0  0  0  0  0  0  0  0  0
   -4.2170   -0.8436   -0.5289 C   0  0  0  0  0  0  0  0  0  0  0  0
   -5.3799   -1.5863   -0.7627 C   0  0  0  0  0  0  0  0  0  0  0  0
   -5.3409   -2.6919   -1.6099 C   0  0  0  0  0  0  0  0  0  0  0  0
   -4.1430   -3.0552   -2.2220 C   0  0  0  0  0  0  0  0  0  0  0  0
   -2.9801   -2.3154   -1.9874 C   0  0  0  0  0  0  0  0  0  0  0  0
   -2.9896   -1.1857   -1.1311 C   0  0  0  0  0  0  0  0  0  0  0  0
   -1.7801   -0.4539   -0.9018 C   0  0  0  0  0  0  0  0  0  0  0  0
   -0.7362   -0.9184   -1.4377 O   0  0  0  0  0  0  0  0  0  0  0  0
   -1.6628    0.7393   -0.0943 C   0  0  0  0  0  0  0  0  0  0  0  0
    3.1300   -3.2840    2.4861 H   0  0  0  0  0  0  0  0  0  0  0  0
    4.1923   -3.4282    1.0327 H   0  0  0  0  0  0  0  0  0  0  0  0
    2.4116   -3.1664    0.8369 H   0  0  0  0  0  0  0  0  0  0  0  0
    4.3732   -1.2114    2.1724 H   0  0  0  0  0  0  0  0  0  0  0  0
    2.6331   -0.9155    1.9139 H   0  0  0  0  0  0  0  0  0  0  0  0
    4.6327    1.0136    0.5784 H   0  0  0  0  0  0  0  0  0  0  0  0
    5.7922   -0.3469    0.6461 H   0  0  0  0  0  0  0  0  0  0  0  0
    5.6191   -0.6351   -1.8580 H   0  0  0  0  0  0  0  0  0  0  0  0
    6.3618    0.9113   -1.2983 H   0  0  0  0  0  0  0  0  0  0  0  0
    4.6762    0.9112   -1.9165 H   0  0  0  0  0  0  0  0  0  0  0  0
    2.7858   -0.5122   -1.7086 H   0  0  0  0  0  0  0  0  0  0  0  0
    1.7865   -1.2476   -0.4499 H   0  0  0  0  0  0  0  0  0  0  0  0
    2.7314    1.6854   -0.6131 H   0  0  0  0  0  0  0  0  0  0  0  0
    2.0299    0.9913    0.8874 H   0  0  0  0  0  0  0  0  0  0  0  0
    0.6176    1.0587   -1.8212 H   0  0  0  0  0  0  0  0  0  0  0  0
    0.6599    3.0285    1.0016 H   0  0  0  0  0  0  0  0  0  0  0  0
   -1.2198    3.8047    2.3147 H   0  0  0  0  0  0  0  0  0  0  0  0
   -3.7699    2.4268    3.3116 H   0  0  0  0  0  0  0  0  0  0  0  0
   -4.7705    2.7113    1.8521 H   0  0  0  0  0  0  0  0  0  0  0  0
   -3.8850    4.7357    1.6392 H   0  0  0  0  0  0  0  0  0  0  0  0
   -6.3142   -1.3100   -0.2886 H   0  0  0  0  0  0  0  0  0  0  0  0
   -6.2396   -3.2674   -1.7917 H   0  0  0  0  0  0  0  0  0  0  0  0
   -4.1136   -3.9139   -2.8805 H   0  0  0  0  0  0  0  0  0  0  0  0
   -2.0741   -2.6347   -2.4865 H   0  0  0  0  0  0  0  0  0  0  0  0
  1  2  1  0
  2  3  1  0
  3  4  1  0
  4  5  1  0
  3  6  1  0
  6  7  1  0
  7  8  1  0
  8  9  1  0
  9 10  2  0
 10 11  1  0
 11 12  2  0
 12 13  1  0
 13 14  1  0
 12 15  1  0
 15 16  1  0
 16 17  1  0
 17 18  2  0
 18 19  1  0
 19 20  2  0
 20 21  1  0
 21 22  2  0
 22 17  1  0
 22 23  1  0
 23 24  2  0
 23 25  1  0
 25  9  1  0
 25 15  2  0
  1 26  1  0
  1 27  1  0
  1 28  1  0
  2 29  1  0
  2 30  1  0
  4 31  1  0
  4 32  1  0
  5 33  1  0
  5 34  1  0
  5 35  1  0
  6 36  1  0
  6 37  1  0
  7 38  1  0
  7 39  1  0
  8 40  1  0
 10 41  1  0
 11 42  1  0
 13 43  1  0
 13 44  1  0
 14 45  1  0
 18 46  1  0
 19 47  1  0
 20 48  1  0
 21 49  1  0
M  END
> <ID>
HT1041

> <Class>
0.0

> <Clusters>
127

> <Fold>
5

$$$$