
     RDKit          3D

 45 46  0  0  0  0  0  0  0  0999 V2000
   -2.3918    3.4346    0.6299 O   0  0  0  0  0  0  0  0  0  0  0  0
   -1.7799    2.3964    1.3475 C   0  0  0  0  0  0  0  0  0  0  0  0
   -1.8033    1.0787    0.5549 C   0  0  1  0  0  0  0  0  0  0  0  0
   -0.9803    0.1474    1.2414 O   0  0  0  0  0  0  0  0  0  0  0  0
   -0.8408   -1.0704    0.5248 C   0  0  2  0  0  0  0  0  0  0  0  0
   -0.2105   -0.8553   -0.7341 O   0  0  0  0  0  0  0  0  0  0  0  0
    1.2158   -0.9096   -0.6867 C   0  0  2  0  0  0  0  0  0  0  0  0
    1.6828   -2.3615   -0.9797 C   0  0  0  0  0  0  0  0  0  0  0  0
    1.3416   -3.2373    0.0600 O   0  0  0  0  0  0  0  0  0  0  0  0
    1.7315   -0.4700    0.5580 O   0  0  0  0  0  0  0  0  0  0  0  0
    2.9882    0.1276    0.3201 C   0  0  2  0  0  0  0  0  0  0  0  0
    3.1744    1.3188    1.2669 C   0  0  0  0  0  0  0  0  0  0  0  0
    2.1360    2.2444    1.0977 O   0  0  0  0  0  0  0  0  0  0  0  0
    3.0934    0.5287   -1.1587 C   0  0  1  0  0  0  0  0  0  0  0  0
    4.1846   -0.1256   -1.7549 O   0  0  0  0  0  0  0  0  0  0  0  0
    1.7831    0.0409   -1.7567 C   0  0  2  0  0  0  0  0  0  0  0  0
    0.9164    1.1225   -2.0107 O   0  0  0  0  0  0  0  0  0  0  0  0
   -2.2063   -1.7607    0.3312 C   0  0  2  0  0  0  0  0  0  0  0  0
   -2.0564   -2.9171   -0.4516 O   0  0  0  0  0  0  0  0  0  0  0  0
   -3.2036   -0.8087   -0.3448 C   0  0  1  0  0  0  0  0  0  0  0  0
   -4.4872   -1.3794   -0.3412 O   0  0  0  0  0  0  0  0  0  0  0  0
   -3.2415    0.5302    0.4080 C   0  0  2  0  0  0  0  0  0  0  0  0
   -4.0316    1.4455   -0.3077 O   0  0  0  0  0  0  0  0  0  0  0  0
   -1.7527    3.7049   -0.0802 H   0  0  0  0  0  0  0  0  0  0  0  0
   -2.3104    2.2653    2.3149 H   0  0  0  0  0  0  0  0  0  0  0  0
   -0.7267    2.6730    1.5832 H   0  0  0  0  0  0  0  0  0  0  0  0
   -1.3897    1.2931   -0.4550 H   0  0  0  0  0  0  0  0  0  0  0  0
   -0.2537   -1.7613    1.1676 H   0  0  0  0  0  0  0  0  0  0  0  0
    1.1940   -2.7201   -1.9108 H   0  0  0  0  0  0  0  0  0  0  0  0
    2.7826   -2.3978   -1.1539 H   0  0  0  0  0  0  0  0  0  0  0  0
    2.0123   -3.1014    0.7792 H   0  0  0  0  0  0  0  0  0  0  0  0
    3.7759   -0.6202    0.5662 H   0  0  0  0  0  0  0  0  0  0  0  0
    3.1746    0.9486    2.3166 H   0  0  0  0  0  0  0  0  0  0  0  0
    4.1551    1.8056    1.0657 H   0  0  0  0  0  0  0  0  0  0  0  0
    2.3150    2.9796    1.7396 H   0  0  0  0  0  0  0  0  0  0  0  0
    3.2075    1.6324   -1.2836 H   0  0  0  0  0  0  0  0  0  0  0  0
    4.3218    0.3003   -2.6413 H   0  0  0  0  0  0  0  0  0  0  0  0
    1.9514   -0.4859   -2.7229 H   0  0  0  0  0  0  0  0  0  0  0  0
    0.8085    1.6350   -1.1674 H   0  0  0  0  0  0  0  0  0  0  0  0
   -2.6123   -2.0368    1.3338 H   0  0  0  0  0  0  0  0  0  0  0  0
   -1.6325   -3.6025    0.1284 H   0  0  0  0  0  0  0  0  0  0  0  0
   -2.8773   -0.6152   -1.3954 H   0  0  0  0  0  0  0  0  0  0  0  0
   -4.5132   -2.0356   -1.0857 H   0  0  0  0  0  0  0  0  0  0  0  0
   -3.6669    0.3688    1.4278 H   0  0  0  0  0  0  0  0  0  0  0  0
   -4.9779    1.2499   -0.0802 H   0  0  0  0  0  0  0  0  0  0  0  0
  1  2  1  0
  3  2  1  0
  3  4  1  0
  4  5  1  0
  5  6  1  0
  7  6  1  1
  7  8  1  0
  8  9  1  0
  7 10  1  0
 10 11  1  0
 11 12  1  0
 12 13  1  0
 11 14  1  0
 14 15  1  0
 14 16  1  0
 16  7  1  0
 16 17  1  0
  5 18  1  0
 18 19  1  0
 18 20  1  0
 20 21  1  0
 20 22  1  0
 22  3  1  0
 22 23  1  0
  1 24  1  0
  2 25  1  0
  2 26  1  0
  3 27  1  6
  5 28  1  1
  8 29  1  0
  8 30  1  0
  9 31  1  0
 11 32  1  1
 12 33  1  0
 12 34  1  0
 13 35  1  0
 14 36  1  1
 15 37  1  0
 16 38  1  6
 17 39  1  0
 18 40  1  1
 19 41  1  0
 20 42  1  6
 21 43  1  0
 22 44  1  1
 23 45  1  0
M  END
> <ID>
HT1126

> <Class>
0.0

> <Clusters>
143

> <Fold>
5

$$$$