
     RDKit          3D

 34 34  0  0  0  0  0  0  0  0999 V2000
   -1.4527    2.2520    1.3732 C   0  0  0  0  0  0  0  0  0  0  0  0
   -1.6855    0.7446    1.5610 C   0  0  0  0  0  0  0  0  0  0  0  0
   -1.4179   -0.1563    0.3016 C   0  0  0  0  0  0  0  0  0  0  0  0
   -0.1013    0.2200   -0.4429 C   0  0  0  0  0  0  0  0  0  0  0  0
    1.1845    0.0421    0.3954 C   0  0  0  0  0  0  0  0  0  0  0  0
    2.4272    0.6639   -0.2813 C   0  0  0  0  0  0  0  0  0  0  0  0
    2.8032   -0.0699   -1.5777 C   0  0  0  0  0  0  0  0  0  0  0  0
    3.6163    0.6494    0.6883 C   0  0  0  0  0  0  0  0  0  0  0  0
   -2.5645   -0.0223   -0.7029 C   0  0  0  0  0  0  0  0  0  0  0  0
   -3.2384    1.0397   -0.7781 O   0  0  0  0  0  0  0  0  0  0  0  0
   -2.8515   -1.0792   -1.6248 N   0  0  0  0  0  0  0  0  0  0  0  0
   -2.3534   -2.3941   -1.3928 C   0  0  0  0  0  0  0  0  0  0  0  0
   -2.5785   -3.3125   -2.2246 O   0  0  0  0  0  0  0  0  0  0  0  0
   -1.6338   -2.6730   -0.1947 N   0  0  0  0  0  0  0  0  0  0  0  0
   -1.3275   -1.6230    0.7286 C   0  0  0  0  0  0  0  0  0  0  0  0
   -0.9056   -1.9328    1.8764 O   0  0  0  0  0  0  0  0  0  0  0  0
   -0.3732    2.4720    1.2428 H   0  0  0  0  0  0  0  0  0  0  0  0
   -2.0091    2.6610    0.5088 H   0  0  0  0  0  0  0  0  0  0  0  0
   -1.7949    2.7883    2.2833 H   0  0  0  0  0  0  0  0  0  0  0  0
   -1.0399    0.4348    2.4101 H   0  0  0  0  0  0  0  0  0  0  0  0
   -2.7333    0.5891    1.9012 H   0  0  0  0  0  0  0  0  0  0  0  0
   -0.1658    1.2675   -0.8093 H   0  0  0  0  0  0  0  0  0  0  0  0
   -0.0141   -0.4210   -1.3475 H   0  0  0  0  0  0  0  0  0  0  0  0
    1.0493    0.5266    1.3840 H   0  0  0  0  0  0  0  0  0  0  0  0
    1.3664   -1.0397    0.5767 H   0  0  0  0  0  0  0  0  0  0  0  0
    2.2096    1.7265   -0.5294 H   0  0  0  0  0  0  0  0  0  0  0  0
    2.9458   -1.1554   -1.3878 H   0  0  0  0  0  0  0  0  0  0  0  0
    3.7450    0.3456   -1.9956 H   0  0  0  0  0  0  0  0  0  0  0  0
    2.0150    0.0648   -2.3467 H   0  0  0  0  0  0  0  0  0  0  0  0
    3.8777   -0.3929    0.9718 H   0  0  0  0  0  0  0  0  0  0  0  0
    4.5026    1.1270    0.2185 H   0  0  0  0  0  0  0  0  0  0  0  0
    3.3695    1.2207    1.6087 H   0  0  0  0  0  0  0  0  0  0  0  0
   -3.4905   -0.9039   -2.4328 H   0  0  0  0  0  0  0  0  0  0  0  0
   -1.3807   -3.6596    0.0386 H   0  0  0  0  0  0  0  0  0  0  0  0
  1  2  1  0
  2  3  1  0
  3  4  1  0
  4  5  1  0
  5  6  1  0
  6  7  1  0
  6  8  1  0
  3  9  1  0
  9 10  2  0
  9 11  1  0
 11 12  1  0
 12 13  2  0
 12 14  1  0
 14 15  1  0
 15  3  1  0
 15 16  2  0
  1 17  1  0
  1 18  1  0
  1 19  1  0
  2 20  1  0
  2 21  1  0
  4 22  1  0
  4 23  1  0
  5 24  1  0
  5 25  1  0
  6 26  1  0
  7 27  1  0
  7 28  1  0
  7 29  1  0
  8 30  1  0
  8 31  1  0
  8 32  1  0
 11 33  1  0
 14 34  1  0
M  END
> <ID>
HT0146

> <Class>
0.0

> <Clusters>
28

> <Fold>
5

$$$$