
     RDKit          3D

102107  0  0  0  0  0  0  0  0999 V2000
   -3.4278   -1.8613    1.1248 C   0  0  0  0  0  0  0  0  0  0  0  0
   -4.6159   -0.9620    0.7365 C   0  0  0  0  0  0  0  0  0  0  0  0
   -5.2249   -0.4094    2.0536 C   0  0  0  0  0  0  0  0  0  0  0  0
   -4.4166    0.2849   -0.1496 C   0  0  0  0  0  0  0  0  0  0  0  0
   -3.2644    0.8493   -0.4867 C   0  0  0  0  0  0  0  0  0  0  0  0
   -1.8499    0.6207   -0.0363 C   0  0  0  0  0  0  0  0  0  0  0  0
   -0.8651    0.8408   -0.9849 C   0  0  0  0  0  0  0  0  0  0  0  0
    0.6137    1.0008   -0.8970 C   0  0  0  0  0  0  0  0  0  0  0  0
    1.2577    2.0435   -0.3239 C   0  0  0  0  0  0  0  0  0  0  0  0
    2.2706    1.4780    0.6245 C   0  0  0  0  0  0  0  0  0  0  0  0
    3.4508    1.3093    0.0339 C   0  0  0  0  0  0  0  0  0  0  0  0
    4.3182    0.0777    0.0082 C   0  0  0  0  0  0  0  0  0  0  0  0
    5.1984   -0.0617   -0.9764 N   0  0  0  0  0  0  0  0  0  0  0  0
    5.4349    0.8830   -2.0734 C   0  0  0  0  0  0  0  0  0  0  0  0
    6.2070    2.1183   -1.5484 C   0  0  0  0  0  0  0  0  0  0  0  0
    7.6918    2.0273   -1.8181 C   0  0  0  0  0  0  0  0  0  0  0  0
    8.5049    2.9477   -0.9300 C   0  0  0  0  0  0  0  0  0  0  0  0
    8.2594    4.6625   -1.3193 S   0  0  0  0  0  0  0  0  0  0  0  0
    9.2796    5.4954   -0.5857 O   0  0  0  0  0  0  0  0  0  0  0  0
    6.8942    5.1151   -0.8901 O   0  0  0  0  0  0  0  0  0  0  0  0
    8.4677    4.9008   -2.9540 O   0  0  0  0  0  0  0  0  0  0  0  0
    5.9312   -1.2644   -0.7533 C   0  0  0  0  0  0  0  0  0  0  0  0
    7.0961   -1.6232   -1.3125 C   0  0  0  0  0  0  0  0  0  0  0  0
    7.8572   -2.6562   -0.7689 C   0  0  0  0  0  0  0  0  0  0  0  0
    7.4662   -3.2285    0.4722 C   0  0  0  0  0  0  0  0  0  0  0  0
    8.3139   -4.1966    1.0553 C   0  0  0  0  0  0  0  0  0  0  0  0
    7.9792   -4.7448    2.2841 C   0  0  0  0  0  0  0  0  0  0  0  0
    6.7909   -4.3965    2.9140 C   0  0  0  0  0  0  0  0  0  0  0  0
    5.9163   -3.4621    2.3172 C   0  0  0  0  0  0  0  0  0  0  0  0
    6.2557   -2.8458    1.0733 C   0  0  0  0  0  0  0  0  0  0  0  0
    5.4748   -1.8254    0.4579 C   0  0  0  0  0  0  0  0  0  0  0  0
    4.2080   -1.1386    0.8669 C   0  0  0  0  0  0  0  0  0  0  0  0
    4.0153   -0.8803    2.3916 C   0  0  0  0  0  0  0  0  0  0  0  0
    3.0389   -2.0029    0.3431 C   0  0  0  0  0  0  0  0  0  0  0  0
   -5.6952    0.6288   -0.7663 N   0  0  0  0  0  0  0  0  0  0  0  0
   -5.9902    1.8514   -1.5308 C   0  0  0  0  0  0  0  0  0  0  0  0
   -5.8879    3.0978   -0.6332 C   0  0  0  0  0  0  0  0  0  0  0  0
   -6.9448    3.1106    0.4795 C   0  0  0  0  0  0  0  0  0  0  0  0
   -7.4183    4.5551    0.7077 C   0  0  0  0  0  0  0  0  0  0  0  0
   -8.6514    4.6270    1.9996 S   0  0  0  0  0  0  0  0  0  0  0  0
   -9.7150    3.5923    1.7855 O   0  0  0  0  0  0  0  0  0  0  0  0
   -7.9899    4.4069    3.3473 O   0  0  0  0  0  0  0  0  0  0  0  0
   -9.3582    6.1615    1.9542 O   0  0  0  0  0  0  0  0  0  0  0  0
   -6.4326   -0.5979   -0.6735 C   0  0  0  0  0  0  0  0  0  0  0  0
   -7.6782   -0.7777   -1.2231 C   0  0  0  0  0  0  0  0  0  0  0  0
   -8.2019   -2.0706   -1.2925 C   0  0  0  0  0  0  0  0  0  0  0  0
   -7.4207   -3.1931   -0.9327 C   0  0  0  0  0  0  0  0  0  0  0  0
   -7.8499   -4.4975   -1.2126 C   0  0  0  0  0  0  0  0  0  0  0  0
   -7.0044   -5.5879   -1.0140 C   0  0  0  0  0  0  0  0  0  0  0  0
   -5.7173   -5.3718   -0.5263 C   0  0  0  0  0  0  0  0  0  0  0  0
   -5.2934   -4.0888   -0.1656 C   0  0  0  0  0  0  0  0  0  0  0  0
   -6.1207   -2.9566   -0.3559 C   0  0  0  0  0  0  0  0  0  0  0  0
   -5.7423   -1.6081   -0.0674 C   0  0  0  0  0  0  0  0  0  0  0  0
   -2.7296   -1.4153    1.9129 H   0  0  0  0  0  0  0  0  0  0  0  0
   -3.8127   -2.7406    1.6648 H   0  0  0  0  0  0  0  0  0  0  0  0
   -2.8031   -2.1863    0.2538 H   0  0  0  0  0  0  0  0  0  0  0  0
   -5.3360   -1.2383    2.7850 H   0  0  0  0  0  0  0  0  0  0  0  0
   -6.1979    0.0493    1.8709 H   0  0  0  0  0  0  0  0  0  0  0  0
   -4.5643    0.3686    2.4929 H   0  0  0  0  0  0  0  0  0  0  0  0
   -3.3434    1.6285   -1.2611 H   0  0  0  0  0  0  0  0  0  0  0  0
   -1.7770    0.1256    0.9570 H   0  0  0  0  0  0  0  0  0  0  0  0
   -0.2215   -0.1305   -0.6976 H   0  0  0  0  0  0  0  0  0  0  0  0
    0.0767    1.2258   -2.0079 H   0  0  0  0  0  0  0  0  0  0  0  0
    0.9012    3.0975   -0.2717 H   0  0  0  0  0  0  0  0  0  0  0  0
    1.8773    0.7337    1.3701 H   0  0  0  0  0  0  0  0  0  0  0  0
    3.7364    2.1486   -0.5982 H   0  0  0  0  0  0  0  0  0  0  0  0
    4.4407    1.2172   -2.4777 H   0  0  0  0  0  0  0  0  0  0  0  0
    5.9770    0.3901   -2.8931 H   0  0  0  0  0  0  0  0  0  0  0  0
    5.7798    3.0342   -1.9514 H   0  0  0  0  0  0  0  0  0  0  0  0
    6.0853    2.1835   -0.4462 H   0  0  0  0  0  0  0  0  0  0  0  0
    8.0181    1.0069   -1.6026 H   0  0  0  0  0  0  0  0  0  0  0  0
    7.8924    2.2313   -2.9126 H   0  0  0  0  0  0  0  0  0  0  0  0
    9.5558    2.7063   -1.0277 H   0  0  0  0  0  0  0  0  0  0  0  0
    8.2346    2.7783    0.1417 H   0  0  0  0  0  0  0  0  0  0  0  0
    7.5539    4.8296   -3.3379 H   0  0  0  0  0  0  0  0  0  0  0  0
    7.4210   -1.1227   -2.2096 H   0  0  0  0  0  0  0  0  0  0  0  0
    8.7362   -2.9658   -1.2935 H   0  0  0  0  0  0  0  0  0  0  0  0
    9.2219   -4.5355    0.5605 H   0  0  0  0  0  0  0  0  0  0  0  0
    8.6345   -5.4425    2.7717 H   0  0  0  0  0  0  0  0  0  0  0  0
    6.4856   -4.8649    3.8220 H   0  0  0  0  0  0  0  0  0  0  0  0
    4.9668   -3.3026    2.7690 H   0  0  0  0  0  0  0  0  0  0  0  0
    4.9891   -0.7307    2.9361 H   0  0  0  0  0  0  0  0  0  0  0  0
    3.3734   -0.0006    2.6229 H   0  0  0  0  0  0  0  0  0  0  0  0
    3.4379   -1.7068    2.8397 H   0  0  0  0  0  0  0  0  0  0  0  0
    3.0724   -2.9910    0.8373 H   0  0  0  0  0  0  0  0  0  0  0  0
    2.0220   -1.5644    0.4730 H   0  0  0  0  0  0  0  0  0  0  0  0
    3.1876   -2.1813   -0.7414 H   0  0  0  0  0  0  0  0  0  0  0  0
   -5.2792    1.9458   -2.4110 H   0  0  0  0  0  0  0  0  0  0  0  0
   -6.9757    1.7889   -2.0054 H   0  0  0  0  0  0  0  0  0  0  0  0
   -4.8828    3.1629   -0.2116 H   0  0  0  0  0  0  0  0  0  0  0  0
   -6.0063    3.9955   -1.2892 H   0  0  0  0  0  0  0  0  0  0  0  0
   -7.8031    2.4650    0.2303 H   0  0  0  0  0  0  0  0  0  0  0  0
   -6.5115    2.7157    1.4029 H   0  0  0  0  0  0  0  0  0  0  0  0
   -7.8897    4.9263   -0.2361 H   0  0  0  0  0  0  0  0  0  0  0  0
   -6.5625    5.2099    1.0050 H   0  0  0  0  0  0  0  0  0  0  0  0
   -9.3978    6.4704    2.8955 H   0  0  0  0  0  0  0  0  0  0  0  0
   -8.3013    0.0391   -1.5800 H   0  0  0  0  0  0  0  0  0  0  0  0
   -9.2416   -2.2464   -1.7033 H   0  0  0  0  0  0  0  0  0  0  0  0
   -8.8377   -4.6628   -1.6243 H   0  0  0  0  0  0  0  0  0  0  0  0
   -7.3155   -6.5622   -1.2884 H   0  0  0  0  0  0  0  0  0  0  0  0
   -5.0424   -6.2330   -0.4509 H   0  0  0  0  0  0  0  0  0  0  0  0
   -4.2608   -4.0275    0.0866 H   0  0  0  0  0  0  0  0  0  0  0  0
  1  2  1  0
  2  3  1  0
  2  4  1  0
  4  5  2  3
  5  6  1  0
  6  7  2  3
  7  8  1  0
  8  9  2  3
  9 10  1  0
 10 11  2  3
 11 12  1  0
 12 13  2  0
 13 14  1  0
 14 15  1  0
 15 16  1  0
 16 17  1  0
 17 18  1  0
 18 19  2  0
 18 20  2  0
 18 21  1  0
 13 22  1  0
 22 23  2  0
 23 24  1  0
 24 25  2  0
 25 26  1  0
 26 27  2  0
 27 28  1  0
 28 29  2  0
 29 30  1  0
 30 25  1  0
 30 31  2  0
 31 22  1  0
 31 32  1  0
 32 12  1  0
 32 33  1  0
 32 34  1  0
  4 35  1  0
 35 36  1  0
 36 37  1  0
 37 38  1  0
 38 39  1  0
 39 40  1  0
 40 41  2  0
 40 42  2  0
 40 43  1  0
 35 44  1  0
 44 45  2  0
 45 46  1  0
 46 47  2  0
 47 48  1  0
 48 49  2  0
 49 50  1  0
 50 51  2  0
 51 52  1  0
 52 47  1  0
 52 53  2  0
 53  2  1  0
 53 44  1  0
  1 54  1  0
  1 55  1  0
  1 56  1  0
  3 57  1  0
  3 58  1  0
  3 59  1  0
  5 60  1  0
  6 61  1  0
  7 62  1  0
  8 63  1  0
  9 64  1  0
 10 65  1  0
 11 66  1  0
 14 67  1  0
 14 68  1  0
 15 69  1  0
 15 70  1  0
 16 71  1  0
 16 72  1  0
 17 73  1  0
 17 74  1  0
 21 75  1  0
 23 76  1  0
 24 77  1  0
 26 78  1  0
 27 79  1  0
 28 80  1  0
 29 81  1  0
 33 82  1  0
 33 83  1  0
 33 84  1  0
 34 85  1  0
 34 86  1  0
 34 87  1  0
 36 88  1  0
 36 89  1  0
 37 90  1  0
 37 91  1  0
 38 92  1  0
 38 93  1  0
 39 94  1  0
 39 95  1  0
 43 96  1  0
 45 97  1  0
 46 98  1  0
 48 99  1  0
 49100  1  0
 50101  1  0
 51102  1  0
M  CHG  1  13   1
M  END
> <ID>
HT1095

> <Class>
0.0

> <Clusters>
39

> <Fold>
5

$$$$