
     RDKit          3D

 17 16  0  0  0  0  0  0  0  0999 V2000
    2.0993    0.2147   -0.0323 C   0  0  0  0  0  0  0  0  0  0  0  0
    0.6681    0.2615   -0.5881 C   0  0  0  0  0  0  0  0  0  0  0  0
    0.4762   -0.7221   -1.5764 O   0  0  0  0  0  0  0  0  0  0  0  0
   -0.3957    0.1570    0.5316 C   0  0  0  0  0  0  0  0  0  0  0  0
   -0.2504   -1.0946    1.2856 N   0  0  0  0  0  0  0  0  0  0  0  0
   -1.7876    0.3194   -0.0348 C   0  0  0  0  0  0  0  0  0  0  0  0
   -2.6447   -0.5994    0.0720 O   0  0  0  0  0  0  0  0  0  0  0  0
   -2.1311    1.5070   -0.6740 O   0  0  0  0  0  0  0  0  0  0  0  0
    2.8273    0.3374   -0.8621 H   0  0  0  0  0  0  0  0  0  0  0  0
    2.2544    1.0391    0.6959 H   0  0  0  0  0  0  0  0  0  0  0  0
    2.2986   -0.7540    0.4731 H   0  0  0  0  0  0  0  0  0  0  0  0
    0.5503    1.2527   -1.0790 H   0  0  0  0  0  0  0  0  0  0  0  0
    0.7601   -1.5955   -1.2008 H   0  0  0  0  0  0  0  0  0  0  0  0
   -0.2311    1.0028    1.2360 H   0  0  0  0  0  0  0  0  0  0  0  0
   -0.8866   -1.0606    2.1155 H   0  0  0  0  0  0  0  0  0  0  0  0
   -0.5487   -1.9062    0.6972 H   0  0  0  0  0  0  0  0  0  0  0  0
   -3.0584    1.6407   -1.0594 H   0  0  0  0  0  0  0  0  0  0  0  0
  1  2  1  0
  2  3  1  0
  2  4  1  0
  4  5  1  0
  4  6  1  0
  6  7  2  0
  6  8  1  0
  1  9  1  0
  1 10  1  0
  1 11  1  0
  2 12  1  0
  3 13  1  0
  4 14  1  0
  5 15  1  0
  5 16  1  0
  8 17  1  0
M  END
> <ID>
HT1251

> <Class>
0.0

> <Clusters>
151

> <Fold>
5

$$$$