
     RDKit          3D

 22 21  0  0  0  0  0  0  0  0999 V2000
   -2.1094    1.3531    0.1280 C   0  0  0  0  0  0  0  0  0  0  0  0
   -0.6692    0.9546   -0.2015 C   0  0  0  0  0  0  0  0  0  0  0  0
   -0.2559   -0.3975    0.4373 C   0  0  0  0  0  0  0  0  0  0  0  0
   -1.0451   -1.5648   -0.1866 C   0  0  0  0  0  0  0  0  0  0  0  0
    1.2781   -0.6883    0.3640 C   0  0  0  0  0  0  0  0  0  0  0  0
    2.0656    0.1897    1.2359 N   0  0  0  0  0  0  0  0  0  0  0  0
    1.8309   -0.6762   -1.0439 C   0  0  0  0  0  0  0  0  0  0  0  0
    2.1054   -1.7684   -1.6081 O   0  0  0  0  0  0  0  0  0  0  0  0
    2.0652    0.5118   -1.7342 O   0  0  0  0  0  0  0  0  0  0  0  0
   -2.2965    2.3877   -0.2294 H   0  0  0  0  0  0  0  0  0  0  0  0
   -2.2817    1.3240    1.2249 H   0  0  0  0  0  0  0  0  0  0  0  0
   -2.8324    0.6827   -0.3805 H   0  0  0  0  0  0  0  0  0  0  0  0
   -0.0200    1.7698    0.1746 H   0  0  0  0  0  0  0  0  0  0  0  0
   -0.5577    0.9098   -1.3062 H   0  0  0  0  0  0  0  0  0  0  0  0
   -0.5290   -0.3653    1.5158 H   0  0  0  0  0  0  0  0  0  0  0  0
   -2.1281   -1.4708    0.0335 H   0  0  0  0  0  0  0  0  0  0  0  0
   -0.7117   -2.5342    0.2411 H   0  0  0  0  0  0  0  0  0  0  0  0
   -0.9016   -1.5935   -1.2878 H   0  0  0  0  0  0  0  0  0  0  0  0
    1.4266   -1.7204    0.7566 H   0  0  0  0  0  0  0  0  0  0  0  0
    1.7238    0.0860    2.2190 H   0  0  0  0  0  0  0  0  0  0  0  0
    1.9457    1.1906    0.9689 H   0  0  0  0  0  0  0  0  0  0  0  0
    1.8970    1.4198   -1.3216 H   0  0  0  0  0  0  0  0  0  0  0  0
  1  2  1  0
  2  3  1  0
  3  4  1  0
  3  5  1  0
  5  6  1  0
  5  7  1  0
  7  8  2  0
  7  9  1  0
  1 10  1  0
  1 11  1  0
  1 12  1  0
  2 13  1  0
  2 14  1  0
  3 15  1  0
  4 16  1  0
  4 17  1  0
  4 18  1  0
  5 19  1  0
  6 20  1  0
  6 21  1  0
  9 22  1  0
M  END
> <ID>
HT1219

> <Class>
0.0

> <Clusters>
151

> <Fold>
5

$$$$