
     RDKit          3D

 22 21  0  0  0  0  0  0  0  0999 V2000
   -1.8664    0.1891    1.2296 C   0  0  0  0  0  0  0  0  0  0  0  0
   -1.3365   -0.1207   -0.1788 C   0  0  0  0  0  0  0  0  0  0  0  0
   -2.1993   -1.2095   -0.8303 C   0  0  0  0  0  0  0  0  0  0  0  0
    0.1458   -0.5672   -0.1560 C   0  0  0  0  0  0  0  0  0  0  0  0
    1.1265    0.5335    0.3037 C   0  0  0  0  0  0  0  0  0  0  0  0
    0.9913    1.7247   -0.5406 N   0  0  0  0  0  0  0  0  0  0  0  0
    2.5420    0.0068    0.2915 C   0  0  0  0  0  0  0  0  0  0  0  0
    2.8622   -0.9388    1.0610 O   0  0  0  0  0  0  0  0  0  0  0  0
    3.5024    0.5594   -0.5526 O   0  0  0  0  0  0  0  0  0  0  0  0
   -2.9542    0.4115    1.1913 H   0  0  0  0  0  0  0  0  0  0  0  0
   -1.3639    1.0847    1.6490 H   0  0  0  0  0  0  0  0  0  0  0  0
   -1.7031   -0.6740    1.9100 H   0  0  0  0  0  0  0  0  0  0  0  0
   -1.4358    0.7961   -0.8001 H   0  0  0  0  0  0  0  0  0  0  0  0
   -1.8505   -1.4083   -1.8662 H   0  0  0  0  0  0  0  0  0  0  0  0
   -2.1463   -2.1535   -0.2462 H   0  0  0  0  0  0  0  0  0  0  0  0
   -3.2591   -0.8804   -0.8850 H   0  0  0  0  0  0  0  0  0  0  0  0
    0.2473   -1.4527    0.5105 H   0  0  0  0  0  0  0  0  0  0  0  0
    0.4405   -0.8906   -1.1797 H   0  0  0  0  0  0  0  0  0  0  0  0
    0.8933    0.8167    1.3521 H   0  0  0  0  0  0  0  0  0  0  0  0
    1.6339    2.4691   -0.1833 H   0  0  0  0  0  0  0  0  0  0  0  0
    1.2775    1.4953   -1.5208 H   0  0  0  0  0  0  0  0  0  0  0  0
    4.4527    0.2086   -0.5591 H   0  0  0  0  0  0  0  0  0  0  0  0
  1  2  1  0
  2  3  1  0
  2  4  1  0
  4  5  1  0
  5  6  1  0
  5  7  1  0
  7  8  2  0
  7  9  1  0
  1 10  1  0
  1 11  1  0
  1 12  1  0
  2 13  1  0
  3 14  1  0
  3 15  1  0
  3 16  1  0
  4 17  1  0
  4 18  1  0
  5 19  1  0
  6 20  1  0
  6 21  1  0
  9 22  1  0
M  END
> <ID>
HT1223

> <Class>
0.0

> <Clusters>
151

> <Fold>
5

$$$$