
     RDKit          3D

 38 37  0  0  0  0  0  0  0  0999 V2000
   -1.4487    3.6740   -2.6913 C   0  0  0  0  0  0  0  0  0  0  0  0
   -1.6586    2.9190   -1.3822 C   0  0  0  0  0  0  0  0  0  0  0  0
   -0.6930    1.8788   -1.2374 O   0  0  0  0  0  0  0  0  0  0  0  0
   -0.7539    0.6681   -1.9374 C   0  0  0  0  0  0  0  0  0  0  0  0
   -1.7024    0.4299   -2.7341 O   0  0  0  0  0  0  0  0  0  0  0  0
    0.3001   -0.3714   -1.7039 C   0  0  0  0  0  0  0  0  0  0  0  0
    0.1241   -1.0494   -0.3344 C   0  0  0  0  0  0  0  0  0  0  0  0
    1.5019   -2.2212   -0.0397 S   0  0  0  0  0  0  0  0  0  0  0  0
    2.6610   -0.9126    1.1668 P   0  0  0  0  0  0  0  0  0  0  0  0
    4.0651   -1.8059    1.6658 S   0  0  0  0  0  0  0  0  0  0  0  0
    1.7210   -0.5248    2.5404 O   0  0  0  0  0  0  0  0  0  0  0  0
    2.2369    0.6429    3.1316 C   0  0  0  0  0  0  0  0  0  0  0  0
    2.9889    0.4921    0.2267 O   0  0  0  0  0  0  0  0  0  0  0  0
    4.3264    0.9056    0.3708 C   0  0  0  0  0  0  0  0  0  0  0  0
   -1.1699   -1.8085   -0.2612 C   0  0  0  0  0  0  0  0  0  0  0  0
   -1.4155   -2.7231   -1.0963 O   0  0  0  0  0  0  0  0  0  0  0  0
   -2.0950   -1.4883    0.7401 O   0  0  0  0  0  0  0  0  0  0  0  0
   -3.3281   -2.1814    0.9202 C   0  0  0  0  0  0  0  0  0  0  0  0
   -3.0948   -3.5231    1.6033 C   0  0  0  0  0  0  0  0  0  0  0  0
   -0.4232    4.1011   -2.7236 H   0  0  0  0  0  0  0  0  0  0  0  0
   -1.5890    2.9943   -3.5590 H   0  0  0  0  0  0  0  0  0  0  0  0
   -2.1863    4.5016   -2.7637 H   0  0  0  0  0  0  0  0  0  0  0  0
   -2.6884    2.4991   -1.3365 H   0  0  0  0  0  0  0  0  0  0  0  0
   -1.5401    3.6318   -0.5387 H   0  0  0  0  0  0  0  0  0  0  0  0
    0.2742   -1.1311   -2.5167 H   0  0  0  0  0  0  0  0  0  0  0  0
    1.2914    0.1262   -1.7498 H   0  0  0  0  0  0  0  0  0  0  0  0
    0.1049   -0.2665    0.4550 H   0  0  0  0  0  0  0  0  0  0  0  0
    3.2939    0.5071    3.4494 H   0  0  0  0  0  0  0  0  0  0  0  0
    2.1283    1.5197    2.4541 H   0  0  0  0  0  0  0  0  0  0  0  0
    1.6487    0.8597    4.0470 H   0  0  0  0  0  0  0  0  0  0  0  0
    4.4541    1.8761   -0.1519 H   0  0  0  0  0  0  0  0  0  0  0  0
    4.5975    1.0666    1.4370 H   0  0  0  0  0  0  0  0  0  0  0  0
    5.0145    0.1782   -0.1132 H   0  0  0  0  0  0  0  0  0  0  0  0
   -3.8379   -2.3279   -0.0574 H   0  0  0  0  0  0  0  0  0  0  0  0
   -3.9889   -1.5626    1.5630 H   0  0  0  0  0  0  0  0  0  0  0  0
   -2.5626   -3.3718    2.5671 H   0  0  0  0  0  0  0  0  0  0  0  0
   -4.0699   -4.0150    1.8033 H   0  0  0  0  0  0  0  0  0  0  0  0
   -2.4866   -4.1869    0.9541 H   0  0  0  0  0  0  0  0  0  0  0  0
  1  2  1  0
  2  3  1  0
  3  4  1  0
  4  5  2  0
  4  6  1  0
  6  7  1  0
  7  8  1  0
  8  9  1  0
  9 10  2  0
  9 11  1  0
 11 12  1  0
  9 13  1  0
 13 14  1  0
  7 15  1  0
 15 16  2  0
 15 17  1  0
 17 18  1  0
 18 19  1  0
  1 20  1  0
  1 21  1  0
  1 22  1  0
  2 23  1  0
  2 24  1  0
  6 25  1  0
  6 26  1  0
  7 27  1  0
 12 28  1  0
 12 29  1  0
 12 30  1  0
 14 31  1  0
 14 32  1  0
 14 33  1  0
 18 34  1  0
 18 35  1  0
 19 36  1  0
 19 37  1  0
 19 38  1  0
M  END
> <ID>
HT1265

> <Class>
0.0

> <Clusters>
43

> <Fold>
5

$$$$