
     RDKit          3D

 46 47  0  0  0  0  0  0  0  0999 V2000
    4.1772   -1.6285   -1.6100 C   0  0  0  0  0  0  0  0  0  0  0  0
    4.3280   -1.3883   -0.0939 C   0  0  0  0  0  0  0  0  0  0  0  0
    5.8218   -1.0800    0.1728 C   0  0  0  0  0  0  0  0  0  0  0  0
    3.9664   -2.6777    0.6807 C   0  0  0  0  0  0  0  0  0  0  0  0
    3.5168   -0.2000    0.3081 N   0  0  0  0  0  0  0  0  0  0  0  0
    2.1139   -0.4088    0.7302 C   0  0  0  0  0  0  0  0  0  0  0  0
    1.1648   -0.7086   -0.4524 C   0  0  2  0  0  0  0  0  0  0  0  0
    1.4307    0.1171   -1.5594 O   0  0  0  0  0  0  0  0  0  0  0  0
   -0.3120   -0.6010   -0.0440 C   0  0  0  0  0  0  0  0  0  0  0  0
   -0.6521    0.7370    0.3242 O   0  0  0  0  0  0  0  0  0  0  0  0
   -1.7035    1.4284   -0.2859 C   0  0  0  0  0  0  0  0  0  0  0  0
   -1.4377    2.2213   -1.4085 C   0  0  0  0  0  0  0  0  0  0  0  0
   -2.4649    2.9244   -2.0361 C   0  0  0  0  0  0  0  0  0  0  0  0
   -3.7686    2.8513   -1.5421 C   0  0  0  0  0  0  0  0  0  0  0  0
   -4.0575    2.0728   -0.4089 C   0  0  0  0  0  0  0  0  0  0  0  0
   -5.4401    2.0030    0.1222 C   0  0  0  0  0  0  0  0  0  0  0  0
   -6.3745    2.6388   -0.4364 O   0  0  0  0  0  0  0  0  0  0  0  0
   -5.7327    1.2224    1.3711 C   0  0  0  0  0  0  0  0  0  0  0  0
   -4.7672    0.0445    1.5081 C   0  0  0  0  0  0  0  0  0  0  0  0
   -3.3090    0.5187    1.4620 C   0  0  0  0  0  0  0  0  0  0  0  0
   -3.0196    1.3430    0.2229 C   0  0  0  0  0  0  0  0  0  0  0  0
    4.3221   -0.6757   -2.1654 H   0  0  0  0  0  0  0  0  0  0  0  0
    3.1843   -2.0424   -1.8709 H   0  0  0  0  0  0  0  0  0  0  0  0
    4.9305   -2.3640   -1.9702 H   0  0  0  0  0  0  0  0  0  0  0  0
    6.1305   -0.1603   -0.3743 H   0  0  0  0  0  0  0  0  0  0  0  0
    6.4705   -1.9190   -0.1555 H   0  0  0  0  0  0  0  0  0  0  0  0
    6.0013   -0.9172    1.2588 H   0  0  0  0  0  0  0  0  0  0  0  0
    4.6711   -3.4974    0.4198 H   0  0  0  0  0  0  0  0  0  0  0  0
    4.0306   -2.5048    1.7753 H   0  0  0  0  0  0  0  0  0  0  0  0
    2.9467   -3.0346    0.4269 H   0  0  0  0  0  0  0  0  0  0  0  0
    3.9892    0.3003    1.1005 H   0  0  0  0  0  0  0  0  0  0  0  0
    2.0281   -1.1880    1.5167 H   0  0  0  0  0  0  0  0  0  0  0  0
    1.7666    0.5321    1.2125 H   0  0  0  0  0  0  0  0  0  0  0  0
    1.3159   -1.7611   -0.7625 H   0  0  0  0  0  0  0  0  0  0  0  0
    1.4763    1.0531   -1.2317 H   0  0  0  0  0  0  0  0  0  0  0  0
   -0.9514   -0.9510   -0.8859 H   0  0  0  0  0  0  0  0  0  0  0  0
   -0.5006   -1.2718    0.8222 H   0  0  0  0  0  0  0  0  0  0  0  0
   -0.4322    2.2973   -1.7948 H   0  0  0  0  0  0  0  0  0  0  0  0
   -2.2499    3.5337   -2.9036 H   0  0  0  0  0  0  0  0  0  0  0  0
   -4.5486    3.4087   -2.0460 H   0  0  0  0  0  0  0  0  0  0  0  0
   -5.6339    1.8948    2.2511 H   0  0  0  0  0  0  0  0  0  0  0  0
   -6.7756    0.8363    1.3395 H   0  0  0  0  0  0  0  0  0  0  0  0
   -4.9544   -0.4759    2.4716 H   0  0  0  0  0  0  0  0  0  0  0  0
   -4.9470   -0.6823    0.6851 H   0  0  0  0  0  0  0  0  0  0  0  0
   -3.0861    1.1301    2.3638 H   0  0  0  0  0  0  0  0  0  0  0  0
   -2.6640   -0.3835    1.4922 H   0  0  0  0  0  0  0  0  0  0  0  0
  1  2  1  0
  2  3  1  0
  2  4  1  0
  2  5  1  0
  5  6  1  0
  6  7  1  0
  7  8  1  0
  7  9  1  0
  9 10  1  0
 10 11  1  0
 11 12  2  0
 12 13  1  0
 13 14  2  0
 14 15  1  0
 15 16  1  0
 16 17  2  0
 16 18  1  0
 18 19  1  0
 19 20  1  0
 20 21  1  0
 21 11  1  0
 21 15  2  0
  1 22  1  0
  1 23  1  0
  1 24  1  0
  3 25  1  0
  3 26  1  0
  3 27  1  0
  4 28  1  0
  4 29  1  0
  4 30  1  0
  5 31  1  0
  6 32  1  0
  6 33  1  0
  7 34  1  6
  8 35  1  0
  9 36  1  0
  9 37  1  0
 12 38  1  0
 13 39  1  0
 14 40  1  0
 18 41  1  0
 18 42  1  0
 19 43  1  0
 19 44  1  0
 20 45  1  0
 20 46  1  0
M  END
> <ID>
HT1193

> <Class>
0.0

> <Clusters>
145

> <Fold>
5

$$$$