
     RDKit          3D

 19 18  0  0  0  0  0  0  0  0999 V2000
   -1.4911    1.3209   -0.2503 C   0  0  0  0  0  0  0  0  0  0  0  0
   -0.4381    0.2433   -0.5449 C   0  0  0  0  0  0  0  0  0  0  0  0
   -1.1038   -1.1409   -0.6235 C   0  0  0  0  0  0  0  0  0  0  0  0
    0.7233    0.3032    0.4849 C   0  0  0  0  0  0  0  0  0  0  0  0
    0.2412    0.0370    1.8465 N   0  0  0  0  0  0  0  0  0  0  0  0
    1.8645   -0.6148    0.0961 C   0  0  0  0  0  0  0  0  0  0  0  0
    2.1715   -1.6034    0.8147 O   0  0  0  0  0  0  0  0  0  0  0  0
    2.6000   -0.3682   -1.0600 O   0  0  0  0  0  0  0  0  0  0  0  0
   -1.0191    2.3264   -0.2372 H   0  0  0  0  0  0  0  0  0  0  0  0
   -1.9789    1.1402    0.7315 H   0  0  0  0  0  0  0  0  0  0  0  0
   -2.2722    1.3186   -1.0404 H   0  0  0  0  0  0  0  0  0  0  0  0
   -0.0209    0.4682   -1.5514 H   0  0  0  0  0  0  0  0  0  0  0  0
   -1.8450   -1.1560   -1.4509 H   0  0  0  0  0  0  0  0  0  0  0  0
   -1.6342   -1.3855    0.3208 H   0  0  0  0  0  0  0  0  0  0  0  0
   -0.3496   -1.9285   -0.8309 H   0  0  0  0  0  0  0  0  0  0  0  0
    1.1337    1.3378    0.4696 H   0  0  0  0  0  0  0  0  0  0  0  0
    1.0146    0.2429    2.5205 H   0  0  0  0  0  0  0  0  0  0  0  0
   -0.0007   -0.9747    1.9529 H   0  0  0  0  0  0  0  0  0  0  0  0
    2.4049    0.4334   -1.6476 H   0  0  0  0  0  0  0  0  0  0  0  0
  1  2  1  0
  2  3  1  0
  2  4  1  0
  4  5  1  0
  4  6  1  0
  6  7  2  0
  6  8  1  0
  1  9  1  0
  1 10  1  0
  1 11  1  0
  2 12  1  0
  3 13  1  0
  3 14  1  0
  3 15  1  0
  4 16  1  0
  5 17  1  0
  5 18  1  0
  8 19  1  0
M  END
> <ID>
HT1259

> <Class>
0.0

> <Clusters>
151

> <Fold>
5

$$$$