
     RDKit          3D

 33 32  0  0  0  0  0  0  0  0999 V2000
    3.7519    0.9223    0.1849 C   0  0  0  0  0  0  0  0  0  0  0  0
    3.0340    0.1632   -0.9320 C   0  0  0  0  0  0  0  0  0  0  0  0
    2.0157   -0.8689   -0.3873 C   0  0  0  0  0  0  0  0  0  0  0  0
    0.5086   -0.4553   -0.4387 C   0  0  0  0  0  0  0  0  0  0  0  0
    0.0370   -0.3407   -1.9090 C   0  0  0  0  0  0  0  0  0  0  0  0
   -0.2999   -1.5811    0.2648 C   0  0  0  0  0  0  0  0  0  0  0  0
   -1.7041   -1.3418    0.1910 O   0  0  0  0  0  0  0  0  0  0  0  0
   -2.6491   -2.2007    0.7569 C   0  0  0  0  0  0  0  0  0  0  0  0
   -2.2890   -3.2502    1.3558 O   0  0  0  0  0  0  0  0  0  0  0  0
   -4.0345   -1.8837    0.6561 N   0  0  0  0  0  0  0  0  0  0  0  0
    0.2876    0.8908    0.3004 C   0  0  0  0  0  0  0  0  0  0  0  0
   -1.0910    1.2546    0.3056 O   0  0  0  0  0  0  0  0  0  0  0  0
   -1.5648    2.4163    0.9197 C   0  0  0  0  0  0  0  0  0  0  0  0
   -0.7720    3.2105    1.4946 O   0  0  0  0  0  0  0  0  0  0  0  0
   -2.9601    2.7034    0.8958 N   0  0  0  0  0  0  0  0  0  0  0  0
    4.3235    0.2158    0.8237 H   0  0  0  0  0  0  0  0  0  0  0  0
    4.4644    1.6489   -0.2593 H   0  0  0  0  0  0  0  0  0  0  0  0
    3.0304    1.4789    0.8164 H   0  0  0  0  0  0  0  0  0  0  0  0
    3.8080   -0.3764   -1.5204 H   0  0  0  0  0  0  0  0  0  0  0  0
    2.5658    0.8924   -1.6215 H   0  0  0  0  0  0  0  0  0  0  0  0
    2.2894   -1.1409    0.6570 H   0  0  0  0  0  0  0  0  0  0  0  0
    2.1393   -1.8062   -0.9751 H   0  0  0  0  0  0  0  0  0  0  0  0
   -1.0552   -0.1469   -1.9639 H   0  0  0  0  0  0  0  0  0  0  0  0
    0.2457   -1.2821   -2.4612 H   0  0  0  0  0  0  0  0  0  0  0  0
    0.5389    0.4943   -2.4376 H   0  0  0  0  0  0  0  0  0  0  0  0
    0.0006   -1.6487    1.3343 H   0  0  0  0  0  0  0  0  0  0  0  0
   -0.0787   -2.5603   -0.2158 H   0  0  0  0  0  0  0  0  0  0  0  0
   -4.3387   -1.0138    0.1658 H   0  0  0  0  0  0  0  0  0  0  0  0
   -4.7545   -2.5147    1.0730 H   0  0  0  0  0  0  0  0  0  0  0  0
    0.8584    1.7023   -0.1987 H   0  0  0  0  0  0  0  0  0  0  0  0
    0.6462    0.8037    1.3499 H   0  0  0  0  0  0  0  0  0  0  0  0
   -3.3316    3.5675    1.3494 H   0  0  0  0  0  0  0  0  0  0  0  0
   -3.6221    2.0474    0.4254 H   0  0  0  0  0  0  0  0  0  0  0  0
  1  2  1  0
  2  3  1  0
  3  4  1  0
  4  5  1  0
  4  6  1  0
  6  7  1  0
  7  8  1  0
  8  9  2  0
  8 10  1  0
  4 11  1  0
 11 12  1  0
 12 13  1  0
 13 14  2  0
 13 15  1  0
  1 16  1  0
  1 17  1  0
  1 18  1  0
  2 19  1  0
  2 20  1  0
  3 21  1  0
  3 22  1  0
  5 23  1  0
  5 24  1  0
  5 25  1  0
  6 26  1  0
  6 27  1  0
 10 28  1  0
 10 29  1  0
 11 30  1  0
 11 31  1  0
 15 32  1  0
 15 33  1  0
M  END
> <ID>
HT1311

> <Class>
0.0

> <Clusters>
43

> <Fold>
5

$$$$