
     RDKit          3D

 71 74  0  0  0  0  0  0  0  0999 V2000
    6.7425   -1.6974   -2.0830 C   0  0  0  0  0  0  0  0  0  0  0  0
    7.3259   -0.5902   -1.2463 C   0  0  0  0  0  0  0  0  0  0  0  0
    8.7001   -0.5907   -0.9574 C   0  0  0  0  0  0  0  0  0  0  0  0
    9.2695    0.4516   -0.2263 C   0  0  0  0  0  0  0  0  0  0  0  0
    8.4780    1.5095    0.2212 C   0  0  0  0  0  0  0  0  0  0  0  0
    7.1008    1.5312   -0.0503 C   0  0  0  0  0  0  0  0  0  0  0  0
    6.2604    2.6807    0.4344 C   0  0  0  0  0  0  0  0  0  0  0  0
    6.5172    0.4720   -0.7788 C   0  0  0  0  0  0  0  0  0  0  0  0
    5.1131    0.4994   -1.0723 N   0  0  0  0  0  0  0  0  0  0  0  0
    4.1811   -0.3672   -0.4132 C   0  0  0  0  0  0  0  0  0  0  0  0
    4.5821   -1.1768    0.4695 O   0  0  0  0  0  0  0  0  0  0  0  0
    2.7262   -0.3017   -0.7820 C   0  0  0  0  0  0  0  0  0  0  0  0
    1.9240   -1.2620    0.0103 N   0  0  0  0  0  0  0  0  0  0  0  0
    0.7378   -1.7519   -0.7170 C   0  0  0  0  0  0  0  0  0  0  0  0
   -0.3546   -0.6770   -0.8087 C   0  0  0  0  0  0  0  0  0  0  0  0
   -0.7678   -0.2084    0.5271 N   0  0  0  0  0  0  0  0  0  0  0  0
   -1.5988   -1.1983    1.2512 C   0  0  0  0  0  0  0  0  0  0  0  0
   -2.6024   -0.5090    2.1905 C   0  0  0  0  0  0  0  0  0  0  0  0
   -3.3956    0.6449    1.5436 C   0  0  0  0  0  0  0  0  0  0  0  0
   -4.1894    0.2425    0.2755 C   0  0  0  0  0  0  0  0  0  0  0  0
   -4.9176    1.4244   -0.3463 C   0  0  0  0  0  0  0  0  0  0  0  0
   -5.8063    2.2250    0.4006 C   0  0  0  0  0  0  0  0  0  0  0  0
   -6.4751    3.2947   -0.2015 C   0  0  0  0  0  0  0  0  0  0  0  0
   -6.2712    3.5794   -1.5534 C   0  0  0  0  0  0  0  0  0  0  0  0
   -6.9223    4.6174   -2.1338 F   0  0  0  0  0  0  0  0  0  0  0  0
   -5.3971    2.7931   -2.3069 C   0  0  0  0  0  0  0  0  0  0  0  0
   -4.7250    1.7223   -1.7102 C   0  0  0  0  0  0  0  0  0  0  0  0
   -5.1420   -0.9226    0.4927 C   0  0  0  0  0  0  0  0  0  0  0  0
   -6.0831   -0.9253    1.5413 C   0  0  0  0  0  0  0  0  0  0  0  0
   -6.9537   -2.0065    1.7092 C   0  0  0  0  0  0  0  0  0  0  0  0
   -6.8989   -3.0954    0.8369 C   0  0  0  0  0  0  0  0  0  0  0  0
   -7.7437   -4.1434    1.0044 F   0  0  0  0  0  0  0  0  0  0  0  0
   -5.9710   -3.1056   -0.2062 C   0  0  0  0  0  0  0  0  0  0  0  0
   -5.0988   -2.0268   -0.3801 C   0  0  0  0  0  0  0  0  0  0  0  0
    0.3916    0.2686    1.3103 C   0  0  0  0  0  0  0  0  0  0  0  0
    1.5584   -0.7451    1.3473 C   0  0  0  0  0  0  0  0  0  0  0  0
    6.2258   -1.2677   -2.9669 H   0  0  0  0  0  0  0  0  0  0  0  0
    7.5276   -2.3936   -2.4464 H   0  0  0  0  0  0  0  0  0  0  0  0
    6.0162   -2.2846   -1.4851 H   0  0  0  0  0  0  0  0  0  0  0  0
    9.3361   -1.3951   -1.3050 H   0  0  0  0  0  0  0  0  0  0  0  0
   10.3307    0.4429   -0.0117 H   0  0  0  0  0  0  0  0  0  0  0  0
    8.9423    2.3117    0.7814 H   0  0  0  0  0  0  0  0  0  0  0  0
    5.4108    2.2987    1.0399 H   0  0  0  0  0  0  0  0  0  0  0  0
    5.8639    3.2452   -0.4359 H   0  0  0  0  0  0  0  0  0  0  0  0
    6.8482    3.3799    1.0664 H   0  0  0  0  0  0  0  0  0  0  0  0
    4.7465    1.2675   -1.6778 H   0  0  0  0  0  0  0  0  0  0  0  0
    2.6631   -0.5351   -1.8675 H   0  0  0  0  0  0  0  0  0  0  0  0
    2.3649    0.7402   -0.6526 H   0  0  0  0  0  0  0  0  0  0  0  0
    1.0171   -2.0895   -1.7392 H   0  0  0  0  0  0  0  0  0  0  0  0
    0.3355   -2.6483   -0.1977 H   0  0  0  0  0  0  0  0  0  0  0  0
   -1.2269   -1.0770   -1.3710 H   0  0  0  0  0  0  0  0  0  0  0  0
    0.0207    0.1871   -1.3989 H   0  0  0  0  0  0  0  0  0  0  0  0
   -2.1786   -1.8315    0.5439 H   0  0  0  0  0  0  0  0  0  0  0  0
   -0.9736   -1.8988    1.8435 H   0  0  0  0  0  0  0  0  0  0  0  0
   -3.3100   -1.2721    2.5801 H   0  0  0  0  0  0  0  0  0  0  0  0
   -2.0593   -0.1065    3.0718 H   0  0  0  0  0  0  0  0  0  0  0  0
   -2.6908    1.4644    1.2817 H   0  0  0  0  0  0  0  0  0  0  0  0
   -4.0788    1.0550    2.3153 H   0  0  0  0  0  0  0  0  0  0  0  0
   -3.4226   -0.0812   -0.4606 H   0  0  0  0  0  0  0  0  0  0  0  0
   -5.9822    2.0365    1.4490 H   0  0  0  0  0  0  0  0  0  0  0  0
   -7.1528    3.9042    0.3829 H   0  0  0  0  0  0  0  0  0  0  0  0
   -5.2411    3.0099   -3.3558 H   0  0  0  0  0  0  0  0  0  0  0  0
   -4.0577    1.1225   -2.3168 H   0  0  0  0  0  0  0  0  0  0  0  0
   -6.1401   -0.1052    2.2418 H   0  0  0  0  0  0  0  0  0  0  0  0
   -7.6696   -2.0002    2.5201 H   0  0  0  0  0  0  0  0  0  0  0  0
   -5.9266   -3.9493   -0.8826 H   0  0  0  0  0  0  0  0  0  0  0  0
   -4.3896   -2.0554   -1.1985 H   0  0  0  0  0  0  0  0  0  0  0  0
    0.0872    0.5057    2.3520 H   0  0  0  0  0  0  0  0  0  0  0  0
    0.7445    1.2282    0.8774 H   0  0  0  0  0  0  0  0  0  0  0  0
    1.2881   -1.6010    2.0008 H   0  0  0  0  0  0  0  0  0  0  0  0
    2.4366   -0.2629    1.8299 H   0  0  0  0  0  0  0  0  0  0  0  0
  1  2  1  0
  2  3  2  0
  3  4  1  0
  4  5  2  0
  5  6  1  0
  6  7  1  0
  6  8  2  0
  8  2  1  0
  8  9  1  0
  9 10  1  0
 10 11  2  0
 10 12  1  0
 12 13  1  0
 13 14  1  0
 14 15  1  0
 15 16  1  0
 16 17  1  0
 17 18  1  0
 18 19  1  0
 19 20  1  0
 20 21  1  0
 21 22  2  0
 22 23  1  0
 23 24  2  0
 24 25  1  0
 24 26  1  0
 26 27  2  0
 27 21  1  0
 20 28  1  0
 28 29  2  0
 29 30  1  0
 30 31  2  0
 31 32  1  0
 31 33  1  0
 33 34  2  0
 34 28  1  0
 16 35  1  0
 35 36  1  0
 36 13  1  0
  1 37  1  0
  1 38  1  0
  1 39  1  0
  3 40  1  0
  4 41  1  0
  5 42  1  0
  7 43  1  0
  7 44  1  0
  7 45  1  0
  9 46  1  0
 12 47  1  0
 12 48  1  0
 14 49  1  0
 14 50  1  0
 15 51  1  0
 15 52  1  0
 17 53  1  0
 17 54  1  0
 18 55  1  0
 18 56  1  0
 19 57  1  0
 19 58  1  0
 20 59  1  0
 22 60  1  0
 23 61  1  0
 26 62  1  0
 27 63  1  0
 29 64  1  0
 30 65  1  0
 33 66  1  0
 34 67  1  0
 35 68  1  0
 35 69  1  0
 36 70  1  0
 36 71  1  0
M  END
> <ID>
HT1208

> <Class>
0.0

> <Clusters>
198

> <Fold>
5

$$$$