
     RDKit          3D

 41 44  0  0  0  0  0  0  0  0999 V2000
    5.0832   -0.8087   -0.3903 C   0  0  0  0  0  0  0  0  0  0  0  0
    3.9276   -0.1105    0.1926 N   0  0  0  0  0  0  0  0  0  0  0  0
    3.1216    0.5103   -0.8793 C   0  0  0  0  0  0  0  0  0  0  0  0
    1.9474    1.2876   -0.2784 C   0  0  0  0  0  0  0  0  0  0  0  0
    1.1872    0.4043    0.6111 N   0  0  0  0  0  0  0  0  0  0  0  0
    1.9401   -0.3253    1.6356 C   0  0  0  0  0  0  0  0  0  0  0  0
    3.1092   -1.0593    0.9758 C   0  0  0  0  0  0  0  0  0  0  0  0
   -0.2151    0.1537    0.3887 C   0  0  0  0  0  0  0  0  0  0  0  0
   -0.6402   -1.0717    0.4919 N   0  0  0  0  0  0  0  0  0  0  0  0
   -1.9497   -1.6128    0.2861 C   0  0  0  0  0  0  0  0  0  0  0  0
   -2.2719   -2.8027    0.9549 C   0  0  0  0  0  0  0  0  0  0  0  0
   -3.4643   -3.4754    0.6792 C   0  0  0  0  0  0  0  0  0  0  0  0
   -4.3329   -2.9816   -0.2937 C   0  0  0  0  0  0  0  0  0  0  0  0
   -4.0129   -1.8103   -0.9825 C   0  0  0  0  0  0  0  0  0  0  0  0
   -2.8336   -1.1115   -0.6910 C   0  0  0  0  0  0  0  0  0  0  0  0
   -2.5806    0.0599   -1.4012 O   0  0  0  0  0  0  0  0  0  0  0  0
   -2.1805    1.2469   -0.7926 C   0  0  0  0  0  0  0  0  0  0  0  0
   -2.8778    2.4144   -1.1291 C   0  0  0  0  0  0  0  0  0  0  0  0
   -2.5724    3.6279   -0.5130 C   0  0  0  0  0  0  0  0  0  0  0  0
   -1.5582    3.6867    0.4423 C   0  0  0  0  0  0  0  0  0  0  0  0
   -1.1769    5.2092    1.2256 Cl  0  0  0  0  0  0  0  0  0  0  0  0
   -0.8337    2.5352    0.7604 C   0  0  0  0  0  0  0  0  0  0  0  0
   -1.1198    1.3055    0.1344 C   0  0  0  0  0  0  0  0  0  0  0  0
    4.7599   -1.6211   -1.0791 H   0  0  0  0  0  0  0  0  0  0  0  0
    5.7119   -1.2456    0.4151 H   0  0  0  0  0  0  0  0  0  0  0  0
    5.7205   -0.0912   -0.9507 H   0  0  0  0  0  0  0  0  0  0  0  0
    2.7305   -0.2635   -1.5795 H   0  0  0  0  0  0  0  0  0  0  0  0
    3.7473    1.2223   -1.4616 H   0  0  0  0  0  0  0  0  0  0  0  0
    1.3095    1.6768   -1.1017 H   0  0  0  0  0  0  0  0  0  0  0  0
    2.3333    2.1519    0.3044 H   0  0  0  0  0  0  0  0  0  0  0  0
    2.3335    0.3989    2.3814 H   0  0  0  0  0  0  0  0  0  0  0  0
    1.2965   -1.0525    2.1762 H   0  0  0  0  0  0  0  0  0  0  0  0
    2.7136   -1.8734    0.3257 H   0  0  0  0  0  0  0  0  0  0  0  0
    3.7258   -1.5218    1.7779 H   0  0  0  0  0  0  0  0  0  0  0  0
   -1.5855   -3.2171    1.6831 H   0  0  0  0  0  0  0  0  0  0  0  0
   -3.7048   -4.3898    1.2060 H   0  0  0  0  0  0  0  0  0  0  0  0
   -5.2514   -3.5085   -0.5177 H   0  0  0  0  0  0  0  0  0  0  0  0
   -4.6913   -1.4335   -1.7375 H   0  0  0  0  0  0  0  0  0  0  0  0
   -3.6798    2.3733   -1.8554 H   0  0  0  0  0  0  0  0  0  0  0  0
   -3.1302    4.5186   -0.7726 H   0  0  0  0  0  0  0  0  0  0  0  0
   -0.0354    2.6047    1.4894 H   0  0  0  0  0  0  0  0  0  0  0  0
  1  2  1  0
  2  3  1  0
  3  4  1  0
  4  5  1  0
  5  6  1  0
  6  7  1  0
  7  2  1  0
  5  8  1  0
  8  9  2  0
  9 10  1  0
 10 11  2  0
 11 12  1  0
 12 13  2  0
 13 14  1  0
 14 15  2  0
 15 10  1  0
 15 16  1  0
 16 17  1  0
 17 18  2  0
 18 19  1  0
 19 20  2  0
 20 21  1  0
 20 22  1  0
 22 23  2  0
 23  8  1  0
 23 17  1  0
  1 24  1  0
  1 25  1  0
  1 26  1  0
  3 27  1  0
  3 28  1  0
  4 29  1  0
  4 30  1  0
  6 31  1  0
  6 32  1  0
  7 33  1  0
  7 34  1  0
 11 35  1  0
 12 36  1  0
 13 37  1  0
 14 38  1  0
 18 39  1  0
 19 40  1  0
 22 41  1  0
M  END
> <ID>
HT1246

> <Class>
0.0

> <Clusters>
150

> <Fold>
5

$$$$