
     RDKit          3D

 58 60  0  0  0  0  0  0  0  0999 V2000
    6.0850    1.1215    1.6522 C   0  0  0  0  0  0  0  0  0  0  0  0
    4.7765    0.9983    0.8756 C   0  0  0  0  0  0  0  0  0  0  0  0
    4.7483   -0.2601    0.0952 N   0  0  0  0  0  0  0  0  0  0  0  0
    5.5586   -0.2066   -1.1476 C   0  0  0  0  0  0  0  0  0  0  0  0
    6.5675   -1.3516   -1.1522 C   0  0  0  0  0  0  0  0  0  0  0  0
    3.3780   -0.7810   -0.1288 C   0  0  0  0  0  0  0  0  0  0  0  0
    2.4260    0.2415   -0.7963 C   0  0  0  0  0  0  0  0  0  0  0  0
    1.0707   -0.3841   -1.1919 C   0  0  0  0  0  0  0  0  0  0  0  0
   -0.0756   -0.0709   -0.2048 C   0  0  0  0  0  0  0  0  0  0  0  0
    0.0985   -0.8020    1.1303 C   0  0  0  0  0  0  0  0  0  0  0  0
   -1.3557   -0.4571   -0.8071 N   0  0  0  0  0  0  0  0  0  0  0  0
   -2.5618    0.2726   -0.5236 C   0  0  0  0  0  0  0  0  0  0  0  0
   -2.7496    1.5799   -1.0335 C   0  0  0  0  0  0  0  0  0  0  0  0
   -1.8257    2.1842   -1.9097 C   0  0  0  0  0  0  0  0  0  0  0  0
   -2.0404    3.4826   -2.3814 C   0  0  0  0  0  0  0  0  0  0  0  0
   -3.1808    4.1924   -1.9963 C   0  0  0  0  0  0  0  0  0  0  0  0
   -3.4403    5.8222   -2.5892 Cl  0  0  0  0  0  0  0  0  0  0  0  0
   -4.1190    3.5997   -1.1474 C   0  0  0  0  0  0  0  0  0  0  0  0
   -3.9155    2.2977   -0.6729 C   0  0  0  0  0  0  0  0  0  0  0  0
   -4.8485    1.7262    0.1295 N   0  0  0  0  0  0  0  0  0  0  0  0
   -4.7140    0.4633    0.6080 C   0  0  0  0  0  0  0  0  0  0  0  0
   -5.7161   -0.0722    1.4229 C   0  0  0  0  0  0  0  0  0  0  0  0
   -5.5961   -1.3680    1.9275 C   0  0  0  0  0  0  0  0  0  0  0  0
   -4.4636   -2.1467    1.6228 C   0  0  0  0  0  0  0  0  0  0  0  0
   -4.3008   -3.4560    2.1028 O   0  0  0  0  0  0  0  0  0  0  0  0
   -5.2377   -4.1276    2.9411 C   0  0  0  0  0  0  0  0  0  0  0  0
   -3.4567   -1.6086    0.8112 C   0  0  0  0  0  0  0  0  0  0  0  0
   -3.5675   -0.3025    0.2901 C   0  0  0  0  0  0  0  0  0  0  0  0
    6.9535    1.1621    0.9603 H   0  0  0  0  0  0  0  0  0  0  0  0
    6.2026    0.2508    2.3363 H   0  0  0  0  0  0  0  0  0  0  0  0
    6.0736    2.0544    2.2593 H   0  0  0  0  0  0  0  0  0  0  0  0
    4.6465    1.8824    0.2112 H   0  0  0  0  0  0  0  0  0  0  0  0
    3.9530    1.0081    1.6255 H   0  0  0  0  0  0  0  0  0  0  0  0
    6.1204    0.7528   -1.2426 H   0  0  0  0  0  0  0  0  0  0  0  0
    4.9295   -0.3000   -2.0612 H   0  0  0  0  0  0  0  0  0  0  0  0
    6.0381   -2.3295   -1.1028 H   0  0  0  0  0  0  0  0  0  0  0  0
    7.2579   -1.2539   -0.2842 H   0  0  0  0  0  0  0  0  0  0  0  0
    7.1716   -1.3144   -2.0854 H   0  0  0  0  0  0  0  0  0  0  0  0
    3.4364   -1.6999   -0.7567 H   0  0  0  0  0  0  0  0  0  0  0  0
    2.9585   -1.1040    0.8461 H   0  0  0  0  0  0  0  0  0  0  0  0
    2.9026    0.6373   -1.7165 H   0  0  0  0  0  0  0  0  0  0  0  0
    2.2648    1.1134   -0.1278 H   0  0  0  0  0  0  0  0  0  0  0  0
    1.1610   -1.4843   -1.3345 H   0  0  0  0  0  0  0  0  0  0  0  0
    0.7883    0.0280   -2.1859 H   0  0  0  0  0  0  0  0  0  0  0  0
   -0.0861    1.0216    0.0046 H   0  0  0  0  0  0  0  0  0  0  0  0
   -0.8035   -0.6603    1.7624 H   0  0  0  0  0  0  0  0  0  0  0  0
    0.9582   -0.3823    1.6909 H   0  0  0  0  0  0  0  0  0  0  0  0
    0.2549   -1.8894    0.9648 H   0  0  0  0  0  0  0  0  0  0  0  0
   -1.4435   -1.4217   -1.2037 H   0  0  0  0  0  0  0  0  0  0  0  0
   -0.9433    1.6596   -2.2461 H   0  0  0  0  0  0  0  0  0  0  0  0
   -1.3193    3.9350   -3.0515 H   0  0  0  0  0  0  0  0  0  0  0  0
   -5.0087    4.1484   -0.8606 H   0  0  0  0  0  0  0  0  0  0  0  0
   -6.5929    0.5170    1.6673 H   0  0  0  0  0  0  0  0  0  0  0  0
   -6.3886   -1.7551    2.5547 H   0  0  0  0  0  0  0  0  0  0  0  0
   -6.2185   -4.2157    2.4261 H   0  0  0  0  0  0  0  0  0  0  0  0
   -4.8597   -5.1461    3.1642 H   0  0  0  0  0  0  0  0  0  0  0  0
   -5.3574   -3.5759    3.8993 H   0  0  0  0  0  0  0  0  0  0  0  0
   -2.5939   -2.2252    0.5961 H   0  0  0  0  0  0  0  0  0  0  0  0
  1  2  1  0
  2  3  1  0
  3  4  1  0
  4  5  1  0
  3  6  1  0
  6  7  1  0
  7  8  1  0
  8  9  1  0
  9 10  1  0
  9 11  1  0
 11 12  1  0
 12 13  2  0
 13 14  1  0
 14 15  2  0
 15 16  1  0
 16 17  1  0
 16 18  2  0
 18 19  1  0
 19 13  1  0
 19 20  2  0
 20 21  1  0
 21 22  2  0
 22 23  1  0
 23 24  2  0
 24 25  1  0
 25 26  1  0
 24 27  1  0
 27 28  2  0
 28 12  1  0
 28 21  1  0
  1 29  1  0
  1 30  1  0
  1 31  1  0
  2 32  1  0
  2 33  1  0
  4 34  1  0
  4 35  1  0
  5 36  1  0
  5 37  1  0
  5 38  1  0
  6 39  1  0
  6 40  1  0
  7 41  1  0
  7 42  1  0
  8 43  1  0
  8 44  1  0
  9 45  1  0
 10 46  1  0
 10 47  1  0
 10 48  1  0
 11 49  1  0
 14 50  1  0
 15 51  1  0
 18 52  1  0
 22 53  1  0
 23 54  1  0
 26 55  1  0
 26 56  1  0
 26 57  1  0
 27 58  1  0
M  END
> <ID>
HT1301

> <Class>
0.0

> <Clusters>
52

> <Fold>
5

$$$$