
     RDKit          3D

 48 50  0  0  0  0  0  0  0  0999 V2000
   -5.3305    2.0345    0.2842 C   0  0  0  0  0  0  0  0  0  0  0  0
   -5.1994    0.7015   -0.4475 C   0  0  0  0  0  0  0  0  0  0  0  0
   -4.0356   -0.0552    0.0687 N   0  0  0  0  0  0  0  0  0  0  0  0
   -4.2651   -1.5160   -0.0226 C   0  0  0  0  0  0  0  0  0  0  0  0
   -4.9874   -2.0161    1.2250 C   0  0  0  0  0  0  0  0  0  0  0  0
   -2.7903    0.3331   -0.6329 C   0  0  0  0  0  0  0  0  0  0  0  0
   -1.5937    0.2140    0.3139 C   0  0  0  0  0  0  0  0  0  0  0  0
   -0.3592    0.5551   -0.3905 N   0  0  0  0  0  0  0  0  0  0  0  0
    0.7012   -0.3944   -0.5948 C   0  0  0  0  0  0  0  0  0  0  0  0
    0.3646   -1.6320   -1.1616 C   0  0  0  0  0  0  0  0  0  0  0  0
    1.3425   -2.5503   -1.5142 C   0  0  0  0  0  0  0  0  0  0  0  0
    2.6926   -2.2517   -1.3288 C   0  0  0  0  0  0  0  0  0  0  0  0
    3.7316   -3.2587   -1.7533 C   0  0  0  0  0  0  0  0  0  0  0  0
    3.0535   -1.0177   -0.7442 C   0  0  0  0  0  0  0  0  0  0  0  0
    4.6835   -0.6304   -0.5213 S   0  0  0  0  0  0  0  0  0  0  0  0
    4.9094    0.8587    0.2109 C   0  0  0  0  0  0  0  0  0  0  0  0
    6.2045    1.3312    0.4521 C   0  0  0  0  0  0  0  0  0  0  0  0
    6.3910    2.5604    1.0814 C   0  0  0  0  0  0  0  0  0  0  0  0
    5.2864    3.3147    1.4729 C   0  0  0  0  0  0  0  0  0  0  0  0
    3.9917    2.8431    1.2351 C   0  0  0  0  0  0  0  0  0  0  0  0
    3.7710    1.5994    0.5923 C   0  0  0  0  0  0  0  0  0  0  0  0
    2.4329    1.1418    0.3651 C   0  0  0  0  0  0  0  0  0  0  0  0
    1.5068    1.8555    0.8403 O   0  0  0  0  0  0  0  0  0  0  0  0
    2.0720   -0.0718   -0.3294 C   0  0  0  0  0  0  0  0  0  0  0  0
   -5.4300    1.8583    1.3763 H   0  0  0  0  0  0  0  0  0  0  0  0
   -4.4453    2.6774    0.1003 H   0  0  0  0  0  0  0  0  0  0  0  0
   -6.2348    2.5696   -0.0751 H   0  0  0  0  0  0  0  0  0  0  0  0
   -5.1176    0.8745   -1.5448 H   0  0  0  0  0  0  0  0  0  0  0  0
   -6.1495    0.1475   -0.2797 H   0  0  0  0  0  0  0  0  0  0  0  0
   -4.8493   -1.7801   -0.9334 H   0  0  0  0  0  0  0  0  0  0  0  0
   -3.3051   -2.0752   -0.0853 H   0  0  0  0  0  0  0  0  0  0  0  0
   -5.1109   -3.1182    1.1677 H   0  0  0  0  0  0  0  0  0  0  0  0
   -4.3930   -1.7698    2.1304 H   0  0  0  0  0  0  0  0  0  0  0  0
   -5.9918   -1.5534    1.3140 H   0  0  0  0  0  0  0  0  0  0  0  0
   -2.8322    1.3906   -0.9768 H   0  0  0  0  0  0  0  0  0  0  0  0
   -2.6291   -0.2900   -1.5422 H   0  0  0  0  0  0  0  0  0  0  0  0
   -1.7274    0.9159    1.1649 H   0  0  0  0  0  0  0  0  0  0  0  0
   -1.5290   -0.8121    0.7346 H   0  0  0  0  0  0  0  0  0  0  0  0
   -0.2597    1.5207   -0.7783 H   0  0  0  0  0  0  0  0  0  0  0  0
   -0.6703   -1.8745   -1.3667 H   0  0  0  0  0  0  0  0  0  0  0  0
    1.0405   -3.4908   -1.9589 H   0  0  0  0  0  0  0  0  0  0  0  0
    4.3967   -2.8111   -2.5215 H   0  0  0  0  0  0  0  0  0  0  0  0
    3.2700   -4.1709   -2.1880 H   0  0  0  0  0  0  0  0  0  0  0  0
    4.3379   -3.5658   -0.8753 H   0  0  0  0  0  0  0  0  0  0  0  0
    7.0673    0.7474    0.1555 H   0  0  0  0  0  0  0  0  0  0  0  0
    7.3919    2.9276    1.2682 H   0  0  0  0  0  0  0  0  0  0  0  0
    5.4321    4.2688    1.9629 H   0  0  0  0  0  0  0  0  0  0  0  0
    3.1647    3.4649    1.5549 H   0  0  0  0  0  0  0  0  0  0  0  0
  1  2  1  0
  2  3  1  0
  3  4  1  0
  4  5  1  0
  3  6  1  0
  6  7  1  0
  7  8  1  0
  8  9  1  0
  9 10  2  0
 10 11  1  0
 11 12  2  0
 12 13  1  0
 12 14  1  0
 14 15  1  0
 15 16  1  0
 16 17  2  0
 17 18  1  0
 18 19  2  0
 19 20  1  0
 20 21  2  0
 21 16  1  0
 21 22  1  0
 22 23  2  0
 22 24  1  0
 24  9  1  0
 24 14  2  0
  1 25  1  0
  1 26  1  0
  1 27  1  0
  2 28  1  0
  2 29  1  0
  4 30  1  0
  4 31  1  0
  5 32  1  0
  5 33  1  0
  5 34  1  0
  6 35  1  0
  6 36  1  0
  7 37  1  0
  7 38  1  0
  8 39  1  0
 10 40  1  0
 11 41  1  0
 13 42  1  0
 13 43  1  0
 13 44  1  0
 17 45  1  0
 18 46  1  0
 19 47  1  0
 20 48  1  0
M  END
> <ID>
HT1255

> <Class>
0.0

> <Clusters>
127

> <Fold>
5

$$$$