
     RDKit          3D

 74 75  0  0  0  0  0  0  0  0999 V2000
    3.7766   -3.9264    0.2311 C   0  0  0  0  0  0  0  0  0  0  0  0
    3.7955   -2.4288    0.2758 C   0  0  0  0  0  0  0  0  0  0  0  0
    4.2626   -1.8173    1.3923 N   0  0  0  0  0  0  0  0  0  0  0  0
    4.3049   -0.4684    1.5181 C   0  0  0  0  0  0  0  0  0  0  0  0
    3.8515    0.3657    0.4803 C   0  0  0  0  0  0  0  0  0  0  0  0
    3.9048    1.8728    0.6406 C   0  0  0  0  0  0  0  0  0  0  0  0
    4.7749    2.2472    1.6848 O   0  0  0  0  0  0  0  0  0  0  0  0
    4.6166    3.9245    1.9470 P   0  0  0  0  0  0  0  0  0  0  0  0
    3.3442    4.1957    2.7166 O   0  0  0  0  0  0  0  0  0  0  0  0
    5.9402    4.4645    2.8530 O   0  0  0  0  0  0  0  0  0  0  0  0
    4.5747    4.7590    0.4725 O   0  0  0  0  0  0  0  0  0  0  0  0
    3.2915   -0.2428   -0.6758 C   0  0  0  0  0  0  0  0  0  0  0  0
    2.6135    0.5689   -1.7727 C   0  0  0  0  0  0  0  0  0  0  0  0
    1.2317    0.0892   -1.9974 N   0  0  0  0  0  0  0  0  0  0  0  0
    0.3570    0.3413   -0.8280 C   0  0  0  0  0  0  0  0  0  0  0  0
   -0.2792   -0.9777   -0.3990 C   0  0  0  0  0  0  0  0  0  0  0  0
   -0.9851   -0.7965    0.8877 N   0  0  0  0  0  0  0  0  0  0  0  0
   -0.1752   -1.1874    2.0654 C   0  0  0  0  0  0  0  0  0  0  0  0
    0.1373   -2.6634    2.1727 C   0  0  0  0  0  0  0  0  0  0  0  0
   -0.3199   -3.4982    1.3499 O   0  0  0  0  0  0  0  0  0  0  0  0
    0.9584   -3.1147    3.2010 O   0  0  0  0  0  0  0  0  0  0  0  0
   -2.3582   -1.3425    0.8927 C   0  0  0  0  0  0  0  0  0  0  0  0
   -3.2746   -0.4357    0.0904 C   0  0  0  0  0  0  0  0  0  0  0  0
   -3.8704   -0.9165   -1.0993 C   0  0  0  0  0  0  0  0  0  0  0  0
   -3.6519   -2.2389   -1.5003 O   0  0  0  0  0  0  0  0  0  0  0  0
   -4.6706   -0.0497   -1.8716 C   0  0  0  0  0  0  0  0  0  0  0  0
   -5.3359   -0.5064   -3.1363 C   0  0  0  0  0  0  0  0  0  0  0  0
   -4.8487    1.2352   -1.4735 N   0  0  0  0  0  0  0  0  0  0  0  0
   -4.2954    1.7249   -0.3393 C   0  0  0  0  0  0  0  0  0  0  0  0
   -3.5129    0.9062    0.4891 C   0  0  0  0  0  0  0  0  0  0  0  0
   -2.9063    1.5187    1.7406 C   0  0  0  0  0  0  0  0  0  0  0  0
   -3.8211    2.3803    2.3887 O   0  0  0  0  0  0  0  0  0  0  0  0
   -4.8341    1.4632    3.4156 P   0  0  0  0  0  0  0  0  0  0  0  0
   -4.0654    1.0474    4.6488 O   0  0  0  0  0  0  0  0  0  0  0  0
   -6.1479    2.4223    3.8823 O   0  0  0  0  0  0  0  0  0  0  0  0
   -5.4099    0.0836    2.6201 O   0  0  0  0  0  0  0  0  0  0  0  0
    0.6561    0.6418   -3.2397 C   0  0  0  0  0  0  0  0  0  0  0  0
    1.2266   -0.0618   -4.4345 C   0  0  0  0  0  0  0  0  0  0  0  0
    1.8554    0.5902   -5.3089 O   0  0  0  0  0  0  0  0  0  0  0  0
    1.0641   -1.4353   -4.5887 O   0  0  0  0  0  0  0  0  0  0  0  0
    3.3093   -1.6504   -0.7923 C   0  0  0  0  0  0  0  0  0  0  0  0
    2.8224   -2.2480   -1.9601 O   0  0  0  0  0  0  0  0  0  0  0  0
    4.3853   -4.2891   -0.6236 H   0  0  0  0  0  0  0  0  0  0  0  0
    2.7297   -4.2851    0.1271 H   0  0  0  0  0  0  0  0  0  0  0  0
    4.1983   -4.3511    1.1672 H   0  0  0  0  0  0  0  0  0  0  0  0
    4.6888   -0.0534    2.4398 H   0  0  0  0  0  0  0  0  0  0  0  0
    4.2882    2.3101   -0.3080 H   0  0  0  0  0  0  0  0  0  0  0  0
    2.8664    2.2252    0.8369 H   0  0  0  0  0  0  0  0  0  0  0  0
    6.7319    4.1601    2.3415 H   0  0  0  0  0  0  0  0  0  0  0  0
    4.6420    5.7180    0.7211 H   0  0  0  0  0  0  0  0  0  0  0  0
    3.2214    0.4398   -2.6959 H   0  0  0  0  0  0  0  0  0  0  0  0
    2.5857    1.6580   -1.5611 H   0  0  0  0  0  0  0  0  0  0  0  0
    0.9209    0.7582    0.0351 H   0  0  0  0  0  0  0  0  0  0  0  0
   -0.4441    1.0837   -1.0472 H   0  0  0  0  0  0  0  0  0  0  0  0
    0.5093   -1.7564   -0.3268 H   0  0  0  0  0  0  0  0  0  0  0  0
   -0.9685   -1.3050   -1.2097 H   0  0  0  0  0  0  0  0  0  0  0  0
    0.7879   -0.6313    2.0427 H   0  0  0  0  0  0  0  0  0  0  0  0
   -0.6939   -0.8695    2.9949 H   0  0  0  0  0  0  0  0  0  0  0  0
    1.3506   -2.4717    3.8784 H   0  0  0  0  0  0  0  0  0  0  0  0
   -2.3574   -2.3789    0.4955 H   0  0  0  0  0  0  0  0  0  0  0  0
   -2.7580   -1.4212    1.9282 H   0  0  0  0  0  0  0  0  0  0  0  0
   -4.0195   -2.6275   -2.3587 H   0  0  0  0  0  0  0  0  0  0  0  0
   -4.5687   -0.8207   -3.8757 H   0  0  0  0  0  0  0  0  0  0  0  0
   -6.0193   -1.3548   -2.9204 H   0  0  0  0  0  0  0  0  0  0  0  0
   -5.9333    0.3168   -3.5832 H   0  0  0  0  0  0  0  0  0  0  0  0
   -4.4699    2.7619   -0.0810 H   0  0  0  0  0  0  0  0  0  0  0  0
   -2.4888    0.7701    2.4453 H   0  0  0  0  0  0  0  0  0  0  0  0
   -2.0362    2.1309    1.4185 H   0  0  0  0  0  0  0  0  0  0  0  0
   -6.5934    2.6670    3.0325 H   0  0  0  0  0  0  0  0  0  0  0  0
   -6.2006   -0.2012    3.1403 H   0  0  0  0  0  0  0  0  0  0  0  0
    0.8336    1.7398   -3.3052 H   0  0  0  0  0  0  0  0  0  0  0  0
   -0.4432    0.4726   -3.2676 H   0  0  0  0  0  0  0  0  0  0  0  0
    0.5576   -1.9819   -3.9022 H   0  0  0  0  0  0  0  0  0  0  0  0
    2.7901   -3.2489   -2.0993 H   0  0  0  0  0  0  0  0  0  0  0  0
  1  2  1  0
  2  3  2  0
  3  4  1  0
  4  5  2  0
  5  6  1  0
  6  7  1  0
  7  8  1  0
  8  9  2  0
  8 10  1  0
  8 11  1  0
  5 12  1  0
 12 13  1  0
 13 14  1  0
 14 15  1  0
 15 16  1  0
 16 17  1  0
 17 18  1  0
 18 19  1  0
 19 20  2  0
 19 21  1  0
 17 22  1  0
 22 23  1  0
 23 24  2  0
 24 25  1  0
 24 26  1  0
 26 27  1  0
 26 28  2  0
 28 29  1  0
 29 30  2  0
 30 23  1  0
 30 31  1  0
 31 32  1  0
 32 33  1  0
 33 34  2  0
 33 35  1  0
 33 36  1  0
 14 37  1  0
 37 38  1  0
 38 39  2  0
 38 40  1  0
 12 41  2  0
 41  2  1  0
 41 42  1  0
  1 43  1  0
  1 44  1  0
  1 45  1  0
  4 46  1  0
  6 47  1  0
  6 48  1  0
 10 49  1  0
 11 50  1  0
 13 51  1  0
 13 52  1  0
 15 53  1  0
 15 54  1  0
 16 55  1  0
 16 56  1  0
 18 57  1  0
 18 58  1  0
 21 59  1  0
 22 60  1  0
 22 61  1  0
 25 62  1  0
 27 63  1  0
 27 64  1  0
 27 65  1  0
 29 66  1  0
 31 67  1  0
 31 68  1  0
 35 69  1  0
 36 70  1  0
 37 71  1  0
 37 72  1  0
 40 73  1  0
 42 74  1  0
M  END
> <ID>
HT1266

> <Class>
0.0

> <Clusters>
114

> <Fold>
5

$$$$