
     RDKit          3D

 27 28  0  0  0  0  0  0  0  0999 V2000
   -1.4109   -2.2682    0.7126 C   0  0  0  0  0  0  0  0  0  0  0  0
   -1.0834   -0.9065    0.0725 C   0  0  1  0  0  0  0  0  0  0  0  0
   -1.8186    0.2258    0.8254 C   0  0  0  0  0  0  0  0  0  0  0  0
   -2.1803    1.3215   -0.0849 N   0  0  0  0  0  0  0  0  0  0  0  0
   -1.0293    2.1634   -0.4345 C   0  0  0  0  0  0  0  0  0  0  0  0
   -0.1188    1.4642   -1.4506 C   0  0  0  0  0  0  0  0  0  0  0  0
    0.8563    0.5312   -0.7688 C   0  0  0  0  0  0  0  0  0  0  0  0
    2.2322    0.8076   -0.8647 C   0  0  0  0  0  0  0  0  0  0  0  0
    3.1685   -0.0073   -0.2330 C   0  0  0  0  0  0  0  0  0  0  0  0
    2.7474   -1.1079    0.5084 C   0  0  0  0  0  0  0  0  0  0  0  0
    3.9306   -2.1240    1.3125 Cl  0  0  0  0  0  0  0  0  0  0  0  0
    1.3861   -1.4019    0.6148 C   0  0  0  0  0  0  0  0  0  0  0  0
    0.4143   -0.5981   -0.0277 C   0  0  0  0  0  0  0  0  0  0  0  0
   -2.4994   -2.4752    0.6286 H   0  0  0  0  0  0  0  0  0  0  0  0
   -1.1391   -2.2762    1.7900 H   0  0  0  0  0  0  0  0  0  0  0  0
   -0.8769   -3.0850    0.1816 H   0  0  0  0  0  0  0  0  0  0  0  0
   -1.4876   -0.9694   -0.9621 H   0  0  0  0  0  0  0  0  0  0  0  0
   -1.2127    0.5952    1.6844 H   0  0  0  0  0  0  0  0  0  0  0  0
   -2.7629   -0.1718    1.2610 H   0  0  0  0  0  0  0  0  0  0  0  0
   -2.8664    1.9313    0.4193 H   0  0  0  0  0  0  0  0  0  0  0  0
   -0.4608    2.4745    0.4716 H   0  0  0  0  0  0  0  0  0  0  0  0
   -1.4115    3.0950   -0.9077 H   0  0  0  0  0  0  0  0  0  0  0  0
   -0.7233    0.9068   -2.1979 H   0  0  0  0  0  0  0  0  0  0  0  0
    0.4296    2.2487   -2.0173 H   0  0  0  0  0  0  0  0  0  0  0  0
    2.5854    1.6635   -1.4266 H   0  0  0  0  0  0  0  0  0  0  0  0
    4.2233    0.2224   -0.3160 H   0  0  0  0  0  0  0  0  0  0  0  0
    1.1083   -2.2597    1.2091 H   0  0  0  0  0  0  0  0  0  0  0  0
  2  1  1  0
  2  3  1  0
  3  4  1  0
  4  5  1  0
  5  6  1  0
  6  7  1  0
  7  8  2  0
  8  9  1  0
  9 10  2  0
 10 11  1  0
 10 12  1  0
 12 13  2  0
 13  2  1  0
 13  7  1  0
  1 14  1  0
  1 15  1  0
  1 16  1  0
  2 17  1  6
  3 18  1  0
  3 19  1  0
  4 20  1  0
  5 21  1  0
  5 22  1  0
  6 23  1  0
  6 24  1  0
  8 25  1  0
  9 26  1  0
 12 27  1  0
M  END
> <ID>
HT1239

> <Class>
0.0

> <Clusters>
249

> <Fold>
5

$$$$