
     RDKit          3D

 33 34  0  0  0  0  0  0  0  0999 V2000
   -2.6456   -1.1089   -1.4087 C   0  0  0  0  0  0  0  0  0  0  0  0
   -3.0718    0.0579   -0.5001 C   0  0  0  0  0  0  0  0  0  0  0  0
   -4.4347   -0.2885    0.1378 C   0  0  0  0  0  0  0  0  0  0  0  0
   -4.7521    0.6507    1.2496 C   0  0  0  0  0  0  0  0  0  0  0  0
   -5.9356    1.0250    1.4639 O   0  0  0  0  0  0  0  0  0  0  0  0
   -3.6900    1.0910    2.0897 N   0  0  0  0  0  0  0  0  0  0  0  0
   -2.3540    0.8690    1.7170 N   0  0  0  0  0  0  0  0  0  0  0  0
   -2.0109    0.3824    0.5568 C   0  0  0  0  0  0  0  0  0  0  0  0
   -0.5657    0.3160    0.2462 C   0  0  0  0  0  0  0  0  0  0  0  0
   -0.0555    0.8903   -0.9289 C   0  0  0  0  0  0  0  0  0  0  0  0
    1.3144    0.8425   -1.2017 C   0  0  0  0  0  0  0  0  0  0  0  0
    2.1989    0.2319   -0.3001 C   0  0  0  0  0  0  0  0  0  0  0  0
    3.6028    0.1923   -0.5979 N   0  0  0  0  0  0  0  0  0  0  0  0
    4.5139   -0.4131    0.2883 N   0  0  0  0  0  0  0  0  0  0  0  0
    5.7952   -0.4843    0.0806 C   0  0  0  0  0  0  0  0  0  0  0  0
    6.6253   -1.1276    1.0591 C   0  0  0  0  0  0  0  0  0  0  0  0
    7.2945   -1.6463    1.8481 N   0  0  0  0  0  0  0  0  0  0  0  0
    6.4155    0.0614   -1.1012 C   0  0  0  0  0  0  0  0  0  0  0  0
    6.9138    0.4992   -2.0495 N   0  0  0  0  0  0  0  0  0  0  0  0
    1.6903   -0.3265    0.8856 C   0  0  0  0  0  0  0  0  0  0  0  0
    0.3200   -0.2783    1.1583 C   0  0  0  0  0  0  0  0  0  0  0  0
   -1.7790   -0.8310   -2.0410 H   0  0  0  0  0  0  0  0  0  0  0  0
   -3.4743   -1.3842   -2.0959 H   0  0  0  0  0  0  0  0  0  0  0  0
   -2.3769   -1.9990   -0.7998 H   0  0  0  0  0  0  0  0  0  0  0  0
   -3.2053    0.9610   -1.1354 H   0  0  0  0  0  0  0  0  0  0  0  0
   -4.4026   -1.3151    0.5643 H   0  0  0  0  0  0  0  0  0  0  0  0
   -5.2370   -0.2547   -0.6318 H   0  0  0  0  0  0  0  0  0  0  0  0
   -3.8984    1.6055    2.9739 H   0  0  0  0  0  0  0  0  0  0  0  0
   -0.7156    1.3848   -1.6307 H   0  0  0  0  0  0  0  0  0  0  0  0
    1.6876    1.2873   -2.1157 H   0  0  0  0  0  0  0  0  0  0  0  0
    3.9364    0.6227   -1.4903 H   0  0  0  0  0  0  0  0  0  0  0  0
    2.3487   -0.7989    1.6028 H   0  0  0  0  0  0  0  0  0  0  0  0
   -0.0521   -0.7146    2.0773 H   0  0  0  0  0  0  0  0  0  0  0  0
  1  2  1  0
  2  3  1  0
  3  4  1  0
  4  5  2  0
  4  6  1  0
  6  7  1  0
  7  8  2  0
  8  2  1  0
  8  9  1  0
  9 10  2  0
 10 11  1  0
 11 12  2  0
 12 13  1  0
 13 14  1  0
 14 15  2  3
 15 16  1  0
 16 17  3  0
 15 18  1  0
 18 19  3  0
 12 20  1  0
 20 21  2  0
 21  9  1  0
  1 22  1  0
  1 23  1  0
  1 24  1  0
  2 25  1  0
  3 26  1  0
  3 27  1  0
  6 28  1  0
 10 29  1  0
 11 30  1  0
 13 31  1  0
 20 32  1  0
 21 33  1  0
M  END
> <ID>
HT1202

> <Class>
0.0

> <Clusters>
2

> <Fold>
5

$$$$