
     RDKit          3D

 45 48  0  0  0  0  0  0  0  0999 V2000
    4.7637    1.3732    0.3077 C   0  0  0  0  0  0  0  0  0  0  0  0
    3.3699    1.2802   -0.1501 N   0  0  0  0  0  0  0  0  0  0  0  0
    3.2692    0.3891   -1.3181 C   0  0  0  0  0  0  0  0  0  0  0  0
    1.8731    0.5025   -1.9499 C   0  0  0  0  0  0  0  0  0  0  0  0
    0.7911    0.8953   -0.9275 C   0  0  0  0  0  0  0  0  0  0  0  0
    1.1046    0.3177    0.4639 C   0  0  0  0  0  0  0  0  0  0  0  0
    0.0215    0.6093    1.5557 C   0  0  0  0  0  0  0  0  0  0  0  0
   -1.4196    0.0245    1.3495 C   0  0  0  0  0  0  0  0  0  0  0  0
   -2.2732    0.7792    0.2995 C   0  0  0  0  0  0  0  0  0  0  0  0
   -1.9813    2.0964   -0.1337 C   0  0  0  0  0  0  0  0  0  0  0  0
   -2.7015    2.6870   -1.1767 C   0  0  0  0  0  0  0  0  0  0  0  0
   -3.7558    2.0025   -1.7778 C   0  0  0  0  0  0  0  0  0  0  0  0
   -4.1340    0.7522   -1.2938 C   0  0  0  0  0  0  0  0  0  0  0  0
   -3.4326    0.1690   -0.2309 C   0  0  0  0  0  0  0  0  0  0  0  0
   -4.1438   -1.2549    0.5707 S   0  0  0  0  0  0  0  0  0  0  0  0
   -2.5899   -2.1282    0.6007 C   0  0  0  0  0  0  0  0  0  0  0  0
   -2.5798   -3.4834    0.2536 C   0  0  0  0  0  0  0  0  0  0  0  0
   -1.4659   -4.2687    0.5411 C   0  0  0  0  0  0  0  0  0  0  0  0
   -0.3813   -3.7121    1.2156 C   0  0  0  0  0  0  0  0  0  0  0  0
   -0.3767   -2.3523    1.5371 C   0  0  0  0  0  0  0  0  0  0  0  0
   -1.4406   -1.5082    1.1392 C   0  0  0  0  0  0  0  0  0  0  0  0
    2.4967    0.8170    0.9543 C   0  0  0  0  0  0  0  0  0  0  0  0
    5.3991    1.8100   -0.4923 H   0  0  0  0  0  0  0  0  0  0  0  0
    4.8317    2.0468    1.1897 H   0  0  0  0  0  0  0  0  0  0  0  0
    5.1662    0.3728    0.5846 H   0  0  0  0  0  0  0  0  0  0  0  0
    3.4621   -0.6662   -1.0163 H   0  0  0  0  0  0  0  0  0  0  0  0
    4.0249    0.6639   -2.0878 H   0  0  0  0  0  0  0  0  0  0  0  0
    1.6102   -0.4725   -2.4146 H   0  0  0  0  0  0  0  0  0  0  0  0
    1.8901    1.2640   -2.7589 H   0  0  0  0  0  0  0  0  0  0  0  0
    0.7441    2.0040   -0.8638 H   0  0  0  0  0  0  0  0  0  0  0  0
   -0.1771    0.5038   -1.3025 H   0  0  0  0  0  0  0  0  0  0  0  0
    1.1959   -0.7762    0.3176 H   0  0  0  0  0  0  0  0  0  0  0  0
   -0.0256    1.6963    1.7601 H   0  0  0  0  0  0  0  0  0  0  0  0
    0.4009    0.2060    2.5193 H   0  0  0  0  0  0  0  0  0  0  0  0
   -1.9478    0.1920    2.3136 H   0  0  0  0  0  0  0  0  0  0  0  0
   -1.1863    2.6826    0.2960 H   0  0  0  0  0  0  0  0  0  0  0  0
   -2.4372    3.6793   -1.5211 H   0  0  0  0  0  0  0  0  0  0  0  0
   -4.3098    2.4622   -2.5862 H   0  0  0  0  0  0  0  0  0  0  0  0
   -5.0079    0.2630   -1.7068 H   0  0  0  0  0  0  0  0  0  0  0  0
   -3.4577   -3.9431   -0.1820 H   0  0  0  0  0  0  0  0  0  0  0  0
   -1.4666   -5.3215    0.2916 H   0  0  0  0  0  0  0  0  0  0  0  0
    0.4584   -4.3361    1.4936 H   0  0  0  0  0  0  0  0  0  0  0  0
    0.4702   -1.9778    2.0908 H   0  0  0  0  0  0  0  0  0  0  0  0
    2.9802   -0.0093    1.5266 H   0  0  0  0  0  0  0  0  0  0  0  0
    2.3680    1.6685    1.6600 H   0  0  0  0  0  0  0  0  0  0  0  0
  1  2  1  0
  2  3  1  0
  3  4  1  0
  4  5  1  0
  5  6  1  0
  6  7  1  0
  7  8  1  0
  8  9  1  0
  9 10  2  0
 10 11  1  0
 11 12  2  0
 12 13  1  0
 13 14  2  0
 14  9  1  0
 14 15  1  0
 15 16  1  0
 16 17  2  0
 17 18  1  0
 18 19  2  0
 19 20  1  0
 20 21  2  0
 21  8  1  0
 21 16  1  0
  6 22  1  0
 22  2  1  0
  1 23  1  0
  1 24  1  0
  1 25  1  0
  3 26  1  0
  3 27  1  0
  4 28  1  0
  4 29  1  0
  5 30  1  0
  5 31  1  0
  6 32  1  0
  7 33  1  0
  7 34  1  0
  8 35  1  0
 10 36  1  0
 11 37  1  0
 12 38  1  0
 13 39  1  0
 17 40  1  0
 18 41  1  0
 19 42  1  0
 20 43  1  0
 22 44  1  0
 22 45  1  0
M  END
> <ID>
HT1375

> <Class>
0.0

> <Clusters>
154

> <Fold>
5

$$$$