
     RDKit          3D

 30 30  0  0  0  0  0  0  0  0999 V2000
   -1.5411   -1.9240   -1.2069 C   0  0  0  0  0  0  0  0  0  0  0  0
   -1.8132   -0.4984   -0.7099 C   0  0  0  0  0  0  0  0  0  0  0  0
   -0.5726    0.1981   -0.0706 C   0  0  0  0  0  0  0  0  0  0  0  0
   -0.8840    1.6921    0.2708 C   0  0  0  0  0  0  0  0  0  0  0  0
   -2.1568    1.9624    1.0842 C   0  0  0  0  0  0  0  0  0  0  0  0
   -0.1726   -0.5659    1.1937 C   0  0  0  0  0  0  0  0  0  0  0  0
   -0.9759   -0.6477    2.1609 O   0  0  0  0  0  0  0  0  0  0  0  0
    1.0901   -1.2349    1.2976 N   0  0  0  0  0  0  0  0  0  0  0  0
    1.9343   -1.4550    0.1316 C   0  0  0  0  0  0  0  0  0  0  0  0
    1.9814   -0.1947   -0.7301 C   0  0  0  0  0  0  0  0  0  0  0  0
    2.7265    0.9457   -0.0261 C   0  0  0  0  0  0  0  0  0  0  0  0
    0.5756    0.2247   -1.0880 C   0  0  0  0  0  0  0  0  0  0  0  0
    0.3606    0.6208   -2.2257 O   0  0  0  0  0  0  0  0  0  0  0  0
   -2.4784   -2.3552   -1.6172 H   0  0  0  0  0  0  0  0  0  0  0  0
   -1.1964   -2.5720   -0.3741 H   0  0  0  0  0  0  0  0  0  0  0  0
   -0.7792   -1.9261   -2.0138 H   0  0  0  0  0  0  0  0  0  0  0  0
   -2.1864    0.1068   -1.5652 H   0  0  0  0  0  0  0  0  0  0  0  0
   -2.6387   -0.5625    0.0311 H   0  0  0  0  0  0  0  0  0  0  0  0
   -0.0241    2.1288    0.8241 H   0  0  0  0  0  0  0  0  0  0  0  0
   -0.9823    2.2739   -0.6729 H   0  0  0  0  0  0  0  0  0  0  0  0
   -3.0625    1.6365    0.5334 H   0  0  0  0  0  0  0  0  0  0  0  0
   -2.1225    1.4789    2.0789 H   0  0  0  0  0  0  0  0  0  0  0  0
   -2.2488    3.0562    1.2528 H   0  0  0  0  0  0  0  0  0  0  0  0
    1.3944   -1.6141    2.2224 H   0  0  0  0  0  0  0  0  0  0  0  0
    2.9580   -1.7445    0.4548 H   0  0  0  0  0  0  0  0  0  0  0  0
    1.5155   -2.2947   -0.4645 H   0  0  0  0  0  0  0  0  0  0  0  0
    2.5378   -0.4364   -1.6634 H   0  0  0  0  0  0  0  0  0  0  0  0
    2.7376    1.8489   -0.6729 H   0  0  0  0  0  0  0  0  0  0  0  0
    3.7781    0.6472    0.1705 H   0  0  0  0  0  0  0  0  0  0  0  0
    2.2458    1.2050    0.9407 H   0  0  0  0  0  0  0  0  0  0  0  0
  1  2  1  0
  2  3  1  0
  3  4  1  0
  4  5  1  0
  3  6  1  0
  6  7  2  0
  6  8  1  0
  8  9  1  0
  9 10  1  0
 10 11  1  0
 10 12  1  0
 12  3  1  0
 12 13  2  0
  1 14  1  0
  1 15  1  0
  1 16  1  0
  2 17  1  0
  2 18  1  0
  4 19  1  0
  4 20  1  0
  5 21  1  0
  5 22  1  0
  5 23  1  0
  8 24  1  0
  9 25  1  0
  9 26  1  0
 10 27  1  0
 11 28  1  0
 11 29  1  0
 11 30  1  0
M  END
> <ID>
HT1371

> <Class>
0.0

> <Clusters>
28

> <Fold>
5

$$$$