
     RDKit          3D

 27 28  0  0  0  0  0  0  0  0999 V2000
   -5.6456   -1.3408   -0.4597 O   0  0  0  0  0  0  0  0  0  0  0  0
   -4.2776   -1.0927   -0.3724 C   0  0  0  0  0  0  0  0  0  0  0  0
   -3.3698   -2.0909   -0.7390 C   0  0  0  0  0  0  0  0  0  0  0  0
   -1.9942   -1.8548   -0.6561 C   0  0  0  0  0  0  0  0  0  0  0  0
   -1.5105   -0.6199   -0.2064 C   0  0  0  0  0  0  0  0  0  0  0  0
   -0.1222   -0.4324   -0.1412 O   0  0  0  0  0  0  0  0  0  0  0  0
    0.5111    0.7691    0.2960 C   0  0  0  0  0  0  0  0  0  0  0  0
    2.0142    0.6558    0.2510 C   0  0  0  0  0  0  0  0  0  0  0  0
    2.6677   -0.5166   -0.1786 C   0  0  0  0  0  0  0  0  0  0  0  0
    4.0649   -0.5761   -0.2036 C   0  0  0  0  0  0  0  0  0  0  0  0
    4.8218    0.5273    0.1974 C   0  0  0  0  0  0  0  0  0  0  0  0
    4.1832    1.6937    0.6248 C   0  0  0  0  0  0  0  0  0  0  0  0
    2.7868    1.7588    0.6518 C   0  0  0  0  0  0  0  0  0  0  0  0
   -2.4274    0.3841    0.1624 C   0  0  0  0  0  0  0  0  0  0  0  0
   -3.8030    0.1460    0.0788 C   0  0  0  0  0  0  0  0  0  0  0  0
   -6.3286   -0.6381   -0.2015 H   0  0  0  0  0  0  0  0  0  0  0  0
   -3.7302   -3.0501   -1.0883 H   0  0  0  0  0  0  0  0  0  0  0  0
   -1.2999   -2.6347   -0.9424 H   0  0  0  0  0  0  0  0  0  0  0  0
    0.2016    0.9877    1.3410 H   0  0  0  0  0  0  0  0  0  0  0  0
    0.1975    1.6091   -0.3612 H   0  0  0  0  0  0  0  0  0  0  0  0
    2.1075   -1.3866   -0.4949 H   0  0  0  0  0  0  0  0  0  0  0  0
    4.5613   -1.4792   -0.5346 H   0  0  0  0  0  0  0  0  0  0  0  0
    5.9028    0.4785    0.1770 H   0  0  0  0  0  0  0  0  0  0  0  0
    4.7704    2.5483    0.9354 H   0  0  0  0  0  0  0  0  0  0  0  0
    2.3058    2.6701    0.9857 H   0  0  0  0  0  0  0  0  0  0  0  0
   -2.0886    1.3490    0.5139 H   0  0  0  0  0  0  0  0  0  0  0  0
   -4.4988    0.9246    0.3647 H   0  0  0  0  0  0  0  0  0  0  0  0
  1  2  1  0
  2  3  2  0
  3  4  1  0
  4  5  2  0
  5  6  1  0
  6  7  1  0
  7  8  1  0
  8  9  2  0
  9 10  1  0
 10 11  2  0
 11 12  1  0
 12 13  2  0
 13  8  1  0
  5 14  1  0
 14 15  2  0
 15  2  1  0
  1 16  1  0
  3 17  1  0
  4 18  1  0
  7 19  1  0
  7 20  1  0
  9 21  1  0
 10 22  1  0
 11 23  1  0
 12 24  1  0
 13 25  1  0
 14 26  1  0
 15 27  1  0
M  END
> <ID>
HT1429

> <Class>
0.0

> <Clusters>
265

> <Fold>
5

$$$$