
     RDKit          3D

 37 37  0  0  0  0  0  0  0  0999 V2000
    3.7446   -2.7372    0.6565 C   0  0  0  0  0  0  0  0  0  0  0  0
    3.5522   -1.6446    1.7006 C   0  0  0  0  0  0  0  0  0  0  0  0
    2.5476   -0.6785    1.2469 C   0  0  0  0  0  0  0  0  0  0  0  0
    1.7166    0.1065    0.8647 C   0  0  0  0  0  0  0  0  0  0  0  0
    0.6910    1.0546    0.3859 C   0  0  0  0  0  0  0  0  0  0  0  0
    1.3818    2.1315   -0.4693 C   0  0  0  0  0  0  0  0  0  0  0  0
   -0.5010    0.3192   -0.3287 C   0  0  0  0  0  0  0  0  0  0  0  0
   -0.0156   -0.4540   -1.6014 C   0  0  0  0  0  0  0  0  0  0  0  0
   -1.1266   -1.2307   -2.2718 C   0  0  0  0  0  0  0  0  0  0  0  0
   -1.0688   -2.5565   -2.4293 C   0  0  0  0  0  0  0  0  0  0  0  0
   -1.1114   -0.6621    0.6702 C   0  0  0  0  0  0  0  0  0  0  0  0
   -0.6740   -1.8425    0.7521 O   0  0  0  0  0  0  0  0  0  0  0  0
   -2.1147   -0.2344    1.5919 N   0  0  0  0  0  0  0  0  0  0  0  0
   -2.7817    1.0129    1.4173 C   0  0  0  0  0  0  0  0  0  0  0  0
   -3.5700    1.4242    2.3107 O   0  0  0  0  0  0  0  0  0  0  0  0
   -2.5726    1.7739    0.2178 N   0  0  0  0  0  0  0  0  0  0  0  0
   -3.3218    3.0143   -0.0131 C   0  0  0  0  0  0  0  0  0  0  0  0
   -1.5540    1.3599   -0.7151 C   0  0  0  0  0  0  0  0  0  0  0  0
   -1.4965    1.9090   -1.8512 O   0  0  0  0  0  0  0  0  0  0  0  0
    2.7914   -3.2832    0.4895 H   0  0  0  0  0  0  0  0  0  0  0  0
    4.0897   -2.2975   -0.3039 H   0  0  0  0  0  0  0  0  0  0  0  0
    4.5096   -3.4592    1.0119 H   0  0  0  0  0  0  0  0  0  0  0  0
    4.5138   -1.1168    1.8742 H   0  0  0  0  0  0  0  0  0  0  0  0
    3.2122   -2.0998    2.6553 H   0  0  0  0  0  0  0  0  0  0  0  0
    0.2895    1.5704    1.2872 H   0  0  0  0  0  0  0  0  0  0  0  0
    1.8700    1.6895   -1.3626 H   0  0  0  0  0  0  0  0  0  0  0  0
    2.1671    2.6417    0.1298 H   0  0  0  0  0  0  0  0  0  0  0  0
    0.6609    2.9103   -0.7911 H   0  0  0  0  0  0  0  0  0  0  0  0
    0.3904    0.2527   -2.3544 H   0  0  0  0  0  0  0  0  0  0  0  0
    0.8204   -1.1377   -1.3349 H   0  0  0  0  0  0  0  0  0  0  0  0
   -1.9935   -0.6964   -2.6485 H   0  0  0  0  0  0  0  0  0  0  0  0
   -0.2194   -3.1301   -2.0708 H   0  0  0  0  0  0  0  0  0  0  0  0
   -1.8833   -3.0796   -2.9196 H   0  0  0  0  0  0  0  0  0  0  0  0
   -2.3776   -0.8525    2.3924 H   0  0  0  0  0  0  0  0  0  0  0  0
   -4.3048    2.9898    0.5036 H   0  0  0  0  0  0  0  0  0  0  0  0
   -2.7333    3.8779    0.3622 H   0  0  0  0  0  0  0  0  0  0  0  0
   -3.5284    3.1548   -1.0952 H   0  0  0  0  0  0  0  0  0  0  0  0
  1  2  1  0
  2  3  1  0
  3  4  3  0
  4  5  1  0
  5  6  1  0
  5  7  1  0
  7  8  1  0
  8  9  1  0
  9 10  2  3
  7 11  1  0
 11 12  2  0
 11 13  1  0
 13 14  1  0
 14 15  2  0
 14 16  1  0
 16 17  1  0
 16 18  1  0
 18  7  1  0
 18 19  2  0
  1 20  1  0
  1 21  1  0
  1 22  1  0
  2 23  1  0
  2 24  1  0
  5 25  1  0
  6 26  1  0
  6 27  1  0
  6 28  1  0
  8 29  1  0
  8 30  1  0
  9 31  1  0
 10 32  1  0
 10 33  1  0
 13 34  1  0
 17 35  1  0
 17 36  1  0
 17 37  1  0
M  END
> <ID>
HT1345

> <Class>
0.0

> <Clusters>
258

> <Fold>
5

$$$$