
     RDKit          3D

 28 28  0  0  0  0  0  0  0  0999 V2000
   -0.7443   -2.6294   -0.1323 C   0  0  0  0  0  0  0  0  0  0  0  0
   -1.4916   -1.2895   -0.1580 C   0  0  0  0  0  0  0  0  0  0  0  0
   -0.6224   -0.0734    0.2963 C   0  0  0  0  0  0  0  0  0  0  0  0
   -1.4836    1.2242    0.3609 C   0  0  0  0  0  0  0  0  0  0  0  0
   -2.0891    1.6927   -0.9679 C   0  0  0  0  0  0  0  0  0  0  0  0
   -0.1250   -0.3333    1.7135 C   0  0  0  0  0  0  0  0  0  0  0  0
   -0.9517   -0.6579    2.6098 O   0  0  0  0  0  0  0  0  0  0  0  0
    1.2494   -0.1861    2.0729 N   0  0  0  0  0  0  0  0  0  0  0  0
    2.2220    0.2679    1.1377 C   0  0  0  0  0  0  0  0  0  0  0  0
    3.4095    0.4502    1.5206 O   0  0  0  0  0  0  0  0  0  0  0  0
    1.8524    0.5017   -0.2274 N   0  0  0  0  0  0  0  0  0  0  0  0
    2.8647    0.9339   -1.1967 C   0  0  0  0  0  0  0  0  0  0  0  0
    0.5366    0.1319   -0.6787 C   0  0  0  0  0  0  0  0  0  0  0  0
    0.3269   -0.0007   -1.9173 O   0  0  0  0  0  0  0  0  0  0  0  0
   -1.4146   -3.4316   -0.5068 H   0  0  0  0  0  0  0  0  0  0  0  0
   -0.4364   -2.8925    0.9009 H   0  0  0  0  0  0  0  0  0  0  0  0
    0.1535   -2.5937   -0.7840 H   0  0  0  0  0  0  0  0  0  0  0  0
   -2.3893   -1.3774    0.4929 H   0  0  0  0  0  0  0  0  0  0  0  0
   -1.8631   -1.1374   -1.1932 H   0  0  0  0  0  0  0  0  0  0  0  0
   -2.3217    1.0793    1.0786 H   0  0  0  0  0  0  0  0  0  0  0  0
   -0.8588    2.0553    0.7586 H   0  0  0  0  0  0  0  0  0  0  0  0
   -1.2977    1.9443   -1.7026 H   0  0  0  0  0  0  0  0  0  0  0  0
   -2.6840    2.6132   -0.7891 H   0  0  0  0  0  0  0  0  0  0  0  0
   -2.7723    0.9297   -1.3919 H   0  0  0  0  0  0  0  0  0  0  0  0
    1.5415   -0.3780    3.0579 H   0  0  0  0  0  0  0  0  0  0  0  0
    2.3932    1.4903   -2.0346 H   0  0  0  0  0  0  0  0  0  0  0  0
    3.5980    1.6191   -0.7210 H   0  0  0  0  0  0  0  0  0  0  0  0
    3.3978    0.0472   -1.5992 H   0  0  0  0  0  0  0  0  0  0  0  0
  1  2  1  0
  2  3  1  0
  3  4  1  0
  4  5  1  0
  3  6  1  0
  6  7  2  0
  6  8  1  0
  8  9  1  0
  9 10  2  0
  9 11  1  0
 11 12  1  0
 11 13  1  0
 13  3  1  0
 13 14  2  0
  1 15  1  0
  1 16  1  0
  1 17  1  0
  2 18  1  0
  2 19  1  0
  4 20  1  0
  4 21  1  0
  5 22  1  0
  5 23  1  0
  5 24  1  0
  8 25  1  0
 12 26  1  0
 12 27  1  0
 12 28  1  0
M  END
> <ID>
HT1337

> <Class>
0.0

> <Clusters>
28

> <Fold>
5

$$$$