
     RDKit          3D

 67 69  0  0  0  0  0  0  0  0999 V2000
   -4.9259    2.5352   -3.0409 C   0  0  0  0  0  0  0  0  0  0  0  0
   -4.2028    1.4588   -2.2311 C   0  0  0  0  0  0  0  0  0  0  0  0
   -3.3800    2.0409   -1.0623 C   0  0  2  0  0  0  0  0  0  0  0  0
   -2.1567    2.8264   -1.5531 C   0  0  0  0  0  0  0  0  0  0  0  0
   -2.9451    0.9256   -0.1500 C   0  0  0  0  0  0  0  0  0  0  0  0
   -3.3068    0.9315    1.0587 O   0  0  0  0  0  0  0  0  0  0  0  0
   -2.1595   -0.1218   -0.6532 O   0  0  0  0  0  0  0  0  0  0  0  0
   -1.9328   -1.3371    0.0561 C   0  0  1  0  0  0  0  0  0  0  0  0
   -1.7401   -2.4982   -0.9261 C   0  0  0  0  0  0  0  0  0  0  0  0
   -1.8699   -3.8604   -0.1850 C   0  0  1  0  0  0  0  0  0  0  0  0
   -1.1811   -4.9691   -0.9904 C   0  0  0  0  0  0  0  0  0  0  0  0
   -1.3322   -3.8032    1.2767 C   0  0  0  0  0  0  0  0  0  0  0  0
   -0.2447   -2.7273    1.4027 C   0  0  2  0  0  0  0  0  0  0  0  0
    0.5053   -2.7702    2.7026 C   0  0  0  0  0  0  0  0  0  0  0  0
    1.2795   -1.7367    3.0722 C   0  0  0  0  0  0  0  0  0  0  0  0
    1.2432   -0.3751    2.3858 C   0  0  2  0  0  0  0  0  0  0  0  0
    0.6606    0.6394    3.3906 C   0  0  0  0  0  0  0  0  0  0  0  0
    0.4905   -0.3909    0.9954 C   0  0  2  0  0  0  0  0  0  0  0  0
    0.2752    1.0271    0.4073 C   0  0  0  0  0  0  0  0  0  0  0  0
    1.5583    1.8756    0.2341 C   0  0  0  0  0  0  0  0  0  0  0  0
    2.4409    1.4496   -0.9714 C   0  0  2  0  0  0  0  0  0  0  0  0
    3.6416    0.5653   -0.5650 C   0  0  0  0  0  0  0  0  0  0  0  0
    4.7986    1.4045   -0.0167 C   0  0  1  0  0  0  0  0  0  0  0  0
    5.8339    0.5484    0.3905 O   0  0  0  0  0  0  0  0  0  0  0  0
    5.3122    2.3660   -1.0946 C   0  0  0  0  0  0  0  0  0  0  0  0
    4.1849    3.0636   -1.7965 C   0  0  0  0  0  0  0  0  0  0  0  0
    4.4377    4.0567   -2.5276 O   0  0  0  0  0  0  0  0  0  0  0  0
    2.8609    2.6229   -1.6818 O   0  0  0  0  0  0  0  0  0  0  0  0
   -0.7947   -1.2905    1.1451 C   0  0  1  0  0  0  0  0  0  0  0  0
   -5.5660    3.1558   -2.3782 H   0  0  0  0  0  0  0  0  0  0  0  0
   -4.1991    3.1851   -3.5712 H   0  0  0  0  0  0  0  0  0  0  0  0
   -5.5740    2.0507   -3.8024 H   0  0  0  0  0  0  0  0  0  0  0  0
   -4.9749    0.7673   -1.8254 H   0  0  0  0  0  0  0  0  0  0  0  0
   -3.5461    0.8697   -2.9084 H   0  0  0  0  0  0  0  0  0  0  0  0
   -4.0255    2.7379   -0.4819 H   0  0  0  0  0  0  0  0  0  0  0  0
   -2.4724    3.7309   -2.1121 H   0  0  0  0  0  0  0  0  0  0  0  0
   -1.5509    3.1695   -0.6876 H   0  0  0  0  0  0  0  0  0  0  0  0
   -1.5219    2.1985   -2.2151 H   0  0  0  0  0  0  0  0  0  0  0  0
   -2.8840   -1.5746    0.5897 H   0  0  0  0  0  0  0  0  0  0  0  0
   -0.7437   -2.3960   -1.4108 H   0  0  0  0  0  0  0  0  0  0  0  0
   -2.5101   -2.4446   -1.7270 H   0  0  0  0  0  0  0  0  0  0  0  0
   -2.9516   -4.1174   -0.1305 H   0  0  0  0  0  0  0  0  0  0  0  0
   -0.0846   -4.7977   -1.0361 H   0  0  0  0  0  0  0  0  0  0  0  0
   -1.5845   -4.9957   -2.0252 H   0  0  0  0  0  0  0  0  0  0  0  0
   -1.3702   -5.9575   -0.5201 H   0  0  0  0  0  0  0  0  0  0  0  0
   -0.9317   -4.7939    1.5864 H   0  0  0  0  0  0  0  0  0  0  0  0
   -2.1644   -3.5578    1.9729 H   0  0  0  0  0  0  0  0  0  0  0  0
    0.5114   -2.9790    0.6245 H   0  0  0  0  0  0  0  0  0  0  0  0
    0.5184   -3.6826    3.2922 H   0  0  0  0  0  0  0  0  0  0  0  0
    1.8743   -1.8384    3.9758 H   0  0  0  0  0  0  0  0  0  0  0  0
    2.3014   -0.0925    2.2155 H   0  0  0  0  0  0  0  0  0  0  0  0
    1.2180    0.5881    4.3510 H   0  0  0  0  0  0  0  0  0  0  0  0
   -0.4088    0.4338    3.6012 H   0  0  0  0  0  0  0  0  0  0  0  0
    0.7590    1.6805    3.0249 H   0  0  0  0  0  0  0  0  0  0  0  0
    1.1570   -0.8933    0.2615 H   0  0  0  0  0  0  0  0  0  0  0  0
   -0.1500    0.9430   -0.6056 H   0  0  0  0  0  0  0  0  0  0  0  0
   -0.4534    1.5830    1.0340 H   0  0  0  0  0  0  0  0  0  0  0  0
    2.1481    1.9248    1.1688 H   0  0  0  0  0  0  0  0  0  0  0  0
    1.2149    2.9192    0.0575 H   0  0  0  0  0  0  0  0  0  0  0  0
    1.8295    0.8518   -1.6818 H   0  0  0  0  0  0  0  0  0  0  0  0
    3.9948    0.0078   -1.4611 H   0  0  0  0  0  0  0  0  0  0  0  0
    3.3436   -0.1935    0.1833 H   0  0  0  0  0  0  0  0  0  0  0  0
    4.4391    1.9926    0.8590 H   0  0  0  0  0  0  0  0  0  0  0  0
    6.4489    1.0886    0.9529 H   0  0  0  0  0  0  0  0  0  0  0  0
    5.9713    3.1226   -0.6167 H   0  0  0  0  0  0  0  0  0  0  0  0
    5.9098    1.8112   -1.8502 H   0  0  0  0  0  0  0  0  0  0  0  0
   -1.3225   -0.9550    2.0648 H   0  0  0  0  0  0  0  0  0  0  0  0
  1  2  1  0
  2  3  1  0
  3  4  1  0
  3  5  1  0
  5  6  2  0
  5  7  1  0
  8  7  1  0
  8  9  1  0
  9 10  1  0
 10 11  1  0
 10 12  1  0
 13 12  1  0
 13 14  1  0
 14 15  2  0
 15 16  1  0
 16 17  1  0
 16 18  1  0
 18 19  1  0
 19 20  1  0
 21 20  1  0
 21 22  1  0
 22 23  1  0
 23 24  1  0
 23 25  1  0
 25 26  1  0
 26 27  2  0
 26 28  1  0
 28 21  1  0
 18 29  1  0
 29  8  1  0
 29 13  1  0
  1 30  1  0
  1 31  1  0
  1 32  1  0
  2 33  1  0
  2 34  1  0
  3 35  1  1
  4 36  1  0
  4 37  1  0
  4 38  1  0
  8 39  1  1
  9 40  1  0
  9 41  1  0
 10 42  1  1
 11 43  1  0
 11 44  1  0
 11 45  1  0
 12 46  1  0
 12 47  1  0
 13 48  1  6
 14 49  1  0
 15 50  1  0
 16 51  1  6
 17 52  1  0
 17 53  1  0
 17 54  1  0
 18 55  1  6
 19 56  1  0
 19 57  1  0
 20 58  1  0
 20 59  1  0
 21 60  1  6
 22 61  1  0
 22 62  1  0
 23 63  1  1
 24 64  1  0
 25 65  1  0
 25 66  1  0
 29 67  1  1
M  END
> <ID>
HT1385

> <Class>
0.0

> <Clusters>
149

> <Fold>
5

$$$$