
     RDKit          3D

 29 29  0  0  0  0  0  0  0  0999 V2000
   -0.2249   -2.2800    0.3163 C   0  0  0  0  0  0  0  0  0  0  0  0
   -0.9432   -1.0255   -0.2156 C   0  0  0  0  0  0  0  0  0  0  0  0
   -2.2609   -0.8215    0.5600 C   0  0  0  0  0  0  0  0  0  0  0  0
   -0.0712    0.2963   -0.2703 C   0  0  0  0  0  0  0  0  0  0  0  0
    1.3096    0.0764   -0.9809 C   0  0  0  0  0  0  0  0  0  0  0  0
    2.4011   -0.5667   -0.1531 C   0  0  0  0  0  0  0  0  0  0  0  0
    3.0597   -1.6536   -0.5674 C   0  0  0  0  0  0  0  0  0  0  0  0
   -0.8277    1.2847   -1.1696 C   0  0  0  0  0  0  0  0  0  0  0  0
   -1.1069    0.9485   -2.3537 O   0  0  0  0  0  0  0  0  0  0  0  0
   -1.2080    2.5918   -0.7337 N   0  0  0  0  0  0  0  0  0  0  0  0
   -0.8724    3.0705    0.5604 C   0  0  0  0  0  0  0  0  0  0  0  0
   -1.1799    4.2443    0.8983 O   0  0  0  0  0  0  0  0  0  0  0  0
   -0.1960    2.2208    1.4756 N   0  0  0  0  0  0  0  0  0  0  0  0
    0.1380    0.8715    1.1408 C   0  0  0  0  0  0  0  0  0  0  0  0
    0.6121    0.1413    2.0517 O   0  0  0  0  0  0  0  0  0  0  0  0
    0.2229   -2.1213    1.3154 H   0  0  0  0  0  0  0  0  0  0  0  0
   -0.9423   -3.1245    0.3990 H   0  0  0  0  0  0  0  0  0  0  0  0
    0.5542   -2.6103   -0.3968 H   0  0  0  0  0  0  0  0  0  0  0  0
   -1.2356   -1.2910   -1.2566 H   0  0  0  0  0  0  0  0  0  0  0  0
   -2.0659   -0.6779    1.6438 H   0  0  0  0  0  0  0  0  0  0  0  0
   -2.8157    0.0597    0.1758 H   0  0  0  0  0  0  0  0  0  0  0  0
   -2.9183   -1.7090    0.4387 H   0  0  0  0  0  0  0  0  0  0  0  0
    1.1486   -0.5008   -1.9192 H   0  0  0  0  0  0  0  0  0  0  0  0
    1.7156    1.0653   -1.2910 H   0  0  0  0  0  0  0  0  0  0  0  0
    2.7344   -0.0826    0.7587 H   0  0  0  0  0  0  0  0  0  0  0  0
    2.8039   -2.1461   -1.5005 H   0  0  0  0  0  0  0  0  0  0  0  0
    3.8683   -2.0586    0.0324 H   0  0  0  0  0  0  0  0  0  0  0  0
   -1.7218    3.2206   -1.3916 H   0  0  0  0  0  0  0  0  0  0  0  0
    0.0223    2.5779    2.4332 H   0  0  0  0  0  0  0  0  0  0  0  0
  1  2  1  0
  2  3  1  0
  2  4  1  0
  4  5  1  0
  5  6  1  0
  6  7  2  3
  4  8  1  0
  8  9  2  0
  8 10  1  0
 10 11  1  0
 11 12  2  0
 11 13  1  0
 13 14  1  0
 14  4  1  0
 14 15  2  0
  1 16  1  0
  1 17  1  0
  1 18  1  0
  2 19  1  0
  3 20  1  0
  3 21  1  0
  3 22  1  0
  5 23  1  0
  5 24  1  0
  6 25  1  0
  7 26  1  0
  7 27  1  0
 10 28  1  0
 13 29  1  0
M  END
> <ID>
HT0175

> <Class>
0.0

> <Clusters>
258

> <Fold>
5

$$$$