
     RDKit          3D

 54 56  0  0  0  0  0  0  0  0999 V2000
   -2.9545   -2.2295    0.9502 C   0  0  0  0  0  0  0  0  0  0  0  0
   -3.0239   -0.7328    0.6474 C   0  0  0  0  0  0  0  0  0  0  0  0
   -2.4393   -0.4048   -0.6740 N   0  0  0  0  0  0  0  0  0  0  0  0
   -3.1556   -1.0217   -1.8228 C   0  0  0  0  0  0  0  0  0  0  0  0
   -4.6491   -0.6768   -1.9178 C   0  0  0  0  0  0  0  0  0  0  0  0
   -2.2365    1.0574   -0.8143 C   0  0  0  0  0  0  0  0  0  0  0  0
   -1.2404    1.4216   -1.9315 C   0  0  0  0  0  0  0  0  0  0  0  0
    0.0694    0.6145   -1.8768 C   0  0  0  0  0  0  0  0  0  0  0  0
    0.8140    0.8378   -0.6207 N   0  0  0  0  0  0  0  0  0  0  0  0
    0.9329   -0.2492    0.3824 C   0  0  0  0  0  0  0  0  0  0  0  0
    1.2831   -1.6199   -0.2534 C   0  0  0  0  0  0  0  0  0  0  0  0
    2.2145   -2.2337    0.7191 C   0  0  0  0  0  0  0  0  0  0  0  0
    2.7003   -3.5435    0.7057 C   0  0  0  0  0  0  0  0  0  0  0  0
    3.6039   -3.9374    1.7049 C   0  0  0  0  0  0  0  0  0  0  0  0
    4.0142   -3.0188    2.6884 C   0  0  0  0  0  0  0  0  0  0  0  0
    3.5217   -1.7043    2.6748 C   0  0  0  0  0  0  0  0  0  0  0  0
    2.6126   -1.3392    1.6787 C   0  0  0  0  0  0  0  0  0  0  0  0
    2.0299    0.0022    1.4538 C   0  0  0  0  0  0  0  0  0  0  0  0
    1.1966    2.1923   -0.2984 C   0  0  0  0  0  0  0  0  0  0  0  0
    0.7152    2.8133    0.8674 C   0  0  0  0  0  0  0  0  0  0  0  0
    1.0753    4.1308    1.1645 C   0  0  0  0  0  0  0  0  0  0  0  0
    1.9146    4.8390    0.3008 C   0  0  0  0  0  0  0  0  0  0  0  0
    2.3945    4.2309   -0.8622 C   0  0  0  0  0  0  0  0  0  0  0  0
    2.0363    2.9134   -1.1631 C   0  0  0  0  0  0  0  0  0  0  0  0
   -1.9326   -2.6152    0.7497 H   0  0  0  0  0  0  0  0  0  0  0  0
   -3.1964   -2.4036    2.0200 H   0  0  0  0  0  0  0  0  0  0  0  0
   -3.6922   -2.7901    0.3404 H   0  0  0  0  0  0  0  0  0  0  0  0
   -2.4436   -0.2268    1.4501 H   0  0  0  0  0  0  0  0  0  0  0  0
   -4.0686   -0.3665    0.7336 H   0  0  0  0  0  0  0  0  0  0  0  0
   -2.6675   -0.7404   -2.7772 H   0  0  0  0  0  0  0  0  0  0  0  0
   -3.0482   -2.1253   -1.7755 H   0  0  0  0  0  0  0  0  0  0  0  0
   -5.0612   -1.1192   -2.8493 H   0  0  0  0  0  0  0  0  0  0  0  0
   -5.2163   -1.1097   -1.0689 H   0  0  0  0  0  0  0  0  0  0  0  0
   -4.8163    0.4172   -1.9644 H   0  0  0  0  0  0  0  0  0  0  0  0
   -1.8251    1.4779    0.1283 H   0  0  0  0  0  0  0  0  0  0  0  0
   -3.1977    1.5830   -0.9881 H   0  0  0  0  0  0  0  0  0  0  0  0
   -1.7155    1.2735   -2.9236 H   0  0  0  0  0  0  0  0  0  0  0  0
   -1.0110    2.5070   -1.8664 H   0  0  0  0  0  0  0  0  0  0  0  0
    0.7074    0.9050   -2.7381 H   0  0  0  0  0  0  0  0  0  0  0  0
   -0.1761   -0.4563   -2.0238 H   0  0  0  0  0  0  0  0  0  0  0  0
   -0.0394   -0.3507    0.9106 H   0  0  0  0  0  0  0  0  0  0  0  0
    0.3727   -2.2459   -0.3748 H   0  0  0  0  0  0  0  0  0  0  0  0
    1.8106   -1.5046   -1.2249 H   0  0  0  0  0  0  0  0  0  0  0  0
    2.3873   -4.2416   -0.0599 H   0  0  0  0  0  0  0  0  0  0  0  0
    3.9903   -4.9482    1.7151 H   0  0  0  0  0  0  0  0  0  0  0  0
    4.7167   -3.3242    3.4529 H   0  0  0  0  0  0  0  0  0  0  0  0
    3.8461   -0.9875    3.4177 H   0  0  0  0  0  0  0  0  0  0  0  0
    1.5949    0.4056    2.3933 H   0  0  0  0  0  0  0  0  0  0  0  0
    2.8347    0.6701    1.0786 H   0  0  0  0  0  0  0  0  0  0  0  0
    0.0561    2.2798    1.5398 H   0  0  0  0  0  0  0  0  0  0  0  0
    0.7011    4.6038    2.0631 H   0  0  0  0  0  0  0  0  0  0  0  0
    2.1923    5.8592    0.5317 H   0  0  0  0  0  0  0  0  0  0  0  0
    3.0450    4.7802   -1.5304 H   0  0  0  0  0  0  0  0  0  0  0  0
    2.4225    2.4515   -2.0623 H   0  0  0  0  0  0  0  0  0  0  0  0
  1  2  1  0
  2  3  1  0
  3  4  1  0
  4  5  1  0
  3  6  1  0
  6  7  1  0
  7  8  1  0
  8  9  1  0
  9 10  1  0
 10 11  1  0
 11 12  1  0
 12 13  2  0
 13 14  1  0
 14 15  2  0
 15 16  1  0
 16 17  2  0
 17 12  1  0
 17 18  1  0
 18 10  1  0
  9 19  1  0
 19 20  2  0
 20 21  1  0
 21 22  2  0
 22 23  1  0
 23 24  2  0
 24 19  1  0
  1 25  1  0
  1 26  1  0
  1 27  1  0
  2 28  1  0
  2 29  1  0
  4 30  1  0
  4 31  1  0
  5 32  1  0
  5 33  1  0
  5 34  1  0
  6 35  1  0
  6 36  1  0
  7 37  1  0
  7 38  1  0
  8 39  1  0
  8 40  1  0
 10 41  1  0
 11 42  1  0
 11 43  1  0
 13 44  1  0
 14 45  1  0
 15 46  1  0
 16 47  1  0
 18 48  1  0
 18 49  1  0
 20 50  1  0
 21 51  1  0
 22 52  1  0
 23 53  1  0
 24 54  1  0
M  END
> <ID>
HT0174

> <Class>
0.0

> <Clusters>
131

> <Fold>
5

$$$$