     RDKit          3D

 95101  0  0  0  0  0  0  0  0999 V2000
   -4.1186    0.2839   -1.0710 C   0  0  0  0  0  0  0  0  0  0  0  0
   -5.6371    0.4483   -1.1649 C   0  0  0  0  0  0  0  0  0  0  0  0
   -6.2948   -0.6231   -0.3941 N   0  0  0  0  0  0  0  0  0  0  0  0
   -5.7498   -0.8323    0.9731 C   0  0  0  0  0  0  0  0  0  0  0  0
   -4.6754    0.2014    1.3531 C   0  0  0  0  0  0  0  0  0  0  0  0
   -3.6103    0.3148    0.3268 N   0  0  0  0  0  0  0  0  0  0  0  0
   -2.5161   -0.6630    0.5515 C   0  0  0  0  0  0  0  0  0  0  0  0
   -1.2232   -0.2250   -0.1523 C   0  0  0  0  0  0  0  0  0  0  0  0
   -1.3209   -0.4851   -1.5396 O   0  0  0  0  0  0  0  0  0  0  0  0
   -0.8224    0.5796   -2.3290 C   0  0  0  0  0  0  0  0  0  0  0  0
    0.6334    0.3305   -2.7236 C   0  0  0  0  0  0  0  0  0  0  0  0
    1.5025    0.3073   -1.5953 O   0  0  0  0  0  0  0  0  0  0  0  0
    1.9060    1.4534   -0.8983 C   0  0  0  0  0  0  0  0  0  0  0  0
    1.2965    2.5463   -1.0828 O   0  0  0  0  0  0  0  0  0  0  0  0
    3.0757    1.4002    0.0232 C   0  0  0  0  0  0  0  0  0  0  0  0
    3.3313    2.4942    0.8618 C   0  0  0  0  0  0  0  0  0  0  0  0
    4.4956    2.5562    1.6315 C   0  0  0  0  0  0  0  0  0  0  0  0
    4.7552    3.7023    2.4033 C   0  0  0  0  0  0  0  0  0  0  0  0
    5.9361    3.8003    3.1414 C   0  0  0  0  0  0  0  0  0  0  0  0
    6.8645    2.7604    3.1150 C   0  0  0  0  0  0  0  0  0  0  0  0
    6.6202    1.6145    2.3541 C   0  0  0  0  0  0  0  0  0  0  0  0
    5.4226    1.4818    1.6115 C   0  0  0  0  0  0  0  0  0  0  0  0
    5.1335    0.3224    0.8377 C   0  0  0  0  0  0  0  0  0  0  0  0
    3.9830    0.3173    0.0005 C   0  0  0  0  0  0  0  0  0  0  0  0
    3.7502   -0.7289   -0.8997 O   0  0  0  0  0  0  0  0  0  0  0  0
    6.0405   -0.9006    0.9009 C   0  0  0  0  0  0  0  0  0  0  0  0
    7.3378   -0.8467    0.0770 C   0  0  0  0  0  0  0  0  0  0  0  0
    7.5069    0.0530   -1.0173 C   0  0  0  0  0  0  0  0  0  0  0  0
    8.7393    0.1150   -1.7089 C   0  0  0  0  0  0  0  0  0  0  0  0
    9.8052   -0.6863   -1.3005 C   0  0  0  0  0  0  0  0  0  0  0  0
    9.6546   -1.6087   -0.2667 C   0  0  0  0  0  0  0  0  0  0  0  0
   10.7362   -2.4358    0.0789 C   0  0  0  0  0  0  0  0  0  0  0  0
   10.5932   -3.4013    1.0725 C   0  0  0  0  0  0  0  0  0  0  0  0
    9.3725   -3.5569    1.7244 C   0  0  0  0  0  0  0  0  0  0  0  0
    8.2904   -2.7376    1.3963 C   0  0  0  0  0  0  0  0  0  0  0  0
    8.4128   -1.7265    0.4108 C   0  0  0  0  0  0  0  0  0  0  0  0
    8.9395    0.9843   -2.8904 C   0  0  0  0  0  0  0  0  0  0  0  0
    8.0772    1.0143   -3.8098 O   0  0  0  0  0  0  0  0  0  0  0  0
   10.0968    1.7496   -3.0210 O   0  0  0  0  0  0  0  0  0  0  0  0
    6.4565    0.8909   -1.3978 O   0  0  0  0  0  0  0  0  0  0  0  0
   -7.7729   -0.6702   -0.5610 C   0  0  0  0  0  0  0  0  0  0  0  0
   -8.3952   -1.8447    0.1921 C   0  0  0  0  0  0  0  0  0  0  0  0
   -7.9318   -3.1450   -0.0930 C   0  0  0  0  0  0  0  0  0  0  0  0
   -8.4754   -4.2549    0.5590 C   0  0  0  0  0  0  0  0  0  0  0  0
   -9.4920   -4.0847    1.5014 C   0  0  0  0  0  0  0  0  0  0  0  0
   -9.9682   -2.8043    1.7918 C   0  0  0  0  0  0  0  0  0  0  0  0
   -9.4296   -1.6895    1.1405 C   0  0  0  0  0  0  0  0  0  0  0  0
   -8.4638    0.6787   -0.3295 C   0  0  0  0  0  0  0  0  0  0  0  0
   -8.2710    1.4277    0.8495 C   0  0  0  0  0  0  0  0  0  0  0  0
   -8.9166    2.6550    1.0276 C   0  0  0  0  0  0  0  0  0  0  0  0
   -9.7704    3.1513    0.0392 C   0  0  0  0  0  0  0  0  0  0  0  0
   -9.9776    2.4187   -1.1320 C   0  0  0  0  0  0  0  0  0  0  0  0
   -9.3309    1.1918   -1.3166 C   0  0  0  0  0  0  0  0  0  0  0  0
  -10.5826    4.6888    0.2714 Cl  0  0  0  0  0  0  0  0  0  0  0  0
   -3.8664   -0.6758   -1.5771 H   0  0  0  0  0  0  0  0  0  0  0  0
   -3.6371    1.1052   -1.6398 H   0  0  0  0  0  0  0  0  0  0  0  0
   -5.9364    0.3811   -2.2341 H   0  0  0  0  0  0  0  0  0  0  0  0
   -5.9271    1.4513   -0.7829 H   0  0  0  0  0  0  0  0  0  0  0  0
   -6.5414   -0.8293    1.7479 H   0  0  0  0  0  0  0  0  0  0  0  0
   -5.2932   -1.8412    1.0093 H   0  0  0  0  0  0  0  0  0  0  0  0
   -4.2609   -0.0489    2.3535 H   0  0  0  0  0  0  0  0  0  0  0  0
   -5.1546    1.1959    1.4744 H   0  0  0  0  0  0  0  0  0  0  0  0
   -2.8151   -1.6843    0.2247 H   0  0  0  0  0  0  0  0  0  0  0  0
   -2.2713   -0.7230    1.6360 H   0  0  0  0  0  0  0  0  0  0  0  0
   -0.3817   -0.8343    0.2465 H   0  0  0  0  0  0  0  0  0  0  0  0
   -1.0130    0.8374    0.1227 H   0  0  0  0  0  0  0  0  0  0  0  0
   -1.4157    0.5999   -3.2655 H   0  0  0  0  0  0  0  0  0  0  0  0
   -0.9608    1.5858   -1.8776 H   0  0  0  0  0  0  0  0  0  0  0  0
    0.7002   -0.6526   -3.2371 H   0  0  0  0  0  0  0  0  0  0  0  0
    0.9713    1.1068   -3.4428 H   0  0  0  0  0  0  0  0  0  0  0  0
    2.6346    3.3257    0.8869 H   0  0  0  0  0  0  0  0  0  0  0  0
    4.0496    4.5280    2.4221 H   0  0  0  0  0  0  0  0  0  0  0  0
    6.1362    4.6862    3.7318 H   0  0  0  0  0  0  0  0  0  0  0  0
    7.7830    2.8409    3.6827 H   0  0  0  0  0  0  0  0  0  0  0  0
    7.3965    0.8614    2.3369 H   0  0  0  0  0  0  0  0  0  0  0  0
    4.4391   -1.4234   -1.1508 H   0  0  0  0  0  0  0  0  0  0  0  0
    5.4914   -1.8331    0.6638 H   0  0  0  0  0  0  0  0  0  0  0  0
    6.2896   -1.0276    1.9741 H   0  0  0  0  0  0  0  0  0  0  0  0
   10.7458   -0.6324   -1.8359 H   0  0  0  0  0  0  0  0  0  0  0  0
   11.6928   -2.3385   -0.4252 H   0  0  0  0  0  0  0  0  0  0  0  0
   11.4278   -4.0409    1.3242 H   0  0  0  0  0  0  0  0  0  0  0  0
    9.2622   -4.3250    2.4799 H   0  0  0  0  0  0  0  0  0  0  0  0
    7.3623   -2.9321    1.9112 H   0  0  0  0  0  0  0  0  0  0  0  0
   10.7943    1.7877   -2.2868 H   0  0  0  0  0  0  0  0  0  0  0  0
    6.5461    1.6561   -2.0516 H   0  0  0  0  0  0  0  0  0  0  0  0
   -7.9423   -0.9277   -1.6311 H   0  0  0  0  0  0  0  0  0  0  0  0
   -7.1437   -3.2967   -0.8196 H   0  0  0  0  0  0  0  0  0  0  0  0
   -8.1107   -5.2485    0.3311 H   0  0  0  0  0  0  0  0  0  0  0  0
   -9.9146   -4.9462    2.0008 H   0  0  0  0  0  0  0  0  0  0  0  0
  -10.7600   -2.6745    2.5202 H   0  0  0  0  0  0  0  0  0  0  0  0
   -9.8346   -0.7174    1.3813 H   0  0  0  0  0  0  0  0  0  0  0  0
   -7.6358    1.0701    1.6413 H   0  0  0  0  0  0  0  0  0  0  0  0
   -8.7632    3.2167    1.9384 H   0  0  0  0  0  0  0  0  0  0  0  0
  -10.6462    2.7954   -1.8986 H   0  0  0  0  0  0  0  0  0  0  0  0
   -9.5158    0.6387   -2.2308 H   0  0  0  0  0  0  0  0  0  0  0  0
  1  2  1  0
  2  3  1  0
  3  4  1  0
  4  5  1  0
  5  6  1  0
  6  1  1  0
  6  7  1  0
  7  8  1  0
  8  9  1  0
  9 10  1  0
 10 11  1  0
 11 12  1  0
 12 13  1  0
 13 14  2  0
 13 15  1  0
 15 16  2  0
 16 17  1  0
 17 18  2  0
 18 19  1  0
 19 20  2  0
 20 21  1  0
 21 22  2  0
 22 17  1  0
 22 23  1  0
 23 24  2  0
 24 15  1  0
 24 25  1  0
 23 26  1  0
 26 27  1  0
 27 28  2  0
 28 29  1  0
 29 30  2  0
 30 31  1  0
 31 32  2  0
 32 33  1  0
 33 34  2  0
 34 35  1  0
 35 36  2  0
 36 31  1  0
 36 27  1  0
 29 37  1  0
 37 38  2  0
 37 39  1  0
 28 40  1  0
  3 41  1  0
 41 42  1  0
 42 43  2  0
 43 44  1  0
 44 45  2  0
 45 46  1  0
 46 47  2  0
 47 42  1  0
 41 48  1  0
 48 49  2  0
 49 50  1  0
 50 51  2  0
 51 52  1  0
 52 53  2  0
 53 48  1  0
 51 54  1  0
  1 55  1  0
  1 56  1  0
  2 57  1  0
  2 58  1  0
  4 59  1  0
  4 60  1  0
  5 61  1  0
  5 62  1  0
  7 63  1  0
  7 64  1  0
  8 65  1  0
  8 66  1  0
 10 67  1  0
 10 68  1  0
 11 69  1  0
 11 70  1  0
 16 71  1  0
 18 72  1  0
 19 73  1  0
 20 74  1  0
 21 75  1  0
 25 76  1  0
 26 77  1  0
 26 78  1  0
 30 79  1  0
 32 80  1  0
 33 81  1  0
 34 82  1  0
 35 83  1  0
 39 84  1  0
 40 85  1  0
 41 86  1  0
 43 87  1  0
 44 88  1  0
 45 89  1  0
 46 90  1  0
 47 91  1  0
 49 92  1  0
 50 93  1  0
 52 94  1  0
 53 95  1  0
M  END
> <ID>
HT0006

> <Class>
1.0

> <Clusters>
57

> <Fold>
1

$$$$
