
     RDKit          3D

 42 44  0  0  0  0  0  0  0  0999 V2000
    5.4548    1.5914    0.7205 S   0  0  0  0  0  0  0  0  0  0  0  0
    5.9244    2.1182   -0.8036 O   0  0  0  0  0  0  0  0  0  0  0  0
    3.9370    0.7179    0.6238 C   0  0  0  0  0  0  0  0  0  0  0  0
    6.7175    0.5870    1.4666 C   0  0  0  0  0  0  0  0  0  0  0  0
    3.8376   -0.4373   -0.1614 C   0  0  0  0  0  0  0  0  0  0  0  0
    2.8236    1.1715    1.3403 C   0  0  0  0  0  0  0  0  0  0  0  0
    2.6265   -1.1320   -0.2369 C   0  0  0  0  0  0  0  0  0  0  0  0
    1.6124    0.4775    1.2660 C   0  0  0  0  0  0  0  0  0  0  0  0
    1.5016   -0.6631    0.4556 C   0  0  0  0  0  0  0  0  0  0  0  0
    0.2438   -1.4212    0.4026 C   0  0  0  0  0  0  0  0  0  0  0  0
   -0.9128   -0.9502   -0.0965 C   0  0  0  0  0  0  0  0  0  0  0  0
   -2.1992   -1.6384   -0.0064 C   0  0  0  0  0  0  0  0  0  0  0  0
   -1.1995    0.3186   -0.8202 C   0  0  0  0  0  0  0  0  0  0  0  0
   -2.5310   -2.8684    0.5717 C   0  0  0  0  0  0  0  0  0  0  0  0
   -3.1591   -0.8333   -0.5742 C   0  0  0  0  0  0  0  0  0  0  0  0
   -0.2003    1.3824   -1.1896 C   0  0  0  0  0  0  0  0  0  0  0  0
   -2.5194    0.3830   -1.0824 C   0  0  0  0  0  0  0  0  0  0  0  0
   -3.8752   -3.2733    0.5531 C   0  0  0  0  0  0  0  0  0  0  0  0
   -4.5044   -1.2149   -0.5960 C   0  0  0  0  0  0  0  0  0  0  0  0
   -3.2470    1.5333   -1.7348 C   0  0  0  0  0  0  0  0  0  0  0  0
   -4.8589   -2.4495   -0.0276 C   0  0  0  0  0  0  0  0  0  0  0  0
   -3.4166    2.6966   -0.8021 C   0  0  0  0  0  0  0  0  0  0  0  0
   -6.1547   -2.8480   -0.0344 F   0  0  0  0  0  0  0  0  0  0  0  0
   -3.9632    3.7505   -1.2232 O   0  0  0  0  0  0  0  0  0  0  0  0
   -2.9866    2.6251    0.5213 O   0  0  0  0  0  0  0  0  0  0  0  0
    6.3834    0.2600    2.4727 H   0  0  0  0  0  0  0  0  0  0  0  0
    6.9073   -0.3034    0.8326 H   0  0  0  0  0  0  0  0  0  0  0  0
    7.6513    1.1781    1.5617 H   0  0  0  0  0  0  0  0  0  0  0  0
    4.6969   -0.7999   -0.7113 H   0  0  0  0  0  0  0  0  0  0  0  0
    2.8954    2.0573    1.9586 H   0  0  0  0  0  0  0  0  0  0  0  0
    2.5625   -2.0274   -0.8430 H   0  0  0  0  0  0  0  0  0  0  0  0
    0.7605    0.8297    1.8349 H   0  0  0  0  0  0  0  0  0  0  0  0
    0.2702   -2.4193    0.8188 H   0  0  0  0  0  0  0  0  0  0  0  0
   -1.7805   -3.4987    1.0286 H   0  0  0  0  0  0  0  0  0  0  0  0
   -0.5533    2.0059   -2.0337 H   0  0  0  0  0  0  0  0  0  0  0  0
   -0.0223    2.0463   -0.3195 H   0  0  0  0  0  0  0  0  0  0  0  0
    0.7512    0.9205   -1.5199 H   0  0  0  0  0  0  0  0  0  0  0  0
   -4.1565   -4.2215    0.9928 H   0  0  0  0  0  0  0  0  0  0  0  0
   -5.2632   -0.5815   -1.0340 H   0  0  0  0  0  0  0  0  0  0  0  0
   -4.2493    1.2056   -2.0770 H   0  0  0  0  0  0  0  0  0  0  0  0
   -2.7020    1.8611   -2.6437 H   0  0  0  0  0  0  0  0  0  0  0  0
   -3.1028    3.4115    1.1491 H   0  0  0  0  0  0  0  0  0  0  0  0
  1  2  1  0
  1  3  1  0
  1  4  1  0
  5  3  2  0
  3  6  1  0
  7  5  1  0
  6  8  2  0
  9  7  2  0
  8  9  1  0
 10  9  1  0
 11 10  2  3
 12 11  1  0
 11 13  1  0
 14 12  2  0
 12 15  1  0
 16 13  1  0
 13 17  2  0
 18 14  1  0
 17 15  1  0
 15 19  2  0
 17 20  1  0
 21 18  2  0
 19 21  1  0
 20 22  1  0
 21 23  1  0
 22 24  2  0
 22 25  1  0
  4 26  1  0
  4 27  1  0
  4 28  1  0
  5 29  1  0
  6 30  1  0
  7 31  1  0
  8 32  1  0
 10 33  1  0
 14 34  1  0
 16 35  1  0
 16 36  1  0
 16 37  1  0
 18 38  1  0
 19 39  1  0
 20 40  1  0
 20 41  1  0
 25 42  1  0
M  CHG  2   1   1   2  -1
M  END
> <ID>
HT1960

> <Class>
1.0

> <Clusters>
231

> <Fold>
1

$$$$