
     RDKit          3D

 32 33  0  0  0  0  0  0  0  0999 V2000
    1.4668    0.9632   -1.6046 N   0  0  0  0  0  0  0  0  0  0  0  0
    1.2971    0.2272   -0.3802 C   0  0  0  0  0  0  0  0  0  0  0  0
    2.2752    0.3011    0.6475 C   0  0  0  0  0  0  0  0  0  0  0  0
    3.5355    1.1278    0.5003 C   0  0  0  0  0  0  0  0  0  0  0  0
    4.5843    0.4438   -0.3348 C   0  0  0  0  0  0  0  0  0  0  0  0
    4.3988   -0.7170   -0.7900 O   0  0  0  0  0  0  0  0  0  0  0  0
    5.7834    1.0944   -0.6072 O   0  0  0  0  0  0  0  0  0  0  0  0
    2.0841   -0.4210    1.8371 C   0  0  0  0  0  0  0  0  0  0  0  0
    0.9355   -1.1840    2.0288 C   0  0  0  0  0  0  0  0  0  0  0  0
   -0.0335   -1.2522    1.0321 C   0  0  0  0  0  0  0  0  0  0  0  0
    0.1337   -0.5579   -0.1760 C   0  0  0  0  0  0  0  0  0  0  0  0
   -0.8904   -0.7245   -1.2327 C   0  0  0  0  0  0  0  0  0  0  0  0
   -0.5221   -1.1084   -2.3765 O   0  0  0  0  0  0  0  0  0  0  0  0
   -2.3330   -0.4849   -0.9716 C   0  0  0  0  0  0  0  0  0  0  0  0
   -2.7531    0.3062    0.1155 C   0  0  0  0  0  0  0  0  0  0  0  0
   -4.1139    0.5305    0.3451 C   0  0  0  0  0  0  0  0  0  0  0  0
   -5.0708   -0.0250   -0.5083 C   0  0  0  0  0  0  0  0  0  0  0  0
   -6.9288    0.2840   -0.1921 Br  0  0  0  0  0  0  0  0  0  0  0  0
   -4.6659   -0.8031   -1.5960 C   0  0  0  0  0  0  0  0  0  0  0  0
   -3.3062   -1.0299   -1.8299 C   0  0  0  0  0  0  0  0  0  0  0  0
    0.6672    1.1400   -2.2509 H   0  0  0  0  0  0  0  0  0  0  0  0
    2.3878    1.3602   -1.8897 H   0  0  0  0  0  0  0  0  0  0  0  0
    3.2911    2.1151    0.0555 H   0  0  0  0  0  0  0  0  0  0  0  0
    3.9749    1.3441    1.4980 H   0  0  0  0  0  0  0  0  0  0  0  0
    5.9639    2.0267   -0.2541 H   0  0  0  0  0  0  0  0  0  0  0  0
    2.8263   -0.3885    2.6254 H   0  0  0  0  0  0  0  0  0  0  0  0
    0.7992   -1.7320    2.9523 H   0  0  0  0  0  0  0  0  0  0  0  0
   -0.9106   -1.8673    1.1943 H   0  0  0  0  0  0  0  0  0  0  0  0
   -2.0327    0.7635    0.7813 H   0  0  0  0  0  0  0  0  0  0  0  0
   -4.4231    1.1401    1.1844 H   0  0  0  0  0  0  0  0  0  0  0  0
   -5.4039   -1.2330   -2.2611 H   0  0  0  0  0  0  0  0  0  0  0  0
   -3.0169   -1.6393   -2.6771 H   0  0  0  0  0  0  0  0  0  0  0  0
  1  2  1  0
  2  3  2  0
  3  4  1  0
  4  5  1  0
  5  6  2  0
  5  7  1  0
  3  8  1  0
  8  9  2  0
  9 10  1  0
 10 11  2  0
 11  2  1  0
 11 12  1  0
 12 13  2  0
 12 14  1  0
 14 15  2  0
 15 16  1  0
 16 17  2  0
 17 18  1  0
 17 19  1  0
 19 20  2  0
 20 14  1  0
  1 21  1  0
  1 22  1  0
  4 23  1  0
  4 24  1  0
  7 25  1  0
  8 26  1  0
  9 27  1  0
 10 28  1  0
 15 29  1  0
 16 30  1  0
 19 31  1  0
 20 32  1  0
M  END
> <ID>
HT0307

> <Class>
1.0

> <Clusters>
231

> <Fold>
1

$$$$