
     RDKit          3D

 75 78  0  0  0  0  0  0  0  0999 V2000
   -2.0397   -2.9360   -2.0980 O   0  0  0  0  0  0  0  0  0  0  0  0
   -2.0871   -2.0625   -1.1920 C   0  0  0  0  0  0  0  0  0  0  0  0
   -0.8339   -1.7060   -0.4382 C   0  0  0  0  0  0  0  0  0  0  0  0
   -3.3037   -1.4106   -0.9440 O   0  0  0  0  0  0  0  0  0  0  0  0
   -3.6322   -0.6589    0.2380 C   0  0  2  0  0  0  0  0  0  0  0  0
   -4.5346   -1.5326    1.1698 C   0  0  0  0  0  0  0  0  0  0  0  0
   -4.4439    0.5721   -0.2556 C   0  0  0  0  0  0  0  0  0  0  0  0
   -2.3509   -0.1674    0.9833 C   0  0  0  0  0  0  0  0  0  0  0  0
   -4.0765   -2.9932    1.3727 C   0  0  0  0  0  0  0  0  0  0  0  0
   -4.9696    1.4971    0.8600 C   0  0  0  0  0  0  0  0  0  0  0  0
   -1.2492   -1.1785    0.9062 C   0  0  0  0  0  0  0  0  0  0  0  0
   -4.7045   -3.9517    0.3597 C   0  0  0  0  0  0  0  0  0  0  0  0
   -5.6297    2.7179    0.2712 C   0  0  0  0  0  0  0  0  0  0  0  0
   -0.7083   -1.5829    1.9252 O   0  0  0  0  0  0  0  0  0  0  0  0
   -6.8640    2.6044   -0.3912 C   0  0  0  0  0  0  0  0  0  0  0  0
   -5.0200    3.9802    0.3763 C   0  0  0  0  0  0  0  0  0  0  0  0
   -7.4728    3.7340   -0.9468 C   0  0  0  0  0  0  0  0  0  0  0  0
   -5.6330    5.1078   -0.1792 C   0  0  0  0  0  0  0  0  0  0  0  0
   -6.8571    4.9844   -0.8423 C   0  0  0  0  0  0  0  0  0  0  0  0
    0.0133   -0.6469   -1.2117 C   0  0  2  0  0  0  0  0  0  0  0  0
    0.4346   -1.0707   -2.6447 C   0  0  0  0  0  0  0  0  0  0  0  0
    1.2125   -0.1537   -0.4088 C   0  0  0  0  0  0  0  0  0  0  0  0
    1.2805   -2.3421   -2.7384 C   0  0  0  0  0  0  0  0  0  0  0  0
    1.4113    1.2259   -0.2309 C   0  0  0  0  0  0  0  0  0  0  0  0
    2.1288   -1.0507    0.1742 C   0  0  0  0  0  0  0  0  0  0  0  0
    2.5051    1.6964    0.4970 C   0  0  0  0  0  0  0  0  0  0  0  0
    3.2380   -0.5862    0.8995 C   0  0  0  0  0  0  0  0  0  0  0  0
    3.4164    0.8004    1.0579 C   0  0  0  0  0  0  0  0  0  0  0  0
    4.1582   -1.5439    1.4551 N   0  0  0  0  0  0  0  0  0  0  0  0
    5.6566   -1.1383    2.2327 S   0  0  0  0  0  0  0  0  0  0  0  0
    6.2777   -2.4057    2.7490 O   0  0  0  0  0  0  0  0  0  0  0  0
    5.3996   -0.2148    3.3904 O   0  0  0  0  0  0  0  0  0  0  0  0
    6.7608   -0.3933    1.0862 C   0  0  0  0  0  0  0  0  0  0  0  0
    8.1192   -0.2694    1.3949 C   0  0  0  0  0  0  0  0  0  0  0  0
    6.2947    0.0658   -0.1059 N   0  0  0  0  0  0  0  0  0  0  0  0
    8.9819    0.3173    0.4677 C   0  0  0  0  0  0  0  0  0  0  0  0
    7.1124    0.6461   -1.0239 C   0  0  0  0  0  0  0  0  0  0  0  0
    8.4895    0.7723   -0.7656 C   0  0  0  0  0  0  0  0  0  0  0  0
    9.4187    1.4404   -1.7473 C   0  0  0  0  0  0  0  0  0  0  0  0
   10.5882    0.7106   -1.8607 F   0  0  0  0  0  0  0  0  0  0  0  0
    9.7220    2.7107   -1.2956 F   0  0  0  0  0  0  0  0  0  0  0  0
    8.8430    1.5367   -3.0024 F   0  0  0  0  0  0  0  0  0  0  0  0
   -0.2421   -2.6329   -0.2832 H   0  0  0  0  0  0  0  0  0  0  0  0
   -5.5791   -1.5404    0.7855 H   0  0  0  0  0  0  0  0  0  0  0  0
   -4.5931   -1.0535    2.1711 H   0  0  0  0  0  0  0  0  0  0  0  0
   -5.3061    0.2136   -0.8609 H   0  0  0  0  0  0  0  0  0  0  0  0
   -3.8042    1.1675   -0.9454 H   0  0  0  0  0  0  0  0  0  0  0  0
   -2.5725    0.0701    2.0467 H   0  0  0  0  0  0  0  0  0  0  0  0
   -1.9708    0.7695    0.5222 H   0  0  0  0  0  0  0  0  0  0  0  0
   -2.9749   -3.0884    1.3384 H   0  0  0  0  0  0  0  0  0  0  0  0
   -4.3929   -3.3248    2.3862 H   0  0  0  0  0  0  0  0  0  0  0  0
   -4.1325    1.8053    1.5209 H   0  0  0  0  0  0  0  0  0  0  0  0
   -5.7122    0.9632    1.4901 H   0  0  0  0  0  0  0  0  0  0  0  0
   -4.4511   -3.6621   -0.6802 H   0  0  0  0  0  0  0  0  0  0  0  0
   -4.3245   -4.9799    0.5399 H   0  0  0  0  0  0  0  0  0  0  0  0
   -5.8099   -3.9608    0.4727 H   0  0  0  0  0  0  0  0  0  0  0  0
   -7.3534    1.6422   -0.4760 H   0  0  0  0  0  0  0  0  0  0  0  0
   -4.0687    4.0911    0.8808 H   0  0  0  0  0  0  0  0  0  0  0  0
   -8.4218    3.6400   -1.4582 H   0  0  0  0  0  0  0  0  0  0  0  0
   -5.1574    6.0770   -0.0978 H   0  0  0  0  0  0  0  0  0  0  0  0
   -7.3287    5.8576   -1.2742 H   0  0  0  0  0  0  0  0  0  0  0  0
   -0.6607    0.2245   -1.3755 H   0  0  0  0  0  0  0  0  0  0  0  0
   -0.4730   -1.2054   -3.2701 H   0  0  0  0  0  0  0  0  0  0  0  0
    1.0061   -0.2388   -3.1115 H   0  0  0  0  0  0  0  0  0  0  0  0
    1.4311   -2.5970   -3.8085 H   0  0  0  0  0  0  0  0  0  0  0  0
    2.2810   -2.1860   -2.2901 H   0  0  0  0  0  0  0  0  0  0  0  0
    0.7768   -3.2016   -2.2544 H   0  0  0  0  0  0  0  0  0  0  0  0
    0.7219    1.9420   -0.6607 H   0  0  0  0  0  0  0  0  0  0  0  0
    1.9863   -2.1172    0.0640 H   0  0  0  0  0  0  0  0  0  0  0  0
    2.6498    2.7619    0.6225 H   0  0  0  0  0  0  0  0  0  0  0  0
    4.2554    1.2018    1.6064 H   0  0  0  0  0  0  0  0  0  0  0  0
    3.9459   -2.5621    1.3566 H   0  0  0  0  0  0  0  0  0  0  0  0
    8.5050   -0.6240    2.3425 H   0  0  0  0  0  0  0  0  0  0  0  0
   10.0338    0.4175    0.7120 H   0  0  0  0  0  0  0  0  0  0  0  0
    6.6844    1.0056   -1.9509 H   0  0  0  0  0  0  0  0  0  0  0  0
  1  2  2  0
  2  3  1  0
  2  4  1  0
  4  5  1  0
  5  6  1  1
  5  7  1  0
  5  8  1  0
  9  6  1  0
  7 10  1  0
  8 11  1  0
 12  9  1  0
 10 13  1  0
 11 14  2  0
 11  3  1  0
 13 15  2  0
 16 13  1  0
 15 17  1  0
 18 16  2  0
 17 19  2  0
 19 18  1  0
  3 20  1  0
 20 21  1  0
 20 22  1  0
 21 23  1  0
 22 24  2  0
 25 22  1  0
 24 26  1  0
 27 25  2  0
 26 28  2  0
 28 27  1  0
 27 29  1  0
 29 30  1  0
 30 31  2  0
 30 32  2  0
 30 33  1  0
 33 34  2  0
 35 33  1  0
 34 36  1  0
 37 35  2  0
 36 38  2  0
 38 37  1  0
 38 39  1  0
 39 40  1  0
 39 41  1  0
 39 42  1  0
  3 43  1  0
  6 44  1  0
  6 45  1  0
  7 46  1  0
  7 47  1  0
  8 48  1  0
  8 49  1  0
  9 50  1  0
  9 51  1  0
 10 52  1  0
 10 53  1  0
 12 54  1  0
 12 55  1  0
 12 56  1  0
 15 57  1  0
 16 58  1  0
 17 59  1  0
 18 60  1  0
 19 61  1  0
 20 62  1  6
 21 63  1  0
 21 64  1  0
 23 65  1  0
 23 66  1  0
 23 67  1  0
 24 68  1  0
 25 69  1  0
 26 70  1  0
 28 71  1  0
 29 72  1  0
 34 73  1  0
 36 74  1  0
 37 75  1  0
M  END
> <ID>
HT2069

> <Class>
1.0

> <Clusters>
194

> <Fold>
1

$$$$