
     RDKit          3D

 50 52  0  0  0  0  0  0  0  0999 V2000
    6.4031    2.0161    1.0547 C   0  0  0  0  0  0  0  0  0  0  0  0
    5.8060    0.7504    0.7914 O   0  0  0  0  0  0  0  0  0  0  0  0
    4.4239    0.5298    0.6794 C   0  0  0  0  0  0  0  0  0  0  0  0
    3.4880    1.5693    0.8236 C   0  0  0  0  0  0  0  0  0  0  0  0
    2.1178    1.3104    0.6957 C   0  0  0  0  0  0  0  0  0  0  0  0
    1.1025    2.3990    0.8565 C   0  0  0  0  0  0  0  0  0  0  0  0
    0.0188    2.2809   -0.2296 C   0  0  0  0  0  0  0  0  0  0  0  0
   -0.4472    0.8884   -0.5086 N   0  0  0  0  0  0  0  0  0  0  0  0
   -1.9263    0.8290   -0.4962 C   0  0  0  0  0  0  0  0  0  0  0  0
   -2.4191   -0.5052   -1.0781 C   0  0  0  0  0  0  0  0  0  0  0  0
   -3.9649   -0.6106   -1.1355 C   0  0  0  0  0  0  0  0  0  0  0  0
   -4.6816   -0.4952    0.2422 C   0  0  0  0  0  0  0  0  0  0  0  0
   -5.3000    0.8981    0.4365 C   0  0  0  0  0  0  0  0  0  0  0  0
   -5.7732   -1.5650    0.3824 C   0  0  0  0  0  0  0  0  0  0  0  0
   -1.7551   -1.6366   -0.3356 C   0  0  0  0  0  0  0  0  0  0  0  0
   -2.3869   -2.6071    0.0563 O   0  0  0  0  0  0  0  0  0  0  0  0
   -0.2717   -1.5719   -0.1353 C   0  0  0  0  0  0  0  0  0  0  0  0
    0.1447   -0.1683    0.3631 C   0  0  0  0  0  0  0  0  0  0  0  0
    1.6575    0.0136    0.4448 C   0  0  0  0  0  0  0  0  0  0  0  0
    2.5959   -1.0295    0.3037 C   0  0  0  0  0  0  0  0  0  0  0  0
    3.9769   -0.7732    0.4169 C   0  0  0  0  0  0  0  0  0  0  0  0
    4.9377   -1.7883    0.2781 O   0  0  0  0  0  0  0  0  0  0  0  0
    4.6393   -3.1546    0.0099 C   0  0  0  0  0  0  0  0  0  0  0  0
    6.1480    2.7341    0.2469 H   0  0  0  0  0  0  0  0  0  0  0  0
    7.5053    1.8967    1.0888 H   0  0  0  0  0  0  0  0  0  0  0  0
    6.0571    2.4049    2.0357 H   0  0  0  0  0  0  0  0  0  0  0  0
    3.8159    2.5789    1.0313 H   0  0  0  0  0  0  0  0  0  0  0  0
    0.6344    2.3077    1.8605 H   0  0  0  0  0  0  0  0  0  0  0  0
    1.5759    3.4031    0.7903 H   0  0  0  0  0  0  0  0  0  0  0  0
    0.4330    2.6914   -1.1754 H   0  0  0  0  0  0  0  0  0  0  0  0
   -0.8166    2.9570    0.0646 H   0  0  0  0  0  0  0  0  0  0  0  0
   -2.2950    0.9667    0.5443 H   0  0  0  0  0  0  0  0  0  0  0  0
   -2.3432    1.6472   -1.1262 H   0  0  0  0  0  0  0  0  0  0  0  0
   -2.0546   -0.5567   -2.1285 H   0  0  0  0  0  0  0  0  0  0  0  0
   -4.2112   -1.5814   -1.6211 H   0  0  0  0  0  0  0  0  0  0  0  0
   -4.3482    0.1651   -1.8350 H   0  0  0  0  0  0  0  0  0  0  0  0
   -3.9566   -0.6636    1.0679 H   0  0  0  0  0  0  0  0  0  0  0  0
   -6.0962    1.0812   -0.3169 H   0  0  0  0  0  0  0  0  0  0  0  0
   -5.7444    0.9809    1.4513 H   0  0  0  0  0  0  0  0  0  0  0  0
   -4.5314    1.6907    0.3341 H   0  0  0  0  0  0  0  0  0  0  0  0
   -5.3254   -2.5793    0.3131 H   0  0  0  0  0  0  0  0  0  0  0  0
   -6.5360   -1.4532   -0.4181 H   0  0  0  0  0  0  0  0  0  0  0  0
   -6.2734   -1.4788    1.3708 H   0  0  0  0  0  0  0  0  0  0  0  0
    0.2169   -1.7905   -1.1096 H   0  0  0  0  0  0  0  0  0  0  0  0
    0.0320   -2.3417    0.6080 H   0  0  0  0  0  0  0  0  0  0  0  0
   -0.2520   -0.0499    1.3984 H   0  0  0  0  0  0  0  0  0  0  0  0
    2.2650   -2.0381    0.1159 H   0  0  0  0  0  0  0  0  0  0  0  0
    4.0214   -3.5788    0.8293 H   0  0  0  0  0  0  0  0  0  0  0  0
    5.5874   -3.7270   -0.0517 H   0  0  0  0  0  0  0  0  0  0  0  0
    4.1058   -3.2460   -0.9598 H   0  0  0  0  0  0  0  0  0  0  0  0
  1  2  1  0
  2  3  1  0
  3  4  2  0
  4  5  1  0
  5  6  1  0
  6  7  1  0
  7  8  1  0
  8  9  1  0
  9 10  1  0
 10 11  1  0
 11 12  1  0
 12 13  1  0
 12 14  1  0
 10 15  1  0
 15 16  2  0
 15 17  1  0
 17 18  1  0
 18  8  1  0
 18 19  1  0
 19  5  2  0
 19 20  1  0
 20 21  2  0
 21  3  1  0
 21 22  1  0
 22 23  1  0
  1 24  1  0
  1 25  1  0
  1 26  1  0
  4 27  1  0
  6 28  1  0
  6 29  1  0
  7 30  1  0
  7 31  1  0
  9 32  1  0
  9 33  1  0
 10 34  1  0
 11 35  1  0
 11 36  1  0
 12 37  1  0
 13 38  1  0
 13 39  1  0
 13 40  1  0
 14 41  1  0
 14 42  1  0
 14 43  1  0
 17 44  1  0
 17 45  1  0
 18 46  1  0
 20 47  1  0
 23 48  1  0
 23 49  1  0
 23 50  1  0
M  END
> <ID>
HT2023

> <Class>
1.0

> <Clusters>
242

> <Fold>
1

$$$$