
     RDKit          3D

 36 38  0  0  0  0  0  0  0  0999 V2000
    0.2216   -1.8366    1.1520 O   0  0  0  0  0  0  0  0  0  0  0  0
    1.0275   -0.9664    0.7165 C   0  0  0  0  0  0  0  0  0  0  0  0
    0.6442    0.5086    0.7881 C   0  0  0  0  0  0  0  0  0  0  0  0
    2.3649   -1.4100    0.2382 C   0  0  0  0  0  0  0  0  0  0  0  0
    2.7677   -2.7503    0.4038 C   0  0  0  0  0  0  0  0  0  0  0  0
    3.2510   -0.5091   -0.3793 C   0  0  0  0  0  0  0  0  0  0  0  0
    4.0285   -3.1724   -0.0276 C   0  0  0  0  0  0  0  0  0  0  0  0
    4.5154   -0.9369   -0.8061 C   0  0  0  0  0  0  0  0  0  0  0  0
    2.7635    1.1493   -0.6353 S   0  0  0  0  0  0  0  0  0  0  0  0
    4.9023   -2.2661   -0.6294 C   0  0  0  0  0  0  0  0  0  0  0  0
    1.0335    1.2311   -0.4470 N   0  0  0  0  0  0  0  0  0  0  0  0
    3.4499    2.0339    0.3690 O   0  0  0  0  0  0  0  0  0  0  0  0
    3.1328    1.5760   -2.0287 O   0  0  0  0  0  0  0  0  0  0  0  0
    0.6473    2.6529   -0.4009 C   0  0  0  0  0  0  0  0  0  0  0  0
   -0.8454    0.6373    1.0324 C   0  0  0  0  0  0  0  0  0  0  0  0
   -1.2496    1.1212    2.1242 O   0  0  0  0  0  0  0  0  0  0  0  0
   -1.7793    0.2121    0.0240 N   0  0  0  0  0  0  0  0  0  0  0  0
   -3.2090    0.3086    0.1464 C   0  0  0  0  0  0  0  0  0  0  0  0
   -4.0302   -0.1384   -0.8994 C   0  0  0  0  0  0  0  0  0  0  0  0
   -3.7823    0.8318    1.2674 N   0  0  0  0  0  0  0  0  0  0  0  0
   -5.4177   -0.0410   -0.7750 C   0  0  0  0  0  0  0  0  0  0  0  0
   -5.1309    0.9351    1.4074 C   0  0  0  0  0  0  0  0  0  0  0  0
   -5.9751    0.4989    0.3847 C   0  0  0  0  0  0  0  0  0  0  0  0
    1.1816    0.9443    1.6621 H   0  0  0  0  0  0  0  0  0  0  0  0
    2.1124   -3.4729    0.8736 H   0  0  0  0  0  0  0  0  0  0  0  0
    4.3290   -4.2034    0.1077 H   0  0  0  0  0  0  0  0  0  0  0  0
    5.1981   -0.2418   -1.2785 H   0  0  0  0  0  0  0  0  0  0  0  0
    5.8788   -2.5946   -0.9614 H   0  0  0  0  0  0  0  0  0  0  0  0
    0.9993    3.1392    0.5357 H   0  0  0  0  0  0  0  0  0  0  0  0
    1.0685    3.1982   -1.2728 H   0  0  0  0  0  0  0  0  0  0  0  0
   -0.4555    2.7559   -0.4726 H   0  0  0  0  0  0  0  0  0  0  0  0
   -1.3871   -0.1886   -0.8583 H   0  0  0  0  0  0  0  0  0  0  0  0
   -3.5996   -0.5574   -1.8001 H   0  0  0  0  0  0  0  0  0  0  0  0
   -6.0595   -0.3833   -1.5765 H   0  0  0  0  0  0  0  0  0  0  0  0
   -5.5472    1.3561    2.3127 H   0  0  0  0  0  0  0  0  0  0  0  0
   -7.0493    0.5785    0.4901 H   0  0  0  0  0  0  0  0  0  0  0  0
  1  2  2  0
  2  3  1  0
  2  4  1  0
  4  5  2  0
  6  4  1  0
  5  7  1  0
  8  6  2  0
  6  9  1  0
  7 10  2  0
 10  8  1  0
  9 11  1  0
  9 12  2  0
  9 13  2  0
 14 11  1  0
 11  3  1  0
  3 15  1  0
 15 16  2  0
 15 17  1  0
 17 18  1  0
 18 19  2  0
 20 18  1  0
 19 21  1  0
 22 20  2  0
 21 23  2  0
 23 22  1  0
  3 24  1  0
  5 25  1  0
  7 26  1  0
  8 27  1  0
 10 28  1  0
 14 29  1  0
 14 30  1  0
 14 31  1  0
 17 32  1  0
 19 33  1  0
 21 34  1  0
 22 35  1  0
 23 36  1  0
M  END
> <ID>
HT1696

> <Class>
1.0

> <Clusters>
200

> <Fold>
1

$$$$