
     RDKit          3D

 34 37  0  0  0  0  0  0  0  0999 V2000
    3.9423   -0.8615    0.0539 C   0  0  0  0  0  0  0  0  0  0  0  0
    2.8580    0.1229    0.4013 C   0  0  0  0  0  0  0  0  0  0  0  0
    3.1692    1.2381    1.1924 C   0  0  0  0  0  0  0  0  0  0  0  0
    2.1725    2.1555    1.5135 C   0  0  0  0  0  0  0  0  0  0  0  0
    0.9045    1.9621    1.0737 N   0  0  0  0  0  0  0  0  0  0  0  0
    0.5556    0.8839    0.3193 C   0  0  0  0  0  0  0  0  0  0  0  0
   -0.8021    0.7369   -0.1068 N   0  0  0  0  0  0  0  0  0  0  0  0
   -1.5460    1.9303   -0.5141 C   0  0  0  0  0  0  0  0  0  0  0  0
   -1.0521    2.5422   -1.8149 C   0  0  0  0  0  0  0  0  0  0  0  0
   -2.3451    1.7433   -1.7935 C   0  0  0  0  0  0  0  0  0  0  0  0
   -1.5280   -0.4079    0.3559 C   0  0  0  0  0  0  0  0  0  0  0  0
   -2.6615   -0.2196    1.0896 N   0  0  0  0  0  0  0  0  0  0  0  0
   -3.3958   -1.2546    1.5708 C   0  0  0  0  0  0  0  0  0  0  0  0
   -3.0000   -2.5644    1.3163 C   0  0  0  0  0  0  0  0  0  0  0  0
   -1.8542   -2.7945    0.5563 C   0  0  0  0  0  0  0  0  0  0  0  0
   -1.0942   -1.7181    0.0641 C   0  0  0  0  0  0  0  0  0  0  0  0
    0.0556   -1.9971   -0.8318 C   0  0  0  0  0  0  0  0  0  0  0  0
    0.0327   -3.0484   -1.5283 O   0  0  0  0  0  0  0  0  0  0  0  0
    1.2040   -1.1410   -0.9385 N   0  0  0  0  0  0  0  0  0  0  0  0
    1.5275   -0.0655   -0.0409 C   0  0  0  0  0  0  0  0  0  0  0  0
    4.8991   -0.6132    0.5608 H   0  0  0  0  0  0  0  0  0  0  0  0
    4.1243   -0.8527   -1.0409 H   0  0  0  0  0  0  0  0  0  0  0  0
    3.6393   -1.8817    0.3710 H   0  0  0  0  0  0  0  0  0  0  0  0
    4.1778    1.4040    1.5503 H   0  0  0  0  0  0  0  0  0  0  0  0
    2.4066    3.0238    2.1148 H   0  0  0  0  0  0  0  0  0  0  0  0
   -1.9543    2.6121    0.2621 H   0  0  0  0  0  0  0  0  0  0  0  0
   -1.1993    3.6401   -1.8889 H   0  0  0  0  0  0  0  0  0  0  0  0
   -0.2042    2.0157   -2.3037 H   0  0  0  0  0  0  0  0  0  0  0  0
   -3.2628    2.3652   -1.8547 H   0  0  0  0  0  0  0  0  0  0  0  0
   -2.2651    0.7422   -2.2695 H   0  0  0  0  0  0  0  0  0  0  0  0
   -4.2872   -1.0587    2.1515 H   0  0  0  0  0  0  0  0  0  0  0  0
   -3.5816   -3.3948    1.6952 H   0  0  0  0  0  0  0  0  0  0  0  0
   -1.5631   -3.8170    0.3491 H   0  0  0  0  0  0  0  0  0  0  0  0
    1.9276   -1.4278   -1.6350 H   0  0  0  0  0  0  0  0  0  0  0  0
  1  2  1  0
  2  3  2  0
  3  4  1  0
  4  5  2  0
  5  6  1  0
  6  7  1  0
  7  8  1  0
  8  9  1  0
  9 10  1  0
 10  8  1  0
  7 11  1  0
 11 12  2  0
 12 13  1  0
 13 14  2  0
 14 15  1  0
 15 16  2  0
 16 11  1  0
 16 17  1  0
 17 18  2  0
 17 19  1  0
 19 20  1  0
 20  2  1  0
 20  6  2  0
  1 21  1  0
  1 22  1  0
  1 23  1  0
  3 24  1  0
  4 25  1  0
  8 26  1  0
  9 27  1  0
  9 28  1  0
 10 29  1  0
 10 30  1  0
 13 31  1  0
 14 32  1  0
 15 33  1  0
 19 34  1  0
M  END
> <ID>
HT1479

> <Class>
1.0

> <Clusters>
226

> <Fold>
1

$$$$