
     RDKit          3D

 43 45  0  0  0  0  0  0  0  0999 V2000
   -3.3456   -1.4159   -1.6217 C   0  0  0  0  0  0  0  0  0  0  0  0
   -3.3696   -0.1199   -0.8068 C   0  0  0  0  0  0  0  0  0  0  0  0
   -4.8184    0.3115   -0.5532 C   0  0  0  0  0  0  0  0  0  0  0  0
   -2.7100    0.8881   -1.5417 O   0  0  0  0  0  0  0  0  0  0  0  0
   -1.8404    1.5037   -0.6457 C   0  0  2  0  0  0  0  0  0  0  0  0
   -0.5127    1.8384   -1.3298 C   0  0  0  0  0  0  0  0  0  0  0  0
    0.5215    1.9397   -0.3693 O   0  0  0  0  0  0  0  0  0  0  0  0
    0.8734    0.6673    0.1680 C   0  0  1  0  0  0  0  0  0  0  0  0
    1.8869   -0.0369   -0.7647 C   0  0  0  0  0  0  0  0  0  0  0  0
    2.9936    0.8087   -0.9746 O   0  0  0  0  0  0  0  0  0  0  0  0
    4.1090    0.0062   -1.9667 S   0  0  0  0  0  0  0  0  0  0  0  0
    3.4822   -0.3273   -3.2923 O   0  0  0  0  0  0  0  0  0  0  0  0
    4.5859   -1.2553   -1.3008 O   0  0  0  0  0  0  0  0  0  0  0  0
    5.4612    1.0487   -2.2342 N   0  0  0  0  0  0  0  0  0  0  0  0
    1.5023    0.8771    1.3991 O   0  0  0  0  0  0  0  0  0  0  0  0
    0.9534   -0.0489    2.3141 C   0  0  0  0  0  0  0  0  0  0  0  0
    2.0494   -1.0208    2.7681 C   0  0  0  0  0  0  0  0  0  0  0  0
    0.4226    0.7177    3.5319 C   0  0  0  0  0  0  0  0  0  0  0  0
   -0.0988   -0.7893    1.7327 O   0  0  0  0  0  0  0  0  0  0  0  0
   -0.3345   -0.2263    0.4782 C   0  0  1  0  0  0  0  0  0  0  0  0
   -1.6718    0.5481    0.5108 C   0  0  2  0  0  0  0  0  0  0  0  0
   -2.7362   -0.3509    0.4349 O   0  0  0  0  0  0  0  0  0  0  0  0
   -3.8521   -2.2341   -1.0659 H   0  0  0  0  0  0  0  0  0  0  0  0
   -2.2959   -1.7205   -1.8184 H   0  0  0  0  0  0  0  0  0  0  0  0
   -3.8571   -1.2712   -2.5975 H   0  0  0  0  0  0  0  0  0  0  0  0
   -5.3647   -0.4744    0.0113 H   0  0  0  0  0  0  0  0  0  0  0  0
   -4.8352    1.2486    0.0432 H   0  0  0  0  0  0  0  0  0  0  0  0
   -5.3429    0.4966   -1.5151 H   0  0  0  0  0  0  0  0  0  0  0  0
   -2.3099    2.4459   -0.2816 H   0  0  0  0  0  0  0  0  0  0  0  0
   -0.2757    1.0926   -2.1187 H   0  0  0  0  0  0  0  0  0  0  0  0
   -0.6120    2.8165   -1.8462 H   0  0  0  0  0  0  0  0  0  0  0  0
    1.4035   -0.2897   -1.7323 H   0  0  0  0  0  0  0  0  0  0  0  0
    2.2109   -0.9892   -0.2924 H   0  0  0  0  0  0  0  0  0  0  0  0
    6.1671    0.5018   -2.7765 H   0  0  0  0  0  0  0  0  0  0  0  0
    5.8840    1.2445   -1.2993 H   0  0  0  0  0  0  0  0  0  0  0  0
    1.6555   -1.7159    3.5405 H   0  0  0  0  0  0  0  0  0  0  0  0
    2.4109   -1.6280    1.9137 H   0  0  0  0  0  0  0  0  0  0  0  0
    2.9118   -0.4630    3.1921 H   0  0  0  0  0  0  0  0  0  0  0  0
   -0.3113    1.4873    3.2179 H   0  0  0  0  0  0  0  0  0  0  0  0
   -0.0745    0.0225    4.2420 H   0  0  0  0  0  0  0  0  0  0  0  0
    1.2539    1.2352    4.0574 H   0  0  0  0  0  0  0  0  0  0  0  0
   -0.4167   -1.0449   -0.2713 H   0  0  0  0  0  0  0  0  0  0  0  0
   -1.7530    1.1173    1.4608 H   0  0  0  0  0  0  0  0  0  0  0  0
  1  2  1  0
  2  3  1  0
  2  4  1  0
  5  4  1  0
  5  6  1  0
  6  7  1  0
  7  8  1  0
  8  9  1  6
  9 10  1  0
 10 11  1  0
 11 12  2  0
 11 13  2  0
 11 14  1  0
  8 15  1  0
 15 16  1  0
 16 17  1  0
 16 18  1  0
 16 19  1  0
 20 19  1  0
 20  8  1  0
 20 21  1  0
 21  5  1  0
 21 22  1  0
 22  2  1  0
  1 23  1  0
  1 24  1  0
  1 25  1  0
  3 26  1  0
  3 27  1  0
  3 28  1  0
  5 29  1  1
  6 30  1  0
  6 31  1  0
  9 32  1  0
  9 33  1  0
 14 34  1  0
 14 35  1  0
 17 36  1  0
 17 37  1  0
 17 38  1  0
 18 39  1  0
 18 40  1  0
 18 41  1  0
 20 42  1  6
 21 43  1  1
M  END
> <ID>
HT2090

> <Class>
1.0

> <Clusters>
234

> <Fold>
1

$$$$