
     RDKit          3D

 51 54  0  0  0  0  0  0  0  0999 V2000
   -6.2281    0.4905   -0.6447 C   0  0  0  0  0  0  0  0  0  0  0  0
   -4.8084    0.5810   -0.2661 N   0  0  0  0  0  0  0  0  0  0  0  0
   -4.6771    1.3201    1.0080 C   0  0  0  0  0  0  0  0  0  0  0  0
   -3.2192    1.4964    1.4833 C   0  0  0  0  0  0  0  0  0  0  0  0
   -2.2627    0.3771    1.0323 C   0  0  0  0  0  0  0  0  0  0  0  0
   -1.6935    0.6255   -0.3871 C   0  0  0  0  0  0  0  0  0  0  0  0
   -2.7098    0.3717   -1.5208 C   0  0  0  0  0  0  0  0  0  0  0  0
   -4.0041    1.1741   -1.3568 C   0  0  0  0  0  0  0  0  0  0  0  0
   -0.4568   -0.1539   -0.6073 N   0  0  0  0  0  0  0  0  0  0  0  0
    0.6599    0.5372   -0.8495 N   0  0  0  0  0  0  0  0  0  0  0  0
    1.8684   -0.0426   -1.0673 C   0  0  0  0  0  0  0  0  0  0  0  0
    3.0514    0.8696   -1.2829 C   0  0  0  0  0  0  0  0  0  0  0  0
    3.8755    0.9971   -0.0262 C   0  0  0  0  0  0  0  0  0  0  0  0
    5.2316    0.6282   -0.0202 C   0  0  0  0  0  0  0  0  0  0  0  0
    5.9926    0.7555    1.1460 C   0  0  0  0  0  0  0  0  0  0  0  0
    5.4098    1.2589    2.3134 C   0  0  0  0  0  0  0  0  0  0  0  0
    6.3666    1.4179    3.7752 Cl  0  0  0  0  0  0  0  0  0  0  0  0
    4.0646    1.6404    2.3125 C   0  0  0  0  0  0  0  0  0  0  0  0
    3.3011    1.5156    1.1480 C   0  0  0  0  0  0  0  0  0  0  0  0
    1.9679   -1.4492   -1.0298 C   0  0  0  0  0  0  0  0  0  0  0  0
    3.1871   -2.1295   -1.2363 C   0  0  0  0  0  0  0  0  0  0  0  0
    3.2384   -3.5236   -1.1882 C   0  0  0  0  0  0  0  0  0  0  0  0
    2.0829   -4.2601   -0.9354 C   0  0  0  0  0  0  0  0  0  0  0  0
    0.8677   -3.6068   -0.7282 C   0  0  0  0  0  0  0  0  0  0  0  0
    0.7966   -2.1997   -0.7723 C   0  0  0  0  0  0  0  0  0  0  0  0
   -0.4193   -1.5256   -0.5593 C   0  0  0  0  0  0  0  0  0  0  0  0
   -1.4675   -2.1872   -0.3197 O   0  0  0  0  0  0  0  0  0  0  0  0
   -6.6445    1.4959   -0.8775 H   0  0  0  0  0  0  0  0  0  0  0  0
   -6.3434   -0.1671   -1.5331 H   0  0  0  0  0  0  0  0  0  0  0  0
   -6.8202    0.0318    0.1765 H   0  0  0  0  0  0  0  0  0  0  0  0
   -5.2204    0.7585    1.8007 H   0  0  0  0  0  0  0  0  0  0  0  0
   -5.1530    2.3242    0.9295 H   0  0  0  0  0  0  0  0  0  0  0  0
   -3.2225    1.5304    2.5950 H   0  0  0  0  0  0  0  0  0  0  0  0
   -2.8375    2.4869    1.1532 H   0  0  0  0  0  0  0  0  0  0  0  0
   -2.7727   -0.6069    1.1026 H   0  0  0  0  0  0  0  0  0  0  0  0
   -1.4092    0.3563    1.7455 H   0  0  0  0  0  0  0  0  0  0  0  0
   -1.4245    1.7057   -0.4494 H   0  0  0  0  0  0  0  0  0  0  0  0
   -2.9690   -0.7048   -1.5940 H   0  0  0  0  0  0  0  0  0  0  0  0
   -2.2351    0.6605   -2.4843 H   0  0  0  0  0  0  0  0  0  0  0  0
   -4.5401    1.1230   -2.3325 H   0  0  0  0  0  0  0  0  0  0  0  0
   -3.7837    2.2514   -1.1809 H   0  0  0  0  0  0  0  0  0  0  0  0
    2.6912    1.8823   -1.5677 H   0  0  0  0  0  0  0  0  0  0  0  0
    3.6590    0.5116   -2.1414 H   0  0  0  0  0  0  0  0  0  0  0  0
    5.7020    0.2429   -0.9164 H   0  0  0  0  0  0  0  0  0  0  0  0
    7.0353    0.4643    1.1405 H   0  0  0  0  0  0  0  0  0  0  0  0
    3.6102    2.0360    3.2120 H   0  0  0  0  0  0  0  0  0  0  0  0
    2.2622    1.8211    1.1617 H   0  0  0  0  0  0  0  0  0  0  0  0
    4.1062   -1.6007   -1.4375 H   0  0  0  0  0  0  0  0  0  0  0  0
    4.1788   -4.0352   -1.3486 H   0  0  0  0  0  0  0  0  0  0  0  0
    2.1287   -5.3409   -0.8997 H   0  0  0  0  0  0  0  0  0  0  0  0
   -0.0136   -4.2055   -0.5332 H   0  0  0  0  0  0  0  0  0  0  0  0
  1  2  1  0
  2  3  1  0
  3  4  1  0
  4  5  1  0
  5  6  1  0
  6  7  1  0
  7  8  1  0
  8  2  1  0
  6  9  1  0
  9 10  1  0
 10 11  2  0
 11 12  1  0
 12 13  1  0
 13 14  2  0
 14 15  1  0
 15 16  2  0
 16 17  1  0
 16 18  1  0
 18 19  2  0
 19 13  1  0
 11 20  1  0
 20 21  2  0
 21 22  1  0
 22 23  2  0
 23 24  1  0
 24 25  2  0
 25 20  1  0
 25 26  1  0
 26  9  1  0
 26 27  2  0
  1 28  1  0
  1 29  1  0
  1 30  1  0
  3 31  1  0
  3 32  1  0
  4 33  1  0
  4 34  1  0
  5 35  1  0
  5 36  1  0
  6 37  1  0
  7 38  1  0
  7 39  1  0
  8 40  1  0
  8 41  1  0
 12 42  1  0
 12 43  1  0
 14 44  1  0
 15 45  1  0
 18 46  1  0
 19 47  1  0
 21 48  1  0
 22 49  1  0
 23 50  1  0
 24 51  1  0
M  END
> <ID>
HT0215

> <Class>
1.0

> <Clusters>
50

> <Fold>
1

$$$$