
     RDKit          3D

 61 65  0  0  0  0  0  0  0  0999 V2000
   -6.2826   -4.6187    2.2944 O   0  0  0  0  0  0  0  0  0  0  0  0
   -5.8728   -3.3988    1.7579 C   0  0  0  0  0  0  0  0  0  0  0  0
   -5.5480   -2.3398    2.6133 C   0  0  0  0  0  0  0  0  0  0  0  0
   -5.1682   -1.1032    2.0843 C   0  0  0  0  0  0  0  0  0  0  0  0
   -5.0733   -0.9236    0.6962 C   0  0  0  0  0  0  0  0  0  0  0  0
   -5.3953   -1.9885   -0.1579 C   0  0  0  0  0  0  0  0  0  0  0  0
   -5.7929   -3.2205    0.3716 C   0  0  0  0  0  0  0  0  0  0  0  0
   -4.6563    0.3825    0.1482 C   0  0  0  0  0  0  0  0  0  0  0  0
   -5.3017    1.8686    0.6389 S   0  0  0  0  0  0  0  0  0  0  0  0
   -4.3160    2.8028   -0.3482 C   0  0  0  0  0  0  0  0  0  0  0  0
   -4.2862    4.1912   -0.4623 C   0  0  0  0  0  0  0  0  0  0  0  0
   -3.3495    4.7680   -1.3413 C   0  0  0  0  0  0  0  0  0  0  0  0
   -3.2788    6.1527   -1.4882 O   0  0  0  0  0  0  0  0  0  0  0  0
   -2.4715    3.9448   -2.0750 C   0  0  0  0  0  0  0  0  0  0  0  0
   -2.5177    2.5457   -1.9404 C   0  0  0  0  0  0  0  0  0  0  0  0
   -3.4563    1.9813   -1.0640 C   0  0  0  0  0  0  0  0  0  0  0  0
   -3.6396    0.6141   -0.7961 C   0  0  0  0  0  0  0  0  0  0  0  0
   -2.7580   -0.4369   -1.3413 C   0  0  0  0  0  0  0  0  0  0  0  0
   -3.1482   -1.0898   -2.3460 O   0  0  0  0  0  0  0  0  0  0  0  0
   -1.4160   -0.6964   -0.7552 C   0  0  0  0  0  0  0  0  0  0  0  0
   -1.0143   -0.0808    0.4466 C   0  0  0  0  0  0  0  0  0  0  0  0
    0.2577   -0.3216    0.9802 C   0  0  0  0  0  0  0  0  0  0  0  0
    1.1568   -1.1720    0.3265 C   0  0  0  0  0  0  0  0  0  0  0  0
    2.4272   -1.3629    0.8991 O   0  0  0  0  0  0  0  0  0  0  0  0
    3.4848   -2.1366    0.3276 C   0  0  0  0  0  0  0  0  0  0  0  0
    4.1615   -1.3765   -0.8367 C   0  0  0  0  0  0  0  0  0  0  0  0
    5.1474   -0.3433   -0.4176 N   0  0  0  0  0  0  0  0  0  0  0  0
    6.4449   -0.9167    0.0031 C   0  0  0  0  0  0  0  0  0  0  0  0
    7.4818    0.2027    0.1869 C   0  0  0  0  0  0  0  0  0  0  0  0
    6.9728    1.2514    1.1853 C   0  0  0  0  0  0  0  0  0  0  0  0
    5.5957    1.7794    0.7611 C   0  0  0  0  0  0  0  0  0  0  0  0
    4.6159    0.6143    0.5800 C   0  0  0  0  0  0  0  0  0  0  0  0
    0.7559   -1.8001   -0.8707 C   0  0  0  0  0  0  0  0  0  0  0  0
   -0.5180   -1.5675   -1.4008 C   0  0  0  0  0  0  0  0  0  0  0  0
   -6.5871   -5.3775    1.6959 H   0  0  0  0  0  0  0  0  0  0  0  0
   -5.6135   -2.4706    3.6837 H   0  0  0  0  0  0  0  0  0  0  0  0
   -4.9325   -0.2891    2.7551 H   0  0  0  0  0  0  0  0  0  0  0  0
   -5.3686   -1.8599   -1.2329 H   0  0  0  0  0  0  0  0  0  0  0  0
   -6.0506   -4.0306   -0.3002 H   0  0  0  0  0  0  0  0  0  0  0  0
   -4.9673    4.8059    0.1136 H   0  0  0  0  0  0  0  0  0  0  0  0
   -3.8663    6.7764   -0.9564 H   0  0  0  0  0  0  0  0  0  0  0  0
   -1.7519    4.3957   -2.7477 H   0  0  0  0  0  0  0  0  0  0  0  0
   -1.8337    1.9221   -2.5072 H   0  0  0  0  0  0  0  0  0  0  0  0
   -1.6826    0.5849    0.9808 H   0  0  0  0  0  0  0  0  0  0  0  0
    0.5496    0.1557    1.9094 H   0  0  0  0  0  0  0  0  0  0  0  0
    4.2204   -2.3743    1.1187 H   0  0  0  0  0  0  0  0  0  0  0  0
    3.0974   -3.1136   -0.0320 H   0  0  0  0  0  0  0  0  0  0  0  0
    4.6586   -2.1241   -1.5044 H   0  0  0  0  0  0  0  0  0  0  0  0
    3.3837   -0.8911   -1.4675 H   0  0  0  0  0  0  0  0  0  0  0  0
    6.8300   -1.6147   -0.7732 H   0  0  0  0  0  0  0  0  0  0  0  0
    6.3449   -1.4796    0.9568 H   0  0  0  0  0  0  0  0  0  0  0  0
    8.4361   -0.2343    0.5650 H   0  0  0  0  0  0  0  0  0  0  0  0
    7.6832    0.6909   -0.7896 H   0  0  0  0  0  0  0  0  0  0  0  0
    7.6927    2.1001    1.2376 H   0  0  0  0  0  0  0  0  0  0  0  0
    6.8977    0.7986    2.1983 H   0  0  0  0  0  0  0  0  0  0  0  0
    5.2066    2.4823    1.5317 H   0  0  0  0  0  0  0  0  0  0  0  0
    5.6868    2.3351   -0.1960 H   0  0  0  0  0  0  0  0  0  0  0  0
    4.4643    0.1175    1.5634 H   0  0  0  0  0  0  0  0  0  0  0  0
    3.6384    1.0226    0.2306 H   0  0  0  0  0  0  0  0  0  0  0  0
    1.4196   -2.4675   -1.4049 H   0  0  0  0  0  0  0  0  0  0  0  0
   -0.7969   -2.0661   -2.3232 H   0  0  0  0  0  0  0  0  0  0  0  0
  1  2  1  0
  2  3  2  0
  3  4  1  0
  4  5  2  0
  5  6  1  0
  6  7  2  0
  7  2  1  0
  5  8  1  0
  8  9  1  0
  9 10  1  0
 10 11  2  0
 11 12  1  0
 12 13  1  0
 12 14  2  0
 14 15  1  0
 15 16  2  0
 16 10  1  0
 16 17  1  0
 17  8  2  0
 17 18  1  0
 18 19  2  0
 18 20  1  0
 20 21  2  0
 21 22  1  0
 22 23  2  0
 23 24  1  0
 24 25  1  0
 25 26  1  0
 26 27  1  0
 27 28  1  0
 28 29  1  0
 29 30  1  0
 30 31  1  0
 31 32  1  0
 32 27  1  0
 23 33  1  0
 33 34  2  0
 34 20  1  0
  1 35  1  0
  3 36  1  0
  4 37  1  0
  6 38  1  0
  7 39  1  0
 11 40  1  0
 13 41  1  0
 14 42  1  0
 15 43  1  0
 21 44  1  0
 22 45  1  0
 25 46  1  0
 25 47  1  0
 26 48  1  0
 26 49  1  0
 28 50  1  0
 28 51  1  0
 29 52  1  0
 29 53  1  0
 30 54  1  0
 30 55  1  0
 31 56  1  0
 31 57  1  0
 32 58  1  0
 32 59  1  0
 33 60  1  0
 34 61  1  0
M  END
> <ID>
HT1794

> <Class>
1.0

> <Clusters>
29

> <Fold>
1

$$$$