
     RDKit          3D

 75 78  0  0  0  0  0  0  0  0999 V2000
    9.0480    1.0397   -2.8318 C   0  0  0  0  0  0  0  0  0  0  0  0
    7.8133    0.1678   -2.6035 C   0  0  0  0  0  0  0  0  0  0  0  0
    7.0838    0.4989   -1.2923 C   0  0  0  0  0  0  0  0  0  0  0  0
    7.8391   -0.0073   -0.0524 C   0  0  0  0  0  0  0  0  0  0  0  0
    7.1609    0.3991    1.2677 C   0  0  0  0  0  0  0  0  0  0  0  0
    5.7872   -0.2687    1.4895 C   0  0  0  0  0  0  0  0  0  0  0  0
    4.6221    0.6950    1.2019 C   0  0  0  0  0  0  0  0  0  0  0  0
    3.2471    0.0337    1.3856 C   0  0  0  0  0  0  0  0  0  0  0  0
    2.8997   -0.9295    0.2387 C   0  0  0  0  0  0  0  0  0  0  0  0
    1.5082   -1.4798    0.3541 C   0  0  0  0  0  0  0  0  0  0  0  0
    1.0945   -2.2801   -0.5275 O   0  0  0  0  0  0  0  0  0  0  0  0
    0.6867   -1.1214    1.4300 O   0  0  0  0  0  0  0  0  0  0  0  0
   -0.6903   -1.4907    1.5309 C   0  0  1  0  0  0  0  0  0  0  0  0
   -1.1736   -1.3731    2.9918 C   0  0  0  0  0  0  0  0  0  0  0  0
   -2.5985   -0.7947    2.9436 C   0  0  0  0  0  0  0  0  0  0  0  0
   -2.9570   -0.8238    1.4630 C   0  0  1  0  0  0  0  0  0  0  0  0
   -4.1098    0.0648    0.9516 C   0  0  2  0  0  0  0  0  0  0  0  0
   -5.4161   -0.1513    1.7712 C   0  0  0  0  0  0  0  0  0  0  0  0
   -6.7039   -0.2514    0.9347 C   0  0  0  0  0  0  0  0  0  0  0  0
   -6.6818    0.6155   -0.3015 C   0  0  0  0  0  0  0  0  0  0  0  0
   -7.8328    1.1235   -0.7713 C   0  0  0  0  0  0  0  0  0  0  0  0
   -7.9105    1.7127   -2.1193 C   0  0  0  0  0  0  0  0  0  0  0  0
   -8.9775    2.2661   -2.4949 O   0  0  0  0  0  0  0  0  0  0  0  0
   -6.7300    1.6677   -3.0492 C   0  0  0  0  0  0  0  0  0  0  0  0
   -5.7017    0.6151   -2.6057 C   0  0  0  0  0  0  0  0  0  0  0  0
   -5.3957    0.7706   -1.1001 C   0  0  2  0  0  0  0  0  0  0  0  0
   -4.3156   -0.2127   -0.5728 C   0  0  1  0  0  0  0  0  0  0  0  0
   -2.9847   -0.1238   -1.3789 C   0  0  0  0  0  0  0  0  0  0  0  0
   -1.8205   -0.9222   -0.7457 C   0  0  0  0  0  0  0  0  0  0  0  0
   -1.6300   -0.5535    0.7405 C   0  0  2  0  0  0  0  0  0  0  0  0
   -1.1212    0.9194    0.8660 C   0  0  0  0  0  0  0  0  0  0  0  0
    9.4511    0.8475   -3.8487 H   0  0  0  0  0  0  0  0  0  0  0  0
    9.8429    0.7998   -2.0959 H   0  0  0  0  0  0  0  0  0  0  0  0
    8.7845    2.1165   -2.7550 H   0  0  0  0  0  0  0  0  0  0  0  0
    7.1097    0.3376   -3.4475 H   0  0  0  0  0  0  0  0  0  0  0  0
    8.1046   -0.9050   -2.6206 H   0  0  0  0  0  0  0  0  0  0  0  0
    6.9168    1.5962   -1.2186 H   0  0  0  0  0  0  0  0  0  0  0  0
    6.0909    0.0030   -1.3332 H   0  0  0  0  0  0  0  0  0  0  0  0
    7.9364   -1.1144   -0.0974 H   0  0  0  0  0  0  0  0  0  0  0  0
    8.8642    0.4183   -0.0435 H   0  0  0  0  0  0  0  0  0  0  0  0
    7.8356    0.0851    2.0941 H   0  0  0  0  0  0  0  0  0  0  0  0
    7.0873    1.5075    1.3287 H   0  0  0  0  0  0  0  0  0  0  0  0
    5.7162   -0.5888    2.5522 H   0  0  0  0  0  0  0  0  0  0  0  0
    5.7042   -1.1859    0.8706 H   0  0  0  0  0  0  0  0  0  0  0  0
    4.6904    1.5485    1.9118 H   0  0  0  0  0  0  0  0  0  0  0  0
    4.6989    1.1160    0.1779 H   0  0  0  0  0  0  0  0  0  0  0  0
    2.4826    0.8414    1.4171 H   0  0  0  0  0  0  0  0  0  0  0  0
    3.2132   -0.5047    2.3584 H   0  0  0  0  0  0  0  0  0  0  0  0
    3.6069   -1.7845    0.2333 H   0  0  0  0  0  0  0  0  0  0  0  0
    2.9859   -0.3950   -0.7320 H   0  0  0  0  0  0  0  0  0  0  0  0
   -0.8247   -2.5481    1.2044 H   0  0  0  0  0  0  0  0  0  0  0  0
   -0.5136   -0.6953    3.5764 H   0  0  0  0  0  0  0  0  0  0  0  0
   -1.1728   -2.3732    3.4777 H   0  0  0  0  0  0  0  0  0  0  0  0
   -3.2971   -1.4164    3.5443 H   0  0  0  0  0  0  0  0  0  0  0  0
   -2.6141    0.2479    3.3304 H   0  0  0  0  0  0  0  0  0  0  0  0
   -3.2655   -1.8785    1.2523 H   0  0  0  0  0  0  0  0  0  0  0  0
   -3.8334    1.1319    1.0837 H   0  0  0  0  0  0  0  0  0  0  0  0
   -5.5254    0.6901    2.4911 H   0  0  0  0  0  0  0  0  0  0  0  0
   -5.3542   -1.0779    2.3821 H   0  0  0  0  0  0  0  0  0  0  0  0
   -7.5724   -0.0024    1.5836 H   0  0  0  0  0  0  0  0  0  0  0  0
   -6.8337   -1.3052    0.6053 H   0  0  0  0  0  0  0  0  0  0  0  0
   -8.7494    1.0175   -0.2031 H   0  0  0  0  0  0  0  0  0  0  0  0
   -7.0742    1.4315   -4.0790 H   0  0  0  0  0  0  0  0  0  0  0  0
   -6.2508    2.6705   -3.0639 H   0  0  0  0  0  0  0  0  0  0  0  0
   -4.7871    0.7677   -3.2144 H   0  0  0  0  0  0  0  0  0  0  0  0
   -6.0941   -0.4057   -2.8098 H   0  0  0  0  0  0  0  0  0  0  0  0
   -5.0244    1.8085   -0.9404 H   0  0  0  0  0  0  0  0  0  0  0  0
   -4.6941   -1.2537   -0.6959 H   0  0  0  0  0  0  0  0  0  0  0  0
   -3.1442   -0.5428   -2.3947 H   0  0  0  0  0  0  0  0  0  0  0  0
   -2.6892    0.9379   -1.5122 H   0  0  0  0  0  0  0  0  0  0  0  0
   -2.0349   -2.0094   -0.8464 H   0  0  0  0  0  0  0  0  0  0  0  0
   -0.8901   -0.7128   -1.3155 H   0  0  0  0  0  0  0  0  0  0  0  0
   -0.9474    1.2078    1.9231 H   0  0  0  0  0  0  0  0  0  0  0  0
   -1.8166    1.6603    0.4304 H   0  0  0  0  0  0  0  0  0  0  0  0
   -0.1581    1.0368    0.3252 H   0  0  0  0  0  0  0  0  0  0  0  0
  1  2  1  0
  2  3  1  0
  3  4  1  0
  4  5  1  0
  5  6  1  0
  6  7  1  0
  7  8  1  0
  8  9  1  0
  9 10  1  0
 10 11  2  0
 10 12  1  0
 13 12  1  0
 13 14  1  0
 14 15  1  0
 16 15  1  0
 16 17  1  0
 17 18  1  0
 18 19  1  0
 19 20  1  0
 20 21  2  0
 21 22  1  0
 22 23  2  0
 22 24  1  0
 24 25  1  0
 26 25  1  0
 26 20  1  0
 26 27  1  0
 27 17  1  0
 27 28  1  0
 28 29  1  0
 29 30  1  0
 30 13  1  0
 30 16  1  0
 30 31  1  6
  1 32  1  0
  1 33  1  0
  1 34  1  0
  2 35  1  0
  2 36  1  0
  3 37  1  0
  3 38  1  0
  4 39  1  0
  4 40  1  0
  5 41  1  0
  5 42  1  0
  6 43  1  0
  6 44  1  0
  7 45  1  0
  7 46  1  0
  8 47  1  0
  8 48  1  0
  9 49  1  0
  9 50  1  0
 13 51  1  6
 14 52  1  0
 14 53  1  0
 15 54  1  0
 15 55  1  0
 16 56  1  6
 17 57  1  6
 18 58  1  0
 18 59  1  0
 19 60  1  0
 19 61  1  0
 21 62  1  0
 24 63  1  0
 24 64  1  0
 25 65  1  0
 25 66  1  0
 26 67  1  6
 27 68  1  1
 28 69  1  0
 28 70  1  0
 29 71  1  0
 29 72  1  0
 31 73  1  0
 31 74  1  0
 31 75  1  0
M  END
> <ID>
HT1461

> <Class>
1.0

> <Clusters>
224

> <Fold>
1

$$$$