
     RDKit          3D

 33 34  0  0  0  0  0  0  0  0999 V2000
    5.9510    0.6430   -0.1544 C   0  0  0  0  0  0  0  0  0  0  0  0
    4.7943    0.7406    0.6702 O   0  0  0  0  0  0  0  0  0  0  0  0
    3.5190    0.2850    0.3039 C   0  0  0  0  0  0  0  0  0  0  0  0
    3.2644   -0.3231   -0.9404 C   0  0  0  0  0  0  0  0  0  0  0  0
    1.9776   -0.7622   -1.2635 C   0  0  0  0  0  0  0  0  0  0  0  0
    0.9261   -0.6020   -0.3502 C   0  0  0  0  0  0  0  0  0  0  0  0
   -0.3692   -1.0390   -0.6669 C   0  0  0  0  0  0  0  0  0  0  0  0
   -1.4174   -0.8788    0.2533 C   0  0  0  0  0  0  0  0  0  0  0  0
   -2.8143   -1.3185   -0.1064 C   0  0  0  0  0  0  0  0  0  0  0  0
   -3.5238   -0.2857   -0.9933 C   0  0  0  0  0  0  0  0  0  0  0  0
   -3.7403    1.0242   -0.2799 C   0  0  0  0  0  0  0  0  0  0  0  0
   -3.1398    2.0206   -0.6526 O   0  0  0  0  0  0  0  0  0  0  0  0
   -4.6929    1.1320    0.8732 C   0  0  0  0  0  0  0  0  0  0  0  0
   -1.1643   -0.2647    1.4900 C   0  0  0  0  0  0  0  0  0  0  0  0
    0.1223    0.1732    1.8136 C   0  0  0  0  0  0  0  0  0  0  0  0
    1.1744    0.0085    0.9011 C   0  0  0  0  0  0  0  0  0  0  0  0
    2.4696    0.4464    1.2165 C   0  0  0  0  0  0  0  0  0  0  0  0
    5.7959    1.2077   -1.0980 H   0  0  0  0  0  0  0  0  0  0  0  0
    6.1715   -0.4221   -0.3783 H   0  0  0  0  0  0  0  0  0  0  0  0
    6.8174    1.0799    0.3830 H   0  0  0  0  0  0  0  0  0  0  0  0
    4.0547   -0.4610   -1.6655 H   0  0  0  0  0  0  0  0  0  0  0  0
    1.8051   -1.2271   -2.2270 H   0  0  0  0  0  0  0  0  0  0  0  0
   -0.5665   -1.5010   -1.6277 H   0  0  0  0  0  0  0  0  0  0  0  0
   -2.7625   -2.2839   -0.6554 H   0  0  0  0  0  0  0  0  0  0  0  0
   -3.4119   -1.5098    0.8113 H   0  0  0  0  0  0  0  0  0  0  0  0
   -2.9246   -0.1213   -1.9163 H   0  0  0  0  0  0  0  0  0  0  0  0
   -4.5098   -0.6895   -1.3083 H   0  0  0  0  0  0  0  0  0  0  0  0
   -4.1381    1.4315    1.7868 H   0  0  0  0  0  0  0  0  0  0  0  0
   -5.2012    0.1634    1.0623 H   0  0  0  0  0  0  0  0  0  0  0  0
   -5.4644    1.8977    0.6479 H   0  0  0  0  0  0  0  0  0  0  0  0
   -1.9656   -0.1221    2.2044 H   0  0  0  0  0  0  0  0  0  0  0  0
    0.2938    0.6427    2.7749 H   0  0  0  0  0  0  0  0  0  0  0  0
    2.6695    0.9157    2.1729 H   0  0  0  0  0  0  0  0  0  0  0  0
  1  2  1  0
  2  3  1  0
  3  4  2  0
  4  5  1  0
  5  6  2  0
  6  7  1  0
  7  8  2  0
  8  9  1  0
  9 10  1  0
 10 11  1  0
 11 12  2  0
 11 13  1  0
  8 14  1  0
 14 15  2  0
 15 16  1  0
 16  6  1  0
 16 17  2  0
 17  3  1  0
  1 18  1  0
  1 19  1  0
  1 20  1  0
  4 21  1  0
  5 22  1  0
  7 23  1  0
  9 24  1  0
  9 25  1  0
 10 26  1  0
 10 27  1  0
 13 28  1  0
 13 29  1  0
 13 30  1  0
 14 31  1  0
 15 32  1  0
 17 33  1  0
M  END
> <ID>
HT1447

> <Class>
1.0

> <Clusters>
176

> <Fold>
1

$$$$