
     RDKit          3D

 44 45  0  0  0  0  0  0  0  0999 V2000
    6.4494   -0.3491    0.0718 C   0  0  0  0  0  0  0  0  0  0  0  0
    5.1224   -1.0261    0.4180 C   0  0  0  0  0  0  0  0  0  0  0  0
    5.0702   -2.4447   -0.1515 C   0  0  0  0  0  0  0  0  0  0  0  0
    4.0117   -0.2377   -0.1226 N   0  0  0  0  0  0  0  0  0  0  0  0
    2.9865    0.3435    0.6955 C   0  0  0  0  0  0  0  0  0  0  0  0
    3.0107    0.1980    1.9480 O   0  0  0  0  0  0  0  0  0  0  0  0
    1.9321    1.0923    0.0832 N   0  0  0  0  0  0  0  0  0  0  0  0
    0.6464    1.7880    1.0123 S   0  0  0  0  0  0  0  0  0  0  0  0
    0.0153    0.7386    1.8844 O   0  0  0  0  0  0  0  0  0  0  0  0
    1.1985    2.8819    1.8832 O   0  0  0  0  0  0  0  0  0  0  0  0
   -0.5756    2.4422   -0.0840 C   0  0  0  0  0  0  0  0  0  0  0  0
   -0.7112    3.8314   -0.2234 C   0  0  0  0  0  0  0  0  0  0  0  0
   -1.6570    4.3505   -1.0492 N   0  0  0  0  0  0  0  0  0  0  0  0
   -2.4939    3.5562   -1.7645 C   0  0  0  0  0  0  0  0  0  0  0  0
   -2.3956    2.1687   -1.6658 C   0  0  0  0  0  0  0  0  0  0  0  0
   -1.4371    1.5965   -0.8145 C   0  0  0  0  0  0  0  0  0  0  0  0
   -1.3022    0.1662   -0.7415 N   0  0  0  0  0  0  0  0  0  0  0  0
   -2.4151   -0.7433   -0.6811 C   0  0  0  0  0  0  0  0  0  0  0  0
   -2.2452   -2.0687   -1.1076 C   0  0  0  0  0  0  0  0  0  0  0  0
   -3.3033   -2.9777   -1.0306 C   0  0  0  0  0  0  0  0  0  0  0  0
   -4.5393   -2.5744   -0.5205 C   0  0  0  0  0  0  0  0  0  0  0  0
   -4.7270   -1.2534   -0.0877 C   0  0  0  0  0  0  0  0  0  0  0  0
   -6.0371   -0.8337    0.5104 C   0  0  0  0  0  0  0  0  0  0  0  0
   -3.6564   -0.3475   -0.1487 C   0  0  0  0  0  0  0  0  0  0  0  0
    7.2980   -0.9262    0.4974 H   0  0  0  0  0  0  0  0  0  0  0  0
    6.5769   -0.2775   -1.0298 H   0  0  0  0  0  0  0  0  0  0  0  0
    6.4717    0.6751    0.5012 H   0  0  0  0  0  0  0  0  0  0  0  0
    5.0526   -1.0982    1.5252 H   0  0  0  0  0  0  0  0  0  0  0  0
    5.8944   -3.0588    0.2703 H   0  0  0  0  0  0  0  0  0  0  0  0
    5.1632   -2.4259   -1.2587 H   0  0  0  0  0  0  0  0  0  0  0  0
    4.1041   -2.9221    0.1178 H   0  0  0  0  0  0  0  0  0  0  0  0
    3.9618   -0.0949   -1.1571 H   0  0  0  0  0  0  0  0  0  0  0  0
    1.9266    1.2244   -0.9525 H   0  0  0  0  0  0  0  0  0  0  0  0
   -0.0661    4.5058    0.3232 H   0  0  0  0  0  0  0  0  0  0  0  0
   -3.2316    4.0027   -2.4177 H   0  0  0  0  0  0  0  0  0  0  0  0
   -3.0513    1.5444   -2.2594 H   0  0  0  0  0  0  0  0  0  0  0  0
   -0.3395   -0.2389   -0.7660 H   0  0  0  0  0  0  0  0  0  0  0  0
   -1.2919   -2.3961   -1.5031 H   0  0  0  0  0  0  0  0  0  0  0  0
   -3.1633   -3.9984   -1.3626 H   0  0  0  0  0  0  0  0  0  0  0  0
   -5.3474   -3.2928   -0.4579 H   0  0  0  0  0  0  0  0  0  0  0  0
   -6.8743   -1.4169    0.0710 H   0  0  0  0  0  0  0  0  0  0  0  0
   -6.2292    0.2427    0.3143 H   0  0  0  0  0  0  0  0  0  0  0  0
   -6.0135   -1.0037    1.6070 H   0  0  0  0  0  0  0  0  0  0  0  0
   -3.7884    0.6575    0.2321 H   0  0  0  0  0  0  0  0  0  0  0  0
  1  2  1  0
  2  3  1  0
  2  4  1  0
  4  5  1  0
  5  6  2  0
  5  7  1  0
  7  8  1  0
  8  9  2  0
  8 10  2  0
  8 11  1  0
 11 12  2  0
 12 13  1  0
 13 14  2  0
 14 15  1  0
 15 16  2  0
 16 11  1  0
 16 17  1  0
 17 18  1  0
 18 19  2  0
 19 20  1  0
 20 21  2  0
 21 22  1  0
 22 23  1  0
 22 24  2  0
 24 18  1  0
  1 25  1  0
  1 26  1  0
  1 27  1  0
  2 28  1  0
  3 29  1  0
  3 30  1  0
  3 31  1  0
  4 32  1  0
  7 33  1  0
 12 34  1  0
 14 35  1  0
 15 36  1  0
 17 37  1  0
 19 38  1  0
 20 39  1  0
 21 40  1  0
 23 41  1  0
 23 42  1  0
 23 43  1  0
 24 44  1  0
M  END
> <ID>
HT2092

> <Class>
1.0

> <Clusters>
179

> <Fold>
1

$$$$