
     RDKit          3D

 39 41  0  0  0  0  0  0  0  0999 V2000
   -0.3829    3.4087    1.5511 C   0  0  0  0  0  0  0  0  0  0  0  0
   -1.3815    2.3213    1.8097 C   0  0  0  0  0  0  0  0  0  0  0  0
   -1.7648    2.1088    2.9504 O   0  0  0  0  0  0  0  0  0  0  0  0
   -1.9197    1.4922    0.6719 C   0  0  0  0  0  0  0  0  0  0  0  0
   -1.4486    0.0207    0.7690 C   0  0  0  0  0  0  0  0  0  0  0  0
    0.0731   -0.0770    0.6659 C   0  0  0  0  0  0  0  0  0  0  0  0
    0.8452   -0.4578    1.7847 C   0  0  0  0  0  0  0  0  0  0  0  0
    0.2338   -0.7592    2.9985 O   0  0  0  0  0  0  0  0  0  0  0  0
    2.1699   -0.5312    1.7011 O   0  0  0  0  0  0  0  0  0  0  0  0
    2.8409   -0.2582    0.5894 C   0  0  0  0  0  0  0  0  0  0  0  0
    4.2368   -0.3572    0.5822 C   0  0  0  0  0  0  0  0  0  0  0  0
    4.9549   -0.0723   -0.5822 C   0  0  0  0  0  0  0  0  0  0  0  0
    4.2818    0.3126   -1.7447 C   0  0  0  0  0  0  0  0  0  0  0  0
    2.8873    0.4146   -1.7489 C   0  0  0  0  0  0  0  0  0  0  0  0
    2.1546    0.1300   -0.5808 C   0  0  0  0  0  0  0  0  0  0  0  0
    0.7538    0.2181   -0.5357 C   0  0  0  0  0  0  0  0  0  0  0  0
    0.1099    0.5565   -1.5668 O   0  0  0  0  0  0  0  0  0  0  0  0
   -2.1092   -0.9281   -0.2248 C   0  0  0  0  0  0  0  0  0  0  0  0
   -2.8340   -0.4830   -1.3524 C   0  0  0  0  0  0  0  0  0  0  0  0
   -3.4084   -1.4037   -2.2344 C   0  0  0  0  0  0  0  0  0  0  0  0
   -3.2694   -2.7741   -2.0086 C   0  0  0  0  0  0  0  0  0  0  0  0
   -2.5540   -3.2289   -0.9001 C   0  0  0  0  0  0  0  0  0  0  0  0
   -1.9774   -2.3143   -0.0147 C   0  0  0  0  0  0  0  0  0  0  0  0
   -0.0956    3.9117    2.4990 H   0  0  0  0  0  0  0  0  0  0  0  0
    0.5274    2.9752    1.0862 H   0  0  0  0  0  0  0  0  0  0  0  0
   -0.8211    4.1620    0.8637 H   0  0  0  0  0  0  0  0  0  0  0  0
   -3.0301    1.5321    0.7117 H   0  0  0  0  0  0  0  0  0  0  0  0
   -1.6018    1.9434   -0.2916 H   0  0  0  0  0  0  0  0  0  0  0  0
   -1.7858   -0.3290    1.7693 H   0  0  0  0  0  0  0  0  0  0  0  0
    0.7856   -1.0301    3.8032 H   0  0  0  0  0  0  0  0  0  0  0  0
    4.7653   -0.6549    1.4792 H   0  0  0  0  0  0  0  0  0  0  0  0
    6.0344   -0.1499   -0.5837 H   0  0  0  0  0  0  0  0  0  0  0  0
    4.8419    0.5323   -2.6444 H   0  0  0  0  0  0  0  0  0  0  0  0
    2.3878    0.7149   -2.6618 H   0  0  0  0  0  0  0  0  0  0  0  0
   -2.9560    0.5685   -1.5680 H   0  0  0  0  0  0  0  0  0  0  0  0
   -3.9607   -1.0530   -3.0967 H   0  0  0  0  0  0  0  0  0  0  0  0
   -3.7148   -3.4837   -2.6939 H   0  0  0  0  0  0  0  0  0  0  0  0
   -2.4449   -4.2917   -0.7264 H   0  0  0  0  0  0  0  0  0  0  0  0
   -1.4238   -2.6865    0.8389 H   0  0  0  0  0  0  0  0  0  0  0  0
  1  2  1  0
  2  3  2  0
  2  4  1  0
  4  5  1  0
  5  6  1  0
  6  7  2  0
  7  8  1  0
  7  9  1  0
  9 10  1  0
 10 11  2  0
 11 12  1  0
 12 13  2  0
 13 14  1  0
 14 15  2  0
 15 10  1  0
 15 16  1  0
 16  6  1  0
 16 17  2  0
  5 18  1  0
 18 19  2  0
 19 20  1  0
 20 21  2  0
 21 22  1  0
 22 23  2  0
 23 18  1  0
  1 24  1  0
  1 25  1  0
  1 26  1  0
  4 27  1  0
  4 28  1  0
  5 29  1  0
  8 30  1  0
 11 31  1  0
 12 32  1  0
 13 33  1  0
 14 34  1  0
 19 35  1  0
 20 36  1  0
 21 37  1  0
 22 38  1  0
 23 39  1  0
M  END
> <ID>
HT2196

> <Class>
1.0

> <Clusters>
194

> <Fold>
1

$$$$