
     RDKit          3D

 28 29  0  0  0  0  0  0  0  0999 V2000
    4.1752    0.0310   -1.4026 N   0  0  0  0  0  0  0  0  0  0  0  0
    3.8475   -0.3200    0.2598 S   0  0  0  0  0  0  0  0  0  0  0  0
    4.2792   -1.7303    0.5505 O   0  0  0  0  0  0  0  0  0  0  0  0
    4.6277    0.6330    1.1207 O   0  0  0  0  0  0  0  0  0  0  0  0
    2.1233   -0.1459    0.6109 C   0  0  0  0  0  0  0  0  0  0  0  0
    1.2544    0.3189   -0.3876 C   0  0  0  0  0  0  0  0  0  0  0  0
   -0.1131    0.4621   -0.1284 C   0  0  0  0  0  0  0  0  0  0  0  0
   -0.6327    0.1381    1.1291 C   0  0  0  0  0  0  0  0  0  0  0  0
   -2.0380    0.2635    1.4037 N   0  0  0  0  0  0  0  0  0  0  0  0
   -3.0874    0.3490    0.3767 C   0  0  0  0  0  0  0  0  0  0  0  0
   -2.7648    1.3142   -0.6910 N   0  0  0  0  0  0  0  0  0  0  0  0
   -1.1810    1.0842   -1.3635 S   0  0  0  0  0  0  0  0  0  0  0  0
   -0.6593    2.4081   -1.8475 O   0  0  0  0  0  0  0  0  0  0  0  0
   -1.2551    0.1272   -2.5194 O   0  0  0  0  0  0  0  0  0  0  0  0
   -3.5091   -1.0446   -0.1487 C   0  0  0  0  0  0  0  0  0  0  0  0
   -4.6576   -0.9003   -1.5070 Cl  0  0  0  0  0  0  0  0  0  0  0  0
   -2.1594   -2.1088   -0.6342 Cl  0  0  0  0  0  0  0  0  0  0  0  0
    0.2350   -0.3075    2.1352 C   0  0  0  0  0  0  0  0  0  0  0  0
    1.6046   -0.4530    1.8855 C   0  0  0  0  0  0  0  0  0  0  0  0
    2.6335   -1.0183    3.1975 Cl  0  0  0  0  0  0  0  0  0  0  0  0
    3.7552   -0.7411   -1.9673 H   0  0  0  0  0  0  0  0  0  0  0  0
    5.2099   -0.0339   -1.5302 H   0  0  0  0  0  0  0  0  0  0  0  0
    1.6344    0.5787   -1.3665 H   0  0  0  0  0  0  0  0  0  0  0  0
   -2.3526    0.2090    2.3994 H   0  0  0  0  0  0  0  0  0  0  0  0
   -3.9985    0.7420    0.8837 H   0  0  0  0  0  0  0  0  0  0  0  0
   -2.7741    2.2707   -0.2670 H   0  0  0  0  0  0  0  0  0  0  0  0
   -4.0399   -1.5742    0.6712 H   0  0  0  0  0  0  0  0  0  0  0  0
   -0.1575   -0.5518    3.1147 H   0  0  0  0  0  0  0  0  0  0  0  0
  1  2  1  0
  2  3  2  0
  2  4  2  0
  2  5  1  0
  5  6  2  0
  6  7  1  0
  7  8  2  0
  8  9  1  0
  9 10  1  0
 10 11  1  0
 11 12  1  0
 12  7  1  0
 12 13  2  0
 12 14  2  0
 10 15  1  0
 15 16  1  0
 15 17  1  0
  8 18  1  0
 18 19  2  0
 19  5  1  0
 19 20  1  0
  1 21  1  0
  1 22  1  0
  6 23  1  0
  9 24  1  0
 10 25  1  0
 11 26  1  0
 15 27  1  0
 18 28  1  0
M  END
> <ID>
HT2112

> <Class>
1.0

> <Clusters>
40

> <Fold>
1

$$$$