
     RDKit          3D

 35 38  0  0  0  0  0  0  0  0999 V2000
   -3.9385    0.6131    1.1570 C   0  0  0  0  0  0  0  0  0  0  0  0
   -3.2810   -0.6562    0.7113 C   0  0  0  0  0  0  0  0  0  0  0  0
   -3.6840   -1.8716    1.1336 N   0  0  0  0  0  0  0  0  0  0  0  0
   -2.8261   -2.7586    0.6494 N   0  0  0  0  0  0  0  0  0  0  0  0
   -1.9172   -2.0674   -0.0633 C   0  0  0  0  0  0  0  0  0  0  0  0
   -0.7139   -2.6618   -0.7081 C   0  0  0  0  0  0  0  0  0  0  0  0
    0.4788   -2.0793   -0.1043 N   0  0  0  0  0  0  0  0  0  0  0  0
    0.8051   -0.8153   -0.1168 C   0  0  0  0  0  0  0  0  0  0  0  0
    2.0749   -0.4258    0.5402 C   0  0  0  0  0  0  0  0  0  0  0  0
    3.2466   -1.1440    0.2424 C   0  0  0  0  0  0  0  0  0  0  0  0
    4.4638   -0.7902    0.8294 C   0  0  0  0  0  0  0  0  0  0  0  0
    4.5241    0.2777    1.7256 C   0  0  0  0  0  0  0  0  0  0  0  0
    3.3658    0.9896    2.0439 C   0  0  0  0  0  0  0  0  0  0  0  0
    2.1395    0.6447    1.4620 C   0  0  0  0  0  0  0  0  0  0  0  0
    0.7039    1.5323    1.9669 Cl  0  0  0  0  0  0  0  0  0  0  0  0
   -0.0093    0.2184   -0.8320 C   0  0  0  0  0  0  0  0  0  0  0  0
    0.6657    1.2129   -1.5662 C   0  0  0  0  0  0  0  0  0  0  0  0
   -0.0412    2.2169   -2.2309 C   0  0  0  0  0  0  0  0  0  0  0  0
    0.8226    3.4427   -3.1410 Cl  0  0  0  0  0  0  0  0  0  0  0  0
   -1.4340    2.2385   -2.1810 C   0  0  0  0  0  0  0  0  0  0  0  0
   -2.1228    1.2641   -1.4594 C   0  0  0  0  0  0  0  0  0  0  0  0
   -1.4279    0.2623   -0.7592 C   0  0  0  0  0  0  0  0  0  0  0  0
   -2.1665   -0.7488   -0.0483 N   0  0  0  0  0  0  0  0  0  0  0  0
   -4.9078    0.7333    0.6306 H   0  0  0  0  0  0  0  0  0  0  0  0
   -3.2954    1.4944    0.9619 H   0  0  0  0  0  0  0  0  0  0  0  0
   -4.1239    0.5663    2.2503 H   0  0  0  0  0  0  0  0  0  0  0  0
   -0.7022   -3.7607   -0.5509 H   0  0  0  0  0  0  0  0  0  0  0  0
   -0.7269   -2.4580   -1.8003 H   0  0  0  0  0  0  0  0  0  0  0  0
    3.2208   -1.9696   -0.4584 H   0  0  0  0  0  0  0  0  0  0  0  0
    5.3619   -1.3438    0.5874 H   0  0  0  0  0  0  0  0  0  0  0  0
    5.4681    0.5494    2.1802 H   0  0  0  0  0  0  0  0  0  0  0  0
    3.4206    1.8058    2.7532 H   0  0  0  0  0  0  0  0  0  0  0  0
    1.7471    1.2051   -1.6305 H   0  0  0  0  0  0  0  0  0  0  0  0
   -1.9860    3.0051   -2.7097 H   0  0  0  0  0  0  0  0  0  0  0  0
   -3.2047    1.2787   -1.4653 H   0  0  0  0  0  0  0  0  0  0  0  0
  1  2  1  0
  2  3  2  0
  3  4  1  0
  4  5  2  0
  5  6  1  0
  6  7  1  0
  7  8  2  0
  8  9  1  0
  9 10  2  0
 10 11  1  0
 11 12  2  0
 12 13  1  0
 13 14  2  0
 14  9  1  0
 14 15  1  0
  8 16  1  0
 16 17  2  0
 17 18  1  0
 18 19  1  0
 18 20  2  0
 20 21  1  0
 21 22  2  0
 22 16  1  0
 22 23  1  0
 23  2  1  0
 23  5  1  0
  1 24  1  0
  1 25  1  0
  1 26  1  0
  6 27  1  0
  6 28  1  0
 10 29  1  0
 11 30  1  0
 12 31  1  0
 13 32  1  0
 17 33  1  0
 20 34  1  0
 21 35  1  0
M  END
> <ID>
HT2110

> <Class>
1.0

> <Clusters>
10

> <Fold>
1

$$$$