
     RDKit          3D

 31 32  0  0  0  0  0  0  0  0999 V2000
    4.9937    1.5237   -0.4558 C   0  0  0  0  0  0  0  0  0  0  0  0
    3.7325    0.7855   -0.1171 C   0  0  0  0  0  0  0  0  0  0  0  0
    3.5748    0.1657    1.1316 C   0  0  0  0  0  0  0  0  0  0  0  0
    2.3943   -0.5192    1.4348 C   0  0  0  0  0  0  0  0  0  0  0  0
    1.3479   -0.5861    0.4992 C   0  0  0  0  0  0  0  0  0  0  0  0
    1.5175    0.0227   -0.7574 C   0  0  0  0  0  0  0  0  0  0  0  0
    2.6981    0.7071   -1.0596 C   0  0  0  0  0  0  0  0  0  0  0  0
    0.1066   -1.3296    0.8267 C   0  0  0  0  0  0  0  0  0  0  0  0
    0.1807   -2.3302    1.5914 O   0  0  0  0  0  0  0  0  0  0  0  0
   -1.2189   -0.9389    0.2866 C   0  0  0  0  0  0  0  0  0  0  0  0
   -2.1837   -1.9204    0.0249 C   0  0  0  0  0  0  0  0  0  0  0  0
   -3.4429   -1.5678   -0.4733 C   0  0  0  0  0  0  0  0  0  0  0  0
   -4.3858   -2.5592   -0.7428 O   0  0  0  0  0  0  0  0  0  0  0  0
   -3.7576   -0.2171   -0.7048 C   0  0  0  0  0  0  0  0  0  0  0  0
   -5.0083    0.1261   -1.2215 O   0  0  0  0  0  0  0  0  0  0  0  0
   -2.8049    0.7882   -0.4219 C   0  0  0  0  0  0  0  0  0  0  0  0
   -1.5425    0.4109    0.0744 C   0  0  0  0  0  0  0  0  0  0  0  0
   -3.1025    2.1855   -0.6302 N   0  0  0  0  0  0  0  0  0  0  0  0
   -2.1931    3.0396   -0.5769 O   0  0  0  0  0  0  0  0  0  0  0  0
   -4.3911    2.6152   -0.8486 O   0  0  0  0  0  0  0  0  0  0  0  0
    5.7190    1.4994    0.3852 H   0  0  0  0  0  0  0  0  0  0  0  0
    4.7553    2.5839   -0.6839 H   0  0  0  0  0  0  0  0  0  0  0  0
    5.4703    1.0596   -1.3448 H   0  0  0  0  0  0  0  0  0  0  0  0
    4.3640    0.2108    1.8718 H   0  0  0  0  0  0  0  0  0  0  0  0
    2.2940   -0.9874    2.4063 H   0  0  0  0  0  0  0  0  0  0  0  0
    0.7438   -0.0424   -1.5120 H   0  0  0  0  0  0  0  0  0  0  0  0
    2.8089    1.1718   -2.0317 H   0  0  0  0  0  0  0  0  0  0  0  0
   -1.9542   -2.9657    0.1939 H   0  0  0  0  0  0  0  0  0  0  0  0
   -4.1860   -3.5403   -0.5863 H   0  0  0  0  0  0  0  0  0  0  0  0
   -5.7149   -0.5661   -1.4395 H   0  0  0  0  0  0  0  0  0  0  0  0
   -0.8151    1.1746    0.3189 H   0  0  0  0  0  0  0  0  0  0  0  0
  1  2  1  0
  2  3  2  0
  3  4  1  0
  4  5  2  0
  5  6  1  0
  6  7  2  0
  7  2  1  0
  5  8  1  0
  8  9  2  0
  8 10  1  0
 10 11  2  0
 11 12  1  0
 12 13  1  0
 12 14  2  0
 14 15  1  0
 14 16  1  0
 16 17  2  0
 17 10  1  0
 16 18  1  0
 18 19  2  0
 18 20  1  0
  1 21  1  0
  1 22  1  0
  1 23  1  0
  3 24  1  0
  4 25  1  0
  6 26  1  0
  7 27  1  0
 11 28  1  0
 13 29  1  0
 15 30  1  0
 17 31  1  0
M  CHG  2  18   1  20  -1
M  END
> <ID>
HT2082

> <Class>
1.0

> <Clusters>
231

> <Fold>
1

$$$$