
     RDKit          3D

 45 47  0  0  0  0  0  0  0  0999 V2000
    8.1538   -1.0535    0.7806 C   0  0  0  0  0  0  0  0  0  0  0  0
    6.8274   -1.7801    0.9862 C   0  0  0  0  0  0  0  0  0  0  0  0
    5.6594   -0.8541    0.7662 C   0  0  0  0  0  0  0  0  0  0  0  0
    5.3514   -0.3876   -0.5200 C   0  0  0  0  0  0  0  0  0  0  0  0
    4.2630    0.4642   -0.7141 C   0  0  0  0  0  0  0  0  0  0  0  0
    3.4868    0.8510    0.3866 C   0  0  0  0  0  0  0  0  0  0  0  0
    2.2886    1.7368    0.2064 C   0  0  0  0  0  0  0  0  0  0  0  0
    1.0527    0.9084   -0.1326 C   0  0  0  0  0  0  0  0  0  0  0  0
   -0.0687    1.7743   -0.2868 O   0  0  0  0  0  0  0  0  0  0  0  0
   -1.3657    1.3427   -0.6011 C   0  0  0  0  0  0  0  0  0  0  0  0
   -1.6834   -0.0148   -0.7978 C   0  0  0  0  0  0  0  0  0  0  0  0
   -2.9925   -0.3944   -1.1090 C   0  0  0  0  0  0  0  0  0  0  0  0
   -4.0025    0.5730   -1.2295 C   0  0  0  0  0  0  0  0  0  0  0  0
   -5.4195    0.1659   -1.5470 C   0  0  0  0  0  0  0  0  0  0  0  0
   -6.3329    0.2303   -0.3118 C   0  0  0  0  0  0  0  0  0  0  0  0
   -8.0793   -0.0395   -0.8321 S   0  0  0  0  0  0  0  0  0  0  0  0
   -8.1616   -1.5157    0.1677 C   0  0  0  0  0  0  0  0  0  0  0  0
   -9.1750   -2.2614    0.1899 O   0  0  0  0  0  0  0  0  0  0  0  0
   -7.0086   -1.8003    0.9307 N   0  0  0  0  0  0  0  0  0  0  0  0
   -6.0015   -0.8358    0.6941 C   0  0  0  0  0  0  0  0  0  0  0  0
   -4.9096   -0.8622    1.3213 O   0  0  0  0  0  0  0  0  0  0  0  0
   -3.6844    1.9253   -1.0313 C   0  0  0  0  0  0  0  0  0  0  0  0
   -2.3755    2.3043   -0.7208 C   0  0  0  0  0  0  0  0  0  0  0  0
    3.7909    0.3747    1.6248 N   0  0  0  0  0  0  0  0  0  0  0  0
    4.8461   -0.4558    1.8380 C   0  0  0  0  0  0  0  0  0  0  0  0
    8.2410   -0.6864   -0.2639 H   0  0  0  0  0  0  0  0  0  0  0  0
    8.9941   -1.7515    0.9797 H   0  0  0  0  0  0  0  0  0  0  0  0
    8.2326   -0.1935    1.4796 H   0  0  0  0  0  0  0  0  0  0  0  0
    6.7584   -2.6367    0.2814 H   0  0  0  0  0  0  0  0  0  0  0  0
    6.8091   -2.1949    2.0177 H   0  0  0  0  0  0  0  0  0  0  0  0
    5.9496   -0.6886   -1.3711 H   0  0  0  0  0  0  0  0  0  0  0  0
    4.0249    0.8155   -1.7104 H   0  0  0  0  0  0  0  0  0  0  0  0
    2.4781    2.4730   -0.6052 H   0  0  0  0  0  0  0  0  0  0  0  0
    2.1045    2.3065    1.1433 H   0  0  0  0  0  0  0  0  0  0  0  0
    1.2264    0.3538   -1.0810 H   0  0  0  0  0  0  0  0  0  0  0  0
    0.8538    0.1859    0.6894 H   0  0  0  0  0  0  0  0  0  0  0  0
   -0.9281   -0.7837   -0.7109 H   0  0  0  0  0  0  0  0  0  0  0  0
   -3.2191   -1.4439   -1.2505 H   0  0  0  0  0  0  0  0  0  0  0  0
   -5.4457   -0.8586   -1.9808 H   0  0  0  0  0  0  0  0  0  0  0  0
   -5.8148    0.8533   -2.3266 H   0  0  0  0  0  0  0  0  0  0  0  0
   -6.2643    1.2293    0.1700 H   0  0  0  0  0  0  0  0  0  0  0  0
   -6.9145   -2.6088    1.5849 H   0  0  0  0  0  0  0  0  0  0  0  0
   -4.4511    2.6856   -1.1163 H   0  0  0  0  0  0  0  0  0  0  0  0
   -2.1442    3.3512   -0.5708 H   0  0  0  0  0  0  0  0  0  0  0  0
    5.0496   -0.8031    2.8427 H   0  0  0  0  0  0  0  0  0  0  0  0
  1  2  1  0
  2  3  1  0
  3  4  2  0
  4  5  1  0
  5  6  2  0
  6  7  1  0
  7  8  1  0
  8  9  1  0
  9 10  1  0
 10 11  2  0
 11 12  1  0
 12 13  2  0
 13 14  1  0
 14 15  1  0
 15 16  1  0
 16 17  1  0
 17 18  2  0
 17 19  1  0
 19 20  1  0
 20 15  1  0
 20 21  2  0
 13 22  1  0
 22 23  2  0
 23 10  1  0
  6 24  1  0
 24 25  2  0
 25  3  1  0
  1 26  1  0
  1 27  1  0
  1 28  1  0
  2 29  1  0
  2 30  1  0
  4 31  1  0
  5 32  1  0
  7 33  1  0
  7 34  1  0
  8 35  1  0
  8 36  1  0
 11 37  1  0
 12 38  1  0
 14 39  1  0
 14 40  1  0
 15 41  1  0
 19 42  1  0
 22 43  1  0
 23 44  1  0
 25 45  1  0
M  END
> <ID>
HT1677

> <Class>
1.0

> <Clusters>
199

> <Fold>
1

$$$$