
     RDKit          3D

 29 31  0  0  0  0  0  0  0  0999 V2000
    5.3296    0.9357    0.4343 O   0  0  0  0  0  0  0  0  0  0  0  0
    4.1702    0.4451    0.3934 C   0  0  0  0  0  0  0  0  0  0  0  0
    3.6839   -0.2209   -0.8594 C   0  0  0  0  0  0  0  0  0  0  0  0
    2.1621   -0.0921   -0.9724 C   0  0  0  0  0  0  0  0  0  0  0  0
    1.4525   -0.6627    0.2699 C   0  0  0  0  0  0  0  0  0  0  0  0
    0.0114   -0.4037    0.1878 N   0  0  0  0  0  0  0  0  0  0  0  0
   -1.0311   -1.3701    0.0323 C   0  0  0  0  0  0  0  0  0  0  0  0
   -0.8429   -2.6131   -0.0453 O   0  0  0  0  0  0  0  0  0  0  0  0
   -2.3261   -0.7012   -0.0262 C   0  0  0  0  0  0  0  0  0  0  0  0
   -3.6121   -1.2193   -0.1690 C   0  0  0  0  0  0  0  0  0  0  0  0
   -4.6891   -0.3151   -0.1919 C   0  0  0  0  0  0  0  0  0  0  0  0
   -4.4610    1.0732   -0.0727 C   0  0  0  0  0  0  0  0  0  0  0  0
   -3.1534    1.5713    0.0705 C   0  0  0  0  0  0  0  0  0  0  0  0
   -2.1032    0.6553    0.0896 C   0  0  0  0  0  0  0  0  0  0  0  0
   -0.6652    0.8582    0.2233 C   0  0  0  0  0  0  0  0  0  0  0  0
   -0.0915    1.9708    0.3644 O   0  0  0  0  0  0  0  0  0  0  0  0
    2.0247   -0.0886    1.5436 C   0  0  0  0  0  0  0  0  0  0  0  0
    1.3625   -0.1509    2.6143 O   0  0  0  0  0  0  0  0  0  0  0  0
    3.3418    0.4742    1.5603 N   0  0  0  0  0  0  0  0  0  0  0  0
    4.1581    0.2511   -1.7470 H   0  0  0  0  0  0  0  0  0  0  0  0
    3.9708   -1.2941   -0.8355 H   0  0  0  0  0  0  0  0  0  0  0  0
    1.8161   -0.6388   -1.8764 H   0  0  0  0  0  0  0  0  0  0  0  0
    1.9019    0.9808   -1.1050 H   0  0  0  0  0  0  0  0  0  0  0  0
    1.6245   -1.7611    0.2938 H   0  0  0  0  0  0  0  0  0  0  0  0
   -3.7781   -2.2849   -0.2594 H   0  0  0  0  0  0  0  0  0  0  0  0
   -5.6997   -0.6864   -0.3015 H   0  0  0  0  0  0  0  0  0  0  0  0
   -5.2979    1.7591   -0.0914 H   0  0  0  0  0  0  0  0  0  0  0  0
   -2.9697    2.6338    0.1627 H   0  0  0  0  0  0  0  0  0  0  0  0
    3.7108    0.8948    2.4428 H   0  0  0  0  0  0  0  0  0  0  0  0
  1  2  2  0
  2  3  1  0
  3  4  1  0
  4  5  1  0
  5  6  1  0
  6  7  1  0
  7  8  2  0
  7  9  1  0
  9 10  2  0
 10 11  1  0
 11 12  2  0
 12 13  1  0
 13 14  2  0
 14  9  1  0
 14 15  1  0
 15  6  1  0
 15 16  2  0
  5 17  1  0
 17 18  2  0
 17 19  1  0
 19  2  1  0
  3 20  1  0
  3 21  1  0
  4 22  1  0
  4 23  1  0
  5 24  1  0
 10 25  1  0
 11 26  1  0
 12 27  1  0
 13 28  1  0
 19 29  1  0
M  END
> <ID>
HT2032

> <Class>
1.0

> <Clusters>
226

> <Fold>
1

$$$$