
     RDKit          3D

 23 24  0  0  0  0  0  0  0  0999 V2000
    3.9940   -2.6728   -0.9963 O   0  0  0  0  0  0  0  0  0  0  0  0
    4.4347   -1.4150   -0.6587 N   0  0  0  0  0  0  0  0  0  0  0  0
    5.6581   -1.1683   -0.6688 O   0  0  0  0  0  0  0  0  0  0  0  0
    3.4917   -0.4027   -0.2999 C   0  0  0  0  0  0  0  0  0  0  0  0
    2.1940   -0.5960   -0.2693 O   0  0  0  0  0  0  0  0  0  0  0  0
    1.6272    0.5310    0.0978 C   0  0  0  0  0  0  0  0  0  0  0  0
    0.1824    0.7171    0.2486 C   0  0  0  0  0  0  0  0  0  0  0  0
   -0.6235   -0.2761    0.0349 N   0  0  0  0  0  0  0  0  0  0  0  0
   -2.0231   -0.1783    0.1422 N   0  0  0  0  0  0  0  0  0  0  0  0
   -2.8929   -1.3471    0.2251 C   0  0  0  0  0  0  0  0  0  0  0  0
   -4.2497   -0.7645   -0.0249 C   0  0  0  0  0  0  0  0  0  0  0  0
   -5.3187   -1.4291   -0.0283 O   0  0  0  0  0  0  0  0  0  0  0  0
   -4.2058    0.6322   -0.2784 N   0  0  0  0  0  0  0  0  0  0  0  0
   -2.8302    0.9499   -0.2015 C   0  0  0  0  0  0  0  0  0  0  0  0
   -2.3752    2.0921   -0.4724 O   0  0  0  0  0  0  0  0  0  0  0  0
    2.5873    1.5014    0.3166 C   0  0  0  0  0  0  0  0  0  0  0  0
    3.8000    0.8961    0.0586 C   0  0  0  0  0  0  0  0  0  0  0  0
   -0.1901    1.6791    0.5731 H   0  0  0  0  0  0  0  0  0  0  0  0
   -2.8355   -1.8009    1.2367 H   0  0  0  0  0  0  0  0  0  0  0  0
   -2.6342   -2.0832   -0.5654 H   0  0  0  0  0  0  0  0  0  0  0  0
   -4.9968    1.2625   -0.5372 H   0  0  0  0  0  0  0  0  0  0  0  0
    2.4250    2.5255    0.6262 H   0  0  0  0  0  0  0  0  0  0  0  0
    4.7812    1.3472    0.1243 H   0  0  0  0  0  0  0  0  0  0  0  0
  1  2  1  0
  2  3  2  0
  2  4  1  0
  4  5  1  0
  5  6  1  0
  6  7  1  0
  7  8  2  0
  8  9  1  0
  9 10  1  0
 10 11  1  0
 11 12  2  0
 11 13  1  0
 13 14  1  0
 14  9  1  0
 14 15  2  0
  6 16  2  0
 16 17  1  0
 17  4  2  0
  7 18  1  0
 10 19  1  0
 10 20  1  0
 13 21  1  0
 16 22  1  0
 17 23  1  0
M  CHG  2   1  -1   2   1
M  END
> <ID>
HT1507

> <Class>
1.0

> <Clusters>
180

> <Fold>
1

$$$$