
     RDKit          3D

 72 76  0  0  0  0  0  0  0  0999 V2000
    3.9471   -0.9129    5.1295 C   0  0  0  0  0  0  0  0  0  0  0  0
    4.2851   -1.2406    3.7374 N   0  0  0  0  0  0  0  0  0  0  0  0
    5.5356   -1.9634    3.4666 C   0  0  0  0  0  0  0  0  0  0  0  0
    3.4009   -0.8535    2.6479 C   0  0  0  0  0  0  0  0  0  0  0  0
    3.6045   -1.3381    1.3388 C   0  0  0  0  0  0  0  0  0  0  0  0
    2.7536   -0.9683    0.2952 C   0  0  0  0  0  0  0  0  0  0  0  0
    1.6669   -0.1085    0.5192 C   0  0  0  0  0  0  0  0  0  0  0  0
    1.4644    0.3875    1.8210 C   0  0  0  0  0  0  0  0  0  0  0  0
    2.3134    0.0184    2.8670 C   0  0  0  0  0  0  0  0  0  0  0  0
    0.7710    0.2688   -0.6597 C   0  0  1  0  0  0  0  0  0  0  0  0
   -0.0482   -0.9595   -1.1740 C   0  0  0  0  0  0  0  0  0  0  0  0
   -1.4843   -1.0467   -0.6110 C   0  0  1  0  0  0  0  0  0  0  0  0
   -1.4377   -1.4005    0.9113 C   0  0  0  0  0  0  0  0  0  0  0  0
   -2.1718    0.2908   -0.9042 C   0  0  1  0  0  0  0  0  0  0  0  0
   -3.6588    0.0178   -0.6932 C   0  0  0  0  0  0  0  0  0  0  0  0
   -3.8465   -1.4706   -1.0293 C   0  0  0  0  0  0  0  0  0  0  0  0
   -2.4333   -2.0388   -1.3610 C   0  0  1  0  0  0  0  0  0  0  0  0
   -2.2094   -1.9207   -2.7776 O   0  0  0  0  0  0  0  0  0  0  0  0
   -2.8846   -2.6445   -3.7715 C   0  0  0  0  0  0  0  0  0  0  0  0
   -3.7456   -3.5149   -3.4713 O   0  0  0  0  0  0  0  0  0  0  0  0
   -2.5431   -2.4114   -5.2028 C   0  0  0  0  0  0  0  0  0  0  0  0
   -2.1994   -3.4968   -0.9533 C   0  0  0  0  0  0  0  0  0  0  0  0
   -1.1251   -4.0151   -1.2225 O   0  0  0  0  0  0  0  0  0  0  0  0
   -3.2304   -4.3260   -0.2387 C   0  0  0  0  0  0  0  0  0  0  0  0
   -1.5513    1.4764   -0.1429 C   0  0  2  0  0  0  0  0  0  0  0  0
   -2.2889    2.7809   -0.5019 C   0  0  0  0  0  0  0  0  0  0  0  0
   -1.6461    3.9541    0.2212 C   0  0  0  0  0  0  0  0  0  0  0  0
   -0.2013    4.0398   -0.1742 C   0  0  0  0  0  0  0  0  0  0  0  0
    0.3563    5.2433   -0.3910 C   0  0  0  0  0  0  0  0  0  0  0  0
    1.7368    5.3676   -0.8833 C   0  0  0  0  0  0  0  0  0  0  0  0
    2.2565    6.5068   -1.0153 O   0  0  0  0  0  0  0  0  0  0  0  0
    2.4962    4.1434   -1.2966 C   0  0  0  0  0  0  0  0  0  0  0  0
    2.1053    2.9541   -0.4176 C   0  0  0  0  0  0  0  0  0  0  0  0
    0.5894    2.7837   -0.3686 C   0  0  0  0  0  0  0  0  0  0  0  0
   -0.0393    1.5667   -0.4332 C   0  0  0  0  0  0  0  0  0  0  0  0
    3.9613    0.1880    5.2712 H   0  0  0  0  0  0  0  0  0  0  0  0
    4.6677   -1.3566    5.8485 H   0  0  0  0  0  0  0  0  0  0  0  0
    2.9401   -1.3121    5.3764 H   0  0  0  0  0  0  0  0  0  0  0  0
    5.3074   -2.9742    3.0677 H   0  0  0  0  0  0  0  0  0  0  0  0
    6.1457   -1.3979    2.7307 H   0  0  0  0  0  0  0  0  0  0  0  0
    6.1504   -2.0894    4.3828 H   0  0  0  0  0  0  0  0  0  0  0  0
    4.4184   -2.0099    1.1077 H   0  0  0  0  0  0  0  0  0  0  0  0
    2.9445   -1.3563   -0.6977 H   0  0  0  0  0  0  0  0  0  0  0  0
    0.6505    1.0650    2.0409 H   0  0  0  0  0  0  0  0  0  0  0  0
    2.1101    0.4291    3.8459 H   0  0  0  0  0  0  0  0  0  0  0  0
    1.4480    0.4810   -1.5154 H   0  0  0  0  0  0  0  0  0  0  0  0
    0.4915   -1.9087   -0.9694 H   0  0  0  0  0  0  0  0  0  0  0  0
   -0.0936   -0.8819   -2.2825 H   0  0  0  0  0  0  0  0  0  0  0  0
   -0.8828   -2.3479    1.0734 H   0  0  0  0  0  0  0  0  0  0  0  0
   -2.4531   -1.5219    1.3395 H   0  0  0  0  0  0  0  0  0  0  0  0
   -0.9262   -0.6367    1.5137 H   0  0  0  0  0  0  0  0  0  0  0  0
   -2.0510    0.5211   -1.9915 H   0  0  0  0  0  0  0  0  0  0  0  0
   -4.2774    0.6559   -1.3615 H   0  0  0  0  0  0  0  0  0  0  0  0
   -3.9458    0.2146    0.3636 H   0  0  0  0  0  0  0  0  0  0  0  0
   -4.5496   -1.5871   -1.8803 H   0  0  0  0  0  0  0  0  0  0  0  0
   -4.3053   -1.9630   -0.1477 H   0  0  0  0  0  0  0  0  0  0  0  0
   -2.0796   -1.4101   -5.3233 H   0  0  0  0  0  0  0  0  0  0  0  0
   -1.8256   -3.1865   -5.5432 H   0  0  0  0  0  0  0  0  0  0  0  0
   -3.4605   -2.4592   -5.8268 H   0  0  0  0  0  0  0  0  0  0  0  0
   -4.1926   -4.2999   -0.7908 H   0  0  0  0  0  0  0  0  0  0  0  0
   -2.8999   -5.3850   -0.1708 H   0  0  0  0  0  0  0  0  0  0  0  0
   -3.3757   -3.9412    0.7914 H   0  0  0  0  0  0  0  0  0  0  0  0
   -1.6893    1.3284    0.9482 H   0  0  0  0  0  0  0  0  0  0  0  0
   -3.3542    2.7186   -0.1907 H   0  0  0  0  0  0  0  0  0  0  0  0
   -2.2569    2.9557   -1.6007 H   0  0  0  0  0  0  0  0  0  0  0  0
   -1.7137    3.8048    1.3206 H   0  0  0  0  0  0  0  0  0  0  0  0
   -2.1984    4.8845   -0.0378 H   0  0  0  0  0  0  0  0  0  0  0  0
   -0.2163    6.1488   -0.2269 H   0  0  0  0  0  0  0  0  0  0  0  0
    3.5887    4.3266   -1.2038 H   0  0  0  0  0  0  0  0  0  0  0  0
    2.2650    3.9148   -2.3593 H   0  0  0  0  0  0  0  0  0  0  0  0
    2.4593    3.1477    0.6181 H   0  0  0  0  0  0  0  0  0  0  0  0
    2.6612    2.0718   -0.7808 H   0  0  0  0  0  0  0  0  0  0  0  0
  1  2  1  0
  2  3  1  0
  2  4  1  0
  4  5  2  0
  5  6  1  0
  6  7  2  0
  7  8  1  0
  8  9  2  0
  9  4  1  0
 10  7  1  0
 10 11  1  0
 11 12  1  0
 12 13  1  1
 12 14  1  0
 14 15  1  0
 15 16  1  0
 16 17  1  0
 17 12  1  0
 17 18  1  6
 18 19  1  0
 19 20  2  0
 19 21  1  0
 17 22  1  0
 22 23  2  0
 22 24  1  0
 14 25  1  0
 25 26  1  0
 26 27  1  0
 27 28  1  0
 28 29  2  0
 29 30  1  0
 30 31  2  0
 30 32  1  0
 32 33  1  0
 33 34  1  0
 34 28  1  0
 34 35  2  0
 35 10  1  0
 35 25  1  0
  1 36  1  0
  1 37  1  0
  1 38  1  0
  3 39  1  0
  3 40  1  0
  3 41  1  0
  5 42  1  0
  6 43  1  0
  8 44  1  0
  9 45  1  0
 10 46  1  6
 11 47  1  0
 11 48  1  0
 13 49  1  0
 13 50  1  0
 13 51  1  0
 14 52  1  6
 15 53  1  0
 15 54  1  0
 16 55  1  0
 16 56  1  0
 21 57  1  0
 21 58  1  0
 21 59  1  0
 24 60  1  0
 24 61  1  0
 24 62  1  0
 25 63  1  1
 26 64  1  0
 26 65  1  0
 27 66  1  0
 27 67  1  0
 29 68  1  0
 32 69  1  0
 32 70  1  0
 33 71  1  0
 33 72  1  0
M  END
> <ID>
HT2150

> <Class>
1.0

> <Clusters>
237

> <Fold>
1

$$$$