
     RDKit          3D

 62 61  0  0  0  0  0  0  0  0999 V2000
    9.3053   -0.1603    2.0839 C   0  0  0  0  0  0  0  0  0  0  0  0
    8.4955    0.3688    0.9082 C   0  0  0  0  0  0  0  0  0  0  0  0
    7.2626   -0.3394    0.7764 O   0  0  0  0  0  0  0  0  0  0  0  0
    7.1756   -1.6418    0.2657 C   0  0  0  0  0  0  0  0  0  0  0  0
    8.2080   -2.2566   -0.1218 O   0  0  0  0  0  0  0  0  0  0  0  0
    5.8302   -2.2844    0.1102 C   0  0  0  0  0  0  0  0  0  0  0  0
    5.3768   -2.2937   -1.3573 C   0  0  0  0  0  0  0  0  0  0  0  0
    5.1566   -0.8892   -1.8692 C   0  0  0  0  0  0  0  0  0  0  0  0
    3.9646   -0.3740   -2.2187 C   0  0  0  0  0  0  0  0  0  0  0  0
    2.6688   -1.1386   -2.1497 C   0  0  0  0  0  0  0  0  0  0  0  0
    1.4975   -0.2586   -2.5205 C   0  0  0  0  0  0  0  0  0  0  0  0
    0.9938    0.7041   -1.7210 C   0  0  0  0  0  0  0  0  0  0  0  0
    1.5377    1.0037   -0.3441 C   0  0  0  0  0  0  0  0  0  0  0  0
    0.7141    2.0598    0.3502 C   0  0  0  0  0  0  0  0  0  0  0  0
   -0.4045    1.8133    1.0529 C   0  0  0  0  0  0  0  0  0  0  0  0
   -1.0194    0.4467    1.2436 C   0  0  0  0  0  0  0  0  0  0  0  0
   -1.6128   -0.0877   -0.0363 C   0  0  0  0  0  0  0  0  0  0  0  0
   -2.7041    0.4113   -0.6492 C   0  0  0  0  0  0  0  0  0  0  0  0
   -3.5514    1.5440   -0.1180 C   0  0  0  0  0  0  0  0  0  0  0  0
   -4.3230    1.1311    1.1117 C   0  0  0  0  0  0  0  0  0  0  0  0
   -5.3856    0.3073    1.1041 C   0  0  0  0  0  0  0  0  0  0  0  0
   -6.0245   -0.2570   -0.1424 C   0  0  0  0  0  0  0  0  0  0  0  0
   -6.8755    0.7845   -0.8240 C   0  0  0  0  0  0  0  0  0  0  0  0
   -8.1016    1.1579   -0.4093 C   0  0  0  0  0  0  0  0  0  0  0  0
   -8.8561    0.5016    0.7167 C   0  0  0  0  0  0  0  0  0  0  0  0
   -9.7719   -0.5909    0.1809 C   0  0  0  0  0  0  0  0  0  0  0  0
   10.2297    0.4466    2.2035 H   0  0  0  0  0  0  0  0  0  0  0  0
    8.7047   -0.0957    3.0144 H   0  0  0  0  0  0  0  0  0  0  0  0
    9.6006   -1.2160    1.9167 H   0  0  0  0  0  0  0  0  0  0  0  0
    8.2635    1.4395    1.0855 H   0  0  0  0  0  0  0  0  0  0  0  0
    9.0841    0.2996   -0.0298 H   0  0  0  0  0  0  0  0  0  0  0  0
    5.8907   -3.3319    0.4787 H   0  0  0  0  0  0  0  0  0  0  0  0
    5.0777   -1.7491    0.7372 H   0  0  0  0  0  0  0  0  0  0  0  0
    4.4598   -2.9151   -1.4397 H   0  0  0  0  0  0  0  0  0  0  0  0
    6.1521   -2.7864   -1.9854 H   0  0  0  0  0  0  0  0  0  0  0  0
    6.0260   -0.2424   -1.9462 H   0  0  0  0  0  0  0  0  0  0  0  0
    3.9406    0.6554   -2.5657 H   0  0  0  0  0  0  0  0  0  0  0  0
    2.5154   -1.5616   -1.1332 H   0  0  0  0  0  0  0  0  0  0  0  0
    2.7175   -1.9837   -2.8725 H   0  0  0  0  0  0  0  0  0  0  0  0
    1.0343   -0.4156   -3.4921 H   0  0  0  0  0  0  0  0  0  0  0  0
    0.1451    1.2774   -2.0890 H   0  0  0  0  0  0  0  0  0  0  0  0
    1.5841    0.0813    0.2716 H   0  0  0  0  0  0  0  0  0  0  0  0
    2.5750    1.3875   -0.4435 H   0  0  0  0  0  0  0  0  0  0  0  0
    1.0640    3.0868    0.2917 H   0  0  0  0  0  0  0  0  0  0  0  0
   -0.8880    2.6517    1.5450 H   0  0  0  0  0  0  0  0  0  0  0  0
   -0.2475   -0.2615    1.6144 H   0  0  0  0  0  0  0  0  0  0  0  0
   -1.8021    0.4910    2.0296 H   0  0  0  0  0  0  0  0  0  0  0  0
   -1.1067   -0.9276   -0.5095 H   0  0  0  0  0  0  0  0  0  0  0  0
   -2.9963   -0.0301   -1.5991 H   0  0  0  0  0  0  0  0  0  0  0  0
   -2.9058    2.4129    0.1214 H   0  0  0  0  0  0  0  0  0  0  0  0
   -4.2534    1.8901   -0.9082 H   0  0  0  0  0  0  0  0  0  0  0  0
   -3.9812    1.5080    2.0702 H   0  0  0  0  0  0  0  0  0  0  0  0
   -5.8173    0.0301    2.0616 H   0  0  0  0  0  0  0  0  0  0  0  0
   -6.6386   -1.1461    0.1159 H   0  0  0  0  0  0  0  0  0  0  0  0
   -5.2438   -0.6166   -0.8424 H   0  0  0  0  0  0  0  0  0  0  0  0
   -6.4643    1.2765   -1.7000 H   0  0  0  0  0  0  0  0  0  0  0  0
   -8.6169    1.9347   -0.9676 H   0  0  0  0  0  0  0  0  0  0  0  0
   -8.1725    0.0754    1.4784 H   0  0  0  0  0  0  0  0  0  0  0  0
   -9.4740    1.2678    1.2303 H   0  0  0  0  0  0  0  0  0  0  0  0
   -9.1796   -1.3766   -0.3333 H   0  0  0  0  0  0  0  0  0  0  0  0
  -10.3290   -1.0575    1.0224 H   0  0  0  0  0  0  0  0  0  0  0  0
  -10.5048   -0.1607   -0.5332 H   0  0  0  0  0  0  0  0  0  0  0  0
  1  2  1  0
  2  3  1  0
  3  4  1  0
  4  5  2  0
  4  6  1  0
  6  7  1  0
  7  8  1  0
  8  9  2  0
  9 10  1  0
 10 11  1  0
 11 12  2  0
 12 13  1  0
 13 14  1  0
 14 15  2  0
 15 16  1  0
 16 17  1  0
 17 18  2  0
 18 19  1  0
 19 20  1  0
 20 21  2  0
 21 22  1  0
 22 23  1  0
 23 24  2  0
 24 25  1  0
 25 26  1  0
  1 27  1  0
  1 28  1  0
  1 29  1  0
  2 30  1  0
  2 31  1  0
  6 32  1  0
  6 33  1  0
  7 34  1  0
  7 35  1  0
  8 36  1  0
  9 37  1  0
 10 38  1  0
 10 39  1  0
 11 40  1  0
 12 41  1  0
 13 42  1  0
 13 43  1  0
 14 44  1  0
 15 45  1  0
 16 46  1  0
 16 47  1  0
 17 48  1  0
 18 49  1  0
 19 50  1  0
 19 51  1  0
 20 52  1  0
 21 53  1  0
 22 54  1  0
 22 55  1  0
 23 56  1  0
 24 57  1  0
 25 58  1  0
 25 59  1  0
 26 60  1  0
 26 61  1  0
 26 62  1  0
M  END
> <ID>
HT1540

> <Class>
1.0

> <Clusters>
130

> <Fold>
1

$$$$