
     RDKit          3D

 74 78  0  0  0  0  0  0  0  0999 V2000
   -2.4414   -5.2346   -0.4877 C   0  0  0  0  0  0  0  0  0  0  0  0
   -1.3543   -4.3757   -0.1617 O   0  0  0  0  0  0  0  0  0  0  0  0
   -1.4873   -3.0720    0.3458 C   0  0  0  0  0  0  0  0  0  0  0  0
   -2.7494   -2.5107    0.6249 C   0  0  0  0  0  0  0  0  0  0  0  0
   -2.8633   -1.1955    1.1093 C   0  0  0  0  0  0  0  0  0  0  0  0
   -1.6955   -0.4522    1.3399 C   0  0  0  0  0  0  0  0  0  0  0  0
   -0.4416   -1.0000    1.0692 C   0  0  0  0  0  0  0  0  0  0  0  0
   -0.3253   -2.3083    0.5770 C   0  0  0  0  0  0  0  0  0  0  0  0
    1.0399   -2.8452    0.2294 C   0  0  0  0  0  0  0  0  0  0  0  0
    1.4045   -2.4502   -1.1714 C   0  0  0  0  0  0  0  0  0  0  0  0
    0.8863   -2.9965   -2.3417 C   0  0  0  0  0  0  0  0  0  0  0  0
    1.4054   -2.3650   -3.4203 N   0  0  0  0  0  0  0  0  0  0  0  0
    1.0520   -2.6123   -4.8152 C   0  0  0  0  0  0  0  0  0  0  0  0
    2.2321   -1.4121   -2.9443 C   0  0  0  0  0  0  0  0  0  0  0  0
    2.9604   -0.4679   -3.6696 C   0  0  0  0  0  0  0  0  0  0  0  0
    3.7423    0.4545   -2.9537 C   0  0  0  0  0  0  0  0  0  0  0  0
    3.7936    0.4208   -1.5387 C   0  0  0  0  0  0  0  0  0  0  0  0
    4.5945    1.3912   -0.8439 N   0  0  0  0  0  0  0  0  0  0  0  0
    5.2979    1.1296    0.3779 C   0  0  0  0  0  0  0  0  0  0  0  0
    5.3587   -0.0398    0.8469 O   0  0  0  0  0  0  0  0  0  0  0  0
    5.9537    2.1837    1.0239 O   0  0  0  0  0  0  0  0  0  0  0  0
    6.7159    2.0169    2.2218 C   0  0  0  0  0  0  0  0  0  0  0  0
    7.0596    3.3811    2.7992 C   0  0  0  0  0  0  0  0  0  0  0  0
    8.3757    3.7942    2.1535 C   0  0  0  0  0  0  0  0  0  0  0  0
    9.0051    2.5263    1.5798 C   0  0  0  0  0  0  0  0  0  0  0  0
    8.0646    1.3771    1.9166 C   0  0  0  0  0  0  0  0  0  0  0  0
    3.0169   -0.5289   -0.8348 C   0  0  0  0  0  0  0  0  0  0  0  0
    2.2592   -1.4385   -1.5727 C   0  0  0  0  0  0  0  0  0  0  0  0
   -4.1902   -0.5931    1.3857 C   0  0  0  0  0  0  0  0  0  0  0  0
   -4.2789    0.3572    2.2104 O   0  0  0  0  0  0  0  0  0  0  0  0
   -5.3689   -1.0527    0.7078 N   0  0  0  0  0  0  0  0  0  0  0  0
   -6.9445   -0.4454    1.1006 S   0  0  0  0  0  0  0  0  0  0  0  0
   -7.1037   -0.4474    2.5953 O   0  0  0  0  0  0  0  0  0  0  0  0
   -7.9733   -1.3588    0.4962 O   0  0  0  0  0  0  0  0  0  0  0  0
   -7.1657    1.1904    0.4565 C   0  0  0  0  0  0  0  0  0  0  0  0
   -6.2061    1.7072   -0.4311 C   0  0  0  0  0  0  0  0  0  0  0  0
   -6.3489    2.9888   -0.9655 C   0  0  0  0  0  0  0  0  0  0  0  0
   -7.4537    3.7690   -0.6260 C   0  0  0  0  0  0  0  0  0  0  0  0
   -8.4203    3.2702    0.2489 C   0  0  0  0  0  0  0  0  0  0  0  0
   -8.2970    1.9782    0.7912 C   0  0  0  0  0  0  0  0  0  0  0  0
   -9.3482    1.4899    1.7514 C   0  0  0  0  0  0  0  0  0  0  0  0
   -2.0413   -6.1909   -0.8822 H   0  0  0  0  0  0  0  0  0  0  0  0
   -3.0764   -4.7655   -1.2687 H   0  0  0  0  0  0  0  0  0  0  0  0
   -3.0442   -5.4500    0.4194 H   0  0  0  0  0  0  0  0  0  0  0  0
   -3.6400   -3.1048    0.4829 H   0  0  0  0  0  0  0  0  0  0  0  0
   -1.7523    0.5637    1.7112 H   0  0  0  0  0  0  0  0  0  0  0  0
    0.4433   -0.3968    1.2326 H   0  0  0  0  0  0  0  0  0  0  0  0
    1.0749   -3.9515    0.3218 H   0  0  0  0  0  0  0  0  0  0  0  0
    1.7903   -2.4517    0.9474 H   0  0  0  0  0  0  0  0  0  0  0  0
    0.1595   -3.7974   -2.3964 H   0  0  0  0  0  0  0  0  0  0  0  0
    0.4809   -3.5601   -4.9085 H   0  0  0  0  0  0  0  0  0  0  0  0
    0.4295   -1.7756   -5.1952 H   0  0  0  0  0  0  0  0  0  0  0  0
    1.9734   -2.6950   -5.4295 H   0  0  0  0  0  0  0  0  0  0  0  0
    2.9250   -0.4373   -4.7506 H   0  0  0  0  0  0  0  0  0  0  0  0
    4.3168    1.1934   -3.4983 H   0  0  0  0  0  0  0  0  0  0  0  0
    4.7663    2.3128   -1.3048 H   0  0  0  0  0  0  0  0  0  0  0  0
    6.1377    1.4188    2.9621 H   0  0  0  0  0  0  0  0  0  0  0  0
    6.2590    4.1269    2.6034 H   0  0  0  0  0  0  0  0  0  0  0  0
    7.2003    3.2892    3.8986 H   0  0  0  0  0  0  0  0  0  0  0  0
    9.0463    4.2651    2.9050 H   0  0  0  0  0  0  0  0  0  0  0  0
    8.1838    4.5247    1.3372 H   0  0  0  0  0  0  0  0  0  0  0  0
   10.0106    2.3487    2.0179 H   0  0  0  0  0  0  0  0  0  0  0  0
    9.1057    2.6196    0.4757 H   0  0  0  0  0  0  0  0  0  0  0  0
    8.4328    0.8498    2.8251 H   0  0  0  0  0  0  0  0  0  0  0  0
    8.0059    0.6460    1.0806 H   0  0  0  0  0  0  0  0  0  0  0  0
    2.9832   -0.5374    0.2452 H   0  0  0  0  0  0  0  0  0  0  0  0
   -5.2917   -1.6955   -0.1108 H   0  0  0  0  0  0  0  0  0  0  0  0
   -5.3435    1.1201   -0.7165 H   0  0  0  0  0  0  0  0  0  0  0  0
   -5.6038    3.3773   -1.6474 H   0  0  0  0  0  0  0  0  0  0  0  0
   -7.5604    4.7635   -1.0400 H   0  0  0  0  0  0  0  0  0  0  0  0
   -9.2677    3.8956    0.5033 H   0  0  0  0  0  0  0  0  0  0  0  0
  -10.2489    2.1405    1.7317 H   0  0  0  0  0  0  0  0  0  0  0  0
   -8.9399    1.4933    2.7831 H   0  0  0  0  0  0  0  0  0  0  0  0
   -9.6758    0.4646    1.4839 H   0  0  0  0  0  0  0  0  0  0  0  0
  1  2  1  0
  2  3  1  0
  3  4  2  0
  4  5  1  0
  5  6  2  0
  6  7  1  0
  7  8  2  0
  8  3  1  0
  8  9  1  0
  9 10  1  0
 10 11  2  0
 11 12  1  0
 12 13  1  0
 12 14  1  0
 14 15  2  0
 15 16  1  0
 16 17  2  0
 17 18  1  0
 18 19  1  0
 19 20  2  0
 19 21  1  0
 21 22  1  0
 22 23  1  0
 23 24  1  0
 24 25  1  0
 25 26  1  0
 26 22  1  0
 17 27  1  0
 27 28  2  0
 28 10  1  0
 28 14  1  0
  5 29  1  0
 29 30  2  0
 29 31  1  0
 31 32  1  0
 32 33  2  0
 32 34  2  0
 32 35  1  0
 35 36  2  0
 36 37  1  0
 37 38  2  0
 38 39  1  0
 39 40  2  0
 40 35  1  0
 40 41  1  0
  1 42  1  0
  1 43  1  0
  1 44  1  0
  4 45  1  0
  6 46  1  0
  7 47  1  0
  9 48  1  0
  9 49  1  0
 11 50  1  0
 13 51  1  0
 13 52  1  0
 13 53  1  0
 15 54  1  0
 16 55  1  0
 18 56  1  0
 22 57  1  0
 23 58  1  0
 23 59  1  0
 24 60  1  0
 24 61  1  0
 25 62  1  0
 25 63  1  0
 26 64  1  0
 26 65  1  0
 27 66  1  0
 31 67  1  0
 36 68  1  0
 37 69  1  0
 38 70  1  0
 39 71  1  0
 41 72  1  0
 41 73  1  0
 41 74  1  0
M  END
> <ID>
HT2206

> <Class>
1.0

> <Clusters>
120

> <Fold>
1

$$$$