
     RDKit          3D

 41 41  0  0  0  0  0  0  0  0999 V2000
   -6.3145   -0.8247   -0.6347 C   0  0  0  0  0  0  0  0  0  0  0  0
   -5.3250   -0.3455    0.4386 C   0  0  0  0  0  0  0  0  0  0  0  0
   -5.9831    0.7564    1.2797 C   0  0  0  0  0  0  0  0  0  0  0  0
   -4.0907    0.1688   -0.1899 N   0  0  0  0  0  0  0  0  0  0  0  0
   -2.9316    0.0400    0.7066 C   0  0  0  0  0  0  0  0  0  0  0  0
   -1.7196    0.7892    0.1223 C   0  0  0  0  0  0  0  0  0  0  0  0
   -1.3544    0.2623   -1.1292 O   0  0  0  0  0  0  0  0  0  0  0  0
   -0.5269    0.7555    1.0886 C   0  0  0  0  0  0  0  0  0  0  0  0
    0.5531    1.5245    0.5554 O   0  0  0  0  0  0  0  0  0  0  0  0
    1.7842    1.0194    0.1067 C   0  0  0  0  0  0  0  0  0  0  0  0
    1.9811   -0.3346   -0.2295 C   0  0  0  0  0  0  0  0  0  0  0  0
    3.2301   -0.7754   -0.6777 C   0  0  0  0  0  0  0  0  0  0  0  0
    4.2953    0.1276   -0.8130 C   0  0  0  0  0  0  0  0  0  0  0  0
    5.6504   -0.3556   -1.2642 C   0  0  0  0  0  0  0  0  0  0  0  0
    6.5178   -0.7945   -0.1157 C   0  0  0  0  0  0  0  0  0  0  0  0
    6.0993   -0.7395    1.0730 O   0  0  0  0  0  0  0  0  0  0  0  0
    7.8344   -1.2806   -0.3730 N   0  0  0  0  0  0  0  0  0  0  0  0
    4.0991    1.4756   -0.4788 C   0  0  0  0  0  0  0  0  0  0  0  0
    2.8503    1.9162   -0.0320 C   0  0  0  0  0  0  0  0  0  0  0  0
   -7.2535   -1.1855   -0.1628 H   0  0  0  0  0  0  0  0  0  0  0  0
   -5.8762   -1.6681   -1.2096 H   0  0  0  0  0  0  0  0  0  0  0  0
   -6.5567    0.0013   -1.3376 H   0  0  0  0  0  0  0  0  0  0  0  0
   -5.1026   -1.2167    1.0976 H   0  0  0  0  0  0  0  0  0  0  0  0
   -5.3259    1.0590    2.1200 H   0  0  0  0  0  0  0  0  0  0  0  0
   -6.1926    1.6493    0.6522 H   0  0  0  0  0  0  0  0  0  0  0  0
   -6.9376    0.3910    1.7154 H   0  0  0  0  0  0  0  0  0  0  0  0
   -3.8767   -0.4006   -1.0430 H   0  0  0  0  0  0  0  0  0  0  0  0
   -3.1635    0.4771    1.7015 H   0  0  0  0  0  0  0  0  0  0  0  0
   -2.6775   -1.0347    0.8528 H   0  0  0  0  0  0  0  0  0  0  0  0
   -2.0103    1.8526   -0.0242 H   0  0  0  0  0  0  0  0  0  0  0  0
   -1.1371   -0.6978   -0.9987 H   0  0  0  0  0  0  0  0  0  0  0  0
   -0.8258    1.2134    2.0555 H   0  0  0  0  0  0  0  0  0  0  0  0
   -0.2310   -0.2895    1.3129 H   0  0  0  0  0  0  0  0  0  0  0  0
    1.1785   -1.0543   -0.1729 H   0  0  0  0  0  0  0  0  0  0  0  0
    3.3657   -1.8212   -0.9247 H   0  0  0  0  0  0  0  0  0  0  0  0
    5.5301   -1.2074   -1.9680 H   0  0  0  0  0  0  0  0  0  0  0  0
    6.1725    0.4542   -1.8182 H   0  0  0  0  0  0  0  0  0  0  0  0
    8.4467   -1.5884    0.4148 H   0  0  0  0  0  0  0  0  0  0  0  0
    8.1994   -1.3339   -1.3499 H   0  0  0  0  0  0  0  0  0  0  0  0
    4.9129    2.1851   -0.5637 H   0  0  0  0  0  0  0  0  0  0  0  0
    2.7120    2.9607    0.2174 H   0  0  0  0  0  0  0  0  0  0  0  0
  1  2  1  0
  2  3  1  0
  2  4  1  0
  4  5  1  0
  5  6  1  0
  6  7  1  0
  6  8  1  0
  8  9  1  0
  9 10  1  0
 10 11  2  0
 11 12  1  0
 12 13  2  0
 13 14  1  0
 14 15  1  0
 15 16  2  0
 15 17  1  0
 13 18  1  0
 18 19  2  0
 19 10  1  0
  1 20  1  0
  1 21  1  0
  1 22  1  0
  2 23  1  0
  3 24  1  0
  3 25  1  0
  3 26  1  0
  4 27  1  0
  5 28  1  0
  5 29  1  0
  6 30  1  0
  7 31  1  0
  8 32  1  0
  8 33  1  0
 11 34  1  0
 12 35  1  0
 14 36  1  0
 14 37  1  0
 17 38  1  0
 17 39  1  0
 18 40  1  0
 19 41  1  0
M  END
> <ID>
HT0192

> <Class>
1.0

> <Clusters>
169

> <Fold>
1

$$$$