
     RDKit          3D

 53 56  0  0  0  0  0  0  0  0999 V2000
    5.6266    0.0997   -1.0527 C   0  0  0  0  0  0  0  0  0  0  0  0
    4.3433   -0.6316   -1.3322 C   0  0  0  0  0  0  0  0  0  0  0  0
    4.1441   -1.0473   -2.4639 O   0  0  0  0  0  0  0  0  0  0  0  0
    3.2968   -0.9069   -0.2617 C   0  0  1  0  0  0  0  0  0  0  0  0
    3.6753   -0.5055    1.1891 C   0  0  0  0  0  0  0  0  0  0  0  0
    2.3624   -0.1039    1.8867 C   0  0  0  0  0  0  0  0  0  0  0  0
    1.2762   -0.4450    0.8732 C   0  0  1  0  0  0  0  0  0  0  0  0
   -0.1047    0.2332    0.9942 C   0  0  2  0  0  0  0  0  0  0  0  0
   -0.7089    0.0010    2.3904 C   0  0  0  0  0  0  0  0  0  0  0  0
   -2.0715    0.6769    2.5021 C   0  0  0  0  0  0  0  0  0  0  0  0
   -3.0014    0.1910    1.4152 C   0  0  0  0  0  0  0  0  0  0  0  0
   -4.2690   -0.1214    1.7413 C   0  0  0  0  0  0  0  0  0  0  0  0
   -5.2697   -0.4727    0.7264 C   0  0  0  0  0  0  0  0  0  0  0  0
   -6.4361   -0.7873    1.0824 O   0  0  0  0  0  0  0  0  0  0  0  0
   -4.9334   -0.3876   -0.7257 C   0  0  0  0  0  0  0  0  0  0  0  0
   -3.4439   -0.6673   -0.9401 C   0  0  0  0  0  0  0  0  0  0  0  0
   -2.5136    0.2151   -0.0429 C   0  0  1  0  0  0  0  0  0  0  0  0
   -2.5640    1.6815   -0.5426 C   0  0  0  0  0  0  0  0  0  0  0  0
   -1.0486   -0.3739   -0.0995 C   0  0  1  0  0  0  0  0  0  0  0  0
   -0.4041   -0.3300   -1.5230 C   0  0  0  0  0  0  0  0  0  0  0  0
    1.0384   -0.8906   -1.5621 C   0  0  0  0  0  0  0  0  0  0  0  0
    1.9325   -0.2177   -0.4963 C   0  0  2  0  0  0  0  0  0  0  0  0
    2.1513    1.2906   -0.8475 C   0  0  0  0  0  0  0  0  0  0  0  0
    6.1977   -0.4299   -0.2615 H   0  0  0  0  0  0  0  0  0  0  0  0
    5.4077    1.1393   -0.7299 H   0  0  0  0  0  0  0  0  0  0  0  0
    6.2566    0.1465   -1.9662 H   0  0  0  0  0  0  0  0  0  0  0  0
    3.1405   -2.0112   -0.2575 H   0  0  0  0  0  0  0  0  0  0  0  0
    4.3684    0.3599    1.2284 H   0  0  0  0  0  0  0  0  0  0  0  0
    4.1525   -1.3631    1.7126 H   0  0  0  0  0  0  0  0  0  0  0  0
    2.2226   -0.6743    2.8310 H   0  0  0  0  0  0  0  0  0  0  0  0
    2.3554    0.9847    2.1140 H   0  0  0  0  0  0  0  0  0  0  0  0
    1.0954   -1.5420    0.9982 H   0  0  0  0  0  0  0  0  0  0  0  0
    0.0100    1.3267    0.8595 H   0  0  0  0  0  0  0  0  0  0  0  0
   -0.8160   -1.0884    2.5920 H   0  0  0  0  0  0  0  0  0  0  0  0
   -0.0423    0.4312    3.1689 H   0  0  0  0  0  0  0  0  0  0  0  0
   -1.9462    1.7769    2.4046 H   0  0  0  0  0  0  0  0  0  0  0  0
   -2.4834    0.4794    3.5164 H   0  0  0  0  0  0  0  0  0  0  0  0
   -4.5871   -0.0992    2.7773 H   0  0  0  0  0  0  0  0  0  0  0  0
   -5.5292   -1.1344   -1.2936 H   0  0  0  0  0  0  0  0  0  0  0  0
   -5.1972    0.6214   -1.1058 H   0  0  0  0  0  0  0  0  0  0  0  0
   -3.2206   -0.5104   -2.0172 H   0  0  0  0  0  0  0  0  0  0  0  0
   -3.2674   -1.7448   -0.7204 H   0  0  0  0  0  0  0  0  0  0  0  0
   -2.4090    1.7415   -1.6396 H   0  0  0  0  0  0  0  0  0  0  0  0
   -1.7996    2.3117   -0.0470 H   0  0  0  0  0  0  0  0  0  0  0  0
   -3.5533    2.1370   -0.3239 H   0  0  0  0  0  0  0  0  0  0  0  0
   -1.1389   -1.4579    0.1467 H   0  0  0  0  0  0  0  0  0  0  0  0
   -0.3986    0.7043   -1.9181 H   0  0  0  0  0  0  0  0  0  0  0  0
   -1.0082   -0.9361   -2.2283 H   0  0  0  0  0  0  0  0  0  0  0  0
    0.9995   -1.9896   -1.3922 H   0  0  0  0  0  0  0  0  0  0  0  0
    1.4639   -0.7294   -2.5759 H   0  0  0  0  0  0  0  0  0  0  0  0
    2.6274    1.3865   -1.8465 H   0  0  0  0  0  0  0  0  0  0  0  0
    1.2095    1.8684   -0.8941 H   0  0  0  0  0  0  0  0  0  0  0  0
    2.8118    1.7950   -0.1124 H   0  0  0  0  0  0  0  0  0  0  0  0
  1  2  1  0
  2  3  2  0
  4  2  1  0
  4  5  1  0
  5  6  1  0
  7  6  1  0
  7  8  1  0
  8  9  1  0
  9 10  1  0
 10 11  1  0
 11 12  2  0
 12 13  1  0
 13 14  2  0
 13 15  1  0
 15 16  1  0
 16 17  1  0
 17 11  1  0
 17 18  1  6
 17 19  1  0
 19  8  1  0
 19 20  1  0
 20 21  1  0
 21 22  1  0
 22  4  1  0
 22  7  1  0
 22 23  1  6
  1 24  1  0
  1 25  1  0
  1 26  1  0
  4 27  1  1
  5 28  1  0
  5 29  1  0
  6 30  1  0
  6 31  1  0
  7 32  1  6
  8 33  1  6
  9 34  1  0
  9 35  1  0
 10 36  1  0
 10 37  1  0
 12 38  1  0
 15 39  1  0
 15 40  1  0
 16 41  1  0
 16 42  1  0
 18 43  1  0
 18 44  1  0
 18 45  1  0
 19 46  1  1
 20 47  1  0
 20 48  1  0
 21 49  1  0
 21 50  1  0
 23 51  1  0
 23 52  1  0
 23 53  1  0
M  END
> <ID>
HT1751

> <Class>
1.0

> <Clusters>
224

> <Fold>
1

$$$$