
     RDKit          3D

 53 56  0  0  0  0  0  0  0  0999 V2000
    6.4057    0.9113   -0.1765 C   0  0  0  0  0  0  0  0  0  0  0  0
    5.3393   -0.0711    0.1680 C   0  0  0  0  0  0  0  0  0  0  0  0
    5.6595   -1.1922    0.6476 O   0  0  0  0  0  0  0  0  0  0  0  0
    3.9952    0.2663   -0.0456 O   0  0  0  0  0  0  0  0  0  0  0  0
    2.8789   -0.5861    0.2497 C   0  0  1  0  0  0  0  0  0  0  0  0
    2.8276   -0.9575    1.7592 C   0  0  0  0  0  0  0  0  0  0  0  0
    1.3523   -0.8859    2.1966 C   0  0  0  0  0  0  0  0  0  0  0  0
    0.5780   -0.6599    0.9033 C   0  0  1  0  0  0  0  0  0  0  0  0
   -0.8393   -0.0544    0.9832 C   0  0  2  0  0  0  0  0  0  0  0  0
   -1.7537   -0.8981    1.8897 C   0  0  0  0  0  0  0  0  0  0  0  0
   -3.1335   -0.2531    2.0032 C   0  0  0  0  0  0  0  0  0  0  0  0
   -3.7312    0.0022    0.6410 C   0  0  0  0  0  0  0  0  0  0  0  0
   -5.0518   -0.1832    0.4674 C   0  0  0  0  0  0  0  0  0  0  0  0
   -5.7308    0.2305   -0.7665 C   0  0  0  0  0  0  0  0  0  0  0  0
   -6.9557   -0.0175   -0.9227 O   0  0  0  0  0  0  0  0  0  0  0  0
   -4.9891    1.0182   -1.7969 C   0  0  0  0  0  0  0  0  0  0  0  0
   -3.5255    0.5812   -1.8348 C   0  0  0  0  0  0  0  0  0  0  0  0
   -2.8595    0.6565   -0.4346 C   0  0  2  0  0  0  0  0  0  0  0  0
   -1.4434    0.0009   -0.4565 C   0  0  1  0  0  0  0  0  0  0  0  0
   -0.4855    0.7045   -1.4666 C   0  0  0  0  0  0  0  0  0  0  0  0
    0.9617    0.1582   -1.4226 C   0  0  0  0  0  0  0  0  0  0  0  0
    1.5286    0.1632    0.0208 C   0  0  2  0  0  0  0  0  0  0  0  0
    1.6892    1.6462    0.5007 C   0  0  0  0  0  0  0  0  0  0  0  0
    2.9814   -1.8208   -0.5679 C   0  0  0  0  0  0  0  0  0  0  0  0
    3.0679   -2.8253   -1.2294 C   0  0  0  0  0  0  0  0  0  0  0  0
    6.9898    1.1624    0.7334 H   0  0  0  0  0  0  0  0  0  0  0  0
    7.0831    0.4746   -0.9397 H   0  0  0  0  0  0  0  0  0  0  0  0
    5.9538    1.8403   -0.5834 H   0  0  0  0  0  0  0  0  0  0  0  0
    3.4198   -0.2313    2.3583 H   0  0  0  0  0  0  0  0  0  0  0  0
    3.2426   -1.9715    1.9564 H   0  0  0  0  0  0  0  0  0  0  0  0
    1.0381   -1.8320    2.6890 H   0  0  0  0  0  0  0  0  0  0  0  0
    1.1939   -0.0399    2.9008 H   0  0  0  0  0  0  0  0  0  0  0  0
    0.4572   -1.6718    0.4445 H   0  0  0  0  0  0  0  0  0  0  0  0
   -0.7932    0.9656    1.4184 H   0  0  0  0  0  0  0  0  0  0  0  0
   -1.3197   -0.9686    2.9101 H   0  0  0  0  0  0  0  0  0  0  0  0
   -1.8552   -1.9305    1.4870 H   0  0  0  0  0  0  0  0  0  0  0  0
   -3.7848   -0.9121    2.6189 H   0  0  0  0  0  0  0  0  0  0  0  0
   -3.0395    0.7187    2.5349 H   0  0  0  0  0  0  0  0  0  0  0  0
   -5.6520   -0.6169    1.2589 H   0  0  0  0  0  0  0  0  0  0  0  0
   -5.0532    2.0983   -1.5433 H   0  0  0  0  0  0  0  0  0  0  0  0
   -5.4466    0.8618   -2.7980 H   0  0  0  0  0  0  0  0  0  0  0  0
   -2.9967    1.2495   -2.5464 H   0  0  0  0  0  0  0  0  0  0  0  0
   -3.4700   -0.4589   -2.2267 H   0  0  0  0  0  0  0  0  0  0  0  0
   -2.7487    1.7297   -0.1619 H   0  0  0  0  0  0  0  0  0  0  0  0
   -1.5644   -1.0490   -0.8116 H   0  0  0  0  0  0  0  0  0  0  0  0
   -0.8539    0.5404   -2.5008 H   0  0  0  0  0  0  0  0  0  0  0  0
   -0.4902    1.8015   -1.2998 H   0  0  0  0  0  0  0  0  0  0  0  0
    0.9400   -0.8723   -1.8369 H   0  0  0  0  0  0  0  0  0  0  0  0
    1.6103    0.7675   -2.0888 H   0  0  0  0  0  0  0  0  0  0  0  0
    2.1126    1.7082    1.5242 H   0  0  0  0  0  0  0  0  0  0  0  0
    2.3759    2.1946   -0.1787 H   0  0  0  0  0  0  0  0  0  0  0  0
    0.7416    2.2146    0.5067 H   0  0  0  0  0  0  0  0  0  0  0  0
    3.1432   -3.7067   -1.8100 H   0  0  0  0  0  0  0  0  0  0  0  0
  1  2  1  0
  2  3  2  0
  2  4  1  0
  4  5  1  0
  5  6  1  0
  6  7  1  0
  8  7  1  0
  8  9  1  0
  9 10  1  0
 10 11  1  0
 11 12  1  0
 12 13  2  0
 13 14  1  0
 14 15  2  0
 14 16  1  0
 16 17  1  0
 18 17  1  0
 18 12  1  0
 18 19  1  0
 19  9  1  0
 19 20  1  0
 20 21  1  0
 21 22  1  0
 22  5  1  0
 22  8  1  0
 22 23  1  1
  5 24  1  6
 24 25  3  0
  1 26  1  0
  1 27  1  0
  1 28  1  0
  6 29  1  0
  6 30  1  0
  7 31  1  0
  7 32  1  0
  8 33  1  6
  9 34  1  1
 10 35  1  0
 10 36  1  0
 11 37  1  0
 11 38  1  0
 13 39  1  0
 16 40  1  0
 16 41  1  0
 17 42  1  0
 17 43  1  0
 18 44  1  1
 19 45  1  6
 20 46  1  0
 20 47  1  0
 21 48  1  0
 21 49  1  0
 23 50  1  0
 23 51  1  0
 23 52  1  0
 25 53  1  0
M  END
> <ID>
HT1522

> <Class>
1.0

> <Clusters>
183

> <Fold>
1

$$$$