
     RDKit          3D

 45 46  0  0  0  0  0  0  0  0999 V2000
    4.5955    0.8804    1.2083 C   0  0  0  0  0  0  0  0  0  0  0  0
    4.1259    0.4108   -0.1654 C   0  0  0  0  0  0  0  0  0  0  0  0
    2.5967    0.3467   -0.2338 C   0  0  0  0  0  0  0  0  0  0  0  0
    2.1254   -0.1159   -1.6167 C   0  0  0  0  0  0  0  0  0  0  0  0
    0.6635   -0.1717   -1.6733 N   0  0  0  0  0  0  0  0  0  0  0  0
   -0.1492   -1.0664   -0.8855 C   0  0  0  0  0  0  0  0  0  0  0  0
    0.3642   -2.2917   -0.4231 C   0  0  0  0  0  0  0  0  0  0  0  0
   -0.4459   -3.1957    0.2823 C   0  0  0  0  0  0  0  0  0  0  0  0
   -1.7863   -2.8620    0.5281 C   0  0  0  0  0  0  0  0  0  0  0  0
   -2.3175   -1.6491    0.0722 C   0  0  0  0  0  0  0  0  0  0  0  0
   -1.4948   -0.7374   -0.6113 C   0  0  0  0  0  0  0  0  0  0  0  0
   -2.0278    0.4955   -1.0119 O   0  0  0  0  0  0  0  0  0  0  0  0
   -1.5430    1.7418   -0.5868 C   0  0  0  0  0  0  0  0  0  0  0  0
   -1.9485    2.8902   -1.2777 C   0  0  0  0  0  0  0  0  0  0  0  0
   -1.4869    4.1509   -0.8867 C   0  0  0  0  0  0  0  0  0  0  0  0
   -0.6215    4.2724    0.2038 C   0  0  0  0  0  0  0  0  0  0  0  0
   -0.2217    3.1340    0.9084 C   0  0  0  0  0  0  0  0  0  0  0  0
   -0.6827    1.8723    0.5210 C   0  0  0  0  0  0  0  0  0  0  0  0
   -3.9995   -1.2433    0.4277 S   0  0  0  0  0  0  0  0  0  0  0  0
   -4.6451   -0.6406   -0.7888 O   0  0  0  0  0  0  0  0  0  0  0  0
   -4.7602   -2.4825    0.8089 O   0  0  0  0  0  0  0  0  0  0  0  0
   -4.0551   -0.1173    1.7386 N   0  0  0  0  0  0  0  0  0  0  0  0
    0.1238   -4.4768    0.7673 C   0  0  0  0  0  0  0  0  0  0  0  0
    1.3667   -4.5803    0.9461 O   0  0  0  0  0  0  0  0  0  0  0  0
   -0.6794   -5.5882    1.0208 O   0  0  0  0  0  0  0  0  0  0  0  0
    5.7050    0.9185    1.2290 H   0  0  0  0  0  0  0  0  0  0  0  0
    4.2008    1.8961    1.4245 H   0  0  0  0  0  0  0  0  0  0  0  0
    4.2494    0.1771    1.9956 H   0  0  0  0  0  0  0  0  0  0  0  0
    4.5522   -0.5963   -0.3668 H   0  0  0  0  0  0  0  0  0  0  0  0
    4.5071    1.1158   -0.9361 H   0  0  0  0  0  0  0  0  0  0  0  0
    2.1761    1.3551   -0.0279 H   0  0  0  0  0  0  0  0  0  0  0  0
    2.2247   -0.3546    0.5439 H   0  0  0  0  0  0  0  0  0  0  0  0
    2.5582   -1.1046   -1.8763 H   0  0  0  0  0  0  0  0  0  0  0  0
    2.4865    0.6095   -2.3786 H   0  0  0  0  0  0  0  0  0  0  0  0
    0.1898    0.5057   -2.3124 H   0  0  0  0  0  0  0  0  0  0  0  0
    1.3893   -2.5620   -0.6326 H   0  0  0  0  0  0  0  0  0  0  0  0
   -2.4154   -3.5268    1.1033 H   0  0  0  0  0  0  0  0  0  0  0  0
   -2.6176    2.8036   -2.1243 H   0  0  0  0  0  0  0  0  0  0  0  0
   -1.7999    5.0335   -1.4294 H   0  0  0  0  0  0  0  0  0  0  0  0
   -0.2642    5.2486    0.5052 H   0  0  0  0  0  0  0  0  0  0  0  0
    0.4438    3.2290    1.7567 H   0  0  0  0  0  0  0  0  0  0  0  0
   -0.3725    1.0049    1.0883 H   0  0  0  0  0  0  0  0  0  0  0  0
   -3.5831    0.7562    1.4148 H   0  0  0  0  0  0  0  0  0  0  0  0
   -5.0599    0.1236    1.8918 H   0  0  0  0  0  0  0  0  0  0  0  0
   -1.6665   -5.6088    0.7997 H   0  0  0  0  0  0  0  0  0  0  0  0
  1  2  1  0
  2  3  1  0
  3  4  1  0
  4  5  1  0
  5  6  1  0
  6  7  2  0
  7  8  1  0
  8  9  2  0
  9 10  1  0
 10 11  2  0
 11  6  1  0
 11 12  1  0
 12 13  1  0
 13 14  2  0
 14 15  1  0
 15 16  2  0
 16 17  1  0
 17 18  2  0
 18 13  1  0
 10 19  1  0
 19 20  2  0
 19 21  2  0
 19 22  1  0
  8 23  1  0
 23 24  2  0
 23 25  1  0
  1 26  1  0
  1 27  1  0
  1 28  1  0
  2 29  1  0
  2 30  1  0
  3 31  1  0
  3 32  1  0
  4 33  1  0
  4 34  1  0
  5 35  1  0
  7 36  1  0
  9 37  1  0
 14 38  1  0
 15 39  1  0
 16 40  1  0
 17 41  1  0
 18 42  1  0
 22 43  1  0
 22 44  1  0
 25 45  1  0
M  END
> <ID>
HT0326

> <Class>
1.0

> <Clusters>
132

> <Fold>
1

$$$$