
     RDKit          3D

 43 44  0  0  0  0  0  0  0  0999 V2000
    5.4810    1.6948    0.7347 C   0  0  0  0  0  0  0  0  0  0  0  0
    5.2499    1.1444   -0.6725 C   0  0  0  0  0  0  0  0  0  0  0  0
    3.7633    0.9127   -0.9842 C   0  0  0  0  0  0  0  0  0  0  0  0
    3.1768   -0.2790   -0.2124 C   0  0  0  0  0  0  0  0  0  0  0  0
    1.7166   -0.5309   -0.6187 C   0  0  0  0  0  0  0  0  0  0  0  0
    1.1372   -1.8449   -0.0366 C   0  0  0  0  0  0  0  0  0  0  0  0
   -0.2014   -2.0858   -0.5863 N   0  0  0  0  0  0  0  0  0  0  0  0
   -1.3453   -1.2931   -0.2243 C   0  0  0  0  0  0  0  0  0  0  0  0
   -2.4522   -1.2358   -1.0771 C   0  0  0  0  0  0  0  0  0  0  0  0
   -3.5795   -0.4471   -0.7637 C   0  0  0  0  0  0  0  0  0  0  0  0
   -3.6042    0.2488    0.4805 C   0  0  0  0  0  0  0  0  0  0  0  0
   -2.4830    0.1799    1.3249 C   0  0  0  0  0  0  0  0  0  0  0  0
   -1.3686   -0.5852    0.9795 C   0  0  0  0  0  0  0  0  0  0  0  0
   -0.0121   -0.7201    2.0812 S   0  0  0  0  0  0  0  0  0  0  0  0
   -0.4965   -1.1963    3.4213 O   0  0  0  0  0  0  0  0  0  0  0  0
    0.6683    0.6116    2.2338 O   0  0  0  0  0  0  0  0  0  0  0  0
    1.1002   -1.8877    1.4357 N   0  0  0  0  0  0  0  0  0  0  0  0
   -4.9932    1.2266    1.0128 S   0  0  0  0  0  0  0  0  0  0  0  0
   -6.2790    0.5019    0.7335 O   0  0  0  0  0  0  0  0  0  0  0  0
   -4.9883    2.5376    0.2781 O   0  0  0  0  0  0  0  0  0  0  0  0
   -4.9344    1.5455    2.7138 N   0  0  0  0  0  0  0  0  0  0  0  0
   -4.7438   -0.4237   -1.7393 C   0  0  0  0  0  0  0  0  0  0  0  0
   -5.2112    0.8647   -1.9160 F   0  0  0  0  0  0  0  0  0  0  0  0
   -4.3714   -0.8985   -2.9858 F   0  0  0  0  0  0  0  0  0  0  0  0
   -5.7630   -1.2254   -1.2608 F   0  0  0  0  0  0  0  0  0  0  0  0
    4.8728    2.6094    0.8998 H   0  0  0  0  0  0  0  0  0  0  0  0
    6.5530    1.9576    0.8559 H   0  0  0  0  0  0  0  0  0  0  0  0
    5.2242    0.9355    1.5019 H   0  0  0  0  0  0  0  0  0  0  0  0
    5.6505    1.8802   -1.4031 H   0  0  0  0  0  0  0  0  0  0  0  0
    5.8204    0.1990   -0.8015 H   0  0  0  0  0  0  0  0  0  0  0  0
    3.1827    1.8339   -0.7571 H   0  0  0  0  0  0  0  0  0  0  0  0
    3.6700    0.7163   -2.0749 H   0  0  0  0  0  0  0  0  0  0  0  0
    3.7827   -1.1878   -0.4210 H   0  0  0  0  0  0  0  0  0  0  0  0
    3.2195   -0.0586    0.8734 H   0  0  0  0  0  0  0  0  0  0  0  0
    1.0936    0.3410   -0.3296 H   0  0  0  0  0  0  0  0  0  0  0  0
    1.6663   -0.6067   -1.7275 H   0  0  0  0  0  0  0  0  0  0  0  0
    1.7955   -2.6741   -0.3791 H   0  0  0  0  0  0  0  0  0  0  0  0
   -0.3016   -2.8073   -1.3363 H   0  0  0  0  0  0  0  0  0  0  0  0
   -2.4184   -1.8050   -1.9973 H   0  0  0  0  0  0  0  0  0  0  0  0
   -2.4674    0.7140    2.2638 H   0  0  0  0  0  0  0  0  0  0  0  0
    2.0482   -1.7145    1.8372 H   0  0  0  0  0  0  0  0  0  0  0  0
   -4.7137    0.6462    3.1972 H   0  0  0  0  0  0  0  0  0  0  0  0
   -4.1442    2.2060    2.8876 H   0  0  0  0  0  0  0  0  0  0  0  0
  1  2  1  0
  2  3  1  0
  3  4  1  0
  4  5  1  0
  5  6  1  0
  6  7  1  0
  7  8  1  0
  8  9  2  0
  9 10  1  0
 10 11  2  0
 11 12  1  0
 12 13  2  0
 13  8  1  0
 13 14  1  0
 14 15  2  0
 14 16  2  0
 14 17  1  0
 17  6  1  0
 11 18  1  0
 18 19  2  0
 18 20  2  0
 18 21  1  0
 10 22  1  0
 22 23  1  0
 22 24  1  0
 22 25  1  0
  1 26  1  0
  1 27  1  0
  1 28  1  0
  2 29  1  0
  2 30  1  0
  3 31  1  0
  3 32  1  0
  4 33  1  0
  4 34  1  0
  5 35  1  0
  5 36  1  0
  6 37  1  0
  7 38  1  0
  9 39  1  0
 12 40  1  0
 17 41  1  0
 21 42  1  0
 21 43  1  0
M  END
> <ID>
HT1613

> <Class>
1.0

> <Clusters>
40

> <Fold>
1

$$$$