
     RDKit          3D

 69 74  0  0  0  0  0  0  0  0999 V2000
   -1.7921   -4.7537   -1.3294 C   0  0  0  0  0  0  0  0  0  0  0  0
   -1.2564   -5.0969    0.0607 C   0  0  0  0  0  0  0  0  0  0  0  0
   -1.1026   -3.8505    0.9471 C   0  0  0  0  0  0  0  0  0  0  0  0
    0.0794   -2.9849    0.5837 C   0  0  0  0  0  0  0  0  0  0  0  0
    0.9872   -3.3225   -0.3704 N   0  0  0  0  0  0  0  0  0  0  0  0
    1.8494   -2.2900   -0.3600 C   0  0  0  0  0  0  0  0  0  0  0  0
    2.9632   -2.1041   -1.1817 C   0  0  0  0  0  0  0  0  0  0  0  0
    3.3261   -3.1072   -2.2356 C   0  0  0  0  0  0  0  0  0  0  0  0
    3.6912   -0.9050   -1.0277 C   0  0  0  0  0  0  0  0  0  0  0  0
    3.3206    0.0500   -0.0479 C   0  0  0  0  0  0  0  0  0  0  0  0
    2.1855   -0.1797    0.7600 C   0  0  0  0  0  0  0  0  0  0  0  0
    1.4748   -1.3669    0.5717 C   0  0  0  0  0  0  0  0  0  0  0  0
    0.3553   -1.7946    1.1847 N   0  0  0  0  0  0  0  0  0  0  0  0
   -0.4473   -1.0949    2.1944 C   0  0  0  0  0  0  0  0  0  0  0  0
   -1.6061   -0.3844    1.5441 C   0  0  0  0  0  0  0  0  0  0  0  0
   -2.9268   -0.7754    1.8189 C   0  0  0  0  0  0  0  0  0  0  0  0
   -3.9974   -0.1491    1.1751 C   0  0  0  0  0  0  0  0  0  0  0  0
   -3.7622    0.8821    0.2535 C   0  0  0  0  0  0  0  0  0  0  0  0
   -2.4475    1.3028    0.0088 C   0  0  0  0  0  0  0  0  0  0  0  0
   -1.3767    0.6709    0.6462 C   0  0  0  0  0  0  0  0  0  0  0  0
   -4.8913    1.5284   -0.4463 C   0  0  0  0  0  0  0  0  0  0  0  0
   -5.1556    2.8796   -0.1657 C   0  0  0  0  0  0  0  0  0  0  0  0
   -6.2501    3.5236   -0.7423 C   0  0  0  0  0  0  0  0  0  0  0  0
   -7.0944    2.8279   -1.6052 C   0  0  0  0  0  0  0  0  0  0  0  0
   -6.8406    1.4889   -1.9063 C   0  0  0  0  0  0  0  0  0  0  0  0
   -5.7337    0.8211   -1.3470 C   0  0  0  0  0  0  0  0  0  0  0  0
   -5.4666   -0.5821   -1.7573 C   0  0  0  0  0  0  0  0  0  0  0  0
   -6.3989   -1.2922   -2.2235 O   0  0  0  0  0  0  0  0  0  0  0  0
   -4.1848   -1.1195   -1.6738 O   0  0  0  0  0  0  0  0  0  0  0  0
    4.0811    1.3120    0.0608 C   0  0  0  0  0  0  0  0  0  0  0  0
    4.4763    2.0068   -1.0391 N   0  0  0  0  0  0  0  0  0  0  0  0
    5.0946    3.0813   -0.5178 C   0  0  0  0  0  0  0  0  0  0  0  0
    5.6875    4.1354   -1.2086 C   0  0  0  0  0  0  0  0  0  0  0  0
    6.2812    5.1632   -0.4525 C   0  0  0  0  0  0  0  0  0  0  0  0
    6.2692    5.1104    0.9592 C   0  0  0  0  0  0  0  0  0  0  0  0
    5.6602    4.0310    1.6272 C   0  0  0  0  0  0  0  0  0  0  0  0
    5.0784    3.0299    0.8456 C   0  0  0  0  0  0  0  0  0  0  0  0
    4.4514    1.9055    1.2322 N   0  0  0  0  0  0  0  0  0  0  0  0
    4.2419    1.4373    2.6023 C   0  0  0  0  0  0  0  0  0  0  0  0
   -1.8992   -5.6840   -1.9255 H   0  0  0  0  0  0  0  0  0  0  0  0
   -2.7889   -4.2721   -1.2478 H   0  0  0  0  0  0  0  0  0  0  0  0
   -1.1011   -4.0698   -1.8642 H   0  0  0  0  0  0  0  0  0  0  0  0
   -0.2874   -5.6343   -0.0272 H   0  0  0  0  0  0  0  0  0  0  0  0
   -1.9774   -5.7893    0.5471 H   0  0  0  0  0  0  0  0  0  0  0  0
   -2.0332   -3.2494    0.8887 H   0  0  0  0  0  0  0  0  0  0  0  0
   -0.9779   -4.1790    2.0008 H   0  0  0  0  0  0  0  0  0  0  0  0
    2.6137   -3.0283   -3.0826 H   0  0  0  0  0  0  0  0  0  0  0  0
    4.3559   -2.9342   -2.6138 H   0  0  0  0  0  0  0  0  0  0  0  0
    3.2791   -4.1342   -1.8157 H   0  0  0  0  0  0  0  0  0  0  0  0
    4.5471   -0.7148   -1.6639 H   0  0  0  0  0  0  0  0  0  0  0  0
    1.8542    0.5583    1.4763 H   0  0  0  0  0  0  0  0  0  0  0  0
   -0.8055   -1.8295    2.9478 H   0  0  0  0  0  0  0  0  0  0  0  0
    0.1720   -0.3598    2.7491 H   0  0  0  0  0  0  0  0  0  0  0  0
   -3.1287   -1.5772    2.5177 H   0  0  0  0  0  0  0  0  0  0  0  0
   -5.0090   -0.4733    1.3859 H   0  0  0  0  0  0  0  0  0  0  0  0
   -2.2514    2.1063   -0.6907 H   0  0  0  0  0  0  0  0  0  0  0  0
   -0.3702    1.0014    0.4307 H   0  0  0  0  0  0  0  0  0  0  0  0
   -4.5218    3.4306    0.5188 H   0  0  0  0  0  0  0  0  0  0  0  0
   -6.4493    4.5623   -0.5129 H   0  0  0  0  0  0  0  0  0  0  0  0
   -7.9441    3.3295   -2.0493 H   0  0  0  0  0  0  0  0  0  0  0  0
   -7.5016    0.9813   -2.5978 H   0  0  0  0  0  0  0  0  0  0  0  0
   -3.9996   -2.0722   -1.9620 H   0  0  0  0  0  0  0  0  0  0  0  0
    5.6899    4.1647   -2.2902 H   0  0  0  0  0  0  0  0  0  0  0  0
    6.7514    5.9977   -0.9565 H   0  0  0  0  0  0  0  0  0  0  0  0
    6.7302    5.9051    1.5308 H   0  0  0  0  0  0  0  0  0  0  0  0
    5.6481    3.9875    2.7072 H   0  0  0  0  0  0  0  0  0  0  0  0
    5.1017    1.7236    3.2430 H   0  0  0  0  0  0  0  0  0  0  0  0
    4.1655    0.3303    2.6301 H   0  0  0  0  0  0  0  0  0  0  0  0
    3.3146    1.8881    3.0128 H   0  0  0  0  0  0  0  0  0  0  0  0
  1  2  1  0
  2  3  1  0
  3  4  1  0
  4  5  2  0
  5  6  1  0
  6  7  2  0
  7  8  1  0
  7  9  1  0
  9 10  2  0
 10 11  1  0
 11 12  2  0
 12  6  1  0
 12 13  1  0
 13  4  1  0
 13 14  1  0
 14 15  1  0
 15 16  2  0
 16 17  1  0
 17 18  2  0
 18 19  1  0
 19 20  2  0
 20 15  1  0
 18 21  1  0
 21 22  2  0
 22 23  1  0
 23 24  2  0
 24 25  1  0
 25 26  2  0
 26 21  1  0
 26 27  1  0
 27 28  2  0
 27 29  1  0
 10 30  1  0
 30 31  2  0
 31 32  1  0
 32 33  2  0
 33 34  1  0
 34 35  2  0
 35 36  1  0
 36 37  2  0
 37 32  1  0
 37 38  1  0
 38 30  1  0
 38 39  1  0
  1 40  1  0
  1 41  1  0
  1 42  1  0
  2 43  1  0
  2 44  1  0
  3 45  1  0
  3 46  1  0
  8 47  1  0
  8 48  1  0
  8 49  1  0
  9 50  1  0
 11 51  1  0
 14 52  1  0
 14 53  1  0
 16 54  1  0
 17 55  1  0
 19 56  1  0
 20 57  1  0
 22 58  1  0
 23 59  1  0
 24 60  1  0
 25 61  1  0
 29 62  1  0
 33 63  1  0
 34 64  1  0
 35 65  1  0
 36 66  1  0
 39 67  1  0
 39 68  1  0
 39 69  1  0
M  END
> <ID>
HT1995

> <Class>
1.0

> <Clusters>
29

> <Fold>
1

$$$$