
     RDKit          3D

 14 14  0  0  0  0  0  0  0  0999 V2000
   -2.4835    1.0101   -0.1758 N   0  0  0  0  0  0  0  0  0  0  0  0
   -1.5698    0.4255    0.7550 C   0  0  0  0  0  0  0  0  0  0  0  0
   -1.9298    0.2709    1.9532 O   0  0  0  0  0  0  0  0  0  0  0  0
   -0.2189    0.0050    0.3260 C   0  0  0  0  0  0  0  0  0  0  0  0
    0.6885   -0.5708    1.2308 C   0  0  0  0  0  0  0  0  0  0  0  0
    1.9215   -0.9443    0.7977 N   0  0  0  0  0  0  0  0  0  0  0  0
    2.2967   -0.7721   -0.4963 C   0  0  0  0  0  0  0  0  0  0  0  0
    1.3999   -0.2009   -1.3993 C   0  0  0  0  0  0  0  0  0  0  0  0
    0.1668    0.1734   -0.9690 N   0  0  0  0  0  0  0  0  0  0  0  0
   -2.2235    1.1550   -1.1763 H   0  0  0  0  0  0  0  0  0  0  0  0
   -3.4350    1.3031    0.1391 H   0  0  0  0  0  0  0  0  0  0  0  0
    0.4234   -0.7230    2.2690 H   0  0  0  0  0  0  0  0  0  0  0  0
    3.2829   -1.0764   -0.8204 H   0  0  0  0  0  0  0  0  0  0  0  0
    1.6806   -0.0557   -2.4339 H   0  0  0  0  0  0  0  0  0  0  0  0
  1  2  1  0
  2  3  2  0
  2  4  1  0
  4  5  2  0
  5  6  1  0
  6  7  2  0
  7  8  1  0
  8  9  2  0
  9  4  1  0
  1 10  1  0
  1 11  1  0
  5 12  1  0
  7 13  1  0
  8 14  1  0
M  END
> <ID>
HT1774

> <Class>
1.0

> <Clusters>
137

> <Fold>
1

$$$$