
     RDKit          3D

 30 31  0  0  0  0  0  0  0  0999 V2000
   -2.9027   -1.6202   -0.0085 C   0  0  0  0  0  0  0  0  0  0  0  0
   -3.6171   -0.2933   -0.2718 C   0  0  0  0  0  0  0  0  0  0  0  0
   -2.6533    0.8343   -0.6775 C   0  0  0  0  0  0  0  0  0  0  0  0
   -1.9849    0.5076   -1.9424 N   0  0  0  0  0  0  0  0  0  0  0  0
   -0.5789    0.2747   -2.0530 C   0  0  0  0  0  0  0  0  0  0  0  0
   -0.0919   -0.0660   -3.1648 O   0  0  0  0  0  0  0  0  0  0  0  0
    0.2848    0.4368   -0.8755 C   0  0  0  0  0  0  0  0  0  0  0  0
    1.6654    0.1870   -0.9387 C   0  0  0  0  0  0  0  0  0  0  0  0
    2.4770    0.3608    0.1931 C   0  0  0  0  0  0  0  0  0  0  0  0
    1.8888    0.7812    1.4039 C   0  0  0  0  0  0  0  0  0  0  0  0
    2.8284    1.0019    2.8762 Cl  0  0  0  0  0  0  0  0  0  0  0  0
    0.5131    1.0295    1.4606 C   0  0  0  0  0  0  0  0  0  0  0  0
   -0.2925    0.8583    0.3273 C   0  0  0  0  0  0  0  0  0  0  0  0
   -1.7031    1.1125    0.4079 N   0  0  0  0  0  0  0  0  0  0  0  0
    4.2106    0.0242    0.0726 S   0  0  0  0  0  0  0  0  0  0  0  0
    4.6147   -0.0870   -1.3710 O   0  0  0  0  0  0  0  0  0  0  0  0
    4.9951    1.1429    0.6987 O   0  0  0  0  0  0  0  0  0  0  0  0
    4.5766   -1.4652    0.8714 N   0  0  0  0  0  0  0  0  0  0  0  0
   -3.6493   -2.3909    0.2765 H   0  0  0  0  0  0  0  0  0  0  0  0
   -2.1741   -1.5139    0.8226 H   0  0  0  0  0  0  0  0  0  0  0  0
   -2.3721   -1.9664   -0.9204 H   0  0  0  0  0  0  0  0  0  0  0  0
   -4.3674   -0.4419   -1.0786 H   0  0  0  0  0  0  0  0  0  0  0  0
   -4.1671    0.0078    0.6462 H   0  0  0  0  0  0  0  0  0  0  0  0
   -3.2534    1.7552   -0.8433 H   0  0  0  0  0  0  0  0  0  0  0  0
   -2.5751    0.4028   -2.7987 H   0  0  0  0  0  0  0  0  0  0  0  0
    2.1078   -0.1452   -1.8691 H   0  0  0  0  0  0  0  0  0  0  0  0
    0.0672    1.3519    2.3935 H   0  0  0  0  0  0  0  0  0  0  0  0
   -2.0972    1.4684    1.3087 H   0  0  0  0  0  0  0  0  0  0  0  0
    3.9450   -2.1917    0.4659 H   0  0  0  0  0  0  0  0  0  0  0  0
    4.3056   -1.3560    1.8737 H   0  0  0  0  0  0  0  0  0  0  0  0
  1  2  1  0
  2  3  1  0
  3  4  1  0
  4  5  1  0
  5  6  2  0
  5  7  1  0
  7  8  2  0
  8  9  1  0
  9 10  2  0
 10 11  1  0
 10 12  1  0
 12 13  2  0
 13  7  1  0
 13 14  1  0
 14  3  1  0
  9 15  1  0
 15 16  2  0
 15 17  2  0
 15 18  1  0
  1 19  1  0
  1 20  1  0
  1 21  1  0
  2 22  1  0
  2 23  1  0
  3 24  1  0
  4 25  1  0
  8 26  1  0
 12 27  1  0
 14 28  1  0
 18 29  1  0
 18 30  1  0
M  END
> <ID>
HT1789

> <Class>
1.0

> <Clusters>
40

> <Fold>
1

$$$$