
     RDKit          3D

 33 35  0  0  0  0  0  0  0  0999 V2000
   -4.2627   -0.8965    1.4076 C   0  0  0  0  0  0  0  0  0  0  0  0
   -4.0151    0.0108    0.1964 C   0  0  0  0  0  0  0  0  0  0  0  0
   -4.3882    1.4416    0.5140 C   0  0  0  0  0  0  0  0  0  0  0  0
   -3.5141    2.3487    0.5542 O   0  0  0  0  0  0  0  0  0  0  0  0
   -5.7169    1.7782    0.7590 O   0  0  0  0  0  0  0  0  0  0  0  0
   -2.5857   -0.1240   -0.3022 C   0  0  0  0  0  0  0  0  0  0  0  0
   -2.3383   -0.5380   -1.6408 C   0  0  0  0  0  0  0  0  0  0  0  0
   -1.0230   -0.6729   -2.1225 C   0  0  0  0  0  0  0  0  0  0  0  0
    0.0158   -0.3872   -1.2451 C   0  0  0  0  0  0  0  0  0  0  0  0
    1.3030   -0.4365   -1.4546 O   0  0  0  0  0  0  0  0  0  0  0  0
    1.8684   -0.0731   -0.3132 C   0  0  0  0  0  0  0  0  0  0  0  0
    0.9656    0.2201    0.6624 N   0  0  0  0  0  0  0  0  0  0  0  0
   -0.2040    0.0096    0.0360 C   0  0  0  0  0  0  0  0  0  0  0  0
   -1.4882    0.1553    0.5520 C   0  0  0  0  0  0  0  0  0  0  0  0
    3.3307    0.0054   -0.1208 C   0  0  0  0  0  0  0  0  0  0  0  0
    4.2005   -0.3135   -1.1777 C   0  0  0  0  0  0  0  0  0  0  0  0
    5.5856   -0.2405   -0.9996 C   0  0  0  0  0  0  0  0  0  0  0  0
    6.1149    0.1512    0.2338 C   0  0  0  0  0  0  0  0  0  0  0  0
    7.8527    0.2422    0.4548 Cl  0  0  0  0  0  0  0  0  0  0  0  0
    5.2570    0.4703    1.2907 C   0  0  0  0  0  0  0  0  0  0  0  0
    3.8714    0.3984    1.1164 C   0  0  0  0  0  0  0  0  0  0  0  0
   -3.9574   -1.9387    1.1726 H   0  0  0  0  0  0  0  0  0  0  0  0
   -3.6921   -0.5453    2.2934 H   0  0  0  0  0  0  0  0  0  0  0  0
   -5.3425   -0.9066    1.6675 H   0  0  0  0  0  0  0  0  0  0  0  0
   -4.7065   -0.3256   -0.6075 H   0  0  0  0  0  0  0  0  0  0  0  0
   -6.4533    1.0844    0.7125 H   0  0  0  0  0  0  0  0  0  0  0  0
   -3.1624   -0.7552   -2.3086 H   0  0  0  0  0  0  0  0  0  0  0  0
   -0.8271   -0.9871   -3.1393 H   0  0  0  0  0  0  0  0  0  0  0  0
   -1.6321    0.4788    1.5748 H   0  0  0  0  0  0  0  0  0  0  0  0
    3.8105   -0.6190   -2.1407 H   0  0  0  0  0  0  0  0  0  0  0  0
    6.2458   -0.4885   -1.8210 H   0  0  0  0  0  0  0  0  0  0  0  0
    5.6623    0.7741    2.2475 H   0  0  0  0  0  0  0  0  0  0  0  0
    3.2252    0.6499    1.9481 H   0  0  0  0  0  0  0  0  0  0  0  0
  1  2  1  0
  2  3  1  0
  3  4  2  0
  3  5  1  0
  2  6  1  0
  6  7  2  0
  7  8  1  0
  8  9  2  0
  9 10  1  0
 10 11  1  0
 11 12  2  0
 12 13  1  0
 13  9  1  0
 13 14  2  0
 14  6  1  0
 11 15  1  0
 15 16  2  0
 16 17  1  0
 17 18  2  0
 18 19  1  0
 18 20  1  0
 20 21  2  0
 21 15  1  0
  1 22  1  0
  1 23  1  0
  1 24  1  0
  2 25  1  0
  5 26  1  0
  7 27  1  0
  8 28  1  0
 14 29  1  0
 16 30  1  0
 17 31  1  0
 20 32  1  0
 21 33  1  0
M  END
> <ID>
HT0239

> <Class>
1.0

> <Clusters>
176

> <Fold>
1

$$$$