
     RDKit          3D

 48 52  0  0  0  0  0  0  0  0999 V2000
    0.6800    2.6186   -0.7215 N   0  0  0  0  0  0  0  0  0  0  0  0
    0.1995    1.9037    0.4656 C   0  0  2  0  0  0  0  0  0  0  0  0
    1.3698    1.2870    1.2114 C   0  0  0  0  0  0  0  0  0  0  0  0
    1.5554    1.6067    2.4172 O   0  0  0  0  0  0  0  0  0  0  0  0
    2.2514    0.3308    0.6006 N   0  0  0  0  0  0  0  0  0  0  0  0
    3.3020    0.7383   -0.3278 C   0  0  1  0  0  0  0  0  0  0  0  0
    4.4376   -0.2800   -0.1556 C   0  0  0  0  0  0  0  0  0  0  0  0
    3.9491   -1.3286    0.8402 C   0  0  2  0  0  0  0  0  0  0  0  0
    2.7205   -2.1350    0.4427 C   0  0  0  0  0  0  0  0  0  0  0  0
    2.5791   -0.8958    1.3140 C   0  0  2  0  0  0  0  0  0  0  0  0
    2.8009    0.7272   -1.7111 C   0  0  0  0  0  0  0  0  0  0  0  0
    2.4119    0.7175   -2.8010 N   0  0  0  0  0  0  0  0  0  0  0  0
   -0.9352    0.8707    0.1137 C   0  0  0  0  0  0  0  0  0  0  0  0
   -1.2876    0.0025    1.3634 C   0  0  0  0  0  0  0  0  0  0  0  0
   -2.4293   -0.9841    1.0409 C   0  0  0  0  0  0  0  0  0  0  0  0
   -3.6860   -0.1979    0.6208 C   0  0  0  0  0  0  0  0  0  0  0  0
   -3.3684    0.6426   -0.6310 C   0  0  0  0  0  0  0  0  0  0  0  0
   -2.9340   -0.2872   -1.7827 C   0  0  0  0  0  0  0  0  0  0  0  0
   -1.6716   -1.0789   -1.3714 C   0  0  0  0  0  0  0  0  0  0  0  0
   -1.3022   -1.9207   -2.4362 O   0  0  0  0  0  0  0  0  0  0  0  0
   -1.9927   -1.9179   -0.1076 C   0  0  0  0  0  0  0  0  0  0  0  0
   -0.5282   -0.0790   -1.0523 C   0  0  0  0  0  0  0  0  0  0  0  0
   -2.2286    1.6335   -0.3142 C   0  0  0  0  0  0  0  0  0  0  0  0
    1.4728    3.2407   -0.4394 H   0  0  0  0  0  0  0  0  0  0  0  0
   -0.0662    3.2705   -1.0513 H   0  0  0  0  0  0  0  0  0  0  0  0
   -0.2495    2.6574    1.1547 H   0  0  0  0  0  0  0  0  0  0  0  0
    3.6656    1.7590   -0.0762 H   0  0  0  0  0  0  0  0  0  0  0  0
    5.3324    0.2247    0.2682 H   0  0  0  0  0  0  0  0  0  0  0  0
    4.7356   -0.7748   -1.1070 H   0  0  0  0  0  0  0  0  0  0  0  0
    4.6068   -1.7308    1.6402 H   0  0  0  0  0  0  0  0  0  0  0  0
    2.3977   -2.0217   -0.6142 H   0  0  0  0  0  0  0  0  0  0  0  0
    2.6041   -3.0881    0.9989 H   0  0  0  0  0  0  0  0  0  0  0  0
    2.4715   -0.9460    2.4190 H   0  0  0  0  0  0  0  0  0  0  0  0
   -1.5893    0.6568    2.2113 H   0  0  0  0  0  0  0  0  0  0  0  0
   -0.4056   -0.5849    1.6988 H   0  0  0  0  0  0  0  0  0  0  0  0
   -2.6592   -1.5914    1.9434 H   0  0  0  0  0  0  0  0  0  0  0  0
   -4.5204   -0.9011    0.4054 H   0  0  0  0  0  0  0  0  0  0  0  0
   -4.0161    0.4647    1.4509 H   0  0  0  0  0  0  0  0  0  0  0  0
   -4.2762    1.2078   -0.9353 H   0  0  0  0  0  0  0  0  0  0  0  0
   -3.7607   -0.9891   -2.0312 H   0  0  0  0  0  0  0  0  0  0  0  0
   -2.7271    0.3146   -2.6954 H   0  0  0  0  0  0  0  0  0  0  0  0
   -0.4927   -2.4242   -2.1576 H   0  0  0  0  0  0  0  0  0  0  0  0
   -1.0979   -2.5007    0.2052 H   0  0  0  0  0  0  0  0  0  0  0  0
   -2.8026   -2.6476   -0.3294 H   0  0  0  0  0  0  0  0  0  0  0  0
    0.3783   -0.6533   -0.7823 H   0  0  0  0  0  0  0  0  0  0  0  0
   -0.2937    0.5093   -1.9660 H   0  0  0  0  0  0  0  0  0  0  0  0
   -2.5560    2.3239    0.4947 H   0  0  0  0  0  0  0  0  0  0  0  0
   -2.0450    2.2503   -1.2193 H   0  0  0  0  0  0  0  0  0  0  0  0
  2  1  1  0
  2  3  1  0
  3  4  2  0
  3  5  1  0
  5  6  1  0
  6  7  1  0
  7  8  1  0
  8  9  1  0
 10  9  1  0
 10  5  1  0
 10  8  1  0
  6 11  1  0
 11 12  3  0
  2 13  1  0
 13 14  1  0
 14 15  1  0
 15 16  1  0
 16 17  1  0
 17 18  1  0
 18 19  1  0
 19 20  1  0
 19 21  1  0
 21 15  1  0
 19 22  1  0
 22 13  1  0
 17 23  1  0
 23 13  1  0
  1 24  1  0
  1 25  1  0
  2 26  1  1
  6 27  1  1
  7 28  1  0
  7 29  1  0
  8 30  1  1
  9 31  1  0
  9 32  1  0
 10 33  1  1
 14 34  1  0
 14 35  1  0
 15 36  1  0
 16 37  1  0
 16 38  1  0
 17 39  1  0
 18 40  1  0
 18 41  1  0
 20 42  1  0
 21 43  1  0
 21 44  1  0
 22 45  1  0
 22 46  1  0
 23 47  1  0
 23 48  1  0
M  END
> <ID>
HT1871

> <Class>
1.0

> <Clusters>
13

> <Fold>
1

$$$$