
     RDKit          3D

 44 46  0  0  0  0  0  0  0  0999 V2000
   -3.7503   -1.4894   -2.5320 C   0  0  0  0  0  0  0  0  0  0  0  0
   -3.7219   -1.1617   -1.1019 N   0  0  0  0  0  0  0  0  0  0  0  0
   -3.2884   -2.2019   -0.1541 C   0  0  0  0  0  0  0  0  0  0  0  0
   -1.7638   -2.2472   -0.0538 C   0  0  0  0  0  0  0  0  0  0  0  0
   -1.2641   -0.9900    0.3924 O   0  0  0  0  0  0  0  0  0  0  0  0
    0.0926   -0.6932    0.5809 C   0  0  0  0  0  0  0  0  0  0  0  0
    0.4357    0.5925    1.0133 C   0  0  0  0  0  0  0  0  0  0  0  0
    1.7742    0.9406    1.2138 C   0  0  0  0  0  0  0  0  0  0  0  0
    2.7922    0.0019    0.9856 C   0  0  0  0  0  0  0  0  0  0  0  0
    4.2368    0.3863    1.1850 C   0  0  0  0  0  0  0  0  0  0  0  0
    4.7623    1.2789    0.0487 C   0  0  0  0  0  0  0  0  0  0  0  0
    6.4400    1.8991    0.4889 S   0  0  0  0  0  0  0  0  0  0  0  0
    7.1351    1.0552   -0.9219 C   0  0  0  0  0  0  0  0  0  0  0  0
    8.3709    1.0398   -1.1589 O   0  0  0  0  0  0  0  0  0  0  0  0
    6.2069    0.3955   -1.7558 N   0  0  0  0  0  0  0  0  0  0  0  0
    4.8941    0.5284   -1.2466 C   0  0  0  0  0  0  0  0  0  0  0  0
    3.9006    0.0689   -1.8697 O   0  0  0  0  0  0  0  0  0  0  0  0
    2.4510   -1.2888    0.5510 C   0  0  0  0  0  0  0  0  0  0  0  0
    1.1118   -1.6361    0.3501 C   0  0  0  0  0  0  0  0  0  0  0  0
   -4.0959    0.1773   -0.6887 C   0  0  0  0  0  0  0  0  0  0  0  0
   -3.8775    0.6517    0.6223 C   0  0  0  0  0  0  0  0  0  0  0  0
   -4.2496    1.9555    0.9564 C   0  0  0  0  0  0  0  0  0  0  0  0
   -4.8339    2.7817   -0.0018 C   0  0  0  0  0  0  0  0  0  0  0  0
   -5.0367    2.2901   -1.2902 C   0  0  0  0  0  0  0  0  0  0  0  0
   -4.6671    1.0192   -1.5992 N   0  0  0  0  0  0  0  0  0  0  0  0
   -3.3992   -2.5266   -2.7201 H   0  0  0  0  0  0  0  0  0  0  0  0
   -3.0857   -0.7954   -3.0888 H   0  0  0  0  0  0  0  0  0  0  0  0
   -4.7871   -1.3971   -2.9188 H   0  0  0  0  0  0  0  0  0  0  0  0
   -3.6496   -3.1958   -0.4979 H   0  0  0  0  0  0  0  0  0  0  0  0
   -3.7454   -2.0562    0.8458 H   0  0  0  0  0  0  0  0  0  0  0  0
   -1.4735   -3.0414    0.6676 H   0  0  0  0  0  0  0  0  0  0  0  0
   -1.3364   -2.4881   -1.0513 H   0  0  0  0  0  0  0  0  0  0  0  0
   -0.3402    1.3263    1.1925 H   0  0  0  0  0  0  0  0  0  0  0  0
    2.0183    1.9423    1.5456 H   0  0  0  0  0  0  0  0  0  0  0  0
    4.3228    0.9364    2.1476 H   0  0  0  0  0  0  0  0  0  0  0  0
    4.8752   -0.5205    1.2765 H   0  0  0  0  0  0  0  0  0  0  0  0
    4.0949    2.1555   -0.0967 H   0  0  0  0  0  0  0  0  0  0  0  0
    6.4548   -0.1154   -2.6323 H   0  0  0  0  0  0  0  0  0  0  0  0
    3.2223   -2.0252    0.3620 H   0  0  0  0  0  0  0  0  0  0  0  0
    0.8804   -2.6376    0.0142 H   0  0  0  0  0  0  0  0  0  0  0  0
   -3.4144    0.0456    1.3857 H   0  0  0  0  0  0  0  0  0  0  0  0
   -4.0812    2.3264    1.9593 H   0  0  0  0  0  0  0  0  0  0  0  0
   -5.1243    3.7933    0.2505 H   0  0  0  0  0  0  0  0  0  0  0  0
   -5.4868    2.9187   -2.0468 H   0  0  0  0  0  0  0  0  0  0  0  0
  1  2  1  0
  2  3  1  0
  3  4  1  0
  4  5  1  0
  5  6  1  0
  6  7  2  0
  7  8  1  0
  8  9  2  0
  9 10  1  0
 10 11  1  0
 11 12  1  0
 12 13  1  0
 13 14  2  0
 13 15  1  0
 15 16  1  0
 16 11  1  0
 16 17  2  0
  9 18  1  0
 18 19  2  0
 19  6  1  0
  2 20  1  0
 20 21  2  0
 21 22  1  0
 22 23  2  0
 23 24  1  0
 24 25  2  0
 25 20  1  0
  1 26  1  0
  1 27  1  0
  1 28  1  0
  3 29  1  0
  3 30  1  0
  4 31  1  0
  4 32  1  0
  7 33  1  0
  8 34  1  0
 10 35  1  0
 10 36  1  0
 11 37  1  0
 15 38  1  0
 18 39  1  0
 19 40  1  0
 21 41  1  0
 22 42  1  0
 23 43  1  0
 24 44  1  0
M  END
> <ID>
HT1848

> <Class>
1.0

> <Clusters>
199

> <Fold>
1

$$$$