
     RDKit          3D

 38 39  0  0  0  0  0  0  0  0999 V2000
    1.1079    1.2585   -1.8964 C   0  0  0  0  0  0  0  0  0  0  0  0
    1.0816   -0.1407   -1.4345 N   0  0  0  0  0  0  0  0  0  0  0  0
    1.2946   -0.2730    0.0266 C   0  0  0  0  0  0  0  0  0  0  0  0
    2.7199    0.1236    0.4513 C   0  0  0  0  0  0  0  0  0  0  0  0
    3.9661   -0.7995   -0.5188 S   0  0  0  0  0  0  0  0  0  0  0  0
    5.4321   -0.1344    0.3535 C   0  0  0  0  0  0  0  0  0  0  0  0
    5.9315   -1.1118    1.4151 C   0  0  0  0  0  0  0  0  0  0  0  0
    6.2502   -2.3248    0.8310 F   0  0  0  0  0  0  0  0  0  0  0  0
    4.9620   -1.3114    2.3806 F   0  0  0  0  0  0  0  0  0  0  0  0
    7.0631   -0.5946    2.0184 F   0  0  0  0  0  0  0  0  0  0  0  0
    0.2885    0.4851    0.7866 N   0  0  0  0  0  0  0  0  0  0  0  0
   -1.1223    0.2853    0.5890 C   0  0  0  0  0  0  0  0  0  0  0  0
   -2.0332    0.7436    1.5491 C   0  0  0  0  0  0  0  0  0  0  0  0
   -3.4099    0.5582    1.3744 C   0  0  0  0  0  0  0  0  0  0  0  0
   -4.4892    1.1675    2.6246 Cl  0  0  0  0  0  0  0  0  0  0  0  0
   -3.8912   -0.0949    0.2196 C   0  0  0  0  0  0  0  0  0  0  0  0
   -2.9772   -0.5329   -0.7508 C   0  0  0  0  0  0  0  0  0  0  0  0
   -1.6035   -0.3417   -0.5708 C   0  0  0  0  0  0  0  0  0  0  0  0
   -0.4681   -0.8484   -1.8093 S   0  0  0  0  0  0  0  0  0  0  0  0
   -0.9431   -0.3966   -3.1630 O   0  0  0  0  0  0  0  0  0  0  0  0
   -0.3482   -2.3463   -1.7961 O   0  0  0  0  0  0  0  0  0  0  0  0
   -5.6220   -0.3459   -0.0509 S   0  0  0  0  0  0  0  0  0  0  0  0
   -6.2607   -0.8990    1.1920 O   0  0  0  0  0  0  0  0  0  0  0  0
   -5.8305   -1.3296   -1.1684 O   0  0  0  0  0  0  0  0  0  0  0  0
   -6.3732    1.1520   -0.4777 N   0  0  0  0  0  0  0  0  0  0  0  0
    0.9517    1.2977   -2.9947 H   0  0  0  0  0  0  0  0  0  0  0  0
    2.1024    1.7129   -1.7165 H   0  0  0  0  0  0  0  0  0  0  0  0
    0.3240    1.8724   -1.4026 H   0  0  0  0  0  0  0  0  0  0  0  0
    1.1866   -1.3472    0.3009 H   0  0  0  0  0  0  0  0  0  0  0  0
    2.8780    1.2153    0.3315 H   0  0  0  0  0  0  0  0  0  0  0  0
    2.8486   -0.1174    1.5276 H   0  0  0  0  0  0  0  0  0  0  0  0
    5.2175    0.8519    0.8172 H   0  0  0  0  0  0  0  0  0  0  0  0
    6.2357    0.0181   -0.3976 H   0  0  0  0  0  0  0  0  0  0  0  0
    0.6011    1.1383    1.5413 H   0  0  0  0  0  0  0  0  0  0  0  0
   -1.6700    1.2419    2.4395 H   0  0  0  0  0  0  0  0  0  0  0  0
   -3.3300   -1.0154   -1.6533 H   0  0  0  0  0  0  0  0  0  0  0  0
   -5.8403    1.5403   -1.2880 H   0  0  0  0  0  0  0  0  0  0  0  0
   -6.2305    1.8105    0.3199 H   0  0  0  0  0  0  0  0  0  0  0  0
  1  2  1  0
  2  3  1  0
  3  4  1  0
  4  5  1  0
  5  6  1  0
  6  7  1  0
  7  8  1  0
  7  9  1  0
  7 10  1  0
  3 11  1  0
 11 12  1  0
 12 13  2  0
 13 14  1  0
 14 15  1  0
 14 16  2  0
 16 17  1  0
 17 18  2  0
 18 12  1  0
 18 19  1  0
 19  2  1  0
 19 20  2  0
 19 21  2  0
 16 22  1  0
 22 23  2  0
 22 24  2  0
 22 25  1  0
  1 26  1  0
  1 27  1  0
  1 28  1  0
  3 29  1  0
  4 30  1  0
  4 31  1  0
  6 32  1  0
  6 33  1  0
 11 34  1  0
 13 35  1  0
 17 36  1  0
 25 37  1  0
 25 38  1  0
M  END
> <ID>
HT1708

> <Class>
1.0

> <Clusters>
40

> <Fold>
1

$$$$