
     RDKit          3D

 28 29  0  0  0  0  0  0  0  0999 V2000
    4.1431    1.2156   -1.0395 N   0  0  0  0  0  0  0  0  0  0  0  0
    3.8291   -0.3065   -0.2787 S   0  0  0  0  0  0  0  0  0  0  0  0
    4.1648   -1.4094   -1.2427 O   0  0  0  0  0  0  0  0  0  0  0  0
    4.6962   -0.4248    0.9435 O   0  0  0  0  0  0  0  0  0  0  0  0
    2.1288   -0.4374    0.1885 C   0  0  0  0  0  0  0  0  0  0  0  0
    1.2362    0.5939   -0.1398 C   0  0  0  0  0  0  0  0  0  0  0  0
   -0.1130    0.5063    0.2201 C   0  0  0  0  0  0  0  0  0  0  0  0
   -0.5917   -0.6164    0.9020 C   0  0  0  0  0  0  0  0  0  0  0  0
   -1.9779   -0.7256    1.2632 N   0  0  0  0  0  0  0  0  0  0  0  0
   -3.0681    0.0426    0.6416 C   0  0  0  0  0  0  0  0  0  0  0  0
   -2.7654    1.4838    0.5438 N   0  0  0  0  0  0  0  0  0  0  0  0
   -1.2079    1.8173   -0.1479 S   0  0  0  0  0  0  0  0  0  0  0  0
   -0.6717    3.0891    0.4473 O   0  0  0  0  0  0  0  0  0  0  0  0
   -1.3404    1.9835   -1.6352 O   0  0  0  0  0  0  0  0  0  0  0  0
   -3.5506   -0.5865   -0.6940 C   0  0  0  0  0  0  0  0  0  0  0  0
   -2.2438   -0.9240   -1.8633 Cl  0  0  0  0  0  0  0  0  0  0  0  0
   -4.3543   -2.1434   -0.3536 Cl  0  0  0  0  0  0  0  0  0  0  0  0
   -4.7508    0.4726   -1.4838 Cl  0  0  0  0  0  0  0  0  0  0  0  0
    0.2981   -1.6445    1.2408 C   0  0  0  0  0  0  0  0  0  0  0  0
    1.6497   -1.5656    0.8855 C   0  0  0  0  0  0  0  0  0  0  0  0
    2.7044   -2.9052    1.3248 Cl  0  0  0  0  0  0  0  0  0  0  0  0
    5.1411    1.2030   -1.3476 H   0  0  0  0  0  0  0  0  0  0  0  0
    4.0680    1.9493   -0.2996 H   0  0  0  0  0  0  0  0  0  0  0  0
    1.5829    1.4696   -0.6720 H   0  0  0  0  0  0  0  0  0  0  0  0
   -2.2491   -1.4565    1.9600 H   0  0  0  0  0  0  0  0  0  0  0  0
   -3.9436   -0.0360    1.3267 H   0  0  0  0  0  0  0  0  0  0  0  0
   -2.7498    1.8716    1.5155 H   0  0  0  0  0  0  0  0  0  0  0  0
   -0.0643   -2.5162    1.7717 H   0  0  0  0  0  0  0  0  0  0  0  0
  1  2  1  0
  2  3  2  0
  2  4  2  0
  2  5  1  0
  5  6  2  0
  6  7  1  0
  7  8  2  0
  8  9  1  0
  9 10  1  0
 10 11  1  0
 11 12  1  0
 12  7  1  0
 12 13  2  0
 12 14  2  0
 10 15  1  0
 15 16  1  0
 15 17  1  0
 15 18  1  0
  8 19  1  0
 19 20  2  0
 20  5  1  0
 20 21  1  0
  1 22  1  0
  1 23  1  0
  6 24  1  0
  9 25  1  0
 10 26  1  0
 11 27  1  0
 19 28  1  0
M  END
> <ID>
HT1988

> <Class>
1.0

> <Clusters>
40

> <Fold>
1

$$$$