
     RDKit          3D

 31 32  0  0  0  0  0  0  0  0999 V2000
   -4.5514    0.4716    0.4543 C   0  0  0  0  0  0  0  0  0  0  0  0
   -3.2883   -0.1988   -0.0790 C   0  0  0  0  0  0  0  0  0  0  0  0
   -2.0445    0.2609    0.7022 C   0  0  0  0  0  0  0  0  0  0  0  0
   -0.8451   -0.5443    0.4065 N   0  0  0  0  0  0  0  0  0  0  0  0
   -0.3744   -0.4801   -0.9956 C   0  0  1  0  0  0  0  0  0  0  0  0
    0.0744    0.9497   -1.3991 C   0  0  0  0  0  0  0  0  0  0  0  0
    1.2044    1.4863   -0.4964 C   0  0  0  0  0  0  0  0  0  0  0  0
    2.2500    0.4387   -0.2355 C   0  0  0  0  0  0  0  0  0  0  0  0
    3.4478    0.7241    0.3394 N   0  0  0  0  0  0  0  0  0  0  0  0
    4.1964   -0.3924    0.4832 C   0  0  0  0  0  0  0  0  0  0  0  0
    5.5031   -0.3844    1.0508 N   0  0  0  0  0  0  0  0  0  0  0  0
    3.4155   -1.7756   -0.0821 S   0  0  0  0  0  0  0  0  0  0  0  0
    2.0435   -0.9072   -0.5188 C   0  0  0  0  0  0  0  0  0  0  0  0
    0.8163   -1.4490   -1.1862 C   0  0  0  0  0  0  0  0  0  0  0  0
   -4.4643    1.5763    0.3742 H   0  0  0  0  0  0  0  0  0  0  0  0
   -4.7186    0.1924    1.5164 H   0  0  0  0  0  0  0  0  0  0  0  0
   -5.4282    0.1400   -0.1409 H   0  0  0  0  0  0  0  0  0  0  0  0
   -3.1846    0.0695   -1.1514 H   0  0  0  0  0  0  0  0  0  0  0  0
   -3.4037   -1.3010    0.0053 H   0  0  0  0  0  0  0  0  0  0  0  0
   -2.2525    0.1635    1.7903 H   0  0  0  0  0  0  0  0  0  0  0  0
   -1.8518    1.3388    0.5269 H   0  0  0  0  0  0  0  0  0  0  0  0
   -1.0653   -1.5401    0.6456 H   0  0  0  0  0  0  0  0  0  0  0  0
   -1.1775   -0.8165   -1.6855 H   0  0  0  0  0  0  0  0  0  0  0  0
   -0.7812    1.6555   -1.3976 H   0  0  0  0  0  0  0  0  0  0  0  0
    0.4431    0.9217   -2.4485 H   0  0  0  0  0  0  0  0  0  0  0  0
    0.7837    1.8220    0.4753 H   0  0  0  0  0  0  0  0  0  0  0  0
    1.6766    2.3614   -0.9917 H   0  0  0  0  0  0  0  0  0  0  0  0
    6.0444   -1.2724    1.1407 H   0  0  0  0  0  0  0  0  0  0  0  0
    5.9283    0.5101    1.3808 H   0  0  0  0  0  0  0  0  0  0  0  0
    1.0289   -1.5677   -2.2705 H   0  0  0  0  0  0  0  0  0  0  0  0
    0.5748   -2.4528   -0.7757 H   0  0  0  0  0  0  0  0  0  0  0  0
  1  2  1  0
  2  3  1  0
  3  4  1  0
  5  4  1  0
  5  6  1  0
  6  7  1  0
  7  8  1  0
  8  9  1  0
  9 10  2  0
 10 11  1  0
 10 12  1  0
 12 13  1  0
 13  8  2  0
 13 14  1  0
 14  5  1  0
  1 15  1  0
  1 16  1  0
  1 17  1  0
  2 18  1  0
  2 19  1  0
  3 20  1  0
  3 21  1  0
  4 22  1  0
  5 23  1  6
  6 24  1  0
  6 25  1  0
  7 26  1  0
  7 27  1  0
 11 28  1  0
 11 29  1  0
 14 30  1  0
 14 31  1  0
M  END
> <ID>
HT1721

> <Class>
1.0

> <Clusters>
84

> <Fold>
1

$$$$