
     RDKit          3D

 41 41  0  0  0  0  0  0  0  0999 V2000
   -4.5819   -1.9444   -0.9850 C   0  0  0  0  0  0  0  0  0  0  0  0
   -5.2201   -0.6801   -0.3860 C   0  0  0  0  0  0  0  0  0  0  0  0
   -5.6345   -0.8943    1.0751 C   0  0  0  0  0  0  0  0  0  0  0  0
   -4.3775    0.5249   -0.5380 N   0  0  0  0  0  0  0  0  0  0  0  0
   -2.9973    0.3718   -0.0480 C   0  0  0  0  0  0  0  0  0  0  0  0
   -2.3310    1.7496    0.0779 C   0  0  0  0  0  0  0  0  0  0  0  0
   -2.2327    2.3427   -1.1915 O   0  0  0  0  0  0  0  0  0  0  0  0
   -0.9368    1.6349    0.7090 C   0  0  0  0  0  0  0  0  0  0  0  0
   -0.0773    0.8669   -0.1315 O   0  0  0  0  0  0  0  0  0  0  0  0
    1.2633    0.5750    0.1586 C   0  0  0  0  0  0  0  0  0  0  0  0
    1.9882   -0.1957   -0.7566 C   0  0  0  0  0  0  0  0  0  0  0  0
    3.3277   -0.5142   -0.5151 C   0  0  0  0  0  0  0  0  0  0  0  0
    3.9694   -0.0506    0.6469 C   0  0  0  0  0  0  0  0  0  0  0  0
    5.3388   -0.3837    0.9332 N   0  0  0  0  0  0  0  0  0  0  0  0
    6.3572   -0.5376   -0.0674 C   0  0  0  0  0  0  0  0  0  0  0  0
    6.1624   -0.1458   -1.2496 O   0  0  0  0  0  0  0  0  0  0  0  0
    7.6967   -1.0784    0.3134 C   0  0  0  0  0  0  0  0  0  0  0  0
    3.2367    0.7033    1.5750 C   0  0  0  0  0  0  0  0  0  0  0  0
    1.8974    1.0224    1.3326 C   0  0  0  0  0  0  0  0  0  0  0  0
   -3.7104   -2.2788   -0.3837 H   0  0  0  0  0  0  0  0  0  0  0  0
   -4.2521   -1.7483   -2.0273 H   0  0  0  0  0  0  0  0  0  0  0  0
   -5.3262   -2.7686   -1.0047 H   0  0  0  0  0  0  0  0  0  0  0  0
   -6.1611   -0.4971   -0.9525 H   0  0  0  0  0  0  0  0  0  0  0  0
   -6.0171    0.0560    1.5045 H   0  0  0  0  0  0  0  0  0  0  0  0
   -6.4445   -1.6525    1.1283 H   0  0  0  0  0  0  0  0  0  0  0  0
   -4.7863   -1.2555    1.6922 H   0  0  0  0  0  0  0  0  0  0  0  0
   -4.3371    0.7647   -1.5570 H   0  0  0  0  0  0  0  0  0  0  0  0
   -2.9891   -0.1114    0.9511 H   0  0  0  0  0  0  0  0  0  0  0  0
   -2.4086   -0.2592   -0.7510 H   0  0  0  0  0  0  0  0  0  0  0  0
   -2.9667    2.3807    0.7427 H   0  0  0  0  0  0  0  0  0  0  0  0
   -2.0867    3.3137   -1.0442 H   0  0  0  0  0  0  0  0  0  0  0  0
   -0.5133    2.6543    0.8402 H   0  0  0  0  0  0  0  0  0  0  0  0
   -1.0180    1.1527    1.7076 H   0  0  0  0  0  0  0  0  0  0  0  0
    1.5072   -0.5580   -1.6565 H   0  0  0  0  0  0  0  0  0  0  0  0
    3.8496   -1.1428   -1.2240 H   0  0  0  0  0  0  0  0  0  0  0  0
    5.6322   -0.4384    1.9352 H   0  0  0  0  0  0  0  0  0  0  0  0
    8.2361   -1.4451   -0.5858 H   0  0  0  0  0  0  0  0  0  0  0  0
    8.2949   -0.2776    0.7954 H   0  0  0  0  0  0  0  0  0  0  0  0
    7.5748   -1.9225    1.0241 H   0  0  0  0  0  0  0  0  0  0  0  0
    3.7091    1.0528    2.4846 H   0  0  0  0  0  0  0  0  0  0  0  0
    1.3649    1.6140    2.0647 H   0  0  0  0  0  0  0  0  0  0  0  0
  1  2  1  0
  2  3  1  0
  2  4  1  0
  4  5  1  0
  5  6  1  0
  6  7  1  0
  6  8  1  0
  8  9  1  0
  9 10  1  0
 10 11  2  0
 11 12  1  0
 12 13  2  0
 13 14  1  0
 14 15  1  0
 15 16  2  0
 15 17  1  0
 13 18  1  0
 18 19  2  0
 19 10  1  0
  1 20  1  0
  1 21  1  0
  1 22  1  0
  2 23  1  0
  3 24  1  0
  3 25  1  0
  3 26  1  0
  4 27  1  0
  5 28  1  0
  5 29  1  0
  6 30  1  0
  7 31  1  0
  8 32  1  0
  8 33  1  0
 11 34  1  0
 12 35  1  0
 14 36  1  0
 17 37  1  0
 17 38  1  0
 17 39  1  0
 18 40  1  0
 19 41  1  0
M  END
> <ID>
HT1716

> <Class>
1.0

> <Clusters>
169

> <Fold>
1

$$$$