
     RDKit          3D

 48 51  0  0  0  0  0  0  0  0999 V2000
   -3.8297    2.7202   -0.9204 C   0  0  0  0  0  0  0  0  0  0  0  0
   -4.3288    1.4614   -1.3615 O   0  0  0  0  0  0  0  0  0  0  0  0
   -3.8012    0.2172   -0.9823 C   0  0  0  0  0  0  0  0  0  0  0  0
   -4.3840   -0.9326   -1.5163 C   0  0  0  0  0  0  0  0  0  0  0  0
   -3.9023   -2.1936   -1.1753 C   0  0  0  0  0  0  0  0  0  0  0  0
   -2.8219   -2.3244   -0.2990 C   0  0  0  0  0  0  0  0  0  0  0  0
   -2.3864   -3.5686    0.0231 N   0  0  0  0  0  0  0  0  0  0  0  0
   -1.3513   -3.7682    0.8713 C   0  0  0  0  0  0  0  0  0  0  0  0
   -0.6901   -2.6832    1.4369 C   0  0  0  0  0  0  0  0  0  0  0  0
   -1.0813   -1.3619    1.1308 C   0  0  0  0  0  0  0  0  0  0  0  0
   -0.2944   -0.2125    1.7646 C   0  0  1  0  0  0  0  0  0  0  0  0
    0.0403   -0.5341    3.0968 O   0  0  0  0  0  0  0  0  0  0  0  0
    0.9673    0.2789    0.9768 C   0  0  2  0  0  0  0  0  0  0  0  0
    0.6995    1.1747   -0.2620 C   0  0  0  0  0  0  0  0  0  0  0  0
    1.8375    0.9456   -1.2861 C   0  0  2  0  0  0  0  0  0  0  0  0
    1.6498   -0.4764   -1.8336 C   0  0  0  0  0  0  0  0  0  0  0  0
    1.6598   -1.4693   -0.6448 C   0  0  0  0  0  0  0  0  0  0  0  0
    1.9631   -0.7894    0.6507 N   0  0  0  0  0  0  0  0  0  0  0  0
    3.2876   -0.1285    0.5026 C   0  0  0  0  0  0  0  0  0  0  0  0
    3.2314    0.9853   -0.5942 C   0  0  2  0  0  0  0  0  0  0  0  0
    3.5240    2.3533   -0.0155 C   0  0  0  0  0  0  0  0  0  0  0  0
    4.5294    3.1118   -0.4630 C   0  0  0  0  0  0  0  0  0  0  0  0
   -2.1935   -1.1748    0.2518 C   0  0  0  0  0  0  0  0  0  0  0  0
   -2.7154    0.0952   -0.0928 C   0  0  0  0  0  0  0  0  0  0  0  0
   -2.7697    2.8404   -1.2296 H   0  0  0  0  0  0  0  0  0  0  0  0
   -3.9181    2.8008    0.1837 H   0  0  0  0  0  0  0  0  0  0  0  0
   -4.4290    3.5302   -1.3839 H   0  0  0  0  0  0  0  0  0  0  0  0
   -5.2201   -0.8473   -2.1989 H   0  0  0  0  0  0  0  0  0  0  0  0
   -4.3736   -3.0742   -1.5946 H   0  0  0  0  0  0  0  0  0  0  0  0
   -1.0336   -4.7764    1.1015 H   0  0  0  0  0  0  0  0  0  0  0  0
    0.1492   -2.8852    2.0879 H   0  0  0  0  0  0  0  0  0  0  0  0
   -0.9555    0.6655    1.8718 H   0  0  0  0  0  0  0  0  0  0  0  0
    0.9100   -1.0122    3.1014 H   0  0  0  0  0  0  0  0  0  0  0  0
    1.4385    0.9719    1.7150 H   0  0  0  0  0  0  0  0  0  0  0  0
    0.6487    2.2459    0.0311 H   0  0  0  0  0  0  0  0  0  0  0  0
   -0.2660    0.9228   -0.7397 H   0  0  0  0  0  0  0  0  0  0  0  0
    1.7797    1.6875   -2.1125 H   0  0  0  0  0  0  0  0  0  0  0  0
    0.6891   -0.5509   -2.3898 H   0  0  0  0  0  0  0  0  0  0  0  0
    2.4656   -0.7234   -2.5483 H   0  0  0  0  0  0  0  0  0  0  0  0
    2.4132   -2.2661   -0.8319 H   0  0  0  0  0  0  0  0  0  0  0  0
    0.6894   -1.9895   -0.6126 H   0  0  0  0  0  0  0  0  0  0  0  0
    3.6182    0.2774    1.4853 H   0  0  0  0  0  0  0  0  0  0  0  0
    4.0567   -0.8852    0.2282 H   0  0  0  0  0  0  0  0  0  0  0  0
    4.0010    0.7475   -1.3644 H   0  0  0  0  0  0  0  0  0  0  0  0
    2.9082    2.7346    0.7931 H   0  0  0  0  0  0  0  0  0  0  0  0
    5.1754    2.7751   -1.2677 H   0  0  0  0  0  0  0  0  0  0  0  0
    4.7109    4.0860   -0.0207 H   0  0  0  0  0  0  0  0  0  0  0  0
   -2.2977    0.9988    0.3107 H   0  0  0  0  0  0  0  0  0  0  0  0
  1  2  1  0
  2  3  1  0
  3  4  2  0
  4  5  1  0
  5  6  2  0
  6  7  1  0
  7  8  2  0
  8  9  1  0
  9 10  2  0
 10 11  1  0
 11 12  1  0
 13 11  1  0
 13 14  1  0
 14 15  1  0
 15 16  1  0
 16 17  1  0
 17 18  1  0
 18 13  1  0
 18 19  1  0
 19 20  1  0
 20 15  1  0
 20 21  1  0
 21 22  2  3
 10 23  1  0
 23  6  1  0
 23 24  2  0
 24  3  1  0
  1 25  1  0
  1 26  1  0
  1 27  1  0
  4 28  1  0
  5 29  1  0
  8 30  1  0
  9 31  1  0
 11 32  1  1
 12 33  1  0
 13 34  1  1
 14 35  1  0
 14 36  1  0
 15 37  1  6
 16 38  1  0
 16 39  1  0
 17 40  1  0
 17 41  1  0
 19 42  1  0
 19 43  1  0
 20 44  1  6
 21 45  1  0
 22 46  1  0
 22 47  1  0
 24 48  1  0
M  END
> <ID>
HT1790

> <Class>
1.0

> <Clusters>
176

> <Fold>
1

$$$$