
     RDKit          3D

 66 67  0  0  0  0  0  0  0  0999 V2000
    7.5290   -3.1871    1.4238 C   0  0  0  0  0  0  0  0  0  0  0  0
    7.4160   -1.6840    1.6716 C   0  0  0  0  0  0  0  0  0  0  0  0
    7.5538   -1.3675    3.1597 C   0  0  0  0  0  0  0  0  0  0  0  0
    6.1416   -1.2294    1.2125 O   0  0  0  0  0  0  0  0  0  0  0  0
    5.9643   -0.2553    0.2223 C   0  0  0  0  0  0  0  0  0  0  0  0
    6.9536    0.2808   -0.3485 O   0  0  0  0  0  0  0  0  0  0  0  0
    4.5787    0.1245   -0.1916 C   0  0  0  0  0  0  0  0  0  0  0  0
    4.1651   -0.6458   -1.4512 C   0  0  0  0  0  0  0  0  0  0  0  0
    2.7275   -0.3236   -1.8765 C   0  0  0  0  0  0  0  0  0  0  0  0
    2.6124    1.0908   -2.3960 C   0  0  0  0  0  0  0  0  0  0  0  0
    1.9957    2.1162   -1.7761 C   0  0  0  0  0  0  0  0  0  0  0  0
    1.3184    2.0623   -0.4222 C   0  0  0  0  0  0  0  0  0  0  0  0
   -0.2309    2.1456   -0.4900 C   0  0  1  0  0  0  0  0  0  0  0  0
   -0.7843    3.4291   -1.1402 C   0  0  1  0  0  0  0  0  0  0  0  0
    0.1419    4.4849   -1.1388 O   0  0  0  0  0  0  0  0  0  0  0  0
   -1.1815    3.0341   -2.5550 C   0  0  0  0  0  0  0  0  0  0  0  0
   -1.6709    1.5957   -2.4388 C   0  0  1  0  0  0  0  0  0  0  0  0
   -1.4500    0.8933   -3.6341 O   0  0  0  0  0  0  0  0  0  0  0  0
   -0.8638    0.9717   -1.2840 C   0  0  2  0  0  0  0  0  0  0  0  0
   -1.7086    0.0636   -0.4126 C   0  0  0  0  0  0  0  0  0  0  0  0
   -2.7804    0.5056    0.2700 C   0  0  0  0  0  0  0  0  0  0  0  0
   -3.6055   -0.4049    1.1408 C   0  0  0  0  0  0  0  0  0  0  0  0
   -4.5268    0.3617    1.8330 F   0  0  0  0  0  0  0  0  0  0  0  0
   -2.7840   -1.0349    2.0606 F   0  0  0  0  0  0  0  0  0  0  0  0
   -4.3365   -1.4594    0.2989 C   0  0  0  0  0  0  0  0  0  0  0  0
   -5.2089   -2.2412    1.1164 O   0  0  0  0  0  0  0  0  0  0  0  0
   -6.5460   -1.9352    1.4232 C   0  0  0  0  0  0  0  0  0  0  0  0
   -7.2541   -2.8261    2.2411 C   0  0  0  0  0  0  0  0  0  0  0  0
   -8.5893   -2.5790    2.5740 C   0  0  0  0  0  0  0  0  0  0  0  0
   -9.2299   -1.4351    2.0931 C   0  0  0  0  0  0  0  0  0  0  0  0
   -8.5351   -0.5369    1.2802 C   0  0  0  0  0  0  0  0  0  0  0  0
   -7.1991   -0.7804    0.9448 C   0  0  0  0  0  0  0  0  0  0  0  0
    8.5180   -3.5612    1.7651 H   0  0  0  0  0  0  0  0  0  0  0  0
    6.7267   -3.7334    1.9660 H   0  0  0  0  0  0  0  0  0  0  0  0
    7.4295   -3.3933    0.3364 H   0  0  0  0  0  0  0  0  0  0  0  0
    8.2461   -1.1799    1.1297 H   0  0  0  0  0  0  0  0  0  0  0  0
    7.4775   -0.2700    3.3190 H   0  0  0  0  0  0  0  0  0  0  0  0
    6.7473   -1.8679    3.7386 H   0  0  0  0  0  0  0  0  0  0  0  0
    8.5413   -1.7096    3.5364 H   0  0  0  0  0  0  0  0  0  0  0  0
    3.8758   -0.1051    0.6383 H   0  0  0  0  0  0  0  0  0  0  0  0
    4.5449    1.2190   -0.3822 H   0  0  0  0  0  0  0  0  0  0  0  0
    4.8630   -0.4112   -2.2855 H   0  0  0  0  0  0  0  0  0  0  0  0
    4.2334   -1.7370   -1.2478 H   0  0  0  0  0  0  0  0  0  0  0  0
    2.0296   -0.5503   -1.0483 H   0  0  0  0  0  0  0  0  0  0  0  0
    2.4458   -1.0082   -2.7042 H   0  0  0  0  0  0  0  0  0  0  0  0
    3.0859    1.2972   -3.3519 H   0  0  0  0  0  0  0  0  0  0  0  0
    2.0015    3.0747   -2.2853 H   0  0  0  0  0  0  0  0  0  0  0  0
    1.6946    2.9190    0.1764 H   0  0  0  0  0  0  0  0  0  0  0  0
    1.6114    1.1685    0.1605 H   0  0  0  0  0  0  0  0  0  0  0  0
   -0.5801    2.1332    0.5676 H   0  0  0  0  0  0  0  0  0  0  0  0
   -1.7024    3.7369   -0.5848 H   0  0  0  0  0  0  0  0  0  0  0  0
   -0.3550    5.2976   -1.4188 H   0  0  0  0  0  0  0  0  0  0  0  0
   -1.9788    3.7002   -2.9494 H   0  0  0  0  0  0  0  0  0  0  0  0
   -0.2989    3.0863   -3.2299 H   0  0  0  0  0  0  0  0  0  0  0  0
   -2.7611    1.6092   -2.2036 H   0  0  0  0  0  0  0  0  0  0  0  0
   -2.1154    1.2315   -4.2881 H   0  0  0  0  0  0  0  0  0  0  0  0
   -0.0673    0.3374   -1.7247 H   0  0  0  0  0  0  0  0  0  0  0  0
   -1.4188   -0.9819   -0.3349 H   0  0  0  0  0  0  0  0  0  0  0  0
   -3.0555    1.5552    0.2167 H   0  0  0  0  0  0  0  0  0  0  0  0
   -3.5866   -2.1458   -0.1469 H   0  0  0  0  0  0  0  0  0  0  0  0
   -4.8845   -1.0000   -0.5502 H   0  0  0  0  0  0  0  0  0  0  0  0
   -6.7669   -3.7162    2.6181 H   0  0  0  0  0  0  0  0  0  0  0  0
   -9.1269   -3.2758    3.2040 H   0  0  0  0  0  0  0  0  0  0  0  0
  -10.2639   -1.2446    2.3498 H   0  0  0  0  0  0  0  0  0  0  0  0
   -9.0324    0.3500    0.9096 H   0  0  0  0  0  0  0  0  0  0  0  0
   -6.6902   -0.0584    0.3231 H   0  0  0  0  0  0  0  0  0  0  0  0
  1  2  1  0
  2  3  1  0
  2  4  1  0
  4  5  1  0
  5  6  2  0
  5  7  1  0
  7  8  1  0
  8  9  1  0
  9 10  1  0
 10 11  2  0
 11 12  1  0
 13 12  1  0
 13 14  1  0
 14 15  1  0
 14 16  1  0
 16 17  1  0
 17 18  1  0
 17 19  1  0
 19 13  1  0
 19 20  1  0
 20 21  2  0
 21 22  1  0
 22 23  1  0
 22 24  1  0
 22 25  1  0
 25 26  1  0
 26 27  1  0
 27 28  2  0
 28 29  1  0
 29 30  2  0
 30 31  1  0
 31 32  2  0
 32 27  1  0
  1 33  1  0
  1 34  1  0
  1 35  1  0
  2 36  1  0
  3 37  1  0
  3 38  1  0
  3 39  1  0
  7 40  1  0
  7 41  1  0
  8 42  1  0
  8 43  1  0
  9 44  1  0
  9 45  1  0
 10 46  1  0
 11 47  1  0
 12 48  1  0
 12 49  1  0
 13 50  1  1
 14 51  1  1
 15 52  1  0
 16 53  1  0
 16 54  1  0
 17 55  1  1
 18 56  1  0
 19 57  1  6
 20 58  1  0
 21 59  1  0
 25 60  1  0
 25 61  1  0
 28 62  1  0
 29 63  1  0
 30 64  1  0
 31 65  1  0
 32 66  1  0
M  END
> <ID>
HT1973

> <Class>
1.0

> <Clusters>
221

> <Fold>
1

$$$$