
     RDKit          3D

 47 50  0  0  0  0  0  0  0  0999 V2000
    9.5302   -1.4882   -3.7177 Cl  0  0  0  0  0  0  0  0  0  0  0  0
    8.2907   -1.1183   -2.5367 C   0  0  0  0  0  0  0  0  0  0  0  0
    7.2143   -1.9284   -2.2101 C   0  0  0  0  0  0  0  0  0  0  0  0
    6.3959   -1.3851   -1.2129 C   0  0  0  0  0  0  0  0  0  0  0  0
    6.8348   -0.1443   -0.7600 C   0  0  0  0  0  0  0  0  0  0  0  0
    8.2417    0.2680   -1.5931 S   0  0  0  0  0  0  0  0  0  0  0  0
    6.2463    0.6357    0.3400 C   0  0  0  0  0  0  0  0  0  0  0  0
    6.8096    1.6938    0.7280 O   0  0  0  0  0  0  0  0  0  0  0  0
    5.0894    0.1641    1.0361 N   0  0  0  0  0  0  0  0  0  0  0  0
    3.7878    0.0642    0.3894 C   0  0  0  0  0  0  0  0  0  0  0  0
    2.8165    1.0748    1.0070 C   0  0  1  0  0  0  0  0  0  0  0  0
    1.4687    1.1392    0.2338 C   0  0  0  0  0  0  0  0  0  0  0  0
    0.4495    0.7576    1.2045 N   0  0  0  0  0  0  0  0  0  0  0  0
    1.1130    0.5029    2.4270 C   0  0  0  0  0  0  0  0  0  0  0  0
    0.5277    0.2047    3.4998 O   0  0  0  0  0  0  0  0  0  0  0  0
    2.4731    0.6831    2.3330 O   0  0  0  0  0  0  0  0  0  0  0  0
   -0.9463    0.5598    0.9147 C   0  0  0  0  0  0  0  0  0  0  0  0
   -1.6537   -0.5113    1.4857 C   0  0  0  0  0  0  0  0  0  0  0  0
   -2.9989   -0.7199    1.1682 C   0  0  0  0  0  0  0  0  0  0  0  0
   -3.6626    0.1410    0.2803 C   0  0  0  0  0  0  0  0  0  0  0  0
   -2.9612    1.2201   -0.2802 C   0  0  0  0  0  0  0  0  0  0  0  0
   -1.6125    1.4215    0.0267 C   0  0  0  0  0  0  0  0  0  0  0  0
   -5.0488   -0.0768   -0.0402 N   0  0  0  0  0  0  0  0  0  0  0  0
   -5.9963    1.0409   -0.0179 C   0  0  0  0  0  0  0  0  0  0  0  0
   -7.4267    0.5248    0.1537 C   0  0  0  0  0  0  0  0  0  0  0  0
   -7.7137   -0.4356   -0.8429 O   0  0  0  0  0  0  0  0  0  0  0  0
   -6.9841   -1.6251   -0.6001 C   0  0  0  0  0  0  0  0  0  0  0  0
   -5.5073   -1.3636   -0.4913 C   0  0  0  0  0  0  0  0  0  0  0  0
   -4.6876   -2.2744   -0.7895 O   0  0  0  0  0  0  0  0  0  0  0  0
    7.0324   -2.8922   -2.6632 H   0  0  0  0  0  0  0  0  0  0  0  0
    5.5280   -1.8994   -0.8268 H   0  0  0  0  0  0  0  0  0  0  0  0
    5.1716    0.0125    2.0652 H   0  0  0  0  0  0  0  0  0  0  0  0
    3.8873    0.2631   -0.7005 H   0  0  0  0  0  0  0  0  0  0  0  0
    3.3986   -0.9636    0.5214 H   0  0  0  0  0  0  0  0  0  0  0  0
    3.2845    2.0836    1.0311 H   0  0  0  0  0  0  0  0  0  0  0  0
    1.2855    2.1744   -0.1232 H   0  0  0  0  0  0  0  0  0  0  0  0
    1.4432    0.4369   -0.6299 H   0  0  0  0  0  0  0  0  0  0  0  0
   -1.1589   -1.2053    2.1520 H   0  0  0  0  0  0  0  0  0  0  0  0
   -3.5265   -1.5504    1.6186 H   0  0  0  0  0  0  0  0  0  0  0  0
   -3.4529    1.8947   -0.9688 H   0  0  0  0  0  0  0  0  0  0  0  0
   -1.0910    2.2536   -0.4273 H   0  0  0  0  0  0  0  0  0  0  0  0
   -5.9225    1.5952   -0.9756 H   0  0  0  0  0  0  0  0  0  0  0  0
   -5.7547    1.7326    0.8170 H   0  0  0  0  0  0  0  0  0  0  0  0
   -7.5739    0.1087    1.1752 H   0  0  0  0  0  0  0  0  0  0  0  0
   -8.1304    1.3742    0.0378 H   0  0  0  0  0  0  0  0  0  0  0  0
   -7.1659   -2.3211   -1.4466 H   0  0  0  0  0  0  0  0  0  0  0  0
   -7.3438   -2.1227    0.3252 H   0  0  0  0  0  0  0  0  0  0  0  0
  1  2  1  0
  2  3  2  0
  3  4  1  0
  4  5  2  0
  5  6  1  0
  6  2  1  0
  5  7  1  0
  7  8  2  0
  7  9  1  0
  9 10  1  0
 11 10  1  0
 11 12  1  0
 12 13  1  0
 13 14  1  0
 14 15  2  0
 14 16  1  0
 16 11  1  0
 13 17  1  0
 17 18  2  0
 18 19  1  0
 19 20  2  0
 20 21  1  0
 21 22  2  0
 22 17  1  0
 20 23  1  0
 23 24  1  0
 24 25  1  0
 25 26  1  0
 26 27  1  0
 27 28  1  0
 28 23  1  0
 28 29  2  0
  3 30  1  0
  4 31  1  0
  9 32  1  0
 10 33  1  0
 10 34  1  0
 11 35  1  1
 12 36  1  0
 12 37  1  0
 18 38  1  0
 19 39  1  0
 21 40  1  0
 22 41  1  0
 24 42  1  0
 24 43  1  0
 25 44  1  0
 25 45  1  0
 27 46  1  0
 27 47  1  0
M  END
> <ID>
HT1834

> <Class>
1.0

> <Clusters>
120

> <Fold>
1

$$$$