
     RDKit          3D

 91 96  0  0  0  0  0  0  0  0999 V2000
   -5.0599   -2.0347   -3.3271 C   0  0  0  0  0  0  0  0  0  0  0  0
   -4.0982   -0.9982   -2.8515 C   0  0  0  0  0  0  0  0  0  0  0  0
   -3.4088   -0.3559   -3.6880 O   0  0  0  0  0  0  0  0  0  0  0  0
   -3.9797   -0.7501   -1.4818 O   0  0  0  0  0  0  0  0  0  0  0  0
   -3.0361    0.1704   -0.9224 C   0  0  1  0  0  0  0  0  0  0  0  0
   -3.4617    0.7301    0.4896 C   0  0  2  0  0  0  0  0  0  0  0  0
   -2.3206    0.3235    1.4545 C   0  0  0  0  0  0  0  0  0  0  0  0
   -1.1191    0.2700    0.5285 C   0  0  1  0  0  0  0  0  0  0  0  0
    0.2270   -0.2785    1.0432 C   0  0  2  0  0  0  0  0  0  0  0  0
    0.6543    0.4253    2.3440 C   0  0  0  0  0  0  0  0  0  0  0  0
    2.0317   -0.0563    2.8023 C   0  0  0  0  0  0  0  0  0  0  0  0
    3.0888    0.1757    1.7073 C   0  0  1  0  0  0  0  0  0  0  0  0
    4.4890   -0.2047    2.2214 C   0  0  0  0  0  0  0  0  0  0  0  0
    5.5729   -0.2592    1.1157 C   0  0  2  0  0  0  0  0  0  0  0  0
    6.7499    0.2713    1.6722 O   0  0  0  0  0  0  0  0  0  0  0  0
    5.1621    0.5084   -0.1820 C   0  0  2  0  0  0  0  0  0  0  0  0
    3.8048   -0.0722   -0.7169 C   0  0  0  0  0  0  0  0  0  0  0  0
    2.7421   -0.5203    0.3544 C   0  0  1  0  0  0  0  0  0  0  0  0
    2.7869   -2.0753    0.4976 C   0  0  0  0  0  0  0  0  0  0  0  0
    1.2979   -0.0436   -0.0806 C   0  0  1  0  0  0  0  0  0  0  0  0
    0.8318   -0.5858   -1.4758 C   0  0  0  0  0  0  0  0  0  0  0  0
   -0.6106   -0.1587   -1.8578 C   0  0  0  0  0  0  0  0  0  0  0  0
   -1.6196   -0.4640   -0.7230 C   0  0  2  0  0  0  0  0  0  0  0  0
   -1.7314   -2.0129   -0.5362 C   0  0  0  0  0  0  0  0  0  0  0  0
    6.2402    0.4572   -1.2332 N   0  0  0  0  0  0  0  0  0  0  0  0
    5.7817    0.9532   -2.5575 C   0  0  0  0  0  0  0  0  0  0  0  0
    6.9058    0.8422   -3.6141 C   0  0  0  0  0  0  0  0  0  0  0  0
    8.2107    0.8073   -3.0576 O   0  0  0  0  0  0  0  0  0  0  0  0
    8.2992    1.7224   -1.9912 C   0  0  0  0  0  0  0  0  0  0  0  0
    7.4582    1.2125   -0.8114 C   0  0  0  0  0  0  0  0  0  0  0  0
   -4.8637    0.4524    0.9971 N   0  0  0  0  0  0  0  0  0  0  0  0
   -5.0237    1.1406    2.3272 C   0  0  0  0  0  0  0  0  0  0  0  0
   -6.4278    1.0783    2.9020 C   0  0  0  0  0  0  0  0  0  0  0  0
   -7.1513    2.1813    3.1209 C   0  0  0  0  0  0  0  0  0  0  0  0
   -5.1634   -1.0023    1.1371 C   0  0  0  0  0  0  0  0  0  0  0  0
   -6.4565   -1.3133    0.3895 C   0  0  0  0  0  0  0  0  0  0  0  0
   -7.0335    0.0195   -0.0287 C   0  0  0  0  0  0  0  0  0  0  0  0
   -5.8709    0.9969    0.0408 C   0  0  0  0  0  0  0  0  0  0  0  0
   -4.8023   -3.0122   -2.8723 H   0  0  0  0  0  0  0  0  0  0  0  0
   -5.0188   -2.1269   -4.4330 H   0  0  0  0  0  0  0  0  0  0  0  0
   -6.0903   -1.7553   -3.0280 H   0  0  0  0  0  0  0  0  0  0  0  0
   -2.9559    1.0475   -1.6044 H   0  0  0  0  0  0  0  0  0  0  0  0
   -3.3662    1.8397    0.3921 H   0  0  0  0  0  0  0  0  0  0  0  0
   -2.1694    1.0945    2.2398 H   0  0  0  0  0  0  0  0  0  0  0  0
   -2.5012   -0.6602    1.9363 H   0  0  0  0  0  0  0  0  0  0  0  0
   -0.9255    1.3365    0.2538 H   0  0  0  0  0  0  0  0  0  0  0  0
    0.1189   -1.3540    1.2795 H   0  0  0  0  0  0  0  0  0  0  0  0
    0.6758    1.5285    2.1955 H   0  0  0  0  0  0  0  0  0  0  0  0
   -0.0773    0.2044    3.1497 H   0  0  0  0  0  0  0  0  0  0  0  0
    2.3155    0.5102    3.7175 H   0  0  0  0  0  0  0  0  0  0  0  0
    1.9805   -1.1282    3.0823 H   0  0  0  0  0  0  0  0  0  0  0  0
    3.1047    1.2750    1.5260 H   0  0  0  0  0  0  0  0  0  0  0  0
    4.7738    0.5494    2.9909 H   0  0  0  0  0  0  0  0  0  0  0  0
    4.4596   -1.1880    2.7425 H   0  0  0  0  0  0  0  0  0  0  0  0
    5.7446   -1.3213    0.8219 H   0  0  0  0  0  0  0  0  0  0  0  0
    7.2843   -0.4905    2.0256 H   0  0  0  0  0  0  0  0  0  0  0  0
    4.9798    1.5724    0.0967 H   0  0  0  0  0  0  0  0  0  0  0  0
    4.0188   -0.9300   -1.3935 H   0  0  0  0  0  0  0  0  0  0  0  0
    3.3654    0.7340   -1.3443 H   0  0  0  0  0  0  0  0  0  0  0  0
    2.6140   -2.5782   -0.4748 H   0  0  0  0  0  0  0  0  0  0  0  0
    3.7748   -2.4317    0.8440 H   0  0  0  0  0  0  0  0  0  0  0  0
    2.0349   -2.4603    1.2121 H   0  0  0  0  0  0  0  0  0  0  0  0
    1.3627    1.0624   -0.2127 H   0  0  0  0  0  0  0  0  0  0  0  0
    1.5092   -0.2110   -2.2721 H   0  0  0  0  0  0  0  0  0  0  0  0
    0.9004   -1.6873   -1.5220 H   0  0  0  0  0  0  0  0  0  0  0  0
   -0.9111   -0.6835   -2.7908 H   0  0  0  0  0  0  0  0  0  0  0  0
   -0.6074    0.9301   -2.0851 H   0  0  0  0  0  0  0  0  0  0  0  0
   -2.1640   -2.4871   -1.4408 H   0  0  0  0  0  0  0  0  0  0  0  0
   -2.3459   -2.2873    0.3336 H   0  0  0  0  0  0  0  0  0  0  0  0
   -0.7586   -2.5061   -0.3760 H   0  0  0  0  0  0  0  0  0  0  0  0
    5.4460    2.0131   -2.4729 H   0  0  0  0  0  0  0  0  0  0  0  0
    4.9368    0.3572   -2.9555 H   0  0  0  0  0  0  0  0  0  0  0  0
    6.8307    1.6848   -4.3367 H   0  0  0  0  0  0  0  0  0  0  0  0
    6.7607   -0.0972   -4.1950 H   0  0  0  0  0  0  0  0  0  0  0  0
    7.9706    2.7425   -2.3051 H   0  0  0  0  0  0  0  0  0  0  0  0
    9.3632    1.8145   -1.6777 H   0  0  0  0  0  0  0  0  0  0  0  0
    7.2025    2.0867   -0.1703 H   0  0  0  0  0  0  0  0  0  0  0  0
    8.1186    0.5227   -0.2466 H   0  0  0  0  0  0  0  0  0  0  0  0
   -4.7072    2.2077    2.2477 H   0  0  0  0  0  0  0  0  0  0  0  0
   -4.3570    0.6770    3.0869 H   0  0  0  0  0  0  0  0  0  0  0  0
   -6.8555    0.1152    3.1660 H   0  0  0  0  0  0  0  0  0  0  0  0
   -6.7635    3.1695    2.8826 H   0  0  0  0  0  0  0  0  0  0  0  0
   -8.1423    2.0956    3.5541 H   0  0  0  0  0  0  0  0  0  0  0  0
   -5.2641   -1.3211    2.1986 H   0  0  0  0  0  0  0  0  0  0  0  0
   -4.3628   -1.6437    0.7387 H   0  0  0  0  0  0  0  0  0  0  0  0
   -7.1688   -1.8760    1.0330 H   0  0  0  0  0  0  0  0  0  0  0  0
   -6.2325   -1.9216   -0.5110 H   0  0  0  0  0  0  0  0  0  0  0  0
   -7.8360    0.3257    0.6789 H   0  0  0  0  0  0  0  0  0  0  0  0
   -7.4617   -0.0293   -1.0536 H   0  0  0  0  0  0  0  0  0  0  0  0
   -6.2346    2.0108    0.3258 H   0  0  0  0  0  0  0  0  0  0  0  0
   -5.4652    1.1276   -0.9861 H   0  0  0  0  0  0  0  0  0  0  0  0
  1  2  1  0
  2  3  2  0
  2  4  1  0
  5  4  1  0
  5  6  1  0
  6  7  1  0
  8  7  1  0
  8  9  1  0
  9 10  1  0
 10 11  1  0
 11 12  1  0
 12 13  1  0
 13 14  1  0
 14 15  1  0
 14 16  1  0
 16 17  1  0
 17 18  1  0
 18 12  1  0
 18 19  1  1
 18 20  1  0
 20  9  1  0
 20 21  1  0
 21 22  1  0
 22 23  1  0
 23  5  1  0
 23  8  1  0
 23 24  1  1
 16 25  1  0
 25 26  1  0
 26 27  1  0
 27 28  1  0
 28 29  1  0
 29 30  1  0
 30 25  1  0
  6 31  1  0
 31 32  1  0
 32 33  1  0
 33 34  2  3
 31 35  1  0
 35 36  1  0
 36 37  1  0
 37 38  1  0
 38 31  1  0
  1 39  1  0
  1 40  1  0
  1 41  1  0
  5 42  1  6
  6 43  1  6
  7 44  1  0
  7 45  1  0
  8 46  1  6
  9 47  1  1
 10 48  1  0
 10 49  1  0
 11 50  1  0
 11 51  1  0
 12 52  1  6
 13 53  1  0
 13 54  1  0
 14 55  1  6
 15 56  1  0
 16 57  1  1
 17 58  1  0
 17 59  1  0
 19 60  1  0
 19 61  1  0
 19 62  1  0
 20 63  1  6
 21 64  1  0
 21 65  1  0
 22 66  1  0
 22 67  1  0
 24 68  1  0
 24 69  1  0
 24 70  1  0
 26 71  1  0
 26 72  1  0
 27 73  1  0
 27 74  1  0
 29 75  1  0
 29 76  1  0
 30 77  1  0
 30 78  1  0
 32 79  1  0
 32 80  1  0
 33 81  1  0
 34 82  1  0
 34 83  1  0
 35 84  1  0
 35 85  1  0
 36 86  1  0
 36 87  1  0
 37 88  1  0
 37 89  1  0
 38 90  1  0
 38 91  1  0
M  CHG  1  31   1
M  END
> <ID>
HT1837

> <Class>
1.0

> <Clusters>
239

> <Fold>
1

$$$$