
     RDKit          3D

 62 66  0  0  0  0  0  0  0  0999 V2000
    4.2444   -2.5299    0.9837 O   0  0  0  0  0  0  0  0  0  0  0  0
    5.1546   -1.7290    0.6388 C   0  0  0  0  0  0  0  0  0  0  0  0
    6.4132   -2.1273    0.3344 N   0  0  0  0  0  0  0  0  0  0  0  0
    4.9692   -0.3897    0.5193 N   0  0  0  0  0  0  0  0  0  0  0  0
    6.1663    0.0669    0.0969 C   0  0  0  0  0  0  0  0  0  0  0  0
    3.7187    0.3558    0.6719 C   0  0  0  0  0  0  0  0  0  0  0  0
    6.5447    1.3685   -0.2395 C   0  0  0  0  0  0  0  0  0  0  0  0
    7.0360   -0.9859   -0.0086 C   0  0  0  0  0  0  0  0  0  0  0  0
    3.0111    0.4733   -0.6825 C   0  0  0  0  0  0  0  0  0  0  0  0
    7.8640    1.5694   -0.6881 C   0  0  0  0  0  0  0  0  0  0  0  0
    8.3460   -0.8207   -0.4534 C   0  0  0  0  0  0  0  0  0  0  0  0
    1.7251    1.3110   -0.5920 C   0  0  0  0  0  0  0  0  0  0  0  0
    8.7598    0.4805   -0.7952 C   0  0  0  0  0  0  0  0  0  0  0  0
    0.7306    0.7165    0.3303 N   0  0  0  0  0  0  0  0  0  0  0  0
   -0.3644    1.6715    0.6280 C   0  0  0  0  0  0  0  0  0  0  0  0
    0.2355   -0.5915   -0.1667 C   0  0  0  0  0  0  0  0  0  0  0  0
   -1.5552    1.5025   -0.3308 C   0  0  0  0  0  0  0  0  0  0  0  0
   -1.2064   -0.8707    0.2749 C   0  0  0  0  0  0  0  0  0  0  0  0
   -2.1437    0.1314   -0.2936 N   0  0  0  0  0  0  0  0  0  0  0  0
   -3.4708    0.1031    0.3853 C   0  0  0  0  0  0  0  0  0  0  0  0
   -4.4892    0.9902   -0.3168 C   0  0  0  0  0  0  0  0  0  0  0  0
   -4.0532   -1.3007    0.4639 C   0  0  0  0  0  0  0  0  0  0  0  0
   -5.4059    1.7399    0.4433 C   0  0  0  0  0  0  0  0  0  0  0  0
   -4.5535    1.0587   -1.7213 C   0  0  0  0  0  0  0  0  0  0  0  0
   -4.5155   -1.8025    1.6944 C   0  0  0  0  0  0  0  0  0  0  0  0
   -4.1609   -2.1091   -0.6851 C   0  0  0  0  0  0  0  0  0  0  0  0
   -6.3633    2.5388   -0.1877 C   0  0  0  0  0  0  0  0  0  0  0  0
   -5.5124    1.8593   -2.3474 C   0  0  0  0  0  0  0  0  0  0  0  0
   -5.0645   -3.0853    1.7742 C   0  0  0  0  0  0  0  0  0  0  0  0
   -4.7060   -3.3922   -0.5989 C   0  0  0  0  0  0  0  0  0  0  0  0
   -6.4186    2.5965   -1.5824 C   0  0  0  0  0  0  0  0  0  0  0  0
   -5.1571   -3.8802    0.6298 C   0  0  0  0  0  0  0  0  0  0  0  0
    6.8009   -3.0973    0.3379 H   0  0  0  0  0  0  0  0  0  0  0  0
    3.0594   -0.1650    1.4020 H   0  0  0  0  0  0  0  0  0  0  0  0
    3.9352    1.3681    1.0785 H   0  0  0  0  0  0  0  0  0  0  0  0
    5.8536    2.1976   -0.1660 H   0  0  0  0  0  0  0  0  0  0  0  0
    3.6963    0.9642   -1.4077 H   0  0  0  0  0  0  0  0  0  0  0  0
    2.7879   -0.5400   -1.0779 H   0  0  0  0  0  0  0  0  0  0  0  0
    8.1933    2.5644   -0.9578 H   0  0  0  0  0  0  0  0  0  0  0  0
    9.0191   -1.6635   -0.5407 H   0  0  0  0  0  0  0  0  0  0  0  0
    2.0185    2.3248   -0.2400 H   0  0  0  0  0  0  0  0  0  0  0  0
    1.2908    1.4310   -1.6090 H   0  0  0  0  0  0  0  0  0  0  0  0
    9.7692    0.6478   -1.1482 H   0  0  0  0  0  0  0  0  0  0  0  0
   -0.0166    2.7276    0.5988 H   0  0  0  0  0  0  0  0  0  0  0  0
   -0.7146    1.4989    1.6685 H   0  0  0  0  0  0  0  0  0  0  0  0
    0.2670   -0.6459   -1.2783 H   0  0  0  0  0  0  0  0  0  0  0  0
    0.8894   -1.3959    0.2322 H   0  0  0  0  0  0  0  0  0  0  0  0
   -2.2983    2.2959   -0.0906 H   0  0  0  0  0  0  0  0  0  0  0  0
   -1.2125    1.7063   -1.3683 H   0  0  0  0  0  0  0  0  0  0  0  0
   -1.2524   -0.8780    1.3872 H   0  0  0  0  0  0  0  0  0  0  0  0
   -1.4795   -1.8840   -0.0868 H   0  0  0  0  0  0  0  0  0  0  0  0
   -3.3299    0.4878    1.4231 H   0  0  0  0  0  0  0  0  0  0  0  0
   -5.3836    1.7015    1.5253 H   0  0  0  0  0  0  0  0  0  0  0  0
   -3.8562    0.5022   -2.3320 H   0  0  0  0  0  0  0  0  0  0  0  0
   -4.4566   -1.1994    2.5917 H   0  0  0  0  0  0  0  0  0  0  0  0
   -3.8056   -1.7570   -1.6445 H   0  0  0  0  0  0  0  0  0  0  0  0
   -7.0645    3.1113    0.4067 H   0  0  0  0  0  0  0  0  0  0  0  0
   -5.5510    1.9092   -3.4265 H   0  0  0  0  0  0  0  0  0  0  0  0
   -5.4196   -3.4630    2.7245 H   0  0  0  0  0  0  0  0  0  0  0  0
   -4.7770   -4.0087   -1.4856 H   0  0  0  0  0  0  0  0  0  0  0  0
   -7.1621    3.2142   -2.0694 H   0  0  0  0  0  0  0  0  0  0  0  0
   -5.5792   -4.8742    0.6945 H   0  0  0  0  0  0  0  0  0  0  0  0
  1  2  2  0
  2  3  1  0
  4  2  1  0
  5  4  1  0
  4  6  1  0
  7  5  1  0
  5  8  2  0
  6  9  1  0
 10  7  2  0
  3  8  1  0
  8 11  1  0
  9 12  1  0
 13 10  1  0
 11 13  2  0
 12 14  1  0
 14 15  1  0
 16 14  1  0
 15 17  1  0
 18 16  1  0
 17 19  1  0
 19 18  1  0
 19 20  1  0
 20 21  1  0
 20 22  1  0
 21 23  2  0
 24 21  1  0
 22 25  2  0
 26 22  1  0
 23 27  1  0
 28 24  2  0
 25 29  1  0
 30 26  2  0
 27 31  2  0
 31 28  1  0
 29 32  2  0
 32 30  1  0
  3 33  1  0
  6 34  1  0
  6 35  1  0
  7 36  1  0
  9 37  1  0
  9 38  1  0
 10 39  1  0
 11 40  1  0
 12 41  1  0
 12 42  1  0
 13 43  1  0
 15 44  1  0
 15 45  1  0
 16 46  1  0
 16 47  1  0
 17 48  1  0
 17 49  1  0
 18 50  1  0
 18 51  1  0
 20 52  1  0
 23 53  1  0
 24 54  1  0
 25 55  1  0
 26 56  1  0
 27 57  1  0
 28 58  1  0
 29 59  1  0
 30 60  1  0
 31 61  1  0
 32 62  1  0
M  END
> <ID>
HT1555

> <Class>
1.0

> <Clusters>
57

> <Fold>
1

$$$$