
     RDKit          3D

 54 54  0  0  0  0  0  0  0  0999 V2000
   -7.6082   -2.3082   -0.2495 C   0  0  0  0  0  0  0  0  0  0  0  0
   -6.6679   -2.2531   -1.4648 C   0  0  0  0  0  0  0  0  0  0  0  0
   -5.7417   -3.4744   -1.5212 C   0  0  0  0  0  0  0  0  0  0  0  0
   -5.9014   -0.9929   -1.5490 N   0  0  0  0  0  0  0  0  0  0  0  0
   -5.1764   -0.6337   -0.3174 C   0  0  0  0  0  0  0  0  0  0  0  0
   -4.0822    0.4013   -0.6138 C   0  0  0  0  0  0  0  0  0  0  0  0
   -4.6655    1.5599   -1.1525 O   0  0  0  0  0  0  0  0  0  0  0  0
   -3.0312   -0.1648   -1.5874 C   0  0  0  0  0  0  0  0  0  0  0  0
   -1.9468    0.7486   -1.7600 O   0  0  0  0  0  0  0  0  0  0  0  0
   -0.9463    1.0167   -0.8113 C   0  0  0  0  0  0  0  0  0  0  0  0
   -0.0429    2.0517   -1.0797 C   0  0  0  0  0  0  0  0  0  0  0  0
    0.9757    2.3606   -0.1740 C   0  0  0  0  0  0  0  0  0  0  0  0
    1.1041    1.6352    1.0197 C   0  0  0  0  0  0  0  0  0  0  0  0
    2.2138    1.9449    1.9893 C   0  0  0  0  0  0  0  0  0  0  0  0
    3.1465    0.8821    2.0310 O   0  0  0  0  0  0  0  0  0  0  0  0
    4.1229    1.0449    1.0227 C   0  0  0  0  0  0  0  0  0  0  0  0
    5.0327   -0.1811    1.0067 C   0  0  0  0  0  0  0  0  0  0  0  0
    5.9704   -0.0860   -0.0500 O   0  0  0  0  0  0  0  0  0  0  0  0
    7.1787    0.5226    0.3751 C   0  0  0  0  0  0  0  0  0  0  0  0
    8.1885   -0.5583    0.7716 C   0  0  0  0  0  0  0  0  0  0  0  0
    7.7299    1.3606   -0.7776 C   0  0  0  0  0  0  0  0  0  0  0  0
    0.2080    0.5906    1.2889 C   0  0  0  0  0  0  0  0  0  0  0  0
   -0.8104    0.2812    0.3825 C   0  0  0  0  0  0  0  0  0  0  0  0
   -7.0365   -2.3956    0.6986 H   0  0  0  0  0  0  0  0  0  0  0  0
   -8.2372   -1.3938   -0.2126 H   0  0  0  0  0  0  0  0  0  0  0  0
   -8.2793   -3.1896   -0.3325 H   0  0  0  0  0  0  0  0  0  0  0  0
   -7.3118   -2.3088   -2.3715 H   0  0  0  0  0  0  0  0  0  0  0  0
   -5.1730   -3.6017   -0.5773 H   0  0  0  0  0  0  0  0  0  0  0  0
   -6.3419   -4.3942   -1.6876 H   0  0  0  0  0  0  0  0  0  0  0  0
   -5.0251   -3.3681   -2.3632 H   0  0  0  0  0  0  0  0  0  0  0  0
   -6.5701   -0.2181   -1.7725 H   0  0  0  0  0  0  0  0  0  0  0  0
   -4.6968   -1.5220    0.1443 H   0  0  0  0  0  0  0  0  0  0  0  0
   -5.8821   -0.2034    0.4282 H   0  0  0  0  0  0  0  0  0  0  0  0
   -3.5943    0.6475    0.3569 H   0  0  0  0  0  0  0  0  0  0  0  0
   -4.0161    2.2990   -1.0178 H   0  0  0  0  0  0  0  0  0  0  0  0
   -3.5058   -0.3227   -2.5791 H   0  0  0  0  0  0  0  0  0  0  0  0
   -2.6516   -1.1522   -1.2474 H   0  0  0  0  0  0  0  0  0  0  0  0
   -0.1313    2.6201   -1.9969 H   0  0  0  0  0  0  0  0  0  0  0  0
    1.6655    3.1624   -0.4065 H   0  0  0  0  0  0  0  0  0  0  0  0
    1.7698    2.0507    3.0018 H   0  0  0  0  0  0  0  0  0  0  0  0
    2.6902    2.9297    1.7693 H   0  0  0  0  0  0  0  0  0  0  0  0
    4.7394    1.9485    1.2270 H   0  0  0  0  0  0  0  0  0  0  0  0
    3.6505    1.1405    0.0184 H   0  0  0  0  0  0  0  0  0  0  0  0
    5.5071   -0.3289    2.0053 H   0  0  0  0  0  0  0  0  0  0  0  0
    4.4043   -1.0784    0.8232 H   0  0  0  0  0  0  0  0  0  0  0  0
    7.0386    1.2166    1.2385 H   0  0  0  0  0  0  0  0  0  0  0  0
    8.3741   -1.2477   -0.0799 H   0  0  0  0  0  0  0  0  0  0  0  0
    9.1498   -0.0938    1.0790 H   0  0  0  0  0  0  0  0  0  0  0  0
    7.7988   -1.1490    1.6268 H   0  0  0  0  0  0  0  0  0  0  0  0
    7.9179    0.7233   -1.6683 H   0  0  0  0  0  0  0  0  0  0  0  0
    6.9950    2.1470   -1.0522 H   0  0  0  0  0  0  0  0  0  0  0  0
    8.6784    1.8559   -0.4779 H   0  0  0  0  0  0  0  0  0  0  0  0
    0.3017    0.0128    2.2003 H   0  0  0  0  0  0  0  0  0  0  0  0
   -1.4786   -0.5342    0.6197 H   0  0  0  0  0  0  0  0  0  0  0  0
  1  2  1  0
  2  3  1  0
  2  4  1  0
  4  5  1  0
  5  6  1  0
  6  7  1  0
  6  8  1  0
  8  9  1  0
  9 10  1  0
 10 11  2  0
 11 12  1  0
 12 13  2  0
 13 14  1  0
 14 15  1  0
 15 16  1  0
 16 17  1  0
 17 18  1  0
 18 19  1  0
 19 20  1  0
 19 21  1  0
 13 22  1  0
 22 23  2  0
 23 10  1  0
  1 24  1  0
  1 25  1  0
  1 26  1  0
  2 27  1  0
  3 28  1  0
  3 29  1  0
  3 30  1  0
  4 31  1  0
  5 32  1  0
  5 33  1  0
  6 34  1  0
  7 35  1  0
  8 36  1  0
  8 37  1  0
 11 38  1  0
 12 39  1  0
 14 40  1  0
 14 41  1  0
 16 42  1  0
 16 43  1  0
 17 44  1  0
 17 45  1  0
 19 46  1  0
 20 47  1  0
 20 48  1  0
 20 49  1  0
 21 50  1  0
 21 51  1  0
 21 52  1  0
 22 53  1  0
 23 54  1  0
M  END
> <ID>
HT0292

> <Class>
1.0

> <Clusters>
169

> <Fold>
1

$$$$