
     RDKit          3D

 57 59  0  0  0  0  0  0  0  0999 V2000
   -5.3642   -0.3287   -0.1056 C   0  0  0  0  0  0  0  0  0  0  0  0
   -4.2846   -0.5898    0.9420 C   0  0  0  0  0  0  0  0  0  0  0  0
   -2.9716    0.0720    0.5563 C   0  0  0  0  0  0  0  0  0  0  0  0
   -1.8501   -0.6462    0.2655 C   0  0  0  0  0  0  0  0  0  0  0  0
   -1.8732   -2.1214    0.1364 C   0  0  0  0  0  0  0  0  0  0  0  0
   -2.5905   -2.7354   -0.9037 C   0  0  0  0  0  0  0  0  0  0  0  0
   -2.5852   -4.1273   -1.0349 C   0  0  0  0  0  0  0  0  0  0  0  0
   -1.8554   -4.9126   -0.1379 C   0  0  0  0  0  0  0  0  0  0  0  0
   -1.1251   -4.3066    0.8883 C   0  0  0  0  0  0  0  0  0  0  0  0
   -1.1281   -2.9149    1.0231 C   0  0  0  0  0  0  0  0  0  0  0  0
   -0.5301    0.0096    0.0783 C   0  0  0  0  0  0  0  0  0  0  0  0
    0.2096   -0.2229   -1.0909 C   0  0  0  0  0  0  0  0  0  0  0  0
    1.4574    0.3804   -1.2710 C   0  0  0  0  0  0  0  0  0  0  0  0
    1.9931    1.2164   -0.2723 C   0  0  0  0  0  0  0  0  0  0  0  0
    3.2424    1.8456   -0.3959 O   0  0  0  0  0  0  0  0  0  0  0  0
    4.2080    1.5846   -1.4159 C   0  0  0  0  0  0  0  0  0  0  0  0
    4.8806    0.2217   -1.2052 C   0  0  0  0  0  0  0  0  0  0  0  0
    5.3342    0.0630    0.1942 N   0  0  0  0  0  0  0  0  0  0  0  0
    6.6295    0.7309    0.4106 C   0  0  0  0  0  0  0  0  0  0  0  0
    5.4565   -1.3646    0.5303 C   0  0  0  0  0  0  0  0  0  0  0  0
    1.2551    1.4410    0.8953 C   0  0  0  0  0  0  0  0  0  0  0  0
    0.0083    0.8376    1.0763 C   0  0  0  0  0  0  0  0  0  0  0  0
   -2.9561    1.5578    0.5066 C   0  0  0  0  0  0  0  0  0  0  0  0
   -3.2809    2.3132    1.6460 C   0  0  0  0  0  0  0  0  0  0  0  0
   -3.2653    3.7103    1.5924 C   0  0  0  0  0  0  0  0  0  0  0  0
   -2.9319    4.3627    0.4025 C   0  0  0  0  0  0  0  0  0  0  0  0
   -2.6152    3.6192   -0.7373 C   0  0  0  0  0  0  0  0  0  0  0  0
   -2.6300    2.2224   -0.6888 C   0  0  0  0  0  0  0  0  0  0  0  0
   -6.2971   -0.8576    0.1823 H   0  0  0  0  0  0  0  0  0  0  0  0
   -5.0384   -0.6987   -1.0999 H   0  0  0  0  0  0  0  0  0  0  0  0
   -5.5836    0.7579   -0.1754 H   0  0  0  0  0  0  0  0  0  0  0  0
   -4.6277   -0.1880    1.9183 H   0  0  0  0  0  0  0  0  0  0  0  0
   -4.1877   -1.6851    1.0854 H   0  0  0  0  0  0  0  0  0  0  0  0
   -3.1424   -2.1366   -1.6165 H   0  0  0  0  0  0  0  0  0  0  0  0
   -3.1421   -4.5969   -1.8354 H   0  0  0  0  0  0  0  0  0  0  0  0
   -1.8511   -5.9899   -0.2417 H   0  0  0  0  0  0  0  0  0  0  0  0
   -0.5549   -4.9152    1.5781 H   0  0  0  0  0  0  0  0  0  0  0  0
   -0.5562   -2.4557    1.8202 H   0  0  0  0  0  0  0  0  0  0  0  0
   -0.1871   -0.8613   -1.8709 H   0  0  0  0  0  0  0  0  0  0  0  0
    1.9885    0.1934   -2.1928 H   0  0  0  0  0  0  0  0  0  0  0  0
    3.7411    1.6403   -2.4220 H   0  0  0  0  0  0  0  0  0  0  0  0
    4.9766    2.3835   -1.3823 H   0  0  0  0  0  0  0  0  0  0  0  0
    5.7253    0.1067   -1.9219 H   0  0  0  0  0  0  0  0  0  0  0  0
    4.1361   -0.5626   -1.4647 H   0  0  0  0  0  0  0  0  0  0  0  0
    7.4206    0.3054   -0.2467 H   0  0  0  0  0  0  0  0  0  0  0  0
    6.5433    1.8199    0.2177 H   0  0  0  0  0  0  0  0  0  0  0  0
    6.9454    0.6190    1.4703 H   0  0  0  0  0  0  0  0  0  0  0  0
    6.1693   -1.8792   -0.1526 H   0  0  0  0  0  0  0  0  0  0  0  0
    5.8044   -1.4869    1.5789 H   0  0  0  0  0  0  0  0  0  0  0  0
    4.4636   -1.8590    0.4603 H   0  0  0  0  0  0  0  0  0  0  0  0
    1.6561    2.0796    1.6721 H   0  0  0  0  0  0  0  0  0  0  0  0
   -0.5341    1.0103    1.9976 H   0  0  0  0  0  0  0  0  0  0  0  0
   -3.5265    1.8239    2.5798 H   0  0  0  0  0  0  0  0  0  0  0  0
   -3.5089    4.2876    2.4750 H   0  0  0  0  0  0  0  0  0  0  0  0
   -2.9196    5.4443    0.3635 H   0  0  0  0  0  0  0  0  0  0  0  0
   -2.3600    4.1253   -1.6593 H   0  0  0  0  0  0  0  0  0  0  0  0
   -2.3901    1.6577   -1.5814 H   0  0  0  0  0  0  0  0  0  0  0  0
  1  2  1  0
  2  3  1  0
  3  4  2  0
  4  5  1  0
  5  6  2  0
  6  7  1  0
  7  8  2  0
  8  9  1  0
  9 10  2  0
 10  5  1  0
  4 11  1  0
 11 12  2  0
 12 13  1  0
 13 14  2  0
 14 15  1  0
 15 16  1  0
 16 17  1  0
 17 18  1  0
 18 19  1  0
 18 20  1  0
 14 21  1  0
 21 22  2  0
 22 11  1  0
  3 23  1  0
 23 24  2  0
 24 25  1  0
 25 26  2  0
 26 27  1  0
 27 28  2  0
 28 23  1  0
  1 29  1  0
  1 30  1  0
  1 31  1  0
  2 32  1  0
  2 33  1  0
  6 34  1  0
  7 35  1  0
  8 36  1  0
  9 37  1  0
 10 38  1  0
 12 39  1  0
 13 40  1  0
 16 41  1  0
 16 42  1  0
 17 43  1  0
 17 44  1  0
 19 45  1  0
 19 46  1  0
 19 47  1  0
 20 48  1  0
 20 49  1  0
 20 50  1  0
 21 51  1  0
 22 52  1  0
 24 53  1  0
 25 54  1  0
 26 55  1  0
 27 56  1  0
 28 57  1  0
M  END
> <ID>
HT1978

> <Class>
1.0

> <Clusters>
222

> <Fold>
1

$$$$