
     RDKit          3D

 39 41  0  0  0  0  0  0  0  0999 V2000
   -1.2578   -0.3216   -1.7103 C   0  0  0  0  0  0  0  0  0  0  0  0
   -0.9726    0.3160   -0.3373 C   0  0  1  0  0  0  0  0  0  0  0  0
   -1.6501   -0.5244    0.7348 C   0  0  0  0  0  0  0  0  0  0  0  0
   -1.2973   -1.8309    0.8904 N   0  0  0  0  0  0  0  0  0  0  0  0
   -1.8791   -2.6157    1.8332 C   0  0  0  0  0  0  0  0  0  0  0  0
   -2.8401   -2.1049    2.6445 N   0  0  0  0  0  0  0  0  0  0  0  0
   -3.2339   -0.8112    2.5268 C   0  0  0  0  0  0  0  0  0  0  0  0
   -2.6491    0.0125    1.5651 C   0  0  0  0  0  0  0  0  0  0  0  0
   -3.0444    1.3065    1.4578 F   0  0  0  0  0  0  0  0  0  0  0  0
    0.5532    0.6039   -0.0085 C   0  0  2  0  0  0  0  0  0  0  0  0
    0.6447    1.3970    1.1595 O   0  0  0  0  0  0  0  0  0  0  0  0
    1.2218    1.4690   -1.1200 C   0  0  0  0  0  0  0  0  0  0  0  0
    0.5286    2.7451   -1.3118 N   0  0  0  0  0  0  0  0  0  0  0  0
   -0.1006    3.1614   -2.4234 C   0  0  0  0  0  0  0  0  0  0  0  0
   -0.5969    4.4033   -2.2656 N   0  0  0  0  0  0  0  0  0  0  0  0
   -0.2240    4.7078   -1.0030 C   0  0  0  0  0  0  0  0  0  0  0  0
    0.4658    3.7119   -0.4146 N   0  0  0  0  0  0  0  0  0  0  0  0
    1.3665   -0.7011    0.1819 C   0  0  0  0  0  0  0  0  0  0  0  0
    1.6830   -1.5144   -0.9334 C   0  0  0  0  0  0  0  0  0  0  0  0
    2.4030   -2.7015   -0.7850 C   0  0  0  0  0  0  0  0  0  0  0  0
    2.8301   -3.1096    0.4750 C   0  0  0  0  0  0  0  0  0  0  0  0
    3.5282   -4.2634    0.6150 F   0  0  0  0  0  0  0  0  0  0  0  0
    2.5379   -2.3305    1.5916 C   0  0  0  0  0  0  0  0  0  0  0  0
    1.8172   -1.1389    1.4589 C   0  0  0  0  0  0  0  0  0  0  0  0
    1.5570   -0.4455    2.5946 F   0  0  0  0  0  0  0  0  0  0  0  0
   -0.8164    0.2641   -2.5389 H   0  0  0  0  0  0  0  0  0  0  0  0
   -2.3554   -0.3444   -1.8835 H   0  0  0  0  0  0  0  0  0  0  0  0
   -0.8965   -1.3682   -1.7601 H   0  0  0  0  0  0  0  0  0  0  0  0
   -1.4729    1.3083   -0.3701 H   0  0  0  0  0  0  0  0  0  0  0  0
   -1.5759   -3.6481    1.9380 H   0  0  0  0  0  0  0  0  0  0  0  0
   -4.0016   -0.4219    3.1820 H   0  0  0  0  0  0  0  0  0  0  0  0
   -0.0591    1.1397    1.8074 H   0  0  0  0  0  0  0  0  0  0  0  0
    1.2746    0.9380   -2.0902 H   0  0  0  0  0  0  0  0  0  0  0  0
    2.2748    1.6825   -0.8318 H   0  0  0  0  0  0  0  0  0  0  0  0
   -0.1950    2.5817   -3.3323 H   0  0  0  0  0  0  0  0  0  0  0  0
   -0.4496    5.6490   -0.5203 H   0  0  0  0  0  0  0  0  0  0  0  0
    1.3820   -1.2431   -1.9332 H   0  0  0  0  0  0  0  0  0  0  0  0
    2.6312   -3.3053   -1.6540 H   0  0  0  0  0  0  0  0  0  0  0  0
    2.8688   -2.6531    2.5709 H   0  0  0  0  0  0  0  0  0  0  0  0
  2  1  1  0
  2  3  1  0
  3  4  2  0
  4  5  1  0
  5  6  2  0
  6  7  1  0
  7  8  2  0
  8  3  1  0
  8  9  1  0
  2 10  1  0
 10 11  1  1
 10 12  1  0
 12 13  1  0
 13 14  1  0
 14 15  2  0
 15 16  1  0
 16 17  2  0
 17 13  1  0
 10 18  1  0
 18 19  2  0
 19 20  1  0
 20 21  2  0
 21 22  1  0
 21 23  1  0
 23 24  2  0
 24 18  1  0
 24 25  1  0
  1 26  1  0
  1 27  1  0
  1 28  1  0
  2 29  1  6
  5 30  1  0
  7 31  1  0
 11 32  1  0
 12 33  1  0
 12 34  1  0
 14 35  1  0
 16 36  1  0
 19 37  1  0
 20 38  1  0
 23 39  1  0
M  END
> <ID>
HT2194

> <Class>
1.0

> <Clusters>
104

> <Fold>
1

$$$$