
     RDKit          3D

 44 46  0  0  0  0  0  0  0  0999 V2000
   -3.9496   -2.1687    0.6159 C   0  0  0  0  0  0  0  0  0  0  0  0
   -2.8522   -1.8513   -0.3039 N   0  0  0  0  0  0  0  0  0  0  0  0
   -2.8100   -2.5436   -1.5950 C   0  0  0  0  0  0  0  0  0  0  0  0
   -1.8226   -0.9036    0.0597 C   0  0  0  0  0  0  0  0  0  0  0  0
   -1.7795   -0.4466    1.2361 O   0  0  0  0  0  0  0  0  0  0  0  0
   -0.7610   -0.4911   -0.9325 C   0  0  0  0  0  0  0  0  0  0  0  0
    0.0160    0.7167   -0.4719 C   0  0  0  0  0  0  0  0  0  0  0  0
    1.3462    0.7773   -0.0526 C   0  0  0  0  0  0  0  0  0  0  0  0
    1.7012    2.0682    0.1625 N   0  0  0  0  0  0  0  0  0  0  0  0
    0.5775    2.7588   -0.1149 C   0  0  0  0  0  0  0  0  0  0  0  0
    0.4391    4.1425   -0.0484 C   0  0  0  0  0  0  0  0  0  0  0  0
   -0.8060    4.6927   -0.3899 C   0  0  0  0  0  0  0  0  0  0  0  0
   -1.8774    3.8569   -0.7763 C   0  0  0  0  0  0  0  0  0  0  0  0
   -3.1943    4.4470   -1.1819 C   0  0  0  0  0  0  0  0  0  0  0  0
   -1.6694    2.4666   -0.8411 C   0  0  0  0  0  0  0  0  0  0  0  0
   -0.4480    1.9788   -0.4960 N   0  0  0  0  0  0  0  0  0  0  0  0
    2.2817   -0.3492    0.1456 C   0  0  0  0  0  0  0  0  0  0  0  0
    1.8646   -1.5389    0.7653 C   0  0  0  0  0  0  0  0  0  0  0  0
    2.7682   -2.5865    0.9653 C   0  0  0  0  0  0  0  0  0  0  0  0
    4.1019   -2.4599    0.5503 C   0  0  0  0  0  0  0  0  0  0  0  0
    5.0802   -3.5687    0.8016 C   0  0  0  0  0  0  0  0  0  0  0  0
    4.5303   -1.2576   -0.0312 C   0  0  0  0  0  0  0  0  0  0  0  0
    3.6267   -0.2096   -0.2310 C   0  0  0  0  0  0  0  0  0  0  0  0
   -3.9083   -3.2443    0.8889 H   0  0  0  0  0  0  0  0  0  0  0  0
   -4.9217   -1.9564    0.1227 H   0  0  0  0  0  0  0  0  0  0  0  0
   -3.9015   -1.5692    1.5483 H   0  0  0  0  0  0  0  0  0  0  0  0
   -2.9311   -1.8124   -2.4210 H   0  0  0  0  0  0  0  0  0  0  0  0
   -1.8435   -3.0786   -1.7063 H   0  0  0  0  0  0  0  0  0  0  0  0
   -3.6289   -3.2908   -1.6755 H   0  0  0  0  0  0  0  0  0  0  0  0
   -1.2310   -0.2451   -1.9069 H   0  0  0  0  0  0  0  0  0  0  0  0
   -0.0791   -1.3468   -1.1103 H   0  0  0  0  0  0  0  0  0  0  0  0
    1.2652    4.7750    0.2501 H   0  0  0  0  0  0  0  0  0  0  0  0
   -0.9364    5.7672   -0.3556 H   0  0  0  0  0  0  0  0  0  0  0  0
   -3.1828    4.6618   -2.2707 H   0  0  0  0  0  0  0  0  0  0  0  0
   -3.3869    5.3904   -0.6279 H   0  0  0  0  0  0  0  0  0  0  0  0
   -4.0235    3.7419   -0.9599 H   0  0  0  0  0  0  0  0  0  0  0  0
   -2.4643    1.8010   -1.1548 H   0  0  0  0  0  0  0  0  0  0  0  0
    0.8484   -1.6505    1.1194 H   0  0  0  0  0  0  0  0  0  0  0  0
    2.4292   -3.4934    1.4509 H   0  0  0  0  0  0  0  0  0  0  0  0
    4.5708   -4.5554    0.7686 H   0  0  0  0  0  0  0  0  0  0  0  0
    5.5430   -3.4331    1.8013 H   0  0  0  0  0  0  0  0  0  0  0  0
    5.8788   -3.5690    0.0293 H   0  0  0  0  0  0  0  0  0  0  0  0
    5.5637   -1.1307   -0.3296 H   0  0  0  0  0  0  0  0  0  0  0  0
    3.9760    0.7083   -0.6881 H   0  0  0  0  0  0  0  0  0  0  0  0
  1  2  1  0
  2  3  1  0
  2  4  1  0
  4  5  2  0
  4  6  1  0
  6  7  1  0
  7  8  2  0
  8  9  1  0
  9 10  2  0
 10 11  1  0
 11 12  2  0
 12 13  1  0
 13 14  1  0
 13 15  2  0
 15 16  1  0
 16  7  1  0
 16 10  1  0
  8 17  1  0
 17 18  2  0
 18 19  1  0
 19 20  2  0
 20 21  1  0
 20 22  1  0
 22 23  2  0
 23 17  1  0
  1 24  1  0
  1 25  1  0
  1 26  1  0
  3 27  1  0
  3 28  1  0
  3 29  1  0
  6 30  1  0
  6 31  1  0
 11 32  1  0
 12 33  1  0
 14 34  1  0
 14 35  1  0
 14 36  1  0
 15 37  1  0
 18 38  1  0
 19 39  1  0
 21 40  1  0
 21 41  1  0
 21 42  1  0
 22 43  1  0
 23 44  1  0
M  END
> <ID>
HT2220

> <Class>
1.0

> <Clusters>
231

> <Fold>
1

$$$$