
     RDKit          3D

 51 52  0  0  0  0  0  0  0  0999 V2000
   -7.2890    0.5590    1.0559 C   0  0  0  0  0  0  0  0  0  0  0  0
   -6.1515   -0.4646    1.1606 C   0  0  0  0  0  0  0  0  0  0  0  0
   -5.4605   -0.4051    2.5329 C   0  0  0  0  0  0  0  0  0  0  0  0
   -5.2088   -0.3421    0.0290 N   0  0  0  0  0  0  0  0  0  0  0  0
   -4.3248    0.8330    0.0941 C   0  0  0  0  0  0  0  0  0  0  0  0
   -3.6243    1.0348   -1.2616 C   0  0  1  0  0  0  0  0  0  0  0  0
   -4.5700    1.1726   -2.2928 O   0  0  0  0  0  0  0  0  0  0  0  0
   -2.6821    2.2540   -1.2390 C   0  0  0  0  0  0  0  0  0  0  0  0
   -1.6582    2.1050   -0.2535 O   0  0  0  0  0  0  0  0  0  0  0  0
   -0.5752    1.2140   -0.3277 C   0  0  0  0  0  0  0  0  0  0  0  0
    0.2201    1.0462    0.8117 C   0  0  0  0  0  0  0  0  0  0  0  0
    1.3101    0.1717    0.7965 C   0  0  0  0  0  0  0  0  0  0  0  0
    1.6178   -0.5552   -0.3633 C   0  0  0  0  0  0  0  0  0  0  0  0
    2.8121   -1.4708   -0.3905 C   0  0  0  0  0  0  0  0  0  0  0  0
    4.0705   -0.7059   -0.8099 C   0  0  0  0  0  0  0  0  0  0  0  0
    5.1785   -1.5852   -0.8743 O   0  0  0  0  0  0  0  0  0  0  0  0
    5.9064   -1.5871    0.3393 C   0  0  0  0  0  0  0  0  0  0  0  0
    6.9777   -0.4881    0.3104 C   0  0  0  0  0  0  0  0  0  0  0  0
    8.2112   -0.7606    1.1575 C   0  0  0  0  0  0  0  0  0  0  0  0
    8.2887   -0.8719   -0.3581 C   0  0  0  0  0  0  0  0  0  0  0  0
    0.8364   -0.3745   -1.5145 C   0  0  0  0  0  0  0  0  0  0  0  0
   -0.2538    0.5006   -1.4988 C   0  0  0  0  0  0  0  0  0  0  0  0
   -7.7142    0.5506    0.0298 H   0  0  0  0  0  0  0  0  0  0  0  0
   -6.9395    1.5845    1.2948 H   0  0  0  0  0  0  0  0  0  0  0  0
   -8.0977    0.2967    1.7711 H   0  0  0  0  0  0  0  0  0  0  0  0
   -6.6277   -1.4681    1.0847 H   0  0  0  0  0  0  0  0  0  0  0  0
   -4.6113   -1.1201    2.5641 H   0  0  0  0  0  0  0  0  0  0  0  0
   -5.0851    0.6173    2.7502 H   0  0  0  0  0  0  0  0  0  0  0  0
   -6.1818   -0.6858    3.3298 H   0  0  0  0  0  0  0  0  0  0  0  0
   -4.6079   -1.2002    0.0099 H   0  0  0  0  0  0  0  0  0  0  0  0
   -3.5529    0.6823    0.8813 H   0  0  0  0  0  0  0  0  0  0  0  0
   -4.9004    1.7504    0.3368 H   0  0  0  0  0  0  0  0  0  0  0  0
   -3.0246    0.1257   -1.4771 H   0  0  0  0  0  0  0  0  0  0  0  0
   -5.1202    1.9747   -2.0915 H   0  0  0  0  0  0  0  0  0  0  0  0
   -2.2327    2.4244   -2.2403 H   0  0  0  0  0  0  0  0  0  0  0  0
   -3.2709    3.1627   -0.9906 H   0  0  0  0  0  0  0  0  0  0  0  0
   -0.0095    1.5966    1.7154 H   0  0  0  0  0  0  0  0  0  0  0  0
    1.9152    0.0621    1.6881 H   0  0  0  0  0  0  0  0  0  0  0  0
    2.6344   -2.3068   -1.1020 H   0  0  0  0  0  0  0  0  0  0  0  0
    2.9618   -1.9220    0.6141 H   0  0  0  0  0  0  0  0  0  0  0  0
    3.9091   -0.2909   -1.8279 H   0  0  0  0  0  0  0  0  0  0  0  0
    4.2406    0.1686   -0.1376 H   0  0  0  0  0  0  0  0  0  0  0  0
    5.2589   -1.4498    1.2360 H   0  0  0  0  0  0  0  0  0  0  0  0
    6.3702   -2.5909    0.4528 H   0  0  0  0  0  0  0  0  0  0  0  0
    6.6875    0.5807    0.2240 H   0  0  0  0  0  0  0  0  0  0  0  0
    8.6995    0.1493    1.5660 H   0  0  0  0  0  0  0  0  0  0  0  0
    8.2420   -1.7386    1.6839 H   0  0  0  0  0  0  0  0  0  0  0  0
    8.3621   -1.9156   -0.7320 H   0  0  0  0  0  0  0  0  0  0  0  0
    8.8207   -0.0273   -0.8448 H   0  0  0  0  0  0  0  0  0  0  0  0
    1.0739   -0.9091   -2.4260 H   0  0  0  0  0  0  0  0  0  0  0  0
   -0.8308    0.6190   -2.4047 H   0  0  0  0  0  0  0  0  0  0  0  0
  1  2  1  0
  2  3  1  0
  2  4  1  0
  4  5  1  0
  5  6  1  0
  6  7  1  0
  6  8  1  0
  8  9  1  0
  9 10  1  0
 10 11  2  0
 11 12  1  0
 12 13  2  0
 13 14  1  0
 14 15  1  0
 15 16  1  0
 16 17  1  0
 17 18  1  0
 18 19  1  0
 19 20  1  0
 20 18  1  0
 13 21  1  0
 21 22  2  0
 22 10  1  0
  1 23  1  0
  1 24  1  0
  1 25  1  0
  2 26  1  0
  3 27  1  0
  3 28  1  0
  3 29  1  0
  4 30  1  0
  5 31  1  0
  5 32  1  0
  6 33  1  6
  7 34  1  0
  8 35  1  0
  8 36  1  0
 11 37  1  0
 12 38  1  0
 14 39  1  0
 14 40  1  0
 15 41  1  0
 15 42  1  0
 17 43  1  0
 17 44  1  0
 18 45  1  0
 19 46  1  0
 19 47  1  0
 20 48  1  0
 20 49  1  0
 21 50  1  0
 22 51  1  0
M  END
> <ID>
HT0275

> <Class>
1.0

> <Clusters>
169

> <Fold>
1

$$$$