
     RDKit          3D

 58 61  0  0  0  0  0  0  0  0999 V2000
   -7.0366    0.9968   -2.0356 C   0  0  0  0  0  0  0  0  0  0  0  0
   -6.0150    0.5814   -0.9982 C   0  0  0  0  0  0  0  0  0  0  0  0
   -4.6355    0.7558   -1.2539 C   0  0  0  0  0  0  0  0  0  0  0  0
   -4.1717    1.3728   -2.5559 C   0  0  0  0  0  0  0  0  0  0  0  0
   -3.6903    0.3290   -0.3027 C   0  0  0  0  0  0  0  0  0  0  0  0
   -2.3242    0.4982   -0.5733 O   0  0  0  0  0  0  0  0  0  0  0  0
   -1.2954    0.3039    0.3957 C   0  0  0  0  0  0  0  0  0  0  0  0
   -1.1581    1.5827    1.2466 C   0  0  0  0  0  0  0  0  0  0  0  0
    0.0208    0.0410   -0.3598 C   0  0  0  0  0  0  0  0  0  0  0  0
    1.0934   -0.1740    0.5570 O   0  0  0  0  0  0  0  0  0  0  0  0
    2.4179   -0.4393    0.1812 C   0  0  0  0  0  0  0  0  0  0  0  0
    2.8208   -0.5143   -1.1657 C   0  0  0  0  0  0  0  0  0  0  0  0
    4.1547   -0.7807   -1.4881 C   0  0  0  0  0  0  0  0  0  0  0  0
    5.1040   -0.9810   -0.4740 C   0  0  0  0  0  0  0  0  0  0  0  0
    6.5459   -1.2438   -0.8275 C   0  0  0  0  0  0  0  0  0  0  0  0
    7.2780    0.0522   -1.2109 C   0  0  0  0  0  0  0  0  0  0  0  0
    7.4320    1.1743    0.2455 S   0  0  0  0  0  0  0  0  0  0  0  0
    9.2114    1.0841    0.1402 C   0  0  0  0  0  0  0  0  0  0  0  0
    9.9671    1.6587    0.9659 O   0  0  0  0  0  0  0  0  0  0  0  0
    9.7210    0.3176   -0.9301 N   0  0  0  0  0  0  0  0  0  0  0  0
    8.6683   -0.2453   -1.6887 C   0  0  0  0  0  0  0  0  0  0  0  0
    8.8966   -0.9409   -2.7138 O   0  0  0  0  0  0  0  0  0  0  0  0
    4.7017   -0.9007    0.8683 C   0  0  0  0  0  0  0  0  0  0  0  0
    3.3681   -0.6337    1.1900 C   0  0  0  0  0  0  0  0  0  0  0  0
   -1.6584   -0.9162    1.2659 C   0  0  0  0  0  0  0  0  0  0  0  0
   -3.0591   -0.7863    1.8797 C   0  0  0  0  0  0  0  0  0  0  0  0
   -4.1047   -0.2662    0.9077 C   0  0  0  0  0  0  0  0  0  0  0  0
   -5.4882   -0.3599    1.2045 C   0  0  0  0  0  0  0  0  0  0  0  0
   -5.9706   -0.8910    2.5380 C   0  0  0  0  0  0  0  0  0  0  0  0
   -6.4369    0.0173    0.2238 C   0  0  0  0  0  0  0  0  0  0  0  0
   -7.8083   -0.1691    0.4378 O   0  0  0  0  0  0  0  0  0  0  0  0
   -6.9606    2.0880   -2.2234 H   0  0  0  0  0  0  0  0  0  0  0  0
   -6.8556    0.4475   -2.9830 H   0  0  0  0  0  0  0  0  0  0  0  0
   -8.0808    0.7877   -1.7275 H   0  0  0  0  0  0  0  0  0  0  0  0
   -4.4545    0.7144   -3.4035 H   0  0  0  0  0  0  0  0  0  0  0  0
   -3.0739    1.5230   -2.5976 H   0  0  0  0  0  0  0  0  0  0  0  0
   -4.6401    2.3696   -2.6923 H   0  0  0  0  0  0  0  0  0  0  0  0
   -0.8341    2.4346    0.6112 H   0  0  0  0  0  0  0  0  0  0  0  0
   -0.4118    1.4403    2.0573 H   0  0  0  0  0  0  0  0  0  0  0  0
   -2.1294    1.8609    1.7059 H   0  0  0  0  0  0  0  0  0  0  0  0
   -0.0972   -0.8544   -1.0092 H   0  0  0  0  0  0  0  0  0  0  0  0
    0.2561    0.9129   -1.0093 H   0  0  0  0  0  0  0  0  0  0  0  0
    2.1133   -0.3664   -1.9699 H   0  0  0  0  0  0  0  0  0  0  0  0
    4.4494   -0.8295   -2.5292 H   0  0  0  0  0  0  0  0  0  0  0  0
    6.5766   -1.9558   -1.6817 H   0  0  0  0  0  0  0  0  0  0  0  0
    7.0711   -1.7352    0.0215 H   0  0  0  0  0  0  0  0  0  0  0  0
    6.7278    0.5813   -2.0188 H   0  0  0  0  0  0  0  0  0  0  0  0
   10.7366    0.1850   -1.1343 H   0  0  0  0  0  0  0  0  0  0  0  0
    5.4205   -1.0414    1.6660 H   0  0  0  0  0  0  0  0  0  0  0  0
    3.0708   -0.5753    2.2294 H   0  0  0  0  0  0  0  0  0  0  0  0
   -1.6405   -1.8325    0.6342 H   0  0  0  0  0  0  0  0  0  0  0  0
   -0.9129   -1.0551    2.0794 H   0  0  0  0  0  0  0  0  0  0  0  0
   -3.3533   -1.7983    2.2335 H   0  0  0  0  0  0  0  0  0  0  0  0
   -3.0151   -0.1124    2.7619 H   0  0  0  0  0  0  0  0  0  0  0  0
   -5.1885   -0.8817    3.3213 H   0  0  0  0  0  0  0  0  0  0  0  0
   -6.7852   -0.2496    2.9345 H   0  0  0  0  0  0  0  0  0  0  0  0
   -6.3402   -1.9304    2.4143 H   0  0  0  0  0  0  0  0  0  0  0  0
   -8.1969   -0.6508    1.2377 H   0  0  0  0  0  0  0  0  0  0  0  0
  1  2  1  0
  2  3  2  0
  3  4  1  0
  3  5  1  0
  5  6  1  0
  6  7  1  0
  7  8  1  0
  7  9  1  0
  9 10  1  0
 10 11  1  0
 11 12  2  0
 12 13  1  0
 13 14  2  0
 14 15  1  0
 15 16  1  0
 16 17  1  0
 17 18  1  0
 18 19  2  0
 18 20  1  0
 20 21  1  0
 21 16  1  0
 21 22  2  0
 14 23  1  0
 23 24  2  0
 24 11  1  0
  7 25  1  0
 25 26  1  0
 26 27  1  0
 27  5  2  0
 27 28  1  0
 28 29  1  0
 28 30  2  0
 30  2  1  0
 30 31  1  0
  1 32  1  0
  1 33  1  0
  1 34  1  0
  4 35  1  0
  4 36  1  0
  4 37  1  0
  8 38  1  0
  8 39  1  0
  8 40  1  0
  9 41  1  0
  9 42  1  0
 12 43  1  0
 13 44  1  0
 15 45  1  0
 15 46  1  0
 16 47  1  0
 20 48  1  0
 23 49  1  0
 24 50  1  0
 25 51  1  0
 25 52  1  0
 26 53  1  0
 26 54  1  0
 29 55  1  0
 29 56  1  0
 29 57  1  0
 31 58  1  0
M  END
> <ID>
HT2136

> <Class>
1.0

> <Clusters>
199

> <Fold>
1

$$$$