
     RDKit          3D

 37 38  0  0  0  0  0  0  0  0999 V2000
   -4.3842   -0.4773    1.1320 C   0  0  0  0  0  0  0  0  0  0  0  0
   -3.9079    0.1227   -0.2009 C   0  0  0  0  0  0  0  0  0  0  0  0
   -3.3169    1.5244   -0.0084 C   0  0  0  0  0  0  0  0  0  0  0  0
   -3.0096   -0.8397   -1.0289 C   0  0  0  0  0  0  0  0  0  0  0  0
   -1.5228   -1.0309   -0.6270 C   0  0  0  0  0  0  0  0  0  0  0  0
   -0.6895    0.1232   -0.9985 N   0  0  0  0  0  0  0  0  0  0  0  0
    0.7239    0.1551   -0.7272 C   0  0  0  0  0  0  0  0  0  0  0  0
    1.5390    1.0900   -1.3789 C   0  0  0  0  0  0  0  0  0  0  0  0
    2.9174    1.1277   -1.1371 C   0  0  0  0  0  0  0  0  0  0  0  0
    3.8798    2.3255   -1.9964 Cl  0  0  0  0  0  0  0  0  0  0  0  0
    3.4974    0.2208   -0.2264 C   0  0  0  0  0  0  0  0  0  0  0  0
    2.6783   -0.7060    0.4357 C   0  0  0  0  0  0  0  0  0  0  0  0
    1.3015   -0.7368    0.1911 C   0  0  0  0  0  0  0  0  0  0  0  0
    0.2707   -1.8585    1.0592 S   0  0  0  0  0  0  0  0  0  0  0  0
    0.4698   -3.2547    0.5401 O   0  0  0  0  0  0  0  0  0  0  0  0
    0.5766   -1.8111    2.5299 O   0  0  0  0  0  0  0  0  0  0  0  0
   -1.3678   -1.3580    0.7958 N   0  0  0  0  0  0  0  0  0  0  0  0
    5.2336    0.2428    0.1044 S   0  0  0  0  0  0  0  0  0  0  0  0
    5.9901    0.0064   -1.1724 O   0  0  0  0  0  0  0  0  0  0  0  0
    5.5933   -0.8370    1.0870 O   0  0  0  0  0  0  0  0  0  0  0  0
    5.6748    1.7771    0.7683 N   0  0  0  0  0  0  0  0  0  0  0  0
   -4.7234   -1.5254    0.9912 H   0  0  0  0  0  0  0  0  0  0  0  0
   -5.2469    0.1087    1.5153 H   0  0  0  0  0  0  0  0  0  0  0  0
   -3.5987   -0.4525    1.9104 H   0  0  0  0  0  0  0  0  0  0  0  0
   -4.8309    0.2607   -0.8083 H   0  0  0  0  0  0  0  0  0  0  0  0
   -4.0586    2.1802    0.4959 H   0  0  0  0  0  0  0  0  0  0  0  0
   -2.4005    1.4995    0.6145 H   0  0  0  0  0  0  0  0  0  0  0  0
   -3.0823    1.9786   -0.9938 H   0  0  0  0  0  0  0  0  0  0  0  0
   -3.4921   -1.8419   -1.0350 H   0  0  0  0  0  0  0  0  0  0  0  0
   -3.0318   -0.5018   -2.0886 H   0  0  0  0  0  0  0  0  0  0  0  0
   -1.1689   -1.8996   -1.2286 H   0  0  0  0  0  0  0  0  0  0  0  0
   -1.0928    0.8721   -1.6049 H   0  0  0  0  0  0  0  0  0  0  0  0
    1.1014    1.7869   -2.0831 H   0  0  0  0  0  0  0  0  0  0  0  0
    3.1045   -1.4010    1.1476 H   0  0  0  0  0  0  0  0  0  0  0  0
   -1.4688   -0.4773    1.3468 H   0  0  0  0  0  0  0  0  0  0  0  0
    5.1532    1.8818    1.6673 H   0  0  0  0  0  0  0  0  0  0  0  0
    6.6893    1.7252    1.0116 H   0  0  0  0  0  0  0  0  0  0  0  0
  1  2  1  0
  2  3  1  0
  2  4  1  0
  4  5  1  0
  5  6  1  0
  6  7  1  0
  7  8  2  0
  8  9  1  0
  9 10  1  0
  9 11  2  0
 11 12  1  0
 12 13  2  0
 13  7  1  0
 13 14  1  0
 14 15  2  0
 14 16  2  0
 14 17  1  0
 17  5  1  0
 11 18  1  0
 18 19  2  0
 18 20  2  0
 18 21  1  0
  1 22  1  0
  1 23  1  0
  1 24  1  0
  2 25  1  0
  3 26  1  0
  3 27  1  0
  3 28  1  0
  4 29  1  0
  4 30  1  0
  5 31  1  0
  6 32  1  0
  8 33  1  0
 12 34  1  0
 17 35  1  0
 21 36  1  0
 21 37  1  0
M  END
> <ID>
HT0339

> <Class>
1.0

> <Clusters>
40

> <Fold>
1

$$$$