
     RDKit          3D

 42 43  0  0  0  0  0  0  0  0999 V2000
    7.4795   -1.2204   -1.8816 C   0  0  0  0  0  0  0  0  0  0  0  0
    6.8305   -1.3568   -0.5367 C   0  0  0  0  0  0  0  0  0  0  0  0
    7.4039   -2.0645    0.3359 O   0  0  0  0  0  0  0  0  0  0  0  0
    5.5432   -0.6847   -0.2129 C   0  0  0  0  0  0  0  0  0  0  0  0
    4.8721    0.1110   -1.1626 C   0  0  0  0  0  0  0  0  0  0  0  0
    3.6632    0.7349   -0.8408 C   0  0  0  0  0  0  0  0  0  0  0  0
    3.1059    0.5814    0.4338 C   0  0  0  0  0  0  0  0  0  0  0  0
    3.7600   -0.2139    1.3815 C   0  0  0  0  0  0  0  0  0  0  0  0
    4.9688   -0.8394    1.0634 C   0  0  0  0  0  0  0  0  0  0  0  0
    1.5738    1.3531    0.8297 S   0  0  0  0  0  0  0  0  0  0  0  0
    1.5329    1.6647    2.2997 O   0  0  0  0  0  0  0  0  0  0  0  0
    1.4402    2.6322    0.0514 O   0  0  0  0  0  0  0  0  0  0  0  0
    0.2759    0.2815    0.4222 N   0  0  0  0  0  0  0  0  0  0  0  0
   -1.0931    0.6452    0.6248 C   0  0  0  0  0  0  0  0  0  0  0  0
   -1.3808    1.7693    1.1194 O   0  0  0  0  0  0  0  0  0  0  0  0
   -2.1343   -0.2753    0.2690 N   0  0  0  0  0  0  0  0  0  0  0  0
   -3.5569    0.0512    0.4245 C   0  0  0  0  0  0  0  0  0  0  0  0
   -4.4228   -1.2346    0.4124 C   0  0  0  0  0  0  0  0  0  0  0  0
   -5.8908   -0.9850    0.0035 C   0  0  0  0  0  0  0  0  0  0  0  0
   -6.3320    0.4545    0.2853 C   0  0  0  0  0  0  0  0  0  0  0  0
   -5.4688    1.4729   -0.4856 C   0  0  0  0  0  0  0  0  0  0  0  0
   -4.0079    1.0170   -0.6846 C   0  0  0  0  0  0  0  0  0  0  0  0
    7.7093   -0.1531   -2.0829 H   0  0  0  0  0  0  0  0  0  0  0  0
    8.4288   -1.7965   -1.9168 H   0  0  0  0  0  0  0  0  0  0  0  0
    6.8020   -1.6125   -2.6688 H   0  0  0  0  0  0  0  0  0  0  0  0
    5.2731    0.2546   -2.1568 H   0  0  0  0  0  0  0  0  0  0  0  0
    3.1612    1.3357   -1.5886 H   0  0  0  0  0  0  0  0  0  0  0  0
    3.3340   -0.3534    2.3669 H   0  0  0  0  0  0  0  0  0  0  0  0
    5.4522   -1.4465    1.8185 H   0  0  0  0  0  0  0  0  0  0  0  0
    0.5083   -0.6512    0.0147 H   0  0  0  0  0  0  0  0  0  0  0  0
   -1.8522   -1.2182   -0.0823 H   0  0  0  0  0  0  0  0  0  0  0  0
   -3.7016    0.5497    1.4100 H   0  0  0  0  0  0  0  0  0  0  0  0
   -4.3957   -1.6874    1.4277 H   0  0  0  0  0  0  0  0  0  0  0  0
   -3.9984   -1.9835   -0.2916 H   0  0  0  0  0  0  0  0  0  0  0  0
   -6.0113   -1.1873   -1.0839 H   0  0  0  0  0  0  0  0  0  0  0  0
   -6.5540   -1.6902    0.5495 H   0  0  0  0  0  0  0  0  0  0  0  0
   -6.2530    0.6496    1.3775 H   0  0  0  0  0  0  0  0  0  0  0  0
   -7.3985    0.5804   -0.0012 H   0  0  0  0  0  0  0  0  0  0  0  0
   -5.4822    2.4371    0.0680 H   0  0  0  0  0  0  0  0  0  0  0  0
   -5.9226    1.6594   -1.4834 H   0  0  0  0  0  0  0  0  0  0  0  0
   -3.3503    1.9124   -0.7091 H   0  0  0  0  0  0  0  0  0  0  0  0
   -3.9113    0.5066   -1.6686 H   0  0  0  0  0  0  0  0  0  0  0  0
  1  2  1  0
  2  3  2  0
  2  4  1  0
  4  5  2  0
  5  6  1  0
  6  7  2  0
  7  8  1  0
  8  9  2  0
  9  4  1  0
  7 10  1  0
 10 11  2  0
 10 12  2  0
 10 13  1  0
 13 14  1  0
 14 15  2  0
 14 16  1  0
 16 17  1  0
 17 18  1  0
 18 19  1  0
 19 20  1  0
 20 21  1  0
 21 22  1  0
 22 17  1  0
  1 23  1  0
  1 24  1  0
  1 25  1  0
  5 26  1  0
  6 27  1  0
  8 28  1  0
  9 29  1  0
 13 30  1  0
 16 31  1  0
 17 32  1  0
 18 33  1  0
 18 34  1  0
 19 35  1  0
 19 36  1  0
 20 37  1  0
 20 38  1  0
 21 39  1  0
 21 40  1  0
 22 41  1  0
 22 42  1  0
M  END
> <ID>
HT0056

> <Class>
1.0

> <Clusters>
120

> <Fold>
1

$$$$