
     RDKit          3D

 41 43  0  0  0  0  0  0  0  0999 V2000
   -5.6746    0.2280    0.7516 C   0  0  0  0  0  0  0  0  0  0  0  0
   -4.2785   -0.3148    0.5745 C   0  0  0  0  0  0  0  0  0  0  0  0
   -3.7142   -0.4736   -0.6526 C   0  0  0  0  0  0  0  0  0  0  0  0
   -2.3894   -1.0064   -0.7135 N   0  0  0  0  0  0  0  0  0  0  0  0
   -1.5245   -1.5384    0.3075 C   0  0  2  0  0  0  0  0  0  0  0  0
   -1.7399   -0.5060    1.7967 S   0  0  0  0  0  0  0  0  0  0  0  0
   -3.5547   -0.7944    1.8283 C   0  0  0  0  0  0  0  0  0  0  0  0
   -0.3306   -1.3615   -0.4918 C   0  0  2  0  0  0  0  0  0  0  0  0
    0.5759   -0.3149   -0.0113 N   0  0  0  0  0  0  0  0  0  0  0  0
    1.5946   -0.5986    0.9618 C   0  0  0  0  0  0  0  0  0  0  0  0
    1.7286   -1.7736    1.4007 O   0  0  0  0  0  0  0  0  0  0  0  0
    2.5464    0.4682    1.4463 C   0  0  2  0  0  0  0  0  0  0  0  0
    1.8808    1.7702    1.5584 N   0  0  0  0  0  0  0  0  0  0  0  0
    3.7803    0.5412    0.5638 C   0  0  0  0  0  0  0  0  0  0  0  0
    3.6792    0.8374   -0.8100 C   0  0  0  0  0  0  0  0  0  0  0  0
    4.8258    0.8972   -1.6079 C   0  0  0  0  0  0  0  0  0  0  0  0
    6.0830    0.6628   -1.0472 C   0  0  0  0  0  0  0  0  0  0  0  0
    6.1965    0.3675    0.3131 C   0  0  0  0  0  0  0  0  0  0  0  0
    5.0533    0.3061    1.1158 C   0  0  0  0  0  0  0  0  0  0  0  0
   -1.2108   -0.8698   -1.6011 C   0  0  0  0  0  0  0  0  0  0  0  0
   -1.0191   -0.4651   -2.7774 O   0  0  0  0  0  0  0  0  0  0  0  0
   -4.3648   -0.0771   -1.9265 C   0  0  0  0  0  0  0  0  0  0  0  0
   -3.9780   -0.5997   -3.0058 O   0  0  0  0  0  0  0  0  0  0  0  0
   -5.3737    0.8806   -1.9653 O   0  0  0  0  0  0  0  0  0  0  0  0
   -5.7006    1.3047    0.4842 H   0  0  0  0  0  0  0  0  0  0  0  0
   -6.3909   -0.3426    0.1234 H   0  0  0  0  0  0  0  0  0  0  0  0
   -6.0150    0.1373    1.8045 H   0  0  0  0  0  0  0  0  0  0  0  0
   -1.7542   -2.6099    0.5026 H   0  0  0  0  0  0  0  0  0  0  0  0
   -3.9522   -0.2761    2.7260 H   0  0  0  0  0  0  0  0  0  0  0  0
   -3.7460   -1.8805    1.9601 H   0  0  0  0  0  0  0  0  0  0  0  0
    0.1933   -2.3030   -0.7676 H   0  0  0  0  0  0  0  0  0  0  0  0
    0.4866    0.6495   -0.4017 H   0  0  0  0  0  0  0  0  0  0  0  0
    2.8527    0.1710    2.4755 H   0  0  0  0  0  0  0  0  0  0  0  0
    1.7836    2.2160    0.6182 H   0  0  0  0  0  0  0  0  0  0  0  0
    2.4945    2.4029    2.1220 H   0  0  0  0  0  0  0  0  0  0  0  0
    2.7167    1.0203   -1.2676 H   0  0  0  0  0  0  0  0  0  0  0  0
    4.7389    1.1250   -2.6624 H   0  0  0  0  0  0  0  0  0  0  0  0
    6.9693    0.7095   -1.6667 H   0  0  0  0  0  0  0  0  0  0  0  0
    7.1715    0.1857    0.7465 H   0  0  0  0  0  0  0  0  0  0  0  0
    5.1640    0.0756    2.1680 H   0  0  0  0  0  0  0  0  0  0  0  0
   -5.8039    1.1491   -2.8423 H   0  0  0  0  0  0  0  0  0  0  0  0
  1  2  1  0
  2  3  2  0
  3  4  1  0
  4  5  1  0
  5  6  1  0
  6  7  1  0
  7  2  1  0
  5  8  1  0
  8  9  1  0
  9 10  1  0
 10 11  2  0
 10 12  1  0
 12 13  1  0
 12 14  1  0
 14 15  2  0
 15 16  1  0
 16 17  2  0
 17 18  1  0
 18 19  2  0
 19 14  1  0
  8 20  1  0
 20  4  1  0
 20 21  2  0
  3 22  1  0
 22 23  2  0
 22 24  1  0
  1 25  1  0
  1 26  1  0
  1 27  1  0
  5 28  1  1
  7 29  1  0
  7 30  1  0
  8 31  1  6
  9 32  1  0
 12 33  1  1
 13 34  1  0
 13 35  1  0
 15 36  1  0
 16 37  1  0
 17 38  1  0
 18 39  1  0
 19 40  1  0
 24 41  1  0
M  END
> <ID>
HT0431

> <Class>
1.0

> <Clusters>
46

> <Fold>
1

$$$$