
     RDKit          3D

 46 48  0  0  0  0  0  0  0  0999 V2000
    2.5036   -1.5235    2.3188 C   0  0  0  0  0  0  0  0  0  0  0  0
    3.5444   -0.4957    2.6494 C   0  0  0  0  0  0  0  0  0  0  0  0
    3.5909    0.7125    2.0759 C   0  0  0  0  0  0  0  0  0  0  0  0
    2.5938    1.1713    1.0873 C   0  0  0  0  0  0  0  0  0  0  0  0
    2.9126    1.3474   -0.2198 C   0  0  0  0  0  0  0  0  0  0  0  0
    1.8884    1.8233   -1.0962 N   0  0  0  0  0  0  0  0  0  0  0  0
    0.5509    2.2932   -0.8382 C   0  0  2  0  0  0  0  0  0  0  0  0
   -0.1509    1.2726    0.5046 S   0  0  0  0  0  0  0  0  0  0  0  0
    1.2523    1.6392    1.6292 C   0  0  0  0  0  0  0  0  0  0  0  0
    0.1114    2.0471   -2.1957 C   0  0  2  0  0  0  0  0  0  0  0  0
   -0.8148    0.9207   -2.3387 N   0  0  0  0  0  0  0  0  0  0  0  0
   -2.2343    1.0918   -2.2309 C   0  0  0  0  0  0  0  0  0  0  0  0
   -2.7257    2.2503   -2.1379 O   0  0  0  0  0  0  0  0  0  0  0  0
   -3.1233   -0.1267   -2.1497 C   0  0  2  0  0  0  0  0  0  0  0  0
   -4.5185    0.1746   -2.4871 N   0  0  0  0  0  0  0  0  0  0  0  0
   -3.0292   -0.7440   -0.7706 C   0  0  0  0  0  0  0  0  0  0  0  0
   -3.4539   -0.0348    0.3693 C   0  0  0  0  0  0  0  0  0  0  0  0
   -3.3193   -0.5951    1.6428 C   0  0  0  0  0  0  0  0  0  0  0  0
   -2.7571   -1.8686    1.7959 C   0  0  0  0  0  0  0  0  0  0  0  0
   -2.6120   -2.4339    3.0607 O   0  0  0  0  0  0  0  0  0  0  0  0
   -2.3343   -2.5796    0.6692 C   0  0  0  0  0  0  0  0  0  0  0  0
   -2.4679   -2.0230   -0.6063 C   0  0  0  0  0  0  0  0  0  0  0  0
    1.5185    1.6434   -2.5199 C   0  0  0  0  0  0  0  0  0  0  0  0
    2.1177    1.2597   -3.5581 O   0  0  0  0  0  0  0  0  0  0  0  0
    4.2272    0.9811   -0.8031 C   0  0  0  0  0  0  0  0  0  0  0  0
    4.5648    1.4583   -1.9191 O   0  0  0  0  0  0  0  0  0  0  0  0
    5.0906    0.1020   -0.1548 O   0  0  0  0  0  0  0  0  0  0  0  0
    1.4965   -1.1679    2.6176 H   0  0  0  0  0  0  0  0  0  0  0  0
    2.7206   -2.4630    2.8685 H   0  0  0  0  0  0  0  0  0  0  0  0
    2.5138   -1.7393    1.2294 H   0  0  0  0  0  0  0  0  0  0  0  0
    4.3218   -0.7637    3.3543 H   0  0  0  0  0  0  0  0  0  0  0  0
    4.4158    1.3725    2.3143 H   0  0  0  0  0  0  0  0  0  0  0  0
    0.5556    3.3759   -0.5802 H   0  0  0  0  0  0  0  0  0  0  0  0
    1.0385    1.1582    2.6060 H   0  0  0  0  0  0  0  0  0  0  0  0
    1.2987    2.7342    1.8096 H   0  0  0  0  0  0  0  0  0  0  0  0
   -0.2024    2.9522   -2.7605 H   0  0  0  0  0  0  0  0  0  0  0  0
   -0.4352   -0.0499   -2.4299 H   0  0  0  0  0  0  0  0  0  0  0  0
   -2.7507   -0.8544   -2.9049 H   0  0  0  0  0  0  0  0  0  0  0  0
   -4.8866    0.9339   -1.8693 H   0  0  0  0  0  0  0  0  0  0  0  0
   -4.5541    0.5305   -3.4704 H   0  0  0  0  0  0  0  0  0  0  0  0
   -3.8706    0.9597    0.2760 H   0  0  0  0  0  0  0  0  0  0  0  0
   -3.6444   -0.0349    2.5103 H   0  0  0  0  0  0  0  0  0  0  0  0
   -2.9065   -1.9431    3.8969 H   0  0  0  0  0  0  0  0  0  0  0  0
   -1.8965   -3.5632    0.7825 H   0  0  0  0  0  0  0  0  0  0  0  0
   -2.1230   -2.5876   -1.4635 H   0  0  0  0  0  0  0  0  0  0  0  0
    5.9830   -0.1480   -0.5636 H   0  0  0  0  0  0  0  0  0  0  0  0
  1  2  1  0
  2  3  2  3
  3  4  1  0
  4  5  2  0
  5  6  1  0
  6  7  1  0
  7  8  1  0
  8  9  1  0
  9  4  1  0
  7 10  1  0
 10 11  1  0
 11 12  1  0
 12 13  2  0
 12 14  1  0
 14 15  1  0
 14 16  1  0
 16 17  2  0
 17 18  1  0
 18 19  2  0
 19 20  1  0
 19 21  1  0
 21 22  2  0
 22 16  1  0
 10 23  1  0
 23  6  1  0
 23 24  2  0
  5 25  1  0
 25 26  2  0
 25 27  1  0
  1 28  1  0
  1 29  1  0
  1 30  1  0
  2 31  1  0
  3 32  1  0
  7 33  1  1
  9 34  1  0
  9 35  1  0
 10 36  1  6
 11 37  1  0
 14 38  1  6
 15 39  1  0
 15 40  1  0
 17 41  1  0
 18 42  1  0
 20 43  1  0
 21 44  1  0
 22 45  1  0
 27 46  1  0
M  END
> <ID>
HT0420

> <Class>
1.0

> <Clusters>
46

> <Fold>
1

$$$$