
     RDKit          3D

 68 71  0  0  0  0  0  0  0  0999 V2000
    4.6001    0.6928    1.4788 C   0  0  0  0  0  0  0  0  0  0  0  0
    4.2003   -0.1173    0.2222 C   0  0  2  0  0  0  0  0  0  0  0  0
    4.4023    0.7225   -1.0668 C   0  0  0  0  0  0  0  0  0  0  0  0
    5.8813    0.9474   -1.4332 C   0  0  0  0  0  0  0  0  0  0  0  0
    6.5658   -0.2801   -1.9675 C   0  0  0  0  0  0  0  0  0  0  0  0
    7.7963   -0.2318   -2.2329 O   0  0  0  0  0  0  0  0  0  0  0  0
    5.8611   -1.4608   -2.1908 O   0  0  0  0  0  0  0  0  0  0  0  0
    2.7913   -0.8113    0.2457 C   0  0  1  0  0  0  0  0  0  0  0  0
    2.6116   -1.8526    1.3834 C   0  0  0  0  0  0  0  0  0  0  0  0
    1.1185   -1.8587    1.7430 C   0  0  0  0  0  0  0  0  0  0  0  0
    0.4636   -1.0886    0.6055 C   0  0  1  0  0  0  0  0  0  0  0  0
   -0.9936   -0.5966    0.7961 C   0  0  2  0  0  0  0  0  0  0  0  0
   -1.9676   -1.7798    1.1231 C   0  0  2  0  0  0  0  0  0  0  0  0
   -1.5642   -2.9650    0.4822 O   0  0  0  0  0  0  0  0  0  0  0  0
   -3.4321   -1.4852    0.7262 C   0  0  0  0  0  0  0  0  0  0  0  0
   -3.7411    0.0192    0.7818 C   0  0  2  0  0  0  0  0  0  0  0  0
   -5.2673    0.2992    0.7459 C   0  0  0  0  0  0  0  0  0  0  0  0
   -5.8817    0.2584   -0.6609 C   0  0  2  0  0  0  0  0  0  0  0  0
   -5.8913   -1.0506   -1.1689 O   0  0  0  0  0  0  0  0  0  0  0  0
   -5.1133    1.1812   -1.6076 C   0  0  0  0  0  0  0  0  0  0  0  0
   -3.6311    0.7990   -1.6765 C   0  0  0  0  0  0  0  0  0  0  0  0
   -2.9079    0.8194   -0.2925 C   0  0  1  0  0  0  0  0  0  0  0  0
   -2.7968    2.2889    0.2043 C   0  0  0  0  0  0  0  0  0  0  0  0
   -1.4662    0.1632   -0.4864 C   0  0  1  0  0  0  0  0  0  0  0  0
   -0.3969    1.1474   -1.0736 C   0  0  0  0  0  0  0  0  0  0  0  0
    1.0338    0.5705   -1.1335 C   0  0  0  0  0  0  0  0  0  0  0  0
    1.4692    0.0184    0.2460 C   0  0  2  0  0  0  0  0  0  0  0  0
    1.5188    1.1631    1.2999 C   0  0  0  0  0  0  0  0  0  0  0  0
    4.2074    0.2632    2.4175 H   0  0  0  0  0  0  0  0  0  0  0  0
    5.7059    0.7002    1.5781 H   0  0  0  0  0  0  0  0  0  0  0  0
    4.2801    1.7513    1.4133 H   0  0  0  0  0  0  0  0  0  0  0  0
    4.9203   -0.9643    0.1802 H   0  0  0  0  0  0  0  0  0  0  0  0
    3.9287    1.7182   -0.9317 H   0  0  0  0  0  0  0  0  0  0  0  0
    3.8958    0.2418   -1.9322 H   0  0  0  0  0  0  0  0  0  0  0  0
    6.4417    1.3281   -0.5544 H   0  0  0  0  0  0  0  0  0  0  0  0
    5.9324    1.7330   -2.2176 H   0  0  0  0  0  0  0  0  0  0  0  0
    6.3255   -2.2820   -2.5599 H   0  0  0  0  0  0  0  0  0  0  0  0
    2.7696   -1.4164   -0.6925 H   0  0  0  0  0  0  0  0  0  0  0  0
    2.9203   -2.8594    1.0242 H   0  0  0  0  0  0  0  0  0  0  0  0
    3.2053   -1.6308    2.2899 H   0  0  0  0  0  0  0  0  0  0  0  0
    0.7309   -2.8977    1.8122 H   0  0  0  0  0  0  0  0  0  0  0  0
    0.9463   -1.3412    2.7117 H   0  0  0  0  0  0  0  0  0  0  0  0
    0.4350   -1.8009   -0.2560 H   0  0  0  0  0  0  0  0  0  0  0  0
   -1.0305    0.0997    1.6591 H   0  0  0  0  0  0  0  0  0  0  0  0
   -1.9272   -1.9338    2.2278 H   0  0  0  0  0  0  0  0  0  0  0  0
   -2.0087   -3.7158    0.9562 H   0  0  0  0  0  0  0  0  0  0  0  0
   -4.1028   -2.0456    1.4138 H   0  0  0  0  0  0  0  0  0  0  0  0
   -3.6230   -1.8628   -0.3011 H   0  0  0  0  0  0  0  0  0  0  0  0
   -3.4163    0.3493    1.7961 H   0  0  0  0  0  0  0  0  0  0  0  0
   -5.8051   -0.4178    1.4036 H   0  0  0  0  0  0  0  0  0  0  0  0
   -5.4626    1.3026    1.1813 H   0  0  0  0  0  0  0  0  0  0  0  0
   -6.9297    0.6344   -0.6002 H   0  0  0  0  0  0  0  0  0  0  0  0
   -6.5973   -1.5441   -0.6756 H   0  0  0  0  0  0  0  0  0  0  0  0
   -5.5545    1.1055   -2.6254 H   0  0  0  0  0  0  0  0  0  0  0  0
   -5.2242    2.2377   -1.2825 H   0  0  0  0  0  0  0  0  0  0  0  0
   -3.5678   -0.2137   -2.1309 H   0  0  0  0  0  0  0  0  0  0  0  0
   -3.1222    1.4911   -2.3818 H   0  0  0  0  0  0  0  0  0  0  0  0
   -2.4186    2.9618   -0.5943 H   0  0  0  0  0  0  0  0  0  0  0  0
   -2.1208    2.3521    1.0838 H   0  0  0  0  0  0  0  0  0  0  0  0
   -3.7791    2.6972    0.5148 H   0  0  0  0  0  0  0  0  0  0  0  0
   -1.5520   -0.6356   -1.2586 H   0  0  0  0  0  0  0  0  0  0  0  0
   -0.3430    2.0874   -0.4932 H   0  0  0  0  0  0  0  0  0  0  0  0
   -0.6983    1.4336   -2.1038 H   0  0  0  0  0  0  0  0  0  0  0  0
    1.0687   -0.2294   -1.9056 H   0  0  0  0  0  0  0  0  0  0  0  0
    1.7181    1.3760   -1.4658 H   0  0  0  0  0  0  0  0  0  0  0  0
    0.5275    1.6017    1.5138 H   0  0  0  0  0  0  0  0  0  0  0  0
    2.1369    2.0007    0.9211 H   0  0  0  0  0  0  0  0  0  0  0  0
    1.9240    0.8123    2.2699 H   0  0  0  0  0  0  0  0  0  0  0  0
  2  1  1  0
  2  3  1  0
  3  4  1  0
  4  5  1  0
  5  6  2  0
  5  7  1  0
  8  2  1  0
  8  9  1  0
  9 10  1  0
 11 10  1  0
 11 12  1  0
 12 13  1  0
 13 14  1  0
 13 15  1  0
 16 15  1  0
 16 17  1  0
 17 18  1  0
 18 19  1  0
 18 20  1  0
 20 21  1  0
 21 22  1  0
 22 16  1  0
 22 23  1  1
 22 24  1  0
 24 12  1  0
 24 25  1  0
 25 26  1  0
 26 27  1  0
 27  8  1  0
 27 11  1  0
 27 28  1  1
  1 29  1  0
  1 30  1  0
  1 31  1  0
  2 32  1  6
  3 33  1  0
  3 34  1  0
  4 35  1  0
  4 36  1  0
  7 37  1  0
  8 38  1  6
  9 39  1  0
  9 40  1  0
 10 41  1  0
 10 42  1  0
 11 43  1  6
 12 44  1  1
 13 45  1  1
 14 46  1  0
 15 47  1  0
 15 48  1  0
 16 49  1  1
 17 50  1  0
 17 51  1  0
 18 52  1  1
 19 53  1  0
 20 54  1  0
 20 55  1  0
 21 56  1  0
 21 57  1  0
 23 58  1  0
 23 59  1  0
 23 60  1  0
 24 61  1  6
 25 62  1  0
 25 63  1  0
 26 64  1  0
 26 65  1  0
 28 66  1  0
 28 67  1  0
 28 68  1  0
M  END
> <ID>
HT0441

> <Class>
1.0

> <Clusters>
55

> <Fold>
1

$$$$