
     RDKit          3D

 48 50  0  0  0  0  0  0  0  0999 V2000
    6.5738    2.0624    0.3892 C   0  0  0  0  0  0  0  0  0  0  0  0
    5.4553    1.6738    1.1800 O   0  0  0  0  0  0  0  0  0  0  0  0
    4.3622    0.9387    0.6981 C   0  0  0  0  0  0  0  0  0  0  0  0
    4.2727    0.5065   -0.6389 C   0  0  0  0  0  0  0  0  0  0  0  0
    3.1603   -0.2211   -1.0719 C   0  0  0  0  0  0  0  0  0  0  0  0
    2.1164   -0.5191   -0.1831 C   0  0  0  0  0  0  0  0  0  0  0  0
    2.2157   -0.1018    1.1547 C   0  0  0  0  0  0  0  0  0  0  0  0
    3.3275    0.6260    1.5867 C   0  0  0  0  0  0  0  0  0  0  0  0
    0.9409   -1.2916   -0.6510 C   0  0  0  0  0  0  0  0  0  0  0  0
   -0.3355   -0.8758   -0.4495 C   0  0  0  0  0  0  0  0  0  0  0  0
   -1.4864   -1.7469   -0.7904 C   0  0  0  0  0  0  0  0  0  0  0  0
   -1.6288   -3.0107   -0.1952 C   0  0  0  0  0  0  0  0  0  0  0  0
   -2.7333   -3.8133   -0.4953 C   0  0  0  0  0  0  0  0  0  0  0  0
   -3.7207   -3.3563   -1.3889 C   0  0  0  0  0  0  0  0  0  0  0  0
   -4.8465   -4.1236   -1.7231 O   0  0  0  0  0  0  0  0  0  0  0  0
   -5.1129   -5.4250   -1.2104 C   0  0  0  0  0  0  0  0  0  0  0  0
   -3.5837   -2.0894   -1.9678 C   0  0  0  0  0  0  0  0  0  0  0  0
   -2.4797   -1.2866   -1.6680 C   0  0  0  0  0  0  0  0  0  0  0  0
   -0.6461    0.4791    0.0771 C   0  0  0  0  0  0  0  0  0  0  0  0
   -0.1102    1.6277   -0.5292 C   0  0  0  0  0  0  0  0  0  0  0  0
   -0.4139    2.8978   -0.0314 C   0  0  0  0  0  0  0  0  0  0  0  0
   -1.2721    3.0396    1.0755 C   0  0  0  0  0  0  0  0  0  0  0  0
   -1.6052    4.2913    1.6138 O   0  0  0  0  0  0  0  0  0  0  0  0
   -1.1198    5.5344    1.1174 C   0  0  0  0  0  0  0  0  0  0  0  0
   -1.8197    1.8948    1.6654 C   0  0  0  0  0  0  0  0  0  0  0  0
   -1.5154    0.6244    1.1690 C   0  0  0  0  0  0  0  0  0  0  0  0
    1.2794   -2.7936   -1.5184 Cl  0  0  0  0  0  0  0  0  0  0  0  0
    6.2421    2.7125   -0.4478 H   0  0  0  0  0  0  0  0  0  0  0  0
    7.2848    2.6322    1.0218 H   0  0  0  0  0  0  0  0  0  0  0  0
    7.0918    1.1636   -0.0072 H   0  0  0  0  0  0  0  0  0  0  0  0
    5.0556    0.7286   -1.3510 H   0  0  0  0  0  0  0  0  0  0  0  0
    3.1061   -0.5372   -2.1064 H   0  0  0  0  0  0  0  0  0  0  0  0
    1.4343   -0.3431    1.8648 H   0  0  0  0  0  0  0  0  0  0  0  0
    3.3871    0.9465    2.6191 H   0  0  0  0  0  0  0  0  0  0  0  0
   -0.8882   -3.3704    0.5087 H   0  0  0  0  0  0  0  0  0  0  0  0
   -2.8123   -4.7832   -0.0238 H   0  0  0  0  0  0  0  0  0  0  0  0
   -4.2969   -6.1222   -1.4956 H   0  0  0  0  0  0  0  0  0  0  0  0
   -5.2145   -5.3866   -0.1052 H   0  0  0  0  0  0  0  0  0  0  0  0
   -6.0648   -5.7967   -1.6418 H   0  0  0  0  0  0  0  0  0  0  0  0
   -4.3387   -1.7244   -2.6525 H   0  0  0  0  0  0  0  0  0  0  0  0
   -2.3956   -0.3084   -2.1255 H   0  0  0  0  0  0  0  0  0  0  0  0
    0.5391    1.5403   -1.3916 H   0  0  0  0  0  0  0  0  0  0  0  0
    0.0200    3.7615   -0.5162 H   0  0  0  0  0  0  0  0  0  0  0  0
   -0.0120    5.5673    1.1880 H   0  0  0  0  0  0  0  0  0  0  0  0
   -1.4403    5.6761    0.0636 H   0  0  0  0  0  0  0  0  0  0  0  0
   -1.5395    6.3583    1.7301 H   0  0  0  0  0  0  0  0  0  0  0  0
   -2.4846    1.9907    2.5144 H   0  0  0  0  0  0  0  0  0  0  0  0
   -1.9479   -0.2474    1.6445 H   0  0  0  0  0  0  0  0  0  0  0  0
  1  2  1  0
  2  3  1  0
  3  4  2  0
  4  5  1  0
  5  6  2  0
  6  7  1  0
  7  8  2  0
  8  3  1  0
  6  9  1  0
  9 10  2  3
 10 11  1  0
 11 12  2  0
 12 13  1  0
 13 14  2  0
 14 15  1  0
 15 16  1  0
 14 17  1  0
 17 18  2  0
 18 11  1  0
 10 19  1  0
 19 20  2  0
 20 21  1  0
 21 22  2  0
 22 23  1  0
 23 24  1  0
 22 25  1  0
 25 26  2  0
 26 19  1  0
  9 27  1  0
  1 28  1  0
  1 29  1  0
  1 30  1  0
  4 31  1  0
  5 32  1  0
  7 33  1  0
  8 34  1  0
 12 35  1  0
 13 36  1  0
 16 37  1  0
 16 38  1  0
 16 39  1  0
 17 40  1  0
 18 41  1  0
 20 42  1  0
 21 43  1  0
 24 44  1  0
 24 45  1  0
 24 46  1  0
 25 47  1  0
 26 48  1  0
M  END
> <ID>
HT0462

> <Class>
1.0

> <Clusters>
222

> <Fold>
1

$$$$