
     RDKit          3D

 42 44  0  0  0  0  0  0  0  0999 V2000
   -5.2160   -1.6726   -0.0977 C   0  0  0  0  0  0  0  0  0  0  0  0
   -3.9822   -0.8214   -0.2522 C   0  0  0  0  0  0  0  0  0  0  0  0
   -3.9639    0.5050    0.0103 C   0  0  0  0  0  0  0  0  0  0  0  0
   -2.7644    1.1987   -0.3157 N   0  0  0  0  0  0  0  0  0  0  0  0
   -1.8576    1.0575   -1.4299 C   0  0  2  0  0  0  0  0  0  0  0  0
   -1.8516   -0.6758   -2.0670 S   0  0  0  0  0  0  0  0  0  0  0  0
   -2.6758   -1.4921   -0.6418 C   0  0  0  0  0  0  0  0  0  0  0  0
   -0.7170    1.5210   -0.6686 C   0  0  2  0  0  0  0  0  0  0  0  0
    0.2630    0.4792   -0.3493 N   0  0  0  0  0  0  0  0  0  0  0  0
    1.3498    0.1760   -1.2389 C   0  0  0  0  0  0  0  0  0  0  0  0
    1.5053    0.8569   -2.2894 O   0  0  0  0  0  0  0  0  0  0  0  0
    2.3426   -0.9184   -0.9311 C   0  0  2  0  0  0  0  0  0  0  0  0
    1.6954   -2.0605   -0.2770 N   0  0  0  0  0  0  0  0  0  0  0  0
    3.5073   -0.3869   -0.1139 C   0  0  0  0  0  0  0  0  0  0  0  0
    4.8156   -0.4618   -0.6258 C   0  0  0  0  0  0  0  0  0  0  0  0
    5.8965    0.0263    0.1144 C   0  0  0  0  0  0  0  0  0  0  0  0
    5.6880    0.5960    1.3734 C   0  0  0  0  0  0  0  0  0  0  0  0
    6.7747    1.0784    2.0992 O   0  0  0  0  0  0  0  0  0  0  0  0
    4.3898    0.6766    1.8924 C   0  0  0  0  0  0  0  0  0  0  0  0
    3.3065    0.1893    1.1554 C   0  0  0  0  0  0  0  0  0  0  0  0
   -1.6525    1.7690    0.4777 C   0  0  0  0  0  0  0  0  0  0  0  0
   -1.5312    2.2180    1.6471 O   0  0  0  0  0  0  0  0  0  0  0  0
   -5.0955    1.2887    0.5627 C   0  0  0  0  0  0  0  0  0  0  0  0
   -4.9852    2.5406    0.6571 O   0  0  0  0  0  0  0  0  0  0  0  0
   -6.2716    0.6827    0.9935 O   0  0  0  0  0  0  0  0  0  0  0  0
   -5.5225   -1.7095    0.9683 H   0  0  0  0  0  0  0  0  0  0  0  0
   -5.0342   -2.7167   -0.4268 H   0  0  0  0  0  0  0  0  0  0  0  0
   -6.0391   -1.2650   -0.7216 H   0  0  0  0  0  0  0  0  0  0  0  0
   -2.1305    1.7686   -2.2409 H   0  0  0  0  0  0  0  0  0  0  0  0
   -1.9849   -1.4680    0.2275 H   0  0  0  0  0  0  0  0  0  0  0  0
   -2.8321   -2.5585   -0.9051 H   0  0  0  0  0  0  0  0  0  0  0  0
   -0.2547    2.4628   -1.0375 H   0  0  0  0  0  0  0  0  0  0  0  0
    0.1660   -0.0480    0.5469 H   0  0  0  0  0  0  0  0  0  0  0  0
    2.7235   -1.2810   -1.9134 H   0  0  0  0  0  0  0  0  0  0  0  0
    2.3549   -2.8720   -0.3097 H   0  0  0  0  0  0  0  0  0  0  0  0
    1.5270   -1.8587    0.7345 H   0  0  0  0  0  0  0  0  0  0  0  0
    5.0024   -0.8988   -1.5988 H   0  0  0  0  0  0  0  0  0  0  0  0
    6.8981   -0.0382   -0.2916 H   0  0  0  0  0  0  0  0  0  0  0  0
    6.6563    1.4969    3.0145 H   0  0  0  0  0  0  0  0  0  0  0  0
    4.2188    1.1170    2.8664 H   0  0  0  0  0  0  0  0  0  0  0  0
    2.3141    0.2656    1.5779 H   0  0  0  0  0  0  0  0  0  0  0  0
   -7.0331    1.2330    1.3723 H   0  0  0  0  0  0  0  0  0  0  0  0
  1  2  1  0
  2  3  2  0
  3  4  1  0
  4  5  1  0
  5  6  1  0
  6  7  1  0
  7  2  1  0
  5  8  1  0
  8  9  1  0
  9 10  1  0
 10 11  2  0
 10 12  1  0
 12 13  1  0
 12 14  1  0
 14 15  2  0
 15 16  1  0
 16 17  2  0
 17 18  1  0
 17 19  1  0
 19 20  2  0
 20 14  1  0
  8 21  1  0
 21  4  1  0
 21 22  2  0
  3 23  1  0
 23 24  2  0
 23 25  1  0
  1 26  1  0
  1 27  1  0
  1 28  1  0
  5 29  1  6
  7 30  1  0
  7 31  1  0
  8 32  1  6
  9 33  1  0
 12 34  1  6
 13 35  1  0
 13 36  1  0
 15 37  1  0
 16 38  1  0
 18 39  1  0
 19 40  1  0
 20 41  1  0
 25 42  1  0
M  END
> <ID>
HT0395

> <Class>
1.0

> <Clusters>
46

> <Fold>
1

$$$$