
     RDKit          3D

 71 75  0  0  0  0  0  0  0  0999 V2000
   -9.5608    2.2119    1.8136 C   0  0  0  0  0  0  0  0  0  0  0  0
   -9.1623    0.8080    1.3717 C   0  0  0  0  0  0  0  0  0  0  0  0
   -7.7838    0.7987    0.8666 N   0  0  0  0  0  0  0  0  0  0  0  0
   -7.5286    0.6646   -0.5746 C   0  0  0  0  0  0  0  0  0  0  0  0
   -6.3303    1.5255   -0.9880 C   0  0  0  0  0  0  0  0  0  0  0  0
   -5.1493    1.1637   -0.1913 N   0  0  0  0  0  0  0  0  0  0  0  0
   -3.8548    1.0818   -0.8137 C   0  0  0  0  0  0  0  0  0  0  0  0
   -3.5642    1.8730   -1.7529 O   0  0  0  0  0  0  0  0  0  0  0  0
   -2.9072    0.0863   -0.3923 N   0  0  0  0  0  0  0  0  0  0  0  0
   -1.5085    0.1069   -0.8341 C   0  0  1  0  0  0  0  0  0  0  0  0
   -0.7261    1.1454   -0.0750 C   0  0  0  0  0  0  0  0  0  0  0  0
   -1.0517    1.4450    1.1072 O   0  0  0  0  0  0  0  0  0  0  0  0
    0.4445    1.7268   -0.6666 N   0  0  0  0  0  0  0  0  0  0  0  0
    1.4558    2.4039    0.1498 C   0  0  1  0  0  0  0  0  0  0  0  0
    2.5183    1.5398    0.6177 C   0  0  1  0  0  0  0  0  0  0  0  0
    2.4339   -0.2391    0.2096 S   0  0  0  0  0  0  0  0  0  0  0  0
    4.2294   -0.4630    0.4974 C   0  0  0  0  0  0  0  0  0  0  0  0
    5.0970    0.3661   -0.4411 C   0  0  0  0  0  0  0  0  0  0  0  0
    4.7776    1.6649   -0.6992 C   0  0  0  0  0  0  0  0  0  0  0  0
    3.5066    2.1421   -0.2426 N   0  0  0  0  0  0  0  0  0  0  0  0
    2.4717    3.1048   -0.6992 C   0  0  0  0  0  0  0  0  0  0  0  0
    2.4384    4.0816   -1.4944 O   0  0  0  0  0  0  0  0  0  0  0  0
    5.6249    2.5714   -1.5145 C   0  0  0  0  0  0  0  0  0  0  0  0
    6.8793    2.4669   -1.5063 O   0  0  0  0  0  0  0  0  0  0  0  0
    5.0393    3.5869   -2.2607 O   0  0  0  0  0  0  0  0  0  0  0  0
    6.2888   -0.3242   -1.0704 C   0  0  0  0  0  0  0  0  0  0  0  0
    7.7928   -0.1040   -0.0544 S   0  0  0  0  0  0  0  0  0  0  0  0
    7.4593   -1.4849    1.0442 C   0  0  0  0  0  0  0  0  0  0  0  0
    6.8444   -1.3790    2.2350 N   0  0  0  0  0  0  0  0  0  0  0  0
    6.8284   -2.6140    2.7225 N   0  0  0  0  0  0  0  0  0  0  0  0
    7.4147   -3.4474    1.8746 N   0  0  0  0  0  0  0  0  0  0  0  0
    7.8179   -2.7593    0.8225 N   0  0  0  0  0  0  0  0  0  0  0  0
    8.5122   -3.3171   -0.3300 C   0  0  0  0  0  0  0  0  0  0  0  0
   -0.8621   -1.2509   -0.6537 C   0  0  0  0  0  0  0  0  0  0  0  0
   -0.3048   -1.9210   -1.7582 C   0  0  0  0  0  0  0  0  0  0  0  0
    0.3103   -3.1652   -1.5950 C   0  0  0  0  0  0  0  0  0  0  0  0
    0.3853   -3.7540   -0.3263 C   0  0  0  0  0  0  0  0  0  0  0  0
    0.9979   -4.9946   -0.1525 O   0  0  0  0  0  0  0  0  0  0  0  0
   -0.1581   -3.0916    0.7780 C   0  0  0  0  0  0  0  0  0  0  0  0
   -0.7794   -1.8485    0.6189 C   0  0  0  0  0  0  0  0  0  0  0  0
   -5.3088    0.9817    1.2277 C   0  0  0  0  0  0  0  0  0  0  0  0
   -4.3088    0.9727    1.9977 O   0  0  0  0  0  0  0  0  0  0  0  0
   -6.6638    0.8331    1.7746 C   0  0  0  0  0  0  0  0  0  0  0  0
   -6.8375    0.7460    3.0204 O   0  0  0  0  0  0  0  0  0  0  0  0
   -8.8967    2.5687    2.6296 H   0  0  0  0  0  0  0  0  0  0  0  0
   -9.4935    2.9144    0.9534 H   0  0  0  0  0  0  0  0  0  0  0  0
  -10.6075    2.1991    2.1852 H   0  0  0  0  0  0  0  0  0  0  0  0
   -9.2596    0.1008    2.2248 H   0  0  0  0  0  0  0  0  0  0  0  0
   -9.8704    0.4713    0.5823 H   0  0  0  0  0  0  0  0  0  0  0  0
   -7.3132   -0.4005   -0.8076 H   0  0  0  0  0  0  0  0  0  0  0  0
   -8.4181    0.9803   -1.1645 H   0  0  0  0  0  0  0  0  0  0  0  0
   -6.1349    1.3774   -2.0729 H   0  0  0  0  0  0  0  0  0  0  0  0
   -6.5723    2.5973   -0.8154 H   0  0  0  0  0  0  0  0  0  0  0  0
   -3.2545   -0.7040    0.1986 H   0  0  0  0  0  0  0  0  0  0  0  0
   -1.4879    0.3773   -1.9139 H   0  0  0  0  0  0  0  0  0  0  0  0
    0.6257    1.5681   -1.6838 H   0  0  0  0  0  0  0  0  0  0  0  0
    1.0243    3.0781    0.9226 H   0  0  0  0  0  0  0  0  0  0  0  0
    2.7702    1.7104    1.6879 H   0  0  0  0  0  0  0  0  0  0  0  0
    4.4545   -1.5468    0.3914 H   0  0  0  0  0  0  0  0  0  0  0  0
    4.4612   -0.1816    1.5480 H   0  0  0  0  0  0  0  0  0  0  0  0
    5.6040    4.2194   -2.8135 H   0  0  0  0  0  0  0  0  0  0  0  0
    6.4761    0.0629   -2.0941 H   0  0  0  0  0  0  0  0  0  0  0  0
    6.0818   -1.4069   -1.2116 H   0  0  0  0  0  0  0  0  0  0  0  0
    9.4783   -2.7917   -0.4770 H   0  0  0  0  0  0  0  0  0  0  0  0
    7.8858   -3.1990   -1.2384 H   0  0  0  0  0  0  0  0  0  0  0  0
    8.7120   -4.3980   -0.1684 H   0  0  0  0  0  0  0  0  0  0  0  0
   -0.3439   -1.4830   -2.7475 H   0  0  0  0  0  0  0  0  0  0  0  0
    0.7313   -3.6699   -2.4540 H   0  0  0  0  0  0  0  0  0  0  0  0
    1.4118   -5.4960   -0.9303 H   0  0  0  0  0  0  0  0  0  0  0  0
   -0.0929   -3.5400    1.7614 H   0  0  0  0  0  0  0  0  0  0  0  0
   -1.1892   -1.3498    1.4883 H   0  0  0  0  0  0  0  0  0  0  0  0
  1  2  1  0
  2  3  1  0
  3  4  1  0
  4  5  1  0
  5  6  1  0
  6  7  1  0
  7  8  2  0
  7  9  1  0
  9 10  1  0
 10 11  1  0
 11 12  2  0
 11 13  1  0
 14 13  1  0
 14 15  1  0
 15 16  1  0
 16 17  1  0
 17 18  1  0
 18 19  2  0
 19 20  1  0
 20 15  1  0
 20 21  1  0
 21 14  1  0
 21 22  2  0
 19 23  1  0
 23 24  2  0
 23 25  1  0
 18 26  1  0
 26 27  1  0
 27 28  1  0
 28 29  2  0
 29 30  1  0
 30 31  2  0
 31 32  1  0
 32 28  1  0
 32 33  1  0
 10 34  1  0
 34 35  2  0
 35 36  1  0
 36 37  2  0
 37 38  1  0
 37 39  1  0
 39 40  2  0
 40 34  1  0
  6 41  1  0
 41 42  2  0
 41 43  1  0
 43  3  1  0
 43 44  2  0
  1 45  1  0
  1 46  1  0
  1 47  1  0
  2 48  1  0
  2 49  1  0
  4 50  1  0
  4 51  1  0
  5 52  1  0
  5 53  1  0
  9 54  1  0
 10 55  1  6
 13 56  1  0
 14 57  1  1
 15 58  1  1
 17 59  1  0
 17 60  1  0
 25 61  1  0
 26 62  1  0
 26 63  1  0
 33 64  1  0
 33 65  1  0
 33 66  1  0
 35 67  1  0
 36 68  1  0
 38 69  1  0
 39 70  1  0
 40 71  1  0
M  END
> <ID>
HT0410

> <Class>
1.0

> <Clusters>
44

> <Fold>
1

$$$$