
     RDKit          3D

 74 76  0  0  0  0  0  0  0  0999 V2000
    3.5121   -1.9491   -0.5282 C   0  0  0  0  0  0  0  0  0  0  0  0
    3.0156   -0.6405    0.1155 C   0  0  2  0  0  0  0  0  0  0  0  0
    4.1081   -0.0703    1.0703 C   0  0  0  0  0  0  0  0  0  0  0  0
    5.4642    0.2717    0.4194 C   0  0  0  0  0  0  0  0  0  0  0  0
    5.3359    1.2905   -0.7332 C   0  0  0  0  0  0  0  0  0  0  0  0
    6.6743    1.8741   -1.2614 C   0  0  0  0  0  0  0  0  0  0  0  0
    7.3604    2.7464   -0.1877 C   0  0  0  0  0  0  0  0  0  0  0  0
    7.6264    0.7476   -1.7172 C   0  0  0  0  0  0  0  0  0  0  0  0
    6.3555    2.6833   -2.3709 O   0  0  0  0  0  0  0  0  0  0  0  0
    1.6738   -0.8588    0.8988 C   0  0  1  0  0  0  0  0  0  0  0  0
    1.1542    0.4459    1.5614 C   0  0  0  0  0  0  0  0  0  0  0  0
   -0.3778    0.3918    1.5495 C   0  0  0  0  0  0  0  0  0  0  0  0
   -0.6988   -1.0222    1.0833 C   0  0  1  0  0  0  0  0  0  0  0  0
   -2.0522   -1.3418    0.4813 C   0  0  0  0  0  0  0  0  0  0  0  0
   -3.0870   -0.4802    0.5350 C   0  0  0  0  0  0  0  0  0  0  0  0
   -4.4011   -0.7507   -0.0944 C   0  0  0  0  0  0  0  0  0  0  0  0
   -5.5270   -0.0542    0.1678 C   0  0  0  0  0  0  0  0  0  0  0  0
   -6.7118   -0.2562   -0.7563 C   0  0  0  0  0  0  0  0  0  0  0  0
   -7.8403    0.7764   -0.5506 C   0  0  1  0  0  0  0  0  0  0  0  0
   -8.6720    0.3901    0.5147 O   0  0  0  0  0  0  0  0  0  0  0  0
   -7.2525    2.1682   -0.2729 C   0  0  0  0  0  0  0  0  0  0  0  0
   -6.4820    2.1913    1.0635 C   0  0  2  0  0  0  0  0  0  0  0  0
   -5.6858    3.3455    1.1532 O   0  0  0  0  0  0  0  0  0  0  0  0
   -5.6445    0.9434    1.2734 C   0  0  0  0  0  0  0  0  0  0  0  0
   -5.1653    0.6881    2.4979 C   0  0  0  0  0  0  0  0  0  0  0  0
   -2.1747   -2.7112   -0.1664 C   0  0  0  0  0  0  0  0  0  0  0  0
   -0.9597   -3.6144    0.1391 C   0  0  0  0  0  0  0  0  0  0  0  0
    0.4144   -2.9426   -0.1281 C   0  0  0  0  0  0  0  0  0  0  0  0
    0.4363   -1.3938    0.1104 C   0  0  2  0  0  0  0  0  0  0  0  0
    0.2800   -0.6515   -1.2555 C   0  0  0  0  0  0  0  0  0  0  0  0
    3.6878   -2.7252    0.2464 H   0  0  0  0  0  0  0  0  0  0  0  0
    2.7919   -2.3314   -1.2712 H   0  0  0  0  0  0  0  0  0  0  0  0
    4.4483   -1.7866   -1.0967 H   0  0  0  0  0  0  0  0  0  0  0  0
    2.8323    0.1007   -0.6889 H   0  0  0  0  0  0  0  0  0  0  0  0
    4.2909   -0.8020    1.8881 H   0  0  0  0  0  0  0  0  0  0  0  0
    3.7436    0.8605    1.5531 H   0  0  0  0  0  0  0  0  0  0  0  0
    6.1047    0.6926    1.2207 H   0  0  0  0  0  0  0  0  0  0  0  0
    5.9627   -0.6545    0.0692 H   0  0  0  0  0  0  0  0  0  0  0  0
    4.6841    2.1308   -0.4049 H   0  0  0  0  0  0  0  0  0  0  0  0
    4.8230    0.7947   -1.5856 H   0  0  0  0  0  0  0  0  0  0  0  0
    8.2398    3.2709   -0.6198 H   0  0  0  0  0  0  0  0  0  0  0  0
    7.7277    2.1355    0.6625 H   0  0  0  0  0  0  0  0  0  0  0  0
    6.6557    3.5142    0.1975 H   0  0  0  0  0  0  0  0  0  0  0  0
    7.1184    0.0851   -2.4501 H   0  0  0  0  0  0  0  0  0  0  0  0
    8.5293    1.1755   -2.2033 H   0  0  0  0  0  0  0  0  0  0  0  0
    7.9689    0.1368   -0.8557 H   0  0  0  0  0  0  0  0  0  0  0  0
    7.1976    3.0660   -2.7339 H   0  0  0  0  0  0  0  0  0  0  0  0
    1.8870   -1.5769    1.7250 H   0  0  0  0  0  0  0  0  0  0  0  0
    1.5281    0.5233    2.6060 H   0  0  0  0  0  0  0  0  0  0  0  0
    1.4859    1.3451    0.9968 H   0  0  0  0  0  0  0  0  0  0  0  0
   -0.7717    1.1500    0.8379 H   0  0  0  0  0  0  0  0  0  0  0  0
   -0.7980    0.5850    2.5608 H   0  0  0  0  0  0  0  0  0  0  0  0
   -0.6111   -1.6637    1.9928 H   0  0  0  0  0  0  0  0  0  0  0  0
   -2.9579    0.4665    1.0386 H   0  0  0  0  0  0  0  0  0  0  0  0
   -4.4374   -1.4907   -0.8851 H   0  0  0  0  0  0  0  0  0  0  0  0
   -6.3584   -0.1702   -1.8085 H   0  0  0  0  0  0  0  0  0  0  0  0
   -7.1123   -1.2848   -0.6234 H   0  0  0  0  0  0  0  0  0  0  0  0
   -8.4435    0.8395   -1.4869 H   0  0  0  0  0  0  0  0  0  0  0  0
   -9.2525   -0.3404    0.1756 H   0  0  0  0  0  0  0  0  0  0  0  0
   -8.0730    2.9180   -0.2372 H   0  0  0  0  0  0  0  0  0  0  0  0
   -6.5772    2.4496   -1.1114 H   0  0  0  0  0  0  0  0  0  0  0  0
   -7.2400    2.2369    1.8771 H   0  0  0  0  0  0  0  0  0  0  0  0
   -4.9759    3.2732    0.4622 H   0  0  0  0  0  0  0  0  0  0  0  0
   -4.6606   -0.2421    2.7247 H   0  0  0  0  0  0  0  0  0  0  0  0
   -5.3033    1.3964    3.3054 H   0  0  0  0  0  0  0  0  0  0  0  0
   -3.0841   -3.2238    0.2162 H   0  0  0  0  0  0  0  0  0  0  0  0
   -2.2778   -2.5953   -1.2663 H   0  0  0  0  0  0  0  0  0  0  0  0
   -1.0078   -3.9164    1.2087 H   0  0  0  0  0  0  0  0  0  0  0  0
   -1.0378   -4.5473   -0.4603 H   0  0  0  0  0  0  0  0  0  0  0  0
    0.6995   -3.1774   -1.1764 H   0  0  0  0  0  0  0  0  0  0  0  0
    1.1669   -3.4447    0.5176 H   0  0  0  0  0  0  0  0  0  0  0  0
    1.0890   -0.9329   -1.9590 H   0  0  0  0  0  0  0  0  0  0  0  0
   -0.6751   -0.9081   -1.7549 H   0  0  0  0  0  0  0  0  0  0  0  0
    0.3135    0.4508   -1.1350 H   0  0  0  0  0  0  0  0  0  0  0  0
  2  1  1  0
  2  3  1  0
  3  4  1  0
  4  5  1  0
  5  6  1  0
  6  7  1  0
  6  8  1  0
  6  9  1  0
 10  2  1  0
 10 11  1  0
 11 12  1  0
 13 12  1  0
 13 14  1  0
 14 15  2  3
 15 16  1  0
 16 17  2  3
 17 18  1  0
 18 19  1  0
 19 20  1  0
 19 21  1  0
 21 22  1  0
 22 23  1  0
 22 24  1  0
 24 17  1  0
 24 25  2  3
 14 26  1  0
 26 27  1  0
 27 28  1  0
 28 29  1  0
 29 10  1  0
 29 13  1  0
 29 30  1  6
  1 31  1  0
  1 32  1  0
  1 33  1  0
  2 34  1  6
  3 35  1  0
  3 36  1  0
  4 37  1  0
  4 38  1  0
  5 39  1  0
  5 40  1  0
  7 41  1  0
  7 42  1  0
  7 43  1  0
  8 44  1  0
  8 45  1  0
  8 46  1  0
  9 47  1  0
 10 48  1  1
 11 49  1  0
 11 50  1  0
 12 51  1  0
 12 52  1  0
 13 53  1  1
 15 54  1  0
 16 55  1  0
 18 56  1  0
 18 57  1  0
 19 58  1  6
 20 59  1  0
 21 60  1  0
 21 61  1  0
 22 62  1  1
 23 63  1  0
 25 64  1  0
 25 65  1  0
 26 66  1  0
 26 67  1  0
 27 68  1  0
 27 69  1  0
 28 70  1  0
 28 71  1  0
 30 72  1  0
 30 73  1  0
 30 74  1  0
M  END
> <ID>
HT0351

> <Class>
1.0

> <Clusters>
41

> <Fold>
1

$$$$