
     RDKit          3D

 43 45  0  0  0  0  0  0  0  0999 V2000
    5.1379   -0.8680    0.2251 C   0  0  0  0  0  0  0  0  0  0  0  0
    3.8644   -0.0635    0.1855 C   0  0  0  0  0  0  0  0  0  0  0  0
    3.7257    1.0619   -0.5515 C   0  0  0  0  0  0  0  0  0  0  0  0
    2.5129    1.7870   -0.3790 N   0  0  0  0  0  0  0  0  0  0  0  0
    1.7218    2.0493    0.7996 C   0  0  2  0  0  0  0  0  0  0  0  0
    1.9037    0.6922    2.0388 S   0  0  0  0  0  0  0  0  0  0  0  0
    2.6514   -0.5781    0.9418 C   0  0  0  0  0  0  0  0  0  0  0  0
    0.4863    2.1451    0.0512 C   0  0  2  0  0  0  0  0  0  0  0  0
   -0.4334    1.0227    0.2547 N   0  0  0  0  0  0  0  0  0  0  0  0
   -1.4026    1.0304    1.3146 C   0  0  0  0  0  0  0  0  0  0  0  0
   -1.5321    2.0580    2.0347 O   0  0  0  0  0  0  0  0  0  0  0  0
   -2.2807   -0.1695    1.5899 C   0  0  2  0  0  0  0  0  0  0  0  0
   -1.4934   -1.3825    1.8330 N   0  0  0  0  0  0  0  0  0  0  0  0
   -3.2956   -0.3813    0.4759 C   0  0  0  0  0  0  0  0  0  0  0  0
   -4.5951   -0.0642    0.6808 C   0  0  0  0  0  0  0  0  0  0  0  0
   -5.6202   -0.2170   -0.4173 C   0  0  0  0  0  0  0  0  0  0  0  0
   -5.2618   -1.3535   -1.3392 C   0  0  0  0  0  0  0  0  0  0  0  0
   -3.9774   -1.6705   -1.5568 C   0  0  0  0  0  0  0  0  0  0  0  0
   -2.8739   -0.8808   -0.8984 C   0  0  0  0  0  0  0  0  0  0  0  0
    1.2957    1.9739   -1.2003 C   0  0  0  0  0  0  0  0  0  0  0  0
    1.0382    1.9409   -2.4318 O   0  0  0  0  0  0  0  0  0  0  0  0
    4.7426    1.6132   -1.4799 C   0  0  0  0  0  0  0  0  0  0  0  0
    4.5329    2.7302   -2.0247 O   0  0  0  0  0  0  0  0  0  0  0  0
    5.9163    0.9286   -1.7794 O   0  0  0  0  0  0  0  0  0  0  0  0
    5.0632   -1.7136    0.9397 H   0  0  0  0  0  0  0  0  0  0  0  0
    5.3485   -1.2976   -0.7763 H   0  0  0  0  0  0  0  0  0  0  0  0
    5.9822   -0.2266    0.5547 H   0  0  0  0  0  0  0  0  0  0  0  0
    2.0107    3.0258    1.2477 H   0  0  0  0  0  0  0  0  0  0  0  0
    1.8845   -0.9100    0.2102 H   0  0  0  0  0  0  0  0  0  0  0  0
    2.9083   -1.4579    1.5670 H   0  0  0  0  0  0  0  0  0  0  0  0
   -0.0137    3.1377    0.0900 H   0  0  0  0  0  0  0  0  0  0  0  0
   -0.3674    0.1945   -0.3772 H   0  0  0  0  0  0  0  0  0  0  0  0
   -2.8350    0.0436    2.5334 H   0  0  0  0  0  0  0  0  0  0  0  0
   -0.9659   -1.2579    2.7280 H   0  0  0  0  0  0  0  0  0  0  0  0
   -0.7766   -1.5171    1.0859 H   0  0  0  0  0  0  0  0  0  0  0  0
   -4.9268    0.3217    1.6405 H   0  0  0  0  0  0  0  0  0  0  0  0
   -5.6643    0.7240   -1.0050 H   0  0  0  0  0  0  0  0  0  0  0  0
   -6.6190   -0.4027    0.0309 H   0  0  0  0  0  0  0  0  0  0  0  0
   -6.0492   -1.9198   -1.8269 H   0  0  0  0  0  0  0  0  0  0  0  0
   -3.7291   -2.4998   -2.2121 H   0  0  0  0  0  0  0  0  0  0  0  0
   -1.9726   -1.5222   -0.8403 H   0  0  0  0  0  0  0  0  0  0  0  0
   -2.6393   -0.0037   -1.5380 H   0  0  0  0  0  0  0  0  0  0  0  0
    6.5982    1.3182   -2.4193 H   0  0  0  0  0  0  0  0  0  0  0  0
  1  2  1  0
  2  3  2  0
  3  4  1  0
  4  5  1  0
  5  6  1  0
  6  7  1  0
  7  2  1  0
  5  8  1  0
  8  9  1  0
  9 10  1  0
 10 11  2  0
 10 12  1  0
 12 13  1  0
 12 14  1  0
 14 15  2  0
 15 16  1  0
 16 17  1  0
 17 18  2  0
 18 19  1  0
 19 14  1  0
  8 20  1  0
 20  4  1  0
 20 21  2  0
  3 22  1  0
 22 23  2  0
 22 24  1  0
  1 25  1  0
  1 26  1  0
  1 27  1  0
  5 28  1  1
  7 29  1  0
  7 30  1  0
  8 31  1  6
  9 32  1  0
 12 33  1  1
 13 34  1  0
 13 35  1  0
 15 36  1  0
 16 37  1  0
 16 38  1  0
 17 39  1  0
 18 40  1  0
 19 41  1  0
 19 42  1  0
 24 43  1  0
M  END
> <ID>
HT0435

> <Class>
1.0

> <Clusters>
46

> <Fold>
1

$$$$