
     RDKit          3D

 28 27  0  0  0  0  0  0  0  0999 V2000
   -4.9145   -1.3464    0.9810 C   0  0  0  0  0  0  0  0  0  0  0  0
   -3.5040   -0.2876    1.2033 S   0  0  0  0  0  0  0  0  0  0  0  0
   -2.3648   -1.1049    1.7468 O   0  0  0  0  0  0  0  0  0  0  0  0
   -3.8580    0.8001    2.1788 O   0  0  0  0  0  0  0  0  0  0  0  0
   -3.0938    0.3902   -0.2974 O   0  0  0  0  0  0  0  0  0  0  0  0
   -1.8832    1.1082   -0.1878 C   0  0  0  0  0  0  0  0  0  0  0  0
   -0.7340    0.2839   -0.7737 C   0  0  0  0  0  0  0  0  0  0  0  0
    0.5882    1.0582   -0.7181 C   0  0  0  0  0  0  0  0  0  0  0  0
    1.7362    0.2357   -1.3088 C   0  0  0  0  0  0  0  0  0  0  0  0
    2.9299    0.9888   -1.2811 O   0  0  0  0  0  0  0  0  0  0  0  0
    3.9127    0.4862    0.0093 S   0  0  0  0  0  0  0  0  0  0  0  0
    4.9704    1.5278    0.2399 O   0  0  0  0  0  0  0  0  0  0  0  0
    3.1067    0.3292    1.2695 O   0  0  0  0  0  0  0  0  0  0  0  0
    4.7092   -1.0551   -0.3921 C   0  0  0  0  0  0  0  0  0  0  0  0
   -5.2001   -1.7956    1.9545 H   0  0  0  0  0  0  0  0  0  0  0  0
   -4.6625   -2.1530    0.2621 H   0  0  0  0  0  0  0  0  0  0  0  0
   -5.7644   -0.7532    0.5849 H   0  0  0  0  0  0  0  0  0  0  0  0
   -1.6403    1.4297    0.8519 H   0  0  0  0  0  0  0  0  0  0  0  0
   -1.9895    2.0395   -0.7841 H   0  0  0  0  0  0  0  0  0  0  0  0
   -0.6306   -0.6632   -0.2020 H   0  0  0  0  0  0  0  0  0  0  0  0
   -0.9724    0.0301   -1.8300 H   0  0  0  0  0  0  0  0  0  0  0  0
    0.4891    2.0056   -1.2922 H   0  0  0  0  0  0  0  0  0  0  0  0
    0.8223    1.3129    0.3378 H   0  0  0  0  0  0  0  0  0  0  0  0
    1.8118   -0.7504   -0.7958 H   0  0  0  0  0  0  0  0  0  0  0  0
    1.5022    0.0152   -2.3722 H   0  0  0  0  0  0  0  0  0  0  0  0
    5.4259   -1.3221    0.4117 H   0  0  0  0  0  0  0  0  0  0  0  0
    3.9520   -1.8598   -0.4870 H   0  0  0  0  0  0  0  0  0  0  0  0
    5.2557   -0.9498   -1.3518 H   0  0  0  0  0  0  0  0  0  0  0  0
  1  2  1  0
  2  3  2  0
  2  4  2  0
  2  5  1  0
  5  6  1  0
  6  7  1  0
  7  8  1  0
  8  9  1  0
  9 10  1  0
 10 11  1  0
 11 12  2  0
 11 13  2  0
 11 14  1  0
  1 15  1  0
  1 16  1  0
  1 17  1  0
  6 18  1  0
  6 19  1  0
  7 20  1  0
  7 21  1  0
  8 22  1  0
  8 23  1  0
  9 24  1  0
  9 25  1  0
 14 26  1  0
 14 27  1  0
 14 28  1  0
M  END
> <ID>
HT0332

> <Class>
1.0

> <Clusters>
20

> <Fold>
1

$$$$