
     RDKit          3D

 52 54  0  0  0  0  0  0  0  0999 V2000
    7.5053    1.2437    1.9183 O   0  0  0  0  0  0  0  0  0  0  0  0
    7.2270    1.7371    0.6476 C   0  0  0  0  0  0  0  0  0  0  0  0
    8.1685    2.0914   -0.1115 O   0  0  0  0  0  0  0  0  0  0  0  0
    5.8162    1.7965    0.1668 C   0  0  0  0  0  0  0  0  0  0  0  0
    5.4977    0.5776   -0.4709 O   0  0  0  0  0  0  0  0  0  0  0  0
    4.1204    0.5303   -0.7950 C   0  0  0  0  0  0  0  0  0  0  0  0
    3.3613   -0.2848    0.2572 C   0  0  0  0  0  0  0  0  0  0  0  0
    1.9078   -0.2489   -0.0104 N   0  0  0  0  0  0  0  0  0  0  0  0
    1.1419   -0.3915    1.2480 C   0  0  0  0  0  0  0  0  0  0  0  0
   -0.3598   -0.6185    0.9823 C   0  0  0  0  0  0  0  0  0  0  0  0
   -0.6887   -0.2470   -0.4091 N   0  0  0  0  0  0  0  0  0  0  0  0
    0.0263   -1.1204   -1.3643 C   0  0  0  0  0  0  0  0  0  0  0  0
    1.5060   -1.2984   -0.9684 C   0  0  0  0  0  0  0  0  0  0  0  0
   -2.1453   -0.1507   -0.7071 C   0  0  2  0  0  0  0  0  0  0  0  0
   -2.7444    1.1773   -0.2496 C   0  0  0  0  0  0  0  0  0  0  0  0
   -4.1224    1.4097   -0.4350 C   0  0  0  0  0  0  0  0  0  0  0  0
   -4.7002    2.6225   -0.0503 C   0  0  0  0  0  0  0  0  0  0  0  0
   -3.9096    3.6297    0.5046 C   0  0  0  0  0  0  0  0  0  0  0  0
   -2.5375    3.4302    0.6649 C   0  0  0  0  0  0  0  0  0  0  0  0
   -1.9533    2.2190    0.2825 C   0  0  0  0  0  0  0  0  0  0  0  0
   -2.9373   -1.3568   -0.1992 C   0  0  0  0  0  0  0  0  0  0  0  0
   -3.4233   -1.4155    1.1232 C   0  0  0  0  0  0  0  0  0  0  0  0
   -4.1438   -2.5284    1.5655 C   0  0  0  0  0  0  0  0  0  0  0  0
   -4.3931   -3.5938    0.6963 C   0  0  0  0  0  0  0  0  0  0  0  0
   -5.2954   -4.9905    1.2550 Cl  0  0  0  0  0  0  0  0  0  0  0  0
   -3.9256   -3.5433   -0.6198 C   0  0  0  0  0  0  0  0  0  0  0  0
   -3.2065   -2.4312   -1.0669 C   0  0  0  0  0  0  0  0  0  0  0  0
    8.4581    1.1899    2.2576 H   0  0  0  0  0  0  0  0  0  0  0  0
    5.1550    1.9806    1.0441 H   0  0  0  0  0  0  0  0  0  0  0  0
    5.7145    2.6443   -0.5482 H   0  0  0  0  0  0  0  0  0  0  0  0
    4.0267    0.0307   -1.7808 H   0  0  0  0  0  0  0  0  0  0  0  0
    3.6511    1.5374   -0.9095 H   0  0  0  0  0  0  0  0  0  0  0  0
    3.7456   -1.3298    0.2797 H   0  0  0  0  0  0  0  0  0  0  0  0
    3.5849    0.1654    1.2504 H   0  0  0  0  0  0  0  0  0  0  0  0
    1.2602    0.5408    1.8439 H   0  0  0  0  0  0  0  0  0  0  0  0
    1.5351   -1.2381    1.8571 H   0  0  0  0  0  0  0  0  0  0  0  0
   -0.9444   -0.0070    1.7021 H   0  0  0  0  0  0  0  0  0  0  0  0
   -0.6026   -1.6906    1.1640 H   0  0  0  0  0  0  0  0  0  0  0  0
   -0.4530   -2.1218   -1.4209 H   0  0  0  0  0  0  0  0  0  0  0  0
   -0.0183   -0.6599   -2.3757 H   0  0  0  0  0  0  0  0  0  0  0  0
    1.6504   -2.3072   -0.5168 H   0  0  0  0  0  0  0  0  0  0  0  0
    2.1267   -1.2520   -1.8887 H   0  0  0  0  0  0  0  0  0  0  0  0
   -2.2680   -0.1198   -1.8144 H   0  0  0  0  0  0  0  0  0  0  0  0
   -4.7526    0.6458   -0.8746 H   0  0  0  0  0  0  0  0  0  0  0  0
   -5.7619    2.7825   -0.1867 H   0  0  0  0  0  0  0  0  0  0  0  0
   -4.3583    4.5689    0.8008 H   0  0  0  0  0  0  0  0  0  0  0  0
   -1.9229    4.2183    1.0804 H   0  0  0  0  0  0  0  0  0  0  0  0
   -0.8835    2.1117    0.3990 H   0  0  0  0  0  0  0  0  0  0  0  0
   -3.2504   -0.5992    1.8120 H   0  0  0  0  0  0  0  0  0  0  0  0
   -4.5089   -2.5605    2.5842 H   0  0  0  0  0  0  0  0  0  0  0  0
   -4.1194   -4.3646   -1.2981 H   0  0  0  0  0  0  0  0  0  0  0  0
   -2.8562   -2.4109   -2.0915 H   0  0  0  0  0  0  0  0  0  0  0  0
  1  2  1  0
  2  3  2  0
  2  4  1  0
  4  5  1  0
  5  6  1  0
  6  7  1  0
  7  8  1  0
  8  9  1  0
  9 10  1  0
 10 11  1  0
 11 12  1  0
 12 13  1  0
 13  8  1  0
 11 14  1  0
 14 15  1  0
 15 16  2  0
 16 17  1  0
 17 18  2  0
 18 19  1  0
 19 20  2  0
 20 15  1  0
 14 21  1  0
 21 22  2  0
 22 23  1  0
 23 24  2  0
 24 25  1  0
 24 26  1  0
 26 27  2  0
 27 21  1  0
  1 28  1  0
  4 29  1  0
  4 30  1  0
  6 31  1  0
  6 32  1  0
  7 33  1  0
  7 34  1  0
  9 35  1  0
  9 36  1  0
 10 37  1  0
 10 38  1  0
 12 39  1  0
 12 40  1  0
 13 41  1  0
 13 42  1  0
 14 43  1  6
 16 44  1  0
 17 45  1  0
 18 46  1  0
 19 47  1  0
 20 48  1  0
 22 49  1  0
 23 50  1  0
 26 51  1  0
 27 52  1  0
M  END
> <ID>
HT0439

> <Class>
1.0

> <Clusters>
50

> <Fold>
1

$$$$