
     RDKit          3D

 49 52  0  0  0  0  0  0  0  0999 V2000
    3.7692   -3.3372    1.1077 C   0  0  0  0  0  0  0  0  0  0  0  0
    3.3518   -2.0757    1.7063 N   0  0  0  0  0  0  0  0  0  0  0  0
    2.6798   -1.9696    2.8377 N   0  0  0  0  0  0  0  0  0  0  0  0
    2.4630   -0.6853    3.0830 N   0  0  0  0  0  0  0  0  0  0  0  0
    2.9872    0.0583    2.1170 N   0  0  0  0  0  0  0  0  0  0  0  0
    3.5366   -0.8212    1.2607 C   0  0  0  0  0  0  0  0  0  0  0  0
    4.3967   -0.3537   -0.2444 S   0  0  0  0  0  0  0  0  0  0  0  0
    2.9550   -0.6223   -1.3375 C   0  0  0  0  0  0  0  0  0  0  0  0
    1.8406    0.3640   -1.0566 C   0  0  0  0  0  0  0  0  0  0  0  0
    1.9534    1.7006   -1.2469 C   0  0  0  0  0  0  0  0  0  0  0  0
    0.8681    2.5008   -0.7911 N   0  0  0  0  0  0  0  0  0  0  0  0
    0.0204    2.3877    0.3714 C   0  0  2  0  0  0  0  0  0  0  0  0
   -0.1229    0.6335    0.9224 S   0  0  0  0  0  0  0  0  0  0  0  0
    0.4962   -0.1802   -0.6024 C   0  0  0  0  0  0  0  0  0  0  0  0
   -1.1104    3.0067   -0.2892 C   0  0  2  0  0  0  0  0  0  0  0  0
   -2.1973    2.0833   -0.6259 N   0  0  0  0  0  0  0  0  0  0  0  0
   -3.2230    1.7431    0.3163 C   0  0  0  0  0  0  0  0  0  0  0  0
   -3.2915    2.3432    1.4240 O   0  0  0  0  0  0  0  0  0  0  0  0
   -4.1645    0.6091    0.0113 C   0  0  2  0  0  0  0  0  0  0  0  0
   -5.3007    0.6604    0.8360 O   0  0  0  0  0  0  0  0  0  0  0  0
   -3.4456   -0.7020    0.2156 C   0  0  0  0  0  0  0  0  0  0  0  0
   -3.1122   -1.1396    1.5110 C   0  0  0  0  0  0  0  0  0  0  0  0
   -2.3946   -2.3256    1.6931 C   0  0  0  0  0  0  0  0  0  0  0  0
   -2.0026   -3.0838    0.5873 C   0  0  0  0  0  0  0  0  0  0  0  0
   -2.3304   -2.6594   -0.7027 C   0  0  0  0  0  0  0  0  0  0  0  0
   -3.0484   -1.4744   -0.8905 C   0  0  0  0  0  0  0  0  0  0  0  0
   -0.2151    3.2480   -1.4689 C   0  0  0  0  0  0  0  0  0  0  0  0
   -0.3492    3.7985   -2.5927 O   0  0  0  0  0  0  0  0  0  0  0  0
    3.1156    2.3860   -1.8679 C   0  0  0  0  0  0  0  0  0  0  0  0
    3.9158    1.7682   -2.6170 O   0  0  0  0  0  0  0  0  0  0  0  0
    3.3178    3.7491   -1.6626 O   0  0  0  0  0  0  0  0  0  0  0  0
    4.3287   -3.1661    0.1650 H   0  0  0  0  0  0  0  0  0  0  0  0
    4.4246   -3.8849    1.8167 H   0  0  0  0  0  0  0  0  0  0  0  0
    2.8744   -3.9551    0.8857 H   0  0  0  0  0  0  0  0  0  0  0  0
    2.6073   -1.6674   -1.1991 H   0  0  0  0  0  0  0  0  0  0  0  0
    3.2693   -0.5559   -2.3980 H   0  0  0  0  0  0  0  0  0  0  0  0
    0.4142    3.0213    1.1969 H   0  0  0  0  0  0  0  0  0  0  0  0
   -0.2476   -0.0311   -1.4132 H   0  0  0  0  0  0  0  0  0  0  0  0
    0.5479   -1.2703   -0.4018 H   0  0  0  0  0  0  0  0  0  0  0  0
   -1.4645    3.9553    0.1703 H   0  0  0  0  0  0  0  0  0  0  0  0
   -2.2090    1.6185   -1.5629 H   0  0  0  0  0  0  0  0  0  0  0  0
   -4.4848    0.6991   -1.0530 H   0  0  0  0  0  0  0  0  0  0  0  0
   -5.8593    1.4134    0.5087 H   0  0  0  0  0  0  0  0  0  0  0  0
   -3.3946   -0.5538    2.3769 H   0  0  0  0  0  0  0  0  0  0  0  0
   -2.1361   -2.6530    2.6917 H   0  0  0  0  0  0  0  0  0  0  0  0
   -1.4423   -3.9987    0.7299 H   0  0  0  0  0  0  0  0  0  0  0  0
   -2.0212   -3.2450   -1.5587 H   0  0  0  0  0  0  0  0  0  0  0  0
   -3.2793   -1.1528   -1.8981 H   0  0  0  0  0  0  0  0  0  0  0  0
    2.7135    4.2958   -1.0614 H   0  0  0  0  0  0  0  0  0  0  0  0
  1  2  1  0
  2  3  1  0
  3  4  2  0
  4  5  1  0
  5  6  2  0
  6  2  1  0
  6  7  1  0
  7  8  1  0
  8  9  1  0
  9 10  2  0
 10 11  1  0
 11 12  1  0
 12 13  1  0
 13 14  1  0
 14  9  1  0
 12 15  1  0
 15 16  1  0
 16 17  1  0
 17 18  2  0
 17 19  1  0
 19 20  1  0
 19 21  1  0
 21 22  2  0
 22 23  1  0
 23 24  2  0
 24 25  1  0
 25 26  2  0
 26 21  1  0
 15 27  1  0
 27 11  1  0
 27 28  2  0
 10 29  1  0
 29 30  2  0
 29 31  1  0
  1 32  1  0
  1 33  1  0
  1 34  1  0
  8 35  1  0
  8 36  1  0
 12 37  1  1
 14 38  1  0
 14 39  1  0
 15 40  1  1
 16 41  1  0
 19 42  1  6
 20 43  1  0
 22 44  1  0
 23 45  1  0
 24 46  1  0
 25 47  1  0
 26 48  1  0
 31 49  1  0
M  END
> <ID>
HT0397

> <Class>
1.0

> <Clusters>
44

> <Fold>
1

$$$$