
     RDKit          3D

 38 40  0  0  0  0  0  0  0  0999 V2000
    3.6857   -2.3919   -0.6117 N   0  0  0  0  0  0  0  0  0  0  0  0
    2.7603   -1.2994   -0.9309 C   0  0  1  0  0  0  0  0  0  0  0  0
    1.3342   -1.7776   -1.0870 C   0  0  0  0  0  0  0  0  0  0  0  0
    1.0229   -2.9684   -0.8081 O   0  0  0  0  0  0  0  0  0  0  0  0
    0.3297   -0.8647   -1.5507 N   0  0  0  0  0  0  0  0  0  0  0  0
   -1.0735   -1.2656   -1.6829 C   0  0  1  0  0  0  0  0  0  0  0  0
   -1.8593   -1.1215   -0.4751 C   0  0  1  0  0  0  0  0  0  0  0  0
   -1.0355   -0.5073    1.0354 S   0  0  0  0  0  0  0  0  0  0  0  0
   -2.6269    0.0069    1.7965 C   0  0  0  0  0  0  0  0  0  0  0  0
   -3.3885    1.0344    0.9802 C   0  0  0  0  0  0  0  0  0  0  0  0
   -3.4286    0.9683   -0.3727 C   0  0  0  0  0  0  0  0  0  0  0  0
   -2.6410   -0.0370   -1.0125 N   0  0  0  0  0  0  0  0  0  0  0  0
   -1.9076   -0.1794   -2.2921 C   0  0  0  0  0  0  0  0  0  0  0  0
   -1.9375    0.3995   -3.4093 O   0  0  0  0  0  0  0  0  0  0  0  0
   -4.1810    1.9189   -1.2246 C   0  0  0  0  0  0  0  0  0  0  0  0
   -4.5186    3.0569   -0.8020 O   0  0  0  0  0  0  0  0  0  0  0  0
   -4.4990    1.5594   -2.5306 O   0  0  0  0  0  0  0  0  0  0  0  0
   -4.3223    2.2141    1.9017 Cl  0  0  0  0  0  0  0  0  0  0  0  0
    2.8407   -0.2226    0.1301 C   0  0  0  0  0  0  0  0  0  0  0  0
    2.4854   -0.4976    1.4647 C   0  0  0  0  0  0  0  0  0  0  0  0
    2.5408    0.5088    2.4333 C   0  0  0  0  0  0  0  0  0  0  0  0
    2.9517    1.7967    2.0826 C   0  0  0  0  0  0  0  0  0  0  0  0
    3.3071    2.0811    0.7620 C   0  0  0  0  0  0  0  0  0  0  0  0
    3.2521    1.0786   -0.2113 C   0  0  0  0  0  0  0  0  0  0  0  0
    3.6853   -3.0737   -1.4053 H   0  0  0  0  0  0  0  0  0  0  0  0
    3.3602   -2.9042    0.2402 H   0  0  0  0  0  0  0  0  0  0  0  0
    3.0689   -0.8769   -1.9132 H   0  0  0  0  0  0  0  0  0  0  0  0
    0.6208    0.1010   -1.8279 H   0  0  0  0  0  0  0  0  0  0  0  0
   -1.2037   -2.2349   -2.2123 H   0  0  0  0  0  0  0  0  0  0  0  0
   -2.5003   -2.0080   -0.2704 H   0  0  0  0  0  0  0  0  0  0  0  0
   -2.4058    0.4204    2.8026 H   0  0  0  0  0  0  0  0  0  0  0  0
   -3.2681   -0.8890    1.9367 H   0  0  0  0  0  0  0  0  0  0  0  0
   -5.0027    2.1949   -3.1377 H   0  0  0  0  0  0  0  0  0  0  0  0
    2.1511   -1.4862    1.7528 H   0  0  0  0  0  0  0  0  0  0  0  0
    2.2608    0.2906    3.4558 H   0  0  0  0  0  0  0  0  0  0  0  0
    2.9928    2.5749    2.8337 H   0  0  0  0  0  0  0  0  0  0  0  0
    3.6234    3.0802    0.4912 H   0  0  0  0  0  0  0  0  0  0  0  0
    3.5262    1.3204   -1.2305 H   0  0  0  0  0  0  0  0  0  0  0  0
  2  1  1  0
  2  3  1  0
  3  4  2  0
  3  5  1  0
  6  5  1  0
  6  7  1  0
  7  8  1  0
  8  9  1  0
  9 10  1  0
 10 11  2  0
 11 12  1  0
 12  7  1  0
 12 13  1  0
 13  6  1  0
 13 14  2  0
 11 15  1  0
 15 16  2  0
 15 17  1  0
 10 18  1  0
  2 19  1  0
 19 20  2  0
 20 21  1  0
 21 22  2  0
 22 23  1  0
 23 24  2  0
 24 19  1  0
  1 25  1  0
  1 26  1  0
  2 27  1  6
  5 28  1  0
  6 29  1  6
  7 30  1  1
  9 31  1  0
  9 32  1  0
 17 33  1  0
 20 34  1  0
 21 35  1  0
 22 36  1  0
 23 37  1  0
 24 38  1  0
M  END
> <ID>
HT0394

> <Class>
1.0

> <Clusters>
46

> <Fold>
1

$$$$