
     RDKit          3D

 53 56  0  0  0  0  0  0  0  0999 V2000
   -1.9003    1.0663    2.9501 C   0  0  0  0  0  0  0  0  0  0  0  0
   -1.2091   -0.0434    2.4131 O   0  0  0  0  0  0  0  0  0  0  0  0
   -0.7635    0.2155    1.0897 C   0  0  2  0  0  0  0  0  0  0  0  0
   -1.8810    0.3320    0.1307 N   0  0  0  0  0  0  0  0  0  0  0  0
   -1.8426    1.0100   -1.1437 C   0  0  0  0  0  0  0  0  0  0  0  0
   -0.7771    1.5389   -1.5591 O   0  0  0  0  0  0  0  0  0  0  0  0
   -3.0610    1.0726   -2.0191 C   0  0  0  0  0  0  0  0  0  0  0  0
   -3.6984   -0.5361   -2.3816 S   0  0  0  0  0  0  0  0  0  0  0  0
   -5.0986   -0.0743   -1.2849 C   0  0  0  0  0  0  0  0  0  0  0  0
   -6.0988   -0.7502   -0.7026 C   0  0  0  0  0  0  0  0  0  0  0  0
   -7.0531   -0.0406    0.1792 C   0  0  0  0  0  0  0  0  0  0  0  0
   -7.4591   -0.5969    1.2346 O   0  0  0  0  0  0  0  0  0  0  0  0
   -7.5482    1.2567   -0.1587 N   0  0  0  0  0  0  0  0  0  0  0  0
   -6.2442   -2.2118   -0.9024 C   0  0  0  0  0  0  0  0  0  0  0  0
   -7.2763   -2.8055   -0.4878 O   0  0  0  0  0  0  0  0  0  0  0  0
   -5.2539   -2.9480   -1.5471 O   0  0  0  0  0  0  0  0  0  0  0  0
   -4.4854    1.6522   -1.1466 S   0  0  0  0  0  0  0  0  0  0  0  0
    0.2663   -0.7315    0.6968 C   0  0  1  0  0  0  0  0  0  0  0  0
    0.0787   -1.6422   -0.8743 S   0  0  0  0  0  0  0  0  0  0  0  0
    1.8762   -2.0141   -0.9661 C   0  0  0  0  0  0  0  0  0  0  0  0
    2.7626   -0.7750   -1.0211 C   0  0  0  0  0  0  0  0  0  0  0  0
    2.4576    0.3178   -0.2731 C   0  0  0  0  0  0  0  0  0  0  0  0
    1.2553    0.2960    0.4946 N   0  0  0  0  0  0  0  0  0  0  0  0
    0.2842    1.2981    0.9917 C   0  0  0  0  0  0  0  0  0  0  0  0
    0.3100    2.5420    1.1846 O   0  0  0  0  0  0  0  0  0  0  0  0
    3.2459    1.5649   -0.2730 C   0  0  0  0  0  0  0  0  0  0  0  0
    3.4711    2.1549    0.8169 O   0  0  0  0  0  0  0  0  0  0  0  0
    3.6647    2.1445   -1.4670 O   0  0  0  0  0  0  0  0  0  0  0  0
    4.0678   -0.9172   -1.7779 C   0  0  0  0  0  0  0  0  0  0  0  0
    5.1778   -2.1145   -0.9571 S   0  0  0  0  0  0  0  0  0  0  0  0
    5.4682   -1.0911    0.4891 C   0  0  0  0  0  0  0  0  0  0  0  0
    4.7675   -1.1831    1.6335 N   0  0  0  0  0  0  0  0  0  0  0  0
    5.2805   -0.2491    2.4249 N   0  0  0  0  0  0  0  0  0  0  0  0
    6.2558    0.3935    1.7980 N   0  0  0  0  0  0  0  0  0  0  0  0
    6.3975   -0.1278    0.5930 N   0  0  0  0  0  0  0  0  0  0  0  0
    7.3106    0.3675   -0.4286 C   0  0  0  0  0  0  0  0  0  0  0  0
   -1.1879    1.8651    3.2459 H   0  0  0  0  0  0  0  0  0  0  0  0
   -2.6690    1.4721    2.2563 H   0  0  0  0  0  0  0  0  0  0  0  0
   -2.4280    0.7388    3.8690 H   0  0  0  0  0  0  0  0  0  0  0  0
   -2.7646   -0.1604    0.3916 H   0  0  0  0  0  0  0  0  0  0  0  0
   -2.8929    1.6577   -2.9483 H   0  0  0  0  0  0  0  0  0  0  0  0
   -7.3562    1.6806   -1.0931 H   0  0  0  0  0  0  0  0  0  0  0  0
   -8.1826    1.7626    0.4982 H   0  0  0  0  0  0  0  0  0  0  0  0
   -5.3515   -3.9471   -1.6825 H   0  0  0  0  0  0  0  0  0  0  0  0
    0.5820   -1.4135    1.5192 H   0  0  0  0  0  0  0  0  0  0  0  0
    2.0428   -2.6400   -1.8679 H   0  0  0  0  0  0  0  0  0  0  0  0
    2.1640   -2.6236   -0.0831 H   0  0  0  0  0  0  0  0  0  0  0  0
    4.1857    3.0130   -1.4676 H   0  0  0  0  0  0  0  0  0  0  0  0
    3.8477   -1.2965   -2.7976 H   0  0  0  0  0  0  0  0  0  0  0  0
    4.6175    0.0295   -1.9154 H   0  0  0  0  0  0  0  0  0  0  0  0
    6.7735    1.0713   -1.0979 H   0  0  0  0  0  0  0  0  0  0  0  0
    7.7109   -0.4790   -1.0253 H   0  0  0  0  0  0  0  0  0  0  0  0
    8.1608    0.8983    0.0491 H   0  0  0  0  0  0  0  0  0  0  0  0
  1  2  1  0
  3  2  1  1
  3  4  1  0
  4  5  1  0
  5  6  2  0
  5  7  1  0
  7  8  1  0
  8  9  1  0
  9 10  2  3
 10 11  1  0
 11 12  2  0
 11 13  1  0
 10 14  1  0
 14 15  2  0
 14 16  1  0
  9 17  1  0
 17  7  1  0
  3 18  1  0
 18 19  1  0
 19 20  1  0
 20 21  1  0
 21 22  2  0
 22 23  1  0
 23 18  1  0
 23 24  1  0
 24  3  1  0
 24 25  2  0
 22 26  1  0
 26 27  2  0
 26 28  1  0
 21 29  1  0
 29 30  1  0
 30 31  1  0
 31 32  2  0
 32 33  1  0
 33 34  2  0
 34 35  1  0
 35 31  1  0
 35 36  1  0
  1 37  1  0
  1 38  1  0
  1 39  1  0
  4 40  1  0
  7 41  1  0
 13 42  1  0
 13 43  1  0
 16 44  1  0
 18 45  1  1
 20 46  1  0
 20 47  1  0
 28 48  1  0
 29 49  1  0
 29 50  1  0
 36 51  1  0
 36 52  1  0
 36 53  1  0
M  END
> <ID>
HT0413

> <Class>
1.0

> <Clusters>
44

> <Fold>
1

$$$$