
     RDKit          3D

 43 46  0  0  0  0  0  0  0  0999 V2000
   -4.9249    2.8570   -0.3917 C   0  0  0  0  0  0  0  0  0  0  0  0
   -4.5554    1.5173    0.1456 C   0  0  0  0  0  0  0  0  0  0  0  0
   -3.7788    1.3334    1.2363 N   0  0  0  0  0  0  0  0  0  0  0  0
   -3.5738    0.0494    1.5238 N   0  0  0  0  0  0  0  0  0  0  0  0
   -4.1852   -0.7904    0.6617 C   0  0  0  0  0  0  0  0  0  0  0  0
   -4.0966   -2.5740    0.7887 S   0  0  0  0  0  0  0  0  0  0  0  0
   -2.7453   -2.7593   -0.4322 C   0  0  0  0  0  0  0  0  0  0  0  0
   -1.4765   -2.0551    0.0044 C   0  0  0  0  0  0  0  0  0  0  0  0
   -0.7915   -2.3736    1.1269 C   0  0  0  0  0  0  0  0  0  0  0  0
    0.2588   -1.4898    1.4989 N   0  0  0  0  0  0  0  0  0  0  0  0
    0.3738   -0.0541    1.4125 C   0  0  2  0  0  0  0  0  0  0  0  0
   -0.5753    0.6060   -0.0265 S   0  0  0  0  0  0  0  0  0  0  0  0
   -0.8973   -0.9784   -0.8995 C   0  0  0  0  0  0  0  0  0  0  0  0
    1.8190   -0.0917    1.3324 C   0  0  2  0  0  0  0  0  0  0  0  0
    2.3652    0.2611    0.0192 N   0  0  0  0  0  0  0  0  0  0  0  0
    2.6358    1.6221   -0.3409 C   0  0  0  0  0  0  0  0  0  0  0  0
    2.4256    2.5524    0.4838 O   0  0  0  0  0  0  0  0  0  0  0  0
    3.2105    1.9444   -1.6850 C   0  0  0  0  0  0  0  0  0  0  0  0
    4.6664    1.8887   -1.6298 N   0  0  0  0  0  0  0  0  0  0  0  0
    5.5366    2.8965   -1.7968 C   0  0  0  0  0  0  0  0  0  0  0  0
    6.7935    2.4307   -1.6730 N   0  0  0  0  0  0  0  0  0  0  0  0
    6.6642    1.1320   -1.4318 N   0  0  0  0  0  0  0  0  0  0  0  0
    5.3816    0.8014   -1.4059 N   0  0  0  0  0  0  0  0  0  0  0  0
    1.7359   -1.5784    1.5150 C   0  0  0  0  0  0  0  0  0  0  0  0
    2.5713   -2.5165    1.5931 O   0  0  0  0  0  0  0  0  0  0  0  0
   -1.0736   -3.5386    2.0021 C   0  0  0  0  0  0  0  0  0  0  0  0
   -1.6776   -4.5521    1.5640 O   0  0  0  0  0  0  0  0  0  0  0  0
   -0.6335   -3.5466    3.3239 O   0  0  0  0  0  0  0  0  0  0  0  0
   -5.0361    0.0478   -0.5236 S   0  0  0  0  0  0  0  0  0  0  0  0
   -4.4791    3.6591    0.2333 H   0  0  0  0  0  0  0  0  0  0  0  0
   -6.0292    2.9668   -0.3894 H   0  0  0  0  0  0  0  0  0  0  0  0
   -4.5484    2.9562   -1.4308 H   0  0  0  0  0  0  0  0  0  0  0  0
   -2.5442   -3.8356   -0.6049 H   0  0  0  0  0  0  0  0  0  0  0  0
   -3.1079   -2.3622   -1.4034 H   0  0  0  0  0  0  0  0  0  0  0  0
    0.0231    0.4172    2.3574 H   0  0  0  0  0  0  0  0  0  0  0  0
   -1.5739   -0.7601   -1.7513 H   0  0  0  0  0  0  0  0  0  0  0  0
    0.0603   -1.3441   -1.3271 H   0  0  0  0  0  0  0  0  0  0  0  0
    2.3500    0.4022    2.1756 H   0  0  0  0  0  0  0  0  0  0  0  0
    2.5933   -0.4941   -0.6676 H   0  0  0  0  0  0  0  0  0  0  0  0
    2.8782    2.9595   -1.9950 H   0  0  0  0  0  0  0  0  0  0  0  0
    2.8400    1.2217   -2.4426 H   0  0  0  0  0  0  0  0  0  0  0  0
    5.2731    3.9266   -1.9978 H   0  0  0  0  0  0  0  0  0  0  0  0
   -0.1521   -2.7547    3.7321 H   0  0  0  0  0  0  0  0  0  0  0  0
  1  2  1  0
  2  3  2  0
  3  4  1  0
  4  5  2  0
  5  6  1  0
  6  7  1  0
  7  8  1  0
  8  9  2  0
  9 10  1  0
 10 11  1  0
 11 12  1  0
 12 13  1  0
 13  8  1  0
 11 14  1  0
 14 15  1  0
 15 16  1  0
 16 17  2  0
 16 18  1  0
 18 19  1  0
 19 20  1  0
 20 21  2  0
 21 22  1  0
 22 23  2  0
 23 19  1  0
 14 24  1  0
 24 10  1  0
 24 25  2  0
  9 26  1  0
 26 27  2  0
 26 28  1  0
  5 29  1  0
 29  2  1  0
  1 30  1  0
  1 31  1  0
  1 32  1  0
  7 33  1  0
  7 34  1  0
 11 35  1  1
 13 36  1  0
 13 37  1  0
 14 38  1  1
 15 39  1  0
 18 40  1  0
 18 41  1  0
 20 42  1  0
 28 43  1  0
M  END
> <ID>
HT0400

> <Class>
1.0

> <Clusters>
44

> <Fold>
1

$$$$