
     RDKit          3D

 42 44  0  0  0  0  0  0  0  0999 V2000
    4.7639   -0.9397   -0.1004 C   0  0  0  0  0  0  0  0  0  0  0  0
    3.3239   -0.8113    0.1679 N   0  0  0  0  0  0  0  0  0  0  0  0
    3.0503    0.4085    0.9617 C   0  0  0  0  0  0  0  0  0  0  0  0
    1.5869    0.8772    0.8370 C   0  0  0  0  0  0  0  0  0  0  0  0
    0.7062   -0.2573    0.4986 N   0  0  0  0  0  0  0  0  0  0  0  0
    1.0625   -0.9284   -0.7762 C   0  0  0  0  0  0  0  0  0  0  0  0
    2.5614   -0.8086   -1.0913 C   0  0  0  0  0  0  0  0  0  0  0  0
   -0.7436    0.0036    0.7286 C   0  0  0  0  0  0  0  0  0  0  0  0
   -1.6272   -1.1451    0.2483 C   0  0  0  0  0  0  0  0  0  0  0  0
   -2.4950   -1.0340   -0.8591 C   0  0  0  0  0  0  0  0  0  0  0  0
   -3.2666   -2.1264   -1.2673 C   0  0  0  0  0  0  0  0  0  0  0  0
   -3.1825   -3.3407   -0.5841 C   0  0  0  0  0  0  0  0  0  0  0  0
   -2.3247   -3.4671    0.5094 C   0  0  0  0  0  0  0  0  0  0  0  0
   -1.5513   -2.3790    0.9228 C   0  0  0  0  0  0  0  0  0  0  0  0
   -1.2315    1.3955    0.3002 C   0  0  0  0  0  0  0  0  0  0  0  0
   -1.9850    2.1660    1.2098 C   0  0  0  0  0  0  0  0  0  0  0  0
   -2.4522    3.4352    0.8574 C   0  0  0  0  0  0  0  0  0  0  0  0
   -2.1793    3.9553   -0.4078 C   0  0  0  0  0  0  0  0  0  0  0  0
   -1.4410    3.2056   -1.3238 C   0  0  0  0  0  0  0  0  0  0  0  0
   -0.9713    1.9353   -0.9774 C   0  0  0  0  0  0  0  0  0  0  0  0
    5.3339   -0.9195    0.8536 H   0  0  0  0  0  0  0  0  0  0  0  0
    4.9734   -1.9147   -0.5905 H   0  0  0  0  0  0  0  0  0  0  0  0
    5.1262   -0.1182   -0.7581 H   0  0  0  0  0  0  0  0  0  0  0  0
    3.7141    1.2502    0.6570 H   0  0  0  0  0  0  0  0  0  0  0  0
    3.2623    0.1833    2.0295 H   0  0  0  0  0  0  0  0  0  0  0  0
    1.5281    1.6555    0.0452 H   0  0  0  0  0  0  0  0  0  0  0  0
    1.2730    1.3404    1.7987 H   0  0  0  0  0  0  0  0  0  0  0  0
    0.8273   -2.0097   -0.6753 H   0  0  0  0  0  0  0  0  0  0  0  0
    0.4741   -0.5508   -1.6324 H   0  0  0  0  0  0  0  0  0  0  0  0
    2.7538    0.1284   -1.6631 H   0  0  0  0  0  0  0  0  0  0  0  0
    2.8588   -1.6682   -1.7329 H   0  0  0  0  0  0  0  0  0  0  0  0
   -0.8613   -0.0196    1.8356 H   0  0  0  0  0  0  0  0  0  0  0  0
   -2.5840   -0.1146   -1.4174 H   0  0  0  0  0  0  0  0  0  0  0  0
   -3.9299   -2.0312   -2.1174 H   0  0  0  0  0  0  0  0  0  0  0  0
   -3.7804   -4.1844   -0.9037 H   0  0  0  0  0  0  0  0  0  0  0  0
   -2.2568   -4.4099    1.0367 H   0  0  0  0  0  0  0  0  0  0  0  0
   -0.8857   -2.4985    1.7690 H   0  0  0  0  0  0  0  0  0  0  0  0
   -2.2169    1.7845    2.1963 H   0  0  0  0  0  0  0  0  0  0  0  0
   -3.0283    4.0152    1.5668 H   0  0  0  0  0  0  0  0  0  0  0  0
   -2.5422    4.9381   -0.6794 H   0  0  0  0  0  0  0  0  0  0  0  0
   -1.2328    3.6088   -2.3065 H   0  0  0  0  0  0  0  0  0  0  0  0
   -0.4105    1.3902   -1.7155 H   0  0  0  0  0  0  0  0  0  0  0  0
  1  2  1  0
  2  3  1  0
  3  4  1  0
  4  5  1  0
  5  6  1  0
  6  7  1  0
  7  2  1  0
  5  8  1  0
  8  9  1  0
  9 10  2  0
 10 11  1  0
 11 12  2  0
 12 13  1  0
 13 14  2  0
 14  9  1  0
  8 15  1  0
 15 16  2  0
 16 17  1  0
 17 18  2  0
 18 19  1  0
 19 20  2  0
 20 15  1  0
  1 21  1  0
  1 22  1  0
  1 23  1  0
  3 24  1  0
  3 25  1  0
  4 26  1  0
  4 27  1  0
  6 28  1  0
  6 29  1  0
  7 30  1  0
  7 31  1  0
  8 32  1  0
 10 33  1  0
 11 34  1  0
 12 35  1  0
 13 36  1  0
 14 37  1  0
 16 38  1  0
 17 39  1  0
 18 40  1  0
 19 41  1  0
 20 42  1  0
M  END
> <ID>
HT0562

> <Class>
1.0

> <Clusters>
50

> <Fold>
1

$$$$