
     RDKit          3D

 50 52  0  0  0  0  0  0  0  0999 V2000
   -3.3248    0.4806    1.1982 C   0  0  0  0  0  0  0  0  0  0  0  0
   -3.4670   -0.0750   -0.1576 N   0  0  0  0  0  0  0  0  0  0  0  0
   -4.8333    0.1083   -0.6707 C   0  0  0  0  0  0  0  0  0  0  0  0
   -4.7183    0.4532   -2.1403 C   0  0  0  0  0  0  0  0  0  0  0  0
   -3.3914    1.1635   -2.2412 C   0  0  0  0  0  0  0  0  0  0  0  0
   -2.5422    0.5621   -1.1183 C   0  0  2  0  0  0  0  0  0  0  0  0
   -1.5633   -0.4925   -1.6766 C   0  0  0  0  0  0  0  0  0  0  0  0
   -0.6915   -1.1280   -0.5905 C   0  0  0  0  0  0  0  0  0  0  0  0
    0.0219   -0.1127    0.0968 O   0  0  0  0  0  0  0  0  0  0  0  0
    1.1930   -0.5747    0.7715 C   0  0  2  0  0  0  0  0  0  0  0  0
    0.8278   -1.6914    1.7897 C   0  0  0  0  0  0  0  0  0  0  0  0
    1.7712    0.5888    1.5865 C   0  0  0  0  0  0  0  0  0  0  0  0
    1.0532    1.7921    1.7708 C   0  0  0  0  0  0  0  0  0  0  0  0
    1.5952    2.8369    2.5253 C   0  0  0  0  0  0  0  0  0  0  0  0
    2.8534    2.7004    3.1126 C   0  0  0  0  0  0  0  0  0  0  0  0
    3.5732    1.5164    2.9509 C   0  0  0  0  0  0  0  0  0  0  0  0
    3.0384    0.4672    2.1988 C   0  0  0  0  0  0  0  0  0  0  0  0
    2.2476   -0.9880   -0.2688 C   0  0  0  0  0  0  0  0  0  0  0  0
    2.5567   -0.0893   -1.3098 C   0  0  0  0  0  0  0  0  0  0  0  0
    3.5080   -0.4159   -2.2792 C   0  0  0  0  0  0  0  0  0  0  0  0
    4.1707   -1.6437   -2.2247 C   0  0  0  0  0  0  0  0  0  0  0  0
    5.3657   -2.0519   -3.4421 Cl  0  0  0  0  0  0  0  0  0  0  0  0
    3.8822   -2.5449   -1.1975 C   0  0  0  0  0  0  0  0  0  0  0  0
    2.9306   -2.2239   -0.2248 C   0  0  0  0  0  0  0  0  0  0  0  0
   -4.0454   -0.0112    1.8862 H   0  0  0  0  0  0  0  0  0  0  0  0
   -2.3029    0.2813    1.5848 H   0  0  0  0  0  0  0  0  0  0  0  0
   -3.5049    1.5790    1.2052 H   0  0  0  0  0  0  0  0  0  0  0  0
   -5.4147   -0.8288   -0.5366 H   0  0  0  0  0  0  0  0  0  0  0  0
   -5.3690    0.9376   -0.1520 H   0  0  0  0  0  0  0  0  0  0  0  0
   -5.5575    1.0979   -2.4809 H   0  0  0  0  0  0  0  0  0  0  0  0
   -4.6922   -0.4798   -2.7458 H   0  0  0  0  0  0  0  0  0  0  0  0
   -2.9429    1.0407   -3.2517 H   0  0  0  0  0  0  0  0  0  0  0  0
   -3.5434    2.2493   -2.0503 H   0  0  0  0  0  0  0  0  0  0  0  0
   -1.9471    1.3851   -0.6560 H   0  0  0  0  0  0  0  0  0  0  0  0
   -2.1334   -1.2963   -2.1928 H   0  0  0  0  0  0  0  0  0  0  0  0
   -0.8945   -0.0134   -2.4253 H   0  0  0  0  0  0  0  0  0  0  0  0
   -0.0201   -1.8634   -1.0863 H   0  0  0  0  0  0  0  0  0  0  0  0
   -1.3466   -1.6770    0.1196 H   0  0  0  0  0  0  0  0  0  0  0  0
    0.5045   -2.6223    1.2786 H   0  0  0  0  0  0  0  0  0  0  0  0
   -0.0041   -1.3484    2.4420 H   0  0  0  0  0  0  0  0  0  0  0  0
    1.6895   -1.9483    2.4419 H   0  0  0  0  0  0  0  0  0  0  0  0
    0.0702    1.9330    1.3414 H   0  0  0  0  0  0  0  0  0  0  0  0
    1.0357    3.7541    2.6571 H   0  0  0  0  0  0  0  0  0  0  0  0
    3.2693    3.5114    3.6963 H   0  0  0  0  0  0  0  0  0  0  0  0
    4.5475    1.4100    3.4103 H   0  0  0  0  0  0  0  0  0  0  0  0
    3.6167   -0.4417    2.0911 H   0  0  0  0  0  0  0  0  0  0  0  0
    2.0561    0.8694   -1.3700 H   0  0  0  0  0  0  0  0  0  0  0  0
    3.7294    0.2874   -3.0719 H   0  0  0  0  0  0  0  0  0  0  0  0
    4.3970   -3.4962   -1.1498 H   0  0  0  0  0  0  0  0  0  0  0  0
    2.7457   -2.9469    0.5560 H   0  0  0  0  0  0  0  0  0  0  0  0
  1  2  1  0
  2  3  1  0
  3  4  1  0
  4  5  1  0
  5  6  1  0
  6  2  1  0
  6  7  1  0
  7  8  1  0
  8  9  1  0
 10  9  1  6
 10 11  1  0
 10 12  1  0
 12 13  2  0
 13 14  1  0
 14 15  2  0
 15 16  1  0
 16 17  2  0
 17 12  1  0
 10 18  1  0
 18 19  2  0
 19 20  1  0
 20 21  2  0
 21 22  1  0
 21 23  1  0
 23 24  2  0
 24 18  1  0
  1 25  1  0
  1 26  1  0
  1 27  1  0
  3 28  1  0
  3 29  1  0
  4 30  1  0
  4 31  1  0
  5 32  1  0
  5 33  1  0
  6 34  1  1
  7 35  1  0
  7 36  1  0
  8 37  1  0
  8 38  1  0
 11 39  1  0
 11 40  1  0
 11 41  1  0
 13 42  1  0
 14 43  1  0
 15 44  1  0
 16 45  1  0
 17 46  1  0
 19 47  1  0
 20 48  1  0
 23 49  1  0
 24 50  1  0
M  END
> <ID>
HT0506

> <Class>
1.0

> <Clusters>
50

> <Fold>
1

$$$$