
     RDKit          3D

 42 45  0  0  0  0  0  0  0  0999 V2000
   -3.2940    0.4231    0.1112 Cl  0  0  0  0  0  0  0  0  0  0  0  0
   -2.4105   -1.0570   -0.2575 C   0  0  0  0  0  0  0  0  0  0  0  0
   -3.1954   -2.1561   -0.6306 C   0  0  0  0  0  0  0  0  0  0  0  0
   -2.6205   -3.4086   -0.8240 C   0  0  0  0  0  0  0  0  0  0  0  0
   -1.2584   -3.5849   -0.6109 C   0  0  0  0  0  0  0  0  0  0  0  0
   -0.4600   -2.5011   -0.2451 C   0  0  0  0  0  0  0  0  0  0  0  0
   -0.9925   -1.1910   -0.1384 C   0  0  0  0  0  0  0  0  0  0  0  0
   -0.0708   -0.0247    0.3179 C   0  0  0  0  0  0  0  0  0  0  0  0
    1.4102   -0.2463   -0.0676 C   0  0  0  0  0  0  0  0  0  0  0  0
    1.7518   -0.7010   -1.3630 C   0  0  0  0  0  0  0  0  0  0  0  0
    3.0878   -0.8187   -1.7545 C   0  0  0  0  0  0  0  0  0  0  0  0
    4.1087   -0.4435   -0.8821 C   0  0  0  0  0  0  0  0  0  0  0  0
    3.7946    0.0712    0.3753 C   0  0  0  0  0  0  0  0  0  0  0  0
    2.4601    0.1909    0.7730 C   0  0  0  0  0  0  0  0  0  0  0  0
   -0.3980    1.3192   -0.3651 C   0  0  0  0  0  0  0  0  0  0  0  0
   -0.8772    1.3604   -1.6958 C   0  0  0  0  0  0  0  0  0  0  0  0
   -1.0712    2.5791   -2.3514 C   0  0  0  0  0  0  0  0  0  0  0  0
   -0.7423    3.7763   -1.7165 C   0  0  0  0  0  0  0  0  0  0  0  0
   -0.1944    3.7555   -0.4344 C   0  0  0  0  0  0  0  0  0  0  0  0
    0.0013    2.5396    0.2259 C   0  0  0  0  0  0  0  0  0  0  0  0
   -0.2252    0.0376    1.7953 N   0  0  0  0  0  0  0  0  0  0  0  0
   -1.0703    0.8005    2.5215 C   0  0  0  0  0  0  0  0  0  0  0  0
   -1.0419    0.3696    3.8259 C   0  0  0  0  0  0  0  0  0  0  0  0
   -0.2196   -0.6899    3.9314 N   0  0  0  0  0  0  0  0  0  0  0  0
    0.2448   -0.8754    2.6792 C   0  0  0  0  0  0  0  0  0  0  0  0
   -4.2665   -2.0454   -0.7452 H   0  0  0  0  0  0  0  0  0  0  0  0
   -3.2389   -4.2520   -1.1028 H   0  0  0  0  0  0  0  0  0  0  0  0
   -0.8198   -4.5692   -0.7129 H   0  0  0  0  0  0  0  0  0  0  0  0
    0.5811   -2.7029   -0.0346 H   0  0  0  0  0  0  0  0  0  0  0  0
    0.9817   -0.9666   -2.0752 H   0  0  0  0  0  0  0  0  0  0  0  0
    3.3307   -1.1894   -2.7420 H   0  0  0  0  0  0  0  0  0  0  0  0
    5.1429   -0.5302   -1.1892 H   0  0  0  0  0  0  0  0  0  0  0  0
    4.5867    0.3948    1.0383 H   0  0  0  0  0  0  0  0  0  0  0  0
    2.2563    0.6452    1.7328 H   0  0  0  0  0  0  0  0  0  0  0  0
   -1.1039    0.4496   -2.2337 H   0  0  0  0  0  0  0  0  0  0  0  0
   -1.4633    2.5933   -3.3601 H   0  0  0  0  0  0  0  0  0  0  0  0
   -0.8877    4.7187   -2.2285 H   0  0  0  0  0  0  0  0  0  0  0  0
    0.0975    4.6822    0.0425 H   0  0  0  0  0  0  0  0  0  0  0  0
    0.4828    2.5546    1.1945 H   0  0  0  0  0  0  0  0  0  0  0  0
   -1.6901    1.5988    2.1381 H   0  0  0  0  0  0  0  0  0  0  0  0
   -1.6105    0.7843    4.6472 H   0  0  0  0  0  0  0  0  0  0  0  0
    0.9039   -1.6911    2.4112 H   0  0  0  0  0  0  0  0  0  0  0  0
  1  2  1  0
  2  3  2  0
  3  4  1  0
  4  5  2  0
  5  6  1  0
  6  7  2  0
  7  2  1  0
  7  8  1  0
  8  9  1  0
  9 10  2  0
 10 11  1  0
 11 12  2  0
 12 13  1  0
 13 14  2  0
 14  9  1  0
  8 15  1  0
 15 16  2  0
 16 17  1  0
 17 18  2  0
 18 19  1  0
 19 20  2  0
 20 15  1  0
  8 21  1  0
 21 22  1  0
 22 23  2  0
 23 24  1  0
 24 25  2  0
 25 21  1  0
  3 26  1  0
  4 27  1  0
  5 28  1  0
  6 29  1  0
 10 30  1  0
 11 31  1  0
 12 32  1  0
 13 33  1  0
 14 34  1  0
 16 35  1  0
 17 36  1  0
 18 37  1  0
 19 38  1  0
 20 39  1  0
 22 40  1  0
 23 41  1  0
 25 42  1  0
M  END
> <ID>
HT0536

> <Class>
1.0

> <Clusters>
57

> <Fold>
1

$$$$