
     RDKit          3D

 33 35  0  0  0  0  0  0  0  0999 V2000
   -7.8515   -0.5716   -0.4060 O   0  0  0  0  0  0  0  0  0  0  0  0
   -6.9255    0.3623   -0.0006 N   0  0  0  0  0  0  0  0  0  0  0  0
   -7.3302    1.4571    0.4426 O   0  0  0  0  0  0  0  0  0  0  0  0
   -5.5165    0.0804   -0.0866 C   0  0  0  0  0  0  0  0  0  0  0  0
   -4.5673    1.0315    0.3265 C   0  0  0  0  0  0  0  0  0  0  0  0
   -3.2002    0.7538    0.2413 C   0  0  0  0  0  0  0  0  0  0  0  0
   -2.7505   -0.4794   -0.2581 C   0  0  0  0  0  0  0  0  0  0  0  0
   -3.6997   -1.4311   -0.6714 C   0  0  0  0  0  0  0  0  0  0  0  0
   -5.0672   -1.1531   -0.5861 C   0  0  0  0  0  0  0  0  0  0  0  0
   -1.2957   -0.7493   -0.3381 C   0  0  0  0  0  0  0  0  0  0  0  0
   -0.3767    0.1134    0.0377 O   0  0  0  0  0  0  0  0  0  0  0  0
    0.8065   -0.4193   -0.1566 C   0  0  0  0  0  0  0  0  0  0  0  0
    2.0649    0.2665    0.1536 C   0  0  0  0  0  0  0  0  0  0  0  0
    3.2032   -0.3174   -0.0628 N   0  0  0  0  0  0  0  0  0  0  0  0
    4.4423    0.2878    0.2137 N   0  0  0  0  0  0  0  0  0  0  0  0
    4.6685    1.6217    0.7690 C   0  0  0  0  0  0  0  0  0  0  0  0
    6.1651    1.6890    0.8291 C   0  0  0  0  0  0  0  0  0  0  0  0
    6.8148    2.6806    1.2523 O   0  0  0  0  0  0  0  0  0  0  0  0
    6.7867    0.5016    0.3526 N   0  0  0  0  0  0  0  0  0  0  0  0
    5.7012   -0.3275   -0.0130 C   0  0  0  0  0  0  0  0  0  0  0  0
    5.8391   -1.4855   -0.4878 O   0  0  0  0  0  0  0  0  0  0  0  0
    0.6732   -1.6893   -0.6837 C   0  0  0  0  0  0  0  0  0  0  0  0
   -0.6832   -1.9046   -0.8018 C   0  0  0  0  0  0  0  0  0  0  0  0
   -4.8816    1.9914    0.7159 H   0  0  0  0  0  0  0  0  0  0  0  0
   -2.4935    1.5070    0.5675 H   0  0  0  0  0  0  0  0  0  0  0  0
   -3.3946   -2.3919   -1.0615 H   0  0  0  0  0  0  0  0  0  0  0  0
   -5.7733   -1.9058   -0.9121 H   0  0  0  0  0  0  0  0  0  0  0  0
    2.0215    1.2665    0.5654 H   0  0  0  0  0  0  0  0  0  0  0  0
    4.2318    1.7007    1.7870 H   0  0  0  0  0  0  0  0  0  0  0  0
    4.2685    2.4020    0.0874 H   0  0  0  0  0  0  0  0  0  0  0  0
    7.8072    0.2912    0.2878 H   0  0  0  0  0  0  0  0  0  0  0  0
    1.4649   -2.3771   -0.9505 H   0  0  0  0  0  0  0  0  0  0  0  0
   -1.1523   -2.8012   -1.1820 H   0  0  0  0  0  0  0  0  0  0  0  0
  1  2  1  0
  2  3  2  0
  2  4  1  0
  4  5  2  0
  5  6  1  0
  6  7  2  0
  7  8  1  0
  8  9  2  0
  9  4  1  0
  7 10  1  0
 10 11  1  0
 11 12  1  0
 12 13  1  0
 13 14  2  0
 14 15  1  0
 15 16  1  0
 16 17  1  0
 17 18  2  0
 17 19  1  0
 19 20  1  0
 20 15  1  0
 20 21  2  0
 12 22  2  0
 22 23  1  0
 23 10  2  0
  5 24  1  0
  6 25  1  0
  8 26  1  0
  9 27  1  0
 13 28  1  0
 16 29  1  0
 16 30  1  0
 19 31  1  0
 22 32  1  0
 23 33  1  0
M  CHG  2   1  -1   2   1
M  END
> <ID>
HT0588

> <Class>
1.0

> <Clusters>
180

> <Fold>
1

$$$$