
     RDKit          3D

 33 35  0  0  0  0  0  0  0  0999 V2000
    4.7559   -0.6732   -2.0047 N   0  0  0  0  0  0  0  0  0  0  0  0
    4.1374    0.8173   -1.3828 S   0  0  0  0  0  0  0  0  0  0  0  0
    5.2083    1.5322   -0.6071 O   0  0  0  0  0  0  0  0  0  0  0  0
    3.7233    1.6901   -2.5346 O   0  0  0  0  0  0  0  0  0  0  0  0
    2.7476    0.4935   -0.3360 C   0  0  0  0  0  0  0  0  0  0  0  0
    1.4559    0.7920   -0.7998 C   0  0  0  0  0  0  0  0  0  0  0  0
    0.3204    0.5307   -0.0085 C   0  0  0  0  0  0  0  0  0  0  0  0
    0.5079    0.0110    1.2854 C   0  0  0  0  0  0  0  0  0  0  0  0
    1.7868   -0.2952    1.7503 C   0  0  0  0  0  0  0  0  0  0  0  0
    2.9077   -0.0667    0.9479 C   0  0  0  0  0  0  0  0  0  0  0  0
    4.4879   -0.4916    1.5972 Cl  0  0  0  0  0  0  0  0  0  0  0  0
   -1.0768    0.9035   -0.4964 C   0  0  0  0  0  0  0  0  0  0  0  0
   -1.1274    1.0787   -1.8914 O   0  0  0  0  0  0  0  0  0  0  0  0
   -1.5071    2.1446    0.1572 N   0  0  0  0  0  0  0  0  0  0  0  0
   -2.6962    1.8893    0.8925 C   0  0  0  0  0  0  0  0  0  0  0  0
   -3.3122    2.7591    1.5627 O   0  0  0  0  0  0  0  0  0  0  0  0
   -3.0738    0.5070    0.7507 C   0  0  0  0  0  0  0  0  0  0  0  0
   -4.1465   -0.1990    1.2922 C   0  0  0  0  0  0  0  0  0  0  0  0
   -4.2582   -1.5653    0.9870 C   0  0  0  0  0  0  0  0  0  0  0  0
   -3.3043   -2.1900    0.1579 C   0  0  0  0  0  0  0  0  0  0  0  0
   -2.2318   -1.4529   -0.3732 C   0  0  0  0  0  0  0  0  0  0  0  0
   -2.1359   -0.0932   -0.0623 C   0  0  0  0  0  0  0  0  0  0  0  0
    5.5746   -0.4358   -2.6084 H   0  0  0  0  0  0  0  0  0  0  0  0
    5.1284   -1.2174   -1.1952 H   0  0  0  0  0  0  0  0  0  0  0  0
    1.3375    1.2314   -1.7809 H   0  0  0  0  0  0  0  0  0  0  0  0
   -0.3369   -0.1598    1.9404 H   0  0  0  0  0  0  0  0  0  0  0  0
    1.9058   -0.7093    2.7437 H   0  0  0  0  0  0  0  0  0  0  0  0
   -0.9038    0.2062   -2.3104 H   0  0  0  0  0  0  0  0  0  0  0  0
   -1.0327    3.0717    0.0773 H   0  0  0  0  0  0  0  0  0  0  0  0
   -4.8714    0.2890    1.9307 H   0  0  0  0  0  0  0  0  0  0  0  0
   -5.0796   -2.1418    1.3922 H   0  0  0  0  0  0  0  0  0  0  0  0
   -3.3969   -3.2440   -0.0694 H   0  0  0  0  0  0  0  0  0  0  0  0
   -1.4939   -1.9306   -1.0043 H   0  0  0  0  0  0  0  0  0  0  0  0
  1  2  1  0
  2  3  2  0
  2  4  2  0
  2  5  1  0
  5  6  2  0
  6  7  1  0
  7  8  2  0
  8  9  1  0
  9 10  2  0
 10  5  1  0
 10 11  1  0
  7 12  1  0
 12 13  1  0
 12 14  1  0
 14 15  1  0
 15 16  2  0
 15 17  1  0
 17 18  2  0
 18 19  1  0
 19 20  2  0
 20 21  1  0
 21 22  2  0
 22 12  1  0
 22 17  1  0
  1 23  1  0
  1 24  1  0
  6 25  1  0
  8 26  1  0
  9 27  1  0
 13 28  1  0
 14 29  1  0
 18 30  1  0
 19 31  1  0
 20 32  1  0
 21 33  1  0
M  END
> <ID>
HT0472

> <Class>
1.0

> <Clusters>
132

> <Fold>
1

$$$$