
     RDKit          3D

 13 13  0  0  0  0  0  0  0  0999 V2000
    2.0418   -0.4936    0.0019 N   0  0  0  0  0  0  0  0  0  0  0  0
    0.6520   -0.1576    0.0006 C   0  0  0  0  0  0  0  0  0  0  0  0
   -0.3186   -1.1628    0.0998 C   0  0  0  0  0  0  0  0  0  0  0  0
   -1.6715   -0.8131    0.0966 C   0  0  0  0  0  0  0  0  0  0  0  0
   -2.0382    0.4927   -0.0019 N   0  0  0  0  0  0  0  0  0  0  0  0
   -1.1153    1.4868   -0.0993 C   0  0  0  0  0  0  0  0  0  0  0  0
    0.2479    1.1799   -0.0998 C   0  0  0  0  0  0  0  0  0  0  0  0
    2.7715    0.2501   -0.0716 H   0  0  0  0  0  0  0  0  0  0  0  0
    2.3511   -1.4884    0.0765 H   0  0  0  0  0  0  0  0  0  0  0  0
   -0.0305   -2.2035    0.1784 H   0  0  0  0  0  0  0  0  0  0  0  0
   -2.4303   -1.5804    0.1727 H   0  0  0  0  0  0  0  0  0  0  0  0
   -1.4397    2.5159   -0.1763 H   0  0  0  0  0  0  0  0  0  0  0  0
    0.9797    1.9740   -0.1775 H   0  0  0  0  0  0  0  0  0  0  0  0
  1  2  1  0
  2  3  2  0
  3  4  1  0
  4  5  2  0
  5  6  1  0
  6  7  2  0
  7  2  1  0
  1  8  1  0
  1  9  1  0
  3 10  1  0
  4 11  1  0
  6 12  1  0
  7 13  1  0
M  END
> <ID>
HT0584

> <Class>
1.0

> <Clusters>
137

> <Fold>
1

$$$$