
     RDKit          3D

 41 43  0  0  0  0  0  0  0  0999 V2000
    6.7755    0.2376   -0.2446 N   0  0  0  0  0  0  0  0  0  0  0  0
    5.4416    0.7932   -1.1948 S   0  0  0  0  0  0  0  0  0  0  0  0
    5.3572   -0.0349   -2.4466 O   0  0  0  0  0  0  0  0  0  0  0  0
    5.6553    2.2282   -1.5882 O   0  0  0  0  0  0  0  0  0  0  0  0
    3.9442    0.6386   -0.2655 C   0  0  0  0  0  0  0  0  0  0  0  0
    3.0420   -0.3870   -0.5873 C   0  0  0  0  0  0  0  0  0  0  0  0
    1.8522   -0.5376    0.1321 C   0  0  0  0  0  0  0  0  0  0  0  0
    1.5444    0.3384    1.1817 C   0  0  0  0  0  0  0  0  0  0  0  0
    0.3167    0.2008    1.9176 N   0  0  0  0  0  0  0  0  0  0  0  0
   -0.8586   -0.4954    1.3824 C   0  0  0  0  0  0  0  0  0  0  0  0
   -1.5097    0.3602    0.2630 C   0  0  0  0  0  0  0  0  0  0  0  0
   -2.8110   -0.2303   -0.3234 C   0  0  0  0  0  0  0  0  0  0  0  0
   -3.4245    0.6824   -1.3784 C   0  0  0  0  0  0  0  0  0  0  0  0
   -4.9027    0.3209   -1.4143 C   0  0  0  0  0  0  0  0  0  0  0  0
   -5.2290   -0.3212   -0.0666 C   0  0  0  0  0  0  0  0  0  0  0  0
   -3.9193   -0.4146    0.7091 C   0  0  0  0  0  0  0  0  0  0  0  0
   -0.4978   -1.8625    0.9678 N   0  0  0  0  0  0  0  0  0  0  0  0
    0.7587   -1.8570   -0.2311 S   0  0  0  0  0  0  0  0  0  0  0  0
    0.1660   -1.6803   -1.6011 O   0  0  0  0  0  0  0  0  0  0  0  0
    1.5019   -3.1611   -0.1660 O   0  0  0  0  0  0  0  0  0  0  0  0
    2.4528    1.3485    1.5219 C   0  0  0  0  0  0  0  0  0  0  0  0
    3.6465    1.5062    0.8072 C   0  0  0  0  0  0  0  0  0  0  0  0
    4.7363    2.7992    1.2966 Cl  0  0  0  0  0  0  0  0  0  0  0  0
    7.6345    0.3530   -0.8276 H   0  0  0  0  0  0  0  0  0  0  0  0
    6.8733    0.8892    0.5653 H   0  0  0  0  0  0  0  0  0  0  0  0
    3.2649   -1.0777   -1.3904 H   0  0  0  0  0  0  0  0  0  0  0  0
    0.2231    0.6848    2.8396 H   0  0  0  0  0  0  0  0  0  0  0  0
   -1.5973   -0.5823    2.2088 H   0  0  0  0  0  0  0  0  0  0  0  0
   -0.7868    0.5277   -0.5625 H   0  0  0  0  0  0  0  0  0  0  0  0
   -1.7313    1.3638    0.6896 H   0  0  0  0  0  0  0  0  0  0  0  0
   -2.6008   -1.2070   -0.8117 H   0  0  0  0  0  0  0  0  0  0  0  0
   -2.9464    0.5312   -2.3709 H   0  0  0  0  0  0  0  0  0  0  0  0
   -3.3197    1.7508   -1.0836 H   0  0  0  0  0  0  0  0  0  0  0  0
   -5.0902   -0.4076   -2.2338 H   0  0  0  0  0  0  0  0  0  0  0  0
   -5.5255    1.2253   -1.5888 H   0  0  0  0  0  0  0  0  0  0  0  0
   -5.6523   -1.3378   -0.2233 H   0  0  0  0  0  0  0  0  0  0  0  0
   -5.9693    0.2912    0.4933 H   0  0  0  0  0  0  0  0  0  0  0  0
   -3.8853    0.3999    1.4670 H   0  0  0  0  0  0  0  0  0  0  0  0
   -3.8277   -1.3955    1.2244 H   0  0  0  0  0  0  0  0  0  0  0  0
   -1.3283   -2.3716    0.5932 H   0  0  0  0  0  0  0  0  0  0  0  0
    2.2264    2.0212    2.3399 H   0  0  0  0  0  0  0  0  0  0  0  0
  1  2  1  0
  2  3  2  0
  2  4  2  0
  2  5  1  0
  5  6  2  0
  6  7  1  0
  7  8  2  0
  8  9  1  0
  9 10  1  0
 10 11  1  0
 11 12  1  0
 12 13  1  0
 13 14  1  0
 14 15  1  0
 15 16  1  0
 16 12  1  0
 10 17  1  0
 17 18  1  0
 18  7  1  0
 18 19  2  0
 18 20  2  0
  8 21  1  0
 21 22  2  0
 22  5  1  0
 22 23  1  0
  1 24  1  0
  1 25  1  0
  6 26  1  0
  9 27  1  0
 10 28  1  0
 11 29  1  0
 11 30  1  0
 12 31  1  0
 13 32  1  0
 13 33  1  0
 14 34  1  0
 14 35  1  0
 15 36  1  0
 15 37  1  0
 16 38  1  0
 16 39  1  0
 17 40  1  0
 21 41  1  0
M  END
> <ID>
HT0566

> <Class>
1.0

> <Clusters>
40

> <Fold>
1

$$$$