
     RDKit          3D

 40 43  0  0  0  0  0  0  0  0999 V2000
    6.4037   -0.5938    1.2294 N   0  0  0  0  0  0  0  0  0  0  0  0
    5.8186    0.1092   -0.2379 S   0  0  0  0  0  0  0  0  0  0  0  0
    6.5017    1.4263   -0.4768 O   0  0  0  0  0  0  0  0  0  0  0  0
    6.1337   -0.8144   -1.3818 O   0  0  0  0  0  0  0  0  0  0  0  0
    4.0739    0.3640   -0.1149 C   0  0  0  0  0  0  0  0  0  0  0  0
    3.2147   -0.2797   -1.0185 C   0  0  0  0  0  0  0  0  0  0  0  0
    1.8310   -0.0930   -0.9354 C   0  0  0  0  0  0  0  0  0  0  0  0
    1.2860    0.7317    0.0590 C   0  0  0  0  0  0  0  0  0  0  0  0
   -0.1356    0.9212    0.1552 N   0  0  0  0  0  0  0  0  0  0  0  0
   -1.0863   -0.0250   -0.4507 C   0  0  0  0  0  0  0  0  0  0  0  0
   -0.8203   -0.1635   -1.8884 N   0  0  0  0  0  0  0  0  0  0  0  0
    0.7597   -0.8471   -2.0998 S   0  0  0  0  0  0  0  0  0  0  0  0
    0.7052   -2.3300   -1.8631 O   0  0  0  0  0  0  0  0  0  0  0  0
    1.2398   -0.5702   -3.4968 O   0  0  0  0  0  0  0  0  0  0  0  0
   -2.5438    0.4507   -0.2310 C   0  0  0  0  0  0  0  0  0  0  0  0
   -2.9589    0.4809    1.2693 C   0  0  0  0  0  0  0  0  0  0  0  0
   -4.2152   -0.4151    1.2917 C   0  0  0  0  0  0  0  0  0  0  0  0
   -3.8251   -1.4979    0.3072 C   0  0  0  0  0  0  0  0  0  0  0  0
   -3.6021   -0.5164   -0.8303 C   0  0  0  0  0  0  0  0  0  0  0  0
   -4.9228    0.2093   -0.7889 C   0  0  0  0  0  0  0  0  0  0  0  0
   -5.2870    0.2803    0.4925 C   0  0  0  0  0  0  0  0  0  0  0  0
    2.1419    1.3876    0.9528 C   0  0  0  0  0  0  0  0  0  0  0  0
    3.5281    1.2067    0.8756 C   0  0  0  0  0  0  0  0  0  0  0  0
    4.5433    2.0522    2.0392 Cl  0  0  0  0  0  0  0  0  0  0  0  0
    5.9289   -1.5182    1.3353 H   0  0  0  0  0  0  0  0  0  0  0  0
    7.4203   -0.7900    1.0908 H   0  0  0  0  0  0  0  0  0  0  0  0
    3.6161   -0.9212   -1.7923 H   0  0  0  0  0  0  0  0  0  0  0  0
   -0.4936    1.7201    0.7273 H   0  0  0  0  0  0  0  0  0  0  0  0
   -0.9552   -1.0150    0.0392 H   0  0  0  0  0  0  0  0  0  0  0  0
   -0.8056    0.7907   -2.3181 H   0  0  0  0  0  0  0  0  0  0  0  0
   -2.6557    1.4652   -0.6795 H   0  0  0  0  0  0  0  0  0  0  0  0
   -3.1918    1.5147    1.6073 H   0  0  0  0  0  0  0  0  0  0  0  0
   -2.1759    0.0493    1.9318 H   0  0  0  0  0  0  0  0  0  0  0  0
   -4.5320   -0.7681    2.2957 H   0  0  0  0  0  0  0  0  0  0  0  0
   -4.6515   -2.2198    0.1039 H   0  0  0  0  0  0  0  0  0  0  0  0
   -2.9138   -2.0613    0.6080 H   0  0  0  0  0  0  0  0  0  0  0  0
   -3.3598   -0.9688   -1.8151 H   0  0  0  0  0  0  0  0  0  0  0  0
   -5.5152    0.5408   -1.6350 H   0  0  0  0  0  0  0  0  0  0  0  0
   -6.2276    0.6745    0.8619 H   0  0  0  0  0  0  0  0  0  0  0  0
    1.7284    2.0331    1.7180 H   0  0  0  0  0  0  0  0  0  0  0  0
  1  2  1  0
  2  3  2  0
  2  4  2  0
  2  5  1  0
  5  6  2  0
  6  7  1  0
  7  8  2  0
  8  9  1  0
  9 10  1  0
 10 11  1  0
 11 12  1  0
 12  7  1  0
 12 13  2  0
 12 14  2  0
 10 15  1  0
 15 16  1  0
 16 17  1  0
 17 18  1  0
 18 19  1  0
 19 15  1  0
 19 20  1  0
 20 21  2  0
 21 17  1  0
  8 22  1  0
 22 23  2  0
 23  5  1  0
 23 24  1  0
  1 25  1  0
  1 26  1  0
  6 27  1  0
  9 28  1  0
 10 29  1  0
 11 30  1  0
 15 31  1  0
 16 32  1  0
 16 33  1  0
 17 34  1  0
 18 35  1  0
 18 36  1  0
 19 37  1  0
 20 38  1  0
 21 39  1  0
 22 40  1  0
M  END
> <ID>
HT0572

> <Class>
1.0

> <Clusters>
40

> <Fold>
1

$$$$