
     RDKit          3D

 56 59  0  0  0  0  0  0  0  0999 V2000
    3.3494   -1.5497   -1.4720 C   0  0  0  0  0  0  0  0  0  0  0  0
    3.8223   -2.3989   -0.3207 C   0  0  0  0  0  0  0  0  0  0  0  0
    3.7698   -2.0282    0.9700 C   0  0  0  0  0  0  0  0  0  0  0  0
    3.2471   -0.7281    1.4423 C   0  0  0  0  0  0  0  0  0  0  0  0
    2.2120   -0.7045    2.3894 C   0  0  0  0  0  0  0  0  0  0  0  0
    1.7201    0.5135    2.8729 C   0  0  0  0  0  0  0  0  0  0  0  0
    2.2585    1.7199    2.4056 C   0  0  0  0  0  0  0  0  0  0  0  0
    3.3014    1.7034    1.4763 C   0  0  0  0  0  0  0  0  0  0  0  0
    3.8069    0.4858    1.0061 C   0  0  0  0  0  0  0  0  0  0  0  0
    1.9574   -1.1083   -1.2550 N   0  0  0  0  0  0  0  0  0  0  0  0
    0.9968   -2.1898   -1.5394 C   0  0  0  0  0  0  0  0  0  0  0  0
   -0.4351   -1.7380   -1.1843 C   0  0  0  0  0  0  0  0  0  0  0  0
   -0.4885   -0.2932   -0.8466 N   0  0  0  0  0  0  0  0  0  0  0  0
    0.1602    0.4700   -1.9423 C   0  0  0  0  0  0  0  0  0  0  0  0
    1.6405    0.0631   -2.0957 C   0  0  0  0  0  0  0  0  0  0  0  0
   -1.8918    0.1601   -0.6322 C   0  0  0  0  0  0  0  0  0  0  0  0
   -1.9680    1.6345   -0.2585 C   0  0  0  0  0  0  0  0  0  0  0  0
   -1.1199    2.1807    0.7239 C   0  0  0  0  0  0  0  0  0  0  0  0
   -1.2112    3.5315    1.0704 C   0  0  0  0  0  0  0  0  0  0  0  0
   -2.1467    4.3525    0.4374 C   0  0  0  0  0  0  0  0  0  0  0  0
   -2.9874    3.8254   -0.5481 C   0  0  0  0  0  0  0  0  0  0  0  0
   -2.9029    2.4734   -0.8935 C   0  0  0  0  0  0  0  0  0  0  0  0
   -2.5952   -0.6372    0.4561 C   0  0  0  0  0  0  0  0  0  0  0  0
   -1.9696   -0.8996    1.6911 C   0  0  0  0  0  0  0  0  0  0  0  0
   -2.6402   -1.6199    2.6848 C   0  0  0  0  0  0  0  0  0  0  0  0
   -3.9387   -2.0856    2.4585 C   0  0  0  0  0  0  0  0  0  0  0  0
   -4.5697   -1.8293    1.2398 C   0  0  0  0  0  0  0  0  0  0  0  0
   -3.9045   -1.1077    0.2435 C   0  0  0  0  0  0  0  0  0  0  0  0
    4.0338   -0.6778   -1.5652 H   0  0  0  0  0  0  0  0  0  0  0  0
    3.4401   -2.1252   -2.4226 H   0  0  0  0  0  0  0  0  0  0  0  0
    4.1915   -3.3922   -0.5529 H   0  0  0  0  0  0  0  0  0  0  0  0
    4.0421   -2.7594    1.7229 H   0  0  0  0  0  0  0  0  0  0  0  0
    1.7822   -1.6287    2.7522 H   0  0  0  0  0  0  0  0  0  0  0  0
    0.9242    0.5249    3.6107 H   0  0  0  0  0  0  0  0  0  0  0  0
    1.8735    2.6629    2.7717 H   0  0  0  0  0  0  0  0  0  0  0  0
    3.7290    2.6352    1.1280 H   0  0  0  0  0  0  0  0  0  0  0  0
    4.6497    0.4919    0.3304 H   0  0  0  0  0  0  0  0  0  0  0  0
    1.0398   -2.4694   -2.6155 H   0  0  0  0  0  0  0  0  0  0  0  0
    1.2484   -3.0964   -0.9457 H   0  0  0  0  0  0  0  0  0  0  0  0
   -1.1141   -1.9681   -2.0366 H   0  0  0  0  0  0  0  0  0  0  0  0
   -0.7734   -2.3445   -0.3175 H   0  0  0  0  0  0  0  0  0  0  0  0
    0.1281    1.5626   -1.7417 H   0  0  0  0  0  0  0  0  0  0  0  0
   -0.3754    0.2953   -2.9046 H   0  0  0  0  0  0  0  0  0  0  0  0
    2.2816    0.9210   -1.7891 H   0  0  0  0  0  0  0  0  0  0  0  0
    1.8539   -0.1535   -3.1697 H   0  0  0  0  0  0  0  0  0  0  0  0
   -2.4515    0.0126   -1.5863 H   0  0  0  0  0  0  0  0  0  0  0  0
   -0.3785    1.5666    1.2115 H   0  0  0  0  0  0  0  0  0  0  0  0
   -0.5505    3.9423    1.8209 H   0  0  0  0  0  0  0  0  0  0  0  0
   -2.2171    5.3992    0.7054 H   0  0  0  0  0  0  0  0  0  0  0  0
   -3.7083    4.4627   -1.0405 H   0  0  0  0  0  0  0  0  0  0  0  0
   -3.5701    2.0834   -1.6532 H   0  0  0  0  0  0  0  0  0  0  0  0
   -0.9570   -0.5666    1.8788 H   0  0  0  0  0  0  0  0  0  0  0  0
   -2.1501   -1.8227    3.6299 H   0  0  0  0  0  0  0  0  0  0  0  0
   -4.4562   -2.6459    3.2277 H   0  0  0  0  0  0  0  0  0  0  0  0
   -5.5744   -2.1906    1.0655 H   0  0  0  0  0  0  0  0  0  0  0  0
   -4.4145   -0.9152   -0.6925 H   0  0  0  0  0  0  0  0  0  0  0  0
  1  2  1  0
  2  3  2  3
  3  4  1  0
  4  5  2  0
  5  6  1  0
  6  7  2  0
  7  8  1  0
  8  9  2  0
  9  4  1  0
  1 10  1  0
 10 11  1  0
 11 12  1  0
 12 13  1  0
 13 14  1  0
 14 15  1  0
 15 10  1  0
 13 16  1  0
 16 17  1  0
 17 18  2  0
 18 19  1  0
 19 20  2  0
 20 21  1  0
 21 22  2  0
 22 17  1  0
 16 23  1  0
 23 24  2  0
 24 25  1  0
 25 26  2  0
 26 27  1  0
 27 28  2  0
 28 23  1  0
  1 29  1  0
  1 30  1  0
  2 31  1  0
  3 32  1  0
  5 33  1  0
  6 34  1  0
  7 35  1  0
  8 36  1  0
  9 37  1  0
 11 38  1  0
 11 39  1  0
 12 40  1  0
 12 41  1  0
 14 42  1  0
 14 43  1  0
 15 44  1  0
 15 45  1  0
 16 46  1  0
 18 47  1  0
 19 48  1  0
 20 49  1  0
 21 50  1  0
 22 51  1  0
 24 52  1  0
 25 53  1  0
 26 54  1  0
 27 55  1  0
 28 56  1  0
M  END
> <ID>
HT0492

> <Class>
1.0

> <Clusters>
57

> <Fold>
1

$$$$