
     RDKit          3D

 52 55  0  0  0  0  0  0  0  0999 V2000
    4.3685    2.0344   -1.0101 C   0  0  0  0  0  0  0  0  0  0  0  0
    3.7762    0.7921   -0.4666 N   0  0  0  0  0  0  0  0  0  0  0  0
    3.7281    0.8677    1.0231 C   0  0  0  0  0  0  0  0  0  0  0  0
    3.1048   -0.4172    1.6267 C   0  0  0  0  0  0  0  0  0  0  0  0
    2.7377   -1.3906    0.4884 C   0  0  0  0  0  0  0  0  0  0  0  0
    4.0227   -1.7014   -0.3008 C   0  0  0  0  0  0  0  0  0  0  0  0
    4.6048   -0.3809   -0.8729 C   0  0  0  0  0  0  0  0  0  0  0  0
    1.7471   -0.6917   -0.4679 C   0  0  0  0  0  0  0  0  0  0  0  0
    2.3901    0.6226   -0.9944 C   0  0  0  0  0  0  0  0  0  0  0  0
    0.5337   -0.3937    0.2273 O   0  0  0  0  0  0  0  0  0  0  0  0
   -0.7294   -0.8669   -0.1459 C   0  0  0  0  0  0  0  0  0  0  0  0
   -0.8577   -1.6116   -1.1583 O   0  0  0  0  0  0  0  0  0  0  0  0
   -1.9471   -0.4081    0.6402 C   0  0  0  0  0  0  0  0  0  0  0  0
   -1.6241   -0.4727    2.0139 O   0  0  0  0  0  0  0  0  0  0  0  0
   -2.3528    1.0353    0.3026 C   0  0  0  0  0  0  0  0  0  0  0  0
   -1.7955    1.7561   -0.7784 C   0  0  0  0  0  0  0  0  0  0  0  0
   -2.2162    3.0606   -1.0532 C   0  0  0  0  0  0  0  0  0  0  0  0
   -3.1998    3.6624   -0.2669 C   0  0  0  0  0  0  0  0  0  0  0  0
   -3.7660    2.9631    0.7992 C   0  0  0  0  0  0  0  0  0  0  0  0
   -3.3478    1.6609    1.0829 C   0  0  0  0  0  0  0  0  0  0  0  0
   -3.1237   -1.3511    0.3584 C   0  0  0  0  0  0  0  0  0  0  0  0
   -3.4407   -2.4074    1.2411 C   0  0  0  0  0  0  0  0  0  0  0  0
   -4.4982   -3.2789    0.9600 C   0  0  0  0  0  0  0  0  0  0  0  0
   -5.2447   -3.1220   -0.2080 C   0  0  0  0  0  0  0  0  0  0  0  0
   -4.9297   -2.0996   -1.1053 C   0  0  0  0  0  0  0  0  0  0  0  0
   -3.8730   -1.2260   -0.8323 C   0  0  0  0  0  0  0  0  0  0  0  0
    5.4036    2.1823   -0.6264 H   0  0  0  0  0  0  0  0  0  0  0  0
    3.7649    2.9237   -0.7201 H   0  0  0  0  0  0  0  0  0  0  0  0
    4.4157    1.9993   -2.1219 H   0  0  0  0  0  0  0  0  0  0  0  0
    3.1295    1.7488    1.3496 H   0  0  0  0  0  0  0  0  0  0  0  0
    4.7534    1.0020    1.4379 H   0  0  0  0  0  0  0  0  0  0  0  0
    2.1994   -0.1622    2.2202 H   0  0  0  0  0  0  0  0  0  0  0  0
    3.8272   -0.9040    2.3192 H   0  0  0  0  0  0  0  0  0  0  0  0
    2.2961   -2.3260    0.8982 H   0  0  0  0  0  0  0  0  0  0  0  0
    3.7971   -2.4124   -1.1275 H   0  0  0  0  0  0  0  0  0  0  0  0
    4.7669   -2.1905    0.3680 H   0  0  0  0  0  0  0  0  0  0  0  0
    5.6533   -0.2601   -0.5121 H   0  0  0  0  0  0  0  0  0  0  0  0
    4.6509   -0.4559   -1.9843 H   0  0  0  0  0  0  0  0  0  0  0  0
    1.5520   -1.3689   -1.3310 H   0  0  0  0  0  0  0  0  0  0  0  0
    1.7586    1.4955   -0.7051 H   0  0  0  0  0  0  0  0  0  0  0  0
    2.3990    0.5975   -2.1094 H   0  0  0  0  0  0  0  0  0  0  0  0
   -0.9422    0.2241    2.2104 H   0  0  0  0  0  0  0  0  0  0  0  0
   -1.0418    1.3208   -1.4207 H   0  0  0  0  0  0  0  0  0  0  0  0
   -1.7813    3.6045   -1.8814 H   0  0  0  0  0  0  0  0  0  0  0  0
   -3.5255    4.6710   -0.4851 H   0  0  0  0  0  0  0  0  0  0  0  0
   -4.5314    3.4304    1.4073 H   0  0  0  0  0  0  0  0  0  0  0  0
   -3.8049    1.1332    1.9109 H   0  0  0  0  0  0  0  0  0  0  0  0
   -2.8708   -2.5689    2.1468 H   0  0  0  0  0  0  0  0  0  0  0  0
   -4.7351   -4.0810    1.6480 H   0  0  0  0  0  0  0  0  0  0  0  0
   -6.0626   -3.7985   -0.4228 H   0  0  0  0  0  0  0  0  0  0  0  0
   -5.5010   -1.9865   -2.0173 H   0  0  0  0  0  0  0  0  0  0  0  0
   -3.6382   -0.4533   -1.5542 H   0  0  0  0  0  0  0  0  0  0  0  0
  1  2  1  0
  2  3  1  0
  3  4  1  0
  4  5  1  0
  5  6  1  0
  6  7  1  0
  7  2  1  0
  5  8  1  0
  8  9  1  0
  9  2  1  0
  8 10  1  0
 10 11  1  0
 11 12  2  0
 11 13  1  0
 13 14  1  0
 13 15  1  0
 15 16  2  0
 16 17  1  0
 17 18  2  0
 18 19  1  0
 19 20  2  0
 20 15  1  0
 13 21  1  0
 21 22  2  0
 22 23  1  0
 23 24  2  0
 24 25  1  0
 25 26  2  0
 26 21  1  0
  1 27  1  0
  1 28  1  0
  1 29  1  0
  3 30  1  0
  3 31  1  0
  4 32  1  0
  4 33  1  0
  5 34  1  0
  6 35  1  0
  6 36  1  0
  7 37  1  0
  7 38  1  0
  8 39  1  0
  9 40  1  0
  9 41  1  0
 14 42  1  0
 16 43  1  0
 17 44  1  0
 18 45  1  0
 19 46  1  0
 20 47  1  0
 22 48  1  0
 23 49  1  0
 24 50  1  0
 25 51  1  0
 26 52  1  0
M  CHG  1   2   1
M  END
> <ID>
HT0509

> <Class>
1.0

> <Clusters>
155

> <Fold>
1

$$$$