
     RDKit          3D

 54 55  0  0  0  0  0  0  0  0999 V2000
    3.9011    0.9809    1.3769 C   0  0  0  0  0  0  0  0  0  0  0  0
    2.9429    0.9928    0.1795 C   0  0  0  0  0  0  0  0  0  0  0  0
    3.6707    1.3168   -1.1305 C   0  0  0  0  0  0  0  0  0  0  0  0
    2.0967   -0.2393    0.1423 N   0  0  0  0  0  0  0  0  0  0  0  0
    0.6764    0.0396   -0.1755 C   0  0  0  0  0  0  0  0  0  0  0  0
   -0.0832    0.4285    1.1087 C   0  0  0  0  0  0  0  0  0  0  0  0
   -1.6486    0.3980    0.9934 C   0  0  0  0  0  0  0  0  0  0  0  0
   -2.2606    0.7207    2.3581 C   0  0  0  0  0  0  0  0  0  0  0  0
   -1.5464    0.7295    3.3983 O   0  0  0  0  0  0  0  0  0  0  0  0
   -3.6599    0.9881    2.4894 N   0  0  0  0  0  0  0  0  0  0  0  0
   -2.2001   -0.9946    0.6047 C   0  0  0  0  0  0  0  0  0  0  0  0
   -1.5529   -2.1863    1.0122 C   0  0  0  0  0  0  0  0  0  0  0  0
   -2.0920   -3.4391    0.7062 C   0  0  0  0  0  0  0  0  0  0  0  0
   -3.3019   -3.5350    0.0214 C   0  0  0  0  0  0  0  0  0  0  0  0
   -3.9850   -2.3775   -0.3457 C   0  0  0  0  0  0  0  0  0  0  0  0
   -3.4522   -1.1216   -0.0441 C   0  0  0  0  0  0  0  0  0  0  0  0
   -2.0366    1.4955   -0.0109 C   0  0  0  0  0  0  0  0  0  0  0  0
   -2.0226    1.2681   -1.4032 C   0  0  0  0  0  0  0  0  0  0  0  0
   -2.3156    2.3138   -2.2796 C   0  0  0  0  0  0  0  0  0  0  0  0
   -2.6003    3.5825   -1.7776 C   0  0  0  0  0  0  0  0  0  0  0  0
   -2.5791    3.7896   -0.3988 C   0  0  0  0  0  0  0  0  0  0  0  0
   -2.2921    2.7592    0.4399 N   0  0  0  0  0  0  0  0  0  0  0  0
    2.5948   -1.5147   -0.4556 C   0  0  0  0  0  0  0  0  0  0  0  0
    2.6362   -1.5226   -1.9972 C   0  0  0  0  0  0  0  0  0  0  0  0
    3.9222   -1.9892    0.1448 C   0  0  0  0  0  0  0  0  0  0  0  0
    4.2548    2.0138    1.5847 H   0  0  0  0  0  0  0  0  0  0  0  0
    3.3759    0.6071    2.2815 H   0  0  0  0  0  0  0  0  0  0  0  0
    4.7972    0.3588    1.1908 H   0  0  0  0  0  0  0  0  0  0  0  0
    2.2858    1.8721    0.3684 H   0  0  0  0  0  0  0  0  0  0  0  0
    4.0740    2.3512   -1.0835 H   0  0  0  0  0  0  0  0  0  0  0  0
    2.9659    1.2714   -1.9866 H   0  0  0  0  0  0  0  0  0  0  0  0
    4.5303    0.6395   -1.2993 H   0  0  0  0  0  0  0  0  0  0  0  0
    0.1853   -0.8469   -0.6289 H   0  0  0  0  0  0  0  0  0  0  0  0
    0.6054    0.8550   -0.9278 H   0  0  0  0  0  0  0  0  0  0  0  0
    0.2634   -0.2249    1.9368 H   0  0  0  0  0  0  0  0  0  0  0  0
    0.2306    1.4550    1.4010 H   0  0  0  0  0  0  0  0  0  0  0  0
   -4.0700    1.1793    3.4303 H   0  0  0  0  0  0  0  0  0  0  0  0
   -4.2888    1.0220    1.6581 H   0  0  0  0  0  0  0  0  0  0  0  0
   -0.6299   -2.1691    1.5700 H   0  0  0  0  0  0  0  0  0  0  0  0
   -1.5735   -4.3389    1.0115 H   0  0  0  0  0  0  0  0  0  0  0  0
   -3.7181   -4.5068   -0.2105 H   0  0  0  0  0  0  0  0  0  0  0  0
   -4.9360   -2.4521   -0.8575 H   0  0  0  0  0  0  0  0  0  0  0  0
   -4.0278   -0.2497   -0.3227 H   0  0  0  0  0  0  0  0  0  0  0  0
   -1.7809    0.2944   -1.8090 H   0  0  0  0  0  0  0  0  0  0  0  0
   -2.3137    2.1418   -3.3482 H   0  0  0  0  0  0  0  0  0  0  0  0
   -2.8254    4.3997   -2.4505 H   0  0  0  0  0  0  0  0  0  0  0  0
   -2.7841    4.7714    0.0060 H   0  0  0  0  0  0  0  0  0  0  0  0
    1.8677   -2.3083   -0.1663 H   0  0  0  0  0  0  0  0  0  0  0  0
    2.5984   -2.5721   -2.3598 H   0  0  0  0  0  0  0  0  0  0  0  0
    3.5708   -1.0815   -2.3939 H   0  0  0  0  0  0  0  0  0  0  0  0
    1.7690   -0.9853   -2.4322 H   0  0  0  0  0  0  0  0  0  0  0  0
    4.0980   -3.0510   -0.1316 H   0  0  0  0  0  0  0  0  0  0  0  0
    3.8857   -1.9280    1.2529 H   0  0  0  0  0  0  0  0  0  0  0  0
    4.7785   -1.4018   -0.2404 H   0  0  0  0  0  0  0  0  0  0  0  0
  1  2  1  0
  2  3  1  0
  2  4  1  0
  4  5  1  0
  5  6  1  0
  6  7  1  0
  7  8  1  0
  8  9  2  0
  8 10  1  0
  7 11  1  0
 11 12  2  0
 12 13  1  0
 13 14  2  0
 14 15  1  0
 15 16  2  0
 16 11  1  0
  7 17  1  0
 17 18  2  0
 18 19  1  0
 19 20  2  0
 20 21  1  0
 21 22  2  0
 22 17  1  0
  4 23  1  0
 23 24  1  0
 23 25  1  0
  1 26  1  0
  1 27  1  0
  1 28  1  0
  2 29  1  0
  3 30  1  0
  3 31  1  0
  3 32  1  0
  5 33  1  0
  5 34  1  0
  6 35  1  0
  6 36  1  0
 10 37  1  0
 10 38  1  0
 12 39  1  0
 13 40  1  0
 14 41  1  0
 15 42  1  0
 16 43  1  0
 18 44  1  0
 19 45  1  0
 20 46  1  0
 21 47  1  0
 23 48  1  0
 24 49  1  0
 24 50  1  0
 24 51  1  0
 25 52  1  0
 25 53  1  0
 25 54  1  0
M  END
> <ID>
HT0696

> <Class>
1.0

> <Clusters>
163

> <Fold>
1

$$$$