
     RDKit          3D

 26 25  0  0  0  0  0  0  0  0999 V2000
    3.2024    0.7502    0.6336 C   0  0  0  0  0  0  0  0  0  0  0  0
    1.6871    0.5735    0.6776 C   0  0  0  0  0  0  0  0  0  0  0  0
    1.2643   -0.7513    0.0271 C   0  0  0  0  0  0  0  0  0  0  0  0
   -0.2390   -1.0651    0.2096 C   0  0  0  0  0  0  0  0  0  0  0  0
   -1.1611   -0.0476   -0.5179 C   0  0  0  0  0  0  0  0  0  0  0  0
   -1.7575    0.9907    0.4461 C   0  0  0  0  0  0  0  0  0  0  0  0
   -2.6018    2.0186   -0.3019 C   0  0  0  0  0  0  0  0  0  0  0  0
   -0.5083   -2.4564   -0.3006 C   0  0  0  0  0  0  0  0  0  0  0  0
   -0.9261   -3.3484    0.4859 O   0  0  0  0  0  0  0  0  0  0  0  0
   -0.2984   -2.7604   -1.6431 O   0  0  0  0  0  0  0  0  0  0  0  0
    3.7033   -0.0634    1.2003 H   0  0  0  0  0  0  0  0  0  0  0  0
    3.4767    1.7229    1.0937 H   0  0  0  0  0  0  0  0  0  0  0  0
    3.5614    0.7404   -0.4177 H   0  0  0  0  0  0  0  0  0  0  0  0
    1.3544    0.5981    1.7381 H   0  0  0  0  0  0  0  0  0  0  0  0
    1.2236    1.4243    0.1349 H   0  0  0  0  0  0  0  0  0  0  0  0
    1.5181   -0.7256   -1.0562 H   0  0  0  0  0  0  0  0  0  0  0  0
    1.8542   -1.5738    0.4911 H   0  0  0  0  0  0  0  0  0  0  0  0
   -0.4626   -1.0612    1.3011 H   0  0  0  0  0  0  0  0  0  0  0  0
   -2.0141   -0.5746   -1.0027 H   0  0  0  0  0  0  0  0  0  0  0  0
   -0.6046    0.4678   -1.3317 H   0  0  0  0  0  0  0  0  0  0  0  0
   -0.9540    1.5230    0.9948 H   0  0  0  0  0  0  0  0  0  0  0  0
   -2.4005    0.4750    1.1923 H   0  0  0  0  0  0  0  0  0  0  0  0
   -1.9760    2.5709   -1.0350 H   0  0  0  0  0  0  0  0  0  0  0  0
   -3.4374    1.5178   -0.8356 H   0  0  0  0  0  0  0  0  0  0  0  0
   -3.0276    2.7465    0.4205 H   0  0  0  0  0  0  0  0  0  0  0  0
   -0.4764   -3.6919   -1.9989 H   0  0  0  0  0  0  0  0  0  0  0  0
  1  2  1  0
  2  3  1  0
  3  4  1  0
  4  5  1  0
  5  6  1  0
  6  7  1  0
  4  8  1  0
  8  9  2  0
  8 10  1  0
  1 11  1  0
  1 12  1  0
  1 13  1  0
  2 14  1  0
  2 15  1  0
  3 16  1  0
  3 17  1  0
  4 18  1  0
  5 19  1  0
  5 20  1  0
  6 21  1  0
  6 22  1  0
  7 23  1  0
  7 24  1  0
  7 25  1  0
 10 26  1  0
M  END
> <ID>
HT0699

> <Class>
1.0

> <Clusters>
82

> <Fold>
1

$$$$