
     RDKit          3D

 40 41  0  0  0  0  0  0  0  0999 V2000
    3.4277   -1.7908   -1.5622 C   0  0  0  0  0  0  0  0  0  0  0  0
    3.0060   -0.9947   -0.3986 N   0  0  0  0  0  0  0  0  0  0  0  0
    4.0696   -1.0136    0.6207 C   0  0  0  0  0  0  0  0  0  0  0  0
    2.6919    0.3900   -0.8150 C   0  0  0  0  0  0  0  0  0  0  0  0
    1.7677    1.0783    0.1986 C   0  0  0  0  0  0  0  0  0  0  0  0
    0.6989    0.2236    0.5645 O   0  0  0  0  0  0  0  0  0  0  0  0
   -0.4357    0.4161   -0.2668 C   0  0  0  0  0  0  0  0  0  0  0  0
   -1.2460   -0.8613   -0.3675 C   0  0  0  0  0  0  0  0  0  0  0  0
   -1.0270   -1.9539    0.4964 C   0  0  0  0  0  0  0  0  0  0  0  0
   -1.7989   -3.1138    0.3786 C   0  0  0  0  0  0  0  0  0  0  0  0
   -2.7959   -3.1977   -0.5957 C   0  0  0  0  0  0  0  0  0  0  0  0
   -3.0252   -2.1206   -1.4544 C   0  0  0  0  0  0  0  0  0  0  0  0
   -2.2568   -0.9584   -1.3417 C   0  0  0  0  0  0  0  0  0  0  0  0
   -1.3000    1.5199    0.3032 C   0  0  0  0  0  0  0  0  0  0  0  0
   -1.7646    1.4481    1.6291 C   0  0  0  0  0  0  0  0  0  0  0  0
   -2.5635    2.4687    2.1532 C   0  0  0  0  0  0  0  0  0  0  0  0
   -2.9043    3.5681    1.3611 C   0  0  0  0  0  0  0  0  0  0  0  0
   -2.4467    3.6489    0.0433 C   0  0  0  0  0  0  0  0  0  0  0  0
   -1.6475    2.6306   -0.4855 C   0  0  0  0  0  0  0  0  0  0  0  0
    2.5983   -1.8584   -2.2988 H   0  0  0  0  0  0  0  0  0  0  0  0
    3.6690   -2.8307   -1.2524 H   0  0  0  0  0  0  0  0  0  0  0  0
    4.3185   -1.3415   -2.0558 H   0  0  0  0  0  0  0  0  0  0  0  0
    5.0068   -0.5506    0.2385 H   0  0  0  0  0  0  0  0  0  0  0  0
    3.7430   -0.4747    1.5338 H   0  0  0  0  0  0  0  0  0  0  0  0
    4.2861   -2.0592    0.9292 H   0  0  0  0  0  0  0  0  0  0  0  0
    3.6181    0.9938   -0.9487 H   0  0  0  0  0  0  0  0  0  0  0  0
    2.1658    0.3912   -1.7956 H   0  0  0  0  0  0  0  0  0  0  0  0
    1.4240    2.0606   -0.2025 H   0  0  0  0  0  0  0  0  0  0  0  0
    2.3460    1.3175    1.1145 H   0  0  0  0  0  0  0  0  0  0  0  0
   -0.1293    0.6644   -1.3115 H   0  0  0  0  0  0  0  0  0  0  0  0
   -0.2679   -1.9144    1.2666 H   0  0  0  0  0  0  0  0  0  0  0  0
   -1.6250   -3.9483    1.0457 H   0  0  0  0  0  0  0  0  0  0  0  0
   -3.3921   -4.0966   -0.6840 H   0  0  0  0  0  0  0  0  0  0  0  0
   -3.7996   -2.1856   -2.2077 H   0  0  0  0  0  0  0  0  0  0  0  0
   -2.4488   -0.1311   -2.0141 H   0  0  0  0  0  0  0  0  0  0  0  0
   -1.5079    0.6019    2.2542 H   0  0  0  0  0  0  0  0  0  0  0  0
   -2.9183    2.4072    3.1738 H   0  0  0  0  0  0  0  0  0  0  0  0
   -3.5229    4.3573    1.7683 H   0  0  0  0  0  0  0  0  0  0  0  0
   -2.7114    4.5011   -0.5691 H   0  0  0  0  0  0  0  0  0  0  0  0
   -1.3021    2.7088   -1.5088 H   0  0  0  0  0  0  0  0  0  0  0  0
  1  2  1  0
  2  3  1  0
  2  4  1  0
  4  5  1  0
  5  6  1  0
  6  7  1  0
  7  8  1  0
  8  9  2  0
  9 10  1  0
 10 11  2  0
 11 12  1  0
 12 13  2  0
 13  8  1  0
  7 14  1  0
 14 15  2  0
 15 16  1  0
 16 17  2  0
 17 18  1  0
 18 19  2  0
 19 14  1  0
  1 20  1  0
  1 21  1  0
  1 22  1  0
  3 23  1  0
  3 24  1  0
  3 25  1  0
  4 26  1  0
  4 27  1  0
  5 28  1  0
  5 29  1  0
  7 30  1  0
  9 31  1  0
 10 32  1  0
 11 33  1  0
 12 34  1  0
 13 35  1  0
 15 36  1  0
 16 37  1  0
 17 38  1  0
 18 39  1  0
 19 40  1  0
M  END
> <ID>
HT0675

> <Class>
1.0

> <Clusters>
79

> <Fold>
1

$$$$