
     RDKit          3D

 54 55  0  0  0  0  0  0  0  0999 V2000
   -0.6410    4.1584    1.3207 C   0  0  0  0  0  0  0  0  0  0  0  0
    0.7878    3.8778    0.8684 C   0  0  0  0  0  0  0  0  0  0  0  0
    0.9598    2.4301    0.5356 C   0  0  0  0  0  0  0  0  0  0  0  0
    1.7693    1.7342    1.2016 O   0  0  0  0  0  0  0  0  0  0  0  0
    0.2107    1.8844   -0.5188 O   0  0  0  0  0  0  0  0  0  0  0  0
    0.1159    0.5105   -0.9535 C   0  0  1  0  0  0  0  0  0  0  0  0
    1.5663   -0.1172   -1.1168 C   0  0  0  0  0  0  0  0  0  0  0  0
    1.9626   -1.2806   -0.2296 C   0  0  0  0  0  0  0  0  0  0  0  0
    2.9560   -1.1176    0.7554 C   0  0  0  0  0  0  0  0  0  0  0  0
    3.3621   -2.2007    1.5405 C   0  0  0  0  0  0  0  0  0  0  0  0
    2.8123   -3.4658    1.3267 C   0  0  0  0  0  0  0  0  0  0  0  0
    1.8676   -3.6527    0.3162 C   0  0  0  0  0  0  0  0  0  0  0  0
    1.4537   -2.5706   -0.4663 C   0  0  0  0  0  0  0  0  0  0  0  0
   -0.8938   -0.2538    0.0107 C   0  0  2  0  0  0  0  0  0  0  0  0
   -2.3382    0.2848   -0.1437 C   0  0  0  0  0  0  0  0  0  0  0  0
   -0.5275   -0.1930    1.5208 C   0  0  0  0  0  0  0  0  0  0  0  0
   -1.3758   -1.1070    2.3229 N   0  0  0  0  0  0  0  0  0  0  0  0
   -0.8337   -2.4773    2.3265 C   0  0  0  0  0  0  0  0  0  0  0  0
   -1.4795   -0.6220    3.7092 C   0  0  0  0  0  0  0  0  0  0  0  0
   -0.4873    0.5417   -2.3785 C   0  0  0  0  0  0  0  0  0  0  0  0
   -0.8280   -0.6593   -3.0417 C   0  0  0  0  0  0  0  0  0  0  0  0
   -1.3655   -0.6421   -4.3312 C   0  0  0  0  0  0  0  0  0  0  0  0
   -1.5687    0.5695   -4.9898 C   0  0  0  0  0  0  0  0  0  0  0  0
   -1.2320    1.7675   -4.3613 C   0  0  0  0  0  0  0  0  0  0  0  0
   -0.6938    1.7592   -3.0712 C   0  0  0  0  0  0  0  0  0  0  0  0
   -0.8870    3.5517    2.2186 H   0  0  0  0  0  0  0  0  0  0  0  0
   -1.3595    3.9179    0.5080 H   0  0  0  0  0  0  0  0  0  0  0  0
   -0.7448    5.2334    1.5782 H   0  0  0  0  0  0  0  0  0  0  0  0
    1.0189    4.4870   -0.0312 H   0  0  0  0  0  0  0  0  0  0  0  0
    1.4900    4.1708    1.6792 H   0  0  0  0  0  0  0  0  0  0  0  0
    1.7384   -0.4679   -2.1589 H   0  0  0  0  0  0  0  0  0  0  0  0
    2.3226    0.6903   -1.0241 H   0  0  0  0  0  0  0  0  0  0  0  0
    3.4238   -0.1561    0.9160 H   0  0  0  0  0  0  0  0  0  0  0  0
    4.1129   -2.0609    2.3073 H   0  0  0  0  0  0  0  0  0  0  0  0
    3.1305   -4.3043    1.9324 H   0  0  0  0  0  0  0  0  0  0  0  0
    1.4585   -4.6382    0.1350 H   0  0  0  0  0  0  0  0  0  0  0  0
    0.7470   -2.7483   -1.2617 H   0  0  0  0  0  0  0  0  0  0  0  0
   -0.9262   -1.3159   -0.2932 H   0  0  0  0  0  0  0  0  0  0  0  0
   -2.3711    1.3780    0.0505 H   0  0  0  0  0  0  0  0  0  0  0  0
   -3.0294   -0.2187    0.5644 H   0  0  0  0  0  0  0  0  0  0  0  0
   -2.7405    0.0890   -1.1583 H   0  0  0  0  0  0  0  0  0  0  0  0
    0.5393   -0.4122    1.7025 H   0  0  0  0  0  0  0  0  0  0  0  0
   -0.6867    0.8551    1.8575 H   0  0  0  0  0  0  0  0  0  0  0  0
   -0.8321   -2.8991    1.3022 H   0  0  0  0  0  0  0  0  0  0  0  0
    0.2000   -2.5044    2.7377 H   0  0  0  0  0  0  0  0  0  0  0  0
   -1.4786   -3.1442    2.9385 H   0  0  0  0  0  0  0  0  0  0  0  0
   -0.4750   -0.5380    4.1815 H   0  0  0  0  0  0  0  0  0  0  0  0
   -2.1105   -1.3086    4.3143 H   0  0  0  0  0  0  0  0  0  0  0  0
   -1.9760    0.3720    3.7297 H   0  0  0  0  0  0  0  0  0  0  0  0
   -0.6878   -1.6150   -2.5640 H   0  0  0  0  0  0  0  0  0  0  0  0
   -1.6249   -1.5720   -4.8207 H   0  0  0  0  0  0  0  0  0  0  0  0
   -1.9849    0.5800   -5.9889 H   0  0  0  0  0  0  0  0  0  0  0  0
   -1.3859    2.7073   -4.8759 H   0  0  0  0  0  0  0  0  0  0  0  0
   -0.4406    2.7133   -2.6295 H   0  0  0  0  0  0  0  0  0  0  0  0
  1  2  1  0
  2  3  1  0
  3  4  2  0
  3  5  1  0
  6  5  1  1
  6  7  1  0
  7  8  1  0
  8  9  2  0
  9 10  1  0
 10 11  2  0
 11 12  1  0
 12 13  2  0
 13  8  1  0
  6 14  1  0
 14 15  1  0
 14 16  1  0
 16 17  1  0
 17 18  1  0
 17 19  1  0
  6 20  1  0
 20 21  2  0
 21 22  1  0
 22 23  2  0
 23 24  1  0
 24 25  2  0
 25 20  1  0
  1 26  1  0
  1 27  1  0
  1 28  1  0
  2 29  1  0
  2 30  1  0
  7 31  1  0
  7 32  1  0
  9 33  1  0
 10 34  1  0
 11 35  1  0
 12 36  1  0
 13 37  1  0
 14 38  1  6
 15 39  1  0
 15 40  1  0
 15 41  1  0
 16 42  1  0
 16 43  1  0
 18 44  1  0
 18 45  1  0
 18 46  1  0
 19 47  1  0
 19 48  1  0
 19 49  1  0
 21 50  1  0
 22 51  1  0
 23 52  1  0
 24 53  1  0
 25 54  1  0
M  END
> <ID>
HT0629

> <Class>
1.0

> <Clusters>
163

> <Fold>
1

$$$$