
     RDKit          3D

 57 60  0  0  0  0  0  0  0  0999 V2000
   -5.0175    4.8782    1.6282 C   0  0  0  0  0  0  0  0  0  0  0  0
   -5.6954    3.7309    1.1264 O   0  0  0  0  0  0  0  0  0  0  0  0
   -5.0676    2.5200    0.7951 C   0  0  0  0  0  0  0  0  0  0  0  0
   -3.6718    2.3380    0.9377 C   0  0  0  0  0  0  0  0  0  0  0  0
   -3.1103    1.1100    0.5897 C   0  0  0  0  0  0  0  0  0  0  0  0
   -1.6669    0.7261    0.6691 C   0  0  0  0  0  0  0  0  0  0  0  0
   -1.6198   -0.7472    0.1583 C   0  0  0  0  0  0  0  0  0  0  0  0
   -0.7301   -0.9271   -1.1003 C   0  0  0  0  0  0  0  0  0  0  0  0
    0.7706   -1.1915   -0.8186 C   0  0  0  0  0  0  0  0  0  0  0  0
    1.0293   -2.6268   -0.3000 C   0  0  0  0  0  0  0  0  0  0  0  0
    2.3888   -2.7553    0.4112 C   0  0  0  0  0  0  0  0  0  0  0  0
    3.3455   -1.7695   -0.1269 N   0  0  0  0  0  0  0  0  0  0  0  0
    4.7146   -2.0666    0.3431 C   0  0  0  0  0  0  0  0  0  0  0  0
    5.7298   -1.2529   -0.4179 C   0  0  0  0  0  0  0  0  0  0  0  0
    5.8624   -1.4160   -1.8069 C   0  0  0  0  0  0  0  0  0  0  0  0
    6.7975   -0.6586   -2.5189 C   0  0  0  0  0  0  0  0  0  0  0  0
    7.6064    0.2643   -1.8501 C   0  0  0  0  0  0  0  0  0  0  0  0
    7.4815    0.4310   -0.4681 C   0  0  0  0  0  0  0  0  0  0  0  0
    6.5476   -0.3244    0.2480 C   0  0  0  0  0  0  0  0  0  0  0  0
    2.9420   -0.3885    0.2426 C   0  0  0  0  0  0  0  0  0  0  0  0
    1.4211   -0.1498    0.1074 C   0  0  0  0  0  0  0  0  0  0  0  0
   -3.0558   -1.0520   -0.1538 C   0  0  0  0  0  0  0  0  0  0  0  0
   -3.4818   -2.1667   -0.5582 O   0  0  0  0  0  0  0  0  0  0  0  0
   -3.8900    0.0914    0.1162 C   0  0  0  0  0  0  0  0  0  0  0  0
   -5.2680    0.2284   -0.0371 C   0  0  0  0  0  0  0  0  0  0  0  0
   -5.8682    1.4616    0.3062 C   0  0  0  0  0  0  0  0  0  0  0  0
   -7.2494    1.6759    0.1778 O   0  0  0  0  0  0  0  0  0  0  0  0
   -8.1738    0.7036   -0.2993 C   0  0  0  0  0  0  0  0  0  0  0  0
   -5.7554    5.6878    1.8027 H   0  0  0  0  0  0  0  0  0  0  0  0
   -4.5198    4.6368    2.5911 H   0  0  0  0  0  0  0  0  0  0  0  0
   -4.2684    5.2327    0.8890 H   0  0  0  0  0  0  0  0  0  0  0  0
   -3.0317    3.1266    1.3090 H   0  0  0  0  0  0  0  0  0  0  0  0
   -1.3211    0.7854    1.7235 H   0  0  0  0  0  0  0  0  0  0  0  0
   -1.0690    1.4212    0.0430 H   0  0  0  0  0  0  0  0  0  0  0  0
   -1.2975   -1.4189    0.9809 H   0  0  0  0  0  0  0  0  0  0  0  0
   -1.1065   -1.7844   -1.7018 H   0  0  0  0  0  0  0  0  0  0  0  0
   -0.8268   -0.0357   -1.7587 H   0  0  0  0  0  0  0  0  0  0  0  0
    1.2867   -1.1069   -1.8028 H   0  0  0  0  0  0  0  0  0  0  0  0
    1.0023   -3.3242   -1.1662 H   0  0  0  0  0  0  0  0  0  0  0  0
    0.2365   -2.9554    0.4032 H   0  0  0  0  0  0  0  0  0  0  0  0
    2.2566   -2.6047    1.5076 H   0  0  0  0  0  0  0  0  0  0  0  0
    2.7605   -3.7928    0.2567 H   0  0  0  0  0  0  0  0  0  0  0  0
    4.9580   -3.1378    0.1661 H   0  0  0  0  0  0  0  0  0  0  0  0
    4.7984   -1.8943    1.4405 H   0  0  0  0  0  0  0  0  0  0  0  0
    5.2398   -2.1271   -2.3358 H   0  0  0  0  0  0  0  0  0  0  0  0
    6.8949   -0.7869   -3.5892 H   0  0  0  0  0  0  0  0  0  0  0  0
    8.3296    0.8501   -2.4027 H   0  0  0  0  0  0  0  0  0  0  0  0
    8.1081    1.1466    0.0485 H   0  0  0  0  0  0  0  0  0  0  0  0
    6.4598   -0.1812    1.3177 H   0  0  0  0  0  0  0  0  0  0  0  0
    3.2469   -0.1463    1.2863 H   0  0  0  0  0  0  0  0  0  0  0  0
    3.4652    0.3244   -0.4313 H   0  0  0  0  0  0  0  0  0  0  0  0
    1.2454    0.8743   -0.2870 H   0  0  0  0  0  0  0  0  0  0  0  0
    0.9628   -0.2158    1.1178 H   0  0  0  0  0  0  0  0  0  0  0  0
   -5.8496   -0.6026   -0.4124 H   0  0  0  0  0  0  0  0  0  0  0  0
   -7.9158    0.4092   -1.3385 H   0  0  0  0  0  0  0  0  0  0  0  0
   -9.1932    1.1407   -0.2967 H   0  0  0  0  0  0  0  0  0  0  0  0
   -8.1671   -0.1872    0.3637 H   0  0  0  0  0  0  0  0  0  0  0  0
  1  2  1  0
  2  3  1  0
  3  4  2  0
  4  5  1  0
  5  6  1  0
  6  7  1  0
  7  8  1  0
  8  9  1  0
  9 10  1  0
 10 11  1  0
 11 12  1  0
 12 13  1  0
 13 14  1  0
 14 15  2  0
 15 16  1  0
 16 17  2  0
 17 18  1  0
 18 19  2  0
 19 14  1  0
 12 20  1  0
 20 21  1  0
 21  9  1  0
  7 22  1  0
 22 23  2  0
 22 24  1  0
 24  5  2  0
 24 25  1  0
 25 26  2  0
 26  3  1  0
 26 27  1  0
 27 28  1  0
  1 29  1  0
  1 30  1  0
  1 31  1  0
  4 32  1  0
  6 33  1  0
  6 34  1  0
  7 35  1  0
  8 36  1  0
  8 37  1  0
  9 38  1  0
 10 39  1  0
 10 40  1  0
 11 41  1  0
 11 42  1  0
 13 43  1  0
 13 44  1  0
 15 45  1  0
 16 46  1  0
 17 47  1  0
 18 48  1  0
 19 49  1  0
 20 50  1  0
 20 51  1  0
 21 52  1  0
 21 53  1  0
 25 54  1  0
 28 55  1  0
 28 56  1  0
 28 57  1  0
M  END
> <ID>
HT0708

> <Class>
1.0

> <Clusters>
242

> <Fold>
1

$$$$