
     RDKit          3D

 44 46  0  0  0  0  0  0  0  0999 V2000
    5.4231    0.0248   -0.0274 C   0  0  0  0  0  0  0  0  0  0  0  0
    4.1032   -0.5977   -0.2129 N   0  0  0  0  0  0  0  0  0  0  0  0
    3.4577   -0.0757   -1.4415 C   0  0  0  0  0  0  0  0  0  0  0  0
    1.9481   -0.3377   -1.4382 C   0  0  0  0  0  0  0  0  0  0  0  0
    1.2520    0.3866   -0.2619 C   0  0  0  0  0  0  0  0  0  0  0  0
    2.2201    0.6354    0.9129 C   0  0  0  0  0  0  0  0  0  0  0  0
    3.2713   -0.4790    1.0139 C   0  0  0  0  0  0  0  0  0  0  0  0
    0.1683   -0.4021    0.2055 O   0  0  0  0  0  0  0  0  0  0  0  0
   -1.0417   -0.0866   -0.4664 C   0  0  0  0  0  0  0  0  0  0  0  0
   -1.6878    1.1236    0.1738 C   0  0  0  0  0  0  0  0  0  0  0  0
   -1.9310    1.1532    1.5590 C   0  0  0  0  0  0  0  0  0  0  0  0
   -2.5246    2.2738    2.1474 C   0  0  0  0  0  0  0  0  0  0  0  0
   -2.8796    3.3725    1.3607 C   0  0  0  0  0  0  0  0  0  0  0  0
   -2.6414    3.3526   -0.0160 C   0  0  0  0  0  0  0  0  0  0  0  0
   -2.0478    2.2342   -0.6091 C   0  0  0  0  0  0  0  0  0  0  0  0
   -2.0014   -1.2570   -0.4057 C   0  0  0  0  0  0  0  0  0  0  0  0
   -3.0836   -1.3079   -1.3034 C   0  0  0  0  0  0  0  0  0  0  0  0
   -3.9945   -2.3672   -1.2571 C   0  0  0  0  0  0  0  0  0  0  0  0
   -3.8396   -3.3833   -0.3117 C   0  0  0  0  0  0  0  0  0  0  0  0
   -2.7753   -3.3404    0.5916 C   0  0  0  0  0  0  0  0  0  0  0  0
   -1.8608   -2.2834    0.5501 C   0  0  0  0  0  0  0  0  0  0  0  0
    5.9742   -0.4895    0.7889 H   0  0  0  0  0  0  0  0  0  0  0  0
    6.0323   -0.0792   -0.9515 H   0  0  0  0  0  0  0  0  0  0  0  0
    5.3224    1.1041    0.2235 H   0  0  0  0  0  0  0  0  0  0  0  0
    3.9043   -0.5800   -2.3255 H   0  0  0  0  0  0  0  0  0  0  0  0
    3.6276    1.0203   -1.5538 H   0  0  0  0  0  0  0  0  0  0  0  0
    1.7808   -1.4353   -1.3647 H   0  0  0  0  0  0  0  0  0  0  0  0
    1.5106    0.0062   -2.4004 H   0  0  0  0  0  0  0  0  0  0  0  0
    0.9195    1.3955   -0.6074 H   0  0  0  0  0  0  0  0  0  0  0  0
    1.6531    0.7049    1.8670 H   0  0  0  0  0  0  0  0  0  0  0  0
    2.7431    1.6068    0.7701 H   0  0  0  0  0  0  0  0  0  0  0  0
    3.8932   -0.3084    1.9217 H   0  0  0  0  0  0  0  0  0  0  0  0
    2.7488   -1.4463    1.1775 H   0  0  0  0  0  0  0  0  0  0  0  0
   -0.8472    0.1010   -1.5502 H   0  0  0  0  0  0  0  0  0  0  0  0
   -1.6588    0.3098    2.1813 H   0  0  0  0  0  0  0  0  0  0  0  0
   -2.7088    2.2905    3.2138 H   0  0  0  0  0  0  0  0  0  0  0  0
   -3.3390    4.2393    1.8178 H   0  0  0  0  0  0  0  0  0  0  0  0
   -2.9167    4.2046   -0.6241 H   0  0  0  0  0  0  0  0  0  0  0  0
   -1.8703    2.2351   -1.6773 H   0  0  0  0  0  0  0  0  0  0  0  0
   -3.2212   -0.5244   -2.0386 H   0  0  0  0  0  0  0  0  0  0  0  0
   -4.8225   -2.3987   -1.9535 H   0  0  0  0  0  0  0  0  0  0  0  0
   -4.5466   -4.2021   -0.2765 H   0  0  0  0  0  0  0  0  0  0  0  0
   -2.6604   -4.1253    1.3279 H   0  0  0  0  0  0  0  0  0  0  0  0
   -1.0531   -2.2675    1.2703 H   0  0  0  0  0  0  0  0  0  0  0  0
  1  2  1  0
  2  3  1  0
  3  4  1  0
  4  5  1  0
  5  6  1  0
  6  7  1  0
  7  2  1  0
  5  8  1  0
  8  9  1  0
  9 10  1  0
 10 11  2  0
 11 12  1  0
 12 13  2  0
 13 14  1  0
 14 15  2  0
 15 10  1  0
  9 16  1  0
 16 17  2  0
 17 18  1  0
 18 19  2  0
 19 20  1  0
 20 21  2  0
 21 16  1  0
  1 22  1  0
  1 23  1  0
  1 24  1  0
  3 25  1  0
  3 26  1  0
  4 27  1  0
  4 28  1  0
  5 29  1  0
  6 30  1  0
  6 31  1  0
  7 32  1  0
  7 33  1  0
  9 34  1  0
 11 35  1  0
 12 36  1  0
 13 37  1  0
 14 38  1  0
 15 39  1  0
 17 40  1  0
 18 41  1  0
 19 42  1  0
 20 43  1  0
 21 44  1  0
M  END
> <ID>
HT0691

> <Class>
1.0

> <Clusters>
79

> <Fold>
1

$$$$