
     RDKit          3D

 67 71  0  0  0  0  0  0  0  0999 V2000
    0.4537    1.0123   -0.1720 C   0  0  0  0  0  0  0  0  0  0  0  0
    0.0613   -0.4773    0.1085 C   0  0  2  0  0  0  0  0  0  0  0  0
   -0.4743   -1.1409   -1.1821 C   0  0  0  0  0  0  0  0  0  0  0  0
   -1.8293   -0.5289   -1.6136 C   0  0  0  0  0  0  0  0  0  0  0  0
   -2.8973   -0.5528   -0.4737 C   0  0  1  0  0  0  0  0  0  0  0  0
   -2.3326    0.0832    0.8487 C   0  0  1  0  0  0  0  0  0  0  0  0
   -3.3492   -0.0343    2.0029 C   0  0  0  0  0  0  0  0  0  0  0  0
   -4.6987    0.5873    1.6261 C   0  0  0  0  0  0  0  0  0  0  0  0
   -5.2470   -0.0801    0.3580 C   0  0  1  0  0  0  0  0  0  0  0  0
   -6.5841    0.4068    0.0133 N   0  0  0  0  0  0  0  0  0  0  0  0
   -7.1466   -0.0200   -1.2311 C   0  0  0  0  0  0  0  0  0  0  0  0
   -8.3688    0.1601   -1.4757 O   0  0  0  0  0  0  0  0  0  0  0  0
   -6.2729   -0.6779   -2.2164 C   0  0  0  0  0  0  0  0  0  0  0  0
   -4.9438   -0.7017   -2.0258 C   0  0  0  0  0  0  0  0  0  0  0  0
   -4.2900    0.0621   -0.8707 C   0  0  2  0  0  0  0  0  0  0  0  0
   -4.1572    1.5447   -1.3172 C   0  0  0  0  0  0  0  0  0  0  0  0
   -1.0126   -0.6385    1.1958 C   0  0  2  0  0  0  0  0  0  0  0  0
   -0.2976   -0.3019    2.4970 C   0  0  0  0  0  0  0  0  0  0  0  0
    1.1462   -0.7858    2.2698 C   0  0  0  0  0  0  0  0  0  0  0  0
    1.2409   -1.2215    0.7847 C   0  0  2  0  0  0  0  0  0  0  0  0
    2.5990   -0.9993    0.1487 C   0  0  0  0  0  0  0  0  0  0  0  0
    2.7081   -1.0624   -1.1057 O   0  0  0  0  0  0  0  0  0  0  0  0
    3.7791   -0.8279    0.9500 N   0  0  0  0  0  0  0  0  0  0  0  0
    4.9709   -0.2117    0.4340 C   0  0  0  0  0  0  0  0  0  0  0  0
    4.8642    0.9834   -0.2976 C   0  0  0  0  0  0  0  0  0  0  0  0
    6.0073    1.6522   -0.7607 C   0  0  0  0  0  0  0  0  0  0  0  0
    7.2684    1.0892   -0.5209 C   0  0  0  0  0  0  0  0  0  0  0  0
    7.3896   -0.0976    0.2037 C   0  0  0  0  0  0  0  0  0  0  0  0
    6.2492   -0.7698    0.6825 C   0  0  0  0  0  0  0  0  0  0  0  0
    6.4031   -2.0614    1.4585 C   0  0  0  0  0  0  0  0  0  0  0  0
    5.5092   -3.0085    0.9868 F   0  0  0  0  0  0  0  0  0  0  0  0
    6.1524   -1.8246    2.7970 F   0  0  0  0  0  0  0  0  0  0  0  0
    7.6800   -2.5820    1.3363 F   0  0  0  0  0  0  0  0  0  0  0  0
    5.8754    2.9127   -1.5802 C   0  0  0  0  0  0  0  0  0  0  0  0
    4.7602    3.6357   -1.1921 F   0  0  0  0  0  0  0  0  0  0  0  0
    5.7511    2.5770   -2.9159 F   0  0  0  0  0  0  0  0  0  0  0  0
    6.9894    3.7186   -1.4205 F   0  0  0  0  0  0  0  0  0  0  0  0
    1.2191    1.0680   -0.9720 H   0  0  0  0  0  0  0  0  0  0  0  0
   -0.3954    1.6278   -0.5184 H   0  0  0  0  0  0  0  0  0  0  0  0
    0.8753    1.5045    0.7276 H   0  0  0  0  0  0  0  0  0  0  0  0
    0.2555   -1.0205   -2.0101 H   0  0  0  0  0  0  0  0  0  0  0  0
   -0.6113   -2.2328   -1.0220 H   0  0  0  0  0  0  0  0  0  0  0  0
   -1.6635    0.5040   -1.9747 H   0  0  0  0  0  0  0  0  0  0  0  0
   -2.1813   -1.1153   -2.4848 H   0  0  0  0  0  0  0  0  0  0  0  0
   -3.0848   -1.6318   -0.2624 H   0  0  0  0  0  0  0  0  0  0  0  0
   -2.1294    1.1618    0.7115 H   0  0  0  0  0  0  0  0  0  0  0  0
   -2.9600    0.4922    2.9011 H   0  0  0  0  0  0  0  0  0  0  0  0
   -3.4974   -1.1034    2.2737 H   0  0  0  0  0  0  0  0  0  0  0  0
   -4.5947    1.6851    1.4851 H   0  0  0  0  0  0  0  0  0  0  0  0
   -5.4125    0.4222    2.4646 H   0  0  0  0  0  0  0  0  0  0  0  0
   -5.3518   -1.1667    0.5877 H   0  0  0  0  0  0  0  0  0  0  0  0
   -7.1382    1.0003    0.6714 H   0  0  0  0  0  0  0  0  0  0  0  0
   -6.7052   -1.1634   -3.0823 H   0  0  0  0  0  0  0  0  0  0  0  0
   -4.3441   -1.2281   -2.7525 H   0  0  0  0  0  0  0  0  0  0  0  0
   -5.1529    2.0099   -1.4657 H   0  0  0  0  0  0  0  0  0  0  0  0
   -3.6152    2.1643   -0.5789 H   0  0  0  0  0  0  0  0  0  0  0  0
   -3.6205    1.6200   -2.2858 H   0  0  0  0  0  0  0  0  0  0  0  0
   -1.2685   -1.7247    1.2807 H   0  0  0  0  0  0  0  0  0  0  0  0
   -0.3186    0.7947    2.6820 H   0  0  0  0  0  0  0  0  0  0  0  0
   -0.7645   -0.8266    3.3584 H   0  0  0  0  0  0  0  0  0  0  0  0
    1.3864   -1.6404    2.9396 H   0  0  0  0  0  0  0  0  0  0  0  0
    1.8408    0.0524    2.4950 H   0  0  0  0  0  0  0  0  0  0  0  0
    1.0465   -2.3180    0.7398 H   0  0  0  0  0  0  0  0  0  0  0  0
    3.7982   -1.2368    1.9090 H   0  0  0  0  0  0  0  0  0  0  0  0
    3.8833    1.4029   -0.4853 H   0  0  0  0  0  0  0  0  0  0  0  0
    8.1648    1.5693   -0.8944 H   0  0  0  0  0  0  0  0  0  0  0  0
    8.3830   -0.4895    0.3815 H   0  0  0  0  0  0  0  0  0  0  0  0
  2  1  1  6
  2  3  1  0
  3  4  1  0
  5  4  1  0
  5  6  1  0
  6  7  1  0
  7  8  1  0
  9  8  1  0
  9 10  1  0
 10 11  1  0
 11 12  2  0
 11 13  1  0
 13 14  2  0
 14 15  1  0
 15  5  1  0
 15  9  1  0
 15 16  1  6
  6 17  1  0
 17  2  1  0
 17 18  1  0
 18 19  1  0
 19 20  1  0
 20  2  1  0
 20 21  1  0
 21 22  2  0
 21 23  1  0
 23 24  1  0
 24 25  2  0
 25 26  1  0
 26 27  2  0
 27 28  1  0
 28 29  2  0
 29 24  1  0
 29 30  1  0
 30 31  1  0
 30 32  1  0
 30 33  1  0
 26 34  1  0
 34 35  1  0
 34 36  1  0
 34 37  1  0
  1 38  1  0
  1 39  1  0
  1 40  1  0
  3 41  1  0
  3 42  1  0
  4 43  1  0
  4 44  1  0
  5 45  1  1
  6 46  1  6
  7 47  1  0
  7 48  1  0
  8 49  1  0
  8 50  1  0
  9 51  1  1
 10 52  1  0
 13 53  1  0
 14 54  1  0
 16 55  1  0
 16 56  1  0
 16 57  1  0
 17 58  1  1
 18 59  1  0
 18 60  1  0
 19 61  1  0
 19 62  1  0
 20 63  1  1
 23 64  1  0
 25 65  1  0
 27 66  1  0
 28 67  1  0
M  END
> <ID>
HT0733

> <Class>
1.0

> <Clusters>
90

> <Fold>
1

$$$$