
     RDKit          3D

 35 36  0  0  0  0  0  0  0  0999 V2000
   -4.0636    2.1545   -2.0938 N   0  0  0  0  0  0  0  0  0  0  0  0
   -4.1298    1.9026   -0.3832 S   0  0  0  0  0  0  0  0  0  0  0  0
   -5.4773    1.3384   -0.0288 O   0  0  0  0  0  0  0  0  0  0  0  0
   -3.9386    3.2224    0.3096 O   0  0  0  0  0  0  0  0  0  0  0  0
   -2.8650    0.7819    0.1371 C   0  0  0  0  0  0  0  0  0  0  0  0
   -1.9416    0.2931   -0.7989 C   0  0  0  0  0  0  0  0  0  0  0  0
   -0.9328   -0.5928   -0.4050 C   0  0  0  0  0  0  0  0  0  0  0  0
   -0.8244   -0.9943    0.9316 C   0  0  0  0  0  0  0  0  0  0  0  0
    0.2255   -1.8808    1.3592 N   0  0  0  0  0  0  0  0  0  0  0  0
    1.4222   -2.2130    0.5692 C   0  0  0  0  0  0  0  0  0  0  0  0
    2.5651   -1.1855    0.7400 C   0  0  0  0  0  0  0  0  0  0  0  0
    2.0136    0.5607    0.8297 S   0  0  0  0  0  0  0  0  0  0  0  0
    3.6859    1.3038    0.8054 C   0  0  0  0  0  0  0  0  0  0  0  0
    4.0609    1.7669   -0.6006 C   0  0  0  0  0  0  0  0  0  0  0  0
    5.3042    2.3712   -0.5678 F   0  0  0  0  0  0  0  0  0  0  0  0
    3.1309    2.6807   -1.0633 F   0  0  0  0  0  0  0  0  0  0  0  0
    4.1108    0.6896   -1.4660 F   0  0  0  0  0  0  0  0  0  0  0  0
    1.1153   -2.4939   -0.8439 N   0  0  0  0  0  0  0  0  0  0  0  0
    0.1859   -1.2308   -1.5849 S   0  0  0  0  0  0  0  0  0  0  0  0
   -0.5821   -1.8042   -2.7426 O   0  0  0  0  0  0  0  0  0  0  0  0
    1.1001   -0.1465   -2.0806 O   0  0  0  0  0  0  0  0  0  0  0  0
   -1.7495   -0.5128    1.8678 C   0  0  0  0  0  0  0  0  0  0  0  0
   -2.7633    0.3720    1.4822 C   0  0  0  0  0  0  0  0  0  0  0  0
   -3.8760    0.9505    2.7179 Cl  0  0  0  0  0  0  0  0  0  0  0  0
   -4.3674    1.2634   -2.5468 H   0  0  0  0  0  0  0  0  0  0  0  0
   -4.7887    2.8697   -2.3255 H   0  0  0  0  0  0  0  0  0  0  0  0
   -2.0014    0.5948   -1.8359 H   0  0  0  0  0  0  0  0  0  0  0  0
    0.1789   -2.2675    2.3295 H   0  0  0  0  0  0  0  0  0  0  0  0
    1.8295   -3.1617    0.9882 H   0  0  0  0  0  0  0  0  0  0  0  0
    3.0986   -1.4090    1.6892 H   0  0  0  0  0  0  0  0  0  0  0  0
    3.2935   -1.3120   -0.0883 H   0  0  0  0  0  0  0  0  0  0  0  0
    4.4506    0.5954    1.1895 H   0  0  0  0  0  0  0  0  0  0  0  0
    3.6772    2.1850    1.4811 H   0  0  0  0  0  0  0  0  0  0  0  0
    0.5263   -3.3581   -0.8758 H   0  0  0  0  0  0  0  0  0  0  0  0
   -1.6737   -0.8172    2.9044 H   0  0  0  0  0  0  0  0  0  0  0  0
  1  2  1  0
  2  3  2  0
  2  4  2  0
  2  5  1  0
  5  6  2  0
  6  7  1  0
  7  8  2  0
  8  9  1  0
  9 10  1  0
 10 11  1  0
 11 12  1  0
 12 13  1  0
 13 14  1  0
 14 15  1  0
 14 16  1  0
 14 17  1  0
 10 18  1  0
 18 19  1  0
 19  7  1  0
 19 20  2  0
 19 21  2  0
  8 22  1  0
 22 23  2  0
 23  5  1  0
 23 24  1  0
  1 25  1  0
  1 26  1  0
  6 27  1  0
  9 28  1  0
 10 29  1  0
 11 30  1  0
 11 31  1  0
 13 32  1  0
 13 33  1  0
 18 34  1  0
 22 35  1  0
M  END
> <ID>
HT0770

> <Class>
1.0

> <Clusters>
40

> <Fold>
1

$$$$