
     RDKit          3D

 57 59  0  0  0  0  0  0  0  0999 V2000
    6.0468    0.0540    0.7915 C   0  0  0  0  0  0  0  0  0  0  0  0
    6.3311   -0.0316   -0.6521 N   0  0  0  0  0  0  0  0  0  0  0  0
    7.7540    0.2657   -0.8857 C   0  0  0  0  0  0  0  0  0  0  0  0
    5.4877    0.9079   -1.4251 C   0  0  0  0  0  0  0  0  0  0  0  0
    4.0653    0.3688   -1.6081 C   0  0  0  0  0  0  0  0  0  0  0  0
    3.2768    0.6546   -0.4555 O   0  0  0  0  0  0  0  0  0  0  0  0
    1.9318    0.2890   -0.3029 C   0  0  0  0  0  0  0  0  0  0  0  0
    1.2160   -0.3944   -1.3044 C   0  0  0  0  0  0  0  0  0  0  0  0
   -0.1242   -0.7369   -1.1027 C   0  0  0  0  0  0  0  0  0  0  0  0
   -0.7709   -0.3948    0.0939 C   0  0  0  0  0  0  0  0  0  0  0  0
   -0.0522    0.2725    1.0975 C   0  0  0  0  0  0  0  0  0  0  0  0
    1.2868    0.6162    0.8951 C   0  0  0  0  0  0  0  0  0  0  0  0
   -2.1906   -0.7714    0.3029 C   0  0  0  0  0  0  0  0  0  0  0  0
   -3.1504    0.1708    0.5154 C   0  0  0  0  0  0  0  0  0  0  0  0
   -4.6035   -0.2133    0.7565 C   0  0  0  0  0  0  0  0  0  0  0  0
   -5.3533    0.7730    1.6559 C   0  0  0  0  0  0  0  0  0  0  0  0
   -7.0134    0.1945    1.9458 Cl  0  0  0  0  0  0  0  0  0  0  0  0
   -2.8296    1.6028    0.3006 C   0  0  0  0  0  0  0  0  0  0  0  0
   -2.7497    2.1126   -1.0044 C   0  0  0  0  0  0  0  0  0  0  0  0
   -2.4293    3.4572   -1.2146 C   0  0  0  0  0  0  0  0  0  0  0  0
   -2.1868    4.2981   -0.1246 C   0  0  0  0  0  0  0  0  0  0  0  0
   -2.2639    3.7956    1.1775 C   0  0  0  0  0  0  0  0  0  0  0  0
   -2.5839    2.4516    1.3918 C   0  0  0  0  0  0  0  0  0  0  0  0
   -2.5038   -2.2188    0.2433 C   0  0  0  0  0  0  0  0  0  0  0  0
   -3.3612   -2.7259   -0.7482 C   0  0  0  0  0  0  0  0  0  0  0  0
   -3.6268   -4.0969   -0.8142 C   0  0  0  0  0  0  0  0  0  0  0  0
   -3.0301   -4.9708    0.0988 C   0  0  0  0  0  0  0  0  0  0  0  0
   -2.1623   -4.4755    1.0761 C   0  0  0  0  0  0  0  0  0  0  0  0
   -1.8943   -3.1051    1.1458 C   0  0  0  0  0  0  0  0  0  0  0  0
    6.7385   -0.6032    1.3620 H   0  0  0  0  0  0  0  0  0  0  0  0
    6.1526    1.0963    1.1672 H   0  0  0  0  0  0  0  0  0  0  0  0
    5.0242   -0.3163    1.0070 H   0  0  0  0  0  0  0  0  0  0  0  0
    8.3962   -0.4365   -0.3109 H   0  0  0  0  0  0  0  0  0  0  0  0
    8.0039    0.1219   -1.9592 H   0  0  0  0  0  0  0  0  0  0  0  0
    8.0012    1.3101   -0.5896 H   0  0  0  0  0  0  0  0  0  0  0  0
    5.9089    1.0385   -2.4478 H   0  0  0  0  0  0  0  0  0  0  0  0
    5.4623    1.9176   -0.9553 H   0  0  0  0  0  0  0  0  0  0  0  0
    3.6046    0.8642   -2.4907 H   0  0  0  0  0  0  0  0  0  0  0  0
    4.0990   -0.7280   -1.7883 H   0  0  0  0  0  0  0  0  0  0  0  0
    1.6846   -0.6652   -2.2406 H   0  0  0  0  0  0  0  0  0  0  0  0
   -0.6618   -1.2604   -1.8839 H   0  0  0  0  0  0  0  0  0  0  0  0
   -0.5256    0.5172    2.0399 H   0  0  0  0  0  0  0  0  0  0  0  0
    1.8290    1.1345    1.6759 H   0  0  0  0  0  0  0  0  0  0  0  0
   -4.6649   -1.2084    1.2471 H   0  0  0  0  0  0  0  0  0  0  0  0
   -5.1219   -0.2751   -0.2243 H   0  0  0  0  0  0  0  0  0  0  0  0
   -4.8368    0.8661    2.6345 H   0  0  0  0  0  0  0  0  0  0  0  0
   -5.4161    1.7712    1.1734 H   0  0  0  0  0  0  0  0  0  0  0  0
   -2.9315    1.4675   -1.8553 H   0  0  0  0  0  0  0  0  0  0  0  0
   -2.3673    3.8467   -2.2223 H   0  0  0  0  0  0  0  0  0  0  0  0
   -1.9376    5.3384   -0.2889 H   0  0  0  0  0  0  0  0  0  0  0  0
   -2.0726    4.4467    2.0206 H   0  0  0  0  0  0  0  0  0  0  0  0
   -2.6309    2.0705    2.4041 H   0  0  0  0  0  0  0  0  0  0  0  0
   -3.8145   -2.0616   -1.4732 H   0  0  0  0  0  0  0  0  0  0  0  0
   -4.2906   -4.4827   -1.5770 H   0  0  0  0  0  0  0  0  0  0  0  0
   -3.2354   -6.0321    0.0454 H   0  0  0  0  0  0  0  0  0  0  0  0
   -1.6955   -5.1538    1.7784 H   0  0  0  0  0  0  0  0  0  0  0  0
   -1.2177   -2.7335    1.9056 H   0  0  0  0  0  0  0  0  0  0  0  0
  1  2  1  0
  2  3  1  0
  2  4  1  0
  4  5  1  0
  5  6  1  0
  6  7  1  0
  7  8  2  0
  8  9  1  0
  9 10  2  0
 10 11  1  0
 11 12  2  0
 12  7  1  0
 10 13  1  0
 13 14  2  0
 14 15  1  0
 15 16  1  0
 16 17  1  0
 14 18  1  0
 18 19  2  0
 19 20  1  0
 20 21  2  0
 21 22  1  0
 22 23  2  0
 23 18  1  0
 13 24  1  0
 24 25  2  0
 25 26  1  0
 26 27  2  0
 27 28  1  0
 28 29  2  0
 29 24  1  0
  1 30  1  0
  1 31  1  0
  1 32  1  0
  3 33  1  0
  3 34  1  0
  3 35  1  0
  4 36  1  0
  4 37  1  0
  5 38  1  0
  5 39  1  0
  8 40  1  0
  9 41  1  0
 11 42  1  0
 12 43  1  0
 15 44  1  0
 15 45  1  0
 16 46  1  0
 16 47  1  0
 19 48  1  0
 20 49  1  0
 21 50  1  0
 22 51  1  0
 23 52  1  0
 25 53  1  0
 26 54  1  0
 27 55  1  0
 28 56  1  0
 29 57  1  0
M  END
> <ID>
HT0848

> <Class>
1.0

> <Clusters>
222

> <Fold>
1

$$$$