
     RDKit          3D

 35 38  0  0  0  0  0  0  0  0999 V2000
   -3.6378    1.7868   -0.6035 C   0  0  0  0  0  0  0  0  0  0  0  0
   -2.9443    1.5161    0.6948 C   0  0  0  0  0  0  0  0  0  0  0  0
   -3.0524    2.3256    1.7679 N   0  0  0  0  0  0  0  0  0  0  0  0
   -2.2249    1.8609    2.6933 N   0  0  0  0  0  0  0  0  0  0  0  0
   -1.6302    0.7729    2.1691 C   0  0  0  0  0  0  0  0  0  0  0  0
   -0.5132    0.0272    2.8110 C   0  0  0  0  0  0  0  0  0  0  0  0
    0.6908    0.2212    2.0129 N   0  0  0  0  0  0  0  0  0  0  0  0
    0.8533   -0.1433    0.7694 C   0  0  0  0  0  0  0  0  0  0  0  0
    2.1506    0.1741    0.1169 C   0  0  0  0  0  0  0  0  0  0  0  0
    2.2113    0.4636   -1.2600 C   0  0  0  0  0  0  0  0  0  0  0  0
    3.4330    0.7724   -1.8656 C   0  0  0  0  0  0  0  0  0  0  0  0
    4.6041    0.8036   -1.1055 C   0  0  0  0  0  0  0  0  0  0  0  0
    4.5556    0.5299    0.2631 C   0  0  0  0  0  0  0  0  0  0  0  0
    3.3365    0.2206    0.8742 C   0  0  0  0  0  0  0  0  0  0  0  0
   -0.2066   -0.8844    0.0095 C   0  0  0  0  0  0  0  0  0  0  0  0
    0.1874   -1.9670   -0.8012 C   0  0  0  0  0  0  0  0  0  0  0  0
   -0.7484   -2.6757   -1.5566 C   0  0  0  0  0  0  0  0  0  0  0  0
   -0.2304   -4.0174   -2.5611 Cl  0  0  0  0  0  0  0  0  0  0  0  0
   -2.0960   -2.3259   -1.5021 C   0  0  0  0  0  0  0  0  0  0  0  0
   -2.5115   -1.2667   -0.6960 C   0  0  0  0  0  0  0  0  0  0  0  0
   -1.5822   -0.5243    0.0530 C   0  0  0  0  0  0  0  0  0  0  0  0
   -2.0486    0.5288    0.9174 N   0  0  0  0  0  0  0  0  0  0  0  0
   -4.4328    1.0354   -0.7786 H   0  0  0  0  0  0  0  0  0  0  0  0
   -4.1125    2.7901   -0.5775 H   0  0  0  0  0  0  0  0  0  0  0  0
   -2.9034    1.7622   -1.4355 H   0  0  0  0  0  0  0  0  0  0  0  0
   -0.3379    0.4131    3.8371 H   0  0  0  0  0  0  0  0  0  0  0  0
   -0.7604   -1.0543    2.8735 H   0  0  0  0  0  0  0  0  0  0  0  0
    1.3134    0.4638   -1.8651 H   0  0  0  0  0  0  0  0  0  0  0  0
    3.4706    0.9924   -2.9247 H   0  0  0  0  0  0  0  0  0  0  0  0
    5.5487    1.0435   -1.5763 H   0  0  0  0  0  0  0  0  0  0  0  0
    5.4636    0.5569    0.8516 H   0  0  0  0  0  0  0  0  0  0  0  0
    3.3225    0.0058    1.9356 H   0  0  0  0  0  0  0  0  0  0  0  0
    1.2276   -2.2669   -0.8431 H   0  0  0  0  0  0  0  0  0  0  0  0
   -2.8272   -2.8863   -2.0709 H   0  0  0  0  0  0  0  0  0  0  0  0
   -3.5681   -1.0547   -0.6271 H   0  0  0  0  0  0  0  0  0  0  0  0
  1  2  1  0
  2  3  2  0
  3  4  1  0
  4  5  2  0
  5  6  1  0
  6  7  1  0
  7  8  2  0
  8  9  1  0
  9 10  2  0
 10 11  1  0
 11 12  2  0
 12 13  1  0
 13 14  2  0
 14  9  1  0
  8 15  1  0
 15 16  2  0
 16 17  1  0
 17 18  1  0
 17 19  2  0
 19 20  1  0
 20 21  2  0
 21 15  1  0
 21 22  1  0
 22  2  1  0
 22  5  1  0
  1 23  1  0
  1 24  1  0
  1 25  1  0
  6 26  1  0
  6 27  1  0
 10 28  1  0
 11 29  1  0
 12 30  1  0
 13 31  1  0
 14 32  1  0
 16 33  1  0
 19 34  1  0
 20 35  1  0
M  END
> <ID>
HT0113

> <Class>
1.0

> <Clusters>
10

> <Fold>
1

$$$$