
     RDKit          3D

 63 66  0  0  0  0  0  0  0  0999 V2000
    5.3866    1.1246    1.2298 C   0  0  0  0  0  0  0  0  0  0  0  0
    5.6567    0.3456   -0.0725 C   0  0  0  0  0  0  0  0  0  0  0  0
    6.7700   -0.6880    0.1965 C   0  0  0  0  0  0  0  0  0  0  0  0
    6.1367    1.3040   -1.1800 C   0  0  0  0  0  0  0  0  0  0  0  0
    4.4357   -0.3640   -0.5022 N   0  0  0  0  0  0  0  0  0  0  0  0
    3.1555    0.2638   -0.7102 C   0  0  0  0  0  0  0  0  0  0  0  0
    3.0911    1.5050   -0.9167 O   0  0  0  0  0  0  0  0  0  0  0  0
    1.8920   -0.5700   -0.8196 C   0  0  1  0  0  0  0  0  0  0  0  0
    1.9452   -1.9060   -0.0342 C   0  0  0  0  0  0  0  0  0  0  0  0
    0.5079   -2.2070    0.4272 C   0  0  0  0  0  0  0  0  0  0  0  0
   -0.3317   -1.1315   -0.2491 C   0  0  1  0  0  0  0  0  0  0  0  0
   -1.7343   -0.8096    0.3086 C   0  0  2  0  0  0  0  0  0  0  0  0
   -2.5928   -2.0862    0.4224 C   0  0  0  0  0  0  0  0  0  0  0  0
   -4.0171   -1.7619    0.8854 C   0  0  0  0  0  0  0  0  0  0  0  0
   -4.6665   -0.7652   -0.0831 C   0  0  1  0  0  0  0  0  0  0  0  0
   -6.0659   -0.4998    0.2567 N   0  0  0  0  0  0  0  0  0  0  0  0
   -6.7424    0.5327   -0.4672 C   0  0  0  0  0  0  0  0  0  0  0  0
   -7.9923    0.6585   -0.3834 O   0  0  0  0  0  0  0  0  0  0  0  0
   -5.9509    1.4461   -1.3091 C   0  0  0  0  0  0  0  0  0  0  0  0
   -4.6100    1.4288   -1.2409 C   0  0  0  0  0  0  0  0  0  0  0  0
   -3.8766    0.5799   -0.1990 C   0  0  1  0  0  0  0  0  0  0  0  0
   -3.9047    1.3706    1.1389 C   0  0  0  0  0  0  0  0  0  0  0  0
   -2.4057    0.2428   -0.6461 C   0  0  1  0  0  0  0  0  0  0  0  0
   -1.4872    1.4905   -0.8488 C   0  0  0  0  0  0  0  0  0  0  0  0
   -0.0502    1.1147   -1.2863 C   0  0  0  0  0  0  0  0  0  0  0  0
    0.5883    0.0988   -0.3103 C   0  0  2  0  0  0  0  0  0  0  0  0
    0.8313    0.7670    1.0856 C   0  0  0  0  0  0  0  0  0  0  0  0
    4.6453    1.9345    1.0697 H   0  0  0  0  0  0  0  0  0  0  0  0
    6.3215    1.5917    1.6080 H   0  0  0  0  0  0  0  0  0  0  0  0
    4.9909    0.4409    2.0113 H   0  0  0  0  0  0  0  0  0  0  0  0
    6.4508   -1.4050    0.9836 H   0  0  0  0  0  0  0  0  0  0  0  0
    7.7036   -0.1891    0.5359 H   0  0  0  0  0  0  0  0  0  0  0  0
    6.9971   -1.2638   -0.7267 H   0  0  0  0  0  0  0  0  0  0  0  0
    6.2389    0.7583   -2.1425 H   0  0  0  0  0  0  0  0  0  0  0  0
    5.4316    2.1466   -1.3278 H   0  0  0  0  0  0  0  0  0  0  0  0
    7.1241    1.7415   -0.9167 H   0  0  0  0  0  0  0  0  0  0  0  0
    4.4881   -1.3994   -0.6361 H   0  0  0  0  0  0  0  0  0  0  0  0
    1.7710   -0.8179   -1.8991 H   0  0  0  0  0  0  0  0  0  0  0  0
    2.3246   -2.7222   -0.6870 H   0  0  0  0  0  0  0  0  0  0  0  0
    2.6030   -1.8265    0.8593 H   0  0  0  0  0  0  0  0  0  0  0  0
    0.4261   -2.1301    1.5334 H   0  0  0  0  0  0  0  0  0  0  0  0
    0.1902   -3.2233    0.1071 H   0  0  0  0  0  0  0  0  0  0  0  0
   -0.4937   -1.5013   -1.2927 H   0  0  0  0  0  0  0  0  0  0  0  0
   -1.6324   -0.4048    1.3327 H   0  0  0  0  0  0  0  0  0  0  0  0
   -2.1364   -2.7820    1.1591 H   0  0  0  0  0  0  0  0  0  0  0  0
   -2.6329   -2.6082   -0.5596 H   0  0  0  0  0  0  0  0  0  0  0  0
   -4.0048   -1.3597    1.9205 H   0  0  0  0  0  0  0  0  0  0  0  0
   -4.6098   -2.7024    0.8971 H   0  0  0  0  0  0  0  0  0  0  0  0
   -4.6669   -1.2489   -1.0883 H   0  0  0  0  0  0  0  0  0  0  0  0
   -6.5742   -1.0655    0.9736 H   0  0  0  0  0  0  0  0  0  0  0  0
   -6.4503    2.1133   -2.0004 H   0  0  0  0  0  0  0  0  0  0  0  0
   -4.0665    2.0848   -1.9040 H   0  0  0  0  0  0  0  0  0  0  0  0
   -3.3319    0.8705    1.9423 H   0  0  0  0  0  0  0  0  0  0  0  0
   -4.9438    1.4982    1.5078 H   0  0  0  0  0  0  0  0  0  0  0  0
   -3.4891    2.3908    1.0039 H   0  0  0  0  0  0  0  0  0  0  0  0
   -2.4879   -0.2346   -1.6505 H   0  0  0  0  0  0  0  0  0  0  0  0
   -1.8999    2.1500   -1.6371 H   0  0  0  0  0  0  0  0  0  0  0  0
   -1.4389    2.0963    0.0767 H   0  0  0  0  0  0  0  0  0  0  0  0
   -0.0895    0.6871   -2.3126 H   0  0  0  0  0  0  0  0  0  0  0  0
    0.5650    2.0381   -1.3392 H   0  0  0  0  0  0  0  0  0  0  0  0
    1.3461    0.0816    1.7894 H   0  0  0  0  0  0  0  0  0  0  0  0
    1.4624    1.6727    0.9822 H   0  0  0  0  0  0  0  0  0  0  0  0
   -0.0997    1.1035    1.5767 H   0  0  0  0  0  0  0  0  0  0  0  0
  1  2  1  0
  2  3  1  0
  2  4  1  0
  2  5  1  0
  5  6  1  0
  6  7  2  0
  8  6  1  0
  8  9  1  0
  9 10  1  0
 11 10  1  0
 11 12  1  0
 12 13  1  0
 13 14  1  0
 15 14  1  0
 15 16  1  0
 16 17  1  0
 17 18  2  0
 17 19  1  0
 19 20  2  0
 20 21  1  0
 21 15  1  0
 21 22  1  1
 21 23  1  0
 23 12  1  0
 23 24  1  0
 24 25  1  0
 25 26  1  0
 26  8  1  0
 26 11  1  0
 26 27  1  1
  1 28  1  0
  1 29  1  0
  1 30  1  0
  3 31  1  0
  3 32  1  0
  3 33  1  0
  4 34  1  0
  4 35  1  0
  4 36  1  0
  5 37  1  0
  8 38  1  6
  9 39  1  0
  9 40  1  0
 10 41  1  0
 10 42  1  0
 11 43  1  6
 12 44  1  1
 13 45  1  0
 13 46  1  0
 14 47  1  0
 14 48  1  0
 15 49  1  6
 16 50  1  0
 19 51  1  0
 20 52  1  0
 22 53  1  0
 22 54  1  0
 22 55  1  0
 23 56  1  6
 24 57  1  0
 24 58  1  0
 25 59  1  0
 25 60  1  0
 27 61  1  0
 27 62  1  0
 27 63  1  0
M  END
> <ID>
HT0876

> <Class>
1.0

> <Clusters>
90

> <Fold>
1

$$$$