
     RDKit          3D

 60 65  0  0  0  0  0  0  0  0999 V2000
   -0.5028    5.0335   -1.2688 C   0  0  0  0  0  0  0  0  0  0  0  0
   -0.9277    3.6852   -1.4262 O   0  0  0  0  0  0  0  0  0  0  0  0
   -1.0555    2.8041   -0.3476 C   0  0  0  0  0  0  0  0  0  0  0  0
   -0.7650    3.1793    0.8225 O   0  0  0  0  0  0  0  0  0  0  0  0
   -1.5427    1.4007   -0.5960 C   0  0  2  0  0  0  0  0  0  0  0  0
   -2.7392    1.1055    0.3381 C   0  0  0  0  0  0  0  0  0  0  0  0
   -3.3037   -0.2881    0.1444 C   0  0  0  0  0  0  0  0  0  0  0  0
   -4.6131   -0.4935    0.3687 C   0  0  0  0  0  0  0  0  0  0  0  0
   -5.1757   -1.8491    0.4838 C   0  0  0  0  0  0  0  0  0  0  0  0
   -6.4237   -1.9945    0.5676 O   0  0  0  0  0  0  0  0  0  0  0  0
   -4.2894   -3.0612    0.5121 C   0  0  0  0  0  0  0  0  0  0  0  0
   -2.8113   -2.6876    0.7218 C   0  0  0  0  0  0  0  0  0  0  0  0
   -2.3665   -1.4612   -0.1354 C   0  0  1  0  0  0  0  0  0  0  0  0
   -2.4504   -1.8350   -1.6355 C   0  0  0  0  0  0  0  0  0  0  0  0
   -0.9086   -0.9868    0.1781 C   0  0  1  0  0  0  0  0  0  0  0  0
   -0.7261   -0.8476    1.5713 O   0  0  0  0  0  0  0  0  0  0  0  0
    0.0641   -1.8437    0.9579 C   0  0  2  0  0  0  0  0  0  0  0  0
    1.5494   -1.4481    1.0695 C   0  0  0  0  0  0  0  0  0  0  0  0
    1.9767   -0.4887   -0.0660 C   0  0  1  0  0  0  0  0  0  0  0  0
    1.9921   -1.3139   -1.3999 C   0  0  0  0  0  0  0  0  0  0  0  0
    1.0063    0.7100   -0.1213 C   0  0  1  0  0  0  0  0  0  0  0  0
    1.7485    1.7531   -0.9783 C   0  0  0  0  0  0  0  0  0  0  0  0
    3.2459    1.4205   -0.8682 C   0  0  0  0  0  0  0  0  0  0  0  0
    3.3507    0.2302    0.1071 C   0  0  1  0  0  0  0  0  0  0  0  0
    3.6852    0.7149    1.5596 C   0  0  0  0  0  0  0  0  0  0  0  0
    4.7417   -0.2560    2.0957 C   0  0  0  0  0  0  0  0  0  0  0  0
    5.1981   -0.9327    0.8658 C   0  0  0  0  0  0  0  0  0  0  0  0
    6.1691   -1.7317    0.8202 O   0  0  0  0  0  0  0  0  0  0  0  0
    4.4288   -0.6294   -0.2356 O   0  0  0  0  0  0  0  0  0  0  0  0
   -0.4201    0.2900   -0.5856 C   0  0  2  0  0  0  0  0  0  0  0  0
   -0.4800    5.5266   -2.2621 H   0  0  0  0  0  0  0  0  0  0  0  0
    0.5162    5.0642   -0.8287 H   0  0  0  0  0  0  0  0  0  0  0  0
   -1.2113    5.5803   -0.6112 H   0  0  0  0  0  0  0  0  0  0  0  0
   -1.9731    1.4081   -1.6235 H   0  0  0  0  0  0  0  0  0  0  0  0
   -3.5290    1.8696    0.1576 H   0  0  0  0  0  0  0  0  0  0  0  0
   -2.4214    1.2030    1.3989 H   0  0  0  0  0  0  0  0  0  0  0  0
   -5.2709    0.3468    0.5583 H   0  0  0  0  0  0  0  0  0  0  0  0
   -4.6118   -3.7303    1.3389 H   0  0  0  0  0  0  0  0  0  0  0  0
   -4.4134   -3.6268   -0.4352 H   0  0  0  0  0  0  0  0  0  0  0  0
   -2.1937   -3.5779    0.4737 H   0  0  0  0  0  0  0  0  0  0  0  0
   -2.6699   -2.4615    1.8018 H   0  0  0  0  0  0  0  0  0  0  0  0
   -3.4668   -2.1736   -1.9204 H   0  0  0  0  0  0  0  0  0  0  0  0
   -2.2298   -0.9670   -2.2884 H   0  0  0  0  0  0  0  0  0  0  0  0
   -1.7285   -2.6463   -1.8709 H   0  0  0  0  0  0  0  0  0  0  0  0
   -0.2257   -2.8387    1.3482 H   0  0  0  0  0  0  0  0  0  0  0  0
    1.7042   -1.0208    2.0776 H   0  0  0  0  0  0  0  0  0  0  0  0
    2.1694   -2.3697    1.0289 H   0  0  0  0  0  0  0  0  0  0  0  0
    1.0445   -1.8659   -1.5657 H   0  0  0  0  0  0  0  0  0  0  0  0
    2.7909   -2.0847   -1.3754 H   0  0  0  0  0  0  0  0  0  0  0  0
    2.1614   -0.6732   -2.2890 H   0  0  0  0  0  0  0  0  0  0  0  0
    0.9075    1.1340    0.9037 H   0  0  0  0  0  0  0  0  0  0  0  0
    1.5784    2.7783   -0.5907 H   0  0  0  0  0  0  0  0  0  0  0  0
    1.4202    1.7071   -2.0397 H   0  0  0  0  0  0  0  0  0  0  0  0
    3.8313    2.3091   -0.5486 H   0  0  0  0  0  0  0  0  0  0  0  0
    3.6325    1.1257   -1.8685 H   0  0  0  0  0  0  0  0  0  0  0  0
    2.8137    0.7987    2.2368 H   0  0  0  0  0  0  0  0  0  0  0  0
    4.1481    1.7253    1.5453 H   0  0  0  0  0  0  0  0  0  0  0  0
    5.5795    0.2853    2.5858 H   0  0  0  0  0  0  0  0  0  0  0  0
    4.2911   -0.9964    2.7904 H   0  0  0  0  0  0  0  0  0  0  0  0
   -0.2986   -0.0075   -1.6477 H   0  0  0  0  0  0  0  0  0  0  0  0
  1  2  1  0
  2  3  1  0
  3  4  2  0
  5  3  1  0
  5  6  1  0
  6  7  1  0
  7  8  2  0
  8  9  1  0
  9 10  2  0
  9 11  1  0
 11 12  1  0
 12 13  1  0
 13  7  1  0
 13 14  1  6
 13 15  1  0
 15 16  1  1
 16 17  1  0
 17 15  1  0
 17 18  1  0
 18 19  1  0
 19 20  1  6
 19 21  1  0
 21 22  1  0
 22 23  1  0
 23 24  1  0
 24 19  1  0
 24 25  1  0
 25 26  1  0
 26 27  1  0
 27 28  2  0
 27 29  1  0
 24 29  1  6
 30 21  1  0
 30  5  1  0
 30 15  1  0
  1 31  1  0
  1 32  1  0
  1 33  1  0
  5 34  1  6
  6 35  1  0
  6 36  1  0
  8 37  1  0
 11 38  1  0
 11 39  1  0
 12 40  1  0
 12 41  1  0
 14 42  1  0
 14 43  1  0
 14 44  1  0
 17 45  1  1
 18 46  1  0
 18 47  1  0
 20 48  1  0
 20 49  1  0
 20 50  1  0
 21 51  1  1
 22 52  1  0
 22 53  1  0
 23 54  1  0
 23 55  1  0
 25 56  1  0
 25 57  1  0
 26 58  1  0
 26 59  1  0
 30 60  1  6
M  END
> <ID>
HT0771

> <Class>
1.0

> <Clusters>
129

> <Fold>
1

$$$$