
     RDKit          3D

 48 49  0  0  0  0  0  0  0  0999 V2000
   -7.2637    3.9782    0.9980 F   0  0  0  0  0  0  0  0  0  0  0  0
   -5.9104    3.7864    0.7886 C   0  0  0  0  0  0  0  0  0  0  0  0
   -5.2655    5.0073    0.8690 F   0  0  0  0  0  0  0  0  0  0  0  0
   -5.4203    2.9503    1.7738 F   0  0  0  0  0  0  0  0  0  0  0  0
   -5.6922    3.1773   -0.5965 C   0  0  0  0  0  0  0  0  0  0  0  0
   -4.2997    3.0567   -0.8935 O   0  0  0  0  0  0  0  0  0  0  0  0
   -3.4414    2.0433   -0.4345 C   0  0  0  0  0  0  0  0  0  0  0  0
   -3.9007    0.9016    0.2434 C   0  0  0  0  0  0  0  0  0  0  0  0
   -2.9994   -0.0707    0.6805 C   0  0  0  0  0  0  0  0  0  0  0  0
   -1.6188    0.0684    0.4395 C   0  0  0  0  0  0  0  0  0  0  0  0
   -0.6804   -0.8659    0.9160 O   0  0  0  0  0  0  0  0  0  0  0  0
   -0.9693   -2.1430    1.4871 C   0  0  0  0  0  0  0  0  0  0  0  0
   -1.2806   -3.1741    0.4025 C   0  0  0  0  0  0  0  0  0  0  0  0
   -2.4338   -2.8339   -0.2790 F   0  0  0  0  0  0  0  0  0  0  0  0
   -0.2297   -3.2434   -0.4937 F   0  0  0  0  0  0  0  0  0  0  0  0
   -1.4560   -4.4154    0.9858 F   0  0  0  0  0  0  0  0  0  0  0  0
   -1.1568    1.2000   -0.2673 C   0  0  0  0  0  0  0  0  0  0  0  0
   -2.0728    2.1808   -0.6832 C   0  0  0  0  0  0  0  0  0  0  0  0
    0.2818    1.3873   -0.5640 C   0  0  0  0  0  0  0  0  0  0  0  0
    0.7804    2.5448   -0.5097 O   0  0  0  0  0  0  0  0  0  0  0  0
    1.1052    0.2744   -0.9392 N   0  0  0  0  0  0  0  0  0  0  0  0
    2.5648    0.3782   -0.9549 C   0  0  0  0  0  0  0  0  0  0  0  0
    3.2222   -0.9872   -1.2717 C   0  0  0  0  0  0  0  0  0  0  0  0
    2.9772   -2.0355   -0.1501 C   0  0  0  0  0  0  0  0  0  0  0  0
    4.2588   -2.4048    0.6074 C   0  0  0  0  0  0  0  0  0  0  0  0
    5.0879   -1.1547    0.8974 C   0  0  0  0  0  0  0  0  0  0  0  0
    5.4525   -0.4004   -0.3979 C   0  0  0  0  0  0  0  0  0  0  0  0
    4.6629   -0.8448   -1.5607 N   0  0  0  0  0  0  0  0  0  0  0  0
   -6.1425    3.8609   -1.3470 H   0  0  0  0  0  0  0  0  0  0  0  0
   -6.2134    2.2027   -0.6984 H   0  0  0  0  0  0  0  0  0  0  0  0
   -4.9509    0.7517    0.4462 H   0  0  0  0  0  0  0  0  0  0  0  0
   -3.3942   -0.9207    1.2169 H   0  0  0  0  0  0  0  0  0  0  0  0
   -1.7890   -2.0780    2.2322 H   0  0  0  0  0  0  0  0  0  0  0  0
   -0.0648   -2.4826    2.0349 H   0  0  0  0  0  0  0  0  0  0  0  0
   -1.7244    3.0560   -1.2189 H   0  0  0  0  0  0  0  0  0  0  0  0
    0.6455   -0.6237   -1.2122 H   0  0  0  0  0  0  0  0  0  0  0  0
    2.9115    0.7463    0.0343 H   0  0  0  0  0  0  0  0  0  0  0  0
    2.8606    1.1214   -1.7265 H   0  0  0  0  0  0  0  0  0  0  0  0
    2.7413   -1.3715   -2.1994 H   0  0  0  0  0  0  0  0  0  0  0  0
    2.2257   -1.6659    0.5819 H   0  0  0  0  0  0  0  0  0  0  0  0
    2.5577   -2.9636   -0.5956 H   0  0  0  0  0  0  0  0  0  0  0  0
    4.8624   -3.1137   -0.0017 H   0  0  0  0  0  0  0  0  0  0  0  0
    3.9963   -2.9112    1.5614 H   0  0  0  0  0  0  0  0  0  0  0  0
    6.0148   -1.4440    1.4386 H   0  0  0  0  0  0  0  0  0  0  0  0
    4.5069   -0.4838    1.5678 H   0  0  0  0  0  0  0  0  0  0  0  0
    6.5262   -0.5774   -0.6236 H   0  0  0  0  0  0  0  0  0  0  0  0
    5.3308    0.6947   -0.2436 H   0  0  0  0  0  0  0  0  0  0  0  0
    4.7972   -0.1589   -2.3404 H   0  0  0  0  0  0  0  0  0  0  0  0
  1  2  1  0
  2  3  1  0
  2  4  1  0
  2  5  1  0
  5  6  1  0
  6  7  1  0
  7  8  2  0
  8  9  1  0
  9 10  2  0
 10 11  1  0
 11 12  1  0
 12 13  1  0
 13 14  1  0
 13 15  1  0
 13 16  1  0
 10 17  1  0
 17 18  2  0
 18  7  1  0
 17 19  1  0
 19 20  2  0
 19 21  1  0
 21 22  1  0
 22 23  1  0
 23 24  1  0
 24 25  1  0
 25 26  1  0
 26 27  1  0
 27 28  1  0
 28 23  1  0
  5 29  1  0
  5 30  1  0
  8 31  1  0
  9 32  1  0
 12 33  1  0
 12 34  1  0
 18 35  1  0
 21 36  1  0
 22 37  1  0
 22 38  1  0
 23 39  1  0
 24 40  1  0
 24 41  1  0
 25 42  1  0
 25 43  1  0
 26 44  1  0
 26 45  1  0
 27 46  1  0
 27 47  1  0
 28 48  1  0
M  END
> <ID>
HT0880

> <Class>
1.0

> <Clusters>
90

> <Fold>
1

$$$$