
     RDKit          3D

 38 39  0  0  0  0  0  0  0  0999 V2000
   -6.1568   -1.0220   -0.3047 C   0  0  0  0  0  0  0  0  0  0  0  0
   -5.1125    0.0922   -0.4396 C   0  0  0  0  0  0  0  0  0  0  0  0
   -5.4389    1.2468    0.5169 C   0  0  0  0  0  0  0  0  0  0  0  0
   -3.7030   -0.4593   -0.1785 C   0  0  0  0  0  0  0  0  0  0  0  0
   -2.7315    0.5553   -0.4250 O   0  0  0  0  0  0  0  0  0  0  0  0
   -1.3447    0.3859   -0.2794 C   0  0  0  0  0  0  0  0  0  0  0  0
   -0.7810   -0.8396    0.1207 C   0  0  0  0  0  0  0  0  0  0  0  0
    0.6031   -0.9723    0.2553 C   0  0  0  0  0  0  0  0  0  0  0  0
    1.4547    0.1136   -0.0058 C   0  0  0  0  0  0  0  0  0  0  0  0
    0.8916    1.3382   -0.4053 C   0  0  0  0  0  0  0  0  0  0  0  0
   -0.4964    1.4745   -0.5413 C   0  0  0  0  0  0  0  0  0  0  0  0
   -1.0455    2.7431   -0.9510 C   0  0  0  0  0  0  0  0  0  0  0  0
   -1.4868    3.7612   -1.2796 N   0  0  0  0  0  0  0  0  0  0  0  0
    2.9207   -0.0403    0.1409 C   0  0  0  0  0  0  0  0  0  0  0  0
    3.5157   -1.1935    0.5217 N   0  0  0  0  0  0  0  0  0  0  0  0
    4.8721   -1.0906    0.5851 C   0  0  0  0  0  0  0  0  0  0  0  0
    5.7103   -2.2631    0.9885 C   0  0  0  0  0  0  0  0  0  0  0  0
    5.3821    0.1718    0.2485 C   0  0  0  0  0  0  0  0  0  0  0  0
    4.0718    1.1583   -0.1327 S   0  0  0  0  0  0  0  0  0  0  0  0
    6.7974    0.6016    0.2197 C   0  0  0  0  0  0  0  0  0  0  0  0
    7.7143   -0.2062    0.5210 O   0  0  0  0  0  0  0  0  0  0  0  0
    7.1446    1.9023   -0.1396 O   0  0  0  0  0  0  0  0  0  0  0  0
   -5.9422   -1.8382   -1.0272 H   0  0  0  0  0  0  0  0  0  0  0  0
   -6.1513   -1.4426    0.7240 H   0  0  0  0  0  0  0  0  0  0  0  0
   -7.1710   -0.6257   -0.5251 H   0  0  0  0  0  0  0  0  0  0  0  0
   -5.1523    0.4788   -1.4821 H   0  0  0  0  0  0  0  0  0  0  0  0
   -4.7157    2.0787    0.3802 H   0  0  0  0  0  0  0  0  0  0  0  0
   -5.3976    0.9049    1.5735 H   0  0  0  0  0  0  0  0  0  0  0  0
   -6.4562    1.6412    0.3076 H   0  0  0  0  0  0  0  0  0  0  0  0
   -3.6228   -0.8075    0.8751 H   0  0  0  0  0  0  0  0  0  0  0  0
   -3.5115   -1.3174   -0.8597 H   0  0  0  0  0  0  0  0  0  0  0  0
   -1.4037   -1.6984    0.3303 H   0  0  0  0  0  0  0  0  0  0  0  0
    1.0063   -1.9285    0.5648 H   0  0  0  0  0  0  0  0  0  0  0  0
    1.5267    2.1910   -0.6122 H   0  0  0  0  0  0  0  0  0  0  0  0
    6.4066   -2.5299    0.1662 H   0  0  0  0  0  0  0  0  0  0  0  0
    6.2865   -2.0177    1.9050 H   0  0  0  0  0  0  0  0  0  0  0  0
    5.0658   -3.1417    1.2028 H   0  0  0  0  0  0  0  0  0  0  0  0
    6.4511    2.5952   -0.3916 H   0  0  0  0  0  0  0  0  0  0  0  0
  1  2  1  0
  2  3  1  0
  2  4  1  0
  4  5  1  0
  5  6  1  0
  6  7  2  0
  7  8  1  0
  8  9  2  0
  9 10  1  0
 10 11  2  0
 11  6  1  0
 11 12  1  0
 12 13  3  0
  9 14  1  0
 14 15  2  0
 15 16  1  0
 16 17  1  0
 16 18  2  0
 18 19  1  0
 19 14  1  0
 18 20  1  0
 20 21  2  0
 20 22  1  0
  1 23  1  0
  1 24  1  0
  1 25  1  0
  2 26  1  0
  3 27  1  0
  3 28  1  0
  3 29  1  0
  4 30  1  0
  4 31  1  0
  7 32  1  0
  8 33  1  0
 10 34  1  0
 17 35  1  0
 17 36  1  0
 17 37  1  0
 22 38  1  0
M  END
> <ID>
HT0850

> <Class>
1.0

> <Clusters>
172

> <Fold>
1

$$$$