
     RDKit          3D

 38 37  0  0  0  0  0  0  0  0999 V2000
   -4.8567   -0.7194   -1.3705 C   0  0  0  0  0  0  0  0  0  0  0  0
   -3.5132   -0.9886   -0.6922 C   0  0  0  0  0  0  0  0  0  0  0  0
   -2.9989    0.2086    0.1529 C   0  0  1  0  0  0  0  0  0  0  0  0
   -3.8744    0.4556    1.3945 C   0  0  0  0  0  0  0  0  0  0  0  0
   -5.0714    1.0884    1.0346 O   0  0  0  0  0  0  0  0  0  0  0  0
   -1.6142   -0.0252    0.6098 N   0  0  0  0  0  0  0  0  0  0  0  0
   -0.6154    0.3316   -0.4076 C   0  0  0  0  0  0  0  0  0  0  0  0
    0.7891    0.2475    0.1897 C   0  0  0  0  0  0  0  0  0  0  0  0
    1.7840    0.6213   -0.8284 N   0  0  0  0  0  0  0  0  0  0  0  0
    3.1783    0.2832   -0.4702 C   0  0  1  0  0  0  0  0  0  0  0  0
    3.5989    0.9045    0.8878 C   0  0  0  0  0  0  0  0  0  0  0  0
    5.1121    0.8976    1.1046 C   0  0  0  0  0  0  0  0  0  0  0  0
    3.4002   -1.2427   -0.5296 C   0  0  0  0  0  0  0  0  0  0  0  0
    4.7491   -1.5276   -0.7800 O   0  0  0  0  0  0  0  0  0  0  0  0
   -4.8331    0.2476   -1.9163 H   0  0  0  0  0  0  0  0  0  0  0  0
   -5.0705   -1.5296   -2.0993 H   0  0  0  0  0  0  0  0  0  0  0  0
   -5.6780   -0.7101   -0.6251 H   0  0  0  0  0  0  0  0  0  0  0  0
   -2.7803   -1.2160   -1.4936 H   0  0  0  0  0  0  0  0  0  0  0  0
   -3.6010   -1.8977   -0.0580 H   0  0  0  0  0  0  0  0  0  0  0  0
   -3.0383    1.1335   -0.4679 H   0  0  0  0  0  0  0  0  0  0  0  0
   -3.3242    1.1151    2.1034 H   0  0  0  0  0  0  0  0  0  0  0  0
   -4.0880   -0.5067    1.9125 H   0  0  0  0  0  0  0  0  0  0  0  0
   -5.5935    1.1888    1.8726 H   0  0  0  0  0  0  0  0  0  0  0  0
   -1.4917   -1.0310    0.8772 H   0  0  0  0  0  0  0  0  0  0  0  0
   -0.7838    1.3733   -0.7605 H   0  0  0  0  0  0  0  0  0  0  0  0
   -0.6787   -0.3578   -1.2771 H   0  0  0  0  0  0  0  0  0  0  0  0
    0.8498    0.9367    1.0612 H   0  0  0  0  0  0  0  0  0  0  0  0
    0.9563   -0.7922    0.5423 H   0  0  0  0  0  0  0  0  0  0  0  0
    1.7233    1.6558   -0.9829 H   0  0  0  0  0  0  0  0  0  0  0  0
    3.8216    0.7348   -1.2598 H   0  0  0  0  0  0  0  0  0  0  0  0
    3.2565    1.9617    0.9227 H   0  0  0  0  0  0  0  0  0  0  0  0
    3.1164    0.3633    1.7303 H   0  0  0  0  0  0  0  0  0  0  0  0
    5.3553    1.4726    2.0230 H   0  0  0  0  0  0  0  0  0  0  0  0
    5.6329    1.3706    0.2452 H   0  0  0  0  0  0  0  0  0  0  0  0
    5.4833   -0.1388    1.2416 H   0  0  0  0  0  0  0  0  0  0  0  0
    3.0881   -1.7203    0.4259 H   0  0  0  0  0  0  0  0  0  0  0  0
    2.7853   -1.6714   -1.3530 H   0  0  0  0  0  0  0  0  0  0  0  0
    4.8250   -2.5171   -0.7922 H   0  0  0  0  0  0  0  0  0  0  0  0
  1  2  1  0
  2  3  1  0
  3  4  1  0
  4  5  1  0
  3  6  1  0
  6  7  1  0
  7  8  1  0
  8  9  1  0
  9 10  1  0
 10 11  1  0
 11 12  1  0
 10 13  1  0
 13 14  1  0
  1 15  1  0
  1 16  1  0
  1 17  1  0
  2 18  1  0
  2 19  1  0
  3 20  1  6
  4 21  1  0
  4 22  1  0
  5 23  1  0
  6 24  1  0
  7 25  1  0
  7 26  1  0
  8 27  1  0
  8 28  1  0
  9 29  1  0
 10 30  1  6
 11 31  1  0
 11 32  1  0
 12 33  1  0
 12 34  1  0
 12 35  1  0
 13 36  1  0
 13 37  1  0
 14 38  1  0
M  END
> <ID>
HT0803

> <Class>
1.0

> <Clusters>
82

> <Fold>
1

$$$$