
     RDKit          3D

 52 55  0  0  0  0  0  0  0  0999 V2000
   -2.7616   -2.0146   -1.3995 C   0  0  0  0  0  0  0  0  0  0  0  0
   -2.1508   -0.6102   -1.2525 C   0  0  0  0  0  0  0  0  0  0  0  0
   -2.0483   -0.0573    0.2203 C   0  0  0  0  0  0  0  0  0  0  0  0
   -1.3904   -1.1109    1.1483 C   0  0  0  0  0  0  0  0  0  0  0  0
    0.0330   -1.3813    0.6833 C   0  0  0  0  0  0  0  0  0  0  0  0
    0.3971   -2.6644    0.4813 C   0  0  0  0  0  0  0  0  0  0  0  0
    1.0075   -0.1797    0.5973 C   0  0  0  0  0  0  0  0  0  0  0  0
    0.3425    1.0876   -0.0458 C   0  0  0  0  0  0  0  0  0  0  0  0
    0.7447    1.2688   -1.5238 C   0  0  0  0  0  0  0  0  0  0  0  0
    2.2333    1.6064   -1.6000 C   0  0  0  0  0  0  0  0  0  0  0  0
    3.0691    0.6652   -0.7660 C   0  0  0  0  0  0  0  0  0  0  0  0
    4.4069    0.7836   -0.8416 C   0  0  0  0  0  0  0  0  0  0  0  0
    5.3073   -0.1832   -0.1943 C   0  0  0  0  0  0  0  0  0  0  0  0
    6.5545   -0.0306   -0.2794 O   0  0  0  0  0  0  0  0  0  0  0  0
    4.7478   -1.3816    0.5072 C   0  0  0  0  0  0  0  0  0  0  0  0
    3.3681   -1.0529    1.0755 C   0  0  0  0  0  0  0  0  0  0  0  0
    2.4193   -0.5097   -0.0257 C   0  0  0  0  0  0  0  0  0  0  0  0
   -1.1693    1.2099    0.3133 C   0  0  0  0  0  0  0  0  0  0  0  0
   -2.0010    2.3329   -0.2895 C   0  0  0  0  0  0  0  0  0  0  0  0
   -3.4435    1.9962    0.1208 C   0  0  0  0  0  0  0  0  0  0  0  0
   -3.4321    0.5395    0.6902 C   0  0  0  0  0  0  0  0  0  0  0  0
   -4.5439   -0.2078    0.2535 O   0  0  0  0  0  0  0  0  0  0  0  0
   -3.5319    0.6117    2.1657 C   0  0  0  0  0  0  0  0  0  0  0  0
   -3.6168    0.6732    3.3672 C   0  0  0  0  0  0  0  0  0  0  0  0
   -3.0365   -2.1854   -2.4618 H   0  0  0  0  0  0  0  0  0  0  0  0
   -2.0194   -2.7900   -1.1200 H   0  0  0  0  0  0  0  0  0  0  0  0
   -3.6644   -2.1653   -0.7801 H   0  0  0  0  0  0  0  0  0  0  0  0
   -2.7176    0.0958   -1.8957 H   0  0  0  0  0  0  0  0  0  0  0  0
   -1.1539   -0.6967   -1.7000 H   0  0  0  0  0  0  0  0  0  0  0  0
   -1.3213   -0.7404    2.1930 H   0  0  0  0  0  0  0  0  0  0  0  0
   -2.0137   -2.0299    1.1910 H   0  0  0  0  0  0  0  0  0  0  0  0
    1.3952   -2.9678    0.2018 H   0  0  0  0  0  0  0  0  0  0  0  0
   -0.3189   -3.4708    0.6056 H   0  0  0  0  0  0  0  0  0  0  0  0
    1.1759    0.1064    1.6604 H   0  0  0  0  0  0  0  0  0  0  0  0
    0.8015    1.9653    0.4713 H   0  0  0  0  0  0  0  0  0  0  0  0
    0.1850    2.0979   -1.9999 H   0  0  0  0  0  0  0  0  0  0  0  0
    0.5897    0.3500   -2.1175 H   0  0  0  0  0  0  0  0  0  0  0  0
    2.5581    1.5547   -2.6627 H   0  0  0  0  0  0  0  0  0  0  0  0
    2.3942    2.6476   -1.2429 H   0  0  0  0  0  0  0  0  0  0  0  0
    4.8476    1.5958   -1.4088 H   0  0  0  0  0  0  0  0  0  0  0  0
    5.4241   -1.6867    1.3349 H   0  0  0  0  0  0  0  0  0  0  0  0
    4.6681   -2.2232   -0.2141 H   0  0  0  0  0  0  0  0  0  0  0  0
    2.9480   -1.9641    1.5490 H   0  0  0  0  0  0  0  0  0  0  0  0
    3.4874   -0.2889    1.8763 H   0  0  0  0  0  0  0  0  0  0  0  0
    2.2983   -1.2827   -0.8130 H   0  0  0  0  0  0  0  0  0  0  0  0
   -1.1269    1.4751    1.4002 H   0  0  0  0  0  0  0  0  0  0  0  0
   -1.9298    2.3385   -1.3966 H   0  0  0  0  0  0  0  0  0  0  0  0
   -1.6863    3.3240    0.1044 H   0  0  0  0  0  0  0  0  0  0  0  0
   -4.1017    2.0923   -0.7699 H   0  0  0  0  0  0  0  0  0  0  0  0
   -3.8080    2.7370    0.8681 H   0  0  0  0  0  0  0  0  0  0  0  0
   -4.7256   -0.0060   -0.7000 H   0  0  0  0  0  0  0  0  0  0  0  0
   -3.6903    0.7270    4.4214 H   0  0  0  0  0  0  0  0  0  0  0  0
  1  2  1  0
  2  3  1  0
  3  4  1  0
  4  5  1  0
  5  6  2  3
  5  7  1  0
  7  8  1  0
  8  9  1  0
  9 10  1  0
 10 11  1  0
 11 12  2  0
 12 13  1  0
 13 14  2  0
 13 15  1  0
 15 16  1  0
 16 17  1  0
 17  7  1  0
 17 11  1  0
  8 18  1  0
 18  3  1  0
 18 19  1  0
 19 20  1  0
 20 21  1  0
 21  3  1  0
 21 22  1  0
 21 23  1  0
 23 24  3  0
  1 25  1  0
  1 26  1  0
  1 27  1  0
  2 28  1  0
  2 29  1  0
  4 30  1  0
  4 31  1  0
  6 32  1  0
  6 33  1  0
  7 34  1  0
  8 35  1  0
  9 36  1  0
  9 37  1  0
 10 38  1  0
 10 39  1  0
 12 40  1  0
 15 41  1  0
 15 42  1  0
 16 43  1  0
 16 44  1  0
 17 45  1  0
 18 46  1  0
 19 47  1  0
 19 48  1  0
 20 49  1  0
 20 50  1  0
 22 51  1  0
 24 52  1  0
M  END
> <ID>
HT0830

> <Class>
1.0

> <Clusters>
183

> <Fold>
1

$$$$