
     RDKit          3D

 34 36  0  0  0  0  0  0  0  0999 V2000
    0.7842   -1.3416   -1.7016 O   0  0  0  0  0  0  0  0  0  0  0  0
    0.2970   -0.5459   -0.6395 C   0  0  0  0  0  0  0  0  0  0  0  0
    1.5344   -0.1699    0.2283 C   0  0  0  0  0  0  0  0  0  0  0  0
    2.5547    0.5387   -0.5476 N   0  0  0  0  0  0  0  0  0  0  0  0
    3.0106    1.7835   -0.3306 C   0  0  0  0  0  0  0  0  0  0  0  0
    3.9821    2.1058   -1.2058 N   0  0  0  0  0  0  0  0  0  0  0  0
    4.0864    0.9836   -1.9513 C   0  0  0  0  0  0  0  0  0  0  0  0
    3.2305    0.0212   -1.5570 N   0  0  0  0  0  0  0  0  0  0  0  0
   -0.3670    0.7642   -1.1799 C   0  0  0  0  0  0  0  0  0  0  0  0
   -0.8159    1.6463   -0.1011 N   0  0  0  0  0  0  0  0  0  0  0  0
   -0.3713    2.8859    0.1628 C   0  0  0  0  0  0  0  0  0  0  0  0
   -1.0349    3.4303    1.2005 N   0  0  0  0  0  0  0  0  0  0  0  0
   -1.9050    2.4521    1.5353 C   0  0  0  0  0  0  0  0  0  0  0  0
   -1.7882    1.3665    0.7470 N   0  0  0  0  0  0  0  0  0  0  0  0
   -0.7441   -1.3841    0.1322 C   0  0  0  0  0  0  0  0  0  0  0  0
   -0.6646   -1.5968    1.5316 C   0  0  0  0  0  0  0  0  0  0  0  0
   -1.6330   -2.3491    2.2013 C   0  0  0  0  0  0  0  0  0  0  0  0
   -2.6982   -2.9081    1.4993 C   0  0  0  0  0  0  0  0  0  0  0  0
   -3.6354   -3.6369    2.1541 F   0  0  0  0  0  0  0  0  0  0  0  0
   -2.7983   -2.7175    0.1229 C   0  0  0  0  0  0  0  0  0  0  0  0
   -1.8365   -1.9663   -0.5597 C   0  0  0  0  0  0  0  0  0  0  0  0
   -1.9813   -1.8180   -1.9002 F   0  0  0  0  0  0  0  0  0  0  0  0
    0.2733   -1.1527   -2.5306 H   0  0  0  0  0  0  0  0  0  0  0  0
    1.2261    0.4676    1.0856 H   0  0  0  0  0  0  0  0  0  0  0  0
    1.9947   -1.0940    0.6413 H   0  0  0  0  0  0  0  0  0  0  0  0
    2.6552    2.4424    0.4508 H   0  0  0  0  0  0  0  0  0  0  0  0
    4.7842    0.8684   -2.7695 H   0  0  0  0  0  0  0  0  0  0  0  0
   -1.2384    0.5305   -1.8261 H   0  0  0  0  0  0  0  0  0  0  0  0
    0.3584    1.3048   -1.8270 H   0  0  0  0  0  0  0  0  0  0  0  0
    0.4107    3.3905   -0.3893 H   0  0  0  0  0  0  0  0  0  0  0  0
   -2.6204    2.5342    2.3422 H   0  0  0  0  0  0  0  0  0  0  0  0
    0.1318   -1.1844    2.1314 H   0  0  0  0  0  0  0  0  0  0  0  0
   -1.5558   -2.4966    3.2710 H   0  0  0  0  0  0  0  0  0  0  0  0
   -3.6262   -3.1545   -0.4209 H   0  0  0  0  0  0  0  0  0  0  0  0
  1  2  1  0
  2  3  1  0
  3  4  1  0
  4  5  1  0
  5  6  2  0
  6  7  1  0
  7  8  2  0
  8  4  1  0
  2  9  1  0
  9 10  1  0
 10 11  1  0
 11 12  2  0
 12 13  1  0
 13 14  2  0
 14 10  1  0
  2 15  1  0
 15 16  2  0
 16 17  1  0
 17 18  2  0
 18 19  1  0
 18 20  1  0
 20 21  2  0
 21 15  1  0
 21 22  1  0
  1 23  1  0
  3 24  1  0
  3 25  1  0
  5 26  1  0
  7 27  1  0
  9 28  1  0
  9 29  1  0
 11 30  1  0
 13 31  1  0
 16 32  1  0
 17 33  1  0
 20 34  1  0
M  END
> <ID>
HT0889

> <Class>
1.0

> <Clusters>
104

> <Fold>
1

$$$$