
     RDKit          3D

 54 56  0  0  0  0  0  0  0  0999 V2000
   -2.7783    5.5782    1.1859 C   0  0  0  0  0  0  0  0  0  0  0  0
   -2.8426    4.2315    0.4715 C   0  0  0  0  0  0  0  0  0  0  0  0
   -1.5264    3.4605    0.6238 C   0  0  0  0  0  0  0  0  0  0  0  0
   -1.5972    2.1067   -0.0947 C   0  0  0  0  0  0  0  0  0  0  0  0
   -0.3189    1.3162    0.0260 C   0  0  0  0  0  0  0  0  0  0  0  0
    0.7443    1.7232    0.7551 N   0  0  0  0  0  0  0  0  0  0  0  0
    1.6570    0.7451    0.5995 C   0  0  0  0  0  0  0  0  0  0  0  0
    1.1468   -0.2321   -0.2307 C   0  0  0  0  0  0  0  0  0  0  0  0
    1.7919   -1.5173   -0.5787 C   0  0  0  0  0  0  0  0  0  0  0  0
    3.0499   -1.6630   -1.0477 C   0  0  0  0  0  0  0  0  0  0  0  0
    3.9297   -0.4851   -1.4229 C   0  0  0  0  0  0  0  0  0  0  0  0
    5.2359   -0.5310   -0.6870 C   0  0  0  0  0  0  0  0  0  0  0  0
    5.4054   -0.5448    0.6927 C   0  0  0  0  0  0  0  0  0  0  0  0
    6.7492   -0.5887    1.0825 C   0  0  0  0  0  0  0  0  0  0  0  0
    7.6393   -0.6077    0.0166 C   0  0  0  0  0  0  0  0  0  0  0  0
    6.7528   -0.5717   -1.4118 S   0  0  0  0  0  0  0  0  0  0  0  0
    3.5583   -3.0280   -1.3439 C   0  0  0  0  0  0  0  0  0  0  0  0
    4.4238   -3.1898   -2.2447 O   0  0  0  0  0  0  0  0  0  0  0  0
    3.1233   -4.1437   -0.6288 O   0  0  0  0  0  0  0  0  0  0  0  0
   -0.1101    0.1198   -0.5732 N   0  0  0  0  0  0  0  0  0  0  0  0
   -1.0430   -0.6180   -1.4345 C   0  0  0  0  0  0  0  0  0  0  0  0
   -2.1932   -1.1680   -0.6311 C   0  0  0  0  0  0  0  0  0  0  0  0
   -1.9571   -2.0558    0.4293 C   0  0  0  0  0  0  0  0  0  0  0  0
   -3.0224   -2.5636    1.1780 C   0  0  0  0  0  0  0  0  0  0  0  0
   -4.3448   -2.1959    0.8769 C   0  0  0  0  0  0  0  0  0  0  0  0
   -4.5796   -1.3113   -0.1905 C   0  0  0  0  0  0  0  0  0  0  0  0
   -3.5135   -0.8047   -0.9390 C   0  0  0  0  0  0  0  0  0  0  0  0
   -5.4696   -2.7337    1.6734 C   0  0  0  0  0  0  0  0  0  0  0  0
   -6.6570   -2.4052    1.4049 O   0  0  0  0  0  0  0  0  0  0  0  0
   -5.2270   -3.6092    2.7288 O   0  0  0  0  0  0  0  0  0  0  0  0
   -1.9662    6.2038    0.7579 H   0  0  0  0  0  0  0  0  0  0  0  0
   -2.5947    5.4307    2.2716 H   0  0  0  0  0  0  0  0  0  0  0  0
   -3.7431    6.1129    1.0585 H   0  0  0  0  0  0  0  0  0  0  0  0
   -3.6778    3.6362    0.9009 H   0  0  0  0  0  0  0  0  0  0  0  0
   -3.0525    4.4060   -0.6064 H   0  0  0  0  0  0  0  0  0  0  0  0
   -1.3230    3.2933    1.7048 H   0  0  0  0  0  0  0  0  0  0  0  0
   -0.6960    4.0626    0.1927 H   0  0  0  0  0  0  0  0  0  0  0  0
   -2.4258    1.5098    0.3411 H   0  0  0  0  0  0  0  0  0  0  0  0
   -1.8092    2.2768   -1.1721 H   0  0  0  0  0  0  0  0  0  0  0  0
    2.6233    0.7423    1.0817 H   0  0  0  0  0  0  0  0  0  0  0  0
    1.1602   -2.3915   -0.5010 H   0  0  0  0  0  0  0  0  0  0  0  0
    3.4546    0.4958   -1.2377 H   0  0  0  0  0  0  0  0  0  0  0  0
    4.1229   -0.5238   -2.5163 H   0  0  0  0  0  0  0  0  0  0  0  0
    4.5875   -0.5387    1.3995 H   0  0  0  0  0  0  0  0  0  0  0  0
    7.0650   -0.6093    2.1170 H   0  0  0  0  0  0  0  0  0  0  0  0
    8.7175   -0.6421    0.0947 H   0  0  0  0  0  0  0  0  0  0  0  0
    2.5158   -4.0675    0.1773 H   0  0  0  0  0  0  0  0  0  0  0  0
   -1.4049    0.0583   -2.2388 H   0  0  0  0  0  0  0  0  0  0  0  0
   -0.5270   -1.4588   -1.9437 H   0  0  0  0  0  0  0  0  0  0  0  0
   -0.9478   -2.3512    0.6829 H   0  0  0  0  0  0  0  0  0  0  0  0
   -2.8089   -3.2435    1.9932 H   0  0  0  0  0  0  0  0  0  0  0  0
   -5.5872   -1.0094   -0.4477 H   0  0  0  0  0  0  0  0  0  0  0  0
   -3.7197   -0.1224   -1.7544 H   0  0  0  0  0  0  0  0  0  0  0  0
   -5.9899   -3.9832    3.2805 H   0  0  0  0  0  0  0  0  0  0  0  0
  1  2  1  0
  2  3  1  0
  3  4  1  0
  4  5  1  0
  5  6  2  0
  6  7  1  0
  7  8  2  0
  8  9  1  0
  9 10  2  3
 10 11  1  0
 11 12  1  0
 12 13  2  0
 13 14  1  0
 14 15  2  0
 15 16  1  0
 16 12  1  0
 10 17  1  0
 17 18  2  0
 17 19  1  0
  8 20  1  0
 20  5  1  0
 20 21  1  0
 21 22  1  0
 22 23  2  0
 23 24  1  0
 24 25  2  0
 25 26  1  0
 26 27  2  0
 27 22  1  0
 25 28  1  0
 28 29  2  0
 28 30  1  0
  1 31  1  0
  1 32  1  0
  1 33  1  0
  2 34  1  0
  2 35  1  0
  3 36  1  0
  3 37  1  0
  4 38  1  0
  4 39  1  0
  7 40  1  0
  9 41  1  0
 11 42  1  0
 11 43  1  0
 13 44  1  0
 14 45  1  0
 15 46  1  0
 19 47  1  0
 21 48  1  0
 21 49  1  0
 23 50  1  0
 24 51  1  0
 26 52  1  0
 27 53  1  0
 30 54  1  0
M  END
> <ID>
HT0773

> <Class>
1.0

> <Clusters>
231

> <Fold>
1

$$$$