
     RDKit          3D

 35 35  0  0  0  0  0  0  0  0999 V2000
    5.0663   -1.7822    0.4815 N   0  0  0  0  0  0  0  0  0  0  0  0
    5.8619   -0.6553    0.0960 C   0  0  0  0  0  0  0  0  0  0  0  0
    7.1494   -0.7009    0.2272 N   0  0  0  0  0  0  0  0  0  0  0  0
    5.2616    0.5042   -0.4987 N   0  0  0  0  0  0  0  0  0  0  0  0
    3.9235    0.9365   -0.2268 C   0  0  0  0  0  0  0  0  0  0  0  0
    3.1633    0.4567    0.7811 N   0  0  0  0  0  0  0  0  0  0  0  0
    1.9555    1.0803    0.8387 C   0  0  0  0  0  0  0  0  0  0  0  0
    0.9274    0.7075    1.8606 C   0  0  0  0  0  0  0  0  0  0  0  0
    0.3630   -1.0115    1.5985 S   0  0  0  0  0  0  0  0  0  0  0  0
   -0.7701   -0.6645    0.2042 C   0  0  0  0  0  0  0  0  0  0  0  0
   -2.1689   -0.3143    0.7254 C   0  0  0  0  0  0  0  0  0  0  0  0
   -3.2147   -0.0437   -0.3373 C   0  0  0  0  0  0  0  0  0  0  0  0
   -2.9544   -0.0994   -1.6096 N   0  0  0  0  0  0  0  0  0  0  0  0
   -4.5406    0.2869    0.0953 N   0  0  0  0  0  0  0  0  0  0  0  0
   -5.8269    0.6078   -1.0213 S   0  0  0  0  0  0  0  0  0  0  0  0
   -7.0887    0.8888   -0.2549 O   0  0  0  0  0  0  0  0  0  0  0  0
   -5.4814    1.8070   -1.8582 O   0  0  0  0  0  0  0  0  0  0  0  0
   -6.0709   -0.7684   -2.0389 N   0  0  0  0  0  0  0  0  0  0  0  0
    1.7565    2.0740   -0.1184 C   0  0  0  0  0  0  0  0  0  0  0  0
    3.1447    2.1673   -1.0643 S   0  0  0  0  0  0  0  0  0  0  0  0
    4.0647   -1.8576    0.1995 H   0  0  0  0  0  0  0  0  0  0  0  0
    5.5005   -2.5974    0.9688 H   0  0  0  0  0  0  0  0  0  0  0  0
    7.6319   -1.5339    0.6322 H   0  0  0  0  0  0  0  0  0  0  0  0
    5.8556    1.1126   -1.1061 H   0  0  0  0  0  0  0  0  0  0  0  0
    1.3891    0.7728    2.8677 H   0  0  0  0  0  0  0  0  0  0  0  0
    0.0694    1.4115    1.8386 H   0  0  0  0  0  0  0  0  0  0  0  0
   -0.8285   -1.5872   -0.4112 H   0  0  0  0  0  0  0  0  0  0  0  0
   -0.3717    0.1568   -0.4272 H   0  0  0  0  0  0  0  0  0  0  0  0
   -2.5311   -1.1541    1.3568 H   0  0  0  0  0  0  0  0  0  0  0  0
   -2.1000    0.5859    1.3712 H   0  0  0  0  0  0  0  0  0  0  0  0
   -2.0228   -0.3312   -2.0157 H   0  0  0  0  0  0  0  0  0  0  0  0
   -4.7517    0.3339    1.1171 H   0  0  0  0  0  0  0  0  0  0  0  0
   -6.3160   -1.5690   -1.4143 H   0  0  0  0  0  0  0  0  0  0  0  0
   -6.9139   -0.5715   -2.6233 H   0  0  0  0  0  0  0  0  0  0  0  0
    0.8677    2.6801   -0.2342 H   0  0  0  0  0  0  0  0  0  0  0  0
  1  2  1  0
  2  3  2  3
  2  4  1  0
  4  5  1  0
  5  6  2  0
  6  7  1  0
  7  8  1  0
  8  9  1  0
  9 10  1  0
 10 11  1  0
 11 12  1  0
 12 13  2  3
 12 14  1  0
 14 15  1  0
 15 16  2  0
 15 17  2  0
 15 18  1  0
  7 19  2  0
 19 20  1  0
 20  5  1  0
  1 21  1  0
  1 22  1  0
  3 23  1  0
  4 24  1  0
  8 25  1  0
  8 26  1  0
 10 27  1  0
 10 28  1  0
 11 29  1  0
 11 30  1  0
 13 31  1  0
 14 32  1  0
 18 33  1  0
 18 34  1  0
 19 35  1  0
M  END
> <ID>
HT0847

> <Class>
1.0

> <Clusters>
101

> <Fold>
1

$$$$