
     RDKit          3D

 36 37  0  0  0  0  0  0  0  0999 V2000
   -6.0812   -0.4772    1.5557 N   0  0  0  0  0  0  0  0  0  0  0  0
   -5.4807   -0.6742   -0.0541 S   0  0  0  0  0  0  0  0  0  0  0  0
   -5.5565   -2.1285   -0.4273 O   0  0  0  0  0  0  0  0  0  0  0  0
   -6.3297    0.1079   -1.0170 O   0  0  0  0  0  0  0  0  0  0  0  0
   -3.8042   -0.1156   -0.1360 C   0  0  0  0  0  0  0  0  0  0  0  0
   -2.7711   -1.0616   -0.2192 C   0  0  0  0  0  0  0  0  0  0  0  0
   -1.4354   -0.6510   -0.2790 C   0  0  0  0  0  0  0  0  0  0  0  0
   -1.1125    0.7139   -0.2625 C   0  0  0  0  0  0  0  0  0  0  0  0
    0.2574    1.1464   -0.3339 N   0  0  0  0  0  0  0  0  0  0  0  0
    1.3289    0.2578   -0.8105 C   0  0  0  0  0  0  0  0  0  0  0  0
    2.7009    0.9504   -0.7487 C   0  0  0  0  0  0  0  0  0  0  0  0
    3.1433    1.4775    0.9537 S   0  0  0  0  0  0  0  0  0  0  0  0
    4.3359    0.1381    1.2990 C   0  0  0  0  0  0  0  0  0  0  0  0
    5.6525    0.4421    0.6439 C   0  0  0  0  0  0  0  0  0  0  0  0
    6.2082   -0.3865   -0.2446 C   0  0  0  0  0  0  0  0  0  0  0  0
    1.3485   -0.9977   -0.0488 N   0  0  0  0  0  0  0  0  0  0  0  0
   -0.1438   -1.8349   -0.3285 S   0  0  0  0  0  0  0  0  0  0  0  0
   -0.1076   -2.5022   -1.6745 O   0  0  0  0  0  0  0  0  0  0  0  0
   -0.3463   -2.8650    0.7469 O   0  0  0  0  0  0  0  0  0  0  0  0
   -2.1399    1.6603   -0.1582 C   0  0  0  0  0  0  0  0  0  0  0  0
   -3.4794    1.2574   -0.0958 C   0  0  0  0  0  0  0  0  0  0  0  0
   -4.7113    2.5079    0.0376 Cl  0  0  0  0  0  0  0  0  0  0  0  0
   -7.0707   -0.8120    1.5554 H   0  0  0  0  0  0  0  0  0  0  0  0
   -6.1117    0.5476    1.7530 H   0  0  0  0  0  0  0  0  0  0  0  0
   -2.9996   -2.1196   -0.2283 H   0  0  0  0  0  0  0  0  0  0  0  0
    0.4745    2.1489   -0.1299 H   0  0  0  0  0  0  0  0  0  0  0  0
    1.1396    0.0263   -1.8833 H   0  0  0  0  0  0  0  0  0  0  0  0
    3.4736    0.2813   -1.1825 H   0  0  0  0  0  0  0  0  0  0  0  0
    2.6705    1.8594   -1.3862 H   0  0  0  0  0  0  0  0  0  0  0  0
    3.9251   -0.8417    0.9740 H   0  0  0  0  0  0  0  0  0  0  0  0
    4.4942    0.0889    2.3961 H   0  0  0  0  0  0  0  0  0  0  0  0
    6.1695    1.3602    0.9069 H   0  0  0  0  0  0  0  0  0  0  0  0
    5.7210   -1.3137   -0.5304 H   0  0  0  0  0  0  0  0  0  0  0  0
    7.1625   -0.1358   -0.6961 H   0  0  0  0  0  0  0  0  0  0  0  0
    1.3732   -0.7706    0.9720 H   0  0  0  0  0  0  0  0  0  0  0  0
   -1.8976    2.7156   -0.1322 H   0  0  0  0  0  0  0  0  0  0  0  0
  1  2  1  0
  2  3  2  0
  2  4  2  0
  2  5  1  0
  5  6  2  0
  6  7  1  0
  7  8  2  0
  8  9  1  0
  9 10  1  0
 10 11  1  0
 11 12  1  0
 12 13  1  0
 13 14  1  0
 14 15  2  3
 10 16  1  0
 16 17  1  0
 17  7  1  0
 17 18  2  0
 17 19  2  0
  8 20  1  0
 20 21  2  0
 21  5  1  0
 21 22  1  0
  1 23  1  0
  1 24  1  0
  6 25  1  0
  9 26  1  0
 10 27  1  0
 11 28  1  0
 11 29  1  0
 13 30  1  0
 13 31  1  0
 14 32  1  0
 15 33  1  0
 15 34  1  0
 16 35  1  0
 20 36  1  0
M  END
> <ID>
HT0117

> <Class>
1.0

> <Clusters>
40

> <Fold>
1

$$$$