
     RDKit          3D

 58 60  0  0  0  0  0  0  0  0999 V2000
   10.4206   -0.7556    3.2364 C   0  0  0  0  0  0  0  0  0  0  0  0
    9.1243   -0.7618    2.4914 C   0  0  0  0  0  0  0  0  0  0  0  0
    7.9697   -1.2955    3.0722 C   0  0  0  0  0  0  0  0  0  0  0  0
    6.8060   -1.2876    2.3720 N   0  0  0  0  0  0  0  0  0  0  0  0
    6.7269   -0.7672    1.1160 C   0  0  0  0  0  0  0  0  0  0  0  0
    7.8930   -0.2440    0.5308 C   0  0  0  0  0  0  0  0  0  0  0  0
    9.0569   -0.2540    1.2323 N   0  0  0  0  0  0  0  0  0  0  0  0
    5.4284   -0.8003    0.4081 C   0  0  0  0  0  0  0  0  0  0  0  0
    4.5323   -1.5832    0.8265 O   0  0  0  0  0  0  0  0  0  0  0  0
    5.1598    0.0473   -0.7226 N   0  0  0  0  0  0  0  0  0  0  0  0
    3.9141   -0.0382   -1.4824 C   0  0  0  0  0  0  0  0  0  0  0  0
    2.7781    0.6596   -0.7270 C   0  0  0  0  0  0  0  0  0  0  0  0
    1.4983    0.6255   -1.5218 C   0  0  0  0  0  0  0  0  0  0  0  0
    0.9706    1.8032   -2.0761 C   0  0  0  0  0  0  0  0  0  0  0  0
   -0.2231    1.7676   -2.8029 C   0  0  0  0  0  0  0  0  0  0  0  0
   -0.9022    0.5562   -2.9863 C   0  0  0  0  0  0  0  0  0  0  0  0
   -0.3840   -0.6196   -2.4270 C   0  0  0  0  0  0  0  0  0  0  0  0
    0.8085   -0.5855   -1.6986 C   0  0  0  0  0  0  0  0  0  0  0  0
   -2.4186    0.5276   -3.8801 S   0  0  0  0  0  0  0  0  0  0  0  0
   -2.3056    1.4300   -5.0766 O   0  0  0  0  0  0  0  0  0  0  0  0
   -2.7230   -0.8636   -4.3615 O   0  0  0  0  0  0  0  0  0  0  0  0
   -3.7029    1.0843   -2.8600 N   0  0  0  0  0  0  0  0  0  0  0  0
   -4.1075    0.3608   -1.6935 C   0  0  0  0  0  0  0  0  0  0  0  0
   -3.5638   -0.7424   -1.4147 O   0  0  0  0  0  0  0  0  0  0  0  0
   -5.1317    0.8957   -0.8440 N   0  0  0  0  0  0  0  0  0  0  0  0
   -5.6475    0.1695    0.3195 C   0  0  0  0  0  0  0  0  0  0  0  0
   -6.0981    1.1644    1.4044 C   0  0  0  0  0  0  0  0  0  0  0  0
   -6.6945    0.4279    2.6106 C   0  0  0  0  0  0  0  0  0  0  0  0
   -7.8603   -0.4723    2.1823 C   0  0  0  0  0  0  0  0  0  0  0  0
   -7.4215   -1.4636    1.0971 C   0  0  0  0  0  0  0  0  0  0  0  0
   -6.8188   -0.7312   -0.1088 C   0  0  0  0  0  0  0  0  0  0  0  0
   10.3112   -0.1721    4.1747 H   0  0  0  0  0  0  0  0  0  0  0  0
   11.2224   -0.2951    2.6206 H   0  0  0  0  0  0  0  0  0  0  0  0
   10.7153   -1.7970    3.4850 H   0  0  0  0  0  0  0  0  0  0  0  0
    7.9937   -1.7143    4.0703 H   0  0  0  0  0  0  0  0  0  0  0  0
    7.8987    0.1444   -0.4769 H   0  0  0  0  0  0  0  0  0  0  0  0
    5.8528    0.7690   -1.0179 H   0  0  0  0  0  0  0  0  0  0  0  0
    3.6658   -1.1044   -1.6761 H   0  0  0  0  0  0  0  0  0  0  0  0
    4.0550    0.4618   -2.4659 H   0  0  0  0  0  0  0  0  0  0  0  0
    3.0802    1.7103   -0.5217 H   0  0  0  0  0  0  0  0  0  0  0  0
    2.6078    0.1670    0.2543 H   0  0  0  0  0  0  0  0  0  0  0  0
    1.4816    2.7492   -1.9469 H   0  0  0  0  0  0  0  0  0  0  0  0
   -0.6199    2.6850   -3.2191 H   0  0  0  0  0  0  0  0  0  0  0  0
   -0.9047   -1.5612   -2.5465 H   0  0  0  0  0  0  0  0  0  0  0  0
    1.1915   -1.5018   -1.2661 H   0  0  0  0  0  0  0  0  0  0  0  0
   -4.1691    1.9884   -3.0945 H   0  0  0  0  0  0  0  0  0  0  0  0
   -5.6105    1.7756   -1.1424 H   0  0  0  0  0  0  0  0  0  0  0  0
   -4.8404   -0.4650    0.7513 H   0  0  0  0  0  0  0  0  0  0  0  0
   -5.2248    1.7649    1.7406 H   0  0  0  0  0  0  0  0  0  0  0  0
   -6.8575    1.8643    0.9894 H   0  0  0  0  0  0  0  0  0  0  0  0
   -5.9075   -0.1872    3.1009 H   0  0  0  0  0  0  0  0  0  0  0  0
   -7.0583    1.1721    3.3517 H   0  0  0  0  0  0  0  0  0  0  0  0
   -8.6955    0.1548    1.7994 H   0  0  0  0  0  0  0  0  0  0  0  0
   -8.2318   -1.0359    3.0651 H   0  0  0  0  0  0  0  0  0  0  0  0
   -8.3018   -2.0550    0.7638 H   0  0  0  0  0  0  0  0  0  0  0  0
   -6.6729   -2.1711    1.5176 H   0  0  0  0  0  0  0  0  0  0  0  0
   -6.4592   -1.4823   -0.8453 H   0  0  0  0  0  0  0  0  0  0  0  0
   -7.6063   -0.1185   -0.6013 H   0  0  0  0  0  0  0  0  0  0  0  0
  1  2  1  0
  2  3  2  0
  3  4  1  0
  4  5  2  0
  5  6  1  0
  6  7  2  0
  7  2  1  0
  5  8  1  0
  8  9  2  0
  8 10  1  0
 10 11  1  0
 11 12  1  0
 12 13  1  0
 13 14  2  0
 14 15  1  0
 15 16  2  0
 16 17  1  0
 17 18  2  0
 18 13  1  0
 16 19  1  0
 19 20  2  0
 19 21  2  0
 19 22  1  0
 22 23  1  0
 23 24  2  0
 23 25  1  0
 25 26  1  0
 26 27  1  0
 27 28  1  0
 28 29  1  0
 29 30  1  0
 30 31  1  0
 31 26  1  0
  1 32  1  0
  1 33  1  0
  1 34  1  0
  3 35  1  0
  6 36  1  0
 10 37  1  0
 11 38  1  0
 11 39  1  0
 12 40  1  0
 12 41  1  0
 14 42  1  0
 15 43  1  0
 17 44  1  0
 18 45  1  0
 22 46  1  0
 25 47  1  0
 26 48  1  0
 27 49  1  0
 27 50  1  0
 28 51  1  0
 28 52  1  0
 29 53  1  0
 29 54  1  0
 30 55  1  0
 30 56  1  0
 31 57  1  0
 31 58  1  0
M  END
> <ID>
HT0988

> <Class>
1.0

> <Clusters>
120

> <Fold>
1

$$$$