
     RDKit          3D

 61 63  0  0  0  0  0  0  0  0999 V2000
   -7.7842   -0.4077    1.7155 C   0  0  0  0  0  0  0  0  0  0  0  0
   -6.8309    0.1232    0.8005 O   0  0  0  0  0  0  0  0  0  0  0  0
   -6.4483   -0.4929   -0.4025 C   0  0  0  0  0  0  0  0  0  0  0  0
   -7.0130   -1.7168   -0.8157 C   0  0  0  0  0  0  0  0  0  0  0  0
   -6.6550   -2.2863   -2.0395 C   0  0  0  0  0  0  0  0  0  0  0  0
   -5.7353   -1.6441   -2.8688 C   0  0  0  0  0  0  0  0  0  0  0  0
   -5.2961   -2.3576   -4.4112 Cl  0  0  0  0  0  0  0  0  0  0  0  0
   -5.1624   -0.4342   -2.4693 C   0  0  0  0  0  0  0  0  0  0  0  0
   -5.4965    0.1417   -1.2316 C   0  0  0  0  0  0  0  0  0  0  0  0
   -4.8570    1.4168   -0.8398 C   0  0  0  0  0  0  0  0  0  0  0  0
   -4.6845    2.3122   -1.7113 O   0  0  0  0  0  0  0  0  0  0  0  0
   -4.3975    1.6274    0.5047 N   0  0  0  0  0  0  0  0  0  0  0  0
   -3.7627    2.8734    0.9336 C   0  0  0  0  0  0  0  0  0  0  0  0
   -2.3331    2.9818    0.3875 C   0  0  0  0  0  0  0  0  0  0  0  0
   -1.4865    1.8100    0.8155 C   0  0  0  0  0  0  0  0  0  0  0  0
   -1.0782    1.6829    2.1530 C   0  0  0  0  0  0  0  0  0  0  0  0
   -0.3080    0.5880    2.5551 C   0  0  0  0  0  0  0  0  0  0  0  0
    0.0648   -0.3911    1.6242 C   0  0  0  0  0  0  0  0  0  0  0  0
   -0.3387   -0.2663    0.2889 C   0  0  0  0  0  0  0  0  0  0  0  0
   -1.1080    0.8284   -0.1150 C   0  0  0  0  0  0  0  0  0  0  0  0
    1.0253   -1.7806    2.1188 S   0  0  0  0  0  0  0  0  0  0  0  0
    0.1455   -2.9982    2.1482 O   0  0  0  0  0  0  0  0  0  0  0  0
    1.6064   -1.5656    3.4887 O   0  0  0  0  0  0  0  0  0  0  0  0
    2.3169   -2.0300    0.9915 N   0  0  0  0  0  0  0  0  0  0  0  0
    3.3347   -1.0456    0.7836 C   0  0  0  0  0  0  0  0  0  0  0  0
    3.2900    0.0501    1.4060 O   0  0  0  0  0  0  0  0  0  0  0  0
    4.4040   -1.3108   -0.1346 N   0  0  0  0  0  0  0  0  0  0  0  0
    5.5176   -0.3774   -0.3339 C   0  0  0  0  0  0  0  0  0  0  0  0
    6.2722   -0.7169   -1.6340 C   0  0  0  0  0  0  0  0  0  0  0  0
    7.4718    0.2172   -1.8361 C   0  0  0  0  0  0  0  0  0  0  0  0
    8.4198    0.1614   -0.6324 C   0  0  0  0  0  0  0  0  0  0  0  0
    7.6779    0.4949    0.6671 C   0  0  0  0  0  0  0  0  0  0  0  0
    6.4760   -0.4360    0.8709 C   0  0  0  0  0  0  0  0  0  0  0  0
   -8.7730   -0.5096    1.2207 H   0  0  0  0  0  0  0  0  0  0  0  0
   -7.4417   -1.3938    2.0942 H   0  0  0  0  0  0  0  0  0  0  0  0
   -7.8866    0.2865    2.5744 H   0  0  0  0  0  0  0  0  0  0  0  0
   -7.7398   -2.2319   -0.2032 H   0  0  0  0  0  0  0  0  0  0  0  0
   -7.1003   -3.2247   -2.3455 H   0  0  0  0  0  0  0  0  0  0  0  0
   -4.4422    0.0490   -3.1186 H   0  0  0  0  0  0  0  0  0  0  0  0
   -4.4697    0.8525    1.2015 H   0  0  0  0  0  0  0  0  0  0  0  0
   -3.7374    2.9090    2.0445 H   0  0  0  0  0  0  0  0  0  0  0  0
   -4.3656    3.7404    0.5878 H   0  0  0  0  0  0  0  0  0  0  0  0
   -2.3675    3.0554   -0.7207 H   0  0  0  0  0  0  0  0  0  0  0  0
   -1.8693    3.9221    0.7566 H   0  0  0  0  0  0  0  0  0  0  0  0
   -1.3580    2.4317    2.8838 H   0  0  0  0  0  0  0  0  0  0  0  0
   -0.0069    0.5054    3.5913 H   0  0  0  0  0  0  0  0  0  0  0  0
   -0.0602   -1.0188   -0.4381 H   0  0  0  0  0  0  0  0  0  0  0  0
   -1.4184    0.9031   -1.1501 H   0  0  0  0  0  0  0  0  0  0  0  0
    2.3553   -2.9328    0.4684 H   0  0  0  0  0  0  0  0  0  0  0  0
    4.3787   -2.2059   -0.6746 H   0  0  0  0  0  0  0  0  0  0  0  0
    5.1103    0.6545   -0.4308 H   0  0  0  0  0  0  0  0  0  0  0  0
    5.5826   -0.6129   -2.4994 H   0  0  0  0  0  0  0  0  0  0  0  0
    6.6289   -1.7705   -1.6033 H   0  0  0  0  0  0  0  0  0  0  0  0
    8.0237   -0.0866   -2.7515 H   0  0  0  0  0  0  0  0  0  0  0  0
    7.1135    1.2599   -1.9825 H   0  0  0  0  0  0  0  0  0  0  0  0
    9.2452    0.8904   -0.7806 H   0  0  0  0  0  0  0  0  0  0  0  0
    8.8685   -0.8536   -0.5571 H   0  0  0  0  0  0  0  0  0  0  0  0
    8.3752    0.3864    1.5254 H   0  0  0  0  0  0  0  0  0  0  0  0
    7.3315    1.5515    0.6389 H   0  0  0  0  0  0  0  0  0  0  0  0
    6.8353   -1.4790    1.0158 H   0  0  0  0  0  0  0  0  0  0  0  0
    5.9411   -0.1291    1.7950 H   0  0  0  0  0  0  0  0  0  0  0  0
  1  2  1  0
  2  3  1  0
  3  4  2  0
  4  5  1  0
  5  6  2  0
  6  7  1  0
  6  8  1  0
  8  9  2  0
  9  3  1  0
  9 10  1  0
 10 11  2  0
 10 12  1  0
 12 13  1  0
 13 14  1  0
 14 15  1  0
 15 16  2  0
 16 17  1  0
 17 18  2  0
 18 19  1  0
 19 20  2  0
 20 15  1  0
 18 21  1  0
 21 22  2  0
 21 23  2  0
 21 24  1  0
 24 25  1  0
 25 26  2  0
 25 27  1  0
 27 28  1  0
 28 29  1  0
 29 30  1  0
 30 31  1  0
 31 32  1  0
 32 33  1  0
 33 28  1  0
  1 34  1  0
  1 35  1  0
  1 36  1  0
  4 37  1  0
  5 38  1  0
  8 39  1  0
 12 40  1  0
 13 41  1  0
 13 42  1  0
 14 43  1  0
 14 44  1  0
 16 45  1  0
 17 46  1  0
 19 47  1  0
 20 48  1  0
 24 49  1  0
 27 50  1  0
 28 51  1  0
 29 52  1  0
 29 53  1  0
 30 54  1  0
 30 55  1  0
 31 56  1  0
 31 57  1  0
 32 58  1  0
 32 59  1  0
 33 60  1  0
 33 61  1  0
M  END
> <ID>
HT0995

> <Class>
1.0

> <Clusters>
120

> <Fold>
1

$$$$