
     RDKit          3D

 32 33  0  0  0  0  0  0  0  0999 V2000
    4.9022    1.5599   -0.2539 N   0  0  0  0  0  0  0  0  0  0  0  0
    3.9188    0.8521    0.9796 S   0  0  0  0  0  0  0  0  0  0  0  0
    4.6330   -0.3434    1.5469 O   0  0  0  0  0  0  0  0  0  0  0  0
    3.6927    1.8485    2.0816 O   0  0  0  0  0  0  0  0  0  0  0  0
    2.3625    0.3724    0.2904 C   0  0  0  0  0  0  0  0  0  0  0  0
    1.9734   -0.9729    0.3289 C   0  0  0  0  0  0  0  0  0  0  0  0
    0.7395   -1.3894   -0.1991 C   0  0  0  0  0  0  0  0  0  0  0  0
    0.3541   -2.8115   -0.0392 C   0  0  0  0  0  0  0  0  0  0  0  0
   -0.8561   -3.1414    0.0836 O   0  0  0  0  0  0  0  0  0  0  0  0
    1.3382   -3.7943    0.0295 O   0  0  0  0  0  0  0  0  0  0  0  0
   -0.1098   -0.4358   -0.8152 C   0  0  0  0  0  0  0  0  0  0  0  0
   -1.3332   -0.8437   -1.4635 N   0  0  0  0  0  0  0  0  0  0  0  0
   -2.5168    0.0092   -1.5898 C   0  0  0  0  0  0  0  0  0  0  0  0
   -3.0530    0.3990   -0.2449 C   0  0  0  0  0  0  0  0  0  0  0  0
   -2.5882   -0.0387    0.9037 O   0  0  0  0  0  0  0  0  0  0  0  0
   -3.2897    0.5023    1.8727 C   0  0  0  0  0  0  0  0  0  0  0  0
   -4.2580    1.3290    1.3397 C   0  0  0  0  0  0  0  0  0  0  0  0
   -4.1073    1.2622   -0.0288 C   0  0  0  0  0  0  0  0  0  0  0  0
    0.2838    0.9145   -0.8378 C   0  0  0  0  0  0  0  0  0  0  0  0
    1.5032    1.3207   -0.2905 C   0  0  0  0  0  0  0  0  0  0  0  0
    1.9215    3.0296   -0.3690 Cl  0  0  0  0  0  0  0  0  0  0  0  0
    5.0609    0.8236   -0.9776 H   0  0  0  0  0  0  0  0  0  0  0  0
    5.8314    1.7666    0.1762 H   0  0  0  0  0  0  0  0  0  0  0  0
    2.6239   -1.6993    0.7994 H   0  0  0  0  0  0  0  0  0  0  0  0
    1.0923   -4.7687    0.1570 H   0  0  0  0  0  0  0  0  0  0  0  0
   -1.3879   -1.7950   -1.8912 H   0  0  0  0  0  0  0  0  0  0  0  0
   -3.3105   -0.5417   -2.1388 H   0  0  0  0  0  0  0  0  0  0  0  0
   -2.2740    0.9154   -2.1819 H   0  0  0  0  0  0  0  0  0  0  0  0
   -3.1219    0.3175    2.9252 H   0  0  0  0  0  0  0  0  0  0  0  0
   -4.9882    1.9112    1.8855 H   0  0  0  0  0  0  0  0  0  0  0  0
   -4.6939    1.7807   -0.7756 H   0  0  0  0  0  0  0  0  0  0  0  0
   -0.3429    1.6617   -1.3031 H   0  0  0  0  0  0  0  0  0  0  0  0
  1  2  1  0
  2  3  2  0
  2  4  2  0
  2  5  1  0
  5  6  2  0
  6  7  1  0
  7  8  1  0
  8  9  2  0
  8 10  1  0
  7 11  2  0
 11 12  1  0
 12 13  1  0
 13 14  1  0
 14 15  1  0
 15 16  1  0
 16 17  2  0
 17 18  1  0
 18 14  2  0
 11 19  1  0
 19 20  2  0
 20  5  1  0
 20 21  1  0
  1 22  1  0
  1 23  1  0
  6 24  1  0
 10 25  1  0
 12 26  1  0
 13 27  1  0
 13 28  1  0
 16 29  1  0
 17 30  1  0
 18 31  1  0
 19 32  1  0
M  END
> <ID>
HT0945

> <Class>
1.0

> <Clusters>
132

> <Fold>
1

$$$$