
     RDKit          3D

 56 59  0  0  0  0  0  0  0  0999 V2000
   -4.5687    4.8268    1.3471 F   0  0  0  0  0  0  0  0  0  0  0  0
   -4.0672    3.7066    0.7711 C   0  0  0  0  0  0  0  0  0  0  0  0
   -4.3344    3.4320   -0.5723 C   0  0  0  0  0  0  0  0  0  0  0  0
   -3.8191    2.2772   -1.1684 C   0  0  0  0  0  0  0  0  0  0  0  0
   -3.0194    1.3884   -0.4276 C   0  0  0  0  0  0  0  0  0  0  0  0
   -2.7704    1.6674    0.9311 C   0  0  0  0  0  0  0  0  0  0  0  0
   -3.2872    2.8239    1.5222 C   0  0  0  0  0  0  0  0  0  0  0  0
   -2.5046    0.1155   -1.0825 C   0  0  0  0  0  0  0  0  0  0  0  0
   -1.1506   -0.2631   -0.5861 N   0  0  0  0  0  0  0  0  0  0  0  0
   -0.1466    0.7651   -0.9446 C   0  0  0  0  0  0  0  0  0  0  0  0
    1.2138    0.4471   -0.2923 C   0  0  0  0  0  0  0  0  0  0  0  0
    1.2655   -0.9432    0.2090 N   0  0  0  0  0  0  0  0  0  0  0  0
    2.6335   -1.3099    0.6265 C   0  0  0  0  0  0  0  0  0  0  0  0
    2.9633   -0.6667    1.9494 C   0  0  0  0  0  0  0  0  0  0  0  0
    4.0885    0.0109    2.2170 C   0  0  0  0  0  0  0  0  0  0  0  0
    5.1520    0.2813    1.2337 C   0  0  0  0  0  0  0  0  0  0  0  0
    4.9183    1.1219    0.1335 C   0  0  0  0  0  0  0  0  0  0  0  0
    5.9462    1.3927   -0.7750 C   0  0  0  0  0  0  0  0  0  0  0  0
    7.2160    0.8419   -0.5800 C   0  0  0  0  0  0  0  0  0  0  0  0
    7.4617    0.0271    0.5291 C   0  0  0  0  0  0  0  0  0  0  0  0
    6.4354   -0.2459    1.4393 C   0  0  0  0  0  0  0  0  0  0  0  0
    0.7704   -1.8634   -0.8298 C   0  0  0  0  0  0  0  0  0  0  0  0
   -0.7131   -1.5711   -1.1385 C   0  0  0  0  0  0  0  0  0  0  0  0
   -3.5330   -0.9797   -0.8411 C   0  0  0  0  0  0  0  0  0  0  0  0
   -3.7246   -1.5240    0.4437 C   0  0  0  0  0  0  0  0  0  0  0  0
   -4.6784   -2.5240    0.6535 C   0  0  0  0  0  0  0  0  0  0  0  0
   -5.4520   -2.9896   -0.4125 C   0  0  0  0  0  0  0  0  0  0  0  0
   -6.3766   -3.9596   -0.2066 F   0  0  0  0  0  0  0  0  0  0  0  0
   -5.2716   -2.4562   -1.6911 C   0  0  0  0  0  0  0  0  0  0  0  0
   -4.3183   -1.4564   -1.9064 C   0  0  0  0  0  0  0  0  0  0  0  0
   -4.9448    4.1119   -1.1527 H   0  0  0  0  0  0  0  0  0  0  0  0
   -4.0461    2.0744   -2.2077 H   0  0  0  0  0  0  0  0  0  0  0  0
   -2.1678    0.9980    1.5311 H   0  0  0  0  0  0  0  0  0  0  0  0
   -3.0834    3.0340    2.5642 H   0  0  0  0  0  0  0  0  0  0  0  0
   -2.4314    0.3012   -2.1804 H   0  0  0  0  0  0  0  0  0  0  0  0
   -0.4619    1.7746   -0.6057 H   0  0  0  0  0  0  0  0  0  0  0  0
   -0.0261    0.8148   -2.0516 H   0  0  0  0  0  0  0  0  0  0  0  0
    2.0154    0.6295   -1.0432 H   0  0  0  0  0  0  0  0  0  0  0  0
    1.3743    1.1444    0.5591 H   0  0  0  0  0  0  0  0  0  0  0  0
    3.3713   -1.0756   -0.1705 H   0  0  0  0  0  0  0  0  0  0  0  0
    2.6942   -2.4067    0.7993 H   0  0  0  0  0  0  0  0  0  0  0  0
    2.2687   -0.8339    2.7638 H   0  0  0  0  0  0  0  0  0  0  0  0
    4.2644    0.3235    3.2390 H   0  0  0  0  0  0  0  0  0  0  0  0
    3.9489    1.5785   -0.0111 H   0  0  0  0  0  0  0  0  0  0  0  0
    5.7606    2.0362   -1.6252 H   0  0  0  0  0  0  0  0  0  0  0  0
    8.0114    1.0538   -1.2826 H   0  0  0  0  0  0  0  0  0  0  0  0
    8.4480   -0.3904    0.6851 H   0  0  0  0  0  0  0  0  0  0  0  0
    6.6381   -0.8752    2.2974 H   0  0  0  0  0  0  0  0  0  0  0  0
    0.8593   -2.9189   -0.4877 H   0  0  0  0  0  0  0  0  0  0  0  0
    1.3762   -1.7587   -1.7595 H   0  0  0  0  0  0  0  0  0  0  0  0
   -0.8720   -1.6090   -2.2405 H   0  0  0  0  0  0  0  0  0  0  0  0
   -1.3171   -2.3842   -0.6821 H   0  0  0  0  0  0  0  0  0  0  0  0
   -3.1269   -1.1864    1.2795 H   0  0  0  0  0  0  0  0  0  0  0  0
   -4.8154   -2.9392    1.6437 H   0  0  0  0  0  0  0  0  0  0  0  0
   -5.8711   -2.8163   -2.5172 H   0  0  0  0  0  0  0  0  0  0  0  0
   -4.1960   -1.0534   -2.9040 H   0  0  0  0  0  0  0  0  0  0  0  0
  1  2  1  0
  2  3  2  0
  3  4  1  0
  4  5  2  0
  5  6  1  0
  6  7  2  0
  7  2  1  0
  5  8  1  0
  8  9  1  0
  9 10  1  0
 10 11  1  0
 11 12  1  0
 12 13  1  0
 13 14  1  0
 14 15  2  3
 15 16  1  0
 16 17  2  0
 17 18  1  0
 18 19  2  0
 19 20  1  0
 20 21  2  0
 21 16  1  0
 12 22  1  0
 22 23  1  0
 23  9  1  0
  8 24  1  0
 24 25  2  0
 25 26  1  0
 26 27  2  0
 27 28  1  0
 27 29  1  0
 29 30  2  0
 30 24  1  0
  3 31  1  0
  4 32  1  0
  6 33  1  0
  7 34  1  0
  8 35  1  0
 10 36  1  0
 10 37  1  0
 11 38  1  0
 11 39  1  0
 13 40  1  0
 13 41  1  0
 14 42  1  0
 15 43  1  0
 17 44  1  0
 18 45  1  0
 19 46  1  0
 20 47  1  0
 21 48  1  0
 22 49  1  0
 22 50  1  0
 23 51  1  0
 23 52  1  0
 25 53  1  0
 26 54  1  0
 29 55  1  0
 30 56  1  0
M  END
> <ID>
HT0900

> <Class>
1.0

> <Clusters>
57

> <Fold>
1

$$$$