
     RDKit          3D

 83 85  0  0  0  0  0  0  0  0999 V2000
   -4.7709    6.5037   -0.7683 N   0  0  0  0  0  0  0  0  0  0  0  0
   -3.3387    6.2210   -0.7847 C   0  0  0  0  0  0  0  0  0  0  0  0
   -2.9821    5.0975    0.2009 C   0  0  0  0  0  0  0  0  0  0  0  0
   -3.5319    3.7263   -0.2287 C   0  0  2  0  0  0  0  0  0  0  0  0
   -4.9358    3.7315   -0.1452 O   0  0  0  0  0  0  0  0  0  0  0  0
   -2.9619    2.6397    0.6488 C   0  0  0  0  0  0  0  0  0  0  0  0
   -3.6787    2.1154    1.5438 O   0  0  0  0  0  0  0  0  0  0  0  0
   -1.6045    2.2073    0.4532 N   0  0  0  0  0  0  0  0  0  0  0  0
   -1.0616    0.9822    1.0554 C   0  0  2  0  0  0  0  0  0  0  0  0
    0.2347    1.2973    1.8380 C   0  0  0  0  0  0  0  0  0  0  0  0
    1.5157    1.1680    0.9927 C   0  0  2  0  0  0  0  0  0  0  0  0
    1.5918    2.2578    0.0149 N   0  0  0  0  0  0  0  0  0  0  0  0
    1.6232   -0.2130    0.2761 C   0  0  1  0  0  0  0  0  0  0  0  0
    2.6255   -0.9943    0.9115 O   0  0  0  0  0  0  0  0  0  0  0  0
    3.7055   -1.2778    0.0362 C   0  0  1  0  0  0  0  0  0  0  0  0
    4.4808   -0.1004   -0.1821 O   0  0  0  0  0  0  0  0  0  0  0  0
    5.4396    0.0829    0.8430 C   0  0  2  0  0  0  0  0  0  0  0  0
    5.9710    1.5281    0.8036 C   0  0  0  0  0  0  0  0  0  0  0  0
    6.6026    1.8312   -0.4780 N   0  0  0  0  0  0  0  0  0  0  0  0
    6.5750   -0.9668    0.6815 C   0  0  1  0  0  0  0  0  0  0  0  0
    7.2970   -1.1074    1.8805 O   0  0  0  0  0  0  0  0  0  0  0  0
    6.0184   -2.3340    0.1882 C   0  0  2  0  0  0  0  0  0  0  0  0
    6.1361   -2.4250   -1.2128 O   0  0  0  0  0  0  0  0  0  0  0  0
    4.5300   -2.4895    0.5639 C   0  0  1  0  0  0  0  0  0  0  0  0
    4.3971   -2.6073    1.9594 O   0  0  0  0  0  0  0  0  0  0  0  0
    0.3041   -1.0246    0.2923 C   0  0  2  0  0  0  0  0  0  0  0  0
    0.3939   -2.0591   -0.6511 O   0  0  0  0  0  0  0  0  0  0  0  0
   -0.8974   -0.1102   -0.0353 C   0  0  1  0  0  0  0  0  0  0  0  0
   -2.1009   -0.8710   -0.0731 O   0  0  0  0  0  0  0  0  0  0  0  0
   -2.4914   -1.2713   -1.3863 C   0  0  1  0  0  0  0  0  0  0  0  0
   -2.0279   -2.5800   -1.6787 O   0  0  0  0  0  0  0  0  0  0  0  0
   -2.5256   -3.5366   -0.7532 C   0  0  2  0  0  0  0  0  0  0  0  0
   -1.8542   -4.8866   -1.0620 C   0  0  0  0  0  0  0  0  0  0  0  0
   -2.1194   -5.8281   -0.0562 O   0  0  0  0  0  0  0  0  0  0  0  0
   -4.0670   -3.6434   -0.8583 C   0  0  1  0  0  0  0  0  0  0  0  0
   -4.5422   -4.5625    0.0973 O   0  0  0  0  0  0  0  0  0  0  0  0
   -4.7049   -2.2618   -0.6129 C   0  0  2  0  0  0  0  0  0  0  0  0
   -6.1414   -2.3145   -0.8935 N   0  0  0  0  0  0  0  0  0  0  0  0
   -4.0257   -1.2154   -1.5265 C   0  0  1  0  0  0  0  0  0  0  0  0
   -4.4996    0.0850   -1.2772 O   0  0  0  0  0  0  0  0  0  0  0  0
   -4.9505    7.2568   -1.4712 H   0  0  0  0  0  0  0  0  0  0  0  0
   -5.0119    6.9071    0.1651 H   0  0  0  0  0  0  0  0  0  0  0  0
   -3.0326    5.9309   -1.8127 H   0  0  0  0  0  0  0  0  0  0  0  0
   -2.7720    7.1396   -0.5070 H   0  0  0  0  0  0  0  0  0  0  0  0
   -1.8728    5.0434    0.2625 H   0  0  0  0  0  0  0  0  0  0  0  0
   -3.3551    5.3578    1.2182 H   0  0  0  0  0  0  0  0  0  0  0  0
   -3.2165    3.5248   -1.2803 H   0  0  0  0  0  0  0  0  0  0  0  0
   -5.2601    3.0104   -0.7426 H   0  0  0  0  0  0  0  0  0  0  0  0
   -1.0252    2.7153   -0.2525 H   0  0  0  0  0  0  0  0  0  0  0  0
   -1.7751    0.6002    1.8171 H   0  0  0  0  0  0  0  0  0  0  0  0
    0.3171    0.5899    2.6903 H   0  0  0  0  0  0  0  0  0  0  0  0
    0.1743    2.3161    2.2839 H   0  0  0  0  0  0  0  0  0  0  0  0
    2.3764    1.2801    1.6930 H   0  0  0  0  0  0  0  0  0  0  0  0
    2.5385    2.2274   -0.4308 H   0  0  0  0  0  0  0  0  0  0  0  0
    1.5514    3.1705    0.5283 H   0  0  0  0  0  0  0  0  0  0  0  0
    1.8453   -0.0097   -0.8006 H   0  0  0  0  0  0  0  0  0  0  0  0
    3.3211   -1.6139   -0.9564 H   0  0  0  0  0  0  0  0  0  0  0  0
    4.9584   -0.0350    1.8462 H   0  0  0  0  0  0  0  0  0  0  0  0
    5.1288    2.2342    0.9776 H   0  0  0  0  0  0  0  0  0  0  0  0
    6.7145    1.6645    1.6193 H   0  0  0  0  0  0  0  0  0  0  0  0
    7.0303    2.7839   -0.4100 H   0  0  0  0  0  0  0  0  0  0  0  0
    5.8608    1.8862   -1.2140 H   0  0  0  0  0  0  0  0  0  0  0  0
    7.2966   -0.6047   -0.0813 H   0  0  0  0  0  0  0  0  0  0  0  0
    6.7125   -1.5735    2.5396 H   0  0  0  0  0  0  0  0  0  0  0  0
    6.5906   -3.1723    0.6544 H   0  0  0  0  0  0  0  0  0  0  0  0
    7.0869   -2.6307   -1.4126 H   0  0  0  0  0  0  0  0  0  0  0  0
    4.1320   -3.4161    0.0803 H   0  0  0  0  0  0  0  0  0  0  0  0
    4.5952   -3.5580    2.1811 H   0  0  0  0  0  0  0  0  0  0  0  0
    0.1408   -1.4644    1.3066 H   0  0  0  0  0  0  0  0  0  0  0  0
    0.9553   -2.7750   -0.2473 H   0  0  0  0  0  0  0  0  0  0  0  0
   -0.6745    0.4029   -0.9975 H   0  0  0  0  0  0  0  0  0  0  0  0
   -2.1024   -0.5905   -2.1783 H   0  0  0  0  0  0  0  0  0  0  0  0
   -2.2435   -3.2560    0.2871 H   0  0  0  0  0  0  0  0  0  0  0  0
   -2.2288   -5.2775   -2.0301 H   0  0  0  0  0  0  0  0  0  0  0  0
   -0.7559   -4.7466   -1.1649 H   0  0  0  0  0  0  0  0  0  0  0  0
   -1.6036   -5.5496    0.7456 H   0  0  0  0  0  0  0  0  0  0  0  0
   -4.3248   -3.9809   -1.8917 H   0  0  0  0  0  0  0  0  0  0  0  0
   -5.3205   -5.0316   -0.3044 H   0  0  0  0  0  0  0  0  0  0  0  0
   -4.5472   -1.9759    0.4536 H   0  0  0  0  0  0  0  0  0  0  0  0
   -6.5572   -1.3824   -0.6689 H   0  0  0  0  0  0  0  0  0  0  0  0
   -6.5953   -2.9839   -0.2275 H   0  0  0  0  0  0  0  0  0  0  0  0
   -4.2791   -1.4703   -2.5799 H   0  0  0  0  0  0  0  0  0  0  0  0
   -4.4003    0.2623   -0.3046 H   0  0  0  0  0  0  0  0  0  0  0  0
  1  2  1  0
  2  3  1  0
  3  4  1  0
  4  5  1  0
  4  6  1  0
  6  7  2  0
  6  8  1  0
  9  8  1  0
  9 10  1  0
 10 11  1  0
 11 12  1  0
 11 13  1  0
 13 14  1  0
 15 14  1  0
 15 16  1  0
 16 17  1  0
 17 18  1  0
 18 19  1  0
 17 20  1  0
 20 21  1  0
 20 22  1  0
 22 23  1  0
 22 24  1  0
 24 15  1  0
 24 25  1  0
 13 26  1  0
 26 27  1  0
 26 28  1  0
 28  9  1  0
 28 29  1  0
 30 29  1  0
 30 31  1  0
 31 32  1  0
 32 33  1  0
 33 34  1  0
 32 35  1  0
 35 36  1  0
 35 37  1  0
 37 38  1  0
 37 39  1  0
 39 30  1  0
 39 40  1  0
  1 41  1  0
  1 42  1  0
  2 43  1  0
  2 44  1  0
  3 45  1  0
  3 46  1  0
  4 47  1  6
  5 48  1  0
  8 49  1  0
  9 50  1  1
 10 51  1  0
 10 52  1  0
 11 53  1  1
 12 54  1  0
 12 55  1  0
 13 56  1  6
 15 57  1  6
 17 58  1  1
 18 59  1  0
 18 60  1  0
 19 61  1  0
 19 62  1  0
 20 63  1  6
 21 64  1  0
 22 65  1  1
 23 66  1  0
 24 67  1  6
 25 68  1  0
 26 69  1  1
 27 70  1  0
 28 71  1  6
 30 72  1  6
 32 73  1  1
 33 74  1  0
 33 75  1  0
 34 76  1  0
 35 77  1  6
 36 78  1  0
 37 79  1  1
 38 80  1  0
 38 81  1  0
 39 82  1  6
 40 83  1  0
M  END
> <ID>
HT0130

> <Class>
1.0

> <Clusters>
141

> <Fold>
1

$$$$