
     RDKit          3D

 28 30  0  0  0  0  0  0  0  0999 V2000
    2.7630    0.2433    0.0131 N   0  0  0  0  0  0  0  0  0  0  0  0
    1.3012    0.1212    0.0003 C   0  0  0  0  0  0  0  0  0  0  0  0
    0.8197   -0.2148   -1.4360 C   0  0  0  0  0  0  0  0  0  0  0  0
   -0.7208   -0.3294   -1.4623 C   0  0  0  0  0  0  0  0  0  0  0  0
   -1.1699   -1.4485   -0.4967 C   0  0  0  0  0  0  0  0  0  0  0  0
   -0.7058   -1.1131    0.9380 C   0  0  0  0  0  0  0  0  0  0  0  0
   -1.3267    0.2311    1.3784 C   0  0  0  0  0  0  0  0  0  0  0  0
   -0.8777    1.3509    0.4136 C   0  0  0  0  0  0  0  0  0  0  0  0
   -1.3435    1.0126   -1.0194 C   0  0  0  0  0  0  0  0  0  0  0  0
    0.6628    1.4654    0.4397 C   0  0  0  0  0  0  0  0  0  0  0  0
    0.8349   -1.0024    0.9677 C   0  0  0  0  0  0  0  0  0  0  0  0
    3.1876   -0.6732   -0.2600 H   0  0  0  0  0  0  0  0  0  0  0  0
    3.0832    0.4454    0.9887 H   0  0  0  0  0  0  0  0  0  0  0  0
    1.1496    0.5767   -2.1449 H   0  0  0  0  0  0  0  0  0  0  0  0
    1.2696   -1.1731   -1.7781 H   0  0  0  0  0  0  0  0  0  0  0  0
   -1.0574   -0.5720   -2.4936 H   0  0  0  0  0  0  0  0  0  0  0  0
   -2.2771   -1.5510   -0.5233 H   0  0  0  0  0  0  0  0  0  0  0  0
   -0.7394   -2.4226   -0.8175 H   0  0  0  0  0  0  0  0  0  0  0  0
   -1.0334   -1.9178    1.6314 H   0  0  0  0  0  0  0  0  0  0  0  0
   -1.0099    0.4741    2.4165 H   0  0  0  0  0  0  0  0  0  0  0  0
   -2.4363    0.1541    1.3803 H   0  0  0  0  0  0  0  0  0  0  0  0
   -1.3272    2.3167    0.7314 H   0  0  0  0  0  0  0  0  0  0  0  0
   -1.0394    1.8221   -1.7190 H   0  0  0  0  0  0  0  0  0  0  0  0
   -2.4532    0.9458   -1.0524 H   0  0  0  0  0  0  0  0  0  0  0  0
    0.9982    1.7330    1.4663 H   0  0  0  0  0  0  0  0  0  0  0  0
    0.9902    2.2841   -0.2387 H   0  0  0  0  0  0  0  0  0  0  0  0
    1.2845   -1.9761    0.6721 H   0  0  0  0  0  0  0  0  0  0  0  0
    1.1731   -0.7826    2.0045 H   0  0  0  0  0  0  0  0  0  0  0  0
  1  2  1  0
  2  3  1  0
  3  4  1  0
  4  5  1  0
  5  6  1  0
  6  7  1  0
  7  8  1  0
  8  9  1  0
  9  4  1  0
  8 10  1  0
 10  2  1  0
  6 11  1  0
 11  2  1  0
  1 12  1  0
  1 13  1  0
  3 14  1  0
  3 15  1  0
  4 16  1  0
  5 17  1  0
  5 18  1  0
  6 19  1  0
  7 20  1  0
  7 21  1  0
  8 22  1  0
  9 23  1  0
  9 24  1  0
 10 25  1  0
 10 26  1  0
 11 27  1  0
 11 28  1  0
M  END
> <ID>
HT0122

> <Class>
1.0

> <Clusters>
13

> <Fold>
1

$$$$