
     RDKit          3D

 68 70  0  0  0  0  0  0  0  0999 V2000
   -9.7981   -2.1830   -0.1545 C   0  0  0  0  0  0  0  0  0  0  0  0
   -9.2232   -2.1625    1.2586 C   0  0  0  0  0  0  0  0  0  0  0  0
   -8.1778   -1.0903    1.3949 C   0  0  0  0  0  0  0  0  0  0  0  0
   -8.3066    0.1229    2.0534 C   0  0  0  0  0  0  0  0  0  0  0  0
   -9.5194    0.6388    2.7610 C   0  0  0  0  0  0  0  0  0  0  0  0
   -7.0976    0.7830    1.9238 C   0  0  0  0  0  0  0  0  0  0  0  0
   -6.2357    0.0295    1.2084 N   0  0  0  0  0  0  0  0  0  0  0  0
   -4.8830    0.3992    0.8895 C   0  0  0  0  0  0  0  0  0  0  0  0
   -4.2899    1.2509    1.6074 O   0  0  0  0  0  0  0  0  0  0  0  0
   -4.2131   -0.1576   -0.2523 N   0  0  0  0  0  0  0  0  0  0  0  0
   -2.8205    0.1516   -0.5682 C   0  0  0  0  0  0  0  0  0  0  0  0
   -2.7296    1.4977   -1.2934 C   0  0  0  0  0  0  0  0  0  0  0  0
   -1.3052    1.8215   -1.6630 C   0  0  0  0  0  0  0  0  0  0  0  0
   -0.8924    1.7928   -3.0049 C   0  0  0  0  0  0  0  0  0  0  0  0
    0.4243    2.1159   -3.3455 C   0  0  0  0  0  0  0  0  0  0  0  0
    1.3420    2.4808   -2.3506 C   0  0  0  0  0  0  0  0  0  0  0  0
    0.9349    2.5043   -1.0108 C   0  0  0  0  0  0  0  0  0  0  0  0
   -0.3804    2.1778   -0.6683 C   0  0  0  0  0  0  0  0  0  0  0  0
    2.9997    2.8990   -2.7732 S   0  0  0  0  0  0  0  0  0  0  0  0
    3.4327    4.1162   -2.0038 O   0  0  0  0  0  0  0  0  0  0  0  0
    3.0907    3.2171   -4.2404 O   0  0  0  0  0  0  0  0  0  0  0  0
    4.0475    1.5633   -2.4204 N   0  0  0  0  0  0  0  0  0  0  0  0
    4.5930    1.3399   -1.1152 C   0  0  0  0  0  0  0  0  0  0  0  0
    4.3259    2.1343   -0.1726 O   0  0  0  0  0  0  0  0  0  0  0  0
    5.4478    0.2110   -0.8869 N   0  0  0  0  0  0  0  0  0  0  0  0
    6.1812    0.0174    0.3687 C   0  0  2  0  0  0  0  0  0  0  0  0
    7.5771    0.6836    0.2728 C   0  0  0  0  0  0  0  0  0  0  0  0
    8.6602   -0.3147   -0.1538 C   0  0  0  0  0  0  0  0  0  0  0  0
    8.7956   -1.4884    0.8545 C   0  0  1  0  0  0  0  0  0  0  0  0
    9.9162   -1.2222    1.8692 C   0  0  0  0  0  0  0  0  0  0  0  0
    7.4676   -1.8031    1.5903 C   0  0  0  0  0  0  0  0  0  0  0  0
    6.2544   -1.4915    0.7093 C   0  0  0  0  0  0  0  0  0  0  0  0
   -6.8833   -1.1164    0.9000 C   0  0  0  0  0  0  0  0  0  0  0  0
   -6.2993   -2.1856    0.2227 O   0  0  0  0  0  0  0  0  0  0  0  0
  -10.2721   -1.2053   -0.3877 H   0  0  0  0  0  0  0  0  0  0  0  0
   -9.0013   -2.3888   -0.9003 H   0  0  0  0  0  0  0  0  0  0  0  0
  -10.5678   -2.9794   -0.2307 H   0  0  0  0  0  0  0  0  0  0  0  0
   -8.7788   -3.1515    1.5016 H   0  0  0  0  0  0  0  0  0  0  0  0
  -10.0532   -1.9836    1.9753 H   0  0  0  0  0  0  0  0  0  0  0  0
   -9.3247    1.6472    3.1836 H   0  0  0  0  0  0  0  0  0  0  0  0
   -9.7917   -0.0492    3.5881 H   0  0  0  0  0  0  0  0  0  0  0  0
  -10.3667    0.7056    2.0463 H   0  0  0  0  0  0  0  0  0  0  0  0
   -6.8679    1.7632    2.3235 H   0  0  0  0  0  0  0  0  0  0  0  0
   -4.7500   -0.7246   -0.9451 H   0  0  0  0  0  0  0  0  0  0  0  0
   -2.4139   -0.6467   -1.2278 H   0  0  0  0  0  0  0  0  0  0  0  0
   -2.2153    0.1628    0.3652 H   0  0  0  0  0  0  0  0  0  0  0  0
   -3.1310    2.3083   -0.6474 H   0  0  0  0  0  0  0  0  0  0  0  0
   -3.3666    1.4553   -2.2051 H   0  0  0  0  0  0  0  0  0  0  0  0
   -1.5882    1.5194   -3.7883 H   0  0  0  0  0  0  0  0  0  0  0  0
    0.7237    2.0849   -4.3847 H   0  0  0  0  0  0  0  0  0  0  0  0
    1.6324    2.7817   -0.2311 H   0  0  0  0  0  0  0  0  0  0  0  0
   -0.6815    2.2121    0.3713 H   0  0  0  0  0  0  0  0  0  0  0  0
    4.2715    0.8960   -3.1923 H   0  0  0  0  0  0  0  0  0  0  0  0
    5.6890   -0.3919   -1.7070 H   0  0  0  0  0  0  0  0  0  0  0  0
    5.6295    0.5126    1.1997 H   0  0  0  0  0  0  0  0  0  0  0  0
    7.5533    1.5340   -0.4439 H   0  0  0  0  0  0  0  0  0  0  0  0
    7.8535    1.1058    1.2645 H   0  0  0  0  0  0  0  0  0  0  0  0
    8.3891   -0.7211   -1.1535 H   0  0  0  0  0  0  0  0  0  0  0  0
    9.6278    0.2195   -0.2795 H   0  0  0  0  0  0  0  0  0  0  0  0
    9.0877   -2.3929    0.2741 H   0  0  0  0  0  0  0  0  0  0  0  0
   10.0047   -2.0761    2.5751 H   0  0  0  0  0  0  0  0  0  0  0  0
    9.7078   -0.2967    2.4477 H   0  0  0  0  0  0  0  0  0  0  0  0
   10.8889   -1.1069    1.3447 H   0  0  0  0  0  0  0  0  0  0  0  0
    7.3844   -1.2053    2.5258 H   0  0  0  0  0  0  0  0  0  0  0  0
    7.4488   -2.8765    1.8784 H   0  0  0  0  0  0  0  0  0  0  0  0
    6.3283   -2.1026   -0.2174 H   0  0  0  0  0  0  0  0  0  0  0  0
    5.3245   -1.7971    1.2362 H   0  0  0  0  0  0  0  0  0  0  0  0
   -6.8099   -3.0397    0.0344 H   0  0  0  0  0  0  0  0  0  0  0  0
  1  2  1  0
  2  3  1  0
  3  4  1  0
  4  5  1  0
  4  6  2  0
  6  7  1  0
  7  8  1  0
  8  9  2  0
  8 10  1  0
 10 11  1  0
 11 12  1  0
 12 13  1  0
 13 14  2  0
 14 15  1  0
 15 16  2  0
 16 17  1  0
 17 18  2  0
 18 13  1  0
 16 19  1  0
 19 20  2  0
 19 21  2  0
 19 22  1  0
 22 23  1  0
 23 24  2  0
 23 25  1  0
 26 25  1  0
 26 27  1  0
 27 28  1  0
 28 29  1  0
 29 30  1  0
 29 31  1  0
 31 32  1  0
 32 26  1  0
  7 33  1  0
 33  3  2  0
 33 34  1  0
  1 35  1  0
  1 36  1  0
  1 37  1  0
  2 38  1  0
  2 39  1  0
  5 40  1  0
  5 41  1  0
  5 42  1  0
  6 43  1  0
 10 44  1  0
 11 45  1  0
 11 46  1  0
 12 47  1  0
 12 48  1  0
 14 49  1  0
 15 50  1  0
 17 51  1  0
 18 52  1  0
 22 53  1  0
 25 54  1  0
 26 55  1  1
 27 56  1  0
 27 57  1  0
 28 58  1  0
 28 59  1  0
 29 60  1  6
 30 61  1  0
 30 62  1  0
 30 63  1  0
 31 64  1  0
 31 65  1  0
 32 66  1  0
 32 67  1  0
 34 68  1  0
M  END
> <ID>
HT0987

> <Class>
1.0

> <Clusters>
120

> <Fold>
1

$$$$