
     RDKit          3D

 40 42  0  0  0  0  0  0  0  0999 V2000
   -0.5077   -2.1023   -0.5170 C   0  0  0  0  0  0  0  0  0  0  0  0
   -1.6268   -1.6923    0.4428 C   0  0  0  0  0  0  0  0  0  0  0  0
   -3.0235   -1.7823   -0.2402 C   0  0  0  0  0  0  0  0  0  0  0  0
   -3.5529   -0.3997   -0.1182 C   0  0  0  0  0  0  0  0  0  0  0  0
   -4.7898    0.0906   -0.5411 C   0  0  0  0  0  0  0  0  0  0  0  0
   -5.0941    1.4400   -0.2967 C   0  0  0  0  0  0  0  0  0  0  0  0
   -4.1657    2.2671    0.3650 C   0  0  0  0  0  0  0  0  0  0  0  0
   -2.9297    1.7476    0.7832 C   0  0  0  0  0  0  0  0  0  0  0  0
   -2.6514    0.4037    0.5208 C   0  0  0  0  0  0  0  0  0  0  0  0
   -1.4691   -0.2934    0.8689 N   0  0  0  0  0  0  0  0  0  0  0  0
   -0.7149    0.0663    1.9994 N   0  0  0  0  0  0  0  0  0  0  0  0
    0.7157   -0.0040    2.0119 C   0  0  0  0  0  0  0  0  0  0  0  0
    1.3032   -0.2527    3.0990 O   0  0  0  0  0  0  0  0  0  0  0  0
    1.5168    0.2428    0.7904 C   0  0  0  0  0  0  0  0  0  0  0  0
    1.0416    1.0909   -0.2218 C   0  0  0  0  0  0  0  0  0  0  0  0
    1.7999    1.3111   -1.3719 C   0  0  0  0  0  0  0  0  0  0  0  0
    3.0456    0.6960   -1.5301 C   0  0  0  0  0  0  0  0  0  0  0  0
    3.9499    1.0299   -3.0030 Cl  0  0  0  0  0  0  0  0  0  0  0  0
    3.5425   -0.1519   -0.5180 C   0  0  0  0  0  0  0  0  0  0  0  0
    2.7767   -0.3603    0.6404 C   0  0  0  0  0  0  0  0  0  0  0  0
    5.1184   -0.9444   -0.6648 S   0  0  0  0  0  0  0  0  0  0  0  0
    5.2529   -2.0204    0.3762 O   0  0  0  0  0  0  0  0  0  0  0  0
    5.2489   -1.5791   -2.0209 O   0  0  0  0  0  0  0  0  0  0  0  0
    6.3820    0.2140   -0.4373 N   0  0  0  0  0  0  0  0  0  0  0  0
   -0.7189   -3.1071   -0.9406 H   0  0  0  0  0  0  0  0  0  0  0  0
   -0.4184   -1.3700   -1.3478 H   0  0  0  0  0  0  0  0  0  0  0  0
    0.4569   -2.1636    0.0254 H   0  0  0  0  0  0  0  0  0  0  0  0
   -1.6058   -2.3581    1.3342 H   0  0  0  0  0  0  0  0  0  0  0  0
   -2.9625   -2.0668   -1.3135 H   0  0  0  0  0  0  0  0  0  0  0  0
   -3.6840   -2.4922    0.3025 H   0  0  0  0  0  0  0  0  0  0  0  0
   -5.4997   -0.5542   -1.0425 H   0  0  0  0  0  0  0  0  0  0  0  0
   -6.0461    1.8444   -0.6153 H   0  0  0  0  0  0  0  0  0  0  0  0
   -4.4055    3.3055    0.5526 H   0  0  0  0  0  0  0  0  0  0  0  0
   -2.2103    2.3766    1.2911 H   0  0  0  0  0  0  0  0  0  0  0  0
   -1.2142    0.3143    2.8832 H   0  0  0  0  0  0  0  0  0  0  0  0
    0.0922    1.5994   -0.1192 H   0  0  0  0  0  0  0  0  0  0  0  0
    1.4179    1.9696   -2.1418 H   0  0  0  0  0  0  0  0  0  0  0  0
    3.1534   -1.0073    1.4225 H   0  0  0  0  0  0  0  0  0  0  0  0
    6.2785    0.9383   -1.1821 H   0  0  0  0  0  0  0  0  0  0  0  0
    6.1982    0.6905    0.4740 H   0  0  0  0  0  0  0  0  0  0  0  0
  1  2  1  0
  2  3  1  0
  3  4  1  0
  4  5  2  0
  5  6  1  0
  6  7  2  0
  7  8  1  0
  8  9  2  0
  9  4  1  0
  9 10  1  0
 10  2  1  0
 10 11  1  0
 11 12  1  0
 12 13  2  0
 12 14  1  0
 14 15  2  0
 15 16  1  0
 16 17  2  0
 17 18  1  0
 17 19  1  0
 19 20  2  0
 20 14  1  0
 19 21  1  0
 21 22  2  0
 21 23  2  0
 21 24  1  0
  1 25  1  0
  1 26  1  0
  1 27  1  0
  2 28  1  0
  3 29  1  0
  3 30  1  0
  5 31  1  0
  6 32  1  0
  7 33  1  0
  8 34  1  0
 11 35  1  0
 15 36  1  0
 16 37  1  0
 20 38  1  0
 24 39  1  0
 24 40  1  0
M  END
> <ID>
HT1089

> <Class>
1.0

> <Clusters>
132

> <Fold>
1

$$$$