
     RDKit          3D

 61 64  0  0  0  0  0  0  0  0999 V2000
    6.3131    1.3863    1.3742 C   0  0  0  0  0  0  0  0  0  0  0  0
    6.2202    0.4872    0.1888 C   0  0  0  0  0  0  0  0  0  0  0  0
    7.2405   -0.1457   -0.1963 O   0  0  0  0  0  0  0  0  0  0  0  0
    5.0012    0.3530   -0.4800 O   0  0  0  0  0  0  0  0  0  0  0  0
    4.8255   -0.5154   -1.5934 C   0  0  0  0  0  0  0  0  0  0  0  0
    3.3918   -0.4715   -2.0476 C   0  0  0  0  0  0  0  0  0  0  0  0
    3.1350    0.1163   -3.0884 O   0  0  0  0  0  0  0  0  0  0  0  0
    2.2487   -1.1715   -1.3033 C   0  0  1  0  0  0  0  0  0  0  0  0
    1.6921   -2.1337   -2.1739 O   0  0  0  0  0  0  0  0  0  0  0  0
    2.6510   -1.8832    0.0289 C   0  0  0  0  0  0  0  0  0  0  0  0
    1.4519   -1.7523    0.9890 C   0  0  0  0  0  0  0  0  0  0  0  0
    0.3603   -1.0943    0.1515 C   0  0  1  0  0  0  0  0  0  0  0  0
   -0.8108   -0.3605    0.8485 C   0  0  2  0  0  0  0  0  0  0  0  0
   -1.4889   -1.2007    1.9725 C   0  0  0  0  0  0  0  0  0  0  0  0
   -2.9116   -1.6725    1.6485 C   0  0  0  0  0  0  0  0  0  0  0  0
   -3.7912   -0.5471    1.1440 C   0  0  0  0  0  0  0  0  0  0  0  0
   -5.1204   -0.6466    1.3167 C   0  0  0  0  0  0  0  0  0  0  0  0
   -6.0598    0.2743    0.6582 C   0  0  0  0  0  0  0  0  0  0  0  0
   -7.2895    0.1940    0.9170 O   0  0  0  0  0  0  0  0  0  0  0  0
   -5.5758    1.3093   -0.3123 C   0  0  0  0  0  0  0  0  0  0  0  0
   -4.1601    0.9893   -0.8171 C   0  0  0  0  0  0  0  0  0  0  0  0
   -3.1791    0.5998    0.3305 C   0  0  1  0  0  0  0  0  0  0  0  0
   -2.9793    1.8185    1.2709 C   0  0  0  0  0  0  0  0  0  0  0  0
   -1.8208    0.0735   -0.2677 C   0  0  1  0  0  0  0  0  0  0  0  0
   -1.1467    0.9512   -1.3713 C   0  0  1  0  0  0  0  0  0  0  0  0
   -0.8731    2.2406   -0.8922 O   0  0  0  0  0  0  0  0  0  0  0  0
    0.1405    0.2819   -1.9417 C   0  0  0  0  0  0  0  0  0  0  0  0
    1.1277   -0.1888   -0.8347 C   0  0  2  0  0  0  0  0  0  0  0  0
    1.7864    1.0609   -0.1509 C   0  0  0  0  0  0  0  0  0  0  0  0
    6.6211    0.7997    2.2647 H   0  0  0  0  0  0  0  0  0  0  0  0
    7.0616    2.1835    1.1814 H   0  0  0  0  0  0  0  0  0  0  0  0
    5.3290    1.8590    1.5743 H   0  0  0  0  0  0  0  0  0  0  0  0
    5.1064   -1.5570   -1.3256 H   0  0  0  0  0  0  0  0  0  0  0  0
    5.4923   -0.1820   -2.4192 H   0  0  0  0  0  0  0  0  0  0  0  0
    2.4135   -2.7670   -2.4307 H   0  0  0  0  0  0  0  0  0  0  0  0
    2.8975   -2.9539   -0.1433 H   0  0  0  0  0  0  0  0  0  0  0  0
    3.5284   -1.4151    0.5173 H   0  0  0  0  0  0  0  0  0  0  0  0
    1.7118   -1.1144    1.8623 H   0  0  0  0  0  0  0  0  0  0  0  0
    1.1368   -2.7549    1.3508 H   0  0  0  0  0  0  0  0  0  0  0  0
   -0.1072   -1.9327   -0.4200 H   0  0  0  0  0  0  0  0  0  0  0  0
   -0.4084    0.5395    1.3485 H   0  0  0  0  0  0  0  0  0  0  0  0
   -0.8863   -2.0907    2.2421 H   0  0  0  0  0  0  0  0  0  0  0  0
   -1.5424   -0.5837    2.8968 H   0  0  0  0  0  0  0  0  0  0  0  0
   -2.8671   -2.4681    0.8737 H   0  0  0  0  0  0  0  0  0  0  0  0
   -3.3453   -2.1239    2.5684 H   0  0  0  0  0  0  0  0  0  0  0  0
   -5.5325   -1.4660    1.8939 H   0  0  0  0  0  0  0  0  0  0  0  0
   -5.5934    2.3047    0.1786 H   0  0  0  0  0  0  0  0  0  0  0  0
   -6.2672    1.3517   -1.1814 H   0  0  0  0  0  0  0  0  0  0  0  0
   -4.2291    0.1515   -1.5468 H   0  0  0  0  0  0  0  0  0  0  0  0
   -3.7878    1.8821   -1.3631 H   0  0  0  0  0  0  0  0  0  0  0  0
   -2.6652    2.7194    0.7073 H   0  0  0  0  0  0  0  0  0  0  0  0
   -2.2367    1.6186    2.0661 H   0  0  0  0  0  0  0  0  0  0  0  0
   -3.9240    2.0725    1.7946 H   0  0  0  0  0  0  0  0  0  0  0  0
   -2.0984   -0.8577   -0.8176 H   0  0  0  0  0  0  0  0  0  0  0  0
   -1.8542    1.0318   -2.2279 H   0  0  0  0  0  0  0  0  0  0  0  0
   -0.7109    2.8159   -1.6850 H   0  0  0  0  0  0  0  0  0  0  0  0
    0.6484    0.9859   -2.6357 H   0  0  0  0  0  0  0  0  0  0  0  0
   -0.1812   -0.5875   -2.5551 H   0  0  0  0  0  0  0  0  0  0  0  0
    2.5448    0.7732    0.6044 H   0  0  0  0  0  0  0  0  0  0  0  0
    2.2943    1.6926   -0.9098 H   0  0  0  0  0  0  0  0  0  0  0  0
    1.0723    1.7208    0.3676 H   0  0  0  0  0  0  0  0  0  0  0  0
  1  2  1  0
  2  3  2  0
  2  4  1  0
  4  5  1  0
  5  6  1  0
  6  7  2  0
  6  8  1  0
  8  9  1  6
  8 10  1  0
 10 11  1  0
 12 11  1  0
 12 13  1  0
 13 14  1  0
 14 15  1  0
 15 16  1  0
 16 17  2  0
 17 18  1  0
 18 19  2  0
 18 20  1  0
 20 21  1  0
 21 22  1  0
 22 16  1  0
 22 23  1  1
 22 24  1  0
 24 13  1  0
 24 25  1  0
 25 26  1  0
 25 27  1  0
 27 28  1  0
 28  8  1  0
 28 12  1  0
 28 29  1  1
  1 30  1  0
  1 31  1  0
  1 32  1  0
  5 33  1  0
  5 34  1  0
  9 35  1  0
 10 36  1  0
 10 37  1  0
 11 38  1  0
 11 39  1  0
 12 40  1  6
 13 41  1  1
 14 42  1  0
 14 43  1  0
 15 44  1  0
 15 45  1  0
 17 46  1  0
 20 47  1  0
 20 48  1  0
 21 49  1  0
 21 50  1  0
 23 51  1  0
 23 52  1  0
 23 53  1  0
 24 54  1  6
 25 55  1  6
 26 56  1  0
 27 57  1  0
 27 58  1  0
 29 59  1  0
 29 60  1  0
 29 61  1  0
M  END
> <ID>
HT1048

> <Class>
1.0

> <Clusters>
129

> <Fold>
1

$$$$