
     RDKit          3D

 62 66  0  0  0  0  0  0  0  0999 V2000
   -5.6509    4.3550   -1.9496 O   0  0  0  0  0  0  0  0  0  0  0  0
   -4.7808    3.2716   -1.8493 C   0  0  0  0  0  0  0  0  0  0  0  0
   -3.4119    3.4988   -1.7158 C   0  0  0  0  0  0  0  0  0  0  0  0
   -2.5292    2.4243   -1.6034 C   0  0  0  0  0  0  0  0  0  0  0  0
   -3.0041    1.0972   -1.5866 C   0  0  0  0  0  0  0  0  0  0  0  0
   -2.0102   -0.0569   -1.5043 C   0  0  2  0  0  0  0  0  0  0  0  0
   -2.6716   -1.4393   -1.2465 C   0  0  2  0  0  0  0  0  0  0  0  0
   -3.9270   -1.6180   -2.1130 C   0  0  0  0  0  0  0  0  0  0  0  0
   -4.9741   -0.5216   -1.8996 C   0  0  0  0  0  0  0  0  0  0  0  0
   -4.3880    0.8675   -1.7992 C   0  0  0  0  0  0  0  0  0  0  0  0
   -5.2656    1.9603   -1.8929 C   0  0  0  0  0  0  0  0  0  0  0  0
   -2.9213   -1.7825    0.2231 C   0  0  0  0  0  0  0  0  0  0  0  0
   -3.6871   -0.9570    1.0721 C   0  0  0  0  0  0  0  0  0  0  0  0
   -3.8771   -1.2971    2.4144 C   0  0  0  0  0  0  0  0  0  0  0  0
   -3.3097   -2.4630    2.9298 C   0  0  0  0  0  0  0  0  0  0  0  0
   -2.5478   -3.2905    2.1041 C   0  0  0  0  0  0  0  0  0  0  0  0
   -2.3532   -2.9546    0.7615 C   0  0  0  0  0  0  0  0  0  0  0  0
   -0.8442    0.1728   -0.5469 C   0  0  0  0  0  0  0  0  0  0  0  0
    0.4180   -0.3568   -0.8629 C   0  0  0  0  0  0  0  0  0  0  0  0
    1.4931   -0.2126    0.0180 C   0  0  0  0  0  0  0  0  0  0  0  0
    1.3240    0.4594    1.2424 C   0  0  0  0  0  0  0  0  0  0  0  0
    2.3662    0.6278    2.1689 O   0  0  0  0  0  0  0  0  0  0  0  0
    3.7296    0.2541    1.9656 C   0  0  0  0  0  0  0  0  0  0  0  0
    4.4338    1.2728    1.0444 C   0  0  0  0  0  0  0  0  0  0  0  0
    5.7602    0.8538    0.5397 N   0  0  0  0  0  0  0  0  0  0  0  0
    5.7346   -0.2040   -0.4775 C   0  0  0  0  0  0  0  0  0  0  0  0
    6.9878   -1.0535   -0.2812 C   0  0  0  0  0  0  0  0  0  0  0  0
    7.7727   -0.3708    0.8244 C   0  0  0  0  0  0  0  0  0  0  0  0
    6.7429    0.4665    1.5533 C   0  0  0  0  0  0  0  0  0  0  0  0
    0.0658    0.9777    1.5642 C   0  0  0  0  0  0  0  0  0  0  0  0
   -1.0093    0.8371    0.6836 C   0  0  0  0  0  0  0  0  0  0  0  0
   -6.6504    4.2239   -2.0517 H   0  0  0  0  0  0  0  0  0  0  0  0
   -3.0296    4.5115   -1.7042 H   0  0  0  0  0  0  0  0  0  0  0  0
   -1.4696    2.6318   -1.5244 H   0  0  0  0  0  0  0  0  0  0  0  0
   -1.5802   -0.1084   -2.5308 H   0  0  0  0  0  0  0  0  0  0  0  0
   -1.9459   -2.1883   -1.6394 H   0  0  0  0  0  0  0  0  0  0  0  0
   -3.6223   -1.6080   -3.1835 H   0  0  0  0  0  0  0  0  0  0  0  0
   -4.3865   -2.6112   -1.9149 H   0  0  0  0  0  0  0  0  0  0  0  0
   -5.5710   -0.7373   -0.9886 H   0  0  0  0  0  0  0  0  0  0  0  0
   -5.6781   -0.5568   -2.7599 H   0  0  0  0  0  0  0  0  0  0  0  0
   -6.3284    1.7908   -2.0178 H   0  0  0  0  0  0  0  0  0  0  0  0
   -4.1157   -0.0331    0.7185 H   0  0  0  0  0  0  0  0  0  0  0  0
   -4.4598   -0.6504    3.0579 H   0  0  0  0  0  0  0  0  0  0  0  0
   -3.4568   -2.7231    3.9700 H   0  0  0  0  0  0  0  0  0  0  0  0
   -2.1052   -4.1934    2.5048 H   0  0  0  0  0  0  0  0  0  0  0  0
   -1.7558   -3.6129    0.1432 H   0  0  0  0  0  0  0  0  0  0  0  0
    0.5689   -0.8925   -1.7921 H   0  0  0  0  0  0  0  0  0  0  0  0
    2.4454   -0.6351   -0.2631 H   0  0  0  0  0  0  0  0  0  0  0  0
    4.2184    0.2696    2.9611 H   0  0  0  0  0  0  0  0  0  0  0  0
    3.7916   -0.7859    1.5866 H   0  0  0  0  0  0  0  0  0  0  0  0
    4.5511    2.2269    1.6021 H   0  0  0  0  0  0  0  0  0  0  0  0
    3.7804    1.5026    0.1753 H   0  0  0  0  0  0  0  0  0  0  0  0
    5.7477    0.2647   -1.4845 H   0  0  0  0  0  0  0  0  0  0  0  0
    4.8317   -0.8447   -0.4053 H   0  0  0  0  0  0  0  0  0  0  0  0
    7.5879   -1.1140   -1.2157 H   0  0  0  0  0  0  0  0  0  0  0  0
    6.7032   -2.0808    0.0378 H   0  0  0  0  0  0  0  0  0  0  0  0
    8.5475    0.2931    0.3808 H   0  0  0  0  0  0  0  0  0  0  0  0
    8.2571   -1.1080    1.5011 H   0  0  0  0  0  0  0  0  0  0  0  0
    6.2974   -0.1593    2.3534 H   0  0  0  0  0  0  0  0  0  0  0  0
    7.2104    1.3688    2.0024 H   0  0  0  0  0  0  0  0  0  0  0  0
   -0.0803    1.4926    2.5054 H   0  0  0  0  0  0  0  0  0  0  0  0
   -1.9687    1.2483    0.9668 H   0  0  0  0  0  0  0  0  0  0  0  0
  1  2  1  0
  2  3  2  0
  3  4  1  0
  4  5  2  0
  5  6  1  0
  6  7  1  0
  7  8  1  0
  8  9  1  0
  9 10  1  0
 10  5  1  0
 10 11  2  0
 11  2  1  0
  7 12  1  0
 12 13  2  0
 13 14  1  0
 14 15  2  0
 15 16  1  0
 16 17  2  0
 17 12  1  0
  6 18  1  0
 18 19  2  0
 19 20  1  0
 20 21  2  0
 21 22  1  0
 22 23  1  0
 23 24  1  0
 24 25  1  0
 25 26  1  0
 26 27  1  0
 27 28  1  0
 28 29  1  0
 29 25  1  0
 21 30  1  0
 30 31  2  0
 31 18  1  0
  1 32  1  0
  3 33  1  0
  4 34  1  0
  6 35  1  6
  7 36  1  6
  8 37  1  0
  8 38  1  0
  9 39  1  0
  9 40  1  0
 11 41  1  0
 13 42  1  0
 14 43  1  0
 15 44  1  0
 16 45  1  0
 17 46  1  0
 19 47  1  0
 20 48  1  0
 23 49  1  0
 23 50  1  0
 24 51  1  0
 24 52  1  0
 26 53  1  0
 26 54  1  0
 27 55  1  0
 27 56  1  0
 28 57  1  0
 28 58  1  0
 29 59  1  0
 29 60  1  0
 30 61  1  0
 31 62  1  0
M  END
> <ID>
HT1173

> <Class>
1.0

> <Clusters>
29

> <Fold>
1

$$$$