
     RDKit          3D

 17 17  0  0  0  0  0  0  0  0999 V2000
    3.3876   -0.7471   -0.2418 N   0  0  0  0  0  0  0  0  0  0  0  0
    2.0754   -0.5683    0.2249 N   0  0  0  0  0  0  0  0  0  0  0  0
    1.0842    0.1073   -0.5662 C   0  0  0  0  0  0  0  0  0  0  0  0
    1.4288    0.6625   -1.6453 O   0  0  0  0  0  0  0  0  0  0  0  0
   -0.3319    0.1802   -0.1306 C   0  0  0  0  0  0  0  0  0  0  0  0
   -0.8778   -0.7750    0.7449 C   0  0  0  0  0  0  0  0  0  0  0  0
   -2.2182   -0.6770    1.1274 C   0  0  0  0  0  0  0  0  0  0  0  0
   -2.9929    0.3323    0.6510 N   0  0  0  0  0  0  0  0  0  0  0  0
   -2.4984    1.2655   -0.2036 C   0  0  0  0  0  0  0  0  0  0  0  0
   -1.1642    1.2049   -0.6131 C   0  0  0  0  0  0  0  0  0  0  0  0
    3.3361   -1.2831   -1.1380 H   0  0  0  0  0  0  0  0  0  0  0  0
    3.7843    0.1972   -0.4519 H   0  0  0  0  0  0  0  0  0  0  0  0
    1.8484   -0.8999    1.1876 H   0  0  0  0  0  0  0  0  0  0  0  0
   -0.2904   -1.6046    1.1138 H   0  0  0  0  0  0  0  0  0  0  0  0
   -2.6447   -1.4097    1.7995 H   0  0  0  0  0  0  0  0  0  0  0  0
   -3.1415    2.0561   -0.5665 H   0  0  0  0  0  0  0  0  0  0  0  0
   -0.7847    1.9586   -1.2920 H   0  0  0  0  0  0  0  0  0  0  0  0
  1  2  1  0
  2  3  1  0
  3  4  2  0
  3  5  1  0
  5  6  2  0
  6  7  1  0
  7  8  2  0
  8  9  1  0
  9 10  2  0
 10  5  1  0
  1 11  1  0
  1 12  1  0
  2 13  1  0
  6 14  1  0
  7 15  1  0
  9 16  1  0
 10 17  1  0
M  END
> <ID>
HT1135

> <Class>
1.0

> <Clusters>
137

> <Fold>
1

$$$$