
     RDKit          3D

 33 33  0  0  0  0  0  0  0  0999 V2000
   -3.1867   -0.0180    1.5398 C   0  0  0  0  0  0  0  0  0  0  0  0
   -3.3642   -0.3943    0.0627 C   0  0  0  0  0  0  0  0  0  0  0  0
   -3.4192    0.8625   -0.8162 C   0  0  0  0  0  0  0  0  0  0  0  0
   -2.2928   -1.4000   -0.4190 C   0  0  0  0  0  0  0  0  0  0  0  0
   -0.8817   -0.8632   -0.3577 C   0  0  0  0  0  0  0  0  0  0  0  0
   -0.1014   -1.0479    0.7941 C   0  0  0  0  0  0  0  0  0  0  0  0
    1.2073   -0.5613    0.8471 C   0  0  0  0  0  0  0  0  0  0  0  0
    1.7655    0.1068   -0.2581 C   0  0  0  0  0  0  0  0  0  0  0  0
    0.9851    0.2818   -1.4133 C   0  0  0  0  0  0  0  0  0  0  0  0
   -0.3237   -0.2053   -1.4649 C   0  0  0  0  0  0  0  0  0  0  0  0
    3.1782    0.6507   -0.2042 C   0  0  1  0  0  0  0  0  0  0  0  0
    3.2603    1.8299    0.7759 C   0  0  0  0  0  0  0  0  0  0  0  0
    4.1567   -0.4523    0.1263 C   0  0  0  0  0  0  0  0  0  0  0  0
    4.8300   -0.4252    1.1915 O   0  0  0  0  0  0  0  0  0  0  0  0
    4.3228   -1.5204   -0.7509 O   0  0  0  0  0  0  0  0  0  0  0  0
   -4.0524    0.5876    1.8830 H   0  0  0  0  0  0  0  0  0  0  0  0
   -3.1354   -0.9337    2.1664 H   0  0  0  0  0  0  0  0  0  0  0  0
   -2.2612    0.5771    1.6906 H   0  0  0  0  0  0  0  0  0  0  0  0
   -4.3494   -0.9030   -0.0303 H   0  0  0  0  0  0  0  0  0  0  0  0
   -2.4969    1.4702   -0.6999 H   0  0  0  0  0  0  0  0  0  0  0  0
   -4.2901    1.4888   -0.5275 H   0  0  0  0  0  0  0  0  0  0  0  0
   -3.5354    0.5802   -1.8842 H   0  0  0  0  0  0  0  0  0  0  0  0
   -2.3636   -2.3270    0.1917 H   0  0  0  0  0  0  0  0  0  0  0  0
   -2.5269   -1.7091   -1.4616 H   0  0  0  0  0  0  0  0  0  0  0  0
   -0.5089   -1.5640    1.6546 H   0  0  0  0  0  0  0  0  0  0  0  0
    1.7875   -0.7081    1.7495 H   0  0  0  0  0  0  0  0  0  0  0  0
    1.3887    0.7949   -2.2772 H   0  0  0  0  0  0  0  0  0  0  0  0
   -0.9053   -0.0634   -2.3674 H   0  0  0  0  0  0  0  0  0  0  0  0
    3.4673    1.0435   -1.2041 H   0  0  0  0  0  0  0  0  0  0  0  0
    2.5450    2.6248    0.4739 H   0  0  0  0  0  0  0  0  0  0  0  0
    4.2832    2.2634    0.7658 H   0  0  0  0  0  0  0  0  0  0  0  0
    3.0181    1.5073    1.8112 H   0  0  0  0  0  0  0  0  0  0  0  0
    3.7994   -1.5731   -1.6168 H   0  0  0  0  0  0  0  0  0  0  0  0
  1  2  1  0
  2  3  1  0
  2  4  1  0
  4  5  1  0
  5  6  2  0
  6  7  1  0
  7  8  2  0
  8  9  1  0
  9 10  2  0
 10  5  1  0
  8 11  1  0
 11 12  1  0
 11 13  1  0
 13 14  2  0
 13 15  1  0
  1 16  1  0
  1 17  1  0
  1 18  1  0
  2 19  1  0
  3 20  1  0
  3 21  1  0
  3 22  1  0
  4 23  1  0
  4 24  1  0
  6 25  1  0
  7 26  1  0
  9 27  1  0
 10 28  1  0
 11 29  1  6
 12 30  1  0
 12 31  1  0
 12 32  1  0
 15 33  1  0
M  END
> <ID>
HT1069

> <Class>
1.0

> <Clusters>
176

> <Fold>
1

$$$$