
     RDKit          3D

 53 55  0  0  0  0  0  0  0  0999 V2000
    6.3243    1.5720   -1.3657 O   0  0  0  0  0  0  0  0  0  0  0  0
    5.1792    0.8642   -0.9810 C   0  0  0  0  0  0  0  0  0  0  0  0
    5.5137   -0.6202   -0.8563 C   0  0  0  0  0  0  0  0  0  0  0  0
    4.3394   -1.3669   -0.6007 O   0  0  0  0  0  0  0  0  0  0  0  0
    4.1856   -1.5981    0.7834 C   0  0  0  0  0  0  0  0  0  0  0  0
    2.8164   -2.2426    1.0761 C   0  0  0  0  0  0  0  0  0  0  0  0
    1.6354   -1.4153    0.7318 N   0  0  0  0  0  0  0  0  0  0  0  0
    1.7165   -0.0120    1.1666 C   0  0  0  0  0  0  0  0  0  0  0  0
    0.3216    0.6409    1.0917 C   0  0  0  0  0  0  0  0  0  0  0  0
   -0.6011   -0.0900    0.1816 N   0  0  0  0  0  0  0  0  0  0  0  0
    0.1347   -0.4996   -1.0365 C   0  0  0  0  0  0  0  0  0  0  0  0
    1.2141   -1.5379   -0.6789 C   0  0  0  0  0  0  0  0  0  0  0  0
   -1.7954    0.7333   -0.1610 C   0  0  0  0  0  0  0  0  0  0  0  0
   -2.8131   -0.0477   -0.9784 C   0  0  0  0  0  0  0  0  0  0  0  0
   -3.0993   -1.3980   -0.6953 C   0  0  0  0  0  0  0  0  0  0  0  0
   -4.0526   -2.0915   -1.4466 C   0  0  0  0  0  0  0  0  0  0  0  0
   -4.7337   -1.4469   -2.4815 C   0  0  0  0  0  0  0  0  0  0  0  0
   -4.4629   -0.1069   -2.7676 C   0  0  0  0  0  0  0  0  0  0  0  0
   -3.5097    0.5912   -2.0202 C   0  0  0  0  0  0  0  0  0  0  0  0
   -2.5005    1.2703    1.0765 C   0  0  0  0  0  0  0  0  0  0  0  0
   -2.7892    2.6430    1.1816 C   0  0  0  0  0  0  0  0  0  0  0  0
   -3.4458    3.1449    2.3090 C   0  0  0  0  0  0  0  0  0  0  0  0
   -3.8228    2.2834    3.3432 C   0  0  0  0  0  0  0  0  0  0  0  0
   -4.6455    2.9159    4.7573 Cl  0  0  0  0  0  0  0  0  0  0  0  0
   -3.5418    0.9174    3.2497 C   0  0  0  0  0  0  0  0  0  0  0  0
   -2.8863    0.4114    2.1237 C   0  0  0  0  0  0  0  0  0  0  0  0
    6.0488    2.5228   -1.4367 H   0  0  0  0  0  0  0  0  0  0  0  0
    4.3799    0.9983   -1.7441 H   0  0  0  0  0  0  0  0  0  0  0  0
    4.8143    1.2491   -0.0035 H   0  0  0  0  0  0  0  0  0  0  0  0
    6.3157   -0.7728   -0.0948 H   0  0  0  0  0  0  0  0  0  0  0  0
    5.9307   -0.9665   -1.8259 H   0  0  0  0  0  0  0  0  0  0  0  0
    4.2978   -0.6640    1.3776 H   0  0  0  0  0  0  0  0  0  0  0  0
    4.9697   -2.3103    1.1261 H   0  0  0  0  0  0  0  0  0  0  0  0
    2.7593   -3.2245    0.5557 H   0  0  0  0  0  0  0  0  0  0  0  0
    2.7723   -2.4696    2.1631 H   0  0  0  0  0  0  0  0  0  0  0  0
    2.0918    0.0493    2.2123 H   0  0  0  0  0  0  0  0  0  0  0  0
    2.4155    0.5520    0.5094 H   0  0  0  0  0  0  0  0  0  0  0  0
    0.4381    1.7024    0.7742 H   0  0  0  0  0  0  0  0  0  0  0  0
   -0.1064    0.6389    2.1169 H   0  0  0  0  0  0  0  0  0  0  0  0
    0.6118    0.3874   -1.5142 H   0  0  0  0  0  0  0  0  0  0  0  0
   -0.5406   -0.9554   -1.7913 H   0  0  0  0  0  0  0  0  0  0  0  0
    2.0667   -1.4148   -1.3761 H   0  0  0  0  0  0  0  0  0  0  0  0
    0.7937   -2.5557   -0.8329 H   0  0  0  0  0  0  0  0  0  0  0  0
   -1.4530    1.5993   -0.7758 H   0  0  0  0  0  0  0  0  0  0  0  0
   -2.5756   -1.9198    0.0946 H   0  0  0  0  0  0  0  0  0  0  0  0
   -4.2624   -3.1303   -1.2267 H   0  0  0  0  0  0  0  0  0  0  0  0
   -5.4719   -1.9855   -3.0615 H   0  0  0  0  0  0  0  0  0  0  0  0
   -4.9937    0.3925   -3.5678 H   0  0  0  0  0  0  0  0  0  0  0  0
   -3.3188    1.6320   -2.2510 H   0  0  0  0  0  0  0  0  0  0  0  0
   -2.5094    3.3266    0.3898 H   0  0  0  0  0  0  0  0  0  0  0  0
   -3.6619    4.2035    2.3768 H   0  0  0  0  0  0  0  0  0  0  0  0
   -3.8285    0.2469    4.0498 H   0  0  0  0  0  0  0  0  0  0  0  0
   -2.6655   -0.6461    2.0788 H   0  0  0  0  0  0  0  0  0  0  0  0
  1  2  1  0
  2  3  1  0
  3  4  1  0
  4  5  1  0
  5  6  1  0
  6  7  1  0
  7  8  1  0
  8  9  1  0
  9 10  1  0
 10 11  1  0
 11 12  1  0
 12  7  1  0
 10 13  1  0
 13 14  1  0
 14 15  2  0
 15 16  1  0
 16 17  2  0
 17 18  1  0
 18 19  2  0
 19 14  1  0
 13 20  1  0
 20 21  2  0
 21 22  1  0
 22 23  2  0
 23 24  1  0
 23 25  1  0
 25 26  2  0
 26 20  1  0
  1 27  1  0
  2 28  1  0
  2 29  1  0
  3 30  1  0
  3 31  1  0
  5 32  1  0
  5 33  1  0
  6 34  1  0
  6 35  1  0
  8 36  1  0
  8 37  1  0
  9 38  1  0
  9 39  1  0
 11 40  1  0
 11 41  1  0
 12 42  1  0
 12 43  1  0
 13 44  1  0
 15 45  1  0
 16 46  1  0
 17 47  1  0
 18 48  1  0
 19 49  1  0
 21 50  1  0
 22 51  1  0
 25 52  1  0
 26 53  1  0
M  END
> <ID>
HT1064

> <Class>
1.0

> <Clusters>
50

> <Fold>
1

$$$$