
     RDKit          3D

 23 24  0  0  0  0  0  0  0  0999 V2000
    4.5997    1.0714   -0.2041 N   0  0  0  0  0  0  0  0  0  0  0  0
    3.2009    0.8113   -0.1153 C   0  0  0  0  0  0  0  0  0  0  0  0
    2.3544    1.7728    0.3323 N   0  0  0  0  0  0  0  0  0  0  0  0
    1.0443    1.5428    0.4170 N   0  0  0  0  0  0  0  0  0  0  0  0
    0.5093    0.3440    0.0638 C   0  0  0  0  0  0  0  0  0  0  0  0
    1.3782   -0.6667   -0.3924 C   0  0  0  0  0  0  0  0  0  0  0  0
    0.9077   -1.9737   -0.7364 N   0  0  0  0  0  0  0  0  0  0  0  0
    2.7078   -0.4012   -0.4715 N   0  0  0  0  0  0  0  0  0  0  0  0
   -0.9548    0.1618    0.1436 C   0  0  0  0  0  0  0  0  0  0  0  0
   -1.6797   -0.0928   -1.0321 C   0  0  0  0  0  0  0  0  0  0  0  0
   -3.0667   -0.2397   -0.9895 C   0  0  0  0  0  0  0  0  0  0  0  0
   -3.7453   -0.1268    0.2241 C   0  0  0  0  0  0  0  0  0  0  0  0
   -3.0413    0.1340    1.4043 C   0  0  0  0  0  0  0  0  0  0  0  0
   -3.9404    0.2659    2.9107 Cl  0  0  0  0  0  0  0  0  0  0  0  0
   -1.6417    0.2834    1.3715 C   0  0  0  0  0  0  0  0  0  0  0  0
   -0.7560    0.5824    2.8697 Cl  0  0  0  0  0  0  0  0  0  0  0  0
    5.2539    0.3328   -0.5458 H   0  0  0  0  0  0  0  0  0  0  0  0
    4.9828    2.0027    0.0717 H   0  0  0  0  0  0  0  0  0  0  0  0
    1.5775   -2.6876   -1.0998 H   0  0  0  0  0  0  0  0  0  0  0  0
   -0.0825   -2.2650   -0.5838 H   0  0  0  0  0  0  0  0  0  0  0  0
   -1.1689   -0.1723   -1.9842 H   0  0  0  0  0  0  0  0  0  0  0  0
   -3.6174   -0.4378   -1.9001 H   0  0  0  0  0  0  0  0  0  0  0  0
   -4.8216   -0.2418    0.2465 H   0  0  0  0  0  0  0  0  0  0  0  0
  1  2  1  0
  2  3  2  0
  3  4  1  0
  4  5  2  0
  5  6  1  0
  6  7  1  0
  6  8  2  0
  8  2  1  0
  5  9  1  0
  9 10  2  0
 10 11  1  0
 11 12  2  0
 12 13  1  0
 13 14  1  0
 13 15  2  0
 15  9  1  0
 15 16  1  0
  1 17  1  0
  1 18  1  0
  7 19  1  0
  7 20  1  0
 10 21  1  0
 11 22  1  0
 12 23  1  0
M  END
> <ID>
HT1169

> <Class>
1.0

> <Clusters>
60

> <Fold>
1

$$$$