
     RDKit          3D

 42 44  0  0  0  0  0  0  0  0999 V2000
    1.1615    0.9132   -2.5371 O   0  0  0  0  0  0  0  0  0  0  0  0
    0.8944    0.8853   -1.1534 C   0  0  2  0  0  0  0  0  0  0  0  0
    2.0403    0.1508   -0.4048 C   0  0  1  0  0  0  0  0  0  0  0  0
    3.3987    0.8250   -0.7079 C   0  0  0  0  0  0  0  0  0  0  0  0
    4.5321    0.1512    0.0695 C   0  0  0  0  0  0  0  0  0  0  0  0
    4.2048    0.1008    1.5613 C   0  0  0  0  0  0  0  0  0  0  0  0
    2.8436   -0.5613    1.7786 C   0  0  0  0  0  0  0  0  0  0  0  0
    1.7934    0.1659    1.0527 N   0  0  0  0  0  0  0  0  0  0  0  0
   -0.4438    0.1825   -0.9351 C   0  0  0  0  0  0  0  0  0  0  0  0
   -0.6758   -1.0080   -1.6481 C   0  0  0  0  0  0  0  0  0  0  0  0
   -1.8983   -1.6729   -1.5436 C   0  0  0  0  0  0  0  0  0  0  0  0
   -2.8698   -1.1665   -0.7452 N   0  0  0  0  0  0  0  0  0  0  0  0
   -2.7010   -0.0369   -0.0074 C   0  0  0  0  0  0  0  0  0  0  0  0
   -3.7535    0.4171    0.8203 C   0  0  0  0  0  0  0  0  0  0  0  0
   -3.5509    1.5529    1.6203 C   0  0  0  0  0  0  0  0  0  0  0  0
   -2.3314    2.2234    1.6011 C   0  0  0  0  0  0  0  0  0  0  0  0
   -1.2955    1.7884    0.7766 C   0  0  0  0  0  0  0  0  0  0  0  0
   -1.4645    0.6650   -0.0627 C   0  0  0  0  0  0  0  0  0  0  0  0
   -5.0705   -0.3300    0.8663 C   0  0  0  0  0  0  0  0  0  0  0  0
   -5.5991   -0.4203   -0.4091 F   0  0  0  0  0  0  0  0  0  0  0  0
   -5.9966    0.3062    1.6754 F   0  0  0  0  0  0  0  0  0  0  0  0
   -4.8597   -1.6047    1.3601 F   0  0  0  0  0  0  0  0  0  0  0  0
   -2.1518   -2.9255   -2.3305 C   0  0  0  0  0  0  0  0  0  0  0  0
   -3.3867   -3.4608   -2.0079 F   0  0  0  0  0  0  0  0  0  0  0  0
   -2.1285   -2.6352   -3.6822 F   0  0  0  0  0  0  0  0  0  0  0  0
   -1.1728   -3.8610   -2.0484 F   0  0  0  0  0  0  0  0  0  0  0  0
    1.6169    1.7716   -2.7433 H   0  0  0  0  0  0  0  0  0  0  0  0
    0.8569    1.9317   -0.7878 H   0  0  0  0  0  0  0  0  0  0  0  0
    2.0821   -0.9028   -0.7677 H   0  0  0  0  0  0  0  0  0  0  0  0
    3.6311    0.7535   -1.7923 H   0  0  0  0  0  0  0  0  0  0  0  0
    3.3556    1.9019   -0.4310 H   0  0  0  0  0  0  0  0  0  0  0  0
    5.4756    0.7180   -0.0839 H   0  0  0  0  0  0  0  0  0  0  0  0
    4.6847   -0.8818   -0.3140 H   0  0  0  0  0  0  0  0  0  0  0  0
    4.1882    1.1322    1.9775 H   0  0  0  0  0  0  0  0  0  0  0  0
    4.9897   -0.4779    2.0943 H   0  0  0  0  0  0  0  0  0  0  0  0
    2.6109   -0.5467    2.8655 H   0  0  0  0  0  0  0  0  0  0  0  0
    2.8788   -1.6260    1.4534 H   0  0  0  0  0  0  0  0  0  0  0  0
    0.9007   -0.3431    1.2489 H   0  0  0  0  0  0  0  0  0  0  0  0
    0.0903   -1.4118   -2.3000 H   0  0  0  0  0  0  0  0  0  0  0  0
   -4.3292    1.9210    2.2759 H   0  0  0  0  0  0  0  0  0  0  0  0
   -2.1838    3.0850    2.2398 H   0  0  0  0  0  0  0  0  0  0  0  0
   -0.3672    2.3305    0.8466 H   0  0  0  0  0  0  0  0  0  0  0  0
  2  1  1  0
  3  2  1  0
  3  4  1  0
  4  5  1  0
  5  6  1  0
  6  7  1  0
  7  8  1  0
  8  3  1  0
  2  9  1  0
  9 10  2  0
 10 11  1  0
 11 12  2  0
 12 13  1  0
 13 14  2  0
 14 15  1  0
 15 16  2  0
 16 17  1  0
 17 18  2  0
 18  9  1  0
 18 13  1  0
 14 19  1  0
 19 20  1  0
 19 21  1  0
 19 22  1  0
 11 23  1  0
 23 24  1  0
 23 25  1  0
 23 26  1  0
  1 27  1  0
  2 28  1  1
  3 29  1  6
  4 30  1  0
  4 31  1  0
  5 32  1  0
  5 33  1  0
  6 34  1  0
  6 35  1  0
  7 36  1  0
  7 37  1  0
  8 38  1  0
 10 39  1  0
 15 40  1  0
 16 41  1  0
 17 42  1  0
M  END
> <ID>
HT1289

> <Class>
1.0

> <Clusters>
90

> <Fold>
1

$$$$