
     RDKit          3D

 40 42  0  0  0  0  0  0  0  0999 V2000
    1.5246   -1.9313    1.0007 N   0  0  0  0  0  0  0  0  0  0  0  0
    2.1120   -1.4474   -0.2520 C   0  0  1  0  0  0  0  0  0  0  0  0
    1.0367   -0.8086   -1.0973 C   0  0  0  0  0  0  0  0  0  0  0  0
    0.8959   -1.1743   -2.2963 O   0  0  0  0  0  0  0  0  0  0  0  0
    0.1672    0.1931   -0.5472 N   0  0  0  0  0  0  0  0  0  0  0  0
   -0.9201    0.7790   -1.3350 C   0  0  1  0  0  0  0  0  0  0  0  0
   -2.1381   -0.0094   -1.3702 C   0  0  1  0  0  0  0  0  0  0  0  0
   -2.2227   -1.3488   -0.6176 C   0  0  0  0  0  0  0  0  0  0  0  0
   -3.7047   -1.6758   -0.3101 C   0  0  0  0  0  0  0  0  0  0  0  0
   -4.4783   -0.5239    0.3262 C   0  0  0  0  0  0  0  0  0  0  0  0
   -4.0590    0.7564    0.1807 C   0  0  0  0  0  0  0  0  0  0  0  0
   -2.8783    0.9496   -0.5931 N   0  0  0  0  0  0  0  0  0  0  0  0
   -1.6791    1.8188   -0.5632 C   0  0  0  0  0  0  0  0  0  0  0  0
   -1.3986    2.9380   -0.0604 O   0  0  0  0  0  0  0  0  0  0  0  0
   -4.7190    1.9345    0.7881 C   0  0  0  0  0  0  0  0  0  0  0  0
   -5.5724    1.8108    1.7066 O   0  0  0  0  0  0  0  0  0  0  0  0
   -4.3730    3.2095    0.3513 O   0  0  0  0  0  0  0  0  0  0  0  0
   -5.9777   -0.9506    1.1484 Cl  0  0  0  0  0  0  0  0  0  0  0  0
    3.3222   -0.5551    0.0113 C   0  0  0  0  0  0  0  0  0  0  0  0
    3.3513    0.8208   -0.3087 C   0  0  0  0  0  0  0  0  0  0  0  0
    4.4892    1.5881   -0.0405 C   0  0  0  0  0  0  0  0  0  0  0  0
    5.6119    0.9996    0.5434 C   0  0  0  0  0  0  0  0  0  0  0  0
    5.6016   -0.3597    0.8579 C   0  0  0  0  0  0  0  0  0  0  0  0
    4.4675   -1.1325    0.5927 C   0  0  0  0  0  0  0  0  0  0  0  0
    2.1686   -2.6342    1.4305 H   0  0  0  0  0  0  0  0  0  0  0  0
    1.4383   -1.1389    1.6784 H   0  0  0  0  0  0  0  0  0  0  0  0
    2.4830   -2.3303   -0.8215 H   0  0  0  0  0  0  0  0  0  0  0  0
    0.3444    0.5424    0.4220 H   0  0  0  0  0  0  0  0  0  0  0  0
   -0.5833    1.1590   -2.3244 H   0  0  0  0  0  0  0  0  0  0  0  0
   -2.5637   -0.0873   -2.3965 H   0  0  0  0  0  0  0  0  0  0  0  0
   -1.6764   -1.2959    0.3498 H   0  0  0  0  0  0  0  0  0  0  0  0
   -1.7747   -2.1577   -1.2332 H   0  0  0  0  0  0  0  0  0  0  0  0
   -4.2202   -1.9682   -1.2500 H   0  0  0  0  0  0  0  0  0  0  0  0
   -3.7320   -2.5510    0.3738 H   0  0  0  0  0  0  0  0  0  0  0  0
   -4.8022    4.0330    0.7561 H   0  0  0  0  0  0  0  0  0  0  0  0
    2.5079    1.3140   -0.7691 H   0  0  0  0  0  0  0  0  0  0  0  0
    4.5007    2.6417   -0.2883 H   0  0  0  0  0  0  0  0  0  0  0  0
    6.4911    1.5965    0.7489 H   0  0  0  0  0  0  0  0  0  0  0  0
    6.4743   -0.8168    1.3064 H   0  0  0  0  0  0  0  0  0  0  0  0
    4.4851   -2.1870    0.8381 H   0  0  0  0  0  0  0  0  0  0  0  0
  2  1  1  0
  2  3  1  0
  3  4  2  0
  3  5  1  0
  6  5  1  0
  6  7  1  0
  7  8  1  0
  8  9  1  0
  9 10  1  0
 10 11  2  0
 11 12  1  0
 12  7  1  0
 12 13  1  0
 13  6  1  0
 13 14  2  0
 11 15  1  0
 15 16  2  0
 15 17  1  0
 10 18  1  0
  2 19  1  0
 19 20  2  0
 20 21  1  0
 21 22  2  0
 22 23  1  0
 23 24  2  0
 24 19  1  0
  1 25  1  0
  1 26  1  0
  2 27  1  6
  5 28  1  0
  6 29  1  6
  7 30  1  6
  8 31  1  0
  8 32  1  0
  9 33  1  0
  9 34  1  0
 17 35  1  0
 20 36  1  0
 21 37  1  0
 22 38  1  0
 23 39  1  0
 24 40  1  0
M  END
> <ID>
HT1236

> <Class>
1.0

> <Clusters>
46

> <Fold>
1

$$$$