
     RDKit          3D

 32 34  0  0  0  0  0  0  0  0999 V2000
    3.0309    2.3910    0.3562 N   0  0  0  0  0  0  0  0  0  0  0  0
    3.0889    0.9982    0.0350 C   0  0  0  0  0  0  0  0  0  0  0  0
    4.3198    0.3861   -0.2773 C   0  0  0  0  0  0  0  0  0  0  0  0
    4.3765   -0.9851   -0.5976 C   0  0  0  0  0  0  0  0  0  0  0  0
    3.2065   -1.7601   -0.6095 C   0  0  0  0  0  0  0  0  0  0  0  0
    2.0026   -1.1338   -0.2944 C   0  0  0  0  0  0  0  0  0  0  0  0
    0.6654   -1.6642   -0.2347 C   0  0  0  0  0  0  0  0  0  0  0  0
    0.3340   -2.8512   -0.4962 O   0  0  0  0  0  0  0  0  0  0  0  0
   -0.2473   -0.6369    0.1459 N   0  0  0  0  0  0  0  0  0  0  0  0
    0.5112    0.6134    0.3030 C   0  0  0  0  0  0  0  0  0  0  0  0
    1.9320    0.2063    0.0200 C   0  0  0  0  0  0  0  0  0  0  0  0
   -1.7090   -0.7412    0.0551 C   0  0  0  0  0  0  0  0  0  0  0  0
   -2.3762   -0.0437    1.2545 C   0  0  0  0  0  0  0  0  0  0  0  0
   -3.9043   -0.0847    1.1458 C   0  0  0  0  0  0  0  0  0  0  0  0
   -4.3594    0.4908   -0.1644 C   0  0  0  0  0  0  0  0  0  0  0  0
   -5.5094    0.9957   -0.2597 O   0  0  0  0  0  0  0  0  0  0  0  0
   -3.5037    0.4474   -1.3120 N   0  0  0  0  0  0  0  0  0  0  0  0
   -2.2072   -0.1573   -1.2439 C   0  0  0  0  0  0  0  0  0  0  0  0
   -1.5067   -0.2455   -2.2881 O   0  0  0  0  0  0  0  0  0  0  0  0
    2.1247    2.8546    0.5880 H   0  0  0  0  0  0  0  0  0  0  0  0
    3.8992    2.9712    0.3640 H   0  0  0  0  0  0  0  0  0  0  0  0
    5.2324    0.9685   -0.2745 H   0  0  0  0  0  0  0  0  0  0  0  0
    5.3273   -1.4432   -0.8371 H   0  0  0  0  0  0  0  0  0  0  0  0
    3.2405   -2.8132   -0.8565 H   0  0  0  0  0  0  0  0  0  0  0  0
    0.4170    0.9954    1.3413 H   0  0  0  0  0  0  0  0  0  0  0  0
    0.1735    1.3712   -0.4355 H   0  0  0  0  0  0  0  0  0  0  0  0
   -2.0006   -1.8143    0.0779 H   0  0  0  0  0  0  0  0  0  0  0  0
   -2.0528    1.0192    1.3081 H   0  0  0  0  0  0  0  0  0  0  0  0
   -2.0630   -0.5457    2.1956 H   0  0  0  0  0  0  0  0  0  0  0  0
   -4.3425    0.4992    1.9840 H   0  0  0  0  0  0  0  0  0  0  0  0
   -4.2618   -1.1337    1.2254 H   0  0  0  0  0  0  0  0  0  0  0  0
   -3.8385    0.8456   -2.2182 H   0  0  0  0  0  0  0  0  0  0  0  0
  1  2  1  0
  2  3  2  0
  3  4  1  0
  4  5  2  0
  5  6  1  0
  6  7  1  0
  7  8  2  0
  7  9  1  0
  9 10  1  0
 10 11  1  0
 11  2  1  0
 11  6  2  0
  9 12  1  0
 12 13  1  0
 13 14  1  0
 14 15  1  0
 15 16  2  0
 15 17  1  0
 17 18  1  0
 18 12  1  0
 18 19  2  0
  1 20  1  0
  1 21  1  0
  3 22  1  0
  4 23  1  0
  5 24  1  0
 10 25  1  0
 10 26  1  0
 12 27  1  0
 13 28  1  0
 13 29  1  0
 14 30  1  0
 14 31  1  0
 17 32  1  0
M  END
> <ID>
HT1183

> <Class>
1.0

> <Clusters>
226

> <Fold>
1

$$$$