
     RDKit          3D

 43 44  0  0  0  0  0  0  0  0999 V2000
   -5.4424    0.5401    1.2513 C   0  0  0  0  0  0  0  0  0  0  0  0
   -4.5573    0.1936    0.0516 C   0  0  0  0  0  0  0  0  0  0  0  0
   -3.0401    0.2793    0.3664 C   0  0  0  0  0  0  0  0  0  0  0  0
   -2.5942   -0.9041    1.2465 C   0  0  0  0  0  0  0  0  0  0  0  0
   -2.1999    0.4382   -0.9497 C   0  0  0  0  0  0  0  0  0  0  0  0
   -2.4495   -0.6838   -1.9804 C   0  0  0  0  0  0  0  0  0  0  0  0
   -0.6741    0.7114   -0.7573 C   0  0  0  0  0  0  0  0  0  0  0  0
    0.0918   -0.4840   -0.3634 N   0  0  0  0  0  0  0  0  0  0  0  0
    1.5133   -0.4343   -0.1462 C   0  0  0  0  0  0  0  0  0  0  0  0
    2.2594   -1.6200   -0.1314 C   0  0  0  0  0  0  0  0  0  0  0  0
    3.6447   -1.5911    0.0696 C   0  0  0  0  0  0  0  0  0  0  0  0
    4.5086   -3.1249    0.0796 Cl  0  0  0  0  0  0  0  0  0  0  0  0
    4.3026   -0.3573    0.2611 C   0  0  0  0  0  0  0  0  0  0  0  0
    3.5496    0.8267    0.2669 C   0  0  0  0  0  0  0  0  0  0  0  0
    2.1658    0.7893    0.0677 C   0  0  0  0  0  0  0  0  0  0  0  0
    1.2211    2.2642    0.1286 S   0  0  0  0  0  0  0  0  0  0  0  0
    1.4776    3.0929   -1.0984 O   0  0  0  0  0  0  0  0  0  0  0  0
    1.5718    3.0518    1.3596 O   0  0  0  0  0  0  0  0  0  0  0  0
   -0.4512    1.8111    0.1927 N   0  0  0  0  0  0  0  0  0  0  0  0
    6.0499   -0.2690    0.5272 S   0  0  0  0  0  0  0  0  0  0  0  0
    6.7669   -1.1146   -0.4875 O   0  0  0  0  0  0  0  0  0  0  0  0
    6.5216    1.1506    0.3787 O   0  0  0  0  0  0  0  0  0  0  0  0
    6.4300   -0.8202    2.1215 N   0  0  0  0  0  0  0  0  0  0  0  0
   -6.5038    0.5746    0.9268 H   0  0  0  0  0  0  0  0  0  0  0  0
   -5.3552   -0.2269    2.0473 H   0  0  0  0  0  0  0  0  0  0  0  0
   -5.1704    1.5352    1.6630 H   0  0  0  0  0  0  0  0  0  0  0  0
   -4.8102    0.9113   -0.7593 H   0  0  0  0  0  0  0  0  0  0  0  0
   -4.8201   -0.8254   -0.3074 H   0  0  0  0  0  0  0  0  0  0  0  0
   -2.8920    1.2058    0.9622 H   0  0  0  0  0  0  0  0  0  0  0  0
   -2.6873   -1.8680    0.7062 H   0  0  0  0  0  0  0  0  0  0  0  0
   -1.5507   -0.7687    1.5919 H   0  0  0  0  0  0  0  0  0  0  0  0
   -3.2106   -0.9638    2.1656 H   0  0  0  0  0  0  0  0  0  0  0  0
   -2.5836    1.3655   -1.4338 H   0  0  0  0  0  0  0  0  0  0  0  0
   -1.7873   -0.5518   -2.8625 H   0  0  0  0  0  0  0  0  0  0  0  0
   -2.2687   -1.6899   -1.5542 H   0  0  0  0  0  0  0  0  0  0  0  0
   -3.4954   -0.6464   -2.3499 H   0  0  0  0  0  0  0  0  0  0  0  0
   -0.2949    1.0340   -1.7547 H   0  0  0  0  0  0  0  0  0  0  0  0
   -0.3691   -1.4199   -0.3460 H   0  0  0  0  0  0  0  0  0  0  0  0
    1.7618   -2.5700   -0.2831 H   0  0  0  0  0  0  0  0  0  0  0  0
    4.0338    1.7799    0.4357 H   0  0  0  0  0  0  0  0  0  0  0  0
   -0.6146    1.4555    1.1622 H   0  0  0  0  0  0  0  0  0  0  0  0
    6.1098   -1.8114    2.1931 H   0  0  0  0  0  0  0  0  0  0  0  0
    5.8428   -0.2654    2.7839 H   0  0  0  0  0  0  0  0  0  0  0  0
  1  2  1  0
  2  3  1  0
  3  4  1  0
  3  5  1  0
  5  6  1  0
  5  7  1  0
  7  8  1  0
  8  9  1  0
  9 10  2  0
 10 11  1  0
 11 12  1  0
 11 13  2  0
 13 14  1  0
 14 15  2  0
 15  9  1  0
 15 16  1  0
 16 17  2  0
 16 18  2  0
 16 19  1  0
 19  7  1  0
 13 20  1  0
 20 21  2  0
 20 22  2  0
 20 23  1  0
  1 24  1  0
  1 25  1  0
  1 26  1  0
  2 27  1  0
  2 28  1  0
  3 29  1  0
  4 30  1  0
  4 31  1  0
  4 32  1  0
  5 33  1  0
  6 34  1  0
  6 35  1  0
  6 36  1  0
  7 37  1  0
  8 38  1  0
 10 39  1  0
 14 40  1  0
 19 41  1  0
 23 42  1  0
 23 43  1  0
M  END
> <ID>
HT1279

> <Class>
1.0

> <Clusters>
40

> <Fold>
1

$$$$