
     RDKit          3D

 51 54  0  0  0  0  0  0  0  0999 V2000
   -2.3486   -1.7182    2.1044 C   0  0  0  0  0  0  0  0  0  0  0  0
   -1.9634   -1.7332    0.6226 C   0  0  0  0  0  0  0  0  0  0  0  0
   -2.0175   -0.3767   -0.2021 C   0  0  2  0  0  0  0  0  0  0  0  0
   -1.4540   -0.6918   -1.6243 C   0  0  0  0  0  0  0  0  0  0  0  0
    0.0585   -1.0404   -1.5978 C   0  0  0  0  0  0  0  0  0  0  0  0
    0.9329   -0.0177   -0.8045 C   0  0  1  0  0  0  0  0  0  0  0  0
    0.3065    0.3625    0.5756 C   0  0  1  0  0  0  0  0  0  0  0  0
    1.1247    1.5008    1.2107 C   0  0  0  0  0  0  0  0  0  0  0  0
    2.5579    1.0422    1.4760 C   0  0  0  0  0  0  0  0  0  0  0  0
    3.1956    0.4802    0.2280 C   0  0  0  0  0  0  0  0  0  0  0  0
    4.4993    0.7205    0.0019 C   0  0  0  0  0  0  0  0  0  0  0  0
    5.2290    0.0489   -1.0808 C   0  0  0  0  0  0  0  0  0  0  0  0
    6.4330    0.3442   -1.3036 O   0  0  0  0  0  0  0  0  0  0  0  0
    4.5691   -1.0412   -1.8615 C   0  0  0  0  0  0  0  0  0  0  0  0
    3.0750   -0.7532   -2.0007 C   0  0  0  0  0  0  0  0  0  0  0  0
    2.4005   -0.5132   -0.6237 C   0  0  2  0  0  0  0  0  0  0  0  0
   -1.1584    0.7788    0.3414 C   0  0  2  0  0  0  0  0  0  0  0  0
   -1.9571    1.4210    1.4678 C   0  0  0  0  0  0  0  0  0  0  0  0
   -3.4261    1.2201    1.0680 C   0  0  0  0  0  0  0  0  0  0  0  0
   -3.4547    0.2587   -0.1592 C   0  0  2  0  0  0  0  0  0  0  0  0
   -4.4461   -0.7307   -0.0081 O   0  0  0  0  0  0  0  0  0  0  0  0
   -3.7654    1.0473   -1.3783 C   0  0  0  0  0  0  0  0  0  0  0  0
   -4.0238    1.6907   -2.3650 C   0  0  0  0  0  0  0  0  0  0  0  0
   -2.3739   -2.7653    2.4742 H   0  0  0  0  0  0  0  0  0  0  0  0
   -3.3562   -1.2984    2.2726 H   0  0  0  0  0  0  0  0  0  0  0  0
   -1.5853   -1.1923    2.7090 H   0  0  0  0  0  0  0  0  0  0  0  0
   -2.6259   -2.4710    0.1191 H   0  0  0  0  0  0  0  0  0  0  0  0
   -0.9586   -2.1918    0.5876 H   0  0  0  0  0  0  0  0  0  0  0  0
   -1.5659    0.1797   -2.3037 H   0  0  0  0  0  0  0  0  0  0  0  0
   -2.0200   -1.5318   -2.0826 H   0  0  0  0  0  0  0  0  0  0  0  0
    0.2183   -2.0677   -1.2124 H   0  0  0  0  0  0  0  0  0  0  0  0
    0.3975   -1.0603   -2.6554 H   0  0  0  0  0  0  0  0  0  0  0  0
    0.9682    0.9097   -1.4226 H   0  0  0  0  0  0  0  0  0  0  0  0
    0.3486   -0.5050    1.2671 H   0  0  0  0  0  0  0  0  0  0  0  0
    0.6731    1.8007    2.1806 H   0  0  0  0  0  0  0  0  0  0  0  0
    1.1332    2.3921    0.5446 H   0  0  0  0  0  0  0  0  0  0  0  0
    2.5484    0.2486    2.2545 H   0  0  0  0  0  0  0  0  0  0  0  0
    3.1373    1.9021    1.8787 H   0  0  0  0  0  0  0  0  0  0  0  0
    5.0493    1.3994    0.6433 H   0  0  0  0  0  0  0  0  0  0  0  0
    5.0258   -1.1157   -2.8723 H   0  0  0  0  0  0  0  0  0  0  0  0
    4.7187   -2.0074   -1.3333 H   0  0  0  0  0  0  0  0  0  0  0  0
    2.9392    0.1397   -2.6511 H   0  0  0  0  0  0  0  0  0  0  0  0
    2.6105   -1.6253   -2.5073 H   0  0  0  0  0  0  0  0  0  0  0  0
    2.3826   -1.4804   -0.0737 H   0  0  0  0  0  0  0  0  0  0  0  0
   -1.1233    1.5775   -0.4412 H   0  0  0  0  0  0  0  0  0  0  0  0
   -1.7399    0.9612    2.4503 H   0  0  0  0  0  0  0  0  0  0  0  0
   -1.7208    2.5054    1.5462 H   0  0  0  0  0  0  0  0  0  0  0  0
   -3.8897    2.2059    0.8359 H   0  0  0  0  0  0  0  0  0  0  0  0
   -3.9953    0.8075    1.9270 H   0  0  0  0  0  0  0  0  0  0  0  0
   -5.3134   -0.2720    0.1509 H   0  0  0  0  0  0  0  0  0  0  0  0
   -4.2496    2.2553   -3.2310 H   0  0  0  0  0  0  0  0  0  0  0  0
  1  2  1  0
  3  2  1  1
  3  4  1  0
  4  5  1  0
  6  5  1  0
  6  7  1  0
  7  8  1  0
  8  9  1  0
  9 10  1  0
 10 11  2  0
 11 12  1  0
 12 13  2  0
 12 14  1  0
 14 15  1  0
 16 15  1  0
 16  6  1  0
 16 10  1  0
  7 17  1  0
 17  3  1  0
 17 18  1  0
 18 19  1  0
 19 20  1  0
 20  3  1  0
 20 21  1  0
 20 22  1  6
 22 23  3  0
  1 24  1  0
  1 25  1  0
  1 26  1  0
  2 27  1  0
  2 28  1  0
  4 29  1  0
  4 30  1  0
  5 31  1  0
  5 32  1  0
  6 33  1  6
  7 34  1  1
  8 35  1  0
  8 36  1  0
  9 37  1  0
  9 38  1  0
 11 39  1  0
 14 40  1  0
 14 41  1  0
 15 42  1  0
 15 43  1  0
 16 44  1  1
 17 45  1  6
 18 46  1  0
 18 47  1  0
 19 48  1  0
 19 49  1  0
 21 50  1  0
 23 51  1  0
M  END
> <ID>
HT1200

> <Class>
1.0

> <Clusters>
183

> <Fold>
1

$$$$