
     RDKit          3D

 28 29  0  0  0  0  0  0  0  0999 V2000
    3.6703    1.4174   -0.1085 C   0  0  0  0  0  0  0  0  0  0  0  0
    3.8893    0.0310    0.4032 C   0  0  0  0  0  0  0  0  0  0  0  0
    5.0760   -0.4368    0.7145 O   0  0  0  0  0  0  0  0  0  0  0  0
    5.0131   -1.6815    1.0877 N   0  0  0  0  0  0  0  0  0  0  0  0
    3.7217   -2.0540    1.0157 C   0  0  0  0  0  0  0  0  0  0  0  0
    2.9587   -0.9830    0.5927 C   0  0  0  0  0  0  0  0  0  0  0  0
    1.5044   -1.0253    0.3244 C   0  0  0  0  0  0  0  0  0  0  0  0
    0.9803   -2.1399    0.0546 O   0  0  0  0  0  0  0  0  0  0  0  0
    0.6886    0.1590    0.3694 N   0  0  0  0  0  0  0  0  0  0  0  0
   -0.7350    0.1583    0.1686 C   0  0  0  0  0  0  0  0  0  0  0  0
   -1.5527   -0.8458    0.7145 C   0  0  0  0  0  0  0  0  0  0  0  0
   -2.9378   -0.8085    0.5283 C   0  0  0  0  0  0  0  0  0  0  0  0
   -3.5305    0.2302   -0.2097 C   0  0  0  0  0  0  0  0  0  0  0  0
   -2.7159    1.2602   -0.7096 C   0  0  0  0  0  0  0  0  0  0  0  0
   -1.3313    1.2225   -0.5219 C   0  0  0  0  0  0  0  0  0  0  0  0
   -5.0287    0.2964   -0.3677 C   0  0  0  0  0  0  0  0  0  0  0  0
   -5.5685    0.9921    0.6979 F   0  0  0  0  0  0  0  0  0  0  0  0
   -5.5733   -0.9759   -0.3982 F   0  0  0  0  0  0  0  0  0  0  0  0
   -5.3678    0.9402   -1.5452 F   0  0  0  0  0  0  0  0  0  0  0  0
    4.6486    1.8888   -0.3390 H   0  0  0  0  0  0  0  0  0  0  0  0
    3.1689    2.0333    0.6655 H   0  0  0  0  0  0  0  0  0  0  0  0
    3.0634    1.3894   -1.0376 H   0  0  0  0  0  0  0  0  0  0  0  0
    3.3617   -3.0463    1.2538 H   0  0  0  0  0  0  0  0  0  0  0  0
    1.1407    1.0863    0.5026 H   0  0  0  0  0  0  0  0  0  0  0  0
   -1.1282   -1.6409    1.3127 H   0  0  0  0  0  0  0  0  0  0  0  0
   -3.5471   -1.5863    0.9715 H   0  0  0  0  0  0  0  0  0  0  0  0
   -3.1499    2.0971   -1.2422 H   0  0  0  0  0  0  0  0  0  0  0  0
   -0.7192    2.0221   -0.9202 H   0  0  0  0  0  0  0  0  0  0  0  0
  1  2  1  0
  2  3  1  0
  3  4  1  0
  4  5  2  0
  5  6  1  0
  6  2  2  0
  6  7  1  0
  7  8  2  0
  7  9  1  0
  9 10  1  0
 10 11  2  0
 11 12  1  0
 12 13  2  0
 13 14  1  0
 14 15  2  0
 15 10  1  0
 13 16  1  0
 16 17  1  0
 16 18  1  0
 16 19  1  0
  1 20  1  0
  1 21  1  0
  1 22  1  0
  5 23  1  0
  9 24  1  0
 11 25  1  0
 12 26  1  0
 14 27  1  0
 15 28  1  0
M  END
> <ID>
HT1182

> <Class>
1.0

> <Clusters>
179

> <Fold>
1

$$$$