
     RDKit          3D

 31 31  0  0  0  0  0  0  0  0999 V2000
    6.1801    0.5681    1.0758 Cl  0  0  0  0  0  0  0  0  0  0  0  0
    4.6758    0.0496    0.2747 C   0  0  0  0  0  0  0  0  0  0  0  0
    3.6124    1.1373    0.3984 C   0  0  0  0  0  0  0  0  0  0  0  0
    2.3678    0.7069   -0.2414 N   0  0  0  0  0  0  0  0  0  0  0  0
    2.3437    0.5998   -1.6442 N   0  0  0  0  0  0  0  0  0  0  0  0
    1.4041    0.0384   -2.2446 O   0  0  0  0  0  0  0  0  0  0  0  0
    1.2114    0.3889    0.5560 C   0  0  0  0  0  0  0  0  0  0  0  0
    1.3637   -0.1174    1.7014 O   0  0  0  0  0  0  0  0  0  0  0  0
   -0.1092    0.6752    0.0704 N   0  0  0  0  0  0  0  0  0  0  0  0
   -1.3181    0.2111    0.7647 C   0  0  0  0  0  0  0  0  0  0  0  0
   -1.4794   -1.3165    0.6253 C   0  0  0  0  0  0  0  0  0  0  0  0
   -1.8283   -1.7224   -0.8120 C   0  0  0  0  0  0  0  0  0  0  0  0
   -3.1007   -1.0128   -1.2859 C   0  0  0  0  0  0  0  0  0  0  0  0
   -2.9509    0.5088   -1.1849 C   0  0  0  0  0  0  0  0  0  0  0  0
   -2.5757    0.9388    0.2423 C   0  0  0  0  0  0  0  0  0  0  0  0
    4.3173   -0.8855    0.7552 H   0  0  0  0  0  0  0  0  0  0  0  0
    4.8937   -0.1535   -0.7951 H   0  0  0  0  0  0  0  0  0  0  0  0
    3.4446    1.3647    1.4742 H   0  0  0  0  0  0  0  0  0  0  0  0
    3.9700    2.0700   -0.0890 H   0  0  0  0  0  0  0  0  0  0  0  0
   -0.1983    1.3200   -0.7464 H   0  0  0  0  0  0  0  0  0  0  0  0
   -1.2197    0.4564    1.8454 H   0  0  0  0  0  0  0  0  0  0  0  0
   -2.2871   -1.6621    1.3078 H   0  0  0  0  0  0  0  0  0  0  0  0
   -0.5458   -1.8324    0.9348 H   0  0  0  0  0  0  0  0  0  0  0  0
   -1.9863   -2.8216   -0.8532 H   0  0  0  0  0  0  0  0  0  0  0  0
   -0.9834   -1.4738   -1.4907 H   0  0  0  0  0  0  0  0  0  0  0  0
   -3.3046   -1.2919   -2.3421 H   0  0  0  0  0  0  0  0  0  0  0  0
   -3.9658   -1.3450   -0.6707 H   0  0  0  0  0  0  0  0  0  0  0  0
   -2.1800    0.8553   -1.9061 H   0  0  0  0  0  0  0  0  0  0  0  0
   -3.9126    0.9884   -1.4679 H   0  0  0  0  0  0  0  0  0  0  0  0
   -2.4090    2.0376    0.2647 H   0  0  0  0  0  0  0  0  0  0  0  0
   -3.4297    0.7196    0.9206 H   0  0  0  0  0  0  0  0  0  0  0  0
  1  2  1  0
  2  3  1  0
  3  4  1  0
  4  5  1  0
  5  6  2  0
  4  7  1  0
  7  8  2  0
  7  9  1  0
  9 10  1  0
 10 11  1  0
 11 12  1  0
 12 13  1  0
 13 14  1  0
 14 15  1  0
 15 10  1  0
  2 16  1  0
  2 17  1  0
  3 18  1  0
  3 19  1  0
  9 20  1  0
 10 21  1  0
 11 22  1  0
 11 23  1  0
 12 24  1  0
 12 25  1  0
 13 26  1  0
 13 27  1  0
 14 28  1  0
 14 29  1  0
 15 30  1  0
 15 31  1  0
M  END
> <ID>
HT1230

> <Class>
1.0

> <Clusters>
120

> <Fold>
1

$$$$