
     RDKit          3D

 34 36  0  0  0  0  0  0  0  0999 V2000
   -0.9839    2.7697   -0.0919 C   0  0  0  0  0  0  0  0  0  0  0  0
   -0.5389    1.3068    0.0741 C   0  0  0  0  0  0  0  0  0  0  0  0
   -0.7311    0.8600    1.5473 C   0  0  0  0  0  0  0  0  0  0  0  0
   -0.2830   -0.6070    1.7154 C   0  0  0  0  0  0  0  0  0  0  0  0
    1.2073   -0.7383    1.3392 C   0  0  0  0  0  0  0  0  0  0  0  0
    1.4186   -0.3102   -0.1364 C   0  0  0  0  0  0  0  0  0  0  0  0
    2.9041   -0.4431   -0.5128 C   0  0  0  0  0  0  0  0  0  0  0  0
    0.9588    1.1623   -0.3064 C   0  0  0  0  0  0  0  0  0  0  0  0
    0.5569   -1.2176   -1.0539 C   0  0  0  0  0  0  0  0  0  0  0  0
   -0.9426   -1.0908   -0.6811 C   0  0  0  0  0  0  0  0  0  0  0  0
   -1.7386   -1.9693   -1.5458 N   0  0  0  0  0  0  0  0  0  0  0  0
   -1.1289   -1.5141    0.7980 C   0  0  0  0  0  0  0  0  0  0  0  0
   -1.3851    0.3885   -0.8472 C   0  0  0  0  0  0  0  0  0  0  0  0
   -0.3840    3.4366    0.5640 H   0  0  0  0  0  0  0  0  0  0  0  0
   -2.0557    2.8843    0.1783 H   0  0  0  0  0  0  0  0  0  0  0  0
   -0.8505    3.1008   -1.1443 H   0  0  0  0  0  0  0  0  0  0  0  0
   -1.7991    0.9584    1.8443 H   0  0  0  0  0  0  0  0  0  0  0  0
   -0.1375    1.5099    2.2283 H   0  0  0  0  0  0  0  0  0  0  0  0
   -0.4250   -0.9172    2.7736 H   0  0  0  0  0  0  0  0  0  0  0  0
    1.8192   -0.1025    2.0173 H   0  0  0  0  0  0  0  0  0  0  0  0
    1.5362   -1.7911    1.4868 H   0  0  0  0  0  0  0  0  0  0  0  0
    3.2436   -1.4947   -0.3948 H   0  0  0  0  0  0  0  0  0  0  0  0
    3.5308    0.2026    0.1393 H   0  0  0  0  0  0  0  0  0  0  0  0
    3.0675   -0.1384   -1.5689 H   0  0  0  0  0  0  0  0  0  0  0  0
    1.1135    1.4869   -1.3602 H   0  0  0  0  0  0  0  0  0  0  0  0
    1.5773    1.8271    0.3381 H   0  0  0  0  0  0  0  0  0  0  0  0
    0.8787   -2.2784   -0.9523 H   0  0  0  0  0  0  0  0  0  0  0  0
    0.7055   -0.9283   -2.1186 H   0  0  0  0  0  0  0  0  0  0  0  0
   -1.6301   -1.6647   -2.5410 H   0  0  0  0  0  0  0  0  0  0  0  0
   -2.7518   -1.8631   -1.3067 H   0  0  0  0  0  0  0  0  0  0  0  0
   -0.8233   -2.5754    0.9336 H   0  0  0  0  0  0  0  0  0  0  0  0
   -2.2007   -1.4397    1.0874 H   0  0  0  0  0  0  0  0  0  0  0  0
   -1.2638    0.7010   -1.9086 H   0  0  0  0  0  0  0  0  0  0  0  0
   -2.4643    0.4890   -0.5940 H   0  0  0  0  0  0  0  0  0  0  0  0
  1  2  1  0
  2  3  1  0
  3  4  1  0
  4  5  1  0
  5  6  1  0
  6  7  1  0
  6  8  1  0
  8  2  1  0
  6  9  1  0
  9 10  1  0
 10 11  1  0
 10 12  1  0
 12  4  1  0
 10 13  1  0
 13  2  1  0
  1 14  1  0
  1 15  1  0
  1 16  1  0
  3 17  1  0
  3 18  1  0
  4 19  1  0
  5 20  1  0
  5 21  1  0
  7 22  1  0
  7 23  1  0
  7 24  1  0
  8 25  1  0
  8 26  1  0
  9 27  1  0
  9 28  1  0
 11 29  1  0
 11 30  1  0
 12 31  1  0
 12 32  1  0
 13 33  1  0
 13 34  1  0
M  END
> <ID>
HT1297

> <Class>
1.0

> <Clusters>
13

> <Fold>
1

$$$$