
     RDKit          3D

 36 38  0  0  0  0  0  0  0  0999 V2000
    0.2636    2.2166    0.3181 O   0  0  0  0  0  0  0  0  0  0  0  0
    1.1288    1.2960    0.3000 C   0  0  0  0  0  0  0  0  0  0  0  0
    0.7715   -0.0754    0.8651 C   0  0  0  0  0  0  0  0  0  0  0  0
    2.4989    1.6155   -0.1846 C   0  0  0  0  0  0  0  0  0  0  0  0
    2.8532    2.9471   -0.4805 C   0  0  0  0  0  0  0  0  0  0  0  0
    3.4642    0.6061   -0.3516 C   0  0  0  0  0  0  0  0  0  0  0  0
    4.1427    3.2589   -0.9204 C   0  0  0  0  0  0  0  0  0  0  0  0
    4.7567    0.9252   -0.7890 C   0  0  0  0  0  0  0  0  0  0  0  0
    3.0422   -1.0590   -0.0319 S   0  0  0  0  0  0  0  0  0  0  0  0
    5.0941    2.2496   -1.0720 C   0  0  0  0  0  0  0  0  0  0  0  0
    1.3042   -1.1684    0.0160 N   0  0  0  0  0  0  0  0  0  0  0  0
    3.6378   -1.4833    1.2824 O   0  0  0  0  0  0  0  0  0  0  0  0
    3.5652   -1.9347   -1.1362 O   0  0  0  0  0  0  0  0  0  0  0  0
    0.9460   -2.4992    0.5390 C   0  0  0  0  0  0  0  0  0  0  0  0
   -0.7324   -0.1945    1.0031 C   0  0  0  0  0  0  0  0  0  0  0  0
   -1.2387   -0.2683    2.1548 O   0  0  0  0  0  0  0  0  0  0  0  0
   -1.5618   -0.2172   -0.1717 N   0  0  0  0  0  0  0  0  0  0  0  0
   -2.9862   -0.3960   -0.1751 C   0  0  0  0  0  0  0  0  0  0  0  0
   -3.7134   -0.3650   -1.3143 N   0  0  0  0  0  0  0  0  0  0  0  0
   -3.9570   -0.7041    1.1711 S   0  0  0  0  0  0  0  0  0  0  0  0
   -5.0357   -0.5778   -1.0804 C   0  0  0  0  0  0  0  0  0  0  0  0
   -5.3661   -0.7700    0.2559 C   0  0  0  0  0  0  0  0  0  0  0  0
   -6.7216   -1.1029    0.7820 C   0  0  0  0  0  0  0  0  0  0  0  0
    1.2229   -0.1375    1.8824 H   0  0  0  0  0  0  0  0  0  0  0  0
    2.1368    3.7508   -0.3652 H   0  0  0  0  0  0  0  0  0  0  0  0
    4.4050    4.2855   -1.1416 H   0  0  0  0  0  0  0  0  0  0  0  0
    5.5000    0.1479   -0.9142 H   0  0  0  0  0  0  0  0  0  0  0  0
    6.0926    2.4933   -1.4114 H   0  0  0  0  0  0  0  0  0  0  0  0
    1.2080   -2.5965    1.6157 H   0  0  0  0  0  0  0  0  0  0  0  0
    1.4680   -3.2952   -0.0345 H   0  0  0  0  0  0  0  0  0  0  0  0
   -0.1408   -2.6849    0.4105 H   0  0  0  0  0  0  0  0  0  0  0  0
   -1.0956   -0.0991   -1.0994 H   0  0  0  0  0  0  0  0  0  0  0  0
   -5.7628   -0.6013   -1.8813 H   0  0  0  0  0  0  0  0  0  0  0  0
   -6.8792   -2.2001    0.7295 H   0  0  0  0  0  0  0  0  0  0  0  0
   -6.8103   -0.7711    1.8376 H   0  0  0  0  0  0  0  0  0  0  0  0
   -7.5010   -0.5911    0.1792 H   0  0  0  0  0  0  0  0  0  0  0  0
  1  2  2  0
  2  3  1  0
  2  4  1  0
  4  5  2  0
  6  4  1  0
  5  7  1  0
  8  6  2  0
  6  9  1  0
  7 10  2  0
 10  8  1  0
  9 11  1  0
  9 12  2  0
  9 13  2  0
 14 11  1  0
 11  3  1  0
  3 15  1  0
 15 16  2  0
 15 17  1  0
 17 18  1  0
 18 19  2  0
 20 18  1  0
 19 21  1  0
 22 20  1  0
 21 22  2  0
 22 23  1  0
  3 24  1  0
  5 25  1  0
  7 26  1  0
  8 27  1  0
 10 28  1  0
 14 29  1  0
 14 30  1  0
 14 31  1  0
 17 32  1  0
 21 33  1  0
 23 34  1  0
 23 35  1  0
 23 36  1  0
M  END
> <ID>
HT1295

> <Class>
1.0

> <Clusters>
200

> <Fold>
1

$$$$