
     RDKit          3D

 41 42  0  0  0  0  0  0  0  0999 V2000
   -2.9745   -2.2748    0.6126 C   0  0  0  0  0  0  0  0  0  0  0  0
   -1.6579   -2.3961   -0.1848 C   0  0  0  0  0  0  0  0  0  0  0  0
   -1.9914   -2.9175   -1.5959 C   0  0  0  0  0  0  0  0  0  0  0  0
   -0.8180   -3.3954    0.5072 C   0  0  0  0  0  0  0  0  0  0  0  0
   -0.1593   -4.1778    1.0491 N   0  0  0  0  0  0  0  0  0  0  0  0
   -0.8740   -1.0767   -0.2963 C   0  0  0  0  0  0  0  0  0  0  0  0
    0.4001   -1.0839   -0.8967 C   0  0  0  0  0  0  0  0  0  0  0  0
    1.1509    0.0893   -1.0198 C   0  0  0  0  0  0  0  0  0  0  0  0
    2.5356    0.0335   -1.6050 C   0  0  0  0  0  0  0  0  0  0  0  0
    3.4918   -0.3671   -0.5784 N   0  0  0  0  0  0  0  0  0  0  0  0
    4.1863   -1.5150   -0.5246 C   0  0  0  0  0  0  0  0  0  0  0  0
    4.9712   -1.5560    0.5692 N   0  0  0  0  0  0  0  0  0  0  0  0
    4.7064   -0.3707    1.1628 C   0  0  0  0  0  0  0  0  0  0  0  0
    3.8084    0.3617    0.4757 N   0  0  0  0  0  0  0  0  0  0  0  0
    0.6404    1.2956   -0.5270 C   0  0  0  0  0  0  0  0  0  0  0  0
   -0.6436    1.3572    0.0531 C   0  0  0  0  0  0  0  0  0  0  0  0
   -1.3783    0.1563    0.1744 C   0  0  0  0  0  0  0  0  0  0  0  0
   -1.2231    2.6602    0.6315 C   0  0  0  0  0  0  0  0  0  0  0  0
   -1.1972    2.5865    2.1686 C   0  0  0  0  0  0  0  0  0  0  0  0
   -0.4655    3.9283    0.1812 C   0  0  0  0  0  0  0  0  0  0  0  0
   -2.6243    2.8153    0.1853 C   0  0  0  0  0  0  0  0  0  0  0  0
   -3.7211    2.9363   -0.1640 N   0  0  0  0  0  0  0  0  0  0  0  0
   -3.6868   -1.5926    0.1001 H   0  0  0  0  0  0  0  0  0  0  0  0
   -2.7813   -1.8986    1.6410 H   0  0  0  0  0  0  0  0  0  0  0  0
   -3.4716   -3.2658    0.7039 H   0  0  0  0  0  0  0  0  0  0  0  0
   -1.0702   -3.1216   -2.1824 H   0  0  0  0  0  0  0  0  0  0  0  0
   -2.5728   -3.8639   -1.5407 H   0  0  0  0  0  0  0  0  0  0  0  0
   -2.5969   -2.1677   -2.1497 H   0  0  0  0  0  0  0  0  0  0  0  0
    0.8228   -2.0145   -1.2562 H   0  0  0  0  0  0  0  0  0  0  0  0
    2.8317    1.0221   -2.0183 H   0  0  0  0  0  0  0  0  0  0  0  0
    2.5547   -0.6903   -2.4497 H   0  0  0  0  0  0  0  0  0  0  0  0
    4.1237   -2.3081   -1.2584 H   0  0  0  0  0  0  0  0  0  0  0  0
    5.1642   -0.0464    2.0875 H   0  0  0  0  0  0  0  0  0  0  0  0
    1.2621    2.1756   -0.6022 H   0  0  0  0  0  0  0  0  0  0  0  0
   -2.3473    0.2031    0.6471 H   0  0  0  0  0  0  0  0  0  0  0  0
   -1.8036    1.7316    2.5387 H   0  0  0  0  0  0  0  0  0  0  0  0
   -1.6079    3.5181    2.6160 H   0  0  0  0  0  0  0  0  0  0  0  0
   -0.1546    2.4548    2.5308 H   0  0  0  0  0  0  0  0  0  0  0  0
    0.5596    3.9553    0.6092 H   0  0  0  0  0  0  0  0  0  0  0  0
   -0.9885    4.8452    0.5328 H   0  0  0  0  0  0  0  0  0  0  0  0
   -0.4003    3.9746   -0.9279 H   0  0  0  0  0  0  0  0  0  0  0  0
  1  2  1  0
  2  3  1  0
  2  4  1  0
  4  5  3  0
  2  6  1  0
  6  7  2  0
  7  8  1  0
  8  9  1  0
  9 10  1  0
 10 11  1  0
 11 12  2  0
 12 13  1  0
 13 14  2  0
 14 10  1  0
  8 15  2  0
 15 16  1  0
 16 17  2  0
 17  6  1  0
 16 18  1  0
 18 19  1  0
 18 20  1  0
 18 21  1  0
 21 22  3  0
  1 23  1  0
  1 24  1  0
  1 25  1  0
  3 26  1  0
  3 27  1  0
  3 28  1  0
  7 29  1  0
  9 30  1  0
  9 31  1  0
 11 32  1  0
 13 33  1  0
 15 34  1  0
 17 35  1  0
 19 36  1  0
 19 37  1  0
 19 38  1  0
 20 39  1  0
 20 40  1  0
 20 41  1  0
M  END
> <ID>
HT0158

> <Class>
1.0

> <Clusters>
104

> <Fold>
1

$$$$