
     RDKit          3D

 33 35  0  0  0  0  0  0  0  0999 V2000
   -5.1050   -2.5859   -2.8088 N   0  0  0  0  0  0  0  0  0  0  0  0
   -4.2923   -2.0288   -2.2019 C   0  0  0  0  0  0  0  0  0  0  0  0
   -3.2814   -1.3359   -1.4469 C   0  0  0  0  0  0  0  0  0  0  0  0
   -2.5096   -0.3402   -2.0564 C   0  0  0  0  0  0  0  0  0  0  0  0
   -1.5262    0.3321   -1.3250 C   0  0  0  0  0  0  0  0  0  0  0  0
   -1.3103    0.0239    0.0325 C   0  0  0  0  0  0  0  0  0  0  0  0
   -2.0802   -0.9893    0.6300 C   0  0  0  0  0  0  0  0  0  0  0  0
   -3.0630   -1.6607   -0.1033 C   0  0  0  0  0  0  0  0  0  0  0  0
   -0.2236    0.7088    0.8407 C   0  0  0  0  0  0  0  0  0  0  0  0
    1.0674   -0.0908    0.7847 C   0  0  0  0  0  0  0  0  0  0  0  0
    1.7011   -0.3642   -0.4430 C   0  0  0  0  0  0  0  0  0  0  0  0
    2.8856   -1.1054   -0.4808 C   0  0  0  0  0  0  0  0  0  0  0  0
    3.4531   -1.5837    0.7054 C   0  0  0  0  0  0  0  0  0  0  0  0
    2.8320   -1.3170    1.9308 C   0  0  0  0  0  0  0  0  0  0  0  0
    1.6474   -0.5756    1.9710 C   0  0  0  0  0  0  0  0  0  0  0  0
    4.6729   -2.3471    0.6655 C   0  0  0  0  0  0  0  0  0  0  0  0
    5.6534   -2.9608    0.6333 N   0  0  0  0  0  0  0  0  0  0  0  0
   -0.0265    2.1018    0.4137 N   0  0  0  0  0  0  0  0  0  0  0  0
   -0.9198    3.0995    0.5309 C   0  0  0  0  0  0  0  0  0  0  0  0
   -0.4245    4.2580    0.0551 N   0  0  0  0  0  0  0  0  0  0  0  0
    0.8139    3.9006   -0.3496 C   0  0  0  0  0  0  0  0  0  0  0  0
    1.0695    2.5959   -0.1354 N   0  0  0  0  0  0  0  0  0  0  0  0
   -2.6650   -0.0863   -3.0982 H   0  0  0  0  0  0  0  0  0  0  0  0
   -0.9346    1.0905   -1.8213 H   0  0  0  0  0  0  0  0  0  0  0  0
   -1.9173   -1.2615    1.6656 H   0  0  0  0  0  0  0  0  0  0  0  0
   -3.6493   -2.4352    0.3764 H   0  0  0  0  0  0  0  0  0  0  0  0
   -0.5677    0.7495    1.8991 H   0  0  0  0  0  0  0  0  0  0  0  0
    1.2831    0.0002   -1.3718 H   0  0  0  0  0  0  0  0  0  0  0  0
    3.3588   -1.3044   -1.4349 H   0  0  0  0  0  0  0  0  0  0  0  0
    3.2631   -1.6823    2.8553 H   0  0  0  0  0  0  0  0  0  0  0  0
    1.1837   -0.3818    2.9302 H   0  0  0  0  0  0  0  0  0  0  0  0
   -1.9111    2.9899    0.9515 H   0  0  0  0  0  0  0  0  0  0  0  0
    1.5221    4.5864   -0.7943 H   0  0  0  0  0  0  0  0  0  0  0  0
  1  2  3  0
  2  3  1  0
  3  4  2  0
  4  5  1  0
  5  6  2  0
  6  7  1  0
  7  8  2  0
  8  3  1  0
  6  9  1  0
  9 10  1  0
 10 11  2  0
 11 12  1  0
 12 13  2  0
 13 14  1  0
 14 15  2  0
 15 10  1  0
 13 16  1  0
 16 17  3  0
  9 18  1  0
 18 19  1  0
 19 20  2  0
 20 21  1  0
 21 22  2  0
 22 18  1  0
  4 23  1  0
  5 24  1  0
  7 25  1  0
  8 26  1  0
  9 27  1  0
 11 28  1  0
 12 29  1  0
 14 30  1  0
 15 31  1  0
 19 32  1  0
 21 33  1  0
M  END
> <ID>
HT1187

> <Class>
1.0

> <Clusters>
50

> <Fold>
1

$$$$