
     RDKit          3D

 25 26  0  0  0  0  0  0  0  0999 V2000
    4.3502   -0.1413    0.3315 O   0  0  0  0  0  0  0  0  0  0  0  0
    3.0900   -0.1537    0.2715 C   0  0  0  0  0  0  0  0  0  0  0  0
    2.4301    0.9194   -0.2460 N   0  0  0  0  0  0  0  0  0  0  0  0
    2.3699   -1.2628    0.7353 C   0  0  0  0  0  0  0  0  0  0  0  0
    0.9770   -1.2543    0.6468 C   0  0  0  0  0  0  0  0  0  0  0  0
    3.0440   -2.4104    1.2918 C   0  0  0  0  0  0  0  0  0  0  0  0
    0.3067   -0.1513    0.1004 C   0  0  0  0  0  0  0  0  0  0  0  0
    3.5846   -3.3311    1.7382 N   0  0  0  0  0  0  0  0  0  0  0  0
    1.0670    0.9633   -0.3279 C   0  0  0  0  0  0  0  0  0  0  0  0
   -1.1700   -0.1913   -0.0023 C   0  0  0  0  0  0  0  0  0  0  0  0
    0.4094    2.1983   -0.8863 C   0  0  0  0  0  0  0  0  0  0  0  0
   -1.8035   -0.0840   -1.2494 C   0  0  0  0  0  0  0  0  0  0  0  0
   -1.9527   -0.3719    1.1475 C   0  0  0  0  0  0  0  0  0  0  0  0
   -3.1976   -0.1381   -1.3198 C   0  0  0  0  0  0  0  0  0  0  0  0
   -3.3441   -0.4204    1.0323 C   0  0  0  0  0  0  0  0  0  0  0  0
   -3.9321   -0.3026   -0.1877 N   0  0  0  0  0  0  0  0  0  0  0  0
    2.9921    1.7348   -0.5823 H   0  0  0  0  0  0  0  0  0  0  0  0
    0.4119   -2.1145    0.9892 H   0  0  0  0  0  0  0  0  0  0  0  0
    0.1815    2.0471   -1.9615 H   0  0  0  0  0  0  0  0  0  0  0  0
    1.0799    3.0779   -0.7884 H   0  0  0  0  0  0  0  0  0  0  0  0
   -0.5259    2.4315   -0.3355 H   0  0  0  0  0  0  0  0  0  0  0  0
   -1.2252    0.0274   -2.1578 H   0  0  0  0  0  0  0  0  0  0  0  0
   -1.4908   -0.4652    2.1228 H   0  0  0  0  0  0  0  0  0  0  0  0
   -3.6958   -0.0542   -2.2764 H   0  0  0  0  0  0  0  0  0  0  0  0
   -3.9569   -0.5526    1.9140 H   0  0  0  0  0  0  0  0  0  0  0  0
  1  2  2  0
  2  3  1  0
  2  4  1  0
  4  5  2  0
  4  6  1  0
  5  7  1  0
  6  8  3  0
  7  9  2  0
  7 10  1  0
 11  9  1  0
  9  3  1  0
 10 12  2  0
 13 10  1  0
 12 14  1  0
 15 13  2  0
 14 16  2  0
 16 15  1  0
  3 17  1  0
  5 18  1  0
 11 19  1  0
 11 20  1  0
 11 21  1  0
 12 22  1  0
 13 23  1  0
 14 24  1  0
 15 25  1  0
M  END
> <ID>
HT1402

> <Class>
1.0

> <Clusters>
172

> <Fold>
1

$$$$