
     RDKit          3D

 34 35  0  0  0  0  0  0  0  0999 V2000
    1.6288    0.0288    1.2072 S   0  0  0  0  0  0  0  0  0  0  0  0
    2.2804    1.1954    2.2257 O   0  0  0  0  0  0  0  0  0  0  0  0
    2.3431    0.1932   -0.4204 C   0  0  0  0  0  0  0  0  0  0  0  0
   -0.1640    0.1624    1.2163 C   0  0  0  0  0  0  0  0  0  0  0  0
   -0.5999    1.3423    0.3706 C   0  0  0  0  0  0  0  0  0  0  0  0
   -0.9059   -1.1128    0.8341 C   0  0  0  0  0  0  0  0  0  0  0  0
   -0.8666    2.5809    0.9814 C   0  0  0  0  0  0  0  0  0  0  0  0
   -0.7263    1.2315   -1.0283 C   0  0  0  0  0  0  0  0  0  0  0  0
   -0.2697   -2.2468    0.2828 C   0  0  0  0  0  0  0  0  0  0  0  0
   -2.2985   -1.1580    1.0396 C   0  0  0  0  0  0  0  0  0  0  0  0
   -1.2549    3.6814    0.2114 C   0  0  0  0  0  0  0  0  0  0  0  0
   -1.1146    2.3349   -1.7934 C   0  0  0  0  0  0  0  0  0  0  0  0
   -1.0124   -3.3826   -0.0547 C   0  0  0  0  0  0  0  0  0  0  0  0
   -3.0347   -2.2963    0.7001 C   0  0  0  0  0  0  0  0  0  0  0  0
   -1.3790    3.5586   -1.1744 C   0  0  0  0  0  0  0  0  0  0  0  0
   -2.3924   -3.4075    0.1528 C   0  0  0  0  0  0  0  0  0  0  0  0
    3.7819   -0.2176   -0.3914 C   0  0  0  0  0  0  0  0  0  0  0  0
    4.2237   -1.3687   -1.1115 N   0  0  0  0  0  0  0  0  0  0  0  0
    4.6136    0.4622    0.2674 O   0  0  0  0  0  0  0  0  0  0  0  0
    2.2654    1.2490   -0.7545 H   0  0  0  0  0  0  0  0  0  0  0  0
    1.7789   -0.4419   -1.1330 H   0  0  0  0  0  0  0  0  0  0  0  0
   -0.4280    0.3639    2.2779 H   0  0  0  0  0  0  0  0  0  0  0  0
   -0.7693    2.6974    2.0536 H   0  0  0  0  0  0  0  0  0  0  0  0
   -0.5281    0.2916   -1.5270 H   0  0  0  0  0  0  0  0  0  0  0  0
    0.7949   -2.2724    0.1063 H   0  0  0  0  0  0  0  0  0  0  0  0
   -2.8155   -0.3050    1.4621 H   0  0  0  0  0  0  0  0  0  0  0  0
   -1.4578    4.6309    0.6896 H   0  0  0  0  0  0  0  0  0  0  0  0
   -1.2106    2.2408   -2.8674 H   0  0  0  0  0  0  0  0  0  0  0  0
   -0.5158   -4.2461   -0.4782 H   0  0  0  0  0  0  0  0  0  0  0  0
   -4.1048   -2.3160    0.8616 H   0  0  0  0  0  0  0  0  0  0  0  0
   -1.6791    4.4119   -1.7686 H   0  0  0  0  0  0  0  0  0  0  0  0
   -2.9637   -4.2884   -0.1099 H   0  0  0  0  0  0  0  0  0  0  0  0
    3.5508   -1.9507   -1.6580 H   0  0  0  0  0  0  0  0  0  0  0  0
    5.2300   -1.6465   -1.0922 H   0  0  0  0  0  0  0  0  0  0  0  0
  1  2  1  0
  1  3  1  0
  1  4  1  0
  4  5  1  0
  4  6  1  0
  5  7  2  0
  8  5  1  0
  6  9  2  0
 10  6  1  0
  7 11  1  0
 12  8  2  0
  9 13  1  0
 14 10  2  0
 11 15  2  0
 15 12  1  0
 13 16  2  0
 16 14  1  0
 17  3  1  0
 18 17  1  0
 17 19  2  0
  3 20  1  0
  3 21  1  0
  4 22  1  0
  7 23  1  0
  8 24  1  0
  9 25  1  0
 10 26  1  0
 11 27  1  0
 12 28  1  0
 13 29  1  0
 14 30  1  0
 15 31  1  0
 16 32  1  0
 18 33  1  0
 18 34  1  0
M  CHG  2   1   1   2  -1
M  END
> <ID>
HT1422

> <Class>
1.0

> <Clusters>
79

> <Fold>
1

$$$$