
     RDKit          3D

 28 29  0  0  0  0  0  0  0  0999 V2000
   -1.6031   -3.4082    0.3536 Cl  0  0  0  0  0  0  0  0  0  0  0  0
   -0.2539   -2.3697    0.8926 C   0  0  0  0  0  0  0  0  0  0  0  0
   -0.5488   -1.9317    2.5989 Cl  0  0  0  0  0  0  0  0  0  0  0  0
   -0.0797   -1.1502   -0.0551 C   0  0  0  0  0  0  0  0  0  0  0  0
    1.2589   -0.4192    0.0218 C   0  0  0  0  0  0  0  0  0  0  0  0
    2.2392   -0.6976    0.9999 C   0  0  0  0  0  0  0  0  0  0  0  0
    3.4498    0.0018    1.0115 C   0  0  0  0  0  0  0  0  0  0  0  0
    3.7073    0.9794    0.0479 C   0  0  0  0  0  0  0  0  0  0  0  0
    5.2273    1.8546    0.0682 Cl  0  0  0  0  0  0  0  0  0  0  0  0
    2.7536    1.2567   -0.9335 C   0  0  0  0  0  0  0  0  0  0  0  0
    1.5421    0.5610   -0.9500 C   0  0  0  0  0  0  0  0  0  0  0  0
   -1.2806   -0.1981   -0.0133 C   0  0  0  0  0  0  0  0  0  0  0  0
   -2.3113   -0.3987   -0.9559 C   0  0  0  0  0  0  0  0  0  0  0  0
   -3.4398    0.4218   -0.9758 C   0  0  0  0  0  0  0  0  0  0  0  0
   -3.5629    1.4630   -0.0599 C   0  0  0  0  0  0  0  0  0  0  0  0
   -2.5554    1.6900    0.8763 C   0  0  0  0  0  0  0  0  0  0  0  0
   -1.4148    0.8767    0.9115 C   0  0  0  0  0  0  0  0  0  0  0  0
   -0.1978    1.2859    2.1183 Cl  0  0  0  0  0  0  0  0  0  0  0  0
    0.6546   -3.0064    0.8467 H   0  0  0  0  0  0  0  0  0  0  0  0
   -0.0551   -1.6063   -1.0712 H   0  0  0  0  0  0  0  0  0  0  0  0
    2.0821   -1.4415    1.7658 H   0  0  0  0  0  0  0  0  0  0  0  0
    4.1880   -0.2178    1.7724 H   0  0  0  0  0  0  0  0  0  0  0  0
    2.9496    2.0104   -1.6855 H   0  0  0  0  0  0  0  0  0  0  0  0
    0.8177    0.7890   -1.7224 H   0  0  0  0  0  0  0  0  0  0  0  0
   -2.2460   -1.2006   -1.6808 H   0  0  0  0  0  0  0  0  0  0  0  0
   -4.2213    0.2487   -1.7045 H   0  0  0  0  0  0  0  0  0  0  0  0
   -4.4388    2.0986   -0.0775 H   0  0  0  0  0  0  0  0  0  0  0  0
   -2.6610    2.5084    1.5775 H   0  0  0  0  0  0  0  0  0  0  0  0
  1  2  1  0
  2  3  1  0
  2  4  1  0
  4  5  1  0
  5  6  2  0
  6  7  1  0
  7  8  2  0
  8  9  1  0
  8 10  1  0
 10 11  2  0
 11  5  1  0
  4 12  1  0
 12 13  2  0
 13 14  1  0
 14 15  2  0
 15 16  1  0
 16 17  2  0
 17 12  1  0
 17 18  1  0
  2 19  1  0
  4 20  1  0
  6 21  1  0
  7 22  1  0
 10 23  1  0
 11 24  1  0
 13 25  1  0
 14 26  1  0
 15 27  1  0
 16 28  1  0
M  END
> <ID>
HT1417

> <Class>
1.0

> <Clusters>
50

> <Fold>
1

$$$$