
     RDKit          3D

 30 30  0  0  0  0  0  0  0  0999 V2000
    3.8106    0.3770   -0.2775 C   0  0  0  0  0  0  0  0  0  0  0  0
    2.5960    0.0785    0.6120 C   0  0  0  0  0  0  0  0  0  0  0  0
    2.6895   -1.2635    1.1918 N   0  0  0  0  0  0  0  0  0  0  0  0
    1.2935    0.2154   -0.1823 C   0  0  0  0  0  0  0  0  0  0  0  0
    0.1821   -0.0129    0.6774 O   0  0  0  0  0  0  0  0  0  0  0  0
   -1.1294    0.0262    0.1981 C   0  0  0  0  0  0  0  0  0  0  0  0
   -1.7354   -1.1490   -0.2925 C   0  0  0  0  0  0  0  0  0  0  0  0
   -0.9807   -2.4487   -0.3237 C   0  0  0  0  0  0  0  0  0  0  0  0
   -3.0369   -1.0890   -0.8137 C   0  0  0  0  0  0  0  0  0  0  0  0
   -3.7400    0.1164   -0.8192 C   0  0  0  0  0  0  0  0  0  0  0  0
   -3.1525    1.2741   -0.3074 C   0  0  0  0  0  0  0  0  0  0  0  0
   -1.8520    1.2370    0.2187 C   0  0  0  0  0  0  0  0  0  0  0  0
   -1.2222    2.5002    0.7353 C   0  0  0  0  0  0  0  0  0  0  0  0
    3.8586   -0.3360   -1.1284 H   0  0  0  0  0  0  0  0  0  0  0  0
    4.7461    0.2916    0.3149 H   0  0  0  0  0  0  0  0  0  0  0  0
    3.7464    1.4111   -0.6782 H   0  0  0  0  0  0  0  0  0  0  0  0
    2.5780    0.8234    1.4386 H   0  0  0  0  0  0  0  0  0  0  0  0
    2.8109   -1.9657    0.4253 H   0  0  0  0  0  0  0  0  0  0  0  0
    3.5421   -1.3093    1.7962 H   0  0  0  0  0  0  0  0  0  0  0  0
    1.2792   -0.5197   -1.0166 H   0  0  0  0  0  0  0  0  0  0  0  0
    1.2224    1.2385   -0.6114 H   0  0  0  0  0  0  0  0  0  0  0  0
   -1.6784   -3.3129   -0.3448 H   0  0  0  0  0  0  0  0  0  0  0  0
   -0.3404   -2.4837   -1.2295 H   0  0  0  0  0  0  0  0  0  0  0  0
   -0.3423   -2.5528    0.5790 H   0  0  0  0  0  0  0  0  0  0  0  0
   -3.5079   -1.9763   -1.2186 H   0  0  0  0  0  0  0  0  0  0  0  0
   -4.7432    0.1540   -1.2239 H   0  0  0  0  0  0  0  0  0  0  0  0
   -3.7123    2.2012   -0.3237 H   0  0  0  0  0  0  0  0  0  0  0  0
   -1.9974    3.2306    1.0510 H   0  0  0  0  0  0  0  0  0  0  0  0
   -0.5818    2.2859    1.6169 H   0  0  0  0  0  0  0  0  0  0  0  0
   -0.6028    2.9586   -0.0633 H   0  0  0  0  0  0  0  0  0  0  0  0
  1  2  1  0
  2  3  1  0
  2  4  1  0
  4  5  1  0
  5  6  1  0
  6  7  2  0
  7  8  1  0
  7  9  1  0
  9 10  2  0
 10 11  1  0
 11 12  2  0
 12  6  1  0
 12 13  1  0
  1 14  1  0
  1 15  1  0
  1 16  1  0
  2 17  1  0
  3 18  1  0
  3 19  1  0
  4 20  1  0
  4 21  1  0
  8 22  1  0
  8 23  1  0
  8 24  1  0
  9 25  1  0
 10 26  1  0
 11 27  1  0
 13 28  1  0
 13 29  1  0
 13 30  1  0
M  END
> <ID>
HT1387

> <Class>
1.0

> <Clusters>
228

> <Fold>
1

$$$$