
     RDKit          3D

 60 62  0  0  0  0  0  0  0  0999 V2000
   -4.0843    5.0518   -1.4498 O   0  0  0  0  0  0  0  0  0  0  0  0
   -4.9260    3.9301   -1.4911 C   0  0  0  0  0  0  0  0  0  0  0  0
   -4.1064    2.6361   -1.4999 C   0  0  0  0  0  0  0  0  0  0  0  0
   -3.3288    2.5033   -0.2568 N   0  0  0  0  0  0  0  0  0  0  0  0
   -4.0775    1.8036    0.8043 C   0  0  0  0  0  0  0  0  0  0  0  0
   -3.9781    0.2688    0.6872 C   0  0  0  0  0  0  0  0  0  0  0  0
   -2.9235   -0.2684    1.5499 N   0  0  0  0  0  0  0  0  0  0  0  0
   -1.5465   -0.2784    1.1501 C   0  0  0  0  0  0  0  0  0  0  0  0
   -0.7979    0.8687    1.4011 C   0  0  0  0  0  0  0  0  0  0  0  0
    0.5473    0.9244    1.0846 C   0  0  0  0  0  0  0  0  0  0  0  0
    1.2003   -0.1794    0.5179 C   0  0  0  0  0  0  0  0  0  0  0  0
    2.5963   -0.0853    0.1718 N   0  0  0  0  0  0  0  0  0  0  0  0
    3.2575    1.0005   -0.0908 C   0  0  0  0  0  0  0  0  0  0  0  0
    4.7196    0.9098   -0.4199 C   0  0  0  0  0  0  0  0  0  0  0  0
    5.3213    2.2296   -0.6739 N   0  0  0  0  0  0  0  0  0  0  0  0
    5.5006    2.9950    0.5687 C   0  0  0  0  0  0  0  0  0  0  0  0
    6.2673    4.2872    0.2811 C   0  0  0  0  0  0  0  0  0  0  0  0
    6.5110    4.9861    1.4728 O   0  0  0  0  0  0  0  0  0  0  0  0
    0.4802   -1.3974    0.3163 C   0  0  0  0  0  0  0  0  0  0  0  0
    1.1253   -2.5651   -0.1729 C   0  0  0  0  0  0  0  0  0  0  0  0
    2.5197   -2.5711   -0.2874 O   0  0  0  0  0  0  0  0  0  0  0  0
    0.3797   -3.7362   -0.4590 C   0  0  0  0  0  0  0  0  0  0  0  0
    0.9478   -4.8391   -1.1545 C   0  0  0  0  0  0  0  0  0  0  0  0
    2.1777   -4.7352   -1.8061 O   0  0  0  0  0  0  0  0  0  0  0  0
    0.2491   -6.0447   -1.2465 C   0  0  0  0  0  0  0  0  0  0  0  0
   -1.0104   -6.1733   -0.6793 C   0  0  0  0  0  0  0  0  0  0  0  0
   -1.6297   -5.0777   -0.0739 C   0  0  0  0  0  0  0  0  0  0  0  0
   -2.8604   -5.2753    0.5531 O   0  0  0  0  0  0  0  0  0  0  0  0
   -0.9806   -3.8125   -0.0538 C   0  0  0  0  0  0  0  0  0  0  0  0
   -1.6448   -2.6357    0.3744 C   0  0  0  0  0  0  0  0  0  0  0  0
   -3.0389   -2.6108    0.4833 O   0  0  0  0  0  0  0  0  0  0  0  0
   -0.9154   -1.4425    0.6183 C   0  0  0  0  0  0  0  0  0  0  0  0
   -3.7938    5.1576   -0.5048 H   0  0  0  0  0  0  0  0  0  0  0  0
   -5.5255    3.9765   -2.4256 H   0  0  0  0  0  0  0  0  0  0  0  0
   -5.6392    3.9424   -0.6344 H   0  0  0  0  0  0  0  0  0  0  0  0
   -3.4122    2.6720   -2.3693 H   0  0  0  0  0  0  0  0  0  0  0  0
   -4.7803    1.7657   -1.6572 H   0  0  0  0  0  0  0  0  0  0  0  0
   -2.4458    1.9838   -0.4689 H   0  0  0  0  0  0  0  0  0  0  0  0
   -3.6911    2.1315    1.7930 H   0  0  0  0  0  0  0  0  0  0  0  0
   -5.1486    2.1052    0.7872 H   0  0  0  0  0  0  0  0  0  0  0  0
   -4.9491   -0.1707    1.0073 H   0  0  0  0  0  0  0  0  0  0  0  0
   -3.8109   -0.0519   -0.3661 H   0  0  0  0  0  0  0  0  0  0  0  0
   -3.2002   -0.8517    2.3727 H   0  0  0  0  0  0  0  0  0  0  0  0
   -1.2641    1.7321    1.8580 H   0  0  0  0  0  0  0  0  0  0  0  0
    1.0822    1.8345    1.3167 H   0  0  0  0  0  0  0  0  0  0  0  0
    2.7644    1.9624   -0.1141 H   0  0  0  0  0  0  0  0  0  0  0  0
    5.2570    0.3874    0.4029 H   0  0  0  0  0  0  0  0  0  0  0  0
    4.8359    0.2874   -1.3332 H   0  0  0  0  0  0  0  0  0  0  0  0
    4.7063    2.7710   -1.3279 H   0  0  0  0  0  0  0  0  0  0  0  0
    4.5142    3.2487    1.0160 H   0  0  0  0  0  0  0  0  0  0  0  0
    6.0842    2.3973    1.3052 H   0  0  0  0  0  0  0  0  0  0  0  0
    7.2428    4.0360   -0.1881 H   0  0  0  0  0  0  0  0  0  0  0  0
    5.6962    4.9264   -0.4318 H   0  0  0  0  0  0  0  0  0  0  0  0
    5.6487    5.4041    1.7416 H   0  0  0  0  0  0  0  0  0  0  0  0
    3.0849   -3.3992   -0.1528 H   0  0  0  0  0  0  0  0  0  0  0  0
    2.5829   -5.5122   -2.3159 H   0  0  0  0  0  0  0  0  0  0  0  0
    0.6903   -6.8932   -1.7541 H   0  0  0  0  0  0  0  0  0  0  0  0
   -1.5135   -7.1312   -0.7183 H   0  0  0  0  0  0  0  0  0  0  0  0
   -3.3152   -6.1803    0.5700 H   0  0  0  0  0  0  0  0  0  0  0  0
   -3.6522   -3.1986   -0.0643 H   0  0  0  0  0  0  0  0  0  0  0  0
  1  2  1  0
  2  3  1  0
  3  4  1  0
  4  5  1  0
  5  6  1  0
  6  7  1  0
  7  8  1  0
  8  9  2  0
  9 10  1  0
 10 11  2  0
 11 12  1  0
 12 13  2  3
 13 14  1  0
 14 15  1  0
 15 16  1  0
 16 17  1  0
 17 18  1  0
 11 19  1  0
 19 20  2  0
 20 21  1  0
 20 22  1  0
 22 23  2  0
 23 24  1  0
 23 25  1  0
 25 26  2  0
 26 27  1  0
 27 28  1  0
 27 29  2  0
 29 22  1  0
 29 30  1  0
 30 31  1  0
 30 32  2  0
 32  8  1  0
 32 19  1  0
  1 33  1  0
  2 34  1  0
  2 35  1  0
  3 36  1  0
  3 37  1  0
  4 38  1  0
  5 39  1  0
  5 40  1  0
  6 41  1  0
  6 42  1  0
  7 43  1  0
  9 44  1  0
 10 45  1  0
 13 46  1  0
 14 47  1  0
 14 48  1  0
 15 49  1  0
 16 50  1  0
 16 51  1  0
 17 52  1  0
 17 53  1  0
 18 54  1  0
 21 55  1  0
 24 56  1  0
 25 57  1  0
 26 58  1  0
 28 59  1  0
 31 60  1  0
M  END
> <ID>
HT1418

> <Class>
1.0

> <Clusters>
21

> <Fold>
1

$$$$