
     RDKit          3D

 44 44  0  0  0  0  0  0  0  0999 V2000
    6.9747    0.9378   -0.1590 C   0  0  0  0  0  0  0  0  0  0  0  0
    5.8069    1.0876    0.6179 O   0  0  0  0  0  0  0  0  0  0  0  0
    5.7939    0.1492    1.6790 C   0  0  0  0  0  0  0  0  0  0  0  0
    5.0250   -1.1175    1.2820 C   0  0  0  0  0  0  0  0  0  0  0  0
    3.6223   -0.7991    0.8292 C   0  0  0  0  0  0  0  0  0  0  0  0
    3.2593   -0.9448   -0.5191 C   0  0  0  0  0  0  0  0  0  0  0  0
    1.9584   -0.6489   -0.9372 C   0  0  0  0  0  0  0  0  0  0  0  0
    0.9981   -0.2050   -0.0084 C   0  0  0  0  0  0  0  0  0  0  0  0
   -0.3189    0.1046   -0.3770 O   0  0  0  0  0  0  0  0  0  0  0  0
   -0.8313    0.0034   -1.7047 C   0  0  0  0  0  0  0  0  0  0  0  0
   -2.3101    0.4161   -1.7447 C   0  0  0  0  0  0  0  0  0  0  0  0
   -2.4591    1.7678   -1.3854 O   0  0  0  0  0  0  0  0  0  0  0  0
   -3.1837   -0.4931   -0.8600 C   0  0  0  0  0  0  0  0  0  0  0  0
   -4.5960   -0.0979   -0.9692 N   0  0  0  0  0  0  0  0  0  0  0  0
   -5.4425   -0.8284   -0.0038 C   0  0  0  0  0  0  0  0  0  0  0  0
   -5.4388   -0.1045    1.3494 C   0  0  0  0  0  0  0  0  0  0  0  0
   -6.8848   -0.9270   -0.5235 C   0  0  0  0  0  0  0  0  0  0  0  0
    1.3618   -0.0650    1.3355 C   0  0  0  0  0  0  0  0  0  0  0  0
    2.6622   -0.3601    1.7542 C   0  0  0  0  0  0  0  0  0  0  0  0
    7.8787    1.2093    0.4294 H   0  0  0  0  0  0  0  0  0  0  0  0
    7.0688   -0.0944   -0.5621 H   0  0  0  0  0  0  0  0  0  0  0  0
    6.9154    1.6306   -1.0232 H   0  0  0  0  0  0  0  0  0  0  0  0
    6.8136   -0.1277    2.0384 H   0  0  0  0  0  0  0  0  0  0  0  0
    5.2862    0.6199    2.5474 H   0  0  0  0  0  0  0  0  0  0  0  0
    5.5845   -1.6471    0.4813 H   0  0  0  0  0  0  0  0  0  0  0  0
    4.9795   -1.8077    2.1520 H   0  0  0  0  0  0  0  0  0  0  0  0
    3.9846   -1.2813   -1.2496 H   0  0  0  0  0  0  0  0  0  0  0  0
    1.7108   -0.7678   -1.9831 H   0  0  0  0  0  0  0  0  0  0  0  0
   -0.2519    0.6712   -2.3789 H   0  0  0  0  0  0  0  0  0  0  0  0
   -0.7314   -1.0436   -2.0658 H   0  0  0  0  0  0  0  0  0  0  0  0
   -2.6545    0.3060   -2.7962 H   0  0  0  0  0  0  0  0  0  0  0  0
   -2.2096    1.8567   -0.4285 H   0  0  0  0  0  0  0  0  0  0  0  0
   -2.8367   -0.4142    0.1923 H   0  0  0  0  0  0  0  0  0  0  0  0
   -3.0609   -1.5510   -1.1866 H   0  0  0  0  0  0  0  0  0  0  0  0
   -4.8991   -0.3348   -1.9440 H   0  0  0  0  0  0  0  0  0  0  0  0
   -5.0706   -1.8688    0.1437 H   0  0  0  0  0  0  0  0  0  0  0  0
   -4.4231   -0.1015    1.7942 H   0  0  0  0  0  0  0  0  0  0  0  0
   -6.1160   -0.6192    2.0642 H   0  0  0  0  0  0  0  0  0  0  0  0
   -5.7770    0.9469    1.2268 H   0  0  0  0  0  0  0  0  0  0  0  0
   -6.9109   -1.5056   -1.4714 H   0  0  0  0  0  0  0  0  0  0  0  0
   -7.5277   -1.4528    0.2146 H   0  0  0  0  0  0  0  0  0  0  0  0
   -7.3016    0.0862   -0.7099 H   0  0  0  0  0  0  0  0  0  0  0  0
    0.6315    0.2734    2.0597 H   0  0  0  0  0  0  0  0  0  0  0  0
    2.9200   -0.2493    2.8001 H   0  0  0  0  0  0  0  0  0  0  0  0
  1  2  1  0
  2  3  1  0
  3  4  1  0
  4  5  1  0
  5  6  2  0
  6  7  1  0
  7  8  2  0
  8  9  1  0
  9 10  1  0
 10 11  1  0
 11 12  1  0
 11 13  1  0
 13 14  1  0
 14 15  1  0
 15 16  1  0
 15 17  1  0
  8 18  1  0
 18 19  2  0
 19  5  1  0
  1 20  1  0
  1 21  1  0
  1 22  1  0
  3 23  1  0
  3 24  1  0
  4 25  1  0
  4 26  1  0
  6 27  1  0
  7 28  1  0
 10 29  1  0
 10 30  1  0
 11 31  1  0
 12 32  1  0
 13 33  1  0
 13 34  1  0
 14 35  1  0
 15 36  1  0
 16 37  1  0
 16 38  1  0
 16 39  1  0
 17 40  1  0
 17 41  1  0
 17 42  1  0
 18 43  1  0
 19 44  1  0
M  END
> <ID>
HT1379

> <Class>
1.0

> <Clusters>
169

> <Fold>
1

$$$$