
     RDKit          3D

 62 65  0  0  0  0  0  0  0  0999 V2000
   -3.5235   -2.0839   -2.3317 C   0  0  0  0  0  0  0  0  0  0  0  0
   -3.4533   -1.7100   -0.8330 C   0  0  0  0  0  0  0  0  0  0  0  0
   -2.0010   -1.8559   -0.3218 C   0  0  0  0  0  0  0  0  0  0  0  0
   -1.1809   -0.5908   -0.6297 C   0  0  0  0  0  0  0  0  0  0  0  0
    0.3722   -0.7985   -0.6027 C   0  0  0  0  0  0  0  0  0  0  0  0
    0.9426   -1.9592    0.2430 C   0  0  0  0  0  0  0  0  0  0  0  0
    2.2823   -1.4778    0.8048 C   0  0  0  0  0  0  0  0  0  0  0  0
    2.6360   -0.1816    0.0383 C   0  0  0  0  0  0  0  0  0  0  0  0
    3.3126   -0.5207   -1.1597 O   0  0  0  0  0  0  0  0  0  0  0  0
    3.5841    0.7209    0.8384 C   0  0  0  0  0  0  0  0  0  0  0  0
    3.6390    0.6403    2.0575 O   0  0  0  0  0  0  0  0  0  0  0  0
    4.5560    1.6444    0.1461 C   0  0  0  0  0  0  0  0  0  0  0  0
    5.6610    0.9092   -0.3752 O   0  0  0  0  0  0  0  0  0  0  0  0
    6.6349    0.3036    0.4268 C   0  0  0  0  0  0  0  0  0  0  0  0
    6.6112    0.4319    1.6807 O   0  0  0  0  0  0  0  0  0  0  0  0
    7.6911   -0.5311   -0.2137 C   0  0  0  0  0  0  0  0  0  0  0  0
    1.2264    0.4532   -0.2647 C   0  0  0  0  0  0  0  0  0  0  0  0
    1.2835    1.4070   -1.4901 C   0  0  0  0  0  0  0  0  0  0  0  0
    0.6665    1.2396    0.9844 C   0  0  0  0  0  0  0  0  0  0  0  0
   -0.8281    1.0475    1.3457 C   0  0  0  0  0  0  0  0  0  0  0  0
   -0.9650    0.1731    2.4378 O   0  0  0  0  0  0  0  0  0  0  0  0
   -1.7166    0.6522    0.1382 C   0  0  0  0  0  0  0  0  0  0  0  0
   -3.2860    0.6416    0.4143 C   0  0  0  0  0  0  0  0  0  0  0  0
   -3.6814    0.1794    1.8384 C   0  0  0  0  0  0  0  0  0  0  0  0
   -3.7910    2.0817    0.3009 C   0  0  0  0  0  0  0  0  0  0  0  0
   -4.9567    2.3994   -0.2620 C   0  0  0  0  0  0  0  0  0  0  0  0
   -5.7692    1.3669   -0.8981 C   0  0  0  0  0  0  0  0  0  0  0  0
   -6.9182    1.6428   -1.3321 O   0  0  0  0  0  0  0  0  0  0  0  0
   -5.2209    0.0198   -1.0643 C   0  0  0  0  0  0  0  0  0  0  0  0
   -4.0093   -0.3077   -0.5696 C   0  0  0  0  0  0  0  0  0  0  0  0
   -3.0930   -1.2813   -2.9664 H   0  0  0  0  0  0  0  0  0  0  0  0
   -4.5724   -2.2601   -2.6466 H   0  0  0  0  0  0  0  0  0  0  0  0
   -2.9758   -3.0295   -2.5319 H   0  0  0  0  0  0  0  0  0  0  0  0
   -4.0829   -2.4412   -0.2798 H   0  0  0  0  0  0  0  0  0  0  0  0
   -2.0056   -2.0530    0.7677 H   0  0  0  0  0  0  0  0  0  0  0  0
   -1.5210   -2.7431   -0.7895 H   0  0  0  0  0  0  0  0  0  0  0  0
   -1.3948   -0.3631   -1.7001 H   0  0  0  0  0  0  0  0  0  0  0  0
    0.6267   -1.0867   -1.6505 H   0  0  0  0  0  0  0  0  0  0  0  0
    1.1099   -2.8500   -0.4028 H   0  0  0  0  0  0  0  0  0  0  0  0
    0.2824   -2.2906    1.0647 H   0  0  0  0  0  0  0  0  0  0  0  0
    2.1498   -1.2865    1.8920 H   0  0  0  0  0  0  0  0  0  0  0  0
    3.0728   -2.2509    0.6843 H   0  0  0  0  0  0  0  0  0  0  0  0
    2.8660   -1.2881   -1.6004 H   0  0  0  0  0  0  0  0  0  0  0  0
    4.0520    2.1564   -0.6945 H   0  0  0  0  0  0  0  0  0  0  0  0
    4.9182    2.4315    0.8432 H   0  0  0  0  0  0  0  0  0  0  0  0
    8.0495   -0.0344   -1.1395 H   0  0  0  0  0  0  0  0  0  0  0  0
    8.5513   -0.6678    0.4756 H   0  0  0  0  0  0  0  0  0  0  0  0
    7.2685   -1.5242   -0.4725 H   0  0  0  0  0  0  0  0  0  0  0  0
    0.2718    1.7406   -1.7880 H   0  0  0  0  0  0  0  0  0  0  0  0
    1.8752    2.3146   -1.2600 H   0  0  0  0  0  0  0  0  0  0  0  0
    1.7321    0.9160   -2.3779 H   0  0  0  0  0  0  0  0  0  0  0  0
    0.8563    2.3277    0.8504 H   0  0  0  0  0  0  0  0  0  0  0  0
    1.2312    0.9850    1.9016 H   0  0  0  0  0  0  0  0  0  0  0  0
   -1.1906    2.0358    1.7026 H   0  0  0  0  0  0  0  0  0  0  0  0
   -0.5638   -0.6915    2.1938 H   0  0  0  0  0  0  0  0  0  0  0  0
   -1.5628    1.4902   -0.5781 H   0  0  0  0  0  0  0  0  0  0  0  0
   -4.7888    0.1327    1.9342 H   0  0  0  0  0  0  0  0  0  0  0  0
   -3.3300    0.8963    2.6110 H   0  0  0  0  0  0  0  0  0  0  0  0
   -3.2935   -0.8286    2.0775 H   0  0  0  0  0  0  0  0  0  0  0  0
   -3.2309    2.8734    0.7834 H   0  0  0  0  0  0  0  0  0  0  0  0
   -5.3019    3.4258   -0.2477 H   0  0  0  0  0  0  0  0  0  0  0  0
   -5.8045   -0.6931   -1.6306 H   0  0  0  0  0  0  0  0  0  0  0  0
  1  2  1  0
  2  3  1  0
  3  4  1  0
  4  5  1  0
  5  6  1  0
  6  7  1  0
  7  8  1  0
  8  9  1  0
  8 10  1  0
 10 11  2  0
 10 12  1  0
 12 13  1  0
 13 14  1  0
 14 15  2  0
 14 16  1  0
  8 17  1  0
 17  5  1  0
 17 18  1  0
 17 19  1  0
 19 20  1  0
 20 21  1  0
 20 22  1  0
 22  4  1  0
 22 23  1  0
 23 24  1  0
 23 25  1  0
 25 26  2  0
 26 27  1  0
 27 28  2  0
 27 29  1  0
 29 30  2  0
 30  2  1  0
 30 23  1  0
  1 31  1  0
  1 32  1  0
  1 33  1  0
  2 34  1  0
  3 35  1  0
  3 36  1  0
  4 37  1  0
  5 38  1  0
  6 39  1  0
  6 40  1  0
  7 41  1  0
  7 42  1  0
  9 43  1  0
 12 44  1  0
 12 45  1  0
 16 46  1  0
 16 47  1  0
 16 48  1  0
 18 49  1  0
 18 50  1  0
 18 51  1  0
 19 52  1  0
 19 53  1  0
 20 54  1  0
 21 55  1  0
 22 56  1  0
 24 57  1  0
 24 58  1  0
 24 59  1  0
 25 60  1  0
 26 61  1  0
 29 62  1  0
M  END
> <ID>
HT1365

> <Class>
1.0

> <Clusters>
129

> <Fold>
1

$$$$