
     RDKit          3D

 28 29  0  0  0  0  0  0  0  0999 V2000
   -1.9426   -3.1552   -0.2620 C   0  0  0  0  0  0  0  0  0  0  0  0
   -1.0786   -2.1443    0.2431 O   0  0  0  0  0  0  0  0  0  0  0  0
   -1.4004   -0.7833    0.2039 C   0  0  0  0  0  0  0  0  0  0  0  0
   -2.5783   -0.3665   -0.3356 N   0  0  0  0  0  0  0  0  0  0  0  0
   -2.9024    0.9514   -0.3877 C   0  0  0  0  0  0  0  0  0  0  0  0
   -4.2178    1.3747   -0.9504 C   0  0  0  0  0  0  0  0  0  0  0  0
   -2.0595    1.8764    0.1404 N   0  0  0  0  0  0  0  0  0  0  0  0
   -0.8699    1.5155    0.6870 C   0  0  0  0  0  0  0  0  0  0  0  0
    0.1288    2.7625    1.4182 Cl  0  0  0  0  0  0  0  0  0  0  0  0
   -0.4990    0.1594    0.7153 C   0  0  0  0  0  0  0  0  0  0  0  0
    0.7425   -0.2727    1.2907 N   0  0  0  0  0  0  0  0  0  0  0  0
    2.0157    0.1566    0.7936 C   0  0  0  0  0  0  0  0  0  0  0  0
    2.1496    0.9039   -0.2469 N   0  0  0  0  0  0  0  0  0  0  0  0
    3.5674    1.1321   -0.5003 C   0  0  0  0  0  0  0  0  0  0  0  0
    4.3044    0.3462    0.5976 C   0  0  0  0  0  0  0  0  0  0  0  0
    3.2363   -0.2453    1.3779 N   0  0  0  0  0  0  0  0  0  0  0  0
   -1.4674   -4.1469   -0.1165 H   0  0  0  0  0  0  0  0  0  0  0  0
   -2.9099   -3.1360    0.2835 H   0  0  0  0  0  0  0  0  0  0  0  0
   -2.1199   -2.9967   -1.3468 H   0  0  0  0  0  0  0  0  0  0  0  0
   -4.9796    1.3819   -0.1434 H   0  0  0  0  0  0  0  0  0  0  0  0
   -4.5374    0.6709   -1.7478 H   0  0  0  0  0  0  0  0  0  0  0  0
   -4.1378    2.3930   -1.3861 H   0  0  0  0  0  0  0  0  0  0  0  0
    0.7259   -1.0602    1.9769 H   0  0  0  0  0  0  0  0  0  0  0  0
    3.7916    2.2180   -0.4296 H   0  0  0  0  0  0  0  0  0  0  0  0
    3.8354    0.7526   -1.5096 H   0  0  0  0  0  0  0  0  0  0  0  0
    4.9419   -0.4519    0.1605 H   0  0  0  0  0  0  0  0  0  0  0  0
    4.9121    1.0223    1.2364 H   0  0  0  0  0  0  0  0  0  0  0  0
    3.3488   -0.8585    2.2153 H   0  0  0  0  0  0  0  0  0  0  0  0
  1  2  1  0
  2  3  1  0
  3  4  2  0
  4  5  1  0
  5  6  1  0
  5  7  2  0
  7  8  1  0
  8  9  1  0
  8 10  2  0
 10  3  1  0
 10 11  1  0
 11 12  1  0
 12 13  2  0
 13 14  1  0
 14 15  1  0
 15 16  1  0
 16 12  1  0
  1 17  1  0
  1 18  1  0
  1 19  1  0
  6 20  1  0
  6 21  1  0
  6 22  1  0
 11 23  1  0
 14 24  1  0
 14 25  1  0
 15 26  1  0
 15 27  1  0
 16 28  1  0
M  END
> <ID>
HT1440

> <Class>
1.0

> <Clusters>
60

> <Fold>
1

$$$$