
     RDKit          3D

 31 32  0  0  0  0  0  0  0  0999 V2000
    2.9491    2.3954    0.1862 C   0  0  0  0  0  0  0  0  0  0  0  0
    2.1106    1.2267    0.5029 N   0  0  0  0  0  0  0  0  0  0  0  0
    2.4665    0.0244   -0.2906 C   0  0  0  0  0  0  0  0  0  0  0  0
    3.9576   -0.3532   -0.1384 C   0  0  0  0  0  0  0  0  0  0  0  0
    4.3661   -1.7844   -1.1259 Cl  0  0  0  0  0  0  0  0  0  0  0  0
    1.6294   -1.1099    0.1370 N   0  0  0  0  0  0  0  0  0  0  0  0
    0.1945   -1.0661    0.0948 C   0  0  0  0  0  0  0  0  0  0  0  0
   -0.5432   -2.2564    0.0945 C   0  0  0  0  0  0  0  0  0  0  0  0
   -1.9424   -2.2283    0.0555 C   0  0  0  0  0  0  0  0  0  0  0  0
   -2.8019   -3.7651    0.0463 Cl  0  0  0  0  0  0  0  0  0  0  0  0
   -2.6229   -0.9923    0.0252 C   0  0  0  0  0  0  0  0  0  0  0  0
   -1.8777    0.1978    0.0439 C   0  0  0  0  0  0  0  0  0  0  0  0
   -0.4799    0.1590    0.0841 C   0  0  0  0  0  0  0  0  0  0  0  0
    0.4487    1.6398    0.1611 S   0  0  0  0  0  0  0  0  0  0  0  0
   -0.0827    2.5121    1.2637 O   0  0  0  0  0  0  0  0  0  0  0  0
    0.3434    2.3597   -1.1554 O   0  0  0  0  0  0  0  0  0  0  0  0
   -4.3928   -0.9331   -0.0259 S   0  0  0  0  0  0  0  0  0  0  0  0
   -4.8754   -1.6508   -1.2548 O   0  0  0  0  0  0  0  0  0  0  0  0
   -4.9448   -1.6102    1.1970 O   0  0  0  0  0  0  0  0  0  0  0  0
   -4.9872    0.6921   -0.0705 N   0  0  0  0  0  0  0  0  0  0  0  0
    2.5081    3.3224    0.6125 H   0  0  0  0  0  0  0  0  0  0  0  0
    3.9452    2.2882    0.6628 H   0  0  0  0  0  0  0  0  0  0  0  0
    3.0680    2.5255   -0.9123 H   0  0  0  0  0  0  0  0  0  0  0  0
    2.2758    0.2168   -1.3718 H   0  0  0  0  0  0  0  0  0  0  0  0
    4.6148    0.4627   -0.5006 H   0  0  0  0  0  0  0  0  0  0  0  0
    4.1939   -0.5614    0.9268 H   0  0  0  0  0  0  0  0  0  0  0  0
    2.0787   -2.0019    0.4471 H   0  0  0  0  0  0  0  0  0  0  0  0
   -0.0276   -3.2087    0.1149 H   0  0  0  0  0  0  0  0  0  0  0  0
   -2.3717    1.1587    0.0344 H   0  0  0  0  0  0  0  0  0  0  0  0
   -4.5673    1.1590   -0.9052 H   0  0  0  0  0  0  0  0  0  0  0  0
   -4.6330    1.1814    0.7816 H   0  0  0  0  0  0  0  0  0  0  0  0
  1  2  1  0
  2  3  1  0
  3  4  1  0
  4  5  1  0
  3  6  1  0
  6  7  1  0
  7  8  2  0
  8  9  1  0
  9 10  1  0
  9 11  2  0
 11 12  1  0
 12 13  2  0
 13  7  1  0
 13 14  1  0
 14  2  1  0
 14 15  2  0
 14 16  2  0
 11 17  1  0
 17 18  2  0
 17 19  2  0
 17 20  1  0
  1 21  1  0
  1 22  1  0
  1 23  1  0
  3 24  1  0
  4 25  1  0
  4 26  1  0
  6 27  1  0
  8 28  1  0
 12 29  1  0
 20 30  1  0
 20 31  1  0
M  END
> <ID>
HT1355

> <Class>
1.0

> <Clusters>
40

> <Fold>
1

$$$$