Row1419
 OpenBabel06061811532D

 54 60  0  0  1  0  0  0  0  0999 V2000
    0.0000    0.0000    0.0000 Cl  0  0  0  0  0  0  0  0  0  0  0  0
    0.0000    0.0000    0.0000 C   0  0  0  0  0  0  0  0  0  0  0  0
    0.0000    0.0000    0.0000 C   0  0  0  0  0  0  0  0  0  0  0  0
    0.0000    0.0000    0.0000 C   0  0  0  0  0  0  0  0  0  0  0  0
    0.0000    0.0000    0.0000 C   0  0  0  0  0  0  0  0  0  0  0  0
    0.0000    0.0000    0.0000 C   0  0  0  0  0  0  0  0  0  0  0  0
    0.0000    0.0000    0.0000 C   0  0  0  0  0  0  0  0  0  0  0  0
    0.0000    0.0000    0.0000 C   0  0  3  0  0  0  0  0  0  0  0  0
    0.0000    0.0000    0.0000 N   0  0  0  0  0  0  0  0  0  0  0  0
    0.0000    0.0000    0.0000 C   0  0  0  0  0  0  0  0  0  0  0  0
    0.0000    0.0000    0.0000 C   0  0  0  0  0  0  0  0  0  0  0  0
    0.0000    0.0000    0.0000 N   0  0  0  0  0  0  0  0  0  0  0  0
    0.0000    0.0000    0.0000 C   0  0  0  0  0  0  0  0  0  0  0  0
    0.0000    0.0000    0.0000 C   0  0  0  0  0  0  0  0  0  0  0  0
    0.0000    0.0000    0.0000 C   0  0  0  0  0  0  0  0  0  0  0  0
    0.0000    0.0000    0.0000 C   0  0  0  0  0  0  0  0  0  0  0  0
    0.0000    0.0000    0.0000 O   0  0  0  0  0  0  0  0  0  0  0  0
    0.0000    0.0000    0.0000 C   0  0  0  0  0  0  0  0  0  0  0  0
    0.0000    0.0000    0.0000 C   0  0  0  0  0  0  0  0  0  0  0  0
    0.0000    0.0000    0.0000 O   0  0  0  0  0  0  0  0  0  0  0  0
    0.0000    0.0000    0.0000 C   0  0  0  0  0  0  0  0  0  0  0  0
    0.0000    0.0000    0.0000 O   0  0  0  0  0  0  0  0  0  0  0  0
    0.0000    0.0000    0.0000 C   0  0  0  0  0  0  0  0  0  0  0  0
    0.0000    0.0000    0.0000 C   0  0  0  0  0  0  0  0  0  0  0  0
    0.0000    0.0000    0.0000 C   0  0  0  0  0  0  0  0  0  0  0  0
    0.0000    0.0000    0.0000 C   0  0  0  0  0  0  0  0  0  0  0  0
    0.0000    0.0000    0.0000 C   0  0  0  0  0  0  0  0  0  0  0  0
    0.0000    0.0000    0.0000 C   0  0  0  0  0  0  0  0  0  0  0  0
    0.0000    0.0000    0.0000 C   0  0  0  0  0  0  0  0  0  0  0  0
    0.0000    0.0000    0.0000 C   0  0  0  0  0  0  0  0  0  0  0  0
    0.0000    0.0000    0.0000 C   0  0  0  0  0  0  0  0  0  0  0  0
    0.0000    0.0000    0.0000 C   0  0  0  0  0  0  0  0  0  0  0  0
    0.0000    0.0000    0.0000 C   0  0  0  0  0  0  0  0  0  0  0  0
    0.0000    0.0000    0.0000 C   0  0  0  0  0  0  0  0  0  0  0  0
    0.0000    0.0000    0.0000 C   0  0  0  0  0  0  0  0  0  0  0  0
    0.0000    0.0000    0.0000 C   0  0  0  0  0  0  0  0  0  0  0  0
    0.0000    0.0000    0.0000 C   0  0  0  0  0  0  0  0  0  0  0  0
    0.0000    0.0000    0.0000 C   0  0  0  0  0  0  0  0  0  0  0  0
    0.0000    0.0000    0.0000 O   0  0  0  0  0  0  0  0  0  0  0  0
    0.0000    0.0000    0.0000 O   0  0  0  0  0  0  0  0  0  0  0  0
    0.0000    0.0000    0.0000 C   0  0  0  0  0  0  0  0  0  0  0  0
    0.0000    0.0000    0.0000 O   0  0  0  0  0  0  0  0  0  0  0  0
    0.0000    0.0000    0.0000 C   0  0  0  0  0  0  0  0  0  0  0  0
    0.0000    0.0000    0.0000 C   0  0  0  0  0  0  0  0  0  0  0  0
    0.0000    0.0000    0.0000 C   0  0  0  0  0  0  0  0  0  0  0  0
    0.0000    0.0000    0.0000 C   0  0  0  0  0  0  0  0  0  0  0  0
    0.0000    0.0000    0.0000 C   0  0  0  0  0  0  0  0  0  0  0  0
    0.0000    0.0000    0.0000 O   0  0  0  0  0  0  0  0  0  0  0  0
    0.0000    0.0000    0.0000 C   0  0  0  0  0  0  0  0  0  0  0  0
    0.0000    0.0000    0.0000 C   0  0  0  0  0  0  0  0  0  0  0  0
    0.0000    0.0000    0.0000 C   0  0  0  0  0  0  0  0  0  0  0  0
    0.0000    0.0000    0.0000 C   0  0  0  0  0  0  0  0  0  0  0  0
    0.0000    0.0000    0.0000 C   0  0  0  0  0  0  0  0  0  0  0  0
    0.0000    0.0000    0.0000 C   0  0  0  0  0  0  0  0  0  0  0  0
  1  2  1  0  0  0  0
  2  7  1  0  0  0  0
  2  3  2  0  0  0  0
  3  4  1  0  0  0  0
  4  5  2  0  0  0  0
  5  6  1  0  0  0  0
  5  8  1  0  0  0  0
  6  7  2  0  0  0  0
  8  9  1  0  0  0  0
  8 49  1  0  0  0  0
  9 14  1  0  0  0  0
  9 10  1  0  0  0  0
 10 11  1  0  0  0  0
 11 12  1  0  0  0  0
 12 13  1  0  0  0  0
 12 15  1  0  0  0  0
 13 14  1  0  0  0  0
 15 16  1  0  0  0  0
 16 17  1  0  0  0  0
 17 18  1  0  0  0  0
 18 19  1  0  0  0  0
 19 20  1  0  0  0  0
 20 21  1  0  0  0  0
 21 22  2  0  0  0  0
 21 23  1  0  0  0  0
 23 47  1  0  0  0  0
 23 24  2  0  0  0  0
 24 25  1  0  0  0  0
 25 30  1  0  0  0  0
 25 26  2  0  0  0  0
 26 27  1  0  0  0  0
 26 31  1  0  0  0  0
 27 28  2  0  0  0  0
 28 29  1  0  0  0  0
 29 30  2  0  0  0  0
 31 32  1  0  0  0  0
 31 47  2  0  0  0  0
 32 33  1  0  0  0  0
 33 41  1  0  0  0  0
 33 34  2  0  0  0  0
 34 46  1  0  0  0  0
 34 35  1  0  0  0  0
 35 36  2  0  0  0  0
 35 43  1  0  0  0  0
 36 37  1  0  0  0  0
 37 38  1  0  0  0  0
 37 41  2  0  0  0  0
 38 39  1  0  0  0  0
 38 40  2  0  0  0  0
 41 42  1  0  0  0  0
 43 44  2  0  0  0  0
 44 45  1  0  0  0  0
 45 46  2  0  0  0  0
 47 48  1  0  0  0  0
 49 54  1  0  0  0  0
 49 50  2  0  0  0  0
 50 51  1  0  0  0  0
 51 52  2  0  0  0  0
 52 53  1  0  0  0  0
 53 54  2  0  0  0  0
M  END
> <Index>
1420

> <ID>
HT0006

> <class>
1

> <apol>
114.77251

> <ast_fraglike>
0

> <ast_fraglike_ext>
0

> <ast_violation>
4

> <ast_violation_ext>
6

> <a_acc>
8

> <a_acid>
0

> <a_aro>
32

> <a_base>
0

> <a_count>
95

> <a_don>
4

> <a_donacc>
12

> <a_heavy>
54

> <a_hyd>
43

> <a_IC>
142.61017

> <a_ICM>
1.5011598

> <a_nB>
0

> <a_nBr>
0

> <a_nC>
44

> <a_nCl>
1

> <a_nF>
0

> <a_nH>
41

> <a_nI>
0

> <a_nN>
2

> <a_nO>
7

> <a_nP>
0

> <a_nS>
0

> <balabanJ>
0.85757095

> <BCUT_PEOE_0>
-2.7872789

> <BCUT_PEOE_1>
-0.61995268

> <BCUT_PEOE_2>
0.67352432

> <BCUT_PEOE_3>
2.6888597

> <BCUT_SLOGP_0>
-2.8927276

> <BCUT_SLOGP_1>
-0.51453096

> <BCUT_SLOGP_2>
0.75923568

> <BCUT_SLOGP_3>
2.6316774

> <BCUT_SMR_0>
-2.5033066

> <BCUT_SMR_1>
-0.440155

> <BCUT_SMR_2>
0.85431087

> <BCUT_SMR_3>
2.9649739

> <bpol>
54.949486

> <b_1rotN>
13

> <b_1rotR>
0.21666667

> <b_ar>
34

> <b_count>
101

> <b_double>
2

> <b_heavy>
60

> <b_max1len>
6

> <b_rotN>
14

> <b_rotR>
0.23333333

> <b_single>
65

> <b_triple>
0

> <chi0>
37.605507

> <chi0v>
30.413921

> <chi0v_C>
25.410967

> <chi0_C>
29.036594

> <chi1>
26.278898

> <chi1v>
18.381413

> <chi1v_C>
13.825909

> <chi1_C>
18.531973

> <chiral>
1

> <chiral_u>
1

> <density>
0.74669904

> <diameter>
25

> <FCharge>
0

> <GCUT_PEOE_0>
-0.85093814

> <GCUT_PEOE_1>
-0.38905451

> <GCUT_PEOE_2>
0.080696203

> <GCUT_PEOE_3>
2.9426522

> <GCUT_SLOGP_0>
-0.96408874

> <GCUT_SLOGP_1>
-0.27658796

> <GCUT_SLOGP_2>
0.15752041

> <GCUT_SLOGP_3>
3.0213704

> <GCUT_SMR_0>
-0.51764309

> <GCUT_SMR_1>
-0.21024801

> <GCUT_SMR_2>
0.21510057

> <GCUT_SMR_3>
3.2172558

> <Kier1>
42.134998

> <Kier2>
20.310658

> <Kier3>
10.427524

> <KierA1>
32.734249

> <KierA2>
15.699848

> <KierA3>
8.0323877

> <KierFlex>
9.5170879

> <lip_acc>
9

> <lip_don>
3

> <lip_druglike>
0

> <lip_violation>
2

> <logP(o/w)>
8.8227396

> <logS>
-10.92815

> <mr>
21.009094

> <mutagenic>
0

> <nmol>
1

> <opr_brigid>
40

> <opr_leadlike>
0

> <opr_nring>
7

> <opr_nrot>
15

> <opr_violation>
5

> <PC+>
0

> <PC->
0

> <PEOE_PC+>
4.0699515

> <PEOE_PC->
-4.0699515

> <PEOE_RPC+>
0.072827145

> <PEOE_RPC->
0.092439324

> <PEOE_VSA+0>
130.36731

> <PEOE_VSA+1>
180.23399

> <PEOE_VSA+2>
0.0

> <PEOE_VSA+3>
0.0

> <PEOE_VSA+4>
30.972517

> <PEOE_VSA+5>
29.416998

> <PEOE_VSA+6>
0.0

> <PEOE_VSA-0>
66.687935

> <PEOE_VSA-1>
213.4055

> <PEOE_VSA-2>
0.0

> <PEOE_VSA-3>
0.0

> <PEOE_VSA-4>
0.0

> <PEOE_VSA-5>
27.133842

> <PEOE_VSA-6>
28.310133

> <PEOE_VSA_FHYD>
0.8360526

> <PEOE_VSA_FNEG>
0.47491011

> <PEOE_VSA_FPNEG>
0.078473829

> <PEOE_VSA_FPOL>
0.16394743

> <PEOE_VSA_FPOS>
0.52508986

> <PEOE_VSA_FPPOS>
0.085473605

> <PEOE_VSA_HYD>
590.69476

> <PEOE_VSA_NEG>
335.53741

> <PEOE_VSA_PNEG>
55.443974

> <PEOE_VSA_POL>
115.83349

> <PEOE_VSA_POS>
370.99081

> <PEOE_VSA_PPOS>
60.389515

> <petitjean>
0.47999999

> <petitjeanSC>
0.92307693

> <Q_PC+>
0

> <Q_PC->
0

> <Q_RPC+>
0

> <Q_RPC->
0

> <Q_VSA_FHYD>
1

> <Q_VSA_FNEG>
0

> <Q_VSA_FPNEG>
0

> <Q_VSA_FPOL>
0

> <Q_VSA_FPOS>
1

> <Q_VSA_FPPOS>
0

> <Q_VSA_HYD>
706.52826

> <Q_VSA_NEG>
0

> <Q_VSA_PNEG>
0

> <Q_VSA_POL>
0

> <Q_VSA_POS>
706.52826

> <Q_VSA_PPOS>
0

> <radius>
13

> <reactive>
0

> <rings>
7

> <RPC+>
0

> <RPC->
0

> <rsynth>
1.0

> <SlogP>
8.0226698

> <SlogP_VSA0>
50.770454

> <SlogP_VSA1>
21.739555

> <SlogP_VSA2>
21.999775

> <SlogP_VSA3>
180.36189

> <SlogP_VSA4>
66.837883

> <SlogP_VSA5>
18.868406

> <SlogP_VSA6>
3.5006065

> <SlogP_VSA7>
345.51236

> <SlogP_VSA8>
3.9819686

> <SlogP_VSA9>
49.635502

> <SMR>
20.99534

> <SMR_VSA0>
69.724205

> <SMR_VSA1>
57.019081

> <SMR_VSA2>
25.385227

> <SMR_VSA3>
37.082882

> <SMR_VSA4>
10.291858

> <SMR_VSA5>
354.0889

> <SMR_VSA6>
170.46759

> <SMR_VSA7>
39.148643

> <TPSA>
119.77

> <VAdjEq>
0.24755056

> <VAdjMa>
6.9068904

> <VDistEq>
4.4849706

> <VDistMa>
11.18109

> <vdw_area>
706.52826

> <vdw_vol>
998.08887

> <vsa_acc>
16.070677

> <vsa_acid>
0

> <vsa_base>
0

> <vsa_don>
0.0

> <vsa_hyd>
563.64655

> <vsa_other>
31.920755

> <vsa_pol>
70.338364

> <Weight>
745.27197

> <weinerPath>
14794

> <weinerPol>
94

> <zagreb>
288

$$$$
Row1420
 OpenBabel06061811532D

 11 11  0  0  0  0  0  0  0  0999 V2000
    0.0000    0.0000    0.0000 O   0  0  0  0  0  0  0  0  0  0  0  0
    0.0000    0.0000    0.0000 C   0  0  0  0  0  0  0  0  0  0  0  0
    0.0000    0.0000    0.0000 C   0  0  0  0  0  0  0  0  0  0  0  0
    0.0000    0.0000    0.0000 C   0  0  0  0  0  0  0  0  0  0  0  0
    0.0000    0.0000    0.0000 C   0  0  0  0  0  0  0  0  0  0  0  0
    0.0000    0.0000    0.0000 N   0  0  0  0  0  0  0  0  0  0  0  0
    0.0000    0.0000    0.0000 C   0  0  0  0  0  0  0  0  0  0  0  0
    0.0000    0.0000    0.0000 O   0  0  0  0  0  0  0  0  0  0  0  0
    0.0000    0.0000    0.0000 C   0  0  0  0  0  0  0  0  0  0  0  0
    0.0000    0.0000    0.0000 C   0  0  0  0  0  0  0  0  0  0  0  0
    0.0000    0.0000    0.0000 C   0  0  0  0  0  0  0  0  0  0  0  0
  1  2  1  0  0  0  0
  2 11  1  0  0  0  0
  2  3  2  0  0  0  0
  3  4  1  0  0  0  0
  4  5  2  0  0  0  0
  5  6  1  0  0  0  0
  5 10  1  0  0  0  0
  6  7  1  0  0  0  0
  7  8  2  0  0  0  0
  7  9  1  0  0  0  0
 10 11  2  0  0  0  0
M  END
> <Index>
1421

> <ID>
HT0053

> <class>
1

> <apol>
22.785137

> <ast_fraglike>
1

> <ast_fraglike_ext>
1

> <ast_violation>
0

> <ast_violation_ext>
0

> <a_acc>
2

> <a_acid>
0

> <a_aro>
6

> <a_base>
0

> <a_count>
20

> <a_don>
2

> <a_donacc>
4

> <a_heavy>
11

> <a_hyd>
7

> <a_IC>
31.909237

> <a_ICM>
1.5954618

> <a_nB>
0

> <a_nBr>
0

> <a_nC>
8

> <a_nCl>
0

> <a_nF>
0

> <a_nH>
9

> <a_nI>
0

> <a_nN>
1

> <a_nO>
2

> <a_nP>
0

> <a_nS>
0

> <balabanJ>
2.2054572

> <BCUT_PEOE_0>
-2.2998581

> <BCUT_PEOE_1>
-0.61590123

> <BCUT_PEOE_2>
0.62525588

> <BCUT_PEOE_3>
2.2784643

> <BCUT_SLOGP_0>
-2.3489609

> <BCUT_SLOGP_1>
-0.55154735

> <BCUT_SLOGP_2>
0.67019856

> <BCUT_SLOGP_3>
2.3865898

> <BCUT_SMR_0>
-1.9821142

> <BCUT_SMR_1>
-0.44730929

> <BCUT_SMR_2>
0.78438872

> <BCUT_SMR_3>
2.5906546

> <bpol>
11.456863

> <b_1rotN>
1

> <b_1rotR>
0.090909094

> <b_ar>
6

> <b_count>
20

> <b_double>
1

> <b_heavy>
11

> <b_max1len>
2

> <b_rotN>
2

> <b_rotR>
0.18181819

> <b_single>
13

> <b_triple>
0

> <chi0>
8.2675848

> <chi0v>
6.1648631

> <chi0v_C>
4.809401

> <chi0_C>
5.5604777

> <chi1>
5.1815405

> <chi1v>
3.2490981

> <chi1v_C>
2.3213673

> <chi1_C>
3.2103434

> <chiral>
0

> <chiral_u>
0

> <density>
0.74203622

> <diameter>
7

> <FCharge>
0

> <GCUT_PEOE_0>
-0.81409049

> <GCUT_PEOE_1>
-0.45780459

> <GCUT_PEOE_2>
0.082701199

> <GCUT_PEOE_3>
2.0724747

> <GCUT_SLOGP_0>
-0.99736053

> <GCUT_SLOGP_1>
-0.31261334

> <GCUT_SLOGP_2>
0.12389528

> <GCUT_SLOGP_3>
2.2220063

> <GCUT_SMR_0>
-0.46823248

> <GCUT_SMR_1>
-0.23143777

> <GCUT_SMR_2>
0.20670979

> <GCUT_SMR_3>
2.373507

> <Kier1>
9.090909

> <Kier2>
4.1326532

> <Kier3>
3.2653062

> <KierA1>
6.1692924

> <KierA2>
2.6813617

> <KierA3>
2.0340402

> <KierFlex>
1.5038276

> <lip_acc>
3

> <lip_don>
2

> <lip_druglike>
1

> <lip_violation>
0

> <logP(o/w)>
0.889

> <logS>
-1.23238

> <mr>
4.2307181

> <mutagenic>
0

> <nmol>
1

> <opr_brigid>
6

> <opr_leadlike>
1

> <opr_nring>
1

> <opr_nrot>
1

> <opr_violation>
0

> <PC+>
0

> <PC->
0

> <PEOE_PC+>
1.091136

> <PEOE_PC->
-1.091136

> <PEOE_RPC+>
0.20358108

> <PEOE_RPC->
0.32977641

> <PEOE_VSA+0>
38.243385

> <PEOE_VSA+1>
25.520063

> <PEOE_VSA+2>
0.0

> <PEOE_VSA+3>
8.6190128

> <PEOE_VSA+4>
23.273705

> <PEOE_VSA+5>
0.0

> <PEOE_VSA+6>
0.0

> <PEOE_VSA-0>
49.019615

> <PEOE_VSA-1>
0.0

> <PEOE_VSA-2>
0.0

> <PEOE_VSA-3>
0.0

> <PEOE_VSA-4>
0.0

> <PEOE_VSA-5>
13.566921

> <PEOE_VSA-6>
7.9044313

> <PEOE_VSA_FHYD>
0.73069018

> <PEOE_VSA_FNEG>
0.42426834

> <PEOE_VSA_FPNEG>
0.12923095

> <PEOE_VSA_FPOL>
0.26930982

> <PEOE_VSA_FPOS>
0.57573169

> <PEOE_VSA_FPPOS>
0.14007887

> <PEOE_VSA_HYD>
121.40208

> <PEOE_VSA_NEG>
70.490967

> <PEOE_VSA_PNEG>
21.471352

> <PEOE_VSA_POL>
44.745056

> <PEOE_VSA_POS>
95.656166

> <PEOE_VSA_PPOS>
23.273705

> <petitjean>
0.42857143

> <petitjeanSC>
0.75

> <Q_PC+>
0

> <Q_PC->
0

> <Q_RPC+>
0

> <Q_RPC->
0

> <Q_VSA_FHYD>
1

> <Q_VSA_FNEG>
0

> <Q_VSA_FPNEG>
0

> <Q_VSA_FPOL>
0

> <Q_VSA_FPOS>
1

> <Q_VSA_FPPOS>
0

> <Q_VSA_HYD>
166.14714

> <Q_VSA_NEG>
0

> <Q_VSA_PNEG>
0

> <Q_VSA_POL>
0

> <Q_VSA_POS>
166.14714

> <Q_VSA_PPOS>
0

> <radius>
4

> <reactive>
0

> <rings>
1

> <RPC+>
0

> <RPC->
0

> <rsynth>
1.0

> <SlogP>
1.3506

> <SlogP_VSA0>
25.385227

> <SlogP_VSA1>
23.269535

> <SlogP_VSA2>
23.862217

> <SlogP_VSA3>
0.0

> <SlogP_VSA4>
0.0

> <SlogP_VSA5>
0.0

> <SlogP_VSA6>
0.0

> <SlogP_VSA7>
70.572739

> <SlogP_VSA8>
0.0

> <SlogP_VSA9>
41.326191

> <SMR>
4.2410498

> <SMR_VSA0>
23.862217

> <SMR_VSA1>
25.385227

> <SMR_VSA2>
0.0

> <SMR_VSA3>
5.2434282

> <SMR_VSA4>
20.767498

> <SMR_VSA5>
70.572739

> <SMR_VSA6>
5.2587838

> <SMR_VSA7>
33.326015

> <TPSA>
49.330002

> <VAdjEq>
0.68403846

> <VAdjMa>
4.4594316

> <VDistEq>
2.5872664

> <VDistMa>
6.5690522

> <vdw_area>
166.14714

> <vdw_vol>
203.71646

> <vsa_acc>
13.566921

> <vsa_acid>
0

> <vsa_base>
0

> <vsa_don>
5.6825762

> <vsa_hyd>
107.8005

> <vsa_other>
12.949531

> <vsa_pol>
32.816418

> <Weight>
151.16499

> <weinerPath>
166

> <weinerPol>
11

> <zagreb>
50

$$$$
Row1421
 OpenBabel06061811532D

 13 13  0  0  0  0  0  0  0  0999 V2000
    0.0000    0.0000    0.0000 S   0  0  0  0  0  0  0  0  0  0  0  0
    0.0000    0.0000    0.0000 C   0  0  0  0  0  0  0  0  0  0  0  0
    0.0000    0.0000    0.0000 N   0  0  0  0  0  0  0  0  0  0  0  0
    0.0000    0.0000    0.0000 N   0  0  0  0  0  0  0  0  0  0  0  0
    0.0000    0.0000    0.0000 C   0  0  0  0  0  0  0  0  0  0  0  0
    0.0000    0.0000    0.0000 S   0  0  0  0  0  0  0  0  0  0  0  0
    0.0000    0.0000    0.0000 O   0  0  0  0  0  0  0  0  0  0  0  0
    0.0000    0.0000    0.0000 O   0  0  0  0  0  0  0  0  0  0  0  0
    0.0000    0.0000    0.0000 N   0  0  0  0  0  0  0  0  0  0  0  0
    0.0000    0.0000    0.0000 N   0  0  0  0  0  0  0  0  0  0  0  0
    0.0000    0.0000    0.0000 C   0  0  0  0  0  0  0  0  0  0  0  0
    0.0000    0.0000    0.0000 O   0  0  0  0  0  0  0  0  0  0  0  0
    0.0000    0.0000    0.0000 C   0  0  0  0  0  0  0  0  0  0  0  0
  1  5  1  0  0  0  0
  1  2  1  0  0  0  0
  2  3  2  0  0  0  0
  2 10  1  0  0  0  0
  3  4  1  0  0  0  0
  4  5  2  0  0  0  0
  5  6  1  0  0  0  0
  6  7  2  0  0  0  0
  6  8  2  0  0  0  0
  6  9  1  0  0  0  0
 10 11  1  0  0  0  0
 11 12  2  0  0  0  0
 11 13  1  0  0  0  0
M  END
> <Index>
1422

> <ID>
HT0054

> <class>
1

> <apol>
23.646757

> <ast_fraglike>
0

> <ast_fraglike_ext>
0

> <ast_violation>
1

> <ast_violation_ext>
2

> <a_acc>
5

> <a_acid>
0

> <a_aro>
5

> <a_base>
0

> <a_count>
19

> <a_don>
2

> <a_donacc>
7

> <a_heavy>
13

> <a_hyd>
3

> <a_IC>
42.445961

> <a_ICM>
2.2339978

> <a_nB>
0

> <a_nBr>
0

> <a_nC>
4

> <a_nCl>
0

> <a_nF>
0

> <a_nH>
6

> <a_nI>
0

> <a_nN>
4

> <a_nO>
3

> <a_nP>
0

> <a_nS>
2

> <balabanJ>
2.3835132

> <BCUT_PEOE_0>
-2.2652922

> <BCUT_PEOE_1>
-0.52656114

> <BCUT_PEOE_2>
0.51866746

> <BCUT_PEOE_3>
2.3460736

> <BCUT_SLOGP_0>
-2.5647182

> <BCUT_SLOGP_1>
-0.51776671

> <BCUT_SLOGP_2>
0.46244836

> <BCUT_SLOGP_3>
2.2971613

> <BCUT_SMR_0>
-1.9508547

> <BCUT_SMR_1>
-0.30995604

> <BCUT_SMR_2>
0.74647355

> <BCUT_SMR_3>
2.7062695

> <bpol>
17.593243

> <b_1rotN>
2

> <b_1rotR>
0.15384616

> <b_ar>
5

> <b_count>
19

> <b_double>
1

> <b_heavy>
13

> <b_max1len>
3

> <b_rotN>
3

> <b_rotR>
0.23076923

> <b_single>
13

> <b_triple>
0

> <chi0>
10.060478

> <chi0v>
8.1460123

> <chi0v_C>
2.5

> <chi0_C>
2.7320509

> <chi1>
5.8928652

> <chi1v>
5.3955617

> <chi1v_C>
0.5

> <chi1_C>
0.57735026

> <chiral>
0

> <chiral_u>
0

> <density>
1.0634918

> <diameter>
7

> <FCharge>
0

> <GCUT_PEOE_0>
-0.79506665

> <GCUT_PEOE_1>
-0.39605787

> <GCUT_PEOE_2>
0.080812745

> <GCUT_PEOE_3>
2.0337887

> <GCUT_SLOGP_0>
-1.3481762

> <GCUT_SLOGP_1>
-0.47098297

> <GCUT_SLOGP_2>
0.054200001

> <GCUT_SLOGP_3>
2.019762

> <GCUT_SMR_0>
-0.46796748

> <GCUT_SMR_1>
-0.16934715

> <GCUT_SMR_2>
0.27110729

> <GCUT_SMR_3>
2.329648

> <Kier1>
11.076923

> <Kier2>
4.0221605

> <Kier3>
3.3240998

> <KierA1>
10.889118

> <KierA2>
3.9479673

> <KierA3>
3.258605

> <KierFlex>
3.3069141

> <lip_acc>
7

> <lip_don>
3

> <lip_druglike>
1

> <lip_violation>
0

> <logP(o/w)>
-0.93000001

> <logS>
-2.3608899

> <mr>
4.6927123

> <mutagenic>
0

> <nmol>
1

> <opr_brigid>
5

> <opr_leadlike>
1

> <opr_nring>
1

> <opr_nrot>
2

> <opr_violation>
0

> <PC+>
0

> <PC->
0

> <PEOE_PC+>
1.4514192

> <PEOE_PC->
-1.4514192

> <PEOE_RPC+>
0.25409409

> <PEOE_RPC->
0.2193011

> <PEOE_VSA+0>
48.78186

> <PEOE_VSA+1>
10.105608

> <PEOE_VSA+2>
13.166624

> <PEOE_VSA+3>
8.6190128

> <PEOE_VSA+4>
12.949531

> <PEOE_VSA+5>
0.0

> <PEOE_VSA+6>
30.412292

> <PEOE_VSA-0>
0.0

> <PEOE_VSA-1>
9.4210396

> <PEOE_VSA-2>
9.4210396

> <PEOE_VSA-3>
9.0437498

> <PEOE_VSA-4>
32.016521

> <PEOE_VSA-5>
13.566921

> <PEOE_VSA-6>
0.13689101

> <PEOE_VSA_FHYD>
0.54927307

> <PEOE_VSA_FNEG>
0.37242338

> <PEOE_VSA_FPNEG>
0.23133011

> <PEOE_VSA_FPOL>
0.4507269

> <PEOE_VSA_FPOS>
0.62757665

> <PEOE_VSA_FPPOS>
0.2193968

> <PEOE_VSA_HYD>
108.55894

> <PEOE_VSA_NEG>
73.606163

> <PEOE_VSA_PNEG>
45.720337

> <PEOE_VSA_POL>
89.082161

> <PEOE_VSA_POS>
124.03493

> <PEOE_VSA_PPOS>
43.361824

> <petitjean>
0.42857143

> <petitjeanSC>
0.75

> <Q_PC+>
0

> <Q_PC->
0

> <Q_RPC+>
0

> <Q_RPC->
0

> <Q_VSA_FHYD>
1

> <Q_VSA_FNEG>
0

> <Q_VSA_FPNEG>
0

> <Q_VSA_FPOL>
0

> <Q_VSA_FPOS>
1

> <Q_VSA_FPPOS>
0

> <Q_VSA_HYD>
197.6411

> <Q_VSA_NEG>
0

> <Q_VSA_PNEG>
0

> <Q_VSA_POL>
0

> <Q_VSA_POS>
197.6411

> <Q_VSA_PPOS>
0

> <radius>
4

> <reactive>
0

> <rings>
1

> <RPC+>
0

> <RPC->
0

> <rsynth>
1.0

> <SlogP>
-0.85610002

> <SlogP_VSA0>
31.291433

> <SlogP_VSA1>
104.76723

> <SlogP_VSA2>
30.502958

> <SlogP_VSA3>
0.0

> <SlogP_VSA4>
0.0

> <SlogP_VSA5>
0.0

> <SlogP_VSA6>
0.0

> <SlogP_VSA7>
0.0

> <SlogP_VSA8>
0.0

> <SlogP_VSA9>
65.104446

> <SMR>
4.5585899

> <SMR_VSA0>
72.033905

> <SMR_VSA1>
33.326015

> <SMR_VSA2>
0.0

> <SMR_VSA3>
0.0

> <SMR_VSA4>
49.802933

> <SMR_VSA5>
0.0

> <SMR_VSA6>
5.2587838

> <SMR_VSA7>
71.244446

> <TPSA>
115.04

> <VAdjEq>
0.6193822

> <VAdjMa>
4.7004399

> <VDistEq>
2.6784222

> <VDistMa>
7.0721483

> <vdw_area>
197.6411

> <vdw_vol>
208.98045

> <vsa_acc>
64.425522

> <vsa_acid>
0

> <vsa_base>
0

> <vsa_don>
25.817696

> <vsa_hyd>
59.820744

> <vsa_other>
36.221764

> <vsa_pol>
90.243217

> <Weight>
222.24901

> <weinerPath>
257

> <weinerPol>
14

> <zagreb>
64

$$$$
Row1422
 OpenBabel06061811532D

 22 23  0  0  0  0  0  0  0  0999 V2000
    0.0000    0.0000    0.0000 S   0  0  0  0  0  0  0  0  0  0  0  0
    0.0000    0.0000    0.0000 O   0  0  0  0  0  0  0  0  0  0  0  0
    0.0000    0.0000    0.0000 O   0  0  0  0  0  0  0  0  0  0  0  0
    0.0000    0.0000    0.0000 N   0  0  0  0  0  0  0  0  0  0  0  0
    0.0000    0.0000    0.0000 C   0  0  0  0  0  0  0  0  0  0  0  0
    0.0000    0.0000    0.0000 O   0  0  0  0  0  0  0  0  0  0  0  0
    0.0000    0.0000    0.0000 N   0  0  0  0  0  0  0  0  0  0  0  0
    0.0000    0.0000    0.0000 C   0  0  0  0  0  0  0  0  0  0  0  0
    0.0000    0.0000    0.0000 C   0  0  0  0  0  0  0  0  0  0  0  0
    0.0000    0.0000    0.0000 C   0  0  0  0  0  0  0  0  0  0  0  0
    0.0000    0.0000    0.0000 C   0  0  0  0  0  0  0  0  0  0  0  0
    0.0000    0.0000    0.0000 C   0  0  0  0  0  0  0  0  0  0  0  0
    0.0000    0.0000    0.0000 C   0  0  0  0  0  0  0  0  0  0  0  0
    0.0000    0.0000    0.0000 C   0  0  0  0  0  0  0  0  0  0  0  0
    0.0000    0.0000    0.0000 C   0  0  0  0  0  0  0  0  0  0  0  0
    0.0000    0.0000    0.0000 C   0  0  0  0  0  0  0  0  0  0  0  0
    0.0000    0.0000    0.0000 C   0  0  0  0  0  0  0  0  0  0  0  0
    0.0000    0.0000    0.0000 C   0  0  0  0  0  0  0  0  0  0  0  0
    0.0000    0.0000    0.0000 C   0  0  0  0  0  0  0  0  0  0  0  0
    0.0000    0.0000    0.0000 C   0  0  0  0  0  0  0  0  0  0  0  0
    0.0000    0.0000    0.0000 O   0  0  0  0  0  0  0  0  0  0  0  0
    0.0000    0.0000    0.0000 C   0  0  0  0  0  0  0  0  0  0  0  0
  1  2  2  0  0  0  0
  1  3  2  0  0  0  0
  1  4  1  0  0  0  0
  1 14  1  0  0  0  0
  4  5  1  0  0  0  0
  5  6  2  0  0  0  0
  5  7  1  0  0  0  0
  7  8  1  0  0  0  0
  8 13  1  0  0  0  0
  8  9  1  0  0  0  0
  9 10  1  0  0  0  0
 10 11  1  0  0  0  0
 11 12  1  0  0  0  0
 12 13  1  0  0  0  0
 14 19  1  0  0  0  0
 14 15  2  0  0  0  0
 15 16  1  0  0  0  0
 16 17  2  0  0  0  0
 17 18  1  0  0  0  0
 17 20  1  0  0  0  0
 18 19  2  0  0  0  0
 20 21  2  0  0  0  0
 20 22  1  0  0  0  0
M  END
> <Index>
1423

> <ID>
HT0056

> <class>
1

> <apol>
48.043861

> <ast_fraglike>
0

> <ast_fraglike_ext>
0

> <ast_violation>
2

> <ast_violation_ext>
4

> <a_acc>
4

> <a_acid>
0

> <a_aro>
6

> <a_base>
0

> <a_count>
42

> <a_don>
2

> <a_donacc>
6

> <a_heavy>
22

> <a_hyd>
13

> <a_IC>
71.43541

> <a_ICM>
1.7008431

> <a_nB>
0

> <a_nBr>
0

> <a_nC>
15

> <a_nCl>
0

> <a_nF>
0

> <a_nH>
20

> <a_nI>
0

> <a_nN>
2

> <a_nO>
4

> <a_nP>
0

> <a_nS>
1

> <balabanJ>
1.7744197

> <BCUT_PEOE_0>
-2.8065362

> <BCUT_PEOE_1>
-0.62888855

> <BCUT_PEOE_2>
0.62112921

> <BCUT_PEOE_3>
2.7123063

> <BCUT_SLOGP_0>
-2.7951536

> <BCUT_SLOGP_1>
-0.51853567

> <BCUT_SLOGP_2>
0.67847031

> <BCUT_SLOGP_3>
2.8320704

> <BCUT_SMR_0>
-2.5291378

> <BCUT_SMR_1>
-0.4507452

> <BCUT_SMR_2>
0.75918078

> <BCUT_SMR_3>
2.9867673

> <bpol>
31.576139

> <b_1rotN>
4

> <b_1rotR>
0.17391305

> <b_ar>
6

> <b_count>
43

> <b_double>
2

> <b_heavy>
23

> <b_max1len>
3

> <b_rotN>
6

> <b_rotR>
0.26086956

> <b_single>
35

> <b_triple>
0

> <chi0>
16.164927

> <chi0v>
13.280024

> <chi0v_C>
9.4222851

> <chi0_C>
10.250712

> <chi1>
10.381847

> <chi1v>
8.8095322

> <chi1v_C>
5.3878636

> <chi1_C>
6.3601732

> <chiral>
0

> <chiral_u>
0

> <density>
0.7942825

> <diameter>
13

> <FCharge>
0

> <GCUT_PEOE_0>
-0.91882265

> <GCUT_PEOE_1>
-0.39004165

> <GCUT_PEOE_2>
0.073954843

> <GCUT_PEOE_3>
2.5919399

> <GCUT_SLOGP_0>
-1.1809571

> <GCUT_SLOGP_1>
-0.36180055

> <GCUT_SLOGP_2>
0.1631813

> <GCUT_SLOGP_3>
2.6347129

> <GCUT_SMR_0>
-0.52668196

> <GCUT_SMR_1>
-0.21016708

> <GCUT_SMR_2>
0.18797426

> <GCUT_SMR_3>
2.849622

> <Kier1>
18.340265

> <Kier2>
8.203125

> <Kier3>
5.5514975

> <KierA1>
15.368888

> <KierA2>
6.8126721

> <KierA3>
4.5805697

> <KierFlex>
4.7592363

> <lip_acc>
6

> <lip_don>
2

> <lip_druglike>
1

> <lip_violation>
0

> <logP(o/w)>
2.2309999

> <logS>
-3.43469

> <mr>
8.5100183

> <mutagenic>
0

> <nmol>
1

> <opr_brigid>
12

> <opr_leadlike>
1

> <opr_nring>
2

> <opr_nrot>
5

> <opr_violation>
0

> <PC+>
0

> <PC->
0

> <PEOE_PC+>
1.8246857

> <PEOE_PC->
-1.8246857

> <PEOE_RPC+>
0.17349215

> <PEOE_RPC->
0.27073541

> <PEOE_VSA+0>
86.433754

> <PEOE_VSA+1>
25.680557

> <PEOE_VSA+2>
17.440542

> <PEOE_VSA+3>
17.077532

> <PEOE_VSA+4>
10.105608

> <PEOE_VSA+5>
0.0

> <PEOE_VSA+6>
4.1846013

> <PEOE_VSA-0>
95.822594

> <PEOE_VSA-1>
26.103939

> <PEOE_VSA-2>
0.0

> <PEOE_VSA-3>
2.5295215

> <PEOE_VSA-4>
0.0

> <PEOE_VSA-5>
13.566921

> <PEOE_VSA-6>
13.703812

> <PEOE_VSA_FHYD>
0.86706853

> <PEOE_VSA_FNEG>
0.48529375

> <PEOE_VSA_FPNEG>
0.087224647

> <PEOE_VSA_FPOL>
0.13293147

> <PEOE_VSA_FPOS>
0.51470625

> <PEOE_VSA_FPPOS>
0.045706823

> <PEOE_VSA_HYD>
271.08844

> <PEOE_VSA_NEG>
151.72679

> <PEOE_VSA_PNEG>
27.270733

> <PEOE_VSA_POL>
41.560944

> <PEOE_VSA_POS>
160.92259

> <PEOE_VSA_PPOS>
14.29021

> <petitjean>
0.46153846

> <petitjeanSC>
0.85714287

> <Q_PC+>
0

> <Q_PC->
0

> <Q_RPC+>
0

> <Q_RPC->
0

> <Q_VSA_FHYD>
1

> <Q_VSA_FNEG>
0

> <Q_VSA_FPNEG>
0

> <Q_VSA_FPOL>
0

> <Q_VSA_FPOS>
1

> <Q_VSA_FPPOS>
0

> <Q_VSA_HYD>
312.64938

> <Q_VSA_NEG>
0

> <Q_VSA_PNEG>
0

> <Q_VSA_POL>
0

> <Q_VSA_POS>
312.64938

> <Q_VSA_PPOS>
0

> <radius>
7

> <reactive>
1

> <rings>
2

> <RPC+>
0

> <RPC->
0

> <rsynth>
1.0

> <SlogP>
2.2098

> <SlogP_VSA0>
34.415749

> <SlogP_VSA1>
58.689255

> <SlogP_VSA2>
10.622711

> <SlogP_VSA3>
0.0

> <SlogP_VSA4>
27.047791

> <SlogP_VSA5>
1.5507339

> <SlogP_VSA6>
0.0

> <SlogP_VSA7>
70.572739

> <SlogP_VSA8>
94.342026

> <SlogP_VSA9>
57.188232

> <SMR>
8.2172699

> <SMR_VSA0>
95.896118

> <SMR_VSA1>
0.0

> <SMR_VSA2>
35.96648

> <SMR_VSA3>
7.1675434

> <SMR_VSA4>
0.0

> <SMR_VSA5>
164.91476

> <SMR_VSA6>
10.517568

> <SMR_VSA7>
39.966759

> <TPSA>
92.339996

> <VAdjEq>
0.4530769

> <VAdjMa>
5.523562

> <VDistEq>
3.4538388

> <VDistMa>
8.5953512

> <vdw_area>
312.64938

> <vdw_vol>
408.42017

> <vsa_acc>
59.150364

> <vsa_acid>
0

> <vsa_base>
0

> <vsa_don>
13.757783

> <vsa_hyd>
184.77759

> <vsa_other>
36.004669

> <vsa_pol>
72.90815

> <Weight>
324.401

> <weinerPath>
1176

> <weinerPol>
31

> <zagreb>
110

$$$$
Row1423
 OpenBabel06061811532D

 24 24  0  0  0  0  0  0  0  0999 V2000
    0.0000    0.0000    0.0000 O   0  0  0  0  0  0  0  0  0  0  0  0
    0.0000    0.0000    0.0000 C   0  0  0  0  0  0  0  0  0  0  0  0
    0.0000    0.0000    0.0000 C   0  0  0  0  0  0  0  0  0  0  0  0
    0.0000    0.0000    0.0000 C   0  0  0  0  0  0  0  0  0  0  0  0
    0.0000    0.0000    0.0000 C   0  0  0  0  0  0  0  0  0  0  0  0
    0.0000    0.0000    0.0000 C   0  0  0  0  0  0  0  0  0  0  0  0
    0.0000    0.0000    0.0000 C   0  0  0  0  0  0  0  0  0  0  0  0
    0.0000    0.0000    0.0000 C   0  0  0  0  0  0  0  0  0  0  0  0
    0.0000    0.0000    0.0000 C   0  0  0  0  0  0  0  0  0  0  0  0
    0.0000    0.0000    0.0000 C   0  0  0  0  0  0  0  0  0  0  0  0
    0.0000    0.0000    0.0000 C   0  0  0  0  0  0  0  0  0  0  0  0
    0.0000    0.0000    0.0000 C   0  0  0  0  0  0  0  0  0  0  0  0
    0.0000    0.0000    0.0000 C   0  0  0  0  0  0  0  0  0  0  0  0
    0.0000    0.0000    0.0000 C   0  0  0  0  0  0  0  0  0  0  0  0
    0.0000    0.0000    0.0000 C   0  0  0  0  0  0  0  0  0  0  0  0
    0.0000    0.0000    0.0000 C   0  0  0  0  0  0  0  0  0  0  0  0
    0.0000    0.0000    0.0000 O   0  0  0  0  0  0  0  0  0  0  0  0
    0.0000    0.0000    0.0000 O   0  0  0  0  0  0  0  0  0  0  0  0
    0.0000    0.0000    0.0000 C   0  0  0  0  0  0  0  0  0  0  0  0
    0.0000    0.0000    0.0000 C   0  0  0  0  0  0  0  0  0  0  0  0
    0.0000    0.0000    0.0000 C   0  0  0  0  0  0  0  0  0  0  0  0
    0.0000    0.0000    0.0000 C   0  0  0  0  0  0  0  0  0  0  0  0
    0.0000    0.0000    0.0000 C   0  0  0  0  0  0  0  0  0  0  0  0
    0.0000    0.0000    0.0000 C   0  0  0  0  0  0  0  0  0  0  0  0
  1  2  1  0  0  0  0
  1  3  1  0  0  0  0
  3 23  1  0  0  0  0
  3  4  2  0  0  0  0
  4  5  1  0  0  0  0
  5  6  1  0  0  0  0
  5  7  2  0  0  0  0
  7  8  1  0  0  0  0
  7 21  1  0  0  0  0
  8  9  2  3  0  0  0
  9 10  1  0  0  0  0
 10 11  2  3  0  0  0
 10 20  1  0  0  0  0
 11 12  1  0  0  0  0
 12 13  2  3  0  0  0
 13 14  1  0  0  0  0
 14 15  2  3  0  0  0
 14 19  1  0  0  0  0
 15 16  1  0  0  0  0
 16 17  1  0  0  0  0
 16 18  2  0  0  0  0
 21 22  1  0  0  0  0
 21 23  2  0  0  0  0
 23 24  1  0  0  0  0
M  END
> <Index>
1424

> <ID>
HT0065

> <class>
1

> <apol>
56.702618

> <ast_fraglike>
0

> <ast_fraglike_ext>
0

> <ast_violation>
2

> <ast_violation_ext>
3

> <a_acc>
3

> <a_acid>
0

> <a_aro>
6

> <a_base>
0

> <a_count>
50

> <a_don>
2

> <a_donacc>
5

> <a_heavy>
24

> <a_hyd>
20

> <a_IC>
62.987823

> <a_ICM>
1.2597564

> <a_nB>
0

> <a_nBr>
0

> <a_nC>
21

> <a_nCl>
0

> <a_nF>
0

> <a_nH>
26

> <a_nI>
0

> <a_nN>
0

> <a_nO>
3

> <a_nP>
0

> <a_nS>
0

> <balabanJ>
2.2999709

> <BCUT_PEOE_0>
-2.4121265

> <BCUT_PEOE_1>
-0.41569015

> <BCUT_PEOE_2>
0.34823182

> <BCUT_PEOE_3>
2.364723

> <BCUT_SLOGP_0>
-2.2940319

> <BCUT_SLOGP_1>
-0.3509796

> <BCUT_SLOGP_2>
0.35270736

> <BCUT_SLOGP_3>
2.5314684

> <BCUT_SMR_0>
-2.1111398

> <BCUT_SMR_1>
-0.19317457

> <BCUT_SMR_2>
0.51657015

> <BCUT_SMR_3>
2.6789041

> <bpol>
31.297382

> <b_1rotN>
6

> <b_1rotR>
0.25

> <b_ar>
6

> <b_count>
50

> <b_double>
5

> <b_heavy>
24

> <b_max1len>
2

> <b_rotN>
6

> <b_rotR>
0.25

> <b_single>
39

> <b_triple>
0

> <chi0>
18.275656

> <chi0v>
15.305162

> <chi0v_C>
14.041451

> <chi0_C>
15.568549

> <chi1>
11.256126

> <chi1v>
7.8495045

> <chi1v_C>
6.809401

> <chi1_C>
8.9860706

> <chiral>
0

> <chiral_u>
0

> <density>
0.66340256

> <diameter>
15

> <FCharge>
0

> <GCUT_PEOE_0>
-0.78864247

> <GCUT_PEOE_1>
-0.38648286

> <GCUT_PEOE_2>
-0.014663659

> <GCUT_PEOE_3>
2.5488241

> <GCUT_SLOGP_0>
-0.88695526

> <GCUT_SLOGP_1>
-0.25096211

> <GCUT_SLOGP_2>
0.0075285775

> <GCUT_SLOGP_3>
2.7082191

> <GCUT_SMR_0>
-0.48678795

> <GCUT_SMR_1>
-0.16741191

> <GCUT_SMR_2>
0.13488306

> <GCUT_SMR_3>
2.8447495

> <Kier1>
22.041666

> <Kier2>
10.871094

> <Kier3>
7.4243975

> <KierA1>
16.560972

> <KierA2>
8.0586691

> <KierA3>
5.4504366

> <KierFlex>
5.5608077

> <lip_acc>
3

> <lip_don>
1

> <lip_druglike>
1

> <lip_violation>
1

> <logP(o/w)>
5.1259999

> <logS>
-7.0777502

> <mr>
9.8813686

> <mutagenic>
0

> <nmol>
1

> <opr_brigid>
10

> <opr_leadlike>
1

> <opr_nring>
1

> <opr_nrot>
6

> <opr_violation>
1

> <PC+>
0

> <PC->
0

> <PEOE_PC+>
1.6578621

> <PEOE_PC->
-1.6578621

> <PEOE_RPC+>
0.17146172

> <PEOE_RPC->
0.20968758

> <PEOE_VSA+0>
101.23335

> <PEOE_VSA+1>
51.112381

> <PEOE_VSA+2>
0.0

> <PEOE_VSA+3>
0.0

> <PEOE_VSA+4>
10.324173

> <PEOE_VSA+5>
14.708499

> <PEOE_VSA+6>
0.0

> <PEOE_VSA-0>
117.03599

> <PEOE_VSA-1>
63.483059

> <PEOE_VSA-2>
0.0

> <PEOE_VSA-3>
0.0

> <PEOE_VSA-4>
0.0

> <PEOE_VSA-5>
13.566921

> <PEOE_VSA-6>
10.271297

> <PEOE_VSA_FHYD>
0.87197715

> <PEOE_VSA_FNEG>
0.53533709

> <PEOE_VSA_FPNEG>
0.062446922

> <PEOE_VSA_FPOL>
0.12802285

> <PEOE_VSA_FPOS>
0.46466291

> <PEOE_VSA_FPPOS>
0.065575927

> <PEOE_VSA_HYD>
332.86478

> <PEOE_VSA_NEG>
204.35727

> <PEOE_VSA_PNEG>
23.838217

> <PEOE_VSA_POL>
48.870888

> <PEOE_VSA_POS>
177.3784

> <PEOE_VSA_PPOS>
25.032671

> <petitjean>
0.46666667

> <petitjeanSC>
0.875

> <Q_PC+>
0

> <Q_PC->
0

> <Q_RPC+>
0

> <Q_RPC->
0

> <Q_VSA_FHYD>
1

> <Q_VSA_FNEG>
0

> <Q_VSA_FPNEG>
0

> <Q_VSA_FPOL>
0

> <Q_VSA_FPOS>
1

> <Q_VSA_FPPOS>
0

> <Q_VSA_HYD>
381.73566

> <Q_VSA_NEG>
0

> <Q_VSA_PNEG>
0

> <Q_VSA_POL>
0

> <Q_VSA_POS>
381.73566

> <Q_VSA_PPOS>
0

> <radius>
8

> <reactive>
0

> <rings>
1

> <RPC+>
0

> <RPC->
0

> <rsynth>
0.041666668

> <SlogP>
5.1670599

> <SlogP_VSA0>
10.999887

> <SlogP_VSA1>
7.7454643

> <SlogP_VSA2>
23.862217

> <SlogP_VSA3>
25.385227

> <SlogP_VSA4>
12.7423

> <SlogP_VSA5>
41.755016

> <SlogP_VSA6>
0.0

> <SlogP_VSA7>
105.85911

> <SlogP_VSA8>
17.643185

> <SlogP_VSA9>
171.8735

> <SMR>
10.05288

> <SMR_VSA0>
23.862217

> <SMR_VSA1>
10.999887

> <SMR_VSA2>
25.385227

> <SMR_VSA3>
24.356878

> <SMR_VSA4>
0.0

> <SMR_VSA5>
105.85911

> <SMR_VSA6>
25.388649

> <SMR_VSA7>
202.01395

> <TPSA>
46.529999

> <VAdjEq>
0.41381684

> <VAdjMa>
5.5849624

> <VDistEq>
3.6800525

> <VDistMa>
8.8330154

> <vdw_area>
381.73566

> <vdw_vol>
492.06323

> <vsa_acc>
2.503756

> <vsa_acid>
0

> <vsa_base>
0

> <vsa_don>
0.0

> <vsa_hyd>
315.06989

> <vsa_other>
14.708499

> <vsa_pol>
29.637598

> <Weight>
326.436

> <weinerPath>
1626

> <weinerPol>
34

> <zagreb>
112

$$$$
Row1424
 OpenBabel06061811532D

 26 28  0  0  0  0  0  0  0  0999 V2000
    0.0000    0.0000    0.0000 O   0  0  0  0  0  0  0  0  0  0  0  0
    0.0000    0.0000    0.0000 C   0  0  0  0  0  0  0  0  0  0  0  0
    0.0000    0.0000    0.0000 O   0  0  0  0  0  0  0  0  0  0  0  0
    0.0000    0.0000    0.0000 C   0  0  0  0  0  0  0  0  0  0  0  0
    0.0000    0.0000    0.0000 C   0  0  0  0  0  0  0  0  0  0  0  0
    0.0000    0.0000    0.0000 C   0  0  0  0  0  0  0  0  0  0  0  0
    0.0000    0.0000    0.0000 N   0  0  0  0  0  0  0  0  0  0  0  0
    0.0000    0.0000    0.0000 C   0  0  0  0  0  0  0  0  0  0  0  0
    0.0000    0.0000    0.0000 C   0  0  0  0  0  0  0  0  0  0  0  0
    0.0000    0.0000    0.0000 C   0  0  0  0  0  0  0  0  0  0  0  0
    0.0000    0.0000    0.0000 C   0  0  0  0  0  0  0  0  0  0  0  0
    0.0000    0.0000    0.0000 C   0  0  0  0  0  0  0  0  0  0  0  0
    0.0000    0.0000    0.0000 C   0  0  0  0  0  0  0  0  0  0  0  0
    0.0000    0.0000    0.0000 C   0  0  0  0  0  0  0  0  0  0  0  0
    0.0000    0.0000    0.0000 N   0  0  0  0  0  0  0  0  0  0  0  0
    0.0000    0.0000    0.0000 C   0  0  0  0  0  0  0  0  0  0  0  0
    0.0000    0.0000    0.0000 C   0  0  0  0  0  0  0  0  0  0  0  0
    0.0000    0.0000    0.0000 C   0  0  0  0  0  0  0  0  0  0  0  0
    0.0000    0.0000    0.0000 C   0  0  0  0  0  0  0  0  0  0  0  0
    0.0000    0.0000    0.0000 C   0  0  0  0  0  0  0  0  0  0  0  0
    0.0000    0.0000    0.0000 C   0  0  0  0  0  0  0  0  0  0  0  0
    0.0000    0.0000    0.0000 C   0  0  0  0  0  0  0  0  0  0  0  0
    0.0000    0.0000    0.0000 C   0  0  0  0  0  0  0  0  0  0  0  0
    0.0000    0.0000    0.0000 C   0  0  0  0  0  0  0  0  0  0  0  0
    0.0000    0.0000    0.0000 C   0  0  0  0  0  0  0  0  0  0  0  0
    0.0000    0.0000    0.0000 C   0  0  0  0  0  0  0  0  0  0  0  0
  1  2  1  0  0  0  0
  2  3  2  0  0  0  0
  2  4  1  0  0  0  0
  4  5  2  3  0  0  0
  5  6  1  0  0  0  0
  6 11  1  0  0  0  0
  6  7  2  0  0  0  0
  7  8  1  0  0  0  0
  8  9  2  0  0  0  0
  8 12  1  0  0  0  0
  9 10  1  0  0  0  0
 10 11  2  0  0  0  0
 12 13  2  0  0  0  0
 12 20  1  0  0  0  0
 13 14  1  0  0  0  0
 14 15  1  0  0  0  0
 15 19  1  0  0  0  0
 15 16  1  0  0  0  0
 16 17  1  0  0  0  0
 17 18  1  0  0  0  0
 18 19  1  0  0  0  0
 20 25  1  0  0  0  0
 20 21  2  0  0  0  0
 21 22  1  0  0  0  0
 22 23  2  0  0  0  0
 23 24  1  0  0  0  0
 23 26  1  0  0  0  0
 24 25  2  0  0  0  0
M  END
> <Index>
1425

> <ID>
HT0069

> <class>
1

> <apol>
58.527031

> <ast_fraglike>
0

> <ast_fraglike_ext>
0

> <ast_violation>
3

> <ast_violation_ext>
4

> <a_acc>
4

> <a_acid>
0

> <a_aro>
12

> <a_base>
0

> <a_count>
50

> <a_don>
2

> <a_donacc>
6

> <a_heavy>
26

> <a_hyd>
21

> <a_IC>
70.046211

> <a_ICM>
1.4009243

> <a_nB>
0

> <a_nBr>
0

> <a_nC>
22

> <a_nCl>
0

> <a_nF>
0

> <a_nH>
24

> <a_nI>
0

> <a_nN>
2

> <a_nO>
2

> <a_nP>
0

> <a_nS>
0

> <balabanJ>
1.5741299

> <BCUT_PEOE_0>
-2.544245

> <BCUT_PEOE_1>
-0.60898268

> <BCUT_PEOE_2>
0.6637066

> <BCUT_PEOE_3>
2.6781523

> <BCUT_SLOGP_0>
-2.6182063

> <BCUT_SLOGP_1>
-0.50545824

> <BCUT_SLOGP_2>
0.76567888

> <BCUT_SLOGP_3>
2.6982961

> <BCUT_SMR_0>
-2.247201

> <BCUT_SMR_1>
-0.4644933

> <BCUT_SMR_2>
0.81614059

> <BCUT_SMR_3>
2.9482996

> <bpol>
30.494968

> <b_1rotN>
6

> <b_1rotR>
0.21428572

> <b_ar>
12

> <b_count>
52

> <b_double>
3

> <b_heavy>
28

> <b_max1len>
3

> <b_rotN>
6

> <b_rotR>
0.21428572

> <b_single>
37

> <b_triple>
0

> <chi0>
18.35516

> <chi0v>
15.058926

> <chi0v_C>
13.309036

> <chi0_C>
15.070704

> <chi1>
12.614194

> <chi1v>
8.9966192

> <chi1v_C>
7.1729913

> <chi1_C>
9.418252

> <chiral>
0

> <chiral_u>
0

> <density>
0.68945462

> <diameter>
12

> <FCharge>
0

> <GCUT_PEOE_0>
-0.86020213

> <GCUT_PEOE_1>
-0.3901414

> <GCUT_PEOE_2>
0.071924277

> <GCUT_PEOE_3>
2.6478052

> <GCUT_SLOGP_0>
-0.95879918

> <GCUT_SLOGP_1>
-0.27945462

> <GCUT_SLOGP_2>
0.14828236

> <GCUT_SLOGP_3>
2.7290695

> <GCUT_SMR_0>
-0.52623183

> <GCUT_SMR_1>
-0.20982587

> <GCUT_SMR_2>
0.18414354

> <GCUT_SMR_3>
2.9280233

> <Kier1>
20.727041

> <Kier2>
10.518627

> <Kier3>
6.542222

> <KierA1>
15.334712

> <KierA2>
7.6810989

> <KierA3>
4.7328553

> <KierFlex>
4.5302863

> <lip_acc>
4

> <lip_don>
1

> <lip_druglike>
1

> <lip_violation>
0

> <logP(o/w)>
4.1459999

> <logS>
-4.08886

> <mr>
10.466592

> <mutagenic>
0

> <nmol>
1

> <opr_brigid>
19

> <opr_leadlike>
1

> <opr_nring>
3

> <opr_nrot>
7

> <opr_violation>
0

> <PC+>
0

> <PC->
0

> <PEOE_PC+>
1.76434

> <PEOE_PC->
-1.76434

> <PEOE_RPC+>
0.16100787

> <PEOE_RPC->
0.18586473

> <PEOE_VSA+0>
83.105789

> <PEOE_VSA+1>
56.052963

> <PEOE_VSA+2>
0.0

> <PEOE_VSA+3>
0.0

> <PEOE_VSA+4>
10.324173

> <PEOE_VSA+5>
14.708499

> <PEOE_VSA+6>
0.0

> <PEOE_VSA-0>
101.5082

> <PEOE_VSA-1>
75.737961

> <PEOE_VSA-2>
0.0

> <PEOE_VSA-3>
0.0

> <PEOE_VSA-4>
5.6825762

> <PEOE_VSA-5>
13.566921

> <PEOE_VSA-6>
7.7675405

> <PEOE_VSA_FHYD>
0.85873508

> <PEOE_VSA_FNEG>
0.55437815

> <PEOE_VSA_FPNEG>
0.073325276

> <PEOE_VSA_FPOL>
0.14126492

> <PEOE_VSA_FPOS>
0.44562182

> <PEOE_VSA_FPPOS>
0.067939632

> <PEOE_VSA_HYD>
316.40491

> <PEOE_VSA_NEG>
204.2632

> <PEOE_VSA_PNEG>
27.017036

> <PEOE_VSA_POL>
52.049709

> <PEOE_VSA_POS>
164.19142

> <PEOE_VSA_PPOS>
25.032671

> <petitjean>
0.5

> <petitjeanSC>
1.0

> <Q_PC+>
0

> <Q_PC->
0

> <Q_RPC+>
0

> <Q_RPC->
0

> <Q_VSA_FHYD>
1

> <Q_VSA_FNEG>
0

> <Q_VSA_FPNEG>
0

> <Q_VSA_FPOL>
0

> <Q_VSA_FPOS>
1

> <Q_VSA_FPPOS>
0

> <Q_VSA_HYD>
368.45462

> <Q_VSA_NEG>
0

> <Q_VSA_PNEG>
0

> <Q_VSA_POL>
0

> <Q_VSA_POS>
368.45462

> <Q_VSA_PPOS>
0

> <radius>
6

> <reactive>
0

> <rings>
3

> <RPC+>
0

> <RPC->
0

> <rsynth>
1.0

> <SlogP>
3.8326099

> <SlogP_VSA0>
0.0

> <SlogP_VSA1>
27.655308

> <SlogP_VSA2>
23.862217

> <SlogP_VSA3>
83.889534

> <SlogP_VSA4>
11.884645

> <SlogP_VSA5>
0.0

> <SlogP_VSA6>
0.0

> <SlogP_VSA7>
158.78867

> <SlogP_VSA8>
55.379993

> <SlogP_VSA9>
33.326015

> <SMR>
10.37768

> <SMR_VSA0>
23.862217

> <SMR_VSA1>
19.909843

> <SMR_VSA2>
28.570801

> <SMR_VSA3>
11.884645

> <SMR_VSA4>
0.0

> <SMR_VSA5>
196.52547

> <SMR_VSA6>
80.707382

> <SMR_VSA7>
33.326015

> <TPSA>
53.43

> <VAdjEq>
0.41210872

> <VAdjMa>
5.8073549

> <VDistEq>
3.4373553

> <VDistMa>
9.1273832

> <vdw_area>
368.45462

> <vdw_vol>
505.39365

> <vsa_acc>
5.6825762

> <vsa_acid>
0

> <vsa_base>
0

> <vsa_don>
0.0

> <vsa_hyd>
300.03363

> <vsa_other>
14.708499

> <vsa_pol>
32.816418

> <Weight>
348.44598

> <weinerPath>
1755

> <weinerPol>
34

> <zagreb>
130

$$$$
Row1425
 OpenBabel06061811532D

 32 37  0  0  1  0  0  0  0  0999 V2000
    0.0000    0.0000    0.0000 O   0  0  0  0  0  0  0  0  0  0  0  0
    0.0000    0.0000    0.0000 C   0  0  1  0  0  0  0  0  0  0  0  0
    0.0000    0.0000    0.0000 H   0  0  0  0  0  0  0  0  0  0  0  0
    0.0000    0.0000    0.0000 N   0  0  3  0  0  0  0  0  0  0  0  0
    0.0000    0.0000    0.0000 C   0  0  1  0  0  0  0  0  0  0  0  0
    0.0000    0.0000    0.0000 H   0  0  0  0  0  0  0  0  0  0  0  0
    0.0000    0.0000    0.0000 C   0  0  1  0  0  0  0  0  0  0  0  0
    0.0000    0.0000    0.0000 H   0  0  0  0  0  0  0  0  0  0  0  0
    0.0000    0.0000    0.0000 C   0  0  1  0  0  0  0  0  0  0  0  0
    0.0000    0.0000    0.0000 H   0  0  0  0  0  0  0  0  0  0  0  0
    0.0000    0.0000    0.0000 C   0  0  0  0  0  0  0  0  0  0  0  0
    0.0000    0.0000    0.0000 C   0  0  2  0  0  0  0  0  0  0  0  0
    0.0000    0.0000    0.0000 H   0  0  0  0  0  0  0  0  0  0  0  0
    0.0000    0.0000    0.0000 C   0  0  2  0  0  0  0  0  0  0  0  0
    0.0000    0.0000    0.0000 H   0  0  0  0  0  0  0  0  0  0  0  0
    0.0000    0.0000    0.0000 N   0  0  0  0  0  0  0  0  0  0  0  0
    0.0000    0.0000    0.0000 C   0  0  0  0  0  0  0  0  0  0  0  0
    0.0000    0.0000    0.0000 C   0  0  0  0  0  0  0  0  0  0  0  0
    0.0000    0.0000    0.0000 C   0  0  2  0  0  0  0  0  0  0  0  0
    0.0000    0.0000    0.0000 C   0  0  0  0  0  0  0  0  0  0  0  0
    0.0000    0.0000    0.0000 C   0  0  1  0  0  0  0  0  0  0  0  0
    0.0000    0.0000    0.0000 H   0  0  0  0  0  0  0  0  0  0  0  0
    0.0000    0.0000    0.0000 O   0  0  0  0  0  0  0  0  0  0  0  0
    0.0000    0.0000    0.0000 C   0  0  0  0  0  0  0  0  0  0  0  0
    0.0000    0.0000    0.0000 C   0  0  0  0  0  0  0  0  0  0  0  0
    0.0000    0.0000    0.0000 C   0  0  0  0  0  0  0  0  0  0  0  0
    0.0000    0.0000    0.0000 C   0  0  0  0  0  0  0  0  0  0  0  0
    0.0000    0.0000    0.0000 C   0  0  0  0  0  0  0  0  0  0  0  0
    0.0000    0.0000    0.0000 C   0  0  1  0  0  0  0  0  0  0  0  0
    0.0000    0.0000    0.0000 H   0  0  0  0  0  0  0  0  0  0  0  0
    0.0000    0.0000    0.0000 C   0  0  0  0  0  0  0  0  0  0  0  0
    0.0000    0.0000    0.0000 C   0  0  0  0  0  0  0  0  0  0  0  0
  1  2  1  0  0  0  0
  2  3  1  0  0  0  0
  2 29  1  0  0  0  0
  2  4  1  0  0  0  0
  4 12  1  0  0  0  0
  4  5  1  0  0  0  0
  5  6  1  0  0  0  0
  5 20  1  0  0  0  0
  5  7  1  0  0  0  0
  7  8  1  0  0  0  0
  7 21  1  0  0  0  0
  7  9  1  0  0  0  0
  9 10  1  0  0  0  0
  9 11  1  0  0  0  0
  9 29  1  0  0  0  0
 11 12  1  0  0  0  0
 12 13  1  0  0  0  0
 12 14  1  0  0  0  0
 14 15  1  0  0  0  0
 14 19  1  0  0  0  0
 14 16  1  0  0  0  0
 16 17  1  0  0  0  0
 16 28  1  0  0  0  0
 17 27  1  0  0  0  0
 17 18  2  0  0  0  0
 18 19  1  0  0  0  0
 18 24  1  0  0  0  0
 19 20  1  0  0  0  0
 19 21  1  0  0  0  0
 21 22  1  0  0  0  0
 21 23  1  0  0  0  0
 24 25  2  0  0  0  0
 25 26  1  0  0  0  0
 26 27  2  0  0  0  0
 29 30  1  0  0  0  0
 29 31  1  0  0  0  0
 31 32  1  0  0  0  0
M  END
> <Index>
1426

> <ID>
HT0082

> <class>
1

> <apol>
56.340618

> <ast_fraglike>
0

> <ast_fraglike_ext>
0

> <ast_violation>
1

> <ast_violation_ext>
1

> <a_acc>
3

> <a_acid>
0

> <a_aro>
6

> <a_base>
0

> <a_count>
50

> <a_don>
2

> <a_donacc>
5

> <a_heavy>
24

> <a_hyd>
19

> <a_IC>
69.542816

> <a_ICM>
1.3908563

> <a_nB>
0

> <a_nBr>
0

> <a_nC>
20

> <a_nCl>
0

> <a_nF>
0

> <a_nH>
26

> <a_nI>
0

> <a_nN>
2

> <a_nO>
2

> <a_nP>
0

> <a_nS>
0

> <balabanJ>
1.5184615

> <BCUT_PEOE_0>
-2.9441855

> <BCUT_PEOE_1>
-0.5489071

> <BCUT_PEOE_2>
0.59325093

> <BCUT_PEOE_3>
3.0372567

> <BCUT_SLOGP_0>
-3.0098455

> <BCUT_SLOGP_1>
-0.50546169

> <BCUT_SLOGP_2>
0.62540686

> <BCUT_SLOGP_3>
2.9856527

> <BCUT_SMR_0>
-2.6903119

> <BCUT_SMR_1>
-0.42480868

> <BCUT_SMR_2>
0.73279631

> <BCUT_SMR_3>
3.2871945

> <bpol>
32.383381

> <b_1rotN>
1

> <b_1rotR>
0.034482758

> <b_ar>
6

> <b_count>
55

> <b_double>
0

> <b_heavy>
29

> <b_max1len>
4

> <b_rotN>
1

> <b_rotR>
0.034482758

> <b_single>
49

> <b_triple>
0

> <chi0>
16.377951

> <chi0v>
14.338378

> <chi0v_C>
12.549523

> <chi0_C>
13.22325

> <chi1>
11.608226

> <chi1v>
9.568368

> <chi1v_C>
7.3483539

> <chi1_C>
8.2095089

> <chiral>
9

> <chiral_u>
0

> <density>
0.71863788

> <diameter>
10

> <FCharge>
0

> <GCUT_PEOE_0>
-0.8363812

> <GCUT_PEOE_1>
-0.36921126

> <GCUT_PEOE_2>
0.055207919

> <GCUT_PEOE_3>
3.3497357

> <GCUT_SLOGP_0>
-0.99456245

> <GCUT_SLOGP_1>
-0.34183374

> <GCUT_SLOGP_2>
0.10538518

> <GCUT_SLOGP_3>
3.3438606

> <GCUT_SMR_0>
-0.53258491

> <GCUT_SMR_1>
-0.21919489

> <GCUT_SMR_2>
0.15519157

> <GCUT_SMR_3>
3.5893061

> <Kier1>
15.096313

> <Kier2>
4.6364017

> <Kier3>
1.4404762

> <KierA1>
13.325764

> <KierA2>
4.0693088

> <KierA3>
1.2590994

> <KierFlex>
2.2594438

> <lip_acc>
4

> <lip_don>
2

> <lip_druglike>
1

> <lip_violation>
0

> <logP(o/w)>
1.89

> <logS>
-2.6891401

> <mr>
9.0484095

> <mutagenic>
0

> <nmol>
1

> <opr_brigid>
24

> <opr_leadlike>
1

> <opr_nring>
6

> <opr_nrot>
1

> <opr_violation>
1

> <PC+>
0

> <PC->
0

> <PEOE_PC+>
1.7527121

> <PEOE_PC->
-1.7527121

> <PEOE_RPC+>
0.12064458

> <PEOE_RPC->
0.2228096

> <PEOE_VSA+0>
92.914383

> <PEOE_VSA+1>
30.497244

> <PEOE_VSA+2>
9.3959408

> <PEOE_VSA+3>
0.0

> <PEOE_VSA+4>
20.648346

> <PEOE_VSA+5>
0.0

> <PEOE_VSA+6>
0.0

> <PEOE_VSA-0>
63.806072

> <PEOE_VSA-1>
55.51239

> <PEOE_VSA-2>
0.0

> <PEOE_VSA-3>
0.0

> <PEOE_VSA-4>
0.0

> <PEOE_VSA-5>
0.0

> <PEOE_VSA-6>
15.535081

> <PEOE_VSA_FHYD>
0.87449795

> <PEOE_VSA_FNEG>
0.4677389

> <PEOE_VSA_FPNEG>
0.053883355

> <PEOE_VSA_FPOL>
0.12550205

> <PEOE_VSA_FPOS>
0.53226113

> <PEOE_VSA_FPPOS>
0.071618691

> <PEOE_VSA_HYD>
252.12602

> <PEOE_VSA_NEG>
134.85355

> <PEOE_VSA_PNEG>
15.535081

> <PEOE_VSA_POL>
36.183426

> <PEOE_VSA_POS>
153.45592

> <PEOE_VSA_PPOS>
20.648346

> <petitjean>
0.5

> <petitjeanSC>
1.0

> <Q_PC+>
0

> <Q_PC->
0

> <Q_RPC+>
0

> <Q_RPC->
0

> <Q_VSA_FHYD>
1

> <Q_VSA_FNEG>
0

> <Q_VSA_FPNEG>
0

> <Q_VSA_FPOL>
0

> <Q_VSA_FPOS>
1

> <Q_VSA_FPPOS>
0

> <Q_VSA_HYD>
288.30945

> <Q_VSA_NEG>
0

> <Q_VSA_PNEG>
0

> <Q_VSA_POL>
0

> <Q_VSA_POS>
288.30945

> <Q_VSA_PPOS>
0

> <radius>
5

> <reactive>
1

> <rings>
6

> <RPC+>
0

> <RPC->
0

> <rsynth>
0.083333336

> <SlogP>
1.5545

> <SlogP_VSA0>
53.894768

> <SlogP_VSA1>
3.1243138

> <SlogP_VSA2>
24.454376

> <SlogP_VSA3>
0.0

> <SlogP_VSA4>
16.417963

> <SlogP_VSA5>
32.897186

> <SlogP_VSA6>
0.0

> <SlogP_VSA7>
70.572739

> <SlogP_VSA8>
56.605217

> <SlogP_VSA9>
36.082764

> <SMR>
9.17346

> <SMR_VSA0>
0.0

> <SMR_VSA1>
53.894768

> <SMR_VSA2>
16.356703

> <SMR_VSA3>
27.639952

> <SMR_VSA4>
2.7567475

> <SMR_VSA5>
127.17796

> <SMR_VSA6>
0.0

> <SMR_VSA7>
66.223206

> <TPSA>
46.939999

> <VAdjEq>
0.47119308

> <VAdjMa>
5.8579812

> <VDistEq>
2.8601232

> <VDistMa>
8.9257803

> <vdw_area>
288.30945

> <vdw_vol>
454.24826

> <vsa_acc>
0.0

> <vsa_acid>
0

> <vsa_base>
0

> <vsa_don>
0.0

> <vsa_hyd>
218.05826

> <vsa_other>
12.949531

> <vsa_pol>
27.133842

> <Weight>
326.44

> <weinerPath>
1033

> <weinerPol>
60

> <zagreb>
156

$$$$
Row1426
 OpenBabel06061811532D

 11 12  0  0  0  0  0  0  0  0999 V2000
    0.0000    0.0000    0.0000 O   0  0  0  0  0  0  0  0  0  0  0  0
    0.0000    0.0000    0.0000 C   0  0  0  0  0  0  0  0  0  0  0  0
    0.0000    0.0000    0.0000 N   0  0  0  0  0  0  0  0  0  0  0  0
    0.0000    0.0000    0.0000 C   0  0  0  0  0  0  0  0  0  0  0  0
    0.0000    0.0000    0.0000 N   0  0  0  0  0  0  0  0  0  0  0  0
    0.0000    0.0000    0.0000 C   0  0  0  0  0  0  0  0  0  0  0  0
    0.0000    0.0000    0.0000 N   0  0  0  0  0  0  0  0  0  0  0  0
    0.0000    0.0000    0.0000 N   0  0  0  0  0  0  0  0  0  0  0  0
    0.0000    0.0000    0.0000 H   0  0  0  0  0  0  0  0  0  0  0  0
    0.0000    0.0000    0.0000 C   0  0  0  0  0  0  0  0  0  0  0  0
    0.0000    0.0000    0.0000 C   0  0  0  0  0  0  0  0  0  0  0  0
  1  2  2  0  0  0  0
  2 11  1  0  0  0  0
  2  3  1  0  0  0  0
  3  4  1  0  0  0  0
  4  5  2  0  0  0  0
  5  6  1  0  0  0  0
  6 11  1  0  0  0  0
  6  7  2  0  0  0  0
  7  8  1  0  0  0  0
  8  9  1  0  0  0  0
  8 10  1  0  0  0  0
 10 11  2  0  0  0  0
M  END
> <Index>
1427

> <ID>
HT0103

> <class>
1

> <apol>
16.669172

> <ast_fraglike>
0

> <ast_fraglike_ext>
0

> <ast_violation>
1

> <ast_violation_ext>
1

> <a_acc>
4

> <a_acid>
0

> <a_aro>
5

> <a_base>
0

> <a_count>
14

> <a_don>
3

> <a_donacc>
7

> <a_heavy>
10

> <a_hyd>
2

> <a_IC>
25.693329

> <a_ICM>
1.8352377

> <a_nB>
0

> <a_nBr>
0

> <a_nC>
5

> <a_nCl>
0

> <a_nF>
0

> <a_nH>
4

> <a_nI>
0

> <a_nN>
4

> <a_nO>
1

> <a_nP>
0

> <a_nS>
0

> <balabanJ>
2.0743468

> <BCUT_PEOE_0>
-2.1908846

> <BCUT_PEOE_1>
-0.59955281

> <BCUT_PEOE_2>
0.77017635

> <BCUT_PEOE_3>
2.2710176

> <BCUT_SLOGP_0>
-2.4514406

> <BCUT_SLOGP_1>
-0.55456668

> <BCUT_SLOGP_2>
0.76265204

> <BCUT_SLOGP_3>
2.2430501

> <BCUT_SMR_0>
-1.8576425

> <BCUT_SMR_1>
-0.44883755

> <BCUT_SMR_2>
0.92346406

> <BCUT_SMR_3>
2.5781438

> <bpol>
7.9708281

> <b_1rotN>
0

> <b_1rotR>
0.0

> <b_ar>
5

> <b_count>
15

> <b_double>
2

> <b_heavy>
11

> <b_max1len>
1

> <b_rotN>
0

> <b_rotR>
0.0

> <b_single>
8

> <b_triple>
0

> <chi0>
6.9746914

> <chi0v>
4.957376

> <chi0v_C>
2.6547005

> <chi0_C>
3.1462643

> <chi1>
4.8770099

> <chi1v>
2.7491689

> <chi1v_C>
0.78867513

> <chi1_C>
1.0749149

> <chiral>
0

> <chiral_u>
0

> <density>
0.88275123

> <diameter>
4

> <FCharge>
0

> <GCUT_PEOE_0>
-0.83362687

> <GCUT_PEOE_1>
-0.44395733

> <GCUT_PEOE_2>
0.18122037

> <GCUT_PEOE_3>
1.9888294

> <GCUT_SLOGP_0>
-1.1686013

> <GCUT_SLOGP_1>
-0.41905242

> <GCUT_SLOGP_2>
0.2121146

> <GCUT_SLOGP_3>
1.9849625

> <GCUT_SMR_0>
-0.44958287

> <GCUT_SMR_1>
-0.21729669

> <GCUT_SMR_2>
0.29395336

> <GCUT_SMR_3>
2.2802818

> <Kier1>
6.6942148

> <Kier2>
2.5599999

> <Kier3>
1.12

> <KierA1>
3.9514463

> <KierA2>
1.4083333

> <KierA3>
0.5809375

> <KierFlex>
0.55649537

> <lip_acc>
5

> <lip_don>
2

> <lip_druglike>
1

> <lip_violation>
0

> <logP(o/w)>
-0.106

> <logS>
-0.83503002

> <mr>
3.3222263

> <mutagenic>
0

> <nmol>
1

> <opr_brigid>
10

> <opr_leadlike>
1

> <opr_nring>
2

> <opr_nrot>
0

> <opr_violation>
0

> <PC+>
0

> <PC->
0

> <PEOE_PC+>
1.2314754

> <PEOE_PC->
-1.2314754

> <PEOE_RPC+>
0.21281457

> <PEOE_RPC->
0.2540088

> <PEOE_VSA+0>
16.745916

> <PEOE_VSA+1>
25.502314

> <PEOE_VSA+2>
6.4739256

> <PEOE_VSA+3>
28.428589

> <PEOE_VSA+4>
0.0

> <PEOE_VSA+5>
12.949531

> <PEOE_VSA+6>
0.0

> <PEOE_VSA-0>
0.0

> <PEOE_VSA-1>
0.0

> <PEOE_VSA-2>
0.0

> <PEOE_VSA-3>
9.4210396

> <PEOE_VSA-4>
5.6825762

> <PEOE_VSA-5>
17.442276

> <PEOE_VSA-6>
0.13689101

> <PEOE_VSA_FHYD>
0.70507926

> <PEOE_VSA_FNEG>
0.26618317

> <PEOE_VSA_FPNEG>
0.189454

> <PEOE_VSA_FPOL>
0.29492077

> <PEOE_VSA_FPOS>
0.73381686

> <PEOE_VSA_FPPOS>
0.10546676

> <PEOE_VSA_HYD>
86.571785

> <PEOE_VSA_NEG>
32.682781

> <PEOE_VSA_PNEG>
23.261742

> <PEOE_VSA_POL>
36.211273

> <PEOE_VSA_POS>
90.100273

> <PEOE_VSA_PPOS>
12.949531

> <petitjean>
0.25

> <petitjeanSC>
0.33333334

> <Q_PC+>
0

> <Q_PC->
0

> <Q_RPC+>
0

> <Q_RPC->
0

> <Q_VSA_FHYD>
1

> <Q_VSA_FNEG>
0

> <Q_VSA_FPNEG>
0

> <Q_VSA_FPOL>
0

> <Q_VSA_FPOS>
1

> <Q_VSA_FPPOS>
0

> <Q_VSA_HYD>
122.78306

> <Q_VSA_NEG>
0

> <Q_VSA_PNEG>
0

> <Q_VSA_POL>
0

> <Q_VSA_POS>
122.78306

> <Q_VSA_PPOS>
0

> <radius>
3

> <reactive>
0

> <rings>
2

> <RPC+>
0

> <RPC->
0

> <rsynth>
1.0

> <SlogP>
-0.18709999

> <SlogP_VSA0>
18.01075

> <SlogP_VSA1>
21.921791

> <SlogP_VSA2>
33.448536

> <SlogP_VSA3>
0.0

> <SlogP_VSA4>
27.047791

> <SlogP_VSA5>
16.78553

> <SlogP_VSA6>
0.0

> <SlogP_VSA7>
17.214357

> <SlogP_VSA8>
0.0

> <SlogP_VSA9>
2.3279202

> <SMR>
3.4205899

> <SMR_VSA0>
23.862217

> <SMR_VSA1>
33.448536

> <SMR_VSA2>
34.673759

> <SMR_VSA3>
3.185575

> <SMR_VSA4>
2.3279202

> <SMR_VSA5>
17.214357

> <SMR_VSA6>
5.2587838

> <SMR_VSA7>
16.78553

> <TPSA>
70.139999

> <VAdjEq>
0.76016748

> <VAdjMa>
4.4594316

> <VDistEq>
1.9512278

> <VDistMa>
6.3517823

> <vdw_area>
122.78306

> <vdw_vol>
154.19293

> <vsa_acc>
19.249496

> <vsa_acid>
0

> <vsa_base>
0

> <vsa_don>
5.6825762

> <vsa_hyd>
22.508045

> <vsa_other>
48.930611

> <vsa_pol>
43.774151

> <Weight>
136.114

> <weinerPath>
105

> <weinerPol>
12

> <zagreb>
52

$$$$
Row1427
 OpenBabel06061811532D

 22 23  0  0  1  0  0  0  0  0999 V2000
    0.0000    0.0000    0.0000 Cl  0  0  0  0  0  0  0  0  0  0  0  0
    0.0000    0.0000    0.0000 C   0  0  0  0  0  0  0  0  0  0  0  0
    0.0000    0.0000    0.0000 C   0  0  0  0  0  0  0  0  0  0  0  0
    0.0000    0.0000    0.0000 C   0  0  0  0  0  0  0  0  0  0  0  0
    0.0000    0.0000    0.0000 N   0  0  0  0  0  0  0  0  0  0  0  0
    0.0000    0.0000    0.0000 C   0  0  3  0  0  0  0  0  0  0  0  0
    0.0000    0.0000    0.0000 N   0  0  0  0  0  0  0  0  0  0  0  0
    0.0000    0.0000    0.0000 S   0  0  0  0  0  0  0  0  0  0  0  0
    0.0000    0.0000    0.0000 O   0  0  0  0  0  0  0  0  0  0  0  0
    0.0000    0.0000    0.0000 O   0  0  0  0  0  0  0  0  0  0  0  0
    0.0000    0.0000    0.0000 C   0  0  0  0  0  0  0  0  0  0  0  0
    0.0000    0.0000    0.0000 C   0  0  0  0  0  0  0  0  0  0  0  0
    0.0000    0.0000    0.0000 C   0  0  0  0  0  0  0  0  0  0  0  0
    0.0000    0.0000    0.0000 S   0  0  0  0  0  0  0  0  0  0  0  0
    0.0000    0.0000    0.0000 O   0  0  0  0  0  0  0  0  0  0  0  0
    0.0000    0.0000    0.0000 O   0  0  0  0  0  0  0  0  0  0  0  0
    0.0000    0.0000    0.0000 N   0  0  0  0  0  0  0  0  0  0  0  0
    0.0000    0.0000    0.0000 C   0  0  0  0  0  0  0  0  0  0  0  0
    0.0000    0.0000    0.0000 S   0  0  0  0  0  0  0  0  0  0  0  0
    0.0000    0.0000    0.0000 C   0  0  0  0  0  0  0  0  0  0  0  0
    0.0000    0.0000    0.0000 C   0  0  0  0  0  0  0  0  0  0  0  0
    0.0000    0.0000    0.0000 C   0  0  0  0  0  0  0  0  0  0  0  0
  1  2  1  0  0  0  0
  2 13  1  0  0  0  0
  2  3  2  0  0  0  0
  3  4  1  0  0  0  0
  4 11  2  0  0  0  0
  4  5  1  0  0  0  0
  5  6  1  0  0  0  0
  6  7  1  0  0  0  0
  6 18  1  0  0  0  0
  7  8  1  0  0  0  0
  8  9  2  0  0  0  0
  8 10  2  0  0  0  0
  8 11  1  0  0  0  0
 11 12  1  0  0  0  0
 12 13  2  0  0  0  0
 13 14  1  0  0  0  0
 14 15  2  0  0  0  0
 14 16  2  0  0  0  0
 14 17  1  0  0  0  0
 18 19  1  0  0  0  0
 19 20  1  0  0  0  0
 20 21  1  0  0  0  0
 21 22  2  0  0  0  0
M  END
> <Index>
1428

> <ID>
HT0117

> <class>
1

> <apol>
46.083103

> <ast_fraglike>
0

> <ast_fraglike_ext>
0

> <ast_violation>
2

> <ast_violation_ext>
4

> <a_acc>
4

> <a_acid>
0

> <a_aro>
6

> <a_base>
0

> <a_count>
36

> <a_don>
3

> <a_donacc>
7

> <a_heavy>
22

> <a_hyd>
12

> <a_IC>
77.250809

> <a_ICM>
2.1458559

> <a_nB>
0

> <a_nBr>
0

> <a_nC>
11

> <a_nCl>
1

> <a_nF>
0

> <a_nH>
14

> <a_nI>
0

> <a_nN>
3

> <a_nO>
4

> <a_nP>
0

> <a_nS>
3

> <balabanJ>
2.0538383

> <BCUT_PEOE_0>
-2.631294

> <BCUT_PEOE_1>
-0.56880009

> <BCUT_PEOE_2>
0.60181266

> <BCUT_PEOE_3>
2.6033473

> <BCUT_SLOGP_0>
-2.8001559

> <BCUT_SLOGP_1>
-0.51236463

> <BCUT_SLOGP_2>
0.66754413

> <BCUT_SLOGP_3>
2.5447149

> <BCUT_SMR_0>
-2.2943225

> <BCUT_SMR_1>
-0.40797389

> <BCUT_SMR_2>
0.75310677

> <BCUT_SMR_3>
2.9366863

> <bpol>
31.616898

> <b_1rotN>
5

> <b_1rotR>
0.2173913

> <b_ar>
6

> <b_count>
37

> <b_double>
1

> <b_heavy>
23

> <b_max1len>
6

> <b_rotN>
5

> <b_rotR>
0.2173913

> <b_single>
30

> <b_triple>
0

> <chi0>
16.543606

> <chi0v>
14.449193

> <chi0v_C>
6.4307213

> <chi0_C>
7.4222851

> <chi1>
10.148014

> <chi1v>
10.550017

> <chi1v_C>
2.8794453

> <chi1_C>
3.915015

> <chiral>
1

> <chiral_u>
1

> <density>
0.97410578

> <diameter>
12

> <FCharge>
0

> <GCUT_PEOE_0>
-0.88614506

> <GCUT_PEOE_1>
-0.40730533

> <GCUT_PEOE_2>
0.054787971

> <GCUT_PEOE_3>
2.5777018

> <GCUT_SLOGP_0>
-1.3482856

> <GCUT_SLOGP_1>
-0.43051994

> <GCUT_SLOGP_2>
0.17464034

> <GCUT_SLOGP_3>
2.5879233

> <GCUT_SMR_0>
-0.49009883

> <GCUT_SMR_1>
-0.18231826

> <GCUT_SMR_2>
0.23977616

> <GCUT_SMR_3>
2.8706079

> <Kier1>
18.340265

> <Kier2>
6.8571429

> <Kier3>
4.3083901

> <KierA1>
20.332987

> <KierA2>
7.6402006

> <KierA3>
4.8177223

> <KierFlex>
7.0612769

> <lip_acc>
7

> <lip_don>
4

> <lip_druglike>
1

> <lip_violation>
0

> <logP(o/w)>
0.80000001

> <logS>
-3.4979

> <mr>
8.7646971

> <mutagenic>
0

> <nmol>
1

> <opr_brigid>
12

> <opr_leadlike>
1

> <opr_nring>
2

> <opr_nrot>
5

> <opr_violation>
0

> <PC+>
0

> <PC->
0

> <PEOE_PC+>
1.8620152

> <PEOE_PC->
-1.8620152

> <PEOE_RPC+>
0.16635109

> <PEOE_RPC->
0.20544213

> <PEOE_VSA+0>
73.684464

> <PEOE_VSA+1>
29.945944

> <PEOE_VSA+2>
26.880259

> <PEOE_VSA+3>
0.0

> <PEOE_VSA+4>
0.0

> <PEOE_VSA+5>
0.0

> <PEOE_VSA+6>
8.3692026

> <PEOE_VSA-0>
31.551292

> <PEOE_VSA-1>
41.836849

> <PEOE_VSA-2>
56.847313

> <PEOE_VSA-3>
28.804367

> <PEOE_VSA-4>
32.016521

> <PEOE_VSA-5>
0.0

> <PEOE_VSA-6>
0.13689101

> <PEOE_VSA_FHYD>
0.87723136

> <PEOE_VSA_FNEG>
0.57924515

> <PEOE_VSA_FPNEG>
0.097413011

> <PEOE_VSA_FPOL>
0.12276861

> <PEOE_VSA_FPOS>
0.42075488

> <PEOE_VSA_FPPOS>
0.025355604

> <PEOE_VSA_HYD>
289.55048

> <PEOE_VSA_NEG>
191.19324

> <PEOE_VSA_PNEG>
32.153416

> <PEOE_VSA_POL>
40.522617

> <PEOE_VSA_POS>
138.87987

> <PEOE_VSA_PPOS>
8.3692026

> <petitjean>
0.5

> <petitjeanSC>
1.0

> <Q_PC+>
0

> <Q_PC->
0

> <Q_RPC+>
0

> <Q_RPC->
0

> <Q_VSA_FHYD>
1

> <Q_VSA_FNEG>
0

> <Q_VSA_FPNEG>
0

> <Q_VSA_FPOL>
0

> <Q_VSA_FPOS>
1

> <Q_VSA_FPPOS>
0

> <Q_VSA_HYD>
330.07309

> <Q_VSA_NEG>
0

> <Q_VSA_PNEG>
0

> <Q_VSA_POL>
0

> <Q_VSA_POS>
330.07309

> <Q_VSA_PPOS>
0

> <radius>
6

> <reactive>
0

> <rings>
2

> <RPC+>
0

> <RPC->
0

> <rsynth>
1.0

> <SlogP>
0.93650001

> <SlogP_VSA0>
47.69643

> <SlogP_VSA1>
114.35413

> <SlogP_VSA2>
16.834627

> <SlogP_VSA3>
34.467129

> <SlogP_VSA4>
0.0

> <SlogP_VSA5>
3.1014678

> <SlogP_VSA6>
3.5006065

> <SlogP_VSA7>
52.929554

> <SlogP_VSA8>
0.0

> <SlogP_VSA9>
106.22572

> <SMR>
8.8080397

> <SMR_VSA0>
96.343376

> <SMR_VSA1>
0.0

> <SMR_VSA2>
19.506466

> <SMR_VSA3>
7.0537477

> <SMR_VSA4>
52.058933

> <SMR_VSA5>
52.929554

> <SMR_VSA6>
34.467129

> <SMR_VSA7>
116.75047

> <TPSA>
118.36

> <VAdjEq>
0.4530769

> <VAdjMa>
5.523562

> <VDistEq>
3.2596099

> <VDistMa>
8.616312

> <vdw_area>
330.07309

> <vdw_vol>
394.10608

> <vsa_acc>
64.033043

> <vsa_acid>
0

> <vsa_base>
0

> <vsa_don>
33.892902

> <vsa_hyd>
181.33411

> <vsa_other>
31.401779

> <vsa_pol>
97.925949

> <Weight>
383.901

> <weinerPath>
1050

> <weinerPol>
36

> <zagreb>
116

$$$$
Row1428
 OpenBabel06061811532D

 25 27  0  0  1  0  0  0  0  0999 V2000
    0.0000    0.0000    0.0000 O   0  0  0  0  0  0  0  0  0  0  0  0
    0.0000    0.0000    0.0000 C   0  0  0  0  0  0  0  0  0  0  0  0
    0.0000    0.0000    0.0000 O   0  0  0  0  0  0  0  0  0  0  0  0
    0.0000    0.0000    0.0000 C   0  0  0  0  0  0  0  0  0  0  0  0
    0.0000    0.0000    0.0000 C   0  0  0  0  0  0  0  0  0  0  0  0
    0.0000    0.0000    0.0000 C   0  0  0  0  0  0  0  0  0  0  0  0
    0.0000    0.0000    0.0000 C   0  0  0  0  0  0  0  0  0  0  0  0
    0.0000    0.0000    0.0000 C   0  0  0  0  0  0  0  0  0  0  0  0
    0.0000    0.0000    0.0000 C   0  0  0  0  0  0  0  0  0  0  0  0
    0.0000    0.0000    0.0000 N   0  0  0  0  0  0  0  0  0  0  0  0
    0.0000    0.0000    0.0000 C   0  0  3  0  0  0  0  0  0  0  0  0
    0.0000    0.0000    0.0000 C   0  0  0  0  0  0  0  0  0  0  0  0
    0.0000    0.0000    0.0000 C   0  0  0  0  0  0  0  0  0  0  0  0
    0.0000    0.0000    0.0000 C   0  0  0  0  0  0  0  0  0  0  0  0
    0.0000    0.0000    0.0000 C   0  0  0  0  0  0  0  0  0  0  0  0
    0.0000    0.0000    0.0000 C   0  0  0  0  0  0  0  0  0  0  0  0
    0.0000    0.0000    0.0000 C   0  0  0  0  0  0  0  0  0  0  0  0
    0.0000    0.0000    0.0000 C   0  0  0  0  0  0  0  0  0  0  0  0
    0.0000    0.0000    0.0000 C   0  0  0  0  0  0  0  0  0  0  0  0
    0.0000    0.0000    0.0000 C   0  0  0  0  0  0  0  0  0  0  0  0
    0.0000    0.0000    0.0000 C   0  0  0  0  0  0  0  0  0  0  0  0
    0.0000    0.0000    0.0000 C   0  0  0  0  0  0  0  0  0  0  0  0
    0.0000    0.0000    0.0000 C   0  0  0  0  0  0  0  0  0  0  0  0
    0.0000    0.0000    0.0000 C   0  0  0  0  0  0  0  0  0  0  0  0
    0.0000    0.0000    0.0000 C   0  0  0  0  0  0  0  0  0  0  0  0
  1  2  1  0  0  0  0
  2  3  2  0  0  0  0
  2  4  1  0  0  0  0
  4  5  1  0  0  0  0
  5  6  1  0  0  0  0
  6  7  1  0  0  0  0
  7  8  1  0  0  0  0
  8  9  1  0  0  0  0
  9 10  1  0  0  0  0
 10 11  1  0  0  0  0
 11 17  1  0  0  0  0
 11 12  1  0  0  0  0
 12 25  1  0  0  0  0
 12 13  2  0  0  0  0
 13 14  1  0  0  0  0
 13 22  1  0  0  0  0
 14 15  1  0  0  0  0
 15 16  1  0  0  0  0
 16 21  1  0  0  0  0
 16 17  2  0  0  0  0
 17 18  1  0  0  0  0
 18 19  2  0  0  0  0
 19 20  1  0  0  0  0
 20 21  2  0  0  0  0
 22 23  2  0  0  0  0
 23 24  1  0  0  0  0
 24 25  2  0  0  0  0
M  END
> <Index>
1429

> <ID>
HT0132

> <class>
1

> <apol>
59.42741

> <ast_fraglike>
0

> <ast_fraglike_ext>
0

> <ast_violation>
2

> <ast_violation_ext>
3

> <a_acc>
3

> <a_acid>
0

> <a_aro>
12

> <a_base>
0

> <a_count>
52

> <a_don>
3

> <a_donacc>
6

> <a_heavy>
25

> <a_hyd>
21

> <a_IC>
67.933411

> <a_ICM>
1.3064116

> <a_nB>
0

> <a_nBr>
0

> <a_nC>
22

> <a_nCl>
0

> <a_nF>
0

> <a_nH>
27

> <a_nI>
0

> <a_nN>
1

> <a_nO>
2

> <a_nP>
0

> <a_nS>
0

> <balabanJ>
1.4855348

> <BCUT_PEOE_0>
-2.6796231

> <BCUT_PEOE_1>
-0.53203541

> <BCUT_PEOE_2>
0.59414881

> <BCUT_PEOE_3>
2.6285596

> <BCUT_SLOGP_0>
-2.6665289

> <BCUT_SLOGP_1>
-0.47653392

> <BCUT_SLOGP_2>
0.69274372

> <BCUT_SLOGP_3>
2.7456946

> <BCUT_SMR_0>
-2.4242368

> <BCUT_SMR_1>
-0.40325043

> <BCUT_SMR_2>
0.7296555

> <BCUT_SMR_3>
2.88855

> <bpol>
31.134588

> <b_1rotN>
8

> <b_1rotR>
0.2962963

> <b_ar>
12

> <b_count>
54

> <b_double>
1

> <b_heavy>
27

> <b_max1len>
9

> <b_rotN>
8

> <b_rotR>
0.2962963

> <b_single>
41

> <b_triple>
0

> <chi0>
17.484917

> <chi0v>
14.708468

> <chi0v_C>
13.353006

> <chi0_C>
14.77781

> <chi1>
12.25402

> <chi1v>
9.3626709

> <chi1v_C>
8.2927113

> <chi1_C>
10.191072

> <chiral>
0

> <chiral_u>
0

> <density>
0.67461878

> <diameter>
13

> <FCharge>
0

> <GCUT_PEOE_0>
-0.83829021

> <GCUT_PEOE_1>
-0.40456921

> <GCUT_PEOE_2>
0.087401763

> <GCUT_PEOE_3>
2.8201311

> <GCUT_SLOGP_0>
-1.1207359

> <GCUT_SLOGP_1>
-0.29827884

> <GCUT_SLOGP_2>
0.14073548

> <GCUT_SLOGP_3>
2.9236908

> <GCUT_SMR_0>
-0.53020966

> <GCUT_SMR_1>
-0.22986859

> <GCUT_SMR_2>
0.18837325

> <GCUT_SMR_3>
3.0919552

> <Kier1>
19.753086

> <Kier2>
10.364081

> <Kier3>
5.7362962

> <KierA1>
15.559336

> <KierA2>
8.0770264

> <KierA3>
4.4347744

> <KierFlex>
5.0269265

> <lip_acc>
3

> <lip_don>
2

> <lip_druglike>
1

> <lip_violation>
0

> <logP(o/w)>
5.1209998

> <logS>
-4.73737

> <mr>
10.262325

> <mutagenic>
0

> <nmol>
1

> <opr_brigid>
17

> <opr_leadlike>
1

> <opr_nring>
3

> <opr_nrot>
8

> <opr_violation>
1

> <PC+>
0

> <PC->
0

> <PEOE_PC+>
1.7462796

> <PEOE_PC->
-1.7462796

> <PEOE_RPC+>
0.14865181

> <PEOE_RPC->
0.18969895

> <PEOE_VSA+0>
76.947487

> <PEOE_VSA+1>
41.534435

> <PEOE_VSA+2>
8.6190128

> <PEOE_VSA+3>
0.0

> <PEOE_VSA+4>
10.324173

> <PEOE_VSA+5>
14.708499

> <PEOE_VSA+6>
0.0

> <PEOE_VSA-0>
56.831738

> <PEOE_VSA-1>
115.44186

> <PEOE_VSA-2>
0.0

> <PEOE_VSA-3>
0.0

> <PEOE_VSA-4>
0.0

> <PEOE_VSA-5>
13.566921

> <PEOE_VSA-6>
7.9044313

> <PEOE_VSA_FHYD>
0.86554813

> <PEOE_VSA_FNEG>
0.56015313

> <PEOE_VSA_FPNEG>
0.06207772

> <PEOE_VSA_FPOL>
0.13445188

> <PEOE_VSA_FPOS>
0.4398469

> <PEOE_VSA_FPPOS>
0.072374165

> <PEOE_VSA_HYD>
299.37454

> <PEOE_VSA_NEG>
193.74495

> <PEOE_VSA_PNEG>
21.471352

> <PEOE_VSA_POL>
46.504025

> <PEOE_VSA_POS>
152.13361

> <PEOE_VSA_PPOS>
25.032671

> <petitjean>
0.46153846

> <petitjeanSC>
0.85714287

> <Q_PC+>
0

> <Q_PC->
0

> <Q_RPC+>
0

> <Q_RPC->
0

> <Q_VSA_FHYD>
1

> <Q_VSA_FNEG>
0

> <Q_VSA_FPNEG>
0

> <Q_VSA_FPOL>
0

> <Q_VSA_FPOS>
1

> <Q_VSA_FPPOS>
0

> <Q_VSA_HYD>
345.87854

> <Q_VSA_NEG>
0

> <Q_VSA_PNEG>
0

> <Q_VSA_POL>
0

> <Q_VSA_POS>
345.87854

> <Q_VSA_PPOS>
0

> <radius>
7

> <reactive>
0

> <rings>
3

> <RPC+>
0

> <RPC->
0

> <rsynth>
1.0

> <SlogP>
4.5947399

> <SlogP_VSA0>
18.01075

> <SlogP_VSA1>
7.7454643

> <SlogP_VSA2>
23.862217

> <SlogP_VSA3>
43.824806

> <SlogP_VSA4>
12.7423

> <SlogP_VSA5>
37.736813

> <SlogP_VSA6>
0.0

> <SlogP_VSA7>
141.14548

> <SlogP_VSA8>
98.323997

> <SlogP_VSA9>
0.0

> <SMR>
10.09695

> <SMR_VSA0>
23.862217

> <SMR_VSA1>
0.0

> <SMR_VSA2>
43.395977

> <SMR_VSA3>
16.724268

> <SMR_VSA4>
0.0

> <SMR_VSA5>
273.2243

> <SMR_VSA6>
26.185041

> <SMR_VSA7>
0.0

> <TPSA>
49.330002

> <VAdjEq>
0.42433795

> <VAdjMa>
5.7548876

> <VDistEq>
3.5492861

> <VDistMa>
8.9658356

> <vdw_area>
345.87854

> <vdw_vol>
500.22766

> <vsa_acc>
0.0

> <vsa_acid>
0

> <vsa_base>
0

> <vsa_don>
0.0

> <vsa_hyd>
272.96063

> <vsa_other>
14.708499

> <vsa_pol>
32.816418

> <Weight>
337.46298

> <weinerPath>
1662

> <weinerPol>
39

> <zagreb>
124

$$$$
Row1429
 OpenBabel06061811532D

 31 33  0  0  0  0  0  0  0  0999 V2000
    0.0000    0.0000    0.0000 I   0  0  0  0  0  0  0  0  0  0  0  0
    0.0000    0.0000    0.0000 C   0  0  0  0  0  0  0  0  0  0  0  0
    0.0000    0.0000    0.0000 C   0  0  0  0  0  0  0  0  0  0  0  0
    0.0000    0.0000    0.0000 C   0  0  0  0  0  0  0  0  0  0  0  0
    0.0000    0.0000    0.0000 C   0  0  0  0  0  0  0  0  0  0  0  0
    0.0000    0.0000    0.0000 C   0  0  0  0  0  0  0  0  0  0  0  0
    0.0000    0.0000    0.0000 I   0  0  0  0  0  0  0  0  0  0  0  0
    0.0000    0.0000    0.0000 C   0  0  0  0  0  0  0  0  0  0  0  0
    0.0000    0.0000    0.0000 O   0  0  0  0  0  0  0  0  0  0  0  0
    0.0000    0.0000    0.0000 C   0  0  0  0  0  0  0  0  0  0  0  0
    0.0000    0.0000    0.0000 C   0  0  0  0  0  0  0  0  0  0  0  0
    0.0000    0.0000    0.0000 N   0  0  0  0  0  0  0  0  0  0  0  0
    0.0000    0.0000    0.0000 C   0  0  0  0  0  0  0  0  0  0  0  0
    0.0000    0.0000    0.0000 C   0  0  0  0  0  0  0  0  0  0  0  0
    0.0000    0.0000    0.0000 C   0  0  0  0  0  0  0  0  0  0  0  0
    0.0000    0.0000    0.0000 C   0  0  0  0  0  0  0  0  0  0  0  0
    0.0000    0.0000    0.0000 C   0  0  0  0  0  0  0  0  0  0  0  0
    0.0000    0.0000    0.0000 O   0  0  0  0  0  0  0  0  0  0  0  0
    0.0000    0.0000    0.0000 C   0  0  0  0  0  0  0  0  0  0  0  0
    0.0000    0.0000    0.0000 C   0  0  0  0  0  0  0  0  0  0  0  0
    0.0000    0.0000    0.0000 C   0  0  0  0  0  0  0  0  0  0  0  0
    0.0000    0.0000    0.0000 O   0  0  0  0  0  0  0  0  0  0  0  0
    0.0000    0.0000    0.0000 C   0  0  0  0  0  0  0  0  0  0  0  0
    0.0000    0.0000    0.0000 C   0  0  0  0  0  0  0  0  0  0  0  0
    0.0000    0.0000    0.0000 C   0  0  0  0  0  0  0  0  0  0  0  0
    0.0000    0.0000    0.0000 C   0  0  0  0  0  0  0  0  0  0  0  0
    0.0000    0.0000    0.0000 C   0  0  0  0  0  0  0  0  0  0  0  0
    0.0000    0.0000    0.0000 C   0  0  0  0  0  0  0  0  0  0  0  0
    0.0000    0.0000    0.0000 C   0  0  0  0  0  0  0  0  0  0  0  0
    0.0000    0.0000    0.0000 C   0  0  0  0  0  0  0  0  0  0  0  0
    0.0000    0.0000    0.0000 C   0  0  0  0  0  0  0  0  0  0  0  0
  1  2  1  0  0  0  0
  2  8  1  0  0  0  0
  2  3  2  0  0  0  0
  3  4  1  0  0  0  0
  4  5  2  0  0  0  0
  4 17  1  0  0  0  0
  5  6  1  0  0  0  0
  6  7  1  0  0  0  0
  6  8  2  0  0  0  0
  8  9  1  0  0  0  0
  9 10  1  0  0  0  0
 10 11  1  0  0  0  0
 11 12  1  0  0  0  0
 12 13  1  0  0  0  0
 12 15  1  0  0  0  0
 13 14  1  0  0  0  0
 15 16  1  0  0  0  0
 17 18  2  0  0  0  0
 17 19  1  0  0  0  0
 19 23  2  0  0  0  0
 19 20  1  0  0  0  0
 20 31  1  0  0  0  0
 20 21  2  0  0  0  0
 21 22  1  0  0  0  0
 21 28  1  0  0  0  0
 22 23  1  0  0  0  0
 23 24  1  0  0  0  0
 24 25  1  0  0  0  0
 25 26  1  0  0  0  0
 26 27  1  0  0  0  0
 28 29  2  0  0  0  0
 29 30  1  0  0  0  0
 30 31  2  0  0  0  0
M  END
> <Index>
1430

> <ID>
HT0140

> <class>
1

> <apol>
77.542999

> <ast_fraglike>
0

> <ast_fraglike_ext>
0

> <ast_violation>
2

> <ast_violation_ext>
3

> <a_acc>
3

> <a_acid>
0

> <a_aro>
15

> <a_base>
0

> <a_count>
60

> <a_don>
0

> <a_donacc>
3

> <a_heavy>
31

> <a_hyd>
24

> <a_IC>
90.680695

> <a_ICM>
1.5113449

> <a_nB>
0

> <a_nBr>
0

> <a_nC>
25

> <a_nCl>
0

> <a_nF>
0

> <a_nH>
29

> <a_nI>
2

> <a_nN>
1

> <a_nO>
3

> <a_nP>
0

> <a_nS>
0

> <balabanJ>
1.591565

> <BCUT_PEOE_0>
-2.6697471

> <BCUT_PEOE_1>
-0.54080963

> <BCUT_PEOE_2>
0.4738214

> <BCUT_PEOE_3>
2.5691428

> <BCUT_SLOGP_0>
-2.7503822

> <BCUT_SLOGP_1>
-0.38271686

> <BCUT_SLOGP_2>
0.75776958

> <BCUT_SLOGP_3>
2.6687145

> <BCUT_SMR_0>
-2.393193

> <BCUT_SMR_1>
-0.21074857

> <BCUT_SMR_2>
0.81327635

> <BCUT_SMR_3>
2.8367901

> <bpol>
45.653004

> <b_1rotN>
11

> <b_1rotR>
0.33333334

> <b_ar>
16

> <b_count>
62

> <b_double>
1

> <b_heavy>
33

> <b_max1len>
6

> <b_rotN>
11

> <b_rotR>
0.33333334

> <b_single>
45

> <b_triple>
0

> <chi0>
22.380104

> <chi0v>
22.656733

> <chi0v_C>
15.913849

> <chi0_C>
17.38854

> <chi1>
14.993933

> <chi1v>
13.046243

> <chi1v_C>
8.4569244

> <chi1_C>
10.312391

> <chiral>
0

> <chiral_u>
0

> <density>
0.99715388

> <diameter>
16

> <FCharge>
0

> <GCUT_PEOE_0>
-0.8559472

> <GCUT_PEOE_1>
-0.40159106

> <GCUT_PEOE_2>
-0.022997096

> <GCUT_PEOE_3>
2.6812913

> <GCUT_SLOGP_0>
-0.9616729

> <GCUT_SLOGP_1>
-0.27041867

> <GCUT_SLOGP_2>
0.1682269

> <GCUT_SLOGP_3>
2.7930021

> <GCUT_SMR_0>
-0.52895296

> <GCUT_SMR_1>
-0.11850416

> <GCUT_SMR_2>
0.20296051

> <GCUT_SMR_3>
2.991055

> <Kier1>
25.619835

> <Kier2>
12.459259

> <Kier3>
6.3208814

> <KierA1>
25.613871

> <KierA2>
12.456261

> <KierA3>
6.3193235

> <KierFlex>
10.292034

> <lip_acc>
4

> <lip_don>
0

> <lip_druglike>
0

> <lip_violation>
2

> <logP(o/w)>
8.1879997

> <logS>
-9.0343504

> <mr>
14.566408

> <mutagenic>
0

> <nmol>
1

> <opr_brigid>
16

> <opr_leadlike>
0

> <opr_nring>
3

> <opr_nrot>
11

> <opr_violation>
3

> <PC+>
0

> <PC->
0

> <PEOE_PC+>
2.0080376

> <PEOE_PC->
-2.0080376

> <PEOE_RPC+>
0.098145679

> <PEOE_RPC->
0.2285593

> <PEOE_VSA+0>
121.96401

> <PEOE_VSA+1>
51.282921

> <PEOE_VSA+2>
25.375559

> <PEOE_VSA+3>
8.458519

> <PEOE_VSA+4>
0.0

> <PEOE_VSA+5>
0.0

> <PEOE_VSA+6>
0.0

> <PEOE_VSA-0>
165.8307

> <PEOE_VSA-1>
101.70906

> <PEOE_VSA-2>
0.0

> <PEOE_VSA-3>
0.0

> <PEOE_VSA-4>
0.0

> <PEOE_VSA-5>
13.566921

> <PEOE_VSA-6>
5.0075121

> <PEOE_VSA_FHYD>
0.96233857

> <PEOE_VSA_FNEG>
0.58012366

> <PEOE_VSA_FPNEG>
0.037661422

> <PEOE_VSA_FPOL>
0.037661422

> <PEOE_VSA_FPOS>
0.41987637

> <PEOE_VSA_FPPOS>
0.0

> <PEOE_VSA_HYD>
474.62076

> <PEOE_VSA_NEG>
286.1142

> <PEOE_VSA_PNEG>
18.574432

> <PEOE_VSA_POL>
18.574432

> <PEOE_VSA_POS>
207.08101

> <PEOE_VSA_PPOS>
0.0

> <petitjean>
0.5

> <petitjeanSC>
1.0

> <Q_PC+>
0

> <Q_PC->
0

> <Q_RPC+>
0

> <Q_RPC->
0

> <Q_VSA_FHYD>
1

> <Q_VSA_FNEG>
0

> <Q_VSA_FPNEG>
0

> <Q_VSA_FPOL>
0

> <Q_VSA_FPOS>
1

> <Q_VSA_FPPOS>
0

> <Q_VSA_HYD>
493.19519

> <Q_VSA_NEG>
0

> <Q_VSA_PNEG>
0

> <Q_VSA_POL>
0

> <Q_VSA_POS>
493.19519

> <Q_VSA_PPOS>
0

> <radius>
8

> <reactive>
1

> <rings>
3

> <RPC+>
0

> <RPC->
0

> <rsynth>
1.0

> <SlogP>
6.9361701

> <SlogP_VSA0>
10.999887

> <SlogP_VSA1>
8.8119249

> <SlogP_VSA2>
3.3192859

> <SlogP_VSA3>
76.244995

> <SlogP_VSA4>
35.682186

> <SlogP_VSA5>
28.375751

> <SlogP_VSA6>
0.0

> <SlogP_VSA7>
113.26828

> <SlogP_VSA8>
37.736813

> <SlogP_VSA9>
218.78549

> <SMR>
14.34175

> <SMR_VSA0>
33.369564

> <SMR_VSA1>
14.124202

> <SMR_VSA2>
3.3192859

> <SMR_VSA3>
17.063398

> <SMR_VSA4>
7.4091749

> <SMR_VSA5>
162.46432

> <SMR_VSA6>
81.932602

> <SMR_VSA7>
213.54207

> <TPSA>
42.68

> <VAdjEq>
0.36097246

> <VAdjMa>
6.044394

> <VDistEq>
3.7471545

> <VDistMa>
9.6065483

> <vdw_area>
493.19519

> <vdw_vol>
647.16089

> <vsa_acc>
16.070677

> <vsa_acid>
0

> <vsa_base>
0

> <vsa_don>
0.0

> <vsa_hyd>
428.60315

> <vsa_other>
27.879314

> <vsa_pol>
16.070677

> <Weight>
645.31897

> <weinerPath>
2897

> <weinerPol>
50

> <zagreb>
156

$$$$
Row1430
 OpenBabel06061811532D

 21 23  0  0  0  0  0  0  0  0999 V2000
    0.0000    0.0000    0.0000 N   0  0  0  0  0  0  0  0  0  0  0  0
    0.0000    0.0000    0.0000 C   0  0  0  0  0  0  0  0  0  0  0  0
    0.0000    0.0000    0.0000 C   0  0  0  0  0  0  0  0  0  0  0  0
    0.0000    0.0000    0.0000 C   0  0  0  0  0  0  0  0  0  0  0  0
    0.0000    0.0000    0.0000 C   0  0  0  0  0  0  0  0  0  0  0  0
    0.0000    0.0000    0.0000 C   0  0  0  0  0  0  0  0  0  0  0  0
    0.0000    0.0000    0.0000 C   0  0  0  0  0  0  0  0  0  0  0  0
    0.0000    0.0000    0.0000 C   0  0  0  0  0  0  0  0  0  0  0  0
    0.0000    0.0000    0.0000 C   0  0  0  0  0  0  0  0  0  0  0  0
    0.0000    0.0000    0.0000 C   0  0  0  0  0  0  0  0  0  0  0  0
    0.0000    0.0000    0.0000 C   0  0  0  0  0  0  0  0  0  0  0  0
    0.0000    0.0000    0.0000 C   0  0  0  0  0  0  0  0  0  0  0  0
    0.0000    0.0000    0.0000 C   0  0  0  0  0  0  0  0  0  0  0  0
    0.0000    0.0000    0.0000 C   0  0  0  0  0  0  0  0  0  0  0  0
    0.0000    0.0000    0.0000 C   0  0  0  0  0  0  0  0  0  0  0  0
    0.0000    0.0000    0.0000 C   0  0  0  0  0  0  0  0  0  0  0  0
    0.0000    0.0000    0.0000 C   0  0  0  0  0  0  0  0  0  0  0  0
    0.0000    0.0000    0.0000 C   0  0  0  0  0  0  0  0  0  0  0  0
    0.0000    0.0000    0.0000 C   0  0  0  0  0  0  0  0  0  0  0  0
    0.0000    0.0000    0.0000 C   0  0  0  0  0  0  0  0  0  0  0  0
    0.0000    0.0000    0.0000 C   0  0  0  0  0  0  0  0  0  0  0  0
  1  2  1  0  0  0  0
  1 20  1  0  0  0  0
  1 21  1  0  0  0  0
  2  3  1  0  0  0  0
  3  4  1  0  0  0  0
  4  5  2  3  0  0  0
  5 11  1  0  0  0  0
  5  6  1  0  0  0  0
  6 19  1  0  0  0  0
  6  7  2  0  0  0  0
  7  8  1  0  0  0  0
  7 16  1  0  0  0  0
  8  9  1  0  0  0  0
  9 10  1  0  0  0  0
 10 15  1  0  0  0  0
 10 11  2  0  0  0  0
 11 12  1  0  0  0  0
 12 13  2  0  0  0  0
 13 14  1  0  0  0  0
 14 15  2  0  0  0  0
 16 17  2  0  0  0  0
 17 18  1  0  0  0  0
 18 19  2  0  0  0  0
M  END
> <Index>
1431

> <ID>
HT0141

> <class>
1

> <apol>
51.636238

> <ast_fraglike>
0

> <ast_fraglike_ext>
0

> <ast_violation>
1

> <ast_violation_ext>
1

> <a_acc>
1

> <a_acid>
0

> <a_aro>
12

> <a_base>
0

> <a_count>
44

> <a_don>
0

> <a_donacc>
1

> <a_heavy>
21

> <a_hyd>
20

> <a_IC>
49.734505

> <a_ICM>
1.1303296

> <a_nB>
0

> <a_nBr>
0

> <a_nC>
20

> <a_nCl>
0

> <a_nF>
0

> <a_nH>
23

> <a_nI>
0

> <a_nN>
1

> <a_nO>
0

> <a_nP>
0

> <a_nS>
0

> <balabanJ>
1.7133598

> <BCUT_PEOE_0>
-2.6076448

> <BCUT_PEOE_1>
-0.5259766

> <BCUT_PEOE_2>
0.59013057

> <BCUT_PEOE_3>
2.5057371

> <BCUT_SLOGP_0>
-2.6599655

> <BCUT_SLOGP_1>
-0.42568991

> <BCUT_SLOGP_2>
0.6883353

> <BCUT_SLOGP_3>
2.5700188

> <BCUT_SMR_0>
-2.3218892

> <BCUT_SMR_1>
-0.3973164

> <BCUT_SMR_2>
0.72555208

> <BCUT_SMR_3>
2.7937274

> <bpol>
27.12376

> <b_1rotN>
3

> <b_1rotR>
0.13043478

> <b_ar>
12

> <b_count>
46

> <b_double>
1

> <b_heavy>
23

> <b_max1len>
6

> <b_rotN>
3

> <b_rotR>
0.13043478

> <b_single>
33

> <b_triple>
0

> <chi0>
14.656489

> <chi0v>
12.971793

> <chi0v_C>
12.52458

> <chi0_C>
14.07914

> <chi1>
10.25402

> <chi1v>
7.7693858

> <chi1v_C>
6.5587306

> <chi1_C>
8.6910715

> <chiral>
0

> <chiral_u>
0

> <density>
0.63425285

> <diameter>
9

> <FCharge>
0

> <GCUT_PEOE_0>
-0.86321443

> <GCUT_PEOE_1>
-0.34103692

> <GCUT_PEOE_2>
0.052403692

> <GCUT_PEOE_3>
2.7083454

> <GCUT_SLOGP_0>
-0.95306402

> <GCUT_SLOGP_1>
-0.24776511

> <GCUT_SLOGP_2>
0.13427843

> <GCUT_SLOGP_3>
2.8223922

> <GCUT_SMR_0>
-0.5170666

> <GCUT_SMR_1>
-0.18353947

> <GCUT_SMR_2>
0.15959717

> <GCUT_SMR_3>
2.9992242

> <Kier1>
15.879017

> <Kier2>
7.5130072

> <Kier3>
3.8548484

> <KierA1>
11.983418

> <KierA2>
5.5836325

> <KierA3>
2.8312824

> <KierFlex>
3.1862381

> <lip_acc>
1

> <lip_don>
0

> <lip_druglike>
1

> <lip_violation>
0

> <logP(o/w)>
4.5570002

> <logS>
-4.2673602

> <mr>
8.9545374

> <mutagenic>
0

> <nmol>
1

> <opr_brigid>
18

> <opr_leadlike>
1

> <opr_nring>
3

> <opr_nrot>
3

> <opr_violation>
0

> <PC+>
0

> <PC->
0

> <PEOE_PC+>
1.0663027

> <PEOE_PC->
-1.0663027

> <PEOE_RPC+>
0.058492061

> <PEOE_RPC->
0.2888979

> <PEOE_VSA+0>
72.90773

> <PEOE_VSA+1>
38.388474

> <PEOE_VSA+2>
0.0

> <PEOE_VSA+3>
0.0

> <PEOE_VSA+4>
0.0

> <PEOE_VSA+5>
0.0

> <PEOE_VSA+6>
0.0

> <PEOE_VSA-0>
83.624016

> <PEOE_VSA-1>
110.29414

> <PEOE_VSA-2>
0.0

> <PEOE_VSA-3>
0.0

> <PEOE_VSA-4>
0.0

> <PEOE_VSA-5>
0.0

> <PEOE_VSA-6>
0.0

> <PEOE_VSA_FHYD>
1.0

> <PEOE_VSA_FNEG>
0.6353507

> <PEOE_VSA_FPNEG>
0.0

> <PEOE_VSA_FPOL>
0.0

> <PEOE_VSA_FPOS>
0.3646493

> <PEOE_VSA_FPPOS>
0.0

> <PEOE_VSA_HYD>
305.21436

> <PEOE_VSA_NEG>
193.91815

> <PEOE_VSA_PNEG>
0.0

> <PEOE_VSA_POL>
0.0

> <PEOE_VSA_POS>
111.2962

> <PEOE_VSA_PPOS>
0.0

> <petitjean>
0.44444445

> <petitjeanSC>
0.80000001

> <Q_PC+>
0

> <Q_PC->
0

> <Q_RPC+>
0

> <Q_RPC->
0

> <Q_VSA_FHYD>
1

> <Q_VSA_FNEG>
0

> <Q_VSA_FPNEG>
0

> <Q_VSA_FPOL>
0

> <Q_VSA_FPOS>
1

> <Q_VSA_FPPOS>
0

> <Q_VSA_HYD>
305.21436

> <Q_VSA_NEG>
0

> <Q_VSA_PNEG>
0

> <Q_VSA_POL>
0

> <Q_VSA_POS>
305.21436

> <Q_VSA_PPOS>
0

> <radius>
5

> <reactive>
0

> <rings>
3

> <RPC+>
0

> <RPC->
0

> <rsynth>
1.0

> <SlogP>
3.9858301

> <SlogP_VSA0>
0.0

> <SlogP_VSA1>
3.1243138

> <SlogP_VSA2>
0.0

> <SlogP_VSA3>
21.625153

> <SlogP_VSA4>
12.7423

> <SlogP_VSA5>
103.53119

> <SlogP_VSA6>
0.0

> <SlogP_VSA7>
158.78867

> <SlogP_VSA8>
18.868406

> <SlogP_VSA9>
0.0

> <SMR>
8.948

> <SMR_VSA0>
0.0

> <SMR_VSA1>
3.1243138

> <SMR_VSA2>
3.185575

> <SMR_VSA3>
12.7423

> <SMR_VSA4>
0.0

> <SMR_VSA5>
215.39388

> <SMR_VSA6>
18.439579

> <SMR_VSA7>
65.794373

> <TPSA>
3.24

> <VAdjEq>
0.48250595

> <VAdjMa>
5.523562

> <VDistEq>
3.0281317

> <VDistMa>
8.515563

> <vdw_area>
305.21436

> <vdw_vol>
437.38235

> <vsa_acc>
0.0

> <vsa_acid>
0

> <vsa_base>
0

> <vsa_don>
0.0

> <vsa_hyd>
288.84305

> <vsa_other>
0.0

> <vsa_pol>
0.0

> <Weight>
277.41098

> <weinerPath>
882

> <weinerPol>
35

> <zagreb>
108

$$$$
Row1431
 OpenBabel06061811532D

 22 25  0  0  0  0  0  0  0  0999 V2000
    0.0000    0.0000    0.0000 Cl  0  0  0  0  0  0  0  0  0  0  0  0
    0.0000    0.0000    0.0000 C   0  0  0  0  0  0  0  0  0  0  0  0
    0.0000    0.0000    0.0000 C   0  0  0  0  0  0  0  0  0  0  0  0
    0.0000    0.0000    0.0000 C   0  0  0  0  0  0  0  0  0  0  0  0
    0.0000    0.0000    0.0000 C   0  0  0  0  0  0  0  0  0  0  0  0
    0.0000    0.0000    0.0000 O   0  0  0  0  0  0  0  0  0  0  0  0
    0.0000    0.0000    0.0000 C   0  0  0  0  0  0  0  0  0  0  0  0
    0.0000    0.0000    0.0000 C   0  0  0  0  0  0  0  0  0  0  0  0
    0.0000    0.0000    0.0000 N   0  0  0  0  0  0  0  0  0  0  0  0
    0.0000    0.0000    0.0000 C   0  0  0  0  0  0  0  0  0  0  0  0
    0.0000    0.0000    0.0000 N   0  0  0  0  0  0  0  0  0  0  0  0
    0.0000    0.0000    0.0000 C   0  0  0  0  0  0  0  0  0  0  0  0
    0.0000    0.0000    0.0000 C   0  0  0  0  0  0  0  0  0  0  0  0
    0.0000    0.0000    0.0000 N   0  0  0  0  0  0  0  0  0  0  0  0
    0.0000    0.0000    0.0000 C   0  0  0  0  0  0  0  0  0  0  0  0
    0.0000    0.0000    0.0000 C   0  0  0  0  0  0  0  0  0  0  0  0
    0.0000    0.0000    0.0000 C   0  0  0  0  0  0  0  0  0  0  0  0
    0.0000    0.0000    0.0000 C   0  0  0  0  0  0  0  0  0  0  0  0
    0.0000    0.0000    0.0000 C   0  0  0  0  0  0  0  0  0  0  0  0
    0.0000    0.0000    0.0000 C   0  0  0  0  0  0  0  0  0  0  0  0
    0.0000    0.0000    0.0000 C   0  0  0  0  0  0  0  0  0  0  0  0
    0.0000    0.0000    0.0000 C   0  0  0  0  0  0  0  0  0  0  0  0
  1  2  1  0  0  0  0
  2 22  1  0  0  0  0
  2  3  2  0  0  0  0
  3  4  1  0  0  0  0
  4 10  1  0  0  0  0
  4  5  2  0  0  0  0
  5  6  1  0  0  0  0
  5 21  1  0  0  0  0
  6  7  1  0  0  0  0
  7 20  1  0  0  0  0
  7  8  2  0  0  0  0
  8  9  1  0  0  0  0
  8 17  1  0  0  0  0
  9 10  2  0  0  0  0
 10 11  1  0  0  0  0
 11 16  1  0  0  0  0
 11 12  1  0  0  0  0
 12 13  1  0  0  0  0
 13 14  1  0  0  0  0
 14 15  1  0  0  0  0
 15 16  1  0  0  0  0
 17 18  2  0  0  0  0
 18 19  1  0  0  0  0
 19 20  2  0  0  0  0
 21 22  2  0  0  0  0
M  END
> <Index>
1432

> <ID>
HT0149

> <class>
1

> <apol>
46.870689

> <ast_fraglike>
0

> <ast_fraglike_ext>
0

> <ast_violation>
2

> <ast_violation_ext>
2

> <a_acc>
2

> <a_acid>
0

> <a_aro>
12

> <a_base>
0

> <a_count>
38

> <a_don>
1

> <a_donacc>
3

> <a_heavy>
22

> <a_hyd>
17

> <a_IC>
61.179489

> <a_ICM>
1.6099865

> <a_nB>
0

> <a_nBr>
0

> <a_nC>
17

> <a_nCl>
1

> <a_nF>
0

> <a_nH>
16

> <a_nI>
0

> <a_nN>
3

> <a_nO>
1

> <a_nP>
0

> <a_nS>
0

> <balabanJ>
1.5741323

> <BCUT_PEOE_0>
-2.716197

> <BCUT_PEOE_1>
-0.63493365

> <BCUT_PEOE_2>
0.65656102

> <BCUT_PEOE_3>
2.6174264

> <BCUT_SLOGP_0>
-2.8889599

> <BCUT_SLOGP_1>
-0.59433401

> <BCUT_SLOGP_2>
0.77462327

> <BCUT_SLOGP_3>
2.5086503

> <BCUT_SMR_0>
-2.424005

> <BCUT_SMR_1>
-0.48071998

> <BCUT_SMR_2>
0.83161479

> <BCUT_SMR_3>
2.9015248

> <bpol>
23.787312

> <b_1rotN>
1

> <b_1rotR>
0.039999999

> <b_ar>
12

> <b_count>
41

> <b_double>
1

> <b_heavy>
25

> <b_max1len>
2

> <b_rotN>
1

> <b_rotR>
0.039999999

> <b_single>
28

> <b_triple>
0

> <chi0>
14.940947

> <chi0v>
12.806448

> <chi0v_C>
9.8698788

> <chi0_C>
11.242276

> <chi1>
10.809663

> <chi1v>
7.800962

> <chi1v_C>
4.8153839

> <chi1_C>
6.4494896

> <chiral>
0

> <chiral_u>
0

> <density>
0.76822811

> <diameter>
9

> <FCharge>
0

> <GCUT_PEOE_0>
-0.86242938

> <GCUT_PEOE_1>
-0.43046743

> <GCUT_PEOE_2>
0.062203467

> <GCUT_PEOE_3>
2.6281722

> <GCUT_SLOGP_0>
-1.1542467

> <GCUT_SLOGP_1>
-0.31936374

> <GCUT_SLOGP_2>
0.18287449

> <GCUT_SLOGP_3>
2.7197766

> <GCUT_SMR_0>
-0.50895

> <GCUT_SMR_1>
-0.2165993

> <GCUT_SMR_2>
0.19826761

> <GCUT_SMR_3>
2.9235082

> <Kier1>
15.5232

> <Kier2>
6.8571429

> <Kier3>
3.2986112

> <KierA1>
12.332818

> <KierA2>
5.3839531

> <KierA3>
2.5678456

> <KierFlex>
3.0181506

> <lip_acc>
4

> <lip_don>
1

> <lip_druglike>
1

> <lip_violation>
0

> <logP(o/w)>
3.0350001

> <logS>
-4.1309299

> <mr>
8.7097988

> <mutagenic>
0

> <nmol>
1

> <opr_brigid>
23

> <opr_leadlike>
1

> <opr_nring>
4

> <opr_nrot>
3

> <opr_violation>
0

> <PC+>
0

> <PC->
0

> <PEOE_PC+>
1.5645456

> <PEOE_PC->
-1.5645456

> <PEOE_RPC+>
0.089558356

> <PEOE_RPC->
0.22556899

> <PEOE_VSA+0>
76.559128

> <PEOE_VSA+1>
62.077316

> <PEOE_VSA+2>
28.268095

> <PEOE_VSA+3>
0.0

> <PEOE_VSA+4>
0.0

> <PEOE_VSA+5>
0.0

> <PEOE_VSA+6>
0.0

> <PEOE_VSA-0>
61.274521

> <PEOE_VSA-1>
54.091755

> <PEOE_VSA-2>
0.0

> <PEOE_VSA-3>
0.0

> <PEOE_VSA-4>
5.6825762

> <PEOE_VSA-5>
0.0

> <PEOE_VSA-6>
2.6406472

> <PEOE_VSA_FHYD>
0.97135788

> <PEOE_VSA_FNEG>
0.42564362

> <PEOE_VSA_FPNEG>
0.028642099

> <PEOE_VSA_FPOL>
0.028642099

> <PEOE_VSA_FPOS>
0.57435638

> <PEOE_VSA_FPPOS>
0.0

> <PEOE_VSA_HYD>
282.27081

> <PEOE_VSA_NEG>
123.6895

> <PEOE_VSA_PNEG>
8.3232231

> <PEOE_VSA_POL>
8.3232231

> <PEOE_VSA_POS>
166.90454

> <PEOE_VSA_PPOS>
0.0

> <petitjean>
0.44444445

> <petitjeanSC>
0.80000001

> <Q_PC+>
0

> <Q_PC->
0

> <Q_RPC+>
0

> <Q_RPC->
0

> <Q_VSA_FHYD>
1

> <Q_VSA_FNEG>
0

> <Q_VSA_FPNEG>
0

> <Q_VSA_FPOL>
0

> <Q_VSA_FPOS>
1

> <Q_VSA_FPPOS>
0

> <Q_VSA_HYD>
290.59402

> <Q_VSA_NEG>
0

> <Q_VSA_PNEG>
0

> <Q_VSA_POL>
0

> <Q_VSA_POS>
290.59402

> <Q_VSA_PPOS>
0

> <radius>
5

> <reactive>
0

> <rings>
4

> <RPC+>
0

> <RPC->
0

> <rsynth>
1.0

> <SlogP>
3.4291999

> <SlogP_VSA0>
29.010639

> <SlogP_VSA1>
5.4522343

> <SlogP_VSA2>
0.0

> <SlogP_VSA3>
73.758316

> <SlogP_VSA4>
3.185575

> <SlogP_VSA5>
16.78553

> <SlogP_VSA6>
3.5006065

> <SlogP_VSA7>
123.50229

> <SlogP_VSA8>
0.0

> <SlogP_VSA9>
52.392246

> <SMR>
8.8607702

> <SMR_VSA0>
0.0

> <SMR_VSA1>
30.909731

> <SMR_VSA2>
18.01075

> <SMR_VSA3>
17.173038

> <SMR_VSA4>
2.7567475

> <SMR_VSA5>
123.50229

> <SMR_VSA6>
76.086235

> <SMR_VSA7>
39.148643

> <TPSA>
36.860001

> <VAdjEq>
0.47938794

> <VAdjMa>
5.643856

> <VDistEq>
2.9251459

> <VDistMa>
8.6701946

> <vdw_area>
290.59402

> <vdw_vol>
408.45679

> <vsa_acc>
5.6825762

> <vsa_acid>
0

> <vsa_base>
0

> <vsa_don>
0.0

> <vsa_hyd>
251.78432

> <vsa_other>
13.694319

> <vsa_pol>
11.365152

> <Weight>
313.78799

> <weinerPath>
936

> <weinerPol>
39

> <zagreb>
120

$$$$
Row1432
 OpenBabel06061811532D

 29 31  0  0  1  0  0  0  0  0999 V2000
    0.0000    0.0000    0.0000 S   0  0  0  0  0  0  0  0  0  0  0  0
    0.0000    0.0000    0.0000 C   0  0  1  0  0  0  0  0  0  0  0  0
    0.0000    0.0000    0.0000 H   0  0  0  0  0  0  0  0  0  0  0  0
    0.0000    0.0000    0.0000 N   0  0  0  0  0  0  0  0  0  0  0  0
    0.0000    0.0000    0.0000 C   0  0  1  0  0  0  0  0  0  0  0  0
    0.0000    0.0000    0.0000 H   0  0  0  0  0  0  0  0  0  0  0  0
    0.0000    0.0000    0.0000 C   0  0  0  0  0  0  0  0  0  0  0  0
    0.0000    0.0000    0.0000 O   0  0  0  0  0  0  0  0  0  0  0  0
    0.0000    0.0000    0.0000 O   0  0  0  0  0  0  0  0  0  0  0  0
    0.0000    0.0000    0.0000 C   0  0  0  0  0  0  0  0  0  0  0  0
    0.0000    0.0000    0.0000 C   0  0  0  0  0  0  0  0  0  0  0  0
    0.0000    0.0000    0.0000 C   0  0  0  0  0  0  0  0  0  0  0  0
    0.0000    0.0000    0.0000 C   0  0  0  0  0  0  0  0  0  0  0  0
    0.0000    0.0000    0.0000 O   0  0  0  0  0  0  0  0  0  0  0  0
    0.0000    0.0000    0.0000 C   0  0  1  0  0  0  0  0  0  0  0  0
    0.0000    0.0000    0.0000 H   0  0  0  0  0  0  0  0  0  0  0  0
    0.0000    0.0000    0.0000 N   0  0  0  0  0  0  0  0  0  0  0  0
    0.0000    0.0000    0.0000 C   0  0  0  0  0  0  0  0  0  0  0  0
    0.0000    0.0000    0.0000 O   0  0  0  0  0  0  0  0  0  0  0  0
    0.0000    0.0000    0.0000 C   0  0  2  0  0  0  0  0  0  0  0  0
    0.0000    0.0000    0.0000 H   0  0  0  0  0  0  0  0  0  0  0  0
    0.0000    0.0000    0.0000 N   0  0  0  0  0  0  0  0  0  0  0  0
    0.0000    0.0000    0.0000 C   0  0  0  0  0  0  0  0  0  0  0  0
    0.0000    0.0000    0.0000 C   0  0  0  0  0  0  0  0  0  0  0  0
    0.0000    0.0000    0.0000 C   0  0  0  0  0  0  0  0  0  0  0  0
    0.0000    0.0000    0.0000 C   0  0  0  0  0  0  0  0  0  0  0  0
    0.0000    0.0000    0.0000 O   0  0  0  0  0  0  0  0  0  0  0  0
    0.0000    0.0000    0.0000 C   0  0  0  0  0  0  0  0  0  0  0  0
    0.0000    0.0000    0.0000 C   0  0  0  0  0  0  0  0  0  0  0  0
  1 10  1  0  0  0  0
  1  2  1  0  0  0  0
  2  3  1  0  0  0  0
  2 15  1  0  0  0  0
  2  4  1  0  0  0  0
  4  5  1  0  0  0  0
  4 13  1  0  0  0  0
  5  6  1  0  0  0  0
  5  7  1  0  0  0  0
  5 10  1  0  0  0  0
  7  8  1  0  0  0  0
  7  9  2  0  0  0  0
 10 11  1  0  0  0  0
 10 12  1  0  0  0  0
 13 14  2  0  0  0  0
 13 15  1  0  0  0  0
 15 16  1  0  0  0  0
 15 17  1  0  0  0  0
 17 18  1  0  0  0  0
 18 19  2  0  0  0  0
 18 20  1  0  0  0  0
 20 21  1  0  0  0  0
 20 22  1  0  0  0  0
 20 23  1  0  0  0  0
 23 29  1  0  0  0  0
 23 24  2  0  0  0  0
 24 25  1  0  0  0  0
 25 26  2  0  0  0  0
 26 27  1  0  0  0  0
 26 28  1  0  0  0  0
 28 29  2  0  0  0  0
M  END
> <Index>
1433

> <ID>
HT0150

> <class>
1

> <apol>
51.039066

> <ast_fraglike>
0

> <ast_fraglike_ext>
0

> <ast_violation>
3

> <ast_violation_ext>
5

> <a_acc>
6

> <a_acid>
0

> <a_aro>
6

> <a_base>
0

> <a_count>
44

> <a_don>
5

> <a_donacc>
11

> <a_heavy>
25

> <a_hyd>
14

> <a_IC>
79.139839

> <a_ICM>
1.7986327

> <a_nB>
0

> <a_nBr>
0

> <a_nC>
16

> <a_nCl>
0

> <a_nF>
0

> <a_nH>
19

> <a_nI>
0

> <a_nN>
3

> <a_nO>
5

> <a_nP>
0

> <a_nS>
1

> <balabanJ>
1.5916789

> <BCUT_PEOE_0>
-2.6470633

> <BCUT_PEOE_1>
-0.59024209

> <BCUT_PEOE_2>
0.5913434

> <BCUT_PEOE_3>
2.8502831

> <BCUT_SLOGP_0>
-2.9028697

> <BCUT_SLOGP_1>
-0.53223735

> <BCUT_SLOGP_2>
0.58717239

> <BCUT_SLOGP_3>
2.7545812

> <BCUT_SMR_0>
-2.3916981

> <BCUT_SMR_1>
-0.40178555

> <BCUT_SMR_2>
0.77776319

> <BCUT_SMR_3>
3.1312523

> <bpol>
27.904934

> <b_1rotN>
4

> <b_1rotR>
0.14814815

> <b_ar>
6

> <b_count>
46

> <b_double>
3

> <b_heavy>
27

> <b_max1len>
4

> <b_rotN>
5

> <b_rotR>
0.18518518

> <b_single>
37

> <b_triple>
0

> <chi0>
18.516144

> <chi0v>
14.487283

> <chi0v_C>
9.6188021

> <chi0_C>
10.52458

> <chi1>
11.630734

> <chi1v>
8.5891542

> <chi1v_C>
4.5980763

> <chi1_C>
5.588335

> <chiral>
4

> <chiral_u>
0

> <density>
0.83580607

> <diameter>
13

> <FCharge>
0

> <GCUT_PEOE_0>
-0.83787316

> <GCUT_PEOE_1>
-0.41189206

> <GCUT_PEOE_2>
0.077028014

> <GCUT_PEOE_3>
2.7184322

> <GCUT_SLOGP_0>
-1.3374593

> <GCUT_SLOGP_1>
-0.38887709

> <GCUT_SLOGP_2>
0.12106962

> <GCUT_SLOGP_3>
2.6746969

> <GCUT_SMR_0>
-0.53670621

> <GCUT_SMR_1>
-0.23358952

> <GCUT_SMR_2>
0.20857169

> <GCUT_SMR_3>
2.9833126

> <Kier1>
19.753086

> <Kier2>
7.197279

> <Kier3>
3.575254

> <KierA1>
16.643322

> <KierA2>
6.0184608

> <KierA3>
2.9727514

> <KierFlex>
4.0066872

> <lip_acc>
8

> <lip_don>
5

> <lip_druglike>
1

> <lip_violation>
0

> <logP(o/w)>
0.43399999

> <logS>
-2.74755

> <mr>
9.1197863

> <mutagenic>
0

> <nmol>
1

> <opr_brigid>
14

> <opr_leadlike>
1

> <opr_nring>
3

> <opr_nrot>
4

> <opr_violation>
0

> <PC+>
0

> <PC->
0

> <PEOE_PC+>
2.8777559

> <PEOE_PC->
-2.8777559

> <PEOE_RPC+>
0.098610349

> <PEOE_RPC->
0.12503922

> <PEOE_VSA+0>
25.592316

> <PEOE_VSA+1>
42.581608

> <PEOE_VSA+2>
31.79793

> <PEOE_VSA+3>
8.6190128

> <PEOE_VSA+4>
33.597878

> <PEOE_VSA+5>
27.65803

> <PEOE_VSA+6>
0.0

> <PEOE_VSA-0>
64.213699

> <PEOE_VSA-1>
24.509808

> <PEOE_VSA-2>
19.760618

> <PEOE_VSA-3>
0.0

> <PEOE_VSA-4>
0.0

> <PEOE_VSA-5>
40.700764

> <PEOE_VSA-6>
22.323092

> <PEOE_VSA_FHYD>
0.63592201

> <PEOE_VSA_FNEG>
0.50243324

> <PEOE_VSA_FPNEG>
0.18462861

> <PEOE_VSA_FPOL>
0.36407802

> <PEOE_VSA_FPOS>
0.49756673

> <PEOE_VSA_FPPOS>
0.17944941

> <PEOE_VSA_HYD>
217.075

> <PEOE_VSA_NEG>
171.50798

> <PEOE_VSA_PNEG>
63.023853

> <PEOE_VSA_POL>
124.27976

> <PEOE_VSA_POS>
169.84677

> <PEOE_VSA_PPOS>
61.255905

> <petitjean>
0.46153846

> <petitjeanSC>
0.85714287

> <Q_PC+>
0

> <Q_PC->
0

> <Q_RPC+>
0

> <Q_RPC->
0

> <Q_VSA_FHYD>
1

> <Q_VSA_FNEG>
0

> <Q_VSA_FPNEG>
0

> <Q_VSA_FPOL>
0

> <Q_VSA_FPOS>
1

> <Q_VSA_FPPOS>
0

> <Q_VSA_HYD>
341.35477

> <Q_VSA_NEG>
0

> <Q_VSA_PNEG>
0

> <Q_VSA_POL>
0

> <Q_VSA_POS>
341.35477

> <Q_VSA_PPOS>
0

> <radius>
7

> <reactive>
0

> <rings>
3

> <RPC+>
0

> <RPC->
0

> <rsynth>
1.0

> <SlogP>
0.1192

> <SlogP_VSA0>
76.293167

> <SlogP_VSA1>
21.387344

> <SlogP_VSA2>
81.897713

> <SlogP_VSA3>
25.385227

> <SlogP_VSA4>
3.185575

> <SlogP_VSA5>
0.0

> <SlogP_VSA6>
0.0

> <SlogP_VSA7>
70.572739

> <SlogP_VSA8>
3.9819686

> <SlogP_VSA9>
104.115

> <SMR>
9.0805702

> <SMR_VSA0>
71.586647

> <SMR_VSA1>
28.509541

> <SMR_VSA2>
43.395977

> <SMR_VSA3>
22.722036

> <SMR_VSA4>
32.897186

> <SMR_VSA5>
70.572739

> <SMR_VSA6>
18.263031

> <SMR_VSA7>
98.871574

> <TPSA>
132.96001

> <VAdjEq>
0.42433795

> <VAdjMa>
5.7548876

> <VDistEq>
3.4556727

> <VDistMa>
8.9810524

> <vdw_area>
341.35477

> <vdw_vol>
437.1947

> <vsa_acc>
27.133842

> <vsa_acid>
0

> <vsa_base>
0

> <vsa_don>
5.6825762

> <vsa_hyd>
181.25282

> <vsa_other>
40.607563

> <vsa_pol>
91.259666

> <Weight>
365.41

> <weinerPath>
1551

> <weinerPol>
41

> <zagreb>
138

$$$$
Row1433
 OpenBabel06061811532D

 83 85  0  0  1  0  0  0  0  0999 V2000
    0.0000    0.0000    0.0000 O   0  0  0  0  0  0  0  0  0  0  0  0
    0.0000    0.0000    0.0000 C   0  0  1  0  0  0  0  0  0  0  0  0
    0.0000    0.0000    0.0000 H   0  0  0  0  0  0  0  0  0  0  0  0
    0.0000    0.0000    0.0000 C   0  0  0  0  0  0  0  0  0  0  0  0
    0.0000    0.0000    0.0000 C   0  0  2  0  0  0  0  0  0  0  0  0
    0.0000    0.0000    0.0000 H   0  0  0  0  0  0  0  0  0  0  0  0
    0.0000    0.0000    0.0000 C   0  0  0  0  0  0  0  0  0  0  0  0
    0.0000    0.0000    0.0000 C   0  0  2  0  0  0  0  0  0  0  0  0
    0.0000    0.0000    0.0000 H   0  0  0  0  0  0  0  0  0  0  0  0
    0.0000    0.0000    0.0000 O   0  0  0  0  0  0  0  0  0  0  0  0
    0.0000    0.0000    0.0000 C   0  0  2  0  0  0  0  0  0  0  0  0
    0.0000    0.0000    0.0000 H   0  0  0  0  0  0  0  0  0  0  0  0
    0.0000    0.0000    0.0000 C   0  0  0  0  0  0  0  0  0  0  0  0
    0.0000    0.0000    0.0000 C   0  0  0  0  0  0  0  0  0  0  0  0
    0.0000    0.0000    0.0000 C   0  0  0  0  0  0  0  0  0  0  0  0
    0.0000    0.0000    0.0000 C   0  0  0  0  0  0  0  0  0  0  0  0
    0.0000    0.0000    0.0000 C   0  0  0  0  0  0  0  0  0  0  0  0
    0.0000    0.0000    0.0000 C   0  0  0  0  0  0  0  0  0  0  0  0
    0.0000    0.0000    0.0000 C   0  0  0  0  0  0  0  0  0  0  0  0
    0.0000    0.0000    0.0000 C   0  0  0  0  0  0  0  0  0  0  0  0
    0.0000    0.0000    0.0000 C   0  0  0  0  0  0  0  0  0  0  0  0
    0.0000    0.0000    0.0000 C   0  0  0  0  0  0  0  0  0  0  0  0
    0.0000    0.0000    0.0000 C   0  0  0  0  0  0  0  0  0  0  0  0
    0.0000    0.0000    0.0000 C   0  0  0  0  0  0  0  0  0  0  0  0
    0.0000    0.0000    0.0000 C   0  0  0  0  0  0  0  0  0  0  0  0
    0.0000    0.0000    0.0000 C   0  0  0  0  0  0  0  0  0  0  0  0
    0.0000    0.0000    0.0000 C   0  0  2  0  0  0  0  0  0  0  0  0
    0.0000    0.0000    0.0000 H   0  0  0  0  0  0  0  0  0  0  0  0
    0.0000    0.0000    0.0000 O   0  0  0  0  0  0  0  0  0  0  0  0
    0.0000    0.0000    0.0000 C   0  0  2  0  0  0  0  0  0  0  0  0
    0.0000    0.0000    0.0000 H   0  0  0  0  0  0  0  0  0  0  0  0
    0.0000    0.0000    0.0000 O   0  0  0  0  0  0  0  0  0  0  0  0
    0.0000    0.0000    0.0000 C   0  0  2  0  0  0  0  0  0  0  0  0
    0.0000    0.0000    0.0000 H   0  0  0  0  0  0  0  0  0  0  0  0
    0.0000    0.0000    0.0000 C   0  0  0  0  0  0  0  0  0  0  0  0
    0.0000    0.0000    0.0000 C   0  0  1  0  0  0  0  0  0  0  0  0
    0.0000    0.0000    0.0000 H   0  0  0  0  0  0  0  0  0  0  0  0
    0.0000    0.0000    0.0000 O   0  0  0  0  0  0  0  0  0  0  0  0
    0.0000    0.0000    0.0000 C   0  0  2  0  0  0  0  0  0  0  0  0
    0.0000    0.0000    0.0000 H   0  0  0  0  0  0  0  0  0  0  0  0
    0.0000    0.0000    0.0000 N   0  0  0  0  0  0  0  0  0  0  0  0
    0.0000    0.0000    0.0000 C   0  0  2  0  0  0  0  0  0  0  0  0
    0.0000    0.0000    0.0000 H   0  0  0  0  0  0  0  0  0  0  0  0
    0.0000    0.0000    0.0000 O   0  0  0  0  0  0  0  0  0  0  0  0
    0.0000    0.0000    0.0000 C   0  0  0  0  0  0  0  0  0  0  0  0
    0.0000    0.0000    0.0000 C   0  0  2  0  0  0  0  0  0  0  0  0
    0.0000    0.0000    0.0000 H   0  0  0  0  0  0  0  0  0  0  0  0
    0.0000    0.0000    0.0000 O   0  0  0  0  0  0  0  0  0  0  0  0
    0.0000    0.0000    0.0000 C   0  0  1  0  0  0  0  0  0  0  0  0
    0.0000    0.0000    0.0000 O   0  0  0  0  0  0  0  0  0  0  0  0
    0.0000    0.0000    0.0000 C   0  0  0  0  0  0  0  0  0  0  0  0
    0.0000    0.0000    0.0000 C   0  0  2  0  0  0  0  0  0  0  0  0
    0.0000    0.0000    0.0000 H   0  0  0  0  0  0  0  0  0  0  0  0
    0.0000    0.0000    0.0000 O   0  0  0  0  0  0  0  0  0  0  0  0
    0.0000    0.0000    0.0000 C   0  0  1  0  0  0  0  0  0  0  0  0
    0.0000    0.0000    0.0000 H   0  0  0  0  0  0  0  0  0  0  0  0
    0.0000    0.0000    0.0000 C   0  0  0  0  0  0  0  0  0  0  0  0
    0.0000    0.0000    0.0000 O   0  0  0  0  0  0  0  0  0  0  0  0
    0.0000    0.0000    0.0000 O   0  0  0  0  0  0  0  0  0  0  0  0
    0.0000    0.0000    0.0000 C   0  0  0  0  0  0  0  0  0  0  0  0
    0.0000    0.0000    0.0000 C   0  0  1  0  0  0  0  0  0  0  0  0
    0.0000    0.0000    0.0000 H   0  0  0  0  0  0  0  0  0  0  0  0
    0.0000    0.0000    0.0000 O   0  0  0  0  0  0  0  0  0  0  0  0
    0.0000    0.0000    0.0000 C   0  0  0  0  0  0  0  0  0  0  0  0
    0.0000    0.0000    0.0000 C   0  0  1  0  0  0  0  0  0  0  0  0
    0.0000    0.0000    0.0000 H   0  0  0  0  0  0  0  0  0  0  0  0
    0.0000    0.0000    0.0000 O   0  0  0  0  0  0  0  0  0  0  0  0
    0.0000    0.0000    0.0000 C   0  0  2  0  0  0  0  0  0  0  0  0
    0.0000    0.0000    0.0000 H   0  0  0  0  0  0  0  0  0  0  0  0
    0.0000    0.0000    0.0000 O   0  0  0  0  0  0  0  0  0  0  0  0
    0.0000    0.0000    0.0000 C   0  0  0  0  0  0  0  0  0  0  0  0
    0.0000    0.0000    0.0000 C   0  0  0  0  0  0  0  0  0  0  0  0
    0.0000    0.0000    0.0000 C   0  0  1  0  0  0  0  0  0  0  0  0
    0.0000    0.0000    0.0000 H   0  0  0  0  0  0  0  0  0  0  0  0
    0.0000    0.0000    0.0000 O   0  0  0  0  0  0  0  0  0  0  0  0
    0.0000    0.0000    0.0000 C   0  0  0  0  0  0  0  0  0  0  0  0
    0.0000    0.0000    0.0000 C   0  0  1  0  0  0  0  0  0  0  0  0
    0.0000    0.0000    0.0000 H   0  0  0  0  0  0  0  0  0  0  0  0
    0.0000    0.0000    0.0000 O   0  0  0  0  0  0  0  0  0  0  0  0
    0.0000    0.0000    0.0000 C   0  0  0  0  0  0  0  0  0  0  0  0
    0.0000    0.0000    0.0000 C   0  0  0  0  0  0  0  0  0  0  0  0
    0.0000    0.0000    0.0000 O   0  0  0  0  0  0  0  0  0  0  0  0
    0.0000    0.0000    0.0000 C   0  0  0  0  0  0  0  0  0  0  0  0
  1 81  1  0  0  0  0
  1  2  1  0  0  0  0
  2  3  1  0  0  0  0
  2  4  1  0  0  0  0
  2  5  1  0  0  0  0
  5  6  1  0  0  0  0
  5  7  1  0  0  0  0
  5  8  1  0  0  0  0
  8  9  1  0  0  0  0
  8 10  1  0  0  0  0
  8 11  1  0  0  0  0
 11 12  1  0  0  0  0
 11 13  1  0  0  0  0
 11 83  1  0  0  0  0
 13 14  2  3  0  0  0
 14 15  1  0  0  0  0
 15 16  2  3  0  0  0
 16 17  1  0  0  0  0
 17 18  2  3  0  0  0
 18 19  1  0  0  0  0
 19 20  2  3  0  0  0
 20 21  1  0  0  0  0
 21 22  2  3  0  0  0
 22 23  1  0  0  0  0
 23 24  2  3  0  0  0
 24 25  1  0  0  0  0
 25 26  2  3  0  0  0
 26 27  1  0  0  0  0
 27 28  1  0  0  0  0
 27 29  1  0  0  0  0
 27 45  1  0  0  0  0
 29 30  1  0  0  0  0
 30 31  1  0  0  0  0
 30 42  1  0  0  0  0
 30 32  1  0  0  0  0
 32 33  1  0  0  0  0
 33 34  1  0  0  0  0
 33 35  1  0  0  0  0
 33 36  1  0  0  0  0
 36 37  1  0  0  0  0
 36 38  1  0  0  0  0
 36 39  1  0  0  0  0
 39 40  1  0  0  0  0
 39 41  1  0  0  0  0
 39 42  1  0  0  0  0
 42 43  1  0  0  0  0
 42 44  1  0  0  0  0
 45 46  1  0  0  0  0
 46 47  1  0  0  0  0
 46 55  1  0  0  0  0
 46 48  1  0  0  0  0
 48 49  1  0  0  0  0
 49 50  1  0  0  0  0
 49 51  1  0  0  0  0
 49 60  1  0  0  0  0
 51 52  1  0  0  0  0
 52 53  1  0  0  0  0
 52 54  1  0  0  0  0
 52 55  1  0  0  0  0
 55 56  1  0  0  0  0
 55 57  1  0  0  0  0
 57 58  1  0  0  0  0
 57 59  2  0  0  0  0
 60 61  1  0  0  0  0
 61 62  1  0  0  0  0
 61 63  1  0  0  0  0
 61 64  1  0  0  0  0
 64 65  1  0  0  0  0
 65 66  1  0  0  0  0
 65 67  1  0  0  0  0
 65 68  1  0  0  0  0
 68 69  1  0  0  0  0
 68 70  1  0  0  0  0
 68 71  1  0  0  0  0
 71 72  1  0  0  0  0
 72 73  1  0  0  0  0
 73 74  1  0  0  0  0
 73 75  1  0  0  0  0
 73 76  1  0  0  0  0
 76 77  1  0  0  0  0
 77 78  1  0  0  0  0
 77 79  1  0  0  0  0
 77 80  1  0  0  0  0
 80 81  1  0  0  0  0
 81 82  2  0  0  0  0
M  END
> <Index>
1434

> <ID>
HT0152

> <class>
1

> <apol>
146.12988

> <ast_fraglike>
0

> <ast_fraglike_ext>
0

> <ast_violation>
3

> <ast_violation_ext>
5

> <a_acc>
17

> <a_acid>
0

> <a_aro>
0

> <a_base>
0

> <a_count>
138

> <a_don>
13

> <a_donacc>
30

> <a_heavy>
65

> <a_hyd>
43

> <a_IC>
198.56664

> <a_ICM>
1.4388887

> <a_nB>
0

> <a_nBr>
0

> <a_nC>
47

> <a_nCl>
0

> <a_nF>
0

> <a_nH>
73

> <a_nI>
0

> <a_nN>
1

> <a_nO>
17

> <a_nP>
0

> <a_nS>
0

> <balabanJ>
1.7104591

> <BCUT_PEOE_0>
-2.7829115

> <BCUT_PEOE_1>
-0.53821701

> <BCUT_PEOE_2>
0.61682785

> <BCUT_PEOE_3>
2.8334618

> <BCUT_SLOGP_0>
-2.9567969

> <BCUT_SLOGP_1>
-0.56391329

> <BCUT_SLOGP_2>
0.60076272

> <BCUT_SLOGP_3>
2.7534568

> <BCUT_SMR_0>
-2.572612

> <BCUT_SMR_1>
-0.41134253

> <BCUT_SMR_2>
0.70382398

> <BCUT_SMR_3>
3.0326126

> <bpol>
88.724113

> <b_1rotN>
3

> <b_1rotR>
0.044776119

> <b_ar>
0

> <b_count>
140

> <b_double>
9

> <b_heavy>
67

> <b_max1len>
4

> <b_rotN>
3

> <b_rotR>
0.044776119

> <b_single>
131

> <b_triple>
0

> <chi0>
48.431782

> <chi0v>
37.578251

> <chi0v_C>
29.632063

> <chi0_C>
31.603355

> <chi1>
30.615496

> <chi1v>
22.317848

> <chi1v_C>
16.982801

> <chi1_C>
19.398651

> <chiral>
19

> <chiral_u>
0

> <density>
0.74977797

> <diameter>
25

> <FCharge>
0

> <GCUT_PEOE_0>
-0.82156199

> <GCUT_PEOE_1>
-0.37496397

> <GCUT_PEOE_2>
0.10052017

> <GCUT_PEOE_3>
3.2342653

> <GCUT_SLOGP_0>
-1.3638116

> <GCUT_SLOGP_1>
-0.36706343

> <GCUT_SLOGP_2>
0.11430997

> <GCUT_SLOGP_3>
3.2051303

> <GCUT_SMR_0>
-0.53447831

> <GCUT_SMR_1>
-0.22951142

> <GCUT_SMR_2>
0.17325909

> <GCUT_SMR_3>
3.4370265

> <Kier1>
59.309422

> <Kier2>
30.011343

> <Kier3>
20.706675

> <KierA1>
52.864647

> <KierA2>
26.700695

> <KierA3>
18.398724

> <KierFlex>
21.715734

> <lip_acc>
18

> <lip_don>
13

> <lip_druglike>
0

> <lip_violation>
3

> <logP(o/w)>
2.674

> <logS>
-4.2048202

> <mr>
23.743616

> <mutagenic>
0

> <nmol>
1

> <opr_brigid>
46

> <opr_leadlike>
0

> <opr_nring>
2

> <opr_nrot>
31

> <opr_violation>
4

> <PC+>
0

> <PC->
0

> <PEOE_PC+>
7.5112119

> <PEOE_PC->
-7.5112119

> <PEOE_RPC+>
0.035640083

> <PEOE_RPC->
0.052148607

> <PEOE_VSA+0>
167.03223

> <PEOE_VSA+1>
194.40262

> <PEOE_VSA+2>
22.142954

> <PEOE_VSA+3>
12.263453

> <PEOE_VSA+4>
113.5659

> <PEOE_VSA+5>
29.416998

> <PEOE_VSA+6>
0.0

> <PEOE_VSA-0>
63.599297

> <PEOE_VSA-1>
209.06401

> <PEOE_VSA-2>
0.0

> <PEOE_VSA-3>
0.0

> <PEOE_VSA-4>
0.0

> <PEOE_VSA-5>
27.133842

> <PEOE_VSA-6>
102.10909

> <PEOE_VSA_FHYD>
0.71062291

> <PEOE_VSA_FNEG>
0.42722788

> <PEOE_VSA_FPNEG>
0.13738573

> <PEOE_VSA_FPOL>
0.28937709

> <PEOE_VSA_FPOS>
0.57277215

> <PEOE_VSA_FPPOS>
0.15199137

> <PEOE_VSA_HYD>
668.50452

> <PEOE_VSA_NEG>
401.90622

> <PEOE_VSA_PNEG>
129.24294

> <PEOE_VSA_POL>
272.22583

> <PEOE_VSA_POS>
538.82416

> <PEOE_VSA_PPOS>
142.98289

> <petitjean>
0.28

> <petitjeanSC>
0.3888889

> <Q_PC+>
0

> <Q_PC->
0

> <Q_RPC+>
0

> <Q_RPC->
0

> <Q_VSA_FHYD>
1

> <Q_VSA_FNEG>
0

> <Q_VSA_FPNEG>
0

> <Q_VSA_FPOL>
0

> <Q_VSA_FPOS>
1

> <Q_VSA_FPPOS>
0

> <Q_VSA_HYD>
940.73035

> <Q_VSA_NEG>
0

> <Q_VSA_PNEG>
0

> <Q_VSA_POL>
0

> <Q_VSA_POS>
940.73035

> <Q_VSA_PPOS>
0

> <radius>
18

> <reactive>
1

> <rings>
3

> <RPC+>
0

> <RPC->
0

> <rsynth>
0.44615385

> <SlogP>
0.71170002

> <SlogP_VSA0>
286.74945

> <SlogP_VSA1>
15.490929

> <SlogP_VSA2>
188.32489

> <SlogP_VSA3>
25.385227

> <SlogP_VSA4>
13.232388

> <SlogP_VSA5>
0.0

> <SlogP_VSA6>
0.0

> <SlogP_VSA7>
247.00458

> <SlogP_VSA8>
150.94725

> <SlogP_VSA9>
133.30406

> <SMR>
23.69912

> <SMR_VSA0>
91.723984

> <SMR_VSA1>
253.85226

> <SMR_VSA2>
38.617615

> <SMR_VSA3>
96.600914

> <SMR_VSA4>
32.897186

> <SMR_VSA5>
397.95181

> <SMR_VSA6>
15.490929

> <SMR_VSA7>
133.30406

> <TPSA>
319.60999

> <VAdjEq>
0.20292571

> <VAdjMa>
7.0660892

> <VDistEq>
4.4280367

> <VDistMa>
11.796713

> <vdw_area>
940.73035

> <vdw_vol>
1232.4862

> <vsa_acc>
21.07819

> <vsa_acid>
0

> <vsa_base>
0

> <vsa_don>
0.0

> <vsa_hyd>
588.7066

> <vsa_other>
47.737797

> <vsa_pol>
201.62373

> <Weight>
924.091

> <weinerPath>
22044

> <weinerPol>
103

> <zagreb>
318

$$$$
Row1434
 OpenBabel06061811532D

 28 30  0  0  1  0  0  0  0  0999 V2000
    0.0000    0.0000    0.0000 S   0  0  0  0  0  0  0  0  0  0  0  0
    0.0000    0.0000    0.0000 C   0  0  1  0  0  0  0  0  0  0  0  0
    0.0000    0.0000    0.0000 H   0  0  0  0  0  0  0  0  0  0  0  0
    0.0000    0.0000    0.0000 N   0  0  0  0  0  0  0  0  0  0  0  0
    0.0000    0.0000    0.0000 C   0  0  1  0  0  0  0  0  0  0  0  0
    0.0000    0.0000    0.0000 H   0  0  0  0  0  0  0  0  0  0  0  0
    0.0000    0.0000    0.0000 C   0  0  0  0  0  0  0  0  0  0  0  0
    0.0000    0.0000    0.0000 O   0  0  0  0  0  0  0  0  0  0  0  0
    0.0000    0.0000    0.0000 O   0  0  0  0  0  0  0  0  0  0  0  0
    0.0000    0.0000    0.0000 C   0  0  0  0  0  0  0  0  0  0  0  0
    0.0000    0.0000    0.0000 C   0  0  0  0  0  0  0  0  0  0  0  0
    0.0000    0.0000    0.0000 C   0  0  0  0  0  0  0  0  0  0  0  0
    0.0000    0.0000    0.0000 C   0  0  0  0  0  0  0  0  0  0  0  0
    0.0000    0.0000    0.0000 O   0  0  0  0  0  0  0  0  0  0  0  0
    0.0000    0.0000    0.0000 C   0  0  1  0  0  0  0  0  0  0  0  0
    0.0000    0.0000    0.0000 H   0  0  0  0  0  0  0  0  0  0  0  0
    0.0000    0.0000    0.0000 N   0  0  0  0  0  0  0  0  0  0  0  0
    0.0000    0.0000    0.0000 C   0  0  0  0  0  0  0  0  0  0  0  0
    0.0000    0.0000    0.0000 O   0  0  0  0  0  0  0  0  0  0  0  0
    0.0000    0.0000    0.0000 C   0  0  2  0  0  0  0  0  0  0  0  0
    0.0000    0.0000    0.0000 H   0  0  0  0  0  0  0  0  0  0  0  0
    0.0000    0.0000    0.0000 N   0  0  0  0  0  0  0  0  0  0  0  0
    0.0000    0.0000    0.0000 C   0  0  0  0  0  0  0  0  0  0  0  0
    0.0000    0.0000    0.0000 C   0  0  0  0  0  0  0  0  0  0  0  0
    0.0000    0.0000    0.0000 C   0  0  0  0  0  0  0  0  0  0  0  0
    0.0000    0.0000    0.0000 C   0  0  0  0  0  0  0  0  0  0  0  0
    0.0000    0.0000    0.0000 C   0  0  0  0  0  0  0  0  0  0  0  0
    0.0000    0.0000    0.0000 C   0  0  0  0  0  0  0  0  0  0  0  0
  1 10  1  0  0  0  0
  1  2  1  0  0  0  0
  2  3  1  0  0  0  0
  2 15  1  0  0  0  0
  2  4  1  0  0  0  0
  4  5  1  0  0  0  0
  4 13  1  0  0  0  0
  5  6  1  0  0  0  0
  5  7  1  0  0  0  0
  5 10  1  0  0  0  0
  7  8  1  0  0  0  0
  7  9  2  0  0  0  0
 10 11  1  0  0  0  0
 10 12  1  0  0  0  0
 13 14  2  0  0  0  0
 13 15  1  0  0  0  0
 15 16  1  0  0  0  0
 15 17  1  0  0  0  0
 17 18  1  0  0  0  0
 18 19  2  0  0  0  0
 18 20  1  0  0  0  0
 20 21  1  0  0  0  0
 20 22  1  0  0  0  0
 20 23  1  0  0  0  0
 23 28  1  0  0  0  0
 23 24  2  0  0  0  0
 24 25  1  0  0  0  0
 25 26  2  0  0  0  0
 26 27  1  0  0  0  0
 27 28  2  0  0  0  0
M  END
> <Index>
1435

> <ID>
HT0153

> <class>
1

> <apol>
50.237068

> <ast_fraglike>
0

> <ast_fraglike_ext>
0

> <ast_violation>
3

> <ast_violation_ext>
5

> <a_acc>
5

> <a_acid>
0

> <a_aro>
6

> <a_base>
0

> <a_count>
43

> <a_don>
4

> <a_donacc>
9

> <a_heavy>
24

> <a_hyd>
14

> <a_IC>
75.863876

> <a_ICM>
1.7642761

> <a_nB>
0

> <a_nBr>
0

> <a_nC>
16

> <a_nCl>
0

> <a_nF>
0

> <a_nH>
19

> <a_nI>
0

> <a_nN>
3

> <a_nO>
4

> <a_nP>
0

> <a_nS>
1

> <balabanJ>
1.6102319

> <BCUT_PEOE_0>
-2.6470807

> <BCUT_PEOE_1>
-0.54784775

> <BCUT_PEOE_2>
0.57525408

> <BCUT_PEOE_3>
2.8502812

> <BCUT_SLOGP_0>
-2.9028728

> <BCUT_SLOGP_1>
-0.52071583

> <BCUT_SLOGP_2>
0.61211538

> <BCUT_SLOGP_3>
2.7545767

> <BCUT_SMR_0>
-2.3916967

> <BCUT_SMR_1>
-0.38592258

> <BCUT_SMR_2>
0.78138417

> <BCUT_SMR_3>
3.1312518

> <bpol>
27.904934

> <b_1rotN>
4

> <b_1rotR>
0.15384616

> <b_ar>
6

> <b_count>
45

> <b_double>
3

> <b_heavy>
26

> <b_max1len>
4

> <b_rotN>
5

> <b_rotR>
0.1923077

> <b_single>
36

> <b_triple>
0

> <chi0>
17.645901

> <chi0v>
14.117419

> <chi0v_C>
9.6961527

> <chi0_C>
10.654336

> <chi1>
11.236888

> <chi1v>
8.4548645

> <chi1v_C>
4.6873927

> <chi1_C>
5.7718382

> <chiral>
4

> <chiral_u>
0

> <density>
0.81510007

> <diameter>
12

> <FCharge>
0

> <GCUT_PEOE_0>
-0.8378787

> <GCUT_PEOE_1>
-0.39713991

> <GCUT_PEOE_2>
0.066387057

> <GCUT_PEOE_3>
2.7133555

> <GCUT_SLOGP_0>
-1.3374565

> <GCUT_SLOGP_1>
-0.34196746

> <GCUT_SLOGP_2>
0.1380565

> <GCUT_SLOGP_3>
2.664741

> <GCUT_SMR_0>
-0.53670627

> <GCUT_SMR_1>
-0.21605732

> <GCUT_SMR_2>
0.19305076

> <GCUT_SMR_3>
2.9787538

> <Kier1>
18.781065

> <Kier2>
6.9575

> <Kier3>
3.3599999

> <KierA1>
15.704977

> <KierA2>
5.7700295

> <KierA3>
2.7699842

> <KierFlex>
3.7757576

> <lip_acc>
7

> <lip_don>
4

> <lip_druglike>
1

> <lip_violation>
0

> <logP(o/w)>
0.74199998

> <logS>
-3.1094999

> <mr>
8.9930696

> <mutagenic>
0

> <nmol>
1

> <opr_brigid>
14

> <opr_leadlike>
1

> <opr_nring>
3

> <opr_nrot>
4

> <opr_violation>
0

> <PC+>
0

> <PC->
0

> <PEOE_PC+>
2.6443181

> <PEOE_PC->
-2.6443181

> <PEOE_RPC+>
0.10731558

> <PEOE_RPC->
0.12880948

> <PEOE_VSA+0>
25.592316

> <PEOE_VSA+1>
38.388474

> <PEOE_VSA+2>
31.79793

> <PEOE_VSA+3>
8.6190128

> <PEOE_VSA+4>
23.273705

> <PEOE_VSA+5>
27.65803

> <PEOE_VSA+6>
0.0

> <PEOE_VSA-0>
39.703896

> <PEOE_VSA-1>
61.274521

> <PEOE_VSA-2>
19.760618

> <PEOE_VSA-3>
0.0

> <PEOE_VSA-4>
0.0

> <PEOE_VSA-5>
40.700764

> <PEOE_VSA-6>
14.555551

> <PEOE_VSA_FHYD>
0.67950469

> <PEOE_VSA_FNEG>
0.53118676

> <PEOE_VSA_FPNEG>
0.16677384

> <PEOE_VSA_FPOL>
0.32049531

> <PEOE_VSA_FPOS>
0.46881327

> <PEOE_VSA_FPPOS>
0.15372147

> <PEOE_VSA_HYD>
225.13676

> <PEOE_VSA_NEG>
175.99535

> <PEOE_VSA_PNEG>
55.256313

> <PEOE_VSA_POL>
106.18805

> <PEOE_VSA_POS>
155.32947

> <PEOE_VSA_PPOS>
50.931732

> <petitjean>
0.5

> <petitjeanSC>
1.0

> <Q_PC+>
0

> <Q_PC->
0

> <Q_RPC+>
0

> <Q_RPC->
0

> <Q_VSA_FHYD>
1

> <Q_VSA_FNEG>
0

> <Q_VSA_FPNEG>
0

> <Q_VSA_FPOL>
0

> <Q_VSA_FPOS>
1

> <Q_VSA_FPPOS>
0

> <Q_VSA_HYD>
331.3248

> <Q_VSA_NEG>
0

> <Q_VSA_PNEG>
0

> <Q_VSA_POL>
0

> <Q_VSA_POS>
331.3248

> <Q_VSA_PPOS>
0

> <radius>
6

> <reactive>
0

> <rings>
3

> <RPC+>
0

> <RPC->
0

> <rsynth>
1.0

> <SlogP>
0.4136

> <SlogP_VSA0>
50.90794

> <SlogP_VSA1>
21.387344

> <SlogP_VSA2>
81.897713

> <SlogP_VSA3>
25.385227

> <SlogP_VSA4>
3.185575

> <SlogP_VSA5>
0.0

> <SlogP_VSA6>
0.0

> <SlogP_VSA7>
88.215919

> <SlogP_VSA8>
3.9819686

> <SlogP_VSA9>
98.871574

> <SMR>
8.9140902

> <SMR_VSA0>
71.586647

> <SMR_VSA1>
3.1243138

> <SMR_VSA2>
43.395977

> <SMR_VSA3>
17.478609

> <SMR_VSA4>
32.897186

> <SMR_VSA5>
88.215919

> <SMR_VSA6>
18.263031

> <SMR_VSA7>
98.871574

> <TPSA>
112.73

> <VAdjEq>
0.43739632

> <VAdjMa>
5.7004399

> <VDistEq>
3.3678892

> <VDistMa>
8.8689899

> <vdw_area>
331.3248

> <vdw_vol>
428.67249

> <vsa_acc>
27.133842

> <vsa_acid>
0

> <vsa_base>
0

> <vsa_don>
5.6825762

> <vsa_hyd>
188.6028

> <vsa_other>
40.607563

> <vsa_pol>
77.692749

> <Weight>
349.41098

> <weinerPath>
1365

> <weinerPol>
39

> <zagreb>
132

$$$$
Row1435
 OpenBabel06061811532D

 91 97  0  0  1  0  0  0  0  0999 V2000
    0.0000    0.0000    0.0000 O   0  0  0  0  0  0  0  0  0  0  0  0
    0.0000    0.0000    0.0000 C   0  0  0  0  0  0  0  0  0  0  0  0
    0.0000    0.0000    0.0000 C   0  0  0  0  0  0  0  0  0  0  0  0
    0.0000    0.0000    0.0000 C   0  0  0  0  0  0  0  0  0  0  0  0
    0.0000    0.0000    0.0000 C   0  0  0  0  0  0  0  0  0  0  0  0
    0.0000    0.0000    0.0000 C   0  0  0  0  0  0  0  0  0  0  0  0
    0.0000    0.0000    0.0000 C   0  0  0  0  0  0  0  0  0  0  0  0
    0.0000    0.0000    0.0000 C   0  0  0  0  0  0  0  0  0  0  0  0
    0.0000    0.0000    0.0000 C   0  0  0  0  0  0  0  0  0  0  0  0
    0.0000    0.0000    0.0000 C   0  0  0  0  0  0  0  0  0  0  0  0
    0.0000    0.0000    0.0000 C   0  0  0  0  0  0  0  0  0  0  0  0
    0.0000    0.0000    0.0000 C   0  0  0  0  0  0  0  0  0  0  0  0
    0.0000    0.0000    0.0000 C   0  0  0  0  0  0  0  0  0  0  0  0
    0.0000    0.0000    0.0000 C   0  0  0  0  0  0  0  0  0  0  0  0
    0.0000    0.0000    0.0000 C   0  0  0  0  0  0  0  0  0  0  0  0
    0.0000    0.0000    0.0000 C   0  0  0  0  0  0  0  0  0  0  0  0
    0.0000    0.0000    0.0000 C   0  0  0  0  0  0  0  0  0  0  0  0
    0.0000    0.0000    0.0000 C   0  0  0  0  0  0  0  0  0  0  0  0
    0.0000    0.0000    0.0000 C   0  0  0  0  0  0  0  0  0  0  0  0
    0.0000    0.0000    0.0000 C   0  0  0  0  0  0  0  0  0  0  0  0
    0.0000    0.0000    0.0000 C   0  0  0  0  0  0  0  0  0  0  0  0
    0.0000    0.0000    0.0000 C   0  0  0  0  0  0  0  0  0  0  0  0
    0.0000    0.0000    0.0000 C   0  0  0  0  0  0  0  0  0  0  0  0
    0.0000    0.0000    0.0000 C   0  0  0  0  0  0  0  0  0  0  0  0
    0.0000    0.0000    0.0000 C   0  0  0  0  0  0  0  0  0  0  0  0
    0.0000    0.0000    0.0000 O   0  0  0  0  0  0  0  0  0  0  0  0
    0.0000    0.0000    0.0000 N   0  0  0  0  0  0  0  0  0  0  0  0
    0.0000    0.0000    0.0000 C   0  0  3  0  0  0  0  0  0  0  0  0
    0.0000    0.0000    0.0000 C   0  0  0  0  0  0  0  0  0  0  0  0
    0.0000    0.0000    0.0000 C   0  0  1  0  0  0  0  0  0  0  0  0
    0.0000    0.0000    0.0000 H   0  0  0  0  0  0  0  0  0  0  0  0
    0.0000    0.0000    0.0000 O   0  0  0  0  0  0  0  0  0  0  0  0
    0.0000    0.0000    0.0000 C   0  0  1  0  0  0  0  0  0  0  0  0
    0.0000    0.0000    0.0000 H   0  0  0  0  0  0  0  0  0  0  0  0
    0.0000    0.0000    0.0000 O   0  0  0  0  0  0  0  0  0  0  0  0
    0.0000    0.0000    0.0000 N   0  0  0  0  0  0  0  0  0  0  0  0
    0.0000    0.0000    0.0000 C   0  0  0  0  0  0  0  0  0  0  0  0
    0.0000    0.0000    0.0000 O   0  0  0  0  0  0  0  0  0  0  0  0
    0.0000    0.0000    0.0000 C   0  0  3  0  0  0  0  0  0  0  0  0
    0.0000    0.0000    0.0000 N   0  0  0  0  0  0  0  0  0  0  0  0
    0.0000    0.0000    0.0000 C   0  0  0  0  0  0  0  0  0  0  0  0
    0.0000    0.0000    0.0000 C   0  0  2  0  0  0  0  0  0  0  0  0
    0.0000    0.0000    0.0000 H   0  0  0  0  0  0  0  0  0  0  0  0
    0.0000    0.0000    0.0000 C   0  0  0  0  0  0  0  0  0  0  0  0
    0.0000    0.0000    0.0000 C   0  0  2  0  0  0  0  0  0  0  0  0
    0.0000    0.0000    0.0000 H   0  0  0  0  0  0  0  0  0  0  0  0
    0.0000    0.0000    0.0000 O   0  0  0  0  0  0  0  0  0  0  0  0
    0.0000    0.0000    0.0000 C   0  0  0  0  0  0  0  0  0  0  0  0
    0.0000    0.0000    0.0000 O   0  0  0  0  0  0  0  0  0  0  0  0
    0.0000    0.0000    0.0000 C   0  0  3  0  0  0  0  0  0  0  0  0
    0.0000    0.0000    0.0000 N   0  0  0  0  0  0  0  0  0  0  0  0
    0.0000    0.0000    0.0000 C   0  0  0  0  0  0  0  0  0  0  0  0
    0.0000    0.0000    0.0000 O   0  0  0  0  0  0  0  0  0  0  0  0
    0.0000    0.0000    0.0000 C   0  0  3  0  0  0  0  0  0  0  0  0
    0.0000    0.0000    0.0000 N   0  0  0  0  0  0  0  0  0  0  0  0
    0.0000    0.0000    0.0000 C   0  0  0  0  0  0  0  0  0  0  0  0
    0.0000    0.0000    0.0000 O   0  0  0  0  0  0  0  0  0  0  0  0
    0.0000    0.0000    0.0000 C   0  0  3  0  0  0  0  0  0  0  0  0
    0.0000    0.0000    0.0000 N   0  0  0  0  0  0  0  0  0  0  0  0
    0.0000    0.0000    0.0000 C   0  0  0  0  0  0  0  0  0  0  0  0
    0.0000    0.0000    0.0000 C   0  0  2  0  0  0  0  0  0  0  0  0
    0.0000    0.0000    0.0000 H   0  0  0  0  0  0  0  0  0  0  0  0
    0.0000    0.0000    0.0000 O   0  0  0  0  0  0  0  0  0  0  0  0
    0.0000    0.0000    0.0000 C   0  0  0  0  0  0  0  0  0  0  0  0
    0.0000    0.0000    0.0000 C   0  0  0  0  0  0  0  0  0  0  0  0
    0.0000    0.0000    0.0000 O   0  0  0  0  0  0  0  0  0  0  0  0
    0.0000    0.0000    0.0000 C   0  0  3  0  0  0  0  0  0  0  0  0
    0.0000    0.0000    0.0000 N   0  0  0  0  0  0  0  0  0  0  0  0
    0.0000    0.0000    0.0000 C   0  0  0  0  0  0  0  0  0  0  0  0
    0.0000    0.0000    0.0000 O   0  0  0  0  0  0  0  0  0  0  0  0
    0.0000    0.0000    0.0000 C   0  0  2  0  0  0  0  0  0  0  0  0
    0.0000    0.0000    0.0000 H   0  0  0  0  0  0  0  0  0  0  0  0
    0.0000    0.0000    0.0000 O   0  0  0  0  0  0  0  0  0  0  0  0
    0.0000    0.0000    0.0000 C   0  0  0  0  0  0  0  0  0  0  0  0
    0.0000    0.0000    0.0000 C   0  0  2  0  0  0  0  0  0  0  0  0
    0.0000    0.0000    0.0000 H   0  0  0  0  0  0  0  0  0  0  0  0
    0.0000    0.0000    0.0000 O   0  0  0  0  0  0  0  0  0  0  0  0
    0.0000    0.0000    0.0000 C   0  0  1  0  0  0  0  0  0  0  0  0
    0.0000    0.0000    0.0000 H   0  0  0  0  0  0  0  0  0  0  0  0
    0.0000    0.0000    0.0000 O   0  0  0  0  0  0  0  0  0  0  0  0
    0.0000    0.0000    0.0000 C   0  0  0  0  0  0  0  0  0  0  0  0
    0.0000    0.0000    0.0000 C   0  0  0  0  0  0  0  0  0  0  0  0
    0.0000    0.0000    0.0000 C   0  0  0  0  0  0  0  0  0  0  0  0
    0.0000    0.0000    0.0000 C   0  0  0  0  0  0  0  0  0  0  0  0
    0.0000    0.0000    0.0000 O   0  0  0  0  0  0  0  0  0  0  0  0
    0.0000    0.0000    0.0000 C   0  0  0  0  0  0  0  0  0  0  0  0
    0.0000    0.0000    0.0000 C   0  0  0  0  0  0  0  0  0  0  0  0
    0.0000    0.0000    0.0000 C   0  0  2  0  0  0  0  0  0  0  0  0
    0.0000    0.0000    0.0000 H   0  0  0  0  0  0  0  0  0  0  0  0
    0.0000    0.0000    0.0000 O   0  0  0  0  0  0  0  0  0  0  0  0
    0.0000    0.0000    0.0000 C   0  0  0  0  0  0  0  0  0  0  0  0
  1  2  1  0  0  0  0
  1  7  1  0  0  0  0
  2  3  1  0  0  0  0
  3  4  1  0  0  0  0
  4  5  1  0  0  0  0
  5  6  1  0  0  0  0
  7 12  1  0  0  0  0
  7  8  2  0  0  0  0
  8  9  1  0  0  0  0
  9 10  2  0  0  0  0
 10 11  1  0  0  0  0
 10 13  1  0  0  0  0
 11 12  2  0  0  0  0
 13 18  1  0  0  0  0
 13 14  2  0  0  0  0
 14 15  1  0  0  0  0
 15 16  2  0  0  0  0
 16 17  1  0  0  0  0
 16 19  1  0  0  0  0
 17 18  2  0  0  0  0
 19 24  1  0  0  0  0
 19 20  2  0  0  0  0
 20 21  1  0  0  0  0
 21 22  2  0  0  0  0
 22 23  1  0  0  0  0
 22 25  1  0  0  0  0
 23 24  2  0  0  0  0
 25 26  2  0  0  0  0
 25 27  1  0  0  0  0
 27 28  1  0  0  0  0
 28 69  1  0  0  0  0
 28 29  1  0  0  0  0
 29 30  1  0  0  0  0
 30 31  1  0  0  0  0
 30 32  1  0  0  0  0
 30 33  1  0  0  0  0
 33 34  1  0  0  0  0
 33 35  1  0  0  0  0
 33 36  1  0  0  0  0
 36 37  1  0  0  0  0
 37 38  2  0  0  0  0
 37 39  1  0  0  0  0
 39 45  1  0  0  0  0
 39 40  1  0  0  0  0
 40 41  1  0  0  0  0
 40 48  1  0  0  0  0
 41 42  1  0  0  0  0
 42 43  1  0  0  0  0
 42 44  1  0  0  0  0
 42 45  1  0  0  0  0
 45 46  1  0  0  0  0
 45 47  1  0  0  0  0
 48 49  2  0  0  0  0
 48 50  1  0  0  0  0
 50 51  1  0  0  0  0
 50 88  1  0  0  0  0
 51 52  1  0  0  0  0
 52 53  2  0  0  0  0
 52 54  1  0  0  0  0
 54 55  1  0  0  0  0
 54 75  1  0  0  0  0
 55 56  1  0  0  0  0
 56 57  2  0  0  0  0
 56 58  1  0  0  0  0
 58 64  1  0  0  0  0
 58 59  1  0  0  0  0
 59 60  1  0  0  0  0
 59 65  1  0  0  0  0
 60 61  1  0  0  0  0
 61 62  1  0  0  0  0
 61 63  1  0  0  0  0
 61 64  1  0  0  0  0
 65 66  2  0  0  0  0
 65 67  1  0  0  0  0
 67 68  1  0  0  0  0
 67 71  1  0  0  0  0
 68 69  1  0  0  0  0
 69 70  2  0  0  0  0
 71 72  1  0  0  0  0
 71 73  1  0  0  0  0
 71 74  1  0  0  0  0
 75 76  1  0  0  0  0
 75 77  1  0  0  0  0
 75 78  1  0  0  0  0
 78 79  1  0  0  0  0
 78 80  1  0  0  0  0
 78 81  1  0  0  0  0
 81 87  1  0  0  0  0
 81 82  2  0  0  0  0
 82 83  1  0  0  0  0
 83 84  2  0  0  0  0
 84 85  1  0  0  0  0
 84 86  1  0  0  0  0
 86 87  2  0  0  0  0
 88 89  1  0  0  0  0
 88 90  1  0  0  0  0
 88 91  1  0  0  0  0
M  END
> <Index>
1436

> <ID>
HT0159

> <class>
1

> <apol>
172.08989

> <ast_fraglike>
0

> <ast_fraglike_ext>
0

> <ast_violation>
3

> <ast_violation_ext>
5

> <a_acc>
17

> <a_acid>
0

> <a_aro>
24

> <a_base>
0

> <a_count>
155

> <a_don>
14

> <a_donacc>
31

> <a_heavy>
82

> <a_hyd>
50

> <a_IC>
247.04083

> <a_ICM>
1.5938119

> <a_nB>
0

> <a_nBr>
0

> <a_nC>
58

> <a_nCl>
0

> <a_nF>
0

> <a_nH>
73

> <a_nI>
0

> <a_nN>
7

> <a_nO>
17

> <a_nP>
0

> <a_nS>
0

> <balabanJ>
1.0805914

> <BCUT_PEOE_0>
-2.6463897

> <BCUT_PEOE_1>
-0.64129227

> <BCUT_PEOE_2>
0.70002359

> <BCUT_PEOE_3>
2.8002536

> <BCUT_SLOGP_0>
-2.8851583

> <BCUT_SLOGP_1>
-0.55618817

> <BCUT_SLOGP_2>
0.57105708

> <BCUT_SLOGP_3>
2.6999185

> <BCUT_SMR_0>
-2.4138546

> <BCUT_SMR_1>
-0.49986199

> <BCUT_SMR_2>
0.8218435

> <BCUT_SMR_3>
3.0338485

> <bpol>
95.686111

> <b_1rotN>
14

> <b_1rotR>
0.15909091

> <b_ar>
24

> <b_count>
161

> <b_double>
7

> <b_heavy>
88

> <b_max1len>
6

> <b_rotN>
15

> <b_rotR>
0.17045455

> <b_single>
130

> <b_triple>
0

> <chi0>
59.688412

> <chi0v>
45.740047

> <chi0v_C>
35.054714

> <chi0_C>
38.291069

> <chi1>
38.96545

> <chi1v>
27.278484

> <chi1v_C>
18.778175

> <chi1_C>
22.587286

> <chiral>
15

> <chiral_u>
6

> <density>
0.77276546

> <diameter>
36

> <FCharge>
0

> <GCUT_PEOE_0>
-0.83299315

> <GCUT_PEOE_1>
-0.40945074

> <GCUT_PEOE_2>
0.098577634

> <GCUT_PEOE_3>
3.3381836

> <GCUT_SLOGP_0>
-1.1682682

> <GCUT_SLOGP_1>
-0.40311918

> <GCUT_SLOGP_2>
0.068797007

> <GCUT_SLOGP_3>
3.229327

> <GCUT_SMR_0>
-0.53250682

> <GCUT_SMR_1>
-0.23951069

> <GCUT_SMR_2>
0.19305076

> <GCUT_SMR_3>
3.5647969

> <Kier1>
69.473396

> <Kier2>
32.653061

> <Kier3>
18.348091

> <KierA1>
54.307552

> <KierA2>
25.443516

> <KierA3>
14.265869

> <KierFlex>
16.850914

> <lip_acc>
24

> <lip_don>
14

> <lip_druglike>
0

> <lip_violation>
3

> <logP(o/w)>
1.085

> <logS>
-10.39139

> <mr>
29.642357

> <mutagenic>
0

> <nmol>
1

> <opr_brigid>
53

> <opr_leadlike>
0

> <opr_nring>
6

> <opr_nrot>
27

> <opr_violation>
5

> <PC+>
0

> <PC->
0

> <PEOE_PC+>
9.1996098

> <PEOE_PC->
-9.1996098

> <PEOE_RPC+>
0.027461533

> <PEOE_RPC->
0.042388499

> <PEOE_VSA+0>
152.63046

> <PEOE_VSA+1>
196.51117

> <PEOE_VSA+2>
33.590549

> <PEOE_VSA+3>
52.491005

> <PEOE_VSA+4>
170.61475

> <PEOE_VSA+5>
12.949531

> <PEOE_VSA+6>
0.0

> <PEOE_VSA-0>
130.76878

> <PEOE_VSA-1>
177.44702

> <PEOE_VSA-2>
0.0

> <PEOE_VSA-3>
0.0

> <PEOE_VSA-4>
0.0

> <PEOE_VSA-5>
94.968445

> <PEOE_VSA-6>
73.096077

> <PEOE_VSA_FHYD>
0.67889768

> <PEOE_VSA_FNEG>
0.43493229

> <PEOE_VSA_FPNEG>
0.15347408

> <PEOE_VSA_FPOL>
0.32110229

> <PEOE_VSA_FPOS>
0.56506771

> <PEOE_VSA_FPPOS>
0.16762823

> <PEOE_VSA_HYD>
743.43903

> <PEOE_VSA_NEG>
476.28033

> <PEOE_VSA_PNEG>
168.06451

> <PEOE_VSA_POL>
351.62878

> <PEOE_VSA_POS>
618.78748

> <PEOE_VSA_PPOS>
183.56427

> <petitjean>
0.5

> <petitjeanSC>
1.0

> <Q_PC+>
0

> <Q_PC->
0

> <Q_RPC+>
0

> <Q_RPC->
0

> <Q_VSA_FHYD>
1

> <Q_VSA_FNEG>
0

> <Q_VSA_FPNEG>
0

> <Q_VSA_FPOL>
0

> <Q_VSA_FPOS>
1

> <Q_VSA_FPPOS>
0

> <Q_VSA_HYD>
1095.0677

> <Q_VSA_NEG>
0

> <Q_VSA_PNEG>
0

> <Q_VSA_POL>
0

> <Q_VSA_POS>
1095.0677

> <Q_VSA_PPOS>
0

> <radius>
18

> <reactive>
0

> <rings>
7

> <RPC+>
0

> <RPC->
0

> <rsynth>
0.902439

> <SlogP>
-0.83160001

> <SlogP_VSA0>
329.52069

> <SlogP_VSA1>
43.060112

> <SlogP_VSA2>
211.91682

> <SlogP_VSA3>
57.805416

> <SlogP_VSA4>
34.644161

> <SlogP_VSA5>
0.0

> <SlogP_VSA6>
0.0

> <SlogP_VSA7>
295.03326

> <SlogP_VSA8>
100.81068

> <SlogP_VSA9>
143.79091

> <SMR>
29.349621

> <SMR_VSA0>
167.03551

> <SMR_VSA1>
245.71556

> <SMR_VSA2>
94.464546

> <SMR_VSA3>
92.070183

> <SMR_VSA4>
12.7423

> <SMR_VSA5>
376.63297

> <SMR_VSA6>
94.616898

> <SMR_VSA7>
133.30406

> <TPSA>
377.42001

> <VAdjEq>
0.17483048

> <VAdjMa>
7.4594316

> <VDistEq>
4.7278819

> <VDistMa>
12.428274

> <vdw_area>
1095.0677

> <vdw_vol>
1475.5498

> <vsa_acc>
97.472198

> <vsa_acid>
0

> <vsa_base>
0

> <vsa_don>
28.41288

> <vsa_hyd>
644.05341

> <vsa_other>
103.59624

> <vsa_pol>
247.98737

> <Weight>
1140.254

> <weinerPath>
39238

> <weinerPol>
144

> <zagreb>
428

$$$$
Row1436
 OpenBabel06061811532D

 20 22  0  0  0  0  0  0  0  0999 V2000
    0.0000    0.0000    0.0000 N   0  0  0  0  0  0  0  0  0  0  0  0
    0.0000    0.0000    0.0000 C   0  0  0  0  0  0  0  0  0  0  0  0
    0.0000    0.0000    0.0000 C   0  0  0  0  0  0  0  0  0  0  0  0
    0.0000    0.0000    0.0000 N   0  0  0  0  0  0  0  0  0  0  0  0
    0.0000    0.0000    0.0000 C   0  0  0  0  0  0  0  0  0  0  0  0
    0.0000    0.0000    0.0000 C   0  0  0  0  0  0  0  0  0  0  0  0
    0.0000    0.0000    0.0000 N   0  0  0  0  0  0  0  0  0  0  0  0
    0.0000    0.0000    0.0000 C   0  0  0  0  0  0  0  0  0  0  0  0
    0.0000    0.0000    0.0000 C   0  0  0  0  0  0  0  0  0  0  0  0
    0.0000    0.0000    0.0000 C   0  0  0  0  0  0  0  0  0  0  0  0
    0.0000    0.0000    0.0000 C   0  0  0  0  0  0  0  0  0  0  0  0
    0.0000    0.0000    0.0000 C   0  0  0  0  0  0  0  0  0  0  0  0
    0.0000    0.0000    0.0000 C   0  0  0  0  0  0  0  0  0  0  0  0
    0.0000    0.0000    0.0000 C   0  0  0  0  0  0  0  0  0  0  0  0
    0.0000    0.0000    0.0000 C   0  0  0  0  0  0  0  0  0  0  0  0
    0.0000    0.0000    0.0000 C   0  0  0  0  0  0  0  0  0  0  0  0
    0.0000    0.0000    0.0000 C   0  0  0  0  0  0  0  0  0  0  0  0
    0.0000    0.0000    0.0000 C   0  0  0  0  0  0  0  0  0  0  0  0
    0.0000    0.0000    0.0000 C   0  0  0  0  0  0  0  0  0  0  0  0
    0.0000    0.0000    0.0000 C   0  0  0  0  0  0  0  0  0  0  0  0
  1  5  1  0  0  0  0
  1  2  1  0  0  0  0
  2  3  1  0  0  0  0
  3  4  1  0  0  0  0
  4  5  2  0  0  0  0
  5  6  1  0  0  0  0
  6  7  1  0  0  0  0
  7  8  1  0  0  0  0
  7 15  1  0  0  0  0
  8  9  1  0  0  0  0
  9 14  1  0  0  0  0
  9 10  2  0  0  0  0
 10 11  1  0  0  0  0
 11 12  2  0  0  0  0
 12 13  1  0  0  0  0
 13 14  2  0  0  0  0
 15 20  1  0  0  0  0
 15 16  2  0  0  0  0
 16 17  1  0  0  0  0
 17 18  2  0  0  0  0
 18 19  1  0  0  0  0
 19 20  2  0  0  0  0
M  END
> <Index>
1437

> <ID>
HT0165

> <class>
1

> <apol>
45.889069

> <ast_fraglike>
1

> <ast_fraglike_ext>
0

> <ast_violation>
0

> <ast_violation_ext>
1

> <a_acc>
1

> <a_acid>
0

> <a_aro>
12

> <a_base>
0

> <a_count>
39

> <a_don>
1

> <a_donacc>
2

> <a_heavy>
20

> <a_hyd>
16

> <a_IC>
51.178307

> <a_ICM>
1.3122643

> <a_nB>
0

> <a_nBr>
0

> <a_nC>
17

> <a_nCl>
0

> <a_nF>
0

> <a_nH>
19

> <a_nI>
0

> <a_nN>
3

> <a_nO>
0

> <a_nP>
0

> <a_nS>
0

> <balabanJ>
1.556776

> <BCUT_PEOE_0>
-2.5296724

> <BCUT_PEOE_1>
-0.61190671

> <BCUT_PEOE_2>
0.64406335

> <BCUT_PEOE_3>
2.528985

> <BCUT_SLOGP_0>
-2.6669261

> <BCUT_SLOGP_1>
-0.52505386

> <BCUT_SLOGP_2>
0.75602233

> <BCUT_SLOGP_3>
2.5161998

> <BCUT_SMR_0>
-2.206758

> <BCUT_SMR_1>
-0.44614753

> <BCUT_SMR_2>
0.8147825

> <BCUT_SMR_3>
2.8337243

> <bpol>
24.730932

> <b_1rotN>
5

> <b_1rotR>
0.22727273

> <b_ar>
12

> <b_count>
41

> <b_double>
1

> <b_heavy>
22

> <b_max1len>
4

> <b_rotN>
5

> <b_rotR>
0.22727273

> <b_single>
28

> <b_triple>
0

> <chi0>
13.62311

> <chi0v>
11.496357

> <chi0v_C>
10.10193

> <chi0_C>
11.631546

> <chi1>
9.9158163

> <chi1v>
7.0279241

> <chi1v_C>
5.0284739

> <chi1_C>
6.9494896

> <chiral>
0

> <chiral_u>
0

> <density>
0.6705488

> <diameter>
9

> <FCharge>
0

> <GCUT_PEOE_0>
-0.86138141

> <GCUT_PEOE_1>
-0.3915787

> <GCUT_PEOE_2>
0.066729568

> <GCUT_PEOE_3>
2.5479109

> <GCUT_SLOGP_0>
-1.1669911

> <GCUT_SLOGP_1>
-0.28848141

> <GCUT_SLOGP_2>
0.15249072

> <GCUT_SLOGP_3>
2.631089

> <GCUT_SMR_0>
-0.50485981

> <GCUT_SMR_1>
-0.19695719

> <GCUT_SMR_2>
0.17811364

> <GCUT_SMR_3>
2.8467271

> <Kier1>
14.917356

> <Kier2>
7.8520408

> <Kier3>
4.4963264

> <KierA1>
10.379901

> <KierA2>
5.3494287

> <KierA3>
3.0160587

> <KierFlex>
2.7763269

> <lip_acc>
3

> <lip_don>
1

> <lip_druglike>
1

> <lip_violation>
0

> <logP(o/w)>
2.7679999

> <logS>
-3.4963701

> <mr>
8.2154131

> <mutagenic>
0

> <nmol>
1

> <opr_brigid>
17

> <opr_leadlike>
1

> <opr_nring>
3

> <opr_nrot>
5

> <opr_violation>
0

> <PC+>
0

> <PC->
0

> <PEOE_PC+>
1.5032727

> <PEOE_PC->
-1.5032727

> <PEOE_RPC+>
0.10698862

> <PEOE_RPC->
0.2464862

> <PEOE_VSA+0>
41.614971

> <PEOE_VSA+1>
94.630829

> <PEOE_VSA+2>
11.190562

> <PEOE_VSA+3>
8.6190128

> <PEOE_VSA+4>
0.0

> <PEOE_VSA+5>
0.0

> <PEOE_VSA+6>
0.0

> <PEOE_VSA-0>
26.718348

> <PEOE_VSA-1>
98.03923

> <PEOE_VSA-2>
0.0

> <PEOE_VSA-3>
0.0

> <PEOE_VSA-4>
0.0

> <PEOE_VSA-5>
5.6825762

> <PEOE_VSA-6>
0.13689101

> <PEOE_VSA_FHYD>
0.97969711

> <PEOE_VSA_FNEG>
0.45555574

> <PEOE_VSA_FPNEG>
0.020302892

> <PEOE_VSA_FPOL>
0.020302892

> <PEOE_VSA_FPOS>
0.54444426

> <PEOE_VSA_FPPOS>
0.0

> <PEOE_VSA_HYD>
280.81296

> <PEOE_VSA_NEG>
130.57704

> <PEOE_VSA_PNEG>
5.8194671

> <PEOE_VSA_POL>
5.8194671

> <PEOE_VSA_POS>
156.05537

> <PEOE_VSA_PPOS>
0.0

> <petitjean>
0.44444445

> <petitjeanSC>
0.80000001

> <Q_PC+>
0

> <Q_PC->
0

> <Q_RPC+>
0

> <Q_RPC->
0

> <Q_VSA_FHYD>
1

> <Q_VSA_FNEG>
0

> <Q_VSA_FPNEG>
0

> <Q_VSA_FPOL>
0

> <Q_VSA_FPOS>
1

> <Q_VSA_FPPOS>
0

> <Q_VSA_HYD>
286.63242

> <Q_VSA_NEG>
0

> <Q_VSA_PNEG>
0

> <Q_VSA_POL>
0

> <Q_VSA_POS>
286.63242

> <Q_VSA_PPOS>
0

> <radius>
5

> <reactive>
0

> <rings>
3

> <RPC+>
0

> <RPC->
0

> <rsynth>
1.0

> <SlogP>
2.9612999

> <SlogP_VSA0>
21.135065

> <SlogP_VSA1>
2.3279202

> <SlogP_VSA2>
0.0

> <SlogP_VSA3>
55.318733

> <SlogP_VSA4>
3.185575

> <SlogP_VSA5>
16.78553

> <SlogP_VSA6>
0.0

> <SlogP_VSA7>
176.43184

> <SlogP_VSA8>
0.0

> <SlogP_VSA9>
21.196325

> <SMR>
8.4443703

> <SMR_VSA0>
0.0

> <SMR_VSA1>
16.78553

> <SMR_VSA2>
21.135065

> <SMR_VSA3>
3.185575

> <SMR_VSA4>
2.7567475

> <SMR_VSA5>
194.87141

> <SMR_VSA6>
57.646656

> <SMR_VSA7>
0.0

> <TPSA>
27.629999

> <VAdjEq>
0.49991596

> <VAdjMa>
5.4594316

> <VDistEq>
3.0351255

> <VDistMa>
8.3702307

> <vdw_area>
286.63242

> <vdw_vol>
395.73557

> <vsa_acc>
5.6825762

> <vsa_acid>
0

> <vsa_base>
0

> <vsa_don>
5.6825762

> <vsa_hyd>
248.19106

> <vsa_other>
11.190562

> <vsa_pol>
11.365152

> <Weight>
265.35999

> <weinerPath>
829

> <weinerPol>
24

> <zagreb>
100

$$$$
Row1437
 OpenBabel06061811532D

 34 38  0  0  1  0  0  0  0  0999 V2000
    0.0000    0.0000    0.0000 F   0  0  0  0  0  0  0  0  0  0  0  0
    0.0000    0.0000    0.0000 C   0  0  0  0  0  0  0  0  0  0  0  0
    0.0000    0.0000    0.0000 C   0  0  0  0  0  0  0  0  0  0  0  0
    0.0000    0.0000    0.0000 C   0  0  0  0  0  0  0  0  0  0  0  0
    0.0000    0.0000    0.0000 C   0  0  0  0  0  0  0  0  0  0  0  0
    0.0000    0.0000    0.0000 C   0  0  0  0  0  0  0  0  0  0  0  0
    0.0000    0.0000    0.0000 C   0  0  0  0  0  0  0  0  0  0  0  0
    0.0000    0.0000    0.0000 C   0  0  0  0  0  0  0  0  0  0  0  0
    0.0000    0.0000    0.0000 N   0  0  0  0  0  0  0  0  0  0  0  0
    0.0000    0.0000    0.0000 C   0  0  0  0  0  0  0  0  0  0  0  0
    0.0000    0.0000    0.0000 C   0  0  0  0  0  0  0  0  0  0  0  0
    0.0000    0.0000    0.0000 N   0  0  0  0  0  0  0  0  0  0  0  0
    0.0000    0.0000    0.0000 C   0  0  0  0  0  0  0  0  0  0  0  0
    0.0000    0.0000    0.0000 N   0  0  0  0  0  0  0  0  0  0  0  0
    0.0000    0.0000    0.0000 C   0  0  3  0  0  0  0  0  0  0  0  0
    0.0000    0.0000    0.0000 C   0  0  0  0  0  0  0  0  0  0  0  0
    0.0000    0.0000    0.0000 C   0  0  0  0  0  0  0  0  0  0  0  0
    0.0000    0.0000    0.0000 N   0  0  0  0  0  0  0  0  0  0  0  0
    0.0000    0.0000    0.0000 C   0  0  0  0  0  0  0  0  0  0  0  0
    0.0000    0.0000    0.0000 C   0  0  0  0  0  0  0  0  0  0  0  0
    0.0000    0.0000    0.0000 C   0  0  0  0  0  0  0  0  0  0  0  0
    0.0000    0.0000    0.0000 C   0  0  0  0  0  0  0  0  0  0  0  0
    0.0000    0.0000    0.0000 C   0  0  0  0  0  0  0  0  0  0  0  0
    0.0000    0.0000    0.0000 C   0  0  0  0  0  0  0  0  0  0  0  0
    0.0000    0.0000    0.0000 C   0  0  0  0  0  0  0  0  0  0  0  0
    0.0000    0.0000    0.0000 C   0  0  0  0  0  0  0  0  0  0  0  0
    0.0000    0.0000    0.0000 O   0  0  0  0  0  0  0  0  0  0  0  0
    0.0000    0.0000    0.0000 C   0  0  0  0  0  0  0  0  0  0  0  0
    0.0000    0.0000    0.0000 C   0  0  0  0  0  0  0  0  0  0  0  0
    0.0000    0.0000    0.0000 C   0  0  0  0  0  0  0  0  0  0  0  0
    0.0000    0.0000    0.0000 C   0  0  0  0  0  0  0  0  0  0  0  0
    0.0000    0.0000    0.0000 C   0  0  0  0  0  0  0  0  0  0  0  0
    0.0000    0.0000    0.0000 C   0  0  0  0  0  0  0  0  0  0  0  0
    0.0000    0.0000    0.0000 C   0  0  0  0  0  0  0  0  0  0  0  0
  1  2  1  0  0  0  0
  2  7  1  0  0  0  0
  2  3  2  0  0  0  0
  3  4  1  0  0  0  0
  4  5  2  0  0  0  0
  5  6  1  0  0  0  0
  5  8  1  0  0  0  0
  6  7  2  0  0  0  0
  8  9  1  0  0  0  0
  9 13  1  0  0  0  0
  9 10  1  0  0  0  0
 10 34  1  0  0  0  0
 10 11  2  0  0  0  0
 11 12  1  0  0  0  0
 11 31  1  0  0  0  0
 12 13  2  0  0  0  0
 13 14  1  0  0  0  0
 14 15  1  0  0  0  0
 15 20  1  0  0  0  0
 15 16  1  0  0  0  0
 16 17  1  0  0  0  0
 17 18  1  0  0  0  0
 18 19  1  0  0  0  0
 18 21  1  0  0  0  0
 19 20  1  0  0  0  0
 21 22  1  0  0  0  0
 22 23  1  0  0  0  0
 23 30  1  0  0  0  0
 23 24  2  0  0  0  0
 24 25  1  0  0  0  0
 25 26  2  0  0  0  0
 26 27  1  0  0  0  0
 26 29  1  0  0  0  0
 27 28  1  0  0  0  0
 29 30  2  0  0  0  0
 31 32  2  0  0  0  0
 32 33  1  0  0  0  0
 33 34  2  0  0  0  0
M  END
> <Index>
1438

> <ID>
HT0190

> <class>
1

> <apol>
75.709579

> <ast_fraglike>
0

> <ast_fraglike_ext>
0

> <ast_violation>
2

> <ast_violation_ext>
3

> <a_acc>
3

> <a_acid>
0

> <a_aro>
21

> <a_base>
0

> <a_count>
65

> <a_don>
1

> <a_donacc>
4

> <a_heavy>
34

> <a_hyd>
28

> <a_IC>
95.267883

> <a_ICM>
1.4656597

> <a_nB>
0

> <a_nBr>
0

> <a_nC>
28

> <a_nCl>
0

> <a_nF>
1

> <a_nH>
31

> <a_nI>
0

> <a_nN>
4

> <a_nO>
1

> <a_nP>
0

> <a_nS>
0

> <balabanJ>
1.0681174

> <BCUT_PEOE_0>
-2.7967148

> <BCUT_PEOE_1>
-0.61204994

> <BCUT_PEOE_2>
0.60655326

> <BCUT_PEOE_3>
2.7207034

> <BCUT_SLOGP_0>
-2.8514884

> <BCUT_SLOGP_1>
-0.52761811

> <BCUT_SLOGP_2>
0.75265509

> <BCUT_SLOGP_3>
2.6953685

> <BCUT_SMR_0>
-2.5224693

> <BCUT_SMR_1>
-0.41814855

> <BCUT_SMR_2>
0.76878369

> <BCUT_SMR_3>
2.9896955

> <bpol>
42.948418

> <b_1rotN>
8

> <b_1rotR>
0.21052632

> <b_ar>
22

> <b_count>
69

> <b_double>
0

> <b_heavy>
38

> <b_max1len>
3

> <b_rotN>
8

> <b_rotR>
0.21052632

> <b_single>
47

> <b_triple>
0

> <chi0>
23.329851

> <chi0v>
19.583155

> <chi0v_C>
16.955301

> <chi0_C>
19.053831

> <chi1>
16.674168

> <chi1v>
11.993056

> <chi1v_C>
8.4936876

> <chi1_C>
11.048809

> <chiral>
0

> <chiral_u>
0

> <density>
0.70478731

> <diameter>
20

> <FCharge>
0

> <GCUT_PEOE_0>
-0.85720414

> <GCUT_PEOE_1>
-0.40012583

> <GCUT_PEOE_2>
0.06698671

> <GCUT_PEOE_3>
2.863266

> <GCUT_SLOGP_0>
-0.98656493

> <GCUT_SLOGP_1>
-0.30852345

> <GCUT_SLOGP_2>
0.157536

> <GCUT_SLOGP_3>
2.9262211

> <GCUT_SMR_0>
-0.51798338

> <GCUT_SMR_1>
-0.20810553

> <GCUT_SMR_2>
0.17454699

> <GCUT_SMR_3>
3.1324353

> <Kier1>
25.641273

> <Kier2>
12.497042

> <Kier3>
6.8650517

> <KierA1>
19.247219

> <KierA2>
9.2936125

> <KierA3>
5.0718923

> <KierFlex>
5.2610645

> <lip_acc>
5

> <lip_don>
1

> <lip_druglike>
1

> <lip_violation>
1

> <logP(o/w)>
5.9949999

> <logS>
-6.4896898

> <mr>
13.486709

> <mutagenic>
0

> <nmol>
1

> <opr_brigid>
28

> <opr_leadlike>
0

> <opr_nring>
5

> <opr_nrot>
10

> <opr_violation>
3

> <PC+>
0

> <PC->
0

> <PEOE_PC+>
2.2995613

> <PEOE_PC->
-2.2995613

> <PEOE_RPC+>
0.079825856

> <PEOE_RPC->
0.15129504

> <PEOE_VSA+0>
123.17061

> <PEOE_VSA+1>
107.56151

> <PEOE_VSA+2>
17.639858

> <PEOE_VSA+3>
15.681574

> <PEOE_VSA+4>
0.0

> <PEOE_VSA+5>
0.0

> <PEOE_VSA+6>
0.0

> <PEOE_VSA-0>
104.05045

> <PEOE_VSA-1>
73.529427

> <PEOE_VSA-2>
0.0

> <PEOE_VSA-3>
0.0

> <PEOE_VSA-4>
17.591211

> <PEOE_VSA-5>
0.13689101

> <PEOE_VSA-6>
2.503756

> <PEOE_VSA_FHYD>
0.95619529

> <PEOE_VSA_FNEG>
0.42828879

> <PEOE_VSA_FPNEG>
0.043804675

> <PEOE_VSA_FPOL>
0.043804675

> <PEOE_VSA_FPOS>
0.57171118

> <PEOE_VSA_FPPOS>
0.0

> <PEOE_VSA_HYD>
441.63342

> <PEOE_VSA_NEG>
197.81172

> <PEOE_VSA_PNEG>
20.231859

> <PEOE_VSA_POL>
20.231859

> <PEOE_VSA_POS>
264.05356

> <PEOE_VSA_PPOS>
0.0

> <petitjean>
0.5

> <petitjeanSC>
1.0

> <Q_PC+>
0

> <Q_PC->
0

> <Q_RPC+>
0

> <Q_RPC->
0

> <Q_VSA_FHYD>
1

> <Q_VSA_FNEG>
0

> <Q_VSA_FPNEG>
0

> <Q_VSA_FPOL>
0

> <Q_VSA_FPOS>
1

> <Q_VSA_FPPOS>
0

> <Q_VSA_HYD>
461.86526

> <Q_VSA_NEG>
0

> <Q_VSA_PNEG>
0

> <Q_VSA_POL>
0

> <Q_VSA_POS>
461.86526

> <Q_VSA_PPOS>
0

> <radius>
10

> <reactive>
0

> <rings>
5

> <RPC+>
0

> <RPC->
0

> <rsynth>
1.0

> <SlogP>
5.6176701

> <SlogP_VSA0>
10.999887

> <SlogP_VSA1>
39.819687

> <SlogP_VSA2>
13.102986

> <SlogP_VSA3>
55.318733

> <SlogP_VSA4>
6.37115

> <SlogP_VSA5>
54.252274

> <SlogP_VSA6>
0.0

> <SlogP_VSA7>
216.00648

> <SlogP_VSA8>
37.736813

> <SlogP_VSA9>
40.542213

> <SMR>
13.52227

> <SMR_VSA0>
0.0

> <SMR_VSA1>
47.768936

> <SMR_VSA2>
9.1210184

> <SMR_VSA3>
15.596547

> <SMR_VSA4>
24.198118

> <SMR_VSA5>
286.763

> <SMR_VSA6>
55.318733

> <SMR_VSA7>
35.383869

> <TPSA>
42.32

> <VAdjEq>
0.34983629

> <VAdjMa>
6.2479277

> <VDistEq>
4.0226603

> <VDistMa>
9.847908

> <vdw_area>
461.86526

> <vdw_vol>
650.66577

> <vsa_acc>
8.1863317

> <vsa_acid>
0

> <vsa_base>
0

> <vsa_don>
5.6825762

> <vsa_hyd>
407.8876

> <vsa_other>
15.681574

> <vsa_pol>
13.868908

> <Weight>
458.58099

> <weinerPath>
4090

> <weinerPol>
51

> <zagreb>
180

$$$$
Row1438
 OpenBabel06061811532D

 55 57  0  0  1  0  0  0  0  0999 V2000
    0.0000    0.0000    0.0000 O   0  0  0  0  0  0  0  0  0  0  0  0
    0.0000    0.0000    0.0000 C   0  0  0  0  0  0  0  0  0  0  0  0
    0.0000    0.0000    0.0000 O   0  0  0  0  0  0  0  0  0  0  0  0
    0.0000    0.0000    0.0000 N   0  0  0  0  0  0  0  0  0  0  0  0
    0.0000    0.0000    0.0000 C   0  0  1  0  0  0  0  0  0  0  0  0
    0.0000    0.0000    0.0000 H   0  0  0  0  0  0  0  0  0  0  0  0
    0.0000    0.0000    0.0000 C   0  0  0  0  0  0  0  0  0  0  0  0
    0.0000    0.0000    0.0000 C   0  0  0  0  0  0  0  0  0  0  0  0
    0.0000    0.0000    0.0000 C   0  0  0  0  0  0  0  0  0  0  0  0
    0.0000    0.0000    0.0000 C   0  0  0  0  0  0  0  0  0  0  0  0
    0.0000    0.0000    0.0000 C   0  0  0  0  0  0  0  0  0  0  0  0
    0.0000    0.0000    0.0000 O   0  0  0  0  0  0  0  0  0  0  0  0
    0.0000    0.0000    0.0000 N   0  0  0  0  0  0  0  0  0  0  0  0
    0.0000    0.0000    0.0000 C   0  0  2  0  0  0  0  0  0  0  0  0
    0.0000    0.0000    0.0000 H   0  0  0  0  0  0  0  0  0  0  0  0
    0.0000    0.0000    0.0000 C   0  0  1  0  0  0  0  0  0  0  0  0
    0.0000    0.0000    0.0000 H   0  0  0  0  0  0  0  0  0  0  0  0
    0.0000    0.0000    0.0000 O   0  0  0  0  0  0  0  0  0  0  0  0
    0.0000    0.0000    0.0000 C   0  0  0  0  0  0  0  0  0  0  0  0
    0.0000    0.0000    0.0000 N   0  0  0  0  0  0  0  0  0  0  0  0
    0.0000    0.0000    0.0000 N   0  0  0  0  0  0  0  0  0  0  0  0
    0.0000    0.0000    0.0000 C   0  0  0  0  0  0  0  0  0  0  0  0
    0.0000    0.0000    0.0000 O   0  0  0  0  0  0  0  0  0  0  0  0
    0.0000    0.0000    0.0000 C   0  0  1  0  0  0  0  0  0  0  0  0
    0.0000    0.0000    0.0000 H   0  0  0  0  0  0  0  0  0  0  0  0
    0.0000    0.0000    0.0000 N   0  0  0  0  0  0  0  0  0  0  0  0
    0.0000    0.0000    0.0000 C   0  0  0  0  0  0  0  0  0  0  0  0
    0.0000    0.0000    0.0000 O   0  0  0  0  0  0  0  0  0  0  0  0
    0.0000    0.0000    0.0000 C   0  0  0  0  0  0  0  0  0  0  0  0
    0.0000    0.0000    0.0000 O   0  0  0  0  0  0  0  0  0  0  0  0
    0.0000    0.0000    0.0000 C   0  0  0  0  0  0  0  0  0  0  0  0
    0.0000    0.0000    0.0000 C   0  0  0  0  0  0  0  0  0  0  0  0
    0.0000    0.0000    0.0000 C   0  0  0  0  0  0  0  0  0  0  0  0
    0.0000    0.0000    0.0000 C   0  0  0  0  0  0  0  0  0  0  0  0
    0.0000    0.0000    0.0000 C   0  0  0  0  0  0  0  0  0  0  0  0
    0.0000    0.0000    0.0000 C   0  0  0  0  0  0  0  0  0  0  0  0
    0.0000    0.0000    0.0000 C   0  0  0  0  0  0  0  0  0  0  0  0
    0.0000    0.0000    0.0000 C   0  0  0  0  0  0  0  0  0  0  0  0
    0.0000    0.0000    0.0000 C   0  0  0  0  0  0  0  0  0  0  0  0
    0.0000    0.0000    0.0000 C   0  0  0  0  0  0  0  0  0  0  0  0
    0.0000    0.0000    0.0000 C   0  0  0  0  0  0  0  0  0  0  0  0
    0.0000    0.0000    0.0000 C   0  0  0  0  0  0  0  0  0  0  0  0
    0.0000    0.0000    0.0000 N   0  0  0  0  0  0  0  0  0  0  0  0
    0.0000    0.0000    0.0000 C   0  0  0  0  0  0  0  0  0  0  0  0
    0.0000    0.0000    0.0000 C   0  0  0  0  0  0  0  0  0  0  0  0
    0.0000    0.0000    0.0000 C   0  0  0  0  0  0  0  0  0  0  0  0
    0.0000    0.0000    0.0000 C   0  0  0  0  0  0  0  0  0  0  0  0
    0.0000    0.0000    0.0000 C   0  0  0  0  0  0  0  0  0  0  0  0
    0.0000    0.0000    0.0000 C   0  0  0  0  0  0  0  0  0  0  0  0
    0.0000    0.0000    0.0000 C   0  0  0  0  0  0  0  0  0  0  0  0
    0.0000    0.0000    0.0000 C   0  0  0  0  0  0  0  0  0  0  0  0
    0.0000    0.0000    0.0000 C   0  0  0  0  0  0  0  0  0  0  0  0
    0.0000    0.0000    0.0000 C   0  0  0  0  0  0  0  0  0  0  0  0
    0.0000    0.0000    0.0000 C   0  0  0  0  0  0  0  0  0  0  0  0
    0.0000    0.0000    0.0000 C   0  0  0  0  0  0  0  0  0  0  0  0
  1  2  1  0  0  0  0
  1 55  1  0  0  0  0
  2  3  2  0  0  0  0
  2  4  1  0  0  0  0
  4  5  1  0  0  0  0
  5  6  1  0  0  0  0
  5  7  1  0  0  0  0
  5 11  1  0  0  0  0
  7  8  1  0  0  0  0
  7  9  1  0  0  0  0
  7 10  1  0  0  0  0
 11 12  2  0  0  0  0
 11 13  1  0  0  0  0
 13 14  1  0  0  0  0
 14 15  1  0  0  0  0
 14 16  1  0  0  0  0
 14 48  1  0  0  0  0
 16 17  1  0  0  0  0
 16 18  1  0  0  0  0
 16 19  1  0  0  0  0
 19 20  1  0  0  0  0
 20 21  1  0  0  0  0
 20 35  1  0  0  0  0
 21 22  1  0  0  0  0
 22 23  2  0  0  0  0
 22 24  1  0  0  0  0
 24 25  1  0  0  0  0
 24 26  1  0  0  0  0
 24 31  1  0  0  0  0
 26 27  1  0  0  0  0
 27 28  1  0  0  0  0
 27 30  2  0  0  0  0
 28 29  1  0  0  0  0
 31 32  1  0  0  0  0
 31 33  1  0  0  0  0
 31 34  1  0  0  0  0
 35 36  1  0  0  0  0
 36 41  1  0  0  0  0
 36 37  2  0  0  0  0
 37 38  1  0  0  0  0
 38 39  2  0  0  0  0
 39 40  1  0  0  0  0
 39 42  1  0  0  0  0
 40 41  2  0  0  0  0
 42 47  1  0  0  0  0
 42 43  2  0  0  0  0
 43 44  1  0  0  0  0
 44 45  2  0  0  0  0
 45 46  1  0  0  0  0
 46 47  2  0  0  0  0
 48 49  1  0  0  0  0
 49 54  1  0  0  0  0
 49 50  2  0  0  0  0
 50 51  1  0  0  0  0
 51 52  2  0  0  0  0
 52 53  1  0  0  0  0
 53 54  2  0  0  0  0
M  END
> <Index>
1439

> <ID>
HT0191

> <class>
1

> <apol>
113.76723

> <ast_fraglike>
0

> <ast_fraglike_ext>
0

> <ast_violation>
4

> <ast_violation_ext>
6

> <a_acc>
7

> <a_acid>
0

> <a_aro>
18

> <a_base>
0

> <a_count>
103

> <a_don>
5

> <a_donacc>
12

> <a_heavy>
51

> <a_hyd>
34

> <a_IC>
157.70418

> <a_ICM>
1.5311086

> <a_nB>
0

> <a_nBr>
0

> <a_nC>
38

> <a_nCl>
0

> <a_nF>
0

> <a_nH>
52

> <a_nI>
0

> <a_nN>
6

> <a_nO>
7

> <a_nP>
0

> <a_nS>
0

> <balabanJ>
1.822313

> <BCUT_PEOE_0>
-2.7261882

> <BCUT_PEOE_1>
-0.50912035

> <BCUT_PEOE_2>
0.55027115

> <BCUT_PEOE_3>
2.7189248

> <BCUT_SLOGP_0>
-2.8980999

> <BCUT_SLOGP_1>
-0.44080427

> <BCUT_SLOGP_2>
0.64808768

> <BCUT_SLOGP_3>
2.7118037

> <BCUT_SMR_0>
-2.4759853

> <BCUT_SMR_1>
-0.34889722

> <BCUT_SMR_2>
0.70911735

> <BCUT_SMR_3>
2.963748

> <bpol>
69.13076

> <b_1rotN>
14

> <b_1rotR>
0.26415095

> <b_ar>
18

> <b_count>
105

> <b_double>
4

> <b_heavy>
53

> <b_max1len>
7

> <b_rotN>
22

> <b_rotR>
0.41509435

> <b_single>
83

> <b_triple>
0

> <chi0>
37.769009

> <chi0v>
30.727406

> <chi0v_C>
24.936275

> <chi0_C>
27.241911

> <chi1>
24.009607

> <chi1v>
16.785696

> <chi1v_C>
11.282363

> <chi1_C>
13.901415

> <chiral>
4

> <chiral_u>
0

> <density>
0.71958119

> <diameter>
19

> <FCharge>
0

> <GCUT_PEOE_0>
-0.86265206

> <GCUT_PEOE_1>
-0.39001176

> <GCUT_PEOE_2>
0.058539465

> <GCUT_PEOE_3>
3.1117496

> <GCUT_SLOGP_0>
-1.1775231

> <GCUT_SLOGP_1>
-0.26386139

> <GCUT_SLOGP_2>
0.10276919

> <GCUT_SLOGP_3>
3.0884104

> <GCUT_SMR_0>
-0.53302246

> <GCUT_SMR_1>
-0.19061941

> <GCUT_SMR_2>
0.14737007

> <GCUT_SMR_3>
3.3508778

> <Kier1>
45.38982

> <Kier2>
21.922937

> <Kier3>
15.575987

> <KierA1>
34.812027

> <KierA2>
16.719553

> <KierA3>
11.831964

> <KierFlex>
11.412579

> <lip_acc>
13

> <lip_don>
5

> <lip_druglike>
0

> <lip_violation>
2

> <logP(o/w)>
4.737

> <logS>
-6.6041398

> <mr>
19.671206

> <mutagenic>
0

> <nmol>
1

> <opr_brigid>
18

> <opr_leadlike>
0

> <opr_nring>
3

> <opr_nrot>
16

> <opr_violation>
3

> <PC+>
0

> <PC->
0

> <PEOE_PC+>
4.8546772

> <PEOE_PC->
-4.8546772

> <PEOE_RPC+>
0.074369289

> <PEOE_RPC->
0.080008663

> <PEOE_VSA+0>
197.70369

> <PEOE_VSA+1>
112.85432

> <PEOE_VSA+2>
6.2919211

> <PEOE_VSA+3>
34.476051

> <PEOE_VSA+4>
23.273705

> <PEOE_VSA+5>
12.949531

> <PEOE_VSA+6>
38.399021

> <PEOE_VSA-0>
37.628201

> <PEOE_VSA-1>
235.03511

> <PEOE_VSA-2>
0.0

> <PEOE_VSA-3>
0.0

> <PEOE_VSA-4>
27.133842

> <PEOE_VSA-5>
36.691772

> <PEOE_VSA-6>
13.185725

> <PEOE_VSA_FHYD>
0.80450088

> <PEOE_VSA_FNEG>
0.45083076

> <PEOE_VSA_FPNEG>
0.099289671

> <PEOE_VSA_FPOL>
0.19549912

> <PEOE_VSA_FPOS>
0.54916924

> <PEOE_VSA_FPPOS>
0.096209459

> <PEOE_VSA_HYD>
623.98926

> <PEOE_VSA_NEG>
349.67465

> <PEOE_VSA_PNEG>
77.011337

> <PEOE_VSA_POL>
151.63359

> <PEOE_VSA_POS>
425.94824

> <PEOE_VSA_PPOS>
74.622253

> <petitjean>
0.47368422

> <petitjeanSC>
0.89999998

> <Q_PC+>
0

> <Q_PC->
0

> <Q_RPC+>
0

> <Q_RPC->
0

> <Q_VSA_FHYD>
1

> <Q_VSA_FNEG>
0

> <Q_VSA_FPNEG>
0

> <Q_VSA_FPOL>
0

> <Q_VSA_FPOS>
1

> <Q_VSA_FPPOS>
0

> <Q_VSA_HYD>
775.62286

> <Q_VSA_NEG>
0

> <Q_VSA_PNEG>
0

> <Q_VSA_POL>
0

> <Q_VSA_POS>
775.62286

> <Q_VSA_PPOS>
0

> <radius>
10

> <reactive>
1

> <rings>
3

> <RPC+>
0

> <RPC->
0

> <rsynth>
1.0

> <SlogP>
4.4779701

> <SlogP_VSA0>
97.30571

> <SlogP_VSA1>
44.938164

> <SlogP_VSA2>
88.138763

> <SlogP_VSA3>
18.439579

> <SlogP_VSA4>
6.37115

> <SlogP_VSA5>
89.636139

> <SlogP_VSA6>
0.0

> <SlogP_VSA7>
234.87489

> <SlogP_VSA8>
0.0

> <SlogP_VSA9>
266.12009

> <SMR>
19.408159

> <SMR_VSA0>
117.44864

> <SMR_VSA1>
45.172546

> <SMR_VSA2>
71.920479

> <SMR_VSA3>
24.785706

> <SMR_VSA4>
5.9423227

> <SMR_VSA5>
266.24054

> <SMR_VSA6>
43.59042

> <SMR_VSA7>
270.72382

> <TPSA>
171.22

> <VAdjEq>
0.24573661

> <VAdjMa>
6.7279205

> <VDistEq>
3.9973493

> <VDistMa>
11.115432

> <vdw_area>
775.62286

> <vdw_vol>
979.55444

> <vsa_acc>
59.95026

> <vsa_acid>
0

> <vsa_base>
0

> <vsa_don>
26.468767

> <vsa_hyd>
556.05884

> <vsa_other>
69.305595

> <vsa_pol>
99.985947

> <Weight>
704.86896

> <weinerPath>
10532

> <weinerPol>
77

> <zagreb>
254

$$$$
Row1439
 OpenBabel06061811532D

 19 19  0  0  1  0  0  0  0  0999 V2000
    0.0000    0.0000    0.0000 O   0  0  0  0  0  0  0  0  0  0  0  0
    0.0000    0.0000    0.0000 C   0  0  0  0  0  0  0  0  0  0  0  0
    0.0000    0.0000    0.0000 C   0  0  3  0  0  0  0  0  0  0  0  0
    0.0000    0.0000    0.0000 O   0  0  0  0  0  0  0  0  0  0  0  0
    0.0000    0.0000    0.0000 C   0  0  0  0  0  0  0  0  0  0  0  0
    0.0000    0.0000    0.0000 N   0  0  0  0  0  0  0  0  0  0  0  0
    0.0000    0.0000    0.0000 C   0  0  0  0  0  0  0  0  0  0  0  0
    0.0000    0.0000    0.0000 C   0  0  0  0  0  0  0  0  0  0  0  0
    0.0000    0.0000    0.0000 C   0  0  0  0  0  0  0  0  0  0  0  0
    0.0000    0.0000    0.0000 C   0  0  0  0  0  0  0  0  0  0  0  0
    0.0000    0.0000    0.0000 C   0  0  0  0  0  0  0  0  0  0  0  0
    0.0000    0.0000    0.0000 C   0  0  0  0  0  0  0  0  0  0  0  0
    0.0000    0.0000    0.0000 C   0  0  0  0  0  0  0  0  0  0  0  0
    0.0000    0.0000    0.0000 C   0  0  0  0  0  0  0  0  0  0  0  0
    0.0000    0.0000    0.0000 C   0  0  0  0  0  0  0  0  0  0  0  0
    0.0000    0.0000    0.0000 C   0  0  0  0  0  0  0  0  0  0  0  0
    0.0000    0.0000    0.0000 C   0  0  0  0  0  0  0  0  0  0  0  0
    0.0000    0.0000    0.0000 O   0  0  0  0  0  0  0  0  0  0  0  0
    0.0000    0.0000    0.0000 N   0  0  0  0  0  0  0  0  0  0  0  0
  1  2  1  0  0  0  0
  1 10  1  0  0  0  0
  2  3  1  0  0  0  0
  3  4  1  0  0  0  0
  3  5  1  0  0  0  0
  5  6  1  0  0  0  0
  6  7  1  0  0  0  0
  7  8  1  0  0  0  0
  7  9  1  0  0  0  0
 10 15  1  0  0  0  0
 10 11  2  0  0  0  0
 11 12  1  0  0  0  0
 12 13  2  0  0  0  0
 13 14  1  0  0  0  0
 13 16  1  0  0  0  0
 14 15  2  0  0  0  0
 16 17  1  0  0  0  0
 17 18  2  0  0  0  0
 17 19  1  0  0  0  0
M  END
> <Index>
1440

> <ID>
HT0192

> <class>
1

> <apol>
43.915447

> <ast_fraglike>
0

> <ast_fraglike_ext>
0

> <ast_violation>
1

> <ast_violation_ext>
2

> <a_acc>
4

> <a_acid>
0

> <a_aro>
6

> <a_base>
0

> <a_count>
41

> <a_don>
3

> <a_donacc>
7

> <a_heavy>
19

> <a_hyd>
13

> <a_IC>
61.494282

> <a_ICM>
1.4998605

> <a_nB>
0

> <a_nBr>
0

> <a_nC>
14

> <a_nCl>
0

> <a_nF>
0

> <a_nH>
22

> <a_nI>
0

> <a_nN>
2

> <a_nO>
3

> <a_nP>
0

> <a_nS>
0

> <balabanJ>
2.0923667

> <BCUT_PEOE_0>
-2.6557279

> <BCUT_PEOE_1>
-0.54978114

> <BCUT_PEOE_2>
0.53369218

> <BCUT_PEOE_3>
2.5983081

> <BCUT_SLOGP_0>
-2.8163364

> <BCUT_SLOGP_1>
-0.52488357

> <BCUT_SLOGP_2>
0.53635091

> <BCUT_SLOGP_3>
2.5236678

> <BCUT_SMR_0>
-2.3943934

> <BCUT_SMR_1>
-0.37793788

> <BCUT_SMR_2>
0.66722882

> <BCUT_SMR_3>
2.8449204

> <bpol>
26.924555

> <b_1rotN>
8

> <b_1rotR>
0.42105263

> <b_ar>
6

> <b_count>
41

> <b_double>
1

> <b_heavy>
19

> <b_max1len>
7

> <b_rotN>
8

> <b_rotR>
0.42105263

> <b_single>
34

> <b_triple>
0

> <chi0>
14.250712

> <chi0v>
11.426482

> <chi0v_C>
9.0854216

> <chi0_C>
9.8364992

> <chi1>
8.9692345

> <chi1v>
6.3856969

> <chi1v_C>
4.499671

> <chi1_C>
5.4206867

> <chiral>
1

> <chiral_u>
1

> <density>
0.70906228

> <diameter>
13

> <FCharge>
0

> <GCUT_PEOE_0>
-0.84582663

> <GCUT_PEOE_1>
-0.37746561

> <GCUT_PEOE_2>
0.078623474

> <GCUT_PEOE_3>
2.4665761

> <GCUT_SLOGP_0>
-1.3703803

> <GCUT_SLOGP_1>
-0.35748768

> <GCUT_SLOGP_2>
0.088685401

> <GCUT_SLOGP_3>
2.483628

> <GCUT_SMR_0>
-0.52159441

> <GCUT_SMR_1>
-0.21184398

> <GCUT_SMR_2>
0.15954033

> <GCUT_SMR_3>
2.7097878

> <Kier1>
17.052631

> <Kier2>
9.03125

> <Kier3>
8.0

> <KierA1>
13.794971

> <KierA2>
7.213623

> <KierA3>
6.3266873

> <KierFlex>
5.2374587

> <lip_acc>
5

> <lip_don>
4

> <lip_druglike>
1

> <lip_violation>
0

> <logP(o/w)>
0.73199999

> <logS>
-1.96767

> <mr>
7.4711394

> <mutagenic>
0

> <nmol>
1

> <opr_brigid>
6

> <opr_leadlike>
1

> <opr_nring>
1

> <opr_nrot>
8

> <opr_violation>
0

> <PC+>
0

> <PC->
0

> <PEOE_PC+>
1.9965822

> <PEOE_PC->
-1.9965822

> <PEOE_RPC+>
0.11156432

> <PEOE_RPC->
0.19445109

> <PEOE_VSA+0>
63.25753

> <PEOE_VSA+1>
66.873756

> <PEOE_VSA+2>
8.6190128

> <PEOE_VSA+3>
17.238026

> <PEOE_VSA+4>
23.273705

> <PEOE_VSA+5>
0.0

> <PEOE_VSA+6>
0.0

> <PEOE_VSA-0>
64.213699

> <PEOE_VSA-1>
24.509808

> <PEOE_VSA-2>
0.0

> <PEOE_VSA-3>
0.0

> <PEOE_VSA-4>
0.0

> <PEOE_VSA-5>
13.566921

> <PEOE_VSA-6>
17.059307

> <PEOE_VSA_FHYD>
0.8194983

> <PEOE_VSA_FNEG>
0.39968196

> <PEOE_VSA_FPNEG>
0.10256203

> <PEOE_VSA_FPOL>
0.1805017

> <PEOE_VSA_FPOS>
0.60031801

> <PEOE_VSA_FPPOS>
0.077939674

> <PEOE_VSA_HYD>
244.71184

> <PEOE_VSA_NEG>
119.34974

> <PEOE_VSA_PNEG>
30.626228

> <PEOE_VSA_POL>
53.899933

> <PEOE_VSA_POS>
179.26202

> <PEOE_VSA_PPOS>
23.273705

> <petitjean>
0.46153846

> <petitjeanSC>
0.85714287

> <Q_PC+>
0

> <Q_PC->
0

> <Q_RPC+>
0

> <Q_RPC->
0

> <Q_VSA_FHYD>
1

> <Q_VSA_FNEG>
0

> <Q_VSA_FPNEG>
0

> <Q_VSA_FPOL>
0

> <Q_VSA_FPOS>
1

> <Q_VSA_FPPOS>
0

> <Q_VSA_HYD>
298.61176

> <Q_VSA_NEG>
0

> <Q_VSA_PNEG>
0

> <Q_VSA_POL>
0

> <Q_VSA_POS>
298.61176

> <Q_VSA_PPOS>
0

> <radius>
7

> <reactive>
0

> <rings>
1

> <RPC+>
0

> <RPC->
0

> <rsynth>
1.0

> <SlogP>
0.45207

> <SlogP_VSA0>
87.293053

> <SlogP_VSA1>
5.2587838

> <SlogP_VSA2>
34.312836

> <SlogP_VSA3>
39.365837

> <SlogP_VSA4>
3.185575

> <SlogP_VSA5>
18.868406

> <SlogP_VSA6>
0.0

> <SlogP_VSA7>
70.572739

> <SlogP_VSA8>
0.0

> <SlogP_VSA9>
71.895454

> <SMR>
7.3980899

> <SMR_VSA0>
23.862217

> <SMR_VSA1>
36.385113

> <SMR_VSA2>
18.01075

> <SMR_VSA3>
18.879622

> <SMR_VSA4>
32.897186

> <SMR_VSA5>
89.441139

> <SMR_VSA6>
44.624619

> <SMR_VSA7>
66.652031

> <TPSA>
84.580002

> <VAdjEq>
0.48546076

> <VAdjMa>
5.2479277

> <VDistEq>
3.5080242

> <VDistMa>
8.1378775

> <vdw_area>
298.61176

> <vdw_vol>
375.62427

> <vsa_acc>
16.070677

> <vsa_acid>
0

> <vsa_base>
0

> <vsa_don>
17.742489

> <vsa_hyd>
206.04248

> <vsa_other>
12.949531

> <vsa_pol>
53.062664

> <Weight>
266.341

> <weinerPath>
890

> <weinerPol>
21

> <zagreb>
86

$$$$
Row1440
 OpenBabel06061811532D

 43 46  0  0  1  0  0  0  0  0999 V2000
    0.0000    0.0000    0.0000 F   0  0  0  0  0  0  0  0  0  0  0  0
    0.0000    0.0000    0.0000 C   0  0  0  0  0  0  0  0  0  0  0  0
    0.0000    0.0000    0.0000 C   0  0  0  0  0  0  0  0  0  0  0  0
    0.0000    0.0000    0.0000 C   0  0  0  0  0  0  0  0  0  0  0  0
    0.0000    0.0000    0.0000 C   0  0  0  0  0  0  0  0  0  0  0  0
    0.0000    0.0000    0.0000 C   0  0  0  0  0  0  0  0  0  0  0  0
    0.0000    0.0000    0.0000 C   0  0  0  0  0  0  0  0  0  0  0  0
    0.0000    0.0000    0.0000 C   0  0  0  0  0  0  0  0  0  0  0  0
    0.0000    0.0000    0.0000 N   0  0  0  0  0  0  0  0  0  0  0  0
    0.0000    0.0000    0.0000 C   0  0  0  0  0  0  0  0  0  0  0  0
    0.0000    0.0000    0.0000 C   0  0  0  0  0  0  0  0  0  0  0  0
    0.0000    0.0000    0.0000 C   0  0  1  0  0  0  0  0  0  0  0  0
    0.0000    0.0000    0.0000 H   0  0  0  0  0  0  0  0  0  0  0  0
    0.0000    0.0000    0.0000 O   0  0  0  0  0  0  0  0  0  0  0  0
    0.0000    0.0000    0.0000 C   0  0  0  0  0  0  0  0  0  0  0  0
    0.0000    0.0000    0.0000 C   0  0  2  0  0  0  0  0  0  0  0  0
    0.0000    0.0000    0.0000 H   0  0  0  0  0  0  0  0  0  0  0  0
    0.0000    0.0000    0.0000 O   0  0  0  0  0  0  0  0  0  0  0  0
    0.0000    0.0000    0.0000 C   0  0  0  0  0  0  0  0  0  0  0  0
    0.0000    0.0000    0.0000 C   0  0  0  0  0  0  0  0  0  0  0  0
    0.0000    0.0000    0.0000 O   0  0  0  0  0  0  0  0  0  0  0  0
    0.0000    0.0000    0.0000 O   0  0  0  0  0  0  0  0  0  0  0  0
    0.0000    0.0000    0.0000 C   0  0  0  0  0  0  0  0  0  0  0  0
    0.0000    0.0000    0.0000 C   0  0  0  0  0  0  0  0  0  0  0  0
    0.0000    0.0000    0.0000 C   0  0  0  0  0  0  0  0  0  0  0  0
    0.0000    0.0000    0.0000 C   0  0  0  0  0  0  0  0  0  0  0  0
    0.0000    0.0000    0.0000 C   0  0  0  0  0  0  0  0  0  0  0  0
    0.0000    0.0000    0.0000 C   0  0  0  0  0  0  0  0  0  0  0  0
    0.0000    0.0000    0.0000 O   0  0  0  0  0  0  0  0  0  0  0  0
    0.0000    0.0000    0.0000 N   0  0  0  0  0  0  0  0  0  0  0  0
    0.0000    0.0000    0.0000 C   0  0  0  0  0  0  0  0  0  0  0  0
    0.0000    0.0000    0.0000 C   0  0  0  0  0  0  0  0  0  0  0  0
    0.0000    0.0000    0.0000 C   0  0  0  0  0  0  0  0  0  0  0  0
    0.0000    0.0000    0.0000 C   0  0  0  0  0  0  0  0  0  0  0  0
    0.0000    0.0000    0.0000 C   0  0  0  0  0  0  0  0  0  0  0  0
    0.0000    0.0000    0.0000 C   0  0  0  0  0  0  0  0  0  0  0  0
    0.0000    0.0000    0.0000 C   0  0  0  0  0  0  0  0  0  0  0  0
    0.0000    0.0000    0.0000 C   0  0  0  0  0  0  0  0  0  0  0  0
    0.0000    0.0000    0.0000 C   0  0  0  0  0  0  0  0  0  0  0  0
    0.0000    0.0000    0.0000 C   0  0  0  0  0  0  0  0  0  0  0  0
    0.0000    0.0000    0.0000 C   0  0  0  0  0  0  0  0  0  0  0  0
    0.0000    0.0000    0.0000 C   0  0  0  0  0  0  0  0  0  0  0  0
    0.0000    0.0000    0.0000 C   0  0  0  0  0  0  0  0  0  0  0  0
  1  2  1  0  0  0  0
  2  7  1  0  0  0  0
  2  3  2  0  0  0  0
  3  4  1  0  0  0  0
  4  5  2  0  0  0  0
  5  6  1  0  0  0  0
  5  8  1  0  0  0  0
  6  7  2  0  0  0  0
  8 37  2  0  0  0  0
  8  9  1  0  0  0  0
  9 10  1  0  0  0  0
  9 23  1  0  0  0  0
 10 11  1  0  0  0  0
 11 12  1  0  0  0  0
 12 13  1  0  0  0  0
 12 14  1  0  0  0  0
 12 15  1  0  0  0  0
 15 16  1  0  0  0  0
 16 17  1  0  0  0  0
 16 18  1  0  0  0  0
 16 19  1  0  0  0  0
 19 20  1  0  0  0  0
 20 21  1  0  0  0  0
 20 22  2  0  0  0  0
 23 24  1  0  0  0  0
 23 27  2  0  0  0  0
 24 25  1  0  0  0  0
 24 26  1  0  0  0  0
 27 28  1  0  0  0  0
 27 37  1  0  0  0  0
 28 29  2  0  0  0  0
 28 30  1  0  0  0  0
 30 31  1  0  0  0  0
 31 36  1  0  0  0  0
 31 32  2  0  0  0  0
 32 33  1  0  0  0  0
 33 34  2  0  0  0  0
 34 35  1  0  0  0  0
 35 36  2  0  0  0  0
 37 38  1  0  0  0  0
 38 43  1  0  0  0  0
 38 39  2  0  0  0  0
 39 40  1  0  0  0  0
 40 41  2  0  0  0  0
 41 42  1  0  0  0  0
 42 43  2  0  0  0  0
M  END
> <Index>
1441

> <ID>
HT0194

> <class>
1

> <apol>
88.184753

> <ast_fraglike>
0

> <ast_fraglike_ext>
0

> <ast_violation>
4

> <ast_violation_ext>
6

> <a_acc>
5

> <a_acid>
0

> <a_aro>
23

> <a_base>
0

> <a_count>
76

> <a_don>
5

> <a_donacc>
10

> <a_heavy>
41

> <a_hyd>
32

> <a_IC>
115.24294

> <a_ICM>
1.5163544

> <a_nB>
0

> <a_nBr>
0

> <a_nC>
33

> <a_nCl>
0

> <a_nF>
1

> <a_nH>
35

> <a_nI>
0

> <a_nN>
2

> <a_nO>
5

> <a_nP>
0

> <a_nS>
0

> <balabanJ>
1.6197494

> <BCUT_PEOE_0>
-2.6582181

> <BCUT_PEOE_1>
-0.61444575

> <BCUT_PEOE_2>
0.64786941

> <BCUT_PEOE_3>
2.6694272

> <BCUT_SLOGP_0>
-2.6799793

> <BCUT_SLOGP_1>
-0.53807992

> <BCUT_SLOGP_2>
0.76383853

> <BCUT_SLOGP_3>
2.6989877

> <BCUT_SMR_0>
-2.4296949

> <BCUT_SMR_1>
-0.43970054

> <BCUT_SMR_2>
0.81012928

> <BCUT_SMR_3>
2.8949981

> <bpol>
44.021244

> <b_1rotN>
12

> <b_1rotR>
0.27272728

> <b_ar>
23

> <b_count>
79

> <b_double>
2

> <b_heavy>
44

> <b_max1len>
7

> <b_rotN>
13

> <b_rotR>
0.29545453

> <b_single>
54

> <b_triple>
0

> <chi0>
29.517933

> <chi0v>
23.126698

> <chi0v_C>
19.643381

> <chi0_C>
22.233475

> <chi1>
19.650774

> <chi1v>
13.673333

> <chi1v_C>
11.072657

> <chi1_C>
14.295261

> <chiral>
2

> <chiral_u>
0

> <density>
0.73044056

> <diameter>
16

> <FCharge>
0

> <GCUT_PEOE_0>
-0.86431527

> <GCUT_PEOE_1>
-0.38880157

> <GCUT_PEOE_2>
0.081467248

> <GCUT_PEOE_3>
3.0258491

> <GCUT_SLOGP_0>
-0.99314773

> <GCUT_SLOGP_1>
-0.30351847

> <GCUT_SLOGP_2>
0.16445385

> <GCUT_SLOGP_3>
3.1356325

> <GCUT_SMR_0>
-0.52945793

> <GCUT_SMR_1>
-0.21605732

> <GCUT_SMR_2>
0.19305076

> <GCUT_SMR_3>
3.3064413

> <Kier1>
33.884296

> <Kier2>
16.350443

> <Kier3>
9.2549267

> <KierA1>
25.058489

> <KierA2>
11.994308

> <KierA3>
6.75002

> <KierFlex>
7.3307133

> <lip_acc>
7

> <lip_don>
4

> <lip_druglike>
0

> <lip_violation>
2

> <logP(o/w)>
6.6469998

> <logS>
-7.4017901

> <mr>
15.810797

> <mutagenic>
0

> <nmol>
1

> <opr_brigid>
23

> <opr_leadlike>
0

> <opr_nring>
4

> <opr_nrot>
12

> <opr_violation>
3

> <PC+>
0

> <PC->
0

> <PEOE_PC+>
3.3621049

> <PEOE_PC->
-3.3621049

> <PEOE_RPC+>
0.07794632

> <PEOE_RPC->
0.11648684

> <PEOE_VSA+0>
92.780754

> <PEOE_VSA+1>
95.665436

> <PEOE_VSA+2>
9.0208454

> <PEOE_VSA+3>
8.6190128

> <PEOE_VSA+4>
30.972517

> <PEOE_VSA+5>
27.65803

> <PEOE_VSA+6>
0.0

> <PEOE_VSA-0>
95.349129

> <PEOE_VSA-1>
135.53459

> <PEOE_VSA-2>
0.0

> <PEOE_VSA-3>
0.0

> <PEOE_VSA-4>
11.908636

> <PEOE_VSA-5>
27.133842

> <PEOE_VSA-6>
23.439512

> <PEOE_VSA_FHYD>
0.78298444

> <PEOE_VSA_FNEG>
0.52566743

> <PEOE_VSA_FPNEG>
0.11195838

> <PEOE_VSA_FPOL>
0.21701555

> <PEOE_VSA_FPOS>
0.47433254

> <PEOE_VSA_FPPOS>
0.10505717

> <PEOE_VSA_HYD>
436.96976

> <PEOE_VSA_NEG>
293.36569

> <PEOE_VSA_PNEG>
62.481991

> <PEOE_VSA_POL>
121.11253

> <PEOE_VSA_POS>
264.71661

> <PEOE_VSA_PPOS>
58.630547

> <petitjean>
0.5

> <petitjeanSC>
1.0

> <Q_PC+>
0

> <Q_PC->
0

> <Q_RPC+>
0

> <Q_RPC->
0

> <Q_VSA_FHYD>
1

> <Q_VSA_FNEG>
0

> <Q_VSA_FPNEG>
0

> <Q_VSA_FPOL>
0

> <Q_VSA_FPOS>
1

> <Q_VSA_FPPOS>
0

> <Q_VSA_HYD>
558.08234

> <Q_VSA_NEG>
0

> <Q_VSA_PNEG>
0

> <Q_VSA_POL>
0

> <Q_VSA_POS>
558.08234

> <Q_VSA_PPOS>
0

> <radius>
8

> <reactive>
0

> <rings>
4

> <RPC+>
0

> <RPC->
0

> <rsynth>
1.0

> <SlogP>
6.5799999

> <SlogP_VSA0>
50.770454

> <SlogP_VSA1>
32.914093

> <SlogP_VSA2>
45.920532

> <SlogP_VSA3>
25.385227

> <SlogP_VSA4>
29.804539

> <SlogP_VSA5>
0.0

> <SlogP_VSA6>
4.4107962

> <SlogP_VSA7>
259.31805

> <SlogP_VSA8>
56.605217

> <SlogP_VSA9>
102.80847

> <SMR>
15.74516

> <SMR_VSA0>
47.724434

> <SMR_VSA1>
67.629662

> <SMR_VSA2>
34.506245

> <SMR_VSA3>
23.290417

> <SMR_VSA4>
33.080971

> <SMR_VSA5>
322.04938

> <SMR_VSA6>
13.004248

> <SMR_VSA7>
66.652031

> <TPSA>
111.79

> <VAdjEq>
0.29629606

> <VAdjMa>
6.4594316

> <VDistEq>
3.703932

> <VDistMa>
10.481159

> <vdw_area>
558.08234

> <vdw_vol>
764.81244

> <vsa_acc>
13.566921

> <vsa_acid>
0

> <vsa_base>
0

> <vsa_don>
5.6825762

> <vsa_hyd>
416.84869

> <vsa_other>
27.65803

> <vsa_pol>
73.517181

> <Weight>
558.64996

> <weinerPath>
5382

> <weinerPol>
65

> <zagreb>
210

$$$$
Row1441
 OpenBabel06061811532D

 20 22  0  0  0  0  0  0  0  0999 V2000
    0.0000    0.0000    0.0000 S   0  0  0  0  0  0  0  0  0  0  0  0
    0.0000    0.0000    0.0000 C   0  0  0  0  0  0  0  0  0  0  0  0
    0.0000    0.0000    0.0000 N   0  0  0  0  0  0  0  0  0  0  0  0
    0.0000    0.0000    0.0000 C   0  0  0  0  0  0  0  0  0  0  0  0
    0.0000    0.0000    0.0000 N   0  0  0  0  0  0  0  0  0  0  0  0
    0.0000    0.0000    0.0000 C   0  0  0  0  0  0  0  0  0  0  0  0
    0.0000    0.0000    0.0000 N   0  3  0  0  0  0  0  0  0  0  0  0
    0.0000    0.0000    0.0000 O   0  0  0  0  0  0  0  0  0  0  0  0
    0.0000    0.0000    0.0000 O   0  5  0  0  0  0  0  0  0  0  0  0
    0.0000    0.0000    0.0000 C   0  0  0  0  0  0  0  0  0  0  0  0
    0.0000    0.0000    0.0000 C   0  0  0  0  0  0  0  0  0  0  0  0
    0.0000    0.0000    0.0000 N   0  0  0  0  0  0  0  0  0  0  0  0
    0.0000    0.0000    0.0000 C   0  0  0  0  0  0  0  0  0  0  0  0
    0.0000    0.0000    0.0000 N   0  0  0  0  0  0  0  0  0  0  0  0
    0.0000    0.0000    0.0000 C   0  0  0  0  0  0  0  0  0  0  0  0
    0.0000    0.0000    0.0000 N   0  0  0  0  0  0  0  0  0  0  0  0
    0.0000    0.0000    0.0000 C   0  0  0  0  0  0  0  0  0  0  0  0
    0.0000    0.0000    0.0000 N   0  0  0  0  0  0  0  0  0  0  0  0
    0.0000    0.0000    0.0000 H   0  0  0  0  0  0  0  0  0  0  0  0
    0.0000    0.0000    0.0000 C   0  0  0  0  0  0  0  0  0  0  0  0
  1  2  1  0  0  0  0
  1 11  1  0  0  0  0
  2  6  2  0  0  0  0
  2  3  1  0  0  0  0
  3  4  1  0  0  0  0
  3 10  1  0  0  0  0
  4  5  2  0  0  0  0
  5  6  1  0  0  0  0
  6  7  1  0  0  0  0
  7  8  2  0  0  0  0
  7  9  1  0  0  0  0
 11 20  1  0  0  0  0
 11 12  2  0  0  0  0
 12 13  1  0  0  0  0
 13 14  2  0  0  0  0
 14 15  1  0  0  0  0
 15 20  2  0  0  0  0
 15 16  1  0  0  0  0
 16 17  2  0  0  0  0
 17 18  1  0  0  0  0
 18 19  1  0  0  0  0
 18 20  1  0  0  0  0
M  CHG  2   7   1   9  -1
M  END
> <Index>
1442

> <ID>
HT0213

> <class>
1

> <apol>
32.711552

> <ast_fraglike>
0

> <ast_fraglike_ext>
0

> <ast_violation>
1

> <ast_violation_ext>
1

> <a_acc>
5

> <a_acid>
0

> <a_aro>
14

> <a_base>
0

> <a_count>
26

> <a_don>
2

> <a_donacc>
7

> <a_heavy>
19

> <a_hyd>
6

> <a_IC>
52.379139

> <a_ICM>
2.0145822

> <a_nB>
0

> <a_nBr>
0

> <a_nC>
9

> <a_nCl>
0

> <a_nF>
0

> <a_nH>
7

> <a_nI>
0

> <a_nN>
7

> <a_nO>
2

> <a_nP>
0

> <a_nS>
1

> <balabanJ>
1.6645358

> <BCUT_PEOE_0>
-2.1904109

> <BCUT_PEOE_1>
-0.54032129

> <BCUT_PEOE_2>
0.64188659

> <BCUT_PEOE_3>
2.3267589

> <BCUT_SLOGP_0>
-2.1389122

> <BCUT_SLOGP_1>
-0.48006645

> <BCUT_SLOGP_2>
0.69107044

> <BCUT_SLOGP_3>
2.4113948

> <BCUT_SMR_0>
-1.9584546

> <BCUT_SMR_1>
-0.34156439

> <BCUT_SMR_2>
0.87763941

> <BCUT_SMR_3>
2.5727165

> <bpol>
19.10845

> <b_1rotN>
3

> <b_1rotR>
0.14285715

> <b_ar>
15

> <b_count>
28

> <b_double>
1

> <b_heavy>
21

> <b_max1len>
2

> <b_rotN>
3

> <b_rotR>
0.14285715

> <b_single>
12

> <b_triple>
0

> <chi0>
13.405413

> <chi0v>
10.456573

> <chi0v_C>
5.2320509

> <chi0_C>
6.0080719

> <chi1>
9.1647034

> <chi1v>
5.9584174

> <chi1v_C>
0.75

> <chi1_C>
1.0

> <chiral>
0

> <chiral_u>
0

> <density>
0.92871672

> <diameter>
8

> <FCharge>
0

> <GCUT_PEOE_0>
-0.82919872

> <GCUT_PEOE_1>
-0.49748722

> <GCUT_PEOE_2>
0.081541806

> <GCUT_PEOE_3>
2.2821527

> <GCUT_SLOGP_0>
-0.81021786

> <GCUT_SLOGP_1>
-0.30038774

> <GCUT_SLOGP_2>
0.17920586

> <GCUT_SLOGP_3>
2.3607941

> <GCUT_SMR_0>
-0.49305633

> <GCUT_SMR_1>
-0.1790707

> <GCUT_SMR_2>
0.28820339

> <GCUT_SMR_3>
2.554122

> <Kier1>
13.959184

> <Kier2>
5.7800002

> <Kier3>
2.7412255

> <KierA1>
10.051

> <KierA2>
4.0788455

> <KierA3>
1.904129

> <KierFlex>
2.1577094

> <lip_acc>
9

> <lip_don>
1

> <lip_druglike>
1

> <lip_violation>
0

> <logP(o/w)>
1.03306

> <logS>
-4.5394402

> <mr>
6.674623

> <mutagenic>
1

> <nmol>
1

> <opr_brigid>
15

> <opr_leadlike>
1

> <opr_nring>
3

> <opr_nrot>
3

> <opr_violation>
1

> <PC+>
0

> <PC->
0

> <PEOE_PC+>
2.2065444

> <PEOE_PC->
-2.2065444

> <PEOE_RPC+>
0.1566952

> <PEOE_RPC->
0.17765886

> <PEOE_VSA+0>
0.0

> <PEOE_VSA+1>
57.271774

> <PEOE_VSA+2>
49.408249

> <PEOE_VSA+3>
19.809576

> <PEOE_VSA+4>
29.91254

> <PEOE_VSA+5>
0.0

> <PEOE_VSA+6>
11.190562

> <PEOE_VSA-0>
19.760618

> <PEOE_VSA-1>
9.7106104

> <PEOE_VSA-2>
0.0

> <PEOE_VSA-3>
0.0

> <PEOE_VSA-4>
17.047728

> <PEOE_VSA-5>
0.0

> <PEOE_VSA-6>
34.06794

> <PEOE_VSA_FHYD>
0.62841922

> <PEOE_VSA_FNEG>
0.32471201

> <PEOE_VSA_FPNEG>
0.2059624

> <PEOE_VSA_FPOL>
0.37158078

> <PEOE_VSA_FPOS>
0.67528796

> <PEOE_VSA_FPPOS>
0.16561837

> <PEOE_VSA_HYD>
155.96083

> <PEOE_VSA_NEG>
80.586899

> <PEOE_VSA_PNEG>
51.115669

> <PEOE_VSA_POL>
92.218773

> <PEOE_VSA_POS>
167.5927

> <PEOE_VSA_PPOS>
41.103104

> <petitjean>
0.5

> <petitjeanSC>
1.0

> <Q_PC+>
0

> <Q_PC->
0

> <Q_RPC+>
0

> <Q_RPC->
0

> <Q_VSA_FHYD>
1

> <Q_VSA_FNEG>
0

> <Q_VSA_FPNEG>
0

> <Q_VSA_FPOL>
0

> <Q_VSA_FPOS>
1

> <Q_VSA_FPPOS>
0

> <Q_VSA_HYD>
248.1796

> <Q_VSA_NEG>
0

> <Q_VSA_PNEG>
0

> <Q_VSA_POL>
0

> <Q_VSA_POS>
248.1796

> <Q_VSA_PPOS>
0

> <radius>
4

> <reactive>
1

> <rings>
3

> <RPC+>
0

> <RPC->
0

> <rsynth>
1.0

> <SlogP>
1.505

> <SlogP_VSA0>
0.0

> <SlogP_VSA1>
76.126823

> <SlogP_VSA2>
16.78553

> <SlogP_VSA3>
50.935009

> <SlogP_VSA4>
0.0

> <SlogP_VSA5>
2.243813

> <SlogP_VSA6>
0.0

> <SlogP_VSA7>
54.216034

> <SlogP_VSA8>
0.0

> <SlogP_VSA9>
67.444649

> <SMR>
6.5951099

> <SMR_VSA0>
7.0856161

> <SMR_VSA1>
69.041214

> <SMR_VSA2>
69.964348

> <SMR_VSA3>
0.0

> <SMR_VSA4>
6.187367

> <SMR_VSA5>
50.35659

> <SMR_VSA6>
0.0

> <SMR_VSA7>
65.11673

> <TPSA>
118.1

> <VAdjEq>
0.51875818

> <VAdjMa>
5.3923173

> <VDistEq>
2.9087162

> <VDistMa>
8.2176237

> <vdw_area>
248.1796

> <vdw_vol>
298.54959

> <vsa_acc>
17.047728

> <vsa_acid>
0

> <vsa_base>
0

> <vsa_don>
0.0

> <vsa_hyd>
81.738892

> <vsa_other>
130.68373

> <vsa_pol>
28.41288

> <Weight>
277.26801

> <weinerPath>
676

> <weinerPol>
28

> <zagreb>
102

$$$$
Row1442
 OpenBabel06061811532D

 27 30  0  0  1  0  0  0  0  0999 V2000
    0.0000    0.0000    0.0000 Cl  0  0  0  0  0  0  0  0  0  0  0  0
    0.0000    0.0000    0.0000 C   0  0  0  0  0  0  0  0  0  0  0  0
    0.0000    0.0000    0.0000 C   0  0  0  0  0  0  0  0  0  0  0  0
    0.0000    0.0000    0.0000 C   0  0  0  0  0  0  0  0  0  0  0  0
    0.0000    0.0000    0.0000 C   0  0  0  0  0  0  0  0  0  0  0  0
    0.0000    0.0000    0.0000 C   0  0  0  0  0  0  0  0  0  0  0  0
    0.0000    0.0000    0.0000 C   0  0  0  0  0  0  0  0  0  0  0  0
    0.0000    0.0000    0.0000 C   0  0  0  0  0  0  0  0  0  0  0  0
    0.0000    0.0000    0.0000 C   0  0  0  0  0  0  0  0  0  0  0  0
    0.0000    0.0000    0.0000 N   0  0  0  0  0  0  0  0  0  0  0  0
    0.0000    0.0000    0.0000 N   0  0  0  0  0  0  0  0  0  0  0  0
    0.0000    0.0000    0.0000 C   0  0  3  0  0  0  0  0  0  0  0  0
    0.0000    0.0000    0.0000 C   0  0  0  0  0  0  0  0  0  0  0  0
    0.0000    0.0000    0.0000 C   0  0  0  0  0  0  0  0  0  0  0  0
    0.0000    0.0000    0.0000 C   0  0  0  0  0  0  0  0  0  0  0  0
    0.0000    0.0000    0.0000 N   0  0  0  0  0  0  0  0  0  0  0  0
    0.0000    0.0000    0.0000 C   0  0  0  0  0  0  0  0  0  0  0  0
    0.0000    0.0000    0.0000 C   0  0  0  0  0  0  0  0  0  0  0  0
    0.0000    0.0000    0.0000 C   0  0  0  0  0  0  0  0  0  0  0  0
    0.0000    0.0000    0.0000 C   0  0  0  0  0  0  0  0  0  0  0  0
    0.0000    0.0000    0.0000 O   0  0  0  0  0  0  0  0  0  0  0  0
    0.0000    0.0000    0.0000 C   0  0  0  0  0  0  0  0  0  0  0  0
    0.0000    0.0000    0.0000 C   0  0  0  0  0  0  0  0  0  0  0  0
    0.0000    0.0000    0.0000 C   0  0  0  0  0  0  0  0  0  0  0  0
    0.0000    0.0000    0.0000 C   0  0  0  0  0  0  0  0  0  0  0  0
    0.0000    0.0000    0.0000 C   0  0  0  0  0  0  0  0  0  0  0  0
    0.0000    0.0000    0.0000 C   0  0  0  0  0  0  0  0  0  0  0  0
  1  2  1  0  0  0  0
  2  7  1  0  0  0  0
  2  3  2  0  0  0  0
  3  4  1  0  0  0  0
  4  5  2  0  0  0  0
  5  6  1  0  0  0  0
  5  8  1  0  0  0  0
  6  7  2  0  0  0  0
  8  9  1  0  0  0  0
  9 23  1  0  0  0  0
  9 10  2  0  0  0  0
 10 11  1  0  0  0  0
 11 12  1  0  0  0  0
 11 20  1  0  0  0  0
 12 18  1  0  0  0  0
 12 13  1  0  0  0  0
 13 14  1  0  0  0  0
 14 15  1  0  0  0  0
 15 16  1  0  0  0  0
 16 17  1  0  0  0  0
 16 19  1  0  0  0  0
 17 18  1  0  0  0  0
 20 21  2  0  0  0  0
 20 22  1  0  0  0  0
 22 27  1  0  0  0  0
 22 23  2  0  0  0  0
 23 24  1  0  0  0  0
 24 25  2  0  0  0  0
 25 26  1  0  0  0  0
 26 27  2  0  0  0  0
M  END
> <Index>
1443

> <ID>
HT0215

> <class>
1

> <apol>
61.005032

> <ast_fraglike>
0

> <ast_fraglike_ext>
0

> <ast_violation>
2

> <ast_violation_ext>
3

> <a_acc>
3

> <a_acid>
0

> <a_aro>
12

> <a_base>
0

> <a_count>
51

> <a_don>
0

> <a_donacc>
3

> <a_heavy>
27

> <a_hyd>
21

> <a_IC>
76.392212

> <a_ICM>
1.4978864

> <a_nB>
0

> <a_nBr>
0

> <a_nC>
22

> <a_nCl>
1

> <a_nF>
0

> <a_nH>
24

> <a_nI>
0

> <a_nN>
3

> <a_nO>
1

> <a_nP>
0

> <a_nS>
0

> <balabanJ>
1.4578929

> <BCUT_PEOE_0>
-2.6456769

> <BCUT_PEOE_1>
-0.58293182

> <BCUT_PEOE_2>
0.61854106

> <BCUT_PEOE_3>
2.7204919

> <BCUT_SLOGP_0>
-2.7050517

> <BCUT_SLOGP_1>
-0.45991904

> <BCUT_SLOGP_2>
0.77035224

> <BCUT_SLOGP_3>
2.7236266

> <BCUT_SMR_0>
-2.3995869

> <BCUT_SMR_1>
-0.42127848

> <BCUT_SMR_2>
0.84790421

> <BCUT_SMR_3>
2.9760249

> <bpol>
31.574968

> <b_1rotN>
3

> <b_1rotR>
0.1

> <b_ar>
12

> <b_count>
54

> <b_double>
2

> <b_heavy>
30

> <b_max1len>
2

> <b_rotN>
3

> <b_rotR>
0.1

> <b_single>
40

> <b_triple>
0

> <chi0>
18.802753

> <chi0v>
16.322577

> <chi0v_C>
13.438793

> <chi0_C>
14.940947

> <chi1>
13.114194

> <chi1v>
9.9284735

> <chi1v_C>
7.1723208

> <chi1_C>
9.0824833

> <chiral>
1

> <chiral_u>
1

> <density>
0.73172933

> <diameter>
13

> <FCharge>
0

> <GCUT_PEOE_0>
-0.86082941

> <GCUT_PEOE_1>
-0.37751207

> <GCUT_PEOE_2>
0.066958979

> <GCUT_PEOE_3>
2.8378668

> <GCUT_SLOGP_0>
-0.95298767

> <GCUT_SLOGP_1>
-0.28820387

> <GCUT_SLOGP_2>
0.15513127

> <GCUT_SLOGP_3>
2.8705862

> <GCUT_SMR_0>
-0.52623749

> <GCUT_SMR_1>
-0.19529872

> <GCUT_SMR_2>
0.20026559

> <GCUT_SMR_3>
3.1020625

> <Kier1>
20.280001

> <Kier2>
9.212018

> <Kier3>
4.7755103

> <KierA1>
16.249695

> <KierA2>
7.3144426

> <KierA3>
3.7662432

> <KierFlex>
4.4021282

> <lip_acc>
4

> <lip_don>
0

> <lip_druglike>
1

> <lip_violation>
0

> <logP(o/w)>
5.1599998

> <logS>
-5.3011599

> <mr>
10.949705

> <mutagenic>
0

> <nmol>
1

> <opr_brigid>
24

> <opr_leadlike>
1

> <opr_nring>
4

> <opr_nrot>
6

> <opr_violation>
0

> <PC+>
0

> <PC->
0

> <PEOE_PC+>
1.6153067

> <PEOE_PC->
-1.6153067

> <PEOE_RPC+>
0.17040476

> <PEOE_RPC->
0.18897937

> <PEOE_VSA+0>
94.811256

> <PEOE_VSA+1>
48.233986

> <PEOE_VSA+2>
0.0

> <PEOE_VSA+3>
0.0

> <PEOE_VSA+4>
0.0

> <PEOE_VSA+5>
12.949531

> <PEOE_VSA+6>
0.0

> <PEOE_VSA-0>
101.5082

> <PEOE_VSA-1>
90.856468

> <PEOE_VSA-2>
0.0

> <PEOE_VSA-3>
9.4210396

> <PEOE_VSA-4>
0.0

> <PEOE_VSA-5>
13.566921

> <PEOE_VSA-6>
0.0

> <PEOE_VSA_FHYD>
0.92859393

> <PEOE_VSA_FNEG>
0.57992226

> <PEOE_VSA_FPNEG>
0.036534309

> <PEOE_VSA_FPOL>
0.071406052

> <PEOE_VSA_FPOS>
0.42007771

> <PEOE_VSA_FPPOS>
0.034871742

> <PEOE_VSA_HYD>
344.83096

> <PEOE_VSA_NEG>
215.35263

> <PEOE_VSA_PNEG>
13.566921

> <PEOE_VSA_POL>
26.516451

> <PEOE_VSA_POS>
155.99477

> <PEOE_VSA_PPOS>
12.949531

> <petitjean>
0.46153846

> <petitjeanSC>
0.85714287

> <Q_PC+>
0

> <Q_PC->
0

> <Q_RPC+>
0

> <Q_RPC->
0

> <Q_VSA_FHYD>
1

> <Q_VSA_FNEG>
0

> <Q_VSA_FPNEG>
0

> <Q_VSA_FPOL>
0

> <Q_VSA_FPOS>
1

> <Q_VSA_FPPOS>
0

> <Q_VSA_HYD>
371.34741

> <Q_VSA_NEG>
0

> <Q_VSA_PNEG>
0

> <Q_VSA_POL>
0

> <Q_VSA_POS>
371.34741

> <Q_VSA_PPOS>
0

> <radius>
7

> <reactive>
0

> <rings>
4

> <RPC+>
0

> <RPC->
0

> <rsynth>
1.0

> <SlogP>
4.2268701

> <SlogP_VSA0>
0.0

> <SlogP_VSA1>
14.141637

> <SlogP_VSA2>
3.9819686

> <SlogP_VSA3>
36.879158

> <SlogP_VSA4>
33.418941

> <SlogP_VSA5>
68.428604

> <SlogP_VSA6>
3.5006065

> <SlogP_VSA7>
141.14548

> <SlogP_VSA8>
56.605217

> <SlogP_VSA9>
39.148643

> <SMR>
10.94405

> <SMR_VSA0>
23.862217

> <SMR_VSA1>
22.789114

> <SMR_VSA2>
0.0

> <SMR_VSA3>
17.039301

> <SMR_VSA4>
0.0

> <SMR_VSA5>
216.61909

> <SMR_VSA6>
44.894688

> <SMR_VSA7>
72.04583

> <TPSA>
35.91

> <VAdjEq>
0.41024774

> <VAdjMa>
5.9068904

> <VDistEq>
3.3823411

> <VDistMa>
9.2384777

> <vdw_area>
371.34741

> <vdw_vol>
521.92383

> <vsa_acc>
22.987961

> <vsa_acid>
0

> <vsa_base>
0

> <vsa_don>
0.0

> <vsa_hyd>
311.62726

> <vsa_other>
19.649082

> <vsa_pol>
22.987961

> <Weight>
381.90698

> <weinerPath>
1795

> <weinerPol>
47

> <zagreb>
144

$$$$
Row1443
 OpenBabel06061811532D

 67 69  0  0  1  0  0  0  0  0999 V2000
    0.0000    0.0000    0.0000 O   0  0  0  0  0  0  0  0  0  0  0  0
    0.0000    0.0000    0.0000 C   0  0  1  0  0  0  0  0  0  0  0  0
    0.0000    0.0000    0.0000 H   0  0  0  0  0  0  0  0  0  0  0  0
    0.0000    0.0000    0.0000 C   0  0  0  0  0  0  0  0  0  0  0  0
    0.0000    0.0000    0.0000 C   0  0  0  0  0  0  0  0  0  0  0  0
    0.0000    0.0000    0.0000 C   0  0  2  0  0  0  0  0  0  0  0  0
    0.0000    0.0000    0.0000 O   0  0  0  0  0  0  0  0  0  0  0  0
    0.0000    0.0000    0.0000 C   0  0  0  0  0  0  0  0  0  0  0  0
    0.0000    0.0000    0.0000 C   0  0  2  0  0  0  0  0  0  0  0  0
    0.0000    0.0000    0.0000 H   0  0  0  0  0  0  0  0  0  0  0  0
    0.0000    0.0000    0.0000 O   0  0  0  0  0  0  0  0  0  0  0  0
    0.0000    0.0000    0.0000 C   0  0  2  0  0  0  0  0  0  0  0  0
    0.0000    0.0000    0.0000 H   0  0  0  0  0  0  0  0  0  0  0  0
    0.0000    0.0000    0.0000 N   0  0  0  0  0  0  0  0  0  0  0  0
    0.0000    0.0000    0.0000 C   0  0  0  0  0  0  0  0  0  0  0  0
    0.0000    0.0000    0.0000 C   0  0  1  0  0  0  0  0  0  0  0  0
    0.0000    0.0000    0.0000 H   0  0  0  0  0  0  0  0  0  0  0  0
    0.0000    0.0000    0.0000 C   0  0  0  0  0  0  0  0  0  0  0  0
    0.0000    0.0000    0.0000 C   0  0  2  0  0  0  0  0  0  0  0  0
    0.0000    0.0000    0.0000 O   0  0  0  0  0  0  0  0  0  0  0  0
    0.0000    0.0000    0.0000 C   0  0  0  0  0  0  0  0  0  0  0  0
    0.0000    0.0000    0.0000 C   0  0  2  0  0  0  0  0  0  0  0  0
    0.0000    0.0000    0.0000 H   0  0  0  0  0  0  0  0  0  0  0  0
    0.0000    0.0000    0.0000 O   0  0  0  0  0  0  0  0  0  0  0  0
    0.0000    0.0000    0.0000 C   0  0  2  0  0  0  0  0  0  0  0  0
    0.0000    0.0000    0.0000 H   0  0  0  0  0  0  0  0  0  0  0  0
    0.0000    0.0000    0.0000 O   0  0  0  0  0  0  0  0  0  0  0  0
    0.0000    0.0000    0.0000 C   0  0  1  0  0  0  0  0  0  0  0  0
    0.0000    0.0000    0.0000 H   0  0  0  0  0  0  0  0  0  0  0  0
    0.0000    0.0000    0.0000 C   0  0  0  0  0  0  0  0  0  0  0  0
    0.0000    0.0000    0.0000 C   0  0  2  0  0  0  0  0  0  0  0  0
    0.0000    0.0000    0.0000 H   0  0  0  0  0  0  0  0  0  0  0  0
    0.0000    0.0000    0.0000 N   0  0  0  0  0  0  0  0  0  0  0  0
    0.0000    0.0000    0.0000 C   0  0  0  0  0  0  0  0  0  0  0  0
    0.0000    0.0000    0.0000 C   0  0  0  0  0  0  0  0  0  0  0  0
    0.0000    0.0000    0.0000 C   0  0  1  0  0  0  0  0  0  0  0  0
    0.0000    0.0000    0.0000 H   0  0  0  0  0  0  0  0  0  0  0  0
    0.0000    0.0000    0.0000 O   0  0  0  0  0  0  0  0  0  0  0  0
    0.0000    0.0000    0.0000 C   0  0  0  0  0  0  0  0  0  0  0  0
    0.0000    0.0000    0.0000 C   0  0  1  0  0  0  0  0  0  0  0  0
    0.0000    0.0000    0.0000 H   0  0  0  0  0  0  0  0  0  0  0  0
    0.0000    0.0000    0.0000 C   0  0  0  0  0  0  0  0  0  0  0  0
    0.0000    0.0000    0.0000 C   0  0  2  0  0  0  0  0  0  0  0  0
    0.0000    0.0000    0.0000 H   0  0  0  0  0  0  0  0  0  0  0  0
    0.0000    0.0000    0.0000 O   0  0  0  0  0  0  0  0  0  0  0  0
    0.0000    0.0000    0.0000 C   0  0  2  0  0  0  0  0  0  0  0  0
    0.0000    0.0000    0.0000 H   0  0  0  0  0  0  0  0  0  0  0  0
    0.0000    0.0000    0.0000 O   0  0  0  0  0  0  0  0  0  0  0  0
    0.0000    0.0000    0.0000 C   0  0  1  0  0  0  0  0  0  0  0  0
    0.0000    0.0000    0.0000 H   0  0  0  0  0  0  0  0  0  0  0  0
    0.0000    0.0000    0.0000 C   0  0  0  0  0  0  0  0  0  0  0  0
    0.0000    0.0000    0.0000 C   0  0  2  0  0  0  0  0  0  0  0  0
    0.0000    0.0000    0.0000 H   0  0  0  0  0  0  0  0  0  0  0  0
    0.0000    0.0000    0.0000 O   0  0  0  0  0  0  0  0  0  0  0  0
    0.0000    0.0000    0.0000 C   0  0  2  0  0  0  0  0  0  0  0  0
    0.0000    0.0000    0.0000 O   0  0  0  0  0  0  0  0  0  0  0  0
    0.0000    0.0000    0.0000 C   0  0  0  0  0  0  0  0  0  0  0  0
    0.0000    0.0000    0.0000 C   0  0  0  0  0  0  0  0  0  0  0  0
    0.0000    0.0000    0.0000 C   0  0  0  0  0  0  0  0  0  0  0  0
    0.0000    0.0000    0.0000 C   0  0  1  0  0  0  0  0  0  0  0  0
    0.0000    0.0000    0.0000 H   0  0  0  0  0  0  0  0  0  0  0  0
    0.0000    0.0000    0.0000 C   0  0  0  0  0  0  0  0  0  0  0  0
    0.0000    0.0000    0.0000 C   0  0  0  0  0  0  0  0  0  0  0  0
    0.0000    0.0000    0.0000 O   0  0  0  0  0  0  0  0  0  0  0  0
    0.0000    0.0000    0.0000 C   0  0  0  0  0  0  0  0  0  0  0  0
    0.0000    0.0000    0.0000 C   0  0  0  0  0  0  0  0  0  0  0  0
    0.0000    0.0000    0.0000 C   0  0  0  0  0  0  0  0  0  0  0  0
  1 63  1  0  0  0  0
  1  2  1  0  0  0  0
  2  3  1  0  0  0  0
  2  4  1  0  0  0  0
  2  6  1  0  0  0  0
  4  5  1  0  0  0  0
  6  7  1  0  0  0  0
  6  8  1  0  0  0  0
  6  9  1  0  0  0  0
  9 10  1  0  0  0  0
  9 11  1  0  0  0  0
  9 12  1  0  0  0  0
 12 13  1  0  0  0  0
 12 14  1  0  0  0  0
 12 67  1  0  0  0  0
 14 15  1  0  0  0  0
 14 66  1  0  0  0  0
 15 16  1  0  0  0  0
 16 17  1  0  0  0  0
 16 18  1  0  0  0  0
 16 65  1  0  0  0  0
 18 19  1  0  0  0  0
 19 20  1  0  0  0  0
 19 21  1  0  0  0  0
 19 22  1  0  0  0  0
 22 23  1  0  0  0  0
 22 24  1  0  0  0  0
 22 40  1  0  0  0  0
 24 25  1  0  0  0  0
 25 26  1  0  0  0  0
 25 36  1  0  0  0  0
 25 27  1  0  0  0  0
 27 28  1  0  0  0  0
 28 29  1  0  0  0  0
 28 30  1  0  0  0  0
 28 39  1  0  0  0  0
 30 31  1  0  0  0  0
 31 32  1  0  0  0  0
 31 33  1  0  0  0  0
 31 36  1  0  0  0  0
 33 34  1  0  0  0  0
 33 35  1  0  0  0  0
 36 37  1  0  0  0  0
 36 38  1  0  0  0  0
 40 41  1  0  0  0  0
 40 42  1  0  0  0  0
 40 43  1  0  0  0  0
 43 44  1  0  0  0  0
 43 45  1  0  0  0  0
 43 60  1  0  0  0  0
 45 46  1  0  0  0  0
 46 47  1  0  0  0  0
 46 58  1  0  0  0  0
 46 48  1  0  0  0  0
 48 49  1  0  0  0  0
 49 50  1  0  0  0  0
 49 51  1  0  0  0  0
 49 52  1  0  0  0  0
 52 53  1  0  0  0  0
 52 54  1  0  0  0  0
 52 55  1  0  0  0  0
 55 56  1  0  0  0  0
 55 58  1  0  0  0  0
 55 59  1  0  0  0  0
 56 57  1  0  0  0  0
 60 61  1  0  0  0  0
 60 62  1  0  0  0  0
 60 63  1  0  0  0  0
 63 64  2  0  0  0  0
M  END
> <Index>
1444

> <ID>
HT0218

> <class>
1

> <apol>
126.7131

> <ast_fraglike>
0

> <ast_fraglike_ext>
0

> <ast_violation>
3

> <ast_violation_ext>
5

> <a_acc>
13

> <a_acid>
0

> <a_aro>
0

> <a_base>
0

> <a_count>
124

> <a_don>
5

> <a_donacc>
18

> <a_heavy>
52

> <a_hyd>
35

> <a_IC>
173.64494

> <a_ICM>
1.4003625

> <a_nB>
0

> <a_nBr>
0

> <a_nC>
38

> <a_nCl>
0

> <a_nF>
0

> <a_nH>
72

> <a_nI>
0

> <a_nN>
2

> <a_nO>
12

> <a_nP>
0

> <a_nS>
0

> <balabanJ>
2.1699839

> <BCUT_PEOE_0>
-2.8237693

> <BCUT_PEOE_1>
-0.19827665

> <BCUT_PEOE_2>
0.10599933

> <BCUT_PEOE_3>
2.8394163

> <BCUT_SLOGP_0>
-2.9134974

> <BCUT_SLOGP_1>
-0.11147048

> <BCUT_SLOGP_2>
0.123

> <BCUT_SLOGP_3>
2.7768312

> <BCUT_SMR_0>
-2.5950146

> <BCUT_SMR_1>
0.053445451

> <BCUT_SMR_2>
0.16403291

> <BCUT_SMR_3>
3.0563562

> <bpol>
95.124901

> <b_1rotN>
7

> <b_1rotR>
0.12962963

> <b_ar>
0

> <b_count>
126

> <b_double>
1

> <b_heavy>
54

> <b_max1len>
5

> <b_rotN>
7

> <b_rotR>
0.12962963

> <b_single>
125

> <b_triple>
0

> <chi0>
39.670479

> <chi0v>
34.184021

> <chi0v_C>
28.195787

> <chi0_C>
28.273138

> <chi1>
23.908682

> <chi1v>
19.142532

> <chi1v_C>
12.604514

> <chi1_C>
12.649172

> <chiral>
18

> <chiral_u>
0

> <density>
0.71737373

> <diameter>
14

> <FCharge>
0

> <GCUT_PEOE_0>
-0.85633355

> <GCUT_PEOE_1>
-0.32564446

> <GCUT_PEOE_2>
-0.10762479

> <GCUT_PEOE_3>
3.5735762

> <GCUT_SLOGP_0>
-0.96484202

> <GCUT_SLOGP_1>
-0.33204842

> <GCUT_SLOGP_2>
-0.037

> <GCUT_SLOGP_3>
3.5450194

> <GCUT_SMR_0>
-0.53772414

> <GCUT_SMR_1>
-0.12661241

> <GCUT_SMR_2>
-0.041192144

> <GCUT_SMR_3>
3.7743726

> <Kier1>
46.382717

> <Kier2>
18.507767

> <Kier3>
10.699624

> <KierA1>
45.574188

> <KierA2>
18.178772

> <KierA3>
10.50689

> <KierFlex>
15.932362

> <lip_acc>
14

> <lip_don>
5

> <lip_druglike>
0

> <lip_violation>
2

> <logP(o/w)>
3.4289999

> <logS>
-3.6912899

> <mr>
19.448305

> <mutagenic>
0

> <nmol>
1

> <opr_brigid>
27

> <opr_leadlike>
0

> <opr_nring>
2

> <opr_nrot>
25

> <opr_violation>
3

> <PC+>
0

> <PC->
0

> <PEOE_PC+>
5.4299173

> <PEOE_PC->
-5.4299173

> <PEOE_RPC+>
0.049328651

> <PEOE_RPC->
0.071331121

> <PEOE_VSA+0>
283.51407

> <PEOE_VSA+1>
79.974663

> <PEOE_VSA+2>
14.714787

> <PEOE_VSA+3>
22.309816

> <PEOE_VSA+4>
51.620865

> <PEOE_VSA+5>
14.708499

> <PEOE_VSA+6>
0.0

> <PEOE_VSA-0>
208.30608

> <PEOE_VSA-1>
74.990707

> <PEOE_VSA-2>
0.0

> <PEOE_VSA-3>
0.0

> <PEOE_VSA-4>
0.0

> <PEOE_VSA-5>
13.566921

> <PEOE_VSA-6>
53.860237

> <PEOE_VSA_FHYD>
0.83639681

> <PEOE_VSA_FNEG>
0.42898515

> <PEOE_VSA_FPNEG>
0.08247298

> <PEOE_VSA_FPOL>
0.1636032

> <PEOE_VSA_FPOS>
0.57101488

> <PEOE_VSA_FPPOS>
0.081130221

> <PEOE_VSA_HYD>
683.81012

> <PEOE_VSA_NEG>
350.72394

> <PEOE_VSA_PNEG>
67.427162

> <PEOE_VSA_POL>
133.75652

> <PEOE_VSA_POS>
466.84268

> <PEOE_VSA_PPOS>
66.329361

> <petitjean>
0.42857143

> <petitjeanSC>
0.75

> <Q_PC+>
0

> <Q_PC->
0

> <Q_RPC+>
0

> <Q_RPC->
0

> <Q_VSA_FHYD>
1

> <Q_VSA_FNEG>
0

> <Q_VSA_FPNEG>
0

> <Q_VSA_FPOL>
0

> <Q_VSA_FPOS>
1

> <Q_VSA_FPPOS>
0

> <Q_VSA_HYD>
817.56665

> <Q_VSA_NEG>
0

> <Q_VSA_PNEG>
0

> <Q_VSA_POL>
0

> <Q_VSA_POS>
817.56665

> <Q_VSA_PPOS>
0

> <radius>
8

> <reactive>
1

> <rings>
3

> <RPC+>
0

> <RPC->
0

> <rsynth>
0.46153846

> <SlogP>
1.9007

> <SlogP_VSA0>
126.92613

> <SlogP_VSA1>
13.994092

> <SlogP_VSA2>
166.62769

> <SlogP_VSA3>
18.439579

> <SlogP_VSA4>
13.232388

> <SlogP_VSA5>
134.07542

> <SlogP_VSA6>
0.0

> <SlogP_VSA7>
0.0

> <SlogP_VSA8>
75.473625

> <SlogP_VSA9>
333.26016

> <SMR>
19.4179

> <SMR_VSA0>
89.861542

> <SMR_VSA1>
133.17476

> <SMR_VSA2>
13.232388

> <SMR_VSA3>
76.766136

> <SMR_VSA4>
0.0

> <SMR_VSA5>
75.473625

> <SMR_VSA6>
26.185041

> <SMR_VSA7>
467.33557

> <TPSA>
180.08

> <VAdjEq>
0.24202083

> <VAdjMa>
6.7548876

> <VDistEq>
3.6935883

> <VDistMa>
11.194571

> <vdw_area>
817.56665

> <vdw_vol>
1044.0806

> <vsa_acc>
26.085701

> <vsa_acid>
0

> <vsa_base>
0

> <vsa_don>
0.0

> <vsa_hyd>
602.66766

> <vsa_other>
46.629253

> <vsa_pol>
93.920303

> <Weight>
748.99597

> <weinerPath>
9356

> <weinerPol>
101

> <zagreb>
274

$$$$
Row1444
 OpenBabel06061811532D

 36 39  0  0  1  0  0  0  0  0999 V2000
    0.0000    0.0000    0.0000 S   0  0  0  0  0  0  0  0  0  0  0  0
    0.0000    0.0000    0.0000 C   0  0  1  0  0  0  0  0  0  0  0  0
    0.0000    0.0000    0.0000 H   0  0  0  0  0  0  0  0  0  0  0  0
    0.0000    0.0000    0.0000 N   0  0  0  0  0  0  0  0  0  0  0  0
    0.0000    0.0000    0.0000 C   0  0  1  0  0  0  0  0  0  0  0  0
    0.0000    0.0000    0.0000 H   0  0  0  0  0  0  0  0  0  0  0  0
    0.0000    0.0000    0.0000 C   0  0  0  0  0  0  0  0  0  0  0  0
    0.0000    0.0000    0.0000 O   0  0  0  0  0  0  0  0  0  0  0  0
    0.0000    0.0000    0.0000 O   0  0  0  0  0  0  0  0  0  0  0  0
    0.0000    0.0000    0.0000 C   0  0  0  0  0  0  0  0  0  0  0  0
    0.0000    0.0000    0.0000 C   0  0  0  0  0  0  0  0  0  0  0  0
    0.0000    0.0000    0.0000 C   0  0  0  0  0  0  0  0  0  0  0  0
    0.0000    0.0000    0.0000 C   0  0  0  0  0  0  0  0  0  0  0  0
    0.0000    0.0000    0.0000 O   0  0  0  0  0  0  0  0  0  0  0  0
    0.0000    0.0000    0.0000 C   0  0  1  0  0  0  0  0  0  0  0  0
    0.0000    0.0000    0.0000 H   0  0  0  0  0  0  0  0  0  0  0  0
    0.0000    0.0000    0.0000 N   0  0  0  0  0  0  0  0  0  0  0  0
    0.0000    0.0000    0.0000 C   0  0  0  0  0  0  0  0  0  0  0  0
    0.0000    0.0000    0.0000 O   0  0  0  0  0  0  0  0  0  0  0  0
    0.0000    0.0000    0.0000 C   0  0  2  0  0  0  0  0  0  0  0  0
    0.0000    0.0000    0.0000 H   0  0  0  0  0  0  0  0  0  0  0  0
    0.0000    0.0000    0.0000 N   0  0  0  0  0  0  0  0  0  0  0  0
    0.0000    0.0000    0.0000 C   0  0  0  0  0  0  0  0  0  0  0  0
    0.0000    0.0000    0.0000 O   0  0  0  0  0  0  0  0  0  0  0  0
    0.0000    0.0000    0.0000 N   0  0  0  0  0  0  0  0  0  0  0  0
    0.0000    0.0000    0.0000 C   0  0  0  0  0  0  0  0  0  0  0  0
    0.0000    0.0000    0.0000 C   0  0  0  0  0  0  0  0  0  0  0  0
    0.0000    0.0000    0.0000 N   0  0  0  0  0  0  0  0  0  0  0  0
    0.0000    0.0000    0.0000 C   0  0  0  0  0  0  0  0  0  0  0  0
    0.0000    0.0000    0.0000 O   0  0  0  0  0  0  0  0  0  0  0  0
    0.0000    0.0000    0.0000 C   0  0  0  0  0  0  0  0  0  0  0  0
    0.0000    0.0000    0.0000 C   0  0  0  0  0  0  0  0  0  0  0  0
    0.0000    0.0000    0.0000 C   0  0  0  0  0  0  0  0  0  0  0  0
    0.0000    0.0000    0.0000 C   0  0  0  0  0  0  0  0  0  0  0  0
    0.0000    0.0000    0.0000 C   0  0  0  0  0  0  0  0  0  0  0  0
    0.0000    0.0000    0.0000 C   0  0  0  0  0  0  0  0  0  0  0  0
  1 10  1  0  0  0  0
  1  2  1  0  0  0  0
  2  3  1  0  0  0  0
  2 15  1  0  0  0  0
  2  4  1  0  0  0  0
  4  5  1  0  0  0  0
  4 13  1  0  0  0  0
  5  6  1  0  0  0  0
  5  7  1  0  0  0  0
  5 10  1  0  0  0  0
  7  8  1  0  0  0  0
  7  9  2  0  0  0  0
 10 11  1  0  0  0  0
 10 12  1  0  0  0  0
 13 14  2  0  0  0  0
 13 15  1  0  0  0  0
 15 16  1  0  0  0  0
 15 17  1  0  0  0  0
 17 18  1  0  0  0  0
 18 19  2  0  0  0  0
 18 20  1  0  0  0  0
 20 21  1  0  0  0  0
 20 22  1  0  0  0  0
 20 31  1  0  0  0  0
 22 23  1  0  0  0  0
 23 24  2  0  0  0  0
 23 25  1  0  0  0  0
 25 29  1  0  0  0  0
 25 26  1  0  0  0  0
 26 27  1  0  0  0  0
 27 28  1  0  0  0  0
 28 29  1  0  0  0  0
 29 30  2  0  0  0  0
 31 36  1  0  0  0  0
 31 32  2  0  0  0  0
 32 33  1  0  0  0  0
 33 34  2  0  0  0  0
 34 35  1  0  0  0  0
 35 36  2  0  0  0  0
M  END
> <Index>
1445

> <ID>
HT0219

> <class>
1

> <apol>
63.748238

> <ast_fraglike>
0

> <ast_fraglike_ext>
0

> <ast_violation>
3

> <ast_violation_ext>
5

> <a_acc>
6

> <a_acid>
0

> <a_aro>
6

> <a_base>
0

> <a_count>
55

> <a_don>
5

> <a_donacc>
11

> <a_heavy>
32

> <a_hyd>
16

> <a_IC>
100.37489

> <a_ICM>
1.8249979

> <a_nB>
0

> <a_nBr>
0

> <a_nC>
20

> <a_nCl>
0

> <a_nF>
0

> <a_nH>
23

> <a_nI>
0

> <a_nN>
5

> <a_nO>
6

> <a_nP>
0

> <a_nS>
1

> <balabanJ>
1.4390101

> <BCUT_PEOE_0>
-2.6473722

> <BCUT_PEOE_1>
-0.54790366

> <BCUT_PEOE_2>
0.57474518

> <BCUT_PEOE_3>
2.8505378

> <BCUT_SLOGP_0>
-2.902184

> <BCUT_SLOGP_1>
-0.52073056

> <BCUT_SLOGP_2>
0.6574561

> <BCUT_SLOGP_3>
2.7546287

> <BCUT_SMR_0>
-2.3920782

> <BCUT_SMR_1>
-0.3857851

> <BCUT_SMR_2>
0.7513569

> <BCUT_SMR_3>
3.1313696

> <bpol>
38.153763

> <b_1rotN>
6

> <b_1rotR>
0.17142858

> <b_ar>
6

> <b_count>
58

> <b_double>
5

> <b_heavy>
35

> <b_max1len>
4

> <b_rotN>
8

> <b_rotR>
0.22857143

> <b_single>
47

> <b_triple>
0

> <chi0>
23.206377

> <chi0v>
18.217993

> <chi0v_C>
12.110366

> <chi0_C>
13.22325

> <chi1>
15.113898

> <chi1v>
10.935449

> <chi1v_C>
5.1873927

> <chi1_C>
6.2718382

> <chiral>
4

> <chiral_u>
0

> <density>
0.83808863

> <diameter>
13

> <FCharge>
0

> <GCUT_PEOE_0>
-0.83768159

> <GCUT_PEOE_1>
-0.41475239

> <GCUT_PEOE_2>
0.079466581

> <GCUT_PEOE_3>
2.8069868

> <GCUT_SLOGP_0>
-1.1679392

> <GCUT_SLOGP_1>
-0.44855648

> <GCUT_SLOGP_2>
0.1458836

> <GCUT_SLOGP_3>
2.7488303

> <GCUT_SMR_0>
-0.53667754

> <GCUT_SMR_1>
-0.22351468

> <GCUT_SMR_2>
0.19305076

> <GCUT_SMR_3>
3.069375

> <Kier1>
25.103674

> <Kier2>
9.9323606

> <Kier3>
4.8977294

> <KierA1>
19.641848

> <KierA2>
7.7060194

> <KierA3>
3.7773137

> <KierFlex>
4.7300143

> <lip_acc>
11

> <lip_don>
4

> <lip_druglike>
1

> <lip_violation>
1

> <logP(o/w)>
0.021

> <logS>
-3.70331

> <mr>
11.460505

> <mutagenic>
0

> <nmol>
1

> <opr_brigid>
19

> <opr_leadlike>
0

> <opr_nring>
4

> <opr_nrot>
5

> <opr_violation>
2

> <PC+>
0

> <PC->
0

> <PEOE_PC+>
3.7176323

> <PEOE_PC->
-3.7176323

> <PEOE_RPC+>
0.088077411

> <PEOE_RPC->
0.091508202

> <PEOE_VSA+0>
51.976967

> <PEOE_VSA+1>
55.45002

> <PEOE_VSA+2>
14.559904

> <PEOE_VSA+3>
25.857038

> <PEOE_VSA+4>
23.273705

> <PEOE_VSA+5>
27.65803

> <PEOE_VSA+6>
34.881084

> <PEOE_VSA-0>
39.703896

> <PEOE_VSA-1>
61.274521

> <PEOE_VSA-2>
19.760618

> <PEOE_VSA-3>
0.0

> <PEOE_VSA-4>
27.133842

> <PEOE_VSA-5>
40.700764

> <PEOE_VSA-6>
8.1782131

> <PEOE_VSA_FHYD>
0.62401855

> <PEOE_VSA_FNEG>
0.45712808

> <PEOE_VSA_FPNEG>
0.17660618

> <PEOE_VSA_FPOL>
0.37598142

> <PEOE_VSA_FPOS>
0.54287195

> <PEOE_VSA_FPPOS>
0.19937524

> <PEOE_VSA_HYD>
268.58295

> <PEOE_VSA_NEG>
196.75185

> <PEOE_VSA_PNEG>
76.012817

> <PEOE_VSA_POL>
161.82564

> <PEOE_VSA_POS>
233.65674

> <PEOE_VSA_PPOS>
85.81282

> <petitjean>
0.46153846

> <petitjeanSC>
0.85714287

> <Q_PC+>
0

> <Q_PC->
0

> <Q_RPC+>
0

> <Q_RPC->
0

> <Q_VSA_FHYD>
1

> <Q_VSA_FNEG>
0

> <Q_VSA_FPNEG>
0

> <Q_VSA_FPOL>
0

> <Q_VSA_FPOS>
1

> <Q_VSA_FPPOS>
0

> <Q_VSA_HYD>
430.4086

> <Q_VSA_NEG>
0

> <Q_VSA_PNEG>
0

> <Q_VSA_POL>
0

> <Q_VSA_POS>
430.4086

> <Q_VSA_PPOS>
0

> <radius>
7

> <reactive>
0

> <rings>
4

> <RPC+>
0

> <RPC->
0

> <rsynth>
1.0

> <SlogP>
0.18970001

> <SlogP_VSA0>
54.032253

> <SlogP_VSA1>
34.17157

> <SlogP_VSA2>
81.897713

> <SlogP_VSA3>
62.264381

> <SlogP_VSA4>
3.185575

> <SlogP_VSA5>
0.0

> <SlogP_VSA6>
0.0

> <SlogP_VSA7>
88.215919

> <SlogP_VSA8>
3.9819686

> <SlogP_VSA9>
146.59601

> <SMR>
11.35899

> <SMR_VSA0>
119.31108

> <SMR_VSA1>
6.2486277

> <SMR_VSA2>
79.41748

> <SMR_VSA3>
17.478609

> <SMR_VSA4>
0.0

> <SMR_VSA5>
88.215919

> <SMR_VSA6>
64.802101

> <SMR_VSA7>
98.871574

> <TPSA>
148.14999

> <VAdjEq>
0.3597711

> <VAdjMa>
6.129283

> <VDistEq>
3.5686481

> <VDistMa>
9.7334881

> <vdw_area>
430.4086

> <vdw_vol>
550.65656

> <vsa_acc>
54.267685

> <vsa_acid>
0

> <vsa_base>
0

> <vsa_don>
17.047728

> <vsa_hyd>
229.20181

> <vsa_other>
75.488647

> <vsa_pol>
98.449257

> <Weight>
461.49899

> <weinerPath>
2922

> <weinerPol>
52

> <zagreb>
176

$$$$
Row1445
 OpenBabel06061811532D

 26 27  0  0  0  0  0  0  0  0999 V2000
    0.0000    0.0000    0.0000 O   0  0  0  0  0  0  0  0  0  0  0  0
    0.0000    0.0000    0.0000 C   0  0  0  0  0  0  0  0  0  0  0  0
    0.0000    0.0000    0.0000 C   0  0  0  0  0  0  0  0  0  0  0  0
    0.0000    0.0000    0.0000 C   0  0  0  0  0  0  0  0  0  0  0  0
    0.0000    0.0000    0.0000 C   0  0  0  0  0  0  0  0  0  0  0  0
    0.0000    0.0000    0.0000 N   0  0  0  0  0  0  0  0  0  0  0  0
    0.0000    0.0000    0.0000 N   0  0  0  0  0  0  0  0  0  0  0  0
    0.0000    0.0000    0.0000 C   0  0  0  0  0  0  0  0  0  0  0  0
    0.0000    0.0000    0.0000 C   0  0  0  0  0  0  0  0  0  0  0  0
    0.0000    0.0000    0.0000 C   0  0  0  0  0  0  0  0  0  0  0  0
    0.0000    0.0000    0.0000 C   0  0  0  0  0  0  0  0  0  0  0  0
    0.0000    0.0000    0.0000 C   0  0  0  0  0  0  0  0  0  0  0  0
    0.0000    0.0000    0.0000 C   0  0  0  0  0  0  0  0  0  0  0  0
    0.0000    0.0000    0.0000 C   0  0  0  0  0  0  0  0  0  0  0  0
    0.0000    0.0000    0.0000 O   0  0  0  0  0  0  0  0  0  0  0  0
    0.0000    0.0000    0.0000 N   0  0  0  0  0  0  0  0  0  0  0  0
    0.0000    0.0000    0.0000 C   0  0  0  0  0  0  0  0  0  0  0  0
    0.0000    0.0000    0.0000 C   0  0  0  0  0  0  0  0  0  0  0  0
    0.0000    0.0000    0.0000 C   0  0  0  0  0  0  0  0  0  0  0  0
    0.0000    0.0000    0.0000 O   0  0  0  0  0  0  0  0  0  0  0  0
    0.0000    0.0000    0.0000 O   0  0  0  0  0  0  0  0  0  0  0  0
    0.0000    0.0000    0.0000 C   0  0  0  0  0  0  0  0  0  0  0  0
    0.0000    0.0000    0.0000 C   0  0  0  0  0  0  0  0  0  0  0  0
    0.0000    0.0000    0.0000 C   0  0  0  0  0  0  0  0  0  0  0  0
    0.0000    0.0000    0.0000 O   0  0  0  0  0  0  0  0  0  0  0  0
    0.0000    0.0000    0.0000 O   0  0  0  0  0  0  0  0  0  0  0  0
  1  2  1  0  0  0  0
  2 23  1  0  0  0  0
  2  3  2  0  0  0  0
  3  4  1  0  0  0  0
  4  5  2  0  0  0  0
  5  6  1  0  0  0  0
  5 22  1  0  0  0  0
  6  7  2  3  0  0  0
  7  8  1  0  0  0  0
  8 13  1  0  0  0  0
  8  9  2  0  0  0  0
  9 10  1  0  0  0  0
 10 11  2  0  0  0  0
 11 12  1  0  0  0  0
 11 14  1  0  0  0  0
 12 13  2  0  0  0  0
 14 15  2  0  0  0  0
 14 16  1  0  0  0  0
 16 17  1  0  0  0  0
 17 18  1  0  0  0  0
 18 19  1  0  0  0  0
 19 20  1  0  0  0  0
 19 21  2  0  0  0  0
 22 23  2  0  0  0  0
 23 24  1  0  0  0  0
 24 25  1  0  0  0  0
 24 26  2  0  0  0  0
M  END
> <Index>
1446

> <ID>
HT0224

> <class>
1

> <apol>
48.033894

> <ast_fraglike>
0

> <ast_fraglike_ext>
0

> <ast_violation>
3

> <ast_violation_ext>
5

> <a_acc>
8

> <a_acid>
0

> <a_aro>
12

> <a_base>
0

> <a_count>
41

> <a_don>
6

> <a_donacc>
14

> <a_heavy>
26

> <a_hyd>
14

> <a_IC>
71.304741

> <a_ICM>
1.73914

> <a_nB>
0

> <a_nBr>
0

> <a_nC>
17

> <a_nCl>
0

> <a_nF>
0

> <a_nH>
15

> <a_nI>
0

> <a_nN>
3

> <a_nO>
6

> <a_nP>
0

> <a_nS>
0

> <balabanJ>
1.6316462

> <BCUT_PEOE_0>
-2.4569271

> <BCUT_PEOE_1>
-0.63692892

> <BCUT_PEOE_2>
0.69991094

> <BCUT_PEOE_3>
2.4715641

> <BCUT_SLOGP_0>
-2.6337132

> <BCUT_SLOGP_1>
-0.54648507

> <BCUT_SLOGP_2>
0.7799508

> <BCUT_SLOGP_3>
2.3988876

> <BCUT_SMR_0>
-2.2044923

> <BCUT_SMR_1>
-0.48212147

> <BCUT_SMR_2>
0.84406614

> <BCUT_SMR_3>
2.7134006

> <bpol>
21.252106

> <b_1rotN>
7

> <b_1rotR>
0.25925925

> <b_ar>
12

> <b_count>
42

> <b_double>
4

> <b_heavy>
27

> <b_max1len>
4

> <b_rotN>
8

> <b_rotR>
0.2962963

> <b_single>
26

> <b_triple>
0

> <chi0>
19.104084

> <chi0v>
13.416478

> <chi0v_C>
9.4556656

> <chi0_C>
10.982763

> <chi1>
12.363081

> <chi1v>
7.4469142

> <chi1v_C>
4.9129543

> <chi1_C>
6.6742344

> <chiral>
0

> <chiral_u>
0

> <density>
0.82072538

> <diameter>
16

> <FCharge>
0

> <GCUT_PEOE_0>
-0.83422679

> <GCUT_PEOE_1>
-0.49088269

> <GCUT_PEOE_2>
0.12177493

> <GCUT_PEOE_3>
2.3550034

> <GCUT_SLOGP_0>
-1.1608802

> <GCUT_SLOGP_1>
-0.37259954

> <GCUT_SLOGP_2>
0.16800368

> <GCUT_SLOGP_3>
2.4739075

> <GCUT_SMR_0>
-0.50178003

> <GCUT_SMR_1>
-0.23884007

> <GCUT_SMR_2>
0.23938517

> <GCUT_SMR_3>
2.6379073

> <Kier1>
22.29081

> <Kier2>
11.111111

> <Kier3>
7.5102043

> <KierA1>
15.33188

> <KierA2>
7.5177526

> <KierA3>
5.0218172

> <KierFlex>
4.4331264

> <lip_acc>
9

> <lip_don>
4

> <lip_druglike>
1

> <lip_violation>
0

> <logP(o/w)>
2.2079999

> <logS>
-2.9090199

> <mr>
9.1441154

> <mutagenic>
1

> <nmol>
1

> <opr_brigid>
13

> <opr_leadlike>
1

> <opr_nring>
2

> <opr_nrot>
7

> <opr_violation>
1

> <PC+>
0

> <PC->
0

> <PEOE_PC+>
2.7026212

> <PEOE_PC->
-2.7026212

> <PEOE_RPC+>
0.10870916

> <PEOE_RPC->
0.13285302

> <PEOE_VSA+0>
32.46241

> <PEOE_VSA+1>
62.625175

> <PEOE_VSA+2>
0.0

> <PEOE_VSA+3>
8.6190128

> <PEOE_VSA+4>
30.972517

> <PEOE_VSA+5>
42.366531

> <PEOE_VSA+6>
0.0

> <PEOE_VSA-0>
85.784325

> <PEOE_VSA-1>
0.0

> <PEOE_VSA-2>
18.842079

> <PEOE_VSA-3>
0.0

> <PEOE_VSA-4>
0.0

> <PEOE_VSA-5>
40.700764

> <PEOE_VSA-6>
23.439512

> <PEOE_VSA_FHYD>
0.6024453

> <PEOE_VSA_FNEG>
0.48802969

> <PEOE_VSA_FPNEG>
0.18547712

> <PEOE_VSA_FPOL>
0.39755473

> <PEOE_VSA_FPOS>
0.51197034

> <PEOE_VSA_FPPOS>
0.2120776

> <PEOE_VSA_HYD>
208.33301

> <PEOE_VSA_NEG>
168.76668

> <PEOE_VSA_PNEG>
64.140274

> <PEOE_VSA_POL>
137.47932

> <PEOE_VSA_POS>
177.04564

> <PEOE_VSA_PPOS>
73.33905

> <petitjean>
0.5

> <petitjeanSC>
1.0

> <Q_PC+>
0

> <Q_PC->
0

> <Q_RPC+>
0

> <Q_RPC->
0

> <Q_VSA_FHYD>
1

> <Q_VSA_FNEG>
0

> <Q_VSA_FPNEG>
0

> <Q_VSA_FPOL>
0

> <Q_VSA_FPOS>
1

> <Q_VSA_FPPOS>
0

> <Q_VSA_HYD>
345.81232

> <Q_VSA_NEG>
0

> <Q_VSA_PNEG>
0

> <Q_VSA_POL>
0

> <Q_VSA_POS>
345.81232

> <Q_VSA_PPOS>
0

> <radius>
8

> <reactive>
1

> <rings>
2

> <RPC+>
0

> <RPC->
0

> <rsynth>
1.0

> <SlogP>
2.7103

> <SlogP_VSA0>
43.395977

> <SlogP_VSA1>
20.749712

> <SlogP_VSA2>
23.862217

> <SlogP_VSA3>
69.21003

> <SlogP_VSA4>
54.095581

> <SlogP_VSA5>
33.326015

> <SlogP_VSA6>
0.0

> <SlogP_VSA7>
123.50229

> <SlogP_VSA8>
18.868406

> <SlogP_VSA9>
10.756924

> <SMR>
9.02701

> <SMR_VSA0>
71.586647

> <SMR_VSA1>
58.711243

> <SMR_VSA2>
68.781204

> <SMR_VSA3>
11.614578

> <SMR_VSA4>
5.513495

> <SMR_VSA5>
142.3707

> <SMR_VSA6>
39.189289

> <SMR_VSA7>
0.0

> <TPSA>
148.64999

> <VAdjEq>
0.40176207

> <VAdjMa>
5.7548876

> <VDistEq>
3.8318796

> <VDistMa>
9.0516462

> <vdw_area>
345.81232

> <vdw_vol>
435.37341

> <vsa_acc>
32.409

> <vsa_acid>
0

> <vsa_base>
0

> <vsa_don>
5.6825762

> <vsa_hyd>
173.04216

> <vsa_other>
42.366531

> <vsa_pol>
105.92618

> <Weight>
357.32199

> <weinerPath>
2087

> <weinerPol>
36

> <zagreb>
126

$$$$
Row1446
 OpenBabel06061811532D

 25 27  0  0  1  0  0  0  0  0999 V2000
    0.0000    0.0000    0.0000 Cl  0  0  0  0  0  0  0  0  0  0  0  0
    0.0000    0.0000    0.0000 C   0  0  0  0  0  0  0  0  0  0  0  0
    0.0000    0.0000    0.0000 C   0  0  0  0  0  0  0  0  0  0  0  0
    0.0000    0.0000    0.0000 C   0  0  0  0  0  0  0  0  0  0  0  0
    0.0000    0.0000    0.0000 N   0  0  0  0  0  0  0  0  0  0  0  0
    0.0000    0.0000    0.0000 C   0  0  3  0  0  0  0  0  0  0  0  0
    0.0000    0.0000    0.0000 N   0  0  0  0  0  0  0  0  0  0  0  0
    0.0000    0.0000    0.0000 S   0  0  0  0  0  0  0  0  0  0  0  0
    0.0000    0.0000    0.0000 O   0  0  0  0  0  0  0  0  0  0  0  0
    0.0000    0.0000    0.0000 O   0  0  0  0  0  0  0  0  0  0  0  0
    0.0000    0.0000    0.0000 C   0  0  0  0  0  0  0  0  0  0  0  0
    0.0000    0.0000    0.0000 C   0  0  0  0  0  0  0  0  0  0  0  0
    0.0000    0.0000    0.0000 C   0  0  0  0  0  0  0  0  0  0  0  0
    0.0000    0.0000    0.0000 S   0  0  0  0  0  0  0  0  0  0  0  0
    0.0000    0.0000    0.0000 O   0  0  0  0  0  0  0  0  0  0  0  0
    0.0000    0.0000    0.0000 O   0  0  0  0  0  0  0  0  0  0  0  0
    0.0000    0.0000    0.0000 N   0  0  0  0  0  0  0  0  0  0  0  0
    0.0000    0.0000    0.0000 C   0  0  3  0  0  0  0  0  0  0  0  0
    0.0000    0.0000    0.0000 C   0  0  0  0  0  0  0  0  0  0  0  0
    0.0000    0.0000    0.0000 C   0  0  0  0  0  0  0  0  0  0  0  0
    0.0000    0.0000    0.0000 C   0  0  0  0  0  0  0  0  0  0  0  0
    0.0000    0.0000    0.0000 C   0  0  0  0  0  0  0  0  0  0  0  0
    0.0000    0.0000    0.0000 C   0  0  0  0  0  0  0  0  0  0  0  0
    0.0000    0.0000    0.0000 C   0  0  0  0  0  0  0  0  0  0  0  0
    0.0000    0.0000    0.0000 C   0  0  0  0  0  0  0  0  0  0  0  0
  1  2  1  0  0  0  0
  2 13  1  0  0  0  0
  2  3  2  0  0  0  0
  3  4  1  0  0  0  0
  4 11  2  0  0  0  0
  4  5  1  0  0  0  0
  5  6  1  0  0  0  0
  6  7  1  0  0  0  0
  6 18  1  0  0  0  0
  7  8  1  0  0  0  0
  8  9  2  0  0  0  0
  8 10  2  0  0  0  0
  8 11  1  0  0  0  0
 11 12  1  0  0  0  0
 12 13  2  0  0  0  0
 13 14  1  0  0  0  0
 14 15  2  0  0  0  0
 14 16  2  0  0  0  0
 14 17  1  0  0  0  0
 18 19  1  0  0  0  0
 18 20  1  0  0  0  0
 20 25  1  0  0  0  0
 20 21  2  0  0  0  0
 21 22  1  0  0  0  0
 22 23  2  0  0  0  0
 23 24  1  0  0  0  0
 24 25  2  0  0  0  0
M  END
> <Index>
1447

> <ID>
HT0232

> <class>
1

> <apol>
51.556686

> <ast_fraglike>
0

> <ast_fraglike_ext>
0

> <ast_violation>
2

> <ast_violation_ext>
3

> <a_acc>
4

> <a_acid>
0

> <a_aro>
12

> <a_base>
0

> <a_count>
41

> <a_don>
3

> <a_donacc>
7

> <a_heavy>
25

> <a_hyd>
15

> <a_IC>
82.301384

> <a_ICM>
2.0073509

> <a_nB>
0

> <a_nBr>
0

> <a_nC>
15

> <a_nCl>
1

> <a_nF>
0

> <a_nH>
16

> <a_nI>
0

> <a_nN>
3

> <a_nO>
4

> <a_nP>
0

> <a_nS>
2

> <balabanJ>
1.7251757

> <BCUT_PEOE_0>
-2.6767478

> <BCUT_PEOE_1>
-0.60693175

> <BCUT_PEOE_2>
0.65844566

> <BCUT_PEOE_3>
2.634038

> <BCUT_SLOGP_0>
-2.7925339

> <BCUT_SLOGP_1>
-0.50804216

> <BCUT_SLOGP_2>
0.76164389

> <BCUT_SLOGP_3>
2.6331062

> <BCUT_SMR_0>
-2.3678896

> <BCUT_SMR_1>
-0.4604646

> <BCUT_SMR_2>
0.80768639

> <BCUT_SMR_3>
2.9483259

> <bpol>
31.523312

> <b_1rotN>
3

> <b_1rotR>
0.11111111

> <b_ar>
12

> <b_count>
43

> <b_double>
0

> <b_heavy>
27

> <b_max1len>
4

> <b_rotN>
3

> <b_rotR>
0.11111111

> <b_single>
31

> <b_triple>
0

> <chi0>
18.405413

> <chi0v>
15.489879

> <chi0v_C>
8.6961527

> <chi0_C>
9.9911995

> <chi1>
11.593172

> <chi1v>
10.703264

> <chi1v_C>
4.7647429

> <chi1_C>
6.3601732

> <chiral>
2

> <chiral_u>
2

> <density>
0.90569842

> <diameter>
12

> <FCharge>
0

> <GCUT_PEOE_0>
-0.88693827

> <GCUT_PEOE_1>
-0.3944937

> <GCUT_PEOE_2>
0.072369337

> <GCUT_PEOE_3>
2.7112734

> <GCUT_SLOGP_0>
-1.348287

> <GCUT_SLOGP_1>
-0.41954592

> <GCUT_SLOGP_2>
0.15585257

> <GCUT_SLOGP_3>
2.751158

> <GCUT_SMR_0>
-0.51247567

> <GCUT_SMR_1>
-0.18290684

> <GCUT_SMR_2>
0.18156795

> <GCUT_SMR_3>
2.9939587

> <Kier1>
19.753086

> <Kier2>
7.197279

> <Kier3>
4.1352797

> <KierA1>
19.092773

> <KierA2>
6.9464879

> <KierA3>
3.9868095

> <KierFlex>
5.305109

> <lip_acc>
7

> <lip_don>
4

> <lip_druglike>
1

> <lip_violation>
0

> <logP(o/w)>
1.83

> <logS>
-4.0409298

> <mr>
9.7021914

> <mutagenic>
0

> <nmol>
1

> <opr_brigid>
17

> <opr_leadlike>
1

> <opr_nring>
3

> <opr_nrot>
3

> <opr_violation>
0

> <PC+>
0

> <PC->
0

> <PEOE_PC+>
1.9397635

> <PEOE_PC->
-1.9397635

> <PEOE_RPC+>
0.15968351

> <PEOE_RPC->
0.19729632

> <PEOE_VSA+0>
63.007088

> <PEOE_VSA+1>
38.476715

> <PEOE_VSA+2>
26.880259

> <PEOE_VSA+3>
0.0

> <PEOE_VSA+4>
0.0

> <PEOE_VSA+5>
0.0

> <PEOE_VSA+6>
8.3692026

> <PEOE_VSA-0>
23.082457

> <PEOE_VSA-1>
109.60414

> <PEOE_VSA-2>
34.546043

> <PEOE_VSA-3>
9.0437498

> <PEOE_VSA-4>
32.016521

> <PEOE_VSA-5>
0.0

> <PEOE_VSA-6>
0.13689101

> <PEOE_VSA_FHYD>
0.88259864

> <PEOE_VSA_FNEG>
0.60385895

> <PEOE_VSA_FPNEG>
0.093154274

> <PEOE_VSA_FPOL>
0.11740137

> <PEOE_VSA_FPOS>
0.39614105

> <PEOE_VSA_FPPOS>
0.024247097

> <PEOE_VSA_HYD>
304.64044

> <PEOE_VSA_NEG>
208.42981

> <PEOE_VSA_PNEG>
32.153416

> <PEOE_VSA_POL>
40.522617

> <PEOE_VSA_POS>
136.73326

> <PEOE_VSA_PPOS>
8.3692026

> <petitjean>
0.5

> <petitjeanSC>
1.0

> <Q_PC+>
0

> <Q_PC->
0

> <Q_RPC+>
0

> <Q_RPC->
0

> <Q_VSA_FHYD>
1

> <Q_VSA_FNEG>
0

> <Q_VSA_FPNEG>
0

> <Q_VSA_FPOL>
0

> <Q_VSA_FPOS>
1

> <Q_VSA_FPPOS>
0

> <Q_VSA_HYD>
345.16309

> <Q_VSA_NEG>
0

> <Q_VSA_PNEG>
0

> <Q_VSA_POL>
0

> <Q_VSA_POS>
345.16309

> <Q_VSA_PPOS>
0

> <radius>
6

> <reactive>
0

> <rings>
3

> <RPC+>
0

> <RPC->
0

> <rsynth>
1.0

> <SlogP>
1.821

> <SlogP_VSA0>
47.69643

> <SlogP_VSA1>
114.35413

> <SlogP_VSA2>
16.834627

> <SlogP_VSA3>
0.0

> <SlogP_VSA4>
3.185575

> <SlogP_VSA5>
3.1014678

> <SlogP_VSA6>
7.9114027

> <SlogP_VSA7>
123.50229

> <SlogP_VSA8>
0.0

> <SlogP_VSA9>
75.231407

> <SMR>
9.54144

> <SMR_VSA0>
96.343376

> <SMR_VSA1>
0.0

> <SMR_VSA2>
19.506466

> <SMR_VSA3>
14.650119

> <SMR_VSA4>
52.058933

> <SMR_VSA5>
123.50229

> <SMR_VSA6>
0.0

> <SMR_VSA7>
85.756142

> <TPSA>
118.36

> <VAdjEq>
0.42433795

> <VAdjMa>
5.7548876

> <VDistEq>
3.3211215

> <VDistMa>
8.9997587

> <vdw_area>
345.16309

> <vdw_vol>
443.74042

> <vsa_acc>
64.033043

> <vsa_acid>
0

> <vsa_base>
0

> <vsa_don>
33.892902

> <vsa_hyd>
193.65544

> <vsa_other>
31.401779

> <vsa_pol>
97.925949

> <Weight>
401.89499

> <weinerPath>
1436

> <weinerPol>
44

> <zagreb>
138

$$$$
Row1447
 OpenBabel06061811532D

 27 29  0  0  1  0  0  0  0  0999 V2000
    0.0000    0.0000    0.0000 S   0  0  0  0  0  0  0  0  0  0  0  0
    0.0000    0.0000    0.0000 O   0  0  0  0  0  0  0  0  0  0  0  0
    0.0000    0.0000    0.0000 O   0  0  0  0  0  0  0  0  0  0  0  0
    0.0000    0.0000    0.0000 N   0  0  0  0  0  0  0  0  0  0  0  0
    0.0000    0.0000    0.0000 C   0  0  0  0  0  0  0  0  0  0  0  0
    0.0000    0.0000    0.0000 C   0  0  0  0  0  0  0  0  0  0  0  0
    0.0000    0.0000    0.0000 C   0  0  0  0  0  0  0  0  0  0  0  0
    0.0000    0.0000    0.0000 S   0  0  0  0  0  0  0  0  0  0  0  0
    0.0000    0.0000    0.0000 O   0  0  0  0  0  0  0  0  0  0  0  0
    0.0000    0.0000    0.0000 O   0  0  0  0  0  0  0  0  0  0  0  0
    0.0000    0.0000    0.0000 N   0  0  0  0  0  0  0  0  0  0  0  0
    0.0000    0.0000    0.0000 C   0  0  3  0  0  0  0  0  0  0  0  0
    0.0000    0.0000    0.0000 N   0  0  0  0  0  0  0  0  0  0  0  0
    0.0000    0.0000    0.0000 C   0  0  0  0  0  0  0  0  0  0  0  0
    0.0000    0.0000    0.0000 C   0  0  0  0  0  0  0  0  0  0  0  0
    0.0000    0.0000    0.0000 C   0  0  0  0  0  0  0  0  0  0  0  0
    0.0000    0.0000    0.0000 C   0  0  0  0  0  0  0  0  0  0  0  0
    0.0000    0.0000    0.0000 F   0  0  0  0  0  0  0  0  0  0  0  0
    0.0000    0.0000    0.0000 F   0  0  0  0  0  0  0  0  0  0  0  0
    0.0000    0.0000    0.0000 F   0  0  0  0  0  0  0  0  0  0  0  0
    0.0000    0.0000    0.0000 C   0  0  0  0  0  0  0  0  0  0  0  0
    0.0000    0.0000    0.0000 C   0  0  0  0  0  0  0  0  0  0  0  0
    0.0000    0.0000    0.0000 C   0  0  0  0  0  0  0  0  0  0  0  0
    0.0000    0.0000    0.0000 C   0  0  0  0  0  0  0  0  0  0  0  0
    0.0000    0.0000    0.0000 C   0  0  0  0  0  0  0  0  0  0  0  0
    0.0000    0.0000    0.0000 C   0  0  0  0  0  0  0  0  0  0  0  0
    0.0000    0.0000    0.0000 C   0  0  0  0  0  0  0  0  0  0  0  0
  1  2  2  0  0  0  0
  1  3  2  0  0  0  0
  1  4  1  0  0  0  0
  1  5  1  0  0  0  0
  5 16  1  0  0  0  0
  5  6  2  0  0  0  0
  6  7  1  0  0  0  0
  7 14  2  0  0  0  0
  7  8  1  0  0  0  0
  8  9  2  0  0  0  0
  8 10  2  0  0  0  0
  8 11  1  0  0  0  0
 11 12  1  0  0  0  0
 12 13  1  0  0  0  0
 12 21  1  0  0  0  0
 13 14  1  0  0  0  0
 14 15  1  0  0  0  0
 15 16  2  0  0  0  0
 16 17  1  0  0  0  0
 17 18  1  0  0  0  0
 17 19  1  0  0  0  0
 17 20  1  0  0  0  0
 21 22  1  0  0  0  0
 22 27  1  0  0  0  0
 22 23  2  0  0  0  0
 23 24  1  0  0  0  0
 24 25  2  0  0  0  0
 25 26  1  0  0  0  0
 26 27  2  0  0  0  0
M  END
> <Index>
1448

> <ID>
HT0236

> <class>
1

> <apol>
49.714104

> <ast_fraglike>
0

> <ast_fraglike_ext>
0

> <ast_violation>
2

> <ast_violation_ext>
3

> <a_acc>
4

> <a_acid>
0

> <a_aro>
12

> <a_base>
0

> <a_count>
41

> <a_don>
3

> <a_donacc>
7

> <a_heavy>
27

> <a_hyd>
17

> <a_IC>
88.24353

> <a_ICM>
2.1522813

> <a_nB>
0

> <a_nBr>
0

> <a_nC>
15

> <a_nCl>
0

> <a_nF>
3

> <a_nH>
14

> <a_nI>
0

> <a_nN>
3

> <a_nO>
4

> <a_nP>
0

> <a_nS>
2

> <balabanJ>
1.7657081

> <BCUT_PEOE_0>
-2.6323941

> <BCUT_PEOE_1>
-0.5140003

> <BCUT_PEOE_2>
0.57469755

> <BCUT_PEOE_3>
2.6130524

> <BCUT_SLOGP_0>
-2.7918663

> <BCUT_SLOGP_1>
-0.48041865

> <BCUT_SLOGP_2>
0.64393705

> <BCUT_SLOGP_3>
2.5634623

> <BCUT_SMR_0>
-2.3118331

> <BCUT_SMR_1>
-0.3865895

> <BCUT_SMR_2>
0.72234982

> <BCUT_SMR_3>
2.9239206

> <bpol>
32.525898

> <b_1rotN>
3

> <b_1rotR>
0.10344828

> <b_ar>
12

> <b_count>
43

> <b_double>
0

> <b_heavy>
29

> <b_max1len>
3

> <b_rotN>
4

> <b_rotR>
0.13793103

> <b_single>
31

> <b_triple>
0

> <chi0>
20.03517

> <chi0v>
15.119636

> <chi0v_C>
8.3259087

> <chi0_C>
9.6209555

> <chi1>
12.376977

> <chi1v>
10.515707

> <chi1v_C>
4.5771856

> <chi1_C>
6.2213283

> <chiral>
1

> <chiral_u>
1

> <density>
0.96388197

> <diameter>
12

> <FCharge>
0

> <GCUT_PEOE_0>
-0.88760012

> <GCUT_PEOE_1>
-0.3845273

> <GCUT_PEOE_2>
0.054364897

> <GCUT_PEOE_3>
2.702656

> <GCUT_SLOGP_0>
-1.3483027

> <GCUT_SLOGP_1>
-0.39889887

> <GCUT_SLOGP_2>
0.18722686

> <GCUT_SLOGP_3>
2.7160609

> <GCUT_SMR_0>
-0.50206983

> <GCUT_SMR_1>
-0.18436959

> <GCUT_SMR_2>
0.17369954

> <GCUT_SMR_3>
2.9662385

> <Kier1>
21.702734

> <Kier2>
7.679584

> <Kier3>
4.9507437

> <KierA1>
19.537109

> <KierA2>
6.8840961

> <KierA3>
4.4240189

> <KierFlex>
4.9813089

> <lip_acc>
7

> <lip_don>
4

> <lip_druglike>
1

> <lip_violation>
0

> <logP(o/w)>
1.80276

> <logS>
-4.1614199

> <mr>
9.3280535

> <mutagenic>
0

> <nmol>
1

> <opr_brigid>
17

> <opr_leadlike>
1

> <opr_nring>
3

> <opr_nrot>
3

> <opr_violation>
0

> <PC+>
0

> <PC->
0

> <PEOE_PC+>
2.3242407

> <PEOE_PC->
-2.3242407

> <PEOE_RPC+>
0.18356551

> <PEOE_RPC->
0.16476053

> <PEOE_VSA+0>
54.476315

> <PEOE_VSA+1>
38.476715

> <PEOE_VSA+2>
22.360512

> <PEOE_VSA+3>
2.2085397

> <PEOE_VSA+4>
0.0

> <PEOE_VSA+5>
0.0

> <PEOE_VSA+6>
17.414705

> <PEOE_VSA-0>
31.78377

> <PEOE_VSA-1>
61.274521

> <PEOE_VSA-2>
34.546043

> <PEOE_VSA-3>
44.769657

> <PEOE_VSA-4>
32.016521

> <PEOE_VSA-5>
0.0

> <PEOE_VSA-6>
0.13689101

> <PEOE_VSA_FHYD>
0.85398132

> <PEOE_VSA_FNEG>
0.60250068

> <PEOE_VSA_FPNEG>
0.094718128

> <PEOE_VSA_FPOL>
0.1460187

> <PEOE_VSA_FPOS>
0.39749932

> <PEOE_VSA_FPPOS>
0.051300563

> <PEOE_VSA_HYD>
289.89609

> <PEOE_VSA_NEG>
204.5274

> <PEOE_VSA_PNEG>
32.153416

> <PEOE_VSA_POL>
49.568119

> <PEOE_VSA_POS>
134.93678

> <PEOE_VSA_PPOS>
17.414705

> <petitjean>
0.5

> <petitjeanSC>
1.0

> <Q_PC+>
0

> <Q_PC->
0

> <Q_RPC+>
0

> <Q_RPC->
0

> <Q_VSA_FHYD>
1

> <Q_VSA_FNEG>
0

> <Q_VSA_FPNEG>
0

> <Q_VSA_FPOL>
0

> <Q_VSA_FPOS>
1

> <Q_VSA_FPPOS>
0

> <Q_VSA_HYD>
339.4642

> <Q_VSA_NEG>
0

> <Q_VSA_PNEG>
0

> <Q_VSA_POL>
0

> <Q_VSA_POS>
339.4642

> <Q_VSA_PPOS>
0

> <radius>
6

> <reactive>
0

> <rings>
3

> <RPC+>
0

> <RPC->
0

> <rsynth>
1.0

> <SlogP>
1.93687

> <SlogP_VSA0>
47.69643

> <SlogP_VSA1>
114.35413

> <SlogP_VSA2>
16.834627

> <SlogP_VSA3>
0.0

> <SlogP_VSA4>
6.37115

> <SlogP_VSA5>
21.969873

> <SlogP_VSA6>
7.7595162

> <SlogP_VSA7>
123.50229

> <SlogP_VSA8>
0.0

> <SlogP_VSA9>
47.637089

> <SMR>
9.0812397

> <SMR_VSA0>
96.343376

> <SMR_VSA1>
44.880341

> <SMR_VSA2>
27.265982

> <SMR_VSA3>
9.9242916

> <SMR_VSA4>
52.058933

> <SMR_VSA5>
142.3707

> <SMR_VSA6>
0.0

> <SMR_VSA7>
13.281486

> <TPSA>
118.36

> <VAdjEq>
0.40063059

> <VAdjMa>
5.8579812

> <VDistEq>
3.3577561

> <VDistMa>
9.2336283

> <vdw_area>
339.4642

> <vdw_vol>
437.21121

> <vsa_acc>
64.033043

> <vsa_acid>
0

> <vsa_base>
0

> <vsa_don>
33.892902

> <vsa_hyd>
190.7252

> <vsa_other>
31.401779

> <vsa_pol>
97.925949

> <Weight>
421.41998

> <weinerPath>
1752

> <weinerPol>
46

> <zagreb>
150

$$$$
Row1448
 OpenBabel06061811532D

 21 23  0  0  1  0  0  0  0  0999 V2000
    0.0000    0.0000    0.0000 Cl  0  0  0  0  0  0  0  0  0  0  0  0
    0.0000    0.0000    0.0000 C   0  0  0  0  0  0  0  0  0  0  0  0
    0.0000    0.0000    0.0000 C   0  0  0  0  0  0  0  0  0  0  0  0
    0.0000    0.0000    0.0000 C   0  0  0  0  0  0  0  0  0  0  0  0
    0.0000    0.0000    0.0000 C   0  0  0  0  0  0  0  0  0  0  0  0
    0.0000    0.0000    0.0000 C   0  0  0  0  0  0  0  0  0  0  0  0
    0.0000    0.0000    0.0000 C   0  0  0  0  0  0  0  0  0  0  0  0
    0.0000    0.0000    0.0000 C   0  0  0  0  0  0  0  0  0  0  0  0
    0.0000    0.0000    0.0000 O   0  0  0  0  0  0  0  0  0  0  0  0
    0.0000    0.0000    0.0000 C   0  0  0  0  0  0  0  0  0  0  0  0
    0.0000    0.0000    0.0000 C   0  0  0  0  0  0  0  0  0  0  0  0
    0.0000    0.0000    0.0000 N   0  0  0  0  0  0  0  0  0  0  0  0
    0.0000    0.0000    0.0000 C   0  0  0  0  0  0  0  0  0  0  0  0
    0.0000    0.0000    0.0000 C   0  0  0  0  0  0  0  0  0  0  0  0
    0.0000    0.0000    0.0000 C   0  0  0  0  0  0  0  0  0  0  0  0
    0.0000    0.0000    0.0000 C   0  0  0  0  0  0  0  0  0  0  0  0
    0.0000    0.0000    0.0000 C   0  0  3  0  0  0  0  0  0  0  0  0
    0.0000    0.0000    0.0000 C   0  0  0  0  0  0  0  0  0  0  0  0
    0.0000    0.0000    0.0000 O   0  0  0  0  0  0  0  0  0  0  0  0
    0.0000    0.0000    0.0000 O   0  0  0  0  0  0  0  0  0  0  0  0
    0.0000    0.0000    0.0000 C   0  0  0  0  0  0  0  0  0  0  0  0
  1  2  1  0  0  0  0
  2  7  1  0  0  0  0
  2  3  2  0  0  0  0
  3  4  1  0  0  0  0
  4  5  2  0  0  0  0
  5  6  1  0  0  0  0
  5  8  1  0  0  0  0
  6  7  2  0  0  0  0
  8 12  2  0  0  0  0
  8  9  1  0  0  0  0
  9 10  1  0  0  0  0
 10 16  1  0  0  0  0
 10 11  2  0  0  0  0
 11 12  1  0  0  0  0
 11 13  1  0  0  0  0
 13 14  2  0  0  0  0
 14 15  1  0  0  0  0
 14 17  1  0  0  0  0
 15 16  2  0  0  0  0
 17 18  1  0  0  0  0
 17 21  1  0  0  0  0
 18 19  1  0  0  0  0
 18 20  2  0  0  0  0
M  END
> <Index>
1449

> <ID>
HT0239

> <class>
1

> <apol>
41.847515

> <ast_fraglike>
0

> <ast_fraglike_ext>
0

> <ast_violation>
2

> <ast_violation_ext>
2

> <a_acc>
3

> <a_acid>
0

> <a_aro>
15

> <a_base>
0

> <a_count>
33

> <a_don>
2

> <a_donacc>
5

> <a_heavy>
21

> <a_hyd>
14

> <a_IC>
54.690567

> <a_ICM>
1.65729

> <a_nB>
0

> <a_nBr>
0

> <a_nC>
16

> <a_nCl>
1

> <a_nF>
0

> <a_nH>
12

> <a_nI>
0

> <a_nN>
1

> <a_nO>
3

> <a_nP>
0

> <a_nS>
0

> <balabanJ>
1.5465237

> <BCUT_PEOE_0>
-2.4163749

> <BCUT_PEOE_1>
-0.63912839

> <BCUT_PEOE_2>
0.62570614

> <BCUT_PEOE_3>
2.4720266

> <BCUT_SLOGP_0>
-2.3794544

> <BCUT_SLOGP_1>
-0.52037042

> <BCUT_SLOGP_2>
0.82058841

> <BCUT_SLOGP_3>
2.5389328

> <BCUT_SMR_0>
-2.1788027

> <BCUT_SMR_1>
-0.46204686

> <BCUT_SMR_2>
0.862948

> <BCUT_SMR_3>
2.7172682

> <bpol>
17.732485

> <b_1rotN>
3

> <b_1rotR>
0.13043478

> <b_ar>
16

> <b_count>
35

> <b_double>
1

> <b_heavy>
23

> <b_max1len>
3

> <b_rotN>
3

> <b_rotR>
0.13043478

> <b_single>
18

> <b_triple>
0

> <chi0>
14.982763

> <chi0v>
11.963619

> <chi0v_C>
9.1188021

> <chi0_C>
10.568549

> <chi1>
10.041714

> <chi1v>
6.8142409

> <chi1v_C>
4.9641018

> <chi1_C>
6.6766701

> <chiral>
1

> <chiral_u>
1

> <density>
0.80798322

> <diameter>
12

> <FCharge>
0

> <GCUT_PEOE_0>
-0.80018985

> <GCUT_PEOE_1>
-0.43468437

> <GCUT_PEOE_2>
0.064189874

> <GCUT_PEOE_3>
2.4295425

> <GCUT_SLOGP_0>
-0.87404418

> <GCUT_SLOGP_1>
-0.30336073

> <GCUT_SLOGP_2>
0.19566172

> <GCUT_SLOGP_3>
2.5674436

> <GCUT_SMR_0>
-0.50056106

> <GCUT_SMR_1>
-0.22115374

> <GCUT_SMR_2>
0.23710363

> <GCUT_SMR_3>
2.7201796

> <Kier1>
15.879017

> <Kier2>
6.6299357

> <Kier3>
3.5045972

> <KierA1>
12.210001

> <KierA2>
5.025866

> <KierA3>
2.6276784

> <KierFlex>
2.9221823

> <lip_acc>
4

> <lip_don>
1

> <lip_druglike>
1

> <lip_violation>
0

> <logP(o/w)>
4.1090002

> <logS>
-5.66748

> <mr>
8.1282091

> <mutagenic>
0

> <nmol>
1

> <opr_brigid>
16

> <opr_leadlike>
1

> <opr_nring>
3

> <opr_nrot>
3

> <opr_violation>
0

> <PC+>
0

> <PC->
0

> <PEOE_PC+>
1.6865104

> <PEOE_PC->
-1.6865104

> <PEOE_RPC+>
0.15819426

> <PEOE_RPC->
0.25809506

> <PEOE_VSA+0>
23.789829

> <PEOE_VSA+1>
29.857702

> <PEOE_VSA+2>
6.6995511

> <PEOE_VSA+3>
8.458519

> <PEOE_VSA+4>
23.273705

> <PEOE_VSA+5>
14.708499

> <PEOE_VSA+6>
0.0

> <PEOE_VSA-0>
94.485641

> <PEOE_VSA-1>
41.836849

> <PEOE_VSA-2>
0.0

> <PEOE_VSA-3>
0.0

> <PEOE_VSA-4>
5.6825762

> <PEOE_VSA-5>
13.566921

> <PEOE_VSA-6>
10.271297

> <PEOE_VSA_FHYD>
0.75240171

> <PEOE_VSA_FNEG>
0.60830659

> <PEOE_VSA_FPNEG>
0.1082811

> <PEOE_VSA_FPOL>
0.24759831

> <PEOE_VSA_FPOS>
0.39169341

> <PEOE_VSA_FPPOS>
0.13931721

> <PEOE_VSA_HYD>
205.1281

> <PEOE_VSA_NEG>
165.84329

> <PEOE_VSA_PNEG>
29.520794

> <PEOE_VSA_POL>
67.502998

> <PEOE_VSA_POS>
106.7878

> <PEOE_VSA_PPOS>
37.982204

> <petitjean>
0.5

> <petitjeanSC>
1.0

> <Q_PC+>
0

> <Q_PC->
0

> <Q_RPC+>
0

> <Q_RPC->
0

> <Q_VSA_FHYD>
1

> <Q_VSA_FNEG>
0

> <Q_VSA_FPNEG>
0

> <Q_VSA_FPOL>
0

> <Q_VSA_FPOS>
1

> <Q_VSA_FPPOS>
0

> <Q_VSA_HYD>
272.6311

> <Q_VSA_NEG>
0

> <Q_VSA_PNEG>
0

> <Q_VSA_POL>
0

> <Q_VSA_POS>
272.6311

> <Q_VSA_PPOS>
0

> <radius>
6

> <reactive>
0

> <rings>
3

> <RPC+>
0

> <RPC->
0

> <rsynth>
0.42857143

> <SlogP>
4.3362999

> <SlogP_VSA0>
0.0

> <SlogP_VSA1>
24.530994

> <SlogP_VSA2>
23.862217

> <SlogP_VSA3>
25.385227

> <SlogP_VSA4>
3.185575

> <SlogP_VSA5>
9.5073462

> <SlogP_VSA6>
7.9114027

> <SlogP_VSA7>
138.6882

> <SlogP_VSA8>
0.0

> <SlogP_VSA9>
72.474655

> <SMR>
8.05058

> <SMR_VSA0>
33.369564

> <SMR_VSA1>
16.78553

> <SMR_VSA2>
25.385227

> <SMR_VSA3>
11.096977

> <SMR_VSA4>
15.185916

> <SMR_VSA5>
123.50229

> <SMR_VSA6>
7.7454643

> <SMR_VSA7>
72.474655

> <TPSA>
63.330002

> <VAdjEq>
0.48250595

> <VAdjMa>
5.523562

> <VDistEq>
3.3155611

> <VDistMa>
8.4616489

> <vdw_area>
272.6311

> <vdw_vol>
373.43472

> <vsa_acc>
5.6825762

> <vsa_acid>
0

> <vsa_base>
0

> <vsa_don>
0.0

> <vsa_hyd>
187.49478

> <vsa_other>
38.620304

> <vsa_pol>
32.816418

> <Weight>
301.729

> <weinerPath>
975

> <weinerPol>
32

> <zagreb>
112

$$$$
Row1449
 OpenBabel06061811532D

 26 28  0  0  0  0  0  0  0  0999 V2000
    0.0000    0.0000    0.0000 Cl  0  0  0  0  0  0  0  0  0  0  0  0
    0.0000    0.0000    0.0000 C   0  0  0  0  0  0  0  0  0  0  0  0
    0.0000    0.0000    0.0000 C   0  0  0  0  0  0  0  0  0  0  0  0
    0.0000    0.0000    0.0000 C   0  0  0  0  0  0  0  0  0  0  0  0
    0.0000    0.0000    0.0000 N   0  0  0  0  0  0  0  0  0  0  0  0
    0.0000    0.0000    0.0000 C   0  0  0  0  0  0  0  0  0  0  0  0
    0.0000    0.0000    0.0000 N   0  0  0  0  0  0  0  0  0  0  0  0
    0.0000    0.0000    0.0000 S   0  0  0  0  0  0  0  0  0  0  0  0
    0.0000    0.0000    0.0000 O   0  0  0  0  0  0  0  0  0  0  0  0
    0.0000    0.0000    0.0000 O   0  0  0  0  0  0  0  0  0  0  0  0
    0.0000    0.0000    0.0000 C   0  0  0  0  0  0  0  0  0  0  0  0
    0.0000    0.0000    0.0000 C   0  0  0  0  0  0  0  0  0  0  0  0
    0.0000    0.0000    0.0000 C   0  0  0  0  0  0  0  0  0  0  0  0
    0.0000    0.0000    0.0000 S   0  0  0  0  0  0  0  0  0  0  0  0
    0.0000    0.0000    0.0000 O   0  0  0  0  0  0  0  0  0  0  0  0
    0.0000    0.0000    0.0000 O   0  0  0  0  0  0  0  0  0  0  0  0
    0.0000    0.0000    0.0000 N   0  0  0  0  0  0  0  0  0  0  0  0
    0.0000    0.0000    0.0000 C   0  0  0  0  0  0  0  0  0  0  0  0
    0.0000    0.0000    0.0000 S   0  0  0  0  0  0  0  0  0  0  0  0
    0.0000    0.0000    0.0000 C   0  0  0  0  0  0  0  0  0  0  0  0
    0.0000    0.0000    0.0000 C   0  0  0  0  0  0  0  0  0  0  0  0
    0.0000    0.0000    0.0000 C   0  0  0  0  0  0  0  0  0  0  0  0
    0.0000    0.0000    0.0000 C   0  0  0  0  0  0  0  0  0  0  0  0
    0.0000    0.0000    0.0000 C   0  0  0  0  0  0  0  0  0  0  0  0
    0.0000    0.0000    0.0000 C   0  0  0  0  0  0  0  0  0  0  0  0
    0.0000    0.0000    0.0000 C   0  0  0  0  0  0  0  0  0  0  0  0
  1  2  1  0  0  0  0
  2 13  1  0  0  0  0
  2  3  2  0  0  0  0
  3  4  1  0  0  0  0
  4 11  2  0  0  0  0
  4  5  1  0  0  0  0
  5  6  1  0  0  0  0
  6  7  2  0  0  0  0
  6 18  1  0  0  0  0
  7  8  1  0  0  0  0
  8  9  2  0  0  0  0
  8 10  2  0  0  0  0
  8 11  1  0  0  0  0
 11 12  1  0  0  0  0
 12 13  2  0  0  0  0
 13 14  1  0  0  0  0
 14 15  2  0  0  0  0
 14 16  2  0  0  0  0
 14 17  1  0  0  0  0
 18 19  1  0  0  0  0
 19 20  1  0  0  0  0
 20 21  1  0  0  0  0
 21 26  1  0  0  0  0
 21 22  2  0  0  0  0
 22 23  1  0  0  0  0
 23 24  2  0  0  0  0
 24 25  1  0  0  0  0
 25 26  2  0  0  0  0
M  END
> <Index>
1450

> <ID>
HT0255

> <class>
1

> <apol>
53.1231

> <ast_fraglike>
0

> <ast_fraglike_ext>
0

> <ast_violation>
2

> <ast_violation_ext>
4

> <a_acc>
5

> <a_acid>
0

> <a_aro>
12

> <a_base>
0

> <a_count>
40

> <a_don>
2

> <a_donacc>
7

> <a_heavy>
26

> <a_hyd>
16

> <a_IC>
83.461021

> <a_ICM>
2.0865254

> <a_nB>
0

> <a_nBr>
0

> <a_nC>
15

> <a_nCl>
1

> <a_nF>
0

> <a_nH>
14

> <a_nI>
0

> <a_nN>
3

> <a_nO>
4

> <a_nP>
0

> <a_nS>
3

> <balabanJ>
1.5455066

> <BCUT_PEOE_0>
-2.4639423

> <BCUT_PEOE_1>
-0.51997757

> <BCUT_PEOE_2>
0.58220941

> <BCUT_PEOE_3>
2.4959204

> <BCUT_SLOGP_0>
-2.5739591

> <BCUT_SLOGP_1>
-0.41819003

> <BCUT_SLOGP_2>
0.68457401

> <BCUT_SLOGP_3>
2.5553005

> <BCUT_SMR_0>
-2.0857947

> <BCUT_SMR_1>
-0.39089093

> <BCUT_SMR_2>
0.79008085

> <BCUT_SMR_3>
2.8322961

> <bpol>
32.276897

> <b_1rotN>
5

> <b_1rotR>
0.17857143

> <b_ar>
12

> <b_count>
42

> <b_double>
1

> <b_heavy>
28

> <b_max1len>
4

> <b_rotN>
5

> <b_rotR>
0.17857143

> <b_single>
29

> <b_triple>
0

> <chi0>
18.949383

> <chi0v>
16.42135

> <chi0v_C>
8.4556656

> <chi0_C>
9.828063

> <chi1>
12.165651

> <chi1v>
11.77467

> <chi1v_C>
4.272491

> <chi1_C>
5.932653

> <chiral>
0

> <chiral_u>
0

> <density>
0.94046634

> <diameter>
14

> <FCharge>
0

> <GCUT_PEOE_0>
-0.91999567

> <GCUT_PEOE_1>
-0.39675659

> <GCUT_PEOE_2>
0.058854736

> <GCUT_PEOE_3>
2.5329356

> <GCUT_SLOGP_0>
-1.3482747

> <GCUT_SLOGP_1>
-0.41896391

> <GCUT_SLOGP_2>
0.16445385

> <GCUT_SLOGP_3>
2.6037221

> <GCUT_SMR_0>
-0.44015875

> <GCUT_SMR_1>
-0.18006726

> <GCUT_SMR_2>
0.23279381

> <GCUT_SMR_3>
2.8448443

> <Kier1>
20.727041

> <Kier2>
8.1632652

> <Kier3>
5.0934258

> <KierA1>
20.545588

> <KierA2>
8.08887

> <KierA3>
5.0457025

> <KierFlex>
6.3919458

> <lip_acc>
7

> <lip_don>
3

> <lip_druglike>
1

> <lip_violation>
0

> <logP(o/w)>
2.7079999

> <logS>
-5.8038702

> <mr>
10.36478

> <mutagenic>
0

> <nmol>
1

> <opr_brigid>
17

> <opr_leadlike>
1

> <opr_nring>
3

> <opr_nrot>
5

> <opr_violation>
0

> <PC+>
0

> <PC->
0

> <PEOE_PC+>
2.019464

> <PEOE_PC->
-2.019464

> <PEOE_RPC+>
0.15789032

> <PEOE_RPC->
0.22060379

> <PEOE_VSA+0>
85.569504

> <PEOE_VSA+1>
36.557255

> <PEOE_VSA+2>
4.5197463

> <PEOE_VSA+3>
22.360512

> <PEOE_VSA+4>
0.0

> <PEOE_VSA+5>
0.0

> <PEOE_VSA+6>
8.3692026

> <PEOE_VSA-0>
14.463444

> <PEOE_VSA-1>
90.856468

> <PEOE_VSA-2>
40.091728

> <PEOE_VSA-3>
28.804367

> <PEOE_VSA-4>
32.016521

> <PEOE_VSA-5>
0.0

> <PEOE_VSA-6>
0.13689101

> <PEOE_VSA_FHYD>
0.8885963

> <PEOE_VSA_FNEG>
0.56734544

> <PEOE_VSA_FPNEG>
0.088395327

> <PEOE_VSA_FPOL>
0.11140372

> <PEOE_VSA_FPOS>
0.43265459

> <PEOE_VSA_FPPOS>
0.023008393

> <PEOE_VSA_HYD>
323.22302

> <PEOE_VSA_NEG>
206.36942

> <PEOE_VSA_PNEG>
32.153416

> <PEOE_VSA_POL>
40.522617

> <PEOE_VSA_POS>
157.37622

> <PEOE_VSA_PPOS>
8.3692026

> <petitjean>
0.5

> <petitjeanSC>
1.0

> <Q_PC+>
0

> <Q_PC->
0

> <Q_RPC+>
0

> <Q_RPC->
0

> <Q_VSA_FHYD>
1

> <Q_VSA_FNEG>
0

> <Q_VSA_FPNEG>
0

> <Q_VSA_FPOL>
0

> <Q_VSA_FPOS>
1

> <Q_VSA_FPPOS>
0

> <Q_VSA_HYD>
363.74564

> <Q_VSA_NEG>
0

> <Q_VSA_PNEG>
0

> <Q_VSA_POL>
0

> <Q_VSA_POS>
363.74564

> <Q_VSA_PPOS>
0

> <radius>
7

> <reactive>
0

> <rings>
3

> <RPC+>
0

> <RPC->
0

> <rsynth>
1.0

> <SlogP>
2.6998999

> <SlogP_VSA0>
31.291433

> <SlogP_VSA1>
116.68204

> <SlogP_VSA2>
13.281486

> <SlogP_VSA3>
17.233564

> <SlogP_VSA4>
3.185575

> <SlogP_VSA5>
18.281244

> <SlogP_VSA6>
3.5006065

> <SlogP_VSA7>
123.50229

> <SlogP_VSA8>
0.0

> <SlogP_VSA9>
91.358498

> <SMR>
10.38787

> <SMR_VSA0>
96.343376

> <SMR_VSA1>
15.179776

> <SMR_VSA2>
3.1014678

> <SMR_VSA3>
6.6861815

> <SMR_VSA4>
52.058933

> <SMR_VSA5>
140.73586

> <SMR_VSA6>
19.561485

> <SMR_VSA7>
84.649673

> <TPSA>
118.69

> <VAdjEq>
0.41210872

> <VAdjMa>
5.8073549

> <VDistEq>
3.5744481

> <VDistMa>
9.0791292

> <vdw_area>
363.74564

> <vdw_vol>
459.28809

> <vsa_acc>
72.108253

> <vsa_acid>
0

> <vsa_base>
0

> <vsa_don>
25.817696

> <vsa_hyd>
217.36818

> <vsa_other>
31.401779

> <vsa_pol>
97.925949

> <Weight>
431.94501

> <weinerPath>
1784

> <weinerPol>
42

> <zagreb>
140

$$$$
Row1450
 OpenBabel06061811532D

 24 26  0  0  1  0  0  0  0  0999 V2000
    0.0000    0.0000    0.0000 Cl  0  0  0  0  0  0  0  0  0  0  0  0
    0.0000    0.0000    0.0000 C   0  0  0  0  0  0  0  0  0  0  0  0
    0.0000    0.0000    0.0000 C   0  0  0  0  0  0  0  0  0  0  0  0
    0.0000    0.0000    0.0000 C   0  0  0  0  0  0  0  0  0  0  0  0
    0.0000    0.0000    0.0000 N   0  0  0  0  0  0  0  0  0  0  0  0
    0.0000    0.0000    0.0000 C   0  0  3  0  0  0  0  0  0  0  0  0
    0.0000    0.0000    0.0000 N   0  0  0  0  0  0  0  0  0  0  0  0
    0.0000    0.0000    0.0000 S   0  0  0  0  0  0  0  0  0  0  0  0
    0.0000    0.0000    0.0000 O   0  0  0  0  0  0  0  0  0  0  0  0
    0.0000    0.0000    0.0000 O   0  0  0  0  0  0  0  0  0  0  0  0
    0.0000    0.0000    0.0000 C   0  0  0  0  0  0  0  0  0  0  0  0
    0.0000    0.0000    0.0000 C   0  0  0  0  0  0  0  0  0  0  0  0
    0.0000    0.0000    0.0000 C   0  0  0  0  0  0  0  0  0  0  0  0
    0.0000    0.0000    0.0000 S   0  0  0  0  0  0  0  0  0  0  0  0
    0.0000    0.0000    0.0000 O   0  0  0  0  0  0  0  0  0  0  0  0
    0.0000    0.0000    0.0000 O   0  0  0  0  0  0  0  0  0  0  0  0
    0.0000    0.0000    0.0000 N   0  0  0  0  0  0  0  0  0  0  0  0
    0.0000    0.0000    0.0000 C   0  0  0  0  0  0  0  0  0  0  0  0
    0.0000    0.0000    0.0000 C   0  0  0  0  0  0  0  0  0  0  0  0
    0.0000    0.0000    0.0000 C   0  0  0  0  0  0  0  0  0  0  0  0
    0.0000    0.0000    0.0000 C   0  0  0  0  0  0  0  0  0  0  0  0
    0.0000    0.0000    0.0000 C   0  0  0  0  0  0  0  0  0  0  0  0
    0.0000    0.0000    0.0000 C   0  0  0  0  0  0  0  0  0  0  0  0
    0.0000    0.0000    0.0000 C   0  0  0  0  0  0  0  0  0  0  0  0
  1  2  1  0  0  0  0
  2 13  1  0  0  0  0
  2  3  2  0  0  0  0
  3  4  1  0  0  0  0
  4 11  2  0  0  0  0
  4  5  1  0  0  0  0
  5  6  1  0  0  0  0
  6  7  1  0  0  0  0
  6 18  1  0  0  0  0
  7  8  1  0  0  0  0
  8  9  2  0  0  0  0
  8 10  2  0  0  0  0
  8 11  1  0  0  0  0
 11 12  1  0  0  0  0
 12 13  2  0  0  0  0
 13 14  1  0  0  0  0
 14 15  2  0  0  0  0
 14 16  2  0  0  0  0
 14 17  1  0  0  0  0
 18 19  1  0  0  0  0
 19 24  1  0  0  0  0
 19 20  2  0  0  0  0
 20 21  1  0  0  0  0
 21 22  2  0  0  0  0
 22 23  1  0  0  0  0
 23 24  2  0  0  0  0
M  END
> <Index>
1451

> <ID>
HT0259

> <class>
1

> <apol>
48.4631

> <ast_fraglike>
0

> <ast_fraglike_ext>
0

> <ast_violation>
2

> <ast_violation_ext>
3

> <a_acc>
4

> <a_acid>
0

> <a_aro>
12

> <a_base>
0

> <a_count>
38

> <a_don>
3

> <a_donacc>
7

> <a_heavy>
24

> <a_hyd>
14

> <a_IC>
78.060417

> <a_ICM>
2.0542216

> <a_nB>
0

> <a_nBr>
0

> <a_nC>
14

> <a_nCl>
1

> <a_nF>
0

> <a_nH>
14

> <a_nI>
0

> <a_nN>
3

> <a_nO>
4

> <a_nP>
0

> <a_nS>
2

> <balabanJ>
1.6732761

> <BCUT_PEOE_0>
-2.6318641

> <BCUT_PEOE_1>
-0.60714269

> <BCUT_PEOE_2>
0.65904397

> <BCUT_PEOE_3>
2.6017666

> <BCUT_SLOGP_0>
-2.7915664

> <BCUT_SLOGP_1>
-0.51426959

> <BCUT_SLOGP_2>
0.76357245

> <BCUT_SLOGP_3>
2.5388873

> <BCUT_SMR_0>
-2.3102984

> <BCUT_SMR_1>
-0.46088907

> <BCUT_SMR_2>
0.80871969

> <BCUT_SMR_3>
2.921948

> <bpol>
29.336899

> <b_1rotN>
3

> <b_1rotR>
0.11538462

> <b_ar>
12

> <b_count>
40

> <b_double>
0

> <b_heavy>
26

> <b_max1len>
3

> <b_rotN>
3

> <b_rotR>
0.11538462

> <b_single>
28

> <b_triple>
0

> <chi0>
17.53517

> <chi0v>
14.619636

> <chi0v_C>
7.8259091

> <chi0_C>
9.1209555

> <chi1>
11.165651

> <chi1v>
10.265707

> <chi1v_C>
4.3271856

> <chi1_C>
5.932653

> <chiral>
1

> <chiral_u>
1

> <density>
0.92501217

> <diameter>
12

> <FCharge>
0

> <GCUT_PEOE_0>
-0.88748342

> <GCUT_PEOE_1>
-0.39451471

> <GCUT_PEOE_2>
0.072456598

> <GCUT_PEOE_3>
2.6347229

> <GCUT_SLOGP_0>
-1.3482859

> <GCUT_SLOGP_1>
-0.43786871

> <GCUT_SLOGP_2>
0.15586407

> <GCUT_SLOGP_3>
2.6550395

> <GCUT_SMR_0>
-0.50188005

> <GCUT_SMR_1>
-0.18509975

> <GCUT_SMR_2>
0.18158102

> <GCUT_SMR_3>
2.9191861

> <Kier1>
18.781065

> <Kier2>
6.9575

> <Kier3>
4.2332363

> <KierA1>
18.126635

> <KierA2>
6.7043338

> <KierA3>
4.074513

> <KierFlex>
5.0636253

> <lip_acc>
7

> <lip_don>
4

> <lip_druglike>
1

> <lip_violation>
0

> <logP(o/w)>
1.46

> <logS>
-3.83916

> <mr>
9.2410107

> <mutagenic>
0

> <nmol>
1

> <opr_brigid>
17

> <opr_leadlike>
1

> <opr_nring>
3

> <opr_nrot>
3

> <opr_violation>
0

> <PC+>
0

> <PC->
0

> <PEOE_PC+>
1.8939553

> <PEOE_PC->
-1.8939553

> <PEOE_RPC+>
0.1635457

> <PEOE_RPC->
0.20217812

> <PEOE_VSA+0>
54.476315

> <PEOE_VSA+1>
38.476715

> <PEOE_VSA+2>
26.880259

> <PEOE_VSA+3>
0.0

> <PEOE_VSA+4>
0.0

> <PEOE_VSA+5>
0.0

> <PEOE_VSA+6>
8.3692026

> <PEOE_VSA-0>
31.78377

> <PEOE_VSA-1>
90.856468

> <PEOE_VSA-2>
34.546043

> <PEOE_VSA-3>
9.0437498

> <PEOE_VSA-4>
32.016521

> <PEOE_VSA-5>
0.0

> <PEOE_VSA-6>
0.13689101

> <PEOE_VSA_FHYD>
0.87592053

> <PEOE_VSA_FNEG>
0.60744637

> <PEOE_VSA_FPNEG>
0.098453149

> <PEOE_VSA_FPOL>
0.12407949

> <PEOE_VSA_FPOS>
0.39255363

> <PEOE_VSA_FPPOS>
0.025626341

> <PEOE_VSA_HYD>
286.06332

> <PEOE_VSA_NEG>
198.38344

> <PEOE_VSA_PNEG>
32.153416

> <PEOE_VSA_POL>
40.522617

> <PEOE_VSA_POS>
128.2025

> <PEOE_VSA_PPOS>
8.3692026

> <petitjean>
0.5

> <petitjeanSC>
1.0

> <Q_PC+>
0

> <Q_PC->
0

> <Q_RPC+>
0

> <Q_RPC->
0

> <Q_VSA_FHYD>
1

> <Q_VSA_FNEG>
0

> <Q_VSA_FPNEG>
0

> <Q_VSA_FPOL>
0

> <Q_VSA_FPOS>
1

> <Q_VSA_FPPOS>
0

> <Q_VSA_HYD>
326.58594

> <Q_VSA_NEG>
0

> <Q_VSA_PNEG>
0

> <Q_VSA_POL>
0

> <Q_VSA_POS>
326.58594

> <Q_VSA_PPOS>
0

> <radius>
6

> <reactive>
0

> <rings>
3

> <RPC+>
0

> <RPC->
0

> <rsynth>
1.0

> <SlogP>
1.2599699

> <SlogP_VSA0>
47.69643

> <SlogP_VSA1>
114.35413

> <SlogP_VSA2>
16.834627

> <SlogP_VSA3>
0.0

> <SlogP_VSA4>
3.185575

> <SlogP_VSA5>
21.969873

> <SlogP_VSA6>
3.5006065

> <SlogP_VSA7>
123.50229

> <SlogP_VSA8>
0.0

> <SlogP_VSA9>
41.905392

> <SMR>
9.0703402

> <SMR_VSA0>
96.343376

> <SMR_VSA1>
0.0

> <SMR_VSA2>
19.506466

> <SMR_VSA3>
10.239323

> <SMR_VSA4>
52.058933

> <SMR_VSA5>
142.3707

> <SMR_VSA6>
0.0

> <SMR_VSA7>
52.43013

> <TPSA>
118.36

> <VAdjEq>
0.43739632

> <VAdjMa>
5.7004399

> <VDistEq>
3.3257031

> <VDistMa>
8.8726015

> <vdw_area>
326.58594

> <vdw_vol>
419.31125

> <vsa_acc>
64.033043

> <vsa_acid>
0

> <vsa_base>
0

> <vsa_don>
33.892902

> <vsa_hyd>
177.84694

> <vsa_other>
31.401779

> <vsa_pol>
97.925949

> <Weight>
387.86801

> <weinerPath>
1317

> <weinerPol>
40

> <zagreb>
132

$$$$
Row1451
 OpenBabel06061811532D

 26 28  0  0  1  0  0  0  0  0999 V2000
    0.0000    0.0000    0.0000 S   0  0  0  0  0  0  0  0  0  0  0  0
    0.0000    0.0000    0.0000 C   0  0  1  0  0  0  0  0  0  0  0  0
    0.0000    0.0000    0.0000 H   0  0  0  0  0  0  0  0  0  0  0  0
    0.0000    0.0000    0.0000 N   0  0  0  0  0  0  0  0  0  0  0  0
    0.0000    0.0000    0.0000 C   0  0  1  0  0  0  0  0  0  0  0  0
    0.0000    0.0000    0.0000 H   0  0  0  0  0  0  0  0  0  0  0  0
    0.0000    0.0000    0.0000 C   0  0  0  0  0  0  0  0  0  0  0  0
    0.0000    0.0000    0.0000 O   0  0  0  0  0  0  0  0  0  0  0  0
    0.0000    0.0000    0.0000 O   0  0  0  0  0  0  0  0  0  0  0  0
    0.0000    0.0000    0.0000 C   0  0  0  0  0  0  0  0  0  0  0  0
    0.0000    0.0000    0.0000 C   0  0  0  0  0  0  0  0  0  0  0  0
    0.0000    0.0000    0.0000 C   0  0  0  0  0  0  0  0  0  0  0  0
    0.0000    0.0000    0.0000 C   0  0  0  0  0  0  0  0  0  0  0  0
    0.0000    0.0000    0.0000 O   0  0  0  0  0  0  0  0  0  0  0  0
    0.0000    0.0000    0.0000 C   0  0  1  0  0  0  0  0  0  0  0  0
    0.0000    0.0000    0.0000 H   0  0  0  0  0  0  0  0  0  0  0  0
    0.0000    0.0000    0.0000 N   0  0  0  0  0  0  0  0  0  0  0  0
    0.0000    0.0000    0.0000 C   0  0  0  0  0  0  0  0  0  0  0  0
    0.0000    0.0000    0.0000 O   0  0  0  0  0  0  0  0  0  0  0  0
    0.0000    0.0000    0.0000 C   0  0  0  0  0  0  0  0  0  0  0  0
    0.0000    0.0000    0.0000 C   0  0  0  0  0  0  0  0  0  0  0  0
    0.0000    0.0000    0.0000 C   0  0  0  0  0  0  0  0  0  0  0  0
    0.0000    0.0000    0.0000 C   0  0  0  0  0  0  0  0  0  0  0  0
    0.0000    0.0000    0.0000 C   0  0  0  0  0  0  0  0  0  0  0  0
    0.0000    0.0000    0.0000 C   0  0  0  0  0  0  0  0  0  0  0  0
    0.0000    0.0000    0.0000 C   0  0  0  0  0  0  0  0  0  0  0  0
  1 10  1  0  0  0  0
  1  2  1  0  0  0  0
  2  3  1  0  0  0  0
  2 15  1  0  0  0  0
  2  4  1  0  0  0  0
  4  5  1  0  0  0  0
  4 13  1  0  0  0  0
  5  6  1  0  0  0  0
  5  7  1  0  0  0  0
  5 10  1  0  0  0  0
  7  8  1  0  0  0  0
  7  9  2  0  0  0  0
 10 11  1  0  0  0  0
 10 12  1  0  0  0  0
 13 14  2  0  0  0  0
 13 15  1  0  0  0  0
 15 16  1  0  0  0  0
 15 17  1  0  0  0  0
 17 18  1  0  0  0  0
 18 19  2  0  0  0  0
 18 20  1  0  0  0  0
 20 21  1  0  0  0  0
 21 26  1  0  0  0  0
 21 22  2  0  0  0  0
 22 23  1  0  0  0  0
 23 24  2  0  0  0  0
 24 25  1  0  0  0  0
 25 26  2  0  0  0  0
M  END
> <Index>
1452

> <ID>
HT0260

> <class>
1

> <apol>
48.470276

> <ast_fraglike>
0

> <ast_fraglike_ext>
0

> <ast_violation>
2

> <ast_violation_ext>
3

> <a_acc>
4

> <a_acid>
0

> <a_aro>
6

> <a_base>
0

> <a_count>
41

> <a_don>
3

> <a_donacc>
7

> <a_heavy>
23

> <a_hyd>
14

> <a_IC>
70.600983

> <a_ICM>
1.7219752

> <a_nB>
0

> <a_nBr>
0

> <a_nC>
16

> <a_nCl>
0

> <a_nF>
0

> <a_nH>
18

> <a_nI>
0

> <a_nN>
2

> <a_nO>
4

> <a_nP>
0

> <a_nS>
1

> <balabanJ>
1.5629148

> <BCUT_PEOE_0>
-2.6451666

> <BCUT_PEOE_1>
-0.53786004

> <BCUT_PEOE_2>
0.56246662

> <BCUT_PEOE_3>
2.849803

> <BCUT_SLOGP_0>
-2.9002864

> <BCUT_SLOGP_1>
-0.5059132

> <BCUT_SLOGP_2>
0.59086215

> <BCUT_SLOGP_3>
2.7543797

> <BCUT_SMR_0>
-2.390523

> <BCUT_SMR_1>
-0.36646411

> <BCUT_SMR_2>
0.75979799

> <BCUT_SMR_3>
3.1309264

> <bpol>
27.471725

> <b_1rotN>
4

> <b_1rotR>
0.16

> <b_ar>
6

> <b_count>
43

> <b_double>
3

> <b_heavy>
25

> <b_max1len>
4

> <b_rotN>
5

> <b_rotR>
0.2

> <b_single>
34

> <b_triple>
0

> <chi0>
16.775656

> <chi0v>
13.669826

> <chi0v_C>
9.8259087

> <chi0_C>
10.784093

> <chi1>
10.809367

> <chi1v>
8.2512875

> <chi1v_C>
4.8171492

> <chi1_C>
5.9216685

> <chiral>
3

> <chiral_u>
0

> <density>
0.80771756

> <diameter>
12

> <FCharge>
0

> <GCUT_PEOE_0>
-0.83771187

> <GCUT_PEOE_1>
-0.39484292

> <GCUT_PEOE_2>
0.068661794

> <GCUT_PEOE_3>
2.6858878

> <GCUT_SLOGP_0>
-1.1649739

> <GCUT_SLOGP_1>
-0.4045226

> <GCUT_SLOGP_2>
0.11614167

> <GCUT_SLOGP_3>
2.6368763

> <GCUT_SMR_0>
-0.53661817

> <GCUT_SMR_1>
-0.21419701

> <GCUT_SMR_2>
0.19228721

> <GCUT_SMR_3>
2.951407

> <Kier1>
17.811199

> <Kier2>
6.7188368

> <Kier3>
3.3833141

> <KierA1>
14.771276

> <KierA2>
5.5217657

> <KierA3>
2.7614512

> <KierFlex>
3.5462401

> <lip_acc>
6

> <lip_don>
2

> <lip_druglike>
1

> <lip_violation>
0

> <logP(o/w)>
1.625

> <logS>
-3.47961

> <mr>
8.7237349

> <mutagenic>
0

> <nmol>
1

> <opr_brigid>
14

> <opr_leadlike>
1

> <opr_nring>
3

> <opr_nrot>
4

> <opr_violation>
0

> <PC+>
0

> <PC->
0

> <PEOE_PC+>
2.3510556

> <PEOE_PC->
-2.3510556

> <PEOE_RPC+>
0.12070175

> <PEOE_RPC->
0.14543043

> <PEOE_VSA+0>
34.123089

> <PEOE_VSA+1>
42.824402

> <PEOE_VSA+2>
11.413943

> <PEOE_VSA+3>
8.6190128

> <PEOE_VSA+4>
23.273705

> <PEOE_VSA+5>
27.65803

> <PEOE_VSA+6>
0.0

> <PEOE_VSA-0>
39.703896

> <PEOE_VSA-1>
61.274521

> <PEOE_VSA-2>
19.760618

> <PEOE_VSA-3>
0.0

> <PEOE_VSA-4>
0.0

> <PEOE_VSA-5>
40.700764

> <PEOE_VSA-6>
7.9044313

> <PEOE_VSA_FHYD>
0.68625712

> <PEOE_VSA_FNEG>
0.53377718

> <PEOE_VSA_FPNEG>
0.15320477

> <PEOE_VSA_FPOL>
0.31374285

> <PEOE_VSA_FPOS>
0.46622282

> <PEOE_VSA_FPPOS>
0.16053808

> <PEOE_VSA_HYD>
217.71948

> <PEOE_VSA_NEG>
169.34422

> <PEOE_VSA_PNEG>
48.605194

> <PEOE_VSA_POL>
99.536926

> <PEOE_VSA_POS>
147.91219

> <PEOE_VSA_PPOS>
50.931732

> <petitjean>
0.5

> <petitjeanSC>
1.0

> <Q_PC+>
0

> <Q_PC->
0

> <Q_RPC+>
0

> <Q_RPC->
0

> <Q_VSA_FHYD>
1

> <Q_VSA_FNEG>
0

> <Q_VSA_FPNEG>
0

> <Q_VSA_FPOL>
0

> <Q_VSA_FPOS>
1

> <Q_VSA_FPPOS>
0

> <Q_VSA_HYD>
317.25641

> <Q_VSA_NEG>
0

> <Q_VSA_PNEG>
0

> <Q_VSA_POL>
0

> <Q_VSA_POS>
317.25641

> <Q_VSA_PPOS>
0

> <radius>
6

> <reactive>
0

> <rings>
3

> <RPC+>
0

> <RPC->
0

> <rsynth>
1.0

> <SlogP>
0.86076999

> <SlogP_VSA0>
18.01075

> <SlogP_VSA1>
21.387344

> <SlogP_VSA2>
81.897713

> <SlogP_VSA3>
25.385227

> <SlogP_VSA4>
3.185575

> <SlogP_VSA5>
18.868406

> <SlogP_VSA6>
0.0

> <SlogP_VSA7>
88.215919

> <SlogP_VSA8>
0.0

> <SlogP_VSA9>
98.871574

> <SMR>
8.5805502

> <SMR_VSA0>
71.586647

> <SMR_VSA1>
3.1243138

> <SMR_VSA2>
43.395977

> <SMR_VSA3>
13.49664

> <SMR_VSA4>
0.0

> <SMR_VSA5>
107.08433

> <SMR_VSA6>
18.263031

> <SMR_VSA7>
98.871574

> <TPSA>
86.709999

> <VAdjEq>
0.45137304

> <VAdjMa>
5.643856

> <VDistEq>
3.3737557

> <VDistMa>
8.7356215

> <vdw_area>
317.25641

> <vdw_vol>
414.00116

> <vsa_acc>
27.133842

> <vsa_acid>
0

> <vsa_base>
0

> <vsa_don>
5.6825762

> <vsa_hyd>
197.71175

> <vsa_other>
40.607563

> <vsa_pol>
59.95026

> <Weight>
334.396

> <weinerPath>
1247

> <weinerPol>
35

> <zagreb>
126

$$$$
Row1452
 OpenBabel06061811532D

 26 28  0  0  0  0  0  0  0  0999 V2000
    0.0000    0.0000    0.0000 O   0  0  0  0  0  0  0  0  0  0  0  0
    0.0000    0.0000    0.0000 C   0  0  0  0  0  0  0  0  0  0  0  0
    0.0000    0.0000    0.0000 O   0  0  0  0  0  0  0  0  0  0  0  0
    0.0000    0.0000    0.0000 C   0  0  0  0  0  0  0  0  0  0  0  0
    0.0000    0.0000    0.0000 C   0  0  0  0  0  0  0  0  0  0  0  0
    0.0000    0.0000    0.0000 C   0  0  0  0  0  0  0  0  0  0  0  0
    0.0000    0.0000    0.0000 C   0  0  0  0  0  0  0  0  0  0  0  0
    0.0000    0.0000    0.0000 C   0  0  0  0  0  0  0  0  0  0  0  0
    0.0000    0.0000    0.0000 C   0  0  0  0  0  0  0  0  0  0  0  0
    0.0000    0.0000    0.0000 C   0  0  0  0  0  0  0  0  0  0  0  0
    0.0000    0.0000    0.0000 C   0  0  0  0  0  0  0  0  0  0  0  0
    0.0000    0.0000    0.0000 C   0  0  0  0  0  0  0  0  0  0  0  0
    0.0000    0.0000    0.0000 C   0  0  0  0  0  0  0  0  0  0  0  0
    0.0000    0.0000    0.0000 C   0  0  0  0  0  0  0  0  0  0  0  0
    0.0000    0.0000    0.0000 C   0  0  0  0  0  0  0  0  0  0  0  0
    0.0000    0.0000    0.0000 C   0  0  0  0  0  0  0  0  0  0  0  0
    0.0000    0.0000    0.0000 C   0  0  0  0  0  0  0  0  0  0  0  0
    0.0000    0.0000    0.0000 C   0  0  0  0  0  0  0  0  0  0  0  0
    0.0000    0.0000    0.0000 C   0  0  0  0  0  0  0  0  0  0  0  0
    0.0000    0.0000    0.0000 C   0  0  0  0  0  0  0  0  0  0  0  0
    0.0000    0.0000    0.0000 C   0  0  0  0  0  0  0  0  0  0  0  0
    0.0000    0.0000    0.0000 C   0  0  0  0  0  0  0  0  0  0  0  0
    0.0000    0.0000    0.0000 C   0  0  0  0  0  0  0  0  0  0  0  0
    0.0000    0.0000    0.0000 C   0  0  0  0  0  0  0  0  0  0  0  0
    0.0000    0.0000    0.0000 C   0  0  0  0  0  0  0  0  0  0  0  0
    0.0000    0.0000    0.0000 C   0  0  0  0  0  0  0  0  0  0  0  0
  1  2  1  0  0  0  0
  2  3  2  0  0  0  0
  2  4  1  0  0  0  0
  4  9  1  0  0  0  0
  4  5  2  0  0  0  0
  5  6  1  0  0  0  0
  6  7  2  0  0  0  0
  7  8  1  0  0  0  0
  7 10  1  0  0  0  0
  8  9  2  0  0  0  0
 10 11  2  0  0  0  0
 10 12  1  0  0  0  0
 12 17  1  0  0  0  0
 12 13  2  0  0  0  0
 13 14  1  0  0  0  0
 14 22  1  0  0  0  0
 14 15  2  0  0  0  0
 15 16  1  0  0  0  0
 15 19  1  0  0  0  0
 16 17  2  0  0  0  0
 17 18  1  0  0  0  0
 19 20  1  0  0  0  0
 19 25  1  0  0  0  0
 19 26  1  0  0  0  0
 20 21  1  0  0  0  0
 21 22  1  0  0  0  0
 22 23  1  0  0  0  0
 22 24  1  0  0  0  0
M  END
> <Index>
1453

> <ID>
HT0280

> <class>
1

> <apol>
62.514202

> <ast_fraglike>
0

> <ast_fraglike_ext>
0

> <ast_violation>
2

> <ast_violation_ext>
3

> <a_acc>
2

> <a_acid>
0

> <a_aro>
12

> <a_base>
0

> <a_count>
54

> <a_don>
2

> <a_donacc>
4

> <a_heavy>
26

> <a_hyd>
23

> <a_IC>
64.118889

> <a_ICM>
1.1873868

> <a_nB>
0

> <a_nBr>
0

> <a_nC>
24

> <a_nCl>
0

> <a_nF>
0

> <a_nH>
28

> <a_nI>
0

> <a_nN>
0

> <a_nO>
2

> <a_nP>
0

> <a_nS>
0

> <balabanJ>
1.6975112

> <BCUT_PEOE_0>
-2.7935092

> <BCUT_PEOE_1>
-0.40095782

> <BCUT_PEOE_2>
0.42089137

> <BCUT_PEOE_3>
2.7419636

> <BCUT_SLOGP_0>
-2.6969001

> <BCUT_SLOGP_1>
-0.32872105

> <BCUT_SLOGP_2>
0.47893092

> <BCUT_SLOGP_3>
2.8448265

> <BCUT_SMR_0>
-2.5257952

> <BCUT_SMR_1>
-0.21347104

> <BCUT_SMR_2>
0.5945878

> <BCUT_SMR_3>
3.0148172

> <bpol>
31.567797

> <b_1rotN>
3

> <b_1rotR>
0.10714286

> <b_ar>
12

> <b_count>
56

> <b_double>
2

> <b_heavy>
28

> <b_max1len>
4

> <b_rotN>
3

> <b_rotR>
0.10714286

> <b_single>
42

> <b_triple>
0

> <chi0>
19.275656

> <chi0v>
16.440884

> <chi0v_C>
15.585422

> <chi0_C>
17.275656

> <chi1>
12.026511

> <chi1v>
9.2144585

> <chi1v_C>
8.7867279

> <chi1_C>
10.871811

> <chiral>
0

> <chiral_u>
0

> <density>
0.66139275

> <diameter>
12

> <FCharge>
0

> <GCUT_PEOE_0>
-0.7916609

> <GCUT_PEOE_1>
-0.35812137

> <GCUT_PEOE_2>
-0.06397517

> <GCUT_PEOE_3>
2.9560356

> <GCUT_SLOGP_0>
-0.85412347

> <GCUT_SLOGP_1>
-0.26111808

> <GCUT_SLOGP_2>
0.019105842

> <GCUT_SLOGP_3>
3.0793869

> <GCUT_SMR_0>
-0.52568394

> <GCUT_SMR_1>
-0.16408844

> <GCUT_SMR_2>
0.10213527

> <GCUT_SMR_3>
3.2264738

> <Kier1>
20.727041

> <Kier2>
7.4380164

> <Kier3>
4.0775623

> <KierA1>
15.945212

> <KierA2>
5.6577702

> <KierA3>
3.0766311

> <KierFlex>
3.4697826

> <lip_acc>
2

> <lip_don>
1

> <lip_druglike>
1

> <lip_violation>
1

> <logP(o/w)>
6.9949999

> <logS>
-8.6394997

> <mr>
10.605356

> <mutagenic>
0

> <nmol>
1

> <opr_brigid>
18

> <opr_leadlike>
1

> <opr_nring>
3

> <opr_nrot>
4

> <opr_violation>
1

> <PC+>
0

> <PC->
0

> <PEOE_PC+>
1.5197574

> <PEOE_PC->
-1.5197574

> <PEOE_RPC+>
0.19163333

> <PEOE_RPC->
0.21548802

> <PEOE_VSA+0>
83.250877

> <PEOE_VSA+1>
34.123089

> <PEOE_VSA+2>
0.0

> <PEOE_VSA+3>
0.0

> <PEOE_VSA+4>
10.324173

> <PEOE_VSA+5>
14.708499

> <PEOE_VSA+6>
0.0

> <PEOE_VSA-0>
86.166252

> <PEOE_VSA-1>
134.05669

> <PEOE_VSA-2>
0.0

> <PEOE_VSA-3>
0.0

> <PEOE_VSA-4>
0.0

> <PEOE_VSA-5>
13.566921

> <PEOE_VSA-6>
7.7675405

> <PEOE_VSA_FHYD>
0.87924093

> <PEOE_VSA_FNEG>
0.62911469

> <PEOE_VSA_FPNEG>
0.055563696

> <PEOE_VSA_FPOL>
0.12075905

> <PEOE_VSA_FPOS>
0.37088534

> <PEOE_VSA_FPPOS>
0.065195352

> <PEOE_VSA_HYD>
337.59689

> <PEOE_VSA_NEG>
241.5574

> <PEOE_VSA_PNEG>
21.334461

> <PEOE_VSA_POL>
46.367134

> <PEOE_VSA_POS>
142.40663

> <PEOE_VSA_PPOS>
25.032671

> <petitjean>
0.5

> <petitjeanSC>
1.0

> <Q_PC+>
0

> <Q_PC->
0

> <Q_RPC+>
0

> <Q_RPC->
0

> <Q_VSA_FHYD>
1

> <Q_VSA_FNEG>
0

> <Q_VSA_FPNEG>
0

> <Q_VSA_FPOL>
0

> <Q_VSA_FPOS>
1

> <Q_VSA_FPPOS>
0

> <Q_VSA_HYD>
383.96405

> <Q_VSA_NEG>
0

> <Q_VSA_PNEG>
0

> <Q_VSA_POL>
0

> <Q_VSA_POS>
383.96405

> <Q_VSA_PPOS>
0

> <radius>
6

> <reactive>
0

> <rings>
3

> <RPC+>
0

> <RPC->
0

> <rsynth>
0.30769232

> <SlogP>
5.92101

> <SlogP_VSA0>
0.0

> <SlogP_VSA1>
7.7454643

> <SlogP_VSA2>
0.0

> <SlogP_VSA3>
28.570801

> <SlogP_VSA4>
42.975666

> <SlogP_VSA5>
0.0

> <SlogP_VSA6>
0.0

> <SlogP_VSA7>
105.85911

> <SlogP_VSA8>
37.736813

> <SlogP_VSA9>
198.73087

> <SMR>
10.69403

> <SMR_VSA0>
23.862217

> <SMR_VSA1>
0.0

> <SMR_VSA2>
28.570801

> <SMR_VSA3>
19.113449

> <SMR_VSA4>
0.0

> <SMR_VSA5>
143.59592

> <SMR_VSA6>
7.7454643

> <SMR_VSA7>
198.73087

> <TPSA>
37.299999

> <VAdjEq>
0.41210872

> <VAdjMa>
5.8073549

> <VDistEq>
3.395272

> <VDistMa>
9.1054325

> <vdw_area>
383.96405

> <vdw_vol>
526.89722

> <vsa_acc>
0.0

> <vsa_acid>
0

> <vsa_base>
0

> <vsa_don>
0.0

> <vsa_hyd>
318.37842

> <vsa_other>
14.708499

> <vsa_pol>
27.133842

> <Weight>
348.48599

> <weinerPath>
1631

> <weinerPol>
48

> <zagreb>
144

$$$$
Row1453
 OpenBabel06061811532D

 20 21  0  0  1  0  0  0  0  0999 V2000
    0.0000    0.0000    0.0000 Br  0  0  0  0  0  0  0  0  0  0  0  0
    0.0000    0.0000    0.0000 C   0  0  0  0  0  0  0  0  0  0  0  0
    0.0000    0.0000    0.0000 C   0  0  0  0  0  0  0  0  0  0  0  0
    0.0000    0.0000    0.0000 C   0  0  0  0  0  0  0  0  0  0  0  0
    0.0000    0.0000    0.0000 C   0  0  0  0  0  0  0  0  0  0  0  0
    0.0000    0.0000    0.0000 C   0  0  0  0  0  0  0  0  0  0  0  0
    0.0000    0.0000    0.0000 C   0  0  0  0  0  0  0  0  0  0  0  0
    0.0000    0.0000    0.0000 C   0  0  2  0  0  0  0  0  0  0  0  0
    0.0000    0.0000    0.0000 H   0  0  0  0  0  0  0  0  0  0  0  0
    0.0000    0.0000    0.0000 C   0  0  0  0  0  0  0  0  0  0  0  0
    0.0000    0.0000    0.0000 C   0  0  0  0  0  0  0  0  0  0  0  0
    0.0000    0.0000    0.0000 N   0  0  0  0  0  0  0  0  0  0  0  0
    0.0000    0.0000    0.0000 C   0  0  0  0  0  0  0  0  0  0  0  0
    0.0000    0.0000    0.0000 C   0  0  0  0  0  0  0  0  0  0  0  0
    0.0000    0.0000    0.0000 C   0  0  0  0  0  0  0  0  0  0  0  0
    0.0000    0.0000    0.0000 N   0  0  0  0  0  0  0  0  0  0  0  0
    0.0000    0.0000    0.0000 C   0  0  0  0  0  0  0  0  0  0  0  0
    0.0000    0.0000    0.0000 C   0  0  0  0  0  0  0  0  0  0  0  0
    0.0000    0.0000    0.0000 C   0  0  0  0  0  0  0  0  0  0  0  0
    0.0000    0.0000    0.0000 C   0  0  0  0  0  0  0  0  0  0  0  0
  1  2  1  0  0  0  0
  2  7  1  0  0  0  0
  2  3  2  0  0  0  0
  3  4  1  0  0  0  0
  4  5  2  0  0  0  0
  5  6  1  0  0  0  0
  5  8  1  0  0  0  0
  6  7  2  0  0  0  0
  8  9  1  0  0  0  0
  8 10  1  0  0  0  0
  8 15  1  0  0  0  0
 10 11  1  0  0  0  0
 11 12  1  0  0  0  0
 12 13  1  0  0  0  0
 12 14  1  0  0  0  0
 15 20  1  0  0  0  0
 15 16  2  0  0  0  0
 16 17  1  0  0  0  0
 17 18  2  0  0  0  0
 18 19  1  0  0  0  0
 19 20  2  0  0  0  0
M  END
> <Index>
1454

> <ID>
HT0315

> <class>
1

> <apol>
46.079067

> <ast_fraglike>
0

> <ast_fraglike_ext>
0

> <ast_violation>
2

> <ast_violation_ext>
3

> <a_acc>
2

> <a_acid>
0

> <a_aro>
12

> <a_base>
0

> <a_count>
38

> <a_don>
0

> <a_donacc>
2

> <a_heavy>
19

> <a_hyd>
17

> <a_IC>
52.710621

> <a_ICM>
1.3871217

> <a_nB>
0

> <a_nBr>
1

> <a_nC>
16

> <a_nCl>
0

> <a_nF>
0

> <a_nH>
19

> <a_nI>
0

> <a_nN>
2

> <a_nO>
0

> <a_nP>
0

> <a_nS>
0

> <balabanJ>
1.925043

> <BCUT_PEOE_0>
-2.6471107

> <BCUT_PEOE_1>
-0.53755766

> <BCUT_PEOE_2>
0.58382428

> <BCUT_PEOE_3>
2.5767224

> <BCUT_SLOGP_0>
-2.6777689

> <BCUT_SLOGP_1>
-0.40421695

> <BCUT_SLOGP_2>
0.76668894

> <BCUT_SLOGP_3>
2.639607

> <BCUT_SMR_0>
-2.3726449

> <BCUT_SMR_1>
-0.33085242

> <BCUT_SMR_2>
0.81177324

> <BCUT_SMR_3>
2.8436785

> <bpol>
25.360933

> <b_1rotN>
5

> <b_1rotR>
0.25

> <b_ar>
12

> <b_count>
39

> <b_double>
0

> <b_heavy>
20

> <b_max1len>
6

> <b_rotN>
5

> <b_rotR>
0.25

> <b_single>
27

> <b_triple>
0

> <chi0>
13.664926

> <chi0v>
12.968754

> <chi0v_C>
10.110366

> <chi0_C>
11.380469

> <chi1>
9.1647034

> <chi1v>
7.270082

> <chi1v_C>
4.5956411

> <chi1_C>
6.1161566

> <chiral>
1

> <chiral_u>
0

> <density>
0.79059523

> <diameter>
9

> <FCharge>
0

> <GCUT_PEOE_0>
-0.86391342

> <GCUT_PEOE_1>
-0.35636666

> <GCUT_PEOE_2>
0.05157835

> <GCUT_PEOE_3>
2.5741472

> <GCUT_SLOGP_0>
-0.95313859

> <GCUT_SLOGP_1>
-0.26040474

> <GCUT_SLOGP_2>
0.15641689

> <GCUT_SLOGP_3>
2.6776466

> <GCUT_SMR_0>
-0.51970422

> <GCUT_SMR_1>
-0.17216235

> <GCUT_SMR_2>
0.18213233

> <GCUT_SMR_3>
2.8484116

> <Kier1>
15.39

> <Kier2>
7.6952662

> <Kier3>
4.7950053

> <KierA1>
13.413324

> <KierA2>
6.6525331

> <KierA3>
4.1190286

> <KierFlex>
4.6964517

> <lip_acc>
2

> <lip_don>
0

> <lip_druglike>
1

> <lip_violation>
0

> <logP(o/w)>
3.6570001

> <logS>
-3.1472001

> <mr>
8.433219

> <mutagenic>
0

> <nmol>
1

> <opr_brigid>
12

> <opr_leadlike>
1

> <opr_nring>
2

> <opr_nrot>
5

> <opr_violation>
0

> <PC+>
0

> <PC->
0

> <PEOE_PC+>
1.0618241

> <PEOE_PC->
-1.0618241

> <PEOE_RPC+>
0.07811451

> <PEOE_RPC->
0.29036164

> <PEOE_VSA+0>
72.61692

> <PEOE_VSA+1>
34.123089

> <PEOE_VSA+2>
0.0

> <PEOE_VSA+3>
0.0

> <PEOE_VSA+4>
0.0

> <PEOE_VSA+5>
0.0

> <PEOE_VSA+6>
0.0

> <PEOE_VSA-0>
119.59917

> <PEOE_VSA-1>
80.389565

> <PEOE_VSA-2>
0.0

> <PEOE_VSA-3>
0.0

> <PEOE_VSA-4>
0.0

> <PEOE_VSA-5>
5.6825762

> <PEOE_VSA-6>
0.0

> <PEOE_VSA_FHYD>
0.98181057

> <PEOE_VSA_FNEG>
0.65833503

> <PEOE_VSA_FPNEG>
0.018189406

> <PEOE_VSA_FPOL>
0.018189406

> <PEOE_VSA_FPOS>
0.341665

> <PEOE_VSA_FPPOS>
0.0

> <PEOE_VSA_HYD>
306.72873

> <PEOE_VSA_NEG>
205.67131

> <PEOE_VSA_PNEG>
5.6825762

> <PEOE_VSA_POL>
5.6825762

> <PEOE_VSA_POS>
106.74001

> <PEOE_VSA_PPOS>
0.0

> <petitjean>
0.44444445

> <petitjeanSC>
0.80000001

> <Q_PC+>
0

> <Q_PC->
0

> <Q_RPC+>
0

> <Q_RPC->
0

> <Q_VSA_FHYD>
1

> <Q_VSA_FNEG>
0

> <Q_VSA_FPNEG>
0

> <Q_VSA_FPOL>
0

> <Q_VSA_FPOS>
1

> <Q_VSA_FPPOS>
0

> <Q_VSA_HYD>
312.41132

> <Q_VSA_NEG>
0

> <Q_VSA_PNEG>
0

> <Q_VSA_POL>
0

> <Q_VSA_POS>
312.41132

> <Q_VSA_PPOS>
0

> <radius>
5

> <reactive>
0

> <rings>
2

> <RPC+>
0

> <RPC->
0

> <rsynth>
0.63157892

> <SlogP>
3.9277

> <SlogP_VSA0>
0.0

> <SlogP_VSA1>
19.909843

> <SlogP_VSA2>
0.0

> <SlogP_VSA3>
18.439579

> <SlogP_VSA4>
5.9423227

> <SlogP_VSA5>
68.84948

> <SlogP_VSA6>
4.4107962

> <SlogP_VSA7>
140.71664

> <SlogP_VSA8>
18.868406

> <SlogP_VSA9>
45.954094

> <SMR>
8.3393002

> <SMR_VSA0>
0.0

> <SMR_VSA1>
19.909843

> <SMR_VSA2>
3.0551045

> <SMR_VSA3>
10.353119

> <SMR_VSA4>
0.0

> <SMR_VSA5>
159.58505

> <SMR_VSA6>
18.439579

> <SMR_VSA7>
111.74847

> <TPSA>
16.129999

> <VAdjEq>
0.5023343

> <VAdjMa>
5.321928

> <VDistEq>
3.0133755

> <VDistMa>
8.2190228

> <vdw_area>
312.41132

> <vdw_vol>
403.8046

> <vsa_acc>
5.6825762

> <vsa_acid>
0

> <vsa_base>
0

> <vsa_don>
0.0

> <vsa_hyd>
291.85959

> <vsa_other>
0.0

> <vsa_pol>
5.6825762

> <Weight>
319.246

> <weinerPath>
718

> <weinerPol>
25

> <zagreb>
92

$$$$
Row1454
 OpenBabel06061811532D

 37 43  0  0  1  0  0  0  0  0999 V2000
    0.0000    0.0000    0.0000 O   0  0  0  0  0  0  0  0  0  0  0  0
    0.0000    0.0000    0.0000 C   0  0  2  0  0  0  0  0  0  0  0  0
    0.0000    0.0000    0.0000 H   0  0  0  0  0  0  0  0  0  0  0  0
    0.0000    0.0000    0.0000 C   0  0  2  0  0  0  0  0  0  0  0  0
    0.0000    0.0000    0.0000 C   0  0  1  0  0  0  0  0  0  0  0  0
    0.0000    0.0000    0.0000 C   0  0  2  0  0  0  0  0  0  0  0  0
    0.0000    0.0000    0.0000 H   0  0  0  0  0  0  0  0  0  0  0  0
    0.0000    0.0000    0.0000 N   0  0  0  0  0  0  0  0  0  0  0  0
    0.0000    0.0000    0.0000 C   0  0  0  0  0  0  0  0  0  0  0  0
    0.0000    0.0000    0.0000 C   0  0  0  0  0  0  0  0  0  0  0  0
    0.0000    0.0000    0.0000 C   0  0  0  0  0  0  0  0  0  0  0  0
    0.0000    0.0000    0.0000 C   0  0  0  0  0  0  0  0  0  0  0  0
    0.0000    0.0000    0.0000 C   0  0  0  0  0  0  0  0  0  0  0  0
    0.0000    0.0000    0.0000 C   0  0  0  0  0  0  0  0  0  0  0  0
    0.0000    0.0000    0.0000 C   0  0  0  0  0  0  0  0  0  0  0  0
    0.0000    0.0000    0.0000 C   0  0  0  0  0  0  0  0  0  0  0  0
    0.0000    0.0000    0.0000 C   0  0  0  0  0  0  0  0  0  0  0  0
    0.0000    0.0000    0.0000 C   0  0  0  0  0  0  0  0  0  0  0  0
    0.0000    0.0000    0.0000 C   0  0  0  0  0  0  0  0  0  0  0  0
    0.0000    0.0000    0.0000 O   0  0  0  0  0  0  0  0  0  0  0  0
    0.0000    0.0000    0.0000 C   0  0  0  0  0  0  0  0  0  0  0  0
    0.0000    0.0000    0.0000 C   0  0  0  0  0  0  0  0  0  0  0  0
    0.0000    0.0000    0.0000 C   0  0  0  0  0  0  0  0  0  0  0  0
    0.0000    0.0000    0.0000 C   0  0  2  0  0  0  0  0  0  0  0  0
    0.0000    0.0000    0.0000 H   0  0  0  0  0  0  0  0  0  0  0  0
    0.0000    0.0000    0.0000 C   0  0  2  0  0  0  0  0  0  0  0  0
    0.0000    0.0000    0.0000 O   0  0  0  0  0  0  0  0  0  0  0  0
    0.0000    0.0000    0.0000 C   0  0  0  0  0  0  0  0  0  0  0  0
    0.0000    0.0000    0.0000 C   0  0  0  0  0  0  0  0  0  0  0  0
    0.0000    0.0000    0.0000 C   0  0  0  0  0  0  0  0  0  0  0  0
    0.0000    0.0000    0.0000 C   0  0  0  0  0  0  0  0  0  0  0  0
    0.0000    0.0000    0.0000 C   0  0  0  0  0  0  0  0  0  0  0  0
    0.0000    0.0000    0.0000 C   0  0  1  0  0  0  0  0  0  0  0  0
    0.0000    0.0000    0.0000 O   0  0  0  0  0  0  0  0  0  0  0  0
    0.0000    0.0000    0.0000 C   0  0  0  0  0  0  0  0  0  0  0  0
    0.0000    0.0000    0.0000 C   0  0  0  0  0  0  0  0  0  0  0  0
    0.0000    0.0000    0.0000 C   0  0  0  0  0  0  0  0  0  0  0  0
  1 18  1  0  0  0  0
  1  2  1  0  0  0  0
  2  3  1  0  0  0  0
  2 33  1  0  0  0  0
  2  4  1  0  0  0  0
  4 10  1  0  0  0  0
  4 17  1  0  0  0  0
  4  5  1  0  0  0  0
  5 37  1  0  0  0  0
  5  6  1  0  0  0  0
  5 23  1  0  0  0  0
  6  7  1  0  0  0  0
  6  8  1  0  0  0  0
  6 15  1  0  0  0  0
  8  9  1  0  0  0  0
  8 11  1  0  0  0  0
  9 10  1  0  0  0  0
 11 12  1  0  0  0  0
 12 14  1  0  0  0  0
 12 13  1  0  0  0  0
 13 14  1  0  0  0  0
 15 16  1  0  0  0  0
 16 22  1  0  0  0  0
 16 17  2  0  0  0  0
 17 18  1  0  0  0  0
 18 19  2  0  0  0  0
 19 20  1  0  0  0  0
 19 21  1  0  0  0  0
 21 22  2  0  0  0  0
 23 24  1  0  0  0  0
 24 25  1  0  0  0  0
 24 26  1  0  0  0  0
 24 33  1  0  0  0  0
 26 27  1  0  0  0  0
 26 28  1  0  0  0  0
 26 32  1  0  0  0  0
 28 29  1  0  0  0  0
 28 30  1  0  0  0  0
 28 31  1  0  0  0  0
 33 34  1  0  0  0  0
 33 36  1  0  0  0  0
 34 35  1  0  0  0  0
 36 37  1  0  0  0  0
M  END
> <Index>
1455

> <ID>
HT0329

> <class>
1

> <apol>
82.686516

> <ast_fraglike>
0

> <ast_fraglike_ext>
0

> <ast_violation>
3

> <ast_violation_ext>
4

> <a_acc>
5

> <a_acid>
0

> <a_aro>
6

> <a_base>
0

> <a_count>
75

> <a_don>
2

> <a_donacc>
7

> <a_heavy>
34

> <a_hyd>
29

> <a_IC>
98.620323

> <a_ICM>
1.3149376

> <a_nB>
0

> <a_nBr>
0

> <a_nC>
29

> <a_nCl>
0

> <a_nF>
0

> <a_nH>
41

> <a_nI>
0

> <a_nN>
1

> <a_nO>
4

> <a_nP>
0

> <a_nS>
0

> <balabanJ>
1.4184848

> <BCUT_PEOE_0>
-3.0181401

> <BCUT_PEOE_1>
-0.34617397

> <BCUT_PEOE_2>
0.39396048

> <BCUT_PEOE_3>
3.0393839

> <BCUT_SLOGP_0>
-3.0611908

> <BCUT_SLOGP_1>
-0.32266542

> <BCUT_SLOGP_2>
0.37884554

> <BCUT_SLOGP_3>
3.0223937

> <BCUT_SMR_0>
-2.776957

> <BCUT_SMR_1>
-0.20069684

> <BCUT_SMR_2>
0.54914838

> <BCUT_SMR_3>
3.2791848

> <bpol>
50.633488

> <b_1rotN>
4

> <b_1rotR>
0.1

> <b_ar>
6

> <b_count>
81

> <b_double>
0

> <b_heavy>
40

> <b_max1len>
5

> <b_rotN>
5

> <b_rotR>
0.125

> <b_single>
75

> <b_triple>
0

> <chi0>
23.88854

> <chi0v>
21.4862

> <chi0v_C>
19.328062

> <chi0_C>
19.896976

> <chi1>
16.016588

> <chi1v>
13.553135

> <chi1v_C>
11.163068

> <chi1_C>
11.912251

> <chiral>
7

> <chiral_u>
0

> <density>
0.70467991

> <diameter>
10

> <FCharge>
0

> <GCUT_PEOE_0>
-0.85398555

> <GCUT_PEOE_1>
-0.36171022

> <GCUT_PEOE_2>
-0.073095597

> <GCUT_PEOE_3>
3.6399848

> <GCUT_SLOGP_0>
-0.96149385

> <GCUT_SLOGP_1>
-0.30752406

> <GCUT_SLOGP_2>
-0.037

> <GCUT_SLOGP_3>
3.6677508

> <GCUT_SMR_0>
-0.53780234

> <GCUT_SMR_1>
-0.18790448

> <GCUT_SMR_2>
0.071042605

> <GCUT_SMR_3>
3.8681831

> <Kier1>
23.141251

> <Kier2>
6.8963265

> <Kier3>
2.4860208

> <KierA1>
21.55414

> <KierA2>
6.4090734

> <KierA3>
2.3067651

> <KierFlex>
4.0630021

> <lip_acc>
5

> <lip_don>
2

> <lip_druglike>
1

> <lip_violation>
0

> <logP(o/w)>
4.8249998

> <logS>
-4.1974201

> <mr>
12.930479

> <mutagenic>
0

> <nmol>
1

> <opr_brigid>
28

> <opr_leadlike>
0

> <opr_nring>
7

> <opr_nrot>
5

> <opr_violation>
2

> <PC+>
0

> <PC->
0

> <PEOE_PC+>
2.3591096

> <PEOE_PC->
-2.3591096

> <PEOE_RPC+>
0.092162624

> <PEOE_RPC->
0.16444917

> <PEOE_VSA+0>
195.28601

> <PEOE_VSA+1>
25.592316

> <PEOE_VSA+2>
21.821968

> <PEOE_VSA+3>
0.0

> <PEOE_VSA+4>
20.648346

> <PEOE_VSA+5>
0.0

> <PEOE_VSA+6>
0.0

> <PEOE_VSA-0>
96.32885

> <PEOE_VSA-1>
68.49794

> <PEOE_VSA-2>
0.0

> <PEOE_VSA-3>
0.0

> <PEOE_VSA-4>
0.0

> <PEOE_VSA-5>
0.0

> <PEOE_VSA-6>
20.542593

> <PEOE_VSA_FHYD>
0.90820307

> <PEOE_VSA_FNEG>
0.41310886

> <PEOE_VSA_FPNEG>
0.045780629

> <PEOE_VSA_FPOL>
0.091796935

> <PEOE_VSA_FPOS>
0.58689117

> <PEOE_VSA_FPPOS>
0.046016306

> <PEOE_VSA_HYD>
407.52707

> <PEOE_VSA_NEG>
185.36938

> <PEOE_VSA_PNEG>
20.542593

> <PEOE_VSA_POL>
41.190937

> <PEOE_VSA_POS>
263.34863

> <PEOE_VSA_PPOS>
20.648346

> <petitjean>
0.5

> <petitjeanSC>
1.0

> <Q_PC+>
0

> <Q_PC->
0

> <Q_RPC+>
0

> <Q_RPC->
0

> <Q_VSA_FHYD>
1

> <Q_VSA_FNEG>
0

> <Q_VSA_FPNEG>
0

> <Q_VSA_FPOL>
0

> <Q_VSA_FPOS>
1

> <Q_VSA_FPPOS>
0

> <Q_VSA_HYD>
448.71802

> <Q_VSA_NEG>
0

> <Q_VSA_PNEG>
0

> <Q_VSA_POL>
0

> <Q_VSA_POS>
448.71802

> <Q_VSA_PPOS>
0

> <radius>
5

> <reactive>
0

> <rings>
7

> <RPC+>
0

> <RPC->
0

> <rsynth>
0.0

> <SlogP>
4.4137702

> <SlogP_VSA0>
61.77034

> <SlogP_VSA1>
3.1243138

> <SlogP_VSA2>
21.450506

> <SlogP_VSA3>
36.879158

> <SlogP_VSA4>
15.192742

> <SlogP_VSA5>
54.252274

> <SlogP_VSA6>
0.0

> <SlogP_VSA7>
35.286369

> <SlogP_VSA8>
113.21043

> <SlogP_VSA9>
143.79091

> <SMR>
13.01996

> <SMR_VSA0>
10.999887

> <SMR_VSA1>
64.894653

> <SMR_VSA2>
8.8215923

> <SMR_VSA3>
27.308624

> <SMR_VSA4>
0.0

> <SMR_VSA5>
167.3652

> <SMR_VSA6>
36.879158

> <SMR_VSA7>
168.68793

> <TPSA>
62.16

> <VAdjEq>
0.36294666

> <VAdjMa>
6.321928

> <VDistEq>
3.1431215

> <VDistMa>
9.9545603

> <vdw_area>
448.71802

> <vdw_vol>
663.63464

> <vsa_acc>
5.0075121

> <vsa_acid>
0

> <vsa_base>
0

> <vsa_don>
0.0

> <vsa_hyd>
377.07697

> <vsa_other>
0.0

> <vsa_pol>
32.141354

> <Weight>
467.64999

> <weinerPath>
2624

> <weinerPol>
86

> <zagreb>
220

$$$$
Row1455
 OpenBabel06061811532D

 14 13  0  0  0  0  0  0  0  0999 V2000
    0.0000    0.0000    0.0000 S   0  0  0  0  0  0  0  0  0  0  0  0
    0.0000    0.0000    0.0000 O   0  0  0  0  0  0  0  0  0  0  0  0
    0.0000    0.0000    0.0000 C   0  0  0  0  0  0  0  0  0  0  0  0
    0.0000    0.0000    0.0000 C   0  0  0  0  0  0  0  0  0  0  0  0
    0.0000    0.0000    0.0000 C   0  0  0  0  0  0  0  0  0  0  0  0
    0.0000    0.0000    0.0000 C   0  0  0  0  0  0  0  0  0  0  0  0
    0.0000    0.0000    0.0000 O   0  0  0  0  0  0  0  0  0  0  0  0
    0.0000    0.0000    0.0000 S   0  0  0  0  0  0  0  0  0  0  0  0
    0.0000    0.0000    0.0000 O   0  0  0  0  0  0  0  0  0  0  0  0
    0.0000    0.0000    0.0000 O   0  0  0  0  0  0  0  0  0  0  0  0
    0.0000    0.0000    0.0000 C   0  0  0  0  0  0  0  0  0  0  0  0
    0.0000    0.0000    0.0000 O   0  0  0  0  0  0  0  0  0  0  0  0
    0.0000    0.0000    0.0000 O   0  0  0  0  0  0  0  0  0  0  0  0
    0.0000    0.0000    0.0000 C   0  0  0  0  0  0  0  0  0  0  0  0
  1  2  1  0  0  0  0
  1 12  2  0  0  0  0
  1 13  2  0  0  0  0
  1 14  1  0  0  0  0
  2  3  1  0  0  0  0
  3  4  1  0  0  0  0
  4  5  1  0  0  0  0
  5  6  1  0  0  0  0
  6  7  1  0  0  0  0
  7  8  1  0  0  0  0
  8  9  2  0  0  0  0
  8 10  2  0  0  0  0
  8 11  1  0  0  0  0
M  END
> <Index>
1456

> <ID>
HT0332

> <class>
1

> <apol>
30.507101

> <ast_fraglike>
0

> <ast_fraglike_ext>
0

> <ast_violation>
1

> <ast_violation_ext>
3

> <a_acc>
6

> <a_acid>
0

> <a_aro>
0

> <a_base>
0

> <a_count>
28

> <a_don>
0

> <a_donacc>
6

> <a_heavy>
14

> <a_hyd>
6

> <a_IC>
48.283421

> <a_ICM>
1.7244078

> <a_nB>
0

> <a_nBr>
0

> <a_nC>
6

> <a_nCl>
0

> <a_nF>
0

> <a_nH>
14

> <a_nI>
0

> <a_nN>
0

> <a_nO>
6

> <a_nP>
0

> <a_nS>
2

> <balabanJ>
3.2328339

> <BCUT_PEOE_0>
-2.621182

> <BCUT_PEOE_1>
-0.22590767

> <BCUT_PEOE_2>
0.13887645

> <BCUT_PEOE_3>
2.5677531

> <BCUT_SLOGP_0>
-2.6020296

> <BCUT_SLOGP_1>
-0.3339

> <BCUT_SLOGP_2>
0.123

> <BCUT_SLOGP_3>
2.6149197

> <BCUT_SMR_0>
-2.3532281

> <BCUT_SMR_1>
0.077739999

> <BCUT_SMR_2>
0.1057

> <BCUT_SMR_3>
2.8583145

> <bpol>
32.088898

> <b_1rotN>
7

> <b_1rotR>
0.53846157

> <b_ar>
0

> <b_count>
27

> <b_double>
0

> <b_heavy>
13

> <b_max1len>
11

> <b_rotN>
7

> <b_rotR>
0.53846157

> <b_single>
27

> <b_triple>
0

> <chi0>
11.24264

> <chi0v>
9.7274065

> <chi0v_C>
4.8284273

> <chi0_C>
4.8284273

> <chi1>
6.2071066

> <chi1v>
7.5268402

> <chi1v_C>
1.5

> <chi1_C>
1.5

> <chiral>
0

> <chiral_u>
0

> <density>
0.95221043

> <diameter>
9

> <FCharge>
0

> <GCUT_PEOE_0>
-0.7981534

> <GCUT_PEOE_1>
-0.38590765

> <GCUT_PEOE_2>
-0.021123543

> <GCUT_PEOE_3>
2.2622318

> <GCUT_SLOGP_0>
-0.83809286

> <GCUT_SLOGP_1>
-0.37654582

> <GCUT_SLOGP_2>
-0.037

> <GCUT_SLOGP_3>
2.2783892

> <GCUT_SMR_0>
-0.52590555

> <GCUT_SMR_1>
-0.10027518

> <GCUT_SMR_2>
-0.054299999

> <GCUT_SMR_3>
2.521611

> <Kier1>
14.0

> <Kier2>
5.7777777

> <Kier3>
13.090909

> <KierA1>
17.39645

> <KierA2>
7.3024688

> <KierA3>
16.76033

> <KierFlex>
9.0740738

> <lip_acc>
6

> <lip_don>
0

> <lip_druglike>
1

> <lip_violation>
0

> <logP(o/w)>
-0.222

> <logS>
-0.72553998

> <mr>
5.1362314

> <mutagenic>
0

> <nmol>
1

> <opr_brigid>
0

> <opr_leadlike>
1

> <opr_nring>
0

> <opr_nrot>
7

> <opr_violation>
0

> <PC+>
0

> <PC->
0

> <PEOE_PC+>
1.5899436

> <PEOE_PC->
-1.5899436

> <PEOE_RPC+>
0.12535271

> <PEOE_RPC->
0.18404992

> <PEOE_VSA+0>
64.025673

> <PEOE_VSA+1>
23.025566

> <PEOE_VSA+2>
25.592316

> <PEOE_VSA+3>
41.447479

> <PEOE_VSA+4>
0.0

> <PEOE_VSA+5>
0.0

> <PEOE_VSA+6>
0.0

> <PEOE_VSA-0>
0.0

> <PEOE_VSA-1>
17.402626

> <PEOE_VSA-2>
0.0

> <PEOE_VSA-3>
0.0

> <PEOE_VSA-4>
64.033043

> <PEOE_VSA-5>
9.8901939

> <PEOE_VSA-6>
0.0

> <PEOE_VSA_FHYD>
0.69878507

> <PEOE_VSA_FNEG>
0.37212542

> <PEOE_VSA_FPNEG>
0.30121496

> <PEOE_VSA_FPOL>
0.30121496

> <PEOE_VSA_FPOS>
0.62787461

> <PEOE_VSA_FPPOS>
0.0

> <PEOE_VSA_HYD>
171.49367

> <PEOE_VSA_NEG>
91.325867

> <PEOE_VSA_PNEG>
73.923241

> <PEOE_VSA_POL>
73.923241

> <PEOE_VSA_POS>
154.09103

> <PEOE_VSA_PPOS>
0.0

> <petitjean>
0.44444445

> <petitjeanSC>
0.80000001

> <Q_PC+>
0

> <Q_PC->
0

> <Q_RPC+>
0

> <Q_RPC->
0

> <Q_VSA_FHYD>
1

> <Q_VSA_FNEG>
0

> <Q_VSA_FPNEG>
0

> <Q_VSA_FPOL>
0

> <Q_VSA_FPOS>
1

> <Q_VSA_FPPOS>
0

> <Q_VSA_HYD>
245.4169

> <Q_VSA_NEG>
0

> <Q_VSA_PNEG>
0

> <Q_VSA_POL>
0

> <Q_VSA_POS>
245.4169

> <Q_VSA_PPOS>
0

> <radius>
5

> <reactive>
1

> <rings>
0

> <RPC+>
0

> <RPC->
0

> <rsynth>
1.0

> <SlogP>
-0.28099999

> <SlogP_VSA0>
0.0

> <SlogP_VSA1>
96.343376

> <SlogP_VSA2>
34.257126

> <SlogP_VSA3>
41.852516

> <SlogP_VSA4>
0.0

> <SlogP_VSA5>
63.382347

> <SlogP_VSA6>
0.0

> <SlogP_VSA7>
0.0

> <SlogP_VSA8>
37.736813

> <SlogP_VSA9>
0.0

> <SMR>
5.0825601

> <SMR_VSA0>
113.4342

> <SMR_VSA1>
0.0

> <SMR_VSA2>
0.0

> <SMR_VSA3>
0.0

> <SMR_VSA4>
0.0

> <SMR_VSA5>
37.736813

> <SMR_VSA6>
41.852516

> <SMR_VSA7>
80.548645

> <TPSA>
86.739998

> <VAdjEq>
0.56466961

> <VAdjMa>
4.7004399

> <VDistEq>
3.0939782

> <VDistMa>
7.2387595

> <vdw_area>
245.4169

> <vdw_vol>
258.66553

> <vsa_acc>
73.923241

> <vsa_acid>
0

> <vsa_base>
0

> <vsa_don>
0.0

> <vsa_hyd>
138.50296

> <vsa_other>
23.025566

> <vsa_pol>
73.923241

> <Weight>
246.304

> <weinerPath>
393

> <weinerPol>
11

> <zagreb>
62

$$$$
Row1456
 OpenBabel06061811532D

 21 22  0  0  1  0  0  0  0  0999 V2000
    0.0000    0.0000    0.0000 Cl  0  0  0  0  0  0  0  0  0  0  0  0
    0.0000    0.0000    0.0000 C   0  0  0  0  0  0  0  0  0  0  0  0
    0.0000    0.0000    0.0000 C   0  0  0  0  0  0  0  0  0  0  0  0
    0.0000    0.0000    0.0000 C   0  0  0  0  0  0  0  0  0  0  0  0
    0.0000    0.0000    0.0000 N   0  0  0  0  0  0  0  0  0  0  0  0
    0.0000    0.0000    0.0000 C   0  0  3  0  0  0  0  0  0  0  0  0
    0.0000    0.0000    0.0000 N   0  0  0  0  0  0  0  0  0  0  0  0
    0.0000    0.0000    0.0000 S   0  0  0  0  0  0  0  0  0  0  0  0
    0.0000    0.0000    0.0000 O   0  0  0  0  0  0  0  0  0  0  0  0
    0.0000    0.0000    0.0000 O   0  0  0  0  0  0  0  0  0  0  0  0
    0.0000    0.0000    0.0000 C   0  0  0  0  0  0  0  0  0  0  0  0
    0.0000    0.0000    0.0000 C   0  0  0  0  0  0  0  0  0  0  0  0
    0.0000    0.0000    0.0000 C   0  0  0  0  0  0  0  0  0  0  0  0
    0.0000    0.0000    0.0000 S   0  0  0  0  0  0  0  0  0  0  0  0
    0.0000    0.0000    0.0000 O   0  0  0  0  0  0  0  0  0  0  0  0
    0.0000    0.0000    0.0000 O   0  0  0  0  0  0  0  0  0  0  0  0
    0.0000    0.0000    0.0000 N   0  0  0  0  0  0  0  0  0  0  0  0
    0.0000    0.0000    0.0000 C   0  0  0  0  0  0  0  0  0  0  0  0
    0.0000    0.0000    0.0000 C   0  0  0  0  0  0  0  0  0  0  0  0
    0.0000    0.0000    0.0000 C   0  0  0  0  0  0  0  0  0  0  0  0
    0.0000    0.0000    0.0000 C   0  0  0  0  0  0  0  0  0  0  0  0
  1  2  1  0  0  0  0
  2 13  1  0  0  0  0
  2  3  2  0  0  0  0
  3  4  1  0  0  0  0
  4 11  2  0  0  0  0
  4  5  1  0  0  0  0
  5  6  1  0  0  0  0
  6  7  1  0  0  0  0
  6 18  1  0  0  0  0
  7  8  1  0  0  0  0
  8  9  2  0  0  0  0
  8 10  2  0  0  0  0
  8 11  1  0  0  0  0
 11 12  1  0  0  0  0
 12 13  2  0  0  0  0
 13 14  1  0  0  0  0
 14 15  2  0  0  0  0
 14 16  2  0  0  0  0
 14 17  1  0  0  0  0
 18 19  1  0  0  0  0
 19 20  1  0  0  0  0
 19 21  1  0  0  0  0
M  END
> <Index>
1457

> <ID>
HT0339

> <class>
1

> <apol>
44.516689

> <ast_fraglike>
0

> <ast_fraglike_ext>
0

> <ast_violation>
2

> <ast_violation_ext>
3

> <a_acc>
4

> <a_acid>
0

> <a_aro>
6

> <a_base>
0

> <a_count>
37

> <a_don>
3

> <a_donacc>
7

> <a_heavy>
21

> <a_hyd>
11

> <a_IC>
75.941139

> <a_ICM>
2.0524633

> <a_nB>
0

> <a_nBr>
0

> <a_nC>
11

> <a_nCl>
1

> <a_nF>
0

> <a_nH>
16

> <a_nI>
0

> <a_nN>
3

> <a_nO>
4

> <a_nP>
0

> <a_nS>
2

> <balabanJ>
2.146456

> <BCUT_PEOE_0>
-2.7213104

> <BCUT_PEOE_1>
-0.47290075

> <BCUT_PEOE_2>
0.51295346

> <BCUT_PEOE_3>
2.657855

> <BCUT_SLOGP_0>
-2.8000751

> <BCUT_SLOGP_1>
-0.43233967

> <BCUT_SLOGP_2>
0.56184655

> <BCUT_SLOGP_3>
2.7029223

> <BCUT_SMR_0>
-2.4381788

> <BCUT_SMR_1>
-0.35510629

> <BCUT_SMR_2>
0.63552856

> <BCUT_SMR_3>
2.9578021

> <bpol>
31.523312

> <b_1rotN>
3

> <b_1rotR>
0.13636364

> <b_ar>
6

> <b_count>
38

> <b_double>
0

> <b_heavy>
22

> <b_max1len>
5

> <b_rotN>
3

> <b_rotR>
0.13636364

> <b_single>
32

> <b_triple>
0

> <chi0>
15.999636

> <chi0v>
13.810234

> <chi0v_C>
7.0165076

> <chi0_C>
7.585422

> <chi1>
9.5038557

> <chi1v>
9.5644188

> <chi1v_C>
3.6258976

> <chi1_C>
4.2708569

> <chiral>
1

> <chiral_u>
1

> <density>
0.93704361

> <diameter>
10

> <FCharge>
0

> <GCUT_PEOE_0>
-0.88856047

> <GCUT_PEOE_1>
-0.39675659

> <GCUT_PEOE_2>
0.0309739

> <GCUT_PEOE_3>
2.6579435

> <GCUT_SLOGP_0>
-1.3482859

> <GCUT_SLOGP_1>
-0.41042256

> <GCUT_SLOGP_2>
0.12677391

> <GCUT_SLOGP_3>
2.6808546

> <GCUT_SMR_0>
-0.53245521

> <GCUT_SMR_1>
-0.17976493

> <GCUT_SMR_2>
0.15094025

> <GCUT_SMR_3>
2.925787

> <Kier1>
17.355371

> <Kier2>
5.8938775

> <Kier3>
3.8548484

> <KierA1>
18.683956

> <KierA2>
6.3690338

> <KierA3>
4.1776333

> <KierFlex>
5.6666069

> <lip_acc>
7

> <lip_don>
4

> <lip_druglike>
1

> <lip_violation>
0

> <logP(o/w)>
1.339

> <logS>
-3.5692101

> <mr>
8.0987644

> <mutagenic>
0

> <nmol>
1

> <opr_brigid>
11

> <opr_leadlike>
1

> <opr_nring>
2

> <opr_nrot>
3

> <opr_violation>
0

> <PC+>
0

> <PC->
0

> <PEOE_PC+>
1.740343

> <PEOE_PC->
-1.740343

> <PEOE_RPC+>
0.17798117

> <PEOE_RPC->
0.22016431

> <PEOE_VSA+0>
84.334015

> <PEOE_VSA+1>
17.149784

> <PEOE_VSA+2>
26.880259

> <PEOE_VSA+3>
0.0

> <PEOE_VSA+4>
0.0

> <PEOE_VSA+5>
0.0

> <PEOE_VSA+6>
8.3692026

> <PEOE_VSA-0>
29.57523

> <PEOE_VSA-1>
67.077301

> <PEOE_VSA-2>
34.546043

> <PEOE_VSA-3>
9.0437498

> <PEOE_VSA-4>
32.016521

> <PEOE_VSA-5>
0.0

> <PEOE_VSA-6>
0.13689101

> <PEOE_VSA_FHYD>
0.86891359

> <PEOE_VSA_FNEG>
0.55768222

> <PEOE_VSA_FPNEG>
0.10401293

> <PEOE_VSA_FPOL>
0.13108642

> <PEOE_VSA_FPOS>
0.44231781

> <PEOE_VSA_FPPOS>
0.027073495

> <PEOE_VSA_HYD>
268.60638

> <PEOE_VSA_NEG>
172.39574

> <PEOE_VSA_PNEG>
32.153416

> <PEOE_VSA_POL>
40.522617

> <PEOE_VSA_POS>
136.73326

> <PEOE_VSA_PPOS>
8.3692026

> <petitjean>
0.5

> <petitjeanSC>
1.0

> <Q_PC+>
0

> <Q_PC->
0

> <Q_RPC+>
0

> <Q_RPC->
0

> <Q_VSA_FHYD>
1

> <Q_VSA_FNEG>
0

> <Q_VSA_FPNEG>
0

> <Q_VSA_FPOL>
0

> <Q_VSA_FPOS>
1

> <Q_VSA_FPPOS>
0

> <Q_VSA_HYD>
309.129

> <Q_VSA_NEG>
0

> <Q_VSA_PNEG>
0

> <Q_VSA_POL>
0

> <Q_VSA_POS>
309.129

> <Q_VSA_PPOS>
0

> <radius>
5

> <reactive>
0

> <rings>
2

> <RPC+>
0

> <RPC->
0

> <rsynth>
1.0

> <SlogP>
1.0634

> <SlogP_VSA0>
47.69643

> <SlogP_VSA1>
114.35413

> <SlogP_VSA2>
16.834627

> <SlogP_VSA3>
0.0

> <SlogP_VSA4>
4.4107962

> <SlogP_VSA5>
3.1014678

> <SlogP_VSA6>
3.5006065

> <SlogP_VSA7>
35.286369

> <SlogP_VSA8>
18.868406

> <SlogP_VSA9>
108.55742

> <SMR>
8.0012398

> <SMR_VSA0>
96.343376

> <SMR_VSA1>
0.0

> <SMR_VSA2>
23.917261

> <SMR_VSA3>
7.0537477

> <SMR_VSA4>
52.058933

> <SMR_VSA5>
54.154774

> <SMR_VSA6>
0.0

> <SMR_VSA7>
119.08216

> <TPSA>
118.36

> <VAdjEq>
0.46827638

> <VAdjMa>
5.4594316

> <VDistEq>
3.0578728

> <VDistMa>
8.5025845

> <vdw_area>
309.129

> <vdw_vol>
377.62491

> <vsa_acc>
64.033043

> <vsa_acid>
0

> <vsa_base>
0

> <vsa_don>
33.892902

> <vsa_hyd>
157.62137

> <vsa_other>
31.401779

> <vsa_pol>
97.925949

> <Weight>
353.85098

> <weinerPath>
874

> <weinerPol>
35

> <zagreb>
114

$$$$
Row1457
 OpenBabel06061811532D

 22 24  0  0  1  0  0  0  0  0999 V2000
    0.0000    0.0000    0.0000 N   0  0  0  0  0  0  0  0  0  0  0  0
    0.0000    0.0000    0.0000 C   0  0  0  0  0  0  0  0  0  0  0  0
    0.0000    0.0000    0.0000 C   0  0  3  0  0  0  0  0  0  0  0  0
    0.0000    0.0000    0.0000 C   0  0  0  0  0  0  0  0  0  0  0  0
    0.0000    0.0000    0.0000 C   0  0  3  0  0  0  0  0  0  0  0  0
    0.0000    0.0000    0.0000 C   0  0  0  0  0  0  0  0  0  0  0  0
    0.0000    0.0000    0.0000 C   0  0  0  0  0  0  0  0  0  0  0  0
    0.0000    0.0000    0.0000 C   0  0  0  0  0  0  0  0  0  0  0  0
    0.0000    0.0000    0.0000 C   0  0  0  0  0  0  0  0  0  0  0  0
    0.0000    0.0000    0.0000 C   0  0  0  0  0  0  0  0  0  0  0  0
    0.0000    0.0000    0.0000 C   0  0  0  0  0  0  0  0  0  0  0  0
    0.0000    0.0000    0.0000 C   0  0  0  0  0  0  0  0  0  0  0  0
    0.0000    0.0000    0.0000 C   0  0  0  0  0  0  0  0  0  0  0  0
    0.0000    0.0000    0.0000 C   0  0  0  0  0  0  0  0  0  0  0  0
    0.0000    0.0000    0.0000 C   0  0  0  0  0  0  0  0  0  0  0  0
    0.0000    0.0000    0.0000 C   0  0  0  0  0  0  0  0  0  0  0  0
    0.0000    0.0000    0.0000 C   0  0  0  0  0  0  0  0  0  0  0  0
    0.0000    0.0000    0.0000 C   0  0  0  0  0  0  0  0  0  0  0  0
    0.0000    0.0000    0.0000 C   0  0  0  0  0  0  0  0  0  0  0  0
    0.0000    0.0000    0.0000 C   0  0  0  0  0  0  0  0  0  0  0  0
    0.0000    0.0000    0.0000 C   0  0  0  0  0  0  0  0  0  0  0  0
    0.0000    0.0000    0.0000 C   0  0  0  0  0  0  0  0  0  0  0  0
  1  2  1  0  0  0  0
  1 21  1  0  0  0  0
  1 22  1  0  0  0  0
  2  3  1  0  0  0  0
  3  4  1  0  0  0  0
  3 20  1  0  0  0  0
  4  5  1  0  0  0  0
  5 11  1  0  0  0  0
  5  6  1  0  0  0  0
  6 19  1  0  0  0  0
  6  7  2  0  0  0  0
  7  8  1  0  0  0  0
  7 16  1  0  0  0  0
  8  9  1  0  0  0  0
  9 10  1  0  0  0  0
 10 15  1  0  0  0  0
 10 11  2  0  0  0  0
 11 12  1  0  0  0  0
 12 13  2  0  0  0  0
 13 14  1  0  0  0  0
 14 15  2  0  0  0  0
 16 17  2  0  0  0  0
 17 18  1  0  0  0  0
 18 19  2  0  0  0  0
M  END
> <Index>
1458

> <ID>
HT0342

> <class>
1

> <apol>
56.063412

> <ast_fraglike>
0

> <ast_fraglike_ext>
0

> <ast_violation>
1

> <ast_violation_ext>
2

> <a_acc>
1

> <a_acid>
0

> <a_aro>
12

> <a_base>
0

> <a_count>
49

> <a_don>
0

> <a_donacc>
1

> <a_heavy>
22

> <a_hyd>
21

> <a_IC>
54.500153

> <a_ICM>
1.1122481

> <a_nB>
0

> <a_nBr>
0

> <a_nC>
21

> <a_nCl>
0

> <a_nF>
0

> <a_nH>
27

> <a_nI>
0

> <a_nN>
1

> <a_nO>
0

> <a_nP>
0

> <a_nS>
0

> <balabanJ>
1.7567483

> <BCUT_PEOE_0>
-2.7206075

> <BCUT_PEOE_1>
-0.52284229

> <BCUT_PEOE_2>
0.58893877

> <BCUT_PEOE_3>
2.6631846

> <BCUT_SLOGP_0>
-2.7228727

> <BCUT_SLOGP_1>
-0.42327139

> <BCUT_SLOGP_2>
0.68659061

> <BCUT_SLOGP_3>
2.7497439

> <BCUT_SMR_0>
-2.45437

> <BCUT_SMR_1>
-0.39757127

> <BCUT_SMR_2>
0.7216717

> <BCUT_SMR_3>
2.93209

> <bpol>
31.49659

> <b_1rotN>
4

> <b_1rotR>
0.16666667

> <b_ar>
12

> <b_count>
51

> <b_double>
0

> <b_heavy>
24

> <b_max1len>
7

> <b_rotN>
4

> <b_rotR>
0.16666667

> <b_single>
39

> <b_triple>
0

> <chi0>
15.526733

> <chi0v>
14.049144

> <chi0v_C>
13.60193

> <chi0_C>
14.949383

> <chi1>
10.647867

> <chi1v>
8.4519081

> <chi1v_C>
7.2412529

> <chi1_C>
9.084918

> <chiral>
1

> <chiral_u>
1

> <density>
0.62742287

> <diameter>
9

> <FCharge>
0

> <GCUT_PEOE_0>
-0.86362416

> <GCUT_PEOE_1>
-0.33859611

> <GCUT_PEOE_2>
0.060507316

> <GCUT_PEOE_3>
2.8902063

> <GCUT_SLOGP_0>
-0.95435101

> <GCUT_SLOGP_1>
-0.22603761

> <GCUT_SLOGP_2>
0.14060031

> <GCUT_SLOGP_3>
2.9997621

> <GCUT_SMR_0>
-0.5299294

> <GCUT_SMR_1>
-0.18113878

> <GCUT_SMR_2>
0.16005282

> <GCUT_SMR_3>
3.1595948

> <Kier1>
16.84375

> <Kier2>
7.7134986

> <Kier3>
4.1103301

> <KierA1>
13.410684

> <KierA2>
6.0700212

> <KierA3>
3.2072396

> <KierFlex>
3.7001426

> <lip_acc>
1

> <lip_don>
0

> <lip_druglike>
1

> <lip_violation>
0

> <logP(o/w)>
5.0939999

> <logS>
-4.7248201

> <mr>
9.4295387

> <mutagenic>
0

> <nmol>
1

> <opr_brigid>
17

> <opr_leadlike>
1

> <opr_nring>
3

> <opr_nrot>
4

> <opr_violation>
1

> <PC+>
0

> <PC->
0

> <PEOE_PC+>
1.1489486

> <PEOE_PC->
-1.1489486

> <PEOE_RPC+>
0.05401092

> <PEOE_RPC->
0.2681495

> <PEOE_VSA+0>
94.234657

> <PEOE_VSA+1>
34.123089

> <PEOE_VSA+2>
0.0

> <PEOE_VSA+3>
0.0

> <PEOE_VSA+4>
0.0

> <PEOE_VSA+5>
0.0

> <PEOE_VSA+6>
0.0

> <PEOE_VSA-0>
81.415474

> <PEOE_VSA-1>
116.78691

> <PEOE_VSA-2>
0.0

> <PEOE_VSA-3>
0.0

> <PEOE_VSA-4>
0.0

> <PEOE_VSA-5>
0.0

> <PEOE_VSA-6>
0.0

> <PEOE_VSA_FHYD>
1.0

> <PEOE_VSA_FNEG>
0.60693991

> <PEOE_VSA_FPNEG>
0.0

> <PEOE_VSA_FPOL>
0.0

> <PEOE_VSA_FPOS>
0.39306006

> <PEOE_VSA_FPPOS>
0.0

> <PEOE_VSA_HYD>
326.56012

> <PEOE_VSA_NEG>
198.20239

> <PEOE_VSA_PNEG>
0.0

> <PEOE_VSA_POL>
0.0

> <PEOE_VSA_POS>
128.35774

> <PEOE_VSA_PPOS>
0.0

> <petitjean>
0.44444445

> <petitjeanSC>
0.80000001

> <Q_PC+>
0

> <Q_PC->
0

> <Q_RPC+>
0

> <Q_RPC->
0

> <Q_VSA_FHYD>
1

> <Q_VSA_FNEG>
0

> <Q_VSA_FPNEG>
0

> <Q_VSA_FPOL>
0

> <Q_VSA_FPOS>
1

> <Q_VSA_FPPOS>
0

> <Q_VSA_HYD>
326.56012

> <Q_VSA_NEG>
0

> <Q_VSA_PNEG>
0

> <Q_VSA_POL>
0

> <Q_VSA_POS>
326.56012

> <Q_VSA_PPOS>
0

> <radius>
5

> <reactive>
0

> <rings>
3

> <RPC+>
0

> <RPC->
0

> <rsynth>
0.63636363

> <SlogP>
4.5048399

> <SlogP_VSA0>
0.0

> <SlogP_VSA1>
3.1243138

> <SlogP_VSA2>
0.0

> <SlogP_VSA3>
18.439579

> <SlogP_VSA4>
17.153095

> <SlogP_VSA5>
103.53119

> <SlogP_VSA6>
4.4107962

> <SlogP_VSA7>
141.14548

> <SlogP_VSA8>
18.868406

> <SlogP_VSA9>
33.326015

> <SMR>
9.4469995

> <SMR_VSA0>
0.0

> <SMR_VSA1>
3.1243138

> <SMR_VSA2>
4.4107962

> <SMR_VSA3>
17.153095

> <SMR_VSA4>
0.0

> <SMR_VSA5>
197.75069

> <SMR_VSA6>
18.439579

> <SMR_VSA7>
99.120392

> <TPSA>
3.24

> <VAdjEq>
0.46637034

> <VAdjMa>
5.5849624

> <VDistEq>
3.0194578

> <VDistMa>
8.6617937

> <vdw_area>
326.56012

> <vdw_vol>
467.71323

> <vsa_acc>
0.0

> <vsa_acid>
0

> <vsa_base>
0

> <vsa_don>
0.0

> <vsa_hyd>
304.65155

> <vsa_other>
0.0

> <vsa_pol>
0.0

> <Weight>
293.45398

> <weinerPath>
979

> <weinerPol>
37

> <zagreb>
114

$$$$
Row1458
 OpenBabel06061811532D

 29 30  0  0  1  0  0  0  0  0999 V2000
    0.0000    0.0000    0.0000 F   0  0  0  0  0  0  0  0  0  0  0  0
    0.0000    0.0000    0.0000 C   0  0  0  0  0  0  0  0  0  0  0  0
    0.0000    0.0000    0.0000 C   0  0  0  0  0  0  0  0  0  0  0  0
    0.0000    0.0000    0.0000 N   0  0  0  0  0  0  0  0  0  0  0  0
    0.0000    0.0000    0.0000 C   0  0  2  0  0  0  0  0  0  0  0  0
    0.0000    0.0000    0.0000 H   0  0  0  0  0  0  0  0  0  0  0  0
    0.0000    0.0000    0.0000 O   0  0  0  0  0  0  0  0  0  0  0  0
    0.0000    0.0000    0.0000 C   0  0  2  0  0  0  0  0  0  0  0  0
    0.0000    0.0000    0.0000 H   0  0  0  0  0  0  0  0  0  0  0  0
    0.0000    0.0000    0.0000 C   0  0  0  0  0  0  0  0  0  0  0  0
    0.0000    0.0000    0.0000 C   0  0  1  0  0  0  0  0  0  0  0  0
    0.0000    0.0000    0.0000 H   0  0  0  0  0  0  0  0  0  0  0  0
    0.0000    0.0000    0.0000 O   0  0  0  0  0  0  0  0  0  0  0  0
    0.0000    0.0000    0.0000 C   0  0  1  0  0  0  0  0  0  0  0  0
    0.0000    0.0000    0.0000 H   0  0  0  0  0  0  0  0  0  0  0  0
    0.0000    0.0000    0.0000 O   0  0  0  0  0  0  0  0  0  0  0  0
    0.0000    0.0000    0.0000 C   0  0  0  0  0  0  0  0  0  0  0  0
    0.0000    0.0000    0.0000 O   0  0  0  0  0  0  0  0  0  0  0  0
    0.0000    0.0000    0.0000 N   0  0  0  0  0  0  0  0  0  0  0  0
    0.0000    0.0000    0.0000 C   0  0  0  0  0  0  0  0  0  0  0  0
    0.0000    0.0000    0.0000 N   0  0  0  0  0  0  0  0  0  0  0  0
    0.0000    0.0000    0.0000 C   0  0  0  0  0  0  0  0  0  0  0  0
    0.0000    0.0000    0.0000 O   0  0  0  0  0  0  0  0  0  0  0  0
    0.0000    0.0000    0.0000 C   0  0  0  0  0  0  0  0  0  0  0  0
    0.0000    0.0000    0.0000 C   0  0  0  0  0  0  0  0  0  0  0  0
    0.0000    0.0000    0.0000 C   0  0  0  0  0  0  0  0  0  0  0  0
    0.0000    0.0000    0.0000 C   0  0  0  0  0  0  0  0  0  0  0  0
    0.0000    0.0000    0.0000 C   0  0  0  0  0  0  0  0  0  0  0  0
    0.0000    0.0000    0.0000 O   0  0  0  0  0  0  0  0  0  0  0  0
  1  2  1  0  0  0  0
  2 20  1  0  0  0  0
  2  3  2  0  0  0  0
  3  4  1  0  0  0  0
  4  5  1  0  0  0  0
  4 17  1  0  0  0  0
  5  6  1  0  0  0  0
  5 14  1  0  0  0  0
  5  7  1  0  0  0  0
  7  8  1  0  0  0  0
  8  9  1  0  0  0  0
  8 10  1  0  0  0  0
  8 11  1  0  0  0  0
 11 12  1  0  0  0  0
 11 13  1  0  0  0  0
 11 14  1  0  0  0  0
 14 15  1  0  0  0  0
 14 16  1  0  0  0  0
 17 18  2  0  0  0  0
 17 19  1  0  0  0  0
 19 20  2  0  0  0  0
 20 21  1  0  0  0  0
 21 22  1  0  0  0  0
 22 23  1  0  0  0  0
 22 29  2  0  0  0  0
 23 24  1  0  0  0  0
 24 25  1  0  0  0  0
 25 26  1  0  0  0  0
 26 27  1  0  0  0  0
 27 28  1  0  0  0  0
M  END
> <Index>
1459

> <ID>
HT0363

> <class>
1

> <apol>
49.738445

> <ast_fraglike>
0

> <ast_fraglike_ext>
0

> <ast_violation>
2

> <ast_violation_ext>
4

> <a_acc>
6

> <a_acid>
0

> <a_aro>
0

> <a_base>
0

> <a_count>
47

> <a_don>
3

> <a_donacc>
9

> <a_heavy>
25

> <a_hyd>
12

> <a_IC>
84.090157

> <a_ICM>
1.7891523

> <a_nB>
0

> <a_nBr>
0

> <a_nC>
15

> <a_nCl>
0

> <a_nF>
1

> <a_nH>
22

> <a_nI>
0

> <a_nN>
3

> <a_nO>
6

> <a_nP>
0

> <a_nS>
0

> <balabanJ>
1.8325403

> <BCUT_PEOE_0>
-2.6175056

> <BCUT_PEOE_1>
-0.50911325

> <BCUT_PEOE_2>
0.63001633

> <BCUT_PEOE_3>
2.7703876

> <BCUT_SLOGP_0>
-2.7172225

> <BCUT_SLOGP_1>
-0.56501865

> <BCUT_SLOGP_2>
0.52942967

> <BCUT_SLOGP_3>
2.7003329

> <BCUT_SMR_0>
-2.3768938

> <BCUT_SMR_1>
-0.42509019

> <BCUT_SMR_2>
0.7450707

> <BCUT_SMR_3>
2.9673486

> <bpol>
34.961555

> <b_1rotN>
5

> <b_1rotR>
0.1923077

> <b_ar>
0

> <b_count>
48

> <b_double>
4

> <b_heavy>
26

> <b_max1len>
6

> <b_rotN>
8

> <b_rotR>
0.30769232

> <b_single>
44

> <b_triple>
0

> <chi0>
18.560114

> <chi0v>
14.014991

> <chi0v_C>
9.7151785

> <chi0_C>
10.154336

> <chi1>
11.845443

> <chi1v>
8.0881824

> <chi1v_C>
4.323132

> <chi1_C>
4.5260386

> <chiral>
4

> <chiral_u>
0

> <density>
0.82772064

> <diameter>
15

> <FCharge>
0

> <GCUT_PEOE_0>
-0.79566091

> <GCUT_PEOE_1>
-0.42076752

> <GCUT_PEOE_2>
0.11777245

> <GCUT_PEOE_3>
2.6032166

> <GCUT_SLOGP_0>
-1.1687027

> <GCUT_SLOGP_1>
-0.38488066

> <GCUT_SLOGP_2>
0.098778687

> <GCUT_SLOGP_3>
2.538641

> <GCUT_SMR_0>
-0.53040427

> <GCUT_SMR_1>
-0.22564301

> <GCUT_SMR_2>
0.19418524

> <GCUT_SMR_3>
2.8201101

> <Kier1>
21.301775

> <Kier2>
9.7962961

> <Kier3>
5.489603

> <KierA1>
17.463205

> <KierA2>
7.960454

> <KierA3>
4.4314079

> <KierFlex>
5.5606017

> <lip_acc>
9

> <lip_don>
3

> <lip_druglike>
1

> <lip_violation>
0

> <logP(o/w)>
0.82599998

> <logS>
-2.9089601

> <mr>
8.5294056

> <mutagenic>
0

> <nmol>
1

> <opr_brigid>
11

> <opr_leadlike>
1

> <opr_nring>
2

> <opr_nrot>
7

> <opr_violation>
1

> <PC+>
0

> <PC->
0

> <PEOE_PC+>
3.0609462

> <PEOE_PC->
-3.0609462

> <PEOE_RPC+>
0.11963961

> <PEOE_RPC->
0.12627247

> <PEOE_VSA+0>
51.184631

> <PEOE_VSA+1>
66.459839

> <PEOE_VSA+2>
9.8098574

> <PEOE_VSA+3>
38.22636

> <PEOE_VSA+4>
20.648346

> <PEOE_VSA+5>
0.0

> <PEOE_VSA+6>
36.640053

> <PEOE_VSA-0>
27.44899

> <PEOE_VSA-1>
36.150303

> <PEOE_VSA-2>
0.0

> <PEOE_VSA-3>
5.6825762

> <PEOE_VSA-4>
39.042477

> <PEOE_VSA-5>
2.6406472

> <PEOE_VSA-6>
18.038837

> <PEOE_VSA_FHYD>
0.66755861

> <PEOE_VSA_FNEG>
0.36651635

> <PEOE_VSA_FPNEG>
0.16967772

> <PEOE_VSA_FPOL>
0.33244136

> <PEOE_VSA_FPOS>
0.63348365

> <PEOE_VSA_FPPOS>
0.16276366

> <PEOE_VSA_HYD>
234.96255

> <PEOE_VSA_NEG>
129.00383

> <PEOE_VSA_PNEG>
59.721962

> <PEOE_VSA_POL>
117.01036

> <PEOE_VSA_POS>
222.96909

> <PEOE_VSA_PPOS>
57.288399

> <petitjean>
0.46666667

> <petitjeanSC>
0.875

> <Q_PC+>
0

> <Q_PC->
0

> <Q_RPC+>
0

> <Q_RPC->
0

> <Q_VSA_FHYD>
1

> <Q_VSA_FNEG>
0

> <Q_VSA_FPNEG>
0

> <Q_VSA_FPOL>
0

> <Q_VSA_FPOS>
1

> <Q_VSA_FPPOS>
0

> <Q_VSA_HYD>
351.97293

> <Q_VSA_NEG>
0

> <Q_VSA_PNEG>
0

> <Q_VSA_POL>
0

> <Q_VSA_POS>
351.97293

> <Q_VSA_PPOS>
0

> <radius>
8

> <reactive>
0

> <rings>
2

> <RPC+>
0

> <RPC->
0

> <rsynth>
1.0

> <SlogP>
1.0144

> <SlogP_VSA0>
68.781204

> <SlogP_VSA1>
17.598827

> <SlogP_VSA2>
47.445545

> <SlogP_VSA3>
20.926258

> <SlogP_VSA4>
0.0

> <SlogP_VSA5>
25.906548

> <SlogP_VSA6>
0.0

> <SlogP_VSA7>
17.214357

> <SlogP_VSA8>
56.605217

> <SlogP_VSA9>
129.33658

> <SMR>
8.4218302

> <SMR_VSA0>
69.724205

> <SMR_VSA1>
85.640411

> <SMR_VSA2>
18.01075

> <SMR_VSA3>
34.566788

> <SMR_VSA4>
0.0

> <SMR_VSA5>
73.819572

> <SMR_VSA6>
35.400772

> <SMR_VSA7>
66.652031

> <TPSA>
120.69

> <VAdjEq>
0.41335541

> <VAdjMa>
5.7004399

> <VDistEq>
3.6296749

> <VDistMa>
8.9582138

> <vdw_area>
351.97293

> <vdw_vol>
434.1489

> <vsa_acc>
35.320175

> <vsa_acid>
0

> <vsa_base>
0

> <vsa_don>
5.6825762

> <vsa_hyd>
194.9054

> <vsa_other>
63.283905

> <vsa_pol>
68.136589

> <Weight>
359.354

> <weinerPath>
1686

> <weinerPol>
38

> <zagreb>
124

$$$$
Row1459
 OpenBabel06061811532D

 16 16  0  0  1  0  0  0  0  0999 V2000
    0.0000    0.0000    0.0000 S   0  0  0  0  0  0  0  0  0  0  0  0
    0.0000    0.0000    0.0000 C   0  0  0  0  0  0  0  0  0  0  0  0
    0.0000    0.0000    0.0000 C   0  0  2  0  0  0  0  0  0  0  0  0
    0.0000    0.0000    0.0000 H   0  0  0  0  0  0  0  0  0  0  0  0
    0.0000    0.0000    0.0000 C   0  0  0  0  0  0  0  0  0  0  0  0
    0.0000    0.0000    0.0000 O   0  0  0  0  0  0  0  0  0  0  0  0
    0.0000    0.0000    0.0000 N   0  0  0  0  0  0  0  0  0  0  0  0
    0.0000    0.0000    0.0000 C   0  0  0  0  0  0  0  0  0  0  0  0
    0.0000    0.0000    0.0000 C   0  0  0  0  0  0  0  0  0  0  0  0
    0.0000    0.0000    0.0000 C   0  0  0  0  0  0  0  0  0  0  0  0
    0.0000    0.0000    0.0000 C   0  0  1  0  0  0  0  0  0  0  0  0
    0.0000    0.0000    0.0000 H   0  0  0  0  0  0  0  0  0  0  0  0
    0.0000    0.0000    0.0000 C   0  0  0  0  0  0  0  0  0  0  0  0
    0.0000    0.0000    0.0000 O   0  0  0  0  0  0  0  0  0  0  0  0
    0.0000    0.0000    0.0000 O   0  0  0  0  0  0  0  0  0  0  0  0
    0.0000    0.0000    0.0000 C   0  0  0  0  0  0  0  0  0  0  0  0
  1  2  1  0  0  0  0
  2  3  1  0  0  0  0
  3  4  1  0  0  0  0
  3  5  1  0  0  0  0
  3 16  1  0  0  0  0
  5  6  2  0  0  0  0
  5  7  1  0  0  0  0
  7 11  1  0  0  0  0
  7  8  1  0  0  0  0
  8  9  1  0  0  0  0
  9 10  1  0  0  0  0
 10 11  1  0  0  0  0
 11 12  1  0  0  0  0
 11 13  1  0  0  0  0
 13 14  1  0  0  0  0
 13 15  2  0  0  0  0
M  END
> <Index>
1460

> <ID>
HT0369

> <class>
1

> <apol>
32.247894

> <ast_fraglike>
1

> <ast_fraglike_ext>
0

> <ast_violation>
0

> <ast_violation_ext>
1

> <a_acc>
3

> <a_acid>
0

> <a_aro>
0

> <a_base>
0

> <a_count>
29

> <a_don>
2

> <a_donacc>
5

> <a_heavy>
14

> <a_hyd>
7

> <a_IC>
48.993877

> <a_ICM>
1.6894441

> <a_nB>
0

> <a_nBr>
0

> <a_nC>
9

> <a_nCl>
0

> <a_nF>
0

> <a_nH>
15

> <a_nI>
0

> <a_nN>
1

> <a_nO>
3

> <a_nP>
0

> <a_nS>
1

> <balabanJ>
2.579812

> <BCUT_PEOE_0>
-2.5622227

> <BCUT_PEOE_1>
-0.52663022

> <BCUT_PEOE_2>
0.49872395

> <BCUT_PEOE_3>
2.7318563

> <BCUT_SLOGP_0>
-2.672914

> <BCUT_SLOGP_1>
-0.49816832

> <BCUT_SLOGP_2>
0.47349069

> <BCUT_SLOGP_3>
2.6964891

> <BCUT_SMR_0>
-2.3016026

> <BCUT_SMR_1>
-0.34803894

> <BCUT_SMR_2>
0.63650364

> <BCUT_SMR_3>
2.9815142

> <bpol>
22.574104

> <b_1rotN>
4

> <b_1rotR>
0.2857143

> <b_ar>
0

> <b_count>
29

> <b_double>
2

> <b_heavy>
14

> <b_max1len>
5

> <b_rotN>
4

> <b_rotR>
0.2857143

> <b_single>
27

> <b_triple>
0

> <chi0>
10.715178

> <chi0v>
9.0356922

> <chi0v_C>
5.9831276

> <chi0_C>
6.1378284

> <chi1>
6.5745859

> <chi1v>
5.3497691

> <chi1v_C>
2.9711971

> <chi1_C>
3.0605135

> <chiral>
2

> <chiral_u>
0

> <density>
0.804874

> <diameter>
7

> <FCharge>
0

> <GCUT_PEOE_0>
-0.83855218

> <GCUT_PEOE_1>
-0.4386147

> <GCUT_PEOE_2>
0.058654245

> <GCUT_PEOE_3>
2.5240421

> <GCUT_SLOGP_0>
-0.9778561

> <GCUT_SLOGP_1>
-0.39195251

> <GCUT_SLOGP_2>
0.044779342

> <GCUT_SLOGP_3>
2.4919958

> <GCUT_SMR_0>
-0.52482486

> <GCUT_SMR_1>
-0.18862161

> <GCUT_SMR_2>
0.16837616

> <GCUT_SMR_3>
2.7591927

> <Kier1>
12.071428

> <Kier2>
5.1855955

> <Kier3>
2.75

> <KierA1>
11.351971

> <KierA2>
4.8519602

> <KierA3>
2.5631454

> <KierFlex>
3.9342365

> <lip_acc>
4

> <lip_don>
1

> <lip_druglike>
1

> <lip_violation>
0

> <logP(o/w)>
0.68099999

> <logS>
-1.27749

> <mr>
5.6065035

> <mutagenic>
0

> <nmol>
1

> <opr_brigid>
5

> <opr_leadlike>
1

> <opr_nring>
1

> <opr_nrot>
4

> <opr_violation>
0

> <PC+>
0

> <PC->
0

> <PEOE_PC+>
1.4801316

> <PEOE_PC->
-1.4801316

> <PEOE_RPC+>
0.19078532

> <PEOE_RPC->
0.22282389

> <PEOE_VSA+0>
75.054329

> <PEOE_VSA+1>
4.2653861

> <PEOE_VSA+2>
10.927058

> <PEOE_VSA+3>
0.0

> <PEOE_VSA+4>
23.273705

> <PEOE_VSA+5>
14.708499

> <PEOE_VSA+6>
0.0

> <PEOE_VSA-0>
17.402626

> <PEOE_VSA-1>
18.747677

> <PEOE_VSA-2>
0.0

> <PEOE_VSA-3>
26.362989

> <PEOE_VSA-4>
0.0

> <PEOE_VSA-5>
27.133842

> <PEOE_VSA-6>
7.7675405

> <PEOE_VSA_FHYD>
0.67699695

> <PEOE_VSA_FNEG>
0.43171909

> <PEOE_VSA_FPNEG>
0.15467478

> <PEOE_VSA_FPOL>
0.32300302

> <PEOE_VSA_FPOS>
0.56828088

> <PEOE_VSA_FPPOS>
0.16832826

> <PEOE_VSA_HYD>
152.76007

> <PEOE_VSA_NEG>
97.414673

> <PEOE_VSA_PNEG>
34.901382

> <PEOE_VSA_POL>
72.883583

> <PEOE_VSA_POS>
128.22897

> <PEOE_VSA_PPOS>
37.982204

> <petitjean>
0.42857143

> <petitjeanSC>
0.75

> <Q_PC+>
0

> <Q_PC->
0

> <Q_RPC+>
0

> <Q_RPC->
0

> <Q_VSA_FHYD>
1

> <Q_VSA_FNEG>
0

> <Q_VSA_FPNEG>
0

> <Q_VSA_FPOL>
0

> <Q_VSA_FPOS>
1

> <Q_VSA_FPPOS>
0

> <Q_VSA_HYD>
225.64365

> <Q_VSA_NEG>
0

> <Q_VSA_PNEG>
0

> <Q_VSA_POL>
0

> <Q_VSA_POS>
225.64365

> <Q_VSA_PPOS>
0

> <radius>
4

> <reactive>
1

> <rings>
1

> <RPC+>
0

> <RPC->
0

> <rsynth>
1.0

> <SlogP>
0.6279

> <SlogP_VSA0>
0.0

> <SlogP_VSA1>
16.128561

> <SlogP_VSA2>
51.706402

> <SlogP_VSA3>
61.058369

> <SlogP_VSA4>
4.4107962

> <SlogP_VSA5>
0.0

> <SlogP_VSA6>
0.0

> <SlogP_VSA7>
0.0

> <SlogP_VSA8>
83.843925

> <SlogP_VSA9>
33.326015

> <SMR>
5.5388799

> <SMR_VSA0>
47.724434

> <SMR_VSA1>
3.1243138

> <SMR_VSA2>
29.796022

> <SMR_VSA3>
3.9819686

> <SMR_VSA4>
0.0

> <SMR_VSA5>
37.736813

> <SMR_VSA6>
48.677391

> <SMR_VSA7>
79.433128

> <TPSA>
96.410004

> <VAdjEq>
0.59167278

> <VAdjMa>
4.8073549

> <VDistEq>
2.6126969

> <VDistMa>
7.33038

> <vdw_area>
225.64365

> <vdw_vol>
269.96646

> <vsa_acc>
13.566921

> <vsa_acid>
0

> <vsa_base>
0

> <vsa_don>
0.0

> <vsa_hyd>
108.01759

> <vsa_other>
59.042542

> <vsa_pol>
40.700764

> <Weight>
217.289

> <weinerPath>
297

> <weinerPol>
19

> <zagreb>
66

$$$$
Row1460
 OpenBabel06061811532D

 18 20  0  0  0  0  0  0  0  0999 V2000
    0.0000    0.0000    0.0000 O   0  0  0  0  0  0  0  0  0  0  0  0
    0.0000    0.0000    0.0000 C   0  0  0  0  0  0  0  0  0  0  0  0
    0.0000    0.0000    0.0000 N   0  0  0  0  0  0  0  0  0  0  0  0
    0.0000    0.0000    0.0000 N   0  0  0  0  0  0  0  0  0  0  0  0
    0.0000    0.0000    0.0000 C   0  0  0  0  0  0  0  0  0  0  0  0
    0.0000    0.0000    0.0000 C   0  0  0  0  0  0  0  0  0  0  0  0
    0.0000    0.0000    0.0000 C   0  0  0  0  0  0  0  0  0  0  0  0
    0.0000    0.0000    0.0000 C   0  0  0  0  0  0  0  0  0  0  0  0
    0.0000    0.0000    0.0000 C   0  0  0  0  0  0  0  0  0  0  0  0
    0.0000    0.0000    0.0000 C   0  0  0  0  0  0  0  0  0  0  0  0
    0.0000    0.0000    0.0000 C   0  0  0  0  0  0  0  0  0  0  0  0
    0.0000    0.0000    0.0000 C   0  0  0  0  0  0  0  0  0  0  0  0
    0.0000    0.0000    0.0000 C   0  0  0  0  0  0  0  0  0  0  0  0
    0.0000    0.0000    0.0000 C   0  0  0  0  0  0  0  0  0  0  0  0
    0.0000    0.0000    0.0000 C   0  0  0  0  0  0  0  0  0  0  0  0
    0.0000    0.0000    0.0000 C   0  0  0  0  0  0  0  0  0  0  0  0
    0.0000    0.0000    0.0000 C   0  0  0  0  0  0  0  0  0  0  0  0
    0.0000    0.0000    0.0000 C   0  0  0  0  0  0  0  0  0  0  0  0
  1  2  2  0  0  0  0
  2  3  1  0  0  0  0
  2  4  1  0  0  0  0
  4 10  1  0  0  0  0
  4  5  1  0  0  0  0
  5 18  1  0  0  0  0
  5  6  2  0  0  0  0
  6  7  1  0  0  0  0
  6 15  1  0  0  0  0
  7  8  2  0  0  0  0
  8  9  1  0  0  0  0
  9 14  1  0  0  0  0
  9 10  2  0  0  0  0
 10 11  1  0  0  0  0
 11 12  2  0  0  0  0
 12 13  1  0  0  0  0
 13 14  2  0  0  0  0
 15 16  2  0  0  0  0
 16 17  1  0  0  0  0
 17 18  2  0  0  0  0
M  END
> <Index>
1461

> <ID>
HT0371

> <class>
1

> <apol>
37.403515

> <ast_fraglike>
0

> <ast_fraglike_ext>
0

> <ast_violation>
1

> <ast_violation_ext>
1

> <a_acc>
1

> <a_acid>
0

> <a_aro>
12

> <a_base>
0

> <a_count>
30

> <a_don>
1

> <a_donacc>
2

> <a_heavy>
18

> <a_hyd>
14

> <a_IC>
43.583809

> <a_ICM>
1.4527936

> <a_nB>
0

> <a_nBr>
0

> <a_nC>
15

> <a_nCl>
0

> <a_nF>
0

> <a_nH>
12

> <a_nI>
0

> <a_nN>
2

> <a_nO>
1

> <a_nP>
0

> <a_nS>
0

> <balabanJ>
1.8639469

> <BCUT_PEOE_0>
-2.3351021

> <BCUT_PEOE_1>
-0.62030143

> <BCUT_PEOE_2>
0.66835022

> <BCUT_PEOE_3>
2.3282804

> <BCUT_SLOGP_0>
-2.5334697

> <BCUT_SLOGP_1>
-0.49475202

> <BCUT_SLOGP_2>
0.7985543

> <BCUT_SLOGP_3>
2.4928625

> <BCUT_SMR_0>
-1.9638009

> <BCUT_SMR_1>
-0.45955586

> <BCUT_SMR_2>
0.82997555

> <BCUT_SMR_3>
2.6986876

> <bpol>
15.396484

> <b_1rotN>
1

> <b_1rotR>
0.050000001

> <b_ar>
12

> <b_count>
32

> <b_double>
2

> <b_heavy>
20

> <b_max1len>
2

> <b_rotN>
1

> <b_rotR>
0.050000001

> <b_single>
18

> <b_triple>
0

> <chi0>
12.53517

> <chi0v>
9.706315

> <chi0v_C>
8.2735023

> <chi0_C>
9.957819

> <chi1>
8.7708569

> <chi1v>
5.7290039

> <chi1v_C>
4.5653839

> <chi1_C>
6.6161566

> <chiral>
0

> <chiral_u>
0

> <density>
0.71363193

> <diameter>
7

> <FCharge>
0

> <GCUT_PEOE_0>
-0.80043483

> <GCUT_PEOE_1>
-0.44129482

> <GCUT_PEOE_2>
0.079760909

> <GCUT_PEOE_3>
2.4710379

> <GCUT_SLOGP_0>
-1.3705581

> <GCUT_SLOGP_1>
-0.30042276

> <GCUT_SLOGP_2>
0.18579361

> <GCUT_SLOGP_3>
2.6344945

> <GCUT_SMR_0>
-0.42910278

> <GCUT_SMR_1>
-0.20166165

> <GCUT_SMR_2>
0.21277213

> <GCUT_SMR_3>
2.8066838

> <Kier1>
13.005

> <Kier2>
5.5510206

> <Kier3>
2.5246549

> <KierA1>
8.2133408

> <KierA2>
3.4000528

> <KierA3>
1.5114913

> <KierFlex>
1.551433

> <lip_acc>
3

> <lip_don>
2

> <lip_druglike>
1

> <lip_violation>
0

> <logP(o/w)>
2.9679999

> <logS>
-3.8538301

> <mr>
7.0657024

> <mutagenic>
0

> <nmol>
1

> <opr_brigid>
17

> <opr_leadlike>
1

> <opr_nring>
3

> <opr_nrot>
0

> <opr_violation>
0

> <PC+>
0

> <PC->
0

> <PEOE_PC+>
1.3874395

> <PEOE_PC->
-1.3874395

> <PEOE_RPC+>
0.23431435

> <PEOE_RPC->
0.25320071

> <PEOE_VSA+0>
0.0

> <PEOE_VSA+1>
56.052963

> <PEOE_VSA+2>
0.0

> <PEOE_VSA+3>
17.238026

> <PEOE_VSA+4>
0.0

> <PEOE_VSA+5>
0.0

> <PEOE_VSA+6>
17.440542

> <PEOE_VSA-0>
28.926888

> <PEOE_VSA-1>
98.03923

> <PEOE_VSA-2>
0.0

> <PEOE_VSA-3>
0.0

> <PEOE_VSA-4>
13.566921

> <PEOE_VSA-5>
0.0

> <PEOE_VSA-6>
6.6511192

> <PEOE_VSA_FHYD>
0.84171456

> <PEOE_VSA_FNEG>
0.61864001

> <PEOE_VSA_FPNEG>
0.084979855

> <PEOE_VSA_FPOL>
0.15828541

> <PEOE_VSA_FPOS>
0.38136002

> <PEOE_VSA_FPPOS>
0.073305562

> <PEOE_VSA_HYD>
200.25711

> <PEOE_VSA_NEG>
147.18416

> <PEOE_VSA_PNEG>
20.21804

> <PEOE_VSA_POL>
37.658585

> <PEOE_VSA_POS>
90.731529

> <PEOE_VSA_PPOS>
17.440542

> <petitjean>
0.42857143

> <petitjeanSC>
0.75

> <Q_PC+>
0

> <Q_PC->
0

> <Q_RPC+>
0

> <Q_RPC->
0

> <Q_VSA_FHYD>
1

> <Q_VSA_FNEG>
0

> <Q_VSA_FPNEG>
0

> <Q_VSA_FPOL>
0

> <Q_VSA_FPOS>
1

> <Q_VSA_FPPOS>
0

> <Q_VSA_HYD>
237.9157

> <Q_VSA_NEG>
0

> <Q_VSA_PNEG>
0

> <Q_VSA_POL>
0

> <Q_VSA_POS>
237.9157

> <Q_VSA_PPOS>
0

> <radius>
4

> <reactive>
0

> <rings>
3

> <RPC+>
0

> <RPC->
0

> <rsynth>
1.0

> <SlogP>
3.3872001

> <SlogP_VSA0>
36.0215

> <SlogP_VSA1>
4.8299561

> <SlogP_VSA2>
0.0

> <SlogP_VSA3>
0.0

> <SlogP_VSA4>
6.37115

> <SlogP_VSA5>
0.0

> <SlogP_VSA6>
0.0

> <SlogP_VSA7>
141.14548

> <SlogP_VSA8>
35.286369

> <SlogP_VSA9>
29.375711

> <SMR>
7.3534398

> <SMR_VSA0>
23.862217

> <SMR_VSA1>
0.0

> <SMR_VSA2>
3.1243138

> <SMR_VSA3>
6.37115

> <SMR_VSA4>
38.410683

> <SMR_VSA5>
141.14548

> <SMR_VSA6>
40.116325

> <SMR_VSA7>
0.0

> <TPSA>
46.330002

> <VAdjEq>
0.53921634

> <VAdjMa>
5.321928

> <VDistEq>
2.6019619

> <VDistMa>
8.0982037

> <vdw_area>
237.9157

> <vdw_vol>
331.08664

> <vsa_acc>
13.566921

> <vsa_acid>
0

> <vsa_base>
0

> <vsa_don>
17.742489

> <vsa_hyd>
175.90112

> <vsa_other>
17.440542

> <vsa_pol>
31.30941

> <Weight>
236.274

> <weinerPath>
521

> <weinerPol>
33

> <zagreb>
96

$$$$
Row1461
 OpenBabel06061811532D

 12 12  0  0  0  0  0  0  0  0999 V2000
    0.0000    0.0000    0.0000 S   0  0  0  0  0  0  0  0  0  0  0  0
    0.0000    0.0000    0.0000 C   0  0  0  0  0  0  0  0  0  0  0  0
    0.0000    0.0000    0.0000 N   0  0  0  0  0  0  0  0  0  0  0  0
    0.0000    0.0000    0.0000 C   0  0  0  0  0  0  0  0  0  0  0  0
    0.0000    0.0000    0.0000 C   0  0  0  0  0  0  0  0  0  0  0  0
    0.0000    0.0000    0.0000 N   0  0  0  0  0  0  0  0  0  0  0  0
    0.0000    0.0000    0.0000 C   0  0  0  0  0  0  0  0  0  0  0  0
    0.0000    0.0000    0.0000 C   0  0  0  0  0  0  0  0  0  0  0  0
    0.0000    0.0000    0.0000 O   0  0  0  0  0  0  0  0  0  0  0  0
    0.0000    0.0000    0.0000 C   0  0  0  0  0  0  0  0  0  0  0  0
    0.0000    0.0000    0.0000 C   0  0  0  0  0  0  0  0  0  0  0  0
    0.0000    0.0000    0.0000 O   0  0  0  0  0  0  0  0  0  0  0  0
  1  2  2  0  0  0  0
  2  6  1  0  0  0  0
  2  3  1  0  0  0  0
  3  4  1  0  0  0  0
  3  8  1  0  0  0  0
  4  5  2  0  0  0  0
  5  6  1  0  0  0  0
  6  7  1  0  0  0  0
  8  9  1  0  0  0  0
  8 12  2  0  0  0  0
  9 10  1  0  0  0  0
 10 11  1  0  0  0  0
M  END
> <Index>
1462

> <ID>
HT0378

> <class>
1

> <apol>
25.691931

> <ast_fraglike>
1

> <ast_fraglike_ext>
1

> <ast_violation>
0

> <ast_violation_ext>
0

> <a_acc>
2

> <a_acid>
0

> <a_aro>
0

> <a_base>
0

> <a_count>
22

> <a_don>
0

> <a_donacc>
2

> <a_heavy>
12

> <a_hyd>
5

> <a_IC>
41.236729

> <a_ICM>
1.8743968

> <a_nB>
0

> <a_nBr>
0

> <a_nC>
7

> <a_nCl>
0

> <a_nF>
0

> <a_nH>
10

> <a_nI>
0

> <a_nN>
2

> <a_nO>
2

> <a_nP>
0

> <a_nS>
1

> <balabanJ>
2.4360564

> <BCUT_PEOE_0>
-2.3912153

> <BCUT_PEOE_1>
-0.21231115

> <BCUT_PEOE_2>
0.056362495

> <BCUT_PEOE_3>
2.4076266

> <BCUT_SLOGP_0>
-2.4853392

> <BCUT_SLOGP_1>
-0.068616472

> <BCUT_SLOGP_2>
0.37787583

> <BCUT_SLOGP_3>
2.3752894

> <BCUT_SMR_0>
-2.1505487

> <BCUT_SMR_1>
0.065763168

> <BCUT_SMR_2>
0.52299559

> <BCUT_SMR_3>
2.7236867

> <bpol>
18.906071

> <b_1rotN>
2

> <b_1rotR>
0.16666667

> <b_ar>
0

> <b_count>
22

> <b_double>
3

> <b_heavy>
12

> <b_max1len>
3

> <b_rotN>
3

> <b_rotR>
0.25

> <b_single>
19

> <b_triple>
0

> <chi0>
9.1378279

> <chi0v>
7.7974758

> <chi0v_C>
4.8618073

> <chi0_C>
5.276021

> <chi1>
5.6639023

> <chi1v>
3.9841678

> <chi1v_C>
1.0404401

> <chi1_C>
1.2071068

> <chiral>
0

> <chiral_u>
0

> <density>
0.81932843

> <diameter>
7

> <FCharge>
0

> <GCUT_PEOE_0>
-0.82676363

> <GCUT_PEOE_1>
-0.37164998

> <GCUT_PEOE_2>
-0.10363751

> <GCUT_PEOE_3>
2.1142218

> <GCUT_SLOGP_0>
-0.97165668

> <GCUT_SLOGP_1>
-0.30549264

> <GCUT_SLOGP_2>
-7.9093291E-4

> <GCUT_SLOGP_3>
2.1064425

> <GCUT_SMR_0>
-0.51359916

> <GCUT_SMR_1>
-0.11705947

> <GCUT_SMR_2>
0.24882902

> <GCUT_SMR_3>
2.4121461

> <Kier1>
10.083333

> <Kier2>
4.296875

> <Kier3>
2.25

> <KierA1>
8.3722715

> <KierA2>
3.5016406

> <KierA3>
1.8067379

> <KierFlex>
2.4430571

> <lip_acc>
4

> <lip_don>
0

> <lip_druglike>
1

> <lip_violation>
0

> <logP(o/w)>
0.043000001

> <logS>
-1.84375

> <mr>
4.8174834

> <mutagenic>
0

> <nmol>
1

> <opr_brigid>
5

> <opr_leadlike>
1

> <opr_nring>
1

> <opr_nrot>
1

> <opr_violation>
0

> <PC+>
0

> <PC->
0

> <PEOE_PC+>
1.0904063

> <PEOE_PC->
-1.0904063

> <PEOE_RPC+>
0.34095031

> <PEOE_RPC->
0.27303252

> <PEOE_VSA+0>
72.250771

> <PEOE_VSA+1>
32.012836

> <PEOE_VSA+2>
31.384512

> <PEOE_VSA+3>
0.0

> <PEOE_VSA+4>
0.0

> <PEOE_VSA+5>
0.0

> <PEOE_VSA+6>
19.199511

> <PEOE_VSA-0>
41.986366

> <PEOE_VSA-1>
0.0

> <PEOE_VSA-2>
0.0

> <PEOE_VSA-3>
0.0

> <PEOE_VSA-4>
13.566921

> <PEOE_VSA-5>
2.503756

> <PEOE_VSA-6>
0.0

> <PEOE_VSA_FHYD>
0.83433813

> <PEOE_VSA_FNEG>
0.27269033

> <PEOE_VSA_FPNEG>
0.075482972

> <PEOE_VSA_FPOL>
0.16566187

> <PEOE_VSA_FPOS>
0.7273097

> <PEOE_VSA_FPPOS>
0.090178907

> <PEOE_VSA_HYD>
177.63449

> <PEOE_VSA_NEG>
58.057045

> <PEOE_VSA_PNEG>
16.070677

> <PEOE_VSA_POL>
35.270187

> <PEOE_VSA_POS>
154.84763

> <PEOE_VSA_PPOS>
19.199511

> <petitjean>
0.42857143

> <petitjeanSC>
0.75

> <Q_PC+>
0

> <Q_PC->
0

> <Q_RPC+>
0

> <Q_RPC->
0

> <Q_VSA_FHYD>
1

> <Q_VSA_FNEG>
0

> <Q_VSA_FPNEG>
0

> <Q_VSA_FPOL>
0

> <Q_VSA_FPOS>
1

> <Q_VSA_FPPOS>
0

> <Q_VSA_HYD>
212.90468

> <Q_VSA_NEG>
0

> <Q_VSA_PNEG>
0

> <Q_VSA_POL>
0

> <Q_VSA_POS>
212.90468

> <Q_VSA_PPOS>
0

> <radius>
4

> <reactive>
0

> <rings>
1

> <RPC+>
0

> <RPC->
0

> <rsynth>
1.0

> <SlogP>
1.1464

> <SlogP_VSA0>
0.0

> <SlogP_VSA1>
13.849786

> <SlogP_VSA2>
10.999887

> <SlogP_VSA3>
20.926258

> <SlogP_VSA4>
0.0

> <SlogP_VSA5>
32.897186

> <SlogP_VSA6>
0.0

> <SlogP_VSA7>
34.428715

> <SlogP_VSA8>
0.0

> <SlogP_VSA9>
102.38026

> <SMR>
4.8362999

> <SMR_VSA0>
34.862103

> <SMR_VSA1>
6.2486277

> <SMR_VSA2>
0.0

> <SMR_VSA3>
0.0

> <SMR_VSA4>
0.0

> <SMR_VSA5>
34.428715

> <SMR_VSA6>
28.527416

> <SMR_VSA7>
111.41523

> <TPSA>
64.870003

> <VAdjEq>
0.65002245

> <VAdjMa>
4.5849624

> <VDistEq>
2.5394223

> <VDistMa>
6.8563161

> <vdw_area>
212.90468

> <vdw_vol>
227.30202

> <vsa_acc>
44.951431

> <vsa_acid>
0

> <vsa_base>
0

> <vsa_don>
0.0

> <vsa_hyd>
125.9654

> <vsa_other>
34.869892

> <vsa_pol>
44.951431

> <Weight>
186.235

> <weinerPath>
199

> <weinerPol>
15

> <zagreb>
56

$$$$
Row1462
 OpenBabel06061811532D

 27 29  0  0  1  0  0  0  0  0999 V2000
    0.0000    0.0000    0.0000 Cl  0  0  0  0  0  0  0  0  0  0  0  0
    0.0000    0.0000    0.0000 C   0  0  0  0  0  0  0  0  0  0  0  0
    0.0000    0.0000    0.0000 C   0  0  0  0  0  0  0  0  0  0  0  0
    0.0000    0.0000    0.0000 S   0  0  0  0  0  0  0  0  0  0  0  0
    0.0000    0.0000    0.0000 C   0  0  1  0  0  0  0  0  0  0  0  0
    0.0000    0.0000    0.0000 H   0  0  0  0  0  0  0  0  0  0  0  0
    0.0000    0.0000    0.0000 N   0  0  0  0  0  0  0  0  0  0  0  0
    0.0000    0.0000    0.0000 C   0  0  0  0  0  0  0  0  0  0  0  0
    0.0000    0.0000    0.0000 C   0  0  0  0  0  0  0  0  0  0  0  0
    0.0000    0.0000    0.0000 O   0  0  0  0  0  0  0  0  0  0  0  0
    0.0000    0.0000    0.0000 O   0  0  0  0  0  0  0  0  0  0  0  0
    0.0000    0.0000    0.0000 C   0  0  0  0  0  0  0  0  0  0  0  0
    0.0000    0.0000    0.0000 O   0  0  0  0  0  0  0  0  0  0  0  0
    0.0000    0.0000    0.0000 C   0  0  1  0  0  0  0  0  0  0  0  0
    0.0000    0.0000    0.0000 H   0  0  0  0  0  0  0  0  0  0  0  0
    0.0000    0.0000    0.0000 N   0  0  0  0  0  0  0  0  0  0  0  0
    0.0000    0.0000    0.0000 C   0  0  0  0  0  0  0  0  0  0  0  0
    0.0000    0.0000    0.0000 O   0  0  0  0  0  0  0  0  0  0  0  0
    0.0000    0.0000    0.0000 C   0  0  2  0  0  0  0  0  0  0  0  0
    0.0000    0.0000    0.0000 H   0  0  0  0  0  0  0  0  0  0  0  0
    0.0000    0.0000    0.0000 N   0  0  0  0  0  0  0  0  0  0  0  0
    0.0000    0.0000    0.0000 C   0  0  0  0  0  0  0  0  0  0  0  0
    0.0000    0.0000    0.0000 C   0  0  0  0  0  0  0  0  0  0  0  0
    0.0000    0.0000    0.0000 C   0  0  0  0  0  0  0  0  0  0  0  0
    0.0000    0.0000    0.0000 C   0  0  0  0  0  0  0  0  0  0  0  0
    0.0000    0.0000    0.0000 C   0  0  0  0  0  0  0  0  0  0  0  0
    0.0000    0.0000    0.0000 C   0  0  0  0  0  0  0  0  0  0  0  0
  1  2  1  0  0  0  0
  2  8  2  0  0  0  0
  2  3  1  0  0  0  0
  3  4  1  0  0  0  0
  4  5  1  0  0  0  0
  5  6  1  0  0  0  0
  5 14  1  0  0  0  0
  5  7  1  0  0  0  0
  7  8  1  0  0  0  0
  7 12  1  0  0  0  0
  8  9  1  0  0  0  0
  9 10  1  0  0  0  0
  9 11  2  0  0  0  0
 12 13  2  0  0  0  0
 12 14  1  0  0  0  0
 14 15  1  0  0  0  0
 14 16  1  0  0  0  0
 16 17  1  0  0  0  0
 17 18  2  0  0  0  0
 17 19  1  0  0  0  0
 19 20  1  0  0  0  0
 19 21  1  0  0  0  0
 19 22  1  0  0  0  0
 22 27  1  0  0  0  0
 22 23  2  0  0  0  0
 23 24  1  0  0  0  0
 24 25  2  0  0  0  0
 25 26  1  0  0  0  0
 26 27  2  0  0  0  0
M  END
> <Index>
1463

> <ID>
HT0394

> <class>
1

> <apol>
47.323101

> <ast_fraglike>
0

> <ast_fraglike_ext>
0

> <ast_violation>
3

> <ast_violation_ext>
5

> <a_acc>
5

> <a_acid>
0

> <a_aro>
6

> <a_base>
0

> <a_count>
38

> <a_don>
4

> <a_donacc>
9

> <a_heavy>
24

> <a_hyd>
14

> <a_IC>
74.760033

> <a_ICM>
1.9673692

> <a_nB>
0

> <a_nBr>
0

> <a_nC>
15

> <a_nCl>
1

> <a_nF>
0

> <a_nH>
14

> <a_nI>
0

> <a_nN>
3

> <a_nO>
4

> <a_nP>
0

> <a_nS>
1

> <balabanJ>
1.5845311

> <BCUT_PEOE_0>
-2.6783683

> <BCUT_PEOE_1>
-0.62969315

> <BCUT_PEOE_2>
0.66861045

> <BCUT_PEOE_3>
2.73317

> <BCUT_SLOGP_0>
-2.8961098

> <BCUT_SLOGP_1>
-0.52812922

> <BCUT_SLOGP_2>
0.76191199

> <BCUT_SLOGP_3>
2.6056423

> <BCUT_SMR_0>
-2.3966935

> <BCUT_SMR_1>
-0.43034241

> <BCUT_SMR_2>
0.82445055

> <BCUT_SMR_3>
3.0127168

> <bpol>
22.858898

> <b_1rotN>
4

> <b_1rotR>
0.15384616

> <b_ar>
6

> <b_count>
40

> <b_double>
4

> <b_heavy>
26

> <b_max1len>
3

> <b_rotN>
5

> <b_rotR>
0.1923077

> <b_single>
30

> <b_triple>
0

> <chi0>
17.430357

> <chi0v>
13.881069

> <chi0v_C>
8.3259087

> <chi0_C>
9.4387932

> <chi1>
11.413591

> <chi1v>
8.5170746

> <chi1v_C>
3.9635956

> <chi1_C>
5.2247448

> <chiral>
3

> <chiral_u>
0

> <density>
0.88779908

> <diameter>
12

> <FCharge>
0

> <GCUT_PEOE_0>
-0.82397193

> <GCUT_PEOE_1>
-0.43268073

> <GCUT_PEOE_2>
0.094035968

> <GCUT_PEOE_3>
2.5500913

> <GCUT_SLOGP_0>
-1.3374544

> <GCUT_SLOGP_1>
-0.38489625

> <GCUT_SLOGP_2>
0.15566365

> <GCUT_SLOGP_3>
2.5196152

> <GCUT_SMR_0>
-0.52870154

> <GCUT_SMR_1>
-0.22616273

> <GCUT_SMR_2>
0.23011757

> <GCUT_SMR_3>
2.8300655

> <Kier1>
18.781065

> <Kier2>
7.7091413

> <Kier3>
3.6183696

> <KierA1>
16.128738

> <KierA2>
6.5742006

> <KierA3>
3.0701475

> <KierFlex>
4.4180655

> <lip_acc>
7

> <lip_don>
4

> <lip_druglike>
1

> <lip_violation>
0

> <logP(o/w)>
0.83999997

> <logS>
-3.85728

> <mr>
9.0267649

> <mutagenic>
0

> <nmol>
1

> <opr_brigid>
15

> <opr_leadlike>
1

> <opr_nring>
3

> <opr_nrot>
4

> <opr_violation>
0

> <PC+>
0

> <PC->
0

> <PEOE_PC+>
2.603786

> <PEOE_PC->
-2.603786

> <PEOE_RPC+>
0.11870711

> <PEOE_RPC->
0.13080788

> <PEOE_VSA+0>
19.208147

> <PEOE_VSA+1>
38.642834

> <PEOE_VSA+2>
35.351521

> <PEOE_VSA+3>
8.6190128

> <PEOE_VSA+4>
23.273705

> <PEOE_VSA+5>
12.949531

> <PEOE_VSA+6>
14.708499

> <PEOE_VSA-0>
2.2085397

> <PEOE_VSA-1>
90.856468

> <PEOE_VSA-2>
19.760618

> <PEOE_VSA-3>
0.0

> <PEOE_VSA-4>
0.0

> <PEOE_VSA-5>
40.700764

> <PEOE_VSA-6>
14.555551

> <PEOE_VSA_FHYD>
0.6690262

> <PEOE_VSA_FNEG>
0.52388871

> <PEOE_VSA_FPNEG>
0.17222647

> <PEOE_VSA_FPOL>
0.33097383

> <PEOE_VSA_FPOS>
0.47611126

> <PEOE_VSA_FPPOS>
0.15874735

> <PEOE_VSA_HYD>
214.64714

> <PEOE_VSA_NEG>
168.08194

> <PEOE_VSA_PNEG>
55.256313

> <PEOE_VSA_POL>
106.18805

> <PEOE_VSA_POS>
152.75325

> <PEOE_VSA_PPOS>
50.931732

> <petitjean>
0.5

> <petitjeanSC>
1.0

> <Q_PC+>
0

> <Q_PC->
0

> <Q_RPC+>
0

> <Q_RPC->
0

> <Q_VSA_FHYD>
1

> <Q_VSA_FNEG>
0

> <Q_VSA_FPNEG>
0

> <Q_VSA_FPOL>
0

> <Q_VSA_FPOS>
1

> <Q_VSA_FPPOS>
0

> <Q_VSA_HYD>
320.83517

> <Q_VSA_NEG>
0

> <Q_VSA_PNEG>
0

> <Q_VSA_POL>
0

> <Q_VSA_POS>
320.83517

> <Q_VSA_PPOS>
0

> <radius>
6

> <reactive>
0

> <rings>
3

> <RPC+>
0

> <RPC->
0

> <rsynth>
1.0

> <SlogP>
0.71679997

> <SlogP_VSA0>
50.90794

> <SlogP_VSA1>
21.387344

> <SlogP_VSA2>
77.915749

> <SlogP_VSA3>
42.61879

> <SlogP_VSA4>
3.185575

> <SlogP_VSA5>
6.2573543

> <SlogP_VSA6>
0.0

> <SlogP_VSA7>
88.215919

> <SlogP_VSA8>
3.9819686

> <SlogP_VSA9>
71.368187

> <SMR>
8.9019899

> <SMR_VSA0>
71.586647

> <SMR_VSA1>
3.1243138

> <SMR_VSA2>
43.395977

> <SMR_VSA3>
19.753994

> <SMR_VSA4>
32.897186

> <SMR_VSA5>
88.215919

> <SMR_VSA6>
35.496597

> <SMR_VSA7>
71.368187

> <TPSA>
112.73

> <VAdjEq>
0.43739632

> <VAdjMa>
5.7004399

> <VDistEq>
3.3900189

> <VDistMa>
8.8684988

> <vdw_area>
320.83517

> <vdw_vol>
414.29755

> <vsa_acc>
27.133842

> <vsa_acid>
0

> <vsa_base>
0

> <vsa_don>
5.6825762

> <vsa_hyd>
181.67215

> <vsa_other>
40.607563

> <vsa_pol>
77.692749

> <Weight>
367.81299

> <weinerPath>
1383

> <weinerPol>
39

> <zagreb>
128

$$$$
Row1463
 OpenBabel06061811532D

 28 30  0  0  1  0  0  0  0  0999 V2000
    0.0000    0.0000    0.0000 S   0  0  0  0  0  0  0  0  0  0  0  0
    0.0000    0.0000    0.0000 C   0  0  1  0  0  0  0  0  0  0  0  0
    0.0000    0.0000    0.0000 H   0  0  0  0  0  0  0  0  0  0  0  0
    0.0000    0.0000    0.0000 N   0  0  0  0  0  0  0  0  0  0  0  0
    0.0000    0.0000    0.0000 C   0  0  0  0  0  0  0  0  0  0  0  0
    0.0000    0.0000    0.0000 C   0  0  0  0  0  0  0  0  0  0  0  0
    0.0000    0.0000    0.0000 O   0  0  0  0  0  0  0  0  0  0  0  0
    0.0000    0.0000    0.0000 O   0  0  0  0  0  0  0  0  0  0  0  0
    0.0000    0.0000    0.0000 C   0  0  0  0  0  0  0  0  0  0  0  0
    0.0000    0.0000    0.0000 C   0  0  0  0  0  0  0  0  0  0  0  0
    0.0000    0.0000    0.0000 C   0  0  0  0  0  0  0  0  0  0  0  0
    0.0000    0.0000    0.0000 C   0  0  0  0  0  0  0  0  0  0  0  0
    0.0000    0.0000    0.0000 O   0  0  0  0  0  0  0  0  0  0  0  0
    0.0000    0.0000    0.0000 C   0  0  1  0  0  0  0  0  0  0  0  0
    0.0000    0.0000    0.0000 H   0  0  0  0  0  0  0  0  0  0  0  0
    0.0000    0.0000    0.0000 N   0  0  0  0  0  0  0  0  0  0  0  0
    0.0000    0.0000    0.0000 C   0  0  0  0  0  0  0  0  0  0  0  0
    0.0000    0.0000    0.0000 O   0  0  0  0  0  0  0  0  0  0  0  0
    0.0000    0.0000    0.0000 C   0  0  2  0  0  0  0  0  0  0  0  0
    0.0000    0.0000    0.0000 H   0  0  0  0  0  0  0  0  0  0  0  0
    0.0000    0.0000    0.0000 N   0  0  0  0  0  0  0  0  0  0  0  0
    0.0000    0.0000    0.0000 C   0  0  0  0  0  0  0  0  0  0  0  0
    0.0000    0.0000    0.0000 C   0  0  0  0  0  0  0  0  0  0  0  0
    0.0000    0.0000    0.0000 C   0  0  0  0  0  0  0  0  0  0  0  0
    0.0000    0.0000    0.0000 C   0  0  0  0  0  0  0  0  0  0  0  0
    0.0000    0.0000    0.0000 O   0  0  0  0  0  0  0  0  0  0  0  0
    0.0000    0.0000    0.0000 C   0  0  0  0  0  0  0  0  0  0  0  0
    0.0000    0.0000    0.0000 C   0  0  0  0  0  0  0  0  0  0  0  0
  1 10  1  0  0  0  0
  1  2  1  0  0  0  0
  2  3  1  0  0  0  0
  2 14  1  0  0  0  0
  2  4  1  0  0  0  0
  4  5  1  0  0  0  0
  4 12  1  0  0  0  0
  5  6  1  0  0  0  0
  5  9  2  0  0  0  0
  6  7  1  0  0  0  0
  6  8  2  0  0  0  0
  9 10  1  0  0  0  0
  9 11  1  0  0  0  0
 12 13  2  0  0  0  0
 12 14  1  0  0  0  0
 14 15  1  0  0  0  0
 14 16  1  0  0  0  0
 16 17  1  0  0  0  0
 17 18  2  0  0  0  0
 17 19  1  0  0  0  0
 19 20  1  0  0  0  0
 19 21  1  0  0  0  0
 19 22  1  0  0  0  0
 22 28  1  0  0  0  0
 22 23  2  0  0  0  0
 23 24  1  0  0  0  0
 24 25  2  0  0  0  0
 25 26  1  0  0  0  0
 25 27  1  0  0  0  0
 27 28  2  0  0  0  0
M  END
> <Index>
1464

> <ID>
HT0395

> <class>
1

> <apol>
49.705482

> <ast_fraglike>
0

> <ast_fraglike_ext>
0

> <ast_violation>
3

> <ast_violation_ext>
5

> <a_acc>
6

> <a_acid>
0

> <a_aro>
6

> <a_base>
0

> <a_count>
42

> <a_don>
5

> <a_donacc>
11

> <a_heavy>
25

> <a_hyd>
14

> <a_IC>
76.625938

> <a_ICM>
1.824427

> <a_nB>
0

> <a_nBr>
0

> <a_nC>
16

> <a_nCl>
0

> <a_nF>
0

> <a_nH>
17

> <a_nI>
0

> <a_nN>
3

> <a_nO>
5

> <a_nP>
0

> <a_nS>
1

> <balabanJ>
1.5682645

> <BCUT_PEOE_0>
-2.6902122

> <BCUT_PEOE_1>
-0.60587215

> <BCUT_PEOE_2>
0.64513403

> <BCUT_PEOE_3>
2.7353396

> <BCUT_SLOGP_0>
-2.8977118

> <BCUT_SLOGP_1>
-0.5557009

> <BCUT_SLOGP_2>
0.62303197

> <BCUT_SLOGP_3>
2.6263168

> <BCUT_SMR_0>
-2.4045298

> <BCUT_SMR_1>
-0.44290727

> <BCUT_SMR_2>
0.78926039

> <BCUT_SMR_3>
3.0180736

> <bpol>
25.718519

> <b_1rotN>
4

> <b_1rotR>
0.14814815

> <b_ar>
6

> <b_count>
44

> <b_double>
4

> <b_heavy>
27

> <b_max1len>
3

> <b_rotN>
5

> <b_rotR>
0.18518518

> <b_single>
34

> <b_triple>
0

> <chi0>
18.3006

> <chi0v>
14.11704

> <chi0v_C>
9.248559

> <chi0_C>
10.309036

> <chi1>
11.807438

> <chi1v>
8.5844183

> <chi1v_C>
4.3742795

> <chi1_C>
5.6185918

> <chiral>
3

> <chiral_u>
0

> <density>
0.8425687

> <diameter>
13

> <FCharge>
0

> <GCUT_PEOE_0>
-0.82509035

> <GCUT_PEOE_1>
-0.44155777

> <GCUT_PEOE_2>
0.09281753

> <GCUT_PEOE_3>
2.6050718

> <GCUT_SLOGP_0>
-1.337459

> <GCUT_SLOGP_1>
-0.404378

> <GCUT_SLOGP_2>
0.13488308

> <GCUT_SLOGP_3>
2.5834644

> <GCUT_SMR_0>
-0.52949601

> <GCUT_SMR_1>
-0.23435509

> <GCUT_SMR_2>
0.22154671

> <GCUT_SMR_3>
2.881062

> <Kier1>
19.753086

> <Kier2>
7.9349999

> <Kier3>
3.8399999

> <KierA1>
16.084623

> <KierA2>
6.4025898

> <KierA3>
3.0772526

> <KierFlex>
4.1193295

> <lip_acc>
8

> <lip_don>
5

> <lip_druglike>
1

> <lip_violation>
0

> <logP(o/w)>
-0.029999999

> <logS>
-2.6814499

> <mr>
9.1089172

> <mutagenic>
0

> <nmol>
1

> <opr_brigid>
15

> <opr_leadlike>
1

> <opr_nring>
3

> <opr_nrot>
4

> <opr_violation>
0

> <PC+>
0

> <PC->
0

> <PEOE_PC+>
2.8283119

> <PEOE_PC->
-2.8283119

> <PEOE_RPC+>
0.10886435

> <PEOE_RPC->
0.12722513

> <PEOE_VSA+0>
32.004307

> <PEOE_VSA+1>
38.316223

> <PEOE_VSA+2>
35.351521

> <PEOE_VSA+3>
8.6190128

> <PEOE_VSA+4>
33.597878

> <PEOE_VSA+5>
12.949531

> <PEOE_VSA+6>
14.708499

> <PEOE_VSA-0>
47.674564

> <PEOE_VSA-1>
24.509808

> <PEOE_VSA-2>
19.760618

> <PEOE_VSA-3>
0.0

> <PEOE_VSA-4>
0.0

> <PEOE_VSA-5>
40.700764

> <PEOE_VSA-6>
22.323092

> <PEOE_VSA_FHYD>
0.62398243

> <PEOE_VSA_FNEG>
0.46886969

> <PEOE_VSA_FPNEG>
0.19068332

> <PEOE_VSA_FPOL>
0.3760176

> <PEOE_VSA_FPOS>
0.53113031

> <PEOE_VSA_FPPOS>
0.18533427

> <PEOE_VSA_HYD>
206.23605

> <PEOE_VSA_NEG>
154.96884

> <PEOE_VSA_PNEG>
63.023853

> <PEOE_VSA_POL>
124.27976

> <PEOE_VSA_POS>
175.54697

> <PEOE_VSA_PPOS>
61.255905

> <petitjean>
0.46153846

> <petitjeanSC>
0.85714287

> <Q_PC+>
0

> <Q_PC->
0

> <Q_RPC+>
0

> <Q_RPC->
0

> <Q_VSA_FHYD>
1

> <Q_VSA_FNEG>
0

> <Q_VSA_FPNEG>
0

> <Q_VSA_FPOL>
0

> <Q_VSA_FPOS>
1

> <Q_VSA_FPPOS>
0

> <Q_VSA_HYD>
330.51581

> <Q_VSA_NEG>
0

> <Q_VSA_PNEG>
0

> <Q_VSA_POL>
0

> <Q_VSA_POS>
330.51581

> <Q_VSA_PPOS>
0

> <radius>
7

> <reactive>
0

> <rings>
3

> <RPC+>
0

> <RPC->
0

> <rsynth>
1.0

> <SlogP>
0.24600001

> <SlogP_VSA0>
76.293167

> <SlogP_VSA1>
21.387344

> <SlogP_VSA2>
77.915749

> <SlogP_VSA3>
42.61879

> <SlogP_VSA4>
3.185575

> <SlogP_VSA5>
5.9423227

> <SlogP_VSA6>
0.0

> <SlogP_VSA7>
70.572739

> <SlogP_VSA8>
3.9819686

> <SlogP_VSA9>
70.788986

> <SMR>
9.0505695

> <SMR_VSA0>
71.586647

> <SMR_VSA1>
28.509541

> <SMR_VSA2>
43.395977

> <SMR_VSA3>
24.68239

> <SMR_VSA4>
32.897186

> <SMR_VSA5>
70.572739

> <SMR_VSA6>
35.496597

> <SMR_VSA7>
65.545555

> <TPSA>
132.96001

> <VAdjEq>
0.42433795

> <VAdjMa>
5.7548876

> <VDistEq>
3.475621

> <VDistMa>
8.980792

> <vdw_area>
330.51581

> <vdw_vol>
431.293

> <vsa_acc>
27.133842

> <vsa_acid>
0

> <vsa_base>
0

> <vsa_don>
5.6825762

> <vsa_hyd>
171.83746

> <vsa_other>
40.607563

> <vsa_pol>
91.259666

> <Weight>
363.39398

> <weinerPath>
1570

> <weinerPol>
41

> <zagreb>
134

$$$$
Row1464
 OpenBabel06061811532D

 34 37  0  0  1  0  0  0  0  0999 V2000
    0.0000    0.0000    0.0000 S   0  0  0  0  0  0  0  0  0  0  0  0
    0.0000    0.0000    0.0000 C   0  0  1  0  0  0  0  0  0  0  0  0
    0.0000    0.0000    0.0000 H   0  0  0  0  0  0  0  0  0  0  0  0
    0.0000    0.0000    0.0000 N   0  0  0  0  0  0  0  0  0  0  0  0
    0.0000    0.0000    0.0000 C   0  0  0  0  0  0  0  0  0  0  0  0
    0.0000    0.0000    0.0000 C   0  0  0  0  0  0  0  0  0  0  0  0
    0.0000    0.0000    0.0000 O   0  0  0  0  0  0  0  0  0  0  0  0
    0.0000    0.0000    0.0000 O   0  0  0  0  0  0  0  0  0  0  0  0
    0.0000    0.0000    0.0000 C   0  0  0  0  0  0  0  0  0  0  0  0
    0.0000    0.0000    0.0000 C   0  0  0  0  0  0  0  0  0  0  0  0
    0.0000    0.0000    0.0000 C   0  0  0  0  0  0  0  0  0  0  0  0
    0.0000    0.0000    0.0000 S   0  0  0  0  0  0  0  0  0  0  0  0
    0.0000    0.0000    0.0000 C   0  0  0  0  0  0  0  0  0  0  0  0
    0.0000    0.0000    0.0000 N   0  0  0  0  0  0  0  0  0  0  0  0
    0.0000    0.0000    0.0000 N   0  0  0  0  0  0  0  0  0  0  0  0
    0.0000    0.0000    0.0000 N   0  0  0  0  0  0  0  0  0  0  0  0
    0.0000    0.0000    0.0000 N   0  0  0  0  0  0  0  0  0  0  0  0
    0.0000    0.0000    0.0000 C   0  0  0  0  0  0  0  0  0  0  0  0
    0.0000    0.0000    0.0000 C   0  0  0  0  0  0  0  0  0  0  0  0
    0.0000    0.0000    0.0000 O   0  0  0  0  0  0  0  0  0  0  0  0
    0.0000    0.0000    0.0000 C   0  0  1  0  0  0  0  0  0  0  0  0
    0.0000    0.0000    0.0000 H   0  0  0  0  0  0  0  0  0  0  0  0
    0.0000    0.0000    0.0000 N   0  0  0  0  0  0  0  0  0  0  0  0
    0.0000    0.0000    0.0000 C   0  0  0  0  0  0  0  0  0  0  0  0
    0.0000    0.0000    0.0000 O   0  0  0  0  0  0  0  0  0  0  0  0
    0.0000    0.0000    0.0000 C   0  0  2  0  0  0  0  0  0  0  0  0
    0.0000    0.0000    0.0000 H   0  0  0  0  0  0  0  0  0  0  0  0
    0.0000    0.0000    0.0000 O   0  0  0  0  0  0  0  0  0  0  0  0
    0.0000    0.0000    0.0000 C   0  0  0  0  0  0  0  0  0  0  0  0
    0.0000    0.0000    0.0000 C   0  0  0  0  0  0  0  0  0  0  0  0
    0.0000    0.0000    0.0000 C   0  0  0  0  0  0  0  0  0  0  0  0
    0.0000    0.0000    0.0000 C   0  0  0  0  0  0  0  0  0  0  0  0
    0.0000    0.0000    0.0000 C   0  0  0  0  0  0  0  0  0  0  0  0
    0.0000    0.0000    0.0000 C   0  0  0  0  0  0  0  0  0  0  0  0
  1 10  1  0  0  0  0
  1  2  1  0  0  0  0
  2  3  1  0  0  0  0
  2 21  1  0  0  0  0
  2  4  1  0  0  0  0
  4  5  1  0  0  0  0
  4 19  1  0  0  0  0
  5  6  1  0  0  0  0
  5  9  2  0  0  0  0
  6  7  1  0  0  0  0
  6  8  2  0  0  0  0
  9 10  1  0  0  0  0
  9 11  1  0  0  0  0
 11 12  1  0  0  0  0
 12 13  1  0  0  0  0
 13 17  1  0  0  0  0
 13 14  2  0  0  0  0
 14 15  1  0  0  0  0
 15 16  2  0  0  0  0
 16 17  1  0  0  0  0
 17 18  1  0  0  0  0
 19 20  2  0  0  0  0
 19 21  1  0  0  0  0
 21 22  1  0  0  0  0
 21 23  1  0  0  0  0
 23 24  1  0  0  0  0
 24 25  2  0  0  0  0
 24 26  1  0  0  0  0
 26 27  1  0  0  0  0
 26 28  1  0  0  0  0
 26 29  1  0  0  0  0
 29 34  1  0  0  0  0
 29 30  2  0  0  0  0
 30 31  1  0  0  0  0
 31 32  2  0  0  0  0
 32 33  1  0  0  0  0
 33 34  2  0  0  0  0
M  END
> <Index>
1465

> <ID>
HT0397

> <class>
1

> <apol>
60.092274

> <ast_fraglike>
0

> <ast_fraglike_ext>
0

> <ast_violation>
3

> <ast_violation_ext>
5

> <a_acc>
8

> <a_acid>
0

> <a_aro>
11

> <a_base>
0

> <a_count>
49

> <a_don>
4

> <a_donacc>
12

> <a_heavy>
31

> <a_hyd>
16

> <a_IC>
95.884064

> <a_ICM>
1.9568177

> <a_nB>
0

> <a_nBr>
0

> <a_nC>
18

> <a_nCl>
0

> <a_nF>
0

> <a_nH>
18

> <a_nI>
0

> <a_nN>
6

> <a_nO>
5

> <a_nP>
0

> <a_nS>
2

> <balabanJ>
1.3288491

> <BCUT_PEOE_0>
-2.6884267

> <BCUT_PEOE_1>
-0.58668417

> <BCUT_PEOE_2>
0.62273973

> <BCUT_PEOE_3>
2.7372983

> <BCUT_SLOGP_0>
-2.894135

> <BCUT_SLOGP_1>
-0.53807992

> <BCUT_SLOGP_2>
0.59808522

> <BCUT_SLOGP_3>
2.6241078

> <BCUT_SMR_0>
-2.4031558

> <BCUT_SMR_1>
-0.41846225

> <BCUT_SMR_2>
0.76660252

> <BCUT_SMR_3>
3.0208921

> <bpol>
31.731726

> <b_1rotN>
7

> <b_1rotR>
0.20588236

> <b_ar>
11

> <b_count>
52

> <b_double>
4

> <b_heavy>
34

> <b_max1len>
3

> <b_rotN>
8

> <b_rotR>
0.23529412

> <b_single>
37

> <b_triple>
0

> <chi0>
22.120592

> <chi0v>
17.837746

> <chi0v_C>
10.533015

> <chi0_C>
11.72325

> <chi1>
14.879918

> <chi1v>
11.201372

> <chi1v_C>
4.3171492

> <chi1_C>
5.6329932

> <chiral>
3

> <chiral_u>
0

> <density>
0.88317537

> <diameter>
16

> <FCharge>
0

> <GCUT_PEOE_0>
-0.82395291

> <GCUT_PEOE_1>
-0.40504727

> <GCUT_PEOE_2>
0.079506151

> <GCUT_PEOE_3>
2.6472034

> <GCUT_SLOGP_0>
-1.1645993

> <GCUT_SLOGP_1>
-0.40105876

> <GCUT_SLOGP_2>
0.12008046

> <GCUT_SLOGP_3>
2.6252744

> <GCUT_SMR_0>
-0.52911901

> <GCUT_SMR_1>
-0.22677876

> <GCUT_SMR_2>
0.20550594

> <GCUT_SMR_3>
2.9303682

> <Kier1>
24.134949

> <Kier2>
10.508121

> <Kier3>
5.0865054

> <KierA1>
19.834934

> <KierA2>
8.5763454

> <KierA3>
4.1304221

> <KierFlex>
5.4874597

> <lip_acc>
11

> <lip_don>
3

> <lip_druglike>
1

> <lip_violation>
1

> <logP(o/w)>
-0.29800001

> <logS>
-4.4042101

> <mr>
11.436801

> <mutagenic>
0

> <nmol>
1

> <opr_brigid>
20

> <opr_leadlike>
0

> <opr_nring>
4

> <opr_nrot>
7

> <opr_violation>
2

> <PC+>
0

> <PC->
0

> <PEOE_PC+>
3.0575321

> <PEOE_PC->
-3.0575321

> <PEOE_RPC+>
0.10071468

> <PEOE_RPC->
0.12352041

> <PEOE_VSA+0>
74.451141

> <PEOE_VSA+1>
34.123089

> <PEOE_VSA+2>
14.967534

> <PEOE_VSA+3>
13.523942

> <PEOE_VSA+4>
33.814968

> <PEOE_VSA+5>
25.899061

> <PEOE_VSA+6>
14.708499

> <PEOE_VSA-0>
30.736086

> <PEOE_VSA-1>
81.035141

> <PEOE_VSA-2>
29.181658

> <PEOE_VSA-3>
0.0

> <PEOE_VSA-4>
0.0

> <PEOE_VSA-5>
40.700764

> <PEOE_VSA-6>
15.671971

> <PEOE_VSA_FHYD>
0.68006158

> <PEOE_VSA_FNEG>
0.48267841

> <PEOE_VSA_FPNEG>
0.13789341

> <PEOE_VSA_FPOL>
0.31993845

> <PEOE_VSA_FPOS>
0.51732159

> <PEOE_VSA_FPPOS>
0.18204503

> <PEOE_VSA_HYD>
278.01859

> <PEOE_VSA_NEG>
197.32561

> <PEOE_VSA_PNEG>
56.372734

> <PEOE_VSA_POL>
130.79526

> <PEOE_VSA_POS>
211.48824

> <PEOE_VSA_PPOS>
74.422531

> <petitjean>
0.5

> <petitjeanSC>
1.0

> <Q_PC+>
0

> <Q_PC->
0

> <Q_RPC+>
0

> <Q_RPC->
0

> <Q_VSA_FHYD>
1

> <Q_VSA_FNEG>
0

> <Q_VSA_FPNEG>
0

> <Q_VSA_FPOL>
0

> <Q_VSA_FPOS>
1

> <Q_VSA_FPPOS>
0

> <Q_VSA_HYD>
408.81384

> <Q_VSA_NEG>
0

> <Q_VSA_PNEG>
0

> <Q_VSA_POL>
0

> <Q_VSA_POS>
408.81384

> <Q_VSA_PPOS>
0

> <radius>
8

> <reactive>
0

> <rings>
4

> <RPC+>
0

> <RPC->
0

> <rsynth>
0.51612902

> <SlogP>
0.2291

> <SlogP_VSA0>
43.395977

> <SlogP_VSA1>
72.90789

> <SlogP_VSA2>
77.915749

> <SlogP_VSA3>
59.852356

> <SlogP_VSA4>
3.185575

> <SlogP_VSA5>
6.6354017

> <SlogP_VSA6>
0.0

> <SlogP_VSA7>
88.215919

> <SlogP_VSA8>
6.4686494

> <SlogP_VSA9>
97.336273

> <SMR>
11.10023

> <SMR_VSA0>
71.586647

> <SMR_VSA1>
80.03009

> <SMR_VSA2>
44.089058

> <SMR_VSA3>
21.925644

> <SMR_VSA4>
0.0

> <SMR_VSA5>
88.215919

> <SMR_VSA6>
52.73016

> <SMR_VSA7>
97.336273

> <TPSA>
150.53999

> <VAdjEq>
0.36875206

> <VAdjMa>
6.0874629

> <VDistEq>
3.7679045

> <VDistMa>
9.602128

> <vdw_area>
408.81384

> <vdw_vol>
523.69098

> <vsa_acc>
62.873886

> <vsa_acid>
0

> <vsa_base>
0

> <vsa_don>
5.6825762

> <vsa_hyd>
222.98259

> <vsa_other>
53.774185

> <vsa_pol>
109.25723

> <Weight>
462.51099

> <weinerPath>
2914

> <weinerPol>
49

> <zagreb>
166

$$$$
Row1465
 OpenBabel06061811532D

 31 34  0  0  1  0  0  0  0  0999 V2000
    0.0000    0.0000    0.0000 S   0  0  0  0  0  0  0  0  0  0  0  0
    0.0000    0.0000    0.0000 C   0  0  0  0  0  0  0  0  0  0  0  0
    0.0000    0.0000    0.0000 N   0  0  0  0  0  0  0  0  0  0  0  0
    0.0000    0.0000    0.0000 N   0  0  0  0  0  0  0  0  0  0  0  0
    0.0000    0.0000    0.0000 C   0  0  0  0  0  0  0  0  0  0  0  0
    0.0000    0.0000    0.0000 S   0  0  0  0  0  0  0  0  0  0  0  0
    0.0000    0.0000    0.0000 C   0  0  0  0  0  0  0  0  0  0  0  0
    0.0000    0.0000    0.0000 C   0  0  0  0  0  0  0  0  0  0  0  0
    0.0000    0.0000    0.0000 C   0  0  0  0  0  0  0  0  0  0  0  0
    0.0000    0.0000    0.0000 S   0  0  0  0  0  0  0  0  0  0  0  0
    0.0000    0.0000    0.0000 C   0  0  1  0  0  0  0  0  0  0  0  0
    0.0000    0.0000    0.0000 H   0  0  0  0  0  0  0  0  0  0  0  0
    0.0000    0.0000    0.0000 N   0  0  0  0  0  0  0  0  0  0  0  0
    0.0000    0.0000    0.0000 C   0  0  0  0  0  0  0  0  0  0  0  0
    0.0000    0.0000    0.0000 C   0  0  0  0  0  0  0  0  0  0  0  0
    0.0000    0.0000    0.0000 O   0  0  0  0  0  0  0  0  0  0  0  0
    0.0000    0.0000    0.0000 O   0  0  0  0  0  0  0  0  0  0  0  0
    0.0000    0.0000    0.0000 C   0  0  0  0  0  0  0  0  0  0  0  0
    0.0000    0.0000    0.0000 O   0  0  0  0  0  0  0  0  0  0  0  0
    0.0000    0.0000    0.0000 C   0  0  1  0  0  0  0  0  0  0  0  0
    0.0000    0.0000    0.0000 H   0  0  0  0  0  0  0  0  0  0  0  0
    0.0000    0.0000    0.0000 N   0  0  0  0  0  0  0  0  0  0  0  0
    0.0000    0.0000    0.0000 C   0  0  0  0  0  0  0  0  0  0  0  0
    0.0000    0.0000    0.0000 O   0  0  0  0  0  0  0  0  0  0  0  0
    0.0000    0.0000    0.0000 C   0  0  0  0  0  0  0  0  0  0  0  0
    0.0000    0.0000    0.0000 N   0  0  0  0  0  0  0  0  0  0  0  0
    0.0000    0.0000    0.0000 N   0  0  0  0  0  0  0  0  0  0  0  0
    0.0000    0.0000    0.0000 N   0  0  0  0  0  0  0  0  0  0  0  0
    0.0000    0.0000    0.0000 N   0  0  0  0  0  0  0  0  0  0  0  0
    0.0000    0.0000    0.0000 C   0  0  0  0  0  0  0  0  0  0  0  0
    0.0000    0.0000    0.0000 C   0  0  0  0  0  0  0  0  0  0  0  0
  1  5  1  0  0  0  0
  1  2  1  0  0  0  0
  2  3  2  0  0  0  0
  2 31  1  0  0  0  0
  3  4  1  0  0  0  0
  4  5  2  0  0  0  0
  5  6  1  0  0  0  0
  6  7  1  0  0  0  0
  7  8  1  0  0  0  0
  8 14  2  0  0  0  0
  8  9  1  0  0  0  0
  9 10  1  0  0  0  0
 10 11  1  0  0  0  0
 11 12  1  0  0  0  0
 11 20  1  0  0  0  0
 11 13  1  0  0  0  0
 13 14  1  0  0  0  0
 13 18  1  0  0  0  0
 14 15  1  0  0  0  0
 15 16  1  0  0  0  0
 15 17  2  0  0  0  0
 18 19  2  0  0  0  0
 18 20  1  0  0  0  0
 20 21  1  0  0  0  0
 20 22  1  0  0  0  0
 22 23  1  0  0  0  0
 23 24  2  0  0  0  0
 23 25  1  0  0  0  0
 25 26  1  0  0  0  0
 26 30  1  0  0  0  0
 26 27  1  0  0  0  0
 27 28  2  0  0  0  0
 28 29  1  0  0  0  0
 29 30  2  0  0  0  0
M  END
> <Index>
1466

> <ID>
HT0400

> <class>
1

> <apol>
54.683102

> <ast_fraglike>
0

> <ast_fraglike_ext>
0

> <ast_violation>
2

> <ast_violation_ext>
4

> <a_acc>
9

> <a_acid>
0

> <a_aro>
10

> <a_base>
0

> <a_count>
43

> <a_don>
3

> <a_donacc>
12

> <a_heavy>
29

> <a_hyd>
13

> <a_IC>
89.968559

> <a_ICM>
2.0922921

> <a_nB>
0

> <a_nBr>
0

> <a_nC>
14

> <a_nCl>
0

> <a_nF>
0

> <a_nH>
14

> <a_nI>
0

> <a_nN>
8

> <a_nO>
4

> <a_nP>
0

> <a_nS>
3

> <balabanJ>
1.3038719

> <BCUT_PEOE_0>
-2.6881762

> <BCUT_PEOE_1>
-0.49225745

> <BCUT_PEOE_2>
0.48590556

> <BCUT_PEOE_3>
2.7360981

> <BCUT_SLOGP_0>
-2.893873

> <BCUT_SLOGP_1>
-0.48788774

> <BCUT_SLOGP_2>
0.53498578

> <BCUT_SLOGP_3>
2.6241455

> <BCUT_SMR_0>
-2.4024169

> <BCUT_SMR_1>
-0.29759485

> <BCUT_SMR_2>
0.81448442

> <BCUT_SMR_3>
3.0203204

> <bpol>
30.958899

> <b_1rotN>
7

> <b_1rotR>
0.21875

> <b_ar>
10

> <b_count>
46

> <b_double>
4

> <b_heavy>
32

> <b_max1len>
3

> <b_rotN>
8

> <b_rotR>
0.25

> <b_single>
32

> <b_triple>
0

> <chi0>
20.543242

> <chi0v>
17.330059

> <chi0v_C>
8.3533716

> <chi0_C>
9.02458

> <chi1>
13.935561

> <chi1v>
11.11885

> <chi1v_C>
2.6826687

> <chi1_C>
3.1354284

> <chiral>
2

> <chiral_u>
0

> <density>
0.95560467

> <diameter>
16

> <FCharge>
0

> <GCUT_PEOE_0>
-0.82438189

> <GCUT_PEOE_1>
-0.48027197

> <GCUT_PEOE_2>
0.036099527

> <GCUT_PEOE_3>
2.5863404

> <GCUT_SLOGP_0>
-1.1646148

> <GCUT_SLOGP_1>
-0.45546797

> <GCUT_SLOGP_2>
0.10828739

> <GCUT_SLOGP_3>
2.5604115

> <GCUT_SMR_0>
-0.52907574

> <GCUT_SMR_1>
-0.22984263

> <GCUT_SMR_2>
0.30161285

> <GCUT_SMR_3>
2.8766818

> <Kier1>
22.203125

> <Kier2>
9.6465025

> <Kier3>
4.9240375

> <KierA1>
19.412958

> <KierA2>
8.3919363

> <KierA3>
4.2677994

> <KierFlex>
5.6176653

> <lip_acc>
12

> <lip_don>
2

> <lip_druglike>
1

> <lip_violation>
1

> <logP(o/w)>
-0.85399997

> <logS>
-3.9619501

> <mr>
10.717241

> <mutagenic>
0

> <nmol>
1

> <opr_brigid>
19

> <opr_leadlike>
0

> <opr_nring>
4

> <opr_nrot>
7

> <opr_violation>
2

> <PC+>
0

> <PC->
0

> <PEOE_PC+>
2.7751937

> <PEOE_PC->
-2.7751937

> <PEOE_RPC+>
0.11096103

> <PEOE_RPC->
0.12274434

> <PEOE_VSA+0>
59.888065

> <PEOE_VSA+1>
27.713219

> <PEOE_VSA+2>
53.66217

> <PEOE_VSA+3>
8.6190128

> <PEOE_VSA+4>
43.034321

> <PEOE_VSA+5>
12.949531

> <PEOE_VSA+6>
14.708499

> <PEOE_VSA-0>
47.275223

> <PEOE_VSA-1>
0.0

> <PEOE_VSA-2>
48.942276

> <PEOE_VSA-3>
18.842079

> <PEOE_VSA-4>
0.0

> <PEOE_VSA-5>
40.700764

> <PEOE_VSA-6>
7.9044313

> <PEOE_VSA_FHYD>
0.68952304

> <PEOE_VSA_FNEG>
0.42594457

> <PEOE_VSA_FPNEG>
0.1264971

> <PEOE_VSA_FPOL>
0.31047699

> <PEOE_VSA_FPOS>
0.57405543

> <PEOE_VSA_FPPOS>
0.18397987

> <PEOE_VSA_HYD>
264.94205

> <PEOE_VSA_NEG>
163.66476

> <PEOE_VSA_PNEG>
48.605194

> <PEOE_VSA_POL>
119.29755

> <PEOE_VSA_POS>
220.57481

> <PEOE_VSA_PPOS>
70.692352

> <petitjean>
0.5

> <petitjeanSC>
1.0

> <Q_PC+>
0

> <Q_PC->
0

> <Q_RPC+>
0

> <Q_RPC->
0

> <Q_VSA_FHYD>
1

> <Q_VSA_FNEG>
0

> <Q_VSA_FPNEG>
0

> <Q_VSA_FPOL>
0

> <Q_VSA_FPOS>
1

> <Q_VSA_FPPOS>
0

> <Q_VSA_HYD>
384.23959

> <Q_VSA_NEG>
0

> <Q_VSA_PNEG>
0

> <Q_VSA_POL>
0

> <Q_VSA_POS>
384.23959

> <Q_VSA_PPOS>
0

> <radius>
8

> <reactive>
0

> <rings>
4

> <RPC+>
0

> <RPC->
0

> <rsynth>
0.48275861

> <SlogP>
-0.36967999

> <SlogP_VSA0>
18.01075

> <SlogP_VSA1>
106.23391

> <SlogP_VSA2>
77.915749

> <SlogP_VSA3>
59.852356

> <SlogP_VSA4>
0.92957383

> <SlogP_VSA5>
5.9423227

> <SlogP_VSA6>
0.0

> <SlogP_VSA7>
16.78553

> <SlogP_VSA8>
0.0

> <SlogP_VSA9>
147.48236

> <SMR>
10.30785

> <SMR_VSA0>
71.586647

> <SMR_VSA1>
87.970879

> <SMR_VSA2>
43.395977

> <SMR_VSA3>
13.200993

> <SMR_VSA4>
0.0

> <SMR_VSA5>
35.225109

> <SMR_VSA6>
52.73016

> <SMR_VSA7>
129.04279

> <TPSA>
156.09

> <VAdjEq>
0.38828552

> <VAdjMa>
6.0

> <VDistEq>
3.7308617

> <VDistMa>
9.4040966

> <vdw_area>
384.23959

> <vdw_vol>
475.63184

> <vsa_acc>
81.715965

> <vsa_acid>
0

> <vsa_base>
0

> <vsa_don>
5.6825762

> <vsa_hyd>
188.16946

> <vsa_other>
65.398079

> <vsa_pol>
114.53239

> <Weight>
454.51599

> <weinerPath>
2468

> <weinerPol>
41

> <zagreb>
156

$$$$
Row1466
 OpenBabel06061811532D

 28 30  0  0  1  0  0  0  0  0999 V2000
    0.0000    0.0000    0.0000 S   0  0  0  0  0  0  0  0  0  0  0  0
    0.0000    0.0000    0.0000 C   0  0  0  0  0  0  0  0  0  0  0  0
    0.0000    0.0000    0.0000 C   0  0  0  0  0  0  0  0  0  0  0  0
    0.0000    0.0000    0.0000 N   0  0  0  0  0  0  0  0  0  0  0  0
    0.0000    0.0000    0.0000 C   0  0  0  0  0  0  0  0  0  0  0  0
    0.0000    0.0000    0.0000 N   0  0  0  0  0  0  0  0  0  0  0  0
    0.0000    0.0000    0.0000 C   0  0  0  0  0  0  0  0  0  0  0  0
    0.0000    0.0000    0.0000 N   0  0  0  0  0  0  0  0  0  0  0  0
    0.0000    0.0000    0.0000 O   0  0  0  0  0  0  0  0  0  0  0  0
    0.0000    0.0000    0.0000 C   0  0  0  0  0  0  0  0  0  0  0  0
    0.0000    0.0000    0.0000 O   0  0  0  0  0  0  0  0  0  0  0  0
    0.0000    0.0000    0.0000 N   0  0  0  0  0  0  0  0  0  0  0  0
    0.0000    0.0000    0.0000 C   0  0  1  0  0  0  0  0  0  0  0  0
    0.0000    0.0000    0.0000 H   0  0  0  0  0  0  0  0  0  0  0  0
    0.0000    0.0000    0.0000 C   0  0  1  0  0  0  0  0  0  0  0  0
    0.0000    0.0000    0.0000 H   0  0  0  0  0  0  0  0  0  0  0  0
    0.0000    0.0000    0.0000 S   0  0  0  0  0  0  0  0  0  0  0  0
    0.0000    0.0000    0.0000 C   0  0  0  0  0  0  0  0  0  0  0  0
    0.0000    0.0000    0.0000 C   0  0  0  0  0  0  0  0  0  0  0  0
    0.0000    0.0000    0.0000 C   0  0  0  0  0  0  0  0  0  0  0  0
    0.0000    0.0000    0.0000 C   0  0  0  0  0  0  0  0  0  0  0  0
    0.0000    0.0000    0.0000 C   0  0  0  0  0  0  0  0  0  0  0  0
    0.0000    0.0000    0.0000 N   0  0  0  0  0  0  0  0  0  0  0  0
    0.0000    0.0000    0.0000 C   0  0  0  0  0  0  0  0  0  0  0  0
    0.0000    0.0000    0.0000 O   0  0  0  0  0  0  0  0  0  0  0  0
    0.0000    0.0000    0.0000 C   0  0  0  0  0  0  0  0  0  0  0  0
    0.0000    0.0000    0.0000 O   0  0  0  0  0  0  0  0  0  0  0  0
    0.0000    0.0000    0.0000 O   0  0  0  0  0  0  0  0  0  0  0  0
  1  5  1  0  0  0  0
  1  2  1  0  0  0  0
  2  3  2  0  0  0  0
  3  4  1  0  0  0  0
  3  7  1  0  0  0  0
  4  5  2  0  0  0  0
  5  6  1  0  0  0  0
  7  8  2  3  0  0  0
  7 10  1  0  0  0  0
  8  9  1  0  0  0  0
 10 11  2  0  0  0  0
 10 12  1  0  0  0  0
 12 13  1  0  0  0  0
 13 14  1  0  0  0  0
 13 24  1  0  0  0  0
 13 15  1  0  0  0  0
 15 16  1  0  0  0  0
 15 23  1  0  0  0  0
 15 17  1  0  0  0  0
 17 18  1  0  0  0  0
 18 19  1  0  0  0  0
 19 20  1  0  0  0  0
 19 22  2  0  0  0  0
 20 21  2  0  0  0  0
 22 23  1  0  0  0  0
 22 26  1  0  0  0  0
 23 24  1  0  0  0  0
 24 25  2  0  0  0  0
 26 27  1  0  0  0  0
 26 28  2  0  0  0  0
M  END
> <Index>
1467

> <ID>
HT0401

> <class>
1

> <apol>
48.618309

> <ast_fraglike>
0

> <ast_fraglike_ext>
0

> <ast_violation>
3

> <ast_violation_ext>
5

> <a_acc>
7

> <a_acid>
0

> <a_aro>
5

> <a_base>
0

> <a_count>
39

> <a_don>
5

> <a_donacc>
12

> <a_heavy>
26

> <a_hyd>
11

> <a_IC>
79.502724

> <a_ICM>
2.0385313

> <a_nB>
0

> <a_nBr>
0

> <a_nC>
14

> <a_nCl>
0

> <a_nF>
0

> <a_nH>
13

> <a_nI>
0

> <a_nN>
5

> <a_nO>
5

> <a_nP>
0

> <a_nS>
2

> <balabanJ>
1.6262957

> <BCUT_PEOE_0>
-2.678489

> <BCUT_PEOE_1>
-0.60723954

> <BCUT_PEOE_2>
0.67061776

> <BCUT_PEOE_3>
2.729934

> <BCUT_SLOGP_0>
-2.8915436

> <BCUT_SLOGP_1>
-0.64824802

> <BCUT_SLOGP_2>
0.65520459

> <BCUT_SLOGP_3>
2.6064982

> <BCUT_SMR_0>
-2.3936286

> <BCUT_SMR_1>
-0.42502218

> <BCUT_SMR_2>
0.89550692

> <BCUT_SMR_3>
3.0124133

> <bpol>
24.94569

> <b_1rotN>
5

> <b_1rotR>
0.17857143

> <b_ar>
5

> <b_count>
41

> <b_double>
6

> <b_heavy>
28

> <b_max1len>
3

> <b_rotN>
6

> <b_rotR>
0.21428572

> <b_single>
30

> <b_triple>
0

> <chi0>
19.007708

> <chi0v>
14.711267

> <chi0v_C>
7.7236147

> <chi0_C>
8.8948231

> <chi1>
12.383448

> <chi1v>
9.0933342

> <chi1v_C>
2.9611604

> <chi1_C>
3.9318516

> <chiral>
2

> <chiral_u>
0

> <density>
0.92281562

> <diameter>
13

> <FCharge>
0

> <GCUT_PEOE_0>
-0.82285869

> <GCUT_PEOE_1>
-0.47394109

> <GCUT_PEOE_2>
0.12384266

> <GCUT_PEOE_3>
2.5291111

> <GCUT_SLOGP_0>
-1.3345511

> <GCUT_SLOGP_1>
-0.44339874

> <GCUT_SLOGP_2>
0.15738773

> <GCUT_SLOGP_3>
2.4798117

> <GCUT_SMR_0>
-0.52851933

> <GCUT_SMR_1>
-0.23842588

> <GCUT_SMR_2>
0.3234261

> <GCUT_SMR_3>
2.8212199

> <Kier1>
20.727041

> <Kier2>
8.56633

> <Kier3>
3.9381688

> <KierA1>
16.998344

> <KierA2>
6.9662161

> <KierA3>
3.1832583

> <KierFlex>
4.5543904

> <lip_acc>
10

> <lip_don>
5

> <lip_druglike>
1

> <lip_violation>
0

> <logP(o/w)>
-0.32100001

> <logS>
-3.6461

> <mr>
9.4211369

> <mutagenic>
1

> <nmol>
1

> <opr_brigid>
16

> <opr_leadlike>
1

> <opr_nring>
3

> <opr_nrot>
5

> <opr_violation>
1

> <PC+>
0

> <PC->
0

> <PEOE_PC+>
3.0633688

> <PEOE_PC->
-3.0633688

> <PEOE_RPC+>
0.10061651

> <PEOE_RPC->
0.1099284

> <PEOE_VSA+0>
19.208147

> <PEOE_VSA+1>
45.458492

> <PEOE_VSA+2>
32.205559

> <PEOE_VSA+3>
35.079182

> <PEOE_VSA+4>
20.648346

> <PEOE_VSA+5>
25.899061

> <PEOE_VSA+6>
14.708499

> <PEOE_VSA-0>
2.2085397

> <PEOE_VSA-1>
48.787136

> <PEOE_VSA-2>
30.64588

> <PEOE_VSA-3>
0.0

> <PEOE_VSA-4>
5.6825762

> <PEOE_VSA-5>
58.518024

> <PEOE_VSA-6>
7.9044313

> <PEOE_VSA_FHYD>
0.61562341

> <PEOE_VSA_FNEG>
0.44313264

> <PEOE_VSA_FPNEG>
0.20782311

> <PEOE_VSA_FPOL>
0.38437656

> <PEOE_VSA_FPOS>
0.55686736

> <PEOE_VSA_FPPOS>
0.17655346

> <PEOE_VSA_HYD>
213.59294

> <PEOE_VSA_NEG>
153.7466

> <PEOE_VSA_PNEG>
72.105034

> <PEOE_VSA_POL>
133.36095

> <PEOE_VSA_POS>
193.20729

> <PEOE_VSA_PPOS>
61.255905

> <petitjean>
0.46153846

> <petitjeanSC>
0.85714287

> <Q_PC+>
0

> <Q_PC->
0

> <Q_RPC+>
0

> <Q_RPC->
0

> <Q_VSA_FHYD>
1

> <Q_VSA_FNEG>
0

> <Q_VSA_FPNEG>
0

> <Q_VSA_FPOL>
0

> <Q_VSA_FPOS>
1

> <Q_VSA_FPPOS>
0

> <Q_VSA_HYD>
346.95389

> <Q_VSA_NEG>
0

> <Q_VSA_PNEG>
0

> <Q_VSA_POL>
0

> <Q_VSA_POS>
346.95389

> <Q_VSA_PPOS>
0

> <radius>
7

> <reactive>
1

> <rings>
3

> <RPC+>
0

> <RPC->
0

> <rsynth>
1.0

> <SlogP>
-0.1718

> <SlogP_VSA0>
50.90794

> <SlogP_VSA1>
40.929623

> <SlogP_VSA2>
103.51984

> <SlogP_VSA3>
42.61879

> <SlogP_VSA4>
2.7567475

> <SlogP_VSA5>
25.342184

> <SlogP_VSA6>
0.0

> <SlogP_VSA7>
33.459194

> <SlogP_VSA8>
0.0

> <SlogP_VSA9>
96.09877

> <SMR>
9.5574703

> <SMR_VSA0>
71.586647

> <SMR_VSA1>
39.309704

> <SMR_VSA2>
69.000076

> <SMR_VSA3>
15.028167

> <SMR_VSA4>
0.50074643

> <SMR_VSA5>
66.356384

> <SMR_VSA6>
38.253342

> <SMR_VSA7>
95.598022

> <TPSA>
158.21001

> <VAdjEq>
0.41210872

> <VAdjMa>
5.8073549

> <VDistEq>
3.4484408

> <VDistMa>
9.1091681

> <vdw_area>
346.95389

> <vdw_vol>
428.49295

> <vsa_acc>
43.701679

> <vsa_acid>
0

> <vsa_base>
0

> <vsa_don>
23.425066

> <vsa_hyd>
151.2901

> <vsa_other>
60.473736

> <vsa_pol>
111.22611

> <Weight>
395.41998

> <weinerPath>
1701

> <weinerPol>
42

> <zagreb>
138

$$$$
Row1467
 OpenBabel06061811532D

 43 46  0  0  1  0  0  0  0  0999 V2000
    0.0000    0.0000    0.0000 S   0  0  0  0  0  0  0  0  0  0  0  0
    0.0000    0.0000    0.0000 C   0  0  0  0  0  0  0  0  0  0  0  0
    0.0000    0.0000    0.0000 N   0  0  0  0  0  0  0  0  0  0  0  0
    0.0000    0.0000    0.0000 C   0  0  0  0  0  0  0  0  0  0  0  0
    0.0000    0.0000    0.0000 C   0  0  0  0  0  0  0  0  0  0  0  0
    0.0000    0.0000    0.0000 C   0  0  0  0  0  0  0  0  0  0  0  0
    0.0000    0.0000    0.0000 C   0  0  0  0  0  0  0  0  0  0  0  0
    0.0000    0.0000    0.0000 C   0  0  0  0  0  0  0  0  0  0  0  0
    0.0000    0.0000    0.0000 C   0  0  0  0  0  0  0  0  0  0  0  0
    0.0000    0.0000    0.0000 C   0  0  0  0  0  0  0  0  0  0  0  0
    0.0000    0.0000    0.0000 S   0  0  0  0  0  0  0  0  0  0  0  0
    0.0000    0.0000    0.0000 C   0  0  1  0  0  0  0  0  0  0  0  0
    0.0000    0.0000    0.0000 H   0  0  0  0  0  0  0  0  0  0  0  0
    0.0000    0.0000    0.0000 N   0  0  0  0  0  0  0  0  0  0  0  0
    0.0000    0.0000    0.0000 C   0  0  0  0  0  0  0  0  0  0  0  0
    0.0000    0.0000    0.0000 C   0  0  0  0  0  0  0  0  0  0  0  0
    0.0000    0.0000    0.0000 O   0  0  0  0  0  0  0  0  0  0  0  0
    0.0000    0.0000    0.0000 C   0  0  0  0  0  0  0  0  0  0  0  0
    0.0000    0.0000    0.0000 O   0  0  0  0  0  0  0  0  0  0  0  0
    0.0000    0.0000    0.0000 C   0  0  0  0  0  0  0  0  0  0  0  0
    0.0000    0.0000    0.0000 O   0  0  0  0  0  0  0  0  0  0  0  0
    0.0000    0.0000    0.0000 C   0  0  0  0  0  0  0  0  0  0  0  0
    0.0000    0.0000    0.0000 C   0  0  0  0  0  0  0  0  0  0  0  0
    0.0000    0.0000    0.0000 C   0  0  0  0  0  0  0  0  0  0  0  0
    0.0000    0.0000    0.0000 C   0  0  0  0  0  0  0  0  0  0  0  0
    0.0000    0.0000    0.0000 O   0  0  0  0  0  0  0  0  0  0  0  0
    0.0000    0.0000    0.0000 C   0  0  0  0  0  0  0  0  0  0  0  0
    0.0000    0.0000    0.0000 O   0  0  0  0  0  0  0  0  0  0  0  0
    0.0000    0.0000    0.0000 C   0  0  1  0  0  0  0  0  0  0  0  0
    0.0000    0.0000    0.0000 H   0  0  0  0  0  0  0  0  0  0  0  0
    0.0000    0.0000    0.0000 N   0  0  0  0  0  0  0  0  0  0  0  0
    0.0000    0.0000    0.0000 C   0  0  0  0  0  0  0  0  0  0  0  0
    0.0000    0.0000    0.0000 O   0  0  0  0  0  0  0  0  0  0  0  0
    0.0000    0.0000    0.0000 C   0  0  0  0  0  0  0  0  0  0  0  0
    0.0000    0.0000    0.0000 N   0  0  0  0  0  0  0  0  0  0  0  0
    0.0000    0.0000    0.0000 O   0  0  0  0  0  0  0  0  0  0  0  0
    0.0000    0.0000    0.0000 C   0  0  0  0  0  0  0  0  0  0  0  0
    0.0000    0.0000    0.0000 C   0  0  0  0  0  0  0  0  0  0  0  0
    0.0000    0.0000    0.0000 N   0  0  0  0  0  0  0  0  0  0  0  0
    0.0000    0.0000    0.0000 C   0  0  0  0  0  0  0  0  0  0  0  0
    0.0000    0.0000    0.0000 S   0  0  0  0  0  0  0  0  0  0  0  0
    0.0000    0.0000    0.0000 C   0  0  0  0  0  0  0  0  0  0  0  0
    0.0000    0.0000    0.0000 N   0  0  0  0  0  0  0  0  0  0  0  0
  1  6  1  0  0  0  0
  1  2  1  0  0  0  0
  2  3  2  0  0  0  0
  3  4  1  0  0  0  0
  4  5  1  0  0  0  0
  4  6  2  0  0  0  0
  6  7  1  0  0  0  0
  7  8  2  3  0  0  0
  8  9  1  0  0  0  0
  9 15  2  0  0  0  0
  9 10  1  0  0  0  0
 10 11  1  0  0  0  0
 11 12  1  0  0  0  0
 12 13  1  0  0  0  0
 12 29  1  0  0  0  0
 12 14  1  0  0  0  0
 14 15  1  0  0  0  0
 14 27  1  0  0  0  0
 15 16  1  0  0  0  0
 16 17  1  0  0  0  0
 16 26  2  0  0  0  0
 17 18  1  0  0  0  0
 18 19  1  0  0  0  0
 19 20  1  0  0  0  0
 20 21  2  0  0  0  0
 20 22  1  0  0  0  0
 22 23  1  0  0  0  0
 22 24  1  0  0  0  0
 22 25  1  0  0  0  0
 27 28  2  0  0  0  0
 27 29  1  0  0  0  0
 29 30  1  0  0  0  0
 29 31  1  0  0  0  0
 31 32  1  0  0  0  0
 32 33  2  0  0  0  0
 32 34  1  0  0  0  0
 34 35  2  3  0  0  0
 34 38  1  0  0  0  0
 35 36  1  0  0  0  0
 36 37  1  0  0  0  0
 38 42  2  0  0  0  0
 38 39  1  0  0  0  0
 39 40  2  0  0  0  0
 40 41  1  0  0  0  0
 40 43  1  0  0  0  0
 41 42  1  0  0  0  0
M  END
> <Index>
1468

> <ID>
HT0402

> <class>
1

> <apol>
83.584206

> <ast_fraglike>
0

> <ast_fraglike_ext>
0

> <ast_violation>
2

> <ast_violation_ext>
4

> <a_acc>
7

> <a_acid>
0

> <a_aro>
10

> <a_base>
0

> <a_count>
69

> <a_don>
2

> <a_donacc>
9

> <a_heavy>
41

> <a_hyd>
21

> <a_IC>
130.86971

> <a_ICM>
1.8966622

> <a_nB>
0

> <a_nBr>
0

> <a_nC>
25

> <a_nCl>
0

> <a_nF>
0

> <a_nH>
28

> <a_nI>
0

> <a_nN>
6

> <a_nO>
7

> <a_nP>
0

> <a_nS>
3

> <balabanJ>
1.4078333

> <BCUT_PEOE_0>
-2.679244

> <BCUT_PEOE_1>
-0.38019606

> <BCUT_PEOE_2>
0.45043051

> <BCUT_PEOE_3>
2.7310452

> <BCUT_SLOGP_0>
-2.8916881

> <BCUT_SLOGP_1>
-0.32937947

> <BCUT_SLOGP_2>
0.52630413

> <BCUT_SLOGP_3>
2.6673174

> <BCUT_SMR_0>
-2.3949428

> <BCUT_SMR_1>
-0.16215232

> <BCUT_SMR_2>
0.72878474

> <BCUT_SMR_3>
3.0134206

> <bpol>
51.649796

> <b_1rotN>
9

> <b_1rotR>
0.20454545

> <b_ar>
10

> <b_count>
72

> <b_double>
7

> <b_heavy>
44

> <b_max1len>
4

> <b_rotN>
13

> <b_rotR>
0.29545453

> <b_single>
55

> <b_triple>
0

> <chi0>
29.896612

> <chi0v>
25.276493

> <chi0v_C>
15.878315

> <chi0_C>
17.248194

> <chi1>
19.416941

> <chi1v>
14.965318

> <chi1v_C>
5.6749206

> <chi1_C>
6.8323517

> <chiral>
2

> <chiral_u>
0

> <density>
0.85574591

> <diameter>
17

> <FCharge>
0

> <GCUT_PEOE_0>
-0.82295483

> <GCUT_PEOE_1>
-0.38718629

> <GCUT_PEOE_2>
-0.015048814

> <GCUT_PEOE_3>
2.7235205

> <GCUT_SLOGP_0>
-1.3345569

> <GCUT_SLOGP_1>
-0.33555403

> <GCUT_SLOGP_2>
0.10739417

> <GCUT_SLOGP_3>
2.7142103

> <GCUT_SMR_0>
-0.5287438

> <GCUT_SMR_1>
-0.16737828

> <GCUT_SMR_2>
0.24528179

> <GCUT_SMR_3>
3.0062079

> <Kier1>
33.884296

> <Kier2>
14.853516

> <Kier3>
8.1859407

> <KierA1>
29.134403

> <KierA2>
12.721109

> <KierA3>
6.9910264

> <KierFlex>
9.0395594

> <lip_acc>
13

> <lip_don>
3

> <lip_druglike>
0

> <lip_violation>
2

> <logP(o/w)>
1.95

> <logS>
-5.9970798

> <mr>
15.674189

> <mutagenic>
1

> <nmol>
1

> <opr_brigid>
21

> <opr_leadlike>
0

> <opr_nring>
4

> <opr_nrot>
10

> <opr_violation>
2

> <PC+>
0

> <PC->
0

> <PEOE_PC+>
4.0334358

> <PEOE_PC->
-4.0334358

> <PEOE_RPC+>
0.0775631

> <PEOE_RPC->
0.083489902

> <PEOE_VSA+0>
77.092331

> <PEOE_VSA+1>
91.783081

> <PEOE_VSA+2>
32.205559

> <PEOE_VSA+3>
76.041077

> <PEOE_VSA+4>
0.0

> <PEOE_VSA+5>
40.607563

> <PEOE_VSA+6>
14.708499

> <PEOE_VSA-0>
39.678196

> <PEOE_VSA-1>
99.168404

> <PEOE_VSA-2>
30.64588

> <PEOE_VSA-3>
0.0

> <PEOE_VSA-4>
5.6825762

> <PEOE_VSA-5>
77.511253

> <PEOE_VSA-6>
0.13689101

> <PEOE_VSA_FHYD>
0.76310277

> <PEOE_VSA_FNEG>
0.43198344

> <PEOE_VSA_FPNEG>
0.14238207

> <PEOE_VSA_FPOL>
0.23689723

> <PEOE_VSA_FPOS>
0.56801653

> <PEOE_VSA_FPPOS>
0.094515152

> <PEOE_VSA_HYD>
446.61453

> <PEOE_VSA_NEG>
252.8232

> <PEOE_VSA_PNEG>
83.330719

> <PEOE_VSA_POL>
138.64677

> <PEOE_VSA_POS>
332.43811

> <PEOE_VSA_PPOS>
55.316059

> <petitjean>
0.47058824

> <petitjeanSC>
0.8888889

> <Q_PC+>
0

> <Q_PC->
0

> <Q_RPC+>
0

> <Q_RPC->
0

> <Q_VSA_FHYD>
1

> <Q_VSA_FNEG>
0

> <Q_VSA_FPNEG>
0

> <Q_VSA_FPOL>
0

> <Q_VSA_FPOS>
1

> <Q_VSA_FPPOS>
0

> <Q_VSA_HYD>
585.26129

> <Q_VSA_NEG>
0

> <Q_VSA_PNEG>
0

> <Q_VSA_POL>
0

> <Q_VSA_POS>
585.26129

> <Q_VSA_PPOS>
0

> <radius>
9

> <reactive>
1

> <rings>
4

> <RPC+>
0

> <RPC->
0

> <rsynth>
1.0

> <SlogP>
2.29812

> <SlogP_VSA0>
50.90794

> <SlogP_VSA1>
65.460617

> <SlogP_VSA2>
134.99651

> <SlogP_VSA3>
40.217678

> <SlogP_VSA4>
6.8718963

> <SlogP_VSA5>
60.726051

> <SlogP_VSA6>
0.0

> <SlogP_VSA7>
48.846378

> <SlogP_VSA8>
17.643185

> <SlogP_VSA9>
228.57973

> <SMR>
15.45131

> <SMR_VSA0>
128.6674

> <SMR_VSA1>
56.095234

> <SMR_VSA2>
18.01075

> <SMR_VSA3>
19.143314

> <SMR_VSA4>
0.50074643

> <SMR_VSA5>
81.743568

> <SMR_VSA6>
86.626106

> <SMR_VSA7>
263.46283

> <TPSA>
175.39999

> <VAdjEq>
0.29629606

> <VAdjMa>
6.4594316

> <VDistEq>
3.9409695

> <VDistMa>
10.447659

> <vdw_area>
585.26129

> <vdw_vol>
725.36951

> <vsa_acc>
76.518097

> <vsa_acid>
0

> <vsa_base>
0

> <vsa_don>
23.425066

> <vsa_hyd>
343.90271

> <vsa_other>
114.40056

> <vsa_pol>
99.943161

> <Weight>
620.73199

> <weinerPath>
6137

> <weinerPol>
63

> <zagreb>
216

$$$$
Row1468
 OpenBabel06061811532D

 36 38  0  0  1  0  0  0  0  0999 V2000
    0.0000    0.0000    0.0000 S   0  0  0  0  0  0  0  0  0  0  0  0
    0.0000    0.0000    0.0000 C   0  0  0  0  0  0  0  0  0  0  0  0
    0.0000    0.0000    0.0000 C   0  0  0  0  0  0  0  0  0  0  0  0
    0.0000    0.0000    0.0000 N   0  0  0  0  0  0  0  0  0  0  0  0
    0.0000    0.0000    0.0000 C   0  0  0  0  0  0  0  0  0  0  0  0
    0.0000    0.0000    0.0000 N   0  0  0  0  0  0  0  0  0  0  0  0
    0.0000    0.0000    0.0000 C   0  0  0  0  0  0  0  0  0  0  0  0
    0.0000    0.0000    0.0000 N   0  0  0  0  0  0  0  0  0  0  0  0
    0.0000    0.0000    0.0000 O   0  0  0  0  0  0  0  0  0  0  0  0
    0.0000    0.0000    0.0000 C   0  0  0  0  0  0  0  0  0  0  0  0
    0.0000    0.0000    0.0000 C   0  0  0  0  0  0  0  0  0  0  0  0
    0.0000    0.0000    0.0000 O   0  0  0  0  0  0  0  0  0  0  0  0
    0.0000    0.0000    0.0000 N   0  0  0  0  0  0  0  0  0  0  0  0
    0.0000    0.0000    0.0000 C   0  0  1  0  0  0  0  0  0  0  0  0
    0.0000    0.0000    0.0000 H   0  0  0  0  0  0  0  0  0  0  0  0
    0.0000    0.0000    0.0000 C   0  0  1  0  0  0  0  0  0  0  0  0
    0.0000    0.0000    0.0000 H   0  0  0  0  0  0  0  0  0  0  0  0
    0.0000    0.0000    0.0000 S   0  0  0  0  0  0  0  0  0  0  0  0
    0.0000    0.0000    0.0000 C   0  0  0  0  0  0  0  0  0  0  0  0
    0.0000    0.0000    0.0000 C   0  0  0  0  0  0  0  0  0  0  0  0
    0.0000    0.0000    0.0000 C   0  0  0  0  0  0  0  0  0  0  0  0
    0.0000    0.0000    0.0000 C   0  0  0  0  0  0  0  0  0  0  0  0
    0.0000    0.0000    0.0000 N   0  0  0  0  0  0  0  0  0  0  0  0
    0.0000    0.0000    0.0000 C   0  0  0  0  0  0  0  0  0  0  0  0
    0.0000    0.0000    0.0000 O   0  0  0  0  0  0  0  0  0  0  0  0
    0.0000    0.0000    0.0000 C   0  0  0  0  0  0  0  0  0  0  0  0
    0.0000    0.0000    0.0000 O   0  0  0  0  0  0  0  0  0  0  0  0
    0.0000    0.0000    0.0000 C   0  0  0  0  0  0  0  0  0  0  0  0
    0.0000    0.0000    0.0000 O   0  0  0  0  0  0  0  0  0  0  0  0
    0.0000    0.0000    0.0000 C   0  0  0  0  0  0  0  0  0  0  0  0
    0.0000    0.0000    0.0000 O   0  0  0  0  0  0  0  0  0  0  0  0
    0.0000    0.0000    0.0000 C   0  0  0  0  0  0  0  0  0  0  0  0
    0.0000    0.0000    0.0000 C   0  0  0  0  0  0  0  0  0  0  0  0
    0.0000    0.0000    0.0000 C   0  0  0  0  0  0  0  0  0  0  0  0
    0.0000    0.0000    0.0000 C   0  0  0  0  0  0  0  0  0  0  0  0
    0.0000    0.0000    0.0000 O   0  0  0  0  0  0  0  0  0  0  0  0
  1  5  1  0  0  0  0
  1  2  1  0  0  0  0
  2  3  2  0  0  0  0
  3  4  1  0  0  0  0
  3  7  1  0  0  0  0
  4  5  2  0  0  0  0
  5  6  1  0  0  0  0
  7  8  2  0  0  0  0
  7 11  1  0  0  0  0
  8  9  1  0  0  0  0
  9 10  1  0  0  0  0
 11 12  2  0  0  0  0
 11 13  1  0  0  0  0
 13 14  1  0  0  0  0
 14 15  1  0  0  0  0
 14 24  1  0  0  0  0
 14 16  1  0  0  0  0
 16 17  1  0  0  0  0
 16 23  1  0  0  0  0
 16 18  1  0  0  0  0
 18 19  1  0  0  0  0
 19 20  1  0  0  0  0
 20 21  1  0  0  0  0
 20 22  2  0  0  0  0
 22 23  1  0  0  0  0
 22 26  1  0  0  0  0
 23 24  1  0  0  0  0
 24 25  2  0  0  0  0
 26 27  1  0  0  0  0
 26 36  2  0  0  0  0
 27 28  1  0  0  0  0
 28 29  1  0  0  0  0
 29 30  1  0  0  0  0
 30 31  2  0  0  0  0
 30 32  1  0  0  0  0
 32 33  1  0  0  0  0
 32 34  1  0  0  0  0
 32 35  1  0  0  0  0
M  END
> <Index>
1469

> <ID>
HT0404

> <class>
1

> <apol>
68.783829

> <ast_fraglike>
0

> <ast_fraglike_ext>
0

> <ast_violation>
2

> <ast_violation_ext>
4

> <a_acc>
6

> <a_acid>
0

> <a_aro>
5

> <a_base>
0

> <a_count>
59

> <a_don>
2

> <a_donacc>
8

> <a_heavy>
34

> <a_hyd>
15

> <a_IC>
111.27985

> <a_ICM>
1.8860991

> <a_nB>
0

> <a_nBr>
0

> <a_nC>
20

> <a_nCl>
0

> <a_nF>
0

> <a_nH>
25

> <a_nI>
0

> <a_nN>
5

> <a_nO>
7

> <a_nP>
0

> <a_nS>
2

> <balabanJ>
1.5703746

> <BCUT_PEOE_0>
-2.6856253

> <BCUT_PEOE_1>
-0.32675028

> <BCUT_PEOE_2>
0.31069893

> <BCUT_PEOE_3>
2.7334185

> <BCUT_SLOGP_0>
-2.8924844

> <BCUT_SLOGP_1>
-0.24443243

> <BCUT_SLOGP_2>
0.38801515

> <BCUT_SLOGP_3>
2.6673572

> <BCUT_SMR_0>
-2.400378

> <BCUT_SMR_1>
-0.073492534

> <BCUT_SMR_2>
0.51359129

> <BCUT_SMR_3>
3.0163777

> <bpol>
44.770176

> <b_1rotN>
7

> <b_1rotR>
0.19444445

> <b_ar>
5

> <b_count>
61

> <b_double>
6

> <b_heavy>
36

> <b_max1len>
4

> <b_rotN>
11

> <b_rotR>
0.30555555

> <b_single>
50

> <b_triple>
0

> <chi0>
25.206377

> <chi0v>
20.872482

> <chi0v_C>
13.146264

> <chi0_C>
13.972174

> <chi1>
15.950615

> <chi1v>
12.003349

> <chi1v_C>
4.5142369

> <chi1_C>
5.1825218

> <chiral>
2

> <chiral_u>
0

> <density>
0.8567912

> <diameter>
17

> <FCharge>
0

> <GCUT_PEOE_0>
-0.823259

> <GCUT_PEOE_1>
-0.36121413

> <GCUT_PEOE_2>
-0.023561535

> <GCUT_PEOE_3>
2.661957

> <GCUT_SLOGP_0>
-1.3345562

> <GCUT_SLOGP_1>
-0.34908324

> <GCUT_SLOGP_2>
0.062539496

> <GCUT_SLOGP_3>
2.6232986

> <GCUT_SMR_0>
-0.52936983

> <GCUT_SMR_1>
-0.14254732

> <GCUT_SMR_2>
0.15789232

> <GCUT_SMR_3>
2.9308107

> <Kier1>
28.569445

> <Kier2>
12.029903

> <Kier3>
6.6675067

> <KierA1>
24.509418

> <KierA2>
10.270188

> <KierA3>
5.6727424

> <KierFlex>
7.4034214

> <lip_acc>
12

> <lip_don>
3

> <lip_druglike>
0

> <lip_violation>
2

> <logP(o/w)>
1.056

> <logS>
-4.3947802

> <mr>
12.594514

> <mutagenic>
1

> <nmol>
1

> <opr_brigid>
15

> <opr_leadlike>
0

> <opr_nring>
3

> <opr_nrot>
8

> <opr_violation>
2

> <PC+>
0

> <PC->
0

> <PEOE_PC+>
3.6133029

> <PEOE_PC->
-3.6133029

> <PEOE_RPC+>
0.086492188

> <PEOE_RPC->
0.093197599

> <PEOE_VSA+0>
70.392776

> <PEOE_VSA+1>
78.986923

> <PEOE_VSA+2>
32.205559

> <PEOE_VSA+3>
56.280457

> <PEOE_VSA+4>
0.0

> <PEOE_VSA+5>
40.607563

> <PEOE_VSA+6>
14.708499

> <PEOE_VSA-0>
20.956217

> <PEOE_VSA-1>
70.473999

> <PEOE_VSA-2>
30.64588

> <PEOE_VSA-3>
0.0

> <PEOE_VSA-4>
5.6825762

> <PEOE_VSA-5>
71.828674

> <PEOE_VSA-6>
0.13689101

> <PEOE_VSA_FHYD>
0.73024428

> <PEOE_VSA_FNEG>
0.40519741

> <PEOE_VSA_FPNEG>
0.15753134

> <PEOE_VSA_FPOL>
0.26975569

> <PEOE_VSA_FPOS>
0.59480262

> <PEOE_VSA_FPPOS>
0.11222436

> <PEOE_VSA_HYD>
359.9418

> <PEOE_VSA_NEG>
199.72424

> <PEOE_VSA_PNEG>
77.64814

> <PEOE_VSA_POL>
132.9642

> <PEOE_VSA_POS>
293.18176

> <PEOE_VSA_PPOS>
55.316059

> <petitjean>
0.47058824

> <petitjeanSC>
0.8888889

> <Q_PC+>
0

> <Q_PC->
0

> <Q_RPC+>
0

> <Q_RPC->
0

> <Q_VSA_FHYD>
1

> <Q_VSA_FNEG>
0

> <Q_VSA_FPNEG>
0

> <Q_VSA_FPOL>
0

> <Q_VSA_FPOS>
1

> <Q_VSA_FPPOS>
0

> <Q_VSA_HYD>
492.90601

> <Q_VSA_NEG>
0

> <Q_VSA_PNEG>
0

> <Q_VSA_POL>
0

> <Q_VSA_POS>
492.90601

> <Q_VSA_PPOS>
0

> <radius>
9

> <reactive>
1

> <rings>
3

> <RPC+>
0

> <RPC->
0

> <rsynth>
1.0

> <SlogP>
0.83969998

> <SlogP_VSA0>
50.90794

> <SlogP_VSA1>
48.675087

> <SlogP_VSA2>
134.99651

> <SlogP_VSA3>
40.217678

> <SlogP_VSA4>
2.7567475

> <SlogP_VSA5>
60.726051

> <SlogP_VSA6>
0.0

> <SlogP_VSA7>
15.81601

> <SlogP_VSA8>
0.0

> <SlogP_VSA9>
197.30203

> <SMR>
12.43021

> <SMR_VSA0>
128.6674

> <SMR_VSA1>
39.309704

> <SMR_VSA2>
18.01075

> <SMR_VSA3>
15.028167

> <SMR_VSA4>
0.50074643

> <SMR_VSA5>
48.7132

> <SMR_VSA6>
68.982918

> <SMR_VSA7>
232.18515

> <TPSA>
162.50999

> <VAdjEq>
0.33644459

> <VAdjMa>
6.1699252

> <VDistEq>
3.8798859

> <VDistMa>
9.8730707

> <vdw_area>
492.90601

> <vdw_vol>
597.08832

> <vsa_acc>
70.835518

> <vsa_acid>
0

> <vsa_base>
0

> <vsa_don>
23.425066

> <vsa_hyd>
259.36539

> <vsa_other>
114.40056

> <vsa_pol>
94.26059

> <Weight>
511.57999

> <weinerPath>
3822

> <weinerPol>
53

> <zagreb>
178

$$$$
Row1469
 OpenBabel06061811532D

 32 34  0  0  1  0  0  0  0  0999 V2000
    0.0000    0.0000    0.0000 S   0  0  0  0  0  0  0  0  0  0  0  0
    0.0000    0.0000    0.0000 C   0  0  0  0  0  0  0  0  0  0  0  0
    0.0000    0.0000    0.0000 C   0  0  0  0  0  0  0  0  0  0  0  0
    0.0000    0.0000    0.0000 N   0  0  0  0  0  0  0  0  0  0  0  0
    0.0000    0.0000    0.0000 C   0  0  0  0  0  0  0  0  0  0  0  0
    0.0000    0.0000    0.0000 N   0  0  0  0  0  0  0  0  0  0  0  0
    0.0000    0.0000    0.0000 C   0  0  0  0  0  0  0  0  0  0  0  0
    0.0000    0.0000    0.0000 N   0  0  0  0  0  0  0  0  0  0  0  0
    0.0000    0.0000    0.0000 O   0  0  0  0  0  0  0  0  0  0  0  0
    0.0000    0.0000    0.0000 C   0  0  0  0  0  0  0  0  0  0  0  0
    0.0000    0.0000    0.0000 C   0  0  0  0  0  0  0  0  0  0  0  0
    0.0000    0.0000    0.0000 O   0  0  0  0  0  0  0  0  0  0  0  0
    0.0000    0.0000    0.0000 O   0  0  0  0  0  0  0  0  0  0  0  0
    0.0000    0.0000    0.0000 C   0  0  0  0  0  0  0  0  0  0  0  0
    0.0000    0.0000    0.0000 O   0  0  0  0  0  0  0  0  0  0  0  0
    0.0000    0.0000    0.0000 N   0  0  0  0  0  0  0  0  0  0  0  0
    0.0000    0.0000    0.0000 C   0  0  1  0  0  0  0  0  0  0  0  0
    0.0000    0.0000    0.0000 H   0  0  0  0  0  0  0  0  0  0  0  0
    0.0000    0.0000    0.0000 C   0  0  1  0  0  0  0  0  0  0  0  0
    0.0000    0.0000    0.0000 H   0  0  0  0  0  0  0  0  0  0  0  0
    0.0000    0.0000    0.0000 S   0  0  0  0  0  0  0  0  0  0  0  0
    0.0000    0.0000    0.0000 C   0  0  0  0  0  0  0  0  0  0  0  0
    0.0000    0.0000    0.0000 C   0  0  0  0  0  0  0  0  0  0  0  0
    0.0000    0.0000    0.0000 C   0  0  0  0  0  0  0  0  0  0  0  0
    0.0000    0.0000    0.0000 C   0  0  0  0  0  0  0  0  0  0  0  0
    0.0000    0.0000    0.0000 C   0  0  0  0  0  0  0  0  0  0  0  0
    0.0000    0.0000    0.0000 N   0  0  0  0  0  0  0  0  0  0  0  0
    0.0000    0.0000    0.0000 C   0  0  0  0  0  0  0  0  0  0  0  0
    0.0000    0.0000    0.0000 O   0  0  0  0  0  0  0  0  0  0  0  0
    0.0000    0.0000    0.0000 C   0  0  0  0  0  0  0  0  0  0  0  0
    0.0000    0.0000    0.0000 O   0  0  0  0  0  0  0  0  0  0  0  0
    0.0000    0.0000    0.0000 O   0  0  0  0  0  0  0  0  0  0  0  0
  1  5  1  0  0  0  0
  1  2  1  0  0  0  0
  2  3  2  0  0  0  0
  3  4  1  0  0  0  0
  3  7  1  0  0  0  0
  4  5  2  0  0  0  0
  5  6  1  0  0  0  0
  7  8  2  3  0  0  0
  7 14  1  0  0  0  0
  8  9  1  0  0  0  0
  9 10  1  0  0  0  0
 10 11  1  0  0  0  0
 11 12  1  0  0  0  0
 11 13  2  0  0  0  0
 14 15  2  0  0  0  0
 14 16  1  0  0  0  0
 16 17  1  0  0  0  0
 17 18  1  0  0  0  0
 17 28  1  0  0  0  0
 17 19  1  0  0  0  0
 19 20  1  0  0  0  0
 19 27  1  0  0  0  0
 19 21  1  0  0  0  0
 21 22  1  0  0  0  0
 22 23  1  0  0  0  0
 23 24  1  0  0  0  0
 23 26  2  0  0  0  0
 24 25  2  0  0  0  0
 26 27  1  0  0  0  0
 26 30  1  0  0  0  0
 27 28  1  0  0  0  0
 28 29  2  0  0  0  0
 30 31  1  0  0  0  0
 30 32  2  0  0  0  0
M  END
> <Index>
1470

> <ID>
HT0405

> <class>
1

> <apol>
55.075893

> <ast_fraglike>
0

> <ast_fraglike_ext>
0

> <ast_violation>
3

> <ast_violation_ext>
5

> <a_acc>
8

> <a_acid>
0

> <a_aro>
5

> <a_base>
0

> <a_count>
45

> <a_don>
6

> <a_donacc>
14

> <a_heavy>
30

> <a_hyd>
12

> <a_IC>
91.268906

> <a_ICM>
2.028198

> <a_nB>
0

> <a_nBr>
0

> <a_nC>
16

> <a_nCl>
0

> <a_nF>
0

> <a_nH>
15

> <a_nI>
0

> <a_nN>
5

> <a_nO>
7

> <a_nP>
0

> <a_nS>
2

> <balabanJ>
1.631691

> <BCUT_PEOE_0>
-2.6785083

> <BCUT_PEOE_1>
-0.58418649

> <BCUT_PEOE_2>
0.64287722

> <BCUT_PEOE_3>
2.7299635

> <BCUT_SLOGP_0>
-2.8915577

> <BCUT_SLOGP_1>
-0.60106552

> <BCUT_SLOGP_2>
0.63909405

> <BCUT_SLOGP_3>
2.6065083

> <BCUT_SMR_0>
-2.3936515

> <BCUT_SMR_1>
-0.39558619

> <BCUT_SMR_2>
0.87605053

> <BCUT_SMR_3>
3.0124371

> <bpol>
30.006105

> <b_1rotN>
8

> <b_1rotR>
0.25

> <b_ar>
5

> <b_count>
47

> <b_double>
7

> <b_heavy>
32

> <b_max1len>
3

> <b_rotN>
9

> <b_rotR>
0.28125

> <b_single>
35

> <b_triple>
0

> <chi0>
21.999271

> <chi0v>
16.734871

> <chi0v_C>
8.9307213

> <chi0_C>
10.17928

> <chi1>
14.23929

> <chi1v>
10.145868

> <chi1v_C>
3.3147137

> <chi1_C>
4.3400998

> <chiral>
2

> <chiral_u>
0

> <density>
0.9269498

> <diameter>
14

> <FCharge>
0

> <GCUT_PEOE_0>
-0.82285821

> <GCUT_PEOE_1>
-0.4766908

> <GCUT_PEOE_2>
0.12131541

> <GCUT_PEOE_3>
2.5608795

> <GCUT_SLOGP_0>
-1.3345573

> <GCUT_SLOGP_1>
-0.445952

> <GCUT_SLOGP_2>
0.14413682

> <GCUT_SLOGP_3>
2.5072868

> <GCUT_SMR_0>
-0.52853942

> <GCUT_SMR_1>
-0.24316289

> <GCUT_SMR_2>
0.31030253

> <GCUT_SMR_3>
2.8502533

> <Kier1>
24.638672

> <Kier2>
10.744802

> <Kier3>
5.5067639

> <KierA1>
20.109184

> <KierA2>
8.704587

> <KierA3>
4.4377141

> <KierFlex>
5.8347383

> <lip_acc>
12

> <lip_don>
5

> <lip_druglike>
1

> <lip_violation>
1

> <logP(o/w)>
-0.373

> <logS>
-4.0542698

> <mr>
10.61438

> <mutagenic>
1

> <nmol>
1

> <opr_brigid>
16

> <opr_leadlike>
0

> <opr_nring>
3

> <opr_nrot>
8

> <opr_violation>
2

> <PC+>
0

> <PC->
0

> <PEOE_PC+>
3.6264162

> <PEOE_PC->
-3.6264162

> <PEOE_RPC+>
0.084994517

> <PEOE_RPC->
0.092860594

> <PEOE_VSA+0>
19.208147

> <PEOE_VSA+1>
53.989265

> <PEOE_VSA+2>
32.205559

> <PEOE_VSA+3>
50.030476

> <PEOE_VSA+4>
20.648346

> <PEOE_VSA+5>
40.607563

> <PEOE_VSA+6>
14.708499

> <PEOE_VSA-0>
2.2085397

> <PEOE_VSA-1>
48.787136

> <PEOE_VSA-2>
30.64588

> <PEOE_VSA-3>
0.0

> <PEOE_VSA-4>
11.584935

> <PEOE_VSA-5>
60.918804

> <PEOE_VSA-6>
15.671971

> <PEOE_VSA_FHYD>
0.59089249

> <PEOE_VSA_FNEG>
0.42325741

> <PEOE_VSA_FPNEG>
0.21977165

> <PEOE_VSA_FPOL>
0.40910751

> <PEOE_VSA_FPOS>
0.57674259

> <PEOE_VSA_FPPOS>
0.18933585

> <PEOE_VSA_HYD>
237.075

> <PEOE_VSA_NEG>
169.81726

> <PEOE_VSA_PNEG>
88.175713

> <PEOE_VSA_POL>
164.14012

> <PEOE_VSA_POS>
231.39786

> <PEOE_VSA_PPOS>
75.964409

> <petitjean>
0.5

> <petitjeanSC>
1.0

> <Q_PC+>
0

> <Q_PC->
0

> <Q_RPC+>
0

> <Q_RPC->
0

> <Q_VSA_FHYD>
1

> <Q_VSA_FNEG>
0

> <Q_VSA_FPNEG>
0

> <Q_VSA_FPOL>
0

> <Q_VSA_FPOS>
1

> <Q_VSA_FPPOS>
0

> <Q_VSA_HYD>
401.21512

> <Q_VSA_NEG>
0

> <Q_VSA_PNEG>
0

> <Q_VSA_POL>
0

> <Q_VSA_POS>
401.21512

> <Q_VSA_PPOS>
0

> <radius>
7

> <reactive>
1

> <rings>
3

> <RPC+>
0

> <RPC->
0

> <rsynth>
1.0

> <SlogP>
-0.54479998

> <SlogP_VSA0>
50.90794

> <SlogP_VSA1>
48.675087

> <SlogP_VSA2>
112.99673

> <SlogP_VSA3>
88.930275

> <SlogP_VSA4>
2.7567475

> <SlogP_VSA5>
25.342184

> <SlogP_VSA6>
0.0

> <SlogP_VSA7>
33.459194

> <SlogP_VSA8>
0.0

> <SlogP_VSA9>
96.09877

> <SMR>
10.65337

> <SMR_VSA0>
106.66763

> <SMR_VSA1>
39.309704

> <SMR_VSA2>
68.781204

> <SMR_VSA3>
15.028167

> <SMR_VSA4>
0.50074643

> <SMR_VSA5>
66.356384

> <SMR_VSA6>
66.925064

> <SMR_VSA7>
95.598022

> <TPSA>
184.50999

> <VAdjEq>
0.37005648

> <VAdjMa>
6.0

> <VDistEq>
3.6058204

> <VDistMa>
9.5354633

> <vdw_area>
401.21512

> <vdw_vol>
489.19153

> <vsa_acc>
43.701679

> <vsa_acid>
0

> <vsa_base>
0

> <vsa_don>
23.425066

> <vsa_hyd>
173.34857

> <vsa_other>
81.084595

> <vsa_pol>
121.39443

> <Weight>
453.45599

> <weinerPath>
2560

> <weinerPol>
46

> <zagreb>
156

$$$$
Row1470
 OpenBabel06061811532D

 35 38  0  0  1  0  0  0  0  0999 V2000
    0.0000    0.0000    0.0000 S   0  0  0  0  0  0  0  0  0  0  0  0
    0.0000    0.0000    0.0000 C   0  0  0  0  0  0  0  0  0  0  0  0
    0.0000    0.0000    0.0000 C   0  0  0  0  0  0  0  0  0  0  0  0
    0.0000    0.0000    0.0000 N   0  0  0  0  0  0  0  0  0  0  0  0
    0.0000    0.0000    0.0000 C   0  0  0  0  0  0  0  0  0  0  0  0
    0.0000    0.0000    0.0000 N   0  0  0  0  0  0  0  0  0  0  0  0
    0.0000    0.0000    0.0000 C   0  0  0  0  0  0  0  0  0  0  0  0
    0.0000    0.0000    0.0000 N   0  0  0  0  0  0  0  0  0  0  0  0
    0.0000    0.0000    0.0000 O   0  0  0  0  0  0  0  0  0  0  0  0
    0.0000    0.0000    0.0000 C   0  0  0  0  0  0  0  0  0  0  0  0
    0.0000    0.0000    0.0000 C   0  0  0  0  0  0  0  0  0  0  0  0
    0.0000    0.0000    0.0000 O   0  0  0  0  0  0  0  0  0  0  0  0
    0.0000    0.0000    0.0000 N   0  0  0  0  0  0  0  0  0  0  0  0
    0.0000    0.0000    0.0000 C   0  0  1  0  0  0  0  0  0  0  0  0
    0.0000    0.0000    0.0000 H   0  0  0  0  0  0  0  0  0  0  0  0
    0.0000    0.0000    0.0000 C   0  0  1  0  0  0  0  0  0  0  0  0
    0.0000    0.0000    0.0000 H   0  0  0  0  0  0  0  0  0  0  0  0
    0.0000    0.0000    0.0000 S   0  0  0  0  0  0  0  0  0  0  0  0
    0.0000    0.0000    0.0000 C   0  0  0  0  0  0  0  0  0  0  0  0
    0.0000    0.0000    0.0000 C   0  0  0  0  0  0  0  0  0  0  0  0
    0.0000    0.0000    0.0000 C   0  0  0  0  0  0  0  0  0  0  0  0
    0.0000    0.0000    0.0000 S   0  0  0  0  0  0  0  0  0  0  0  0
    0.0000    0.0000    0.0000 C   0  0  0  0  0  0  0  0  0  0  0  0
    0.0000    0.0000    0.0000 N   0  0  0  0  0  0  0  0  0  0  0  0
    0.0000    0.0000    0.0000 N   0  0  0  0  0  0  0  0  0  0  0  0
    0.0000    0.0000    0.0000 N   0  0  0  0  0  0  0  0  0  0  0  0
    0.0000    0.0000    0.0000 N   0  0  0  0  0  0  0  0  0  0  0  0
    0.0000    0.0000    0.0000 C   0  0  0  0  0  0  0  0  0  0  0  0
    0.0000    0.0000    0.0000 C   0  0  0  0  0  0  0  0  0  0  0  0
    0.0000    0.0000    0.0000 N   0  0  0  0  0  0  0  0  0  0  0  0
    0.0000    0.0000    0.0000 C   0  0  0  0  0  0  0  0  0  0  0  0
    0.0000    0.0000    0.0000 O   0  0  0  0  0  0  0  0  0  0  0  0
    0.0000    0.0000    0.0000 C   0  0  0  0  0  0  0  0  0  0  0  0
    0.0000    0.0000    0.0000 O   0  0  0  0  0  0  0  0  0  0  0  0
    0.0000    0.0000    0.0000 O   0  0  0  0  0  0  0  0  0  0  0  0
  1  5  1  0  0  0  0
  1  2  1  0  0  0  0
  2  3  2  0  0  0  0
  3  4  1  0  0  0  0
  3  7  1  0  0  0  0
  4  5  2  0  0  0  0
  5  6  1  0  0  0  0
  7  8  2  0  0  0  0
  7 11  1  0  0  0  0
  8  9  1  0  0  0  0
  9 10  1  0  0  0  0
 11 12  2  0  0  0  0
 11 13  1  0  0  0  0
 13 14  1  0  0  0  0
 14 15  1  0  0  0  0
 14 31  1  0  0  0  0
 14 16  1  0  0  0  0
 16 17  1  0  0  0  0
 16 30  1  0  0  0  0
 16 18  1  0  0  0  0
 18 19  1  0  0  0  0
 19 20  1  0  0  0  0
 20 21  1  0  0  0  0
 20 29  2  0  0  0  0
 21 22  1  0  0  0  0
 22 23  1  0  0  0  0
 23 27  1  0  0  0  0
 23 24  2  0  0  0  0
 24 25  1  0  0  0  0
 25 26  2  0  0  0  0
 26 27  1  0  0  0  0
 27 28  1  0  0  0  0
 29 30  1  0  0  0  0
 29 33  1  0  0  0  0
 30 31  1  0  0  0  0
 31 32  2  0  0  0  0
 33 34  1  0  0  0  0
 33 35  2  0  0  0  0
M  END
> <Index>
1471

> <ID>
HT0406

> <class>
1

> <apol>
62.10548

> <ast_fraglike>
0

> <ast_fraglike_ext>
0

> <ast_violation>
3

> <ast_violation_ext>
5

> <a_acc>
9

> <a_acid>
0

> <a_aro>
10

> <a_base>
0

> <a_count>
50

> <a_don>
4

> <a_donacc>
13

> <a_heavy>
33

> <a_hyd>
13

> <a_IC>
103.81209

> <a_ICM>
2.0762417

> <a_nB>
0

> <a_nBr>
0

> <a_nC>
16

> <a_nCl>
0

> <a_nF>
0

> <a_nH>
17

> <a_nI>
0

> <a_nN>
9

> <a_nO>
5

> <a_nP>
0

> <a_nS>
3

> <balabanJ>
1.3550862

> <BCUT_PEOE_0>
-2.6847401

> <BCUT_PEOE_1>
-0.4893581

> <BCUT_PEOE_2>
0.57752609

> <BCUT_PEOE_3>
2.7344048

> <BCUT_SLOGP_0>
-2.8932638

> <BCUT_SLOGP_1>
-0.48441806

> <BCUT_SLOGP_2>
0.52785337

> <BCUT_SLOGP_3>
2.6219556

> <BCUT_SMR_0>
-2.3985066

> <BCUT_SMR_1>
-0.30298904

> <BCUT_SMR_2>
0.7863313

> <BCUT_SMR_3>
3.0193021

> <bpol>
35.494518

> <b_1rotN>
8

> <b_1rotR>
0.22222222

> <b_ar>
10

> <b_count>
53

> <b_double>
5

> <b_heavy>
36

> <b_max1len>
3

> <b_rotN>
9

> <b_rotR>
0.25

> <b_single>
38

> <b_triple>
0

> <chi0>
23.697941

> <chi0v>
19.608551

> <chi0v_C>
9.6462641

> <chi0_C>
10.472174

> <chi1>
15.811769

> <chi1v>
12.113611

> <chi1v_C>
2.6177905

> <chi1_C>
3.2247448

> <chiral>
2

> <chiral_u>
0

> <density>
0.94106883

> <diameter>
16

> <FCharge>
0

> <GCUT_PEOE_0>
-0.82316399

> <GCUT_PEOE_1>
-0.44995847

> <GCUT_PEOE_2>
0.053459816

> <GCUT_PEOE_3>
2.619658

> <GCUT_SLOGP_0>
-1.3345556

> <GCUT_SLOGP_1>
-0.41872719

> <GCUT_SLOGP_2>
0.10323628

> <GCUT_SLOGP_3>
2.5819619

> <GCUT_SMR_0>
-0.52878338

> <GCUT_SMR_1>
-0.22152711

> <GCUT_SMR_2>
0.28382602

> <GCUT_SMR_3>
2.9131832

> <Kier1>
26.074074

> <Kier2>
11.372781

> <Kier3>
5.5555553

> <KierA1>
22.23823

> <KierA2>
9.6491671

> <KierA3>
4.6957026

> <KierFlex>
6.5024362

> <lip_acc>
14

> <lip_don>
4

> <lip_druglike>
0

> <lip_violation>
2

> <logP(o/w)>
-1.212

> <logS>
-4.5108199

> <mr>
12.052576

> <mutagenic>
1

> <nmol>
1

> <opr_brigid>
20

> <opr_leadlike>
0

> <opr_nring>
4

> <opr_nrot>
8

> <opr_violation>
2

> <PC+>
0

> <PC->
0

> <PEOE_PC+>
3.3702631

> <PEOE_PC->
-3.3702631

> <PEOE_RPC+>
0.091369234

> <PEOE_RPC->
0.099918358

> <PEOE_VSA+0>
74.451141

> <PEOE_VSA+1>
70.456146

> <PEOE_VSA+2>
32.205559

> <PEOE_VSA+3>
35.079182

> <PEOE_VSA+4>
23.490797

> <PEOE_VSA+5>
25.899061

> <PEOE_VSA+6>
14.708499

> <PEOE_VSA-0>
28.527546

> <PEOE_VSA-1>
33.991585

> <PEOE_VSA-2>
40.066917

> <PEOE_VSA-3>
0.0

> <PEOE_VSA-4>
5.6825762

> <PEOE_VSA-5>
53.254242

> <PEOE_VSA-6>
7.9044313

> <PEOE_VSA_FHYD>
0.70622748

> <PEOE_VSA_FNEG>
0.38012245

> <PEOE_VSA_FPNEG>
0.1499632

> <PEOE_VSA_FPOL>
0.29377252

> <PEOE_VSA_FPOS>
0.61987758

> <PEOE_VSA_FPPOS>
0.14380932

> <PEOE_VSA_HYD>
314.77808

> <PEOE_VSA_NEG>
169.42729

> <PEOE_VSA_PNEG>
66.841248

> <PEOE_VSA_POL>
130.93961

> <PEOE_VSA_POS>
276.29041

> <PEOE_VSA_PPOS>
64.098358

> <petitjean>
0.5

> <petitjeanSC>
1.0

> <Q_PC+>
0

> <Q_PC->
0

> <Q_RPC+>
0

> <Q_RPC->
0

> <Q_VSA_FHYD>
1

> <Q_VSA_FNEG>
0

> <Q_VSA_FPNEG>
0

> <Q_VSA_FPOL>
0

> <Q_VSA_FPOS>
1

> <Q_VSA_FPPOS>
0

> <Q_VSA_HYD>
445.71768

> <Q_VSA_NEG>
0

> <Q_VSA_PNEG>
0

> <Q_VSA_POL>
0

> <Q_VSA_POS>
445.71768

> <Q_VSA_PPOS>
0

> <radius>
8

> <reactive>
1

> <rings>
4

> <RPC+>
0

> <RPC->
0

> <rsynth>
0.54545456

> <SlogP>
-0.51059997

> <SlogP_VSA0>
50.90794

> <SlogP_VSA1>
92.450172

> <SlogP_VSA2>
89.134506

> <SlogP_VSA3>
59.852356

> <SlogP_VSA4>
2.7567475

> <SlogP_VSA5>
61.419132

> <SlogP_VSA6>
0.0

> <SlogP_VSA7>
15.81601

> <SlogP_VSA8>
0.0

> <SlogP_VSA9>
129.1147

> <SMR>
11.95619

> <SMR_VSA0>
82.805412

> <SMR_VSA1>
90.830254

> <SMR_VSA2>
44.089058

> <SMR_VSA3>
15.028167

> <SMR_VSA4>
0.50074643

> <SMR_VSA5>
48.7132

> <SMR_VSA6>
55.486908

> <SMR_VSA7>
163.99782

> <TPSA>
190.81

> <VAdjEq>
0.3512581

> <VAdjMa>
6.1699252

> <VDistEq>
3.7950449

> <VDistMa>
9.7919512

> <vdw_area>
445.71768

> <vdw_vol>
543.60315

> <vsa_acc>
79.441727

> <vsa_acid>
0

> <vsa_base>
0

> <vsa_don>
23.425066

> <vsa_hyd>
213.17622

> <vsa_other>
79.542717

> <vsa_pol>
130.00063

> <Weight>
511.56799

> <weinerPath>
3413

> <weinerPol>
51

> <zagreb>
176

$$$$
Row1471
 OpenBabel06061811532D

 32 34  0  0  1  0  0  0  0  0999 V2000
    0.0000    0.0000    0.0000 S   0  0  0  0  0  0  0  0  0  0  0  0
    0.0000    0.0000    0.0000 C   0  0  0  0  0  0  0  0  0  0  0  0
    0.0000    0.0000    0.0000 C   0  0  0  0  0  0  0  0  0  0  0  0
    0.0000    0.0000    0.0000 N   0  0  0  0  0  0  0  0  0  0  0  0
    0.0000    0.0000    0.0000 C   0  0  0  0  0  0  0  0  0  0  0  0
    0.0000    0.0000    0.0000 N   0  0  0  0  0  0  0  0  0  0  0  0
    0.0000    0.0000    0.0000 C   0  0  0  0  0  0  0  0  0  0  0  0
    0.0000    0.0000    0.0000 N   0  0  0  0  0  0  0  0  0  0  0  0
    0.0000    0.0000    0.0000 O   0  0  0  0  0  0  0  0  0  0  0  0
    0.0000    0.0000    0.0000 C   0  0  0  0  0  0  0  0  0  0  0  0
    0.0000    0.0000    0.0000 C   0  0  0  0  0  0  0  0  0  0  0  0
    0.0000    0.0000    0.0000 O   0  0  0  0  0  0  0  0  0  0  0  0
    0.0000    0.0000    0.0000 N   0  0  0  0  0  0  0  0  0  0  0  0
    0.0000    0.0000    0.0000 C   0  0  1  0  0  0  0  0  0  0  0  0
    0.0000    0.0000    0.0000 H   0  0  0  0  0  0  0  0  0  0  0  0
    0.0000    0.0000    0.0000 C   0  0  1  0  0  0  0  0  0  0  0  0
    0.0000    0.0000    0.0000 H   0  0  0  0  0  0  0  0  0  0  0  0
    0.0000    0.0000    0.0000 S   0  0  0  0  0  0  0  0  0  0  0  0
    0.0000    0.0000    0.0000 C   0  0  0  0  0  0  0  0  0  0  0  0
    0.0000    0.0000    0.0000 C   0  0  0  0  0  0  0  0  0  0  0  0
    0.0000    0.0000    0.0000 C   0  0  0  0  0  0  0  0  0  0  0  0
    0.0000    0.0000    0.0000 O   0  0  0  0  0  0  0  0  0  0  0  0
    0.0000    0.0000    0.0000 C   0  0  0  0  0  0  0  0  0  0  0  0
    0.0000    0.0000    0.0000 O   0  0  0  0  0  0  0  0  0  0  0  0
    0.0000    0.0000    0.0000 C   0  0  0  0  0  0  0  0  0  0  0  0
    0.0000    0.0000    0.0000 C   0  0  0  0  0  0  0  0  0  0  0  0
    0.0000    0.0000    0.0000 N   0  0  0  0  0  0  0  0  0  0  0  0
    0.0000    0.0000    0.0000 C   0  0  0  0  0  0  0  0  0  0  0  0
    0.0000    0.0000    0.0000 O   0  0  0  0  0  0  0  0  0  0  0  0
    0.0000    0.0000    0.0000 C   0  0  0  0  0  0  0  0  0  0  0  0
    0.0000    0.0000    0.0000 O   0  0  0  0  0  0  0  0  0  0  0  0
    0.0000    0.0000    0.0000 O   0  0  0  0  0  0  0  0  0  0  0  0
  1  5  1  0  0  0  0
  1  2  1  0  0  0  0
  2  3  2  0  0  0  0
  3  4  1  0  0  0  0
  3  7  1  0  0  0  0
  4  5  2  0  0  0  0
  5  6  1  0  0  0  0
  7  8  2  3  0  0  0
  7 11  1  0  0  0  0
  8  9  1  0  0  0  0
  9 10  1  0  0  0  0
 11 12  2  0  0  0  0
 11 13  1  0  0  0  0
 13 14  1  0  0  0  0
 14 15  1  0  0  0  0
 14 28  1  0  0  0  0
 14 16  1  0  0  0  0
 16 17  1  0  0  0  0
 16 27  1  0  0  0  0
 16 18  1  0  0  0  0
 18 19  1  0  0  0  0
 19 20  1  0  0  0  0
 20 21  1  0  0  0  0
 20 26  2  0  0  0  0
 21 22  1  0  0  0  0
 22 23  1  0  0  0  0
 23 24  2  0  0  0  0
 23 25  1  0  0  0  0
 26 27  1  0  0  0  0
 26 30  1  0  0  0  0
 27 28  1  0  0  0  0
 28 29  2  0  0  0  0
 30 31  1  0  0  0  0
 30 32  2  0  0  0  0
M  END
> <Index>
1472

> <ID>
HT0412

> <class>
1

> <apol>
56.409481

> <ast_fraglike>
0

> <ast_fraglike_ext>
0

> <ast_violation>
3

> <ast_violation_ext>
5

> <a_acc>
7

> <a_acid>
0

> <a_aro>
5

> <a_base>
0

> <a_count>
47

> <a_don>
4

> <a_donacc>
11

> <a_heavy>
30

> <a_hyd>
12

> <a_IC>
94.31768

> <a_ICM>
2.0067592

> <a_nB>
0

> <a_nBr>
0

> <a_nC>
16

> <a_nCl>
0

> <a_nF>
0

> <a_nH>
17

> <a_nI>
0

> <a_nN>
5

> <a_nO>
7

> <a_nP>
0

> <a_nS>
2

> <balabanJ>
1.6234859

> <BCUT_PEOE_0>
-2.6840024

> <BCUT_PEOE_1>
-0.48805711

> <BCUT_PEOE_2>
0.57758713

> <BCUT_PEOE_3>
2.7354264

> <BCUT_SLOGP_0>
-2.893697

> <BCUT_SLOGP_1>
-0.48425424

> <BCUT_SLOGP_2>
0.52790397

> <BCUT_SLOGP_3>
2.6121321

> <BCUT_SMR_0>
-2.4002705

> <BCUT_SMR_1>
-0.3029882

> <BCUT_SMR_2>
0.77570564

> <BCUT_SMR_3>
3.0171263

> <bpol>
34.108521

> <b_1rotN>
7

> <b_1rotR>
0.21875

> <b_ar>
5

> <b_count>
49

> <b_double>
6

> <b_heavy>
32

> <b_max1len>
3

> <b_rotN>
9

> <b_rotR>
0.28125

> <b_single>
38

> <b_triple>
0

> <chi0>
21.999271

> <chi0v>
17.411449

> <chi0v_C>
9.6462641

> <chi0_C>
10.472174

> <chi1>
14.23929

> <chi1v>
10.33771

> <chi1v_C>
3.1177905

> <chi1_C>
3.8020952

> <chiral>
2

> <chiral_u>
0

> <density>
0.91601431

> <diameter>
15

> <FCharge>
0

> <GCUT_PEOE_0>
-0.82318097

> <GCUT_PEOE_1>
-0.46294308

> <GCUT_PEOE_2>
0.053508703

> <GCUT_PEOE_3>
2.6004574

> <GCUT_SLOGP_0>
-1.3345555

> <GCUT_SLOGP_1>
-0.41932288

> <GCUT_SLOGP_2>
0.10324202

> <GCUT_SLOGP_3>
2.5357614

> <GCUT_SMR_0>
-0.52910936

> <GCUT_SMR_1>
-0.22191107

> <GCUT_SMR_2>
0.28488615

> <GCUT_SMR_3>
2.8803923

> <Kier1>
24.638672

> <Kier2>
10.744802

> <Kier3>
5.5067639

> <KierA1>
20.686972

> <KierA2>
8.9642591

> <KierA3>
4.5735641

> <KierFlex>
6.1814451

> <lip_acc>
12

> <lip_don>
4

> <lip_druglike>
1

> <lip_violation>
1

> <logP(o/w)>
-0.64499998

> <logS>
-3.6642799

> <mr>
10.713508

> <mutagenic>
1

> <nmol>
1

> <opr_brigid>
15

> <opr_leadlike>
0

> <opr_nring>
3

> <opr_nrot>
7

> <opr_violation>
2

> <PC+>
0

> <PC->
0

> <PEOE_PC+>
3.4600267

> <PEOE_PC->
-3.4600267

> <PEOE_RPC+>
0.089013033

> <PEOE_RPC->
0.097326182

> <PEOE_VSA+0>
50.751984

> <PEOE_VSA+1>
93.938217

> <PEOE_VSA+2>
32.205559

> <PEOE_VSA+3>
35.079182

> <PEOE_VSA+4>
10.324173

> <PEOE_VSA+5>
40.607563

> <PEOE_VSA+6>
14.708499

> <PEOE_VSA-0>
2.2085397

> <PEOE_VSA-1>
14.230966

> <PEOE_VSA-2>
30.64588

> <PEOE_VSA-3>
0.0

> <PEOE_VSA-4>
5.6825762

> <PEOE_VSA-5>
66.821159

> <PEOE_VSA-6>
10.408187

> <PEOE_VSA_FHYD>
0.63555545

> <PEOE_VSA_FNEG>
0.31892377

> <PEOE_VSA_FPNEG>
0.2034087

> <PEOE_VSA_FPOL>
0.36444458

> <PEOE_VSA_FPOS>
0.68107623

> <PEOE_VSA_FPPOS>
0.16103588

> <PEOE_VSA_HYD>
259.06033

> <PEOE_VSA_NEG>
129.99731

> <PEOE_VSA_PNEG>
82.911926

> <PEOE_VSA_POL>
148.55215

> <PEOE_VSA_POS>
277.61517

> <PEOE_VSA_PPOS>
65.640236

> <petitjean>
0.46666667

> <petitjeanSC>
0.875

> <Q_PC+>
0

> <Q_PC->
0

> <Q_RPC+>
0

> <Q_RPC->
0

> <Q_VSA_FHYD>
1

> <Q_VSA_FNEG>
0

> <Q_VSA_FPNEG>
0

> <Q_VSA_FPOL>
0

> <Q_VSA_FPOS>
1

> <Q_VSA_FPPOS>
0

> <Q_VSA_HYD>
407.61249

> <Q_VSA_NEG>
0

> <Q_VSA_PNEG>
0

> <Q_VSA_POL>
0

> <Q_VSA_POS>
407.61249

> <Q_VSA_PPOS>
0

> <radius>
8

> <reactive>
1

> <rings>
3

> <RPC+>
0

> <RPC->
0

> <rsynth>
0.5

> <SlogP>
-0.6225

> <SlogP_VSA0>
50.90794

> <SlogP_VSA1>
48.675087

> <SlogP_VSA2>
123.99661

> <SlogP_VSA3>
63.545048

> <SlogP_VSA4>
2.7567475

> <SlogP_VSA5>
60.726051

> <SlogP_VSA6>
0.0

> <SlogP_VSA7>
15.81601

> <SlogP_VSA8>
0.0

> <SlogP_VSA9>
97.32399

> <SMR>
10.63909

> <SMR_VSA0>
117.66752

> <SMR_VSA1>
39.309704

> <SMR_VSA2>
43.395977

> <SMR_VSA3>
15.028167

> <SMR_VSA4>
0.50074643

> <SMR_VSA5>
48.7132

> <SMR_VSA6>
66.925064

> <SMR_VSA7>
132.20711

> <TPSA>
173.50999

> <VAdjEq>
0.37005648

> <VAdjMa>
6.0

> <VDistEq>
3.6624897

> <VDistMa>
9.5229187

> <vdw_area>
407.61249

> <vdw_vol>
497.23239

> <vsa_acc>
57.2686

> <vsa_acid>
0

> <vsa_base>
0

> <vsa_don>
23.425066

> <vsa_hyd>
193.1985

> <vsa_other>
83.588348

> <vsa_pol>
107.82751

> <Weight>
455.47198

> <weinerPath>
2584

> <weinerPol>
46

> <zagreb>
156

$$$$
Row1472
 OpenBabel06061811532D

 37 40  0  0  1  0  0  0  0  0999 V2000
    0.0000    0.0000    0.0000 S   0  0  0  0  0  0  0  0  0  0  0  0
    0.0000    0.0000    0.0000 C   0  0  0  0  0  0  0  0  0  0  0  0
    0.0000    0.0000    0.0000 S   0  0  0  0  0  0  0  0  0  0  0  0
    0.0000    0.0000    0.0000 C   0  0  3  0  0  0  0  0  0  0  0  0
    0.0000    0.0000    0.0000 C   0  0  0  0  0  0  0  0  0  0  0  0
    0.0000    0.0000    0.0000 O   0  0  0  0  0  0  0  0  0  0  0  0
    0.0000    0.0000    0.0000 N   0  0  0  0  0  0  0  0  0  0  0  0
    0.0000    0.0000    0.0000 C   0  0  1  0  0  0  0  0  0  0  0  0
    0.0000    0.0000    0.0000 O   0  0  0  0  0  0  0  0  0  0  0  0
    0.0000    0.0000    0.0000 C   0  0  0  0  0  0  0  0  0  0  0  0
    0.0000    0.0000    0.0000 C   0  0  1  0  0  0  0  0  0  0  0  0
    0.0000    0.0000    0.0000 H   0  0  0  0  0  0  0  0  0  0  0  0
    0.0000    0.0000    0.0000 S   0  0  0  0  0  0  0  0  0  0  0  0
    0.0000    0.0000    0.0000 C   0  0  0  0  0  0  0  0  0  0  0  0
    0.0000    0.0000    0.0000 C   0  0  0  0  0  0  0  0  0  0  0  0
    0.0000    0.0000    0.0000 C   0  0  0  0  0  0  0  0  0  0  0  0
    0.0000    0.0000    0.0000 S   0  0  0  0  0  0  0  0  0  0  0  0
    0.0000    0.0000    0.0000 C   0  0  0  0  0  0  0  0  0  0  0  0
    0.0000    0.0000    0.0000 N   0  0  0  0  0  0  0  0  0  0  0  0
    0.0000    0.0000    0.0000 N   0  0  0  0  0  0  0  0  0  0  0  0
    0.0000    0.0000    0.0000 N   0  0  0  0  0  0  0  0  0  0  0  0
    0.0000    0.0000    0.0000 N   0  0  0  0  0  0  0  0  0  0  0  0
    0.0000    0.0000    0.0000 C   0  0  0  0  0  0  0  0  0  0  0  0
    0.0000    0.0000    0.0000 C   0  0  0  0  0  0  0  0  0  0  0  0
    0.0000    0.0000    0.0000 N   0  0  0  0  0  0  0  0  0  0  0  0
    0.0000    0.0000    0.0000 C   0  0  0  0  0  0  0  0  0  0  0  0
    0.0000    0.0000    0.0000 O   0  0  0  0  0  0  0  0  0  0  0  0
    0.0000    0.0000    0.0000 C   0  0  0  0  0  0  0  0  0  0  0  0
    0.0000    0.0000    0.0000 O   0  0  0  0  0  0  0  0  0  0  0  0
    0.0000    0.0000    0.0000 O   0  0  0  0  0  0  0  0  0  0  0  0
    0.0000    0.0000    0.0000 C   0  0  0  0  0  0  0  0  0  0  0  0
    0.0000    0.0000    0.0000 C   0  0  0  0  0  0  0  0  0  0  0  0
    0.0000    0.0000    0.0000 O   0  0  0  0  0  0  0  0  0  0  0  0
    0.0000    0.0000    0.0000 N   0  0  0  0  0  0  0  0  0  0  0  0
    0.0000    0.0000    0.0000 C   0  0  0  0  0  0  0  0  0  0  0  0
    0.0000    0.0000    0.0000 O   0  0  0  0  0  0  0  0  0  0  0  0
    0.0000    0.0000    0.0000 O   0  0  0  0  0  0  0  0  0  0  0  0
  1  4  1  0  0  0  0
  1  2  1  0  0  0  0
  2  3  1  0  0  0  0
  2 31  2  3  0  0  0
  3  4  1  0  0  0  0
  4  5  1  0  0  0  0
  5  6  2  0  0  0  0
  5  7  1  0  0  0  0
  7  8  1  0  0  0  0
  8 26  1  0  0  0  0
  8  9  1  0  0  0  0
  8 11  1  0  0  0  0
  9 10  1  0  0  0  0
 11 12  1  0  0  0  0
 11 25  1  0  0  0  0
 11 13  1  0  0  0  0
 13 14  1  0  0  0  0
 14 15  1  0  0  0  0
 15 16  1  0  0  0  0
 15 24  2  0  0  0  0
 16 17  1  0  0  0  0
 17 18  1  0  0  0  0
 18 22  1  0  0  0  0
 18 19  2  0  0  0  0
 19 20  1  0  0  0  0
 20 21  2  0  0  0  0
 21 22  1  0  0  0  0
 22 23  1  0  0  0  0
 24 25  1  0  0  0  0
 24 28  1  0  0  0  0
 25 26  1  0  0  0  0
 26 27  2  0  0  0  0
 28 29  1  0  0  0  0
 28 30  2  0  0  0  0
 31 32  1  0  0  0  0
 31 35  1  0  0  0  0
 32 33  2  0  0  0  0
 32 34  1  0  0  0  0
 35 36  1  0  0  0  0
 35 37  2  0  0  0  0
M  END
> <Index>
1473

> <ID>
HT0413

> <class>
1

> <apol>
66.971481

> <ast_fraglike>
0

> <ast_fraglike_ext>
0

> <ast_violation>
3

> <ast_violation_ext>
5

> <a_acc>
11

> <a_acid>
0

> <a_aro>
5

> <a_base>
0

> <a_count>
53

> <a_don>
6

> <a_donacc>
17

> <a_heavy>
36

> <a_hyd>
14

> <a_IC>
112.95456

> <a_ICM>
2.1312182

> <a_nB>
0

> <a_nBr>
0

> <a_nC>
17

> <a_nCl>
0

> <a_nF>
0

> <a_nH>
17

> <a_nI>
0

> <a_nN>
7

> <a_nO>
8

> <a_nP>
0

> <a_nS>
4

> <balabanJ>
1.3725584

> <BCUT_PEOE_0>
-2.695461

> <BCUT_PEOE_1>
-0.53309411

> <BCUT_PEOE_2>
0.45940977

> <BCUT_PEOE_3>
2.7812333

> <BCUT_SLOGP_0>
-2.9231846

> <BCUT_SLOGP_1>
-0.51042366

> <BCUT_SLOGP_2>
0.44318956

> <BCUT_SLOGP_3>
2.6413789

> <BCUT_SMR_0>
-2.4304547

> <BCUT_SMR_1>
-0.31765005

> <BCUT_SMR_2>
0.693582

> <BCUT_SMR_3>
3.0416486

> <bpol>
38.370518

> <b_1rotN>
9

> <b_1rotR>
0.23076923

> <b_ar>
5

> <b_count>
56

> <b_double>
7

> <b_heavy>
39

> <b_max1len>
5

> <b_rotN>
10

> <b_rotR>
0.25641027

> <b_single>
44

> <b_triple>
0

> <chi0>
26.361078

> <chi0v>
21.625229

> <chi0v_C>
10.068914

> <chi0_C>
10.842417

> <chi1>
17.011782

> <chi1v>
13.543667

> <chi1v_C>
2.784457

> <chi1_C>
3.3938468

> <chiral>
2

> <chiral_u>
0

> <density>
0.98647285

> <diameter>
17

> <FCharge>
0

> <GCUT_PEOE_0>
-0.81630349

> <GCUT_PEOE_1>
-0.4847658

> <GCUT_PEOE_2>
0.038554322

> <GCUT_PEOE_3>
2.6859777

> <GCUT_SLOGP_0>
-1.3704492

> <GCUT_SLOGP_1>
-0.47928357

> <GCUT_SLOGP_2>
0.098072797

> <GCUT_SLOGP_3>
2.6406653

> <GCUT_SMR_0>
-0.53208643

> <GCUT_SMR_1>
-0.22704303

> <GCUT_SMR_2>
0.25383672

> <GCUT_SMR_3>
2.9741712

> <Kier1>
28.994083

> <Kier2>
11.623096

> <Kier3>
5.4064627

> <KierA1>
26.207661

> <KierA2>
10.474655

> <KierA3>
4.8620543

> <KierFlex>
7.6254501

> <lip_acc>
15

> <lip_don>
5

> <lip_druglike>
0

> <lip_violation>
2

> <logP(o/w)>
-0.74199998

> <logS>
-5.9621

> <mr>
12.965201

> <mutagenic>
0

> <nmol>
1

> <opr_brigid>
19

> <opr_leadlike>
0

> <opr_nring>
4

> <opr_nrot>
9

> <opr_violation>
2

> <PC+>
0

> <PC->
0

> <PEOE_PC+>
4.0946188

> <PEOE_PC->
-4.0946188

> <PEOE_RPC+>
0.075206131

> <PEOE_RPC->
0.089301452

> <PEOE_VSA+0>
99.448799

> <PEOE_VSA+1>
27.487593

> <PEOE_VSA+2>
16.637186

> <PEOE_VSA+3>
25.857038

> <PEOE_VSA+4>
46.7645

> <PEOE_VSA+5>
40.607563

> <PEOE_VSA+6>
14.708499

> <PEOE_VSA-0>
28.527546

> <PEOE_VSA-1>
59.281853

> <PEOE_VSA-2>
29.181658

> <PEOE_VSA-3>
0.0

> <PEOE_VSA-4>
0.0

> <PEOE_VSA-5>
67.834602

> <PEOE_VSA-6>
24.826847

> <PEOE_VSA_FHYD>
0.59526867

> <PEOE_VSA_FNEG>
0.43571973

> <PEOE_VSA_FPNEG>
0.19257781

> <PEOE_VSA_FPOL>
0.4047313

> <PEOE_VSA_FPOS>
0.56428027

> <PEOE_VSA_FPPOS>
0.21215351

> <PEOE_VSA_HYD>
286.42166

> <PEOE_VSA_NEG>
209.65251

> <PEOE_VSA_PNEG>
92.661453

> <PEOE_VSA_POL>
194.74202

> <PEOE_VSA_POS>
271.51117

> <PEOE_VSA_PPOS>
102.08056

> <petitjean>
0.47058824

> <petitjeanSC>
0.8888889

> <Q_PC+>
0

> <Q_PC->
0

> <Q_RPC+>
0

> <Q_RPC->
0

> <Q_VSA_FHYD>
1

> <Q_VSA_FNEG>
0

> <Q_VSA_FPNEG>
0

> <Q_VSA_FPOL>
0

> <Q_VSA_FPOS>
1

> <Q_VSA_FPPOS>
0

> <Q_VSA_HYD>
481.1637

> <Q_VSA_NEG>
0

> <Q_VSA_PNEG>
0

> <Q_VSA_POL>
0

> <Q_VSA_POS>
481.1637

> <Q_VSA_PPOS>
0

> <radius>
9

> <reactive>
0

> <rings>
4

> <RPC+>
0

> <RPC->
0

> <rsynth>
0.19444445

> <SlogP>
-1.0383

> <SlogP_VSA0>
50.90794

> <SlogP_VSA1>
85.91214

> <SlogP_VSA2>
133.79921

> <SlogP_VSA3>
85.237579

> <SlogP_VSA4>
0.0

> <SlogP_VSA5>
45.204845

> <SlogP_VSA6>
0.0

> <SlogP_VSA7>
0.0

> <SlogP_VSA8>
0.0

> <SlogP_VSA9>
161.77534

> <SMR>
12.82697

> <SMR_VSA0>
130.31097

> <SMR_VSA1>
54.644863

> <SMR_VSA2>
69.474281

> <SMR_VSA3>
12.616139

> <SMR_VSA4>
32.897186

> <SMR_VSA5>
0.0

> <SMR_VSA6>
65.734406

> <SMR_VSA7>
197.15923

> <TPSA>
219.92999

> <VAdjEq>
0.3281796

> <VAdjMa>
6.2854023

> <VDistEq>
3.9027357

> <VDistMa>
10.037271

> <vdw_area>
481.1637

> <vdw_vol>
583.52136

> <vsa_acc>
78.944565

> <vsa_acid>
0

> <vsa_base>
0

> <vsa_don>
23.425066

> <vsa_hyd>
216.28305

> <vsa_other>
81.432213

> <vsa_pol>
156.63731

> <Weight>
575.62799

> <weinerPath>
4350

> <weinerPol>
61

> <zagreb>
196

$$$$
Row1473
 OpenBabel06061811532D

 29 31  0  0  1  0  0  0  0  0999 V2000
    0.0000    0.0000    0.0000 S   0  0  0  0  0  0  0  0  0  0  0  0
    0.0000    0.0000    0.0000 C   0  0  0  0  0  0  0  0  0  0  0  0
    0.0000    0.0000    0.0000 C   0  0  0  0  0  0  0  0  0  0  0  0
    0.0000    0.0000    0.0000 C   0  0  0  0  0  0  0  0  0  0  0  0
    0.0000    0.0000    0.0000 C   0  0  0  0  0  0  0  0  0  0  0  0
    0.0000    0.0000    0.0000 C   0  0  0  0  0  0  0  0  0  0  0  0
    0.0000    0.0000    0.0000 C   0  0  0  0  0  0  0  0  0  0  0  0
    0.0000    0.0000    0.0000 O   0  0  0  0  0  0  0  0  0  0  0  0
    0.0000    0.0000    0.0000 N   0  0  0  0  0  0  0  0  0  0  0  0
    0.0000    0.0000    0.0000 C   0  0  1  0  0  0  0  0  0  0  0  0
    0.0000    0.0000    0.0000 O   0  0  0  0  0  0  0  0  0  0  0  0
    0.0000    0.0000    0.0000 C   0  0  0  0  0  0  0  0  0  0  0  0
    0.0000    0.0000    0.0000 C   0  0  1  0  0  0  0  0  0  0  0  0
    0.0000    0.0000    0.0000 H   0  0  0  0  0  0  0  0  0  0  0  0
    0.0000    0.0000    0.0000 S   0  0  0  0  0  0  0  0  0  0  0  0
    0.0000    0.0000    0.0000 C   0  0  0  0  0  0  0  0  0  0  0  0
    0.0000    0.0000    0.0000 C   0  0  0  0  0  0  0  0  0  0  0  0
    0.0000    0.0000    0.0000 C   0  0  0  0  0  0  0  0  0  0  0  0
    0.0000    0.0000    0.0000 O   0  0  0  0  0  0  0  0  0  0  0  0
    0.0000    0.0000    0.0000 C   0  0  0  0  0  0  0  0  0  0  0  0
    0.0000    0.0000    0.0000 O   0  0  0  0  0  0  0  0  0  0  0  0
    0.0000    0.0000    0.0000 N   0  0  0  0  0  0  0  0  0  0  0  0
    0.0000    0.0000    0.0000 C   0  0  0  0  0  0  0  0  0  0  0  0
    0.0000    0.0000    0.0000 N   0  0  0  0  0  0  0  0  0  0  0  0
    0.0000    0.0000    0.0000 C   0  0  0  0  0  0  0  0  0  0  0  0
    0.0000    0.0000    0.0000 O   0  0  0  0  0  0  0  0  0  0  0  0
    0.0000    0.0000    0.0000 C   0  0  0  0  0  0  0  0  0  0  0  0
    0.0000    0.0000    0.0000 O   0  0  0  0  0  0  0  0  0  0  0  0
    0.0000    0.0000    0.0000 O   0  0  0  0  0  0  0  0  0  0  0  0
  1  5  1  0  0  0  0
  1  2  1  0  0  0  0
  2  3  2  0  0  0  0
  3  4  1  0  0  0  0
  4  5  2  0  0  0  0
  5  6  1  0  0  0  0
  6  7  1  0  0  0  0
  7  8  2  0  0  0  0
  7  9  1  0  0  0  0
  9 10  1  0  0  0  0
 10 25  1  0  0  0  0
 10 11  1  0  0  0  0
 10 13  1  0  0  0  0
 11 12  1  0  0  0  0
 13 14  1  0  0  0  0
 13 24  1  0  0  0  0
 13 15  1  0  0  0  0
 15 16  1  0  0  0  0
 16 17  1  0  0  0  0
 17 18  1  0  0  0  0
 17 23  2  0  0  0  0
 18 19  1  0  0  0  0
 19 20  1  0  0  0  0
 20 21  2  0  0  0  0
 20 22  1  0  0  0  0
 23 24  1  0  0  0  0
 23 27  1  0  0  0  0
 24 25  1  0  0  0  0
 25 26  2  0  0  0  0
 27 28  1  0  0  0  0
 27 29  2  0  0  0  0
M  END
> <Index>
1474

> <ID>
HT0415

> <class>
1

> <apol>
54.20948

> <ast_fraglike>
0

> <ast_fraglike_ext>
0

> <ast_violation>
3

> <ast_violation_ext>
5

> <a_acc>
6

> <a_acid>
0

> <a_aro>
5

> <a_base>
0

> <a_count>
45

> <a_don>
4

> <a_donacc>
10

> <a_heavy>
28

> <a_hyd>
13

> <a_IC>
87.24015

> <a_ICM>
1.9386699

> <a_nB>
0

> <a_nBr>
0

> <a_nC>
16

> <a_nCl>
0

> <a_nF>
0

> <a_nH>
17

> <a_nI>
0

> <a_nN>
3

> <a_nO>
7

> <a_nP>
0

> <a_nS>
2

> <balabanJ>
1.6774766

> <BCUT_PEOE_0>
-2.6938624

> <BCUT_PEOE_1>
-0.54036641

> <BCUT_PEOE_2>
0.46399623

> <BCUT_PEOE_3>
2.779125

> <BCUT_SLOGP_0>
-2.921999

> <BCUT_SLOGP_1>
-0.48475417

> <BCUT_SLOGP_2>
0.49507421

> <BCUT_SLOGP_3>
2.6222081

> <BCUT_SMR_0>
-2.4317801

> <BCUT_SMR_1>
-0.32629418

> <BCUT_SMR_2>
0.65123701

> <BCUT_SMR_3>
3.0328431

> <bpol>
32.788521

> <b_1rotN>
7

> <b_1rotR>
0.23333333

> <b_ar>
5

> <b_count>
47

> <b_double>
5

> <b_heavy>
30

> <b_max1len>
5

> <b_rotN>
9

> <b_rotR>
0.30000001

> <b_single>
37

> <b_triple>
0

> <chi0>
20.474327

> <chi0v>
16.301477

> <chi0v_C>
9.4307213

> <chi0_C>
10.361443

> <chi1>
13.296567

> <chi1v>
9.9402046

> <chi1v_C>
3.4082305

> <chi1_C>
4.2852583

> <chiral>
2

> <chiral_u>
0

> <density>
0.90265375

> <diameter>
14

> <FCharge>
0

> <GCUT_PEOE_0>
-0.8025555

> <GCUT_PEOE_1>
-0.47766376

> <GCUT_PEOE_2>
0.044636637

> <GCUT_PEOE_3>
2.6615179

> <GCUT_SLOGP_0>
-1.3703188

> <GCUT_SLOGP_1>
-0.42496917

> <GCUT_SLOGP_2>
0.11980266

> <GCUT_SLOGP_3>
2.596276

> <GCUT_SMR_0>
-0.53254145

> <GCUT_SMR_1>
-0.21988495

> <GCUT_SMR_2>
0.23555109

> <GCUT_SMR_3>
2.9278738

> <Kier1>
22.68

> <Kier2>
9.4276857

> <Kier3>
4.54179

> <KierA1>
19.549397

> <KierA2>
8.0794163

> <KierA3>
3.876255

> <KierFlex>
5.6409893

> <lip_acc>
10

> <lip_don>
4

> <lip_druglike>
1

> <lip_violation>
0

> <logP(o/w)>
0.34599999

> <logS>
-3.7667999

> <mr>
10.178554

> <mutagenic>
0

> <nmol>
1

> <opr_brigid>
14

> <opr_leadlike>
1

> <opr_nring>
3

> <opr_nrot>
7

> <opr_violation>
1

> <PC+>
0

> <PC->
0

> <PEOE_PC+>
3.4286335

> <PEOE_PC->
-3.4286335

> <PEOE_RPC+>
0.1045296

> <PEOE_RPC->
0.1012957

> <PEOE_VSA+0>
65.703278

> <PEOE_VSA+1>
49.074383

> <PEOE_VSA+2>
11.821573

> <PEOE_VSA+3>
45.617657

> <PEOE_VSA+4>
23.273705

> <PEOE_VSA+5>
12.949531

> <PEOE_VSA+6>
33.908009

> <PEOE_VSA-0>
2.2085397

> <PEOE_VSA-1>
28.694408

> <PEOE_VSA-2>
33.991585

> <PEOE_VSA-3>
0.0

> <PEOE_VSA-4>
13.566921

> <PEOE_VSA-5>
43.204517

> <PEOE_VSA-6>
17.059307

> <PEOE_VSA_FHYD>
0.6222198

> <PEOE_VSA_FNEG>
0.3640382

> <PEOE_VSA_FPNEG>
0.19374415

> <PEOE_VSA_FPOL>
0.3777802

> <PEOE_VSA_FPOS>
0.63596177

> <PEOE_VSA_FPPOS>
0.18403605

> <PEOE_VSA_HYD>
237.11142

> <PEOE_VSA_NEG>
138.72528

> <PEOE_VSA_PNEG>
73.83075

> <PEOE_VSA_POL>
143.96199

> <PEOE_VSA_POS>
242.34813

> <PEOE_VSA_PPOS>
70.131248

> <petitjean>
0.5

> <petitjeanSC>
1.0

> <Q_PC+>
0

> <Q_PC->
0

> <Q_RPC+>
0

> <Q_RPC->
0

> <Q_VSA_FHYD>
1

> <Q_VSA_FNEG>
0

> <Q_VSA_FPNEG>
0

> <Q_VSA_FPOL>
0

> <Q_VSA_FPOS>
1

> <Q_VSA_FPPOS>
0

> <Q_VSA_HYD>
381.07343

> <Q_VSA_NEG>
0

> <Q_VSA_PNEG>
0

> <Q_VSA_POL>
0

> <Q_VSA_POS>
381.07343

> <Q_VSA_PPOS>
0

> <radius>
7

> <reactive>
0

> <rings>
3

> <RPC+>
0

> <RPC->
0

> <rsynth>
0.39285713

> <SlogP>
0.098569997

> <SlogP_VSA0>
50.90794

> <SlogP_VSA1>
28.703981

> <SlogP_VSA2>
95.933556

> <SlogP_VSA3>
63.545048

> <SlogP_VSA4>
1.3584013

> <SlogP_VSA5>
60.194595

> <SlogP_VSA6>
0.0

> <SlogP_VSA7>
51.102379

> <SlogP_VSA8>
0.0

> <SlogP_VSA9>
87.359444

> <SMR>
9.91959

> <SMR_VSA0>
117.44864

> <SMR_VSA1>
3.1243138

> <SMR_VSA2>
43.395977

> <SMR_VSA3>
9.647851

> <SMR_VSA4>
32.897186

> <SMR_VSA5>
69.970787

> <SMR_VSA6>
63.739491

> <SMR_VSA7>
98.881096

> <TPSA>
148.25999

> <VAdjEq>
0.38983503

> <VAdjMa>
5.9068904

> <VDistEq>
3.5361001

> <VDistMa>
9.3269644

> <vdw_area>
381.07343

> <vdw_vol>
473.55701

> <vsa_acc>
43.204517

> <vsa_acid>
0

> <vsa_base>
0

> <vsa_don>
23.425066

> <vsa_hyd>
202.00104

> <vsa_other>
62.310829

> <vsa_pol>
93.763428

> <Weight>
427.45801

> <weinerPath>
2071

> <weinerPol>
44

> <zagreb>
148

$$$$
Row1474
 OpenBabel06061811532D

 39 41  0  0  1  0  0  0  0  0999 V2000
    0.0000    0.0000    0.0000 S   0  0  0  0  0  0  0  0  0  0  0  0
    0.0000    0.0000    0.0000 C   0  0  0  0  0  0  0  0  0  0  0  0
    0.0000    0.0000    0.0000 C   0  0  0  0  0  0  0  0  0  0  0  0
    0.0000    0.0000    0.0000 N   0  0  0  0  0  0  0  0  0  0  0  0
    0.0000    0.0000    0.0000 C   0  0  0  0  0  0  0  0  0  0  0  0
    0.0000    0.0000    0.0000 N   0  0  0  0  0  0  0  0  0  0  0  0
    0.0000    0.0000    0.0000 C   0  0  0  0  0  0  0  0  0  0  0  0
    0.0000    0.0000    0.0000 N   0  0  0  0  0  0  0  0  0  0  0  0
    0.0000    0.0000    0.0000 O   0  0  0  0  0  0  0  0  0  0  0  0
    0.0000    0.0000    0.0000 C   0  0  0  0  0  0  0  0  0  0  0  0
    0.0000    0.0000    0.0000 C   0  0  0  0  0  0  0  0  0  0  0  0
    0.0000    0.0000    0.0000 O   0  0  0  0  0  0  0  0  0  0  0  0
    0.0000    0.0000    0.0000 N   0  0  0  0  0  0  0  0  0  0  0  0
    0.0000    0.0000    0.0000 C   0  0  1  0  0  0  0  0  0  0  0  0
    0.0000    0.0000    0.0000 H   0  0  0  0  0  0  0  0  0  0  0  0
    0.0000    0.0000    0.0000 C   0  0  1  0  0  0  0  0  0  0  0  0
    0.0000    0.0000    0.0000 H   0  0  0  0  0  0  0  0  0  0  0  0
    0.0000    0.0000    0.0000 S   0  0  0  0  0  0  0  0  0  0  0  0
    0.0000    0.0000    0.0000 C   0  0  0  0  0  0  0  0  0  0  0  0
    0.0000    0.0000    0.0000 C   0  0  0  0  0  0  0  0  0  0  0  0
    0.0000    0.0000    0.0000 C   0  0  0  0  0  0  0  0  0  0  0  0
    0.0000    0.0000    0.0000 O   0  0  0  0  0  0  0  0  0  0  0  0
    0.0000    0.0000    0.0000 C   0  0  0  0  0  0  0  0  0  0  0  0
    0.0000    0.0000    0.0000 C   0  0  0  0  0  0  0  0  0  0  0  0
    0.0000    0.0000    0.0000 N   0  0  0  0  0  0  0  0  0  0  0  0
    0.0000    0.0000    0.0000 C   0  0  0  0  0  0  0  0  0  0  0  0
    0.0000    0.0000    0.0000 O   0  0  0  0  0  0  0  0  0  0  0  0
    0.0000    0.0000    0.0000 C   0  0  0  0  0  0  0  0  0  0  0  0
    0.0000    0.0000    0.0000 O   0  0  0  0  0  0  0  0  0  0  0  0
    0.0000    0.0000    0.0000 C   0  0  3  0  0  0  0  0  0  0  0  0
    0.0000    0.0000    0.0000 O   0  0  0  0  0  0  0  0  0  0  0  0
    0.0000    0.0000    0.0000 C   0  0  0  0  0  0  0  0  0  0  0  0
    0.0000    0.0000    0.0000 O   0  0  0  0  0  0  0  0  0  0  0  0
    0.0000    0.0000    0.0000 C   0  0  0  0  0  0  0  0  0  0  0  0
    0.0000    0.0000    0.0000 C   0  0  0  0  0  0  0  0  0  0  0  0
    0.0000    0.0000    0.0000 C   0  0  0  0  0  0  0  0  0  0  0  0
    0.0000    0.0000    0.0000 O   0  0  0  0  0  0  0  0  0  0  0  0
    0.0000    0.0000    0.0000 C   0  0  0  0  0  0  0  0  0  0  0  0
    0.0000    0.0000    0.0000 O   0  0  0  0  0  0  0  0  0  0  0  0
  1  5  1  0  0  0  0
  1  2  1  0  0  0  0
  2  3  2  0  0  0  0
  3  4  1  0  0  0  0
  3  7  1  0  0  0  0
  4  5  2  0  0  0  0
  5  6  1  0  0  0  0
  7  8  2  3  0  0  0
  7 11  1  0  0  0  0
  8  9  1  0  0  0  0
  9 10  1  0  0  0  0
 11 12  2  0  0  0  0
 11 13  1  0  0  0  0
 13 14  1  0  0  0  0
 14 15  1  0  0  0  0
 14 26  1  0  0  0  0
 14 16  1  0  0  0  0
 16 17  1  0  0  0  0
 16 25  1  0  0  0  0
 16 18  1  0  0  0  0
 18 19  1  0  0  0  0
 19 20  1  0  0  0  0
 20 21  1  0  0  0  0
 20 24  2  0  0  0  0
 21 22  1  0  0  0  0
 22 23  1  0  0  0  0
 24 25  1  0  0  0  0
 24 28  1  0  0  0  0
 25 26  1  0  0  0  0
 26 27  2  0  0  0  0
 28 29  1  0  0  0  0
 28 39  2  0  0  0  0
 29 30  1  0  0  0  0
 30 31  1  0  0  0  0
 30 38  1  0  0  0  0
 31 32  1  0  0  0  0
 32 33  1  0  0  0  0
 32 37  2  0  0  0  0
 33 34  1  0  0  0  0
 34 35  1  0  0  0  0
 34 36  1  0  0  0  0
M  END
> <Index>
1475

> <ID>
HT0419

> <class>
1

> <apol>
73.481415

> <ast_fraglike>
0

> <ast_fraglike_ext>
0

> <ast_violation>
2

> <ast_violation_ext>
4

> <a_acc>
7

> <a_acid>
0

> <a_aro>
5

> <a_base>
0

> <a_count>
64

> <a_don>
2

> <a_donacc>
9

> <a_heavy>
37

> <a_hyd>
16

> <a_IC>
121.24041

> <a_ICM>
1.8943814

> <a_nB>
0

> <a_nBr>
0

> <a_nC>
21

> <a_nCl>
0

> <a_nF>
0

> <a_nH>
27

> <a_nI>
0

> <a_nN>
5

> <a_nO>
9

> <a_nP>
0

> <a_nS>
2

> <balabanJ>
1.6377839

> <BCUT_PEOE_0>
-2.6863306

> <BCUT_PEOE_1>
-0.35572207

> <BCUT_PEOE_2>
0.39930272

> <BCUT_PEOE_3>
2.7365916

> <BCUT_SLOGP_0>
-2.8940101

> <BCUT_SLOGP_1>
-0.30355865

> <BCUT_SLOGP_2>
0.42142239

> <BCUT_SLOGP_3>
2.6146648

> <BCUT_SMR_0>
-2.4026628

> <BCUT_SMR_1>
-0.12689146

> <BCUT_SMR_2>
0.58970439

> <BCUT_SMR_3>
3.0181248

> <bpol>
50.788589

> <b_1rotN>
10

> <b_1rotR>
0.25641027

> <b_ar>
5

> <b_count>
66

> <b_double>
6

> <b_heavy>
39

> <b_max1len>
4

> <b_rotN>
14

> <b_rotR>
0.35897437

> <b_single>
55

> <b_triple>
0

> <chi0>
27.275291

> <chi0v>
22.343679

> <chi0v_C>
13.800965

> <chi0_C>
14.626874

> <chi1>
17.564989

> <chi1v>
12.869758

> <chi1v_C>
4.3498411

> <chi1_C>
4.9567957

> <chiral>
3

> <chiral_u>
1

> <density>
0.86740834

> <diameter>
18

> <FCharge>
0

> <GCUT_PEOE_0>
-0.82462913

> <GCUT_PEOE_1>
-0.39046058

> <GCUT_PEOE_2>
-0.014023675

> <GCUT_PEOE_3>
2.7019584

> <GCUT_SLOGP_0>
-1.3345566

> <GCUT_SLOGP_1>
-0.36263281

> <GCUT_SLOGP_2>
0.066708632

> <GCUT_SLOGP_3>
2.6463451

> <GCUT_SMR_0>
-0.52991778

> <GCUT_SMR_1>
-0.14796539

> <GCUT_SMR_2>
0.1784907

> <GCUT_SMR_3>
2.9681263

> <Kier1>
31.526627

> <Kier2>
14.578512

> <Kier3>
8.0277777

> <KierA1>
27.399202

> <KierA2>
12.618453

> <KierA3>
6.9281187

> <KierFlex>
9.344203

> <lip_acc>
14

> <lip_don>
3

> <lip_druglike>
0

> <lip_violation>
2

> <logP(o/w)>
1.165

> <logS>
-5.1510701

> <mr>
13.437618

> <mutagenic>
1

> <nmol>
1

> <opr_brigid>
15

> <opr_leadlike>
0

> <opr_nring>
3

> <opr_nrot>
10

> <opr_violation>
2

> <PC+>
0

> <PC->
0

> <PEOE_PC+>
4.0855126

> <PEOE_PC->
-4.0855126

> <PEOE_RPC+>
0.10011735

> <PEOE_RPC->
0.092671454

> <PEOE_VSA+0>
82.594276

> <PEOE_VSA+1>
120.17007

> <PEOE_VSA+2>
32.205559

> <PEOE_VSA+3>
46.234089

> <PEOE_VSA+4>
0.0

> <PEOE_VSA+5>
25.899061

> <PEOE_VSA+6>
35.666977

> <PEOE_VSA-0>
58.451572

> <PEOE_VSA-1>
14.230966

> <PEOE_VSA-2>
30.64588

> <PEOE_VSA-3>
0.0

> <PEOE_VSA-4>
19.249496

> <PEOE_VSA-5>
60.765511

> <PEOE_VSA-6>
2.6406472

> <PEOE_VSA_FHYD>
0.72724241

> <PEOE_VSA_FNEG>
0.35174018

> <PEOE_VSA_FPNEG>
0.15632154

> <PEOE_VSA_FPOL>
0.27275759

> <PEOE_VSA_FPOS>
0.64825982

> <PEOE_VSA_FPPOS>
0.11643605

> <PEOE_VSA_HYD>
384.53241

> <PEOE_VSA_NEG>
185.98407

> <PEOE_VSA_PNEG>
82.655655

> <PEOE_VSA_POL>
144.22169

> <PEOE_VSA_POS>
342.77005

> <PEOE_VSA_PPOS>
61.56604

> <petitjean>
0.5

> <petitjeanSC>
1.0

> <Q_PC+>
0

> <Q_PC->
0

> <Q_RPC+>
0

> <Q_RPC->
0

> <Q_VSA_FHYD>
1

> <Q_VSA_FNEG>
0

> <Q_VSA_FPNEG>
0

> <Q_VSA_FPOL>
0

> <Q_VSA_FPOS>
1

> <Q_VSA_FPPOS>
0

> <Q_VSA_HYD>
528.75409

> <Q_VSA_NEG>
0

> <Q_VSA_PNEG>
0

> <Q_VSA_POL>
0

> <Q_VSA_POS>
528.75409

> <Q_VSA_PPOS>
0

> <radius>
9

> <reactive>
1

> <rings>
3

> <RPC+>
0

> <RPC->
0

> <rsynth>
0.56756759

> <SlogP>
0.82700002

> <SlogP_VSA0>
50.90794

> <SlogP_VSA1>
50.732941

> <SlogP_VSA2>
148.12921

> <SlogP_VSA3>
38.159824

> <SlogP_VSA4>
2.7567475

> <SlogP_VSA5>
96.109917

> <SlogP_VSA6>
0.0

> <SlogP_VSA7>
15.81601

> <SlogP_VSA8>
0.0

> <SlogP_VSA9>
187.83824

> <SMR>
13.22541

> <SMR_VSA0>
150.66718

> <SMR_VSA1>
39.309704

> <SMR_VSA2>
18.01075

> <SMR_VSA3>
30.023317

> <SMR_VSA4>
0.50074643

> <SMR_VSA5>
48.7132

> <SMR_VSA6>
68.982918

> <SMR_VSA7>
234.24301

> <TPSA>
180.97

> <VAdjEq>
0.31532151

> <VAdjMa>
6.2854023

> <VDistEq>
3.92207

> <VDistMa>
10.133896

> <vdw_area>
528.75409

> <vdw_vol>
642.84027

> <vsa_acc>
73.339279

> <vsa_acid>
0

> <vsa_base>
0

> <vsa_don>
23.425066

> <vsa_hyd>
296.13235

> <vsa_other>
109.55434

> <vsa_pol>
96.764343

> <Weight>
557.60498

> <weinerPath>
4697

> <weinerPol>
56

> <zagreb>
188

$$$$
Row1475
 OpenBabel06061811532D

 30 32  0  0  1  0  0  0  0  0999 V2000
    0.0000    0.0000    0.0000 S   0  0  0  0  0  0  0  0  0  0  0  0
    0.0000    0.0000    0.0000 C   0  0  1  0  0  0  0  0  0  0  0  0
    0.0000    0.0000    0.0000 H   0  0  0  0  0  0  0  0  0  0  0  0
    0.0000    0.0000    0.0000 N   0  0  0  0  0  0  0  0  0  0  0  0
    0.0000    0.0000    0.0000 C   0  0  0  0  0  0  0  0  0  0  0  0
    0.0000    0.0000    0.0000 C   0  0  0  0  0  0  0  0  0  0  0  0
    0.0000    0.0000    0.0000 O   0  0  0  0  0  0  0  0  0  0  0  0
    0.0000    0.0000    0.0000 O   0  0  0  0  0  0  0  0  0  0  0  0
    0.0000    0.0000    0.0000 C   0  0  0  0  0  0  0  0  0  0  0  0
    0.0000    0.0000    0.0000 C   0  0  0  0  0  0  0  0  0  0  0  0
    0.0000    0.0000    0.0000 C   0  0  0  0  0  0  0  0  0  0  0  0
    0.0000    0.0000    0.0000 C   0  0  0  0  0  0  0  0  0  0  0  0
    0.0000    0.0000    0.0000 C   0  0  0  0  0  0  0  0  0  0  0  0
    0.0000    0.0000    0.0000 C   0  0  0  0  0  0  0  0  0  0  0  0
    0.0000    0.0000    0.0000 O   0  0  0  0  0  0  0  0  0  0  0  0
    0.0000    0.0000    0.0000 C   0  0  1  0  0  0  0  0  0  0  0  0
    0.0000    0.0000    0.0000 H   0  0  0  0  0  0  0  0  0  0  0  0
    0.0000    0.0000    0.0000 N   0  0  0  0  0  0  0  0  0  0  0  0
    0.0000    0.0000    0.0000 C   0  0  0  0  0  0  0  0  0  0  0  0
    0.0000    0.0000    0.0000 O   0  0  0  0  0  0  0  0  0  0  0  0
    0.0000    0.0000    0.0000 C   0  0  2  0  0  0  0  0  0  0  0  0
    0.0000    0.0000    0.0000 H   0  0  0  0  0  0  0  0  0  0  0  0
    0.0000    0.0000    0.0000 N   0  0  0  0  0  0  0  0  0  0  0  0
    0.0000    0.0000    0.0000 C   0  0  0  0  0  0  0  0  0  0  0  0
    0.0000    0.0000    0.0000 C   0  0  0  0  0  0  0  0  0  0  0  0
    0.0000    0.0000    0.0000 C   0  0  0  0  0  0  0  0  0  0  0  0
    0.0000    0.0000    0.0000 C   0  0  0  0  0  0  0  0  0  0  0  0
    0.0000    0.0000    0.0000 O   0  0  0  0  0  0  0  0  0  0  0  0
    0.0000    0.0000    0.0000 C   0  0  0  0  0  0  0  0  0  0  0  0
    0.0000    0.0000    0.0000 C   0  0  0  0  0  0  0  0  0  0  0  0
  1 10  1  0  0  0  0
  1  2  1  0  0  0  0
  2  3  1  0  0  0  0
  2 16  1  0  0  0  0
  2  4  1  0  0  0  0
  4  5  1  0  0  0  0
  4 14  1  0  0  0  0
  5  6  1  0  0  0  0
  5  9  2  0  0  0  0
  6  7  1  0  0  0  0
  6  8  2  0  0  0  0
  9 10  1  0  0  0  0
  9 11  1  0  0  0  0
 11 12  2  3  0  0  0
 12 13  1  0  0  0  0
 14 15  2  0  0  0  0
 14 16  1  0  0  0  0
 16 17  1  0  0  0  0
 16 18  1  0  0  0  0
 18 19  1  0  0  0  0
 19 20  2  0  0  0  0
 19 21  1  0  0  0  0
 21 22  1  0  0  0  0
 21 23  1  0  0  0  0
 21 24  1  0  0  0  0
 24 30  1  0  0  0  0
 24 25  2  0  0  0  0
 25 26  1  0  0  0  0
 26 27  2  0  0  0  0
 27 28  1  0  0  0  0
 27 29  1  0  0  0  0
 29 30  2  0  0  0  0
M  END
> <Index>
1476

> <ID>
HT0420

> <class>
1

> <apol>
54.559067

> <ast_fraglike>
0

> <ast_fraglike_ext>
0

> <ast_violation>
3

> <ast_violation_ext>
5

> <a_acc>
6

> <a_acid>
0

> <a_aro>
6

> <a_base>
0

> <a_count>
46

> <a_don>
5

> <a_donacc>
11

> <a_heavy>
27

> <a_hyd>
16

> <a_IC>
81.95005

> <a_ICM>
1.7815228

> <a_nB>
0

> <a_nBr>
0

> <a_nC>
18

> <a_nCl>
0

> <a_nF>
0

> <a_nH>
19

> <a_nI>
0

> <a_nN>
3

> <a_nO>
5

> <a_nP>
0

> <a_nS>
1

> <balabanJ>
1.579458

> <BCUT_PEOE_0>
-2.6845546

> <BCUT_PEOE_1>
-0.64274359

> <BCUT_PEOE_2>
0.70317298

> <BCUT_PEOE_3>
2.7331178

> <BCUT_SLOGP_0>
-2.8969965

> <BCUT_SLOGP_1>
-0.57981408

> <BCUT_SLOGP_2>
0.78610903

> <BCUT_SLOGP_3>
2.6114233

> <BCUT_SMR_0>
-2.3996651

> <BCUT_SMR_1>
-0.49986199

> <BCUT_SMR_2>
0.85431087

> <BCUT_SMR_3>
3.015192

> <bpol>
27.904934

> <b_1rotN>
5

> <b_1rotR>
0.1724138

> <b_ar>
6

> <b_count>
48

> <b_double>
5

> <b_heavy>
29

> <b_max1len>
3

> <b_rotN>
6

> <b_rotR>
0.20689656

> <b_single>
37

> <b_triple>
0

> <chi0>
19.714813

> <chi0v>
15.27174

> <chi0v_C>
10.403259

> <chi0_C>
11.72325

> <chi1>
12.845443

> <chi1v>
9.2837772

> <chi1v_C>
5.073638

> <chi1_C>
6.6565967

> <chiral>
3

> <chiral_u>
0

> <density>
0.821154

> <diameter>
15

> <FCharge>
0

> <GCUT_PEOE_0>
-0.82489461

> <GCUT_PEOE_1>
-0.41901878

> <GCUT_PEOE_2>
0.10118989

> <GCUT_PEOE_3>
2.6282167

> <GCUT_SLOGP_0>
-1.3374596

> <GCUT_SLOGP_1>
-0.39612231

> <GCUT_SLOGP_2>
0.16445385

> <GCUT_SLOGP_3>
2.6131606

> <GCUT_SMR_0>
-0.52891588

> <GCUT_SMR_1>
-0.23082197

> <GCUT_SMR_2>
0.22666036

> <GCUT_SMR_3>
2.9083002

> <Kier1>
21.702734

> <Kier2>
9.212018

> <Kier3>
4.4518433

> <KierA1>
17.398474

> <KierA2>
7.3182964

> <KierA3>
3.5128868

> <KierFlex>
4.7158217

> <lip_acc>
8

> <lip_don>
5

> <lip_druglike>
1

> <lip_violation>
0

> <logP(o/w)>
0.61400002

> <logS>
-3.8141699

> <mr>
10.019318

> <mutagenic>
0

> <nmol>
1

> <opr_brigid>
16

> <opr_leadlike>
1

> <opr_nring>
3

> <opr_nrot>
5

> <opr_violation>
0

> <PC+>
0

> <PC->
0

> <PEOE_PC+>
2.9552345

> <PEOE_PC->
-2.9552345

> <PEOE_RPC+>
0.10429818

> <PEOE_RPC->
0.12176101

> <PEOE_VSA+0>
32.004307

> <PEOE_VSA+1>
46.846992

> <PEOE_VSA+2>
35.351521

> <PEOE_VSA+3>
8.6190128

> <PEOE_VSA+4>
33.597878

> <PEOE_VSA+5>
12.949531

> <PEOE_VSA+6>
14.708499

> <PEOE_VSA-0>
47.674564

> <PEOE_VSA-1>
49.019615

> <PEOE_VSA-2>
19.760618

> <PEOE_VSA-3>
0.0

> <PEOE_VSA-4>
0.0

> <PEOE_VSA-5>
40.700764

> <PEOE_VSA-6>
22.323092

> <PEOE_VSA_FHYD>
0.6581555

> <PEOE_VSA_FNEG>
0.49367487

> <PEOE_VSA_FPNEG>
0.17335372

> <PEOE_VSA_FPOL>
0.34184453

> <PEOE_VSA_FPOS>
0.50632513

> <PEOE_VSA_FPPOS>
0.1684908

> <PEOE_VSA_HYD>
239.27663

> <PEOE_VSA_NEG>
179.47865

> <PEOE_VSA_PNEG>
63.023853

> <PEOE_VSA_POL>
124.27976

> <PEOE_VSA_POS>
184.07774

> <PEOE_VSA_PPOS>
61.255905

> <petitjean>
0.46666667

> <petitjeanSC>
0.875

> <Q_PC+>
0

> <Q_PC->
0

> <Q_RPC+>
0

> <Q_RPC->
0

> <Q_VSA_FHYD>
1

> <Q_VSA_FNEG>
0

> <Q_VSA_FPNEG>
0

> <Q_VSA_FPOL>
0

> <Q_VSA_FPOS>
1

> <Q_VSA_FPPOS>
0

> <Q_VSA_HYD>
363.5564

> <Q_VSA_NEG>
0

> <Q_VSA_PNEG>
0

> <Q_VSA_POL>
0

> <Q_VSA_POS>
363.5564

> <Q_VSA_PPOS>
0

> <radius>
8

> <reactive>
0

> <rings>
3

> <RPC+>
0

> <RPC->
0

> <rsynth>
1.0

> <SlogP>
0.80220002

> <SlogP_VSA0>
76.293167

> <SlogP_VSA1>
21.387344

> <SlogP_VSA2>
77.915749

> <SlogP_VSA3>
42.61879

> <SlogP_VSA4>
3.185575

> <SlogP_VSA5>
5.9423227

> <SlogP_VSA6>
0.0

> <SlogP_VSA7>
105.85911

> <SlogP_VSA8>
3.9819686

> <SlogP_VSA9>
70.788986

> <SMR>
9.96457

> <SMR_VSA0>
71.586647

> <SMR_VSA1>
28.509541

> <SMR_VSA2>
43.395977

> <SMR_VSA3>
24.68239

> <SMR_VSA4>
32.897186

> <SMR_VSA5>
105.85911

> <SMR_VSA6>
35.496597

> <SMR_VSA7>
65.545555

> <TPSA>
132.96001

> <VAdjEq>
0.40063059

> <VAdjMa>
5.8579812

> <VDistEq>
3.584523

> <VDistMa>
9.2044935

> <vdw_area>
363.5564

> <vdw_vol>
474.24966

> <vsa_acc>
27.133842

> <vsa_acid>
0

> <vsa_base>
0

> <vsa_don>
5.6825762

> <vsa_hyd>
203.45445

> <vsa_other>
40.607563

> <vsa_pol>
91.259666

> <Weight>
389.43201

> <weinerPath>
1954

> <weinerPol>
44

> <zagreb>
142

$$$$
Row1476
 OpenBabel06061811532D

 29 31  0  0  1  0  0  0  0  0999 V2000
    0.0000    0.0000    0.0000 S   0  0  0  0  0  0  0  0  0  0  0  0
    0.0000    0.0000    0.0000 C   0  0  0  0  0  0  0  0  0  0  0  0
    0.0000    0.0000    0.0000 C   0  0  0  0  0  0  0  0  0  0  0  0
    0.0000    0.0000    0.0000 N   0  0  0  0  0  0  0  0  0  0  0  0
    0.0000    0.0000    0.0000 C   0  0  0  0  0  0  0  0  0  0  0  0
    0.0000    0.0000    0.0000 N   0  0  0  0  0  0  0  0  0  0  0  0
    0.0000    0.0000    0.0000 C   0  0  0  0  0  0  0  0  0  0  0  0
    0.0000    0.0000    0.0000 C   0  0  0  0  0  0  0  0  0  0  0  0
    0.0000    0.0000    0.0000 C   0  0  0  0  0  0  0  0  0  0  0  0
    0.0000    0.0000    0.0000 C   0  0  0  0  0  0  0  0  0  0  0  0
    0.0000    0.0000    0.0000 O   0  0  0  0  0  0  0  0  0  0  0  0
    0.0000    0.0000    0.0000 O   0  0  0  0  0  0  0  0  0  0  0  0
    0.0000    0.0000    0.0000 C   0  0  0  0  0  0  0  0  0  0  0  0
    0.0000    0.0000    0.0000 O   0  0  0  0  0  0  0  0  0  0  0  0
    0.0000    0.0000    0.0000 N   0  0  0  0  0  0  0  0  0  0  0  0
    0.0000    0.0000    0.0000 C   0  0  1  0  0  0  0  0  0  0  0  0
    0.0000    0.0000    0.0000 H   0  0  0  0  0  0  0  0  0  0  0  0
    0.0000    0.0000    0.0000 C   0  0  1  0  0  0  0  0  0  0  0  0
    0.0000    0.0000    0.0000 H   0  0  0  0  0  0  0  0  0  0  0  0
    0.0000    0.0000    0.0000 S   0  0  0  0  0  0  0  0  0  0  0  0
    0.0000    0.0000    0.0000 C   0  0  0  0  0  0  0  0  0  0  0  0
    0.0000    0.0000    0.0000 C   0  0  0  0  0  0  0  0  0  0  0  0
    0.0000    0.0000    0.0000 C   0  0  0  0  0  0  0  0  0  0  0  0
    0.0000    0.0000    0.0000 N   0  0  0  0  0  0  0  0  0  0  0  0
    0.0000    0.0000    0.0000 C   0  0  0  0  0  0  0  0  0  0  0  0
    0.0000    0.0000    0.0000 O   0  0  0  0  0  0  0  0  0  0  0  0
    0.0000    0.0000    0.0000 C   0  0  0  0  0  0  0  0  0  0  0  0
    0.0000    0.0000    0.0000 O   0  0  0  0  0  0  0  0  0  0  0  0
    0.0000    0.0000    0.0000 O   0  0  0  0  0  0  0  0  0  0  0  0
  1  5  1  0  0  0  0
  1  2  1  0  0  0  0
  2  3  2  0  0  0  0
  3  4  1  0  0  0  0
  3  7  1  0  0  0  0
  4  5  2  0  0  0  0
  5  6  1  0  0  0  0
  7  8  2  0  0  0  0
  7 13  1  0  0  0  0
  8  9  1  0  0  0  0
  9 10  1  0  0  0  0
 10 11  1  0  0  0  0
 10 12  2  0  0  0  0
 13 14  2  0  0  0  0
 13 15  1  0  0  0  0
 15 16  1  0  0  0  0
 16 17  1  0  0  0  0
 16 25  1  0  0  0  0
 16 18  1  0  0  0  0
 18 19  1  0  0  0  0
 18 24  1  0  0  0  0
 18 20  1  0  0  0  0
 20 21  1  0  0  0  0
 21 22  1  0  0  0  0
 22 23  2  0  0  0  0
 23 24  1  0  0  0  0
 23 27  1  0  0  0  0
 24 25  1  0  0  0  0
 25 26  2  0  0  0  0
 27 28  1  0  0  0  0
 27 29  2  0  0  0  0
M  END
> <Index>
1477

> <ID>
HT0424

> <class>
1

> <apol>
50.747101

> <ast_fraglike>
0

> <ast_fraglike_ext>
0

> <ast_violation>
3

> <ast_violation_ext>
5

> <a_acc>
7

> <a_acid>
0

> <a_aro>
5

> <a_base>
0

> <a_count>
41

> <a_don>
6

> <a_donacc>
13

> <a_heavy>
27

> <a_hyd>
12

> <a_IC>
82.24353

> <a_ICM>
2.0059397

> <a_nB>
0

> <a_nBr>
0

> <a_nC>
15

> <a_nCl>
0

> <a_nF>
0

> <a_nH>
14

> <a_nI>
0

> <a_nN>
4

> <a_nO>
6

> <a_nP>
0

> <a_nS>
2

> <balabanJ>
1.6216742

> <BCUT_PEOE_0>
-2.6773541

> <BCUT_PEOE_1>
-0.59368551

> <BCUT_PEOE_2>
0.68071401

> <BCUT_PEOE_3>
2.7261267

> <BCUT_SLOGP_0>
-2.8878078

> <BCUT_SLOGP_1>
-0.58354878

> <BCUT_SLOGP_2>
0.6958769

> <BCUT_SLOGP_3>
2.5966706

> <BCUT_SMR_0>
-2.3923724

> <BCUT_SMR_1>
-0.41599211

> <BCUT_SMR_2>
0.88949323

> <BCUT_SMR_3>
3.0082352

> <bpol>
26.996899

> <b_1rotN>
6

> <b_1rotR>
0.20689656

> <b_ar>
5

> <b_count>
43

> <b_double>
6

> <b_heavy>
29

> <b_max1len>
3

> <b_rotN>
7

> <b_rotR>
0.24137931

> <b_single>
32

> <b_triple>
0

> <chi0>
19.714813

> <chi0v>
15.249653

> <chi0v_C>
8.3009653

> <chi0_C>
9.3090363

> <chi1>
12.790602

> <chi1v>
9.5443821

> <chi1v_C>
3.4080839

> <chi1_C>
4.2996597

> <chiral>
2

> <chiral_u>
0

> <density>
0.92070478

> <diameter>
12

> <FCharge>
0

> <GCUT_PEOE_0>
-0.82367295

> <GCUT_PEOE_1>
-0.48445347

> <GCUT_PEOE_2>
0.11966088

> <GCUT_PEOE_3>
2.5406291

> <GCUT_SLOGP_0>
-1.3345386

> <GCUT_SLOGP_1>
-0.42892739

> <GCUT_SLOGP_2>
0.14529833

> <GCUT_SLOGP_3>
2.5102994

> <GCUT_SMR_0>
-0.52850544

> <GCUT_SMR_1>
-0.24468908

> <GCUT_SMR_2>
0.30297053

> <GCUT_SMR_3>
2.8299437

> <Kier1>
21.702734

> <Kier2>
9.212018

> <Kier3>
4.7755103

> <KierA1>
17.937546

> <KierA2>
7.5548201

> <KierA3>
3.8938375

> <KierFlex>
5.0190716

> <lip_acc>
10

> <lip_don>
5

> <lip_druglike>
1

> <lip_violation>
0

> <logP(o/w)>
-0.61199999

> <logS>
-3.0734301

> <mr>
9.7461996

> <mutagenic>
1

> <nmol>
1

> <opr_brigid>
15

> <opr_leadlike>
1

> <opr_nring>
3

> <opr_nrot>
6

> <opr_violation>
1

> <PC+>
0

> <PC->
0

> <PEOE_PC+>
3.2082481

> <PEOE_PC->
-3.2082481

> <PEOE_RPC+>
0.09589079

> <PEOE_RPC->
0.10538018

> <PEOE_VSA+0>
27.738918

> <PEOE_VSA+1>
52.102959

> <PEOE_VSA+2>
32.205559

> <PEOE_VSA+3>
28.379631

> <PEOE_VSA+4>
20.648346

> <PEOE_VSA+5>
40.607563

> <PEOE_VSA+6>
14.708499

> <PEOE_VSA-0>
12.254904

> <PEOE_VSA-1>
26.48587

> <PEOE_VSA-2>
19.760618

> <PEOE_VSA-3>
0.0

> <PEOE_VSA-4>
5.6825762

> <PEOE_VSA-5>
60.918804

> <PEOE_VSA-6>
15.671971

> <PEOE_VSA_FHYD>
0.55696326

> <PEOE_VSA_FNEG>
0.39414349

> <PEOE_VSA_FPNEG>
0.23035032

> <PEOE_VSA_FPOL>
0.44303674

> <PEOE_VSA_FPOS>
0.60585648

> <PEOE_VSA_FPPOS>
0.21268642

> <PEOE_VSA_HYD>
198.92847

> <PEOE_VSA_NEG>
140.77473

> <PEOE_VSA_PNEG>
82.273354

> <PEOE_VSA_POL>
158.23776

> <PEOE_VSA_POS>
216.39148

> <PEOE_VSA_PPOS>
75.964409

> <petitjean>
0.5

> <petitjeanSC>
1.0

> <Q_PC+>
0

> <Q_PC->
0

> <Q_RPC+>
0

> <Q_RPC->
0

> <Q_VSA_FHYD>
1

> <Q_VSA_FNEG>
0

> <Q_VSA_FPNEG>
0

> <Q_VSA_FPOL>
0

> <Q_VSA_FPOS>
1

> <Q_VSA_FPPOS>
0

> <Q_VSA_HYD>
357.16623

> <Q_VSA_NEG>
0

> <Q_VSA_PNEG>
0

> <Q_VSA_POL>
0

> <Q_VSA_POS>
357.16623

> <Q_VSA_PPOS>
0

> <radius>
6

> <reactive>
0

> <rings>
3

> <RPC+>
0

> <RPC->
0

> <rsynth>
1.0

> <SlogP>
-0.0482

> <SlogP_VSA0>
50.90794

> <SlogP_VSA1>
45.918339

> <SlogP_VSA2>
101.77796

> <SlogP_VSA3>
68.004021

> <SlogP_VSA4>
2.7567475

> <SlogP_VSA5>
2.7567475

> <SlogP_VSA6>
0.0

> <SlogP_VSA7>
54.287952

> <SlogP_VSA8>
18.868406

> <SlogP_VSA9>
63.997974

> <SMR>
9.7498703

> <SMR_VSA0>
95.448868

> <SMR_VSA1>
19.909843

> <SMR_VSA2>
68.781204

> <SMR_VSA3>
11.842591

> <SMR_VSA4>
3.6863215

> <SMR_VSA5>
102.86797

> <SMR_VSA6>
43.242062

> <SMR_VSA7>
63.497231

> <TPSA>
162.92

> <VAdjEq>
0.40063059

> <VAdjMa>
5.8579812

> <VDistEq>
3.4552724

> <VDistMa>
9.2330074

> <vdw_area>
357.16623

> <vdw_vol>
445.77914

> <vsa_acc>
32.816418

> <vsa_acid>
0

> <vsa_base>
0

> <vsa_don>
23.425066

> <vsa_hyd>
153.49864

> <vsa_other>
68.482681

> <vsa_pol>
110.50917

> <Weight>
410.431

> <weinerPath>
1897

> <weinerPol>
40

> <zagreb>
142

$$$$
Row1477
 OpenBabel06061811532D

 27 29  0  0  1  0  0  0  0  0999 V2000
    0.0000    0.0000    0.0000 S   0  0  0  0  0  0  0  0  0  0  0  0
    0.0000    0.0000    0.0000 C   0  0  0  0  0  0  0  0  0  0  0  0
    0.0000    0.0000    0.0000 C   0  0  0  0  0  0  0  0  0  0  0  0
    0.0000    0.0000    0.0000 N   0  0  0  0  0  0  0  0  0  0  0  0
    0.0000    0.0000    0.0000 C   0  0  0  0  0  0  0  0  0  0  0  0
    0.0000    0.0000    0.0000 N   0  0  0  0  0  0  0  0  0  0  0  0
    0.0000    0.0000    0.0000 C   0  0  0  0  0  0  0  0  0  0  0  0
    0.0000    0.0000    0.0000 N   0  0  0  0  0  0  0  0  0  0  0  0
    0.0000    0.0000    0.0000 O   0  0  0  0  0  0  0  0  0  0  0  0
    0.0000    0.0000    0.0000 C   0  0  0  0  0  0  0  0  0  0  0  0
    0.0000    0.0000    0.0000 C   0  0  0  0  0  0  0  0  0  0  0  0
    0.0000    0.0000    0.0000 O   0  0  0  0  0  0  0  0  0  0  0  0
    0.0000    0.0000    0.0000 N   0  0  0  0  0  0  0  0  0  0  0  0
    0.0000    0.0000    0.0000 C   0  0  1  0  0  0  0  0  0  0  0  0
    0.0000    0.0000    0.0000 H   0  0  0  0  0  0  0  0  0  0  0  0
    0.0000    0.0000    0.0000 C   0  0  1  0  0  0  0  0  0  0  0  0
    0.0000    0.0000    0.0000 H   0  0  0  0  0  0  0  0  0  0  0  0
    0.0000    0.0000    0.0000 S   0  0  0  0  0  0  0  0  0  0  0  0
    0.0000    0.0000    0.0000 C   0  0  0  0  0  0  0  0  0  0  0  0
    0.0000    0.0000    0.0000 C   0  0  0  0  0  0  0  0  0  0  0  0
    0.0000    0.0000    0.0000 C   0  0  0  0  0  0  0  0  0  0  0  0
    0.0000    0.0000    0.0000 N   0  0  0  0  0  0  0  0  0  0  0  0
    0.0000    0.0000    0.0000 C   0  0  0  0  0  0  0  0  0  0  0  0
    0.0000    0.0000    0.0000 O   0  0  0  0  0  0  0  0  0  0  0  0
    0.0000    0.0000    0.0000 C   0  0  0  0  0  0  0  0  0  0  0  0
    0.0000    0.0000    0.0000 O   0  0  0  0  0  0  0  0  0  0  0  0
    0.0000    0.0000    0.0000 O   0  0  0  0  0  0  0  0  0  0  0  0
  1  5  1  0  0  0  0
  1  2  1  0  0  0  0
  2  3  2  0  0  0  0
  3  4  1  0  0  0  0
  3  7  1  0  0  0  0
  4  5  2  0  0  0  0
  5  6  1  0  0  0  0
  7  8  2  3  0  0  0
  7 11  1  0  0  0  0
  8  9  1  0  0  0  0
  9 10  1  0  0  0  0
 11 12  2  0  0  0  0
 11 13  1  0  0  0  0
 13 14  1  0  0  0  0
 14 15  1  0  0  0  0
 14 23  1  0  0  0  0
 14 16  1  0  0  0  0
 16 17  1  0  0  0  0
 16 22  1  0  0  0  0
 16 18  1  0  0  0  0
 18 19  1  0  0  0  0
 19 20  1  0  0  0  0
 20 21  2  0  0  0  0
 21 22  1  0  0  0  0
 21 25  1  0  0  0  0
 22 23  1  0  0  0  0
 23 24  2  0  0  0  0
 25 26  1  0  0  0  0
 25 27  2  0  0  0  0
M  END
> <Index>
1478

> <ID>
HT0425

> <class>
1

> <apol>
46.858311

> <ast_fraglike>
0

> <ast_fraglike_ext>
0

> <ast_violation>
3

> <ast_violation_ext>
5

> <a_acc>
6

> <a_acid>
0

> <a_aro>
5

> <a_base>
0

> <a_count>
38

> <a_don>
4

> <a_donacc>
10

> <a_heavy>
25

> <a_hyd>
10

> <a_IC>
77.990532

> <a_ICM>
2.0523825

> <a_nB>
0

> <a_nBr>
0

> <a_nC>
13

> <a_nCl>
0

> <a_nF>
0

> <a_nH>
13

> <a_nI>
0

> <a_nN>
5

> <a_nO>
5

> <a_nP>
0

> <a_nS>
2

> <balabanJ>
1.6102258

> <BCUT_PEOE_0>
-2.6763177

> <BCUT_PEOE_1>
-0.59280986

> <BCUT_PEOE_2>
0.6446979

> <BCUT_PEOE_3>
2.7267034

> <BCUT_SLOGP_0>
-2.8910089

> <BCUT_SLOGP_1>
-0.58921123

> <BCUT_SLOGP_2>
0.69407922

> <BCUT_SLOGP_3>
2.5953934

> <BCUT_SMR_0>
-2.3919497

> <BCUT_SMR_1>
-0.41208899

> <BCUT_SMR_2>
0.88934898

> <BCUT_SMR_3>
3.0081625

> <bpol>
26.861691

> <b_1rotN>
5

> <b_1rotR>
0.18518518

> <b_ar>
5

> <b_count>
40

> <b_double>
5

> <b_heavy>
27

> <b_max1len>
3

> <b_rotN>
6

> <b_rotR>
0.22222222

> <b_single>
30

> <b_triple>
0

> <chi0>
18.137465

> <chi0v>
14.465196

> <chi0v_C>
7.5165076

> <chi0_C>
8.3174725

> <chi1>
11.934759

> <chi1v>
8.8806028

> <chi1v_C>
2.3576071

> <chi1_C>
2.9831634

> <chiral>
2

> <chiral_u>
0

> <density>
0.93036801

> <diameter>
12

> <FCharge>
0

> <GCUT_PEOE_0>
-0.82312715

> <GCUT_PEOE_1>
-0.46340725

> <GCUT_PEOE_2>
0.10945988

> <GCUT_PEOE_3>
2.4865508

> <GCUT_SLOGP_0>
-1.3345546

> <GCUT_SLOGP_1>
-0.42478755

> <GCUT_SLOGP_2>
0.14520609

> <GCUT_SLOGP_3>
2.4192085

> <GCUT_SMR_0>
-0.5285008

> <GCUT_SMR_1>
-0.2390397

> <GCUT_SMR_2>
0.30262303

> <GCUT_SMR_3>
2.7754626

> <Kier1>
19.753086

> <Kier2>
8.3471403

> <Kier3>
3.9835391

> <KierA1>
16.621599

> <KierA2>
6.9704642

> <KierA3>
3.3075643

> <KierFlex>
4.6344104

> <lip_acc>
10

> <lip_don>
4

> <lip_druglike>
1

> <lip_violation>
0

> <logP(o/w)>
-0.523

> <logS>
-3.2391601

> <mr>
9.0431175

> <mutagenic>
1

> <nmol>
1

> <opr_brigid>
15

> <opr_leadlike>
1

> <opr_nring>
3

> <opr_nrot>
5

> <opr_violation>
1

> <PC+>
0

> <PC->
0

> <PEOE_PC+>
2.9247663

> <PEOE_PC->
-2.9247663

> <PEOE_RPC+>
0.10518497

> <PEOE_RPC->
0.11513781

> <PEOE_VSA+0>
19.208147

> <PEOE_VSA+1>
74.721535

> <PEOE_VSA+2>
32.205559

> <PEOE_VSA+3>
35.079182

> <PEOE_VSA+4>
10.324173

> <PEOE_VSA+5>
25.899061

> <PEOE_VSA+6>
14.708499

> <PEOE_VSA-0>
12.254904

> <PEOE_VSA-1>
14.230966

> <PEOE_VSA-2>
30.64588

> <PEOE_VSA-3>
0.0

> <PEOE_VSA-4>
5.6825762

> <PEOE_VSA-5>
53.254242

> <PEOE_VSA-6>
7.9044313

> <PEOE_VSA_FHYD>
0.64960945

> <PEOE_VSA_FNEG>
0.36883646

> <PEOE_VSA_FPNEG>
0.19886176

> <PEOE_VSA_FPOL>
0.35039058

> <PEOE_VSA_FPOS>
0.63116354

> <PEOE_VSA_FPPOS>
0.15152881

> <PEOE_VSA_HYD>
218.34618

> <PEOE_VSA_NEG>
123.973

> <PEOE_VSA_PNEG>
66.841248

> <PEOE_VSA_POL>
117.77298

> <PEOE_VSA_POS>
212.14616

> <PEOE_VSA_PPOS>
50.931732

> <petitjean>
0.5

> <petitjeanSC>
1.0

> <Q_PC+>
0

> <Q_PC->
0

> <Q_RPC+>
0

> <Q_RPC->
0

> <Q_VSA_FHYD>
1

> <Q_VSA_FNEG>
0

> <Q_VSA_FPNEG>
0

> <Q_VSA_FPOL>
0

> <Q_VSA_FPOS>
1

> <Q_VSA_FPPOS>
0

> <Q_VSA_HYD>
336.11914

> <Q_VSA_NEG>
0

> <Q_VSA_PNEG>
0

> <Q_VSA_POL>
0

> <Q_VSA_POS>
336.11914

> <Q_VSA_PPOS>
0

> <radius>
6

> <reactive>
1

> <rings>
3

> <RPC+>
0

> <RPC->
0

> <rsynth>
1.0

> <SlogP>
-0.55580002

> <SlogP_VSA0>
50.90794

> <SlogP_VSA1>
40.929623

> <SlogP_VSA2>
89.134506

> <SlogP_VSA3>
42.61879

> <SlogP_VSA4>
2.7567475

> <SlogP_VSA5>
57.540478

> <SlogP_VSA6>
0.0

> <SlogP_VSA7>
33.459194

> <SlogP_VSA8>
0.0

> <SlogP_VSA9>
63.997974

> <SMR>
9.0814896

> <SMR_VSA0>
82.805412

> <SMR_VSA1>
39.309704

> <SMR_VSA2>
43.395977

> <SMR_VSA3>
11.842591

> <SMR_VSA4>
0.50074643

> <SMR_VSA5>
66.356384

> <SMR_VSA6>
38.253342

> <SMR_VSA7>
98.881096

> <TPSA>
147.21001

> <VAdjEq>
0.42433795

> <VAdjMa>
5.7548876

> <VDistEq>
3.3891559

> <VDistMa>
9.0021448

> <vdw_area>
336.11914

> <vdw_vol>
412.10468

> <vsa_acc>
43.701679

> <vsa_acid>
0

> <vsa_base>
0

> <vsa_don>
23.425066

> <vsa_hyd>
155.33154

> <vsa_other>
66.376099

> <vsa_pol>
94.26059

> <Weight>
383.409

> <weinerPath>
1531

> <weinerPol>
38

> <zagreb>
132

$$$$
Row1478
 OpenBabel06061811532D

 38 41  0  0  1  0  0  0  0  0999 V2000
    0.0000    0.0000    0.0000 S   0  0  0  0  0  0  0  0  0  0  0  0
    0.0000    0.0000    0.0000 C   0  0  0  0  0  0  0  0  0  0  0  0
    0.0000    0.0000    0.0000 C   0  0  0  0  0  0  0  0  0  0  0  0
    0.0000    0.0000    0.0000 N   0  0  0  0  0  0  0  0  0  0  0  0
    0.0000    0.0000    0.0000 C   0  0  0  0  0  0  0  0  0  0  0  0
    0.0000    0.0000    0.0000 N   0  0  0  0  0  0  0  0  0  0  0  0
    0.0000    0.0000    0.0000 C   0  0  0  0  0  0  0  0  0  0  0  0
    0.0000    0.0000    0.0000 N   0  0  0  0  0  0  0  0  0  0  0  0
    0.0000    0.0000    0.0000 O   0  0  0  0  0  0  0  0  0  0  0  0
    0.0000    0.0000    0.0000 C   0  0  0  0  0  0  0  0  0  0  0  0
    0.0000    0.0000    0.0000 C   0  0  0  0  0  0  0  0  0  0  0  0
    0.0000    0.0000    0.0000 O   0  0  0  0  0  0  0  0  0  0  0  0
    0.0000    0.0000    0.0000 N   0  0  0  0  0  0  0  0  0  0  0  0
    0.0000    0.0000    0.0000 C   0  0  1  0  0  0  0  0  0  0  0  0
    0.0000    0.0000    0.0000 H   0  0  0  0  0  0  0  0  0  0  0  0
    0.0000    0.0000    0.0000 C   0  0  1  0  0  0  0  0  0  0  0  0
    0.0000    0.0000    0.0000 H   0  0  0  0  0  0  0  0  0  0  0  0
    0.0000    0.0000    0.0000 S   0  0  0  0  0  0  0  0  0  0  0  0
    0.0000    0.0000    0.0000 C   0  0  0  0  0  0  0  0  0  0  0  0
    0.0000    0.0000    0.0000 C   0  0  0  0  0  0  0  0  0  0  0  0
    0.0000    0.0000    0.0000 C   0  0  0  0  0  0  0  0  0  0  0  0
    0.0000    0.0000    0.0000 S   0  0  0  0  0  0  0  0  0  0  0  0
    0.0000    0.0000    0.0000 C   0  0  0  0  0  0  0  0  0  0  0  0
    0.0000    0.0000    0.0000 N   0  0  0  0  0  0  0  0  0  0  0  0
    0.0000    0.0000    0.0000 C   0  0  0  0  0  0  0  0  0  0  0  0
    0.0000    0.0000    0.0000 O   0  0  0  0  0  0  0  0  0  0  0  0
    0.0000    0.0000    0.0000 C   0  0  0  0  0  0  0  0  0  0  0  0
    0.0000    0.0000    0.0000 O   0  0  0  0  0  0  0  0  0  0  0  0
    0.0000    0.0000    0.0000 N   0  0  0  0  0  0  0  0  0  0  0  0
    0.0000    0.0000    0.0000 N   0  0  0  0  0  0  0  0  0  0  0  0
    0.0000    0.0000    0.0000 C   0  0  0  0  0  0  0  0  0  0  0  0
    0.0000    0.0000    0.0000 C   0  0  0  0  0  0  0  0  0  0  0  0
    0.0000    0.0000    0.0000 N   0  0  0  0  0  0  0  0  0  0  0  0
    0.0000    0.0000    0.0000 C   0  0  0  0  0  0  0  0  0  0  0  0
    0.0000    0.0000    0.0000 O   0  0  0  0  0  0  0  0  0  0  0  0
    0.0000    0.0000    0.0000 C   0  0  0  0  0  0  0  0  0  0  0  0
    0.0000    0.0000    0.0000 O   0  0  0  0  0  0  0  0  0  0  0  0
    0.0000    0.0000    0.0000 O   0  0  0  0  0  0  0  0  0  0  0  0
  1  5  1  0  0  0  0
  1  2  1  0  0  0  0
  2  3  2  0  0  0  0
  3  4  1  0  0  0  0
  3  7  1  0  0  0  0
  4  5  2  0  0  0  0
  5  6  1  0  0  0  0
  7  8  2  0  0  0  0
  7 11  1  0  0  0  0
  8  9  1  0  0  0  0
  9 10  1  0  0  0  0
 11 12  2  0  0  0  0
 11 13  1  0  0  0  0
 13 14  1  0  0  0  0
 14 15  1  0  0  0  0
 14 34  1  0  0  0  0
 14 16  1  0  0  0  0
 16 17  1  0  0  0  0
 16 33  1  0  0  0  0
 16 18  1  0  0  0  0
 18 19  1  0  0  0  0
 19 20  1  0  0  0  0
 20 21  1  0  0  0  0
 20 32  2  0  0  0  0
 21 22  1  0  0  0  0
 22 23  1  0  0  0  0
 23 30  1  0  0  0  0
 23 24  2  0  0  0  0
 24 25  1  0  0  0  0
 25 26  2  0  0  0  0
 25 27  1  0  0  0  0
 27 28  2  0  0  0  0
 27 29  1  0  0  0  0
 29 30  1  0  0  0  0
 30 31  1  0  0  0  0
 32 33  1  0  0  0  0
 32 36  1  0  0  0  0
 33 34  1  0  0  0  0
 34 35  2  0  0  0  0
 36 37  1  0  0  0  0
 36 38  2  0  0  0  0
M  END
> <Index>
1479

> <ID>
HT0427

> <class>
1

> <apol>
66.796272

> <ast_fraglike>
0

> <ast_fraglike_ext>
0

> <ast_violation>
3

> <ast_violation_ext>
5

> <a_acc>
9

> <a_acid>
0

> <a_aro>
5

> <a_base>
0

> <a_count>
54

> <a_don>
5

> <a_donacc>
14

> <a_heavy>
36

> <a_hyd>
13

> <a_IC>
112.24025

> <a_ICM>
2.0785232

> <a_nB>
0

> <a_nBr>
0

> <a_nC>
18

> <a_nCl>
0

> <a_nF>
0

> <a_nH>
18

> <a_nI>
0

> <a_nN>
8

> <a_nO>
7

> <a_nP>
0

> <a_nS>
3

> <balabanJ>
1.3489956

> <BCUT_PEOE_0>
-2.6852119

> <BCUT_PEOE_1>
-0.51109183

> <BCUT_PEOE_2>
0.53104621

> <BCUT_PEOE_3>
2.7345181

> <BCUT_SLOGP_0>
-2.8933568

> <BCUT_SLOGP_1>
-0.51840228

> <BCUT_SLOGP_2>
0.49566722

> <BCUT_SLOGP_3>
2.6202123

> <BCUT_SMR_0>
-2.3985677

> <BCUT_SMR_1>
-0.29510877

> <BCUT_SMR_2>
0.70352536

> <BCUT_SMR_3>
3.0201154

> <bpol>
39.163727

> <b_1rotN>
7

> <b_1rotR>
0.17948718

> <b_ar>
5

> <b_count>
57

> <b_double>
8

> <b_heavy>
39

> <b_max1len>
3

> <b_rotN>
9

> <b_rotR>
0.23076923

> <b_single>
44

> <b_triple>
0

> <chi0>
26.145535

> <chi0v>
21.030621

> <chi0v_C>
10.646264

> <chi0_C>
11.626874

> <chi1>
17.116301

> <chi1v>
12.869074

> <chi1v_C>
2.8677905

> <chi1_C>
3.5580783

> <chiral>
2

> <chiral_u>
0

> <density>
0.94329911

> <diameter>
18

> <FCharge>
0

> <GCUT_PEOE_0>
-0.86440521

> <GCUT_PEOE_1>
-0.47921717

> <GCUT_PEOE_2>
0.056760926

> <GCUT_PEOE_3>
2.6503932

> <GCUT_SLOGP_0>
-1.3345559

> <GCUT_SLOGP_1>
-0.45188889

> <GCUT_SLOGP_2>
0.08640714

> <GCUT_SLOGP_3>
2.5987515

> <GCUT_SMR_0>
-0.52878237

> <GCUT_SMR_1>
-0.2172375

> <GCUT_SMR_2>
0.28894764

> <GCUT_SMR_3>
2.9497333

> <Kier1>
28.994083

> <Kier2>
12.453062

> <Kier3>
6.2702169

> <KierA1>
24.12472

> <KierA2>
10.304515

> <KierA3>
5.168335

> <KierFlex>
6.905376

> <lip_acc>
15

> <lip_don>
5

> <lip_druglike>
0

> <lip_violation>
2

> <logP(o/w)>
-1.1619999

> <logS>
-5.2785802

> <mr>
12.868069

> <mutagenic>
1

> <nmol>
1

> <opr_brigid>
21

> <opr_leadlike>
0

> <opr_nring>
4

> <opr_nrot>
8

> <opr_violation>
2

> <PC+>
0

> <PC->
0

> <PEOE_PC+>
4.2025785

> <PEOE_PC->
-4.2025785

> <PEOE_RPC+>
0.080531575

> <PEOE_RPC->
0.080129661

> <PEOE_VSA+0>
74.451141

> <PEOE_VSA+1>
70.456146

> <PEOE_VSA+2>
32.205559

> <PEOE_VSA+3>
56.864819

> <PEOE_VSA+4>
10.324173

> <PEOE_VSA+5>
25.899061

> <PEOE_VSA+6>
40.607563

> <PEOE_VSA-0>
2.2085397

> <PEOE_VSA-1>
33.991585

> <PEOE_VSA-2>
30.64588

> <PEOE_VSA-3>
5.6825762

> <PEOE_VSA-4>
5.6825762

> <PEOE_VSA-5>
84.263435

> <PEOE_VSA-6>
7.9044313

> <PEOE_VSA_FHYD>
0.63697886

> <PEOE_VSA_FNEG>
0.35408032

> <PEOE_VSA_FPNEG>
0.20335202

> <PEOE_VSA_FPOL>
0.36302117

> <PEOE_VSA_FPOS>
0.64591968

> <PEOE_VSA_FPPOS>
0.15966915

> <PEOE_VSA_HYD>
306.50626

> <PEOE_VSA_NEG>
170.37903

> <PEOE_VSA_PNEG>
97.850449

> <PEOE_VSA_POL>
174.68124

> <PEOE_VSA_POS>
310.80847

> <PEOE_VSA_PPOS>
76.830795

> <petitjean>
0.5

> <petitjeanSC>
1.0

> <Q_PC+>
0

> <Q_PC->
0

> <Q_RPC+>
0

> <Q_RPC->
0

> <Q_VSA_FHYD>
1

> <Q_VSA_FNEG>
0

> <Q_VSA_FPNEG>
0

> <Q_VSA_FPOL>
0

> <Q_VSA_FPOS>
1

> <Q_VSA_FPPOS>
0

> <Q_VSA_HYD>
481.1875

> <Q_VSA_NEG>
0

> <Q_VSA_PNEG>
0

> <Q_VSA_POL>
0

> <Q_VSA_POS>
481.1875

> <Q_VSA_PPOS>
0

> <radius>
9

> <reactive>
1

> <rings>
4

> <RPC+>
0

> <RPC->
0

> <rsynth>
0.58333331

> <SlogP>
-1.5932

> <SlogP_VSA0>
68.796165

> <SlogP_VSA1>
55.142059

> <SlogP_VSA2>
136.85895

> <SlogP_VSA3>
59.852356

> <SlogP_VSA4>
2.7567475

> <SlogP_VSA5>
110.40877

> <SlogP_VSA6>
0.0

> <SlogP_VSA7>
15.81601

> <SlogP_VSA8>
0.0

> <SlogP_VSA9>
96.217514

> <SMR>
13.05646

> <SMR_VSA0>
130.52985

> <SMR_VSA1>
59.097027

> <SMR_VSA2>
61.284206

> <SMR_VSA3>
15.028167

> <SMR_VSA4>
0.50074643

> <SMR_VSA5>
48.7132

> <SMR_VSA6>
66.697556

> <SMR_VSA7>
163.99782

> <TPSA>
208.98

> <VAdjEq>
0.3281796

> <VAdjMa>
6.2854023

> <VDistEq>
3.9161918

> <VDistMa>
10.039266

> <vdw_area>
481.1875

> <vdw_vol>
587.92487

> <vsa_acc>
76.518097

> <vsa_acid>
0

> <vsa_base>
0

> <vsa_don>
32.846104

> <vsa_hyd>
213.17622

> <vsa_other>
105.44178

> <vsa_pol>
136.49805

> <Weight>
554.58899

> <weinerPath>
4386

> <weinerPol>
59

> <zagreb>
192

$$$$
Row1479
 OpenBabel06061811532D

 37 39  0  0  1  0  0  0  0  0999 V2000
    0.0000    0.0000    0.0000 S   0  0  0  0  0  0  0  0  0  0  0  0
    0.0000    0.0000    0.0000 C   0  0  1  0  0  0  0  0  0  0  0  0
    0.0000    0.0000    0.0000 H   0  0  0  0  0  0  0  0  0  0  0  0
    0.0000    0.0000    0.0000 N   0  0  0  0  0  0  0  0  0  0  0  0
    0.0000    0.0000    0.0000 C   0  0  0  0  0  0  0  0  0  0  0  0
    0.0000    0.0000    0.0000 C   0  0  0  0  0  0  0  0  0  0  0  0
    0.0000    0.0000    0.0000 O   0  0  0  0  0  0  0  0  0  0  0  0
    0.0000    0.0000    0.0000 C   0  0  3  0  0  0  0  0  0  0  0  0
    0.0000    0.0000    0.0000 O   0  0  0  0  0  0  0  0  0  0  0  0
    0.0000    0.0000    0.0000 C   0  0  0  0  0  0  0  0  0  0  0  0
    0.0000    0.0000    0.0000 O   0  0  0  0  0  0  0  0  0  0  0  0
    0.0000    0.0000    0.0000 C   0  0  0  0  0  0  0  0  0  0  0  0
    0.0000    0.0000    0.0000 C   0  0  0  0  0  0  0  0  0  0  0  0
    0.0000    0.0000    0.0000 O   0  0  0  0  0  0  0  0  0  0  0  0
    0.0000    0.0000    0.0000 C   0  0  0  0  0  0  0  0  0  0  0  0
    0.0000    0.0000    0.0000 C   0  0  0  0  0  0  0  0  0  0  0  0
    0.0000    0.0000    0.0000 C   0  0  0  0  0  0  0  0  0  0  0  0
    0.0000    0.0000    0.0000 O   0  0  0  0  0  0  0  0  0  0  0  0
    0.0000    0.0000    0.0000 C   0  0  0  0  0  0  0  0  0  0  0  0
    0.0000    0.0000    0.0000 O   0  0  0  0  0  0  0  0  0  0  0  0
    0.0000    0.0000    0.0000 N   0  0  0  0  0  0  0  0  0  0  0  0
    0.0000    0.0000    0.0000 C   0  0  0  0  0  0  0  0  0  0  0  0
    0.0000    0.0000    0.0000 O   0  0  0  0  0  0  0  0  0  0  0  0
    0.0000    0.0000    0.0000 C   0  0  1  0  0  0  0  0  0  0  0  0
    0.0000    0.0000    0.0000 H   0  0  0  0  0  0  0  0  0  0  0  0
    0.0000    0.0000    0.0000 N   0  0  0  0  0  0  0  0  0  0  0  0
    0.0000    0.0000    0.0000 C   0  0  0  0  0  0  0  0  0  0  0  0
    0.0000    0.0000    0.0000 O   0  0  0  0  0  0  0  0  0  0  0  0
    0.0000    0.0000    0.0000 C   0  0  0  0  0  0  0  0  0  0  0  0
    0.0000    0.0000    0.0000 N   0  0  0  0  0  0  0  0  0  0  0  0
    0.0000    0.0000    0.0000 O   0  0  0  0  0  0  0  0  0  0  0  0
    0.0000    0.0000    0.0000 C   0  0  0  0  0  0  0  0  0  0  0  0
    0.0000    0.0000    0.0000 C   0  0  0  0  0  0  0  0  0  0  0  0
    0.0000    0.0000    0.0000 O   0  0  0  0  0  0  0  0  0  0  0  0
    0.0000    0.0000    0.0000 C   0  0  0  0  0  0  0  0  0  0  0  0
    0.0000    0.0000    0.0000 C   0  0  0  0  0  0  0  0  0  0  0  0
    0.0000    0.0000    0.0000 C   0  0  0  0  0  0  0  0  0  0  0  0
  1 16  1  0  0  0  0
  1  2  1  0  0  0  0
  2  3  1  0  0  0  0
  2 24  1  0  0  0  0
  2  4  1  0  0  0  0
  4  5  1  0  0  0  0
  4 22  1  0  0  0  0
  5  6  1  0  0  0  0
  5 15  2  0  0  0  0
  6  7  1  0  0  0  0
  6 14  2  0  0  0  0
  7  8  1  0  0  0  0
  8  9  1  0  0  0  0
  8 13  1  0  0  0  0
  9 10  1  0  0  0  0
 10 11  2  0  0  0  0
 10 12  1  0  0  0  0
 15 16  1  0  0  0  0
 15 17  1  0  0  0  0
 17 18  1  0  0  0  0
 18 19  1  0  0  0  0
 19 20  2  0  0  0  0
 19 21  1  0  0  0  0
 22 23  2  0  0  0  0
 22 24  1  0  0  0  0
 24 25  1  0  0  0  0
 24 26  1  0  0  0  0
 26 27  1  0  0  0  0
 27 28  2  0  0  0  0
 27 29  1  0  0  0  0
 29 30  2  3  0  0  0
 29 33  1  0  0  0  0
 30 31  1  0  0  0  0
 31 32  1  0  0  0  0
 33 37  2  0  0  0  0
 33 34  1  0  0  0  0
 34 35  1  0  0  0  0
 35 36  2  0  0  0  0
 36 37  1  0  0  0  0
M  END
> <Index>
1480

> <ID>
HT0428

> <class>
1

> <apol>
65.189445

> <ast_fraglike>
0

> <ast_fraglike_ext>
0

> <ast_violation>
2

> <ast_violation_ext>
4

> <a_acc>
6

> <a_acid>
0

> <a_aro>
5

> <a_base>
0

> <a_count>
57

> <a_don>
2

> <a_donacc>
8

> <a_heavy>
35

> <a_hyd>
12

> <a_IC>
106.70939

> <a_ICM>
1.8720946

> <a_nB>
0

> <a_nBr>
0

> <a_nC>
20

> <a_nCl>
0

> <a_nF>
0

> <a_nH>
22

> <a_nI>
0

> <a_nN>
4

> <a_nO>
10

> <a_nP>
0

> <a_nS>
1

> <balabanJ>
1.6816547

> <BCUT_PEOE_0>
-2.6847155

> <BCUT_PEOE_1>
-0.54983735

> <BCUT_PEOE_2>
0.4863238

> <BCUT_PEOE_3>
2.7369618

> <BCUT_SLOGP_0>
-2.8939662

> <BCUT_SLOGP_1>
-0.46716106

> <BCUT_SLOGP_2>
0.50465226

> <BCUT_SLOGP_3>
2.6134074

> <BCUT_SMR_0>
-2.4017179

> <BCUT_SMR_1>
-0.3466157

> <BCUT_SMR_2>
0.66768348

> <BCUT_SMR_3>
3.017977

> <bpol>
42.680553

> <b_1rotN>
9

> <b_1rotR>
0.24324325

> <b_ar>
5

> <b_count>
59

> <b_double>
7

> <b_heavy>
37

> <b_max1len>
3

> <b_rotN>
13

> <b_rotR>
0.35135135

> <b_single>
47

> <b_triple>
0

> <chi0>
25.697941

> <chi0v>
19.65732

> <chi0v_C>
12.378315

> <chi0_C>
13.463737

> <chi1>
16.633137

> <chi1v>
11.11503

> <chi1v_C>
4.3618073

> <chi1_C>
5.3794456

> <chiral>
3

> <chiral_u>
1

> <density>
0.87733442

> <diameter>
15

> <FCharge>
0

> <GCUT_PEOE_0>
-0.83653766

> <GCUT_PEOE_1>
-0.4260698

> <GCUT_PEOE_2>
0.023050427

> <GCUT_PEOE_3>
2.6833267

> <GCUT_SLOGP_0>
-1.3703219

> <GCUT_SLOGP_1>
-0.37887332

> <GCUT_SLOGP_2>
0.085734211

> <GCUT_SLOGP_3>
2.6160672

> <GCUT_SMR_0>
-0.52971047

> <GCUT_SMR_1>
-0.20260575

> <GCUT_SMR_2>
0.21051842

> <GCUT_SMR_3>
2.947926

> <Kier1>
29.554419

> <Kier2>
13.693048

> <Kier3>
7.5294118

> <KierA1>
23.734051

> <KierA2>
10.921453

> <KierA3>
5.9757257

> <KierFlex>
7.4060092

> <lip_acc>
14

> <lip_don>
3

> <lip_druglike>
0

> <lip_violation>
2

> <logP(o/w)>
-0.213

> <logS>
-5.04633

> <mr>
12.028625

> <mutagenic>
0

> <nmol>
1

> <opr_brigid>
15

> <opr_leadlike>
0

> <opr_nring>
3

> <opr_nrot>
9

> <opr_violation>
2

> <PC+>
0

> <PC->
0

> <PEOE_PC+>
4.1499386

> <PEOE_PC->
-4.1499386

> <PEOE_RPC+>
0.086361215

> <PEOE_RPC->
0.1111201

> <PEOE_VSA+0>
63.548141

> <PEOE_VSA+1>
101.1077

> <PEOE_VSA+2>
19.23292

> <PEOE_VSA+3>
52.170017

> <PEOE_VSA+4>
0.0

> <PEOE_VSA+5>
40.607563

> <PEOE_VSA+6>
33.908009

> <PEOE_VSA-0>
45.466026

> <PEOE_VSA-1>
0.0

> <PEOE_VSA-2>
30.64588

> <PEOE_VSA-3>
0.0

> <PEOE_VSA-4>
13.566921

> <PEOE_VSA-5>
67.681313

> <PEOE_VSA-6>
9.2917662

> <PEOE_VSA_FHYD>
0.65413558

> <PEOE_VSA_FNEG>
0.34920943

> <PEOE_VSA_FPNEG>
0.18972133

> <PEOE_VSA_FPOL>
0.34586439

> <PEOE_VSA_FPOS>
0.65079057

> <PEOE_VSA_FPPOS>
0.15614307

> <PEOE_VSA_HYD>
312.17068

> <PEOE_VSA_NEG>
166.6519

> <PEOE_VSA_PNEG>
90.540001

> <PEOE_VSA_POL>
165.05557

> <PEOE_VSA_POS>
310.57434

> <PEOE_VSA_PPOS>
74.515572

> <petitjean>
0.46666667

> <petitjeanSC>
0.875

> <Q_PC+>
0

> <Q_PC->
0

> <Q_RPC+>
0

> <Q_RPC->
0

> <Q_VSA_FHYD>
1

> <Q_VSA_FNEG>
0

> <Q_VSA_FPNEG>
0

> <Q_VSA_FPOL>
0

> <Q_VSA_FPOS>
1

> <Q_VSA_FPPOS>
0

> <Q_VSA_HYD>
477.22626

> <Q_VSA_NEG>
0

> <Q_VSA_PNEG>
0

> <Q_VSA_POL>
0

> <Q_VSA_POS>
477.22626

> <Q_VSA_PPOS>
0

> <radius>
8

> <reactive>
1

> <rings>
3

> <RPC+>
0

> <RPC->
0

> <rsynth>
0.5714286

> <SlogP>
-0.1683

> <SlogP_VSA0>
50.90794

> <SlogP_VSA1>
39.206192

> <SlogP_VSA2>
154.52289

> <SlogP_VSA3>
38.159824

> <SlogP_VSA4>
5.4488211

> <SlogP_VSA5>
70.233398

> <SlogP_VSA6>
0.0

> <SlogP_VSA7>
55.192799

> <SlogP_VSA8>
0.0

> <SlogP_VSA9>
122.73379

> <SMR>
11.71591

> <SMR_VSA0>
173.03685

> <SMR_VSA1>
22.524176

> <SMR_VSA2>
18.01075

> <SMR_VSA3>
26.246742

> <SMR_VSA4>
32.897186

> <SMR_VSA5>
55.192799

> <SMR_VSA6>
74.241699

> <SMR_VSA7>
134.25543

> <TPSA>
189.06

> <VAdjEq>
0.32906306

> <VAdjMa>
6.2094536

> <VDistEq>
3.7618723

> <VDistMa>
9.9880238

> <vdw_area>
477.22626

> <vdw_vol>
581.85339

> <vsa_acc>
78.719864

> <vsa_acid>
0

> <vsa_base>
0

> <vsa_don>
23.425066

> <vsa_hyd>
209.97922

> <vsa_other>
142.358

> <vsa_pol>
102.14493

> <Weight>
510.47998

> <weinerPath>
3907

> <weinerPol>
52

> <zagreb>
178

$$$$
Row1480
 OpenBabel06061811532D

 31 33  0  0  1  0  0  0  0  0999 V2000
    0.0000    0.0000    0.0000 S   0  0  0  0  0  0  0  0  0  0  0  0
    0.0000    0.0000    0.0000 C   0  0  1  0  0  0  0  0  0  0  0  0
    0.0000    0.0000    0.0000 H   0  0  0  0  0  0  0  0  0  0  0  0
    0.0000    0.0000    0.0000 N   0  0  0  0  0  0  0  0  0  0  0  0
    0.0000    0.0000    0.0000 C   0  0  0  0  0  0  0  0  0  0  0  0
    0.0000    0.0000    0.0000 C   0  0  0  0  0  0  0  0  0  0  0  0
    0.0000    0.0000    0.0000 O   0  0  0  0  0  0  0  0  0  0  0  0
    0.0000    0.0000    0.0000 O   0  0  0  0  0  0  0  0  0  0  0  0
    0.0000    0.0000    0.0000 C   0  0  0  0  0  0  0  0  0  0  0  0
    0.0000    0.0000    0.0000 C   0  0  0  0  0  0  0  0  0  0  0  0
    0.0000    0.0000    0.0000 C   0  0  0  0  0  0  0  0  0  0  0  0
    0.0000    0.0000    0.0000 O   0  0  0  0  0  0  0  0  0  0  0  0
    0.0000    0.0000    0.0000 C   0  0  0  0  0  0  0  0  0  0  0  0
    0.0000    0.0000    0.0000 O   0  0  0  0  0  0  0  0  0  0  0  0
    0.0000    0.0000    0.0000 N   0  0  0  0  0  0  0  0  0  0  0  0
    0.0000    0.0000    0.0000 C   0  0  0  0  0  0  0  0  0  0  0  0
    0.0000    0.0000    0.0000 O   0  0  0  0  0  0  0  0  0  0  0  0
    0.0000    0.0000    0.0000 C   0  0  1  0  0  0  0  0  0  0  0  0
    0.0000    0.0000    0.0000 H   0  0  0  0  0  0  0  0  0  0  0  0
    0.0000    0.0000    0.0000 N   0  0  0  0  0  0  0  0  0  0  0  0
    0.0000    0.0000    0.0000 C   0  0  0  0  0  0  0  0  0  0  0  0
    0.0000    0.0000    0.0000 O   0  0  0  0  0  0  0  0  0  0  0  0
    0.0000    0.0000    0.0000 C   0  0  0  0  0  0  0  0  0  0  0  0
    0.0000    0.0000    0.0000 N   0  0  0  0  0  0  0  0  0  0  0  0
    0.0000    0.0000    0.0000 O   0  0  0  0  0  0  0  0  0  0  0  0
    0.0000    0.0000    0.0000 C   0  0  0  0  0  0  0  0  0  0  0  0
    0.0000    0.0000    0.0000 C   0  0  0  0  0  0  0  0  0  0  0  0
    0.0000    0.0000    0.0000 O   0  0  0  0  0  0  0  0  0  0  0  0
    0.0000    0.0000    0.0000 C   0  0  0  0  0  0  0  0  0  0  0  0
    0.0000    0.0000    0.0000 C   0  0  0  0  0  0  0  0  0  0  0  0
    0.0000    0.0000    0.0000 C   0  0  0  0  0  0  0  0  0  0  0  0
  1 10  1  0  0  0  0
  1  2  1  0  0  0  0
  2  3  1  0  0  0  0
  2 18  1  0  0  0  0
  2  4  1  0  0  0  0
  4  5  1  0  0  0  0
  4 16  1  0  0  0  0
  5  6  1  0  0  0  0
  5  9  2  0  0  0  0
  6  7  1  0  0  0  0
  6  8  2  0  0  0  0
  9 10  1  0  0  0  0
  9 11  1  0  0  0  0
 11 12  1  0  0  0  0
 12 13  1  0  0  0  0
 13 14  2  0  0  0  0
 13 15  1  0  0  0  0
 16 17  2  0  0  0  0
 16 18  1  0  0  0  0
 18 19  1  0  0  0  0
 18 20  1  0  0  0  0
 20 21  1  0  0  0  0
 21 22  2  0  0  0  0
 21 23  1  0  0  0  0
 23 24  2  3  0  0  0
 23 27  1  0  0  0  0
 24 25  1  0  0  0  0
 25 26  1  0  0  0  0
 27 31  2  0  0  0  0
 27 28  1  0  0  0  0
 28 29  1  0  0  0  0
 29 30  2  0  0  0  0
 30 31  1  0  0  0  0
M  END
> <Index>
1481

> <ID>
HT0429

> <class>
1

> <apol>
52.544689

> <ast_fraglike>
0

> <ast_fraglike_ext>
0

> <ast_violation>
3

> <ast_violation_ext>
5

> <a_acc>
6

> <a_acid>
0

> <a_aro>
5

> <a_base>
0

> <a_count>
45

> <a_don>
4

> <a_donacc>
10

> <a_heavy>
29

> <a_hyd>
10

> <a_IC>
87.133392

> <a_ICM>
1.9362975

> <a_nB>
0

> <a_nBr>
0

> <a_nC>
16

> <a_nCl>
0

> <a_nF>
0

> <a_nH>
16

> <a_nI>
0

> <a_nN>
4

> <a_nO>
8

> <a_nP>
0

> <a_nS>
1

> <balabanJ>
1.6207769

> <BCUT_PEOE_0>
-2.6836908

> <BCUT_PEOE_1>
-0.57962018

> <BCUT_PEOE_2>
0.59174609

> <BCUT_PEOE_3>
2.7356029

> <BCUT_SLOGP_0>
-2.8937125

> <BCUT_SLOGP_1>
-0.52323747

> <BCUT_SLOGP_2>
0.57626003

> <BCUT_SLOGP_3>
2.6115787

> <BCUT_SMR_0>
-2.4001496

> <BCUT_SMR_1>
-0.41294891

> <BCUT_SMR_2>
0.74838459

> <BCUT_SMR_3>
3.0170255

> <bpol>
31.331312

> <b_1rotN>
7

> <b_1rotR>
0.22580644

> <b_ar>
5

> <b_count>
47

> <b_double>
6

> <b_heavy>
31

> <b_max1len>
3

> <b_rotN>
9

> <b_rotR>
0.29032257

> <b_single>
36

> <b_triple>
0

> <chi0>
21.129028

> <chi0v>
15.802439

> <chi0v_C>
9.3009653

> <chi0_C>
10.309036

> <chi1>
13.845443

> <chi1v>
9.1775103

> <chi1v_C>
3.284457

> <chi1_C>
4.2247448

> <chiral>
2

> <chiral_u>
0

> <density>
0.90265536

> <diameter>
14

> <FCharge>
0

> <GCUT_PEOE_0>
-0.83653545

> <GCUT_PEOE_1>
-0.431393

> <GCUT_PEOE_2>
0.082348906

> <GCUT_PEOE_3>
2.5924861

> <GCUT_SLOGP_0>
-1.3703181

> <GCUT_SLOGP_1>
-0.42856577

> <GCUT_SLOGP_2>
0.099580251

> <GCUT_SLOGP_3>
2.5224619

> <GCUT_SMR_0>
-0.52912641

> <GCUT_SMR_1>
-0.21500389

> <GCUT_SMR_2>
0.25712493

> <GCUT_SMR_3>
2.8662171

> <Kier1>
23.658689

> <Kier2>
10.543388

> <Kier3>
5.2577777

> <KierA1>
18.734169

> <KierA2>
8.2748413

> <KierA3>
4.0994954

> <KierFlex>
5.3455954

> <lip_acc>
12

> <lip_don>
4

> <lip_druglike>
1

> <lip_violation>
1

> <logP(o/w)>
-0.91100001

> <logS>
-4.01053

> <mr>
9.879405

> <mutagenic>
0

> <nmol>
1

> <opr_brigid>
15

> <opr_leadlike>
1

> <opr_nring>
3

> <opr_nrot>
7

> <opr_violation>
1

> <PC+>
0

> <PC->
0

> <PEOE_PC+>
3.6342416

> <PEOE_PC->
-3.6342416

> <PEOE_RPC+>
0.098615818

> <PEOE_RPC->
0.12688799

> <PEOE_VSA+0>
19.208147

> <PEOE_VSA+1>
96.842308

> <PEOE_VSA+2>
19.23292

> <PEOE_VSA+3>
41.01511

> <PEOE_VSA+4>
10.324173

> <PEOE_VSA+5>
25.899061

> <PEOE_VSA+6>
33.908009

> <PEOE_VSA-0>
26.718348

> <PEOE_VSA-1>
0.0

> <PEOE_VSA-2>
30.64588

> <PEOE_VSA-3>
0.0

> <PEOE_VSA-4>
13.566921

> <PEOE_VSA-5>
49.106876

> <PEOE_VSA-6>
17.059307

> <PEOE_VSA_FHYD>
0.60924703

> <PEOE_VSA_FNEG>
0.35746455

> <PEOE_VSA_FPNEG>
0.20789434

> <PEOE_VSA_FPOL>
0.390753

> <PEOE_VSA_FPOS>
0.64253545

> <PEOE_VSA_FPPOS>
0.18285866

> <PEOE_VSA_HYD>
233.6627

> <PEOE_VSA_NEG>
137.09734

> <PEOE_VSA_PNEG>
79.733109

> <PEOE_VSA_POL>
149.86435

> <PEOE_VSA_POS>
246.42973

> <PEOE_VSA_PPOS>
70.131248

> <petitjean>
0.5

> <petitjeanSC>
1.0

> <Q_PC+>
0

> <Q_PC->
0

> <Q_RPC+>
0

> <Q_RPC->
0

> <Q_VSA_FHYD>
1

> <Q_VSA_FNEG>
0

> <Q_VSA_FPNEG>
0

> <Q_VSA_FPOL>
0

> <Q_VSA_FPOS>
1

> <Q_VSA_FPPOS>
0

> <Q_VSA_HYD>
383.52707

> <Q_VSA_NEG>
0

> <Q_VSA_PNEG>
0

> <Q_VSA_POL>
0

> <Q_VSA_POS>
383.52707

> <Q_VSA_PPOS>
0

> <radius>
7

> <reactive>
1

> <rings>
3

> <RPC+>
0

> <RPC->
0

> <rsynth>
0.48275861

> <SlogP>
-0.53600001

> <SlogP_VSA0>
50.90794

> <SlogP_VSA1>
31.46073

> <SlogP_VSA2>
100.1344

> <SlogP_VSA3>
63.545048

> <SlogP_VSA4>
5.4488211

> <SlogP_VSA5>
70.233398

> <SlogP_VSA6>
0.0

> <SlogP_VSA7>
55.192799

> <SlogP_VSA8>
0.0

> <SlogP_VSA9>
56.081757

> <SMR>
9.7474899

> <SMR_VSA0>
127.17487

> <SMR_VSA1>
22.524176

> <SMR_VSA2>
43.395977

> <SMR_VSA3>
17.72024

> <SMR_VSA4>
32.897186

> <SMR_VSA5>
55.192799

> <SMR_VSA6>
66.496239

> <SMR_VSA7>
67.603409

> <TPSA>
173.75999

> <VAdjEq>
0.3796615

> <VAdjMa>
5.9541965

> <VDistEq>
3.6140857

> <VDistMa>
9.4251375

> <vdw_area>
383.52707

> <vdw_vol>
470.15729

> <vsa_acc>
51.586025

> <vsa_acid>
0

> <vsa_base>
0

> <vsa_don>
23.425066

> <vsa_hyd>
151.16232

> <vsa_other>
107.93349

> <vsa_pol>
102.14493

> <Weight>
424.38998

> <weinerPath>
2349

> <weinerPol>
44

> <zagreb>
150

$$$$
Row1481
 OpenBabel06061811532D

 26 28  0  0  0  0  0  0  0  0999 V2000
    0.0000    0.0000    0.0000 S   0  0  0  0  0  0  0  0  0  0  0  0
    0.0000    0.0000    0.0000 O   0  0  0  0  0  0  0  0  0  0  0  0
    0.0000    0.0000    0.0000 O   0  0  0  0  0  0  0  0  0  0  0  0
    0.0000    0.0000    0.0000 N   0  0  0  0  0  0  0  0  0  0  0  0
    0.0000    0.0000    0.0000 C   0  0  0  0  0  0  0  0  0  0  0  0
    0.0000    0.0000    0.0000 C   0  0  0  0  0  0  0  0  0  0  0  0
    0.0000    0.0000    0.0000 C   0  0  0  0  0  0  0  0  0  0  0  0
    0.0000    0.0000    0.0000 C   0  0  0  0  0  0  0  0  0  0  0  0
    0.0000    0.0000    0.0000 N   0  0  0  0  0  0  0  0  0  0  0  0
    0.0000    0.0000    0.0000 N   0  0  0  0  0  0  0  0  0  0  0  0
    0.0000    0.0000    0.0000 C   0  0  0  0  0  0  0  0  0  0  0  0
    0.0000    0.0000    0.0000 C   0  0  0  0  0  0  0  0  0  0  0  0
    0.0000    0.0000    0.0000 C   0  0  0  0  0  0  0  0  0  0  0  0
    0.0000    0.0000    0.0000 C   0  0  0  0  0  0  0  0  0  0  0  0
    0.0000    0.0000    0.0000 C   0  0  0  0  0  0  0  0  0  0  0  0
    0.0000    0.0000    0.0000 C   0  0  0  0  0  0  0  0  0  0  0  0
    0.0000    0.0000    0.0000 C   0  0  0  0  0  0  0  0  0  0  0  0
    0.0000    0.0000    0.0000 C   0  0  0  0  0  0  0  0  0  0  0  0
    0.0000    0.0000    0.0000 C   0  0  0  0  0  0  0  0  0  0  0  0
    0.0000    0.0000    0.0000 C   0  0  0  0  0  0  0  0  0  0  0  0
    0.0000    0.0000    0.0000 C   0  0  0  0  0  0  0  0  0  0  0  0
    0.0000    0.0000    0.0000 F   0  0  0  0  0  0  0  0  0  0  0  0
    0.0000    0.0000    0.0000 F   0  0  0  0  0  0  0  0  0  0  0  0
    0.0000    0.0000    0.0000 F   0  0  0  0  0  0  0  0  0  0  0  0
    0.0000    0.0000    0.0000 C   0  0  0  0  0  0  0  0  0  0  0  0
    0.0000    0.0000    0.0000 C   0  0  0  0  0  0  0  0  0  0  0  0
  1  2  2  0  0  0  0
  1  3  2  0  0  0  0
  1  4  1  0  0  0  0
  1  5  1  0  0  0  0
  5 26  1  0  0  0  0
  5  6  2  0  0  0  0
  6  7  1  0  0  0  0
  7  8  2  0  0  0  0
  8  9  1  0  0  0  0
  8 25  1  0  0  0  0
  9 13  1  0  0  0  0
  9 10  1  0  0  0  0
 10 11  2  0  0  0  0
 11 12  1  0  0  0  0
 11 21  1  0  0  0  0
 12 13  2  0  0  0  0
 13 14  1  0  0  0  0
 14 19  1  0  0  0  0
 14 15  2  0  0  0  0
 15 16  1  0  0  0  0
 16 17  2  0  0  0  0
 17 18  1  0  0  0  0
 17 20  1  0  0  0  0
 18 19  2  0  0  0  0
 21 22  1  0  0  0  0
 21 23  1  0  0  0  0
 21 24  1  0  0  0  0
 25 26  2  0  0  0  0
M  END
> <Index>
1482

> <ID>
HT0430

> <class>
1

> <apol>
48.730103

> <ast_fraglike>
0

> <ast_fraglike_ext>
0

> <ast_violation>
2

> <ast_violation_ext>
3

> <a_acc>
3

> <a_acid>
0

> <a_aro>
17

> <a_base>
0

> <a_count>
40

> <a_don>
1

> <a_donacc>
4

> <a_heavy>
26

> <a_hyd>
20

> <a_IC>
78.577515

> <a_ICM>
1.9644378

> <a_nB>
0

> <a_nBr>
0

> <a_nC>
17

> <a_nCl>
0

> <a_nF>
3

> <a_nH>
14

> <a_nI>
0

> <a_nN>
3

> <a_nO>
2

> <a_nP>
0

> <a_nS>
1

> <balabanJ>
1.6869076

> <BCUT_PEOE_0>
-2.325495

> <BCUT_PEOE_1>
-0.62216789

> <BCUT_PEOE_2>
0.69889909

> <BCUT_PEOE_3>
2.3897088

> <BCUT_SLOGP_0>
-2.5720878

> <BCUT_SLOGP_1>
-0.53807992

> <BCUT_SLOGP_2>
0.80591482

> <BCUT_SLOGP_3>
2.4685965

> <BCUT_SMR_0>
-1.993363

> <BCUT_SMR_1>
-0.49986199

> <BCUT_SMR_2>
0.85431087

> <BCUT_SMR_3>
2.7218058

> <bpol>
26.709898

> <b_1rotN>
3

> <b_1rotR>
0.10714286

> <b_ar>
17

> <b_count>
42

> <b_double>
0

> <b_heavy>
28

> <b_max1len>
3

> <b_rotN>
4

> <b_rotR>
0.14285715

> <b_single>
25

> <b_triple>
0

> <chi0>
19.11252

> <chi0v>
14.343064

> <chi0v_C>
9.6961527

> <chi0_C>
11.328063

> <chi1>
12.05368

> <chi1v>
8.9773312

> <chi1v_C>
5.2200847

> <chi1_C>
7.2818418

> <chiral>
0

> <chiral_u>
0

> <density>
0.87575549

> <diameter>
12

> <FCharge>
0

> <GCUT_PEOE_0>
-0.81587708

> <GCUT_PEOE_1>
-0.38768524

> <GCUT_PEOE_2>
0.080169797

> <GCUT_PEOE_3>
2.5373871

> <GCUT_SLOGP_0>
-1.3482726

> <GCUT_SLOGP_1>
-0.3031131

> <GCUT_SLOGP_2>
0.1737565

> <GCUT_SLOGP_3>
2.6470435

> <GCUT_SMR_0>
-0.47889569

> <GCUT_SMR_1>
-0.20412143

> <GCUT_SMR_2>
0.19305076

> <GCUT_SMR_3>
2.8233032

> <Kier1>
20.727041

> <Kier2>
7.7879934

> <Kier3>
4.8994083

> <KierA1>
16.263817

> <KierA2>
6.0477204

> <KierA3>
3.7763617

> <KierFlex>
3.7830391

> <lip_acc>
5

> <lip_don>
2

> <lip_druglike>
1

> <lip_violation>
0

> <logP(o/w)>
3.11676

> <logS>
-5.8439698

> <mr>
9.2867546

> <mutagenic>
0

> <nmol>
1

> <opr_brigid>
17

> <opr_leadlike>
1

> <opr_nring>
3

> <opr_nrot>
3

> <opr_violation>
0

> <PC+>
0

> <PC->
0

> <PEOE_PC+>
1.9196509

> <PEOE_PC->
-1.9196509

> <PEOE_RPC+>
0.22710395

> <PEOE_RPC->
0.12335873

> <PEOE_VSA+0>
66.858139

> <PEOE_VSA+1>
51.787575

> <PEOE_VSA+2>
0.0

> <PEOE_VSA+3>
6.6995511

> <PEOE_VSA+4>
0.0

> <PEOE_VSA+5>
4.1846013

> <PEOE_VSA+6>
9.0455017

> <PEOE_VSA-0>
55.51239

> <PEOE_VSA-1>
51.228157

> <PEOE_VSA-2>
0.0

> <PEOE_VSA-3>
54.190697

> <PEOE_VSA-4>
32.016521

> <PEOE_VSA-5>
0.0

> <PEOE_VSA-6>
0.0

> <PEOE_VSA_FHYD>
0.86351895

> <PEOE_VSA_FNEG>
0.58200389

> <PEOE_VSA_FPNEG>
0.096574023

> <PEOE_VSA_FPOL>
0.13648105

> <PEOE_VSA_FPOS>
0.41799608

> <PEOE_VSA_FPPOS>
0.039907027

> <PEOE_VSA_HYD>
286.27652

> <PEOE_VSA_NEG>
192.94777

> <PEOE_VSA_PNEG>
32.016521

> <PEOE_VSA_POL>
45.246628

> <PEOE_VSA_POS>
138.57538

> <PEOE_VSA_PPOS>
13.230103

> <petitjean>
0.5

> <petitjeanSC>
1.0

> <Q_PC+>
0

> <Q_PC->
0

> <Q_RPC+>
0

> <Q_RPC->
0

> <Q_VSA_FHYD>
1

> <Q_VSA_FNEG>
0

> <Q_VSA_FPNEG>
0

> <Q_VSA_FPOL>
0

> <Q_VSA_FPOS>
1

> <Q_VSA_FPPOS>
0

> <Q_VSA_HYD>
331.52313

> <Q_VSA_NEG>
0

> <Q_VSA_PNEG>
0

> <Q_VSA_POL>
0

> <Q_VSA_POS>
331.52313

> <Q_VSA_PPOS>
0

> <radius>
6

> <reactive>
0

> <rings>
3

> <RPC+>
0

> <RPC->
0

> <rsynth>
1.0

> <SlogP>
3.8254199

> <SlogP_VSA0>
31.291433

> <SlogP_VSA1>
66.611267

> <SlogP_VSA2>
6.6407428

> <SlogP_VSA3>
0.0

> <SlogP_VSA4>
5.9423227

> <SlogP_VSA5>
1.5507339

> <SlogP_VSA6>
7.7595162

> <SlogP_VSA7>
167.48773

> <SlogP_VSA8>
0.0

> <SlogP_VSA9>
78.206352

> <SMR>
9.0229197

> <SMR_VSA0>
48.171688

> <SMR_VSA1>
63.31992

> <SMR_VSA2>
9.3102503

> <SMR_VSA3>
5.9423227

> <SMR_VSA4>
39.990505

> <SMR_VSA5>
158.78867

> <SMR_VSA6>
0.0

> <SMR_VSA7>
39.966759

> <TPSA>
77.980003

> <VAdjEq>
0.41210872

> <VAdjMa>
5.8073549

> <VDistEq>
3.3687842

> <VDistMa>
9.122283

> <vdw_area>
331.52313

> <vdw_vol>
435.48456

> <vsa_acc>
41.437561

> <vsa_acid>
0

> <vsa_base>
0

> <vsa_don>
20.13512

> <vsa_hyd>
245.15665

> <vsa_other>
10.105608

> <vsa_pol>
61.572681

> <Weight>
381.37799

> <weinerPath>
1654

> <weinerPol>
41

> <zagreb>
142

$$$$
Row1482
 OpenBabel06061811532D

 27 29  0  0  1  0  0  0  0  0999 V2000
    0.0000    0.0000    0.0000 S   0  0  0  0  0  0  0  0  0  0  0  0
    0.0000    0.0000    0.0000 C   0  0  1  0  0  0  0  0  0  0  0  0
    0.0000    0.0000    0.0000 H   0  0  0  0  0  0  0  0  0  0  0  0
    0.0000    0.0000    0.0000 N   0  0  0  0  0  0  0  0  0  0  0  0
    0.0000    0.0000    0.0000 C   0  0  0  0  0  0  0  0  0  0  0  0
    0.0000    0.0000    0.0000 C   0  0  0  0  0  0  0  0  0  0  0  0
    0.0000    0.0000    0.0000 O   0  0  0  0  0  0  0  0  0  0  0  0
    0.0000    0.0000    0.0000 O   0  0  0  0  0  0  0  0  0  0  0  0
    0.0000    0.0000    0.0000 C   0  0  0  0  0  0  0  0  0  0  0  0
    0.0000    0.0000    0.0000 C   0  0  0  0  0  0  0  0  0  0  0  0
    0.0000    0.0000    0.0000 C   0  0  0  0  0  0  0  0  0  0  0  0
    0.0000    0.0000    0.0000 C   0  0  0  0  0  0  0  0  0  0  0  0
    0.0000    0.0000    0.0000 O   0  0  0  0  0  0  0  0  0  0  0  0
    0.0000    0.0000    0.0000 C   0  0  1  0  0  0  0  0  0  0  0  0
    0.0000    0.0000    0.0000 H   0  0  0  0  0  0  0  0  0  0  0  0
    0.0000    0.0000    0.0000 N   0  0  0  0  0  0  0  0  0  0  0  0
    0.0000    0.0000    0.0000 C   0  0  0  0  0  0  0  0  0  0  0  0
    0.0000    0.0000    0.0000 O   0  0  0  0  0  0  0  0  0  0  0  0
    0.0000    0.0000    0.0000 C   0  0  2  0  0  0  0  0  0  0  0  0
    0.0000    0.0000    0.0000 H   0  0  0  0  0  0  0  0  0  0  0  0
    0.0000    0.0000    0.0000 N   0  0  0  0  0  0  0  0  0  0  0  0
    0.0000    0.0000    0.0000 C   0  0  0  0  0  0  0  0  0  0  0  0
    0.0000    0.0000    0.0000 C   0  0  0  0  0  0  0  0  0  0  0  0
    0.0000    0.0000    0.0000 C   0  0  0  0  0  0  0  0  0  0  0  0
    0.0000    0.0000    0.0000 C   0  0  0  0  0  0  0  0  0  0  0  0
    0.0000    0.0000    0.0000 C   0  0  0  0  0  0  0  0  0  0  0  0
    0.0000    0.0000    0.0000 C   0  0  0  0  0  0  0  0  0  0  0  0
  1 10  1  0  0  0  0
  1  2  1  0  0  0  0
  2  3  1  0  0  0  0
  2 14  1  0  0  0  0
  2  4  1  0  0  0  0
  4  5  1  0  0  0  0
  4 12  1  0  0  0  0
  5  6  1  0  0  0  0
  5  9  2  0  0  0  0
  6  7  1  0  0  0  0
  6  8  2  0  0  0  0
  9 10  1  0  0  0  0
  9 11  1  0  0  0  0
 12 13  2  0  0  0  0
 12 14  1  0  0  0  0
 14 15  1  0  0  0  0
 14 16  1  0  0  0  0
 16 17  1  0  0  0  0
 17 18  2  0  0  0  0
 17 19  1  0  0  0  0
 19 20  1  0  0  0  0
 19 21  1  0  0  0  0
 19 22  1  0  0  0  0
 22 27  1  0  0  0  0
 22 23  2  0  0  0  0
 23 24  1  0  0  0  0
 24 25  2  0  0  0  0
 25 26  1  0  0  0  0
 26 27  2  0  0  0  0
M  END
> <Index>
1483

> <ID>
HT0431

> <class>
1

> <apol>
48.903481

> <ast_fraglike>
0

> <ast_fraglike_ext>
0

> <ast_violation>
3

> <ast_violation_ext>
5

> <a_acc>
5

> <a_acid>
0

> <a_aro>
6

> <a_base>
0

> <a_count>
41

> <a_don>
4

> <a_donacc>
9

> <a_heavy>
24

> <a_hyd>
14

> <a_IC>
73.417877

> <a_ICM>
1.7906799

> <a_nB>
0

> <a_nBr>
0

> <a_nC>
16

> <a_nCl>
0

> <a_nF>
0

> <a_nH>
17

> <a_nI>
0

> <a_nN>
3

> <a_nO>
4

> <a_nP>
0

> <a_nS>
1

> <balabanJ>
1.5845311

> <BCUT_PEOE_0>
-2.690222

> <BCUT_PEOE_1>
-0.57470775

> <BCUT_PEOE_2>
0.60851878

> <BCUT_PEOE_3>
2.735328

> <BCUT_SLOGP_0>
-2.8977151

> <BCUT_SLOGP_1>
-0.51484829

> <BCUT_SLOGP_2>
0.62951148

> <BCUT_SLOGP_3>
2.6262643

> <BCUT_SMR_0>
-2.4045284

> <BCUT_SMR_1>
-0.40939498

> <BCUT_SMR_2>
0.75274652

> <BCUT_SMR_3>
3.0180695

> <bpol>
25.718519

> <b_1rotN>
4

> <b_1rotR>
0.15384616

> <b_ar>
6

> <b_count>
43

> <b_double>
4

> <b_heavy>
26

> <b_max1len>
3

> <b_rotN>
5

> <b_rotR>
0.1923077

> <b_single>
33

> <b_triple>
0

> <chi0>
17.430357

> <chi0v>
13.747176

> <chi0v_C>
9.3259087

> <chi0_C>
10.438793

> <chi1>
11.413591

> <chi1v>
8.4501286

> <chi1v_C>
4.4635959

> <chi1_C>
5.8020949

> <chiral>
3

> <chiral_u>
0

> <density>
0.82170999

> <diameter>
12

> <FCharge>
0

> <GCUT_PEOE_0>
-0.82510161

> <GCUT_PEOE_1>
-0.42249763

> <GCUT_PEOE_2>
0.073037744

> <GCUT_PEOE_3>
2.5978463

> <GCUT_SLOGP_0>
-1.3374561

> <GCUT_SLOGP_1>
-0.37924394

> <GCUT_SLOGP_2>
0.13208754

> <GCUT_SLOGP_3>
2.5691586

> <GCUT_SMR_0>
-0.52949595

> <GCUT_SMR_1>
-0.22423124

> <GCUT_SMR_2>
0.20987403

> <GCUT_SMR_3>
2.8748369

> <Kier1>
18.781065

> <Kier2>
7.7091413

> <Kier3>
3.6183696

> <KierA1>
15.154058

> <KierA2>
6.1585441

> <KierA3>
2.8698587

> <KierFlex>
3.8886223

> <lip_acc>
7

> <lip_don>
4

> <lip_druglike>
1

> <lip_violation>
0

> <logP(o/w)>
0.278

> <logS>
-3.0434

> <mr>
8.9832602

> <mutagenic>
0

> <nmol>
1

> <opr_brigid>
15

> <opr_leadlike>
1

> <opr_nring>
3

> <opr_nrot>
4

> <opr_violation>
0

> <PC+>
0

> <PC->
0

> <PEOE_PC+>
2.5948741

> <PEOE_PC->
-2.5948741

> <PEOE_RPC+>
0.11865792

> <PEOE_RPC->
0.13125713

> <PEOE_VSA+0>
32.004307

> <PEOE_VSA+1>
34.123089

> <PEOE_VSA+2>
35.351521

> <PEOE_VSA+3>
8.6190128

> <PEOE_VSA+4>
23.273705

> <PEOE_VSA+5>
12.949531

> <PEOE_VSA+6>
14.708499

> <PEOE_VSA-0>
23.164757

> <PEOE_VSA-1>
61.274521

> <PEOE_VSA-2>
19.760618

> <PEOE_VSA-3>
0.0

> <PEOE_VSA-4>
0.0

> <PEOE_VSA-5>
40.700764

> <PEOE_VSA-6>
14.555551

> <PEOE_VSA_FHYD>
0.66866541

> <PEOE_VSA_FNEG>
0.49754521

> <PEOE_VSA_FPNEG>
0.1724142

> <PEOE_VSA_FPOL>
0.33133456

> <PEOE_VSA_FPOS>
0.50245482

> <PEOE_VSA_FPPOS>
0.15892038

> <PEOE_VSA_HYD>
214.29782

> <PEOE_VSA_NEG>
159.45621

> <PEOE_VSA_PNEG>
55.256313

> <PEOE_VSA_POL>
106.18805

> <PEOE_VSA_POS>
161.02966

> <PEOE_VSA_PPOS>
50.931732

> <petitjean>
0.5

> <petitjeanSC>
1.0

> <Q_PC+>
0

> <Q_PC->
0

> <Q_RPC+>
0

> <Q_RPC->
0

> <Q_VSA_FHYD>
1

> <Q_VSA_FNEG>
0

> <Q_VSA_FPNEG>
0

> <Q_VSA_FPOL>
0

> <Q_VSA_FPOS>
1

> <Q_VSA_FPPOS>
0

> <Q_VSA_HYD>
320.48587

> <Q_VSA_NEG>
0

> <Q_VSA_PNEG>
0

> <Q_VSA_POL>
0

> <Q_VSA_POS>
320.48587

> <Q_VSA_PPOS>
0

> <radius>
6

> <reactive>
0

> <rings>
3

> <RPC+>
0

> <RPC->
0

> <rsynth>
1.0

> <SlogP>
0.54040003

> <SlogP_VSA0>
50.90794

> <SlogP_VSA1>
21.387344

> <SlogP_VSA2>
77.915749

> <SlogP_VSA3>
42.61879

> <SlogP_VSA4>
3.185575

> <SlogP_VSA5>
5.9423227

> <SlogP_VSA6>
0.0

> <SlogP_VSA7>
88.215919

> <SlogP_VSA8>
3.9819686

> <SlogP_VSA9>
65.545555

> <SMR>
8.8840904

> <SMR_VSA0>
71.586647

> <SMR_VSA1>
3.1243138

> <SMR_VSA2>
43.395977

> <SMR_VSA3>
19.438963

> <SMR_VSA4>
32.897186

> <SMR_VSA5>
88.215919

> <SMR_VSA6>
35.496597

> <SMR_VSA7>
65.545555

> <TPSA>
112.73

> <VAdjEq>
0.43739632

> <VAdjMa>
5.7004399

> <VDistEq>
3.3900189

> <VDistMa>
8.8684988

> <vdw_area>
320.48587

> <vdw_vol>
422.77078

> <vsa_acc>
27.133842

> <vsa_acid>
0

> <vsa_base>
0

> <vsa_don>
5.6825762

> <vsa_hyd>
179.18744

> <vsa_other>
40.607563

> <vsa_pol>
77.692749

> <Weight>
347.39499

> <weinerPath>
1383

> <weinerPol>
39

> <zagreb>
128

$$$$
Row1483
 OpenBabel06061811532D

 27 29  0  0  1  0  0  0  0  0999 V2000
    0.0000    0.0000    0.0000 S   0  0  0  0  0  0  0  0  0  0  0  0
    0.0000    0.0000    0.0000 C   0  0  1  0  0  0  0  0  0  0  0  0
    0.0000    0.0000    0.0000 H   0  0  0  0  0  0  0  0  0  0  0  0
    0.0000    0.0000    0.0000 N   0  0  0  0  0  0  0  0  0  0  0  0
    0.0000    0.0000    0.0000 C   0  0  0  0  0  0  0  0  0  0  0  0
    0.0000    0.0000    0.0000 C   0  0  0  0  0  0  0  0  0  0  0  0
    0.0000    0.0000    0.0000 O   0  0  0  0  0  0  0  0  0  0  0  0
    0.0000    0.0000    0.0000 O   0  0  0  0  0  0  0  0  0  0  0  0
    0.0000    0.0000    0.0000 C   0  0  0  0  0  0  0  0  0  0  0  0
    0.0000    0.0000    0.0000 C   0  0  0  0  0  0  0  0  0  0  0  0
    0.0000    0.0000    0.0000 C   0  0  0  0  0  0  0  0  0  0  0  0
    0.0000    0.0000    0.0000 C   0  0  0  0  0  0  0  0  0  0  0  0
    0.0000    0.0000    0.0000 O   0  0  0  0  0  0  0  0  0  0  0  0
    0.0000    0.0000    0.0000 C   0  0  1  0  0  0  0  0  0  0  0  0
    0.0000    0.0000    0.0000 H   0  0  0  0  0  0  0  0  0  0  0  0
    0.0000    0.0000    0.0000 N   0  0  0  0  0  0  0  0  0  0  0  0
    0.0000    0.0000    0.0000 C   0  0  0  0  0  0  0  0  0  0  0  0
    0.0000    0.0000    0.0000 O   0  0  0  0  0  0  0  0  0  0  0  0
    0.0000    0.0000    0.0000 C   0  0  2  0  0  0  0  0  0  0  0  0
    0.0000    0.0000    0.0000 H   0  0  0  0  0  0  0  0  0  0  0  0
    0.0000    0.0000    0.0000 N   0  0  0  0  0  0  0  0  0  0  0  0
    0.0000    0.0000    0.0000 C   0  0  0  0  0  0  0  0  0  0  0  0
    0.0000    0.0000    0.0000 C   0  0  0  0  0  0  0  0  0  0  0  0
    0.0000    0.0000    0.0000 C   0  0  0  0  0  0  0  0  0  0  0  0
    0.0000    0.0000    0.0000 C   0  0  0  0  0  0  0  0  0  0  0  0
    0.0000    0.0000    0.0000 C   0  0  0  0  0  0  0  0  0  0  0  0
    0.0000    0.0000    0.0000 C   0  0  0  0  0  0  0  0  0  0  0  0
  1 10  1  0  0  0  0
  1  2  1  0  0  0  0
  2  3  1  0  0  0  0
  2 14  1  0  0  0  0
  2  4  1  0  0  0  0
  4  5  1  0  0  0  0
  4 12  1  0  0  0  0
  5  6  1  0  0  0  0
  5  9  2  0  0  0  0
  6  7  1  0  0  0  0
  6  8  2  0  0  0  0
  9 10  1  0  0  0  0
  9 11  1  0  0  0  0
 12 13  2  0  0  0  0
 12 14  1  0  0  0  0
 14 15  1  0  0  0  0
 14 16  1  0  0  0  0
 16 17  1  0  0  0  0
 17 18  2  0  0  0  0
 17 19  1  0  0  0  0
 19 20  1  0  0  0  0
 19 21  1  0  0  0  0
 19 22  1  0  0  0  0
 22 27  2  0  0  0  0
 22 23  1  0  0  0  0
 23 24  1  0  0  0  0
 24 25  2  0  0  0  0
 25 26  1  0  0  0  0
 26 27  1  0  0  0  0
M  END
> <Index>
1484

> <ID>
HT0435

> <class>
1

> <apol>
50.237068

> <ast_fraglike>
0

> <ast_fraglike_ext>
0

> <ast_violation>
3

> <ast_violation_ext>
5

> <a_acc>
5

> <a_acid>
0

> <a_aro>
0

> <a_base>
0

> <a_count>
43

> <a_don>
4

> <a_donacc>
9

> <a_heavy>
24

> <a_hyd>
14

> <a_IC>
75.863876

> <a_ICM>
1.7642761

> <a_nB>
0

> <a_nBr>
0

> <a_nC>
16

> <a_nCl>
0

> <a_nF>
0

> <a_nH>
19

> <a_nI>
0

> <a_nN>
3

> <a_nO>
4

> <a_nP>
0

> <a_nS>
1

> <balabanJ>
1.5841708

> <BCUT_PEOE_0>
-2.6919012

> <BCUT_PEOE_1>
-0.56372333

> <BCUT_PEOE_2>
0.60716492

> <BCUT_PEOE_3>
2.7362123

> <BCUT_SLOGP_0>
-2.9095044

> <BCUT_SLOGP_1>
-0.48938569

> <BCUT_SLOGP_2>
0.53984332

> <BCUT_SLOGP_3>
2.6264699

> <BCUT_SMR_0>
-2.406162

> <BCUT_SMR_1>
-0.4125081

> <BCUT_SMR_2>
0.73962796

> <BCUT_SMR_3>
3.018944

> <bpol>
27.904934

> <b_1rotN>
4

> <b_1rotR>
0.15384616

> <b_ar>
0

> <b_count>
45

> <b_double>
6

> <b_heavy>
26

> <b_max1len>
3

> <b_rotN>
5

> <b_rotR>
0.1923077

> <b_single>
39

> <b_triple>
0

> <chi0>
17.430357

> <chi0v>
14.006689

> <chi0v_C>
9.5854216

> <chi0_C>
10.438793

> <chi1>
11.413591

> <chi1v>
8.7397509

> <chi1v_C>
4.7532187

> <chi1_C>
5.8020949

> <chiral>
3

> <chiral_u>
0

> <density>
0.81510007

> <diameter>
12

> <FCharge>
0

> <GCUT_PEOE_0>
-0.82521063

> <GCUT_PEOE_1>
-0.4364433

> <GCUT_PEOE_2>
0.06903974

> <GCUT_PEOE_3>
2.6408219

> <GCUT_SLOGP_0>
-1.363713

> <GCUT_SLOGP_1>
-0.39627507

> <GCUT_SLOGP_2>
0.12009358

> <GCUT_SLOGP_3>
2.6081865

> <GCUT_SMR_0>
-0.52954191

> <GCUT_SMR_1>
-0.22834019

> <GCUT_SMR_2>
0.21798317

> <GCUT_SMR_3>
2.9129136

> <Kier1>
18.781065

> <Kier2>
7.7091413

> <Kier3>
3.6183696

> <KierA1>
15.704977

> <KierA2>
6.3933845

> <KierA3>
2.9829841

> <KierFlex>
4.1836648

> <lip_acc>
7

> <lip_don>
4

> <lip_druglike>
1

> <lip_violation>
0

> <logP(o/w)>
-0.47999999

> <logS>
-2.5228601

> <mr>
8.9863405

> <mutagenic>
0

> <nmol>
1

> <opr_brigid>
15

> <opr_leadlike>
1

> <opr_nring>
3

> <opr_nrot>
4

> <opr_violation>
0

> <PC+>
0

> <PC->
0

> <PEOE_PC+>
2.5935872

> <PEOE_PC->
-2.5935872

> <PEOE_RPC+>
0.11871679

> <PEOE_RPC->
0.13132556

> <PEOE_VSA+0>
49.065849

> <PEOE_VSA+1>
25.592316

> <PEOE_VSA+2>
35.351521

> <PEOE_VSA+3>
8.6190128

> <PEOE_VSA+4>
23.273705

> <PEOE_VSA+5>
12.949531

> <PEOE_VSA+6>
14.708499

> <PEOE_VSA-0>
40.567383

> <PEOE_VSA-1>
36.764713

> <PEOE_VSA-2>
19.760618

> <PEOE_VSA-3>
0.0

> <PEOE_VSA-4>
0.0

> <PEOE_VSA-5>
40.700764

> <PEOE_VSA-6>
14.555551

> <PEOE_VSA_FHYD>
0.67013073

> <PEOE_VSA_FNEG>
0.47326669

> <PEOE_VSA_FPNEG>
0.17165172

> <PEOE_VSA_FPOL>
0.3298693

> <PEOE_VSA_FPOS>
0.52673328

> <PEOE_VSA_FPPOS>
0.15821758

> <PEOE_VSA_HYD>
215.72141

> <PEOE_VSA_NEG>
152.34903

> <PEOE_VSA_PNEG>
55.256313

> <PEOE_VSA_POL>
106.18805

> <PEOE_VSA_POS>
169.56042

> <PEOE_VSA_PPOS>
50.931732

> <petitjean>
0.5

> <petitjeanSC>
1.0

> <Q_PC+>
0

> <Q_PC->
0

> <Q_RPC+>
0

> <Q_RPC->
0

> <Q_VSA_FHYD>
1

> <Q_VSA_FNEG>
0

> <Q_VSA_FPNEG>
0

> <Q_VSA_FPOL>
0

> <Q_VSA_FPOS>
1

> <Q_VSA_FPPOS>
0

> <Q_VSA_HYD>
321.90945

> <Q_VSA_NEG>
0

> <Q_VSA_PNEG>
0

> <Q_VSA_POL>
0

> <Q_VSA_POS>
321.90945

> <Q_VSA_PPOS>
0

> <radius>
6

> <reactive>
0

> <rings>
3

> <RPC+>
0

> <RPC->
0

> <rsynth>
0.58333331

> <SlogP>
0.3486

> <SlogP_VSA0>
50.90794

> <SlogP_VSA1>
21.387344

> <SlogP_VSA2>
81.897713

> <SlogP_VSA3>
42.61879

> <SlogP_VSA4>
0.0

> <SlogP_VSA5>
9.1278973

> <SlogP_VSA6>
0.0

> <SlogP_VSA7>
52.929554

> <SlogP_VSA8>
37.736813

> <SlogP_VSA9>
65.545555

> <SMR>
8.9791899

> <SMR_VSA0>
71.586647

> <SMR_VSA1>
3.1243138

> <SMR_VSA2>
43.395977

> <SMR_VSA3>
19.438963

> <SMR_VSA4>
32.897186

> <SMR_VSA5>
90.666367

> <SMR_VSA6>
35.496597

> <SMR_VSA7>
65.545555

> <TPSA>
112.73

> <VAdjEq>
0.43739632

> <VAdjMa>
5.7004399

> <VDistEq>
3.3900189

> <VDistMa>
8.8684988

> <vdw_area>
321.90945

> <vdw_vol>
428.67249

> <vsa_acc>
27.133842

> <vsa_acid>
0

> <vsa_base>
0

> <vsa_don>
5.6825762

> <vsa_hyd>
179.18744

> <vsa_other>
40.607563

> <vsa_pol>
77.692749

> <Weight>
349.41098

> <weinerPath>
1383

> <weinerPol>
39

> <zagreb>
128

$$$$
Row1484
 OpenBabel06061811532D

 35 36  0  0  1  0  0  0  0  0999 V2000
    0.0000    0.0000    0.0000 F   0  0  0  0  0  0  0  0  0  0  0  0
    0.0000    0.0000    0.0000 C   0  0  0  0  0  0  0  0  0  0  0  0
    0.0000    0.0000    0.0000 C   0  0  0  0  0  0  0  0  0  0  0  0
    0.0000    0.0000    0.0000 C   0  0  0  0  0  0  0  0  0  0  0  0
    0.0000    0.0000    0.0000 C   0  0  0  0  0  0  0  0  0  0  0  0
    0.0000    0.0000    0.0000 C   0  0  0  0  0  0  0  0  0  0  0  0
    0.0000    0.0000    0.0000 C   0  0  0  0  0  0  0  0  0  0  0  0
    0.0000    0.0000    0.0000 C   0  0  0  0  0  0  0  0  0  0  0  0
    0.0000    0.0000    0.0000 C   0  0  0  0  0  0  0  0  0  0  0  0
    0.0000    0.0000    0.0000 C   0  0  0  0  0  0  0  0  0  0  0  0
    0.0000    0.0000    0.0000 O   0  0  0  0  0  0  0  0  0  0  0  0
    0.0000    0.0000    0.0000 C   0  0  0  0  0  0  0  0  0  0  0  0
    0.0000    0.0000    0.0000 C   0  0  0  0  0  0  0  0  0  0  0  0
    0.0000    0.0000    0.0000 N   0  0  0  0  0  0  0  0  0  0  0  0
    0.0000    0.0000    0.0000 C   0  0  0  0  0  0  0  0  0  0  0  0
    0.0000    0.0000    0.0000 C   0  0  0  0  0  0  0  0  0  0  0  0
    0.0000    0.0000    0.0000 C   0  0  0  0  0  0  0  0  0  0  0  0
    0.0000    0.0000    0.0000 C   0  0  0  0  0  0  0  0  0  0  0  0
    0.0000    0.0000    0.0000 C   0  0  0  0  0  0  0  0  0  0  0  0
    0.0000    0.0000    0.0000 C   0  0  0  0  0  0  0  0  0  0  0  0
    0.0000    0.0000    0.0000 C   0  0  0  0  0  0  0  0  0  0  0  0
    0.0000    0.0000    0.0000 C   0  0  1  0  0  0  0  0  0  0  0  0
    0.0000    0.0000    0.0000 H   0  0  0  0  0  0  0  0  0  0  0  0
    0.0000    0.0000    0.0000 O   0  0  0  0  0  0  0  0  0  0  0  0
    0.0000    0.0000    0.0000 C   0  0  0  0  0  0  0  0  0  0  0  0
    0.0000    0.0000    0.0000 C   0  0  1  0  0  0  0  0  0  0  0  0
    0.0000    0.0000    0.0000 H   0  0  0  0  0  0  0  0  0  0  0  0
    0.0000    0.0000    0.0000 O   0  0  0  0  0  0  0  0  0  0  0  0
    0.0000    0.0000    0.0000 C   0  0  0  0  0  0  0  0  0  0  0  0
    0.0000    0.0000    0.0000 C   0  0  0  0  0  0  0  0  0  0  0  0
    0.0000    0.0000    0.0000 O   0  0  0  0  0  0  0  0  0  0  0  0
    0.0000    0.0000    0.0000 O   0  0  0  0  0  0  0  0  0  0  0  0
    0.0000    0.0000    0.0000 C   0  0  0  0  0  0  0  0  0  0  0  0
    0.0000    0.0000    0.0000 C   0  0  0  0  0  0  0  0  0  0  0  0
    0.0000    0.0000    0.0000 C   0  0  0  0  0  0  0  0  0  0  0  0
  1  2  1  0  0  0  0
  2  7  1  0  0  0  0
  2  3  2  0  0  0  0
  3  4  1  0  0  0  0
  4  5  2  0  0  0  0
  5  6  1  0  0  0  0
  5  8  1  0  0  0  0
  6  7  2  0  0  0  0
  8 19  1  0  0  0  0
  8  9  2  0  0  0  0
  9 10  1  0  0  0  0
  9 13  1  0  0  0  0
 10 11  1  0  0  0  0
 11 12  1  0  0  0  0
 13 14  2  0  0  0  0
 13 33  1  0  0  0  0
 14 15  1  0  0  0  0
 15 16  1  0  0  0  0
 15 19  2  0  0  0  0
 16 17  1  0  0  0  0
 16 18  1  0  0  0  0
 19 20  1  0  0  0  0
 20 21  2  3  0  0  0
 21 22  1  0  0  0  0
 22 23  1  0  0  0  0
 22 24  1  0  0  0  0
 22 25  1  0  0  0  0
 25 26  1  0  0  0  0
 26 27  1  0  0  0  0
 26 28  1  0  0  0  0
 26 29  1  0  0  0  0
 29 30  1  0  0  0  0
 30 31  1  0  0  0  0
 30 32  2  0  0  0  0
 33 34  1  0  0  0  0
 33 35  1  0  0  0  0
M  END
> <Index>
1485

> <ID>
HT0436

> <class>
1

> <apol>
74.097961

> <ast_fraglike>
0

> <ast_fraglike_ext>
0

> <ast_violation>
4

> <ast_violation_ext>
6

> <a_acc>
6

> <a_acid>
0

> <a_aro>
12

> <a_base>
0

> <a_count>
67

> <a_don>
4

> <a_donacc>
10

> <a_heavy>
33

> <a_hyd>
26

> <a_IC>
99.633163

> <a_ICM>
1.4870622

> <a_nB>
0

> <a_nBr>
0

> <a_nC>
26

> <a_nCl>
0

> <a_nF>
1

> <a_nH>
34

> <a_nI>
0

> <a_nN>
1

> <a_nO>
5

> <a_nP>
0

> <a_nS>
0

> <balabanJ>
2.2465756

> <BCUT_PEOE_0>
-2.5867848

> <BCUT_PEOE_1>
-0.54580325

> <BCUT_PEOE_2>
0.54198426

> <BCUT_PEOE_3>
2.6174717

> <BCUT_SLOGP_0>
-2.6402047

> <BCUT_SLOGP_1>
-0.46805957

> <BCUT_SLOGP_2>
0.52524555

> <BCUT_SLOGP_3>
2.6735113

> <BCUT_SMR_0>
-2.3631308

> <BCUT_SMR_1>
-0.36274165

> <BCUT_SMR_2>
0.69930518

> <BCUT_SMR_3>
2.8359814

> <bpol>
42.566036

> <b_1rotN>
11

> <b_1rotR>
0.32352942

> <b_ar>
12

> <b_count>
68

> <b_double>
2

> <b_heavy>
34

> <b_max1len>
6

> <b_rotN>
11

> <b_rotR>
0.32352942

> <b_single>
54

> <b_triple>
0

> <chi0>
24.706377

> <chi0v>
19.878138

> <chi0v_C>
16.894823

> <chi0_C>
18.292164

> <chi1>
15.54382

> <chi1v>
11.12256

> <chi1v_C>
8.8453121

> <chi1_C>
10.633466

> <chiral>
2

> <chiral_u>
0

> <density>
0.72274214

> <diameter>
14

> <FCharge>
0

> <GCUT_PEOE_0>
-0.81009001

> <GCUT_PEOE_1>
-0.38797799

> <GCUT_PEOE_2>
0.063568749

> <GCUT_PEOE_3>
2.9104841

> <GCUT_SLOGP_0>
-0.87814718

> <GCUT_SLOGP_1>
-0.29520223

> <GCUT_SLOGP_2>
0.061551418

> <GCUT_SLOGP_3>
3.0284929

> <GCUT_SMR_0>
-0.52513021

> <GCUT_SMR_1>
-0.21489383

> <GCUT_SMR_2>
0.15806137

> <GCUT_SMR_3>
3.1810222

> <Kier1>
29.231834

> <Kier2>
13.921231

> <Kier3>
8.5612364

> <KierA1>
23.616259

> <KierA2>
11.167686

> <KierA3>
6.8326178

> <KierFlex>
7.9920897

> <lip_acc>
6

> <lip_don>
3

> <lip_druglike>
1

> <lip_violation>
1

> <logP(o/w)>
4.7820001

> <logS>
-4.55199

> <mr>
12.764337

> <mutagenic>
0

> <nmol>
1

> <opr_brigid>
13

> <opr_leadlike>
0

> <opr_nring>
2

> <opr_nrot>
11

> <opr_violation>
3

> <PC+>
0

> <PC->
0

> <PEOE_PC+>
2.7324407

> <PEOE_PC->
-2.7324407

> <PEOE_RPC+>
0.095908336

> <PEOE_RPC->
0.14316511

> <PEOE_VSA+0>
114.893

> <PEOE_VSA+1>
102.31158

> <PEOE_VSA+2>
9.0208454

> <PEOE_VSA+3>
0.0

> <PEOE_VSA+4>
30.972517

> <PEOE_VSA+5>
14.708499

> <PEOE_VSA+6>
0.0

> <PEOE_VSA-0>
28.926888

> <PEOE_VSA-1>
124.01032

> <PEOE_VSA-2>
0.0

> <PEOE_VSA-3>
0.0

> <PEOE_VSA-4>
11.908636

> <PEOE_VSA-5>
19.249496

> <PEOE_VSA-6>
25.806377

> <PEOE_VSA_FHYD>
0.78695768

> <PEOE_VSA_FNEG>
0.43565413

> <PEOE_VSA_FPNEG>
0.11823069

> <PEOE_VSA_FPOL>
0.21304232

> <PEOE_VSA_FPOS>
0.56434584

> <PEOE_VSA_FPPOS>
0.094811626

> <PEOE_VSA_HYD>
379.16263

> <PEOE_VSA_NEG>
209.90172

> <PEOE_VSA_PNEG>
56.964508

> <PEOE_VSA_POL>
102.64552

> <PEOE_VSA_POS>
271.90643

> <PEOE_VSA_PPOS>
45.681019

> <petitjean>
0.5

> <petitjeanSC>
1.0

> <Q_PC+>
0

> <Q_PC->
0

> <Q_RPC+>
0

> <Q_RPC->
0

> <Q_VSA_FHYD>
1

> <Q_VSA_FNEG>
0

> <Q_VSA_FPNEG>
0

> <Q_VSA_FPOL>
0

> <Q_VSA_FPOS>
1

> <Q_VSA_FPPOS>
0

> <Q_VSA_HYD>
481.80817

> <Q_VSA_NEG>
0

> <Q_VSA_PNEG>
0

> <Q_VSA_POL>
0

> <Q_VSA_POS>
481.80817

> <Q_VSA_PPOS>
0

> <radius>
7

> <reactive>
0

> <rings>
2

> <RPC+>
0

> <RPC->
0

> <rsynth>
1.0

> <SlogP>
5.1471

> <SlogP_VSA0>
50.770454

> <SlogP_VSA1>
24.530994

> <SlogP_VSA2>
56.920422

> <SlogP_VSA3>
25.385227

> <SlogP_VSA4>
11.884645

> <SlogP_VSA5>
35.383869

> <SlogP_VSA6>
8.8215923

> <SlogP_VSA7>
94.587074

> <SlogP_VSA8>
55.379993

> <SlogP_VSA9>
169.19043

> <SMR>
12.66444

> <SMR_VSA0>
34.862103

> <SMR_VSA1>
82.516098

> <SMR_VSA2>
34.506245

> <SMR_VSA3>
33.643536

> <SMR_VSA4>
6.37115

> <SMR_VSA5>
146.879

> <SMR_VSA6>
25.388649

> <SMR_VSA7>
168.68793

> <TPSA>
99.879997

> <VAdjEq>
0.33706582

> <VAdjMa>
6.0874629

> <VDistEq>
3.575541

> <VDistMa>
9.8361368

> <vdw_area>
481.80817

> <vdw_vol>
635.85333

> <vsa_acc>
8.1863317

> <vsa_acid>
0

> <vsa_base>
0

> <vsa_don>
0.0

> <vsa_hyd>
366.31552

> <vsa_other>
14.708499

> <vsa_pol>
62.454014

> <Weight>
459.55798

> <weinerPath>
3124

> <weinerPol>
52

> <zagreb>
162

$$$$
Row1485
 OpenBabel06061811532D

 28 30  0  0  1  0  0  0  0  0999 V2000
    0.0000    0.0000    0.0000 Cl  0  0  0  0  0  0  0  0  0  0  0  0
    0.0000    0.0000    0.0000 C   0  0  0  0  0  0  0  0  0  0  0  0
    0.0000    0.0000    0.0000 C   0  0  0  0  0  0  0  0  0  0  0  0
    0.0000    0.0000    0.0000 C   0  0  0  0  0  0  0  0  0  0  0  0
    0.0000    0.0000    0.0000 C   0  0  0  0  0  0  0  0  0  0  0  0
    0.0000    0.0000    0.0000 C   0  0  0  0  0  0  0  0  0  0  0  0
    0.0000    0.0000    0.0000 C   0  0  0  0  0  0  0  0  0  0  0  0
    0.0000    0.0000    0.0000 C   0  0  2  0  0  0  0  0  0  0  0  0
    0.0000    0.0000    0.0000 H   0  0  0  0  0  0  0  0  0  0  0  0
    0.0000    0.0000    0.0000 N   0  0  0  0  0  0  0  0  0  0  0  0
    0.0000    0.0000    0.0000 C   0  0  0  0  0  0  0  0  0  0  0  0
    0.0000    0.0000    0.0000 C   0  0  0  0  0  0  0  0  0  0  0  0
    0.0000    0.0000    0.0000 N   0  0  0  0  0  0  0  0  0  0  0  0
    0.0000    0.0000    0.0000 C   0  0  0  0  0  0  0  0  0  0  0  0
    0.0000    0.0000    0.0000 C   0  0  0  0  0  0  0  0  0  0  0  0
    0.0000    0.0000    0.0000 C   0  0  0  0  0  0  0  0  0  0  0  0
    0.0000    0.0000    0.0000 C   0  0  0  0  0  0  0  0  0  0  0  0
    0.0000    0.0000    0.0000 O   0  0  0  0  0  0  0  0  0  0  0  0
    0.0000    0.0000    0.0000 C   0  0  0  0  0  0  0  0  0  0  0  0
    0.0000    0.0000    0.0000 C   0  0  0  0  0  0  0  0  0  0  0  0
    0.0000    0.0000    0.0000 O   0  0  0  0  0  0  0  0  0  0  0  0
    0.0000    0.0000    0.0000 O   0  0  0  0  0  0  0  0  0  0  0  0
    0.0000    0.0000    0.0000 C   0  0  0  0  0  0  0  0  0  0  0  0
    0.0000    0.0000    0.0000 C   0  0  0  0  0  0  0  0  0  0  0  0
    0.0000    0.0000    0.0000 C   0  0  0  0  0  0  0  0  0  0  0  0
    0.0000    0.0000    0.0000 C   0  0  0  0  0  0  0  0  0  0  0  0
    0.0000    0.0000    0.0000 C   0  0  0  0  0  0  0  0  0  0  0  0
    0.0000    0.0000    0.0000 C   0  0  0  0  0  0  0  0  0  0  0  0
  1  2  1  0  0  0  0
  2  7  1  0  0  0  0
  2  3  2  0  0  0  0
  3  4  1  0  0  0  0
  4  5  2  0  0  0  0
  5  6  1  0  0  0  0
  5  8  1  0  0  0  0
  6  7  2  0  0  0  0
  8  9  1  0  0  0  0
  8 10  1  0  0  0  0
  8 23  1  0  0  0  0
 10 15  1  0  0  0  0
 10 11  1  0  0  0  0
 11 12  1  0  0  0  0
 12 13  1  0  0  0  0
 13 14  1  0  0  0  0
 13 16  1  0  0  0  0
 14 15  1  0  0  0  0
 16 17  1  0  0  0  0
 17 18  1  0  0  0  0
 18 19  1  0  0  0  0
 19 20  1  0  0  0  0
 20 21  1  0  0  0  0
 20 22  2  0  0  0  0
 23 28  1  0  0  0  0
 23 24  2  0  0  0  0
 24 25  1  0  0  0  0
 25 26  2  0  0  0  0
 26 27  1  0  0  0  0
 27 28  2  0  0  0  0
M  END
> <Index>
1486

> <ID>
HT0439

> <class>
1

> <apol>
60.415825

> <ast_fraglike>
0

> <ast_fraglike_ext>
0

> <ast_violation>
3

> <ast_violation_ext>
4

> <a_acc>
5

> <a_acid>
0

> <a_aro>
12

> <a_base>
0

> <a_count>
52

> <a_don>
2

> <a_donacc>
7

> <a_heavy>
27

> <a_hyd>
21

> <a_IC>
81.332909

> <a_ICM>
1.5640944

> <a_nB>
0

> <a_nBr>
0

> <a_nC>
21

> <a_nCl>
1

> <a_nF>
0

> <a_nH>
25

> <a_nI>
0

> <a_nN>
2

> <a_nO>
3

> <a_nP>
0

> <a_nS>
0

> <balabanJ>
1.4955168

> <BCUT_PEOE_0>
-2.7865868

> <BCUT_PEOE_1>
-0.55380625

> <BCUT_PEOE_2>
0.58136469

> <BCUT_PEOE_3>
2.6885023

> <BCUT_SLOGP_0>
-2.8923323

> <BCUT_SLOGP_1>
-0.50217956

> <BCUT_SLOGP_2>
0.80591482

> <BCUT_SLOGP_3>
2.6314454

> <BCUT_SMR_0>
-2.5025194

> <BCUT_SMR_1>
-0.38946378

> <BCUT_SMR_2>
0.85431087

> <BCUT_SMR_3>
2.9646428

> <bpol>
34.584175

> <b_1rotN>
8

> <b_1rotR>
0.27586207

> <b_ar>
12

> <b_count>
54

> <b_double>
1

> <b_heavy>
29

> <b_max1len>
5

> <b_rotN>
8

> <b_rotR>
0.27586207

> <b_single>
41

> <b_triple>
0

> <chi0>
19.062267

> <chi0v>
16.015282

> <chi0v_C>
12.72325

> <chi0_C>
14.200459

> <chi1>
13.13103

> <chi1v>
9.5743198

> <chi1v_C>
6.1629543

> <chi1_C>
8.0244045

> <chiral>
1

> <chiral_u>
0

> <density>
0.74510306

> <diameter>
15

> <FCharge>
0

> <GCUT_PEOE_0>
-0.85088855

> <GCUT_PEOE_1>
-0.38468879

> <GCUT_PEOE_2>
0.079418793

> <GCUT_PEOE_3>
2.8154447

> <GCUT_SLOGP_0>
-0.96421331

> <GCUT_SLOGP_1>
-0.26386139

> <GCUT_SLOGP_2>
0.16445385

> <GCUT_SLOGP_3>
2.8584445

> <GCUT_SMR_0>
-0.51605988

> <GCUT_SMR_1>
-0.21605732

> <GCUT_SMR_2>
0.19305076

> <GCUT_SMR_3>
3.0788844

> <Kier1>
21.702734

> <Kier2>
11.253463

> <Kier3>
6.7795382

> <KierA1>
18.411913

> <KierA2>
9.4834785

> <KierA3>
5.6849322

> <KierFlex>
6.4669995

> <lip_acc>
5

> <lip_don>
1

> <lip_druglike>
1

> <lip_violation>
0

> <logP(o/w)>
3.404

> <logS>
-3.9437301

> <mr>
10.827313

> <mutagenic>
0

> <nmol>
1

> <opr_brigid>
18

> <opr_leadlike>
1

> <opr_nring>
3

> <opr_nrot>
10

> <opr_violation>
0

> <PC+>
0

> <PC->
0

> <PEOE_PC+>
2.1777782

> <PEOE_PC->
-2.1777782

> <PEOE_RPC+>
0.13111916

> <PEOE_RPC->
0.16922425

> <PEOE_VSA+0>
113.13523

> <PEOE_VSA+1>
77.81266

> <PEOE_VSA+2>
14.951293

> <PEOE_VSA+3>
0.0

> <PEOE_VSA+4>
10.324173

> <PEOE_VSA+5>
14.708499

> <PEOE_VSA+6>
0.0

> <PEOE_VSA-0>
28.926888

> <PEOE_VSA-1>
115.36627

> <PEOE_VSA-2>
0.0

> <PEOE_VSA-3>
0.0

> <PEOE_VSA-4>
0.0

> <PEOE_VSA-5>
13.566921

> <PEOE_VSA-6>
10.271297

> <PEOE_VSA_FHYD>
0.877536

> <PEOE_VSA_FNEG>
0.42131513

> <PEOE_VSA_FPNEG>
0.05973544

> <PEOE_VSA_FPOL>
0.12246402

> <PEOE_VSA_FPOS>
0.57868487

> <PEOE_VSA_FPPOS>
0.062728584

> <PEOE_VSA_HYD>
350.19235

> <PEOE_VSA_NEG>
168.13138

> <PEOE_VSA_PNEG>
23.838217

> <PEOE_VSA_POL>
48.870888

> <PEOE_VSA_POS>
230.93185

> <PEOE_VSA_PPOS>
25.032671

> <petitjean>
0.46666667

> <petitjeanSC>
0.875

> <Q_PC+>
0

> <Q_PC->
0

> <Q_RPC+>
0

> <Q_RPC->
0

> <Q_VSA_FHYD>
1

> <Q_VSA_FNEG>
0

> <Q_VSA_FPNEG>
0

> <Q_VSA_FPOL>
0

> <Q_VSA_FPOS>
1

> <Q_VSA_FPPOS>
0

> <Q_VSA_HYD>
399.06323

> <Q_VSA_NEG>
0

> <Q_VSA_PNEG>
0

> <Q_VSA_POL>
0

> <Q_VSA_POS>
399.06323

> <Q_VSA_PPOS>
0

> <radius>
8

> <reactive>
0

> <rings>
3

> <RPC+>
0

> <RPC->
0

> <rsynth>
0.48148149

> <SlogP>
3.2437

> <SlogP_VSA0>
0.0

> <SlogP_VSA1>
13.994092

> <SlogP_VSA2>
34.862103

> <SlogP_VSA3>
159.43564

> <SlogP_VSA4>
6.37115

> <SlogP_VSA5>
0.0

> <SlogP_VSA6>
3.5006065

> <SlogP_VSA7>
158.78867

> <SlogP_VSA8>
3.9819686

> <SlogP_VSA9>
39.148643

> <SMR>
10.63158

> <SMR_VSA0>
34.862103

> <SMR_VSA1>
6.2486277

> <SMR_VSA2>
25.385227

> <SMR_VSA3>
13.853725

> <SMR_VSA4>
0.0

> <SMR_VSA5>
158.78867

> <SMR_VSA6>
141.79587

> <SMR_VSA7>
39.148643

> <TPSA>
53.009998

> <VAdjEq>
0.40063059

> <VAdjMa>
5.8579812

> <VDistEq>
3.6699224

> <VDistMa>
9.1952391

> <vdw_area>
399.06323

> <vdw_vol>
521.93451

> <vsa_acc>
2.503756

> <vsa_acid>
0

> <vsa_base>
0

> <vsa_don>
0.0

> <vsa_hyd>
333.10925

> <vsa_other>
14.708499

> <vsa_pol>
29.637598

> <Weight>
388.89499

> <weinerPath>
2068

> <weinerPol>
38

> <zagreb>
134

$$$$
Row1486
 OpenBabel06061811532D

 36 39  0  0  1  0  0  0  0  0999 V2000
    0.0000    0.0000    0.0000 O   0  0  0  0  0  0  0  0  0  0  0  0
    0.0000    0.0000    0.0000 C   0  0  2  0  0  0  0  0  0  0  0  0
    0.0000    0.0000    0.0000 H   0  0  0  0  0  0  0  0  0  0  0  0
    0.0000    0.0000    0.0000 C   0  0  0  0  0  0  0  0  0  0  0  0
    0.0000    0.0000    0.0000 C   0  0  0  0  0  0  0  0  0  0  0  0
    0.0000    0.0000    0.0000 C   0  0  1  0  0  0  0  0  0  0  0  0
    0.0000    0.0000    0.0000 C   0  0  1  0  0  0  0  0  0  0  0  0
    0.0000    0.0000    0.0000 H   0  0  0  0  0  0  0  0  0  0  0  0
    0.0000    0.0000    0.0000 C   0  0  0  0  0  0  0  0  0  0  0  0
    0.0000    0.0000    0.0000 C   0  0  0  0  0  0  0  0  0  0  0  0
    0.0000    0.0000    0.0000 C   0  0  1  0  0  0  0  0  0  0  0  0
    0.0000    0.0000    0.0000 H   0  0  0  0  0  0  0  0  0  0  0  0
    0.0000    0.0000    0.0000 O   0  0  0  0  0  0  0  0  0  0  0  0
    0.0000    0.0000    0.0000 C   0  0  1  0  0  0  0  0  0  0  0  0
    0.0000    0.0000    0.0000 H   0  0  0  0  0  0  0  0  0  0  0  0
    0.0000    0.0000    0.0000 C   0  0  2  0  0  0  0  0  0  0  0  0
    0.0000    0.0000    0.0000 H   0  0  0  0  0  0  0  0  0  0  0  0
    0.0000    0.0000    0.0000 C   0  0  0  0  0  0  0  0  0  0  0  0
    0.0000    0.0000    0.0000 C   0  0  0  0  0  0  0  0  0  0  0  0
    0.0000    0.0000    0.0000 C   0  0  2  0  0  0  0  0  0  0  0  0
    0.0000    0.0000    0.0000 H   0  0  0  0  0  0  0  0  0  0  0  0
    0.0000    0.0000    0.0000 C   0  0  1  0  0  0  0  0  0  0  0  0
    0.0000    0.0000    0.0000 H   0  0  0  0  0  0  0  0  0  0  0  0
    0.0000    0.0000    0.0000 C   0  0  0  0  0  0  0  0  0  0  0  0
    0.0000    0.0000    0.0000 C   0  0  0  0  0  0  0  0  0  0  0  0
    0.0000    0.0000    0.0000 C   0  0  0  0  0  0  0  0  0  0  0  0
    0.0000    0.0000    0.0000 O   0  0  0  0  0  0  0  0  0  0  0  0
    0.0000    0.0000    0.0000 O   0  0  0  0  0  0  0  0  0  0  0  0
    0.0000    0.0000    0.0000 C   0  0  0  0  0  0  0  0  0  0  0  0
    0.0000    0.0000    0.0000 C   0  0  1  0  0  0  0  0  0  0  0  0
    0.0000    0.0000    0.0000 C   0  0  0  0  0  0  0  0  0  0  0  0
    0.0000    0.0000    0.0000 C   0  0  0  0  0  0  0  0  0  0  0  0
    0.0000    0.0000    0.0000 C   0  0  2  0  0  0  0  0  0  0  0  0
    0.0000    0.0000    0.0000 H   0  0  0  0  0  0  0  0  0  0  0  0
    0.0000    0.0000    0.0000 C   0  0  0  0  0  0  0  0  0  0  0  0
    0.0000    0.0000    0.0000 C   0  0  0  0  0  0  0  0  0  0  0  0
  1  2  1  0  0  0  0
  2  3  1  0  0  0  0
  2  9  1  0  0  0  0
  2  4  1  0  0  0  0
  4  5  1  0  0  0  0
  5  6  1  0  0  0  0
  6 33  1  0  0  0  0
  6  7  1  0  0  0  0
  6 36  1  0  0  0  0
  7  8  1  0  0  0  0
  7  9  1  0  0  0  0
  7 10  1  0  0  0  0
 10 11  1  0  0  0  0
 11 12  1  0  0  0  0
 11 13  1  0  0  0  0
 11 14  1  0  0  0  0
 14 15  1  0  0  0  0
 14 33  1  0  0  0  0
 14 16  1  0  0  0  0
 16 17  1  0  0  0  0
 16 30  1  0  0  0  0
 16 18  1  0  0  0  0
 18 19  1  0  0  0  0
 19 20  1  0  0  0  0
 20 21  1  0  0  0  0
 20 22  1  0  0  0  0
 20 30  1  0  0  0  0
 22 23  1  0  0  0  0
 22 24  1  0  0  0  0
 22 29  1  0  0  0  0
 24 25  1  0  0  0  0
 25 26  1  0  0  0  0
 26 27  1  0  0  0  0
 26 28  2  0  0  0  0
 30 31  1  0  0  0  0
 30 35  1  0  0  0  0
 31 32  1  0  0  0  0
 32 33  1  0  0  0  0
 33 34  1  0  0  0  0
M  END
> <Index>
1487

> <ID>
HT0441

> <class>
1

> <apol>
72.11972

> <ast_fraglike>
0

> <ast_fraglike_ext>
0

> <ast_violation>
4

> <ast_violation_ext>
5

> <a_acc>
4

> <a_acid>
0

> <a_aro>
0

> <a_base>
0

> <a_count>
68

> <a_don>
4

> <a_donacc>
8

> <a_heavy>
28

> <a_hyd>
23

> <a_IC>
83.03125

> <a_ICM>
1.2210478

> <a_nB>
0

> <a_nBr>
0

> <a_nC>
24

> <a_nCl>
0

> <a_nF>
0

> <a_nH>
40

> <a_nI>
0

> <a_nN>
0

> <a_nO>
4

> <a_nP>
0

> <a_nS>
0

> <balabanJ>
1.5474879

> <BCUT_PEOE_0>
-2.9961019

> <BCUT_PEOE_1>
-0.49881086

> <BCUT_PEOE_2>
0.53982604

> <BCUT_PEOE_3>
2.993263

> <BCUT_SLOGP_0>
-2.9445214

> <BCUT_SLOGP_1>
-0.47845179

> <BCUT_SLOGP_2>
0.47193208

> <BCUT_SLOGP_3>
3.0657229

> <BCUT_SMR_0>
-2.7463081

> <BCUT_SMR_1>
-0.36258399

> <BCUT_SMR_2>
0.63055426

> <BCUT_SMR_3>
3.2457106

> <bpol>
44.686279

> <b_1rotN>
4

> <b_1rotR>
0.12903225

> <b_ar>
0

> <b_count>
71

> <b_double>
1

> <b_heavy>
31

> <b_max1len>
5

> <b_rotN>
4

> <b_rotR>
0.12903225

> <b_single>
70

> <b_triple>
0

> <chi0>
20.26722

> <chi0v>
17.939758

> <chi0v_C>
16.189871

> <chi0_C>
16.26722

> <chi1>
13.164375

> <chi1v>
11.744408

> <chi1v_C>
10.800279

> <chi1_C>
10.854974

> <chiral>
10

> <chiral_u>
0

> <density>
0.68710047

> <diameter>
14

> <FCharge>
0

> <GCUT_PEOE_0>
-0.80926043

> <GCUT_PEOE_1>
-0.36225617

> <GCUT_PEOE_2>
0.05990928

> <GCUT_PEOE_3>
3.5011325

> <GCUT_SLOGP_0>
-0.88419402

> <GCUT_SLOGP_1>
-0.31324583

> <GCUT_SLOGP_2>
0.022751499

> <GCUT_SLOGP_3>
3.5782082

> <GCUT_SMR_0>
-0.54342794

> <GCUT_SMR_1>
-0.2196715

> <GCUT_SMR_2>
0.14765774

> <GCUT_SMR_3>
3.7182961

> <Kier1>
21.240376

> <Kier2>
7.6018324

> <Kier3>
3.4489796

> <KierA1>
20.548443

> <KierA2>
7.3448911

> <KierA3>
3.3294089

> <KierFlex>
5.3902168

> <lip_acc>
4

> <lip_don>
3

> <lip_druglike>
1

> <lip_violation>
0

> <logP(o/w)>
4.914

> <logS>
-6.2638502

> <mr>
10.928799

> <mutagenic>
0

> <nmol>
1

> <opr_brigid>
20

> <opr_leadlike>
1

> <opr_nring>
4

> <opr_nrot>
4

> <opr_violation>
0

> <PC+>
0

> <PC->
0

> <PEOE_PC+>
2.1360812

> <PEOE_PC->
-2.1360812

> <PEOE_RPC+>
0.12152935

> <PEOE_RPC->
0.18340905

> <PEOE_VSA+0>
157.98982

> <PEOE_VSA+1>
18.34063

> <PEOE_VSA+2>
0.0

> <PEOE_VSA+3>
0.0

> <PEOE_VSA+4>
30.972517

> <PEOE_VSA+5>
14.708499

> <PEOE_VSA+6>
0.0

> <PEOE_VSA-0>
78.311821

> <PEOE_VSA-1>
56.243034

> <PEOE_VSA-2>
0.0

> <PEOE_VSA-3>
0.0

> <PEOE_VSA-4>
0.0

> <PEOE_VSA-5>
13.566921

> <PEOE_VSA-6>
23.30262

> <PEOE_VSA_FHYD>
0.79018039

> <PEOE_VSA_FNEG>
0.43571115

> <PEOE_VSA_FPNEG>
0.093711697

> <PEOE_VSA_FPOL>
0.20981961

> <PEOE_VSA_FPOS>
0.56428885

> <PEOE_VSA_FPPOS>
0.11610791

> <PEOE_VSA_HYD>
310.88531

> <PEOE_VSA_NEG>
171.42439

> <PEOE_VSA_PNEG>
36.869541

> <PEOE_VSA_POL>
82.55056

> <PEOE_VSA_POS>
222.01147

> <PEOE_VSA_PPOS>
45.681019

> <petitjean>
0.5

> <petitjeanSC>
1.0

> <Q_PC+>
0

> <Q_PC->
0

> <Q_RPC+>
0

> <Q_RPC->
0

> <Q_VSA_FHYD>
1

> <Q_VSA_FNEG>
0

> <Q_VSA_FPNEG>
0

> <Q_VSA_FPOL>
0

> <Q_VSA_FPOS>
1

> <Q_VSA_FPPOS>
0

> <Q_VSA_HYD>
393.43585

> <Q_VSA_NEG>
0

> <Q_VSA_PNEG>
0

> <Q_VSA_POL>
0

> <Q_VSA_POS>
393.43585

> <Q_VSA_PPOS>
0

> <radius>
7

> <reactive>
0

> <rings>
4

> <RPC+>
0

> <RPC->
0

> <rsynth>
0.0

> <SlogP>
4.4779

> <SlogP_VSA0>
50.770454

> <SlogP_VSA1>
7.7454643

> <SlogP_VSA2>
36.799515

> <SlogP_VSA3>
25.385227

> <SlogP_VSA4>
26.464777

> <SlogP_VSA5>
0.0

> <SlogP_VSA6>
0.0

> <SlogP_VSA7>
0.0

> <SlogP_VSA8>
188.68405

> <SlogP_VSA9>
99.978043

> <SMR>
10.86474

> <SMR_VSA0>
23.862217

> <SMR_VSA1>
50.770454

> <SMR_VSA2>
51.850002

> <SMR_VSA3>
12.937299

> <SMR_VSA4>
0.0

> <SMR_VSA5>
188.68405

> <SMR_VSA6>
7.7454643

> <SMR_VSA7>
99.978043

> <TPSA>
77.760002

> <VAdjEq>
0.39893496

> <VAdjMa>
5.9541965

> <VDistEq>
3.4350963

> <VDistMa>
9.3212967

> <vdw_area>
393.43585

> <vdw_vol>
571.35748

> <vsa_acc>
0.0

> <vsa_acid>
0

> <vsa_base>
0

> <vsa_don>
0.0

> <vsa_hyd>
276.47858

> <vsa_other>
14.708499

> <vsa_pol>
54.267685

> <Weight>
392.57999

> <weinerPath>
1910

> <weinerPol>
56

> <zagreb>
160

$$$$
Row1487
 OpenBabel06061811532D

 17 18  0  0  1  0  0  0  0  0999 V2000
    0.0000    0.0000    0.0000 Cl  0  0  0  0  0  0  0  0  0  0  0  0
    0.0000    0.0000    0.0000 C   0  0  0  0  0  0  0  0  0  0  0  0
    0.0000    0.0000    0.0000 C   0  0  0  0  0  0  0  0  0  0  0  0
    0.0000    0.0000    0.0000 C   0  0  0  0  0  0  0  0  0  0  0  0
    0.0000    0.0000    0.0000 C   0  0  0  0  0  0  0  0  0  0  0  0
    0.0000    0.0000    0.0000 C   0  0  0  0  0  0  0  0  0  0  0  0
    0.0000    0.0000    0.0000 C   0  0  0  0  0  0  0  0  0  0  0  0
    0.0000    0.0000    0.0000 C   0  0  3  0  0  0  0  0  0  0  0  0
    0.0000    0.0000    0.0000 S   0  0  0  0  0  0  0  0  0  0  0  0
    0.0000    0.0000    0.0000 O   0  0  0  0  0  0  0  0  0  0  0  0
    0.0000    0.0000    0.0000 O   0  0  0  0  0  0  0  0  0  0  0  0
    0.0000    0.0000    0.0000 C   0  0  0  0  0  0  0  0  0  0  0  0
    0.0000    0.0000    0.0000 C   0  0  0  0  0  0  0  0  0  0  0  0
    0.0000    0.0000    0.0000 C   0  0  0  0  0  0  0  0  0  0  0  0
    0.0000    0.0000    0.0000 O   0  0  0  0  0  0  0  0  0  0  0  0
    0.0000    0.0000    0.0000 N   0  0  0  0  0  0  0  0  0  0  0  0
    0.0000    0.0000    0.0000 C   0  0  0  0  0  0  0  0  0  0  0  0
  1  2  1  0  0  0  0
  2  7  1  0  0  0  0
  2  3  2  0  0  0  0
  3  4  1  0  0  0  0
  4  5  2  0  0  0  0
  5  6  1  0  0  0  0
  5  8  1  0  0  0  0
  6  7  2  0  0  0  0
  8 16  1  0  0  0  0
  8  9  1  0  0  0  0
  9 10  2  0  0  0  0
  9 11  2  0  0  0  0
  9 12  1  0  0  0  0
 12 13  1  0  0  0  0
 13 14  1  0  0  0  0
 14 15  2  0  0  0  0
 14 16  1  0  0  0  0
 16 17  1  0  0  0  0
M  END
> <Index>
1488

> <ID>
HT0455

> <class>
1

> <apol>
35.947517

> <ast_fraglike>
1

> <ast_fraglike_ext>
1

> <ast_violation>
0

> <ast_violation_ext>
0

> <a_acc>
3

> <a_acid>
0

> <a_aro>
6

> <a_base>
0

> <a_count>
29

> <a_don>
0

> <a_donacc>
3

> <a_heavy>
17

> <a_hyd>
11

> <a_IC>
55.053265

> <a_ICM>
1.8983884

> <a_nB>
0

> <a_nBr>
0

> <a_nC>
11

> <a_nCl>
1

> <a_nF>
0

> <a_nH>
12

> <a_nI>
0

> <a_nN>
1

> <a_nO>
3

> <a_nP>
0

> <a_nS>
1

> <balabanJ>
2.1043599

> <BCUT_PEOE_0>
-2.6627474

> <BCUT_PEOE_1>
-0.60901827

> <BCUT_PEOE_2>
0.65052229

> <BCUT_PEOE_3>
2.7428064

> <BCUT_SLOGP_0>
-2.7376611

> <BCUT_SLOGP_1>
-0.47001994

> <BCUT_SLOGP_2>
0.71828032

> <BCUT_SLOGP_3>
2.6724465

> <BCUT_SMR_0>
-2.372607

> <BCUT_SMR_1>
-0.4127517

> <BCUT_SMR_2>
0.84360194

> <BCUT_SMR_3>
3.0282357

> <bpol>
22.952484

> <b_1rotN>
1

> <b_1rotR>
0.055555556

> <b_ar>
6

> <b_count>
30

> <b_double>
1

> <b_heavy>
18

> <b_max1len>
2

> <b_rotN>
1

> <b_rotR>
0.055555556

> <b_single>
23

> <b_triple>
0

> <chi0>
12.629392

> <chi0v>
10.831562

> <chi0v_C>
6.8009648

> <chi0_C>
7.5520415

> <chi1>
7.9155207

> <chi1v>
7.2368178

> <chi1v_C>
2.9635956

> <chi1_C>
3.8745749

> <chiral>
1

> <chiral_u>
1

> <density>
0.87949234

> <diameter>
8

> <FCharge>
0

> <GCUT_PEOE_0>
-0.89416975

> <GCUT_PEOE_1>
-0.39215446

> <GCUT_PEOE_2>
0.029952994

> <GCUT_PEOE_3>
2.5709338

> <GCUT_SLOGP_0>
-0.93906313

> <GCUT_SLOGP_1>
-0.36135694

> <GCUT_SLOGP_2>
0.093558818

> <GCUT_SLOGP_3>
2.5775311

> <GCUT_SMR_0>
-0.50103736

> <GCUT_SMR_1>
-0.1621895

> <GCUT_SMR_2>
0.23268355

> <GCUT_SMR_3>
2.8366299

> <Kier1>
13.432098

> <Kier2>
4.9382715

> <Kier3>
2.7128029

> <KierA1>
12.718886

> <KierA2>
4.6592603

> <KierA3>
2.5522223

> <KierFlex>
3.4859178

> <lip_acc>
4

> <lip_don>
0

> <lip_druglike>
1

> <lip_violation>
0

> <logP(o/w)>
1.0880001

> <logS>
-2.1819699

> <mr>
6.7191887

> <mutagenic>
0

> <nmol>
1

> <opr_brigid>
12

> <opr_leadlike>
1

> <opr_nring>
2

> <opr_nrot>
2

> <opr_violation>
0

> <PC+>
0

> <PC->
0

> <PEOE_PC+>
1.8784766

> <PEOE_PC->
-1.8784766

> <PEOE_RPC+>
0.14979434

> <PEOE_RPC->
0.25383222

> <PEOE_VSA+0>
49.085365

> <PEOE_VSA+1>
19.270084

> <PEOE_VSA+2>
17.232086

> <PEOE_VSA+3>
14.94276

> <PEOE_VSA+4>
12.949531

> <PEOE_VSA+5>
5.1220222

> <PEOE_VSA+6>
0.0

> <PEOE_VSA-0>
49.019615

> <PEOE_VSA-1>
29.581947

> <PEOE_VSA-2>
6.5127993

> <PEOE_VSA-3>
0.0

> <PEOE_VSA-4>
0.0

> <PEOE_VSA-5>
13.566921

> <PEOE_VSA-6>
32.016521

> <PEOE_VSA_FHYD>
0.74466473

> <PEOE_VSA_FNEG>
0.52425987

> <PEOE_VSA_FPNEG>
0.18284599

> <PEOE_VSA_FPOL>
0.25533527

> <PEOE_VSA_FPOS>
0.47574013

> <PEOE_VSA_FPPOS>
0.072489284

> <PEOE_VSA_HYD>
185.64465

> <PEOE_VSA_NEG>
130.6978

> <PEOE_VSA_PNEG>
45.583443

> <PEOE_VSA_POL>
63.654999

> <PEOE_VSA_POS>
118.60184

> <PEOE_VSA_PPOS>
18.071552

> <petitjean>
0.5

> <petitjeanSC>
1.0

> <Q_PC+>
0

> <Q_PC->
0

> <Q_RPC+>
0

> <Q_RPC->
0

> <Q_VSA_FHYD>
1

> <Q_VSA_FNEG>
0

> <Q_VSA_FPNEG>
0

> <Q_VSA_FPOL>
0

> <Q_VSA_FPOS>
1

> <Q_VSA_FPPOS>
0

> <Q_VSA_HYD>
249.29965

> <Q_VSA_NEG>
0

> <Q_VSA_PNEG>
0

> <Q_VSA_POL>
0

> <Q_VSA_POS>
249.29965

> <Q_VSA_PPOS>
0

> <radius>
4

> <reactive>
0

> <rings>
2

> <RPC+>
0

> <RPC->
0

> <rsynth>
1.0

> <SlogP>
1.711

> <SlogP_VSA0>
0.0

> <SlogP_VSA1>
56.554787

> <SlogP_VSA2>
30.741484

> <SlogP_VSA3>
17.233564

> <SlogP_VSA4>
3.185575

> <SlogP_VSA5>
32.897186

> <SlogP_VSA6>
3.5006065

> <SlogP_VSA7>
70.572739

> <SlogP_VSA8>
21.215532

> <SlogP_VSA9>
39.148643

> <SMR>
6.54778

> <SMR_VSA0>
72.033905

> <SMR_VSA1>
3.1243138

> <SMR_VSA2>
0.0

> <SMR_VSA3>
9.033309

> <SMR_VSA4>
0.0

> <SMR_VSA5>
89.441139

> <SMR_VSA6>
22.492348

> <SMR_VSA7>
78.925102

> <TPSA>
54.450001

> <VAdjEq>
0.54234898

> <VAdjMa>
5.1699252

> <VDistEq>
2.7602458

> <VDistMa>
7.9011011

> <vdw_area>
249.29965

> <vdw_vol>
311.24774

> <vsa_acc>
45.583443

> <vsa_acid>
0

> <vsa_base>
0

> <vsa_don>
0.0

> <vsa_hyd>
175.71234

> <vsa_other>
19.46233

> <vsa_pol>
45.583443

> <Weight>
273.73999

> <weinerPath>
478

> <weinerPol>
28

> <zagreb>
90

$$$$
Row1488
 OpenBabel06061811532D

 17 18  0  0  0  0  0  0  0  0999 V2000
    0.0000    0.0000    0.0000 Cl  0  0  0  0  0  0  0  0  0  0  0  0
    0.0000    0.0000    0.0000 C   0  0  0  0  0  0  0  0  0  0  0  0
    0.0000    0.0000    0.0000 C   0  0  0  0  0  0  0  0  0  0  0  0
    0.0000    0.0000    0.0000 C   0  0  0  0  0  0  0  0  0  0  0  0
    0.0000    0.0000    0.0000 N   0  0  0  0  0  0  0  0  0  0  0  0
    0.0000    0.0000    0.0000 C   0  0  0  0  0  0  0  0  0  0  0  0
    0.0000    0.0000    0.0000 N   0  0  0  0  0  0  0  0  0  0  0  0
    0.0000    0.0000    0.0000 S   0  0  0  0  0  0  0  0  0  0  0  0
    0.0000    0.0000    0.0000 O   0  0  0  0  0  0  0  0  0  0  0  0
    0.0000    0.0000    0.0000 O   0  0  0  0  0  0  0  0  0  0  0  0
    0.0000    0.0000    0.0000 C   0  0  0  0  0  0  0  0  0  0  0  0
    0.0000    0.0000    0.0000 C   0  0  0  0  0  0  0  0  0  0  0  0
    0.0000    0.0000    0.0000 C   0  0  0  0  0  0  0  0  0  0  0  0
    0.0000    0.0000    0.0000 S   0  0  0  0  0  0  0  0  0  0  0  0
    0.0000    0.0000    0.0000 O   0  0  0  0  0  0  0  0  0  0  0  0
    0.0000    0.0000    0.0000 O   0  0  0  0  0  0  0  0  0  0  0  0
    0.0000    0.0000    0.0000 N   0  0  0  0  0  0  0  0  0  0  0  0
  1  2  1  0  0  0  0
  2 13  1  0  0  0  0
  2  3  2  0  0  0  0
  3  4  1  0  0  0  0
  4 11  2  0  0  0  0
  4  5  1  0  0  0  0
  5  6  1  0  0  0  0
  6  7  2  0  0  0  0
  7  8  1  0  0  0  0
  8  9  2  0  0  0  0
  8 10  2  0  0  0  0
  8 11  1  0  0  0  0
 11 12  1  0  0  0  0
 12 13  2  0  0  0  0
 13 14  1  0  0  0  0
 14 15  2  0  0  0  0
 14 16  2  0  0  0  0
 14 17  1  0  0  0  0
M  END
> <Index>
1489

> <ID>
HT0460

> <class>
1

> <apol>
30.808758

> <ast_fraglike>
0

> <ast_fraglike_ext>
0

> <ast_violation>
1

> <ast_violation_ext>
2

> <a_acc>
5

> <a_acid>
0

> <a_aro>
6

> <a_base>
0

> <a_count>
23

> <a_don>
2

> <a_donacc>
7

> <a_heavy>
17

> <a_hyd>
7

> <a_IC>
54.125778

> <a_ICM>
2.3532946

> <a_nB>
0

> <a_nBr>
0

> <a_nC>
7

> <a_nCl>
1

> <a_nF>
0

> <a_nH>
6

> <a_nI>
0

> <a_nN>
3

> <a_nO>
4

> <a_nP>
0

> <a_nS>
2

> <balabanJ>
2.1909263

> <BCUT_PEOE_0>
-2.3690531

> <BCUT_PEOE_1>
-0.5558216

> <BCUT_PEOE_2>
0.59056407

> <BCUT_PEOE_3>
2.4779072

> <BCUT_SLOGP_0>
-2.572541

> <BCUT_SLOGP_1>
-0.4884142

> <BCUT_SLOGP_2>
0.72541976

> <BCUT_SLOGP_3>
2.4718385

> <BCUT_SMR_0>
-2.0181286

> <BCUT_SMR_1>
-0.34405395

> <BCUT_SMR_2>
0.81710118

> <BCUT_SMR_3>
2.7903008

> <bpol>
21.251242

> <b_1rotN>
1

> <b_1rotR>
0.055555556

> <b_ar>
6

> <b_count>
24

> <b_double>
1

> <b_heavy>
18

> <b_max1len>
3

> <b_rotN>
1

> <b_rotR>
0.055555556

> <b_single>
17

> <b_triple>
0

> <chi0>
12.844935

> <chi0v>
10.472991

> <chi0v_C>
3.7320509

> <chi0_C>
4.4307213

> <chi1>
7.7161622

> <chi1v>
7.4980955

> <chi1v_C>
1.6547005

> <chi1_C>
2.2996597

> <chiral>
0

> <chiral_u>
0

> <density>
1.0829597

> <diameter>
7

> <FCharge>
0

> <GCUT_PEOE_0>
-0.92505509

> <GCUT_PEOE_1>
-0.42310062

> <GCUT_PEOE_2>
0.046546955

> <GCUT_PEOE_3>
2.3648038

> <GCUT_SLOGP_0>
-1.3482714

> <GCUT_SLOGP_1>
-0.48167977

> <GCUT_SLOGP_2>
0.16861273

> <GCUT_SLOGP_3>
2.391824

> <GCUT_SMR_0>
-0.41618669

> <GCUT_SMR_1>
-0.16154125

> <GCUT_SMR_2>
0.27018589

> <GCUT_SMR_3>
2.6499925

> <Kier1>
13.432098

> <Kier2>
4.2806182

> <Kier3>
2.5599999

> <KierA1>
13.946887

> <KierA2>
4.4555359

> <KierA3>
2.6697648

> <KierFlex>
3.6553445

> <lip_acc>
7

> <lip_don>
3

> <lip_druglike>
1

> <lip_violation>
0

> <logP(o/w)>
0.46900001

> <logS>
-2.9403701

> <mr>
6.137094

> <mutagenic>
0

> <nmol>
1

> <opr_brigid>
11

> <opr_leadlike>
1

> <opr_nring>
2

> <opr_nrot>
1

> <opr_violation>
0

> <PC+>
0

> <PC->
0

> <PEOE_PC+>
1.5434591

> <PEOE_PC->
-1.5434591

> <PEOE_RPC+>
0.20657369

> <PEOE_RPC->
0.29072779

> <PEOE_VSA+0>
35.962646

> <PEOE_VSA+1>
19.495708

> <PEOE_VSA+2>
4.5197463

> <PEOE_VSA+3>
22.360512

> <PEOE_VSA+4>
0.0

> <PEOE_VSA+5>
0.0

> <PEOE_VSA+6>
8.3692026

> <PEOE_VSA-0>
33.491833

> <PEOE_VSA-1>
29.581947

> <PEOE_VSA-2>
40.091728

> <PEOE_VSA-3>
9.0437498

> <PEOE_VSA-4>
32.016521

> <PEOE_VSA-5>
0.0

> <PEOE_VSA-6>
0.13689101

> <PEOE_VSA_FHYD>
0.82761502

> <PEOE_VSA_FNEG>
0.61412501

> <PEOE_VSA_FPNEG>
0.13678201

> <PEOE_VSA_FPOL>
0.17238496

> <PEOE_VSA_FPOS>
0.38587496

> <PEOE_VSA_FPPOS>
0.03560295

> <PEOE_VSA_HYD>
194.54787

> <PEOE_VSA_NEG>
144.36267

> <PEOE_VSA_PNEG>
32.153416

> <PEOE_VSA_POL>
40.522617

> <PEOE_VSA_POS>
90.707817

> <PEOE_VSA_PPOS>
8.3692026

> <petitjean>
0.42857143

> <petitjeanSC>
0.75

> <Q_PC+>
0

> <Q_PC->
0

> <Q_RPC+>
0

> <Q_RPC->
0

> <Q_VSA_FHYD>
1

> <Q_VSA_FNEG>
0

> <Q_VSA_FPNEG>
0

> <Q_VSA_FPOL>
0

> <Q_VSA_FPOS>
1

> <Q_VSA_FPPOS>
0

> <Q_VSA_HYD>
235.0705

> <Q_VSA_NEG>
0

> <Q_VSA_PNEG>
0

> <Q_VSA_POL>
0

> <Q_VSA_POS>
235.0705

> <Q_VSA_PPOS>
0

> <radius>
4

> <reactive>
0

> <rings>
2

> <RPC+>
0

> <RPC->
0

> <rsynth>
1.0

> <SlogP>
0.12989999

> <SlogP_VSA0>
31.291433

> <SlogP_VSA1>
114.35413

> <SlogP_VSA2>
30.067015

> <SlogP_VSA3>
0.0

> <SlogP_VSA4>
0.0

> <SlogP_VSA5>
18.281244

> <SlogP_VSA6>
3.5006065

> <SlogP_VSA7>
35.286369

> <SlogP_VSA8>
0.0

> <SlogP_VSA9>
41.905392

> <SMR>
6.2125702

> <SMR_VSA0>
96.343376

> <SMR_VSA1>
15.179776

> <SMR_VSA2>
3.1014678

> <SMR_VSA3>
3.5006065

> <SMR_VSA4>
52.058933

> <SMR_VSA5>
35.286369

> <SMR_VSA6>
0.0

> <SMR_VSA7>
69.21566

> <TPSA>
118.69

> <VAdjEq>
0.54234898

> <VAdjMa>
5.1699252

> <VDistEq>
2.633986

> <VDistMa>
7.9134102

> <vdw_area>
235.0705

> <vdw_vol>
273.07297

> <vsa_acc>
72.108253

> <vsa_acid>
0

> <vsa_base>
0

> <vsa_don>
25.817696

> <vsa_hyd>
80.787437

> <vsa_other>
45.001736

> <vsa_pol>
97.925949

> <Weight>
295.72699

> <weinerPath>
460

> <weinerPol>
29

> <zagreb>
94

$$$$
Row1489
 OpenBabel06061811532D

 27 29  0  0  0  0  0  0  0  0999 V2000
    0.0000    0.0000    0.0000 Cl  0  0  0  0  0  0  0  0  0  0  0  0
    0.0000    0.0000    0.0000 C   0  0  0  0  0  0  0  0  0  0  0  0
    0.0000    0.0000    0.0000 C   0  0  0  0  0  0  0  0  0  0  0  0
    0.0000    0.0000    0.0000 C   0  0  0  0  0  0  0  0  0  0  0  0
    0.0000    0.0000    0.0000 C   0  0  0  0  0  0  0  0  0  0  0  0
    0.0000    0.0000    0.0000 C   0  0  0  0  0  0  0  0  0  0  0  0
    0.0000    0.0000    0.0000 C   0  0  0  0  0  0  0  0  0  0  0  0
    0.0000    0.0000    0.0000 O   0  0  0  0  0  0  0  0  0  0  0  0
    0.0000    0.0000    0.0000 C   0  0  0  0  0  0  0  0  0  0  0  0
    0.0000    0.0000    0.0000 C   0  0  0  0  0  0  0  0  0  0  0  0
    0.0000    0.0000    0.0000 C   0  0  0  0  0  0  0  0  0  0  0  0
    0.0000    0.0000    0.0000 C   0  0  0  0  0  0  0  0  0  0  0  0
    0.0000    0.0000    0.0000 C   0  0  0  0  0  0  0  0  0  0  0  0
    0.0000    0.0000    0.0000 C   0  0  0  0  0  0  0  0  0  0  0  0
    0.0000    0.0000    0.0000 C   0  0  0  0  0  0  0  0  0  0  0  0
    0.0000    0.0000    0.0000 O   0  0  0  0  0  0  0  0  0  0  0  0
    0.0000    0.0000    0.0000 C   0  0  0  0  0  0  0  0  0  0  0  0
    0.0000    0.0000    0.0000 C   0  0  0  0  0  0  0  0  0  0  0  0
    0.0000    0.0000    0.0000 C   0  0  0  0  0  0  0  0  0  0  0  0
    0.0000    0.0000    0.0000 C   0  0  0  0  0  0  0  0  0  0  0  0
    0.0000    0.0000    0.0000 C   0  0  0  0  0  0  0  0  0  0  0  0
    0.0000    0.0000    0.0000 C   0  0  0  0  0  0  0  0  0  0  0  0
    0.0000    0.0000    0.0000 C   0  0  0  0  0  0  0  0  0  0  0  0
    0.0000    0.0000    0.0000 O   0  0  0  0  0  0  0  0  0  0  0  0
    0.0000    0.0000    0.0000 C   0  0  0  0  0  0  0  0  0  0  0  0
    0.0000    0.0000    0.0000 C   0  0  0  0  0  0  0  0  0  0  0  0
    0.0000    0.0000    0.0000 C   0  0  0  0  0  0  0  0  0  0  0  0
  1  2  1  0  0  0  0
  2  3  2  3  0  0  0
  2 20  1  0  0  0  0
  3  4  1  0  0  0  0
  3 12  1  0  0  0  0
  4 11  1  0  0  0  0
  4  5  2  0  0  0  0
  5  6  1  0  0  0  0
  6  7  2  0  0  0  0
  7  8  1  0  0  0  0
  7 10  1  0  0  0  0
  8  9  1  0  0  0  0
 10 11  2  0  0  0  0
 12 19  1  0  0  0  0
 12 13  2  0  0  0  0
 13 14  1  0  0  0  0
 14 15  2  0  0  0  0
 15 16  1  0  0  0  0
 15 18  1  0  0  0  0
 16 17  1  0  0  0  0
 18 19  2  0  0  0  0
 20 27  1  0  0  0  0
 20 21  2  0  0  0  0
 21 22  1  0  0  0  0
 22 23  2  0  0  0  0
 23 24  1  0  0  0  0
 23 26  1  0  0  0  0
 24 25  1  0  0  0  0
 26 27  2  0  0  0  0
M  END
> <Index>
1490

> <ID>
HT0462

> <class>
1

> <apol>
59.068653

> <ast_fraglike>
0

> <ast_fraglike_ext>
0

> <ast_violation>
2

> <ast_violation_ext>
3

> <a_acc>
3

> <a_acid>
0

> <a_aro>
18

> <a_base>
0

> <a_count>
48

> <a_don>
0

> <a_donacc>
3

> <a_heavy>
27

> <a_hyd>
24

> <a_IC>
67.042725

> <a_ICM>
1.3967234

> <a_nB>
0

> <a_nBr>
0

> <a_nC>
23

> <a_nCl>
1

> <a_nF>
0

> <a_nH>
21

> <a_nI>
0

> <a_nN>
0

> <a_nO>
3

> <a_nP>
0

> <a_nS>
0

> <balabanJ>
1.6611953

> <BCUT_PEOE_0>
-2.3099141

> <BCUT_PEOE_1>
-0.64203453

> <BCUT_PEOE_2>
0.6758973

> <BCUT_PEOE_3>
2.2716312

> <BCUT_SLOGP_0>
-2.2520871

> <BCUT_SLOGP_1>
-0.53807992

> <BCUT_SLOGP_2>
0.80591482

> <BCUT_SLOGP_3>
2.4529603

> <BCUT_SMR_0>
-1.9945935

> <BCUT_SMR_1>
-0.44009721

> <BCUT_SMR_2>
0.85431087

> <BCUT_SMR_3>
2.6103196

> <bpol>
29.125347

> <b_1rotN>
6

> <b_1rotR>
0.20689656

> <b_ar>
18

> <b_count>
50

> <b_double>
1

> <b_heavy>
29

> <b_max1len>
2

> <b_rotN>
6

> <b_rotR>
0.20689656

> <b_single>
31

> <b_triple>
0

> <chi0>
19.225405

> <chi0v>
16.286842

> <chi0v_C>
13.928204

> <chi0_C>
16.104084

> <chi1>
13.155728

> <chi1v>
8.868166

> <chi1v_C>
6.4641018

> <chi1_C>
9.2323132

> <chiral>
0

> <chiral_u>
0

> <density>
0.72824007

> <diameter>
13

> <FCharge>
0

> <GCUT_PEOE_0>
-0.78980058

> <GCUT_PEOE_1>
-0.40238136

> <GCUT_PEOE_2>
0.017248498

> <GCUT_PEOE_3>
2.5509858

> <GCUT_SLOGP_0>
-0.88714212

> <GCUT_SLOGP_1>
-0.28193223

> <GCUT_SLOGP_2>
0.16445385

> <GCUT_SLOGP_3>
2.7298677

> <GCUT_SMR_0>
-0.48393351

> <GCUT_SMR_1>
-0.20490201

> <GCUT_SMR_2>
0.19305076

> <GCUT_SMR_3>
2.8676667

> <Kier1>
21.702734

> <Kier2>
10.683761

> <Kier3>
5.5384617

> <KierA1>
16.819929

> <KierA2>
8.1933641

> <KierA3>
4.2143002

> <KierFlex>
5.1041408

> <lip_acc>
3

> <lip_don>
0

> <lip_druglike>
1

> <lip_violation>
1

> <logP(o/w)>
6.8200002

> <logS>
-6.3916202

> <mr>
11.044952

> <mutagenic>
0

> <nmol>
1

> <opr_brigid>
19

> <opr_leadlike>
1

> <opr_nring>
3

> <opr_nrot>
6

> <opr_violation>
1

> <PC+>
0

> <PC->
0

> <PEOE_PC+>
1.6577216

> <PEOE_PC->
-1.6577216

> <PEOE_RPC+>
0.045755409

> <PEOE_RPC->
0.20987356

> <PEOE_VSA+0>
77.201515

> <PEOE_VSA+1>
119.46841

> <PEOE_VSA+2>
0.0

> <PEOE_VSA+3>
0.0

> <PEOE_VSA+4>
0.0

> <PEOE_VSA+5>
0.0

> <PEOE_VSA+6>
0.0

> <PEOE_VSA-0>
80.155045

> <PEOE_VSA-1>
103.11137

> <PEOE_VSA-2>
0.0

> <PEOE_VSA-3>
0.0

> <PEOE_VSA-4>
0.0

> <PEOE_VSA-5>
0.0

> <PEOE_VSA-6>
7.5112681

> <PEOE_VSA_FHYD>
0.98061347

> <PEOE_VSA_FNEG>
0.49239609

> <PEOE_VSA_FPNEG>
0.019386539

> <PEOE_VSA_FPOL>
0.019386539

> <PEOE_VSA_FPOS>
0.50760394

> <PEOE_VSA_FPPOS>
0.0

> <PEOE_VSA_HYD>
379.93634

> <PEOE_VSA_NEG>
190.77768

> <PEOE_VSA_PNEG>
7.5112681

> <PEOE_VSA_POL>
7.5112681

> <PEOE_VSA_POS>
196.66992

> <PEOE_VSA_PPOS>
0.0

> <petitjean>
0.46153846

> <petitjeanSC>
0.85714287

> <Q_PC+>
0

> <Q_PC->
0

> <Q_RPC+>
0

> <Q_RPC->
0

> <Q_VSA_FHYD>
1

> <Q_VSA_FNEG>
0

> <Q_VSA_FPNEG>
0

> <Q_VSA_FPOL>
0

> <Q_VSA_FPOS>
1

> <Q_VSA_FPPOS>
0

> <Q_VSA_HYD>
387.4476

> <Q_VSA_NEG>
0

> <Q_VSA_PNEG>
0

> <Q_VSA_POL>
0

> <Q_VSA_POS>
387.4476

> <Q_VSA_PPOS>
0

> <radius>
7

> <reactive>
0

> <rings>
3

> <RPC+>
0

> <RPC->
0

> <rsynth>
1.0

> <SlogP>
5.6850901

> <SlogP_VSA0>
32.999664

> <SlogP_VSA1>
0.0

> <SlogP_VSA2>
0.0

> <SlogP_VSA3>
3.185575

> <SlogP_VSA4>
9.5567245

> <SlogP_VSA5>
106.1516

> <SlogP_VSA6>
0.0

> <SlogP_VSA7>
215.21881

> <SlogP_VSA8>
0.0

> <SlogP_VSA9>
54.878929

> <SMR>
10.9689

> <SMR_VSA0>
0.0

> <SMR_VSA1>
32.999664

> <SMR_VSA2>
3.185575

> <SMR_VSA3>
25.287008

> <SMR_VSA4>
3.5006065

> <SMR_VSA5>
211.71822

> <SMR_VSA6>
0.0

> <SMR_VSA7>
145.30025

> <TPSA>
27.690001

> <VAdjEq>
0.40063059

> <VAdjMa>
5.8579812

> <VDistEq>
3.446279

> <VDistMa>
9.236784

> <vdw_area>
387.4476

> <vdw_vol>
523.00195

> <vsa_acc>
7.5112681

> <vsa_acid>
0

> <vsa_base>
0

> <vsa_don>
0.0

> <vsa_hyd>
364.98865

> <vsa_other>
0.0

> <vsa_pol>
7.5112681

> <Weight>
380.871

> <weinerPath>
1870

> <weinerPol>
43

> <zagreb>
136

$$$$
Row1490
 OpenBabel06061811532D

 20 21  0  0  1  0  0  0  0  0999 V2000
    0.0000    0.0000    0.0000 Cl  0  0  0  0  0  0  0  0  0  0  0  0
    0.0000    0.0000    0.0000 C   0  0  0  0  0  0  0  0  0  0  0  0
    0.0000    0.0000    0.0000 C   0  0  0  0  0  0  0  0  0  0  0  0
    0.0000    0.0000    0.0000 C   0  0  0  0  0  0  0  0  0  0  0  0
    0.0000    0.0000    0.0000 C   0  0  0  0  0  0  0  0  0  0  0  0
    0.0000    0.0000    0.0000 C   0  0  0  0  0  0  0  0  0  0  0  0
    0.0000    0.0000    0.0000 C   0  0  0  0  0  0  0  0  0  0  0  0
    0.0000    0.0000    0.0000 C   0  0  2  0  0  0  0  0  0  0  0  0
    0.0000    0.0000    0.0000 H   0  0  0  0  0  0  0  0  0  0  0  0
    0.0000    0.0000    0.0000 C   0  0  0  0  0  0  0  0  0  0  0  0
    0.0000    0.0000    0.0000 C   0  0  0  0  0  0  0  0  0  0  0  0
    0.0000    0.0000    0.0000 N   0  0  0  0  0  0  0  0  0  0  0  0
    0.0000    0.0000    0.0000 C   0  0  0  0  0  0  0  0  0  0  0  0
    0.0000    0.0000    0.0000 C   0  0  0  0  0  0  0  0  0  0  0  0
    0.0000    0.0000    0.0000 C   0  0  0  0  0  0  0  0  0  0  0  0
    0.0000    0.0000    0.0000 N   0  0  0  0  0  0  0  0  0  0  0  0
    0.0000    0.0000    0.0000 C   0  0  0  0  0  0  0  0  0  0  0  0
    0.0000    0.0000    0.0000 C   0  0  0  0  0  0  0  0  0  0  0  0
    0.0000    0.0000    0.0000 C   0  0  0  0  0  0  0  0  0  0  0  0
    0.0000    0.0000    0.0000 C   0  0  0  0  0  0  0  0  0  0  0  0
  1  2  1  0  0  0  0
  2  7  1  0  0  0  0
  2  3  2  0  0  0  0
  3  4  1  0  0  0  0
  4  5  2  0  0  0  0
  5  6  1  0  0  0  0
  5  8  1  0  0  0  0
  6  7  2  0  0  0  0
  8  9  1  0  0  0  0
  8 10  1  0  0  0  0
  8 15  1  0  0  0  0
 10 11  1  0  0  0  0
 11 12  1  0  0  0  0
 12 13  1  0  0  0  0
 12 14  1  0  0  0  0
 15 20  1  0  0  0  0
 15 16  2  0  0  0  0
 16 17  1  0  0  0  0
 17 18  2  0  0  0  0
 18 19  1  0  0  0  0
 19 20  2  0  0  0  0
M  END
> <Index>
1491

> <ID>
HT0465

> <class>
1

> <apol>
45.209068

> <ast_fraglike>
0

> <ast_fraglike_ext>
0

> <ast_violation>
1

> <ast_violation_ext>
2

> <a_acc>
2

> <a_acid>
0

> <a_aro>
12

> <a_base>
0

> <a_count>
38

> <a_don>
0

> <a_donacc>
2

> <a_heavy>
19

> <a_hyd>
17

> <a_IC>
52.710621

> <a_ICM>
1.3871217

> <a_nB>
0

> <a_nBr>
0

> <a_nC>
16

> <a_nCl>
1

> <a_nF>
0

> <a_nH>
19

> <a_nI>
0

> <a_nN>
2

> <a_nO>
0

> <a_nP>
0

> <a_nS>
0

> <balabanJ>
1.925043

> <BCUT_PEOE_0>
-2.6470823

> <BCUT_PEOE_1>
-0.54296434

> <BCUT_PEOE_2>
0.5816254

> <BCUT_PEOE_3>
2.5767765

> <BCUT_SLOGP_0>
-2.6777661

> <BCUT_SLOGP_1>
-0.40437663

> <BCUT_SLOGP_2>
0.76666826

> <BCUT_SLOGP_3>
2.6396203

> <BCUT_SMR_0>
-2.3726418

> <BCUT_SMR_1>
-0.34885326

> <BCUT_SMR_2>
0.81161904

> <BCUT_SMR_3>
2.8436012

> <bpol>
24.490932

> <b_1rotN>
5

> <b_1rotR>
0.25

> <b_ar>
12

> <b_count>
39

> <b_double>
0

> <b_heavy>
20

> <b_max1len>
6

> <b_rotN>
5

> <b_rotR>
0.25

> <b_single>
27

> <b_triple>
0

> <chi0>
13.664926

> <chi0v>
12.138686

> <chi0v_C>
10.110366

> <chi0_C>
11.380469

> <chi1>
9.1647034

> <chi1v>
6.8550482

> <chi1v_C>
4.5956411

> <chi1_C>
6.1161566

> <chiral>
1

> <chiral_u>
0

> <density>
0.7032088

> <diameter>
9

> <FCharge>
0

> <GCUT_PEOE_0>
-0.86391193

> <GCUT_PEOE_1>
-0.3627179

> <GCUT_PEOE_2>
0.04909781

> <GCUT_PEOE_3>
2.5746696

> <GCUT_SLOGP_0>
-0.95313859

> <GCUT_SLOGP_1>
-0.26040313

> <GCUT_SLOGP_2>
0.15641683

> <GCUT_SLOGP_3>
2.6764572

> <GCUT_SMR_0>
-0.5196982

> <GCUT_SMR_1>
-0.1721696

> <GCUT_SMR_2>
0.18213136

> <GCUT_SMR_3>
2.8455493

> <Kier1>
15.39

> <Kier2>
7.6952662

> <Kier3>
4.7950053

> <KierA1>
12.683067

> <KierA2>
6.2688174

> <KierA3>
3.8710163

> <KierFlex>
4.1846228

> <lip_acc>
2

> <lip_don>
0

> <lip_druglike>
1

> <lip_violation>
0

> <logP(o/w)>
3.451

> <logS>
-2.7911

> <mr>
8.1834831

> <mutagenic>
0

> <nmol>
1

> <opr_brigid>
12

> <opr_leadlike>
1

> <opr_nring>
2

> <opr_nrot>
5

> <opr_violation>
0

> <PC+>
0

> <PC->
0

> <PEOE_PC+>
1.0856446

> <PEOE_PC->
-1.0856446

> <PEOE_RPC+>
0.076400571

> <PEOE_RPC->
0.28399071

> <PEOE_VSA+0>
74.88446

> <PEOE_VSA+1>
34.123089

> <PEOE_VSA+2>
0.0

> <PEOE_VSA+3>
0.0

> <PEOE_VSA+4>
0.0

> <PEOE_VSA+5>
0.0

> <PEOE_VSA+6>
0.0

> <PEOE_VSA-0>
119.59917

> <PEOE_VSA-1>
66.346657

> <PEOE_VSA-2>
0.0

> <PEOE_VSA-3>
0.0

> <PEOE_VSA-4>
0.0

> <PEOE_VSA-5>
5.6825762

> <PEOE_VSA-6>
0.0

> <PEOE_VSA_FHYD>
0.98109818

> <PEOE_VSA_FNEG>
0.63741016

> <PEOE_VSA_FPNEG>
0.018901851

> <PEOE_VSA_FPOL>
0.018901851

> <PEOE_VSA_FPOS>
0.36258987

> <PEOE_VSA_FPPOS>
0.0

> <PEOE_VSA_HYD>
294.95337

> <PEOE_VSA_NEG>
191.6284

> <PEOE_VSA_PNEG>
5.6825762

> <PEOE_VSA_POL>
5.6825762

> <PEOE_VSA_POS>
109.00755

> <PEOE_VSA_PPOS>
0.0

> <petitjean>
0.44444445

> <petitjeanSC>
0.80000001

> <Q_PC+>
0

> <Q_PC->
0

> <Q_RPC+>
0

> <Q_RPC->
0

> <Q_VSA_FHYD>
1

> <Q_VSA_FNEG>
0

> <Q_VSA_FPNEG>
0

> <Q_VSA_FPOL>
0

> <Q_VSA_FPOS>
1

> <Q_VSA_FPPOS>
0

> <Q_VSA_HYD>
300.63596

> <Q_VSA_NEG>
0

> <Q_VSA_PNEG>
0

> <Q_VSA_POL>
0

> <Q_VSA_POS>
300.63596

> <Q_VSA_PPOS>
0

> <radius>
5

> <reactive>
0

> <rings>
2

> <RPC+>
0

> <RPC->
0

> <rsynth>
0.63157892

> <SlogP>
3.8185999

> <SlogP_VSA0>
0.0

> <SlogP_VSA1>
19.909843

> <SlogP_VSA2>
0.0

> <SlogP_VSA3>
18.439579

> <SlogP_VSA4>
5.9423227

> <SlogP_VSA5>
65.794373

> <SlogP_VSA6>
7.9114027

> <SlogP_VSA7>
140.71664

> <SlogP_VSA8>
18.868406

> <SlogP_VSA9>
39.148643

> <SMR>
8.0703001

> <SMR_VSA0>
0.0

> <SMR_VSA1>
19.909843

> <SMR_VSA2>
0.0

> <SMR_VSA3>
13.853725

> <SMR_VSA4>
0.0

> <SMR_VSA5>
159.58505

> <SMR_VSA6>
18.439579

> <SMR_VSA7>
104.94302

> <TPSA>
16.129999

> <VAdjEq>
0.5023343

> <VAdjMa>
5.321928

> <VDistEq>
3.0133755

> <VDistMa>
8.2190228

> <vdw_area>
300.63596

> <vdw_vol>
390.77298

> <vsa_acc>
5.6825762

> <vsa_acid>
0

> <vsa_base>
0

> <vsa_don>
0.0

> <vsa_hyd>
280.08423

> <vsa_other>
0.0

> <vsa_pol>
5.6825762

> <Weight>
274.79498

> <weinerPath>
718

> <weinerPol>
25

> <zagreb>
92

$$$$
Row1491
 OpenBabel06061811532D

 17 17  0  0  0  0  0  0  0  0999 V2000
    0.0000    0.0000    0.0000 Cl  0  0  0  0  0  0  0  0  0  0  0  0
    0.0000    0.0000    0.0000 C   0  0  0  0  0  0  0  0  0  0  0  0
    0.0000    0.0000    0.0000 C   0  0  0  0  0  0  0  0  0  0  0  0
    0.0000    0.0000    0.0000 C   0  0  0  0  0  0  0  0  0  0  0  0
    0.0000    0.0000    0.0000 C   0  0  0  0  0  0  0  0  0  0  0  0
    0.0000    0.0000    0.0000 S   0  0  0  0  0  0  0  0  0  0  0  0
    0.0000    0.0000    0.0000 O   0  0  0  0  0  0  0  0  0  0  0  0
    0.0000    0.0000    0.0000 O   0  0  0  0  0  0  0  0  0  0  0  0
    0.0000    0.0000    0.0000 N   0  0  0  0  0  0  0  0  0  0  0  0
    0.0000    0.0000    0.0000 C   0  0  0  0  0  0  0  0  0  0  0  0
    0.0000    0.0000    0.0000 O   0  0  0  0  0  0  0  0  0  0  0  0
    0.0000    0.0000    0.0000 N   0  0  0  0  0  0  0  0  0  0  0  0
    0.0000    0.0000    0.0000 C   0  0  0  0  0  0  0  0  0  0  0  0
    0.0000    0.0000    0.0000 C   0  0  0  0  0  0  0  0  0  0  0  0
    0.0000    0.0000    0.0000 C   0  0  0  0  0  0  0  0  0  0  0  0
    0.0000    0.0000    0.0000 C   0  0  0  0  0  0  0  0  0  0  0  0
    0.0000    0.0000    0.0000 C   0  0  0  0  0  0  0  0  0  0  0  0
  1  2  1  0  0  0  0
  2 17  1  0  0  0  0
  2  3  2  0  0  0  0
  3  4  1  0  0  0  0
  4  5  2  0  0  0  0
  5  6  1  0  0  0  0
  5 16  1  0  0  0  0
  6  7  2  0  0  0  0
  6  8  2  0  0  0  0
  6  9  1  0  0  0  0
  9 10  1  0  0  0  0
 10 11  2  0  0  0  0
 10 12  1  0  0  0  0
 12 13  1  0  0  0  0
 13 14  1  0  0  0  0
 14 15  1  0  0  0  0
 16 17  2  0  0  0  0
M  END
> <Index>
1492

> <ID>
HT0469

> <class>
1

> <apol>
35.954308

> <ast_fraglike>
1

> <ast_fraglike_ext>
1

> <ast_violation>
0

> <ast_violation_ext>
0

> <a_acc>
3

> <a_acid>
0

> <a_aro>
6

> <a_base>
0

> <a_count>
30

> <a_don>
2

> <a_donacc>
5

> <a_heavy>
17

> <a_hyd>
10

> <a_IC>
59.126835

> <a_ICM>
1.9708945

> <a_nB>
0

> <a_nBr>
0

> <a_nC>
10

> <a_nCl>
1

> <a_nF>
0

> <a_nH>
13

> <a_nI>
0

> <a_nN>
2

> <a_nO>
3

> <a_nP>
0

> <a_nS>
1

> <balabanJ>
2.3927131

> <BCUT_PEOE_0>
-2.5883937

> <BCUT_PEOE_1>
-0.62238669

> <BCUT_PEOE_2>
0.61019361

> <BCUT_PEOE_3>
2.4882951

> <BCUT_SLOGP_0>
-2.7114298

> <BCUT_SLOGP_1>
-0.40195996

> <BCUT_SLOGP_2>
0.74582583

> <BCUT_SLOGP_3>
2.5307074

> <BCUT_SMR_0>
-2.2870853

> <BCUT_SMR_1>
-0.33865556

> <BCUT_SMR_2>
0.85456717

> <BCUT_SMR_3>
2.7962592

> <bpol>
23.385691

> <b_1rotN>
4

> <b_1rotR>
0.23529412

> <b_ar>
6

> <b_count>
30

> <b_double>
1

> <b_heavy>
17

> <b_max1len>
5

> <b_rotN>
6

> <b_rotR>
0.35294119

> <b_single>
23

> <b_triple>
0

> <chi0>
12.888906

> <chi0v>
10.806998

> <chi0v_C>
6.2236147

> <chi0_C>
6.9746914

> <chi1>
7.9535255

> <chi1v>
6.8778429

> <chi1v_C>
3.0284741

> <chi1_C>
3.8401

> <chiral>
0

> <chiral_u>
0

> <density>
0.87869889

> <diameter>
11

> <FCharge>
0

> <GCUT_PEOE_0>
-0.92171079

> <GCUT_PEOE_1>
-0.38397253

> <GCUT_PEOE_2>
0.043565031

> <GCUT_PEOE_3>
2.3143594

> <GCUT_SLOGP_0>
-1.1807469

> <GCUT_SLOGP_1>
-0.36651734

> <GCUT_SLOGP_2>
0.18168214

> <GCUT_SLOGP_3>
2.3175445

> <GCUT_SMR_0>
-0.52237314

> <GCUT_SMR_1>
-0.19652687

> <GCUT_SMR_2>
0.21044794

> <GCUT_SMR_3>
2.5845995

> <Kier1>
15.058824

> <Kier2>
6.8052931

> <Kier3>
5.0176001

> <KierA1>
13.810245

> <KierA2>
6.2053037

> <KierA3>
4.5543776

> <KierFlex>
5.0409861

> <lip_acc>
5

> <lip_don>
2

> <lip_druglike>
1

> <lip_violation>
0

> <logP(o/w)>
1.946

> <logS>
-2.9145501

> <mr>
6.8000336

> <mutagenic>
0

> <nmol>
1

> <opr_brigid>
6

> <opr_leadlike>
1

> <opr_nring>
1

> <opr_nrot>
3

> <opr_violation>
0

> <PC+>
0

> <PC->
0

> <PEOE_PC+>
1.4787961

> <PEOE_PC->
-1.4787961

> <PEOE_RPC+>
0.2141052

> <PEOE_RPC->
0.33406597

> <PEOE_VSA+0>
58.887257

> <PEOE_VSA+1>
25.680557

> <PEOE_VSA+2>
17.440542

> <PEOE_VSA+3>
8.6190128

> <PEOE_VSA+4>
10.105608

> <PEOE_VSA+5>
0.0

> <PEOE_VSA+6>
4.1846013

> <PEOE_VSA-0>
69.718658

> <PEOE_VSA-1>
57.030937

> <PEOE_VSA-2>
0.0

> <PEOE_VSA-3>
2.5295215

> <PEOE_VSA-4>
0.0

> <PEOE_VSA-5>
0.0

> <PEOE_VSA-6>
13.703812

> <PEOE_VSA_FHYD>
0.89550591

> <PEOE_VSA_FNEG>
0.5337165

> <PEOE_VSA_FPNEG>
0.051152617

> <PEOE_VSA_FPOL>
0.10449409

> <PEOE_VSA_FPOS>
0.46628347

> <PEOE_VSA_FPPOS>
0.053341482

> <PEOE_VSA_HYD>
239.90648

> <PEOE_VSA_NEG>
142.98293

> <PEOE_VSA_PNEG>
13.703812

> <PEOE_VSA_POL>
27.994022

> <PEOE_VSA_POS>
124.91758

> <PEOE_VSA_PPOS>
14.29021

> <petitjean>
0.45454547

> <petitjeanSC>
0.83333331

> <Q_PC+>
0

> <Q_PC->
0

> <Q_RPC+>
0

> <Q_RPC->
0

> <Q_VSA_FHYD>
1

> <Q_VSA_FNEG>
0

> <Q_VSA_FPNEG>
0

> <Q_VSA_FPOL>
0

> <Q_VSA_FPOS>
1

> <Q_VSA_FPPOS>
0

> <Q_VSA_HYD>
267.90051

> <Q_VSA_NEG>
0

> <Q_VSA_PNEG>
0

> <Q_VSA_POL>
0

> <Q_VSA_POS>
267.90051

> <Q_VSA_PPOS>
0

> <radius>
6

> <reactive>
0

> <rings>
1

> <RPC+>
0

> <RPC->
0

> <rsynth>
1.0

> <SlogP>
1.7379

> <SlogP_VSA0>
34.415749

> <SlogP_VSA1>
53.001644

> <SlogP_VSA2>
6.6407428

> <SlogP_VSA3>
18.439579

> <SlogP_VSA4>
0.0

> <SlogP_VSA5>
1.5507339

> <SlogP_VSA6>
3.5006065

> <SlogP_VSA7>
70.572739

> <SlogP_VSA8>
18.868406

> <SlogP_VSA9>
96.336876

> <SMR>
6.54632

> <SMR_VSA0>
72.033905

> <SMR_VSA1>
0.0

> <SMR_VSA2>
35.96648

> <SMR_VSA3>
3.5006065

> <SMR_VSA4>
0.0

> <SMR_VSA5>
89.441139

> <SMR_VSA6>
23.269535

> <SMR_VSA7>
79.115402

> <TPSA>
75.269997

> <VAdjEq>
0.52255934

> <VAdjMa>
5.0874629

> <VDistEq>
3.1297526

> <VDistMa>
7.8538046

> <vdw_area>
267.90051

> <vdw_vol>
314.94748

> <vsa_acc>
45.583443

> <vsa_acid>
0

> <vsa_base>
0

> <vsa_don>
13.757783

> <vsa_hyd>
167.03673

> <vsa_other>
27.54615

> <vsa_pol>
59.341228

> <Weight>
276.74399

> <weinerPath>
566

> <weinerPol>
22

> <zagreb>
80

$$$$
Row1492
 OpenBabel06061811532D

 22 24  0  0  1  0  0  0  0  0999 V2000
    0.0000    0.0000    0.0000 Cl  0  0  0  0  0  0  0  0  0  0  0  0
    0.0000    0.0000    0.0000 C   0  0  0  0  0  0  0  0  0  0  0  0
    0.0000    0.0000    0.0000 C   0  0  0  0  0  0  0  0  0  0  0  0
    0.0000    0.0000    0.0000 C   0  0  0  0  0  0  0  0  0  0  0  0
    0.0000    0.0000    0.0000 C   0  0  0  0  0  0  0  0  0  0  0  0
    0.0000    0.0000    0.0000 C   0  0  0  0  0  0  0  0  0  0  0  0
    0.0000    0.0000    0.0000 C   0  0  0  0  0  0  0  0  0  0  0  0
    0.0000    0.0000    0.0000 S   0  0  0  0  0  0  0  0  0  0  0  0
    0.0000    0.0000    0.0000 O   0  0  0  0  0  0  0  0  0  0  0  0
    0.0000    0.0000    0.0000 O   0  0  0  0  0  0  0  0  0  0  0  0
    0.0000    0.0000    0.0000 N   0  0  0  0  0  0  0  0  0  0  0  0
    0.0000    0.0000    0.0000 C   0  0  3  0  0  0  0  0  0  0  0  0
    0.0000    0.0000    0.0000 O   0  0  0  0  0  0  0  0  0  0  0  0
    0.0000    0.0000    0.0000 N   0  0  0  0  0  0  0  0  0  0  0  0
    0.0000    0.0000    0.0000 C   0  0  0  0  0  0  0  0  0  0  0  0
    0.0000    0.0000    0.0000 O   0  0  0  0  0  0  0  0  0  0  0  0
    0.0000    0.0000    0.0000 C   0  0  0  0  0  0  0  0  0  0  0  0
    0.0000    0.0000    0.0000 C   0  0  0  0  0  0  0  0  0  0  0  0
    0.0000    0.0000    0.0000 C   0  0  0  0  0  0  0  0  0  0  0  0
    0.0000    0.0000    0.0000 C   0  0  0  0  0  0  0  0  0  0  0  0
    0.0000    0.0000    0.0000 C   0  0  0  0  0  0  0  0  0  0  0  0
    0.0000    0.0000    0.0000 C   0  0  0  0  0  0  0  0  0  0  0  0
  1  2  1  0  0  0  0
  2  7  1  0  0  0  0
  2  3  2  0  0  0  0
  3  4  1  0  0  0  0
  4  5  2  0  0  0  0
  5  6  1  0  0  0  0
  5 12  1  0  0  0  0
  6  7  2  0  0  0  0
  7  8  1  0  0  0  0
  8  9  2  0  0  0  0
  8 10  2  0  0  0  0
  8 11  1  0  0  0  0
 12 18  1  0  0  0  0
 12 13  1  0  0  0  0
 12 14  1  0  0  0  0
 14 15  1  0  0  0  0
 15 16  2  0  0  0  0
 15 17  1  0  0  0  0
 17 22  1  0  0  0  0
 17 18  2  0  0  0  0
 18 19  1  0  0  0  0
 19 20  2  0  0  0  0
 20 21  1  0  0  0  0
 21 22  2  0  0  0  0
M  END
> <Index>
1493

> <ID>
HT0472

> <class>
1

> <apol>
42.462723

> <ast_fraglike>
0

> <ast_fraglike_ext>
0

> <ast_violation>
2

> <ast_violation_ext>
3

> <a_acc>
4

> <a_acid>
0

> <a_aro>
12

> <a_base>
0

> <a_count>
33

> <a_don>
3

> <a_donacc>
7

> <a_heavy>
22

> <a_hyd>
13

> <a_IC>
65.108292

> <a_ICM>
1.9729785

> <a_nB>
0

> <a_nBr>
0

> <a_nC>
14

> <a_nCl>
1

> <a_nF>
0

> <a_nH>
11

> <a_nI>
0

> <a_nN>
2

> <a_nO>
4

> <a_nP>
0

> <a_nS>
1

> <balabanJ>
1.8113339

> <BCUT_PEOE_0>
-2.4020433

> <BCUT_PEOE_1>
-0.62733978

> <BCUT_PEOE_2>
0.68491942

> <BCUT_PEOE_3>
2.5343566

> <BCUT_SLOGP_0>
-2.5738719

> <BCUT_SLOGP_1>
-0.51945269

> <BCUT_SLOGP_2>
0.75203294

> <BCUT_SLOGP_3>
2.5441854

> <BCUT_SMR_0>
-2.124728

> <BCUT_SMR_1>
-0.44348717

> <BCUT_SMR_2>
0.88041675

> <BCUT_SMR_3>
2.8127792

> <bpol>
19.879276

> <b_1rotN>
2

> <b_1rotR>
0.083333336

> <b_ar>
12

> <b_count>
35

> <b_double>
1

> <b_heavy>
24

> <b_max1len>
3

> <b_rotN>
2

> <b_rotR>
0.083333336

> <b_single>
22

> <b_triple>
0

> <chi0>
16.120956

> <chi0v>
12.649399

> <chi0v_C>
7.5414519

> <chi0_C>
8.9138489

> <chi1>
10.232018

> <chi1v>
8.1295414

> <chi1v_C>
4.3153839

> <chi1_C>
6.0268402

> <chiral>
1

> <chiral_u>
1

> <density>
0.90562719

> <diameter>
9

> <FCharge>
0

> <GCUT_PEOE_0>
-0.79598868

> <GCUT_PEOE_1>
-0.43486726

> <GCUT_PEOE_2>
0.10421884

> <GCUT_PEOE_3>
2.5725136

> <GCUT_SLOGP_0>
-1.3482827

> <GCUT_SLOGP_1>
-0.43242508

> <GCUT_SLOGP_2>
0.17537935

> <GCUT_SLOGP_3>
2.6207819

> <GCUT_SMR_0>
-0.49478158

> <GCUT_SMR_1>
-0.19670351

> <GCUT_SMR_2>
0.28220922

> <GCUT_SMR_3>
2.8501291

> <Kier1>
16.84375

> <Kier2>
5.8171744

> <Kier3>
2.9219532

> <KierA1>
14.424356

> <KierA2>
4.9426818

> <KierA3>
2.4686098

> <KierFlex>
3.2406816

> <lip_acc>
6

> <lip_don>
4

> <lip_druglike>
1

> <lip_violation>
0

> <logP(o/w)>
1.973

> <logS>
-4.23563

> <mr>
8.2048063

> <mutagenic>
0

> <nmol>
1

> <opr_brigid>
16

> <opr_leadlike>
1

> <opr_nring>
3

> <opr_nrot>
2

> <opr_violation>
0

> <PC+>
0

> <PC->
0

> <PEOE_PC+>
1.9933392

> <PEOE_PC->
-1.9933392

> <PEOE_RPC+>
0.15072693

> <PEOE_RPC->
0.18173726

> <PEOE_VSA+0>
33.969254

> <PEOE_VSA+1>
42.112606

> <PEOE_VSA+2>
4.5197463

> <PEOE_VSA+3>
8.6190128

> <PEOE_VSA+4>
10.324173

> <PEOE_VSA+5>
12.949531

> <PEOE_VSA+6>
4.1846013

> <PEOE_VSA-0>
24.509808

> <PEOE_VSA-1>
78.601562

> <PEOE_VSA-2>
0.0

> <PEOE_VSA-3>
9.0437498

> <PEOE_VSA-4>
32.016521

> <PEOE_VSA-5>
13.566921

> <PEOE_VSA-6>
7.9044313

> <PEOE_VSA_FHYD>
0.71328413

> <PEOE_VSA_FNEG>
0.58671671

> <PEOE_VSA_FPNEG>
0.18945704

> <PEOE_VSA_FPOL>
0.28671589

> <PEOE_VSA_FPOS>
0.41328326

> <PEOE_VSA_FPPOS>
0.097258851

> <PEOE_VSA_HYD>
201.37573

> <PEOE_VSA_NEG>
165.64299

> <PEOE_VSA_PNEG>
53.487877

> <PEOE_VSA_POL>
80.946182

> <PEOE_VSA_POS>
116.67892

> <PEOE_VSA_PPOS>
27.458305

> <petitjean>
0.44444445

> <petitjeanSC>
0.80000001

> <Q_PC+>
0

> <Q_PC->
0

> <Q_RPC+>
0

> <Q_RPC->
0

> <Q_VSA_FHYD>
1

> <Q_VSA_FNEG>
0

> <Q_VSA_FPNEG>
0

> <Q_VSA_FPOL>
0

> <Q_VSA_FPOS>
1

> <Q_VSA_FPPOS>
0

> <Q_VSA_HYD>
282.32193

> <Q_VSA_NEG>
0

> <Q_VSA_PNEG>
0

> <Q_VSA_POL>
0

> <Q_VSA_POS>
282.32193

> <Q_VSA_PPOS>
0

> <radius>
5

> <reactive>
0

> <rings>
3

> <RPC+>
0

> <RPC->
0

> <rsynth>
1.0

> <SlogP>
1.2357

> <SlogP_VSA0>
74.687408

> <SlogP_VSA1>
53.430473

> <SlogP_VSA2>
6.6407428

> <SlogP_VSA3>
0.0

> <SlogP_VSA4>
33.418941

> <SlogP_VSA5>
1.5507339

> <SlogP_VSA6>
3.5006065

> <SlogP_VSA7>
123.50229

> <SlogP_VSA8>
0.0

> <SlogP_VSA9>
39.148643

> <SMR>
7.98492

> <SMR_VSA0>
72.033905

> <SMR_VSA1>
25.385227

> <SMR_VSA2>
19.561485

> <SMR_VSA3>
13.057331

> <SMR_VSA4>
31.291433

> <SMR_VSA5>
123.50229

> <SMR_VSA6>
5.2587838

> <SMR_VSA7>
45.789387

> <TPSA>
109.49

> <VAdjEq>
0.46637034

> <VAdjMa>
5.5849624

> <VDistEq>
3.004796

> <VDistMa>
8.6535711

> <vdw_area>
282.32193

> <vdw_vol>
374.07333

> <vsa_acc>
45.583443

> <vsa_acid>
0

> <vsa_base>
0

> <vsa_don>
25.817696

> <vsa_hyd>
155.57138

> <vsa_other>
23.05514

> <vsa_pol>
84.968063

> <Weight>
338.771

> <weinerPath>
952

> <weinerPol>
40

> <zagreb>
124

$$$$
Row1493
 OpenBabel06061811532D

 22 23  0  0  0  0  0  0  0  0999 V2000
    0.0000    0.0000    0.0000 Cl  0  0  0  0  0  0  0  0  0  0  0  0
    0.0000    0.0000    0.0000 C   0  0  0  0  0  0  0  0  0  0  0  0
    0.0000    0.0000    0.0000 C   0  0  0  0  0  0  0  0  0  0  0  0
    0.0000    0.0000    0.0000 C   0  0  0  0  0  0  0  0  0  0  0  0
    0.0000    0.0000    0.0000 C   0  0  0  0  0  0  0  0  0  0  0  0
    0.0000    0.0000    0.0000 C   0  0  0  0  0  0  0  0  0  0  0  0
    0.0000    0.0000    0.0000 C   0  0  0  0  0  0  0  0  0  0  0  0
    0.0000    0.0000    0.0000 C   0  0  0  0  0  0  0  0  0  0  0  0
    0.0000    0.0000    0.0000 O   0  0  0  0  0  0  0  0  0  0  0  0
    0.0000    0.0000    0.0000 C   0  0  0  0  0  0  0  0  0  0  0  0
    0.0000    0.0000    0.0000 C   0  0  0  0  0  0  0  0  0  0  0  0
    0.0000    0.0000    0.0000 C   0  0  0  0  0  0  0  0  0  0  0  0
    0.0000    0.0000    0.0000 C   0  0  0  0  0  0  0  0  0  0  0  0
    0.0000    0.0000    0.0000 O   0  0  0  0  0  0  0  0  0  0  0  0
    0.0000    0.0000    0.0000 C   0  0  0  0  0  0  0  0  0  0  0  0
    0.0000    0.0000    0.0000 C   0  0  0  0  0  0  0  0  0  0  0  0
    0.0000    0.0000    0.0000 O   0  0  0  0  0  0  0  0  0  0  0  0
    0.0000    0.0000    0.0000 O   0  0  0  0  0  0  0  0  0  0  0  0
    0.0000    0.0000    0.0000 C   0  0  0  0  0  0  0  0  0  0  0  0
    0.0000    0.0000    0.0000 C   0  0  0  0  0  0  0  0  0  0  0  0
    0.0000    0.0000    0.0000 C   0  0  0  0  0  0  0  0  0  0  0  0
    0.0000    0.0000    0.0000 C   0  0  0  0  0  0  0  0  0  0  0  0
  1  2  1  0  0  0  0
  2  7  1  0  0  0  0
  2  3  2  0  0  0  0
  3  4  1  0  0  0  0
  4  5  2  0  0  0  0
  5  6  1  0  0  0  0
  5  8  1  0  0  0  0
  6  7  2  0  0  0  0
  8  9  2  0  0  0  0
  8 10  1  0  0  0  0
 10 22  1  0  0  0  0
 10 11  2  0  0  0  0
 11 12  1  0  0  0  0
 12 13  2  0  0  0  0
 13 14  1  0  0  0  0
 13 21  1  0  0  0  0
 14 15  1  0  0  0  0
 15 16  1  0  0  0  0
 15 19  1  0  0  0  0
 15 20  1  0  0  0  0
 16 17  1  0  0  0  0
 16 18  2  0  0  0  0
 21 22  2  0  0  0  0
M  END
> <Index>
1494

> <ID>
HT0477

> <class>
1

> <apol>
45.309895

> <ast_fraglike>
0

> <ast_fraglike_ext>
0

> <ast_violation>
3

> <ast_violation_ext>
4

> <a_acc>
4

> <a_acid>
0

> <a_aro>
12

> <a_base>
0

> <a_count>
37

> <a_don>
2

> <a_donacc>
6

> <a_heavy>
22

> <a_hyd>
16

> <a_IC>
56.659546

> <a_ICM>
1.5313392

> <a_nB>
0

> <a_nBr>
0

> <a_nC>
17

> <a_nCl>
1

> <a_nF>
0

> <a_nH>
15

> <a_nI>
0

> <a_nN>
0

> <a_nO>
4

> <a_nP>
0

> <a_nS>
0

> <balabanJ>
1.7751105

> <BCUT_PEOE_0>
-2.5060565

> <BCUT_PEOE_1>
-0.64157093

> <BCUT_PEOE_2>
0.70199347

> <BCUT_PEOE_3>
2.5749621

> <BCUT_SLOGP_0>
-2.6023884

> <BCUT_SLOGP_1>
-0.53807992

> <BCUT_SLOGP_2>
0.80591482

> <BCUT_SLOGP_3>
2.5245185

> <BCUT_SMR_0>
-2.2909009

> <BCUT_SMR_1>
-0.49986199

> <BCUT_SMR_2>
0.85431087

> <BCUT_SMR_3>
2.7830837

> <bpol>
20.650105

> <b_1rotN>
5

> <b_1rotR>
0.2173913

> <b_ar>
12

> <b_count>
38

> <b_double>
2

> <b_heavy>
23

> <b_max1len>
4

> <b_rotN>
5

> <b_rotR>
0.2173913

> <b_single>
24

> <b_triple>
0

> <chi0>
16.328062

> <chi0v>
12.924654

> <chi0v_C>
10.118802

> <chi0_C>
11.620955

> <chi1>
10.292531

> <chi1v>
6.9997845

> <chi1v_C>
5.3927345

> <chi1_C>
7.2213283

> <chiral>
0

> <chiral_u>
0

> <density>
0.79000336

> <diameter>
13

> <FCharge>
0

> <GCUT_PEOE_0>
-0.76349211

> <GCUT_PEOE_1>
-0.38323474

> <GCUT_PEOE_2>
0.081907488

> <GCUT_PEOE_3>
2.4331555

> <GCUT_SLOGP_0>
-0.9432472

> <GCUT_SLOGP_1>
-0.26386139

> <GCUT_SLOGP_2>
0.16445385

> <GCUT_SLOGP_3>
2.5237896

> <GCUT_SMR_0>
-0.51270914

> <GCUT_SMR_1>
-0.21605732

> <GCUT_SMR_2>
0.19305076

> <GCUT_SMR_3>
2.7074885

> <Kier1>
18.340265

> <Kier2>
7.7134986

> <Kier3>
4.9967127

> <KierA1>
14.285043

> <KierA2>
5.9312124

> <KierA3>
3.8064508

> <KierFlex>
3.8512557

> <lip_acc>
4

> <lip_don>
1

> <lip_druglike>
1

> <lip_violation>
0

> <logP(o/w)>
4.3429999

> <logS>
-4.8926201

> <mr>
8.5066261

> <mutagenic>
0

> <nmol>
1

> <opr_brigid>
12

> <opr_leadlike>
1

> <opr_nring>
2

> <opr_nrot>
5

> <opr_violation>
0

> <PC+>
0

> <PC->
0

> <PEOE_PC+>
1.6858501

> <PEOE_PC->
-1.6858501

> <PEOE_RPC+>
0.1730794

> <PEOE_RPC->
0.19521385

> <PEOE_VSA+0>
34.52914

> <PEOE_VSA+1>
42.581608

> <PEOE_VSA+2>
0.0

> <PEOE_VSA+3>
8.458519

> <PEOE_VSA+4>
10.324173

> <PEOE_VSA+5>
14.708499

> <PEOE_VSA+6>
0.0

> <PEOE_VSA-0>
135.53459

> <PEOE_VSA-1>
29.581947

> <PEOE_VSA-2>
0.0

> <PEOE_VSA-3>
0.0

> <PEOE_VSA-4>
0.0

> <PEOE_VSA-5>
27.133842

> <PEOE_VSA-6>
10.271297

> <PEOE_VSA_FHYD>
0.80059695

> <PEOE_VSA_FNEG>
0.64677864

> <PEOE_VSA_FPNEG>
0.11945806

> <PEOE_VSA_FPOL>
0.19940308

> <PEOE_VSA_FPOS>
0.35322133

> <PEOE_VSA_FPPOS>
0.079945013

> <PEOE_VSA_HYD>
250.68581

> <PEOE_VSA_NEG>
202.52167

> <PEOE_VSA_PNEG>
37.40514

> <PEOE_VSA_POL>
62.437809

> <PEOE_VSA_POS>
110.60194

> <PEOE_VSA_PPOS>
25.032671

> <petitjean>
0.46153846

> <petitjeanSC>
0.85714287

> <Q_PC+>
0

> <Q_PC->
0

> <Q_RPC+>
0

> <Q_RPC->
0

> <Q_VSA_FHYD>
1

> <Q_VSA_FNEG>
0

> <Q_VSA_FPNEG>
0

> <Q_VSA_FPOL>
0

> <Q_VSA_FPOS>
1

> <Q_VSA_FPPOS>
0

> <Q_VSA_HYD>
313.12363

> <Q_VSA_NEG>
0

> <Q_VSA_PNEG>
0

> <Q_VSA_POL>
0

> <Q_VSA_POS>
313.12363

> <Q_VSA_PPOS>
0

> <radius>
7

> <reactive>
1

> <rings>
2

> <RPC+>
0

> <RPC->
0

> <rsynth>
1.0

> <SlogP>
3.813

> <SlogP_VSA0>
10.999887

> <SlogP_VSA1>
13.433075

> <SlogP_VSA2>
23.862217

> <SlogP_VSA3>
25.385227

> <SlogP_VSA4>
30.233366

> <SlogP_VSA5>
0.0

> <SlogP_VSA6>
3.5006065

> <SlogP_VSA7>
141.14548

> <SlogP_VSA8>
0.0

> <SlogP_VSA9>
111.04411

> <SMR>
8.36693

> <SMR_VSA0>
47.724434

> <SMR_VSA1>
10.999887

> <SMR_VSA2>
25.385227

> <SMR_VSA3>
15.115185

> <SMR_VSA4>
0.0

> <SMR_VSA5>
141.14548

> <SMR_VSA6>
13.433075

> <SMR_VSA7>
105.80067

> <TPSA>
63.599998

> <VAdjEq>
0.4530769

> <VAdjMa>
5.523562

> <VDistEq>
3.4670858

> <VDistMa>
8.584425

> <vdw_area>
313.12363

> <vdw_vol>
403.48691

> <vsa_acc>
16.070677

> <vsa_acid>
0

> <vsa_base>
0

> <vsa_don>
0.0

> <vsa_hyd>
232.26215

> <vsa_other>
23.167019

> <vsa_pol>
43.204517

> <Weight>
318.75598

> <weinerPath>
1182

> <weinerPol>
33

> <zagreb>
112

$$$$
Row1494
 OpenBabel06061811532D

 18 18  0  0  0  0  0  0  0  0999 V2000
    0.0000    0.0000    0.0000 S   0  0  0  0  0  0  0  0  0  0  0  0
    0.0000    0.0000    0.0000 C   0  0  0  0  0  0  0  0  0  0  0  0
    0.0000    0.0000    0.0000 C   0  0  0  0  0  0  0  0  0  0  0  0
    0.0000    0.0000    0.0000 N   0  0  0  0  0  0  0  0  0  0  0  0
    0.0000    0.0000    0.0000 H   0  0  0  0  0  0  0  0  0  0  0  0
    0.0000    0.0000    0.0000 C   0  0  0  0  0  0  0  0  0  0  0  0
    0.0000    0.0000    0.0000 N   0  0  0  0  0  0  0  0  0  0  0  0
    0.0000    0.0000    0.0000 C   0  0  0  0  0  0  0  0  0  0  0  0
    0.0000    0.0000    0.0000 C   0  0  0  0  0  0  0  0  0  0  0  0
    0.0000    0.0000    0.0000 C   0  0  0  0  0  0  0  0  0  0  0  0
    0.0000    0.0000    0.0000 C   0  0  0  0  0  0  0  0  0  0  0  0
    0.0000    0.0000    0.0000 N   0  0  0  0  0  0  0  0  0  0  0  0
    0.0000    0.0000    0.0000 C   0  0  0  0  0  0  0  0  0  0  0  0
    0.0000    0.0000    0.0000 N   0  0  0  0  0  0  0  0  0  0  0  0
    0.0000    0.0000    0.0000 C   0  0  0  0  0  0  0  0  0  0  0  0
    0.0000    0.0000    0.0000 N   0  0  0  0  0  0  0  0  0  0  0  0
    0.0000    0.0000    0.0000 C   0  0  0  0  0  0  0  0  0  0  0  0
    0.0000    0.0000    0.0000 N   0  0  0  0  0  0  0  0  0  0  0  0
  1  2  1  0  0  0  0
  1 10  1  0  0  0  0
  2  3  1  0  0  0  0
  3  8  2  0  0  0  0
  3  4  1  0  0  0  0
  4  5  1  0  0  0  0
  4  6  1  0  0  0  0
  6  7  2  0  0  0  0
  7  8  1  0  0  0  0
  8  9  1  0  0  0  0
 10 11  1  0  0  0  0
 11 12  1  0  0  0  0
 12 13  1  0  0  0  0
 13 14  2  3  0  0  0
 13 16  1  0  0  0  0
 14 15  1  0  0  0  0
 16 17  1  0  0  0  0
 17 18  3  0  0  0  0
M  END
> <Index>
1495

> <ID>
HT0486

> <class>
1

> <apol>
37.768688

> <ast_fraglike>
0

> <ast_fraglike_ext>
0

> <ast_violation>
2

> <ast_violation_ext>
3

> <a_acc>
4

> <a_acid>
0

> <a_aro>
5

> <a_base>
0

> <a_count>
33

> <a_don>
4

> <a_donacc>
8

> <a_heavy>
17

> <a_hyd>
8

> <a_IC>
53.73595

> <a_ICM>
1.6283622

> <a_nB>
0

> <a_nBr>
0

> <a_nC>
10

> <a_nCl>
0

> <a_nF>
0

> <a_nH>
16

> <a_nI>
0

> <a_nN>
6

> <a_nO>
0

> <a_nP>
0

> <a_nS>
1

> <balabanJ>
1.9673568

> <BCUT_PEOE_0>
-2.5121536

> <BCUT_PEOE_1>
-0.39268234

> <BCUT_PEOE_2>
0.40251124

> <BCUT_PEOE_3>
2.463845

> <BCUT_SLOGP_0>
-2.6966035

> <BCUT_SLOGP_1>
-0.30274978

> <BCUT_SLOGP_2>
0.44335371

> <BCUT_SLOGP_3>
2.5597219

> <BCUT_SMR_0>
-2.2019892

> <BCUT_SMR_1>
-0.15337421

> <BCUT_SMR_2>
0.55755782

> <BCUT_SMR_3>
2.7910933

> <bpol>
25.051311

> <b_1rotN>
5

> <b_1rotR>
0.29411766

> <b_ar>
5

> <b_count>
33

> <b_double>
1

> <b_heavy>
17

> <b_max1len>
6

> <b_rotN>
8

> <b_rotR>
0.47058824

> <b_single>
26

> <b_triple>
1

> <chi0>
12.510225

> <chi0v>
10.765057

> <chi0v_C>
6.6986704

> <chi0_C>
7.2675848

> <chi1>
8.2743874

> <chi1v>
6.3540654

> <chi1v_C>
1.6035534

> <chi1_C>
1.8189319

> <chiral>
0

> <chiral_u>
0

> <density>
0.76575446

> <diameter>
11

> <FCharge>
0

> <GCUT_PEOE_0>
-0.84446162

> <GCUT_PEOE_1>
-0.36365011

> <GCUT_PEOE_2>
0.066955641

> <GCUT_PEOE_3>
2.2911124

> <GCUT_SLOGP_0>
-1.1815728

> <GCUT_SLOGP_1>
-0.30564043

> <GCUT_SLOGP_2>
0.16237241

> <GCUT_SLOGP_3>
2.3523543

> <GCUT_SMR_0>
-0.4957324

> <GCUT_SMR_1>
-0.15069573

> <GCUT_SMR_2>
0.22686824

> <GCUT_SMR_3>
2.5876465

> <Kier1>
15.058824

> <Kier2>
9.0

> <Kier3>
5.9281664

> <KierA1>
11.622291

> <KierA2>
6.8240614

> <KierA3>
4.4316249

> <KierFlex>
4.6653662

> <lip_acc>
6

> <lip_don>
3

> <lip_druglike>
1

> <lip_violation>
0

> <logP(o/w)>
-0.113

> <logS>
-1.9627399

> <mr>
6.9214559

> <mutagenic>
0

> <nmol>
1

> <opr_brigid>
6

> <opr_leadlike>
1

> <opr_nring>
1

> <opr_nrot>
8

> <opr_violation>
0

> <PC+>
0

> <PC->
0

> <PEOE_PC+>
1.8057249

> <PEOE_PC->
-1.8057249

> <PEOE_RPC+>
0.11403946

> <PEOE_RPC->
0.196339

> <PEOE_VSA+0>
115.66994

> <PEOE_VSA+1>
27.936478

> <PEOE_VSA+2>
4.2653861

> <PEOE_VSA+3>
50.647556

> <PEOE_VSA+4>
15.681574

> <PEOE_VSA+5>
0.0

> <PEOE_VSA+6>
0.0

> <PEOE_VSA-0>
18.747677

> <PEOE_VSA-1>
0.0

> <PEOE_VSA-2>
0.0

> <PEOE_VSA-3>
37.503109

> <PEOE_VSA-4>
5.6825762

> <PEOE_VSA-5>
5.8194671

> <PEOE_VSA-6>
0.27378201

> <PEOE_VSA_FHYD>
0.90271187

> <PEOE_VSA_FNEG>
0.24103461

> <PEOE_VSA_FPNEG>
0.041724578

> <PEOE_VSA_FPOL>
0.097288162

> <PEOE_VSA_FPOS>
0.75896537

> <PEOE_VSA_FPPOS>
0.055563584

> <PEOE_VSA_HYD>
254.77016

> <PEOE_VSA_NEG>
68.026611

> <PEOE_VSA_PNEG>
11.775826

> <PEOE_VSA_POL>
27.457399

> <PEOE_VSA_POS>
214.20094

> <PEOE_VSA_PPOS>
15.681574

> <petitjean>
0.45454547

> <petitjeanSC>
0.83333331

> <Q_PC+>
0

> <Q_PC->
0

> <Q_RPC+>
0

> <Q_RPC->
0

> <Q_VSA_FHYD>
1

> <Q_VSA_FNEG>
0

> <Q_VSA_FPNEG>
0

> <Q_VSA_FPOL>
0

> <Q_VSA_FPOS>
1

> <Q_VSA_FPPOS>
0

> <Q_VSA_HYD>
282.22754

> <Q_VSA_NEG>
0

> <Q_VSA_PNEG>
0

> <Q_VSA_POL>
0

> <Q_VSA_POS>
282.22754

> <Q_VSA_PPOS>
0

> <radius>
6

> <reactive>
0

> <rings>
1

> <RPC+>
0

> <RPC->
0

> <rsynth>
1.0

> <SlogP>
0.86380398

> <SlogP_VSA0>
36.0215

> <SlogP_VSA1>
18.684622

> <SlogP_VSA2>
16.78553

> <SlogP_VSA3>
82.905418

> <SlogP_VSA4>
5.513495

> <SlogP_VSA5>
49.682716

> <SlogP_VSA6>
0.0

> <SlogP_VSA7>
16.78553

> <SlogP_VSA8>
0.0

> <SlogP_VSA9>
82.779121

> <SMR>
6.98031

> <SMR_VSA0>
0.0

> <SMR_VSA1>
64.630417

> <SMR_VSA2>
52.80703

> <SMR_VSA3>
21.686415

> <SMR_VSA4>
0.0

> <SMR_VSA5>
34.019093

> <SMR_VSA6>
37.572235

> <SMR_VSA7>
98.442741

> <TPSA>
88.889999

> <VAdjEq>
0.52255934

> <VAdjMa>
5.0874629

> <VDistEq>
3.3448591

> <VDistMa>
7.8187537

> <vdw_area>
282.22754

> <vdw_vol>
329.53906

> <vsa_acc>
23.425066

> <vsa_acid>
0

> <vsa_base>
0

> <vsa_don>
11.365152

> <vsa_hyd>
152.33624

> <vsa_other>
65.262611

> <vsa_pol>
46.155369

> <Weight>
252.34599

> <weinerPath>
664

> <weinerPol>
18

> <zagreb>
74

$$$$
Row1495
 OpenBabel06061811532D

 28 31  0  0  1  0  0  0  0  0999 V2000
    0.0000    0.0000    0.0000 N   0  0  0  0  0  0  0  0  0  0  0  0
    0.0000    0.0000    0.0000 C   0  0  0  0  0  0  0  0  0  0  0  0
    0.0000    0.0000    0.0000 C   0  0  0  0  0  0  0  0  0  0  0  0
    0.0000    0.0000    0.0000 N   0  0  0  0  0  0  0  0  0  0  0  0
    0.0000    0.0000    0.0000 C   0  0  0  0  0  0  0  0  0  0  0  0
    0.0000    0.0000    0.0000 C   0  0  0  0  0  0  0  0  0  0  0  0
    0.0000    0.0000    0.0000 C   0  0  0  0  0  0  0  0  0  0  0  0
    0.0000    0.0000    0.0000 C   0  0  0  0  0  0  0  0  0  0  0  0
    0.0000    0.0000    0.0000 C   0  0  0  0  0  0  0  0  0  0  0  0
    0.0000    0.0000    0.0000 C   0  0  0  0  0  0  0  0  0  0  0  0
    0.0000    0.0000    0.0000 C   0  0  0  0  0  0  0  0  0  0  0  0
    0.0000    0.0000    0.0000 C   0  0  0  0  0  0  0  0  0  0  0  0
    0.0000    0.0000    0.0000 C   0  0  0  0  0  0  0  0  0  0  0  0
    0.0000    0.0000    0.0000 C   0  0  0  0  0  0  0  0  0  0  0  0
    0.0000    0.0000    0.0000 C   0  0  0  0  0  0  0  0  0  0  0  0
    0.0000    0.0000    0.0000 C   0  0  3  0  0  0  0  0  0  0  0  0
    0.0000    0.0000    0.0000 C   0  0  0  0  0  0  0  0  0  0  0  0
    0.0000    0.0000    0.0000 C   0  0  0  0  0  0  0  0  0  0  0  0
    0.0000    0.0000    0.0000 C   0  0  0  0  0  0  0  0  0  0  0  0
    0.0000    0.0000    0.0000 C   0  0  0  0  0  0  0  0  0  0  0  0
    0.0000    0.0000    0.0000 C   0  0  0  0  0  0  0  0  0  0  0  0
    0.0000    0.0000    0.0000 C   0  0  0  0  0  0  0  0  0  0  0  0
    0.0000    0.0000    0.0000 C   0  0  0  0  0  0  0  0  0  0  0  0
    0.0000    0.0000    0.0000 C   0  0  0  0  0  0  0  0  0  0  0  0
    0.0000    0.0000    0.0000 C   0  0  0  0  0  0  0  0  0  0  0  0
    0.0000    0.0000    0.0000 C   0  0  0  0  0  0  0  0  0  0  0  0
    0.0000    0.0000    0.0000 C   0  0  0  0  0  0  0  0  0  0  0  0
    0.0000    0.0000    0.0000 C   0  0  0  0  0  0  0  0  0  0  0  0
  1  6  1  0  0  0  0
  1  2  1  0  0  0  0
  1 16  1  0  0  0  0
  2  3  1  0  0  0  0
  3  4  1  0  0  0  0
  4  5  1  0  0  0  0
  4  7  1  0  0  0  0
  5  6  1  0  0  0  0
  7  8  1  0  0  0  0
  8  9  2  3  0  0  0
  9 10  1  0  0  0  0
 10 15  1  0  0  0  0
 10 11  2  0  0  0  0
 11 12  1  0  0  0  0
 12 13  2  0  0  0  0
 13 14  1  0  0  0  0
 14 15  2  0  0  0  0
 16 17  1  0  0  0  0
 16 23  1  0  0  0  0
 17 22  1  0  0  0  0
 17 18  2  0  0  0  0
 18 19  1  0  0  0  0
 19 20  2  0  0  0  0
 20 21  1  0  0  0  0
 21 22  2  0  0  0  0
 23 28  1  0  0  0  0
 23 24  2  0  0  0  0
 24 25  1  0  0  0  0
 25 26  2  0  0  0  0
 26 27  1  0  0  0  0
 27 28  2  0  0  0  0
M  END
> <Index>
1496

> <ID>
HT0492

> <class>
1

> <apol>
66.630203

> <ast_fraglike>
0

> <ast_fraglike_ext>
0

> <ast_violation>
2

> <ast_violation_ext>
3

> <a_acc>
2

> <a_acid>
0

> <a_aro>
18

> <a_base>
0

> <a_count>
56

> <a_don>
0

> <a_donacc>
2

> <a_heavy>
28

> <a_hyd>
26

> <a_IC>
66.394508

> <a_ICM>
1.1856161

> <a_nB>
0

> <a_nBr>
0

> <a_nC>
26

> <a_nCl>
0

> <a_nF>
0

> <a_nH>
28

> <a_nI>
0

> <a_nN>
2

> <a_nO>
0

> <a_nP>
0

> <a_nS>
0

> <balabanJ>
1.2356045

> <BCUT_PEOE_0>
-2.7785532

> <BCUT_PEOE_1>
-0.64890665

> <BCUT_PEOE_2>
0.6975826

> <BCUT_PEOE_3>
2.6758025

> <BCUT_SLOGP_0>
-2.8767295

> <BCUT_SLOGP_1>
-0.53807992

> <BCUT_SLOGP_2>
0.80591482

> <BCUT_SLOGP_3>
2.6292667

> <BCUT_SMR_0>
-2.490418

> <BCUT_SMR_1>
-0.49986199

> <BCUT_SMR_2>
0.85431087

> <BCUT_SMR_3>
2.9569342

> <bpol>
34.569798

> <b_1rotN>
6

> <b_1rotR>
0.19354838

> <b_ar>
18

> <b_count>
59

> <b_double>
1

> <b_heavy>
31

> <b_max1len>
3

> <b_rotN>
6

> <b_rotR>
0.19354838

> <b_single>
40

> <b_triple>
0

> <chi0>
19.020451

> <chi0v>
16.322266

> <chi0v_C>
15.427838

> <chi0_C>
17.865749

> <chi1>
13.898979

> <chi1v>
10.178995

> <chi1v_C>
8.3396578

> <chi1_C>
11.524405

> <chiral>
0

> <chiral_u>
0

> <density>
0.64623952

> <diameter>
15

> <FCharge>
0

> <GCUT_PEOE_0>
-0.85168433

> <GCUT_PEOE_1>
-0.3893753

> <GCUT_PEOE_2>
0.079418793

> <GCUT_PEOE_3>
2.8202345

> <GCUT_SLOGP_0>
-0.96068144

> <GCUT_SLOGP_1>
-0.26386139

> <GCUT_SLOGP_2>
0.16445385

> <GCUT_SLOGP_3>
2.8812232

> <GCUT_SMR_0>
-0.51432729

> <GCUT_SMR_1>
-0.21200819

> <GCUT_SMR_2>
0.19305076

> <GCUT_SMR_3>
3.0936308

> <Kier1>
21.240376

> <Kier2>
11.4075

> <Kier3>
6.25

> <KierA1>
15.735842

> <KierA2>
8.3502903

> <KierA3>
4.5359998

> <KierFlex>
4.6928158

> <lip_acc>
2

> <lip_don>
0

> <lip_druglike>
1

> <lip_violation>
1

> <logP(o/w)>
5.8210001

> <logS>
-5.3446798

> <mr>
11.790074

> <mutagenic>
0

> <nmol>
1

> <opr_brigid>
25

> <opr_leadlike>
1

> <opr_nring>
4

> <opr_nrot>
8

> <opr_violation>
1

> <PC+>
0

> <PC->
0

> <PEOE_PC+>
1.6788895

> <PEOE_PC->
-1.6788895

> <PEOE_RPC+>
0.03713385

> <PEOE_RPC->
0.17648347

> <PEOE_VSA+0>
108.61549

> <PEOE_VSA+1>
79.922905

> <PEOE_VSA+2>
0.0

> <PEOE_VSA+3>
0.0

> <PEOE_VSA+4>
0.0

> <PEOE_VSA+5>
0.0

> <PEOE_VSA+6>
0.0

> <PEOE_VSA-0>
6.6256189

> <PEOE_VSA-1>
208.33337

> <PEOE_VSA-2>
0.0

> <PEOE_VSA-3>
0.0

> <PEOE_VSA-4>
0.0

> <PEOE_VSA-5>
0.0

> <PEOE_VSA-6>
0.0

> <PEOE_VSA_FHYD>
1.0

> <PEOE_VSA_FNEG>
0.53273946

> <PEOE_VSA_FPNEG>
0.0

> <PEOE_VSA_FPOL>
0.0

> <PEOE_VSA_FPOS>
0.46726051

> <PEOE_VSA_FPPOS>
0.0

> <PEOE_VSA_HYD>
403.49738

> <PEOE_VSA_NEG>
214.95898

> <PEOE_VSA_PNEG>
0.0

> <PEOE_VSA_POL>
0.0

> <PEOE_VSA_POS>
188.53839

> <PEOE_VSA_PPOS>
0.0

> <petitjean>
0.46666667

> <petitjeanSC>
0.875

> <Q_PC+>
0

> <Q_PC->
0

> <Q_RPC+>
0

> <Q_RPC->
0

> <Q_VSA_FHYD>
1

> <Q_VSA_FNEG>
0

> <Q_VSA_FPNEG>
0

> <Q_VSA_FPOL>
0

> <Q_VSA_FPOS>
1

> <Q_VSA_FPPOS>
0

> <Q_VSA_HYD>
403.49738

> <Q_VSA_NEG>
0

> <Q_VSA_PNEG>
0

> <Q_VSA_POL>
0

> <Q_VSA_POS>
403.49738

> <Q_VSA_PPOS>
0

> <radius>
8

> <reactive>
0

> <rings>
4

> <RPC+>
0

> <RPC->
0

> <rsynth>
1.0

> <SlogP>
5.2024999

> <SlogP_VSA0>
0.0

> <SlogP_VSA1>
6.2486277

> <SlogP_VSA2>
0.0

> <SlogP_VSA3>
92.197891

> <SlogP_VSA4>
9.5567245

> <SlogP_VSA5>
0.0

> <SlogP_VSA6>
0.0

> <SlogP_VSA7>
282.29095

> <SlogP_VSA8>
21.625153

> <SlogP_VSA9>
0.0

> <SMR>
11.8327

> <SMR_VSA0>
0.0

> <SMR_VSA1>
6.2486277

> <SMR_VSA2>
0.0

> <SMR_VSA3>
13.538693

> <SMR_VSA4>
0.0

> <SMR_VSA5>
282.29095

> <SMR_VSA6>
109.84107

> <SMR_VSA7>
0.0

> <TPSA>
6.48

> <VAdjEq>
0.39893496

> <VAdjMa>
5.9541965

> <VDistEq>
3.7160821

> <VDistMa>
9.2932987

> <vdw_area>
403.49738

> <vdw_vol>
570.25909

> <vsa_acc>
0.0

> <vsa_acid>
0

> <vsa_base>
0

> <vsa_don>
0.0

> <vsa_hyd>
383.56711

> <vsa_other>
0.0

> <vsa_pol>
0.0

> <Weight>
368.52399

> <weinerPath>
2320

> <weinerPol>
40

> <zagreb>
142

$$$$
Row1496
 OpenBabel06061811532D

 24 27  0  0  0  0  0  0  0  0999 V2000
    0.0000    0.0000    0.0000 F   0  0  0  0  0  0  0  0  0  0  0  0
    0.0000    0.0000    0.0000 C   0  0  0  0  0  0  0  0  0  0  0  0
    0.0000    0.0000    0.0000 C   0  0  0  0  0  0  0  0  0  0  0  0
    0.0000    0.0000    0.0000 C   0  0  0  0  0  0  0  0  0  0  0  0
    0.0000    0.0000    0.0000 C   0  0  0  0  0  0  0  0  0  0  0  0
    0.0000    0.0000    0.0000 N   0  0  0  0  0  0  0  0  0  0  0  0
    0.0000    0.0000    0.0000 C   0  0  0  0  0  0  0  0  0  0  0  0
    0.0000    0.0000    0.0000 C   0  0  0  0  0  0  0  0  0  0  0  0
    0.0000    0.0000    0.0000 C   0  0  0  0  0  0  0  0  0  0  0  0
    0.0000    0.0000    0.0000 O   0  0  0  0  0  0  0  0  0  0  0  0
    0.0000    0.0000    0.0000 O   0  0  0  0  0  0  0  0  0  0  0  0
    0.0000    0.0000    0.0000 C   0  0  0  0  0  0  0  0  0  0  0  0
    0.0000    0.0000    0.0000 O   0  0  0  0  0  0  0  0  0  0  0  0
    0.0000    0.0000    0.0000 C   0  0  0  0  0  0  0  0  0  0  0  0
    0.0000    0.0000    0.0000 C   0  0  0  0  0  0  0  0  0  0  0  0
    0.0000    0.0000    0.0000 C   0  0  0  0  0  0  0  0  0  0  0  0
    0.0000    0.0000    0.0000 C   0  0  0  0  0  0  0  0  0  0  0  0
    0.0000    0.0000    0.0000 C   0  0  0  0  0  0  0  0  0  0  0  0
    0.0000    0.0000    0.0000 N   0  0  0  0  0  0  0  0  0  0  0  0
    0.0000    0.0000    0.0000 C   0  0  0  0  0  0  0  0  0  0  0  0
    0.0000    0.0000    0.0000 C   0  0  0  0  0  0  0  0  0  0  0  0
    0.0000    0.0000    0.0000 N   0  0  0  0  0  0  0  0  0  0  0  0
    0.0000    0.0000    0.0000 C   0  0  0  0  0  0  0  0  0  0  0  0
    0.0000    0.0000    0.0000 C   0  0  0  0  0  0  0  0  0  0  0  0
  1  2  1  0  0  0  0
  2 18  1  0  0  0  0
  2  3  2  0  0  0  0
  3  4  1  0  0  0  0
  4 12  1  0  0  0  0
  4  5  2  0  0  0  0
  5  6  1  0  0  0  0
  5 17  1  0  0  0  0
  6  7  1  0  0  0  0
  6 14  1  0  0  0  0
  7  8  2  0  0  0  0
  8  9  1  0  0  0  0
  8 12  1  0  0  0  0
  9 10  1  0  0  0  0
  9 11  2  0  0  0  0
 12 13  2  0  0  0  0
 14 16  1  0  0  0  0
 14 15  1  0  0  0  0
 15 16  1  0  0  0  0
 17 18  2  0  0  0  0
 18 19  1  0  0  0  0
 19 24  1  0  0  0  0
 19 20  1  0  0  0  0
 20 21  1  0  0  0  0
 21 22  1  0  0  0  0
 22 23  1  0  0  0  0
 23 24  1  0  0  0  0
M  END
> <Index>
1497

> <ID>
HT0497

> <class>
1

> <apol>
48.185272

> <ast_fraglike>
0

> <ast_fraglike_ext>
0

> <ast_violation>
2

> <ast_violation_ext>
3

> <a_acc>
4

> <a_acid>
0

> <a_aro>
6

> <a_base>
0

> <a_count>
42

> <a_don>
3

> <a_donacc>
7

> <a_heavy>
24

> <a_hyd>
16

> <a_IC>
72.422035

> <a_ICM>
1.7243342

> <a_nB>
0

> <a_nBr>
0

> <a_nC>
17

> <a_nCl>
0

> <a_nF>
1

> <a_nH>
18

> <a_nI>
0

> <a_nN>
3

> <a_nO>
3

> <a_nP>
0

> <a_nS>
0

> <balabanJ>
1.5368611

> <BCUT_PEOE_0>
-2.711587

> <BCUT_PEOE_1>
-0.61865133

> <BCUT_PEOE_2>
0.65067542

> <BCUT_PEOE_3>
2.7630646

> <BCUT_SLOGP_0>
-2.8882422

> <BCUT_SLOGP_1>
-0.575463

> <BCUT_SLOGP_2>
0.6977278

> <BCUT_SLOGP_3>
2.8104618

> <BCUT_SMR_0>
-2.4146452

> <BCUT_SMR_1>
-0.44564503

> <BCUT_SMR_2>
0.7901299

> <BCUT_SMR_3>
3.0312302

> <bpol>
27.416725

> <b_1rotN>
3

> <b_1rotR>
0.11111111

> <b_ar>
6

> <b_count>
45

> <b_double>
3

> <b_heavy>
27

> <b_max1len>
2

> <b_rotN>
3

> <b_rotR>
0.11111111

> <b_single>
36

> <b_triple>
0

> <chi0>
16.84457

> <chi0v>
13.088143

> <chi0v_C>
10.052042

> <chi0_C>
10.982763

> <chi1>
11.558551

> <chi1v>
8.1338835

> <chi1v_C>
5.0098724

> <chi1_C>
6.0244045

> <chiral>
0

> <chiral_u>
0

> <density>
0.79628521

> <diameter>
11

> <FCharge>
0

> <GCUT_PEOE_0>
-0.84370434

> <GCUT_PEOE_1>
-0.46233052

> <GCUT_PEOE_2>
0.12832126

> <GCUT_PEOE_3>
2.705864

> <GCUT_SLOGP_0>
-1.1544344

> <GCUT_SLOGP_1>
-0.38754296

> <GCUT_SLOGP_2>
0.18862976

> <GCUT_SLOGP_3>
2.7424564

> <GCUT_SMR_0>
-0.50361758

> <GCUT_SMR_1>
-0.248254

> <GCUT_SMR_2>
0.21933083

> <GCUT_SMR_3>
2.9862459

> <Kier1>
17.415638

> <Kier2>
6.9575

> <Kier3>
3.1283472

> <KierA1>
13.23608

> <KierA2>
5.2199693

> <KierA3>
2.3253474

> <KierFlex>
2.8788304

> <lip_acc>
6

> <lip_don>
2

> <lip_druglike>
1

> <lip_violation>
0

> <logP(o/w)>
1.0369999

> <logS>
-2.7345901

> <mr>
8.5351715

> <mutagenic>
0

> <nmol>
1

> <opr_brigid>
20

> <opr_leadlike>
1

> <opr_nring>
4

> <opr_nrot>
5

> <opr_violation>
0

> <PC+>
0

> <PC->
0

> <PEOE_PC+>
2.0106671

> <PEOE_PC->
-2.0106671

> <PEOE_RPC+>
0.14717957

> <PEOE_RPC->
0.16281871

> <PEOE_VSA+0>
137.01929

> <PEOE_VSA+1>
19.495708

> <PEOE_VSA+2>
19.848398

> <PEOE_VSA+3>
0.0

> <PEOE_VSA+4>
18.782692

> <PEOE_VSA+5>
14.708499

> <PEOE_VSA+6>
0.0

> <PEOE_VSA-0>
41.912434

> <PEOE_VSA-1>
0.0

> <PEOE_VSA-2>
0.0

> <PEOE_VSA-3>
0.0

> <PEOE_VSA-4>
11.908636

> <PEOE_VSA-5>
27.133842

> <PEOE_VSA-6>
7.9044313

> <PEOE_VSA_FHYD>
0.73071861

> <PEOE_VSA_FNEG>
0.29747304

> <PEOE_VSA_FPNEG>
0.15716344

> <PEOE_VSA_FPOL>
0.26928139

> <PEOE_VSA_FPOS>
0.70252693

> <PEOE_VSA_FPPOS>
0.11211795

> <PEOE_VSA_HYD>
218.27583

> <PEOE_VSA_NEG>
88.859344

> <PEOE_VSA_PNEG>
46.946907

> <PEOE_VSA_POL>
80.438103

> <PEOE_VSA_POS>
209.85458

> <PEOE_VSA_PPOS>
33.491192

> <petitjean>
0.45454547

> <petitjeanSC>
0.83333331

> <Q_PC+>
0

> <Q_PC->
0

> <Q_RPC+>
0

> <Q_RPC->
0

> <Q_VSA_FHYD>
1

> <Q_VSA_FNEG>
0

> <Q_VSA_FPNEG>
0

> <Q_VSA_FPOL>
0

> <Q_VSA_FPOS>
1

> <Q_VSA_FPPOS>
0

> <Q_VSA_HYD>
298.71393

> <Q_VSA_NEG>
0

> <Q_VSA_PNEG>
0

> <Q_VSA_POL>
0

> <Q_VSA_POS>
298.71393

> <Q_VSA_PPOS>
0

> <radius>
6

> <reactive>
0

> <rings>
4

> <RPC+>
0

> <RPC->
0

> <rsynth>
1.0

> <SlogP>
1.3688999

> <SlogP_VSA0>
24.259378

> <SlogP_VSA1>
13.433075

> <SlogP_VSA2>
36.965202

> <SlogP_VSA3>
99.143539

> <SlogP_VSA4>
27.047791

> <SlogP_VSA5>
3.185575

> <SlogP_VSA6>
0.0

> <SlogP_VSA7>
52.500725

> <SlogP_VSA8>
37.736813

> <SlogP_VSA9>
20.473608

> <SMR>
8.7033005

> <SMR_VSA0>
47.724434

> <SMR_VSA1>
14.960114

> <SMR_VSA2>
58.765621

> <SMR_VSA3>
10.353119

> <SMR_VSA4>
5.513495

> <SMR_VSA5>
90.237534

> <SMR_VSA6>
87.191391

> <SMR_VSA7>
0.0

> <TPSA>
72.879997

> <VAdjEq>
0.44886449

> <VAdjMa>
5.7548876

> <VDistEq>
3.1700883

> <VDistMa>
8.9040213

> <vdw_area>
298.71393

> <vdw_vol>
416.11597

> <vsa_acc>
13.566921

> <vsa_acid>
0

> <vsa_base>
0

> <vsa_don>
0.0

> <vsa_hyd>
210.17673

> <vsa_other>
23.167019

> <vsa_pol>
46.383339

> <Weight>
331.34698

> <weinerPath>
1234

> <weinerPol>
43

> <zagreb>
134

$$$$
Row1497
 OpenBabel06061811532D

 67 69  0  0  1  0  0  0  0  0999 V2000
    0.0000    0.0000    0.0000 O   0  0  0  0  0  0  0  0  0  0  0  0
    0.0000    0.0000    0.0000 C   0  0  2  0  0  0  0  0  0  0  0  0
    0.0000    0.0000    0.0000 H   0  0  0  0  0  0  0  0  0  0  0  0
    0.0000    0.0000    0.0000 C   0  0  0  0  0  0  0  0  0  0  0  0
    0.0000    0.0000    0.0000 C   0  0  0  0  0  0  0  0  0  0  0  0
    0.0000    0.0000    0.0000 C   0  0  1  0  0  0  0  0  0  0  0  0
    0.0000    0.0000    0.0000 O   0  0  0  0  0  0  0  0  0  0  0  0
    0.0000    0.0000    0.0000 C   0  0  0  0  0  0  0  0  0  0  0  0
    0.0000    0.0000    0.0000 C   0  0  2  0  0  0  0  0  0  0  0  0
    0.0000    0.0000    0.0000 H   0  0  0  0  0  0  0  0  0  0  0  0
    0.0000    0.0000    0.0000 O   0  0  0  0  0  0  0  0  0  0  0  0
    0.0000    0.0000    0.0000 C   0  0  1  0  0  0  0  0  0  0  0  0
    0.0000    0.0000    0.0000 H   0  0  0  0  0  0  0  0  0  0  0  0
    0.0000    0.0000    0.0000 C   0  0  0  0  0  0  0  0  0  0  0  0
    0.0000    0.0000    0.0000 C   0  0  0  0  0  0  0  0  0  0  0  0
    0.0000    0.0000    0.0000 O   0  0  0  0  0  0  0  0  0  0  0  0
    0.0000    0.0000    0.0000 C   0  0  1  0  0  0  0  0  0  0  0  0
    0.0000    0.0000    0.0000 H   0  0  0  0  0  0  0  0  0  0  0  0
    0.0000    0.0000    0.0000 C   0  0  0  0  0  0  0  0  0  0  0  0
    0.0000    0.0000    0.0000 C   0  0  1  0  0  0  0  0  0  0  0  0
    0.0000    0.0000    0.0000 O   0  0  0  0  0  0  0  0  0  0  0  0
    0.0000    0.0000    0.0000 C   0  0  0  0  0  0  0  0  0  0  0  0
    0.0000    0.0000    0.0000 C   0  0  0  0  0  0  0  0  0  0  0  0
    0.0000    0.0000    0.0000 C   0  0  1  0  0  0  0  0  0  0  0  0
    0.0000    0.0000    0.0000 H   0  0  0  0  0  0  0  0  0  0  0  0
    0.0000    0.0000    0.0000 O   0  0  0  0  0  0  0  0  0  0  0  0
    0.0000    0.0000    0.0000 C   0  0  2  0  0  0  0  0  0  0  0  0
    0.0000    0.0000    0.0000 H   0  0  0  0  0  0  0  0  0  0  0  0
    0.0000    0.0000    0.0000 O   0  0  0  0  0  0  0  0  0  0  0  0
    0.0000    0.0000    0.0000 C   0  0  1  0  0  0  0  0  0  0  0  0
    0.0000    0.0000    0.0000 H   0  0  0  0  0  0  0  0  0  0  0  0
    0.0000    0.0000    0.0000 C   0  0  0  0  0  0  0  0  0  0  0  0
    0.0000    0.0000    0.0000 C   0  0  2  0  0  0  0  0  0  0  0  0
    0.0000    0.0000    0.0000 H   0  0  0  0  0  0  0  0  0  0  0  0
    0.0000    0.0000    0.0000 N   0  0  0  0  0  0  0  0  0  0  0  0
    0.0000    0.0000    0.0000 C   0  0  0  0  0  0  0  0  0  0  0  0
    0.0000    0.0000    0.0000 C   0  0  0  0  0  0  0  0  0  0  0  0
    0.0000    0.0000    0.0000 C   0  0  1  0  0  0  0  0  0  0  0  0
    0.0000    0.0000    0.0000 H   0  0  0  0  0  0  0  0  0  0  0  0
    0.0000    0.0000    0.0000 O   0  0  0  0  0  0  0  0  0  0  0  0
    0.0000    0.0000    0.0000 C   0  0  0  0  0  0  0  0  0  0  0  0
    0.0000    0.0000    0.0000 C   0  0  1  0  0  0  0  0  0  0  0  0
    0.0000    0.0000    0.0000 H   0  0  0  0  0  0  0  0  0  0  0  0
    0.0000    0.0000    0.0000 C   0  0  0  0  0  0  0  0  0  0  0  0
    0.0000    0.0000    0.0000 C   0  0  2  0  0  0  0  0  0  0  0  0
    0.0000    0.0000    0.0000 H   0  0  0  0  0  0  0  0  0  0  0  0
    0.0000    0.0000    0.0000 O   0  0  0  0  0  0  0  0  0  0  0  0
    0.0000    0.0000    0.0000 C   0  0  2  0  0  0  0  0  0  0  0  0
    0.0000    0.0000    0.0000 H   0  0  0  0  0  0  0  0  0  0  0  0
    0.0000    0.0000    0.0000 O   0  0  0  0  0  0  0  0  0  0  0  0
    0.0000    0.0000    0.0000 C   0  0  1  0  0  0  0  0  0  0  0  0
    0.0000    0.0000    0.0000 H   0  0  0  0  0  0  0  0  0  0  0  0
    0.0000    0.0000    0.0000 C   0  0  0  0  0  0  0  0  0  0  0  0
    0.0000    0.0000    0.0000 C   0  0  2  0  0  0  0  0  0  0  0  0
    0.0000    0.0000    0.0000 H   0  0  0  0  0  0  0  0  0  0  0  0
    0.0000    0.0000    0.0000 O   0  0  0  0  0  0  0  0  0  0  0  0
    0.0000    0.0000    0.0000 C   0  0  1  0  0  0  0  0  0  0  0  0
    0.0000    0.0000    0.0000 O   0  0  0  0  0  0  0  0  0  0  0  0
    0.0000    0.0000    0.0000 C   0  0  0  0  0  0  0  0  0  0  0  0
    0.0000    0.0000    0.0000 C   0  0  0  0  0  0  0  0  0  0  0  0
    0.0000    0.0000    0.0000 C   0  0  0  0  0  0  0  0  0  0  0  0
    0.0000    0.0000    0.0000 C   0  0  1  0  0  0  0  0  0  0  0  0
    0.0000    0.0000    0.0000 H   0  0  0  0  0  0  0  0  0  0  0  0
    0.0000    0.0000    0.0000 C   0  0  0  0  0  0  0  0  0  0  0  0
    0.0000    0.0000    0.0000 C   0  0  0  0  0  0  0  0  0  0  0  0
    0.0000    0.0000    0.0000 O   0  0  0  0  0  0  0  0  0  0  0  0
    0.0000    0.0000    0.0000 C   0  0  0  0  0  0  0  0  0  0  0  0
  1 65  1  0  0  0  0
  1  2  1  0  0  0  0
  2  3  1  0  0  0  0
  2  4  1  0  0  0  0
  2  6  1  0  0  0  0
  4  5  1  0  0  0  0
  6  7  1  0  0  0  0
  6  8  1  0  0  0  0
  6  9  1  0  0  0  0
  9 10  1  0  0  0  0
  9 11  1  0  0  0  0
  9 12  1  0  0  0  0
 12 13  1  0  0  0  0
 12 14  1  0  0  0  0
 12 15  1  0  0  0  0
 15 16  2  0  0  0  0
 15 17  1  0  0  0  0
 17 18  1  0  0  0  0
 17 19  1  0  0  0  0
 17 67  1  0  0  0  0
 19 20  1  0  0  0  0
 20 21  1  0  0  0  0
 20 23  1  0  0  0  0
 20 24  1  0  0  0  0
 21 22  1  0  0  0  0
 24 25  1  0  0  0  0
 24 26  1  0  0  0  0
 24 42  1  0  0  0  0
 26 27  1  0  0  0  0
 27 28  1  0  0  0  0
 27 38  1  0  0  0  0
 27 29  1  0  0  0  0
 29 30  1  0  0  0  0
 30 31  1  0  0  0  0
 30 32  1  0  0  0  0
 30 41  1  0  0  0  0
 32 33  1  0  0  0  0
 33 34  1  0  0  0  0
 33 35  1  0  0  0  0
 33 38  1  0  0  0  0
 35 36  1  0  0  0  0
 35 37  1  0  0  0  0
 38 39  1  0  0  0  0
 38 40  1  0  0  0  0
 42 43  1  0  0  0  0
 42 44  1  0  0  0  0
 42 45  1  0  0  0  0
 45 46  1  0  0  0  0
 45 47  1  0  0  0  0
 45 62  1  0  0  0  0
 47 48  1  0  0  0  0
 48 49  1  0  0  0  0
 48 60  1  0  0  0  0
 48 50  1  0  0  0  0
 50 51  1  0  0  0  0
 51 52  1  0  0  0  0
 51 53  1  0  0  0  0
 51 54  1  0  0  0  0
 54 55  1  0  0  0  0
 54 56  1  0  0  0  0
 54 57  1  0  0  0  0
 57 58  1  0  0  0  0
 57 60  1  0  0  0  0
 57 61  1  0  0  0  0
 58 59  1  0  0  0  0
 62 63  1  0  0  0  0
 62 64  1  0  0  0  0
 62 65  1  0  0  0  0
 65 66  2  0  0  0  0
M  END
> <Index>
1498

> <ID>
HT0504

> <class>
1

> <apol>
124.41472

> <ast_fraglike>
0

> <ast_fraglike_ext>
0

> <ast_violation>
3

> <ast_violation_ext>
5

> <a_acc>
13

> <a_acid>
0

> <a_aro>
0

> <a_base>
0

> <a_count>
121

> <a_don>
4

> <a_donacc>
17

> <a_heavy>
52

> <a_hyd>
34

> <a_IC>
168.1673

> <a_ICM>
1.3898125

> <a_nB>
0

> <a_nBr>
0

> <a_nC>
38

> <a_nCl>
0

> <a_nF>
0

> <a_nH>
69

> <a_nI>
0

> <a_nN>
1

> <a_nO>
13

> <a_nP>
0

> <a_nS>
0

> <balabanJ>
2.2121906

> <BCUT_PEOE_0>
-2.8196146

> <BCUT_PEOE_1>
-0.4350872

> <BCUT_PEOE_2>
0.31272385

> <BCUT_PEOE_3>
2.8435957

> <BCUT_SLOGP_0>
-2.9128621

> <BCUT_SLOGP_1>
-0.38756916

> <BCUT_SLOGP_2>
0.32279649

> <BCUT_SLOGP_3>
2.7787206

> <BCUT_SMR_0>
-2.5954459

> <BCUT_SMR_1>
-0.26175544

> <BCUT_SMR_2>
0.4891513

> <BCUT_SMR_3>
3.0582118

> <bpol>
92.739281

> <b_1rotN>
8

> <b_1rotR>
0.14814815

> <b_ar>
0

> <b_count>
123

> <b_double>
2

> <b_heavy>
54

> <b_max1len>
5

> <b_rotN>
8

> <b_rotR>
0.14814815

> <b_single>
121

> <b_triple>
0

> <chi0>
39.670479

> <chi0v>
33.898983

> <chi0v_C>
27.988682

> <chi0_C>
28.143381

> <chi1>
23.986179

> <chi1v>
18.882883

> <chi1v_C>
12.773616

> <chi1_C>
12.907591

> <chiral>
18

> <chiral_u>
0

> <density>
0.72653437

> <diameter>
14

> <FCharge>
0

> <GCUT_PEOE_0>
-0.85631603

> <GCUT_PEOE_1>
-0.32661736

> <GCUT_PEOE_2>
-0.083474942

> <GCUT_PEOE_3>
3.570291

> <GCUT_SLOGP_0>
-0.9631409

> <GCUT_SLOGP_1>
-0.32363093

> <GCUT_SLOGP_2>
-0.037

> <GCUT_SLOGP_3>
3.5442231

> <GCUT_SMR_0>
-0.53469998

> <GCUT_SMR_1>
-0.20048891

> <GCUT_SMR_2>
0.07443057

> <GCUT_SMR_3>
3.7702613

> <Kier1>
46.382717

> <Kier2>
18.507767

> <Kier3>
10.123967

> <KierA1>
44.775112

> <KierA2>
17.853701

> <KierA3>
9.7614403

> <KierFlex>
15.373104

> <lip_acc>
14

> <lip_don>
4

> <lip_druglike>
0

> <lip_violation>
2

> <logP(o/w)>
3.1247399

> <logS>
-3.9065599

> <mr>
19.261175

> <mutagenic>
0

> <nmol>
1

> <opr_brigid>
26

> <opr_leadlike>
0

> <opr_nring>
2

> <opr_nrot>
25

> <opr_violation>
3

> <PC+>
0

> <PC->
0

> <PEOE_PC+>
5.3695073

> <PEOE_PC->
-5.3695073

> <PEOE_RPC+>
0.049883626

> <PEOE_RPC->
0.072293691

> <PEOE_VSA+0>
270.8465

> <PEOE_VSA+1>
97.675751

> <PEOE_VSA+2>
18.268377

> <PEOE_VSA+3>
22.309816

> <PEOE_VSA+4>
41.296692

> <PEOE_VSA+5>
14.708499

> <PEOE_VSA+6>
0.0

> <PEOE_VSA-0>
166.3197

> <PEOE_VSA-1>
93.738388

> <PEOE_VSA-2>
0.0

> <PEOE_VSA-3>
0.0

> <PEOE_VSA-4>
0.0

> <PEOE_VSA-5>
27.133842

> <PEOE_VSA-6>
48.596455

> <PEOE_VSA_FHYD>
0.83551449

> <PEOE_VSA_FNEG>
0.41926694

> <PEOE_VSA_FPNEG>
0.094557196

> <PEOE_VSA_FPOL>
0.16448554

> <PEOE_VSA_FPOS>
0.58073306

> <PEOE_VSA_FPPOS>
0.069928341

> <PEOE_VSA_HYD>
669.15857

> <PEOE_VSA_NEG>
335.78839

> <PEOE_VSA_PNEG>
75.730293

> <PEOE_VSA_POL>
131.73549

> <PEOE_VSA_POS>
465.10562

> <PEOE_VSA_PPOS>
56.005188

> <petitjean>
0.42857143

> <petitjeanSC>
0.75

> <Q_PC+>
0

> <Q_PC->
0

> <Q_RPC+>
0

> <Q_RPC->
0

> <Q_VSA_FHYD>
1

> <Q_VSA_FNEG>
0

> <Q_VSA_FPNEG>
0

> <Q_VSA_FPOL>
0

> <Q_VSA_FPOS>
1

> <Q_VSA_FPPOS>
0

> <Q_VSA_HYD>
800.89404

> <Q_VSA_NEG>
0

> <Q_VSA_PNEG>
0

> <Q_VSA_POL>
0

> <Q_VSA_POS>
800.89404

> <Q_VSA_PPOS>
0

> <radius>
8

> <reactive>
1

> <rings>
3

> <RPC+>
0

> <RPC->
0

> <rsynth>
0.46153846

> <SlogP>
2.4396999

> <SlogP_VSA0>
101.54091

> <SlogP_VSA1>
16.557388

> <SlogP_VSA2>
197.50781

> <SlogP_VSA3>
0.0

> <SlogP_VSA4>
17.643185

> <SlogP_VSA5>
136.56212

> <SlogP_VSA6>
0.0

> <SlogP_VSA7>
0.0

> <SlogP_VSA8>
75.473625

> <SlogP_VSA9>
333.26016

> <SMR>
19.10482

> <SMR_VSA0>
124.72365

> <SMR_VSA1>
104.66522

> <SMR_VSA2>
17.643185

> <SMR_VSA3>
72.784164

> <SMR_VSA4>
0.0

> <SMR_VSA5>
75.473625

> <SMR_VSA6>
13.433075

> <SMR_VSA7>
469.82227

> <TPSA>
182.91

> <VAdjEq>
0.24202083

> <VAdjMa>
6.7548876

> <VDistEq>
3.6708479

> <VDistMa>
11.196647

> <vdw_area>
800.89404

> <vdw_vol>
1029.4957

> <vsa_acc>
42.15638

> <vsa_acid>
0

> <vsa_base>
0

> <vsa_don>
0.0

> <vsa_hyd>
579.63611

> <vsa_other>
55.087772

> <vsa_pol>
96.424065

> <Weight>
747.96399

> <weinerPath>
9201

> <weinerPol>
104

> <zagreb>
274

$$$$
Row1498
 OpenBabel06061811532D

 25 27  0  0  1  0  0  0  0  0999 V2000
    0.0000    0.0000    0.0000 Cl  0  0  0  0  0  0  0  0  0  0  0  0
    0.0000    0.0000    0.0000 C   0  0  0  0  0  0  0  0  0  0  0  0
    0.0000    0.0000    0.0000 C   0  0  0  0  0  0  0  0  0  0  0  0
    0.0000    0.0000    0.0000 C   0  0  0  0  0  0  0  0  0  0  0  0
    0.0000    0.0000    0.0000 C   0  0  0  0  0  0  0  0  0  0  0  0
    0.0000    0.0000    0.0000 C   0  0  0  0  0  0  0  0  0  0  0  0
    0.0000    0.0000    0.0000 C   0  0  0  0  0  0  0  0  0  0  0  0
    0.0000    0.0000    0.0000 C   0  0  1  0  0  0  0  0  0  0  0  0
    0.0000    0.0000    0.0000 O   0  0  0  0  0  0  0  0  0  0  0  0
    0.0000    0.0000    0.0000 C   0  0  0  0  0  0  0  0  0  0  0  0
    0.0000    0.0000    0.0000 C   0  0  0  0  0  0  0  0  0  0  0  0
    0.0000    0.0000    0.0000 C   0  0  2  0  0  0  0  0  0  0  0  0
    0.0000    0.0000    0.0000 H   0  0  0  0  0  0  0  0  0  0  0  0
    0.0000    0.0000    0.0000 N   0  0  0  0  0  0  0  0  0  0  0  0
    0.0000    0.0000    0.0000 C   0  0  0  0  0  0  0  0  0  0  0  0
    0.0000    0.0000    0.0000 C   0  0  0  0  0  0  0  0  0  0  0  0
    0.0000    0.0000    0.0000 C   0  0  0  0  0  0  0  0  0  0  0  0
    0.0000    0.0000    0.0000 C   0  0  0  0  0  0  0  0  0  0  0  0
    0.0000    0.0000    0.0000 C   0  0  0  0  0  0  0  0  0  0  0  0
    0.0000    0.0000    0.0000 C   0  0  0  0  0  0  0  0  0  0  0  0
    0.0000    0.0000    0.0000 C   0  0  0  0  0  0  0  0  0  0  0  0
    0.0000    0.0000    0.0000 C   0  0  0  0  0  0  0  0  0  0  0  0
    0.0000    0.0000    0.0000 C   0  0  0  0  0  0  0  0  0  0  0  0
    0.0000    0.0000    0.0000 C   0  0  0  0  0  0  0  0  0  0  0  0
    0.0000    0.0000    0.0000 C   0  0  0  0  0  0  0  0  0  0  0  0
  1  2  1  0  0  0  0
  2  7  1  0  0  0  0
  2  3  2  0  0  0  0
  3  4  1  0  0  0  0
  4  5  2  0  0  0  0
  5  6  1  0  0  0  0
  5  8  1  0  0  0  0
  6  7  2  0  0  0  0
  8  9  1  0  0  0  0
  8 19  1  0  0  0  0
  8 20  1  0  0  0  0
  9 10  1  0  0  0  0
 10 11  1  0  0  0  0
 11 12  1  0  0  0  0
 12 13  1  0  0  0  0
 12 17  1  0  0  0  0
 12 14  1  0  0  0  0
 14 15  1  0  0  0  0
 14 18  1  0  0  0  0
 15 16  1  0  0  0  0
 16 17  1  0  0  0  0
 20 25  1  0  0  0  0
 20 21  2  0  0  0  0
 21 22  1  0  0  0  0
 22 23  2  0  0  0  0
 23 24  1  0  0  0  0
 24 25  2  0  0  0  0
M  END
> <Index>
1499

> <ID>
HT0506

> <class>
1

> <apol>
58.378616

> <ast_fraglike>
0

> <ast_fraglike_ext>
0

> <ast_violation>
2

> <ast_violation_ext>
3

> <a_acc>
2

> <a_acid>
0

> <a_aro>
12

> <a_base>
0

> <a_count>
50

> <a_don>
0

> <a_donacc>
2

> <a_heavy>
24

> <a_hyd>
22

> <a_IC>
67.742714

> <a_ICM>
1.3548542

> <a_nB>
0

> <a_nBr>
0

> <a_nC>
21

> <a_nCl>
1

> <a_nF>
0

> <a_nH>
26

> <a_nI>
0

> <a_nN>
1

> <a_nO>
1

> <a_nP>
0

> <a_nS>
0

> <balabanJ>
1.6012168

> <BCUT_PEOE_0>
-2.6596086

> <BCUT_PEOE_1>
-0.61350811

> <BCUT_PEOE_2>
0.65760815

> <BCUT_PEOE_3>
2.7410312

> <BCUT_SLOGP_0>
-2.6906886

> <BCUT_SLOGP_1>
-0.4956373

> <BCUT_SLOGP_2>
0.79239452

> <BCUT_SLOGP_3>
2.7597601

> <BCUT_SMR_0>
-2.4003649

> <BCUT_SMR_1>
-0.46115631

> <BCUT_SMR_2>
0.84692323

> <BCUT_SMR_3>
3.0037918

> <bpol>
32.739384

> <b_1rotN>
6

> <b_1rotR>
0.23076923

> <b_ar>
12

> <b_count>
52

> <b_double>
0

> <b_heavy>
26

> <b_max1len>
7

> <b_rotN>
6

> <b_rotR>
0.23076923

> <b_single>
40

> <b_triple>
0

> <chi0>
16.993353

> <chi0v>
15.298392

> <chi0v_C>
13.309036

> <chi0_C>
14.708896

> <chi1>
11.593172

> <chi1v>
9.1299334

> <chi1v_C>
7.0485473

> <chi1_C>
8.8433371

> <chiral>
2

> <chiral_u>
0

> <density>
0.69568425

> <diameter>
11

> <FCharge>
0

> <GCUT_PEOE_0>
-0.86418897

> <GCUT_PEOE_1>
-0.38221142

> <GCUT_PEOE_2>
0.071376324

> <GCUT_PEOE_3>
2.7911296

> <GCUT_SLOGP_0>
-0.95917696

> <GCUT_SLOGP_1>
-0.25695014

> <GCUT_SLOGP_2>
0.1639111

> <GCUT_SLOGP_3>
2.8885069

> <GCUT_SMR_0>
-0.52844614

> <GCUT_SMR_1>
-0.20364757

> <GCUT_SMR_2>
0.19305076

> <GCUT_SMR_3>
3.0457463

> <Kier1>
18.781065

> <Kier2>
8.5895061

> <Kier3>
4.6011772

> <KierA1>
16.238113

> <KierA2>
7.3769846

> <KierA3>
3.9326828

> <KierFlex>
4.9911799

> <lip_acc>
2

> <lip_don>
0

> <lip_druglike>
1

> <lip_violation>
1

> <logP(o/w)>
5.8759999

> <logS>
-4.9825201

> <mr>
10.180373

> <mutagenic>
0

> <nmol>
1

> <opr_brigid>
17

> <opr_leadlike>
1

> <opr_nring>
3

> <opr_nrot>
7

> <opr_violation>
1

> <PC+>
0

> <PC->
0

> <PEOE_PC+>
1.3931105

> <PEOE_PC->
-1.3931105

> <PEOE_RPC+>
0.083617583

> <PEOE_RPC->
0.26152429

> <PEOE_VSA+0>
71.6465

> <PEOE_VSA+1>
61.870541

> <PEOE_VSA+2>
0.0

> <PEOE_VSA+3>
0.0

> <PEOE_VSA+4>
0.0

> <PEOE_VSA+5>
0.0

> <PEOE_VSA+6>
0.0

> <PEOE_VSA-0>
110.20952

> <PEOE_VSA-1>
115.36627

> <PEOE_VSA-2>
0.0

> <PEOE_VSA-3>
0.0

> <PEOE_VSA-4>
0.0

> <PEOE_VSA-5>
0.0

> <PEOE_VSA-6>
2.503756

> <PEOE_VSA_FHYD>
0.99307585

> <PEOE_VSA_FNEG>
0.63075691

> <PEOE_VSA_FPNEG>
0.0069241696

> <PEOE_VSA_FPOL>
0.0069241696

> <PEOE_VSA_FPOS>
0.36924309

> <PEOE_VSA_FPPOS>
0.0

> <PEOE_VSA_HYD>
359.09283

> <PEOE_VSA_NEG>
228.07954

> <PEOE_VSA_PNEG>
2.503756

> <PEOE_VSA_POL>
2.503756

> <PEOE_VSA_POS>
133.51703

> <PEOE_VSA_PPOS>
0.0

> <petitjean>
0.45454547

> <petitjeanSC>
0.83333331

> <Q_PC+>
0

> <Q_PC->
0

> <Q_RPC+>
0

> <Q_RPC->
0

> <Q_VSA_FHYD>
1

> <Q_VSA_FNEG>
0

> <Q_VSA_FPNEG>
0

> <Q_VSA_FPOL>
0

> <Q_VSA_FPOS>
1

> <Q_VSA_FPPOS>
0

> <Q_VSA_HYD>
361.59659

> <Q_VSA_NEG>
0

> <Q_VSA_PNEG>
0

> <Q_VSA_POL>
0

> <Q_VSA_POS>
361.59659

> <Q_VSA_PPOS>
0

> <radius>
6

> <reactive>
0

> <rings>
3

> <RPC+>
0

> <RPC->
0

> <rsynth>
0.0

> <SlogP>
5.4159002

> <SlogP_VSA0>
0.0

> <SlogP_VSA1>
3.1243138

> <SlogP_VSA2>
14.981856

> <SlogP_VSA3>
39.365837

> <SlogP_VSA4>
6.37115

> <SlogP_VSA5>
32.897186

> <SlogP_VSA6>
3.5006065

> <SlogP_VSA7>
158.78867

> <SlogP_VSA8>
56.605217

> <SlogP_VSA9>
72.474655

> <SMR>
10.0686

> <SMR_VSA0>
10.999887

> <SMR_VSA1>
3.1243138

> <SMR_VSA2>
0.0

> <SMR_VSA3>
13.853725

> <SMR_VSA4>
0.0

> <SMR_VSA5>
215.39388

> <SMR_VSA6>
39.365837

> <SMR_VSA7>
105.37185

> <TPSA>
12.47

> <VAdjEq>
0.43739632

> <VAdjMa>
5.7004399

> <VDistEq>
3.2952471

> <VDistMa>
8.8921604

> <vdw_area>
361.59659

> <vdw_vol>
494.33057

> <vsa_acc>
2.503756

> <vsa_acid>
0

> <vsa_base>
0

> <vsa_don>
0.0

> <vsa_hyd>
340.58615

> <vsa_other>
0.0

> <vsa_pol>
2.503756

> <Weight>
343.89798

> <weinerPath>
1362

> <weinerPol>
36

> <zagreb>
124

$$$$
Row1499
 OpenBabel06061811532D

 25 27  0  0  0  0  0  0  0  0999 V2000
    0.0000    0.0000    0.0000 Cl  0  0  0  0  0  0  0  0  0  0  0  0
    0.0000    0.0000    0.0000 C   0  0  0  0  0  0  0  0  0  0  0  0
    0.0000    0.0000    0.0000 C   0  0  0  0  0  0  0  0  0  0  0  0
    0.0000    0.0000    0.0000 C   0  0  0  0  0  0  0  0  0  0  0  0
    0.0000    0.0000    0.0000 C   0  0  0  0  0  0  0  0  0  0  0  0
    0.0000    0.0000    0.0000 C   0  0  0  0  0  0  0  0  0  0  0  0
    0.0000    0.0000    0.0000 C   0  0  0  0  0  0  0  0  0  0  0  0
    0.0000    0.0000    0.0000 C   0  0  0  0  0  0  0  0  0  0  0  0
    0.0000    0.0000    0.0000 O   0  0  0  0  0  0  0  0  0  0  0  0
    0.0000    0.0000    0.0000 C   0  0  0  0  0  0  0  0  0  0  0  0
    0.0000    0.0000    0.0000 C   0  0  0  0  0  0  0  0  0  0  0  0
    0.0000    0.0000    0.0000 C   0  0  0  0  0  0  0  0  0  0  0  0
    0.0000    0.0000    0.0000 N   0  0  0  0  0  0  0  0  0  0  0  0
    0.0000    0.0000    0.0000 C   0  0  0  0  0  0  0  0  0  0  0  0
    0.0000    0.0000    0.0000 C   0  0  0  0  0  0  0  0  0  0  0  0
    0.0000    0.0000    0.0000 O   0  0  0  0  0  0  0  0  0  0  0  0
    0.0000    0.0000    0.0000 O   0  0  0  0  0  0  0  0  0  0  0  0
    0.0000    0.0000    0.0000 C   0  0  0  0  0  0  0  0  0  0  0  0
    0.0000    0.0000    0.0000 C   0  0  0  0  0  0  0  0  0  0  0  0
    0.0000    0.0000    0.0000 C   0  0  0  0  0  0  0  0  0  0  0  0
    0.0000    0.0000    0.0000 C   0  0  0  0  0  0  0  0  0  0  0  0
    0.0000    0.0000    0.0000 O   0  0  0  0  0  0  0  0  0  0  0  0
    0.0000    0.0000    0.0000 C   0  0  0  0  0  0  0  0  0  0  0  0
    0.0000    0.0000    0.0000 C   0  0  0  0  0  0  0  0  0  0  0  0
    0.0000    0.0000    0.0000 C   0  0  0  0  0  0  0  0  0  0  0  0
  1  2  1  0  0  0  0
  2  7  1  0  0  0  0
  2  3  2  0  0  0  0
  3  4  1  0  0  0  0
  4  5  2  0  0  0  0
  5  6  1  0  0  0  0
  5  8  1  0  0  0  0
  6  7  2  0  0  0  0
  8  9  2  0  0  0  0
  8 10  1  0  0  0  0
 10 18  2  0  0  0  0
 10 11  1  0  0  0  0
 11 25  1  0  0  0  0
 11 12  2  0  0  0  0
 12 13  1  0  0  0  0
 12 20  1  0  0  0  0
 13 14  1  0  0  0  0
 13 18  1  0  0  0  0
 14 15  1  0  0  0  0
 15 16  1  0  0  0  0
 15 17  2  0  0  0  0
 18 19  1  0  0  0  0
 20 21  2  0  0  0  0
 21 22  1  0  0  0  0
 21 24  1  0  0  0  0
 22 23  1  0  0  0  0
 24 25  2  0  0  0  0
M  END
> <Index>
1500

> <ID>
HT0525

> <class>
1

> <apol>
50.596687

> <ast_fraglike>
0

> <ast_fraglike_ext>
0

> <ast_violation>
3

> <ast_violation_ext>
4

> <a_acc>
4

> <a_acid>
0

> <a_aro>
15

> <a_base>
0

> <a_count>
41

> <a_don>
2

> <a_donacc>
6

> <a_heavy>
25

> <a_hyd>
18

> <a_IC>
66.949013

> <a_ICM>
1.6329026

> <a_nB>
0

> <a_nBr>
0

> <a_nC>
19

> <a_nCl>
1

> <a_nF>
0

> <a_nH>
16

> <a_nI>
0

> <a_nN>
1

> <a_nO>
4

> <a_nP>
0

> <a_nS>
0

> <balabanJ>
1.7643075

> <BCUT_PEOE_0>
-2.3312781

> <BCUT_PEOE_1>
-0.58240265

> <BCUT_PEOE_2>
0.52464926

> <BCUT_PEOE_3>
2.3994911

> <BCUT_SLOGP_0>
-2.3195114

> <BCUT_SLOGP_1>
-0.50843108

> <BCUT_SLOGP_2>
0.70943964

> <BCUT_SLOGP_3>
2.4827228

> <BCUT_SMR_0>
-2.0543182

> <BCUT_SMR_1>
-0.34226885

> <BCUT_SMR_2>
0.8057943

> <BCUT_SMR_3>
2.7005479

> <bpol>
23.723312

> <b_1rotN>
5

> <b_1rotR>
0.18518518

> <b_ar>
16

> <b_count>
43

> <b_double>
2

> <b_heavy>
27

> <b_max1len>
2

> <b_rotN>
5

> <b_rotR>
0.18518518

> <b_single>
25

> <b_triple>
0

> <chi0>
18.137465

> <chi0v>
14.501624

> <chi0v_C>
11.248559

> <chi0_C>
12.853006

> <chi1>
11.917923

> <chi1v>
7.9875703

> <chi1v_C>
5.4129543

> <chi1_C>
7.4182515

> <chiral>
0

> <chiral_u>
0

> <density>
0.79430062

> <diameter>
12

> <FCharge>
0

> <GCUT_PEOE_0>
-0.84967631

> <GCUT_PEOE_1>
-0.43392083

> <GCUT_PEOE_2>
0.054774497

> <GCUT_PEOE_3>
2.6134498

> <GCUT_SLOGP_0>
-0.88694584

> <GCUT_SLOGP_1>
-0.33437008

> <GCUT_SLOGP_2>
0.14816029

> <GCUT_SLOGP_3>
2.7279117

> <GCUT_SMR_0>
-0.48446968

> <GCUT_SMR_1>
-0.21028565

> <GCUT_SMR_2>
0.20946263

> <GCUT_SMR_3>
2.9184771

> <Kier1>
19.753086

> <Kier2>
8.3471403

> <Kier3>
4.1352797

> <KierA1>
14.996656

> <KierA2>
6.2590914

> <KierA3>
3.0720692

> <KierFlex>
3.7546179

> <lip_acc>
5

> <lip_don>
1

> <lip_druglike>
1

> <lip_violation>
0

> <logP(o/w)>
4.5250001

> <logS>
-4.7354999

> <mr>
9.6378918

> <mutagenic>
0

> <nmol>
1

> <opr_brigid>
16

> <opr_leadlike>
1

> <opr_nring>
3

> <opr_nrot>
5

> <opr_violation>
0

> <PC+>
0

> <PC->
0

> <PEOE_PC+>
1.9407821

> <PEOE_PC->
-1.9407821

> <PEOE_RPC+>
0.14402378

> <PEOE_RPC->
0.17922954

> <PEOE_VSA+0>
53.430191

> <PEOE_VSA+1>
68.551239

> <PEOE_VSA+2>
13.192325

> <PEOE_VSA+3>
8.458519

> <PEOE_VSA+4>
10.324173

> <PEOE_VSA+5>
14.708499

> <PEOE_VSA+6>
0.0

> <PEOE_VSA-0>
104.53201

> <PEOE_VSA-1>
29.581947

> <PEOE_VSA-2>
0.0

> <PEOE_VSA-3>
0.0

> <PEOE_VSA-4>
0.0

> <PEOE_VSA-5>
27.133842

> <PEOE_VSA-6>
10.271297

> <PEOE_VSA_FHYD>
0.81645876

> <PEOE_VSA_FNEG>
0.50419497

> <PEOE_VSA_FPNEG>
0.10995559

> <PEOE_VSA_FPOL>
0.18354127

> <PEOE_VSA_FPOS>
0.495805

> <PEOE_VSA_FPPOS>
0.073585674

> <PEOE_VSA_HYD>
277.74622

> <PEOE_VSA_NEG>
171.51909

> <PEOE_VSA_PNEG>
37.40514

> <PEOE_VSA_POL>
62.437809

> <PEOE_VSA_POS>
168.66495

> <PEOE_VSA_PPOS>
25.032671

> <petitjean>
0.5

> <petitjeanSC>
1.0

> <Q_PC+>
0

> <Q_PC->
0

> <Q_RPC+>
0

> <Q_RPC->
0

> <Q_VSA_FHYD>
1

> <Q_VSA_FNEG>
0

> <Q_VSA_FPNEG>
0

> <Q_VSA_FPOL>
0

> <Q_VSA_FPOS>
1

> <Q_VSA_FPPOS>
0

> <Q_VSA_HYD>
340.18405

> <Q_VSA_NEG>
0

> <Q_VSA_PNEG>
0

> <Q_VSA_POL>
0

> <Q_VSA_POS>
340.18405

> <Q_VSA_PPOS>
0

> <radius>
6

> <reactive>
1

> <rings>
3

> <RPC+>
0

> <RPC->
0

> <rsynth>
1.0

> <SlogP>
4.1937199

> <SlogP_VSA0>
10.999887

> <SlogP_VSA1>
15.332168

> <SlogP_VSA2>
23.862217

> <SlogP_VSA3>
25.385227

> <SlogP_VSA4>
32.990112

> <SlogP_VSA5>
35.383869

> <SlogP_VSA6>
3.5006065

> <SlogP_VSA7>
128.21939

> <SlogP_VSA8>
0.0

> <SlogP_VSA9>
96.157661

> <SMR>
9.5952301

> <SMR_VSA0>
47.724434

> <SMR_VSA1>
12.898981

> <SMR_VSA2>
25.385227

> <SMR_VSA3>
17.871933

> <SMR_VSA4>
4.7171016

> <SMR_VSA5>
141.94186

> <SMR_VSA6>
13.433075

> <SMR_VSA7>
107.85853

> <TPSA>
68.529999

> <VAdjEq>
0.42433795

> <VAdjMa>
5.7548876

> <VDistEq>
3.2664471

> <VDistMa>
9.0199146

> <vdw_area>
340.18405

> <vdw_vol>
450.45035

> <vsa_acc>
16.070677

> <vsa_acid>
0

> <vsa_base>
0

> <vsa_don>
0.0

> <vsa_hyd>
258.61078

> <vsa_other>
23.167019

> <vsa_pol>
43.204517

> <Weight>
357.793

> <weinerPath>
1424

> <weinerPol>
42

> <zagreb>
132

$$$$
Row1500
 OpenBabel06061811532D

  9  9  0  0  0  0  0  0  0  0999 V2000
    0.0000    0.0000    0.0000 Cl  0  0  0  0  0  0  0  0  0  0  0  0
    0.0000    0.0000    0.0000 C   0  0  0  0  0  0  0  0  0  0  0  0
    0.0000    0.0000    0.0000 C   0  0  0  0  0  0  0  0  0  0  0  0
    0.0000    0.0000    0.0000 C   0  0  0  0  0  0  0  0  0  0  0  0
    0.0000    0.0000    0.0000 S   0  0  0  0  0  0  0  0  0  0  0  0
    0.0000    0.0000    0.0000 C   0  0  0  0  0  0  0  0  0  0  0  0
    0.0000    0.0000    0.0000 N   0  0  0  0  0  0  0  0  0  0  0  0
    0.0000    0.0000    0.0000 C   0  0  0  0  0  0  0  0  0  0  0  0
    0.0000    0.0000    0.0000 C   0  0  0  0  0  0  0  0  0  0  0  0
  1  2  1  0  0  0  0
  2  3  1  0  0  0  0
  3  4  1  0  0  0  0
  4  8  2  0  0  0  0
  4  5  1  0  0  0  0
  5  6  1  0  0  0  0
  6  7  2  0  0  0  0
  7  8  1  0  0  0  0
  8  9  1  0  0  0  0
M  END
> <Index>
1501

> <ID>
HT0526

> <class>
1

> <apol>
22.074345

> <ast_fraglike>
1

> <ast_fraglike_ext>
1

> <ast_violation>
0

> <ast_violation_ext>
0

> <a_acc>
1

> <a_acid>
0

> <a_aro>
5

> <a_base>
0

> <a_count>
17

> <a_don>
0

> <a_donacc>
1

> <a_heavy>
9

> <a_hyd>
8

> <a_IC>
29.977093

> <a_ICM>
1.7633585

> <a_nB>
0

> <a_nBr>
0

> <a_nC>
6

> <a_nCl>
1

> <a_nF>
0

> <a_nH>
8

> <a_nI>
0

> <a_nN>
1

> <a_nO>
0

> <a_nP>
0

> <a_nS>
1

> <balabanJ>
2.264153

> <BCUT_PEOE_0>
-2.3871813

> <BCUT_PEOE_1>
-0.18014833

> <BCUT_PEOE_2>
0.30529201

> <BCUT_PEOE_3>
2.3939943

> <BCUT_SLOGP_0>
-2.3710611

> <BCUT_SLOGP_1>
-0.050480057

> <BCUT_SLOGP_2>
0.57978481

> <BCUT_SLOGP_3>
2.4622009

> <BCUT_SMR_0>
-2.1239395

> <BCUT_SMR_1>
0.039090179

> <BCUT_SMR_2>
0.70734066

> <BCUT_SMR_3>
2.6798172

> <bpol>
12.765656

> <b_1rotN>
2

> <b_1rotR>
0.22222222

> <b_ar>
5

> <b_count>
17

> <b_double>
0

> <b_heavy>
9

> <b_max1len>
3

> <b_rotN>
2

> <b_rotR>
0.22222222

> <b_single>
12

> <b_triple>
0

> <chi0>
6.6902347

> <chi0v>
6.7974157

> <chi0v_C>
3.9915638

> <chi0_C>
4.276021

> <chi1>
4.342535

> <chi1v>
4.2066221

> <chi1v_C>
1.6035534

> <chi1_C>
1.8189319

> <chiral>
0

> <chiral_u>
0

> <density>
0.85775489

> <diameter>
5

> <FCharge>
0

> <GCUT_PEOE_0>
-0.78065306

> <GCUT_PEOE_1>
-0.28112766

> <GCUT_PEOE_2>
-0.057984512

> <GCUT_PEOE_3>
2.0408618

> <GCUT_SLOGP_0>
-0.80003327

> <GCUT_SLOGP_1>
-0.15307835

> <GCUT_SLOGP_2>
0.20163734

> <GCUT_SLOGP_3>
2.1724868

> <GCUT_SMR_0>
-0.49261266

> <GCUT_SMR_1>
-0.05927885

> <GCUT_SMR_2>
0.28041169

> <GCUT_SMR_3>
2.3448486

> <Kier1>
7.1111112

> <Kier2>
3.2396693

> <Kier3>
1.704142

> <KierA1>
8.1768351

> <KierA2>
3.7954297

> <KierA3>
2.0322661

> <KierFlex>
3.4482892

> <lip_acc>
1

> <lip_don>
0

> <lip_druglike>
1

> <lip_violation>
0

> <logP(o/w)>
1.308

> <logS>
-1.52113

> <mr>
4.3244333

> <mutagenic>
1

> <nmol>
1

> <opr_brigid>
5

> <opr_leadlike>
1

> <opr_nring>
1

> <opr_nrot>
2

> <opr_violation>
0

> <PC+>
0

> <PC->
0

> <PEOE_PC+>
0.53778106

> <PEOE_PC->
-0.53778106

> <PEOE_RPC+>
0.32473251

> <PEOE_RPC->
0.50611573

> <PEOE_VSA+0>
47.569775

> <PEOE_VSA+1>
4.2653861

> <PEOE_VSA+2>
0.0

> <PEOE_VSA+3>
19.760618

> <PEOE_VSA+4>
0.0

> <PEOE_VSA+5>
0.0

> <PEOE_VSA+6>
0.0

> <PEOE_VSA-0>
46.170967

> <PEOE_VSA-1>
4.1846013

> <PEOE_VSA-2>
29.581947

> <PEOE_VSA-3>
0.0

> <PEOE_VSA-4>
0.0

> <PEOE_VSA-5>
5.6825762

> <PEOE_VSA-6>
0.0

> <PEOE_VSA_FHYD>
0.96385497

> <PEOE_VSA_FNEG>
0.5446021

> <PEOE_VSA_FPNEG>
0.036145054

> <PEOE_VSA_FPOL>
0.036145054

> <PEOE_VSA_FPOS>
0.4553979

> <PEOE_VSA_FPPOS>
0.0

> <PEOE_VSA_HYD>
151.53329

> <PEOE_VSA_NEG>
85.620094

> <PEOE_VSA_PNEG>
5.6825762

> <PEOE_VSA_POL>
5.6825762

> <PEOE_VSA_POS>
71.595779

> <PEOE_VSA_PPOS>
0.0

> <petitjean>
0.40000001

> <petitjeanSC>
0.66666669

> <Q_PC+>
0

> <Q_PC->
0

> <Q_RPC+>
0

> <Q_RPC->
0

> <Q_VSA_FHYD>
1

> <Q_VSA_FNEG>
0

> <Q_VSA_FPNEG>
0

> <Q_VSA_FPOL>
0

> <Q_VSA_FPOS>
1

> <Q_VSA_FPPOS>
0

> <Q_VSA_HYD>
157.21587

> <Q_VSA_NEG>
0

> <Q_VSA_PNEG>
0

> <Q_VSA_POL>
0

> <Q_VSA_POS>
157.21587

> <Q_VSA_PPOS>
0

> <radius>
3

> <reactive>
1

> <rings>
1

> <RPC+>
0

> <RPC->
0

> <rsynth>
1.0

> <SlogP>
2.23279

> <SlogP_VSA0>
0.0

> <SlogP_VSA1>
16.78553

> <SlogP_VSA2>
0.0

> <SlogP_VSA3>
19.183437

> <SlogP_VSA4>
4.115149

> <SlogP_VSA5>
18.868406

> <SlogP_VSA6>
0.0

> <SlogP_VSA7>
15.387183

> <SlogP_VSA8>
0.0

> <SlogP_VSA9>
103.75235

> <SMR>
4.1275001

> <SMR_VSA0>
0.0

> <SMR_VSA1>
16.78553

> <SMR_VSA2>
0.0

> <SMR_VSA3>
4.115149

> <SMR_VSA4>
0.0

> <SMR_VSA5>
34.255589

> <SMR_VSA6>
19.183437

> <SMR_VSA7>
103.75235

> <TPSA>
12.89

> <VAdjEq>
0.7642045

> <VAdjMa>
4.1699252

> <VDistEq>
2.1991584

> <VDistMa>
5.9933195

> <vdw_area>
157.21587

> <vdw_vol>
188.4641

> <vsa_acc>
5.6825762

> <vsa_acid>
0

> <vsa_base>
0

> <vsa_don>
0.0

> <vsa_hyd>
145.83893

> <vsa_other>
0.0

> <vsa_pol>
5.6825762

> <Weight>
161.65601

> <weinerPath>
90

> <weinerPol>
8

> <zagreb>
40

$$$$
Row1501
 OpenBabel06061811532D

 22 24  0  0  0  0  0  0  0  0999 V2000
    0.0000    0.0000    0.0000 Cl  0  0  0  0  0  0  0  0  0  0  0  0
    0.0000    0.0000    0.0000 C   0  0  0  0  0  0  0  0  0  0  0  0
    0.0000    0.0000    0.0000 C   0  0  0  0  0  0  0  0  0  0  0  0
    0.0000    0.0000    0.0000 C   0  0  0  0  0  0  0  0  0  0  0  0
    0.0000    0.0000    0.0000 N   0  0  0  0  0  0  0  0  0  0  0  0
    0.0000    0.0000    0.0000 C   0  0  0  0  0  0  0  0  0  0  0  0
    0.0000    0.0000    0.0000 C   0  0  0  0  0  0  0  0  0  0  0  0
    0.0000    0.0000    0.0000 C   0  0  0  0  0  0  0  0  0  0  0  0
    0.0000    0.0000    0.0000 C   0  0  0  0  0  0  0  0  0  0  0  0
    0.0000    0.0000    0.0000 C   0  0  0  0  0  0  0  0  0  0  0  0
    0.0000    0.0000    0.0000 C   0  0  0  0  0  0  0  0  0  0  0  0
    0.0000    0.0000    0.0000 C   0  0  0  0  0  0  0  0  0  0  0  0
    0.0000    0.0000    0.0000 C   0  0  0  0  0  0  0  0  0  0  0  0
    0.0000    0.0000    0.0000 C   0  0  0  0  0  0  0  0  0  0  0  0
    0.0000    0.0000    0.0000 C   0  0  0  0  0  0  0  0  0  0  0  0
    0.0000    0.0000    0.0000 C   0  0  0  0  0  0  0  0  0  0  0  0
    0.0000    0.0000    0.0000 C   0  0  0  0  0  0  0  0  0  0  0  0
    0.0000    0.0000    0.0000 C   0  0  0  0  0  0  0  0  0  0  0  0
    0.0000    0.0000    0.0000 C   0  0  0  0  0  0  0  0  0  0  0  0
    0.0000    0.0000    0.0000 N   0  0  0  0  0  0  0  0  0  0  0  0
    0.0000    0.0000    0.0000 C   0  0  0  0  0  0  0  0  0  0  0  0
    0.0000    0.0000    0.0000 C   0  0  0  0  0  0  0  0  0  0  0  0
  1  2  1  0  0  0  0
  2 12  1  0  0  0  0
  2  3  2  0  0  0  0
  3  4  1  0  0  0  0
  4 10  2  0  0  0  0
  4  5  1  0  0  0  0
  5  6  1  0  0  0  0
  5 17  1  0  0  0  0
  6 16  1  0  0  0  0
  6  7  2  0  0  0  0
  7  8  1  0  0  0  0
  7 13  1  0  0  0  0
  8  9  1  0  0  0  0
  9 10  1  0  0  0  0
 10 11  1  0  0  0  0
 11 12  2  0  0  0  0
 13 14  2  0  0  0  0
 14 15  1  0  0  0  0
 15 16  2  0  0  0  0
 17 18  1  0  0  0  0
 18 19  1  0  0  0  0
 19 20  1  0  0  0  0
 20 21  1  0  0  0  0
 20 22  1  0  0  0  0
M  END
> <Index>
1502

> <ID>
HT0528

> <class>
1

> <apol>
53.156239

> <ast_fraglike>
0

> <ast_fraglike_ext>
0

> <ast_violation>
2

> <ast_violation_ext>
3

> <a_acc>
1

> <a_acid>
0

> <a_aro>
12

> <a_base>
0

> <a_count>
45

> <a_don>
0

> <a_donacc>
1

> <a_heavy>
22

> <a_hyd>
20

> <a_IC>
60.38084

> <a_ICM>
1.3417965

> <a_nB>
0

> <a_nBr>
0

> <a_nC>
19

> <a_nCl>
1

> <a_nF>
0

> <a_nH>
23

> <a_nI>
0

> <a_nN>
2

> <a_nO>
0

> <a_nP>
0

> <a_nS>
0

> <balabanJ>
1.7356168

> <BCUT_PEOE_0>
-2.6547892

> <BCUT_PEOE_1>
-0.53415555

> <BCUT_PEOE_2>
0.56860411

> <BCUT_PEOE_3>
2.5754583

> <BCUT_SLOGP_0>
-2.7068558

> <BCUT_SLOGP_1>
-0.31041312

> <BCUT_SLOGP_2>
0.72438359

> <BCUT_SLOGP_3>
2.6203678

> <BCUT_SMR_0>
-2.3725932

> <BCUT_SMR_1>
-0.29945865

> <BCUT_SMR_2>
0.77172452

> <BCUT_SMR_3>
2.8664877

> <bpol>
29.523762

> <b_1rotN>
4

> <b_1rotR>
0.16666667

> <b_ar>
12

> <b_count>
47

> <b_double>
0

> <b_heavy>
24

> <b_max1len>
6

> <b_rotN>
4

> <b_rotR>
0.16666667

> <b_single>
35

> <b_triple>
0

> <chi0>
15.526733

> <chi0v>
14.105307

> <chi0v_C>
12.076985

> <chi0_C>
13.372033

> <chi1>
10.647867

> <chi1v>
8.3135338

> <chi1v_C>
5.772491

> <chi1_C>
7.432653

> <chiral>
0

> <chiral_u>
0

> <density>
0.69549471

> <diameter>
9

> <FCharge>
0

> <GCUT_PEOE_0>
-0.86400598

> <GCUT_PEOE_1>
-0.34832489

> <GCUT_PEOE_2>
0.026484685

> <GCUT_PEOE_3>
2.7565777

> <GCUT_SLOGP_0>
-0.95430404

> <GCUT_SLOGP_1>
-0.25274178

> <GCUT_SLOGP_2>
0.1459523

> <GCUT_SLOGP_3>
2.875767

> <GCUT_SMR_0>
-0.51978445

> <GCUT_SMR_1>
-0.14949962

> <GCUT_SMR_2>
0.17359771

> <GCUT_SMR_3>
3.0496616

> <Kier1>
16.84375

> <Kier2>
7.7134986

> <Kier3>
4.1103301

> <KierA1>
14.001141

> <KierA2>
6.3517461

> <KierA3>
3.3616736

> <KierFlex>
4.0423498

> <lip_acc>
2

> <lip_don>
0

> <lip_druglike>
1

> <lip_violation>
0

> <logP(o/w)>
4.7329998

> <logS>
-4.1890001

> <mr>
9.3597517

> <mutagenic>
0

> <nmol>
1

> <opr_brigid>
17

> <opr_leadlike>
1

> <opr_nring>
3

> <opr_nrot>
4

> <opr_violation>
1

> <PC+>
0

> <PC->
0

> <PEOE_PC+>
1.1357398

> <PEOE_PC->
-1.1357398

> <PEOE_RPC+>
0.057051163

> <PEOE_RPC->
0.27145353

> <PEOE_VSA+0>
99.357353

> <PEOE_VSA+1>
29.857702

> <PEOE_VSA+2>
0.0

> <PEOE_VSA+3>
0.0

> <PEOE_VSA+4>
0.0

> <PEOE_VSA+5>
0.0

> <PEOE_VSA+6>
0.0

> <PEOE_VSA-0>
126.95544

> <PEOE_VSA-1>
78.601562

> <PEOE_VSA-2>
0.0

> <PEOE_VSA-3>
0.0

> <PEOE_VSA-4>
0.0

> <PEOE_VSA-5>
0.0

> <PEOE_VSA-6>
0.0

> <PEOE_VSA_FHYD>
1.0

> <PEOE_VSA_FNEG>
0.61402076

> <PEOE_VSA_FPNEG>
0.0

> <PEOE_VSA_FPOL>
0.0

> <PEOE_VSA_FPOS>
0.38597921

> <PEOE_VSA_FPPOS>
0.0

> <PEOE_VSA_HYD>
334.77203

> <PEOE_VSA_NEG>
205.55699

> <PEOE_VSA_PNEG>
0.0

> <PEOE_VSA_POL>
0.0

> <PEOE_VSA_POS>
129.21506

> <PEOE_VSA_PPOS>
0.0

> <petitjean>
0.44444445

> <petitjeanSC>
0.80000001

> <Q_PC+>
0

> <Q_PC->
0

> <Q_RPC+>
0

> <Q_RPC->
0

> <Q_VSA_FHYD>
1

> <Q_VSA_FNEG>
0

> <Q_VSA_FPNEG>
0

> <Q_VSA_FPOL>
0

> <Q_VSA_FPOS>
1

> <Q_VSA_FPPOS>
0

> <Q_VSA_HYD>
334.77203

> <Q_VSA_NEG>
0

> <Q_VSA_PNEG>
0

> <Q_VSA_POL>
0

> <Q_VSA_POS>
334.77203

> <Q_VSA_PPOS>
0

> <radius>
5

> <reactive>
0

> <rings>
3

> <RPC+>
0

> <RPC->
0

> <rsynth>
1.0

> <SlogP>
4.5283399

> <SlogP_VSA0>
3.1243138

> <SlogP_VSA1>
3.1243138

> <SlogP_VSA2>
0.0

> <SlogP_VSA3>
36.879158

> <SlogP_VSA4>
6.37115

> <SlogP_VSA5>
103.53119

> <SlogP_VSA6>
3.5006065

> <SlogP_VSA7>
123.50229

> <SlogP_VSA8>
18.868406

> <SlogP_VSA9>
44.66214

> <SMR>
9.5479002

> <SMR_VSA0>
0.0

> <SMR_VSA1>
3.1243138

> <SMR_VSA2>
3.1243138

> <SMR_VSA3>
9.8717566

> <SMR_VSA4>
5.513495

> <SMR_VSA5>
180.10751

> <SMR_VSA6>
36.879158

> <SMR_VSA7>
104.94302

> <TPSA>
6.48

> <VAdjEq>
0.46637034

> <VAdjMa>
5.5849624

> <VDistEq>
3.0542302

> <VDistMa>
8.6553249

> <vdw_area>
334.77203

> <vdw_vol>
452.71371

> <vsa_acc>
0.0

> <vsa_acid>
0

> <vsa_base>
0

> <vsa_don>
0.0

> <vsa_hyd>
318.40076

> <vsa_other>
0.0

> <vsa_pol>
0.0

> <Weight>
314.85999

> <weinerPath>
995

> <weinerPol>
37

> <zagreb>
114

$$$$
Row1502
 OpenBabel06061811532D

 22 24  0  0  1  0  0  0  0  0999 V2000
    0.0000    0.0000    0.0000 Cl  0  0  0  0  0  0  0  0  0  0  0  0
    0.0000    0.0000    0.0000 C   0  0  0  0  0  0  0  0  0  0  0  0
    0.0000    0.0000    0.0000 C   0  0  0  0  0  0  0  0  0  0  0  0
    0.0000    0.0000    0.0000 C   0  0  0  0  0  0  0  0  0  0  0  0
    0.0000    0.0000    0.0000 C   0  0  0  0  0  0  0  0  0  0  0  0
    0.0000    0.0000    0.0000 C   0  0  0  0  0  0  0  0  0  0  0  0
    0.0000    0.0000    0.0000 C   0  0  0  0  0  0  0  0  0  0  0  0
    0.0000    0.0000    0.0000 C   0  0  2  0  0  0  0  0  0  0  0  0
    0.0000    0.0000    0.0000 H   0  0  0  0  0  0  0  0  0  0  0  0
    0.0000    0.0000    0.0000 N   0  0  0  0  0  0  0  0  0  0  0  0
    0.0000    0.0000    0.0000 C   0  0  0  0  0  0  0  0  0  0  0  0
    0.0000    0.0000    0.0000 C   0  0  0  0  0  0  0  0  0  0  0  0
    0.0000    0.0000    0.0000 C   0  0  0  0  0  0  0  0  0  0  0  0
    0.0000    0.0000    0.0000 S   0  0  0  0  0  0  0  0  0  0  0  0
    0.0000    0.0000    0.0000 C   0  0  0  0  0  0  0  0  0  0  0  0
    0.0000    0.0000    0.0000 C   0  0  0  0  0  0  0  0  0  0  0  0
    0.0000    0.0000    0.0000 C   0  0  0  0  0  0  0  0  0  0  0  0
    0.0000    0.0000    0.0000 C   0  0  0  0  0  0  0  0  0  0  0  0
    0.0000    0.0000    0.0000 C   0  0  0  0  0  0  0  0  0  0  0  0
    0.0000    0.0000    0.0000 O   0  0  0  0  0  0  0  0  0  0  0  0
    0.0000    0.0000    0.0000 C   0  0  0  0  0  0  0  0  0  0  0  0
    0.0000    0.0000    0.0000 O   0  0  0  0  0  0  0  0  0  0  0  0
  1  2  1  0  0  0  0
  2  7  1  0  0  0  0
  2  3  2  0  0  0  0
  3  4  1  0  0  0  0
  4  5  2  0  0  0  0
  5  6  1  0  0  0  0
  6  7  2  0  0  0  0
  7  8  1  0  0  0  0
  8  9  1  0  0  0  0
  8 10  1  0  0  0  0
  8 19  1  0  0  0  0
 10 18  1  0  0  0  0
 10 11  1  0  0  0  0
 11 12  1  0  0  0  0
 12 13  1  0  0  0  0
 13 17  2  0  0  0  0
 13 14  1  0  0  0  0
 14 15  1  0  0  0  0
 15 16  2  0  0  0  0
 16 17  1  0  0  0  0
 17 18  1  0  0  0  0
 19 20  1  0  0  0  0
 19 22  2  0  0  0  0
 20 21  1  0  0  0  0
M  END
> <Index>
1503

> <ID>
HT0532

> <class>
1

> <apol>
46.612686

> <ast_fraglike>
0

> <ast_fraglike_ext>
0

> <ast_violation>
2

> <ast_violation_ext>
3

> <a_acc>
2

> <a_acid>
0

> <a_aro>
11

> <a_base>
0

> <a_count>
37

> <a_don>
0

> <a_donacc>
2

> <a_heavy>
21

> <a_hyd>
17

> <a_IC>
62.749775

> <a_ICM>
1.6959399

> <a_nB>
0

> <a_nBr>
0

> <a_nC>
16

> <a_nCl>
1

> <a_nF>
0

> <a_nH>
16

> <a_nI>
0

> <a_nN>
1

> <a_nO>
2

> <a_nP>
0

> <a_nS>
1

> <balabanJ>
1.7256789

> <BCUT_PEOE_0>
-2.6598797

> <BCUT_PEOE_1>
-0.51333517

> <BCUT_PEOE_2>
0.64146584

> <BCUT_PEOE_3>
2.6141462

> <BCUT_SLOGP_0>
-2.659992

> <BCUT_SLOGP_1>
-0.39094839

> <BCUT_SLOGP_2>
0.76301336

> <BCUT_SLOGP_3>
2.660027

> <BCUT_SMR_0>
-2.377732

> <BCUT_SMR_1>
-0.3612237

> <BCUT_SMR_2>
0.88373071

> <BCUT_SMR_3>
2.8947248

> <bpol>
25.045313

> <b_1rotN>
3

> <b_1rotR>
0.13043478

> <b_ar>
11

> <b_count>
39

> <b_double>
1

> <b_heavy>
23

> <b_max1len>
2

> <b_rotN>
4

> <b_rotR>
0.17391305

> <b_single>
27

> <b_triple>
0

> <chi0>
14.819627

> <chi0v>
13.285121

> <chi0v_C>
9.6627722

> <chi0_C>
10.828063

> <chi1>
10.202708

> <chi1v>
8.0773926

> <chi1v_C>
4.4838157

> <chi1_C>
5.8745747

> <chiral>
1

> <chiral_u>
0

> <density>
0.80126858

> <diameter>
9

> <FCharge>
0

> <GCUT_PEOE_0>
-0.82787472

> <GCUT_PEOE_1>
-0.40461487

> <GCUT_PEOE_2>
0.058939107

> <GCUT_PEOE_3>
2.6357307

> <GCUT_SLOGP_0>
-0.89291918

> <GCUT_SLOGP_1>
-0.25316527

> <GCUT_SLOGP_2>
0.14200214

> <GCUT_SLOGP_3>
2.7324035

> <GCUT_SMR_0>
-0.50954735

> <GCUT_SMR_1>
-0.16530216

> <GCUT_SMR_2>
0.255988

> <GCUT_SMR_3>
2.9171076

> <Kier1>
15.879017

> <Kier2>
7.0507812

> <Kier3>
3.3471074

> <KierA1>
14.416512

> <KierA2>
6.3688869

> <KierA3>
3.0116258

> <KierFlex>
4.3722448

> <lip_acc>
3

> <lip_don>
0

> <lip_druglike>
1

> <lip_violation>
0

> <logP(o/w)>
3.6589999

> <logS>
-4.1572299

> <mr>
8.8113232

> <mutagenic>
0

> <nmol>
1

> <opr_brigid>
16

> <opr_leadlike>
1

> <opr_nring>
3

> <opr_nrot>
4

> <opr_violation>
0

> <PC+>
0

> <PC->
0

> <PEOE_PC+>
1.5084181

> <PEOE_PC->
-1.5084181

> <PEOE_RPC+>
0.18818334

> <PEOE_RPC->
0.21021111

> <PEOE_VSA+0>
85.759758

> <PEOE_VSA+1>
38.388474

> <PEOE_VSA+2>
3.1459606

> <PEOE_VSA+3>
19.760618

> <PEOE_VSA+4>
0.0

> <PEOE_VSA+5>
14.708499

> <PEOE_VSA+6>
0.0

> <PEOE_VSA-0>
25.373297

> <PEOE_VSA-1>
82.786163

> <PEOE_VSA-2>
14.230966

> <PEOE_VSA-3>
0.0

> <PEOE_VSA-4>
0.0

> <PEOE_VSA-5>
13.566921

> <PEOE_VSA-6>
2.503756

> <PEOE_VSA_FHYD>
0.89747941

> <PEOE_VSA_FNEG>
0.46119201

> <PEOE_VSA_FPNEG>
0.053528883

> <PEOE_VSA_FPOL>
0.10252056

> <PEOE_VSA_FPOS>
0.53880799

> <PEOE_VSA_FPPOS>
0.048991684

> <PEOE_VSA_HYD>
269.44522

> <PEOE_VSA_NEG>
138.46111

> <PEOE_VSA_PNEG>
16.070677

> <PEOE_VSA_POL>
30.779177

> <PEOE_VSA_POS>
161.76331

> <PEOE_VSA_PPOS>
14.708499

> <petitjean>
0.44444445

> <petitjeanSC>
0.80000001

> <Q_PC+>
0

> <Q_PC->
0

> <Q_RPC+>
0

> <Q_RPC->
0

> <Q_VSA_FHYD>
1

> <Q_VSA_FNEG>
0

> <Q_VSA_FPNEG>
0

> <Q_VSA_FPOL>
0

> <Q_VSA_FPOS>
1

> <Q_VSA_FPPOS>
0

> <Q_VSA_HYD>
300.2244

> <Q_VSA_NEG>
0

> <Q_VSA_PNEG>
0

> <Q_VSA_POL>
0

> <Q_VSA_POS>
300.2244

> <Q_VSA_PPOS>
0

> <radius>
5

> <reactive>
0

> <rings>
3

> <RPC+>
0

> <RPC->
0

> <rsynth>
1.0

> <SlogP>
4.0357699

> <SlogP_VSA0>
0.0

> <SlogP_VSA1>
10.869778

> <SlogP_VSA2>
34.862103

> <SlogP_VSA3>
18.439579

> <SlogP_VSA4>
7.7295513

> <SlogP_VSA5>
54.252274

> <SlogP_VSA6>
3.5006065

> <SlogP_VSA7>
104.03193

> <SlogP_VSA8>
3.9819686

> <SlogP_VSA9>
88.865913

> <SMR>
8.4958

> <SMR_VSA0>
34.862103

> <SMR_VSA1>
3.1243138

> <SMR_VSA2>
0.0

> <SMR_VSA3>
15.212127

> <SMR_VSA4>
0.0

> <SMR_VSA5>
141.33992

> <SMR_VSA6>
26.185041

> <SMR_VSA7>
105.8102

> <TPSA>
29.540001

> <VAdjEq>
0.48250595

> <VAdjMa>
5.523562

> <VDistEq>
2.9770131

> <VDistMa>
8.525032

> <vdw_area>
300.2244

> <vdw_vol>
401.6481

> <vsa_acc>
13.566921

> <vsa_acid>
0

> <vsa_base>
0

> <vsa_don>
0.0

> <vsa_hyd>
258.05652

> <vsa_other>
17.212255

> <vsa_pol>
13.566921

> <Weight>
321.828

> <weinerPath>
867

> <weinerPol>
33

> <zagreb>
110

$$$$
Row1503
 OpenBabel06061811532D

 32 35  0  0  1  0  0  0  0  0999 V2000
    0.0000    0.0000    0.0000 Cl  0  0  0  0  0  0  0  0  0  0  0  0
    0.0000    0.0000    0.0000 C   0  0  0  0  0  0  0  0  0  0  0  0
    0.0000    0.0000    0.0000 C   0  0  0  0  0  0  0  0  0  0  0  0
    0.0000    0.0000    0.0000 C   0  0  0  0  0  0  0  0  0  0  0  0
    0.0000    0.0000    0.0000 C   0  0  0  0  0  0  0  0  0  0  0  0
    0.0000    0.0000    0.0000 C   0  0  0  0  0  0  0  0  0  0  0  0
    0.0000    0.0000    0.0000 C   0  0  0  0  0  0  0  0  0  0  0  0
    0.0000    0.0000    0.0000 C   0  0  0  0  0  0  0  0  0  0  0  0
    0.0000    0.0000    0.0000 N   0  0  0  0  0  0  0  0  0  0  0  0
    0.0000    0.0000    0.0000 O   0  0  0  0  0  0  0  0  0  0  0  0
    0.0000    0.0000    0.0000 C   0  0  0  0  0  0  0  0  0  0  0  0
    0.0000    0.0000    0.0000 C   0  0  0  0  0  0  0  0  0  0  0  0
    0.0000    0.0000    0.0000 C   0  0  0  0  0  0  0  0  0  0  0  0
    0.0000    0.0000    0.0000 C   0  0  0  0  0  0  0  0  0  0  0  0
    0.0000    0.0000    0.0000 O   0  0  0  0  0  0  0  0  0  0  0  0
    0.0000    0.0000    0.0000 N   0  0  0  0  0  0  0  0  0  0  0  0
    0.0000    0.0000    0.0000 C   0  0  1  0  0  0  0  0  0  0  0  0
    0.0000    0.0000    0.0000 H   0  0  0  0  0  0  0  0  0  0  0  0
    0.0000    0.0000    0.0000 C   0  0  1  0  0  0  0  0  0  0  0  0
    0.0000    0.0000    0.0000 H   0  0  0  0  0  0  0  0  0  0  0  0
    0.0000    0.0000    0.0000 S   0  0  0  0  0  0  0  0  0  0  0  0
    0.0000    0.0000    0.0000 C   0  0  0  0  0  0  0  0  0  0  0  0
    0.0000    0.0000    0.0000 C   0  0  0  0  0  0  0  0  0  0  0  0
    0.0000    0.0000    0.0000 C   0  0  0  0  0  0  0  0  0  0  0  0
    0.0000    0.0000    0.0000 C   0  0  1  0  0  0  0  0  0  0  0  0
    0.0000    0.0000    0.0000 H   0  0  0  0  0  0  0  0  0  0  0  0
    0.0000    0.0000    0.0000 N   0  0  0  0  0  0  0  0  0  0  0  0
    0.0000    0.0000    0.0000 C   0  0  0  0  0  0  0  0  0  0  0  0
    0.0000    0.0000    0.0000 O   0  0  0  0  0  0  0  0  0  0  0  0
    0.0000    0.0000    0.0000 C   0  0  0  0  0  0  0  0  0  0  0  0
    0.0000    0.0000    0.0000 O   0  0  0  0  0  0  0  0  0  0  0  0
    0.0000    0.0000    0.0000 O   0  0  0  0  0  0  0  0  0  0  0  0
  1  2  1  0  0  0  0
  2  7  1  0  0  0  0
  2  3  2  0  0  0  0
  3  4  1  0  0  0  0
  4  5  2  0  0  0  0
  5  6  1  0  0  0  0
  6  7  2  0  0  0  0
  7  8  1  0  0  0  0
  8 13  1  0  0  0  0
  8  9  2  0  0  0  0
  9 10  1  0  0  0  0
 10 11  1  0  0  0  0
 11 12  1  0  0  0  0
 11 13  2  0  0  0  0
 13 14  1  0  0  0  0
 14 15  2  0  0  0  0
 14 16  1  0  0  0  0
 16 17  1  0  0  0  0
 17 18  1  0  0  0  0
 17 28  1  0  0  0  0
 17 19  1  0  0  0  0
 19 20  1  0  0  0  0
 19 27  1  0  0  0  0
 19 21  1  0  0  0  0
 21 22  1  0  0  0  0
 22 23  1  0  0  0  0
 22 24  1  0  0  0  0
 22 25  1  0  0  0  0
 25 26  1  0  0  0  0
 25 27  1  0  0  0  0
 25 30  1  0  0  0  0
 27 28  1  0  0  0  0
 28 29  2  0  0  0  0
 30 31  1  0  0  0  0
 30 32  2  0  0  0  0
M  END
> <Index>
1504

> <ID>
HT0538

> <class>
1

> <apol>
57.832275

> <ast_fraglike>
0

> <ast_fraglike_ext>
0

> <ast_violation>
2

> <ast_violation_ext>
4

> <a_acc>
5

> <a_acid>
0

> <a_aro>
11

> <a_base>
0

> <a_count>
47

> <a_don>
3

> <a_donacc>
8

> <a_heavy>
29

> <a_hyd>
17

> <a_IC>
88.931877

> <a_ICM>
1.8921676

> <a_nB>
0

> <a_nBr>
0

> <a_nC>
19

> <a_nCl>
1

> <a_nF>
0

> <a_nH>
18

> <a_nI>
0

> <a_nN>
3

> <a_nO>
5

> <a_nP>
0

> <a_nS>
1

> <balabanJ>
1.4448136

> <BCUT_PEOE_0>
-2.6399934

> <BCUT_PEOE_1>
-0.54077262

> <BCUT_PEOE_2>
0.55411822

> <BCUT_PEOE_3>
2.849396

> <BCUT_SLOGP_0>
-2.895009

> <BCUT_SLOGP_1>
-0.46048698

> <BCUT_SLOGP_2>
0.64035869

> <BCUT_SLOGP_3>
2.7542505

> <BCUT_SMR_0>
-2.3874595

> <BCUT_SMR_1>
-0.35852671

> <BCUT_SMR_2>
0.75594407

> <BCUT_SMR_3>
3.130357

> <bpol>
29.807726

> <b_1rotN>
4

> <b_1rotR>
0.125

> <b_ar>
11

> <b_count>
50

> <b_double>
3

> <b_heavy>
32

> <b_max1len>
4

> <b_rotN>
5

> <b_rotR>
0.15625

> <b_single>
36

> <b_triple>
0

> <chi0>
21.085058

> <chi0v>
17.374723

> <chi0v_C>
11.541451

> <chi0_C>
12.67928

> <chi1>
13.630734

> <chi1v>
10.138099

> <chi1v_C>
5.5267091

> <chi1_C>
6.8491888

> <chiral>
3

> <chiral_u>
0

> <density>
0.86755961

> <diameter>
13

> <FCharge>
0

> <GCUT_PEOE_0>
-0.83719581

> <GCUT_PEOE_1>
-0.40156853

> <GCUT_PEOE_2>
0.06291566

> <GCUT_PEOE_3>
2.7319076

> <GCUT_SLOGP_0>
-1.1640171

> <GCUT_SLOGP_1>
-0.37250987

> <GCUT_SLOGP_2>
0.14278683

> <GCUT_SLOGP_3>
2.7088592

> <GCUT_SMR_0>
-0.53651923

> <GCUT_SMR_1>
-0.20017767

> <GCUT_SMR_2>
0.22588532

> <GCUT_SMR_3>
3.0003276

> <Kier1>
22.203125

> <Kier2>
8.1647997

> <Kier3>
3.7548106

> <KierA1>
18.95619

> <KierA2>
6.9294534

> <KierA3>
3.1727641

> <KierFlex>
4.5295186

> <lip_acc>
8

> <lip_don>
2

> <lip_druglike>
1

> <lip_violation>
0

> <logP(o/w)>
2.55

> <logS>
-5.50735

> <mr>
10.843916

> <mutagenic>
0

> <nmol>
1

> <opr_brigid>
19

> <opr_leadlike>
1

> <opr_nring>
4

> <opr_nrot>
4

> <opr_violation>
0

> <PC+>
0

> <PC->
0

> <PEOE_PC+>
2.7390449

> <PEOE_PC->
-2.7390449

> <PEOE_RPC+>
0.10360418

> <PEOE_RPC->
0.13090312

> <PEOE_VSA+0>
40.597015

> <PEOE_VSA+1>
34.377449

> <PEOE_VSA+2>
28.780554

> <PEOE_VSA+3>
8.6190128

> <PEOE_VSA+4>
10.324173

> <PEOE_VSA+5>
40.607563

> <PEOE_VSA+6>
0.0

> <PEOE_VSA-0>
68.49794

> <PEOE_VSA-1>
77.231918

> <PEOE_VSA-2>
19.760618

> <PEOE_VSA-3>
0.0

> <PEOE_VSA-4>
0.0

> <PEOE_VSA-5>
40.700764

> <PEOE_VSA-6>
13.80679

> <PEOE_VSA_FHYD>
0.7249198

> <PEOE_VSA_FNEG>
0.57395214

> <PEOE_VSA_FPNEG>
0.14220458

> <PEOE_VSA_FPOL>
0.2750802

> <PEOE_VSA_FPOS>
0.42604786

> <PEOE_VSA_FPPOS>
0.13287564

> <PEOE_VSA_HYD>
277.8645

> <PEOE_VSA_NEG>
219.99803

> <PEOE_VSA_PNEG>
54.507553

> <PEOE_VSA_POL>
105.43929

> <PEOE_VSA_POS>
163.30576

> <PEOE_VSA_PPOS>
50.931732

> <petitjean>
0.46153846

> <petitjeanSC>
0.85714287

> <Q_PC+>
0

> <Q_PC->
0

> <Q_RPC+>
0

> <Q_RPC->
0

> <Q_VSA_FHYD>
1

> <Q_VSA_FNEG>
0

> <Q_VSA_FPNEG>
0

> <Q_VSA_FPOL>
0

> <Q_VSA_FPOS>
1

> <Q_VSA_FPPOS>
0

> <Q_VSA_HYD>
383.3038

> <Q_VSA_NEG>
0

> <Q_VSA_PNEG>
0

> <Q_VSA_POL>
0

> <Q_VSA_POS>
383.3038

> <Q_VSA_PPOS>
0

> <radius>
7

> <reactive>
0

> <rings>
4

> <RPC+>
0

> <RPC->
0

> <rsynth>
1.0

> <SlogP>
2.5487199

> <SlogP_VSA0>
18.01075

> <SlogP_VSA1>
40.98394

> <SlogP_VSA2>
58.035496

> <SlogP_VSA3>
25.385227

> <SlogP_VSA4>
32.496613

> <SlogP_VSA5>
9.7341213

> <SlogP_VSA6>
3.5006065

> <SlogP_VSA7>
76.51506

> <SlogP_VSA8>
0.0

> <SlogP_VSA9>
171.34624

> <SMR>
10.6669

> <SMR_VSA0>
81.32077

> <SMR_VSA1>
22.720911

> <SMR_VSA2>
43.395977

> <SMR_VSA3>
22.446068

> <SMR_VSA4>
5.9423227

> <SMR_VSA5>
70.572739

> <SMR_VSA6>
18.263031

> <SMR_VSA7>
171.34624

> <TPSA>
112.74

> <VAdjEq>
0.38828552

> <VAdjMa>
6.0

> <VDistEq>
3.4948199

> <VDistMa>
9.4321089

> <vdw_area>
383.3038

> <vdw_vol>
502.43002

> <vsa_acc>
38.019104

> <vsa_acid>
0

> <vsa_base>
0

> <vsa_don>
5.6825762

> <vsa_hyd>
238.51299

> <vsa_other>
54.968441

> <vsa_pol>
70.835518

> <Weight>
435.888

> <weinerPath>
2212

> <weinerPol>
50

> <zagreb>
164

$$$$
Row1504
 OpenBabel06061811532D

 23 26  0  0  0  0  0  0  0  0999 V2000
    0.0000    0.0000    0.0000 Cl  0  0  0  0  0  0  0  0  0  0  0  0
    0.0000    0.0000    0.0000 C   0  0  0  0  0  0  0  0  0  0  0  0
    0.0000    0.0000    0.0000 C   0  0  0  0  0  0  0  0  0  0  0  0
    0.0000    0.0000    0.0000 C   0  0  0  0  0  0  0  0  0  0  0  0
    0.0000    0.0000    0.0000 N   0  0  0  0  0  0  0  0  0  0  0  0
    0.0000    0.0000    0.0000 C   0  0  0  0  0  0  0  0  0  0  0  0
    0.0000    0.0000    0.0000 N   0  0  0  0  0  0  0  0  0  0  0  0
    0.0000    0.0000    0.0000 C   0  0  0  0  0  0  0  0  0  0  0  0
    0.0000    0.0000    0.0000 C   0  0  0  0  0  0  0  0  0  0  0  0
    0.0000    0.0000    0.0000 N   0  0  0  0  0  0  0  0  0  0  0  0
    0.0000    0.0000    0.0000 C   0  0  0  0  0  0  0  0  0  0  0  0
    0.0000    0.0000    0.0000 C   0  0  0  0  0  0  0  0  0  0  0  0
    0.0000    0.0000    0.0000 C   0  0  0  0  0  0  0  0  0  0  0  0
    0.0000    0.0000    0.0000 C   0  0  0  0  0  0  0  0  0  0  0  0
    0.0000    0.0000    0.0000 C   0  0  0  0  0  0  0  0  0  0  0  0
    0.0000    0.0000    0.0000 N   0  0  0  0  0  0  0  0  0  0  0  0
    0.0000    0.0000    0.0000 C   0  0  0  0  0  0  0  0  0  0  0  0
    0.0000    0.0000    0.0000 C   0  0  0  0  0  0  0  0  0  0  0  0
    0.0000    0.0000    0.0000 C   0  0  0  0  0  0  0  0  0  0  0  0
    0.0000    0.0000    0.0000 C   0  0  0  0  0  0  0  0  0  0  0  0
    0.0000    0.0000    0.0000 C   0  0  0  0  0  0  0  0  0  0  0  0
    0.0000    0.0000    0.0000 C   0  0  0  0  0  0  0  0  0  0  0  0
    0.0000    0.0000    0.0000 C   0  0  0  0  0  0  0  0  0  0  0  0
  1  2  1  0  0  0  0
  2 19  1  0  0  0  0
  2  3  2  0  0  0  0
  3  4  1  0  0  0  0
  4 17  2  0  0  0  0
  4  5  1  0  0  0  0
  5  6  2  0  0  0  0
  6  7  1  0  0  0  0
  6 14  1  0  0  0  0
  7 12  1  0  0  0  0
  7  8  1  0  0  0  0
  8  9  1  0  0  0  0
  9 10  1  0  0  0  0
 10 11  1  0  0  0  0
 10 13  1  0  0  0  0
 11 12  1  0  0  0  0
 14 23  1  0  0  0  0
 14 15  2  0  0  0  0
 15 16  1  0  0  0  0
 15 20  1  0  0  0  0
 16 17  1  0  0  0  0
 17 18  1  0  0  0  0
 18 19  2  0  0  0  0
 20 21  2  0  0  0  0
 21 22  1  0  0  0  0
 22 23  2  0  0  0  0
M  END
> <Index>
1505

> <ID>
HT0539

> <class>
1

> <apol>
50.929066

> <ast_fraglike>
0

> <ast_fraglike_ext>
0

> <ast_violation>
2

> <ast_violation_ext>
2

> <a_acc>
2

> <a_acid>
0

> <a_aro>
12

> <a_base>
0

> <a_count>
42

> <a_don>
1

> <a_donacc>
3

> <a_heavy>
23

> <a_hyd>
18

> <a_IC>
62.708057

> <a_ICM>
1.493049

> <a_nB>
0

> <a_nBr>
0

> <a_nC>
18

> <a_nCl>
1

> <a_nF>
0

> <a_nH>
19

> <a_nI>
0

> <a_nN>
4

> <a_nO>
0

> <a_nP>
0

> <a_nS>
0

> <balabanJ>
1.543957

> <BCUT_PEOE_0>
-2.7493777

> <BCUT_PEOE_1>
-0.56545931

> <BCUT_PEOE_2>
0.60362589

> <BCUT_PEOE_3>
2.6450422

> <BCUT_SLOGP_0>
-2.8710952

> <BCUT_SLOGP_1>
-0.42807102

> <BCUT_SLOGP_2>
0.77848005

> <BCUT_SLOGP_3>
2.5403962

> <BCUT_SMR_0>
-2.4586172

> <BCUT_SMR_1>
-0.37842476

> <BCUT_SMR_2>
0.83739358

> <BCUT_SMR_3>
2.9281926

> <bpol>
27.130934

> <b_1rotN>
1

> <b_1rotR>
0.03846154

> <b_ar>
12

> <b_count>
45

> <b_double>
1

> <b_heavy>
26

> <b_max1len>
2

> <b_rotN>
1

> <b_rotR>
0.03846154

> <b_single>
32

> <b_triple>
0

> <chi0>
15.811191

> <chi0v>
13.845413

> <chi0v_C>
10.869879

> <chi0_C>
12.242276

> <chi1>
11.20351

> <chi1v>
8.265276

> <chi1v_C>
4.8153839

> <chi1_C>
6.4494896

> <chiral>
0

> <chiral_u>
0

> <density>
0.74258256

> <diameter>
10

> <FCharge>
0

> <GCUT_PEOE_0>
-0.86638808

> <GCUT_PEOE_1>
-0.38246936

> <GCUT_PEOE_2>
0.041141126

> <GCUT_PEOE_3>
2.7048855

> <GCUT_SLOGP_0>
-0.96674621

> <GCUT_SLOGP_1>
-0.29420286

> <GCUT_SLOGP_2>
0.16506132

> <GCUT_SLOGP_3>
2.7835379

> <GCUT_SMR_0>
-0.51363444

> <GCUT_SMR_1>
-0.17246203

> <GCUT_SMR_2>
0.20424521

> <GCUT_SMR_3>
3.005801

> <Kier1>
16.467455

> <Kier2>
7.0869246

> <Kier3>
3.52

> <KierA1>
12.901339

> <KierA2>
5.486237

> <KierA3>
2.7003298

> <KierFlex>
3.0773826

> <lip_acc>
4

> <lip_don>
1

> <lip_druglike>
1

> <lip_violation>
0

> <logP(o/w)>
3.075

> <logS>
-4.0994902

> <mr>
9.2331457

> <mutagenic>
0

> <nmol>
1

> <opr_brigid>
23

> <opr_leadlike>
1

> <opr_nring>
4

> <opr_nrot>
3

> <opr_violation>
0

> <PC+>
0

> <PC->
0

> <PEOE_PC+>
1.5475407

> <PEOE_PC->
-1.5475407

> <PEOE_RPC+>
0.089851193

> <PEOE_RPC->
0.2280549

> <PEOE_VSA+0>
102.75439

> <PEOE_VSA+1>
53.618797

> <PEOE_VSA+2>
19.809576

> <PEOE_VSA+3>
0.0

> <PEOE_VSA+4>
0.0

> <PEOE_VSA+5>
0.0

> <PEOE_VSA+6>
0.0

> <PEOE_VSA-0>
84.513206

> <PEOE_VSA-1>
54.091755

> <PEOE_VSA-2>
0.0

> <PEOE_VSA-3>
0.0

> <PEOE_VSA-4>
5.6825762

> <PEOE_VSA-5>
0.13689101

> <PEOE_VSA-6>
0.0

> <PEOE_VSA_FHYD>
0.9818486

> <PEOE_VSA_FNEG>
0.45047158

> <PEOE_VSA_FPNEG>
0.018151393

> <PEOE_VSA_FPOL>
0.018151393

> <PEOE_VSA_FPOS>
0.54952842

> <PEOE_VSA_FPPOS>
0.0

> <PEOE_VSA_HYD>
314.78772

> <PEOE_VSA_NEG>
144.42442

> <PEOE_VSA_PNEG>
5.8194671

> <PEOE_VSA_POL>
5.8194671

> <PEOE_VSA_POS>
176.18277

> <PEOE_VSA_PPOS>
0.0

> <petitjean>
0.5

> <petitjeanSC>
1.0

> <Q_PC+>
0

> <Q_PC->
0

> <Q_RPC+>
0

> <Q_RPC->
0

> <Q_VSA_FHYD>
1

> <Q_VSA_FNEG>
0

> <Q_VSA_FPNEG>
0

> <Q_VSA_FPOL>
0

> <Q_VSA_FPOS>
1

> <Q_VSA_FPPOS>
0

> <Q_VSA_HYD>
320.60721

> <Q_VSA_NEG>
0

> <Q_VSA_PNEG>
0

> <Q_VSA_POL>
0

> <Q_VSA_POS>
320.60721

> <Q_VSA_PPOS>
0

> <radius>
5

> <reactive>
0

> <rings>
4

> <RPC+>
0

> <RPC->
0

> <rsynth>
1.0

> <SlogP>
3.7227001

> <SlogP_VSA0>
0.0

> <SlogP_VSA1>
26.587299

> <SlogP_VSA2>
0.0

> <SlogP_VSA3>
73.758316

> <SlogP_VSA4>
3.185575

> <SlogP_VSA5>
49.682716

> <SlogP_VSA6>
3.5006065

> <SlogP_VSA7>
123.50229

> <SlogP_VSA8>
0.0

> <SlogP_VSA9>
47.418888

> <SMR>
9.6443701

> <SMR_VSA0>
0.0

> <SMR_VSA1>
23.034157

> <SMR_VSA2>
0.0

> <SMR_VSA3>
6.6861815

> <SMR_VSA4>
26.280993

> <SMR_VSA5>
123.50229

> <SMR_VSA6>
76.086235

> <SMR_VSA7>
72.04583

> <TPSA>
30.870001

> <VAdjEq>
0.46357921

> <VAdjMa>
5.7004399

> <VDistEq>
3.0642488

> <VDistMa>
8.7875357

> <vdw_area>
320.60721

> <vdw_vol>
440.12747

> <vsa_acc>
5.6825762

> <vsa_acid>
0

> <vsa_base>
0

> <vsa_don>
5.6825762

> <vsa_hyd>
282.16583

> <vsa_other>
11.190562

> <vsa_pol>
11.365152

> <Weight>
326.83099

> <weinerPath>
1082

> <weinerPol>
41

> <zagreb>
126

$$$$
Row1505
 OpenBabel06061811532D

 39 44  0  0  0  0  0  0  0  0999 V2000
    0.0000    0.0000    0.0000 O   0  0  0  0  0  0  0  0  0  0  0  0
    0.0000    0.0000    0.0000 C   0  0  0  0  0  0  0  0  0  0  0  0
    0.0000    0.0000    0.0000 N   0  0  0  0  0  0  0  0  0  0  0  0
    0.0000    0.0000    0.0000 C   0  0  0  0  0  0  0  0  0  0  0  0
    0.0000    0.0000    0.0000 C   0  0  0  0  0  0  0  0  0  0  0  0
    0.0000    0.0000    0.0000 C   0  0  0  0  0  0  0  0  0  0  0  0
    0.0000    0.0000    0.0000 N   0  0  0  0  0  0  0  0  0  0  0  0
    0.0000    0.0000    0.0000 C   0  0  0  0  0  0  0  0  0  0  0  0
    0.0000    0.0000    0.0000 N   0  0  0  0  0  0  0  0  0  0  0  0
    0.0000    0.0000    0.0000 H   0  0  0  0  0  0  0  0  0  0  0  0
    0.0000    0.0000    0.0000 C   0  0  0  0  0  0  0  0  0  0  0  0
    0.0000    0.0000    0.0000 C   0  0  0  0  0  0  0  0  0  0  0  0
    0.0000    0.0000    0.0000 C   0  0  0  0  0  0  0  0  0  0  0  0
    0.0000    0.0000    0.0000 C   0  0  0  0  0  0  0  0  0  0  0  0
    0.0000    0.0000    0.0000 C   0  0  0  0  0  0  0  0  0  0  0  0
    0.0000    0.0000    0.0000 C   0  0  0  0  0  0  0  0  0  0  0  0
    0.0000    0.0000    0.0000 C   0  0  0  0  0  0  0  0  0  0  0  0
    0.0000    0.0000    0.0000 C   0  0  0  0  0  0  0  0  0  0  0  0
    0.0000    0.0000    0.0000 C   0  0  0  0  0  0  0  0  0  0  0  0
    0.0000    0.0000    0.0000 C   0  0  0  0  0  0  0  0  0  0  0  0
    0.0000    0.0000    0.0000 C   0  0  0  0  0  0  0  0  0  0  0  0
    0.0000    0.0000    0.0000 C   0  0  0  0  0  0  0  0  0  0  0  0
    0.0000    0.0000    0.0000 N   0  0  0  0  0  0  0  0  0  0  0  0
    0.0000    0.0000    0.0000 C   0  0  0  0  0  0  0  0  0  0  0  0
    0.0000    0.0000    0.0000 O   0  0  0  0  0  0  0  0  0  0  0  0
    0.0000    0.0000    0.0000 C   0  0  0  0  0  0  0  0  0  0  0  0
    0.0000    0.0000    0.0000 C   0  0  0  0  0  0  0  0  0  0  0  0
    0.0000    0.0000    0.0000 C   0  0  0  0  0  0  0  0  0  0  0  0
    0.0000    0.0000    0.0000 C   0  0  0  0  0  0  0  0  0  0  0  0
    0.0000    0.0000    0.0000 C   0  0  0  0  0  0  0  0  0  0  0  0
    0.0000    0.0000    0.0000 C   0  0  0  0  0  0  0  0  0  0  0  0
    0.0000    0.0000    0.0000 C   0  0  0  0  0  0  0  0  0  0  0  0
    0.0000    0.0000    0.0000 C   0  0  0  0  0  0  0  0  0  0  0  0
    0.0000    0.0000    0.0000 C   0  0  0  0  0  0  0  0  0  0  0  0
    0.0000    0.0000    0.0000 C   0  0  0  0  0  0  0  0  0  0  0  0
    0.0000    0.0000    0.0000 C   0  0  0  0  0  0  0  0  0  0  0  0
    0.0000    0.0000    0.0000 C   0  0  0  0  0  0  0  0  0  0  0  0
    0.0000    0.0000    0.0000 C   0  0  0  0  0  0  0  0  0  0  0  0
    0.0000    0.0000    0.0000 C   0  0  0  0  0  0  0  0  0  0  0  0
  1  2  2  0  0  0  0
  2  3  1  0  0  0  0
  2 19  1  0  0  0  0
  3 13  1  0  0  0  0
  3  4  1  0  0  0  0
  4  5  1  0  0  0  0
  5  6  1  0  0  0  0
  6 11  2  0  0  0  0
  6  7  1  0  0  0  0
  7  8  2  0  0  0  0
  8  9  1  0  0  0  0
  8 18  1  0  0  0  0
  9 10  1  0  0  0  0
  9 11  1  0  0  0  0
 11 12  1  0  0  0  0
 12 17  1  0  0  0  0
 12 13  2  0  0  0  0
 13 14  1  0  0  0  0
 14 15  2  0  0  0  0
 15 16  1  0  0  0  0
 16 17  2  0  0  0  0
 19 39  1  0  0  0  0
 19 20  2  0  0  0  0
 20 21  1  0  0  0  0
 21 22  2  0  0  0  0
 22 23  1  0  0  0  0
 22 38  1  0  0  0  0
 23 24  1  0  0  0  0
 24 25  2  0  0  0  0
 24 26  1  0  0  0  0
 26 31  1  0  0  0  0
 26 27  2  0  0  0  0
 27 28  1  0  0  0  0
 28 29  2  0  0  0  0
 29 30  1  0  0  0  0
 30 31  2  0  0  0  0
 31 32  1  0  0  0  0
 32 37  1  0  0  0  0
 32 33  2  0  0  0  0
 33 34  1  0  0  0  0
 34 35  2  0  0  0  0
 35 36  1  0  0  0  0
 36 37  2  0  0  0  0
 38 39  2  0  0  0  0
M  END
> <Index>
1506

> <ID>
HT0547

> <class>
1

> <apol>
79.660622

> <ast_fraglike>
0

> <ast_fraglike_ext>
0

> <ast_violation>
3

> <ast_violation_ext>
4

> <a_acc>
4

> <a_acid>
0

> <a_aro>
29

> <a_base>
0

> <a_count>
64

> <a_don>
3

> <a_donacc>
7

> <a_heavy>
38

> <a_hyd>
29

> <a_IC>
91.788567

> <a_ICM>
1.4341964

> <a_nB>
0

> <a_nBr>
0

> <a_nC>
32

> <a_nCl>
0

> <a_nF>
0

> <a_nH>
26

> <a_nI>
0

> <a_nN>
4

> <a_nO>
2

> <a_nP>
0

> <a_nS>
0

> <balabanJ>
1.026706

> <BCUT_PEOE_0>
-2.4831975

> <BCUT_PEOE_1>
-0.6426791

> <BCUT_PEOE_2>
0.6894998

> <BCUT_PEOE_3>
2.513763

> <BCUT_SLOGP_0>
-2.581305

> <BCUT_SLOGP_1>
-0.53807992

> <BCUT_SLOGP_2>
0.76643211

> <BCUT_SLOGP_3>
2.5342638

> <BCUT_SMR_0>
-2.1994867

> <BCUT_SMR_1>
-0.47302523

> <BCUT_SMR_2>
0.85431087

> <BCUT_SMR_3>
2.8111401

> <bpol>
34.959381

> <b_1rotN>
5

> <b_1rotR>
0.11627907

> <b_ar>
29

> <b_count>
69

> <b_double>
2

> <b_heavy>
43

> <b_max1len>
2

> <b_rotN>
6

> <b_rotR>
0.13953489

> <b_single>
38

> <b_triple>
0

> <chi0>
26.061903

> <chi0v>
20.940092

> <chi0v_C>
18.229168

> <chi0_C>
21.363232

> <chi1>
18.580521

> <chi1v>
12.609208

> <chi1v_C>
9.9903049

> <chi1_C>
13.901415

> <chiral>
0

> <chiral_u>
0

> <density>
0.7144931

> <diameter>
19

> <FCharge>
0

> <GCUT_PEOE_0>
-0.83677727

> <GCUT_PEOE_1>
-0.38881707

> <GCUT_PEOE_2>
0.079732276

> <GCUT_PEOE_3>
2.7601271

> <GCUT_SLOGP_0>
-0.99367058

> <GCUT_SLOGP_1>
-0.26386139

> <GCUT_SLOGP_2>
0.16445385

> <GCUT_SLOGP_3>
2.8568945

> <GCUT_SMR_0>
-0.49978259

> <GCUT_SMR_1>
-0.21605732

> <GCUT_SMR_2>
0.19305076

> <GCUT_SMR_3>
3.0653234

> <Kier1>
28.135208

> <Kier2>
12.886858

> <Kier3>
6.2782006

> <KierA1>
18.634314

> <KierA2>
8.4317665

> <KierA3>
4.0728688

> <KierFlex>
4.1347418

> <lip_acc>
6

> <lip_don>
2

> <lip_druglike>
1

> <lip_violation>
1

> <logP(o/w)>
5.8210001

> <logS>
-8.9737301

> <mr>
14.896384

> <mutagenic>
0

> <nmol>
1

> <opr_brigid>
34

> <opr_leadlike>
0

> <opr_nring>
6

> <opr_nrot>
4

> <opr_violation>
3

> <PC+>
0

> <PC->
0

> <PEOE_PC+>
2.6668944

> <PEOE_PC->
-2.6668944

> <PEOE_RPC+>
0.097085863

> <PEOE_RPC->
0.12815551

> <PEOE_VSA+0>
65.076508

> <PEOE_VSA+1>
92.610214

> <PEOE_VSA+2>
11.190562

> <PEOE_VSA+3>
17.238026

> <PEOE_VSA+4>
0.0

> <PEOE_VSA+5>
25.899061

> <PEOE_VSA+6>
0.0

> <PEOE_VSA-0>
96.694183

> <PEOE_VSA-1>
134.80394

> <PEOE_VSA-2>
0.0

> <PEOE_VSA-3>
0.0

> <PEOE_VSA-4>
5.6825762

> <PEOE_VSA-5>
27.133842

> <PEOE_VSA-6>
0.27378201

> <PEOE_VSA_FHYD>
0.8762297

> <PEOE_VSA_FNEG>
0.55515492

> <PEOE_VSA_FPNEG>
0.069429316

> <PEOE_VSA_FPOL>
0.1237703

> <PEOE_VSA_FPOS>
0.44484511

> <PEOE_VSA_FPPOS>
0.054340988

> <PEOE_VSA_HYD>
417.61343

> <PEOE_VSA_NEG>
264.58832

> <PEOE_VSA_PNEG>
33.090199

> <PEOE_VSA_POL>
58.989262

> <PEOE_VSA_POS>
212.01437

> <PEOE_VSA_PPOS>
25.899061

> <petitjean>
0.47368422

> <petitjeanSC>
0.89999998

> <Q_PC+>
0

> <Q_PC->
0

> <Q_RPC+>
0

> <Q_RPC->
0

> <Q_VSA_FHYD>
1

> <Q_VSA_FNEG>
0

> <Q_VSA_FPNEG>
0

> <Q_VSA_FPOL>
0

> <Q_VSA_FPOS>
1

> <Q_VSA_FPPOS>
0

> <Q_VSA_HYD>
476.60269

> <Q_VSA_NEG>
0

> <Q_VSA_PNEG>
0

> <Q_VSA_POL>
0

> <Q_VSA_POS>
476.60269

> <Q_VSA_PPOS>
0

> <radius>
10

> <reactive>
0

> <rings>
6

> <RPC+>
0

> <RPC->
0

> <rsynth>
1.0

> <SlogP>
6.5072899

> <SlogP_VSA0>
3.1243138

> <SlogP_VSA1>
45.313847

> <SlogP_VSA2>
16.78553

> <SlogP_VSA3>
18.439579

> <SlogP_VSA4>
59.180252

> <SlogP_VSA5>
18.868406

> <SlogP_VSA6>
0.0

> <SlogP_VSA7>
312.24762

> <SlogP_VSA8>
0.0

> <SlogP_VSA9>
38.839512

> <SMR>
15.04144

> <SMR_VSA0>
47.724434

> <SMR_VSA1>
16.78553

> <SMR_VSA2>
19.909843

> <SMR_VSA3>
11.455817

> <SMR_VSA4>
35.837719

> <SMR_VSA5>
318.80255

> <SMR_VSA6>
28.957146

> <SMR_VSA7>
33.326015

> <TPSA>
78.089996

> <VAdjEq>
0.325683

> <VAdjMa>
6.4262648

> <VDistEq>
3.9878411

> <VDistMa>
10.178023

> <vdw_area>
476.60269

> <vdw_vol>
697.81781

> <vsa_acc>
27.133842

> <vsa_acid>
0

> <vsa_base>
0

> <vsa_don>
5.6825762

> <vsa_hyd>
372.10178

> <vsa_other>
37.089626

> <vsa_pol>
44.181568

> <Weight>
498.586

> <weinerPath>
5138

> <weinerPol>
68

> <zagreb>
208

$$$$
Row1506
 OpenBabel06061811532D

 20 22  0  0  1  0  0  0  0  0999 V2000
    0.0000    0.0000    0.0000 N   0  0  0  0  0  0  0  0  0  0  0  0
    0.0000    0.0000    0.0000 C   0  0  0  0  0  0  0  0  0  0  0  0
    0.0000    0.0000    0.0000 C   0  0  0  0  0  0  0  0  0  0  0  0
    0.0000    0.0000    0.0000 N   0  0  0  0  0  0  0  0  0  0  0  0
    0.0000    0.0000    0.0000 C   0  0  0  0  0  0  0  0  0  0  0  0
    0.0000    0.0000    0.0000 C   0  0  0  0  0  0  0  0  0  0  0  0
    0.0000    0.0000    0.0000 C   0  0  0  0  0  0  0  0  0  0  0  0
    0.0000    0.0000    0.0000 C   0  0  3  0  0  0  0  0  0  0  0  0
    0.0000    0.0000    0.0000 C   0  0  0  0  0  0  0  0  0  0  0  0
    0.0000    0.0000    0.0000 C   0  0  0  0  0  0  0  0  0  0  0  0
    0.0000    0.0000    0.0000 C   0  0  0  0  0  0  0  0  0  0  0  0
    0.0000    0.0000    0.0000 C   0  0  0  0  0  0  0  0  0  0  0  0
    0.0000    0.0000    0.0000 C   0  0  0  0  0  0  0  0  0  0  0  0
    0.0000    0.0000    0.0000 C   0  0  0  0  0  0  0  0  0  0  0  0
    0.0000    0.0000    0.0000 C   0  0  0  0  0  0  0  0  0  0  0  0
    0.0000    0.0000    0.0000 C   0  0  0  0  0  0  0  0  0  0  0  0
    0.0000    0.0000    0.0000 C   0  0  0  0  0  0  0  0  0  0  0  0
    0.0000    0.0000    0.0000 C   0  0  0  0  0  0  0  0  0  0  0  0
    0.0000    0.0000    0.0000 C   0  0  0  0  0  0  0  0  0  0  0  0
    0.0000    0.0000    0.0000 C   0  0  0  0  0  0  0  0  0  0  0  0
  1  6  1  0  0  0  0
  1  2  1  0  0  0  0
  1  8  1  0  0  0  0
  2  3  1  0  0  0  0
  3  4  1  0  0  0  0
  4  5  1  0  0  0  0
  4  7  1  0  0  0  0
  5  6  1  0  0  0  0
  8  9  1  0  0  0  0
  8 15  1  0  0  0  0
  9 14  1  0  0  0  0
  9 10  2  0  0  0  0
 10 11  1  0  0  0  0
 11 12  2  0  0  0  0
 12 13  1  0  0  0  0
 13 14  2  0  0  0  0
 15 20  1  0  0  0  0
 15 16  2  0  0  0  0
 16 17  1  0  0  0  0
 17 18  2  0  0  0  0
 18 19  1  0  0  0  0
 19 20  2  0  0  0  0
M  END
> <Index>
1507

> <ID>
HT0562

> <class>
1

> <apol>
48.549446

> <ast_fraglike>
0

> <ast_fraglike_ext>
0

> <ast_violation>
1

> <ast_violation_ext>
2

> <a_acc>
2

> <a_acid>
0

> <a_aro>
12

> <a_base>
0

> <a_count>
42

> <a_don>
0

> <a_donacc>
2

> <a_heavy>
20

> <a_hyd>
18

> <a_IC>
51.311188

> <a_ICM>
1.2216949

> <a_nB>
0

> <a_nBr>
0

> <a_nC>
18

> <a_nCl>
0

> <a_nF>
0

> <a_nH>
22

> <a_nI>
0

> <a_nN>
2

> <a_nO>
0

> <a_nP>
0

> <a_nS>
0

> <balabanJ>
1.6823888

> <BCUT_PEOE_0>
-2.7752891

> <BCUT_PEOE_1>
-0.5659796

> <BCUT_PEOE_2>
0.62380207

> <BCUT_PEOE_3>
2.6697946

> <BCUT_SLOGP_0>
-2.8732071

> <BCUT_SLOGP_1>
-0.46141538

> <BCUT_SLOGP_2>
0.72586107

> <BCUT_SLOGP_3>
2.6256082

> <BCUT_SMR_0>
-2.4874532

> <BCUT_SMR_1>
-0.4297317

> <BCUT_SMR_2>
0.76781034

> <BCUT_SMR_3>
2.9501846

> <bpol>
28.010553

> <b_1rotN>
3

> <b_1rotR>
0.13636364

> <b_ar>
12

> <b_count>
44

> <b_double>
0

> <b_heavy>
22

> <b_max1len>
2

> <b_rotN>
3

> <b_rotR>
0.13636364

> <b_single>
32

> <b_triple>
0

> <chi0>
13.786246

> <chi0v>
12.073708

> <chi0v_C>
11.17928

> <chi0_C>
12.631546

> <chi1>
9.8433371

> <chi1v>
7.369041

> <chi1v_C>
5.3987174

> <chi1_C>
7.2996597

> <chiral>
0

> <chiral_u>
0

> <density>
0.64605755

> <diameter>
9

> <FCharge>
0

> <GCUT_PEOE_0>
-0.85772449

> <GCUT_PEOE_1>
-0.36460835

> <GCUT_PEOE_2>
0.065703854

> <GCUT_PEOE_3>
2.7326994

> <GCUT_SLOGP_0>
-0.96068186

> <GCUT_SLOGP_1>
-0.26472306

> <GCUT_SLOGP_2>
0.1471646

> <GCUT_SLOGP_3>
2.7935758

> <GCUT_SMR_0>
-0.51472348

> <GCUT_SMR_1>
-0.19412023

> <GCUT_SMR_2>
0.16994575

> <GCUT_SMR_3>
3.003567

> <Kier1>
14.917356

> <Kier2>
7.3198571

> <Kier3>
3.8144045

> <KierA1>
11.588001

> <KierA2>
5.6047225

> <KierA3>
2.8899062

> <KierFlex>
3.2473764

> <lip_acc>
2

> <lip_don>
0

> <lip_druglike>
1

> <lip_violation>
0

> <logP(o/w)>
3.3889999

> <logS>
-3.07096

> <mr>
8.4065046

> <mutagenic>
0

> <nmol>
1

> <opr_brigid>
18

> <opr_leadlike>
1

> <opr_nring>
3

> <opr_nrot>
5

> <opr_violation>
0

> <PC+>
0

> <PC->
0

> <PEOE_PC+>
1.2527297

> <PEOE_PC->
-1.2527297

> <PEOE_RPC+>
0.049562834

> <PEOE_RPC->
0.24180533

> <PEOE_VSA+0>
99.688545

> <PEOE_VSA+1>
50.065208

> <PEOE_VSA+2>
0.0

> <PEOE_VSA+3>
0.0

> <PEOE_VSA+4>
0.0

> <PEOE_VSA+5>
0.0

> <PEOE_VSA+6>
0.0

> <PEOE_VSA-0>
27.655767

> <PEOE_VSA-1>
122.54904

> <PEOE_VSA-2>
0.0

> <PEOE_VSA-3>
0.0

> <PEOE_VSA-4>
0.0

> <PEOE_VSA-5>
0.0

> <PEOE_VSA-6>
0.0

> <PEOE_VSA_FHYD>
1.0

> <PEOE_VSA_FNEG>
0.50075185

> <PEOE_VSA_FPNEG>
0.0

> <PEOE_VSA_FPOL>
0.0

> <PEOE_VSA_FPOS>
0.49924815

> <PEOE_VSA_FPPOS>
0.0

> <PEOE_VSA_HYD>
299.95856

> <PEOE_VSA_NEG>
150.2048

> <PEOE_VSA_PNEG>
0.0

> <PEOE_VSA_POL>
0.0

> <PEOE_VSA_POS>
149.75375

> <PEOE_VSA_PPOS>
0.0

> <petitjean>
0.44444445

> <petitjeanSC>
0.80000001

> <Q_PC+>
0

> <Q_PC->
0

> <Q_RPC+>
0

> <Q_RPC->
0

> <Q_VSA_FHYD>
1

> <Q_VSA_FNEG>
0

> <Q_VSA_FPNEG>
0

> <Q_VSA_FPOL>
0

> <Q_VSA_FPOS>
1

> <Q_VSA_FPPOS>
0

> <Q_VSA_HYD>
299.95856

> <Q_VSA_NEG>
0

> <Q_VSA_PNEG>
0

> <Q_VSA_POL>
0

> <Q_VSA_POS>
299.95856

> <Q_VSA_PPOS>
0

> <radius>
5

> <reactive>
0

> <rings>
3

> <RPC+>
0

> <RPC->
0

> <rsynth>
1.0

> <SlogP>
3.1189001

> <SlogP_VSA0>
0.0

> <SlogP_VSA1>
6.2486277

> <SlogP_VSA2>
0.0

> <SlogP_VSA3>
73.758316

> <SlogP_VSA4>
6.37115

> <SlogP_VSA5>
32.897186

> <SlogP_VSA6>
0.0

> <SlogP_VSA7>
176.43184

> <SlogP_VSA8>
3.9819686

> <SlogP_VSA9>
0.0

> <SMR>
8.3908005

> <SMR_VSA0>
0.0

> <SMR_VSA1>
6.2486277

> <SMR_VSA2>
0.0

> <SMR_VSA3>
10.353119

> <SMR_VSA4>
0.0

> <SMR_VSA5>
176.43184

> <SMR_VSA6>
73.758316

> <SMR_VSA7>
32.897186

> <TPSA>
6.48

> <VAdjEq>
0.49991596

> <VAdjMa>
5.4594316

> <VDistEq>
2.9597538

> <VDistMa>
8.3801613

> <vdw_area>
299.95856

> <vdw_vol>
412.32858

> <vsa_acc>
0.0

> <vsa_acid>
0

> <vsa_base>
0

> <vsa_don>
0.0

> <vsa_hyd>
284.29907

> <vsa_other>
0.0

> <vsa_pol>
0.0

> <Weight>
266.388

> <weinerPath>
776

> <weinerPol>
29

> <zagreb>
102

$$$$
Row1507
 OpenBabel06061811532D

 21 23  0  0  0  0  0  0  0  0999 V2000
    0.0000    0.0000    0.0000 N   0  0  0  0  0  0  0  0  0  0  0  0
    0.0000    0.0000    0.0000 C   0  0  0  0  0  0  0  0  0  0  0  0
    0.0000    0.0000    0.0000 C   0  0  0  0  0  0  0  0  0  0  0  0
    0.0000    0.0000    0.0000 C   0  0  0  0  0  0  0  0  0  0  0  0
    0.0000    0.0000    0.0000 C   0  0  0  0  0  0  0  0  0  0  0  0
    0.0000    0.0000    0.0000 C   0  0  0  0  0  0  0  0  0  0  0  0
    0.0000    0.0000    0.0000 C   0  0  0  0  0  0  0  0  0  0  0  0
    0.0000    0.0000    0.0000 C   0  0  0  0  0  0  0  0  0  0  0  0
    0.0000    0.0000    0.0000 C   0  0  0  0  0  0  0  0  0  0  0  0
    0.0000    0.0000    0.0000 C   0  0  0  0  0  0  0  0  0  0  0  0
    0.0000    0.0000    0.0000 C   0  0  0  0  0  0  0  0  0  0  0  0
    0.0000    0.0000    0.0000 C   0  0  0  0  0  0  0  0  0  0  0  0
    0.0000    0.0000    0.0000 C   0  0  0  0  0  0  0  0  0  0  0  0
    0.0000    0.0000    0.0000 C   0  0  0  0  0  0  0  0  0  0  0  0
    0.0000    0.0000    0.0000 C   0  0  0  0  0  0  0  0  0  0  0  0
    0.0000    0.0000    0.0000 C   0  0  0  0  0  0  0  0  0  0  0  0
    0.0000    0.0000    0.0000 C   0  0  0  0  0  0  0  0  0  0  0  0
    0.0000    0.0000    0.0000 C   0  0  0  0  0  0  0  0  0  0  0  0
    0.0000    0.0000    0.0000 C   0  0  0  0  0  0  0  0  0  0  0  0
    0.0000    0.0000    0.0000 C   0  0  0  0  0  0  0  0  0  0  0  0
    0.0000    0.0000    0.0000 C   0  0  0  0  0  0  0  0  0  0  0  0
  1  2  1  0  0  0  0
  1 20  1  0  0  0  0
  1 21  1  0  0  0  0
  2  3  1  0  0  0  0
  3  4  1  0  0  0  0
  4  5  2  3  0  0  0
  5 11  1  0  0  0  0
  5  6  1  0  0  0  0
  6 19  1  0  0  0  0
  6  7  2  0  0  0  0
  7  8  1  0  0  0  0
  7 16  1  0  0  0  0
  8  9  2  0  0  0  0
  9 10  1  0  0  0  0
 10 15  1  0  0  0  0
 10 11  2  0  0  0  0
 11 12  1  0  0  0  0
 12 13  2  0  0  0  0
 13 14  1  0  0  0  0
 14 15  2  0  0  0  0
 16 17  2  0  0  0  0
 17 18  1  0  0  0  0
 18 19  2  0  0  0  0
M  END
> <Index>
1508

> <ID>
HT0564

> <class>
1

> <apol>
50.302654

> <ast_fraglike>
0

> <ast_fraglike_ext>
0

> <ast_violation>
1

> <ast_violation_ext>
1

> <a_acc>
1

> <a_acid>
0

> <a_aro>
12

> <a_base>
0

> <a_count>
42

> <a_don>
0

> <a_donacc>
1

> <a_heavy>
21

> <a_hyd>
20

> <a_IC>
47.800102

> <a_ICM>
1.1380978

> <a_nB>
0

> <a_nBr>
0

> <a_nC>
20

> <a_nCl>
0

> <a_nF>
0

> <a_nH>
21

> <a_nI>
0

> <a_nN>
1

> <a_nO>
0

> <a_nP>
0

> <a_nS>
0

> <balabanJ>
1.7143384

> <BCUT_PEOE_0>
-2.6075914

> <BCUT_PEOE_1>
-0.56021518

> <BCUT_PEOE_2>
0.61544549

> <BCUT_PEOE_3>
2.4953449

> <BCUT_SLOGP_0>
-2.6599593

> <BCUT_SLOGP_1>
-0.4564501

> <BCUT_SLOGP_2>
0.716739

> <BCUT_SLOGP_3>
2.5255668

> <BCUT_SMR_0>
-2.321867

> <BCUT_SMR_1>
-0.42026725

> <BCUT_SMR_2>
0.76128328

> <BCUT_SMR_3>
2.7760344

> <bpol>
24.937347

> <b_1rotN>
3

> <b_1rotR>
0.13043478

> <b_ar>
12

> <b_count>
44

> <b_double>
2

> <b_heavy>
23

> <b_max1len>
6

> <b_rotN>
3

> <b_rotR>
0.13043478

> <b_single>
30

> <b_triple>
0

> <chi0>
14.656489

> <chi0v>
12.71228

> <chi0v_C>
12.265066

> <chi0_C>
14.07914

> <chi1>
10.25402

> <chi1v>
7.4729624

> <chi1v_C>
6.2623076

> <chi1_C>
8.6910715

> <chiral>
0

> <chiral_u>
0

> <density>
0.63825572

> <diameter>
9

> <FCharge>
0

> <GCUT_PEOE_0>
-0.86320031

> <GCUT_PEOE_1>
-0.35835391

> <GCUT_PEOE_2>
0.061373021

> <GCUT_PEOE_3>
2.6255369

> <GCUT_SLOGP_0>
-0.9530611

> <GCUT_SLOGP_1>
-0.26306826

> <GCUT_SLOGP_2>
0.14149922

> <GCUT_SLOGP_3>
2.7642262

> <GCUT_SMR_0>
-0.51701045

> <GCUT_SMR_1>
-0.18678591

> <GCUT_SMR_2>
0.16690931

> <GCUT_SMR_3>
2.9357684

> <Kier1>
15.879017

> <Kier2>
7.5130072

> <Kier3>
3.8548484

> <KierA1>
11.485277

> <KierA2>
5.3384519

> <KierA3>
2.7018201

> <KierFlex>
2.9196951

> <lip_acc>
1

> <lip_don>
0

> <lip_druglike>
1

> <lip_violation>
0

> <logP(o/w)>
5.0250001

> <logS>
-4.0233402

> <mr>
8.9097433

> <mutagenic>
0

> <nmol>
1

> <opr_brigid>
18

> <opr_leadlike>
1

> <opr_nring>
3

> <opr_nrot>
3

> <opr_violation>
0

> <PC+>
0

> <PC->
0

> <PEOE_PC+>
1.0651321

> <PEOE_PC->
-1.0651321

> <PEOE_RPC+>
0.058565404

> <PEOE_RPC->
0.28921539

> <PEOE_VSA+0>
55.846184

> <PEOE_VSA+1>
46.919247

> <PEOE_VSA+2>
0.0

> <PEOE_VSA+3>
0.0

> <PEOE_VSA+4>
0.0

> <PEOE_VSA+5>
0.0

> <PEOE_VSA+6>
0.0

> <PEOE_VSA-0>
66.22139

> <PEOE_VSA-1>
134.80394

> <PEOE_VSA-2>
0.0

> <PEOE_VSA-3>
0.0

> <PEOE_VSA-4>
0.0

> <PEOE_VSA-5>
0.0

> <PEOE_VSA-6>
0.0

> <PEOE_VSA_FHYD>
1.0

> <PEOE_VSA_FNEG>
0.66172302

> <PEOE_VSA_FPNEG>
0.0

> <PEOE_VSA_FPOL>
0.0

> <PEOE_VSA_FPOS>
0.33827701

> <PEOE_VSA_FPPOS>
0.0

> <PEOE_VSA_HYD>
303.79077

> <PEOE_VSA_NEG>
201.02533

> <PEOE_VSA_PNEG>
0.0

> <PEOE_VSA_POL>
0.0

> <PEOE_VSA_POS>
102.76543

> <PEOE_VSA_PPOS>
0.0

> <petitjean>
0.44444445

> <petitjeanSC>
0.80000001

> <Q_PC+>
0

> <Q_PC->
0

> <Q_RPC+>
0

> <Q_RPC->
0

> <Q_VSA_FHYD>
1

> <Q_VSA_FNEG>
0

> <Q_VSA_FPNEG>
0

> <Q_VSA_FPOL>
0

> <Q_VSA_FPOS>
1

> <Q_VSA_FPPOS>
0

> <Q_VSA_HYD>
303.79077

> <Q_VSA_NEG>
0

> <Q_VSA_PNEG>
0

> <Q_VSA_POL>
0

> <Q_VSA_POS>
303.79077

> <Q_VSA_PPOS>
0

> <radius>
5

> <reactive>
0

> <rings>
3

> <RPC+>
0

> <RPC->
0

> <rsynth>
0.0

> <SlogP>
4.3710899

> <SlogP_VSA0>
0.0

> <SlogP_VSA1>
3.1243138

> <SlogP_VSA2>
0.0

> <SlogP_VSA3>
21.625153

> <SlogP_VSA4>
12.7423

> <SlogP_VSA5>
65.794373

> <SlogP_VSA6>
0.0

> <SlogP_VSA7>
158.78867

> <SlogP_VSA8>
54.154774

> <SlogP_VSA9>
0.0

> <SMR>
9.1000004

> <SMR_VSA0>
0.0

> <SMR_VSA1>
3.1243138

> <SMR_VSA2>
3.185575

> <SMR_VSA3>
12.7423

> <SMR_VSA4>
0.0

> <SMR_VSA5>
177.65706

> <SMR_VSA6>
53.725948

> <SMR_VSA7>
65.794373

> <TPSA>
3.24

> <VAdjEq>
0.48250595

> <VAdjMa>
5.523562

> <VDistEq>
3.0281317

> <VDistMa>
8.515563

> <vdw_area>
303.79077

> <vdw_vol>
431.48065

> <vsa_acc>
0.0

> <vsa_acid>
0

> <vsa_base>
0

> <vsa_don>
0.0

> <vsa_hyd>
288.84305

> <vsa_other>
0.0

> <vsa_pol>
0.0

> <Weight>
275.39499

> <weinerPath>
882

> <weinerPol>
35

> <zagreb>
108

$$$$
Row1508
 OpenBabel06061811532D

 27 29  0  0  0  0  0  0  0  0999 V2000
    0.0000    0.0000    0.0000 O   0  0  0  0  0  0  0  0  0  0  0  0
    0.0000    0.0000    0.0000 C   0  0  0  0  0  0  0  0  0  0  0  0
    0.0000    0.0000    0.0000 O   0  0  0  0  0  0  0  0  0  0  0  0
    0.0000    0.0000    0.0000 C   0  0  0  0  0  0  0  0  0  0  0  0
    0.0000    0.0000    0.0000 C   0  0  0  0  0  0  0  0  0  0  0  0
    0.0000    0.0000    0.0000 C   0  0  0  0  0  0  0  0  0  0  0  0
    0.0000    0.0000    0.0000 C   0  0  0  0  0  0  0  0  0  0  0  0
    0.0000    0.0000    0.0000 C   0  0  0  0  0  0  0  0  0  0  0  0
    0.0000    0.0000    0.0000 C   0  0  0  0  0  0  0  0  0  0  0  0
    0.0000    0.0000    0.0000 C   0  0  0  0  0  0  0  0  0  0  0  0
    0.0000    0.0000    0.0000 C   0  0  0  0  0  0  0  0  0  0  0  0
    0.0000    0.0000    0.0000 C   0  0  0  0  0  0  0  0  0  0  0  0
    0.0000    0.0000    0.0000 C   0  0  0  0  0  0  0  0  0  0  0  0
    0.0000    0.0000    0.0000 C   0  0  0  0  0  0  0  0  0  0  0  0
    0.0000    0.0000    0.0000 C   0  0  0  0  0  0  0  0  0  0  0  0
    0.0000    0.0000    0.0000 O   0  0  0  0  0  0  0  0  0  0  0  0
    0.0000    0.0000    0.0000 C   0  0  0  0  0  0  0  0  0  0  0  0
    0.0000    0.0000    0.0000 O   0  0  0  0  0  0  0  0  0  0  0  0
    0.0000    0.0000    0.0000 C   0  0  0  0  0  0  0  0  0  0  0  0
    0.0000    0.0000    0.0000 C   0  0  0  0  0  0  0  0  0  0  0  0
    0.0000    0.0000    0.0000 C   0  0  0  0  0  0  0  0  0  0  0  0
    0.0000    0.0000    0.0000 C   0  0  0  0  0  0  0  0  0  0  0  0
    0.0000    0.0000    0.0000 C   0  0  0  0  0  0  0  0  0  0  0  0
    0.0000    0.0000    0.0000 C   0  0  0  0  0  0  0  0  0  0  0  0
    0.0000    0.0000    0.0000 C   0  0  0  0  0  0  0  0  0  0  0  0
    0.0000    0.0000    0.0000 C   0  0  0  0  0  0  0  0  0  0  0  0
    0.0000    0.0000    0.0000 C   0  0  0  0  0  0  0  0  0  0  0  0
  1  2  1  0  0  0  0
  1  5  1  0  0  0  0
  2  3  2  0  0  0  0
  2  4  1  0  0  0  0
  5 10  1  0  0  0  0
  5  6  2  0  0  0  0
  6  7  1  0  0  0  0
  7  8  2  0  0  0  0
  8  9  1  0  0  0  0
  8 11  1  0  0  0  0
  9 10  2  0  0  0  0
 11 12  1  0  0  0  0
 11 22  2  0  0  0  0
 12 21  1  0  0  0  0
 12 13  2  0  0  0  0
 13 14  1  0  0  0  0
 14 15  2  0  0  0  0
 15 16  1  0  0  0  0
 15 20  1  0  0  0  0
 16 17  1  0  0  0  0
 17 18  2  0  0  0  0
 17 19  1  0  0  0  0
 20 21  2  0  0  0  0
 22 27  1  0  0  0  0
 22 23  1  0  0  0  0
 23 24  1  0  0  0  0
 24 25  1  0  0  0  0
 25 26  1  0  0  0  0
 26 27  1  0  0  0  0
M  END
> <Index>
1509

> <ID>
HT0565

> <class>
1

> <apol>
59.691032

> <ast_fraglike>
0

> <ast_fraglike_ext>
0

> <ast_violation>
2

> <ast_violation_ext>
3

> <a_acc>
2

> <a_acid>
0

> <a_aro>
12

> <a_base>
0

> <a_count>
51

> <a_don>
0

> <a_donacc>
2

> <a_heavy>
27

> <a_hyd>
21

> <a_IC>
67.212669

> <a_ICM>
1.3178954

> <a_nB>
0

> <a_nBr>
0

> <a_nC>
23

> <a_nCl>
0

> <a_nF>
0

> <a_nH>
24

> <a_nI>
0

> <a_nN>
0

> <a_nO>
4

> <a_nP>
0

> <a_nS>
0

> <balabanJ>
1.5907785

> <BCUT_PEOE_0>
-2.7151518

> <BCUT_PEOE_1>
-0.64202303

> <BCUT_PEOE_2>
0.70383126

> <BCUT_PEOE_3>
2.6541622

> <BCUT_SLOGP_0>
-2.5443919

> <BCUT_SLOGP_1>
-0.53807992

> <BCUT_SLOGP_2>
0.78404272

> <BCUT_SLOGP_3>
2.8244648

> <BCUT_SMR_0>
-2.4537005

> <BCUT_SMR_1>
-0.49918815

> <BCUT_SMR_2>
0.85431087

> <BCUT_SMR_3>
2.9203088

> <bpol>
31.984968

> <b_1rotN>
4

> <b_1rotR>
0.13793103

> <b_ar>
12

> <b_count>
53

> <b_double>
3

> <b_heavy>
29

> <b_max1len>
2

> <b_rotN>
6

> <b_rotR>
0.20689656

> <b_single>
38

> <b_triple>
0

> <chi0>
19.225405

> <chi0v>
15.78733

> <chi0v_C>
14.154336

> <chi0_C>
15.811191

> <chi1>
13.024878

> <chi1v>
9.3245859

> <chi1v_C>
8.0998411

> <chi1_C>
10.237184

> <chiral>
0

> <chiral_u>
0

> <density>
0.70566911

> <diameter>
14

> <FCharge>
0

> <GCUT_PEOE_0>
-0.79040688

> <GCUT_PEOE_1>
-0.43955532

> <GCUT_PEOE_2>
0.083032511

> <GCUT_PEOE_3>
2.7214251

> <GCUT_SLOGP_0>
-0.9111771

> <GCUT_SLOGP_1>
-0.30752316

> <GCUT_SLOGP_2>
0.16101724

> <GCUT_SLOGP_3>
2.8750467

> <GCUT_SMR_0>
-0.52439386

> <GCUT_SMR_1>
-0.21605732

> <GCUT_SMR_2>
0.19305076

> <GCUT_SMR_3>
2.9995039

> <Kier1>
21.702734

> <Kier2>
10.683761

> <Kier3>
6.5

> <KierA1>
16.250753

> <KierA2>
7.9042826

> <KierA3>
4.7661114

> <KierFlex>
4.7574277

> <lip_acc>
4

> <lip_don>
0

> <lip_druglike>
1

> <lip_violation>
1

> <logP(o/w)>
5.4920001

> <logS>
-6.7570701

> <mr>
10.605726

> <mutagenic>
0

> <nmol>
1

> <opr_brigid>
19

> <opr_leadlike>
1

> <opr_nring>
3

> <opr_nrot>
6

> <opr_violation>
1

> <PC+>
0

> <PC->
0

> <PEOE_PC+>
1.7338856

> <PEOE_PC->
-1.7338856

> <PEOE_RPC+>
0.15225673

> <PEOE_RPC->
0.16029222

> <PEOE_VSA+0>
105.74153

> <PEOE_VSA+1>
51.040127

> <PEOE_VSA+2>
0.0

> <PEOE_VSA+3>
0.0

> <PEOE_VSA+4>
0.0

> <PEOE_VSA+5>
29.416998

> <PEOE_VSA+6>
0.0

> <PEOE_VSA-0>
90.450485

> <PEOE_VSA-1>
59.92947

> <PEOE_VSA-2>
0.0

> <PEOE_VSA-3>
0.0

> <PEOE_VSA-4>
0.0

> <PEOE_VSA-5>
32.141354

> <PEOE_VSA-6>
0.0

> <PEOE_VSA_FHYD>
0.83304852

> <PEOE_VSA_FNEG>
0.49501336

> <PEOE_VSA_FPNEG>
0.087170094

> <PEOE_VSA_FPOL>
0.16695151

> <PEOE_VSA_FPOS>
0.50498664

> <PEOE_VSA_FPPOS>
0.079781406

> <PEOE_VSA_HYD>
307.16162

> <PEOE_VSA_NEG>
182.52132

> <PEOE_VSA_PNEG>
32.141354

> <PEOE_VSA_POL>
61.558353

> <PEOE_VSA_POS>
186.19865

> <PEOE_VSA_PPOS>
29.416998

> <petitjean>
0.5

> <petitjeanSC>
1.0

> <Q_PC+>
0

> <Q_PC->
0

> <Q_RPC+>
0

> <Q_RPC->
0

> <Q_VSA_FHYD>
1

> <Q_VSA_FNEG>
0

> <Q_VSA_FPNEG>
0

> <Q_VSA_FPOL>
0

> <Q_VSA_FPOS>
1

> <Q_VSA_FPPOS>
0

> <Q_VSA_HYD>
368.71997

> <Q_VSA_NEG>
0

> <Q_VSA_PNEG>
0

> <Q_VSA_POL>
0

> <Q_VSA_POS>
368.71997

> <Q_VSA_PPOS>
0

> <radius>
7

> <reactive>
0

> <rings>
3

> <RPC+>
0

> <RPC->
0

> <rsynth>
0.2962963

> <SlogP>
5.1204901

> <SlogP_VSA0>
21.999775

> <SlogP_VSA1>
15.490929

> <SlogP_VSA2>
47.724434

> <SlogP_VSA3>
3.185575

> <SlogP_VSA4>
6.37115

> <SlogP_VSA5>
3.185575

> <SlogP_VSA6>
0.0

> <SlogP_VSA7>
141.14548

> <SlogP_VSA8>
94.342026

> <SlogP_VSA9>
77.138885

> <SMR>
10.3547

> <SMR_VSA0>
47.724434

> <SMR_VSA1>
21.999775

> <SMR_VSA2>
3.185575

> <SMR_VSA3>
20.043581

> <SMR_VSA4>
0.0

> <SMR_VSA5>
235.4875

> <SMR_VSA6>
15.490929

> <SMR_VSA7>
66.652031

> <TPSA>
52.599998

> <VAdjEq>
0.40063059

> <VAdjMa>
5.8579812

> <VDistEq>
3.5467377

> <VDistMa>
9.2186451

> <vdw_area>
368.71997

> <vdw_vol>
516.44739

> <vsa_acc>
27.133842

> <vsa_acid>
0

> <vsa_base>
0

> <vsa_don>
0.0

> <vsa_hyd>
290.07852

> <vsa_other>
34.424511

> <vsa_pol>
27.133842

> <Weight>
364.44098

> <weinerPath>
1954

> <weinerPol>
39

> <zagreb>
136

$$$$
Row1509
 OpenBabel06061811532D

 23 25  0  0  1  0  0  0  0  0999 V2000
    0.0000    0.0000    0.0000 Cl  0  0  0  0  0  0  0  0  0  0  0  0
    0.0000    0.0000    0.0000 C   0  0  0  0  0  0  0  0  0  0  0  0
    0.0000    0.0000    0.0000 C   0  0  0  0  0  0  0  0  0  0  0  0
    0.0000    0.0000    0.0000 C   0  0  0  0  0  0  0  0  0  0  0  0
    0.0000    0.0000    0.0000 N   0  0  0  0  0  0  0  0  0  0  0  0
    0.0000    0.0000    0.0000 C   0  0  3  0  0  0  0  0  0  0  0  0
    0.0000    0.0000    0.0000 N   0  0  0  0  0  0  0  0  0  0  0  0
    0.0000    0.0000    0.0000 S   0  0  0  0  0  0  0  0  0  0  0  0
    0.0000    0.0000    0.0000 O   0  0  0  0  0  0  0  0  0  0  0  0
    0.0000    0.0000    0.0000 O   0  0  0  0  0  0  0  0  0  0  0  0
    0.0000    0.0000    0.0000 C   0  0  0  0  0  0  0  0  0  0  0  0
    0.0000    0.0000    0.0000 C   0  0  0  0  0  0  0  0  0  0  0  0
    0.0000    0.0000    0.0000 C   0  0  0  0  0  0  0  0  0  0  0  0
    0.0000    0.0000    0.0000 S   0  0  0  0  0  0  0  0  0  0  0  0
    0.0000    0.0000    0.0000 O   0  0  0  0  0  0  0  0  0  0  0  0
    0.0000    0.0000    0.0000 O   0  0  0  0  0  0  0  0  0  0  0  0
    0.0000    0.0000    0.0000 N   0  0  0  0  0  0  0  0  0  0  0  0
    0.0000    0.0000    0.0000 C   0  0  0  0  0  0  0  0  0  0  0  0
    0.0000    0.0000    0.0000 C   0  0  0  0  0  0  0  0  0  0  0  0
    0.0000    0.0000    0.0000 C   0  0  0  0  0  0  0  0  0  0  0  0
    0.0000    0.0000    0.0000 C   0  0  0  0  0  0  0  0  0  0  0  0
    0.0000    0.0000    0.0000 C   0  0  0  0  0  0  0  0  0  0  0  0
    0.0000    0.0000    0.0000 C   0  0  0  0  0  0  0  0  0  0  0  0
  1  2  1  0  0  0  0
  2 13  1  0  0  0  0
  2  3  2  0  0  0  0
  3  4  1  0  0  0  0
  4 11  2  0  0  0  0
  4  5  1  0  0  0  0
  5  6  1  0  0  0  0
  6  7  1  0  0  0  0
  6 18  1  0  0  0  0
  7  8  1  0  0  0  0
  8  9  2  0  0  0  0
  8 10  2  0  0  0  0
  8 11  1  0  0  0  0
 11 12  1  0  0  0  0
 12 13  2  0  0  0  0
 13 14  1  0  0  0  0
 14 15  2  0  0  0  0
 14 16  2  0  0  0  0
 14 17  1  0  0  0  0
 18 19  1  0  0  0  0
 19 23  1  0  0  0  0
 19 20  1  0  0  0  0
 20 21  1  0  0  0  0
 21 22  1  0  0  0  0
 22 23  1  0  0  0  0
M  END
> <Index>
1510

> <ID>
HT0566

> <class>
1

> <apol>
49.370274

> <ast_fraglike>
0

> <ast_fraglike_ext>
0

> <ast_violation>
2

> <ast_violation_ext>
4

> <a_acc>
4

> <a_acid>
0

> <a_aro>
6

> <a_base>
0

> <a_count>
41

> <a_don>
3

> <a_donacc>
7

> <a_heavy>
23

> <a_hyd>
13

> <a_IC>
81.740379

> <a_ICM>
1.9936677

> <a_nB>
0

> <a_nBr>
0

> <a_nC>
13

> <a_nCl>
1

> <a_nF>
0

> <a_nH>
18

> <a_nI>
0

> <a_nN>
3

> <a_nO>
4

> <a_nP>
0

> <a_nS>
2

> <balabanJ>
1.693942

> <BCUT_PEOE_0>
-2.7156956

> <BCUT_PEOE_1>
-0.53970259

> <BCUT_PEOE_2>
0.57812971

> <BCUT_PEOE_3>
2.7704384

> <BCUT_SLOGP_0>
-2.7991784

> <BCUT_SLOGP_1>
-0.47446814

> <BCUT_SLOGP_2>
0.65003765

> <BCUT_SLOGP_3>
2.8979669

> <BCUT_SMR_0>
-2.4303775

> <BCUT_SMR_1>
-0.41867766

> <BCUT_SMR_2>
0.70321798

> <BCUT_SMR_3>
3.0402467

> <bpol>
33.709724

> <b_1rotN>
3

> <b_1rotR>
0.12

> <b_ar>
6

> <b_count>
43

> <b_double>
0

> <b_heavy>
25

> <b_max1len>
4

> <b_rotN>
3

> <b_rotR>
0.12

> <b_single>
37

> <b_triple>
0

> <chi0>
16.828062

> <chi0v>
14.638661

> <chi0v_C>
7.8449349

> <chi0_C>
8.4138489

> <chi1>
10.665651

> <chi1v>
10.726214

> <chi1v_C>
4.7876935

> <chi1_C>
5.432653

> <chiral>
1

> <chiral_u>
1

> <density>
0.92074847

> <diameter>
11

> <FCharge>
0

> <GCUT_PEOE_0>
-0.88862497

> <GCUT_PEOE_1>
-0.39309308

> <GCUT_PEOE_2>
0.046739902

> <GCUT_PEOE_3>
2.769537

> <GCUT_SLOGP_0>
-1.3482866

> <GCUT_SLOGP_1>
-0.39938685

> <GCUT_SLOGP_2>
0.14015506

> <GCUT_SLOGP_3>
2.8202789

> <GCUT_SMR_0>
-0.53613096

> <GCUT_SMR_1>
-0.18071304

> <GCUT_SMR_2>
0.15948232

> <GCUT_SMR_3>
3.0289438

> <Kier1>
17.811199

> <Kier2>
6.3786983

> <Kier3>
3.8194444

> <KierA1>
19.049721

> <KierA2>
6.8435488

> <KierA3>
4.1074328

> <KierFlex>
5.6681604

> <lip_acc>
7

> <lip_don>
4

> <lip_druglike>
1

> <lip_violation>
0

> <logP(o/w)>
1.729

> <logS>
-4.4976101

> <mr>
8.8678331

> <mutagenic>
0

> <nmol>
1

> <opr_brigid>
16

> <opr_leadlike>
1

> <opr_nring>
3

> <opr_nrot>
4

> <opr_violation>
0

> <PC+>
0

> <PC->
0

> <PEOE_PC+>
1.8148469

> <PEOE_PC->
-1.8148469

> <PEOE_RPC+>
0.17067459

> <PEOE_RPC->
0.21112593

> <PEOE_VSA+0>
92.864792

> <PEOE_VSA+1>
17.149784

> <PEOE_VSA+2>
26.880259

> <PEOE_VSA+3>
0.0

> <PEOE_VSA+4>
0.0

> <PEOE_VSA+5>
0.0

> <PEOE_VSA+6>
8.3692026

> <PEOE_VSA-0>
29.57523

> <PEOE_VSA-1>
64.387199

> <PEOE_VSA-2>
34.546043

> <PEOE_VSA-3>
9.0437498

> <PEOE_VSA-4>
32.016521

> <PEOE_VSA-5>
0.0

> <PEOE_VSA-6>
0.13689101

> <PEOE_VSA_FHYD>
0.87134439

> <PEOE_VSA_FNEG>
0.53879994

> <PEOE_VSA_FPNEG>
0.10208416

> <PEOE_VSA_FPOL>
0.12865561

> <PEOE_VSA_FPOS>
0.46120006

> <PEOE_VSA_FPPOS>
0.026571454

> <PEOE_VSA_HYD>
274.44705

> <PEOE_VSA_NEG>
169.70564

> <PEOE_VSA_PNEG>
32.153416

> <PEOE_VSA_POL>
40.522617

> <PEOE_VSA_POS>
145.26404

> <PEOE_VSA_PPOS>
8.3692026

> <petitjean>
0.45454547

> <petitjeanSC>
0.83333331

> <Q_PC+>
0

> <Q_PC->
0

> <Q_RPC+>
0

> <Q_RPC->
0

> <Q_VSA_FHYD>
1

> <Q_VSA_FNEG>
0

> <Q_VSA_FPNEG>
0

> <Q_VSA_FPOL>
0

> <Q_VSA_FPOS>
1

> <Q_VSA_FPPOS>
0

> <Q_VSA_HYD>
314.96967

> <Q_VSA_NEG>
0

> <Q_VSA_PNEG>
0

> <Q_VSA_POL>
0

> <Q_VSA_POS>
314.96967

> <Q_VSA_PPOS>
0

> <radius>
6

> <reactive>
0

> <rings>
3

> <RPC+>
0

> <RPC->
0

> <rsynth>
1.0

> <SlogP>
1.5976

> <SlogP_VSA0>
47.69643

> <SlogP_VSA1>
114.35413

> <SlogP_VSA2>
16.834627

> <SlogP_VSA3>
0.0

> <SlogP_VSA4>
4.4107962

> <SlogP_VSA5>
3.1014678

> <SlogP_VSA6>
3.5006065

> <SlogP_VSA7>
35.286369

> <SlogP_VSA8>
94.342026

> <SlogP_VSA9>
41.905392

> <SMR>
8.7132397

> <SMR_VSA0>
96.343376

> <SMR_VSA1>
0.0

> <SMR_VSA2>
23.917261

> <SMR_VSA3>
7.0537477

> <SMR_VSA4>
52.058933

> <SMR_VSA5>
129.6284

> <SMR_VSA6>
0.0

> <SMR_VSA7>
52.43013

> <TPSA>
118.36

> <VAdjEq>
0.45137304

> <VAdjMa>
5.643856

> <VDistEq>
3.2357578

> <VDistMa>
8.7539177

> <vdw_area>
314.96967

> <vdw_vol>
412.58716

> <vsa_acc>
64.033043

> <vsa_acid>
0

> <vsa_base>
0

> <vsa_don>
33.892902

> <vsa_hyd>
162.03845

> <vsa_other>
31.401779

> <vsa_pol>
97.925949

> <Weight>
379.88901

> <weinerPath>
1153

> <weinerPol>
37

> <zagreb>
128

$$$$
Row1510
 OpenBabel06061811532D

 24 27  0  0  1  0  0  0  0  0999 V2000
    0.0000    0.0000    0.0000 Cl  0  0  0  0  0  0  0  0  0  0  0  0
    0.0000    0.0000    0.0000 C   0  0  0  0  0  0  0  0  0  0  0  0
    0.0000    0.0000    0.0000 C   0  0  0  0  0  0  0  0  0  0  0  0
    0.0000    0.0000    0.0000 C   0  0  0  0  0  0  0  0  0  0  0  0
    0.0000    0.0000    0.0000 N   0  0  0  0  0  0  0  0  0  0  0  0
    0.0000    0.0000    0.0000 C   0  0  3  0  0  0  0  0  0  0  0  0
    0.0000    0.0000    0.0000 N   0  0  0  0  0  0  0  0  0  0  0  0
    0.0000    0.0000    0.0000 S   0  0  0  0  0  0  0  0  0  0  0  0
    0.0000    0.0000    0.0000 O   0  0  0  0  0  0  0  0  0  0  0  0
    0.0000    0.0000    0.0000 O   0  0  0  0  0  0  0  0  0  0  0  0
    0.0000    0.0000    0.0000 C   0  0  0  0  0  0  0  0  0  0  0  0
    0.0000    0.0000    0.0000 C   0  0  0  0  0  0  0  0  0  0  0  0
    0.0000    0.0000    0.0000 C   0  0  0  0  0  0  0  0  0  0  0  0
    0.0000    0.0000    0.0000 S   0  0  0  0  0  0  0  0  0  0  0  0
    0.0000    0.0000    0.0000 O   0  0  0  0  0  0  0  0  0  0  0  0
    0.0000    0.0000    0.0000 O   0  0  0  0  0  0  0  0  0  0  0  0
    0.0000    0.0000    0.0000 N   0  0  0  0  0  0  0  0  0  0  0  0
    0.0000    0.0000    0.0000 C   0  0  3  0  0  0  0  0  0  0  0  0
    0.0000    0.0000    0.0000 C   0  0  3  0  0  0  0  0  0  0  0  0
    0.0000    0.0000    0.0000 C   0  0  0  0  0  0  0  0  0  0  0  0
    0.0000    0.0000    0.0000 C   0  0  3  0  0  0  0  0  0  0  0  0
    0.0000    0.0000    0.0000 C   0  0  0  0  0  0  0  0  0  0  0  0
    0.0000    0.0000    0.0000 C   0  0  0  0  0  0  0  0  0  0  0  0
    0.0000    0.0000    0.0000 C   0  0  0  0  0  0  0  0  0  0  0  0
  1  2  1  0  0  0  0
  2 13  1  0  0  0  0
  2  3  2  0  0  0  0
  3  4  1  0  0  0  0
  4 11  2  0  0  0  0
  4  5  1  0  0  0  0
  5  6  1  0  0  0  0
  6  7  1  0  0  0  0
  6 18  1  0  0  0  0
  7  8  1  0  0  0  0
  8  9  2  0  0  0  0
  8 10  2  0  0  0  0
  8 11  1  0  0  0  0
 11 12  1  0  0  0  0
 12 13  2  0  0  0  0
 13 14  1  0  0  0  0
 14 15  2  0  0  0  0
 14 16  2  0  0  0  0
 14 17  1  0  0  0  0
 18 22  1  0  0  0  0
 18 19  1  0  0  0  0
 19 24  1  0  0  0  0
 19 20  1  0  0  0  0
 20 21  1  0  0  0  0
 21 22  1  0  0  0  0
 21 23  1  0  0  0  0
 23 24  2  0  0  0  0
M  END
> <Index>
1511

> <ID>
HT0572

> <class>
1

> <apol>
49.796688

> <ast_fraglike>
0

> <ast_fraglike_ext>
0

> <ast_violation>
2

> <ast_violation_ext>
3

> <a_acc>
4

> <a_acid>
0

> <a_aro>
6

> <a_base>
0

> <a_count>
40

> <a_don>
3

> <a_donacc>
7

> <a_heavy>
24

> <a_hyd>
14

> <a_IC>
80.819267

> <a_ICM>
2.0204816

> <a_nB>
0

> <a_nBr>
0

> <a_nC>
14

> <a_nCl>
1

> <a_nF>
0

> <a_nH>
16

> <a_nI>
0

> <a_nN>
3

> <a_nO>
4

> <a_nP>
0

> <a_nS>
2

> <balabanJ>
1.5152946

> <BCUT_PEOE_0>
-2.7190175

> <BCUT_PEOE_1>
-0.61891085

> <BCUT_PEOE_2>
0.56131452

> <BCUT_PEOE_3>
2.8295004

> <BCUT_SLOGP_0>
-2.8234067

> <BCUT_SLOGP_1>
-0.54543579

> <BCUT_SLOGP_2>
0.63620895

> <BCUT_SLOGP_3>
2.9029412

> <BCUT_SMR_0>
-2.4258962

> <BCUT_SMR_1>
-0.48087427

> <BCUT_SMR_2>
0.68334728

> <BCUT_SMR_3>
3.104898

> <bpol>
31.523312

> <b_1rotN>
2

> <b_1rotR>
0.074074075

> <b_ar>
6

> <b_count>
43

> <b_double>
1

> <b_heavy>
27

> <b_max1len>
3

> <b_rotN>
2

> <b_rotR>
0.074074075

> <b_single>
36

> <b_triple>
0

> <chi0>
17.275656

> <chi0v>
14.826742

> <chi0v_C>
8.0330153

> <chi0_C>
8.8614426

> <chi1>
11.148815

> <chi1v>
10.892881

> <chi1v_C>
4.9543605

> <chi1_C>
5.9158163

> <chiral>
4

> <chiral_u>
4

> <density>
0.93448383

> <diameter>
11

> <FCharge>
0

> <GCUT_PEOE_0>
-0.887824

> <GCUT_PEOE_1>
-0.42685947

> <GCUT_PEOE_2>
0.039626595

> <GCUT_PEOE_3>
2.8349435

> <GCUT_SLOGP_0>
-1.3482869

> <GCUT_SLOGP_1>
-0.39967066

> <GCUT_SLOGP_2>
0.12911138

> <GCUT_SLOGP_3>
2.8716235

> <GCUT_SMR_0>
-0.53365314

> <GCUT_SMR_1>
-0.18800239

> <GCUT_SMR_2>
0.15267047

> <GCUT_SMR_3>
3.1013803

> <Kier1>
17.415638

> <Kier2>
5.75

> <Kier3>
3.0214031

> <KierA1>
17.972254

> <KierA2>
5.9421

> <KierA3>
3.1254895

> <KierFlex>
4.4497051

> <lip_acc>
7

> <lip_don>
4

> <lip_druglike>
1

> <lip_violation>
0

> <logP(o/w)>
0.58499998

> <logS>
-3.4330201

> <mr>
9.0549965

> <mutagenic>
0

> <nmol>
1

> <opr_brigid>
19

> <opr_leadlike>
1

> <opr_nring>
4

> <opr_nrot>
3

> <opr_violation>
0

> <PC+>
0

> <PC->
0

> <PEOE_PC+>
1.8455769

> <PEOE_PC->
-1.8455769

> <PEOE_RPC+>
0.16783276

> <PEOE_RPC->
0.2074904

> <PEOE_VSA+0>
75.803246

> <PEOE_VSA+1>
25.680557

> <PEOE_VSA+2>
26.880259

> <PEOE_VSA+3>
0.0

> <PEOE_VSA+4>
0.0

> <PEOE_VSA+5>
0.0

> <PEOE_VSA+6>
8.3692026

> <PEOE_VSA-0>
38.276543

> <PEOE_VSA-1>
54.091755

> <PEOE_VSA-2>
34.546043

> <PEOE_VSA-3>
9.0437498

> <PEOE_VSA-4>
32.016521

> <PEOE_VSA-5>
0.0

> <PEOE_VSA-6>
0.13689101

> <PEOE_VSA_FHYD>
0.86707133

> <PEOE_VSA_FNEG>
0.55146593

> <PEOE_VSA_FPNEG>
0.10547471

> <PEOE_VSA_FPOL>
0.1329287

> <PEOE_VSA_FPOS>
0.44853407

> <PEOE_VSA_FPPOS>
0.027453981

> <PEOE_VSA_HYD>
264.32214

> <PEOE_VSA_NEG>
168.11151

> <PEOE_VSA_PNEG>
32.153416

> <PEOE_VSA_POL>
40.522617

> <PEOE_VSA_POS>
136.73326

> <PEOE_VSA_PPOS>
8.3692026

> <petitjean>
0.45454547

> <petitjeanSC>
0.83333331

> <Q_PC+>
0

> <Q_PC->
0

> <Q_RPC+>
0

> <Q_RPC->
0

> <Q_VSA_FHYD>
1

> <Q_VSA_FNEG>
0

> <Q_VSA_FPNEG>
0

> <Q_VSA_FPOL>
0

> <Q_VSA_FPOS>
1

> <Q_VSA_FPPOS>
0

> <Q_VSA_HYD>
304.84476

> <Q_VSA_NEG>
0

> <Q_VSA_PNEG>
0

> <Q_VSA_POL>
0

> <Q_VSA_POS>
304.84476

> <Q_VSA_PPOS>
0

> <radius>
6

> <reactive>
0

> <rings>
4

> <RPC+>
0

> <RPC->
0

> <rsynth>
1.0

> <SlogP>
1.2295001

> <SlogP_VSA0>
47.69643

> <SlogP_VSA1>
114.35413

> <SlogP_VSA2>
16.834627

> <SlogP_VSA3>
0.0

> <SlogP_VSA4>
13.232388

> <SlogP_VSA5>
3.1014678

> <SlogP_VSA6>
3.5006065

> <SlogP_VSA7>
70.572739

> <SlogP_VSA8>
37.736813

> <SlogP_VSA9>
41.905392

> <SMR>
8.9401398

> <SMR_VSA0>
96.343376

> <SMR_VSA1>
0.0

> <SMR_VSA2>
32.738853

> <SMR_VSA3>
7.0537477

> <SMR_VSA4>
52.058933

> <SMR_VSA5>
108.30955

> <SMR_VSA6>
0.0

> <SMR_VSA7>
52.43013

> <TPSA>
118.36

> <VAdjEq>
0.44886449

> <VAdjMa>
5.7548876

> <VDistEq>
3.2076747

> <VDistMa>
8.8844547

> <vdw_area>
304.84476

> <vdw_vol>
417.21857

> <vsa_acc>
64.033043

> <vsa_acid>
0

> <vsa_base>
0

> <vsa_don>
33.892902

> <vsa_hyd>
150.64703

> <vsa_other>
31.401779

> <vsa_pol>
97.925949

> <Weight>
389.884

> <weinerPath>
1243

> <weinerPol>
40

> <zagreb>
142

$$$$
Row1511
 OpenBabel06061811532D

 22 24  0  0  1  0  0  0  0  0999 V2000
    0.0000    0.0000    0.0000 S   0  0  0  0  0  0  0  0  0  0  0  0
    0.0000    0.0000    0.0000 C   0  0  0  0  0  0  0  0  0  0  0  0
    0.0000    0.0000    0.0000 C   0  0  0  0  0  0  0  0  0  0  0  0
    0.0000    0.0000    0.0000 C   0  0  0  0  0  0  0  0  0  0  0  0
    0.0000    0.0000    0.0000 C   0  0  0  0  0  0  0  0  0  0  0  0
    0.0000    0.0000    0.0000 C   0  0  1  0  0  0  0  0  0  0  0  0
    0.0000    0.0000    0.0000 H   0  0  0  0  0  0  0  0  0  0  0  0
    0.0000    0.0000    0.0000 O   0  0  0  0  0  0  0  0  0  0  0  0
    0.0000    0.0000    0.0000 C   0  0  0  0  0  0  0  0  0  0  0  0
    0.0000    0.0000    0.0000 C   0  0  0  0  0  0  0  0  0  0  0  0
    0.0000    0.0000    0.0000 C   0  0  0  0  0  0  0  0  0  0  0  0
    0.0000    0.0000    0.0000 C   0  0  0  0  0  0  0  0  0  0  0  0
    0.0000    0.0000    0.0000 C   0  0  0  0  0  0  0  0  0  0  0  0
    0.0000    0.0000    0.0000 C   0  0  0  0  0  0  0  0  0  0  0  0
    0.0000    0.0000    0.0000 C   0  0  0  0  0  0  0  0  0  0  0  0
    0.0000    0.0000    0.0000 C   0  0  0  0  0  0  0  0  0  0  0  0
    0.0000    0.0000    0.0000 C   0  0  0  0  0  0  0  0  0  0  0  0
    0.0000    0.0000    0.0000 C   0  0  0  0  0  0  0  0  0  0  0  0
    0.0000    0.0000    0.0000 C   0  0  0  0  0  0  0  0  0  0  0  0
    0.0000    0.0000    0.0000 C   0  0  0  0  0  0  0  0  0  0  0  0
    0.0000    0.0000    0.0000 N   0  0  0  0  0  0  0  0  0  0  0  0
    0.0000    0.0000    0.0000 C   0  0  0  0  0  0  0  0  0  0  0  0
  1  5  1  0  0  0  0
  1  2  1  0  0  0  0
  2  3  2  0  0  0  0
  3  4  1  0  0  0  0
  4  5  2  0  0  0  0
  5  6  1  0  0  0  0
  6  7  1  0  0  0  0
  6  8  1  0  0  0  0
  6 19  1  0  0  0  0
  8  9  1  0  0  0  0
  9 14  1  0  0  0  0
  9 10  2  0  0  0  0
 10 18  1  0  0  0  0
 10 11  1  0  0  0  0
 11 12  2  0  0  0  0
 11 15  1  0  0  0  0
 12 13  1  0  0  0  0
 13 14  2  0  0  0  0
 15 16  2  0  0  0  0
 16 17  1  0  0  0  0
 17 18  2  0  0  0  0
 19 20  1  0  0  0  0
 20 21  1  0  0  0  0
 21 22  1  0  0  0  0
M  END
> <Index>
1512

> <ID>
HT0574

> <class>
1

> <apol>
49.151066

> <ast_fraglike>
0

> <ast_fraglike_ext>
0

> <ast_violation>
1

> <ast_violation_ext>
2

> <a_acc>
2

> <a_acid>
0

> <a_aro>
15

> <a_base>
0

> <a_count>
40

> <a_don>
1

> <a_donacc>
3

> <a_heavy>
21

> <a_hyd>
19

> <a_IC>
57.107849

> <a_ICM>
1.4276962

> <a_nB>
0

> <a_nBr>
0

> <a_nC>
18

> <a_nCl>
0

> <a_nF>
0

> <a_nH>
19

> <a_nI>
0

> <a_nN>
1

> <a_nO>
1

> <a_nP>
0

> <a_nS>
1

> <balabanJ>
1.6009096

> <BCUT_PEOE_0>
-2.5944734

> <BCUT_PEOE_1>
-0.60546988

> <BCUT_PEOE_2>
0.6798743

> <BCUT_PEOE_3>
2.5480077

> <BCUT_SLOGP_0>
-2.6822016

> <BCUT_SLOGP_1>
-0.48880014

> <BCUT_SLOGP_2>
0.71206909

> <BCUT_SLOGP_3>
2.629246

> <BCUT_SMR_0>
-2.3306544

> <BCUT_SMR_1>
-0.45282492

> <BCUT_SMR_2>
0.80444551

> <BCUT_SMR_3>
2.8085783

> <bpol>
25.626932

> <b_1rotN>
6

> <b_1rotR>
0.26086956

> <b_ar>
16

> <b_count>
42

> <b_double>
0

> <b_heavy>
23

> <b_max1len>
6

> <b_rotN>
6

> <b_rotR>
0.26086956

> <b_single>
26

> <b_triple>
0

> <chi0>
14.493353

> <chi0v>
12.89806

> <chi0v_C>
10.765066

> <chi0_C>
12.372033

> <chi1>
10.381341

> <chi1v>
8.0864916

> <chi1v_C>
5.4736323

> <chi1_C>
7.4494896

> <chiral>
1

> <chiral_u>
0

> <density>
0.70822769

> <diameter>
10

> <FCharge>
0

> <GCUT_PEOE_0>
-0.85376841

> <GCUT_PEOE_1>
-0.3891643

> <GCUT_PEOE_2>
0.08960776

> <GCUT_PEOE_3>
2.5442338

> <GCUT_SLOGP_0>
-1.1525475

> <GCUT_SLOGP_1>
-0.2486019

> <GCUT_SLOGP_2>
0.19458726

> <GCUT_SLOGP_3>
2.7101195

> <GCUT_SMR_0>
-0.517205

> <GCUT_SMR_1>
-0.19866346

> <GCUT_SMR_2>
0.20433466

> <GCUT_SMR_3>
2.8450353

> <Kier1>
15.879017

> <Kier2>
8.0222225

> <Kier3>
4.0500002

> <KierA1>
12.981449

> <KierA2>
6.4878211

> <KierA3>
3.2482464

> <KierFlex>
4.0105391

> <lip_acc>
2

> <lip_don>
1

> <lip_druglike>
1

> <lip_violation>
0

> <logP(o/w)>
4.572

> <logS>
-4.85642

> <mr>
9.1028519

> <mutagenic>
0

> <nmol>
1

> <opr_brigid>
16

> <opr_leadlike>
1

> <opr_nring>
3

> <opr_nrot>
6

> <opr_violation>
1

> <PC+>
0

> <PC->
0

> <PEOE_PC+>
1.3932621

> <PEOE_PC->
-1.3932621

> <PEOE_RPC+>
0.11373015

> <PEOE_RPC->
0.24197452

> <PEOE_VSA+0>
36.331627

> <PEOE_VSA+1>
56.017307

> <PEOE_VSA+2>
8.6190128

> <PEOE_VSA+3>
19.760618

> <PEOE_VSA+4>
0.0

> <PEOE_VSA+5>
0.0

> <PEOE_VSA+6>
0.0

> <PEOE_VSA-0>
59.595772

> <PEOE_VSA-1>
102.22383

> <PEOE_VSA-2>
14.230966

> <PEOE_VSA-3>
0.0

> <PEOE_VSA-4>
0.0

> <PEOE_VSA-5>
0.0

> <PEOE_VSA-6>
2.6406472

> <PEOE_VSA_FHYD>
0.99118078

> <PEOE_VSA_FNEG>
0.59679163

> <PEOE_VSA_FPNEG>
0.0088192141

> <PEOE_VSA_FPOL>
0.0088192141

> <PEOE_VSA_FPOS>
0.40320837

> <PEOE_VSA_FPPOS>
0.0

> <PEOE_VSA_HYD>
296.77914

> <PEOE_VSA_NEG>
178.69122

> <PEOE_VSA_PNEG>
2.6406472

> <PEOE_VSA_POL>
2.6406472

> <PEOE_VSA_POS>
120.72857

> <PEOE_VSA_PPOS>
0.0

> <petitjean>
0.5

> <petitjeanSC>
1.0

> <Q_PC+>
0

> <Q_PC->
0

> <Q_RPC+>
0

> <Q_RPC->
0

> <Q_VSA_FHYD>
1

> <Q_VSA_FNEG>
0

> <Q_VSA_FPNEG>
0

> <Q_VSA_FPOL>
0

> <Q_VSA_FPOS>
1

> <Q_VSA_FPPOS>
0

> <Q_VSA_HYD>
299.41977

> <Q_VSA_NEG>
0

> <Q_VSA_PNEG>
0

> <Q_VSA_POL>
0

> <Q_VSA_POS>
299.41977

> <Q_VSA_PPOS>
0

> <radius>
5

> <reactive>
0

> <rings>
3

> <RPC+>
0

> <RPC->
0

> <rsynth>
0.5714286

> <SlogP>
4.7263999

> <SlogP_VSA0>
29.010639

> <SlogP_VSA1>
0.0

> <SlogP_VSA2>
0.0

> <SlogP_VSA3>
18.439579

> <SlogP_VSA4>
1.3584013

> <SlogP_VSA5>
32.897186

> <SlogP_VSA6>
0.0

> <SlogP_VSA7>
179.7506

> <SlogP_VSA8>
25.337055

> <SlogP_VSA9>
36.521114

> <SMR>
9.0290699

> <SMR_VSA0>
0.0

> <SMR_VSA1>
10.999887

> <SMR_VSA2>
18.01075

> <SMR_VSA3>
13.070478

> <SMR_VSA4>
5.1459289

> <SMR_VSA5>
193.47307

> <SMR_VSA6>
18.439579

> <SMR_VSA7>
64.174873

> <TPSA>
21.26

> <VAdjEq>
0.48250595

> <VAdjMa>
5.523562

> <VDistEq>
3.1063778

> <VDistMa>
8.51017

> <vdw_area>
299.41977

> <vdw_vol>
419.95251

> <vsa_acc>
2.503756

> <vsa_acid>
0

> <vsa_base>
0

> <vsa_don>
0.0

> <vsa_hyd>
275.34781

> <vsa_other>
0.0

> <vsa_pol>
8.1863317

> <Weight>
297.422

> <weinerPath>
931

> <weinerPol>
29

> <zagreb>
106

$$$$
Row1512
 OpenBabel06061811532D

 22 25  0  0  0  0  0  0  0  0999 V2000
    0.0000    0.0000    0.0000 N   0  0  0  0  0  0  0  0  0  0  0  0
    0.0000    0.0000    0.0000 C   0  0  0  0  0  0  0  0  0  0  0  0
    0.0000    0.0000    0.0000 C   0  0  0  0  0  0  0  0  0  0  0  0
    0.0000    0.0000    0.0000 C   0  0  0  0  0  0  0  0  0  0  0  0
    0.0000    0.0000    0.0000 C   0  0  0  0  0  0  0  0  0  0  0  0
    0.0000    0.0000    0.0000 C   0  0  0  0  0  0  0  0  0  0  0  0
    0.0000    0.0000    0.0000 C   0  0  0  0  0  0  0  0  0  0  0  0
    0.0000    0.0000    0.0000 C   0  0  0  0  0  0  0  0  0  0  0  0
    0.0000    0.0000    0.0000 C   0  0  0  0  0  0  0  0  0  0  0  0
    0.0000    0.0000    0.0000 C   0  0  0  0  0  0  0  0  0  0  0  0
    0.0000    0.0000    0.0000 C   0  0  0  0  0  0  0  0  0  0  0  0
    0.0000    0.0000    0.0000 C   0  0  0  0  0  0  0  0  0  0  0  0
    0.0000    0.0000    0.0000 C   0  0  0  0  0  0  0  0  0  0  0  0
    0.0000    0.0000    0.0000 C   0  0  0  0  0  0  0  0  0  0  0  0
    0.0000    0.0000    0.0000 C   0  0  0  0  0  0  0  0  0  0  0  0
    0.0000    0.0000    0.0000 C   0  0  0  0  0  0  0  0  0  0  0  0
    0.0000    0.0000    0.0000 C   0  0  0  0  0  0  0  0  0  0  0  0
    0.0000    0.0000    0.0000 C   0  0  0  0  0  0  0  0  0  0  0  0
    0.0000    0.0000    0.0000 C   0  0  0  0  0  0  0  0  0  0  0  0
    0.0000    0.0000    0.0000 C   0  0  0  0  0  0  0  0  0  0  0  0
    0.0000    0.0000    0.0000 C   0  0  0  0  0  0  0  0  0  0  0  0
    0.0000    0.0000    0.0000 C   0  0  0  0  0  0  0  0  0  0  0  0
  1  6  1  0  0  0  0
  1  2  1  0  0  0  0
  1 22  1  0  0  0  0
  2  3  1  0  0  0  0
  3  4  1  0  0  0  0
  4  5  1  0  0  0  0
  4  7  2  0  0  0  0
  5  6  1  0  0  0  0
  7 13  1  0  0  0  0
  7  8  1  0  0  0  0
  8 21  1  0  0  0  0
  8  9  2  0  0  0  0
  9 10  1  0  0  0  0
  9 18  1  0  0  0  0
 10 11  2  0  0  0  0
 11 12  1  0  0  0  0
 12 17  1  0  0  0  0
 12 13  2  0  0  0  0
 13 14  1  0  0  0  0
 14 15  2  0  0  0  0
 15 16  1  0  0  0  0
 16 17  2  0  0  0  0
 18 19  2  0  0  0  0
 19 20  1  0  0  0  0
 20 21  2  0  0  0  0
M  END
> <Index>
1513

> <ID>
HT0575

> <class>
1

> <apol>
52.062653

> <ast_fraglike>
0

> <ast_fraglike_ext>
0

> <ast_violation>
1

> <ast_violation_ext>
1

> <a_acc>
1

> <a_acid>
0

> <a_aro>
12

> <a_base>
0

> <a_count>
43

> <a_don>
0

> <a_donacc>
1

> <a_heavy>
22

> <a_hyd>
21

> <a_IC>
48.852055

> <a_ICM>
1.1360942

> <a_nB>
0

> <a_nBr>
0

> <a_nC>
21

> <a_nCl>
0

> <a_nF>
0

> <a_nH>
21

> <a_nI>
0

> <a_nN>
1

> <a_nO>
0

> <a_nP>
0

> <a_nS>
0

> <balabanJ>
1.5936897

> <BCUT_PEOE_0>
-2.719295

> <BCUT_PEOE_1>
-0.53039742

> <BCUT_PEOE_2>
0.59294623

> <BCUT_PEOE_3>
2.6289387

> <BCUT_SLOGP_0>
-2.7418923

> <BCUT_SLOGP_1>
-0.42984164

> <BCUT_SLOGP_2>
0.69125295

> <BCUT_SLOGP_3>
2.6661305

> <BCUT_SMR_0>
-2.4355936

> <BCUT_SMR_1>
-0.40237349

> <BCUT_SMR_2>
0.7282846

> <BCUT_SMR_3>
2.9093044

> <bpol>
24.937347

> <b_1rotN>
0

> <b_1rotR>
0.0

> <b_ar>
12

> <b_count>
46

> <b_double>
2

> <b_heavy>
25

> <b_max1len>
2

> <b_rotN>
0

> <b_rotR>
0.0

> <b_single>
32

> <b_triple>
0

> <chi0>
14.940947

> <chi0v>
13.049144

> <chi0v_C>
12.60193

> <chi0_C>
14.363597

> <chi1>
10.8265

> <chi1v>
8.1021605

> <chi1v_C>
7.022491

> <chi1_C>
9.4326534

> <chiral>
0

> <chiral_u>
0

> <density>
0.65021956

> <diameter>
9

> <FCharge>
0

> <GCUT_PEOE_0>
-0.85852575

> <GCUT_PEOE_1>
-0.34196097

> <GCUT_PEOE_2>
0.060647137

> <GCUT_PEOE_3>
2.7646155

> <GCUT_SLOGP_0>
-0.95211732

> <GCUT_SLOGP_1>
-0.27294347

> <GCUT_SLOGP_2>
0.1404313

> <GCUT_SLOGP_3>
2.88764

> <GCUT_SMR_0>
-0.51357502

> <GCUT_SMR_1>
-0.18543972

> <GCUT_SMR_2>
0.16025594

> <GCUT_SMR_3>
3.0634098

> <Kier1>
15.5232

> <Kier2>
6.8571429

> <Kier3>
3.1653478

> <KierA1>
11.409105

> <KierA2>
4.9597645

> <KierA3>
2.2629981

> <KierFlex>
2.5721126

> <lip_acc>
1

> <lip_don>
0

> <lip_druglike>
1

> <lip_violation>
0

> <logP(o/w)>
4.809

> <logS>
-4.0636902

> <mr>
9.1652937

> <mutagenic>
0

> <nmol>
1

> <opr_brigid>
24

> <opr_leadlike>
1

> <opr_nring>
4

> <opr_nrot>
2

> <opr_violation>
1

> <PC+>
0

> <PC->
0

> <PEOE_PC+>
1.0440087

> <PEOE_PC->
-1.0440087

> <PEOE_RPC+>
0.059750367

> <PEOE_RPC->
0.29188582

> <PEOE_VSA+0>
73.303894

> <PEOE_VSA+1>
42.653858

> <PEOE_VSA+2>
0.0

> <PEOE_VSA+3>
0.0

> <PEOE_VSA+4>
0.0

> <PEOE_VSA+5>
0.0

> <PEOE_VSA+6>
0.0

> <PEOE_VSA-0>
51.684013

> <PEOE_VSA-1>
124.75758

> <PEOE_VSA-2>
0.0

> <PEOE_VSA-3>
0.0

> <PEOE_VSA-4>
0.0

> <PEOE_VSA-5>
0.0

> <PEOE_VSA-6>
0.0

> <PEOE_VSA_FHYD>
1.0

> <PEOE_VSA_FNEG>
0.60342675

> <PEOE_VSA_FPNEG>
0.0

> <PEOE_VSA_FPOL>
0.0

> <PEOE_VSA_FPOS>
0.39657325

> <PEOE_VSA_FPPOS>
0.0

> <PEOE_VSA_HYD>
292.39935

> <PEOE_VSA_NEG>
176.44159

> <PEOE_VSA_PNEG>
0.0

> <PEOE_VSA_POL>
0.0

> <PEOE_VSA_POS>
115.95776

> <PEOE_VSA_PPOS>
0.0

> <petitjean>
0.44444445

> <petitjeanSC>
0.80000001

> <Q_PC+>
0

> <Q_PC->
0

> <Q_RPC+>
0

> <Q_RPC->
0

> <Q_VSA_FHYD>
1

> <Q_VSA_FNEG>
0

> <Q_VSA_FPNEG>
0

> <Q_VSA_FPOL>
0

> <Q_VSA_FPOS>
1

> <Q_VSA_FPPOS>
0

> <Q_VSA_HYD>
292.39935

> <Q_VSA_NEG>
0

> <Q_VSA_PNEG>
0

> <Q_VSA_POL>
0

> <Q_VSA_POS>
292.39935

> <Q_VSA_PPOS>
0

> <radius>
5

> <reactive>
0

> <rings>
4

> <RPC+>
0

> <RPC->
0

> <rsynth>
1.0

> <SlogP>
4.5151901

> <SlogP_VSA0>
0.0

> <SlogP_VSA1>
3.1243138

> <SlogP_VSA2>
0.0

> <SlogP_VSA3>
40.064732

> <SlogP_VSA4>
12.7423

> <SlogP_VSA5>
36.082764

> <SlogP_VSA6>
0.0

> <SlogP_VSA7>
141.14548

> <SlogP_VSA8>
73.023178

> <SlogP_VSA9>
0.0

> <SMR>
9.3502998

> <SMR_VSA0>
0.0

> <SMR_VSA1>
3.1243138

> <SMR_VSA2>
3.185575

> <SMR_VSA3>
15.927875

> <SMR_VSA4>
0.0

> <SMR_VSA5>
178.88228

> <SMR_VSA6>
72.165527

> <SMR_VSA7>
32.897186

> <TPSA>
3.24

> <VAdjEq>
0.47938794

> <VAdjMa>
5.643856

> <VDistEq>
2.9295075

> <VDistMa>
8.6701803

> <vdw_area>
292.39935

> <vdw_vol>
442.01373

> <vsa_acc>
0.0

> <vsa_acid>
0

> <vsa_base>
0

> <vsa_don>
0.0

> <vsa_hyd>
277.45166

> <vsa_other>
0.0

> <vsa_pol>
0.0

> <Weight>
287.40601

> <weinerPath>
928

> <weinerPol>
40

> <zagreb>
120

$$$$
Row1513
 OpenBabel06061811532D

 28 32  0  0  1  0  0  0  0  0999 V2000
    0.0000    0.0000    0.0000 O   0  0  0  0  0  0  0  0  0  0  0  0
    0.0000    0.0000    0.0000 N   0  0  0  0  0  0  0  0  0  0  0  0
    0.0000    0.0000    0.0000 C   0  0  0  0  0  0  0  0  0  0  0  0
    0.0000    0.0000    0.0000 C   0  0  0  0  0  0  0  0  0  0  0  0
    0.0000    0.0000    0.0000 C   0  0  0  0  0  0  0  0  0  0  0  0
    0.0000    0.0000    0.0000 C   0  0  1  0  0  0  0  0  0  0  0  0
    0.0000    0.0000    0.0000 C   0  0  2  0  0  0  0  0  0  0  0  0
    0.0000    0.0000    0.0000 H   0  0  0  0  0  0  0  0  0  0  0  0
    0.0000    0.0000    0.0000 C   0  0  2  0  0  0  0  0  0  0  0  0
    0.0000    0.0000    0.0000 H   0  0  0  0  0  0  0  0  0  0  0  0
    0.0000    0.0000    0.0000 C   0  0  2  0  0  0  0  0  0  0  0  0
    0.0000    0.0000    0.0000 H   0  0  0  0  0  0  0  0  0  0  0  0
    0.0000    0.0000    0.0000 C   0  0  0  0  0  0  0  0  0  0  0  0
    0.0000    0.0000    0.0000 C   0  0  0  0  0  0  0  0  0  0  0  0
    0.0000    0.0000    0.0000 C   0  0  2  0  0  0  0  0  0  0  0  0
    0.0000    0.0000    0.0000 O   0  0  0  0  0  0  0  0  0  0  0  0
    0.0000    0.0000    0.0000 C   0  0  0  0  0  0  0  0  0  0  0  0
    0.0000    0.0000    0.0000 C   0  0  0  0  0  0  0  0  0  0  0  0
    0.0000    0.0000    0.0000 C   0  0  2  0  0  0  0  0  0  0  0  0
    0.0000    0.0000    0.0000 C   0  0  0  0  0  0  0  0  0  0  0  0
    0.0000    0.0000    0.0000 C   0  0  0  0  0  0  0  0  0  0  0  0
    0.0000    0.0000    0.0000 C   0  0  0  0  0  0  0  0  0  0  0  0
    0.0000    0.0000    0.0000 C   0  0  0  0  0  0  0  0  0  0  0  0
    0.0000    0.0000    0.0000 C   0  0  0  0  0  0  0  0  0  0  0  0
    0.0000    0.0000    0.0000 C   0  0  0  0  0  0  0  0  0  0  0  0
    0.0000    0.0000    0.0000 C   0  0  0  0  0  0  0  0  0  0  0  0
    0.0000    0.0000    0.0000 C   0  0  0  0  0  0  0  0  0  0  0  0
    0.0000    0.0000    0.0000 C   0  0  0  0  0  0  0  0  0  0  0  0
  1 27  1  0  0  0  0
  1  2  1  0  0  0  0
  2  3  2  0  0  0  0
  3  4  1  0  0  0  0
  4 27  2  0  0  0  0
  4  5  1  0  0  0  0
  5  6  1  0  0  0  0
  6 25  1  0  0  0  0
  6  7  1  0  0  0  0
  6 28  1  0  0  0  0
  7  8  1  0  0  0  0
  7 21  1  0  0  0  0
  7  9  1  0  0  0  0
  9 10  1  0  0  0  0
  9 11  1  0  0  0  0
  9 23  1  0  0  0  0
 11 12  1  0  0  0  0
 11 19  1  0  0  0  0
 11 13  1  0  0  0  0
 13 14  1  0  0  0  0
 14 15  1  0  0  0  0
 15 16  1  0  0  0  0
 15 17  1  0  0  0  0
 15 19  1  0  0  0  0
 17 18  3  0  0  0  0
 19 20  1  0  0  0  0
 19 22  1  0  0  0  0
 20 21  1  0  0  0  0
 23 24  1  0  0  0  0
 24 25  1  0  0  0  0
 25 26  2  0  0  0  0
 26 27  1  0  0  0  0
M  END
> <Index>
1514

> <ID>
HT0587

> <class>
1

> <apol>
59.42741

> <ast_fraglike>
0

> <ast_fraglike_ext>
0

> <ast_violation>
2

> <ast_violation_ext>
2

> <a_acc>
2

> <a_acid>
0

> <a_aro>
5

> <a_base>
0

> <a_count>
52

> <a_don>
1

> <a_donacc>
3

> <a_heavy>
25

> <a_hyd>
21

> <a_IC>
67.933411

> <a_ICM>
1.3064116

> <a_nB>
0

> <a_nBr>
0

> <a_nC>
22

> <a_nCl>
0

> <a_nF>
0

> <a_nH>
27

> <a_nI>
0

> <a_nN>
1

> <a_nO>
2

> <a_nP>
0

> <a_nS>
0

> <balabanJ>
1.4478934

> <BCUT_PEOE_0>
-2.936666

> <BCUT_PEOE_1>
-0.49345723

> <BCUT_PEOE_2>
0.52939779

> <BCUT_PEOE_3>
2.9600303

> <BCUT_SLOGP_0>
-2.863404

> <BCUT_SLOGP_1>
-0.44054025

> <BCUT_SLOGP_2>
0.52342498

> <BCUT_SLOGP_3>
3.0279944

> <BCUT_SMR_0>
-2.6825399

> <BCUT_SMR_1>
-0.33906898

> <BCUT_SMR_2>
0.71568722

> <BCUT_SMR_3>
3.2090709

> <bpol>
31.432589

> <b_1rotN>
0

> <b_1rotR>
0.0

> <b_ar>
5

> <b_count>
56

> <b_double>
1

> <b_heavy>
29

> <b_max1len>
3

> <b_rotN>
1

> <b_rotR>
0.034482758

> <b_single>
49

> <b_triple>
1

> <chi0>
17.449383

> <chi0v>
15.216524

> <chi0v_C>
13.913849

> <chi0_C>
15.03517

> <chi1>
11.91158

> <chi1v>
9.7597332

> <chi1v_C>
8.8912296

> <chi1_C>
10.003332

> <chiral>
6

> <chiral_u>
0

> <density>
0.69471681

> <diameter>
11

> <FCharge>
0

> <GCUT_PEOE_0>
-0.80007452

> <GCUT_PEOE_1>
-0.3724536

> <GCUT_PEOE_2>
0.020363826

> <GCUT_PEOE_3>
3.2926981

> <GCUT_SLOGP_0>
-0.88827085

> <GCUT_SLOGP_1>
-0.30260912

> <GCUT_SLOGP_2>
0.01699708

> <GCUT_SLOGP_3>
3.3762915

> <GCUT_SMR_0>
-0.53814089

> <GCUT_SMR_1>
-0.19682214

> <GCUT_SMR_2>
0.16893648

> <GCUT_SMR_3>
3.5242481

> <Kier1>
17.122473

> <Kier2>
5.5104165

> <Kier3>
2.1212564

> <KierA1>
14.597068

> <KierA2>
4.6647358

> <KierA3>
1.7862594

> <KierFlex>
2.7236588

> <lip_acc>
3

> <lip_don>
1

> <lip_druglike>
1

> <lip_violation>
0

> <logP(o/w)>
3.642

> <logS>
-5.56988

> <mr>
9.7230959

> <mutagenic>
0

> <nmol>
1

> <opr_brigid>
25

> <opr_leadlike>
1

> <opr_nring>
5

> <opr_nrot>
1

> <opr_violation>
1

> <PC+>
0

> <PC->
0

> <PEOE_PC+>
1.5245159

> <PEOE_PC->
-1.5245159

> <PEOE_RPC+>
0.13867146

> <PEOE_RPC->
0.24662763

> <PEOE_VSA+0>
100.31242

> <PEOE_VSA+1>
25.276688

> <PEOE_VSA+2>
4.2653861

> <PEOE_VSA+3>
8.458519

> <PEOE_VSA+4>
10.324173

> <PEOE_VSA+5>
0.0

> <PEOE_VSA+6>
0.0

> <PEOE_VSA-0>
73.164093

> <PEOE_VSA-1>
66.397652

> <PEOE_VSA-2>
25.854858

> <PEOE_VSA-3>
0.0

> <PEOE_VSA-4>
0.0

> <PEOE_VSA-5>
0.0

> <PEOE_VSA-6>
13.6699

> <PEOE_VSA_FHYD>
0.92678565

> <PEOE_VSA_FNEG>
0.5464558

> <PEOE_VSA_FPNEG>
0.041711662

> <PEOE_VSA_FPOL>
0.073214337

> <PEOE_VSA_FPOS>
0.45354423

> <PEOE_VSA_FPPOS>
0.031502675

> <PEOE_VSA_HYD>
303.72961

> <PEOE_VSA_NEG>
179.0865

> <PEOE_VSA_PNEG>
13.6699

> <PEOE_VSA_POL>
23.994072

> <PEOE_VSA_POS>
148.63718

> <PEOE_VSA_PPOS>
10.324173

> <petitjean>
0.45454547

> <petitjeanSC>
0.83333331

> <Q_PC+>
0

> <Q_PC->
0

> <Q_RPC+>
0

> <Q_RPC->
0

> <Q_VSA_FHYD>
1

> <Q_VSA_FNEG>
0

> <Q_VSA_FPNEG>
0

> <Q_VSA_FPOL>
0

> <Q_VSA_FPOS>
1

> <Q_VSA_FPPOS>
0

> <Q_VSA_HYD>
327.72369

> <Q_VSA_NEG>
0

> <Q_VSA_PNEG>
0

> <Q_VSA_POL>
0

> <Q_VSA_POS>
327.72369

> <Q_VSA_PPOS>
0

> <radius>
6

> <reactive>
0

> <rings>
5

> <RPC+>
0

> <RPC->
0

> <rsynth>
0.23999999

> <SlogP>
4.2209778

> <SlogP_VSA0>
25.385227

> <SlogP_VSA1>
19.596598

> <SlogP_VSA2>
0.0

> <SlogP_VSA3>
17.030573

> <SlogP_VSA4>
53.354969

> <SlogP_VSA5>
31.788101

> <SlogP_VSA6>
0.0

> <SlogP_VSA7>
17.214357

> <SlogP_VSA8>
130.85362

> <SlogP_VSA9>
66.652031

> <SMR>
9.6352797

> <SMR_VSA0>
9.7341213

> <SMR_VSA1>
44.981823

> <SMR_VSA2>
13.232388

> <SMR_VSA3>
28.850544

> <SMR_VSA4>
0.0

> <SMR_VSA5>
149.2932

> <SMR_VSA6>
49.131367

> <SMR_VSA7>
66.652031

> <TPSA>
46.259998

> <VAdjEq>
0.44574744

> <VAdjMa>
5.8579812

> <VDistEq>
3.1534925

> <VDistMa>
9.0092773

> <vdw_area>
327.72369

> <vdw_vol>
485.75616

> <vsa_acc>
10.885262

> <vsa_acid>
0

> <vsa_base>
0

> <vsa_don>
0.0

> <vsa_hyd>
261.84399

> <vsa_other>
14.360879

> <vsa_pol>
24.452183

> <Weight>
337.46298

> <weinerPath>
1299

> <weinerPol>
55

> <zagreb>
154

$$$$
Row1514
 OpenBabel06061811532D

 33 36  0  0  0  0  0  0  0  0999 V2000
    0.0000    0.0000    0.0000 Cl  0  0  0  0  0  0  0  0  0  0  0  0
    0.0000    0.0000    0.0000 C   0  0  0  0  0  0  0  0  0  0  0  0
    0.0000    0.0000    0.0000 C   0  0  0  0  0  0  0  0  0  0  0  0
    0.0000    0.0000    0.0000 C   0  0  0  0  0  0  0  0  0  0  0  0
    0.0000    0.0000    0.0000 C   0  0  0  0  0  0  0  0  0  0  0  0
    0.0000    0.0000    0.0000 C   0  0  0  0  0  0  0  0  0  0  0  0
    0.0000    0.0000    0.0000 C   0  0  0  0  0  0  0  0  0  0  0  0
    0.0000    0.0000    0.0000 C   0  0  0  0  0  0  0  0  0  0  0  0
    0.0000    0.0000    0.0000 N   0  0  0  0  0  0  0  0  0  0  0  0
    0.0000    0.0000    0.0000 C   0  0  0  0  0  0  0  0  0  0  0  0
    0.0000    0.0000    0.0000 O   0  0  0  0  0  0  0  0  0  0  0  0
    0.0000    0.0000    0.0000 C   0  0  0  0  0  0  0  0  0  0  0  0
    0.0000    0.0000    0.0000 S   0  0  0  0  0  0  0  0  0  0  0  0
    0.0000    0.0000    0.0000 C   0  0  0  0  0  0  0  0  0  0  0  0
    0.0000    0.0000    0.0000 N   0  0  0  0  0  0  0  0  0  0  0  0
    0.0000    0.0000    0.0000 C   0  0  0  0  0  0  0  0  0  0  0  0
    0.0000    0.0000    0.0000 N   0  0  0  0  0  0  0  0  0  0  0  0
    0.0000    0.0000    0.0000 C   0  0  0  0  0  0  0  0  0  0  0  0
    0.0000    0.0000    0.0000 N   0  0  0  0  0  0  0  0  0  0  0  0
    0.0000    0.0000    0.0000 C   0  0  0  0  0  0  0  0  0  0  0  0
    0.0000    0.0000    0.0000 N   0  0  0  0  0  0  0  0  0  0  0  0
    0.0000    0.0000    0.0000 C   0  0  0  0  0  0  0  0  0  0  0  0
    0.0000    0.0000    0.0000 N   0  0  0  0  0  0  0  0  0  0  0  0
    0.0000    0.0000    0.0000 C   0  0  0  0  0  0  0  0  0  0  0  0
    0.0000    0.0000    0.0000 C   0  0  0  0  0  0  0  0  0  0  0  0
    0.0000    0.0000    0.0000 N   0  0  0  0  0  0  0  0  0  0  0  0
    0.0000    0.0000    0.0000 C   0  0  0  0  0  0  0  0  0  0  0  0
    0.0000    0.0000    0.0000 C   0  0  0  0  0  0  0  0  0  0  0  0
    0.0000    0.0000    0.0000 C   0  0  0  0  0  0  0  0  0  0  0  0
    0.0000    0.0000    0.0000 C   0  0  0  0  0  0  0  0  0  0  0  0
    0.0000    0.0000    0.0000 O   0  0  0  0  0  0  0  0  0  0  0  0
    0.0000    0.0000    0.0000 C   0  0  0  0  0  0  0  0  0  0  0  0
    0.0000    0.0000    0.0000 C   0  0  0  0  0  0  0  0  0  0  0  0
  1  2  1  0  0  0  0
  2  8  1  0  0  0  0
  2  3  2  0  0  0  0
  3  4  1  0  0  0  0
  4  5  2  0  0  0  0
  5  6  1  0  0  0  0
  6  7  1  0  0  0  0
  6  8  2  0  0  0  0
  8  9  1  0  0  0  0
  9 10  1  0  0  0  0
 10 11  2  0  0  0  0
 10 12  1  0  0  0  0
 12 16  2  0  0  0  0
 12 13  1  0  0  0  0
 13 14  1  0  0  0  0
 14 15  2  0  0  0  0
 14 17  1  0  0  0  0
 15 16  1  0  0  0  0
 17 18  1  0  0  0  0
 18 32  1  0  0  0  0
 18 19  2  0  0  0  0
 19 20  1  0  0  0  0
 20 21  2  0  0  0  0
 20 33  1  0  0  0  0
 21 22  1  0  0  0  0
 22 23  1  0  0  0  0
 22 32  2  0  0  0  0
 23 28  1  0  0  0  0
 23 24  1  0  0  0  0
 24 25  1  0  0  0  0
 25 26  1  0  0  0  0
 26 27  1  0  0  0  0
 26 29  1  0  0  0  0
 27 28  1  0  0  0  0
 29 30  1  0  0  0  0
 30 31  1  0  0  0  0
M  END
> <Index>
1515

> <ID>
HT0594

> <class>
1

> <apol>
70.44062

> <ast_fraglike>
0

> <ast_fraglike_ext>
0

> <ast_violation>
3

> <ast_violation_ext>
4

> <a_acc>
6

> <a_acid>
0

> <a_aro>
17

> <a_base>
0

> <a_count>
59

> <a_don>
3

> <a_donacc>
9

> <a_heavy>
33

> <a_hyd>
19

> <a_IC>
105.10553

> <a_ICM>
1.7814496

> <a_nB>
0

> <a_nBr>
0

> <a_nC>
22

> <a_nCl>
1

> <a_nF>
0

> <a_nH>
26

> <a_nI>
0

> <a_nN>
7

> <a_nO>
2

> <a_nP>
0

> <a_nS>
1

> <balabanJ>
1.2270342

> <BCUT_PEOE_0>
-2.7562232

> <BCUT_PEOE_1>
-0.58014041

> <BCUT_PEOE_2>
0.61126155

> <BCUT_PEOE_3>
2.6656897

> <BCUT_SLOGP_0>
-2.8897259

> <BCUT_SLOGP_1>
-0.44911268

> <BCUT_SLOGP_2>
0.6663878

> <BCUT_SLOGP_3>
2.5492504

> <BCUT_SMR_0>
-2.4692883

> <BCUT_SMR_1>
-0.36052862

> <BCUT_SMR_2>
0.83471805

> <BCUT_SMR_3>
2.9462759

> <bpol>
41.321381

> <b_1rotN>
7

> <b_1rotR>
0.19444445

> <b_ar>
17

> <b_count>
62

> <b_double>
1

> <b_heavy>
36

> <b_max1len>
4

> <b_rotN>
8

> <b_rotR>
0.22222222

> <b_single>
44

> <b_triple>
0

> <chi0>
23.371668

> <chi0v>
20.079559

> <chi0v_C>
13.629392

> <chi0_C>
14.974327

> <chi1>
15.923056

> <chi1v>
11.853065

> <chi1v_C>
5.3600426

> <chi1_C>
6.6959419

> <chiral>
0

> <chiral_u>
0

> <density>
0.79868972

> <diameter>
19

> <FCharge>
0

> <GCUT_PEOE_0>
-0.84784681

> <GCUT_PEOE_1>
-0.41758683

> <GCUT_PEOE_2>
0.079908334

> <GCUT_PEOE_3>
2.673414

> <GCUT_SLOGP_0>
-0.99316055

> <GCUT_SLOGP_1>
-0.34359869

> <GCUT_SLOGP_2>
0.16699713

> <GCUT_SLOGP_3>
2.7011278

> <GCUT_SMR_0>
-0.5177961

> <GCUT_SMR_1>
-0.18123195

> <GCUT_SMR_2>
0.24484511

> <GCUT_SMR_3>
2.9510584

> <Kier1>
26.074074

> <Kier2>
12.3008

> <Kier3>
7.03125

> <KierA1>
21.412733

> <KierA2>
10.036232

> <KierA3>
5.7096939

> <KierFlex>
6.5122166

> <lip_acc>
9

> <lip_don>
3

> <lip_druglike>
1

> <lip_violation>
0

> <logP(o/w)>
1.535

> <logS>
-4.7835102

> <mr>
13.056146

> <mutagenic>
0

> <nmol>
1

> <opr_brigid>
23

> <opr_leadlike>
0

> <opr_nring>
4

> <opr_nrot>
9

> <opr_violation>
2

> <PC+>
0

> <PC->
0

> <PEOE_PC+>
2.7776053

> <PEOE_PC->
-2.7776053

> <PEOE_RPC+>
0.088971019

> <PEOE_RPC->
0.14175777

> <PEOE_VSA+0>
167.39322

> <PEOE_VSA+1>
69.194916

> <PEOE_VSA+2>
42.190701

> <PEOE_VSA+3>
8.6190128

> <PEOE_VSA+4>
43.034321

> <PEOE_VSA+5>
0.0

> <PEOE_VSA+6>
0.0

> <PEOE_VSA-0>
51.958797

> <PEOE_VSA-1>
54.091755

> <PEOE_VSA-2>
0.0

> <PEOE_VSA-3>
0.0

> <PEOE_VSA-4>
11.502043

> <PEOE_VSA-5>
19.249496

> <PEOE_VSA-6>
7.9044313

> <PEOE_VSA_FHYD>
0.82807064

> <PEOE_VSA_FNEG>
0.3045564

> <PEOE_VSA_FPNEG>
0.081357233

> <PEOE_VSA_FPOL>
0.17192936

> <PEOE_VSA_FPOS>
0.69544363

> <PEOE_VSA_FPPOS>
0.090572126

> <PEOE_VSA_HYD>
393.44839

> <PEOE_VSA_NEG>
144.70653

> <PEOE_VSA_PNEG>
38.655972

> <PEOE_VSA_POL>
81.690292

> <PEOE_VSA_POS>
330.43216

> <PEOE_VSA_PPOS>
43.034321

> <petitjean>
0.47368422

> <petitjeanSC>
0.89999998

> <Q_PC+>
0

> <Q_PC->
0

> <Q_RPC+>
0

> <Q_RPC->
0

> <Q_VSA_FHYD>
1

> <Q_VSA_FNEG>
0

> <Q_VSA_FPNEG>
0

> <Q_VSA_FPOL>
0

> <Q_VSA_FPOS>
1

> <Q_VSA_FPPOS>
0

> <Q_VSA_HYD>
475.1387

> <Q_VSA_NEG>
0

> <Q_VSA_PNEG>
0

> <Q_VSA_POL>
0

> <Q_VSA_POS>
475.1387

> <Q_VSA_PPOS>
0

> <radius>
10

> <reactive>
0

> <rings>
4

> <RPC+>
0

> <RPC->
0

> <rsynth>
1.0

> <SlogP>
3.31354

> <SlogP_VSA0>
28.509541

> <SlogP_VSA1>
94.761185

> <SlogP_VSA2>
0.0

> <SlogP_VSA3>
113.12415

> <SlogP_VSA4>
30.734112

> <SlogP_VSA5>
0.0

> <SlogP_VSA6>
3.5006065

> <SlogP_VSA7>
87.787094

> <SlogP_VSA8>
0.0

> <SlogP_VSA9>
144.9917

> <SMR>
13.20467

> <SMR_VSA0>
23.862217

> <SMR_VSA1>
78.866127

> <SMR_VSA2>
3.1243138

> <SMR_VSA3>
10.372503

> <SMR_VSA4>
43.934837

> <SMR_VSA5>
87.787094

> <SMR_VSA6>
118.38293

> <SMR_VSA7>
137.07837

> <TPSA>
106.51

> <VAdjEq>
0.3512581

> <VAdjMa>
6.1699252

> <VDistEq>
3.9725091

> <VDistMa>
9.7648439

> <vdw_area>
475.1387

> <vdw_vol>
611.02075

> <vsa_acc>
30.614649

> <vsa_acid>
0

> <vsa_base>
0

> <vsa_don>
11.365152

> <vsa_hyd>
332.86139

> <vsa_other>
59.687843

> <vsa_pol>
55.546722

> <Weight>
488.01599

> <weinerPath>
3723

> <weinerPol>
50

> <zagreb>
172

$$$$
Row1515
 OpenBabel06061811532D

 20 22  0  0  0  0  0  0  0  0999 V2000
    0.0000    0.0000    0.0000 N   0  0  0  0  0  0  0  0  0  0  0  0
    0.0000    0.0000    0.0000 C   0  0  0  0  0  0  0  0  0  0  0  0
    0.0000    0.0000    0.0000 C   0  0  0  0  0  0  0  0  0  0  0  0
    0.0000    0.0000    0.0000 C   0  0  0  0  0  0  0  0  0  0  0  0
    0.0000    0.0000    0.0000 N   0  0  0  0  0  0  0  0  0  0  0  0
    0.0000    0.0000    0.0000 C   0  0  0  0  0  0  0  0  0  0  0  0
    0.0000    0.0000    0.0000 C   0  0  0  0  0  0  0  0  0  0  0  0
    0.0000    0.0000    0.0000 C   0  0  0  0  0  0  0  0  0  0  0  0
    0.0000    0.0000    0.0000 C   0  0  0  0  0  0  0  0  0  0  0  0
    0.0000    0.0000    0.0000 C   0  0  0  0  0  0  0  0  0  0  0  0
    0.0000    0.0000    0.0000 C   0  0  0  0  0  0  0  0  0  0  0  0
    0.0000    0.0000    0.0000 C   0  0  0  0  0  0  0  0  0  0  0  0
    0.0000    0.0000    0.0000 C   0  0  0  0  0  0  0  0  0  0  0  0
    0.0000    0.0000    0.0000 C   0  0  0  0  0  0  0  0  0  0  0  0
    0.0000    0.0000    0.0000 C   0  0  0  0  0  0  0  0  0  0  0  0
    0.0000    0.0000    0.0000 C   0  0  0  0  0  0  0  0  0  0  0  0
    0.0000    0.0000    0.0000 C   0  0  0  0  0  0  0  0  0  0  0  0
    0.0000    0.0000    0.0000 C   0  0  0  0  0  0  0  0  0  0  0  0
    0.0000    0.0000    0.0000 C   0  0  0  0  0  0  0  0  0  0  0  0
    0.0000    0.0000    0.0000 C   0  0  0  0  0  0  0  0  0  0  0  0
  1  2  1  0  0  0  0
  1 20  1  0  0  0  0
  2  3  1  0  0  0  0
  3  4  1  0  0  0  0
  4  5  1  0  0  0  0
  5 11  1  0  0  0  0
  5  6  1  0  0  0  0
  6 19  1  0  0  0  0
  6  7  2  0  0  0  0
  7  8  1  0  0  0  0
  7 16  1  0  0  0  0
  8  9  1  0  0  0  0
  9 10  1  0  0  0  0
 10 15  1  0  0  0  0
 10 11  2  0  0  0  0
 11 12  1  0  0  0  0
 12 13  2  0  0  0  0
 13 14  1  0  0  0  0
 14 15  2  0  0  0  0
 16 17  2  0  0  0  0
 17 18  1  0  0  0  0
 18 19  2  0  0  0  0
M  END
> <Index>
1516

> <ID>
HT0611

> <class>
1

> <apol>
48.549446

> <ast_fraglike>
0

> <ast_fraglike_ext>
0

> <ast_violation>
1

> <ast_violation_ext>
2

> <a_acc>
1

> <a_acid>
0

> <a_aro>
12

> <a_base>
0

> <a_count>
42

> <a_don>
1

> <a_donacc>
2

> <a_heavy>
20

> <a_hyd>
18

> <a_IC>
51.311188

> <a_ICM>
1.2216949

> <a_nB>
0

> <a_nBr>
0

> <a_nC>
18

> <a_nCl>
0

> <a_nF>
0

> <a_nH>
22

> <a_nI>
0

> <a_nN>
2

> <a_nO>
0

> <a_nP>
0

> <a_nS>
0

> <balabanJ>
1.7351484

> <BCUT_PEOE_0>
-2.6170466

> <BCUT_PEOE_1>
-0.57219058

> <BCUT_PEOE_2>
0.6219371

> <BCUT_PEOE_3>
2.5587277

> <BCUT_SLOGP_0>
-2.7155116

> <BCUT_SLOGP_1>
-0.48371783

> <BCUT_SLOGP_2>
0.6956358

> <BCUT_SLOGP_3>
2.613384

> <BCUT_SMR_0>
-2.3357728

> <BCUT_SMR_1>
-0.4314788

> <BCUT_SMR_2>
0.75491518

> <BCUT_SMR_3>
2.8548961

> <bpol>
26.690554

> <b_1rotN>
4

> <b_1rotR>
0.18181819

> <b_ar>
12

> <b_count>
44

> <b_double>
0

> <b_heavy>
22

> <b_max1len>
6

> <b_rotN>
4

> <b_rotR>
0.18181819

> <b_single>
32

> <b_triple>
0

> <chi0>
13.786246

> <chi0v>
12.10155

> <chi0v_C>
11.154336

> <chi0_C>
12.501789

> <chi1>
9.8981781

> <chi1v>
7.4788022

> <chi1v_C>
5.8618073

> <chi1_C>
7.6161566

> <chiral>
0

> <chiral_u>
0

> <density>
0.64859915

> <diameter>
9

> <FCharge>
0

> <GCUT_PEOE_0>
-0.85438794

> <GCUT_PEOE_1>
-0.36268285

> <GCUT_PEOE_2>
0.061806444

> <GCUT_PEOE_3>
2.7225273

> <GCUT_SLOGP_0>
-1.1526396

> <GCUT_SLOGP_1>
-0.26393339

> <GCUT_SLOGP_2>
0.14782788

> <GCUT_SLOGP_3>
2.8399777

> <GCUT_SMR_0>
-0.51675332

> <GCUT_SMR_1>
-0.19396463

> <GCUT_SMR_2>
0.17363781

> <GCUT_SMR_3>
3.0167706

> <Kier1>
14.917356

> <Kier2>
7.3198571

> <Kier3>
3.4425001

> <KierA1>
11.25843

> <KierA2>
5.4358997

> <KierA3>
2.5263538

> <KierFlex>
3.0599852

> <lip_acc>
2

> <lip_don>
1

> <lip_druglike>
1

> <lip_violation>
0

> <logP(o/w)>
3.836

> <logS>
-3.32376

> <mr>
8.4153519

> <mutagenic>
0

> <nmol>
1

> <opr_brigid>
17

> <opr_leadlike>
1

> <opr_nring>
3

> <opr_nrot>
4

> <opr_violation>
0

> <PC+>
0

> <PC->
0

> <PEOE_PC+>
1.1539682

> <PEOE_PC->
-1.1539682

> <PEOE_RPC+>
0.1054047

> <PEOE_RPC->
0.27637646

> <PEOE_VSA+0>
82.041443

> <PEOE_VSA+1>
34.123089

> <PEOE_VSA+2>
8.6190128

> <PEOE_VSA+3>
0.0

> <PEOE_VSA+4>
0.0

> <PEOE_VSA+5>
0.0

> <PEOE_VSA+6>
0.0

> <PEOE_VSA-0>
91.461838

> <PEOE_VSA-1>
73.529427

> <PEOE_VSA-2>
0.0

> <PEOE_VSA-3>
0.0

> <PEOE_VSA-4>
0.0

> <PEOE_VSA-5>
0.0

> <PEOE_VSA-6>
0.13689101

> <PEOE_VSA_FHYD>
0.99952781

> <PEOE_VSA_FNEG>
0.56958085

> <PEOE_VSA_FPNEG>
4.7218171E-4

> <PEOE_VSA_FPOL>
4.7218171E-4

> <PEOE_VSA_FPOS>
0.43041915

> <PEOE_VSA_FPPOS>
0.0

> <PEOE_VSA_HYD>
289.77481

> <PEOE_VSA_NEG>
165.12816

> <PEOE_VSA_PNEG>
0.13689101

> <PEOE_VSA_POL>
0.13689101

> <PEOE_VSA_POS>
124.78355

> <PEOE_VSA_PPOS>
0.0

> <petitjean>
0.44444445

> <petitjeanSC>
0.80000001

> <Q_PC+>
0

> <Q_PC->
0

> <Q_RPC+>
0

> <Q_RPC->
0

> <Q_VSA_FHYD>
1

> <Q_VSA_FNEG>
0

> <Q_VSA_FPNEG>
0

> <Q_VSA_FPOL>
0

> <Q_VSA_FPOS>
1

> <Q_VSA_FPPOS>
0

> <Q_VSA_HYD>
289.91171

> <Q_VSA_NEG>
0

> <Q_VSA_PNEG>
0

> <Q_VSA_POL>
0

> <Q_VSA_POS>
289.91171

> <Q_VSA_PPOS>
0

> <radius>
5

> <reactive>
0

> <rings>
3

> <RPC+>
0

> <RPC->
0

> <rsynth>
1.0

> <SlogP>
3.5327401

> <SlogP_VSA0>
21.135065

> <SlogP_VSA1>
0.0

> <SlogP_VSA2>
0.0

> <SlogP_VSA3>
36.879158

> <SlogP_VSA4>
6.37115

> <SlogP_VSA5>
70.633995

> <SlogP_VSA6>
0.0

> <SlogP_VSA7>
141.14548

> <SlogP_VSA8>
18.868406

> <SlogP_VSA9>
5.513495

> <SMR>
8.5841703

> <SMR_VSA0>
0.0

> <SMR_VSA1>
0.0

> <SMR_VSA2>
21.135065

> <SMR_VSA3>
6.37115

> <SMR_VSA4>
5.513495

> <SMR_VSA5>
197.75069

> <SMR_VSA6>
36.879158

> <SMR_VSA7>
32.897186

> <TPSA>
15.27

> <VAdjEq>
0.49991596

> <VAdjMa>
5.4594316

> <VDistEq>
2.9541149

> <VDistMa>
8.3778744

> <vdw_area>
289.91171

> <vdw_vol>
410.71283

> <vsa_acc>
0.0

> <vsa_acid>
0

> <vsa_base>
0

> <vsa_don>
0.0

> <vsa_hyd>
266.2081

> <vsa_other>
0.0

> <vsa_pol>
5.6825762

> <Weight>
266.388

> <weinerPath>
759

> <weinerPol>
34

> <zagreb>
102

$$$$
Row1516
 OpenBabel06061811532D

 22 25  0  0  0  0  0  0  0  0999 V2000
    0.0000    0.0000    0.0000 Cl  0  0  0  0  0  0  0  0  0  0  0  0
    0.0000    0.0000    0.0000 C   0  0  0  0  0  0  0  0  0  0  0  0
    0.0000    0.0000    0.0000 C   0  0  0  0  0  0  0  0  0  0  0  0
    0.0000    0.0000    0.0000 C   0  0  0  0  0  0  0  0  0  0  0  0
    0.0000    0.0000    0.0000 C   0  0  0  0  0  0  0  0  0  0  0  0
    0.0000    0.0000    0.0000 C   0  0  0  0  0  0  0  0  0  0  0  0
    0.0000    0.0000    0.0000 C   0  0  0  0  0  0  0  0  0  0  0  0
    0.0000    0.0000    0.0000 C   0  0  0  0  0  0  0  0  0  0  0  0
    0.0000    0.0000    0.0000 C   0  0  0  0  0  0  0  0  0  0  0  0
    0.0000    0.0000    0.0000 N   0  0  0  0  0  0  0  0  0  0  0  0
    0.0000    0.0000    0.0000 C   0  0  0  0  0  0  0  0  0  0  0  0
    0.0000    0.0000    0.0000 C   0  0  0  0  0  0  0  0  0  0  0  0
    0.0000    0.0000    0.0000 C   0  0  0  0  0  0  0  0  0  0  0  0
    0.0000    0.0000    0.0000 C   0  0  0  0  0  0  0  0  0  0  0  0
    0.0000    0.0000    0.0000 C   0  0  0  0  0  0  0  0  0  0  0  0
    0.0000    0.0000    0.0000 C   0  0  0  0  0  0  0  0  0  0  0  0
    0.0000    0.0000    0.0000 C   0  0  0  0  0  0  0  0  0  0  0  0
    0.0000    0.0000    0.0000 C   0  0  0  0  0  0  0  0  0  0  0  0
    0.0000    0.0000    0.0000 C   0  0  0  0  0  0  0  0  0  0  0  0
    0.0000    0.0000    0.0000 N   0  0  0  0  0  0  0  0  0  0  0  0
    0.0000    0.0000    0.0000 C   0  0  0  0  0  0  0  0  0  0  0  0
    0.0000    0.0000    0.0000 C   0  0  0  0  0  0  0  0  0  0  0  0
  1  2  1  0  0  0  0
  2  7  1  0  0  0  0
  2  3  2  0  0  0  0
  3  4  1  0  0  0  0
  4 16  1  0  0  0  0
  4  5  2  0  0  0  0
  5  6  1  0  0  0  0
  5  8  1  0  0  0  0
  6  7  2  0  0  0  0
  8  9  1  0  0  0  0
  8 17  2  0  0  0  0
  9 14  1  0  0  0  0
  9 10  2  0  0  0  0
 10 11  1  0  0  0  0
 11 12  2  0  0  0  0
 12 13  1  0  0  0  0
 13 14  2  0  0  0  0
 14 15  1  0  0  0  0
 15 16  1  0  0  0  0
 17 22  1  0  0  0  0
 17 18  1  0  0  0  0
 18 19  1  0  0  0  0
 19 20  1  0  0  0  0
 20 21  1  0  0  0  0
 21 22  1  0  0  0  0
M  END
> <Index>
1517

> <ID>
HT0613

> <class>
1

> <apol>
50.489067

> <ast_fraglike>
0

> <ast_fraglike_ext>
0

> <ast_violation>
2

> <ast_violation_ext>
2

> <a_acc>
2

> <a_acid>
0

> <a_aro>
12

> <a_base>
0

> <a_count>
41

> <a_don>
1

> <a_donacc>
3

> <a_heavy>
22

> <a_hyd>
20

> <a_IC>
56.238388

> <a_ICM>
1.371668

> <a_nB>
0

> <a_nBr>
0

> <a_nC>
19

> <a_nCl>
1

> <a_nF>
0

> <a_nH>
19

> <a_nI>
0

> <a_nN>
2

> <a_nO>
0

> <a_nP>
0

> <a_nS>
0

> <balabanJ>
1.6109858

> <BCUT_PEOE_0>
-2.6769867

> <BCUT_PEOE_1>
-0.61011779

> <BCUT_PEOE_2>
0.62989724

> <BCUT_PEOE_3>
2.603554

> <BCUT_SLOGP_0>
-2.7561567

> <BCUT_SLOGP_1>
-0.49430424

> <BCUT_SLOGP_2>
0.74018323

> <BCUT_SLOGP_3>
2.6402025

> <BCUT_SMR_0>
-2.3954868

> <BCUT_SMR_1>
-0.41632617

> <BCUT_SMR_2>
0.81344539

> <BCUT_SMR_3>
2.8839941

> <bpol>
23.170933

> <b_1rotN>
0

> <b_1rotR>
0.0

> <b_ar>
12

> <b_count>
44

> <b_double>
1

> <b_heavy>
25

> <b_max1len>
2

> <b_rotN>
0

> <b_rotR>
0.0

> <b_single>
31

> <b_triple>
0

> <chi0>
14.940947

> <chi0v>
13.287849

> <chi0v_C>
11.206742

> <chi0_C>
12.526733

> <chi1>
10.8265

> <chi1v>
8.3634481

> <chi1v_C>
6.6075892

> <chi1_C>
8.3409014

> <chiral>
0

> <chiral_u>
0

> <density>
0.72496176

> <diameter>
9

> <FCharge>
0

> <GCUT_PEOE_0>
-0.84760177

> <GCUT_PEOE_1>
-0.39928252

> <GCUT_PEOE_2>
0.062574953

> <GCUT_PEOE_3>
2.7689481

> <GCUT_SLOGP_0>
-1.1529601

> <GCUT_SLOGP_1>
-0.29299536

> <GCUT_SLOGP_2>
0.18154307

> <GCUT_SLOGP_3>
2.865798

> <GCUT_SMR_0>
-0.50680113

> <GCUT_SMR_1>
-0.19856806

> <GCUT_SMR_2>
0.21054187

> <GCUT_SMR_3>
3.0532846

> <Kier1>
15.5232

> <Kier2>
6.8571429

> <Kier3>
3.1653478

> <KierA1>
12.654064

> <KierA2>
5.5317469

> <KierA3>
2.5342677

> <KierFlex>
3.1817765

> <lip_acc>
2

> <lip_don>
1

> <lip_druglike>
1

> <lip_violation>
0

> <logP(o/w)>
3.431

> <logS>
-3.4923799

> <mr>
9.1217918

> <mutagenic>
0

> <nmol>
1

> <opr_brigid>
24

> <opr_leadlike>
1

> <opr_nring>
4

> <opr_nrot>
2

> <opr_violation>
0

> <PC+>
0

> <PC->
0

> <PEOE_PC+>
1.0975404

> <PEOE_PC->
-1.0975404

> <PEOE_RPC+>
0.1111178

> <PEOE_RPC->
0.28734505

> <PEOE_VSA+0>
74.658836

> <PEOE_VSA+1>
32.291866

> <PEOE_VSA+2>
8.6190128

> <PEOE_VSA+3>
0.0

> <PEOE_VSA+4>
0.0

> <PEOE_VSA+5>
0.0

> <PEOE_VSA+6>
0.0

> <PEOE_VSA-0>
104.58023

> <PEOE_VSA-1>
56.300293

> <PEOE_VSA-2>
0.0

> <PEOE_VSA-3>
0.0

> <PEOE_VSA-4>
0.0

> <PEOE_VSA-5>
5.6825762

> <PEOE_VSA-6>
0.13689101

> <PEOE_VSA_FHYD>
0.97938329

> <PEOE_VSA_FNEG>
0.59056991

> <PEOE_VSA_FPNEG>
0.02061669

> <PEOE_VSA_FPOL>
0.02061669

> <PEOE_VSA_FPOS>
0.40943009

> <PEOE_VSA_FPPOS>
0.0

> <PEOE_VSA_HYD>
276.45026

> <PEOE_VSA_NEG>
166.7

> <PEOE_VSA_PNEG>
5.8194671

> <PEOE_VSA_POL>
5.8194671

> <PEOE_VSA_POS>
115.56972

> <PEOE_VSA_PPOS>
0.0

> <petitjean>
0.44444445

> <petitjeanSC>
0.80000001

> <Q_PC+>
0

> <Q_PC->
0

> <Q_RPC+>
0

> <Q_RPC->
0

> <Q_VSA_FHYD>
1

> <Q_VSA_FNEG>
0

> <Q_VSA_FPNEG>
0

> <Q_VSA_FPOL>
0

> <Q_VSA_FPOS>
1

> <Q_VSA_FPPOS>
0

> <Q_VSA_HYD>
282.26971

> <Q_VSA_NEG>
0

> <Q_VSA_PNEG>
0

> <Q_VSA_POL>
0

> <Q_VSA_POS>
282.26971

> <Q_VSA_PPOS>
0

> <radius>
5

> <reactive>
0

> <rings>
4

> <RPC+>
0

> <RPC->
0

> <rsynth>
1.0

> <SlogP>
3.8361299

> <SlogP_VSA0>
18.01075

> <SlogP_VSA1>
16.78553

> <SlogP_VSA2>
0.0

> <SlogP_VSA3>
40.064732

> <SlogP_VSA4>
12.313473

> <SlogP_VSA5>
40.922386

> <SlogP_VSA6>
3.5006065

> <SlogP_VSA7>
105.43027

> <SlogP_VSA8>
37.736813

> <SlogP_VSA9>
39.148643

> <SMR>
9.0160704

> <SMR_VSA0>
0.0

> <SMR_VSA1>
16.78553

> <SMR_VSA2>
21.196325

> <SMR_VSA3>
18.999655

> <SMR_VSA4>
0.0

> <SMR_VSA5>
180.9039

> <SMR_VSA6>
36.879158

> <SMR_VSA7>
39.148643

> <TPSA>
24.92

> <VAdjEq>
0.47938794

> <VAdjMa>
5.643856

> <VDistEq>
2.8896117

> <VDistMa>
8.6758261

> <vdw_area>
282.26971

> <vdw_vol>
428.75085

> <vsa_acc>
5.6825762

> <vsa_acid>
0

> <vsa_base>
0

> <vsa_don>
0.0

> <vsa_hyd>
255.01891

> <vsa_other>
0.0

> <vsa_pol>
11.365152

> <Weight>
310.828

> <weinerPath>
918

> <weinerPol>
40

> <zagreb>
120

$$$$
Row1517
 OpenBabel06061811532D

 26 28  0  0  0  0  0  0  0  0999 V2000
    0.0000    0.0000    0.0000 S   0  0  3  0  0  0  0  0  0  0  0  0
    0.0000    0.0000    0.0000 O   0  0  0  0  0  0  0  0  0  0  0  0
    0.0000    0.0000    0.0000 C   0  0  0  0  0  0  0  0  0  0  0  0
    0.0000    0.0000    0.0000 C   0  0  0  0  0  0  0  0  0  0  0  0
    0.0000    0.0000    0.0000 N   0  0  0  0  0  0  0  0  0  0  0  0
    0.0000    0.0000    0.0000 C   0  0  0  0  0  0  0  0  0  0  0  0
    0.0000    0.0000    0.0000 C   0  0  0  0  0  0  0  0  0  0  0  0
    0.0000    0.0000    0.0000 C   0  0  0  0  0  0  0  0  0  0  0  0
    0.0000    0.0000    0.0000 O   0  0  0  0  0  0  0  0  0  0  0  0
    0.0000    0.0000    0.0000 C   0  0  0  0  0  0  0  0  0  0  0  0
    0.0000    0.0000    0.0000 C   0  0  0  0  0  0  0  0  0  0  0  0
    0.0000    0.0000    0.0000 F   0  0  0  0  0  0  0  0  0  0  0  0
    0.0000    0.0000    0.0000 F   0  0  0  0  0  0  0  0  0  0  0  0
    0.0000    0.0000    0.0000 F   0  0  0  0  0  0  0  0  0  0  0  0
    0.0000    0.0000    0.0000 C   0  0  0  0  0  0  0  0  0  0  0  0
    0.0000    0.0000    0.0000 C   0  0  0  0  0  0  0  0  0  0  0  0
    0.0000    0.0000    0.0000 C   0  0  0  0  0  0  0  0  0  0  0  0
    0.0000    0.0000    0.0000 N   0  0  0  0  0  0  0  0  0  0  0  0
    0.0000    0.0000    0.0000 H   0  0  0  0  0  0  0  0  0  0  0  0
    0.0000    0.0000    0.0000 C   0  0  0  0  0  0  0  0  0  0  0  0
    0.0000    0.0000    0.0000 C   0  0  0  0  0  0  0  0  0  0  0  0
    0.0000    0.0000    0.0000 N   0  0  0  0  0  0  0  0  0  0  0  0
    0.0000    0.0000    0.0000 C   0  0  0  0  0  0  0  0  0  0  0  0
    0.0000    0.0000    0.0000 C   0  0  0  0  0  0  0  0  0  0  0  0
    0.0000    0.0000    0.0000 C   0  0  0  0  0  0  0  0  0  0  0  0
    0.0000    0.0000    0.0000 C   0  0  0  0  0  0  0  0  0  0  0  0
  1  2  2  0  0  0  0
  1  3  1  0  0  0  0
  1 17  1  0  0  0  0
  3  4  1  0  0  0  0
  4 15  1  0  0  0  0
  4  5  2  0  0  0  0
  5  6  1  0  0  0  0
  6  7  2  0  0  0  0
  7  8  1  0  0  0  0
  8  9  1  0  0  0  0
  8 15  2  0  0  0  0
  9 10  1  0  0  0  0
 10 11  1  0  0  0  0
 11 12  1  0  0  0  0
 11 13  1  0  0  0  0
 11 14  1  0  0  0  0
 15 16  1  0  0  0  0
 17 22  2  0  0  0  0
 17 18  1  0  0  0  0
 18 19  1  0  0  0  0
 18 20  1  0  0  0  0
 20 26  1  0  0  0  0
 20 21  2  0  0  0  0
 21 22  1  0  0  0  0
 21 23  1  0  0  0  0
 23 24  2  0  0  0  0
 24 25  1  0  0  0  0
 25 26  2  0  0  0  0
M  END
> <Index>
1518

> <ID>
HT0623

> <class>
1

> <apol>
46.9701

> <ast_fraglike>
0

> <ast_fraglike_ext>
0

> <ast_violation>
3

> <ast_violation_ext>
4

> <a_acc>
5

> <a_acid>
0

> <a_aro>
15

> <a_base>
0

> <a_count>
39

> <a_don>
2

> <a_donacc>
7

> <a_heavy>
25

> <a_hyd>
18

> <a_IC>
77.31794

> <a_ICM>
1.9825114

> <a_nB>
0

> <a_nBr>
0

> <a_nC>
16

> <a_nCl>
0

> <a_nF>
3

> <a_nH>
14

> <a_nI>
0

> <a_nN>
3

> <a_nO>
2

> <a_nP>
0

> <a_nS>
1

> <balabanJ>
1.4958628

> <BCUT_PEOE_0>
-2.3637459

> <BCUT_PEOE_1>
-0.58802575

> <BCUT_PEOE_2>
0.59105569

> <BCUT_PEOE_3>
2.4983709

> <BCUT_SLOGP_0>
-2.4525046

> <BCUT_SLOGP_1>
-0.50148004

> <BCUT_SLOGP_2>
0.67875862

> <BCUT_SLOGP_3>
2.5096982

> <BCUT_SMR_0>
-2.1552792

> <BCUT_SMR_1>
-0.41421989

> <BCUT_SMR_2>
0.76783353

> <BCUT_SMR_3>
2.730428

> <bpol>
28.507898

> <b_1rotN>
5

> <b_1rotR>
0.18518518

> <b_ar>
16

> <b_count>
41

> <b_double>
0

> <b_heavy>
27

> <b_max1len>
3

> <b_rotN>
6

> <b_rotR>
0.22222222

> <b_single>
25

> <b_triple>
0

> <chi0>
18.026733

> <chi0v>
13.947877

> <chi0v_C>
9.378315

> <chi0_C>
10.620955

> <chi1>
11.832318

> <chi1v>
8.6236286

> <chi1v_C>
4.1564655

> <chi1_C>
5.5638967

> <chiral>
0

> <chiral_u>
0

> <density>
0.88032174

> <diameter>
13

> <FCharge>
0

> <GCUT_PEOE_0>
-0.84835625

> <GCUT_PEOE_1>
-0.40386787

> <GCUT_PEOE_2>
0.03884273

> <GCUT_PEOE_3>
2.4863536

> <GCUT_SLOGP_0>
-0.91273594

> <GCUT_SLOGP_1>
-0.34056461

> <GCUT_SLOGP_2>
0.23294757

> <GCUT_SLOGP_3>
2.5682549

> <GCUT_SMR_0>
-0.50592357

> <GCUT_SMR_1>
-0.1807376

> <GCUT_SMR_2>
0.19308831

> <GCUT_SMR_3>
2.7612166

> <Kier1>
19.753086

> <Kier2>
8.3471403

> <Kier3>
5.2584882

> <KierA1>
15.796437

> <KierA2>
6.6089396

> <KierA3>
4.1324215

> <KierFlex>
4.1759081

> <lip_acc>
5

> <lip_don>
1

> <lip_druglike>
1

> <lip_violation>
0

> <logP(o/w)>
1.78976

> <logS>
-4.6530099

> <mr>
9.0047398

> <mutagenic>
0

> <nmol>
1

> <opr_brigid>
16

> <opr_leadlike>
1

> <opr_nring>
3

> <opr_nrot>
5

> <opr_violation>
0

> <PC+>
0

> <PC->
0

> <PEOE_PC+>
2.4246099

> <PEOE_PC->
-2.4246099

> <PEOE_RPC+>
0.17043997

> <PEOE_RPC->
0.25185233

> <PEOE_VSA+0>
44.887321

> <PEOE_VSA+1>
71.211037

> <PEOE_VSA+2>
14.951293

> <PEOE_VSA+3>
19.296389

> <PEOE_VSA+4>
0.0

> <PEOE_VSA+5>
0.0

> <PEOE_VSA+6>
22.212126

> <PEOE_VSA-0>
55.51239

> <PEOE_VSA-1>
24.509808

> <PEOE_VSA-2>
0.0

> <PEOE_VSA-3>
41.408482

> <PEOE_VSA-4>
0.0

> <PEOE_VSA-5>
5.8194671

> <PEOE_VSA-6>
18.512018

> <PEOE_VSA_FHYD>
0.85378373

> <PEOE_VSA_FNEG>
0.45791033

> <PEOE_VSA_FPNEG>
0.076437108

> <PEOE_VSA_FPOL>
0.14621627

> <PEOE_VSA_FPOS>
0.5420897

> <PEOE_VSA_FPPOS>
0.069779165

> <PEOE_VSA_HYD>
271.7767

> <PEOE_VSA_NEG>
145.76216

> <PEOE_VSA_PNEG>
24.331486

> <PEOE_VSA_POL>
46.54361

> <PEOE_VSA_POS>
172.55817

> <PEOE_VSA_PPOS>
22.212126

> <petitjean>
0.46153846

> <petitjeanSC>
0.85714287

> <Q_PC+>
0

> <Q_PC->
0

> <Q_RPC+>
0

> <Q_RPC->
0

> <Q_VSA_FHYD>
1

> <Q_VSA_FNEG>
0

> <Q_VSA_FPNEG>
0

> <Q_VSA_FPOL>
0

> <Q_VSA_FPOS>
1

> <Q_VSA_FPPOS>
0

> <Q_VSA_HYD>
318.32031

> <Q_VSA_NEG>
0

> <Q_VSA_PNEG>
0

> <Q_VSA_POL>
0

> <Q_VSA_POS>
318.32031

> <Q_VSA_PPOS>
0

> <radius>
7

> <reactive>
0

> <rings>
3

> <RPC+>
0

> <RPC->
0

> <rsynth>
1.0

> <SlogP>
3.78162

> <SlogP_VSA0>
10.999887

> <SlogP_VSA1>
65.41642

> <SlogP_VSA2>
36.334934

> <SlogP_VSA3>
20.926258

> <SlogP_VSA4>
5.9423227

> <SlogP_VSA5>
0.69307917

> <SlogP_VSA6>
0.0

> <SlogP_VSA7>
109.71855

> <SlogP_VSA8>
0.0

> <SlogP_VSA9>
100.68335

> <SMR>
8.6935101

> <SMR_VSA0>
24.085844

> <SMR_VSA1>
89.451286

> <SMR_VSA2>
25.238125

> <SMR_VSA3>
11.185751

> <SMR_VSA4>
4.2882738

> <SMR_VSA5>
122.66384

> <SMR_VSA6>
20.926258

> <SMR_VSA7>
52.87542

> <TPSA>
87.080002

> <VAdjEq>
0.42433795

> <VAdjMa>
5.7548876

> <VDistEq>
3.5334995

> <VDistMa>
8.9752445

> <vdw_area>
318.32031

> <vdw_vol>
419.58182

> <vsa_acc>
24.194593

> <vsa_acid>
0

> <vsa_base>
0

> <vsa_don>
0.0

> <vsa_hyd>
244.13058

> <vsa_other>
26.303333

> <vsa_pol>
35.559746

> <Weight>
369.367

> <weinerPath>
1631

> <weinerPol>
36

> <zagreb>
132

$$$$
Row1518
 OpenBabel06061811532D

 26 27  0  0  1  0  0  0  0  0999 V2000
    0.0000    0.0000    0.0000 O   0  0  0  0  0  0  0  0  0  0  0  0
    0.0000    0.0000    0.0000 C   0  0  2  0  0  0  0  0  0  0  0  0
    0.0000    0.0000    0.0000 C   0  0  1  0  0  0  0  0  0  0  0  0
    0.0000    0.0000    0.0000 H   0  0  0  0  0  0  0  0  0  0  0  0
    0.0000    0.0000    0.0000 C   0  0  0  0  0  0  0  0  0  0  0  0
    0.0000    0.0000    0.0000 N   0  0  0  0  0  0  0  0  0  0  0  0
    0.0000    0.0000    0.0000 C   0  0  0  0  0  0  0  0  0  0  0  0
    0.0000    0.0000    0.0000 C   0  0  0  0  0  0  0  0  0  0  0  0
    0.0000    0.0000    0.0000 C   0  0  0  0  0  0  0  0  0  0  0  0
    0.0000    0.0000    0.0000 C   0  0  0  0  0  0  0  0  0  0  0  0
    0.0000    0.0000    0.0000 C   0  0  0  0  0  0  0  0  0  0  0  0
    0.0000    0.0000    0.0000 C   0  0  0  0  0  0  0  0  0  0  0  0
    0.0000    0.0000    0.0000 C   0  0  0  0  0  0  0  0  0  0  0  0
    0.0000    0.0000    0.0000 C   0  0  0  0  0  0  0  0  0  0  0  0
    0.0000    0.0000    0.0000 C   0  0  0  0  0  0  0  0  0  0  0  0
    0.0000    0.0000    0.0000 C   0  0  0  0  0  0  0  0  0  0  0  0
    0.0000    0.0000    0.0000 C   0  0  0  0  0  0  0  0  0  0  0  0
    0.0000    0.0000    0.0000 C   0  0  0  0  0  0  0  0  0  0  0  0
    0.0000    0.0000    0.0000 C   0  0  0  0  0  0  0  0  0  0  0  0
    0.0000    0.0000    0.0000 C   0  0  0  0  0  0  0  0  0  0  0  0
    0.0000    0.0000    0.0000 C   0  0  0  0  0  0  0  0  0  0  0  0
    0.0000    0.0000    0.0000 C   0  0  0  0  0  0  0  0  0  0  0  0
    0.0000    0.0000    0.0000 C   0  0  0  0  0  0  0  0  0  0  0  0
    0.0000    0.0000    0.0000 O   0  0  0  0  0  0  0  0  0  0  0  0
    0.0000    0.0000    0.0000 C   0  0  0  0  0  0  0  0  0  0  0  0
    0.0000    0.0000    0.0000 C   0  0  0  0  0  0  0  0  0  0  0  0
  1  2  1  0  0  0  0
  1 23  1  0  0  0  0
  2  3  1  0  0  0  0
  2 10  1  0  0  0  0
  2 17  1  0  0  0  0
  3  4  1  0  0  0  0
  3  5  1  0  0  0  0
  3  9  1  0  0  0  0
  5  6  1  0  0  0  0
  6  7  1  0  0  0  0
  6  8  1  0  0  0  0
 10 11  1  0  0  0  0
 11 16  1  0  0  0  0
 11 12  2  0  0  0  0
 12 13  1  0  0  0  0
 13 14  2  0  0  0  0
 14 15  1  0  0  0  0
 15 16  2  0  0  0  0
 17 22  1  0  0  0  0
 17 18  2  0  0  0  0
 18 19  1  0  0  0  0
 19 20  2  0  0  0  0
 20 21  1  0  0  0  0
 21 22  2  0  0  0  0
 23 24  2  0  0  0  0
 23 25  1  0  0  0  0
 25 26  1  0  0  0  0
M  END
> <Index>
1519

> <ID>
HT0629

> <class>
1

> <apol>
60.760998

> <ast_fraglike>
0

> <ast_fraglike_ext>
0

> <ast_violation>
2

> <ast_violation_ext>
3

> <a_acc>
2

> <a_acid>
0

> <a_aro>
12

> <a_base>
0

> <a_count>
54

> <a_don>
0

> <a_donacc>
2

> <a_heavy>
25

> <a_hyd>
21

> <a_IC>
69.774979

> <a_ICM>
1.2921293

> <a_nB>
0

> <a_nBr>
0

> <a_nC>
22

> <a_nCl>
0

> <a_nF>
0

> <a_nH>
29

> <a_nI>
0

> <a_nN>
1

> <a_nO>
2

> <a_nP>
0

> <a_nS>
0

> <balabanJ>
2.2744987

> <BCUT_PEOE_0>
-2.7232893

> <BCUT_PEOE_1>
-0.52802706

> <BCUT_PEOE_2>
0.58747566

> <BCUT_PEOE_3>
2.7055199

> <BCUT_SLOGP_0>
-2.7360218

> <BCUT_SLOGP_1>
-0.43048629

> <BCUT_SLOGP_2>
0.68348509

> <BCUT_SLOGP_3>
2.7522314

> <BCUT_SMR_0>
-2.471704

> <BCUT_SMR_1>
-0.39592147

> <BCUT_SMR_2>
0.72461289

> <BCUT_SMR_3>
2.949512

> <bpol>
36.557003

> <b_1rotN>
8

> <b_1rotR>
0.30769232

> <b_ar>
12

> <b_count>
55

> <b_double>
1

> <b_heavy>
26

> <b_max1len>
7

> <b_rotN>
9

> <b_rotR>
0.34615386

> <b_single>
42

> <b_triple>
0

> <chi0>
18.286245

> <chi0v>
15.735884

> <chi0v_C>
14.472174

> <chi0_C>
16.001789

> <chi1>
11.9752

> <chi1v>
8.9364357

> <chi1v_C>
7.1134081

> <chi1_C>
9.0730991

> <chiral>
2

> <chiral_u>
0

> <density>
0.65551835

> <diameter>
9

> <FCharge>
0

> <GCUT_PEOE_0>
-0.86306226

> <GCUT_PEOE_1>
-0.36738217

> <GCUT_PEOE_2>
0.059118815

> <GCUT_PEOE_3>
2.8936288

> <GCUT_SLOGP_0>
-0.95448852

> <GCUT_SLOGP_1>
-0.26386139

> <GCUT_SLOGP_2>
0.13860148

> <GCUT_SLOGP_3>
2.9716659

> <GCUT_SMR_0>
-0.52747631

> <GCUT_SMR_1>
-0.19329205

> <GCUT_SMR_2>
0.159007

> <GCUT_SMR_3>
3.1431735

> <Kier1>
21.301775

> <Kier2>
10.364081

> <Kier3>
6.0

> <KierA1>
16.779224

> <KierA2>
8.0770264

> <KierA3>
4.6386456

> <KierFlex>
5.4210496

> <lip_acc>
3

> <lip_don>
0

> <lip_druglike>
1

> <lip_violation>
0

> <logP(o/w)>
5.1880002

> <logS>
-4.1065402

> <mr>
10.439218

> <mutagenic>
0

> <nmol>
1

> <opr_brigid>
12

> <opr_leadlike>
1

> <opr_nring>
2

> <opr_nrot>
8

> <opr_violation>
1

> <PC+>
0

> <PC->
0

> <PEOE_PC+>
1.6735451

> <PEOE_PC->
-1.6735451

> <PEOE_RPC+>
0.15699162

> <PEOE_RPC->
0.18403246

> <PEOE_VSA+0>
111.63728

> <PEOE_VSA+1>
42.653858

> <PEOE_VSA+2>
0.0

> <PEOE_VSA+3>
0.0

> <PEOE_VSA+4>
0.0

> <PEOE_VSA+5>
14.708499

> <PEOE_VSA+6>
0.0

> <PEOE_VSA-0>
50.894459

> <PEOE_VSA-1>
160.04439

> <PEOE_VSA-2>
0.0

> <PEOE_VSA-3>
0.0

> <PEOE_VSA-4>
0.0

> <PEOE_VSA-5>
13.566921

> <PEOE_VSA-6>
2.503756

> <PEOE_VSA_FHYD>
0.92227662

> <PEOE_VSA_FNEG>
0.57324308

> <PEOE_VSA_FPNEG>
0.040581577

> <PEOE_VSA_FPOL>
0.077723391

> <PEOE_VSA_FPOS>
0.42675689

> <PEOE_VSA_FPPOS>
0.037141815

> <PEOE_VSA_HYD>
365.23001

> <PEOE_VSA_NEG>
227.00952

> <PEOE_VSA_PNEG>
16.070677

> <PEOE_VSA_POL>
30.779177

> <PEOE_VSA_POS>
168.99965

> <PEOE_VSA_PPOS>
14.708499

> <petitjean>
0.44444445

> <petitjeanSC>
0.80000001

> <Q_PC+>
0

> <Q_PC->
0

> <Q_RPC+>
0

> <Q_RPC->
0

> <Q_VSA_FHYD>
1

> <Q_VSA_FNEG>
0

> <Q_VSA_FPNEG>
0

> <Q_VSA_FPOL>
0

> <Q_VSA_FPOS>
1

> <Q_VSA_FPPOS>
0

> <Q_VSA_HYD>
396.00919

> <Q_VSA_NEG>
0

> <Q_VSA_PNEG>
0

> <Q_VSA_POL>
0

> <Q_VSA_POS>
396.00919

> <Q_VSA_PPOS>
0

> <radius>
5

> <reactive>
0

> <rings>
2

> <RPC+>
0

> <RPC->
0

> <rsynth>
0.2

> <SlogP>
4.5869699

> <SlogP_VSA0>
0.0

> <SlogP_VSA1>
10.869778

> <SlogP_VSA2>
34.862103

> <SlogP_VSA3>
18.439579

> <SlogP_VSA4>
10.781946

> <SlogP_VSA5>
84.662781

> <SlogP_VSA6>
0.0

> <SlogP_VSA7>
176.43184

> <SlogP_VSA8>
18.868406

> <SlogP_VSA9>
66.652031

> <SMR>
10.2484

> <SMR_VSA0>
34.862103

> <SMR_VSA1>
3.1243138

> <SMR_VSA2>
4.4107962

> <SMR_VSA3>
6.37115

> <SMR_VSA4>
0.0

> <SMR_VSA5>
214.16866

> <SMR_VSA6>
26.185041

> <SMR_VSA7>
132.44641

> <TPSA>
29.540001

> <VAdjEq>
0.41335541

> <VAdjMa>
5.7004399

> <VDistEq>
3.0032611

> <VDistMa>
9.064311

> <vdw_area>
396.00919

> <vdw_vol>
517.87872

> <vsa_acc>
13.566921

> <vsa_acid>
0

> <vsa_base>
0

> <vsa_don>
0.0

> <vsa_hyd>
343.24289

> <vsa_other>
17.212255

> <vsa_pol>
13.566921

> <Weight>
339.479

> <weinerPath>
1364

> <weinerPol>
38

> <zagreb>
122

$$$$
Row1519
 OpenBabel06061811532D

 25 26  0  0  1  0  0  0  0  0999 V2000
    0.0000    0.0000    0.0000 I   0  0  0  0  0  0  0  0  0  0  0  0
    0.0000    0.0000    0.0000 C   0  0  0  0  0  0  0  0  0  0  0  0
    0.0000    0.0000    0.0000 C   0  0  0  0  0  0  0  0  0  0  0  0
    0.0000    0.0000    0.0000 C   0  0  0  0  0  0  0  0  0  0  0  0
    0.0000    0.0000    0.0000 C   0  0  0  0  0  0  0  0  0  0  0  0
    0.0000    0.0000    0.0000 C   0  0  0  0  0  0  0  0  0  0  0  0
    0.0000    0.0000    0.0000 I   0  0  0  0  0  0  0  0  0  0  0  0
    0.0000    0.0000    0.0000 C   0  0  0  0  0  0  0  0  0  0  0  0
    0.0000    0.0000    0.0000 O   0  0  0  0  0  0  0  0  0  0  0  0
    0.0000    0.0000    0.0000 C   0  0  0  0  0  0  0  0  0  0  0  0
    0.0000    0.0000    0.0000 C   0  0  0  0  0  0  0  0  0  0  0  0
    0.0000    0.0000    0.0000 C   0  0  0  0  0  0  0  0  0  0  0  0
    0.0000    0.0000    0.0000 I   0  0  0  0  0  0  0  0  0  0  0  0
    0.0000    0.0000    0.0000 C   0  0  0  0  0  0  0  0  0  0  0  0
    0.0000    0.0000    0.0000 O   0  0  0  0  0  0  0  0  0  0  0  0
    0.0000    0.0000    0.0000 C   0  0  0  0  0  0  0  0  0  0  0  0
    0.0000    0.0000    0.0000 I   0  0  0  0  0  0  0  0  0  0  0  0
    0.0000    0.0000    0.0000 C   0  0  0  0  0  0  0  0  0  0  0  0
    0.0000    0.0000    0.0000 C   0  0  0  0  0  0  0  0  0  0  0  0
    0.0000    0.0000    0.0000 C   0  0  1  0  0  0  0  0  0  0  0  0
    0.0000    0.0000    0.0000 H   0  0  0  0  0  0  0  0  0  0  0  0
    0.0000    0.0000    0.0000 N   0  0  0  0  0  0  0  0  0  0  0  0
    0.0000    0.0000    0.0000 C   0  0  0  0  0  0  0  0  0  0  0  0
    0.0000    0.0000    0.0000 O   0  0  0  0  0  0  0  0  0  0  0  0
    0.0000    0.0000    0.0000 O   0  0  0  0  0  0  0  0  0  0  0  0
  1  2  1  0  0  0  0
  2  8  1  0  0  0  0
  2  3  2  0  0  0  0
  3  4  1  0  0  0  0
  4  5  2  0  0  0  0
  4 19  1  0  0  0  0
  5  6  1  0  0  0  0
  6  7  1  0  0  0  0
  6  8  2  0  0  0  0
  8  9  1  0  0  0  0
  9 10  1  0  0  0  0
 10 18  1  0  0  0  0
 10 11  2  0  0  0  0
 11 12  1  0  0  0  0
 12 13  1  0  0  0  0
 12 14  2  0  0  0  0
 14 15  1  0  0  0  0
 14 16  1  0  0  0  0
 16 17  1  0  0  0  0
 16 18  2  0  0  0  0
 19 20  1  0  0  0  0
 20 21  1  0  0  0  0
 20 22  1  0  0  0  0
 20 23  1  0  0  0  0
 23 24  1  0  0  0  0
 23 25  2  0  0  0  0
M  END
> <Index>
1520

> <ID>
HT0631

> <class>
1

> <apol>
59.442722

> <ast_fraglike>
0

> <ast_fraglike_ext>
0

> <ast_violation>
4

> <ast_violation_ext>
5

> <a_acc>
4

> <a_acid>
0

> <a_aro>
12

> <a_base>
0

> <a_count>
35

> <a_don>
4

> <a_donacc>
8

> <a_heavy>
24

> <a_hyd>
18

> <a_IC>
66.867798

> <a_ICM>
1.9105085

> <a_nB>
0

> <a_nBr>
0

> <a_nC>
15

> <a_nCl>
0

> <a_nF>
0

> <a_nH>
11

> <a_nI>
4

> <a_nN>
1

> <a_nO>
4

> <a_nP>
0

> <a_nS>
0

> <balabanJ>
1.8936124

> <BCUT_PEOE_0>
-2.4787138

> <BCUT_PEOE_1>
-0.67869681

> <BCUT_PEOE_2>
0.68493426

> <BCUT_PEOE_3>
2.5062897

> <BCUT_SLOGP_0>
-2.7321019

> <BCUT_SLOGP_1>
-0.48640838

> <BCUT_SLOGP_2>
1.0538911

> <BCUT_SLOGP_3>
2.4649458

> <BCUT_SMR_0>
-2.2277873

> <BCUT_SMR_1>
-0.28402144

> <BCUT_SMR_2>
1.2708766

> <BCUT_SMR_3>
2.7598932

> <bpol>
28.599277

> <b_1rotN>
5

> <b_1rotR>
0.2

> <b_ar>
12

> <b_count>
36

> <b_double>
1

> <b_heavy>
25

> <b_max1len>
4

> <b_rotN>
5

> <b_rotR>
0.2

> <b_single>
23

> <b_triple>
0

> <chi0>
18.016144

> <chi0v>
20.523983

> <chi0v_C>
8.0938578

> <chi0_C>
9.3090363

> <chi1>
11.184448

> <chi1v>
10.823723

> <chi1v_C>
4.3598781

> <chi1_C>
5.7491498

> <chiral>
1

> <chiral_u>
0

> <density>
1.582387

> <diameter>
13

> <FCharge>
0

> <GCUT_PEOE_0>
-0.8107419

> <GCUT_PEOE_1>
-0.44613695

> <GCUT_PEOE_2>
0.051221799

> <GCUT_PEOE_3>
2.3926785

> <GCUT_SLOGP_0>
-1.363467

> <GCUT_SLOGP_1>
-0.34100467

> <GCUT_SLOGP_2>
0.4435201

> <GCUT_SLOGP_3>
2.5454159

> <GCUT_SMR_0>
-0.49890575

> <GCUT_SMR_1>
-0.19539262

> <GCUT_SMR_2>
0.5866679

> <GCUT_SMR_3>
2.7737563

> <Kier1>
20.313601

> <Kier2>
8.5895061

> <Kier3>
5.25

> <KierA1>
27.173117

> <KierA2>
11.633377

> <KierA3>
7.1738362

> <KierFlex>
13.171463

> <lip_acc>
5

> <lip_don>
4

> <lip_druglike>
1

> <lip_violation>
1

> <logP(o/w)>
4.6792698

> <logS>
-6.4939499

> <mr>
12.708792

> <mutagenic>
0

> <nmol>
1

> <opr_brigid>
12

> <opr_leadlike>
0

> <opr_nring>
2

> <opr_nrot>
5

> <opr_violation>
2

> <PC+>
0

> <PC->
0

> <PEOE_PC+>
1.9047208

> <PEOE_PC->
-1.9047208

> <PEOE_RPC+>
0.14535543

> <PEOE_RPC->
0.18782865

> <PEOE_VSA+0>
20.691149

> <PEOE_VSA+1>
41.389931

> <PEOE_VSA+2>
25.696545

> <PEOE_VSA+3>
0.0

> <PEOE_VSA+4>
20.648346

> <PEOE_VSA+5>
14.708499

> <PEOE_VSA+6>
0.0

> <PEOE_VSA-0>
247.88953

> <PEOE_VSA-1>
0.0

> <PEOE_VSA-2>
0.0

> <PEOE_VSA-3>
0.0

> <PEOE_VSA-4>
0.0

> <PEOE_VSA-5>
13.566921

> <PEOE_VSA-6>
24.689957

> <PEOE_VSA_FHYD>
0.82013887

> <PEOE_VSA_FNEG>
0.69914436

> <PEOE_VSA_FPNEG>
0.093473405

> <PEOE_VSA_FPOL>
0.17986113

> <PEOE_VSA_FPOS>
0.30085567

> <PEOE_VSA_FPPOS>
0.086387731

> <PEOE_VSA_HYD>
335.66714

> <PEOE_VSA_NEG>
286.14639

> <PEOE_VSA_PNEG>
38.256878

> <PEOE_VSA_POL>
73.613724

> <PEOE_VSA_POS>
123.13447

> <PEOE_VSA_PPOS>
35.356846

> <petitjean>
0.46153846

> <petitjeanSC>
0.85714287

> <Q_PC+>
0

> <Q_PC->
0

> <Q_RPC+>
0

> <Q_RPC->
0

> <Q_VSA_FHYD>
1

> <Q_VSA_FNEG>
0

> <Q_VSA_FPNEG>
0

> <Q_VSA_FPOL>
0

> <Q_VSA_FPOS>
1

> <Q_VSA_FPPOS>
0

> <Q_VSA_HYD>
409.28088

> <Q_VSA_NEG>
0

> <Q_VSA_PNEG>
0

> <Q_VSA_POL>
0

> <Q_VSA_POS>
409.28088

> <Q_VSA_PPOS>
0

> <radius>
7

> <reactive>
0

> <rings>
2

> <RPC+>
0

> <RPC->
0

> <rsynth>
0.41666666

> <SlogP>
4.5572701

> <SlogP_VSA0>
69.282303

> <SlogP_VSA1>
7.7454643

> <SlogP_VSA2>
34.482758

> <SlogP_VSA3>
25.385227

> <SlogP_VSA4>
3.185575

> <SlogP_VSA5>
18.868406

> <SlogP_VSA6>
0.0

> <SlogP_VSA7>
70.572739

> <SlogP_VSA8>
0.0

> <SlogP_VSA9>
242.85832

> <SMR>
12.4806

> <SMR_VSA0>
23.862217

> <SMR_VSA1>
36.385113

> <SMR_VSA2>
32.0238

> <SMR_VSA3>
22.897827

> <SMR_VSA4>
32.897186

> <SMR_VSA5>
89.441139

> <SMR_VSA6>
7.7454643

> <SMR_VSA7>
227.12804

> <TPSA>
92.779999

> <VAdjEq>
0.42571631

> <VAdjMa>
5.643856

> <VDistEq>
3.4691186

> <VDistMa>
8.8572464

> <vdw_area>
409.28088

> <vdw_vol>
490.94943

> <vsa_acc>
0.0

> <vsa_acid>
0

> <vsa_base>
0

> <vsa_don>
0.0

> <vsa_hyd>
313.44656

> <vsa_other>
17.212255

> <vsa_pol>
58.443253

> <Weight>
776.87201

> <weinerPath>
1438

> <weinerPol>
38

> <zagreb>
122

$$$$
Row1520
 OpenBabel06061811532D

 20 20  0  0  0  0  0  0  0  0999 V2000
    0.0000    0.0000    0.0000 I   0  0  0  0  0  0  0  0  0  0  0  0
    0.0000    0.0000    0.0000 C   0  0  0  0  0  0  0  0  0  0  0  0
    0.0000    0.0000    0.0000 C   0  0  0  0  0  0  0  0  0  0  0  0
    0.0000    0.0000    0.0000 C   0  0  0  0  0  0  0  0  0  0  0  0
    0.0000    0.0000    0.0000 O   0  0  0  0  0  0  0  0  0  0  0  0
    0.0000    0.0000    0.0000 O   0  0  0  0  0  0  0  0  0  0  0  0
    0.0000    0.0000    0.0000 C   0  0  0  0  0  0  0  0  0  0  0  0
    0.0000    0.0000    0.0000 I   0  0  0  0  0  0  0  0  0  0  0  0
    0.0000    0.0000    0.0000 C   0  0  0  0  0  0  0  0  0  0  0  0
    0.0000    0.0000    0.0000 N   0  0  0  0  0  0  0  0  0  0  0  0
    0.0000    0.0000    0.0000 C   0  0  0  0  0  0  0  0  0  0  0  0
    0.0000    0.0000    0.0000 O   0  0  0  0  0  0  0  0  0  0  0  0
    0.0000    0.0000    0.0000 C   0  0  0  0  0  0  0  0  0  0  0  0
    0.0000    0.0000    0.0000 C   0  0  0  0  0  0  0  0  0  0  0  0
    0.0000    0.0000    0.0000 I   0  0  0  0  0  0  0  0  0  0  0  0
    0.0000    0.0000    0.0000 C   0  0  0  0  0  0  0  0  0  0  0  0
    0.0000    0.0000    0.0000 N   0  0  0  0  0  0  0  0  0  0  0  0
    0.0000    0.0000    0.0000 C   0  0  0  0  0  0  0  0  0  0  0  0
    0.0000    0.0000    0.0000 O   0  0  0  0  0  0  0  0  0  0  0  0
    0.0000    0.0000    0.0000 C   0  0  0  0  0  0  0  0  0  0  0  0
  1  2  1  0  0  0  0
  2 16  1  0  0  0  0
  2  3  2  0  0  0  0
  3  4  1  0  0  0  0
  3  7  1  0  0  0  0
  4  5  1  0  0  0  0
  4  6  2  0  0  0  0
  7  8  1  0  0  0  0
  7  9  2  0  0  0  0
  9 10  1  0  0  0  0
  9 14  1  0  0  0  0
 10 11  1  0  0  0  0
 11 12  2  0  0  0  0
 11 13  1  0  0  0  0
 14 15  1  0  0  0  0
 14 16  2  0  0  0  0
 16 17  1  0  0  0  0
 17 18  1  0  0  0  0
 18 19  2  0  0  0  0
 18 20  1  0  0  0  0
M  END
> <Index>
1521

> <ID>
HT0635

> <class>
1

> <apol>
46.819138

> <ast_fraglike>
0

> <ast_fraglike_ext>
0

> <ast_violation>
4

> <ast_violation_ext>
5

> <a_acc>
4

> <a_acid>
0

> <a_aro>
6

> <a_base>
0

> <a_count>
29

> <a_don>
4

> <a_donacc>
8

> <a_heavy>
20

> <a_hyd>
11

> <a_IC>
59.543488

> <a_ICM>
2.0532238

> <a_nB>
0

> <a_nBr>
0

> <a_nC>
11

> <a_nCl>
0

> <a_nF>
0

> <a_nH>
9

> <a_nI>
3

> <a_nN>
2

> <a_nO>
4

> <a_nP>
0

> <a_nS>
0

> <balabanJ>
3.0238004

> <BCUT_PEOE_0>
-2.323432

> <BCUT_PEOE_1>
-0.58299261

> <BCUT_PEOE_2>
0.46557987

> <BCUT_PEOE_3>
2.3363326

> <BCUT_SLOGP_0>
-2.3817298

> <BCUT_SLOGP_1>
-0.52331209

> <BCUT_SLOGP_2>
0.58883548

> <BCUT_SLOGP_3>
2.4200783

> <BCUT_SMR_0>
-1.9941061

> <BCUT_SMR_1>
-0.31823936

> <BCUT_SMR_2>
0.85476959

> <BCUT_SMR_3>
2.7286553

> <bpol>
24.802862

> <b_1rotN>
3

> <b_1rotR>
0.15000001

> <b_ar>
6

> <b_count>
29

> <b_double>
3

> <b_heavy>
20

> <b_max1len>
2

> <b_rotN>
5

> <b_rotR>
0.25

> <b_single>
20

> <b_triple>
0

> <chi0>
15.610366

> <chi0v>
16.778347

> <chi0v_C>
6.5

> <chi0_C>
7.1961522

> <chi1>
9.1624784

> <chi1v>
8.3891735

> <chi1v_C>
2.75

> <chi1_C>
3.4880338

> <chiral>
0

> <chiral_u>
0

> <density>
1.5607532

> <diameter>
8

> <FCharge>
0

> <GCUT_PEOE_0>
-0.81042892

> <GCUT_PEOE_1>
-0.50207072

> <GCUT_PEOE_2>
0.078563385

> <GCUT_PEOE_3>
2.3074825

> <GCUT_SLOGP_0>
-1.0008125

> <GCUT_SLOGP_1>
-0.42246196

> <GCUT_SLOGP_2>
0.2318325

> <GCUT_SLOGP_3>
2.4295311

> <GCUT_SMR_0>
-0.46895012

> <GCUT_SMR_1>
-0.19949943

> <GCUT_SMR_2>
0.37389082

> <GCUT_SMR_3>
2.7397749

> <Kier1>
18.049999

> <Kier2>
7.3198571

> <Kier3>
4.25

> <KierA1>
21.488802

> <KierA2>
8.7952757

> <KierA3>
5.1411161

> <KierFlex>
9.4499969

> <lip_acc>
6

> <lip_don>
3

> <lip_druglike>
1

> <lip_violation>
1

> <logP(o/w)>
3.723

> <logS>
-4.7477398

> <mr>
10.020804

> <mutagenic>
0

> <nmol>
1

> <opr_brigid>
6

> <opr_leadlike>
1

> <opr_nring>
1

> <opr_nrot>
3

> <opr_violation>
1

> <PC+>
0

> <PC->
0

> <PEOE_PC+>
1.9035385

> <PEOE_PC->
-1.9035385

> <PEOE_RPC+>
0.15412579

> <PEOE_RPC->
0.17201631

> <PEOE_VSA+0>
63.087669

> <PEOE_VSA+1>
24.727924

> <PEOE_VSA+2>
0.0

> <PEOE_VSA+3>
17.238026

> <PEOE_VSA+4>
36.223236

> <PEOE_VSA+5>
14.708499

> <PEOE_VSA+6>
0.0

> <PEOE_VSA-0>
140.97005

> <PEOE_VSA-1>
0.0

> <PEOE_VSA-2>
0.0

> <PEOE_VSA-3>
0.0

> <PEOE_VSA-4>
0.0

> <PEOE_VSA-5>
40.700764

> <PEOE_VSA-6>
8.0413227

> <PEOE_VSA_FHYD>
0.71167326

> <PEOE_VSA_FNEG>
0.54878074

> <PEOE_VSA_FPNEG>
0.14099635

> <PEOE_VSA_FPOL>
0.28832671

> <PEOE_VSA_FPOS>
0.45121923

> <PEOE_VSA_FPPOS>
0.14733036

> <PEOE_VSA_HYD>
246.02367

> <PEOE_VSA_NEG>
189.71213

> <PEOE_VSA_PNEG>
48.742085

> <PEOE_VSA_POL>
99.67382

> <PEOE_VSA_POS>
155.98535

> <PEOE_VSA_PPOS>
50.931732

> <petitjean>
0.375

> <petitjeanSC>
0.60000002

> <Q_PC+>
0

> <Q_PC->
0

> <Q_RPC+>
0

> <Q_RPC->
0

> <Q_VSA_FHYD>
1

> <Q_VSA_FNEG>
0

> <Q_VSA_FPNEG>
0

> <Q_VSA_FPOL>
0

> <Q_VSA_FPOS>
1

> <Q_VSA_FPPOS>
0

> <Q_VSA_HYD>
345.69748

> <Q_VSA_NEG>
0

> <Q_VSA_PNEG>
0

> <Q_VSA_POL>
0

> <Q_VSA_POS>
345.69748

> <Q_VSA_PPOS>
0

> <radius>
5

> <reactive>
0

> <rings>
1

> <RPC+>
0

> <RPC->
0

> <rsynth>
1.0

> <SlogP>
3.1154001

> <SlogP_VSA0>
0.0

> <SlogP_VSA1>
54.284534

> <SlogP_VSA2>
52.703362

> <SlogP_VSA3>
25.385227

> <SlogP_VSA4>
27.047791

> <SlogP_VSA5>
0.0

> <SlogP_VSA6>
0.0

> <SlogP_VSA7>
0.0

> <SlogP_VSA8>
0.0

> <SlogP_VSA9>
242.51155

> <SMR>
10.01597

> <SMR_VSA0>
71.586647

> <SMR_VSA1>
0.0

> <SMR_VSA2>
30.364155

> <SMR_VSA3>
3.185575

> <SMR_VSA4>
41.534996

> <SMR_VSA5>
0.0

> <SMR_VSA6>
18.263031

> <SMR_VSA7>
236.99806

> <TPSA>
95.5

> <VAdjEq>
0.4689956

> <VAdjMa>
5.321928

> <VDistEq>
2.8450079

> <VDistMa>
8.399682

> <vdw_area>
345.69748

> <vdw_vol>
393.34534

> <vsa_acc>
27.133842

> <vsa_acid>
0

> <vsa_base>
0

> <vsa_don>
11.365152

> <vsa_hyd>
224.51486

> <vsa_other>
40.607563

> <vsa_pol>
65.632835

> <Weight>
613.91498

> <weinerPath>
746

> <weinerPol>
33

> <zagreb>
98

$$$$
Row1521
 OpenBabel06061811532D

 20 22  0  0  0  0  0  0  0  0999 V2000
    0.0000    0.0000    0.0000 Cl  0  0  0  0  0  0  0  0  0  0  0  0
    0.0000    0.0000    0.0000 C   0  0  0  0  0  0  0  0  0  0  0  0
    0.0000    0.0000    0.0000 C   0  0  0  0  0  0  0  0  0  0  0  0
    0.0000    0.0000    0.0000 C   0  0  0  0  0  0  0  0  0  0  0  0
    0.0000    0.0000    0.0000 C   0  0  0  0  0  0  0  0  0  0  0  0
    0.0000    0.0000    0.0000 N   0  0  0  0  0  0  0  0  0  0  0  0
    0.0000    0.0000    0.0000 C   0  0  0  0  0  0  0  0  0  0  0  0
    0.0000    0.0000    0.0000 C   0  0  0  0  0  0  0  0  0  0  0  0
    0.0000    0.0000    0.0000 O   0  0  0  0  0  0  0  0  0  0  0  0
    0.0000    0.0000    0.0000 C   0  0  0  0  0  0  0  0  0  0  0  0
    0.0000    0.0000    0.0000 N   0  0  0  0  0  0  0  0  0  0  0  0
    0.0000    0.0000    0.0000 C   0  0  0  0  0  0  0  0  0  0  0  0
    0.0000    0.0000    0.0000 C   0  0  0  0  0  0  0  0  0  0  0  0
    0.0000    0.0000    0.0000 C   0  0  0  0  0  0  0  0  0  0  0  0
    0.0000    0.0000    0.0000 C   0  0  0  0  0  0  0  0  0  0  0  0
    0.0000    0.0000    0.0000 C   0  0  0  0  0  0  0  0  0  0  0  0
    0.0000    0.0000    0.0000 C   0  0  0  0  0  0  0  0  0  0  0  0
    0.0000    0.0000    0.0000 C   0  0  0  0  0  0  0  0  0  0  0  0
    0.0000    0.0000    0.0000 C   0  0  0  0  0  0  0  0  0  0  0  0
    0.0000    0.0000    0.0000 C   0  0  0  0  0  0  0  0  0  0  0  0
  1  2  1  0  0  0  0
  2 20  1  0  0  0  0
  2  3  2  0  0  0  0
  3  4  1  0  0  0  0
  4 12  1  0  0  0  0
  4  5  2  0  0  0  0
  5  6  1  0  0  0  0
  5 19  1  0  0  0  0
  6  7  1  0  0  0  0
  6  8  1  0  0  0  0
  8  9  2  0  0  0  0
  8 10  1  0  0  0  0
 10 11  1  0  0  0  0
 11 12  2  0  0  0  0
 12 13  1  0  0  0  0
 13 18  1  0  0  0  0
 13 14  2  0  0  0  0
 14 15  1  0  0  0  0
 15 16  2  0  0  0  0
 16 17  1  0  0  0  0
 17 18  2  0  0  0  0
 19 20  2  0  0  0  0
M  END
> <Index>
1522

> <ID>
HT0636

> <class>
1

> <apol>
42.010307

> <ast_fraglike>
0

> <ast_fraglike_ext>
0

> <ast_violation>
1

> <ast_violation_ext>
1

> <a_acc>
2

> <a_acid>
0

> <a_aro>
12

> <a_base>
0

> <a_count>
33

> <a_don>
0

> <a_donacc>
2

> <a_heavy>
20

> <a_hyd>
15

> <a_IC>
52.359291

> <a_ICM>
1.5866451

> <a_nB>
0

> <a_nBr>
0

> <a_nC>
16

> <a_nCl>
1

> <a_nF>
0

> <a_nH>
13

> <a_nI>
0

> <a_nN>
2

> <a_nO>
1

> <a_nP>
0

> <a_nS>
0

> <balabanJ>
1.8048301

> <BCUT_PEOE_0>
-2.3992569

> <BCUT_PEOE_1>
-0.59961963

> <BCUT_PEOE_2>
0.62027055

> <BCUT_PEOE_3>
2.4249942

> <BCUT_SLOGP_0>
-2.5308385

> <BCUT_SLOGP_1>
-0.46274725

> <BCUT_SLOGP_2>
0.78449517

> <BCUT_SLOGP_3>
2.4318204

> <BCUT_SMR_0>
-2.0784142

> <BCUT_SMR_1>
-0.42152348

> <BCUT_SMR_2>
0.86350912

> <BCUT_SMR_3>
2.7446651

> <bpol>
18.88969

> <b_1rotN>
1

> <b_1rotR>
0.045454547

> <b_ar>
12

> <b_count>
35

> <b_double>
2

> <b_heavy>
22

> <b_max1len>
2

> <b_rotN>
1

> <b_rotR>
0.045454547

> <b_single>
21

> <b_triple>
0

> <chi0>
14.112519

> <chi0v>
11.762478

> <chi0v_C>
9.3259087

> <chi0_C>
10.828063

> <chi1>
9.6647034

> <chi1v>
6.7076035

> <chi1v_C>
4.5022707

> <chi1_C>
6.357738

> <chiral>
0

> <chiral_u>
0

> <density>
0.76512945

> <diameter>
8

> <FCharge>
0

> <GCUT_PEOE_0>
-0.82644606

> <GCUT_PEOE_1>
-0.40744007

> <GCUT_PEOE_2>
0.065225966

> <GCUT_PEOE_3>
2.5099084

> <GCUT_SLOGP_0>
-1.0001423

> <GCUT_SLOGP_1>
-0.28705946

> <GCUT_SLOGP_2>
0.15371285

> <GCUT_SLOGP_3>
2.5974557

> <GCUT_SMR_0>
-0.46826077

> <GCUT_SMR_1>
-0.19320787

> <GCUT_SMR_2>
0.22595792

> <GCUT_SMR_3>
2.8295438

> <Kier1>
14.917356

> <Kier2>
6.405827

> <Kier3>
3.1224489

> <KierA1>
10.983979

> <KierA2>
4.6342187

> <KierA3>
2.2298164

> <KierFlex>
2.5451083

> <lip_acc>
3

> <lip_don>
0

> <lip_druglike>
1

> <lip_violation>
0

> <logP(o/w)>
3.109

> <logS>
-4.5316901

> <mr>
8.0551805

> <mutagenic>
0

> <nmol>
1

> <opr_brigid>
18

> <opr_leadlike>
1

> <opr_nring>
3

> <opr_nrot>
1

> <opr_violation>
0

> <PC+>
0

> <PC->
0

> <PEOE_PC+>
1.3391987

> <PEOE_PC->
-1.3391987

> <PEOE_RPC+>
0.18592724

> <PEOE_RPC->
0.23376244

> <PEOE_VSA+0>
44.971672

> <PEOE_VSA+1>
56.052963

> <PEOE_VSA+2>
13.192325

> <PEOE_VSA+3>
0.0

> <PEOE_VSA+4>
12.949531

> <PEOE_VSA+5>
0.0

> <PEOE_VSA+6>
0.0

> <PEOE_VSA-0>
36.764713

> <PEOE_VSA-1>
90.856468

> <PEOE_VSA-2>
0.0

> <PEOE_VSA-3>
0.0

> <PEOE_VSA-4>
0.0

> <PEOE_VSA-5>
19.249496

> <PEOE_VSA-6>
0.0

> <PEOE_VSA_FHYD>
0.88250124

> <PEOE_VSA_FNEG>
0.53595167

> <PEOE_VSA_FPNEG>
0.070244111

> <PEOE_VSA_FPOL>
0.11749876

> <PEOE_VSA_FPOS>
0.46404833

> <PEOE_VSA_FPPOS>
0.047254652

> <PEOE_VSA_HYD>
241.83813

> <PEOE_VSA_NEG>
146.87068

> <PEOE_VSA_PNEG>
19.249496

> <PEOE_VSA_POL>
32.199028

> <PEOE_VSA_POS>
127.16649

> <PEOE_VSA_PPOS>
12.949531

> <petitjean>
0.5

> <petitjeanSC>
1.0

> <Q_PC+>
0

> <Q_PC->
0

> <Q_RPC+>
0

> <Q_RPC->
0

> <Q_VSA_FHYD>
1

> <Q_VSA_FNEG>
0

> <Q_VSA_FPNEG>
0

> <Q_VSA_FPOL>
0

> <Q_VSA_FPOS>
1

> <Q_VSA_FPPOS>
0

> <Q_VSA_HYD>
274.03717

> <Q_VSA_NEG>
0

> <Q_VSA_PNEG>
0

> <Q_VSA_POL>
0

> <Q_VSA_POS>
274.03717

> <Q_VSA_PPOS>
0

> <radius>
4

> <reactive>
0

> <rings>
3

> <RPC+>
0

> <RPC->
0

> <rsynth>
1.0

> <SlogP>
3.1538

> <SlogP_VSA0>
3.1243138

> <SlogP_VSA1>
8.0155315

> <SlogP_VSA2>
23.862217

> <SlogP_VSA3>
18.439579

> <SlogP_VSA4>
6.37115

> <SlogP_VSA5>
49.682716

> <SlogP_VSA6>
3.5006065

> <SlogP_VSA7>
141.14548

> <SlogP_VSA8>
0.0

> <SlogP_VSA9>
41.905392

> <SMR>
8.1809998

> <SMR_VSA0>
23.862217

> <SMR_VSA1>
16.78553

> <SMR_VSA2>
3.1243138

> <SMR_VSA3>
9.8717566

> <SMR_VSA4>
2.7567475

> <SMR_VSA5>
141.14548

> <SMR_VSA6>
26.455109

> <SMR_VSA7>
72.04583

> <TPSA>
32.669998

> <VAdjEq>
0.49991596

> <VAdjMa>
5.4594316

> <VDistEq>
2.8391504

> <VDistMa>
8.39081

> <vdw_area>
274.03717

> <vdw_vol>
372.15402

> <vsa_acc>
19.249496

> <vsa_acid>
0

> <vsa_base>
0

> <vsa_don>
0.0

> <vsa_hyd>
225.88525

> <vsa_other>
19.649082

> <vsa_pol>
19.249496

> <Weight>
284.746

> <weinerPath>
726

> <weinerPol>
36

> <zagreb>
106

$$$$
Row1522
 OpenBabel06061811532D

 22 24  0  0  0  0  0  0  0  0999 V2000
    0.0000    0.0000    0.0000 O   0  0  0  0  0  0  0  0  0  0  0  0
    0.0000    0.0000    0.0000 C   0  0  0  0  0  0  0  0  0  0  0  0
    0.0000    0.0000    0.0000 N   0  0  0  0  0  0  0  0  0  0  0  0
    0.0000    0.0000    0.0000 C   0  0  0  0  0  0  0  0  0  0  0  0
    0.0000    0.0000    0.0000 C   0  0  0  0  0  0  0  0  0  0  0  0
    0.0000    0.0000    0.0000 N   0  0  0  0  0  0  0  0  0  0  0  0
    0.0000    0.0000    0.0000 C   0  0  0  0  0  0  0  0  0  0  0  0
    0.0000    0.0000    0.0000 C   0  0  0  0  0  0  0  0  0  0  0  0
    0.0000    0.0000    0.0000 C   0  0  0  0  0  0  0  0  0  0  0  0
    0.0000    0.0000    0.0000 C   0  0  0  0  0  0  0  0  0  0  0  0
    0.0000    0.0000    0.0000 C   0  0  0  0  0  0  0  0  0  0  0  0
    0.0000    0.0000    0.0000 C   0  0  0  0  0  0  0  0  0  0  0  0
    0.0000    0.0000    0.0000 C   0  0  0  0  0  0  0  0  0  0  0  0
    0.0000    0.0000    0.0000 C   0  0  0  0  0  0  0  0  0  0  0  0
    0.0000    0.0000    0.0000 C   0  0  0  0  0  0  0  0  0  0  0  0
    0.0000    0.0000    0.0000 C   0  0  0  0  0  0  0  0  0  0  0  0
    0.0000    0.0000    0.0000 C   0  0  0  0  0  0  0  0  0  0  0  0
    0.0000    0.0000    0.0000 C   0  0  0  0  0  0  0  0  0  0  0  0
    0.0000    0.0000    0.0000 C   0  0  0  0  0  0  0  0  0  0  0  0
    0.0000    0.0000    0.0000 N   0  0  0  0  0  0  0  0  0  0  0  0
    0.0000    0.0000    0.0000 C   0  0  0  0  0  0  0  0  0  0  0  0
    0.0000    0.0000    0.0000 C   0  0  0  0  0  0  0  0  0  0  0  0
  1  2  2  0  0  0  0
  2  8  1  0  0  0  0
  2  3  1  0  0  0  0
  3  4  1  0  0  0  0
  3 18  1  0  0  0  0
  4 17  1  0  0  0  0
  4  5  2  0  0  0  0
  5  6  1  0  0  0  0
  5 14  1  0  0  0  0
  6  7  1  0  0  0  0
  6 13  1  0  0  0  0
  7 12  1  0  0  0  0
  7  8  2  0  0  0  0
  8  9  1  0  0  0  0
  9 10  2  0  0  0  0
 10 11  1  0  0  0  0
 11 12  2  0  0  0  0
 14 15  2  0  0  0  0
 15 16  1  0  0  0  0
 16 17  2  0  0  0  0
 18 19  1  0  0  0  0
 19 20  1  0  0  0  0
 20 21  1  0  0  0  0
 20 22  1  0  0  0  0
M  END
> <Index>
1523

> <ID>
HT0639

> <class>
1

> <apol>
49.784653

> <ast_fraglike>
1

> <ast_fraglike_ext>
1

> <ast_violation>
0

> <ast_violation_ext>
0

> <a_acc>
2

> <a_acid>
0

> <a_aro>
12

> <a_base>
0

> <a_count>
43

> <a_don>
0

> <a_donacc>
2

> <a_heavy>
22

> <a_hyd>
17

> <a_IC>
61.27718

> <a_ICM>
1.4250507

> <a_nB>
0

> <a_nBr>
0

> <a_nC>
18

> <a_nCl>
0

> <a_nF>
0

> <a_nH>
21

> <a_nI>
0

> <a_nN>
3

> <a_nO>
1

> <a_nP>
0

> <a_nS>
0

> <balabanJ>
1.8584167

> <BCUT_PEOE_0>
-2.6223013

> <BCUT_PEOE_1>
-0.52776897

> <BCUT_PEOE_2>
0.58207518

> <BCUT_PEOE_3>
2.53743

> <BCUT_SLOGP_0>
-2.7375565

> <BCUT_SLOGP_1>
-0.42615247

> <BCUT_SLOGP_2>
0.69331008

> <BCUT_SLOGP_3>
2.5300741

> <BCUT_SMR_0>
-2.3316779

> <BCUT_SMR_1>
-0.40015164

> <BCUT_SMR_2>
0.72449917

> <BCUT_SMR_3>
2.8401918

> <bpol>
29.855347

> <b_1rotN>
3

> <b_1rotR>
0.125

> <b_ar>
12

> <b_count>
45

> <b_double>
1

> <b_heavy>
24

> <b_max1len>
5

> <b_rotN>
3

> <b_rotR>
0.125

> <b_single>
32

> <b_triple>
0

> <chi0>
15.68987

> <chi0v>
13.282905

> <chi0v_C>
11.533015

> <chi0_C>
12.957819

> <chi1>
10.592224

> <chi1v>
7.4773483

> <chi1v_C>
4.4047008

> <chi1_C>
6.1329932

> <chiral>
0

> <chiral_u>
0

> <density>
0.68469852

> <diameter>
9

> <FCharge>
0

> <GCUT_PEOE_0>
-0.86001527

> <GCUT_PEOE_1>
-0.33912373

> <GCUT_PEOE_2>
0.04327853

> <GCUT_PEOE_3>
2.7031667

> <GCUT_SLOGP_0>
-0.99531674

> <GCUT_SLOGP_1>
-0.31388727

> <GCUT_SLOGP_2>
0.14122869

> <GCUT_SLOGP_3>
2.7885585

> <GCUT_SMR_0>
-0.51527131

> <GCUT_SMR_1>
-0.18218581

> <GCUT_SMR_2>
0.15963611

> <GCUT_SMR_3>
3.0067611

> <Kier1>
16.84375

> <Kier2>
7.2664361

> <Kier3>
3.4404707

> <KierA1>
12.1495

> <KierA2>
5.1527615

> <KierA3>
2.4096477

> <KierFlex>
2.8456123

> <lip_acc>
4

> <lip_don>
0

> <lip_druglike>
1

> <lip_violation>
0

> <logP(o/w)>
2.6760001

> <logS>
-3.2525401

> <mr>
8.8172331

> <mutagenic>
0

> <nmol>
1

> <opr_brigid>
17

> <opr_leadlike>
1

> <opr_nring>
3

> <opr_nrot>
3

> <opr_violation>
0

> <PC+>
0

> <PC->
0

> <PEOE_PC+>
1.5624411

> <PEOE_PC->
-1.5624411

> <PEOE_RPC+>
0.16672555

> <PEOE_RPC->
0.19627112

> <PEOE_VSA+0>
86.702995

> <PEOE_VSA+1>
51.561951

> <PEOE_VSA+2>
0.0

> <PEOE_VSA+3>
0.0

> <PEOE_VSA+4>
0.0

> <PEOE_VSA+5>
12.949531

> <PEOE_VSA+6>
0.0

> <PEOE_VSA-0>
118.73568

> <PEOE_VSA-1>
49.019615

> <PEOE_VSA-2>
0.0

> <PEOE_VSA-3>
0.0

> <PEOE_VSA-4>
0.0

> <PEOE_VSA-5>
13.566921

> <PEOE_VSA-6>
0.0

> <PEOE_VSA_FHYD>
0.92026007

> <PEOE_VSA_FNEG>
0.54526979

> <PEOE_VSA_FPNEG>
0.040798265

> <PEOE_VSA_FPOL>
0.079739928

> <PEOE_VSA_FPOS>
0.45473021

> <PEOE_VSA_FPPOS>
0.038941659

> <PEOE_VSA_HYD>
306.02023

> <PEOE_VSA_NEG>
181.32222

> <PEOE_VSA_PNEG>
13.566921

> <PEOE_VSA_POL>
26.516451

> <PEOE_VSA_POS>
151.21448

> <PEOE_VSA_PPOS>
12.949531

> <petitjean>
0.44444445

> <petitjeanSC>
0.80000001

> <Q_PC+>
0

> <Q_PC->
0

> <Q_RPC+>
0

> <Q_RPC->
0

> <Q_VSA_FHYD>
1

> <Q_VSA_FNEG>
0

> <Q_VSA_FPNEG>
0

> <Q_VSA_FPOL>
0

> <Q_VSA_FPOS>
1

> <Q_VSA_FPPOS>
0

> <Q_VSA_HYD>
332.53671

> <Q_VSA_NEG>
0

> <Q_VSA_PNEG>
0

> <Q_VSA_POL>
0

> <Q_VSA_POS>
332.53671

> <Q_VSA_PPOS>
0

> <radius>
5

> <reactive>
0

> <rings>
3

> <RPC+>
0

> <RPC->
0

> <rsynth>
1.0

> <SlogP>
2.9763

> <SlogP_VSA0>
6.2486277

> <SlogP_VSA1>
8.3830976

> <SlogP_VSA2>
0.0

> <SlogP_VSA3>
36.879158

> <SlogP_VSA4>
27.047791

> <SlogP_VSA5>
98.691559

> <SlogP_VSA6>
0.0

> <SlogP_VSA7>
141.14548

> <SlogP_VSA8>
0.0

> <SlogP_VSA9>
8.2702427

> <SMR>
9.1177502

> <SMR_VSA0>
23.862217

> <SMR_VSA1>
3.1243138

> <SMR_VSA2>
6.2486277

> <SMR_VSA3>
3.185575

> <SMR_VSA4>
8.2702427

> <SMR_VSA5>
141.14548

> <SMR_VSA6>
42.137939

> <SMR_VSA7>
98.691559

> <TPSA>
26.790001

> <VAdjEq>
0.46637034

> <VAdjMa>
5.5849624

> <VDistEq>
2.9329231

> <VDistMa>
8.6725864

> <vdw_area>
332.53671

> <vdw_vol>
431.41031

> <vsa_acc>
13.566921

> <vsa_acid>
0

> <vsa_base>
0

> <vsa_don>
0.0

> <vsa_hyd>
291.07254

> <vsa_other>
12.949531

> <vsa_pol>
13.566921

> <Weight>
295.38599

> <weinerPath>
931

> <weinerPol>
41

> <zagreb>
116

$$$$
Row1523
 OpenBabel06061811532D

 19 20  0  0  0  0  0  0  0  0999 V2000
    0.0000    0.0000    0.0000 Cl  0  0  0  0  0  0  0  0  0  0  0  0
    0.0000    0.0000    0.0000 C   0  0  0  0  0  0  0  0  0  0  0  0
    0.0000    0.0000    0.0000 C   0  0  0  0  0  0  0  0  0  0  0  0
    0.0000    0.0000    0.0000 C   0  0  0  0  0  0  0  0  0  0  0  0
    0.0000    0.0000    0.0000 C   0  0  0  0  0  0  0  0  0  0  0  0
    0.0000    0.0000    0.0000 C   0  0  0  0  0  0  0  0  0  0  0  0
    0.0000    0.0000    0.0000 Cl  0  0  0  0  0  0  0  0  0  0  0  0
    0.0000    0.0000    0.0000 C   0  0  0  0  0  0  0  0  0  0  0  0
    0.0000    0.0000    0.0000 N   0  0  0  0  0  0  0  0  0  0  0  0
    0.0000    0.0000    0.0000 C   0  0  0  0  0  0  0  0  0  0  0  0
    0.0000    0.0000    0.0000 C   0  0  0  0  0  0  0  0  0  0  0  0
    0.0000    0.0000    0.0000 C   0  0  0  0  0  0  0  0  0  0  0  0
    0.0000    0.0000    0.0000 C   0  0  0  0  0  0  0  0  0  0  0  0
    0.0000    0.0000    0.0000 C   0  0  0  0  0  0  0  0  0  0  0  0
    0.0000    0.0000    0.0000 C   0  0  0  0  0  0  0  0  0  0  0  0
    0.0000    0.0000    0.0000 C   0  0  0  0  0  0  0  0  0  0  0  0
    0.0000    0.0000    0.0000 C   0  0  0  0  0  0  0  0  0  0  0  0
    0.0000    0.0000    0.0000 O   0  0  0  0  0  0  0  0  0  0  0  0
    0.0000    0.0000    0.0000 O   0  0  0  0  0  0  0  0  0  0  0  0
  1  2  1  0  0  0  0
  2  8  1  0  0  0  0
  2  3  2  0  0  0  0
  3  4  1  0  0  0  0
  4  5  2  0  0  0  0
  5  6  1  0  0  0  0
  6  7  1  0  0  0  0
  6  8  2  0  0  0  0
  8  9  1  0  0  0  0
  9 10  1  0  0  0  0
 10 15  1  0  0  0  0
 10 11  2  0  0  0  0
 11 12  1  0  0  0  0
 12 13  2  0  0  0  0
 13 14  1  0  0  0  0
 14 15  2  0  0  0  0
 15 16  1  0  0  0  0
 16 17  1  0  0  0  0
 17 18  1  0  0  0  0
 17 19  2  0  0  0  0
M  END
> <Index>
1524

> <ID>
HT0648

> <class>
1

> <apol>
39.038723

> <ast_fraglike>
0

> <ast_fraglike_ext>
0

> <ast_violation>
1

> <ast_violation_ext>
2

> <a_acc>
2

> <a_acid>
0

> <a_aro>
12

> <a_base>
0

> <a_count>
30

> <a_don>
3

> <a_donacc>
5

> <a_heavy>
19

> <a_hyd>
15

> <a_IC>
51.850002

> <a_ICM>
1.7283334

> <a_nB>
0

> <a_nBr>
0

> <a_nC>
14

> <a_nCl>
2

> <a_nF>
0

> <a_nH>
11

> <a_nI>
0

> <a_nN>
1

> <a_nO>
2

> <a_nP>
0

> <a_nS>
0

> <balabanJ>
1.9482917

> <BCUT_PEOE_0>
-2.3474817

> <BCUT_PEOE_1>
-0.58323908

> <BCUT_PEOE_2>
0.62074029

> <BCUT_PEOE_3>
2.3598173

> <BCUT_SLOGP_0>
-2.3338251

> <BCUT_SLOGP_1>
-0.45008898

> <BCUT_SLOGP_2>
0.80778444

> <BCUT_SLOGP_3>
2.4678297

> <BCUT_SMR_0>
-2.0428791

> <BCUT_SMR_1>
-0.37942654

> <BCUT_SMR_2>
0.82986158

> <BCUT_SMR_3>
2.6569932

> <bpol>
14.483277

> <b_1rotN>
4

> <b_1rotR>
0.2

> <b_ar>
12

> <b_count>
31

> <b_double>
1

> <b_heavy>
20

> <b_max1len>
2

> <b_rotN>
4

> <b_rotR>
0.2

> <b_single>
18

> <b_triple>
0

> <chi0>
13.828063

> <chi0v>
11.371807

> <chi0v_C>
7.7485585

> <chi0_C>
9.1209555

> <chi1>
9.075387

> <chi1v>
6.3400984

> <chi1v_C>
4.2784739

> <chi1_C>
5.9494896

> <chiral>
0

> <chiral_u>
0

> <density>
0.84469801

> <diameter>
9

> <FCharge>
0

> <GCUT_PEOE_0>
-0.79436409

> <GCUT_PEOE_1>
-0.43520927

> <GCUT_PEOE_2>
0.074322633

> <GCUT_PEOE_3>
2.3512256

> <GCUT_SLOGP_0>
-0.89725846

> <GCUT_SLOGP_1>
-0.25574338

> <GCUT_SLOGP_2>
0.27499959

> <GCUT_SLOGP_3>
2.5247896

> <GCUT_SMR_0>
-0.45894295

> <GCUT_SMR_1>
-0.20221165

> <GCUT_SMR_2>
0.28797534

> <GCUT_SMR_3>
2.6699986

> <Kier1>
15.39

> <Kier2>
7.1358023

> <Kier3>
4.2314048

> <KierA1>
12.740488

> <KierA2>
5.8410082

> <KierA3>
3.4331977

> <KierFlex>
3.9166999

> <lip_acc>
3

> <lip_don>
2

> <lip_druglike>
1

> <lip_violation>
0

> <logP(o/w)>
4.2309999

> <logS>
-4.5046501

> <mr>
7.7124701

> <mutagenic>
0

> <nmol>
1

> <opr_brigid>
12

> <opr_leadlike>
1

> <opr_nring>
2

> <opr_nrot>
4

> <opr_violation>
0

> <PC+>
0

> <PC->
0

> <PEOE_PC+>
1.3993003

> <PEOE_PC->
-1.3993003

> <PEOE_RPC+>
0.18866174

> <PEOE_RPC->
0.23656212

> <PEOE_VSA+0>
15.230323

> <PEOE_VSA+1>
54.298058

> <PEOE_VSA+2>
8.6190128

> <PEOE_VSA+3>
0.0

> <PEOE_VSA+4>
10.324173

> <PEOE_VSA+5>
14.708499

> <PEOE_VSA+6>
0.0

> <PEOE_VSA-0>
38.973251

> <PEOE_VSA-1>
108.18351

> <PEOE_VSA-2>
0.0

> <PEOE_VSA-3>
0.0

> <PEOE_VSA-4>
0.0

> <PEOE_VSA-5>
13.703812

> <PEOE_VSA-6>
7.7675405

> <PEOE_VSA_FHYD>
0.82890868

> <PEOE_VSA_FNEG>
0.62039381

> <PEOE_VSA_FPNEG>
0.078994505

> <PEOE_VSA_FPOL>
0.17109133

> <PEOE_VSA_FPOS>
0.37960619

> <PEOE_VSA_FPPOS>
0.092096828

> <PEOE_VSA_HYD>
225.30415

> <PEOE_VSA_NEG>
168.62811

> <PEOE_VSA_PNEG>
21.471352

> <PEOE_VSA_POL>
46.504025

> <PEOE_VSA_POS>
103.18007

> <PEOE_VSA_PPOS>
25.032671

> <petitjean>
0.44444445

> <petitjeanSC>
0.80000001

> <Q_PC+>
0

> <Q_PC->
0

> <Q_RPC+>
0

> <Q_RPC->
0

> <Q_VSA_FHYD>
1

> <Q_VSA_FNEG>
0

> <Q_VSA_FPNEG>
0

> <Q_VSA_FPOL>
0

> <Q_VSA_FPOS>
1

> <Q_VSA_FPPOS>
0

> <Q_VSA_HYD>
271.80817

> <Q_VSA_NEG>
0

> <Q_VSA_PNEG>
0

> <Q_VSA_POL>
0

> <Q_VSA_POS>
271.80817

> <Q_VSA_PPOS>
0

> <radius>
5

> <reactive>
0

> <rings>
2

> <RPC+>
0

> <RPC->
0

> <rsynth>
1.0

> <SlogP>
4.3640699

> <SlogP_VSA0>
0.0

> <SlogP_VSA1>
25.756214

> <SlogP_VSA2>
23.862217

> <SlogP_VSA3>
25.385227

> <SlogP_VSA4>
3.185575

> <SlogP_VSA5>
18.868406

> <SlogP_VSA6>
7.0012131

> <SlogP_VSA7>
123.50229

> <SlogP_VSA8>
0.0

> <SlogP_VSA9>
83.810783

> <SMR>
7.7526498

> <SMR_VSA0>
23.862217

> <SMR_VSA1>
0.0

> <SMR_VSA2>
25.385227

> <SMR_VSA3>
10.186788

> <SMR_VSA4>
23.524246

> <SMR_VSA5>
142.3707

> <SMR_VSA6>
7.7454643

> <SMR_VSA7>
78.297287

> <TPSA>
49.330002

> <VAdjEq>
0.5023343

> <VAdjMa>
5.321928

> <VDistEq>
3.001415

> <VDistMa>
8.2169819

> <vdw_area>
271.80817

> <vdw_vol>
350.6022

> <vsa_acc>
0.0

> <vsa_acid>
0

> <vsa_base>
0

> <vsa_don>
5.6825762

> <vsa_hyd>
210.27899

> <vsa_other>
14.708499

> <vsa_pol>
32.816418

> <Weight>
296.15298

> <weinerPath>
706

> <weinerPol>
27

> <zagreb>
94

$$$$
Row1524
 OpenBabel06061811532D

 33 36  0  0  1  0  0  0  0  0999 V2000
    0.0000    0.0000    0.0000 Cl  0  0  0  0  0  0  0  0  0  0  0  0
    0.0000    0.0000    0.0000 C   0  0  0  0  0  0  0  0  0  0  0  0
    0.0000    0.0000    0.0000 C   0  0  0  0  0  0  0  0  0  0  0  0
    0.0000    0.0000    0.0000 C   0  0  0  0  0  0  0  0  0  0  0  0
    0.0000    0.0000    0.0000 C   0  0  0  0  0  0  0  0  0  0  0  0
    0.0000    0.0000    0.0000 C   0  0  0  0  0  0  0  0  0  0  0  0
    0.0000    0.0000    0.0000 Cl  0  0  0  0  0  0  0  0  0  0  0  0
    0.0000    0.0000    0.0000 C   0  0  0  0  0  0  0  0  0  0  0  0
    0.0000    0.0000    0.0000 C   0  0  0  0  0  0  0  0  0  0  0  0
    0.0000    0.0000    0.0000 N   0  0  0  0  0  0  0  0  0  0  0  0
    0.0000    0.0000    0.0000 O   0  0  0  0  0  0  0  0  0  0  0  0
    0.0000    0.0000    0.0000 C   0  0  0  0  0  0  0  0  0  0  0  0
    0.0000    0.0000    0.0000 C   0  0  0  0  0  0  0  0  0  0  0  0
    0.0000    0.0000    0.0000 C   0  0  0  0  0  0  0  0  0  0  0  0
    0.0000    0.0000    0.0000 C   0  0  0  0  0  0  0  0  0  0  0  0
    0.0000    0.0000    0.0000 O   0  0  0  0  0  0  0  0  0  0  0  0
    0.0000    0.0000    0.0000 N   0  0  0  0  0  0  0  0  0  0  0  0
    0.0000    0.0000    0.0000 C   0  0  1  0  0  0  0  0  0  0  0  0
    0.0000    0.0000    0.0000 H   0  0  0  0  0  0  0  0  0  0  0  0
    0.0000    0.0000    0.0000 C   0  0  1  0  0  0  0  0  0  0  0  0
    0.0000    0.0000    0.0000 H   0  0  0  0  0  0  0  0  0  0  0  0
    0.0000    0.0000    0.0000 S   0  0  0  0  0  0  0  0  0  0  0  0
    0.0000    0.0000    0.0000 C   0  0  0  0  0  0  0  0  0  0  0  0
    0.0000    0.0000    0.0000 C   0  0  0  0  0  0  0  0  0  0  0  0
    0.0000    0.0000    0.0000 C   0  0  0  0  0  0  0  0  0  0  0  0
    0.0000    0.0000    0.0000 C   0  0  1  0  0  0  0  0  0  0  0  0
    0.0000    0.0000    0.0000 H   0  0  0  0  0  0  0  0  0  0  0  0
    0.0000    0.0000    0.0000 N   0  0  0  0  0  0  0  0  0  0  0  0
    0.0000    0.0000    0.0000 C   0  0  0  0  0  0  0  0  0  0  0  0
    0.0000    0.0000    0.0000 O   0  0  0  0  0  0  0  0  0  0  0  0
    0.0000    0.0000    0.0000 C   0  0  0  0  0  0  0  0  0  0  0  0
    0.0000    0.0000    0.0000 O   0  0  0  0  0  0  0  0  0  0  0  0
    0.0000    0.0000    0.0000 O   0  0  0  0  0  0  0  0  0  0  0  0
  1  2  1  0  0  0  0
  2  8  1  0  0  0  0
  2  3  2  0  0  0  0
  3  4  1  0  0  0  0
  4  5  2  0  0  0  0
  5  6  1  0  0  0  0
  6  7  1  0  0  0  0
  6  8  2  0  0  0  0
  8  9  1  0  0  0  0
  9 14  1  0  0  0  0
  9 10  2  0  0  0  0
 10 11  1  0  0  0  0
 11 12  1  0  0  0  0
 12 13  1  0  0  0  0
 12 14  2  0  0  0  0
 14 15  1  0  0  0  0
 15 16  2  0  0  0  0
 15 17  1  0  0  0  0
 17 18  1  0  0  0  0
 18 19  1  0  0  0  0
 18 29  1  0  0  0  0
 18 20  1  0  0  0  0
 20 21  1  0  0  0  0
 20 28  1  0  0  0  0
 20 22  1  0  0  0  0
 22 23  1  0  0  0  0
 23 24  1  0  0  0  0
 23 25  1  0  0  0  0
 23 26  1  0  0  0  0
 26 27  1  0  0  0  0
 26 28  1  0  0  0  0
 26 31  1  0  0  0  0
 28 29  1  0  0  0  0
 29 30  2  0  0  0  0
 31 32  1  0  0  0  0
 31 33  2  0  0  0  0
M  END
> <Index>
1525

> <ID>
HT0649

> <class>
1

> <apol>
59.345482

> <ast_fraglike>
0

> <ast_fraglike_ext>
0

> <ast_violation>
3

> <ast_violation_ext>
5

> <a_acc>
5

> <a_acid>
0

> <a_aro>
11

> <a_base>
0

> <a_count>
47

> <a_don>
3

> <a_donacc>
8

> <a_heavy>
30

> <a_hyd>
18

> <a_IC>
92.503654

> <a_ICM>
1.9681629

> <a_nB>
0

> <a_nBr>
0

> <a_nC>
19

> <a_nCl>
2

> <a_nF>
0

> <a_nH>
17

> <a_nI>
0

> <a_nN>
3

> <a_nO>
5

> <a_nP>
0

> <a_nS>
1

> <balabanJ>
1.4640665

> <BCUT_PEOE_0>
-2.6399872

> <BCUT_PEOE_1>
-0.54050595

> <BCUT_PEOE_2>
0.55212778

> <BCUT_PEOE_3>
2.8493981

> <BCUT_SLOGP_0>
-2.8950081

> <BCUT_SLOGP_1>
-0.42610911

> <BCUT_SLOGP_2>
0.66862565

> <BCUT_SLOGP_3>
2.7542524

> <BCUT_SMR_0>
-2.3874586

> <BCUT_SMR_1>
-0.3256104

> <BCUT_SMR_2>
0.76632589

> <BCUT_SMR_3>
3.1303577

> <bpol>
29.13452

> <b_1rotN>
4

> <b_1rotR>
0.12121212

> <b_ar>
11

> <b_count>
50

> <b_double>
3

> <b_heavy>
33

> <b_max1len>
4

> <b_rotN>
5

> <b_rotR>
0.15151516

> <b_single>
36

> <b_triple>
0

> <chi0>
21.955301

> <chi0v>
18.431267

> <chi0v_C>
11.464102

> <chi0_C>
12.549523

> <chi1>
14.041418

> <chi1v>
10.621713

> <chi1v_C>
5.4433756

> <chi1_C>
6.6825218

> <chiral>
3

> <chiral_u>
0

> <density>
0.90730274

> <diameter>
13

> <FCharge>
0

> <GCUT_PEOE_0>
-0.83718973

> <GCUT_PEOE_1>
-0.40819737

> <GCUT_PEOE_2>
0.054074358

> <GCUT_PEOE_3>
2.7330859

> <GCUT_SLOGP_0>
-1.1640159

> <GCUT_SLOGP_1>
-0.36203492

> <GCUT_SLOGP_2>
0.15174411

> <GCUT_SLOGP_3>
2.7164567

> <GCUT_SMR_0>
-0.53651828

> <GCUT_SMR_1>
-0.19640408

> <GCUT_SMR_2>
0.27126062

> <GCUT_SMR_3>
3.0031314

> <Kier1>
23.168043

> <Kier2>
8.4082842

> <Kier3>
3.8655953

> <KierA1>
20.881771

> <KierA2>
7.5502791

> <KierA3>
3.461973

> <KierFlex>
5.2554402

> <lip_acc>
8

> <lip_don>
2

> <lip_druglike>
1

> <lip_violation>
0

> <logP(o/w)>
3.1400001

> <logS>
-6.2416401

> <mr>
11.318234

> <mutagenic>
0

> <nmol>
1

> <opr_brigid>
19

> <opr_leadlike>
1

> <opr_nring>
4

> <opr_nrot>
4

> <opr_violation>
1

> <PC+>
0

> <PC->
0

> <PEOE_PC+>
2.7508712

> <PEOE_PC->
-2.7508712

> <PEOE_RPC+>
0.10315878

> <PEOE_RPC->
0.13034016

> <PEOE_VSA+0>
40.597015

> <PEOE_VSA+1>
34.631809

> <PEOE_VSA+2>
28.780554

> <PEOE_VSA+3>
8.6190128

> <PEOE_VSA+4>
10.324173

> <PEOE_VSA+5>
40.607563

> <PEOE_VSA+6>
0.0

> <PEOE_VSA-0>
80.752838

> <PEOE_VSA-1>
82.304062

> <PEOE_VSA-2>
19.760618

> <PEOE_VSA-3>
0.0

> <PEOE_VSA-4>
0.0

> <PEOE_VSA-5>
40.700764

> <PEOE_VSA-6>
13.80679

> <PEOE_VSA_FHYD>
0.73698384

> <PEOE_VSA_FNEG>
0.59200257

> <PEOE_VSA_FPNEG>
0.13596798

> <PEOE_VSA_FPOL>
0.26301616

> <PEOE_VSA_FPOS>
0.40799743

> <PEOE_VSA_FPPOS>
0.12704818

> <PEOE_VSA_HYD>
295.44589

> <PEOE_VSA_NEG>
237.32507

> <PEOE_VSA_PNEG>
54.507553

> <PEOE_VSA_POL>
105.43929

> <PEOE_VSA_POS>
163.56012

> <PEOE_VSA_PPOS>
50.931732

> <petitjean>
0.46153846

> <petitjeanSC>
0.85714287

> <Q_PC+>
0

> <Q_PC->
0

> <Q_RPC+>
0

> <Q_RPC->
0

> <Q_VSA_FHYD>
1

> <Q_VSA_FNEG>
0

> <Q_VSA_FPNEG>
0

> <Q_VSA_FPOL>
0

> <Q_VSA_FPOS>
1

> <Q_VSA_FPPOS>
0

> <Q_VSA_HYD>
400.88519

> <Q_VSA_NEG>
0

> <Q_VSA_PNEG>
0

> <Q_VSA_POL>
0

> <Q_VSA_POS>
400.88519

> <Q_VSA_PPOS>
0

> <radius>
7

> <reactive>
0

> <rings>
4

> <RPC+>
0

> <RPC->
0

> <rsynth>
1.0

> <SlogP>
3.2021201

> <SlogP_VSA0>
18.01075

> <SlogP_VSA1>
40.98394

> <SlogP_VSA2>
58.035496

> <SlogP_VSA3>
25.385227

> <SlogP_VSA4>
32.496613

> <SlogP_VSA5>
9.7341213

> <SlogP_VSA6>
7.0012131

> <SlogP_VSA7>
58.871876

> <SlogP_VSA8>
0.0

> <SlogP_VSA9>
210.49487

> <SMR>
11.1679

> <SMR_VSA0>
81.32077

> <SMR_VSA1>
22.720911

> <SMR_VSA2>
43.395977

> <SMR_VSA3>
25.946674

> <SMR_VSA4>
5.9423227

> <SMR_VSA5>
52.929554

> <SMR_VSA6>
18.263031

> <SMR_VSA7>
210.49487

> <TPSA>
112.74

> <VAdjEq>
0.37824166

> <VAdjMa>
6.044394

> <VDistEq>
3.5059464

> <VDistMa>
9.5333061

> <vdw_area>
400.88519

> <vdw_vol>
518.38599

> <vsa_acc>
38.019104

> <vsa_acid>
0

> <vsa_base>
0

> <vsa_don>
5.6825762

> <vsa_hyd>
256.80618

> <vsa_other>
54.968441

> <vsa_pol>
70.835518

> <Weight>
470.33298

> <weinerPath>
2402

> <weinerPol>
53

> <zagreb>
170

$$$$
Row1525
 OpenBabel06061811532D

 20 21  0  0  0  0  0  0  0  0999 V2000
    0.0000    0.0000    0.0000 O   0  0  0  0  0  0  0  0  0  0  0  0
    0.0000    0.0000    0.0000 C   0  0  0  0  0  0  0  0  0  0  0  0
    0.0000    0.0000    0.0000 C   0  0  0  0  0  0  0  0  0  0  0  0
    0.0000    0.0000    0.0000 C   0  0  0  0  0  0  0  0  0  0  0  0
    0.0000    0.0000    0.0000 C   0  0  0  0  0  0  0  0  0  0  0  0
    0.0000    0.0000    0.0000 C   0  0  0  0  0  0  0  0  0  0  0  0
    0.0000    0.0000    0.0000 C   0  0  0  0  0  0  0  0  0  0  0  0
    0.0000    0.0000    0.0000 C   0  0  0  0  0  0  0  0  0  0  0  0
    0.0000    0.0000    0.0000 C   0  0  0  0  0  0  0  0  0  0  0  0
    0.0000    0.0000    0.0000 C   0  0  0  0  0  0  0  0  0  0  0  0
    0.0000    0.0000    0.0000 C   0  0  0  0  0  0  0  0  0  0  0  0
    0.0000    0.0000    0.0000 C   0  0  0  0  0  0  0  0  0  0  0  0
    0.0000    0.0000    0.0000 C   0  0  0  0  0  0  0  0  0  0  0  0
    0.0000    0.0000    0.0000 C   0  0  0  0  0  0  0  0  0  0  0  0
    0.0000    0.0000    0.0000 C   0  0  0  0  0  0  0  0  0  0  0  0
    0.0000    0.0000    0.0000 O   0  0  0  0  0  0  0  0  0  0  0  0
    0.0000    0.0000    0.0000 C   0  0  0  0  0  0  0  0  0  0  0  0
    0.0000    0.0000    0.0000 C   0  0  0  0  0  0  0  0  0  0  0  0
    0.0000    0.0000    0.0000 C   0  0  0  0  0  0  0  0  0  0  0  0
    0.0000    0.0000    0.0000 C   0  0  0  0  0  0  0  0  0  0  0  0
  1  2  1  0  0  0  0
  2  7  1  0  0  0  0
  2  3  2  0  0  0  0
  3  4  1  0  0  0  0
  4  5  2  0  0  0  0
  5  6  1  0  0  0  0
  5  8  1  0  0  0  0
  6  7  2  0  0  0  0
  8  9  1  0  0  0  0
  8 19  2  3  0  0  0
  9 10  2  0  0  0  0
  9 12  1  0  0  0  0
 10 11  1  0  0  0  0
 12 18  1  0  0  0  0
 12 13  2  0  0  0  0
 13 14  1  0  0  0  0
 14 15  2  0  0  0  0
 15 16  1  0  0  0  0
 15 17  1  0  0  0  0
 17 18  2  0  0  0  0
 19 20  1  0  0  0  0
M  END
> <Index>
1526

> <ID>
HT0653

> <class>
1

> <apol>
45.286274

> <ast_fraglike>
0

> <ast_fraglike_ext>
0

> <ast_violation>
1

> <ast_violation_ext>
1

> <a_acc>
2

> <a_acid>
0

> <a_aro>
12

> <a_base>
0

> <a_count>
38

> <a_don>
2

> <a_donacc>
4

> <a_heavy>
20

> <a_hyd>
18

> <a_IC>
47.303944

> <a_ICM>
1.2448406

> <a_nB>
0

> <a_nBr>
0

> <a_nC>
18

> <a_nCl>
0

> <a_nF>
0

> <a_nH>
18

> <a_nI>
0

> <a_nN>
0

> <a_nO>
2

> <a_nP>
0

> <a_nS>
0

> <balabanJ>
1.97051

> <BCUT_PEOE_0>
-2.3458874

> <BCUT_PEOE_1>
-0.64218366

> <BCUT_PEOE_2>
0.70369303

> <BCUT_PEOE_3>
2.2937341

> <BCUT_SLOGP_0>
-2.144459

> <BCUT_SLOGP_1>
-0.53807992

> <BCUT_SLOGP_2>
0.80591482

> <BCUT_SLOGP_3>
2.5027225

> <BCUT_SMR_0>
-2.0150526

> <BCUT_SMR_1>
-0.49986199

> <BCUT_SMR_2>
0.85431087

> <BCUT_SMR_3>
2.6499274

> <bpol>
19.677727

> <b_1rotN>
3

> <b_1rotR>
0.14285715

> <b_ar>
12

> <b_count>
39

> <b_double>
2

> <b_heavy>
21

> <b_max1len>
3

> <b_rotN>
3

> <b_rotR>
0.14285715

> <b_single>
25

> <b_triple>
0

> <chi0>
14.53517

> <chi0v>
11.66793

> <chi0v_C>
10.773502

> <chi0_C>
12.53517

> <chi1>
9.6513968

> <chi1v>
6.5719986

> <chi1v_C>
6.1247854

> <chi1_C>
8.4966965

> <chiral>
0

> <chiral_u>
0

> <density>
0.67315388

> <diameter>
11

> <FCharge>
0

> <GCUT_PEOE_0>
-0.76839608

> <GCUT_PEOE_1>
-0.3866871

> <GCUT_PEOE_2>
0.082962707

> <GCUT_PEOE_3>
2.4787898

> <GCUT_SLOGP_0>
-0.76178998

> <GCUT_SLOGP_1>
-0.26386139

> <GCUT_SLOGP_2>
0.16445385

> <GCUT_SLOGP_3>
2.671906

> <GCUT_SMR_0>
-0.48065388

> <GCUT_SMR_1>
-0.21605732

> <GCUT_SMR_2>
0.19780798

> <GCUT_SMR_3>
2.7994337

> <Kier1>
16.371881

> <Kier2>
7.8520408

> <Kier3>
4.25

> <KierA1>
11.633225

> <KierA2>
5.4697871

> <KierA3>
2.9177625

> <KierFlex>
3.1815631

> <lip_acc>
2

> <lip_don>
2

> <lip_druglike>
1

> <lip_violation>
0

> <logP(o/w)>
4.6259999

> <logS>
-5.32868

> <mr>
8.2060223

> <mutagenic>
0

> <nmol>
1

> <opr_brigid>
14

> <opr_leadlike>
1

> <opr_nring>
2

> <opr_nrot>
3

> <opr_violation>
1

> <PC+>
0

> <PC->
0

> <PEOE_PC+>
1.365249

> <PEOE_PC->
-1.365249

> <PEOE_RPC+>
0.15917481

> <PEOE_RPC->
0.26356518

> <PEOE_VSA+0>
25.592316

> <PEOE_VSA+1>
59.5709

> <PEOE_VSA+2>
0.0

> <PEOE_VSA+3>
0.0

> <PEOE_VSA+4>
20.648346

> <PEOE_VSA+5>
0.0

> <PEOE_VSA+6>
0.0

> <PEOE_VSA-0>
95.349129

> <PEOE_VSA-1>
73.529427

> <PEOE_VSA-2>
0.0

> <PEOE_VSA-3>
0.0

> <PEOE_VSA-4>
0.0

> <PEOE_VSA-5>
0.0

> <PEOE_VSA-6>
15.535081

> <PEOE_VSA_FHYD>
0.8753264

> <PEOE_VSA_FNEG>
0.63541567

> <PEOE_VSA_FPNEG>
0.053527676

> <PEOE_VSA_FPOL>
0.12467362

> <PEOE_VSA_FPOS>
0.36458433

> <PEOE_VSA_FPPOS>
0.071145944

> <PEOE_VSA_HYD>
254.04176

> <PEOE_VSA_NEG>
184.41364

> <PEOE_VSA_PNEG>
15.535081

> <PEOE_VSA_POL>
36.183426

> <PEOE_VSA_POS>
105.81156

> <PEOE_VSA_PPOS>
20.648346

> <petitjean>
0.45454547

> <petitjeanSC>
0.83333331

> <Q_PC+>
0

> <Q_PC->
0

> <Q_RPC+>
0

> <Q_RPC->
0

> <Q_VSA_FHYD>
1

> <Q_VSA_FNEG>
0

> <Q_VSA_FPNEG>
0

> <Q_VSA_FPOL>
0

> <Q_VSA_FPOS>
1

> <Q_VSA_FPPOS>
0

> <Q_VSA_HYD>
290.22519

> <Q_VSA_NEG>
0

> <Q_VSA_PNEG>
0

> <Q_VSA_POL>
0

> <Q_VSA_POS>
290.22519

> <Q_VSA_PPOS>
0

> <radius>
6

> <reactive>
0

> <rings>
2

> <RPC+>
0

> <RPC->
0

> <rsynth>
0.0

> <SlogP>
4.6046

> <SlogP_VSA0>
50.770454

> <SlogP_VSA1>
0.0

> <SlogP_VSA2>
0.0

> <SlogP_VSA3>
0.0

> <SlogP_VSA4>
6.37115

> <SlogP_VSA5>
0.0

> <SlogP_VSA6>
0.0

> <SlogP_VSA7>
182.80299

> <SlogP_VSA8>
0.0

> <SlogP_VSA9>
77.138885

> <SMR>
8.3515596

> <SMR_VSA0>
0.0

> <SMR_VSA1>
50.770454

> <SMR_VSA2>
0.0

> <SMR_VSA3>
16.858006

> <SMR_VSA4>
6.37115

> <SMR_VSA5>
176.43184

> <SMR_VSA6>
0.0

> <SMR_VSA7>
66.652031

> <TPSA>
40.459999

> <VAdjEq>
0.48464775

> <VAdjMa>
5.3923173

> <VDistEq>
3.1173522

> <VDistMa>
8.360673

> <vdw_area>
290.22519

> <vdw_vol>
395.65991

> <vsa_acc>
0.0

> <vsa_acid>
0

> <vsa_base>
0

> <vsa_don>
0.0

> <vsa_hyd>
242.65305

> <vsa_other>
0.0

> <vsa_pol>
27.133842

> <Weight>
266.34

> <weinerPath>
814

> <weinerPol>
30

> <zagreb>
98

$$$$
Row1526
 OpenBabel06061811532D

 20 21  0  0  0  0  0  0  0  0999 V2000
    0.0000    0.0000    0.0000 O   0  0  0  0  0  0  0  0  0  0  0  0
    0.0000    0.0000    0.0000 C   0  0  0  0  0  0  0  0  0  0  0  0
    0.0000    0.0000    0.0000 C   0  0  0  0  0  0  0  0  0  0  0  0
    0.0000    0.0000    0.0000 C   0  0  0  0  0  0  0  0  0  0  0  0
    0.0000    0.0000    0.0000 C   0  0  0  0  0  0  0  0  0  0  0  0
    0.0000    0.0000    0.0000 C   0  0  0  0  0  0  0  0  0  0  0  0
    0.0000    0.0000    0.0000 C   0  0  0  0  0  0  0  0  0  0  0  0
    0.0000    0.0000    0.0000 C   0  0  0  0  0  0  0  0  0  0  0  0
    0.0000    0.0000    0.0000 C   0  0  0  0  0  0  0  0  0  0  0  0
    0.0000    0.0000    0.0000 C   0  0  0  0  0  0  0  0  0  0  0  0
    0.0000    0.0000    0.0000 C   0  0  0  0  0  0  0  0  0  0  0  0
    0.0000    0.0000    0.0000 C   0  0  0  0  0  0  0  0  0  0  0  0
    0.0000    0.0000    0.0000 C   0  0  0  0  0  0  0  0  0  0  0  0
    0.0000    0.0000    0.0000 C   0  0  0  0  0  0  0  0  0  0  0  0
    0.0000    0.0000    0.0000 C   0  0  0  0  0  0  0  0  0  0  0  0
    0.0000    0.0000    0.0000 O   0  0  0  0  0  0  0  0  0  0  0  0
    0.0000    0.0000    0.0000 C   0  0  0  0  0  0  0  0  0  0  0  0
    0.0000    0.0000    0.0000 C   0  0  0  0  0  0  0  0  0  0  0  0
    0.0000    0.0000    0.0000 C   0  0  0  0  0  0  0  0  0  0  0  0
    0.0000    0.0000    0.0000 C   0  0  0  0  0  0  0  0  0  0  0  0
  1  2  1  0  0  0  0
  2  7  1  0  0  0  0
  2  3  2  0  0  0  0
  3  4  1  0  0  0  0
  4  5  2  0  0  0  0
  5  6  1  0  0  0  0
  5  8  1  0  0  0  0
  6  7  2  0  0  0  0
  8  9  2  0  0  0  0
  8 19  1  0  0  0  0
  9 10  1  0  0  0  0
  9 12  1  0  0  0  0
 10 11  1  0  0  0  0
 12 18  1  0  0  0  0
 12 13  2  0  0  0  0
 13 14  1  0  0  0  0
 14 15  2  0  0  0  0
 15 16  1  0  0  0  0
 15 17  1  0  0  0  0
 17 18  2  0  0  0  0
 19 20  1  0  0  0  0
M  END
> <Index>
1527

> <ID>
HT0657

> <class>
1

> <apol>
46.619862

> <ast_fraglike>
0

> <ast_fraglike_ext>
0

> <ast_violation>
1

> <ast_violation_ext>
2

> <a_acc>
2

> <a_acid>
0

> <a_aro>
12

> <a_base>
0

> <a_count>
40

> <a_don>
2

> <a_donacc>
4

> <a_heavy>
20

> <a_hyd>
18

> <a_IC>
49.379913

> <a_ICM>
1.2344978

> <a_nB>
0

> <a_nBr>
0

> <a_nC>
18

> <a_nCl>
0

> <a_nF>
0

> <a_nH>
20

> <a_nI>
0

> <a_nN>
0

> <a_nO>
2

> <a_nP>
0

> <a_nS>
0

> <balabanJ>
1.9691299

> <BCUT_PEOE_0>
-2.4979758

> <BCUT_PEOE_1>
-0.64223796

> <BCUT_PEOE_2>
0.7036435

> <BCUT_PEOE_3>
2.4462528

> <BCUT_SLOGP_0>
-2.3068998

> <BCUT_SLOGP_1>
-0.53807992

> <BCUT_SLOGP_2>
0.80591482

> <BCUT_SLOGP_3>
2.6411602

> <BCUT_SMR_0>
-2.2084968

> <BCUT_SMR_1>
-0.49986199

> <BCUT_SMR_2>
0.85431087

> <BCUT_SMR_3>
2.7575855

> <bpol>
21.86414

> <b_1rotN>
4

> <b_1rotR>
0.19047619

> <b_ar>
12

> <b_count>
41

> <b_double>
1

> <b_heavy>
21

> <b_max1len>
3

> <b_rotN>
4

> <b_rotR>
0.19047619

> <b_single>
28

> <b_triple>
0

> <chi0>
14.53517

> <chi0v>
11.927443

> <chi0v_C>
11.033015

> <chi0_C>
12.53517

> <chi1>
9.6513968

> <chi1v>
6.9612684

> <chi1v_C>
6.5140548

> <chi1_C>
8.4966965

> <chiral>
0

> <chiral_u>
0

> <density>
0.66828102

> <diameter>
11

> <FCharge>
0

> <GCUT_PEOE_0>
-0.77634972

> <GCUT_PEOE_1>
-0.38082269

> <GCUT_PEOE_2>
0.082937621

> <GCUT_PEOE_3>
2.5737283

> <GCUT_SLOGP_0>
-0.76178998

> <GCUT_SLOGP_1>
-0.26386139

> <GCUT_SLOGP_2>
0.16445385

> <GCUT_SLOGP_3>
2.7628119

> <GCUT_SMR_0>
-0.51547956

> <GCUT_SMR_1>
-0.21605732

> <GCUT_SMR_2>
0.19305076

> <GCUT_SMR_3>
2.8765302

> <Kier1>
16.371881

> <Kier2>
7.8520408

> <Kier3>
4.25

> <KierA1>
12.167507

> <KierA2>
5.7367263

> <KierA3>
3.0663648

> <KierFlex>
3.490083

> <lip_acc>
2

> <lip_don>
2

> <lip_druglike>
1

> <lip_violation>
0

> <logP(o/w)>
5.0619998

> <logS>
-5.2263999

> <mr>
8.2474928

> <mutagenic>
0

> <nmol>
1

> <opr_brigid>
13

> <opr_leadlike>
1

> <opr_nring>
2

> <opr_nrot>
4

> <opr_violation>
1

> <PC+>
0

> <PC->
0

> <PEOE_PC+>
1.3509737

> <PEOE_PC->
-1.3509737

> <PEOE_RPC+>
0.16085677

> <PEOE_RPC->
0.26635018

> <PEOE_VSA+0>
42.653858

> <PEOE_VSA+1>
51.040127

> <PEOE_VSA+2>
0.0

> <PEOE_VSA+3>
0.0

> <PEOE_VSA+4>
20.648346

> <PEOE_VSA+5>
0.0

> <PEOE_VSA+6>
0.0

> <PEOE_VSA-0>
75.256401

> <PEOE_VSA-1>
86.514969

> <PEOE_VSA-2>
0.0

> <PEOE_VSA-3>
0.0

> <PEOE_VSA-4>
0.0

> <PEOE_VSA-5>
0.0

> <PEOE_VSA-6>
15.535081

> <PEOE_VSA_FHYD>
0.87593496

> <PEOE_VSA_FNEG>
0.60794508

> <PEOE_VSA_FPNEG>
0.053266399

> <PEOE_VSA_FPOL>
0.12406506

> <PEOE_VSA_FPOS>
0.39205489

> <PEOE_VSA_FPPOS>
0.070798665

> <PEOE_VSA_HYD>
255.46536

> <PEOE_VSA_NEG>
177.30646

> <PEOE_VSA_PNEG>
15.535081

> <PEOE_VSA_POL>
36.183426

> <PEOE_VSA_POS>
114.34233

> <PEOE_VSA_PPOS>
20.648346

> <petitjean>
0.45454547

> <petitjeanSC>
0.83333331

> <Q_PC+>
0

> <Q_PC->
0

> <Q_RPC+>
0

> <Q_RPC->
0

> <Q_VSA_FHYD>
1

> <Q_VSA_FNEG>
0

> <Q_VSA_FPNEG>
0

> <Q_VSA_FPOL>
0

> <Q_VSA_FPOS>
1

> <Q_VSA_FPPOS>
0

> <Q_VSA_HYD>
291.64877

> <Q_VSA_NEG>
0

> <Q_VSA_PNEG>
0

> <Q_VSA_POL>
0

> <Q_VSA_POS>
291.64877

> <Q_VSA_PPOS>
0

> <radius>
6

> <reactive>
0

> <rings>
2

> <RPC+>
0

> <RPC->
0

> <rsynth>
1.0

> <SlogP>
4.8285999

> <SlogP_VSA0>
50.770454

> <SlogP_VSA1>
0.0

> <SlogP_VSA2>
0.0

> <SlogP_VSA3>
0.0

> <SlogP_VSA4>
6.37115

> <SlogP_VSA5>
0.0

> <SlogP_VSA6>
0.0

> <SlogP_VSA7>
147.51663

> <SlogP_VSA8>
37.736813

> <SlogP_VSA9>
77.138885

> <SMR>
8.36096

> <SMR_VSA0>
0.0

> <SMR_VSA1>
50.770454

> <SMR_VSA2>
0.0

> <SMR_VSA3>
16.858006

> <SMR_VSA4>
6.37115

> <SMR_VSA5>
178.88228

> <SMR_VSA6>
0.0

> <SMR_VSA7>
66.652031

> <TPSA>
40.459999

> <VAdjEq>
0.48464775

> <VAdjMa>
5.3923173

> <VDistEq>
3.1173522

> <VDistMa>
8.360673

> <vdw_area>
291.64877

> <vdw_vol>
401.56161

> <vsa_acc>
0.0

> <vsa_acid>
0

> <vsa_base>
0

> <vsa_don>
0.0

> <vsa_hyd>
242.65305

> <vsa_other>
0.0

> <vsa_pol>
27.133842

> <Weight>
268.35599

> <weinerPath>
814

> <weinerPol>
30

> <zagreb>
98

$$$$
Row1527
 OpenBabel06061811532D

 18 19  0  0  0  0  0  0  0  0999 V2000
    0.0000    0.0000    0.0000 F   0  0  0  0  0  0  0  0  0  0  0  0
    0.0000    0.0000    0.0000 C   0  0  0  0  0  0  0  0  0  0  0  0
    0.0000    0.0000    0.0000 C   0  0  0  0  0  0  0  0  0  0  0  0
    0.0000    0.0000    0.0000 C   0  0  0  0  0  0  0  0  0  0  0  0
    0.0000    0.0000    0.0000 F   0  0  0  0  0  0  0  0  0  0  0  0
    0.0000    0.0000    0.0000 C   0  0  0  0  0  0  0  0  0  0  0  0
    0.0000    0.0000    0.0000 C   0  0  0  0  0  0  0  0  0  0  0  0
    0.0000    0.0000    0.0000 C   0  0  0  0  0  0  0  0  0  0  0  0
    0.0000    0.0000    0.0000 C   0  0  0  0  0  0  0  0  0  0  0  0
    0.0000    0.0000    0.0000 C   0  0  0  0  0  0  0  0  0  0  0  0
    0.0000    0.0000    0.0000 C   0  0  0  0  0  0  0  0  0  0  0  0
    0.0000    0.0000    0.0000 C   0  0  0  0  0  0  0  0  0  0  0  0
    0.0000    0.0000    0.0000 O   0  0  0  0  0  0  0  0  0  0  0  0
    0.0000    0.0000    0.0000 O   0  0  0  0  0  0  0  0  0  0  0  0
    0.0000    0.0000    0.0000 C   0  0  0  0  0  0  0  0  0  0  0  0
    0.0000    0.0000    0.0000 O   0  0  0  0  0  0  0  0  0  0  0  0
    0.0000    0.0000    0.0000 C   0  0  0  0  0  0  0  0  0  0  0  0
    0.0000    0.0000    0.0000 C   0  0  0  0  0  0  0  0  0  0  0  0
  1  2  1  0  0  0  0
  2  8  1  0  0  0  0
  2  3  2  0  0  0  0
  3  4  1  0  0  0  0
  4  5  1  0  0  0  0
  4  6  2  0  0  0  0
  6  7  1  0  0  0  0
  7  8  2  0  0  0  0
  8  9  1  0  0  0  0
  9 18  1  0  0  0  0
  9 10  2  0  0  0  0
 10 11  1  0  0  0  0
 11 12  1  0  0  0  0
 11 15  2  0  0  0  0
 12 13  1  0  0  0  0
 12 14  2  0  0  0  0
 15 16  1  0  0  0  0
 15 17  1  0  0  0  0
 17 18  2  0  0  0  0
M  END
> <Index>
1528

> <ID>
HT0662

> <class>
1

> <apol>
31.734344

> <ast_fraglike>
0

> <ast_fraglike_ext>
0

> <ast_violation>
1

> <ast_violation_ext>
1

> <a_acc>
3

> <a_acid>
0

> <a_aro>
12

> <a_base>
0

> <a_count>
26

> <a_don>
3

> <a_donacc>
6

> <a_heavy>
18

> <a_hyd>
14

> <a_IC>
43.35083

> <a_ICM>
1.6673396

> <a_nB>
0

> <a_nBr>
0

> <a_nC>
13

> <a_nCl>
0

> <a_nF>
2

> <a_nH>
8

> <a_nI>
0

> <a_nN>
0

> <a_nO>
3

> <a_nP>
0

> <a_nS>
0

> <balabanJ>
1.9816948

> <BCUT_PEOE_0>
-2.2294397

> <BCUT_PEOE_1>
-0.66163582

> <BCUT_PEOE_2>
0.68814862

> <BCUT_PEOE_3>
2.2556894

> <BCUT_SLOGP_0>
-2.117265

> <BCUT_SLOGP_1>
-0.53713995

> <BCUT_SLOGP_2>
0.83390969

> <BCUT_SLOGP_3>
2.4186673

> <BCUT_SMR_0>
-1.9140946

> <BCUT_SMR_1>
-0.48240244

> <BCUT_SMR_2>
0.84426749

> <BCUT_SMR_3>
2.5697174

> <bpol>
12.109656

> <b_1rotN>
2

> <b_1rotR>
0.10526316

> <b_ar>
12

> <b_count>
27

> <b_double>
1

> <b_heavy>
19

> <b_max1len>
1

> <b_rotN>
2

> <b_rotR>
0.10526316

> <b_single>
14

> <b_triple>
0

> <chi0>
13.284093

> <chi0v>
9.022706

> <chi0v_C>
6.9641018

> <chi0_C>
8.2840929

> <chi1>
8.4860706

> <chi1v>
5.0053701

> <chi1v_C>
3.9760678

> <chi1_C>
5.5993195

> <chiral>
0

> <chiral_u>
0

> <density>
0.85456437

> <diameter>
9

> <FCharge>
0

> <GCUT_PEOE_0>
-0.75824898

> <GCUT_PEOE_1>
-0.4683539

> <GCUT_PEOE_2>
0.11713692

> <GCUT_PEOE_3>
2.2972322

> <GCUT_SLOGP_0>
-0.85427374

> <GCUT_SLOGP_1>
-0.30500546

> <GCUT_SLOGP_2>
0.24014999

> <GCUT_SLOGP_3>
2.4465551

> <GCUT_SMR_0>
-0.42817324

> <GCUT_SMR_1>
-0.22946268

> <GCUT_SMR_2>
0.23478799

> <GCUT_SMR_3>
2.590457

> <Kier1>
14.409972

> <Kier2>
5.9698215

> <Kier3>
3.3217993

> <KierA1>
10.016016

> <KierA2>
4.0518394

> <KierA3>
2.2149982

> <KierFlex>
2.254627

> <lip_acc>
3

> <lip_don>
2

> <lip_druglike>
1

> <lip_violation>
0

> <logP(o/w)>
3.6110001

> <logS>
-4.0086699

> <mr>
6.153626

> <mutagenic>
0

> <nmol>
1

> <opr_brigid>
12

> <opr_leadlike>
1

> <opr_nring>
2

> <opr_nrot>
2

> <opr_violation>
0

> <PC+>
0

> <PC->
0

> <PEOE_PC+>
1.5651264

> <PEOE_PC->
-1.5651264

> <PEOE_RPC+>
0.18768522

> <PEOE_RPC->
0.22940806

> <PEOE_VSA+0>
14.463444

> <PEOE_VSA+1>
36.259377

> <PEOE_VSA+2>
18.041691

> <PEOE_VSA+3>
0.0

> <PEOE_VSA+4>
20.648346

> <PEOE_VSA+5>
14.708499

> <PEOE_VSA+6>
0.0

> <PEOE_VSA-0>
51.228157

> <PEOE_VSA-1>
12.254904

> <PEOE_VSA-2>
0.0

> <PEOE_VSA-3>
0.0

> <PEOE_VSA-4>
23.817272

> <PEOE_VSA-5>
13.566921

> <PEOE_VSA-6>
15.535081

> <PEOE_VSA_FHYD>
0.59969777

> <PEOE_VSA_FNEG>
0.52784503

> <PEOE_VSA_FPNEG>
0.23997092

> <PEOE_VSA_FPOL>
0.4003022

> <PEOE_VSA_FPOS>
0.47215497

> <PEOE_VSA_FPPOS>
0.16033128

> <PEOE_VSA_HYD>
132.24757

> <PEOE_VSA_NEG>
116.40233

> <PEOE_VSA_PNEG>
52.919273

> <PEOE_VSA_POL>
88.276115

> <PEOE_VSA_POS>
104.12135

> <PEOE_VSA_PPOS>
35.356846

> <petitjean>
0.44444445

> <petitjeanSC>
0.80000001

> <Q_PC+>
0

> <Q_PC->
0

> <Q_RPC+>
0

> <Q_RPC->
0

> <Q_VSA_FHYD>
1

> <Q_VSA_FNEG>
0

> <Q_VSA_FPNEG>
0

> <Q_VSA_FPOL>
0

> <Q_VSA_FPOS>
1

> <Q_VSA_FPPOS>
0

> <Q_VSA_HYD>
220.52368

> <Q_VSA_NEG>
0

> <Q_VSA_PNEG>
0

> <Q_VSA_POL>
0

> <Q_VSA_POS>
220.52368

> <Q_VSA_PPOS>
0

> <radius>
5

> <reactive>
0

> <rings>
2

> <RPC+>
0

> <RPC->
0

> <rsynth>
1.0

> <SlogP>
3.0355999

> <SlogP_VSA0>
25.385227

> <SlogP_VSA1>
7.7454643

> <SlogP_VSA2>
18.242037

> <SlogP_VSA3>
25.385227

> <SlogP_VSA4>
27.047791

> <SlogP_VSA5>
0.0

> <SlogP_VSA6>
0.0

> <SlogP_VSA7>
112.23026

> <SlogP_VSA8>
0.0

> <SlogP_VSA9>
35.163654

> <SMR>
6.04181

> <SMR_VSA0>
23.862217

> <SMR_VSA1>
55.305454

> <SMR_VSA2>
43.627262

> <SMR_VSA3>
8.4290028

> <SMR_VSA4>
6.37115

> <SMR_VSA5>
105.85911

> <SMR_VSA6>
7.7454643

> <SMR_VSA7>
0.0

> <TPSA>
57.529999

> <VAdjEq>
0.52150291

> <VAdjMa>
5.2479277

> <VDistEq>
2.9615283

> <VDistMa>
8.0485153

> <vdw_area>
220.52368

> <vdw_vol>
292.78073

> <vsa_acc>
0.0

> <vsa_acid>
0

> <vsa_base>
0

> <vsa_don>
0.0

> <vsa_hyd>
151.79407

> <vsa_other>
14.708499

> <vsa_pol>
40.700764

> <Weight>
250.2

> <weinerPath>
597

> <weinerPol>
28

> <zagreb>
92

$$$$
Row1528
 OpenBabel06061811532D

 26 27  0  0  1  0  0  0  0  0999 V2000
    0.0000    0.0000    0.0000 O   0  0  0  0  0  0  0  0  0  0  0  0
    0.0000    0.0000    0.0000 C   0  0  0  0  0  0  0  0  0  0  0  0
    0.0000    0.0000    0.0000 C   0  0  0  0  0  0  0  0  0  0  0  0
    0.0000    0.0000    0.0000 C   0  0  0  0  0  0  0  0  0  0  0  0
    0.0000    0.0000    0.0000 C   0  0  0  0  0  0  0  0  0  0  0  0
    0.0000    0.0000    0.0000 C   0  0  0  0  0  0  0  0  0  0  0  0
    0.0000    0.0000    0.0000 C   0  0  0  0  0  0  0  0  0  0  0  0
    0.0000    0.0000    0.0000 C   0  0  0  0  0  0  0  0  0  0  0  0
    0.0000    0.0000    0.0000 O   0  0  0  0  0  0  0  0  0  0  0  0
    0.0000    0.0000    0.0000 N   0  0  0  0  0  0  0  0  0  0  0  0
    0.0000    0.0000    0.0000 C   0  0  1  0  0  0  0  0  0  0  0  0
    0.0000    0.0000    0.0000 H   0  0  0  0  0  0  0  0  0  0  0  0
    0.0000    0.0000    0.0000 O   0  0  0  0  0  0  0  0  0  0  0  0
    0.0000    0.0000    0.0000 C   0  0  0  0  0  0  0  0  0  0  0  0
    0.0000    0.0000    0.0000 N   0  0  0  0  0  0  0  0  0  0  0  0
    0.0000    0.0000    0.0000 C   0  0  1  0  0  0  0  0  0  0  0  0
    0.0000    0.0000    0.0000 H   0  0  0  0  0  0  0  0  0  0  0  0
    0.0000    0.0000    0.0000 C   0  0  0  0  0  0  0  0  0  0  0  0
    0.0000    0.0000    0.0000 C   0  0  0  0  0  0  0  0  0  0  0  0
    0.0000    0.0000    0.0000 C   0  0  0  0  0  0  0  0  0  0  0  0
    0.0000    0.0000    0.0000 C   0  0  0  0  0  0  0  0  0  0  0  0
    0.0000    0.0000    0.0000 C   0  0  0  0  0  0  0  0  0  0  0  0
    0.0000    0.0000    0.0000 C   0  0  0  0  0  0  0  0  0  0  0  0
    0.0000    0.0000    0.0000 C   0  0  0  0  0  0  0  0  0  0  0  0
    0.0000    0.0000    0.0000 C   0  0  0  0  0  0  0  0  0  0  0  0
    0.0000    0.0000    0.0000 C   0  0  0  0  0  0  0  0  0  0  0  0
  1  2  1  0  0  0  0
  2  7  1  0  0  0  0
  2  3  2  0  0  0  0
  3  4  1  0  0  0  0
  4  5  2  0  0  0  0
  5  6  1  0  0  0  0
  5 11  1  0  0  0  0
  6  7  2  0  0  0  0
  7  8  1  0  0  0  0
  8  9  2  0  0  0  0
  8 10  1  0  0  0  0
 11 12  1  0  0  0  0
 11 13  1  0  0  0  0
 11 14  1  0  0  0  0
 14 15  1  0  0  0  0
 15 16  1  0  0  0  0
 16 17  1  0  0  0  0
 16 18  1  0  0  0  0
 16 26  1  0  0  0  0
 18 19  1  0  0  0  0
 19 20  1  0  0  0  0
 20 25  1  0  0  0  0
 20 21  2  0  0  0  0
 21 22  1  0  0  0  0
 22 23  2  0  0  0  0
 23 24  1  0  0  0  0
 24 25  2  0  0  0  0
M  END
> <Index>
1529

> <ID>
HT0672

> <class>
1

> <apol>
54.04903

> <ast_fraglike>
0

> <ast_fraglike_ext>
0

> <ast_violation>
3

> <ast_violation_ext>
5

> <a_acc>
4

> <a_acid>
0

> <a_aro>
12

> <a_base>
0

> <a_count>
48

> <a_don>
4

> <a_donacc>
8

> <a_heavy>
24

> <a_hyd>
18

> <a_IC>
70.573593

> <a_ICM>
1.4702832

> <a_nB>
0

> <a_nBr>
0

> <a_nC>
19

> <a_nCl>
0

> <a_nF>
0

> <a_nH>
24

> <a_nI>
0

> <a_nN>
2

> <a_nO>
3

> <a_nP>
0

> <a_nS>
0

> <balabanJ>
1.6518635

> <BCUT_PEOE_0>
-2.6808946

> <BCUT_PEOE_1>
-0.60679585

> <BCUT_PEOE_2>
0.68794751

> <BCUT_PEOE_3>
2.6116636

> <BCUT_SLOGP_0>
-2.7676098

> <BCUT_SLOGP_1>
-0.55328798

> <BCUT_SLOGP_2>
0.70659506

> <BCUT_SLOGP_3>
2.6215231

> <BCUT_SMR_0>
-2.4124629

> <BCUT_SMR_1>
-0.48529577

> <BCUT_SMR_2>
0.79971725

> <BCUT_SMR_3>
2.8753393

> <bpol>
27.194967

> <b_1rotN>
8

> <b_1rotR>
0.31999999

> <b_ar>
12

> <b_count>
49

> <b_double>
1

> <b_heavy>
25

> <b_max1len>
8

> <b_rotN>
8

> <b_rotR>
0.31999999

> <b_single>
36

> <b_triple>
0

> <chi0>
17.526733

> <chi0v>
13.774849

> <chi0v_C>
11.394823

> <chi0_C>
12.819627

> <chi1>
11.469234

> <chi1v>
8.0516262

> <chi1v_C>
6.434793

> <chi1_C>
8.251585

> <chiral>
2

> <chiral_u>
0

> <density>
0.70773906

> <diameter>
14

> <FCharge>
0

> <GCUT_PEOE_0>
-0.84420753

> <GCUT_PEOE_1>
-0.38451314

> <GCUT_PEOE_2>
0.095339566

> <GCUT_PEOE_3>
2.6348896

> <GCUT_SLOGP_0>
-1.3703693

> <GCUT_SLOGP_1>
-0.31651852

> <GCUT_SLOGP_2>
0.14717856

> <GCUT_SLOGP_3>
2.6942947

> <GCUT_SMR_0>
-0.523265

> <GCUT_SMR_1>
-0.22303033

> <GCUT_SMR_2>
0.19392478

> <GCUT_SMR_3>
2.8893769

> <Kier1>
20.313601

> <Kier2>
10.222222

> <Kier3>
6.6824455

> <KierA1>
15.457772

> <KierA2>
7.679389

> <KierA3>
4.9738679

> <KierFlex>
4.9460936

> <lip_acc>
5

> <lip_don>
5

> <lip_druglike>
1

> <lip_violation>
0

> <logP(o/w)>
2.5639999

> <logS>
-3.17136

> <mr>
9.4877338

> <mutagenic>
0

> <nmol>
1

> <opr_brigid>
12

> <opr_leadlike>
1

> <opr_nring>
2

> <opr_nrot>
8

> <opr_violation>
0

> <PC+>
0

> <PC->
0

> <PEOE_PC+>
2.2910023

> <PEOE_PC->
-2.2910023

> <PEOE_RPC+>
0.10999487

> <PEOE_RPC->
0.16844825

> <PEOE_VSA+0>
58.992146

> <PEOE_VSA+1>
53.960461

> <PEOE_VSA+2>
8.6190128

> <PEOE_VSA+3>
17.238026

> <PEOE_VSA+4>
20.648346

> <PEOE_VSA+5>
12.949531

> <PEOE_VSA+6>
0.0

> <PEOE_VSA-0>
65.077194

> <PEOE_VSA-1>
73.529427

> <PEOE_VSA-2>
0.0

> <PEOE_VSA-3>
0.0

> <PEOE_VSA-4>
0.0

> <PEOE_VSA-5>
13.566921

> <PEOE_VSA-6>
22.323092

> <PEOE_VSA_FHYD>
0.79969138

> <PEOE_VSA_FNEG>
0.50301105

> <PEOE_VSA_FPNEG>
0.10345801

> <PEOE_VSA_FPOL>
0.20030861

> <PEOE_VSA_FPOS>
0.49698892

> <PEOE_VSA_FPPOS>
0.096850604

> <PEOE_VSA_HYD>
277.41626

> <PEOE_VSA_NEG>
174.49663

> <PEOE_VSA_PNEG>
35.890011

> <PEOE_VSA_POL>
69.487885

> <PEOE_VSA_POS>
172.40752

> <PEOE_VSA_PPOS>
33.597878

> <petitjean>
0.5

> <petitjeanSC>
1.0

> <Q_PC+>
0

> <Q_PC->
0

> <Q_RPC+>
0

> <Q_RPC->
0

> <Q_VSA_FHYD>
1

> <Q_VSA_FNEG>
0

> <Q_VSA_FPNEG>
0

> <Q_VSA_FPOL>
0

> <Q_VSA_FPOS>
1

> <Q_VSA_FPPOS>
0

> <Q_VSA_HYD>
346.90414

> <Q_VSA_NEG>
0

> <Q_VSA_PNEG>
0

> <Q_VSA_POL>
0

> <Q_VSA_POS>
346.90414

> <Q_VSA_PPOS>
0

> <radius>
7

> <reactive>
0

> <rings>
2

> <RPC+>
0

> <RPC->
0

> <rsynth>
1.0

> <SlogP>
2.23087

> <SlogP_VSA0>
101.67839

> <SlogP_VSA1>
5.2587838

> <SlogP_VSA2>
3.9819686

> <SlogP_VSA3>
18.439579

> <SlogP_VSA4>
33.418941

> <SlogP_VSA5>
18.868406

> <SlogP_VSA6>
0.0

> <SlogP_VSA7>
141.14548

> <SlogP_VSA8>
25.337055

> <SlogP_VSA9>
38.569443

> <SMR>
9.3923197

> <SMR_VSA0>
23.862217

> <SMR_VSA1>
50.770454

> <SMR_VSA2>
18.01075

> <SMR_VSA3>
25.250771

> <SMR_VSA4>
32.897186

> <SMR_VSA5>
178.88228

> <SMR_VSA6>
23.698362

> <SMR_VSA7>
33.326015

> <TPSA>
95.580002

> <VAdjEq>
0.42571631

> <VAdjMa>
5.643856

> <VDistEq>
3.6489365

> <VDistMa>
8.8359604

> <vdw_area>
346.90414

> <vdw_vol>
464.02979

> <vsa_acc>
13.566921

> <vsa_acid>
0

> <vsa_base>
0

> <vsa_don>
17.742489

> <vsa_hyd>
238.03511

> <vsa_other>
12.949531

> <vsa_pol>
64.125832

> <Weight>
328.41199

> <weinerPath>
1607

> <weinerPol>
33

> <zagreb>
116

$$$$
Row1529
 OpenBabel06061811532D

 19 20  0  0  1  0  0  0  0  0999 V2000
    0.0000    0.0000    0.0000 O   0  0  0  0  0  0  0  0  0  0  0  0
    0.0000    0.0000    0.0000 C   0  0  3  0  0  0  0  0  0  0  0  0
    0.0000    0.0000    0.0000 C   0  0  0  0  0  0  0  0  0  0  0  0
    0.0000    0.0000    0.0000 C   0  0  0  0  0  0  0  0  0  0  0  0
    0.0000    0.0000    0.0000 C   0  0  0  0  0  0  0  0  0  0  0  0
    0.0000    0.0000    0.0000 C   0  0  0  0  0  0  0  0  0  0  0  0
    0.0000    0.0000    0.0000 C   0  0  0  0  0  0  0  0  0  0  0  0
    0.0000    0.0000    0.0000 C   0  0  0  0  0  0  0  0  0  0  0  0
    0.0000    0.0000    0.0000 C   0  0  0  0  0  0  0  0  0  0  0  0
    0.0000    0.0000    0.0000 C   0  0  0  0  0  0  0  0  0  0  0  0
    0.0000    0.0000    0.0000 C   0  0  0  0  0  0  0  0  0  0  0  0
    0.0000    0.0000    0.0000 C   0  0  0  0  0  0  0  0  0  0  0  0
    0.0000    0.0000    0.0000 C   0  0  0  0  0  0  0  0  0  0  0  0
    0.0000    0.0000    0.0000 C   0  0  0  0  0  0  0  0  0  0  0  0
    0.0000    0.0000    0.0000 C   0  0  0  0  0  0  0  0  0  0  0  0
    0.0000    0.0000    0.0000 C   0  0  0  0  0  0  0  0  0  0  0  0
    0.0000    0.0000    0.0000 N   0  0  0  0  0  0  0  0  0  0  0  0
    0.0000    0.0000    0.0000 C   0  0  0  0  0  0  0  0  0  0  0  0
    0.0000    0.0000    0.0000 C   0  0  0  0  0  0  0  0  0  0  0  0
  1  2  1  0  0  0  0
  1 15  1  0  0  0  0
  2  3  1  0  0  0  0
  2  9  1  0  0  0  0
  3  8  1  0  0  0  0
  3  4  2  0  0  0  0
  4  5  1  0  0  0  0
  5  6  2  0  0  0  0
  6  7  1  0  0  0  0
  7  8  2  0  0  0  0
  9 14  1  0  0  0  0
  9 10  2  0  0  0  0
 10 11  1  0  0  0  0
 11 12  2  0  0  0  0
 12 13  1  0  0  0  0
 13 14  2  0  0  0  0
 15 16  1  0  0  0  0
 16 17  1  0  0  0  0
 17 18  1  0  0  0  0
 17 19  1  0  0  0  0
M  END
> <Index>
1530

> <ID>
HT0675

> <class>
1

> <apol>
45.824654

> <ast_fraglike>
0

> <ast_fraglike_ext>
0

> <ast_violation>
1

> <ast_violation_ext>
2

> <a_acc>
2

> <a_acid>
0

> <a_aro>
12

> <a_base>
0

> <a_count>
40

> <a_don>
0

> <a_donacc>
2

> <a_heavy>
19

> <a_hyd>
17

> <a_IC>
51.151588

> <a_ICM>
1.2787898

> <a_nB>
0

> <a_nBr>
0

> <a_nC>
17

> <a_nCl>
0

> <a_nF>
0

> <a_nH>
21

> <a_nI>
0

> <a_nN>
1

> <a_nO>
1

> <a_nP>
0

> <a_nS>
0

> <balabanJ>
1.8720474

> <BCUT_PEOE_0>
-2.6099648

> <BCUT_PEOE_1>
-0.52408057

> <BCUT_PEOE_2>
0.5871771

> <BCUT_PEOE_3>
2.5206289

> <BCUT_SLOGP_0>
-2.6995308

> <BCUT_SLOGP_1>
-0.42308313

> <BCUT_SLOGP_2>
0.68583417

> <BCUT_SLOGP_3>
2.5440607

> <BCUT_SMR_0>
-2.335391

> <BCUT_SMR_1>
-0.39466655

> <BCUT_SMR_2>
0.72456014

> <BCUT_SMR_3>
2.7827046

> <bpol>
26.853348

> <b_1rotN>
6

> <b_1rotR>
0.30000001

> <b_ar>
12

> <b_count>
41

> <b_double>
0

> <b_heavy>
20

> <b_max1len>
7

> <b_rotN>
6

> <b_rotR>
0.30000001

> <b_single>
29

> <b_triple>
0

> <chi0>
13.501789

> <chi0v>
11.620528

> <chi0v_C>
10.765066

> <chi0_C>
12.217332

> <chi1>
9.2708569

> <chi1v>
6.63375

> <chi1v_C>
4.8987174

> <chi1_C>
6.7996597

> <chiral>
0

> <chiral_u>
0

> <density>
0.64721429

> <diameter>
9

> <FCharge>
0

> <GCUT_PEOE_0>
-0.85888755

> <GCUT_PEOE_1>
-0.36814362

> <GCUT_PEOE_2>
0.058886118

> <GCUT_PEOE_3>
2.5270309

> <GCUT_SLOGP_0>
-0.95887947

> <GCUT_SLOGP_1>
-0.26386139

> <GCUT_SLOGP_2>
0.13851997

> <GCUT_SLOGP_3>
2.6305423

> <GCUT_SMR_0>
-0.51777875

> <GCUT_SMR_1>
-0.18315168

> <GCUT_SMR_2>
0.15839325

> <GCUT_SMR_3>
2.7984788

> <Kier1>
15.39

> <Kier2>
8.3232002

> <Kier3>
5.1199999

> <KierA1>
11.783929

> <KierA2>
6.2707052

> <KierA3>
3.8088484

> <KierFlex>
3.8891339

> <lip_acc>
2

> <lip_don>
0

> <lip_druglike>
1

> <lip_violation>
0

> <logP(o/w)>
3.7820001

> <logS>
-3.1668701

> <mr>
8.0607929

> <mutagenic>
0

> <nmol>
1

> <opr_brigid>
12

> <opr_leadlike>
1

> <opr_nring>
2

> <opr_nrot>
6

> <opr_violation>
0

> <PC+>
0

> <PC->
0

> <PEOE_PC+>
1.3194826

> <PEOE_PC->
-1.3194826

> <PEOE_RPC+>
0.082373008

> <PEOE_RPC->
0.27743694

> <PEOE_VSA+0>
47.315414

> <PEOE_VSA+1>
70.401314

> <PEOE_VSA+2>
4.9049287

> <PEOE_VSA+3>
0.0

> <PEOE_VSA+4>
0.0

> <PEOE_VSA+5>
0.0

> <PEOE_VSA+6>
0.0

> <PEOE_VSA-0>
50.894459

> <PEOE_VSA-1>
122.54904

> <PEOE_VSA-2>
0.0

> <PEOE_VSA-3>
0.0

> <PEOE_VSA-4>
0.0

> <PEOE_VSA-5>
0.0

> <PEOE_VSA-6>
2.503756

> <PEOE_VSA_FHYD>
0.99161416

> <PEOE_VSA_FNEG>
0.589302

> <PEOE_VSA_FPNEG>
0.0083858566

> <PEOE_VSA_FPOL>
0.0083858566

> <PEOE_VSA_FPOS>
0.410698

> <PEOE_VSA_FPPOS>
0.0

> <PEOE_VSA_HYD>
296.06516

> <PEOE_VSA_NEG>
175.94725

> <PEOE_VSA_PNEG>
2.503756

> <PEOE_VSA_POL>
2.503756

> <PEOE_VSA_POS>
122.62165

> <PEOE_VSA_PPOS>
0.0

> <petitjean>
0.44444445

> <petitjeanSC>
0.80000001

> <Q_PC+>
0

> <Q_PC->
0

> <Q_RPC+>
0

> <Q_RPC->
0

> <Q_VSA_FHYD>
1

> <Q_VSA_FNEG>
0

> <Q_VSA_FPNEG>
0

> <Q_VSA_FPOL>
0

> <Q_VSA_FPOS>
1

> <Q_VSA_FPPOS>
0

> <Q_VSA_HYD>
298.56891

> <Q_VSA_NEG>
0

> <Q_VSA_PNEG>
0

> <Q_VSA_POL>
0

> <Q_VSA_POS>
298.56891

> <Q_VSA_PPOS>
0

> <radius>
5

> <reactive>
0

> <rings>
2

> <RPC+>
0

> <RPC->
0

> <rsynth>
1.0

> <SlogP>
3.4497001

> <SlogP_VSA0>
0.0

> <SlogP_VSA1>
3.1243138

> <SlogP_VSA2>
10.999887

> <SlogP_VSA3>
39.365837

> <SlogP_VSA4>
6.37115

> <SlogP_VSA5>
65.794373

> <SlogP_VSA6>
0.0

> <SlogP_VSA7>
176.43184

> <SlogP_VSA8>
6.4686494

> <SlogP_VSA9>
0.0

> <SMR>
7.9344001

> <SMR_VSA0>
10.999887

> <SMR_VSA1>
3.1243138

> <SMR_VSA2>
0.0

> <SMR_VSA3>
12.839799

> <SMR_VSA4>
0.0

> <SMR_VSA5>
176.43184

> <SMR_VSA6>
39.365837

> <SMR_VSA7>
65.794373

> <TPSA>
12.47

> <VAdjEq>
0.5023343

> <VAdjMa>
5.321928

> <VDistEq>
3.0560105

> <VDistMa>
8.2140408

> <vdw_area>
298.56891

> <vdw_vol>
394.55399

> <vsa_acc>
2.503756

> <vsa_acid>
0

> <vsa_base>
0

> <vsa_don>
0.0

> <vsa_hyd>
281.11746

> <vsa_other>
0.0

> <vsa_pol>
2.503756

> <Weight>
255.36099

> <weinerPath>
736

> <weinerPol>
24

> <zagreb>
90

$$$$
Row1530
 OpenBabel06061811532D

 22 24  0  0  0  0  0  0  0  0999 V2000
    0.0000    0.0000    0.0000 N   0  0  0  0  0  0  0  0  0  0  0  0
    0.0000    0.0000    0.0000 C   0  0  0  0  0  0  0  0  0  0  0  0
    0.0000    0.0000    0.0000 C   0  0  0  0  0  0  0  0  0  0  0  0
    0.0000    0.0000    0.0000 C   0  0  0  0  0  0  0  0  0  0  0  0
    0.0000    0.0000    0.0000 N   0  0  0  0  0  0  0  0  0  0  0  0
    0.0000    0.0000    0.0000 C   0  0  0  0  0  0  0  0  0  0  0  0
    0.0000    0.0000    0.0000 C   0  0  0  0  0  0  0  0  0  0  0  0
    0.0000    0.0000    0.0000 C   0  0  0  0  0  0  0  0  0  0  0  0
    0.0000    0.0000    0.0000 C   0  0  0  0  0  0  0  0  0  0  0  0
    0.0000    0.0000    0.0000 C   0  0  0  0  0  0  0  0  0  0  0  0
    0.0000    0.0000    0.0000 C   0  0  0  0  0  0  0  0  0  0  0  0
    0.0000    0.0000    0.0000 C   0  0  0  0  0  0  0  0  0  0  0  0
    0.0000    0.0000    0.0000 C   0  0  0  0  0  0  0  0  0  0  0  0
    0.0000    0.0000    0.0000 C   0  0  0  0  0  0  0  0  0  0  0  0
    0.0000    0.0000    0.0000 C   0  0  0  0  0  0  0  0  0  0  0  0
    0.0000    0.0000    0.0000 C   0  0  0  0  0  0  0  0  0  0  0  0
    0.0000    0.0000    0.0000 C   0  0  0  0  0  0  0  0  0  0  0  0
    0.0000    0.0000    0.0000 C   0  0  0  0  0  0  0  0  0  0  0  0
    0.0000    0.0000    0.0000 C   0  0  0  0  0  0  0  0  0  0  0  0
    0.0000    0.0000    0.0000 C   0  0  0  0  0  0  0  0  0  0  0  0
    0.0000    0.0000    0.0000 C   0  0  0  0  0  0  0  0  0  0  0  0
    0.0000    0.0000    0.0000 C   0  0  0  0  0  0  0  0  0  0  0  0
  1  2  1  0  0  0  0
  1 21  1  0  0  0  0
  1 22  1  0  0  0  0
  2  3  1  0  0  0  0
  3  4  1  0  0  0  0
  4  5  1  0  0  0  0
  5 14  1  0  0  0  0
  5  6  1  0  0  0  0
  6 11  1  0  0  0  0
  6  7  2  0  0  0  0
  7  8  1  0  0  0  0
  7 12  1  0  0  0  0
  8  9  2  0  0  0  0
  9 10  1  0  0  0  0
 10 11  2  0  0  0  0
 12 13  1  0  0  0  0
 12 19  1  0  0  0  0
 12 20  1  0  0  0  0
 13 18  1  0  0  0  0
 13 14  2  0  0  0  0
 14 15  1  0  0  0  0
 15 16  2  0  0  0  0
 16 17  1  0  0  0  0
 17 18  2  0  0  0  0
M  END
> <Index>
1531

> <ID>
HT0677

> <class>
1

> <apol>
54.736618

> <ast_fraglike>
0

> <ast_fraglike_ext>
0

> <ast_violation>
1

> <ast_violation_ext>
2

> <a_acc>
1

> <a_acid>
0

> <a_aro>
12

> <a_base>
0

> <a_count>
48

> <a_don>
0

> <a_donacc>
1

> <a_heavy>
22

> <a_hyd>
20

> <a_IC>
57.428204

> <a_ICM>
1.1964209

> <a_nB>
0

> <a_nBr>
0

> <a_nC>
20

> <a_nCl>
0

> <a_nF>
0

> <a_nH>
26

> <a_nI>
0

> <a_nN>
2

> <a_nO>
0

> <a_nP>
0

> <a_nS>
0

> <balabanJ>
1.7910557

> <BCUT_PEOE_0>
-2.677887

> <BCUT_PEOE_1>
-0.49180871

> <BCUT_PEOE_2>
0.54110861

> <BCUT_PEOE_3>
2.6082201

> <BCUT_SLOGP_0>
-2.7110357

> <BCUT_SLOGP_1>
-0.40497774

> <BCUT_SLOGP_2>
0.6430884

> <BCUT_SLOGP_3>
2.6975381

> <BCUT_SMR_0>
-2.3882027

> <BCUT_SMR_1>
-0.35054842

> <BCUT_SMR_2>
0.68625247

> <BCUT_SMR_3>
2.9073625

> <bpol>
32.383381

> <b_1rotN>
4

> <b_1rotR>
0.16666667

> <b_ar>
12

> <b_count>
50

> <b_double>
0

> <b_heavy>
24

> <b_max1len>
6

> <b_rotN>
4

> <b_rotR>
0.16666667

> <b_single>
38

> <b_triple>
0

> <chi0>
15.742276

> <chi0v>
14.13455

> <chi0v_C>
13.240123

> <chi0_C>
14.587576

> <chi1>
10.514874

> <chi1v>
8.1287966

> <chi1v_C>
6.1547008

> <chi1_C>
7.8770099

> <chiral>
0

> <chiral_u>
0

> <density>
0.63844389

> <diameter>
9

> <FCharge>
0

> <GCUT_PEOE_0>
-0.86397702

> <GCUT_PEOE_1>
-0.34148702

> <GCUT_PEOE_2>
-0.0068537625

> <GCUT_PEOE_3>
2.8350708

> <GCUT_SLOGP_0>
-0.95435917

> <GCUT_SLOGP_1>
-0.25193471

> <GCUT_SLOGP_2>
0.11948926

> <GCUT_SLOGP_3>
2.9566045

> <GCUT_SMR_0>
-0.52081901

> <GCUT_SMR_1>
-0.17691691

> <GCUT_SMR_2>
0.1426591

> <GCUT_SMR_3>
3.1252658

> <Kier1>
16.84375

> <Kier2>
6.8571429

> <Kier3>
3.2986112

> <KierA1>
13.067566

> <KierA2>
5.2507668

> <KierA3>
2.5019979

> <KierFlex>
3.1188517

> <lip_acc>
2

> <lip_don>
0

> <lip_druglike>
1

> <lip_violation>
0

> <logP(o/w)>
5.3920002

> <logS>
-4.4236798

> <mr>
9.252285

> <mutagenic>
0

> <nmol>
1

> <opr_brigid>
16

> <opr_leadlike>
1

> <opr_nring>
3

> <opr_nrot>
4

> <opr_violation>
0

> <PC+>
0

> <PC->
0

> <PEOE_PC+>
1.1885402

> <PEOE_PC->
-1.1885402

> <PEOE_RPC+>
0.053292543

> <PEOE_RPC->
0.25939432

> <PEOE_VSA+0>
103.36838

> <PEOE_VSA+1>
34.123089

> <PEOE_VSA+2>
0.0

> <PEOE_VSA+3>
0.0

> <PEOE_VSA+4>
0.0

> <PEOE_VSA+5>
0.0

> <PEOE_VSA+6>
0.0

> <PEOE_VSA-0>
97.297905

> <PEOE_VSA-1>
111.02478

> <PEOE_VSA-2>
0.0

> <PEOE_VSA-3>
0.0

> <PEOE_VSA-4>
0.0

> <PEOE_VSA-5>
0.0

> <PEOE_VSA-6>
0.0

> <PEOE_VSA_FHYD>
1.0

> <PEOE_VSA_FNEG>
0.60241228

> <PEOE_VSA_FPNEG>
0.0

> <PEOE_VSA_FPOL>
0.0

> <PEOE_VSA_FPOS>
0.39758775

> <PEOE_VSA_FPPOS>
0.0

> <PEOE_VSA_HYD>
345.81415

> <PEOE_VSA_NEG>
208.32268

> <PEOE_VSA_PNEG>
0.0

> <PEOE_VSA_POL>
0.0

> <PEOE_VSA_POS>
137.49147

> <PEOE_VSA_PPOS>
0.0

> <petitjean>
0.44444445

> <petitjeanSC>
0.80000001

> <Q_PC+>
0

> <Q_PC->
0

> <Q_RPC+>
0

> <Q_RPC->
0

> <Q_VSA_FHYD>
1

> <Q_VSA_FNEG>
0

> <Q_VSA_FPNEG>
0

> <Q_VSA_FPOL>
0

> <Q_VSA_FPOS>
1

> <Q_VSA_FPPOS>
0

> <Q_VSA_HYD>
345.81415

> <Q_VSA_NEG>
0

> <Q_VSA_PNEG>
0

> <Q_VSA_POL>
0

> <Q_VSA_POS>
345.81415

> <Q_VSA_PPOS>
0

> <radius>
5

> <reactive>
0

> <rings>
3

> <RPC+>
0

> <RPC->
0

> <rsynth>
1.0

> <SlogP>
4.4157

> <SlogP_VSA0>
3.1243138

> <SlogP_VSA1>
3.1243138

> <SlogP_VSA2>
0.0

> <SlogP_VSA3>
36.879158

> <SlogP_VSA4>
6.37115

> <SlogP_VSA5>
65.794373

> <SlogP_VSA6>
0.0

> <SlogP_VSA7>
141.14548

> <SlogP_VSA8>
18.868406

> <SlogP_VSA9>
72.165527

> <SMR>
9.5188999

> <SMR_VSA0>
0.0

> <SMR_VSA1>
3.1243138

> <SMR_VSA2>
3.1243138

> <SMR_VSA3>
6.37115

> <SMR_VSA4>
5.513495

> <SMR_VSA5>
160.01389

> <SMR_VSA6>
36.879158

> <SMR_VSA7>
132.44641

> <TPSA>
6.48

> <VAdjEq>
0.46637034

> <VAdjMa>
5.5849624

> <VDistEq>
3.0433009

> <VDistMa>
8.6511908

> <vdw_area>
345.81415

> <vdw_vol>
461.18695

> <vsa_acc>
0.0

> <vsa_acid>
0

> <vsa_base>
0

> <vsa_don>
0.0

> <vsa_hyd>
327.30746

> <vsa_other>
0.0

> <vsa_pol>
0.0

> <Weight>
294.44199

> <weinerPath>
973

> <weinerPol>
39

> <zagreb>
118

$$$$
Row1531
 OpenBabel06061811532D

 22 24  0  0  1  0  0  0  0  0999 V2000
    0.0000    0.0000    0.0000 N   0  0  0  0  0  0  0  0  0  0  0  0
    0.0000    0.0000    0.0000 C   0  0  0  0  0  0  0  0  0  0  0  0
    0.0000    0.0000    0.0000 C   0  0  0  0  0  0  0  0  0  0  0  0
    0.0000    0.0000    0.0000 C   0  0  0  0  0  0  0  0  0  0  0  0
    0.0000    0.0000    0.0000 C   0  0  0  0  0  0  0  0  0  0  0  0
    0.0000    0.0000    0.0000 C   0  0  0  0  0  0  0  0  0  0  0  0
    0.0000    0.0000    0.0000 C   0  0  3  0  0  0  0  0  0  0  0  0
    0.0000    0.0000    0.0000 C   0  0  0  0  0  0  0  0  0  0  0  0
    0.0000    0.0000    0.0000 C   0  0  0  0  0  0  0  0  0  0  0  0
    0.0000    0.0000    0.0000 C   0  0  0  0  0  0  0  0  0  0  0  0
    0.0000    0.0000    0.0000 C   0  0  0  0  0  0  0  0  0  0  0  0
    0.0000    0.0000    0.0000 C   0  0  0  0  0  0  0  0  0  0  0  0
    0.0000    0.0000    0.0000 C   0  0  0  0  0  0  0  0  0  0  0  0
    0.0000    0.0000    0.0000 C   0  0  0  0  0  0  0  0  0  0  0  0
    0.0000    0.0000    0.0000 C   0  0  0  0  0  0  0  0  0  0  0  0
    0.0000    0.0000    0.0000 N   0  0  0  0  0  0  0  0  0  0  0  0
    0.0000    0.0000    0.0000 C   0  0  0  0  0  0  0  0  0  0  0  0
    0.0000    0.0000    0.0000 C   0  0  0  0  0  0  0  0  0  0  0  0
    0.0000    0.0000    0.0000 C   0  0  0  0  0  0  0  0  0  0  0  0
    0.0000    0.0000    0.0000 C   0  0  0  0  0  0  0  0  0  0  0  0
    0.0000    0.0000    0.0000 C   0  0  0  0  0  0  0  0  0  0  0  0
    0.0000    0.0000    0.0000 C   0  0  0  0  0  0  0  0  0  0  0  0
  1  6  1  0  0  0  0
  1  2  2  0  0  0  0
  2  3  1  0  0  0  0
  3  4  2  0  0  0  0
  4  5  1  0  0  0  0
  5  6  2  0  0  0  0
  6  7  1  0  0  0  0
  7  8  1  0  0  0  0
  7  9  1  0  0  0  0
  9 13  2  0  0  0  0
  9 10  1  0  0  0  0
 10 22  1  0  0  0  0
 10 11  2  0  0  0  0
 11 12  1  0  0  0  0
 11 19  1  0  0  0  0
 12 13  1  0  0  0  0
 13 14  1  0  0  0  0
 14 15  1  0  0  0  0
 15 16  1  0  0  0  0
 16 17  1  0  0  0  0
 16 18  1  0  0  0  0
 19 20  2  0  0  0  0
 20 21  1  0  0  0  0
 21 22  2  0  0  0  0
M  END
> <Index>
1532

> <ID>
HT0680

> <class>
1

> <apol>
53.40303

> <ast_fraglike>
0

> <ast_fraglike_ext>
0

> <ast_violation>
1

> <ast_violation_ext>
2

> <a_acc>
2

> <a_acid>
0

> <a_aro>
12

> <a_base>
0

> <a_count>
46

> <a_don>
0

> <a_donacc>
2

> <a_heavy>
22

> <a_hyd>
20

> <a_IC>
55.60619

> <a_ICM>
1.2088301

> <a_nB>
0

> <a_nBr>
0

> <a_nC>
20

> <a_nCl>
0

> <a_nF>
0

> <a_nH>
24

> <a_nI>
0

> <a_nN>
2

> <a_nO>
0

> <a_nP>
0

> <a_nS>
0

> <balabanJ>
1.7000366

> <BCUT_PEOE_0>
-2.6218171

> <BCUT_PEOE_1>
-0.52423662

> <BCUT_PEOE_2>
0.57160443

> <BCUT_PEOE_3>
2.5759048

> <BCUT_SLOGP_0>
-2.665062

> <BCUT_SLOGP_1>
-0.42274743

> <BCUT_SLOGP_2>
0.67177868

> <BCUT_SLOGP_3>
2.6891012

> <BCUT_SMR_0>
-2.3369796

> <BCUT_SMR_1>
-0.38639176

> <BCUT_SMR_2>
0.71273947

> <BCUT_SMR_3>
2.8740807

> <bpol>
29.536968

> <b_1rotN>
5

> <b_1rotR>
0.20833333

> <b_ar>
12

> <b_count>
48

> <b_double>
1

> <b_heavy>
24

> <b_max1len>
5

> <b_rotN>
5

> <b_rotR>
0.20833333

> <b_single>
35

> <b_triple>
0

> <chi0>
15.526733

> <chi0v>
13.7119

> <chi0v_C>
12.817472

> <chi0_C>
14.242276

> <chi1>
10.664703

> <chi1v>
8.0238466

> <chi1v_C>
6.3313861

> <chi1_C>
8.1935062

> <chiral>
1

> <chiral_u>
1

> <density>
0.64590847

> <diameter>
10

> <FCharge>
0

> <GCUT_PEOE_0>
-0.86320353

> <GCUT_PEOE_1>
-0.34267813

> <GCUT_PEOE_2>
0.025959229

> <GCUT_PEOE_3>
2.7528918

> <GCUT_SLOGP_0>
-0.95310986

> <GCUT_SLOGP_1>
-0.25313997

> <GCUT_SLOGP_2>
0.13447872

> <GCUT_SLOGP_3>
2.8705215

> <GCUT_SMR_0>
-0.51798606

> <GCUT_SMR_1>
-0.1799487

> <GCUT_SMR_2>
0.15831505

> <GCUT_SMR_3>
3.0377324

> <Kier1>
16.84375

> <Kier2>
7.7134986

> <Kier3>
3.9256198

> <KierA1>
12.809166

> <KierA2>
5.7834716

> <KierA3>
2.9132652

> <KierFlex>
3.3673387

> <lip_acc>
2

> <lip_don>
0

> <lip_druglike>
1

> <lip_violation>
0

> <logP(o/w)>
3.5339999

> <logS>
-3.0864899

> <mr>
9.2477856

> <mutagenic>
0

> <nmol>
1

> <opr_brigid>
16

> <opr_leadlike>
1

> <opr_nring>
3

> <opr_nrot>
5

> <opr_violation>
0

> <PC+>
0

> <PC->
0

> <PEOE_PC+>
1.1911389

> <PEOE_PC->
-1.1911389

> <PEOE_RPC+>
0.069634087

> <PEOE_RPC->
0.25861293

> <PEOE_VSA+0>
104.88396

> <PEOE_VSA+1>
34.123089

> <PEOE_VSA+2>
0.0

> <PEOE_VSA+3>
0.0

> <PEOE_VSA+4>
0.0

> <PEOE_VSA+5>
0.0

> <PEOE_VSA+6>
0.0

> <PEOE_VSA-0>
95.015434

> <PEOE_VSA-1>
82.230736

> <PEOE_VSA-2>
0.0

> <PEOE_VSA-3>
0.0

> <PEOE_VSA-4>
0.0

> <PEOE_VSA-5>
5.6825762

> <PEOE_VSA-6>
0.0

> <PEOE_VSA_FHYD>
0.98234874

> <PEOE_VSA_FNEG>
0.56821495

> <PEOE_VSA_FPNEG>
0.017651271

> <PEOE_VSA_FPOL>
0.017651271

> <PEOE_VSA_FPOS>
0.43178502

> <PEOE_VSA_FPPOS>
0.0

> <PEOE_VSA_HYD>
316.25323

> <PEOE_VSA_NEG>
182.92874

> <PEOE_VSA_PNEG>
5.6825762

> <PEOE_VSA_POL>
5.6825762

> <PEOE_VSA_POS>
139.00705

> <PEOE_VSA_PPOS>
0.0

> <petitjean>
0.5

> <petitjeanSC>
1.0

> <Q_PC+>
0

> <Q_PC->
0

> <Q_RPC+>
0

> <Q_RPC->
0

> <Q_VSA_FHYD>
1

> <Q_VSA_FNEG>
0

> <Q_VSA_FPNEG>
0

> <Q_VSA_FPOL>
0

> <Q_VSA_FPOS>
1

> <Q_VSA_FPPOS>
0

> <Q_VSA_HYD>
321.93579

> <Q_VSA_NEG>
0

> <Q_VSA_PNEG>
0

> <Q_VSA_POL>
0

> <Q_VSA_POS>
321.93579

> <Q_VSA_PPOS>
0

> <radius>
5

> <reactive>
0

> <rings>
3

> <RPC+>
0

> <RPC->
0

> <rsynth>
1.0

> <SlogP>
4.1466699

> <SlogP_VSA0>
0.0

> <SlogP_VSA1>
19.909843

> <SlogP_VSA2>
0.0

> <SlogP_VSA3>
18.439579

> <SlogP_VSA4>
9.1278973

> <SlogP_VSA5>
87.848358

> <SlogP_VSA6>
4.4107962

> <SlogP_VSA7>
143.90222

> <SlogP_VSA8>
18.868406

> <SlogP_VSA9>
33.326015

> <SMR>
9.2889004

> <SMR_VSA0>
0.0

> <SMR_VSA1>
19.909843

> <SMR_VSA2>
0.0

> <SMR_VSA3>
16.724268

> <SMR_VSA4>
3.185575

> <SMR_VSA5>
178.45346

> <SMR_VSA6>
18.439579

> <SMR_VSA7>
99.120392

> <TPSA>
16.129999

> <VAdjEq>
0.46637034

> <VAdjMa>
5.5849624

> <VDistEq>
3.1057401

> <VDistMa>
8.6524448

> <vdw_area>
321.93579

> <vdw_vol>
452.73596

> <vsa_acc>
5.6825762

> <vsa_acid>
0

> <vsa_base>
0

> <vsa_don>
0.0

> <vsa_hyd>
297.82507

> <vsa_other>
0.0

> <vsa_pol>
5.6825762

> <Weight>
292.42599

> <weinerPath>
1019

> <weinerPol>
33

> <zagreb>
114

$$$$
Row1532
 OpenBabel06061811532D

 21 23  0  0  1  0  0  0  0  0999 V2000
    0.0000    0.0000    0.0000 O   0  0  0  0  0  0  0  0  0  0  0  0
    0.0000    0.0000    0.0000 C   0  0  3  0  0  0  0  0  0  0  0  0
    0.0000    0.0000    0.0000 C   0  0  0  0  0  0  0  0  0  0  0  0
    0.0000    0.0000    0.0000 C   0  0  0  0  0  0  0  0  0  0  0  0
    0.0000    0.0000    0.0000 C   0  0  0  0  0  0  0  0  0  0  0  0
    0.0000    0.0000    0.0000 C   0  0  0  0  0  0  0  0  0  0  0  0
    0.0000    0.0000    0.0000 C   0  0  0  0  0  0  0  0  0  0  0  0
    0.0000    0.0000    0.0000 C   0  0  0  0  0  0  0  0  0  0  0  0
    0.0000    0.0000    0.0000 C   0  0  0  0  0  0  0  0  0  0  0  0
    0.0000    0.0000    0.0000 C   0  0  0  0  0  0  0  0  0  0  0  0
    0.0000    0.0000    0.0000 C   0  0  0  0  0  0  0  0  0  0  0  0
    0.0000    0.0000    0.0000 C   0  0  0  0  0  0  0  0  0  0  0  0
    0.0000    0.0000    0.0000 C   0  0  0  0  0  0  0  0  0  0  0  0
    0.0000    0.0000    0.0000 C   0  0  0  0  0  0  0  0  0  0  0  0
    0.0000    0.0000    0.0000 C   0  0  0  0  0  0  0  0  0  0  0  0
    0.0000    0.0000    0.0000 C   0  0  0  0  0  0  0  0  0  0  0  0
    0.0000    0.0000    0.0000 C   0  0  0  0  0  0  0  0  0  0  0  0
    0.0000    0.0000    0.0000 N   0  0  0  0  0  0  0  0  0  0  0  0
    0.0000    0.0000    0.0000 C   0  0  0  0  0  0  0  0  0  0  0  0
    0.0000    0.0000    0.0000 C   0  0  0  0  0  0  0  0  0  0  0  0
    0.0000    0.0000    0.0000 C   0  0  0  0  0  0  0  0  0  0  0  0
  1  2  1  0  0  0  0
  1 15  1  0  0  0  0
  2  3  1  0  0  0  0
  2  9  1  0  0  0  0
  3  8  1  0  0  0  0
  3  4  2  0  0  0  0
  4  5  1  0  0  0  0
  5  6  2  0  0  0  0
  6  7  1  0  0  0  0
  7  8  2  0  0  0  0
  9 14  1  0  0  0  0
  9 10  2  0  0  0  0
 10 11  1  0  0  0  0
 11 12  2  0  0  0  0
 12 13  1  0  0  0  0
 13 14  2  0  0  0  0
 15 20  1  0  0  0  0
 15 16  1  0  0  0  0
 16 17  1  0  0  0  0
 17 18  1  0  0  0  0
 18 19  1  0  0  0  0
 18 21  1  0  0  0  0
 19 20  1  0  0  0  0
M  END
> <Index>
1533

> <ID>
HT0691

> <class>
1

> <apol>
50.678238

> <ast_fraglike>
0

> <ast_fraglike_ext>
0

> <ast_violation>
1

> <ast_violation_ext>
2

> <a_acc>
2

> <a_acid>
0

> <a_aro>
12

> <a_base>
0

> <a_count>
44

> <a_don>
0

> <a_donacc>
2

> <a_heavy>
21

> <a_hyd>
19

> <a_IC>
55.462444

> <a_ICM>
1.2605101

> <a_nB>
0

> <a_nBr>
0

> <a_nC>
19

> <a_nCl>
0

> <a_nF>
0

> <a_nH>
23

> <a_nI>
0

> <a_nN>
1

> <a_nO>
1

> <a_nP>
0

> <a_nS>
0

> <balabanJ>
1.6011854

> <BCUT_PEOE_0>
-2.7726443

> <BCUT_PEOE_1>
-0.60728818

> <BCUT_PEOE_2>
0.66088349

> <BCUT_PEOE_3>
2.7115705

> <BCUT_SLOGP_0>
-2.8121684

> <BCUT_SLOGP_1>
-0.49974763

> <BCUT_SLOGP_2>
0.76588798

> <BCUT_SLOGP_3>
2.703594

> <BCUT_SMR_0>
-2.5115278

> <BCUT_SMR_1>
-0.46479684

> <BCUT_SMR_2>
0.81106061

> <BCUT_SMR_3>
2.9633653

> <bpol>
29.039761

> <b_1rotN>
4

> <b_1rotR>
0.17391305

> <b_ar>
12

> <b_count>
46

> <b_double>
0

> <b_heavy>
23

> <b_max1len>
4

> <b_rotN>
4

> <b_rotR>
0.17391305

> <b_single>
34

> <b_triple>
0

> <chi0>
14.493353

> <chi0v>
12.612092

> <chi0v_C>
11.75663

> <chi0_C>
13.208896

> <chi1>
10.3265

> <chi1v>
7.7662878

> <chi1v_C>
6.2152143

> <chi1_C>
8.1161566

> <chiral>
0

> <chiral_u>
0

> <density>
0.65515327

> <diameter>
10

> <FCharge>
0

> <GCUT_PEOE_0>
-0.85973853

> <GCUT_PEOE_1>
-0.37387004

> <GCUT_PEOE_2>
0.072626002

> <GCUT_PEOE_3>
2.7104478

> <GCUT_SLOGP_0>
-0.95301276

> <GCUT_SLOGP_1>
-0.26386139

> <GCUT_SLOGP_2>
0.15580922

> <GCUT_SLOGP_3>
2.7933431

> <GCUT_SMR_0>
-0.52109843

> <GCUT_SMR_1>
-0.20508878

> <GCUT_SMR_2>
0.18149824

> <GCUT_SMR_3>
2.9652183

> <Kier1>
15.879017

> <Kier2>
8.0222225

> <Kier3>
4.4875345

> <KierA1>
12.495752

> <KierA2>
6.2317691

> <KierA3>
3.4514163

> <KierFlex>
3.7081261

> <lip_acc>
2

> <lip_don>
0

> <lip_druglike>
1

> <lip_violation>
0

> <logP(o/w)>
4.4349999

> <logS>
-3.71925

> <mr>
8.7752628

> <mutagenic>
0

> <nmol>
1

> <opr_brigid>
18

> <opr_leadlike>
1

> <opr_nring>
3

> <opr_nrot>
6

> <opr_violation>
0

> <PC+>
0

> <PC->
0

> <PEOE_PC+>
1.3306574

> <PEOE_PC->
-1.3306574

> <PEOE_RPC+>
0.081909195

> <PEOE_RPC->
0.27358004

> <PEOE_VSA+0>
73.303894

> <PEOE_VSA+1>
56.089561

> <PEOE_VSA+2>
4.9049287

> <PEOE_VSA+3>
0.0

> <PEOE_VSA+4>
0.0

> <PEOE_VSA+5>
0.0

> <PEOE_VSA+6>
0.0

> <PEOE_VSA-0>
45.058395

> <PEOE_VSA-1>
122.54904

> <PEOE_VSA-2>
0.0

> <PEOE_VSA-3>
0.0

> <PEOE_VSA-4>
0.0

> <PEOE_VSA-5>
0.0

> <PEOE_VSA-6>
2.503756

> <PEOE_VSA_FHYD>
0.99177504

> <PEOE_VSA_FNEG>
0.55882341

> <PEOE_VSA_FPNEG>
0.0082249586

> <PEOE_VSA_FPOL>
0.0082249586

> <PEOE_VSA_FPOS>
0.44117662

> <PEOE_VSA_FPPOS>
0.0

> <PEOE_VSA_HYD>
301.90582

> <PEOE_VSA_NEG>
170.11119

> <PEOE_VSA_PNEG>
2.503756

> <PEOE_VSA_POL>
2.503756

> <PEOE_VSA_POS>
134.29839

> <PEOE_VSA_PPOS>
0.0

> <petitjean>
0.5

> <petitjeanSC>
1.0

> <Q_PC+>
0

> <Q_PC->
0

> <Q_RPC+>
0

> <Q_RPC->
0

> <Q_VSA_FHYD>
1

> <Q_VSA_FNEG>
0

> <Q_VSA_FPNEG>
0

> <Q_VSA_FPOL>
0

> <Q_VSA_FPOS>
1

> <Q_VSA_FPPOS>
0

> <Q_VSA_HYD>
304.40958

> <Q_VSA_NEG>
0

> <Q_VSA_PNEG>
0

> <Q_VSA_POL>
0

> <Q_VSA_POS>
304.40958

> <Q_VSA_PPOS>
0

> <radius>
5

> <reactive>
0

> <rings>
3

> <RPC+>
0

> <RPC->
0

> <rsynth>
1.0

> <SlogP>
3.9823

> <SlogP_VSA0>
0.0

> <SlogP_VSA1>
3.1243138

> <SlogP_VSA2>
17.468536

> <SlogP_VSA3>
36.879158

> <SlogP_VSA4>
6.37115

> <SlogP_VSA5>
32.897186

> <SlogP_VSA6>
0.0

> <SlogP_VSA7>
176.43184

> <SlogP_VSA8>
44.20546

> <SlogP_VSA9>
0.0

> <SMR>
8.6442003

> <SMR_VSA0>
10.999887

> <SMR_VSA1>
3.1243138

> <SMR_VSA2>
0.0

> <SMR_VSA3>
19.308449

> <SMR_VSA4>
0.0

> <SMR_VSA5>
214.16866

> <SMR_VSA6>
36.879158

> <SMR_VSA7>
32.897186

> <TPSA>
12.47

> <VAdjEq>
0.48250595

> <VAdjMa>
5.523562

> <VDistEq>
3.1135185

> <VDistMa>
8.510644

> <vdw_area>
304.40958

> <vdw_vol>
429.51627

> <vsa_acc>
2.503756

> <vsa_acid>
0

> <vsa_base>
0

> <vsa_don>
0.0

> <vsa_hyd>
285.53452

> <vsa_other>
0.0

> <vsa_pol>
2.503756

> <Weight>
281.39899

> <weinerPath>
930

> <weinerPol>
29

> <zagreb>
106

$$$$
Row1533
 OpenBabel06061811532D

 75 78  0  0  1  0  0  0  0  0999 V2000
    0.0000    0.0000    0.0000 O   0  0  0  0  0  0  0  0  0  0  0  0
    0.0000    0.0000    0.0000 C   0  0  2  0  0  0  0  0  0  0  0  0
    0.0000    0.0000    0.0000 H   0  0  0  0  0  0  0  0  0  0  0  0
    0.0000    0.0000    0.0000 C   0  0  0  0  0  0  0  0  0  0  0  0
    0.0000    0.0000    0.0000 C   0  0  0  0  0  0  0  0  0  0  0  0
    0.0000    0.0000    0.0000 C   0  0  1  0  0  0  0  0  0  0  0  0
    0.0000    0.0000    0.0000 O   0  0  0  0  0  0  0  0  0  0  0  0
    0.0000    0.0000    0.0000 C   0  0  2  0  0  0  0  0  0  0  0  0
    0.0000    0.0000    0.0000 H   0  0  0  0  0  0  0  0  0  0  0  0
    0.0000    0.0000    0.0000 O   0  0  0  0  0  0  0  0  0  0  0  0
    0.0000    0.0000    0.0000 C   0  0  1  0  0  0  0  0  0  0  0  0
    0.0000    0.0000    0.0000 H   0  0  0  0  0  0  0  0  0  0  0  0
    0.0000    0.0000    0.0000 N   0  0  0  0  0  0  0  0  0  0  0  0
    0.0000    0.0000    0.0000 C   0  0  1  0  0  0  0  0  0  0  0  0
    0.0000    0.0000    0.0000 H   0  0  0  0  0  0  0  0  0  0  0  0
    0.0000    0.0000    0.0000 C   0  0  1  0  0  0  0  0  0  0  0  0
    0.0000    0.0000    0.0000 H   0  0  0  0  0  0  0  0  0  0  0  0
    0.0000    0.0000    0.0000 C   0  0  0  0  0  0  0  0  0  0  0  0
    0.0000    0.0000    0.0000 C   0  0  2  0  0  0  0  0  0  0  0  0
    0.0000    0.0000    0.0000 O   0  0  0  0  0  0  0  0  0  0  0  0
    0.0000    0.0000    0.0000 C   0  0  0  0  0  0  0  0  0  0  0  0
    0.0000    0.0000    0.0000 C   0  0  2  0  0  0  0  0  0  0  0  0
    0.0000    0.0000    0.0000 H   0  0  0  0  0  0  0  0  0  0  0  0
    0.0000    0.0000    0.0000 O   0  0  0  0  0  0  0  0  0  0  0  0
    0.0000    0.0000    0.0000 C   0  0  2  0  0  0  0  0  0  0  0  0
    0.0000    0.0000    0.0000 H   0  0  0  0  0  0  0  0  0  0  0  0
    0.0000    0.0000    0.0000 O   0  0  0  0  0  0  0  0  0  0  0  0
    0.0000    0.0000    0.0000 C   0  0  1  0  0  0  0  0  0  0  0  0
    0.0000    0.0000    0.0000 H   0  0  0  0  0  0  0  0  0  0  0  0
    0.0000    0.0000    0.0000 C   0  0  0  0  0  0  0  0  0  0  0  0
    0.0000    0.0000    0.0000 C   0  0  2  0  0  0  0  0  0  0  0  0
    0.0000    0.0000    0.0000 H   0  0  0  0  0  0  0  0  0  0  0  0
    0.0000    0.0000    0.0000 N   0  0  0  0  0  0  0  0  0  0  0  0
    0.0000    0.0000    0.0000 C   0  0  0  0  0  0  0  0  0  0  0  0
    0.0000    0.0000    0.0000 C   0  0  0  0  0  0  0  0  0  0  0  0
    0.0000    0.0000    0.0000 C   0  0  1  0  0  0  0  0  0  0  0  0
    0.0000    0.0000    0.0000 H   0  0  0  0  0  0  0  0  0  0  0  0
    0.0000    0.0000    0.0000 O   0  0  0  0  0  0  0  0  0  0  0  0
    0.0000    0.0000    0.0000 C   0  0  0  0  0  0  0  0  0  0  0  0
    0.0000    0.0000    0.0000 C   0  0  1  0  0  0  0  0  0  0  0  0
    0.0000    0.0000    0.0000 H   0  0  0  0  0  0  0  0  0  0  0  0
    0.0000    0.0000    0.0000 C   0  0  0  0  0  0  0  0  0  0  0  0
    0.0000    0.0000    0.0000 C   0  0  2  0  0  0  0  0  0  0  0  0
    0.0000    0.0000    0.0000 H   0  0  0  0  0  0  0  0  0  0  0  0
    0.0000    0.0000    0.0000 O   0  0  0  0  0  0  0  0  0  0  0  0
    0.0000    0.0000    0.0000 C   0  0  2  0  0  0  0  0  0  0  0  0
    0.0000    0.0000    0.0000 H   0  0  0  0  0  0  0  0  0  0  0  0
    0.0000    0.0000    0.0000 O   0  0  0  0  0  0  0  0  0  0  0  0
    0.0000    0.0000    0.0000 C   0  0  1  0  0  0  0  0  0  0  0  0
    0.0000    0.0000    0.0000 H   0  0  0  0  0  0  0  0  0  0  0  0
    0.0000    0.0000    0.0000 C   0  0  0  0  0  0  0  0  0  0  0  0
    0.0000    0.0000    0.0000 C   0  0  2  0  0  0  0  0  0  0  0  0
    0.0000    0.0000    0.0000 H   0  0  0  0  0  0  0  0  0  0  0  0
    0.0000    0.0000    0.0000 O   0  0  0  0  0  0  0  0  0  0  0  0
    0.0000    0.0000    0.0000 C   0  0  2  0  0  0  0  0  0  0  0  0
    0.0000    0.0000    0.0000 O   0  0  0  0  0  0  0  0  0  0  0  0
    0.0000    0.0000    0.0000 C   0  0  0  0  0  0  0  0  0  0  0  0
    0.0000    0.0000    0.0000 C   0  0  0  0  0  0  0  0  0  0  0  0
    0.0000    0.0000    0.0000 C   0  0  0  0  0  0  0  0  0  0  0  0
    0.0000    0.0000    0.0000 C   0  0  1  0  0  0  0  0  0  0  0  0
    0.0000    0.0000    0.0000 H   0  0  0  0  0  0  0  0  0  0  0  0
    0.0000    0.0000    0.0000 C   0  0  0  0  0  0  0  0  0  0  0  0
    0.0000    0.0000    0.0000 C   0  0  0  0  0  0  0  0  0  0  0  0
    0.0000    0.0000    0.0000 O   0  0  0  0  0  0  0  0  0  0  0  0
    0.0000    0.0000    0.0000 C   0  0  0  0  0  0  0  0  0  0  0  0
    0.0000    0.0000    0.0000 C   0  0  2  0  0  0  0  0  0  0  0  0
    0.0000    0.0000    0.0000 H   0  0  0  0  0  0  0  0  0  0  0  0
    0.0000    0.0000    0.0000 C   0  0  0  0  0  0  0  0  0  0  0  0
    0.0000    0.0000    0.0000 C   0  0  0  0  0  0  0  0  0  0  0  0
    0.0000    0.0000    0.0000 O   0  0  0  0  0  0  0  0  0  0  0  0
    0.0000    0.0000    0.0000 C   0  0  0  0  0  0  0  0  0  0  0  0
    0.0000    0.0000    0.0000 C   0  0  0  0  0  0  0  0  0  0  0  0
    0.0000    0.0000    0.0000 O   0  0  0  0  0  0  0  0  0  0  0  0
    0.0000    0.0000    0.0000 C   0  0  0  0  0  0  0  0  0  0  0  0
    0.0000    0.0000    0.0000 C   0  0  0  0  0  0  0  0  0  0  0  0
  1 63  1  0  0  0  0
  1  2  1  0  0  0  0
  2  3  1  0  0  0  0
  2  4  1  0  0  0  0
  2  6  1  0  0  0  0
  4  5  1  0  0  0  0
  6  7  1  0  0  0  0
  6  8  1  0  0  0  0
  6 75  1  0  0  0  0
  8  9  1  0  0  0  0
  8 66  1  0  0  0  0
  8 10  1  0  0  0  0
 10 11  1  0  0  0  0
 11 12  1  0  0  0  0
 11 13  1  0  0  0  0
 11 69  1  0  0  0  0
 13 14  1  0  0  0  0
 14 15  1  0  0  0  0
 14 16  1  0  0  0  0
 14 66  1  0  0  0  0
 16 17  1  0  0  0  0
 16 18  1  0  0  0  0
 16 65  1  0  0  0  0
 18 19  1  0  0  0  0
 19 20  1  0  0  0  0
 19 21  1  0  0  0  0
 19 22  1  0  0  0  0
 22 23  1  0  0  0  0
 22 24  1  0  0  0  0
 22 40  1  0  0  0  0
 24 25  1  0  0  0  0
 25 26  1  0  0  0  0
 25 36  1  0  0  0  0
 25 27  1  0  0  0  0
 27 28  1  0  0  0  0
 28 29  1  0  0  0  0
 28 30  1  0  0  0  0
 28 39  1  0  0  0  0
 30 31  1  0  0  0  0
 31 32  1  0  0  0  0
 31 33  1  0  0  0  0
 31 36  1  0  0  0  0
 33 34  1  0  0  0  0
 33 35  1  0  0  0  0
 36 37  1  0  0  0  0
 36 38  1  0  0  0  0
 40 41  1  0  0  0  0
 40 42  1  0  0  0  0
 40 43  1  0  0  0  0
 43 44  1  0  0  0  0
 43 45  1  0  0  0  0
 43 60  1  0  0  0  0
 45 46  1  0  0  0  0
 46 47  1  0  0  0  0
 46 58  1  0  0  0  0
 46 48  1  0  0  0  0
 48 49  1  0  0  0  0
 49 50  1  0  0  0  0
 49 51  1  0  0  0  0
 49 52  1  0  0  0  0
 52 53  1  0  0  0  0
 52 54  1  0  0  0  0
 52 55  1  0  0  0  0
 55 56  1  0  0  0  0
 55 58  1  0  0  0  0
 55 59  1  0  0  0  0
 56 57  1  0  0  0  0
 60 61  1  0  0  0  0
 60 62  1  0  0  0  0
 60 63  1  0  0  0  0
 63 64  2  0  0  0  0
 66 67  1  0  0  0  0
 66 68  1  0  0  0  0
 69 70  1  0  0  0  0
 70 71  1  0  0  0  0
 71 72  1  0  0  0  0
 72 73  1  0  0  0  0
 73 74  1  0  0  0  0
M  END
> <Index>
1534

> <ID>
HT0695

> <class>
1

> <apol>
139.35785

> <ast_fraglike>
0

> <ast_fraglike_ext>
0

> <ast_violation>
3

> <ast_violation_ext>
5

> <a_acc>
15

> <a_acid>
0

> <a_aro>
0

> <a_base>
0

> <a_count>
136

> <a_don>
5

> <a_donacc>
20

> <a_heavy>
58

> <a_hyd>
38

> <a_IC>
191.85327

> <a_ICM>
1.4106858

> <a_nB>
0

> <a_nBr>
0

> <a_nC>
42

> <a_nCl>
0

> <a_nF>
0

> <a_nH>
78

> <a_nI>
0

> <a_nN>
2

> <a_nO>
14

> <a_nP>
0

> <a_nS>
0

> <balabanJ>
1.8293248

> <BCUT_PEOE_0>
-2.8656106

> <BCUT_PEOE_1>
-0.20132789

> <BCUT_PEOE_2>
0.10638433

> <BCUT_PEOE_3>
2.8661697

> <BCUT_SLOGP_0>
-2.9774094

> <BCUT_SLOGP_1>
-0.12436058

> <BCUT_SLOGP_2>
0.123

> <BCUT_SLOGP_3>
2.8042519

> <BCUT_SMR_0>
-2.630132

> <BCUT_SMR_1>
0.053368989

> <BCUT_SMR_2>
0.16403286

> <BCUT_SMR_3>
3.0913882

> <bpol>
106.11214

> <b_1rotN>
12

> <b_1rotR>
0.19672132

> <b_ar>
0

> <b_count>
139

> <b_double>
1

> <b_heavy>
61

> <b_max1len>
8

> <b_rotN>
12

> <b_rotR>
0.19672132

> <b_single>
138

> <b_triple>
0

> <chi0>
43.490471

> <chi0v>
37.583252

> <chi0v_C>
30.764702

> <chi0_C>
30.842052

> <chi1>
27.019167

> <chi1v>
21.352388

> <chi1v_C>
13.77118

> <chi1_C>
13.815839

> <chiral>
20

> <chiral_u>
0

> <density>
0.72632128

> <diameter>
20

> <FCharge>
0

> <GCUT_PEOE_0>
-0.85631645

> <GCUT_PEOE_1>
-0.32603821

> <GCUT_PEOE_2>
-0.10007089

> <GCUT_PEOE_3>
3.6693721

> <GCUT_SLOGP_0>
-1.1557858

> <GCUT_SLOGP_1>
-0.31187645

> <GCUT_SLOGP_2>
-0.037

> <GCUT_SLOGP_3>
3.6395628

> <GCUT_SMR_0>
-0.53537256

> <GCUT_SMR_1>
-0.12845992

> <GCUT_SMR_2>
-0.040972669

> <GCUT_SMR_3>
3.8700392

> <Kier1>
50.642838

> <Kier2>
21.119093

> <Kier3>
11.780616

> <KierA1>
49.851963

> <KierA2>
20.783457

> <KierA3>
11.591162

> <KierFlex>
17.863726

> <lip_acc>
16

> <lip_don>
5

> <lip_druglike>
0

> <lip_violation>
2

> <logP(o/w)>
3.66574

> <logS>
-4.2967

> <mr>
21.496964

> <mutagenic>
0

> <nmol>
1

> <opr_brigid>
30

> <opr_leadlike>
0

> <opr_nring>
3

> <opr_nrot>
27

> <opr_violation>
3

> <PC+>
0

> <PC->
0

> <PEOE_PC+>
6.1321349

> <PEOE_PC->
-6.1321349

> <PEOE_RPC+>
0.043679811

> <PEOE_RPC->
0.063009486

> <PEOE_VSA+0>
278.25784

> <PEOE_VSA+1>
172.38733

> <PEOE_VSA+2>
27.82481

> <PEOE_VSA+3>
22.309816

> <PEOE_VSA+4>
41.296692

> <PEOE_VSA+5>
14.708499

> <PEOE_VSA+6>
0.0

> <PEOE_VSA-0>
166.3197

> <PEOE_VSA-1>
93.738388

> <PEOE_VSA-2>
0.0

> <PEOE_VSA-3>
0.0

> <PEOE_VSA-4>
0.0

> <PEOE_VSA-5>
13.703812

> <PEOE_VSA-6>
53.603966

> <PEOE_VSA_FHYD>
0.86052948

> <PEOE_VSA_FNEG>
0.37026018

> <PEOE_VSA_FPNEG>
0.07612703

> <PEOE_VSA_FPOL>
0.1394705

> <PEOE_VSA_FPOS>
0.62973982

> <PEOE_VSA_FPPOS>
0.06334348

> <PEOE_VSA_HYD>
760.83789

> <PEOE_VSA_NEG>
327.36588

> <PEOE_VSA_PNEG>
67.307777

> <PEOE_VSA_POL>
123.31297

> <PEOE_VSA_POS>
556.78497

> <PEOE_VSA_PPOS>
56.005188

> <petitjean>
0.5

> <petitjeanSC>
1.0

> <Q_PC+>
0

> <Q_PC->
0

> <Q_RPC+>
0

> <Q_RPC->
0

> <Q_VSA_FHYD>
1

> <Q_VSA_FNEG>
0

> <Q_VSA_FPNEG>
0

> <Q_VSA_FPOL>
0

> <Q_VSA_FPOS>
1

> <Q_VSA_FPPOS>
0

> <Q_VSA_HYD>
884.15088

> <Q_VSA_NEG>
0

> <Q_VSA_PNEG>
0

> <Q_VSA_POL>
0

> <Q_VSA_POS>
884.15088

> <Q_VSA_PPOS>
0

> <radius>
10

> <reactive>
1

> <rings>
4

> <RPC+>
0

> <RPC->
0

> <rsynth>
0.53448278

> <SlogP>
2.2017

> <SlogP_VSA0>
119.55166

> <SlogP_VSA1>
10.869778

> <SlogP_VSA2>
205.66716

> <SlogP_VSA3>
62.778774

> <SlogP_VSA4>
17.643185

> <SlogP_VSA5>
136.56212

> <SlogP_VSA6>
0.0

> <SlogP_VSA7>
0.0

> <SlogP_VSA8>
75.473625

> <SlogP_VSA9>
333.26016

> <SMR>
21.35239

> <SMR_VSA0>
122.86121

> <SMR_VSA1>
104.66522

> <SMR_VSA2>
35.653934

> <SMR_VSA3>
82.805954

> <SMR_VSA4>
0.0

> <SMR_VSA5>
75.473625

> <SMR_VSA6>
70.524239

> <SMR_VSA7>
469.82227

> <TPSA>
196.33

> <VAdjEq>
0.22490348

> <VAdjMa>
6.9307375

> <VDistEq>
3.9275346

> <VDistMa>
11.496979

> <vdw_area>
884.15088

> <vdw_vol>
1149.7474

> <vsa_acc>
33.59697

> <vsa_acid>
0

> <vsa_base>
0

> <vsa_don>
0.0

> <vsa_hyd>
652.51111

> <vsa_other>
59.578785

> <vsa_pol>
93.547226

> <Weight>
835.086

> <weinerPath>
12725

> <weinerPol>
112

> <zagreb>
306

$$$$
Row1534
 OpenBabel06061811532D

 25 26  0  0  1  0  0  0  0  0999 V2000
    0.0000    0.0000    0.0000 O   0  0  0  0  0  0  0  0  0  0  0  0
    0.0000    0.0000    0.0000 C   0  0  0  0  0  0  0  0  0  0  0  0
    0.0000    0.0000    0.0000 N   0  0  0  0  0  0  0  0  0  0  0  0
    0.0000    0.0000    0.0000 C   0  0  3  0  0  0  0  0  0  0  0  0
    0.0000    0.0000    0.0000 C   0  0  0  0  0  0  0  0  0  0  0  0
    0.0000    0.0000    0.0000 C   0  0  0  0  0  0  0  0  0  0  0  0
    0.0000    0.0000    0.0000 N   0  0  0  0  0  0  0  0  0  0  0  0
    0.0000    0.0000    0.0000 C   0  0  0  0  0  0  0  0  0  0  0  0
    0.0000    0.0000    0.0000 C   0  0  0  0  0  0  0  0  0  0  0  0
    0.0000    0.0000    0.0000 C   0  0  0  0  0  0  0  0  0  0  0  0
    0.0000    0.0000    0.0000 C   0  0  0  0  0  0  0  0  0  0  0  0
    0.0000    0.0000    0.0000 C   0  0  0  0  0  0  0  0  0  0  0  0
    0.0000    0.0000    0.0000 C   0  0  0  0  0  0  0  0  0  0  0  0
    0.0000    0.0000    0.0000 C   0  0  0  0  0  0  0  0  0  0  0  0
    0.0000    0.0000    0.0000 C   0  0  0  0  0  0  0  0  0  0  0  0
    0.0000    0.0000    0.0000 C   0  0  0  0  0  0  0  0  0  0  0  0
    0.0000    0.0000    0.0000 C   0  0  0  0  0  0  0  0  0  0  0  0
    0.0000    0.0000    0.0000 C   0  0  0  0  0  0  0  0  0  0  0  0
    0.0000    0.0000    0.0000 C   0  0  0  0  0  0  0  0  0  0  0  0
    0.0000    0.0000    0.0000 C   0  0  0  0  0  0  0  0  0  0  0  0
    0.0000    0.0000    0.0000 N   0  0  0  0  0  0  0  0  0  0  0  0
    0.0000    0.0000    0.0000 C   0  0  0  0  0  0  0  0  0  0  0  0
    0.0000    0.0000    0.0000 C   0  0  0  0  0  0  0  0  0  0  0  0
    0.0000    0.0000    0.0000 C   0  0  0  0  0  0  0  0  0  0  0  0
    0.0000    0.0000    0.0000 C   0  0  0  0  0  0  0  0  0  0  0  0
  1  2  2  0  0  0  0
  2  3  1  0  0  0  0
  2  4  1  0  0  0  0
  4  5  1  0  0  0  0
  4 14  1  0  0  0  0
  4 20  1  0  0  0  0
  5  6  1  0  0  0  0
  6  7  1  0  0  0  0
  7  8  1  0  0  0  0
  7 11  1  0  0  0  0
  8  9  1  0  0  0  0
  8 10  1  0  0  0  0
 11 12  1  0  0  0  0
 11 13  1  0  0  0  0
 14 19  1  0  0  0  0
 14 15  2  0  0  0  0
 15 16  1  0  0  0  0
 16 17  2  0  0  0  0
 17 18  1  0  0  0  0
 18 19  2  0  0  0  0
 20 25  1  0  0  0  0
 20 21  2  0  0  0  0
 21 22  1  0  0  0  0
 22 23  2  0  0  0  0
 23 24  1  0  0  0  0
 24 25  2  0  0  0  0
M  END
> <Index>
1535

> <ID>
HT0696

> <class>
1

> <apol>
60.398998

> <ast_fraglike>
0

> <ast_fraglike_ext>
0

> <ast_violation>
2

> <ast_violation_ext>
3

> <a_acc>
3

> <a_acid>
0

> <a_aro>
12

> <a_base>
0

> <a_count>
54

> <a_don>
1

> <a_donacc>
4

> <a_heavy>
25

> <a_hyd>
20

> <a_IC>
72.888924

> <a_ICM>
1.3497949

> <a_nB>
0

> <a_nBr>
0

> <a_nC>
21

> <a_nCl>
0

> <a_nF>
0

> <a_nH>
29

> <a_nI>
0

> <a_nN>
3

> <a_nO>
1

> <a_nP>
0

> <a_nS>
0

> <balabanJ>
2.2512052

> <BCUT_PEOE_0>
-2.758599

> <BCUT_PEOE_1>
-0.53910816

> <BCUT_PEOE_2>
0.59138948

> <BCUT_PEOE_3>
2.6853554

> <BCUT_SLOGP_0>
-2.8015347

> <BCUT_SLOGP_1>
-0.45699534

> <BCUT_SLOGP_2>
0.67733204

> <BCUT_SLOGP_3>
2.6693158

> <BCUT_SMR_0>
-2.4827724

> <BCUT_SMR_1>
-0.39909521

> <BCUT_SMR_2>
0.72936165

> <BCUT_SMR_3>
2.9491789

> <bpol>
35.301003

> <b_1rotN>
8

> <b_1rotR>
0.30769232

> <b_ar>
12

> <b_count>
55

> <b_double>
1

> <b_heavy>
26

> <b_max1len>
7

> <b_rotN>
8

> <b_rotR>
0.30769232

> <b_single>
42

> <b_triple>
0

> <chi0>
18.449383

> <chi0v>
15.645092

> <chi0v_C>
13.765066

> <chi0_C>
15.164926

> <chi1>
11.891588

> <chi1v>
8.9195433

> <chi1v_C>
7.1123133

> <chi1_C>
8.7537251

> <chiral>
1

> <chiral_u>
1

> <density>
0.66200143

> <diameter>
9

> <FCharge>
0

> <GCUT_PEOE_0>
-0.85769999

> <GCUT_PEOE_1>
-0.36223903

> <GCUT_PEOE_2>
0.061872017

> <GCUT_PEOE_3>
2.8877771

> <GCUT_SLOGP_0>
-1.3706976

> <GCUT_SLOGP_1>
-0.25720671

> <GCUT_SLOGP_2>
0.13706793

> <GCUT_SLOGP_3>
2.9173539

> <GCUT_SMR_0>
-0.52523828

> <GCUT_SMR_1>
-0.1944183

> <GCUT_SMR_2>
0.16307327

> <GCUT_SMR_3>
3.1389434

> <Kier1>
21.301775

> <Kier2>
9.7962961

> <Kier3>
5.0416665

> <KierA1>
16.31303

> <KierA2>
7.4126258

> <KierA3>
3.7806873

> <KierFlex>
4.8368955

> <lip_acc>
4

> <lip_don>
2

> <lip_druglike>
1

> <lip_violation>
0

> <logP(o/w)>
3.7290001

> <logS>
-3.51877

> <mr>
10.353694

> <mutagenic>
0

> <nmol>
1

> <opr_brigid>
12

> <opr_leadlike>
1

> <opr_nring>
2

> <opr_nrot>
8

> <opr_violation>
0

> <PC+>
0

> <PC->
0

> <PEOE_PC+>
1.8787599

> <PEOE_PC->
-1.8787599

> <PEOE_RPC+>
0.12501636

> <PEOE_RPC->
0.19629297

> <PEOE_VSA+0>
113.00711

> <PEOE_VSA+1>
45.088024

> <PEOE_VSA+2>
0.0

> <PEOE_VSA+3>
17.238026

> <PEOE_VSA+4>
12.949531

> <PEOE_VSA+5>
0.0

> <PEOE_VSA+6>
0.0

> <PEOE_VSA-0>
110.41037

> <PEOE_VSA-1>
73.529427

> <PEOE_VSA-2>
0.0

> <PEOE_VSA-3>
0.0

> <PEOE_VSA-4>
0.0

> <PEOE_VSA-5>
19.249496

> <PEOE_VSA-6>
6.6511192

> <PEOE_VSA_FHYD>
0.90241677

> <PEOE_VSA_FNEG>
0.52707416

> <PEOE_VSA_FPNEG>
0.065056801

> <PEOE_VSA_FPOL>
0.097583249

> <PEOE_VSA_FPOS>
0.47292581

> <PEOE_VSA_FPPOS>
0.032526448

> <PEOE_VSA_HYD>
359.27295

> <PEOE_VSA_NEG>
209.84041

> <PEOE_VSA_PNEG>
25.900616

> <PEOE_VSA_POL>
38.850147

> <PEOE_VSA_POS>
188.28268

> <PEOE_VSA_PPOS>
12.949531

> <petitjean>
0.44444445

> <petitjeanSC>
0.80000001

> <Q_PC+>
0

> <Q_PC->
0

> <Q_RPC+>
0

> <Q_RPC->
0

> <Q_VSA_FHYD>
1

> <Q_VSA_FNEG>
0

> <Q_VSA_FPNEG>
0

> <Q_VSA_FPOL>
0

> <Q_VSA_FPOS>
1

> <Q_VSA_FPPOS>
0

> <Q_VSA_HYD>
398.12311

> <Q_VSA_NEG>
0

> <Q_VSA_PNEG>
0

> <Q_VSA_POL>
0

> <Q_VSA_POS>
398.12311

> <Q_VSA_PPOS>
0

> <radius>
5

> <reactive>
0

> <rings>
2

> <RPC+>
0

> <RPC->
0

> <rsynth>
1.0

> <SlogP>
3.3619001

> <SlogP_VSA0>
32.897186

> <SlogP_VSA1>
25.168627

> <SlogP_VSA2>
31.826153

> <SlogP_VSA3>
18.439579

> <SlogP_VSA4>
5.9423227

> <SlogP_VSA5>
0.0

> <SlogP_VSA6>
0.0

> <SlogP_VSA7>
158.35983

> <SlogP_VSA8>
18.868406

> <SlogP_VSA9>
133.30406

> <SMR>
10.22484

> <SMR_VSA0>
23.862217

> <SMR_VSA1>
19.909843

> <SMR_VSA2>
0.0

> <SMR_VSA3>
13.90626

> <SMR_VSA4>
32.897186

> <SMR_VSA5>
177.22824

> <SMR_VSA6>
23.698362

> <SMR_VSA7>
133.30406

> <TPSA>
59.220001

> <VAdjEq>
0.41335541

> <VAdjMa>
5.7004399

> <VDistEq>
3.0603054

> <VDistMa>
9.0534706

> <vdw_area>
398.12311

> <vdw_vol>
512.81311

> <vsa_acc>
19.249496

> <vsa_acid>
0

> <vsa_base>
0

> <vsa_don>
17.742489

> <vsa_hyd>
322.81647

> <vsa_other>
12.949531

> <vsa_pol>
36.991985

> <Weight>
339.483

> <weinerPath>
1372

> <weinerPol>
42

> <zagreb>
124

$$$$
Row1535
 OpenBabel06061811532D

 16 15  0  0  0  0  0  0  0  0999 V2000
    0.0000    0.0000    0.0000 S   0  0  0  0  0  0  0  0  0  0  0  0
    0.0000    0.0000    0.0000 S   0  0  0  0  0  0  0  0  0  0  0  0
    0.0000    0.0000    0.0000 C   0  0  0  0  0  0  0  0  0  0  0  0
    0.0000    0.0000    0.0000 S   0  0  0  0  0  0  0  0  0  0  0  0
    0.0000    0.0000    0.0000 N   0  0  0  0  0  0  0  0  0  0  0  0
    0.0000    0.0000    0.0000 C   0  0  0  0  0  0  0  0  0  0  0  0
    0.0000    0.0000    0.0000 C   0  0  0  0  0  0  0  0  0  0  0  0
    0.0000    0.0000    0.0000 C   0  0  0  0  0  0  0  0  0  0  0  0
    0.0000    0.0000    0.0000 C   0  0  0  0  0  0  0  0  0  0  0  0
    0.0000    0.0000    0.0000 C   0  0  0  0  0  0  0  0  0  0  0  0
    0.0000    0.0000    0.0000 S   0  0  0  0  0  0  0  0  0  0  0  0
    0.0000    0.0000    0.0000 N   0  0  0  0  0  0  0  0  0  0  0  0
    0.0000    0.0000    0.0000 C   0  0  0  0  0  0  0  0  0  0  0  0
    0.0000    0.0000    0.0000 C   0  0  0  0  0  0  0  0  0  0  0  0
    0.0000    0.0000    0.0000 C   0  0  0  0  0  0  0  0  0  0  0  0
    0.0000    0.0000    0.0000 C   0  0  0  0  0  0  0  0  0  0  0  0
  1  2  1  0  0  0  0
  1 10  1  0  0  0  0
  2  3  1  0  0  0  0
  3  4  2  0  0  0  0
  3  5  1  0  0  0  0
  5  6  1  0  0  0  0
  5  8  1  0  0  0  0
  6  7  1  0  0  0  0
  8  9  1  0  0  0  0
 10 11  2  0  0  0  0
 10 12  1  0  0  0  0
 12 13  1  0  0  0  0
 12 15  1  0  0  0  0
 13 14  1  0  0  0  0
 15 16  1  0  0  0  0
M  END
> <Index>
1536

> <ID>
HT0698

> <class>
1

> <apol>
44.735859

> <ast_fraglike>
0

> <ast_fraglike_ext>
0

> <ast_violation>
1

> <ast_violation_ext>
3

> <a_acc>
2

> <a_acid>
0

> <a_aro>
0

> <a_base>
0

> <a_count>
36

> <a_don>
0

> <a_donacc>
2

> <a_heavy>
16

> <a_hyd>
10

> <a_IC>
56.459457

> <a_ICM>
1.5683182

> <a_nB>
0

> <a_nBr>
0

> <a_nC>
10

> <a_nCl>
0

> <a_nF>
0

> <a_nH>
20

> <a_nI>
0

> <a_nN>
2

> <a_nO>
0

> <a_nP>
0

> <a_nS>
4

> <balabanJ>
3.9460464

> <BCUT_PEOE_0>
-2.6021349

> <BCUT_PEOE_1>
0.0027175478

> <BCUT_PEOE_2>
0.042751018

> <BCUT_PEOE_3>
2.4936855

> <BCUT_SLOGP_0>
-2.6454418

> <BCUT_SLOGP_1>
0.123

> <BCUT_SLOGP_2>
0.21823746

> <BCUT_SLOGP_3>
2.5049956

> <BCUT_SMR_0>
-2.3048589

> <BCUT_SMR_1>
0.1057

> <BCUT_SMR_2>
0.44460449

> <BCUT_SMR_3>
2.8242242

> <bpol>
30.38414

> <b_1rotN>
7

> <b_1rotR>
0.46666667

> <b_ar>
0

> <b_count>
35

> <b_double>
2

> <b_heavy>
15

> <b_max1len>
6

> <b_rotN>
9

> <b_rotR>
0.60000002

> <b_single>
33

> <b_triple>
0

> <chi0>
12.552042

> <chi0v>
13.621834

> <chi0v_C>
7.8284273

> <chi0_C>
7.9831276

> <chi1>
7.5992842

> <chi1v>
8.4900417

> <chi1v_C>
2.8284271

> <chi1_C>
2.8284271

> <chiral>
0

> <chiral_u>
0

> <density>
0.80656052

> <diameter>
9

> <FCharge>
0

> <GCUT_PEOE_0>
-0.84630919

> <GCUT_PEOE_1>
-0.24172267

> <GCUT_PEOE_2>
-0.11724898

> <GCUT_PEOE_3>
2.3062265

> <GCUT_SLOGP_0>
-0.95778346

> <GCUT_SLOGP_1>
-0.10039216

> <GCUT_SLOGP_2>
0.048683427

> <GCUT_SLOGP_3>
2.3888304

> <GCUT_SMR_0>
-0.51822865

> <GCUT_SMR_1>
-0.054299999

> <GCUT_SMR_2>
0.20964617

> <GCUT_SMR_3>
2.6512427

> <Kier1>
16.0

> <Kier2>
9.0740738

> <Kier3>
5.7777777

> <KierA1>
19.699959

> <KierA2>
11.330126

> <KierA3>
7.2901154

> <KierFlex>
13.950189

> <lip_acc>
2

> <lip_don>
0

> <lip_druglike>
1

> <lip_violation>
0

> <logP(o/w)>
3.316

> <logS>
-6.1839399

> <mr>
8.1800175

> <mutagenic>
0

> <nmol>
1

> <opr_brigid>
0

> <opr_leadlike>
1

> <opr_nring>
0

> <opr_nrot>
7

> <opr_violation>
0

> <PC+>
0

> <PC->
0

> <PEOE_PC+>
0.87036651

> <PEOE_PC->
-0.87036651

> <PEOE_RPC+>
0.13292263

> <PEOE_RPC->
0.31985217

> <PEOE_VSA+0>
159.38037

> <PEOE_VSA+1>
0.0

> <PEOE_VSA+2>
62.769024

> <PEOE_VSA+3>
0.0

> <PEOE_VSA+4>
0.0

> <PEOE_VSA+5>
0.0

> <PEOE_VSA+6>
0.0

> <PEOE_VSA-0>
0.0

> <PEOE_VSA-1>
118.46407

> <PEOE_VSA-2>
0.0

> <PEOE_VSA-3>
0.0

> <PEOE_VSA-4>
0.0

> <PEOE_VSA-5>
0.0

> <PEOE_VSA-6>
0.0

> <PEOE_VSA_FHYD>
1.0

> <PEOE_VSA_FNEG>
0.3477962

> <PEOE_VSA_FPNEG>
0.0

> <PEOE_VSA_FPOL>
0.0

> <PEOE_VSA_FPOS>
0.6522038

> <PEOE_VSA_FPPOS>
0.0

> <PEOE_VSA_HYD>
340.61346

> <PEOE_VSA_NEG>
118.46407

> <PEOE_VSA_PNEG>
0.0

> <PEOE_VSA_POL>
0.0

> <PEOE_VSA_POS>
222.14938

> <PEOE_VSA_PPOS>
0.0

> <petitjean>
0.44444445

> <petitjeanSC>
0.80000001

> <Q_PC+>
0

> <Q_PC->
0

> <Q_RPC+>
0

> <Q_RPC->
0

> <Q_VSA_FHYD>
1

> <Q_VSA_FNEG>
0

> <Q_VSA_FPNEG>
0

> <Q_VSA_FPOL>
0

> <Q_VSA_FPOS>
1

> <Q_VSA_FPPOS>
0

> <Q_VSA_HYD>
340.61346

> <Q_VSA_NEG>
0

> <Q_VSA_PNEG>
0

> <Q_VSA_POL>
0

> <Q_VSA_POS>
340.61346

> <Q_VSA_PPOS>
0

> <radius>
5

> <reactive>
1

> <rings>
0

> <RPC+>
0

> <RPC->
0

> <rsynth>
1.0

> <SlogP>
3.6212001

> <SlogP_VSA0>
0.0

> <SlogP_VSA1>
6.2486277

> <SlogP_VSA2>
0.0

> <SlogP_VSA3>
73.758316

> <SlogP_VSA4>
0.0

> <SlogP_VSA5>
0.0

> <SlogP_VSA6>
0.0

> <SlogP_VSA7>
0.0

> <SlogP_VSA8>
0.0

> <SlogP_VSA9>
284.05161

> <SMR>
8.6224003

> <SMR_VSA0>
0.0

> <SMR_VSA1>
6.2486277

> <SMR_VSA2>
0.0

> <SMR_VSA3>
0.0

> <SMR_VSA4>
0.0

> <SMR_VSA5>
0.0

> <SMR_VSA6>
73.758316

> <SMR_VSA7>
284.05161

> <TPSA>
70.660004

> <VAdjEq>
0.521222

> <VAdjMa>
4.9068904

> <VDistEq>
3.0567408

> <VDistMa>
7.6862431

> <vdw_area>
340.61346

> <vdw_vol>
367.66986

> <vsa_acc>
62.769024

> <vsa_acid>
0

> <vsa_base>
0

> <vsa_don>
0.0

> <vsa_hyd>
242.30518

> <vsa_other>
21.303349

> <vsa_pol>
62.769024

> <Weight>
296.548

> <weinerPath>
502

> <weinerPol>
21

> <zagreb>
66

$$$$
Row1536
 OpenBabel06061811532D

 27 29  0  0  1  0  0  0  0  0999 V2000
    0.0000    0.0000    0.0000 S   0  0  0  0  0  0  0  0  0  0  0  0
    0.0000    0.0000    0.0000 C   0  0  0  0  0  0  0  0  0  0  0  0
    0.0000    0.0000    0.0000 C   0  0  3  0  0  0  0  0  0  0  0  0
    0.0000    0.0000    0.0000 C   0  0  3  0  0  0  0  0  0  0  0  0
    0.0000    0.0000    0.0000 N   0  0  0  0  0  0  0  0  0  0  0  0
    0.0000    0.0000    0.0000 C   0  0  0  0  0  0  0  0  0  0  0  0
    0.0000    0.0000    0.0000 O   0  0  0  0  0  0  0  0  0  0  0  0
    0.0000    0.0000    0.0000 C   0  0  3  0  0  0  0  0  0  0  0  0
    0.0000    0.0000    0.0000 C   0  0  3  0  0  0  0  0  0  0  0  0
    0.0000    0.0000    0.0000 O   0  0  0  0  0  0  0  0  0  0  0  0
    0.0000    0.0000    0.0000 C   0  0  0  0  0  0  0  0  0  0  0  0
    0.0000    0.0000    0.0000 C   0  0  0  0  0  0  0  0  0  0  0  0
    0.0000    0.0000    0.0000 C   0  0  0  0  0  0  0  0  0  0  0  0
    0.0000    0.0000    0.0000 O   0  0  0  0  0  0  0  0  0  0  0  0
    0.0000    0.0000    0.0000 O   0  0  0  0  0  0  0  0  0  0  0  0
    0.0000    0.0000    0.0000 C   0  0  0  0  0  0  0  0  0  0  0  0
    0.0000    0.0000    0.0000 C   0  0  3  0  0  0  0  0  0  0  0  0
    0.0000    0.0000    0.0000 C   0  0  0  0  0  0  0  0  0  0  0  0
    0.0000    0.0000    0.0000 C   0  0  3  0  0  0  0  0  0  0  0  0
    0.0000    0.0000    0.0000 N   0  0  0  0  0  0  0  0  0  0  0  0
    0.0000    0.0000    0.0000 C   0  0  0  0  0  0  0  0  0  0  0  0
    0.0000    0.0000    0.0000 C   0  0  0  0  0  0  0  0  0  0  0  0
    0.0000    0.0000    0.0000 N   0  0  0  0  0  0  0  0  0  0  0  0
    0.0000    0.0000    0.0000 S   0  0  0  0  0  0  0  0  0  0  0  0
    0.0000    0.0000    0.0000 O   0  0  0  0  0  0  0  0  0  0  0  0
    0.0000    0.0000    0.0000 O   0  0  0  0  0  0  0  0  0  0  0  0
    0.0000    0.0000    0.0000 N   0  0  0  0  0  0  0  0  0  0  0  0
  1  2  1  0  0  0  0
  1 17  1  0  0  0  0
  2 12  2  0  0  0  0
  2  3  1  0  0  0  0
  3  4  1  0  0  0  0
  3 16  1  0  0  0  0
  4  8  1  0  0  0  0
  4  5  1  0  0  0  0
  5  6  1  0  0  0  0
  5 12  1  0  0  0  0
  6  7  2  0  0  0  0
  6  8  1  0  0  0  0
  8  9  1  0  0  0  0
  9 10  1  0  0  0  0
  9 11  1  0  0  0  0
 12 13  1  0  0  0  0
 13 14  1  0  0  0  0
 13 15  2  0  0  0  0
 17 21  1  0  0  0  0
 17 18  1  0  0  0  0
 18 19  1  0  0  0  0
 19 20  1  0  0  0  0
 19 22  1  0  0  0  0
 20 21  1  0  0  0  0
 22 23  1  0  0  0  0
 23 24  1  0  0  0  0
 24 25  2  0  0  0  0
 24 26  2  0  0  0  0
 24 27  1  0  0  0  0
M  END
> <Index>
1537

> <ID>
HT0710

> <class>
1

> <apol>
57.415031

> <ast_fraglike>
0

> <ast_fraglike_ext>
0

> <ast_violation>
3

> <ast_violation_ext>
5

> <a_acc>
7

> <a_acid>
0

> <a_aro>
0

> <a_base>
0

> <a_count>
51

> <a_don>
6

> <a_donacc>
13

> <a_heavy>
27

> <a_hyd>
14

> <a_IC>
95.141457

> <a_ICM>
1.8655188

> <a_nB>
0

> <a_nBr>
0

> <a_nC>
15

> <a_nCl>
0

> <a_nF>
0

> <a_nH>
24

> <a_nI>
0

> <a_nN>
4

> <a_nO>
6

> <a_nP>
0

> <a_nS>
2

> <balabanJ>
1.6243459

> <BCUT_PEOE_0>
-2.7330554

> <BCUT_PEOE_1>
-0.52569008

> <BCUT_PEOE_2>
0.58376265

> <BCUT_PEOE_3>
2.8369136

> <BCUT_SLOGP_0>
-2.8606403

> <BCUT_SLOGP_1>
-0.54497772

> <BCUT_SLOGP_2>
0.57160747

> <BCUT_SLOGP_3>
2.772661

> <BCUT_SMR_0>
-2.4990897

> <BCUT_SMR_1>
-0.4000822

> <BCUT_SMR_2>
0.69088393

> <BCUT_SMR_3>
3.0908525

> <bpol>
39.548969

> <b_1rotN>
7

> <b_1rotR>
0.24137931

> <b_ar>
0

> <b_count>
53

> <b_double>
3

> <b_heavy>
29

> <b_max1len>
6

> <b_rotN>
7

> <b_rotR>
0.24137931

> <b_single>
50

> <b_triple>
0

> <chi0>
20.093494

> <chi0v>
16.586895

> <chi0v_C>
9.5854216

> <chi0_C>
9.8948231

> <chi1>
12.508726

> <chi1v>
11.095251

> <chi1v_C>
4.8650441

> <chi1_C>
5.121027

> <chiral>
6

> <chiral_u>
6

> <density>
0.87993163

> <diameter>
13

> <FCharge>
0

> <GCUT_PEOE_0>
-0.85100347

> <GCUT_PEOE_1>
-0.40050378

> <GCUT_PEOE_2>
0.076170206

> <GCUT_PEOE_3>
2.8644123

> <GCUT_SLOGP_0>
-1.3483542

> <GCUT_SLOGP_1>
-0.48365209

> <GCUT_SLOGP_2>
0.11038657

> <GCUT_SLOGP_3>
2.8423641

> <GCUT_SMR_0>
-0.54825413

> <GCUT_SMR_1>
-0.20679167

> <GCUT_SMR_2>
0.17920089

> <GCUT_SMR_3>
3.123455

> <Kier1>
21.702734

> <Kier2>
8.0246916

> <Kier3>
4.3022122

> <KierA1>
22.050833

> <KierA2>
8.158515

> <KierA3>
4.3759875

> <KierFlex>
6.6630387

> <lip_acc>
10

> <lip_don>
6

> <lip_druglike>
1

> <lip_violation>
1

> <logP(o/w)>
-1.633

> <logS>
-1.55621

> <mr>
9.8419905

> <mutagenic>
0

> <nmol>
1

> <opr_brigid>
13

> <opr_leadlike>
0

> <opr_nring>
3

> <opr_nrot>
7

> <opr_violation>
2

> <PC+>
0

> <PC->
0

> <PEOE_PC+>
2.5847499

> <PEOE_PC->
-2.5847499

> <PEOE_RPC+>
0.11942831

> <PEOE_RPC->
0.15136082

> <PEOE_VSA+0>
102.5924

> <PEOE_VSA+1>
42.438702

> <PEOE_VSA+2>
29.016981

> <PEOE_VSA+3>
0.0

> <PEOE_VSA+4>
33.597878

> <PEOE_VSA+5>
0.0

> <PEOE_VSA+6>
14.708499

> <PEOE_VSA-0>
27.44899

> <PEOE_VSA-1>
18.747677

> <PEOE_VSA-2>
63.35041

> <PEOE_VSA-3>
0.0

> <PEOE_VSA-4>
0.0

> <PEOE_VSA-5>
27.133842

> <PEOE_VSA-6>
15.671971

> <PEOE_VSA_FHYD>
0.7568444

> <PEOE_VSA_FNEG>
0.40659168

> <PEOE_VSA_FPNEG>
0.11423799

> <PEOE_VSA_FPOL>
0.2431556

> <PEOE_VSA_FPOS>
0.59340829

> <PEOE_VSA_FPPOS>
0.1289176

> <PEOE_VSA_HYD>
283.59515

> <PEOE_VSA_NEG>
152.35289

> <PEOE_VSA_PNEG>
42.805813

> <PEOE_VSA_POL>
91.11219

> <PEOE_VSA_POS>
222.35446

> <PEOE_VSA_PPOS>
48.306377

> <petitjean>
0.46153846

> <petitjeanSC>
0.85714287

> <Q_PC+>
0

> <Q_PC->
0

> <Q_RPC+>
0

> <Q_RPC->
0

> <Q_VSA_FHYD>
1

> <Q_VSA_FNEG>
0

> <Q_VSA_FPNEG>
0

> <Q_VSA_FPOL>
0

> <Q_VSA_FPOS>
1

> <Q_VSA_FPPOS>
0

> <Q_VSA_HYD>
374.70734

> <Q_VSA_NEG>
0

> <Q_VSA_PNEG>
0

> <Q_VSA_POL>
0

> <Q_VSA_POS>
374.70734

> <Q_VSA_PPOS>
0

> <radius>
7

> <reactive>
0

> <rings>
3

> <RPC+>
0

> <RPC->
0

> <rsynth>
0.7037037

> <SlogP>
-1.6030999

> <SlogP_VSA0>
91.092407

> <SlogP_VSA1>
64.300247

> <SlogP_VSA2>
71.33519

> <SlogP_VSA3>
62.264381

> <SlogP_VSA4>
8.8215923

> <SlogP_VSA5>
4.3074813

> <SlogP_VSA6>
0.0

> <SlogP_VSA7>
0.0

> <SlogP_VSA8>
18.868406

> <SlogP_VSA9>
98.871574

> <SMR>
9.8528204

> <SMR_VSA0>
95.896118

> <SMR_VSA1>
28.509541

> <SMR_VSA2>
68.622566

> <SMR_VSA3>
21.516024

> <SMR_VSA4>
31.291433

> <SMR_VSA5>
18.868406

> <SMR_VSA6>
49.883404

> <SMR_VSA7>
105.27379

> <TPSA>
162.06

> <VAdjEq>
0.40063059

> <VAdjMa>
5.8579812

> <VDistEq>
3.5268872

> <VDistMa>
9.2094784

> <vdw_area>
374.70734

> <vdw_vol>
477.89053

> <vsa_acc>
45.583443

> <vsa_acid>
0

> <vsa_base>
0

> <vsa_don>
28.210327

> <vsa_hyd>
176.32848

> <vsa_other>
41.356449

> <vsa_pol>
120.17711

> <Weight>
420.51099

> <weinerPath>
1918

> <weinerPol>
41

> <zagreb>
148

$$$$
Row1537
 OpenBabel06061811532D

 21 23  0  0  0  0  0  0  0  0999 V2000
    0.0000    0.0000    0.0000 S   0  0  0  0  0  0  0  0  0  0  0  0
    0.0000    0.0000    0.0000 C   0  0  0  0  0  0  0  0  0  0  0  0
    0.0000    0.0000    0.0000 C   0  0  0  0  0  0  0  0  0  0  0  0
    0.0000    0.0000    0.0000 C   0  0  0  0  0  0  0  0  0  0  0  0
    0.0000    0.0000    0.0000 C   0  0  0  0  0  0  0  0  0  0  0  0
    0.0000    0.0000    0.0000 C   0  0  0  0  0  0  0  0  0  0  0  0
    0.0000    0.0000    0.0000 C   0  0  0  0  0  0  0  0  0  0  0  0
    0.0000    0.0000    0.0000 C   0  0  0  0  0  0  0  0  0  0  0  0
    0.0000    0.0000    0.0000 C   0  0  0  0  0  0  0  0  0  0  0  0
    0.0000    0.0000    0.0000 C   0  0  0  0  0  0  0  0  0  0  0  0
    0.0000    0.0000    0.0000 C   0  0  0  0  0  0  0  0  0  0  0  0
    0.0000    0.0000    0.0000 C   0  0  0  0  0  0  0  0  0  0  0  0
    0.0000    0.0000    0.0000 C   0  0  0  0  0  0  0  0  0  0  0  0
    0.0000    0.0000    0.0000 C   0  0  0  0  0  0  0  0  0  0  0  0
    0.0000    0.0000    0.0000 C   0  0  0  0  0  0  0  0  0  0  0  0
    0.0000    0.0000    0.0000 C   0  0  0  0  0  0  0  0  0  0  0  0
    0.0000    0.0000    0.0000 C   0  0  0  0  0  0  0  0  0  0  0  0
    0.0000    0.0000    0.0000 C   0  0  0  0  0  0  0  0  0  0  0  0
    0.0000    0.0000    0.0000 N   0  0  0  0  0  0  0  0  0  0  0  0
    0.0000    0.0000    0.0000 C   0  0  0  0  0  0  0  0  0  0  0  0
    0.0000    0.0000    0.0000 C   0  0  0  0  0  0  0  0  0  0  0  0
  1 11  1  0  0  0  0
  1  2  1  0  0  0  0
  2  3  1  0  0  0  0
  3  8  1  0  0  0  0
  3  4  2  0  0  0  0
  4  5  1  0  0  0  0
  4  9  1  0  0  0  0
  5  6  2  0  0  0  0
  6  7  1  0  0  0  0
  7  8  2  0  0  0  0
  9 10  1  0  0  0  0
  9 16  2  3  0  0  0
 10 15  1  0  0  0  0
 10 11  2  0  0  0  0
 11 12  1  0  0  0  0
 12 13  2  0  0  0  0
 13 14  1  0  0  0  0
 14 15  2  0  0  0  0
 16 17  1  0  0  0  0
 17 18  1  0  0  0  0
 18 19  1  0  0  0  0
 19 20  1  0  0  0  0
 19 21  1  0  0  0  0
M  END
> <Index>
1538

> <ID>
HT0712

> <class>
1

> <apol>
51.442654

> <ast_fraglike>
0

> <ast_fraglike_ext>
0

> <ast_violation>
1

> <ast_violation_ext>
1

> <a_acc>
1

> <a_acid>
0

> <a_aro>
12

> <a_base>
0

> <a_count>
42

> <a_don>
0

> <a_donacc>
1

> <a_heavy>
21

> <a_hyd>
20

> <a_IC>
53.528042

> <a_ICM>
1.2744772

> <a_nB>
0

> <a_nBr>
0

> <a_nC>
19

> <a_nCl>
0

> <a_nF>
0

> <a_nH>
21

> <a_nI>
0

> <a_nN>
1

> <a_nO>
0

> <a_nP>
0

> <a_nS>
1

> <balabanJ>
1.7133598

> <BCUT_PEOE_0>
-2.6075609

> <BCUT_PEOE_1>
-0.55693126

> <BCUT_PEOE_2>
0.60754043

> <BCUT_PEOE_3>
2.4969435

> <BCUT_SLOGP_0>
-2.6599531

> <BCUT_SLOGP_1>
-0.43704656

> <BCUT_SLOGP_2>
0.71601951

> <BCUT_SLOGP_3>
2.5991445

> <BCUT_SMR_0>
-2.3218937

> <BCUT_SMR_1>
-0.40710983

> <BCUT_SMR_2>
0.76078999

> <BCUT_SMR_3>
2.7829607

> <bpol>
27.217346

> <b_1rotN>
3

> <b_1rotR>
0.13043478

> <b_ar>
12

> <b_count>
44

> <b_double>
1

> <b_heavy>
23

> <b_max1len>
6

> <b_rotN>
3

> <b_rotR>
0.13043478

> <b_single>
31

> <b_triple>
0

> <chi0>
14.656489

> <chi0v>
13.489431

> <chi0v_C>
11.817472

> <chi0_C>
13.372033

> <chi1>
10.25402

> <chi1v>
8.3942299

> <chi1v_C>
5.7051773

> <chi1_C>
7.7828231

> <chiral>
0

> <chiral_u>
0

> <density>
0.67867106

> <diameter>
9

> <FCharge>
0

> <GCUT_PEOE_0>
-0.86319816

> <GCUT_PEOE_1>
-0.35797781

> <GCUT_PEOE_2>
0.049103964

> <GCUT_PEOE_3>
2.6310785

> <GCUT_SLOGP_0>
-0.95306075

> <GCUT_SLOGP_1>
-0.23692796

> <GCUT_SLOGP_2>
0.14157531

> <GCUT_SLOGP_3>
2.7866149

> <GCUT_SMR_0>
-0.51706135

> <GCUT_SMR_1>
-0.18308842

> <GCUT_SMR_2>
0.1669939

> <GCUT_SMR_3>
2.942009

> <Kier1>
15.879017

> <Kier2>
7.5130072

> <Kier3>
3.8548484

> <KierA1>
12.981449

> <KierA2>
6.0760036

> <KierA3>
3.0917277

> <KierFlex>
3.7559679

> <lip_acc>
1

> <lip_don>
0

> <lip_druglike>
1

> <lip_violation>
0

> <logP(o/w)>
4.8010001

> <logS>
-4.5653601

> <mr>
9.2366171

> <mutagenic>
0

> <nmol>
1

> <opr_brigid>
18

> <opr_leadlike>
1

> <opr_nring>
3

> <opr_nrot>
3

> <opr_violation>
1

> <PC+>
0

> <PC->
0

> <PEOE_PC+>
1.0662268

> <PEOE_PC->
-1.0662268

> <PEOE_RPC+>
0.058965251

> <PEOE_RPC->
0.28891844

> <PEOE_VSA+0>
79.23893

> <PEOE_VSA+1>
38.388474

> <PEOE_VSA+2>
0.0

> <PEOE_VSA+3>
0.0

> <PEOE_VSA+4>
0.0

> <PEOE_VSA+5>
0.0

> <PEOE_VSA+6>
0.0

> <PEOE_VSA-0>
76.267754

> <PEOE_VSA-1>
98.03923

> <PEOE_VSA-2>
19.760618

> <PEOE_VSA-3>
0.0

> <PEOE_VSA-4>
0.0

> <PEOE_VSA-5>
0.0

> <PEOE_VSA-6>
0.0

> <PEOE_VSA_FHYD>
1.0

> <PEOE_VSA_FNEG>
0.62262017

> <PEOE_VSA_FPNEG>
0.0

> <PEOE_VSA_FPOL>
0.0

> <PEOE_VSA_FPOS>
0.37737983

> <PEOE_VSA_FPPOS>
0.0

> <PEOE_VSA_HYD>
311.69501

> <PEOE_VSA_NEG>
194.0676

> <PEOE_VSA_PNEG>
0.0

> <PEOE_VSA_POL>
0.0

> <PEOE_VSA_POS>
117.62741

> <PEOE_VSA_PPOS>
0.0

> <petitjean>
0.44444445

> <petitjeanSC>
0.80000001

> <Q_PC+>
0

> <Q_PC->
0

> <Q_RPC+>
0

> <Q_RPC->
0

> <Q_VSA_FHYD>
1

> <Q_VSA_FNEG>
0

> <Q_VSA_FPNEG>
0

> <Q_VSA_FPOL>
0

> <Q_VSA_FPOS>
1

> <Q_VSA_FPPOS>
0

> <Q_VSA_HYD>
311.69501

> <Q_VSA_NEG>
0

> <Q_VSA_PNEG>
0

> <Q_VSA_POL>
0

> <Q_VSA_POS>
311.69501

> <Q_VSA_PPOS>
0

> <radius>
5

> <reactive>
0

> <rings>
3

> <RPC+>
0

> <RPC->
0

> <rsynth>
0.0

> <SlogP>
4.7593899

> <SlogP_VSA0>
0.0

> <SlogP_VSA1>
3.1243138

> <SlogP_VSA2>
0.0

> <SlogP_VSA3>
21.625153

> <SlogP_VSA4>
9.5567245

> <SlogP_VSA5>
67.345108

> <SlogP_VSA6>
0.0

> <SlogP_VSA7>
158.78867

> <SlogP_VSA8>
18.868406

> <SlogP_VSA9>
49.453106

> <SMR>
9.1838999

> <SMR_VSA0>
0.0

> <SMR_VSA1>
3.1243138

> <SMR_VSA2>
4.7363091

> <SMR_VSA3>
9.5567245

> <SMR_VSA4>
0.0

> <SMR_VSA5>
194.89062

> <SMR_VSA6>
18.439579

> <SMR_VSA7>
98.013916

> <TPSA>
3.24

> <VAdjEq>
0.48250595

> <VAdjMa>
5.523562

> <VDistEq>
3.0281317

> <VDistMa>
8.515563

> <vdw_area>
311.69501

> <vdw_vol>
435.33606

> <vsa_acc>
0.0

> <vsa_acid>
0

> <vsa_base>
0

> <vsa_don>
0.0

> <vsa_hyd>
296.74731

> <vsa_other>
0.0

> <vsa_pol>
0.0

> <Weight>
295.44998

> <weinerPath>
882

> <weinerPol>
35

> <zagreb>
108

$$$$
Row1538
 OpenBabel06061811532D

 33 37  0  0  1  0  0  0  0  0999 V2000
    0.0000    0.0000    0.0000 O   0  0  0  0  0  0  0  0  0  0  0  0
    0.0000    0.0000    0.0000 C   0  0  0  0  0  0  0  0  0  0  0  0
    0.0000    0.0000    0.0000 C   0  0  0  0  0  0  0  0  0  0  0  0
    0.0000    0.0000    0.0000 O   0  0  0  0  0  0  0  0  0  0  0  0
    0.0000    0.0000    0.0000 C   0  0  0  0  0  0  0  0  0  0  0  0
    0.0000    0.0000    0.0000 C   0  0  3  0  0  0  0  0  0  0  0  0
    0.0000    0.0000    0.0000 C   0  0  0  0  0  0  0  0  0  0  0  0
    0.0000    0.0000    0.0000 O   0  0  0  0  0  0  0  0  0  0  0  0
    0.0000    0.0000    0.0000 N   0  0  0  0  0  0  0  0  0  0  0  0
    0.0000    0.0000    0.0000 C   0  0  0  0  0  0  0  0  0  0  0  0
    0.0000    0.0000    0.0000 C   0  0  0  0  0  0  0  0  0  0  0  0
    0.0000    0.0000    0.0000 N   0  0  0  0  0  0  0  0  0  0  0  0
    0.0000    0.0000    0.0000 C   0  0  0  0  0  0  0  0  0  0  0  0
    0.0000    0.0000    0.0000 C   0  0  0  0  0  0  0  0  0  0  0  0
    0.0000    0.0000    0.0000 C   0  0  0  0  0  0  0  0  0  0  0  0
    0.0000    0.0000    0.0000 N   0  0  0  0  0  0  0  0  0  0  0  0
    0.0000    0.0000    0.0000 C   0  0  0  0  0  0  0  0  0  0  0  0
    0.0000    0.0000    0.0000 N   0  0  0  0  0  0  0  0  0  0  0  0
    0.0000    0.0000    0.0000 C   0  0  0  0  0  0  0  0  0  0  0  0
    0.0000    0.0000    0.0000 C   0  0  0  0  0  0  0  0  0  0  0  0
    0.0000    0.0000    0.0000 C   0  0  0  0  0  0  0  0  0  0  0  0
    0.0000    0.0000    0.0000 O   0  0  0  0  0  0  0  0  0  0  0  0
    0.0000    0.0000    0.0000 C   0  0  0  0  0  0  0  0  0  0  0  0
    0.0000    0.0000    0.0000 C   0  0  0  0  0  0  0  0  0  0  0  0
    0.0000    0.0000    0.0000 O   0  0  0  0  0  0  0  0  0  0  0  0
    0.0000    0.0000    0.0000 C   0  0  0  0  0  0  0  0  0  0  0  0
    0.0000    0.0000    0.0000 C   0  0  0  0  0  0  0  0  0  0  0  0
    0.0000    0.0000    0.0000 C   0  0  0  0  0  0  0  0  0  0  0  0
    0.0000    0.0000    0.0000 N   0  0  0  0  0  0  0  0  0  0  0  0
    0.0000    0.0000    0.0000 C   0  0  0  0  0  0  0  0  0  0  0  0
    0.0000    0.0000    0.0000 C   0  0  0  0  0  0  0  0  0  0  0  0
    0.0000    0.0000    0.0000 C   0  0  0  0  0  0  0  0  0  0  0  0
    0.0000    0.0000    0.0000 C   0  0  0  0  0  0  0  0  0  0  0  0
  1  6  1  0  0  0  0
  1  2  1  0  0  0  0
  2 33  1  0  0  0  0
  2  3  2  0  0  0  0
  3  4  1  0  0  0  0
  3 30  1  0  0  0  0
  4  5  1  0  0  0  0
  5  6  1  0  0  0  0
  6  7  1  0  0  0  0
  7  8  2  0  0  0  0
  7  9  1  0  0  0  0
  9 14  1  0  0  0  0
  9 10  1  0  0  0  0
 10 11  1  0  0  0  0
 11 12  1  0  0  0  0
 12 13  1  0  0  0  0
 12 15  1  0  0  0  0
 13 14  1  0  0  0  0
 15 29  1  0  0  0  0
 15 16  2  0  0  0  0
 16 17  1  0  0  0  0
 17 18  1  0  0  0  0
 17 19  2  0  0  0  0
 19 28  1  0  0  0  0
 19 20  1  0  0  0  0
 20 21  2  0  0  0  0
 21 22  1  0  0  0  0
 21 24  1  0  0  0  0
 22 23  1  0  0  0  0
 24 25  1  0  0  0  0
 24 27  2  0  0  0  0
 25 26  1  0  0  0  0
 27 28  1  0  0  0  0
 28 29  2  0  0  0  0
 30 31  2  0  0  0  0
 31 32  1  0  0  0  0
 32 33  2  0  0  0  0
M  END
> <Index>
1539

> <ID>
HT0715

> <class>
1

> <apol>
66.659828

> <ast_fraglike>
0

> <ast_fraglike_ext>
0

> <ast_violation>
2

> <ast_violation_ext>
3

> <a_acc>
7

> <a_acid>
0

> <a_aro>
16

> <a_base>
0

> <a_count>
58

> <a_don>
1

> <a_donacc>
8

> <a_heavy>
33

> <a_hyd>
20

> <a_IC>
96.405289

> <a_ICM>
1.6621602

> <a_nB>
0

> <a_nBr>
0

> <a_nC>
23

> <a_nCl>
0

> <a_nF>
0

> <a_nH>
25

> <a_nI>
0

> <a_nN>
5

> <a_nO>
5

> <a_nP>
0

> <a_nS>
0

> <balabanJ>
1.1228069

> <BCUT_PEOE_0>
-2.7165072

> <BCUT_PEOE_1>
-0.56834251

> <BCUT_PEOE_2>
0.59624439

> <BCUT_PEOE_3>
2.6708164

> <BCUT_SLOGP_0>
-2.8759196

> <BCUT_SLOGP_1>
-0.54868025

> <BCUT_SLOGP_2>
0.63331282

> <BCUT_SLOGP_3>
2.5313928

> <BCUT_SMR_0>
-2.4353869

> <BCUT_SMR_1>
-0.40038866

> <BCUT_SMR_2>
0.75636977

> <BCUT_SMR_3>
2.9382498

> <bpol>
41.892174

> <b_1rotN>
5

> <b_1rotR>
0.13513513

> <b_ar>
17

> <b_count>
62

> <b_double>
1

> <b_heavy>
37

> <b_max1len>
2

> <b_rotN>
5

> <b_rotR>
0.13513513

> <b_single>
44

> <b_triple>
0

> <chi0>
22.949018

> <chi0v>
18.484432

> <chi0v_C>
14.076985

> <chi0_C>
15.551678

> <chi1>
16.067213

> <chi1v>
10.685696

> <chi1v_C>
5.4289742

> <chi1_C>
7.0244045

> <chiral>
1

> <chiral_u>
1

> <density>
0.77297896

> <diameter>
18

> <FCharge>
0

> <GCUT_PEOE_0>
-0.84266353

> <GCUT_PEOE_1>
-0.41987026

> <GCUT_PEOE_2>
0.042103767

> <GCUT_PEOE_3>
2.7588971

> <GCUT_SLOGP_0>
-1.3348329

> <GCUT_SLOGP_1>
-0.41458052

> <GCUT_SLOGP_2>
0.10306808

> <GCUT_SLOGP_3>
2.7731667

> <GCUT_SMR_0>
-0.50646913

> <GCUT_SMR_1>
-0.197653

> <GCUT_SMR_2>
0.16144761

> <GCUT_SMR_3>
3.024482

> <Kier1>
24.68371

> <Kier2>
10.947668

> <Kier3>
5.2593136

> <KierA1>
18.486128

> <KierA2>
8.1197281

> <KierA3>
3.8732514

> <KierFlex>
4.5485554

> <lip_acc>
10

> <lip_don>
2

> <lip_druglike>
1

> <lip_violation>
0

> <logP(o/w)>
0.97974002

> <logS>
-5.05583

> <mr>
12.012991

> <mutagenic>
1

> <nmol>
1

> <opr_brigid>
28

> <opr_leadlike>
0

> <opr_nring>
5

> <opr_nrot>
7

> <opr_violation>
3

> <PC+>
0

> <PC->
0

> <PEOE_PC+>
3.1087506

> <PEOE_PC->
-3.1087506

> <PEOE_RPC+>
0.082120582

> <PEOE_RPC->
0.11107995

> <PEOE_VSA+0>
122.0347

> <PEOE_VSA+1>
102.69318

> <PEOE_VSA+2>
62.262665

> <PEOE_VSA+3>
4.9049287

> <PEOE_VSA+4>
15.681574

> <PEOE_VSA+5>
12.949531

> <PEOE_VSA+6>
0.0

> <PEOE_VSA-0>
49.019615

> <PEOE_VSA-1>
24.509808

> <PEOE_VSA-2>
0.0

> <PEOE_VSA-3>
0.0

> <PEOE_VSA-4>
11.365152

> <PEOE_VSA-5>
20.21804

> <PEOE_VSA-6>
10.015024

> <PEOE_VSA_FHYD>
0.83879572

> <PEOE_VSA_FNEG>
0.26426381

> <PEOE_VSA_FPNEG>
0.09548448

> <PEOE_VSA_FPOL>
0.16120428

> <PEOE_VSA_FPOS>
0.73573619

> <PEOE_VSA_FPPOS>
0.065719791

> <PEOE_VSA_HYD>
365.4249

> <PEOE_VSA_NEG>
115.12764

> <PEOE_VSA_PNEG>
41.598217

> <PEOE_VSA_POL>
70.229324

> <PEOE_VSA_POS>
320.52658

> <PEOE_VSA_PPOS>
28.631105

> <petitjean>
0.5

> <petitjeanSC>
1.0

> <Q_PC+>
0

> <Q_PC->
0

> <Q_RPC+>
0

> <Q_RPC->
0

> <Q_VSA_FHYD>
1

> <Q_VSA_FNEG>
0

> <Q_VSA_FPNEG>
0

> <Q_VSA_FPOL>
0

> <Q_VSA_FPOS>
1

> <Q_VSA_FPPOS>
0

> <Q_VSA_HYD>
435.65421

> <Q_VSA_NEG>
0

> <Q_VSA_PNEG>
0

> <Q_VSA_POL>
0

> <Q_VSA_POS>
435.65421

> <Q_VSA_PPOS>
0

> <radius>
9

> <reactive>
0

> <rings>
5

> <RPC+>
0

> <RPC->
0

> <rsynth>
1.0

> <SlogP>
1.7178

> <SlogP_VSA0>
80.021049

> <SlogP_VSA1>
41.954155

> <SlogP_VSA2>
30.330866

> <SlogP_VSA3>
94.68457

> <SlogP_VSA4>
0.0

> <SlogP_VSA5>
70.767738

> <SlogP_VSA6>
0.0

> <SlogP_VSA7>
110.57621

> <SlogP_VSA8>
0.0

> <SlogP_VSA9>
25.200726

> <SMR>
12.22004

> <SMR_VSA0>
23.862217

> <SMR_VSA1>
80.694923

> <SMR_VSA2>
3.1243138

> <SMR_VSA3>
27.442362

> <SMR_VSA4>
8.9441147

> <SMR_VSA5>
138.75629

> <SMR_VSA6>
99.943352

> <SMR_VSA7>
70.767738

> <TPSA>
112.27

> <VAdjEq>
0.35823497

> <VAdjMa>
6.2094536

> <VDistEq>
3.9000766

> <VDistMa>
9.7593842

> <vdw_area>
435.65421

> <vdw_vol>
584.08185

> <vsa_acc>
34.947098

> <vsa_acid>
0

> <vsa_base>
0

> <vsa_don>
17.742489

> <vsa_hyd>
320.625

> <vsa_other>
39.821667

> <vsa_pol>
52.689587

> <Weight>
451.483

> <weinerPath>
3556

> <weinerPol>
59

> <zagreb>
180

$$$$
Row1539
 OpenBabel06061811532D

 21 23  0  0  0  0  0  0  0  0999 V2000
    0.0000    0.0000    0.0000 O   0  0  0  0  0  0  0  0  0  0  0  0
    0.0000    0.0000    0.0000 C   0  0  0  0  0  0  0  0  0  0  0  0
    0.0000    0.0000    0.0000 C   0  0  0  0  0  0  0  0  0  0  0  0
    0.0000    0.0000    0.0000 C   0  0  0  0  0  0  0  0  0  0  0  0
    0.0000    0.0000    0.0000 C   0  0  0  0  0  0  0  0  0  0  0  0
    0.0000    0.0000    0.0000 C   0  0  0  0  0  0  0  0  0  0  0  0
    0.0000    0.0000    0.0000 C   0  0  0  0  0  0  0  0  0  0  0  0
    0.0000    0.0000    0.0000 C   0  0  0  0  0  0  0  0  0  0  0  0
    0.0000    0.0000    0.0000 C   0  0  0  0  0  0  0  0  0  0  0  0
    0.0000    0.0000    0.0000 C   0  0  0  0  0  0  0  0  0  0  0  0
    0.0000    0.0000    0.0000 C   0  0  0  0  0  0  0  0  0  0  0  0
    0.0000    0.0000    0.0000 C   0  0  0  0  0  0  0  0  0  0  0  0
    0.0000    0.0000    0.0000 C   0  0  0  0  0  0  0  0  0  0  0  0
    0.0000    0.0000    0.0000 C   0  0  0  0  0  0  0  0  0  0  0  0
    0.0000    0.0000    0.0000 C   0  0  0  0  0  0  0  0  0  0  0  0
    0.0000    0.0000    0.0000 C   0  0  0  0  0  0  0  0  0  0  0  0
    0.0000    0.0000    0.0000 C   0  0  0  0  0  0  0  0  0  0  0  0
    0.0000    0.0000    0.0000 C   0  0  0  0  0  0  0  0  0  0  0  0
    0.0000    0.0000    0.0000 N   0  0  0  0  0  0  0  0  0  0  0  0
    0.0000    0.0000    0.0000 C   0  0  0  0  0  0  0  0  0  0  0  0
    0.0000    0.0000    0.0000 C   0  0  0  0  0  0  0  0  0  0  0  0
  1 11  1  0  0  0  0
  1  2  1  0  0  0  0
  2  3  1  0  0  0  0
  3  8  1  0  0  0  0
  3  4  2  0  0  0  0
  4  5  1  0  0  0  0
  4  9  1  0  0  0  0
  5  6  2  0  0  0  0
  6  7  1  0  0  0  0
  7  8  2  0  0  0  0
  9 10  1  0  0  0  0
  9 16  2  3  0  0  0
 10 15  1  0  0  0  0
 10 11  2  0  0  0  0
 11 12  1  0  0  0  0
 12 13  2  0  0  0  0
 13 14  1  0  0  0  0
 14 15  2  0  0  0  0
 16 17  1  0  0  0  0
 17 18  1  0  0  0  0
 18 19  1  0  0  0  0
 19 20  1  0  0  0  0
 19 21  1  0  0  0  0
M  END
> <Index>
1540

> <ID>
HT0716

> <class>
1

> <apol>
49.344654

> <ast_fraglike>
0

> <ast_fraglike_ext>
0

> <ast_violation>
1

> <ast_violation_ext>
1

> <a_acc>
2

> <a_acid>
0

> <a_aro>
12

> <a_base>
0

> <a_count>
42

> <a_don>
0

> <a_donacc>
2

> <a_heavy>
21

> <a_hyd>
19

> <a_IC>
53.528042

> <a_ICM>
1.2744772

> <a_nB>
0

> <a_nBr>
0

> <a_nC>
19

> <a_nCl>
0

> <a_nF>
0

> <a_nH>
21

> <a_nI>
0

> <a_nN>
1

> <a_nO>
1

> <a_nP>
0

> <a_nS>
0

> <balabanJ>
1.7133598

> <BCUT_PEOE_0>
-2.607471

> <BCUT_PEOE_1>
-0.55866694

> <BCUT_PEOE_2>
0.60531753

> <BCUT_PEOE_3>
2.4972813

> <BCUT_SLOGP_0>
-2.6599362

> <BCUT_SLOGP_1>
-0.45610291

> <BCUT_SLOGP_2>
0.71214736

> <BCUT_SLOGP_3>
2.5503006

> <BCUT_SMR_0>
-2.3218675

> <BCUT_SMR_1>
-0.4154999

> <BCUT_SMR_2>
0.7569229

> <BCUT_SMR_3>
2.7776551

> <bpol>
26.853348

> <b_1rotN>
3

> <b_1rotR>
0.13043478

> <b_ar>
12

> <b_count>
44

> <b_double>
1

> <b_heavy>
23

> <b_max1len>
6

> <b_rotN>
3

> <b_rotR>
0.13043478

> <b_single>
31

> <b_triple>
0

> <chi0>
14.656489

> <chi0v>
12.672935

> <chi0v_C>
11.817472

> <chi0_C>
13.372033

> <chi1>
10.25402

> <chi1v>
7.4086318

> <chi1v_C>
5.7051773

> <chi1_C>
7.7828231

> <chiral>
0

> <chiral_u>
0

> <density>
0.6595217

> <diameter>
9

> <FCharge>
0

> <GCUT_PEOE_0>
-0.86318815

> <GCUT_PEOE_1>
-0.3563616

> <GCUT_PEOE_2>
0.050248101

> <GCUT_PEOE_3>
2.6335905

> <GCUT_SLOGP_0>
-0.9530592

> <GCUT_SLOGP_1>
-0.27684131

> <GCUT_SLOGP_2>
0.14030114

> <GCUT_SLOGP_3>
2.7671812

> <GCUT_SMR_0>
-0.51704186

> <GCUT_SMR_1>
-0.1872661

> <GCUT_SMR_2>
0.16317685

> <GCUT_SMR_3>
2.9227657

> <Kier1>
15.879017

> <Kier2>
7.5130072

> <Kier3>
3.8548484

> <KierA1>
11.983418

> <KierA2>
5.5836325

> <KierA3>
2.8312824

> <KierFlex>
3.1862381

> <lip_acc>
2

> <lip_don>
0

> <lip_druglike>
1

> <lip_violation>
0

> <logP(o/w)>
4.165

> <logS>
-3.5943401

> <mr>
8.7207632

> <mutagenic>
0

> <nmol>
1

> <opr_brigid>
18

> <opr_leadlike>
1

> <opr_nring>
3

> <opr_nrot>
3

> <opr_violation>
0

> <PC+>
0

> <PC->
0

> <PEOE_PC+>
1.2417873

> <PEOE_PC->
-1.2417873

> <PEOE_RPC+>
0.067881264

> <PEOE_RPC->
0.27338359

> <PEOE_VSA+0>
58.054726

> <PEOE_VSA+1>
70.329056

> <PEOE_VSA+2>
0.0

> <PEOE_VSA+3>
0.0

> <PEOE_VSA+4>
0.0

> <PEOE_VSA+5>
0.0

> <PEOE_VSA+6>
0.0

> <PEOE_VSA-0>
74.059212

> <PEOE_VSA-1>
98.03923

> <PEOE_VSA-2>
0.0

> <PEOE_VSA-3>
0.0

> <PEOE_VSA-4>
0.0

> <PEOE_VSA-5>
0.0

> <PEOE_VSA-6>
2.503756

> <PEOE_VSA_FHYD>
0.99173641

> <PEOE_VSA_FNEG>
0.57627153

> <PEOE_VSA_FPNEG>
0.0082636038

> <PEOE_VSA_FPOL>
0.0082636038

> <PEOE_VSA_FPOS>
0.42372847

> <PEOE_VSA_FPPOS>
0.0

> <PEOE_VSA_HYD>
300.48224

> <PEOE_VSA_NEG>
174.6022

> <PEOE_VSA_PNEG>
2.503756

> <PEOE_VSA_POL>
2.503756

> <PEOE_VSA_POS>
128.38379

> <PEOE_VSA_PPOS>
0.0

> <petitjean>
0.44444445

> <petitjeanSC>
0.80000001

> <Q_PC+>
0

> <Q_PC->
0

> <Q_RPC+>
0

> <Q_RPC->
0

> <Q_VSA_FHYD>
1

> <Q_VSA_FNEG>
0

> <Q_VSA_FPNEG>
0

> <Q_VSA_FPOL>
0

> <Q_VSA_FPOS>
1

> <Q_VSA_FPPOS>
0

> <Q_VSA_HYD>
302.98599

> <Q_VSA_NEG>
0

> <Q_VSA_PNEG>
0

> <Q_VSA_POL>
0

> <Q_VSA_POS>
302.98599

> <Q_VSA_PPOS>
0

> <radius>
5

> <reactive>
0

> <rings>
3

> <RPC+>
0

> <RPC->
0

> <rsynth>
1.0

> <SlogP>
4.0460901

> <SlogP_VSA0>
10.999887

> <SlogP_VSA1>
3.1243138

> <SlogP_VSA2>
0.0

> <SlogP_VSA3>
21.625153

> <SlogP_VSA4>
9.5567245

> <SlogP_VSA5>
65.794373

> <SlogP_VSA6>
0.0

> <SlogP_VSA7>
158.78867

> <SlogP_VSA8>
18.868406

> <SlogP_VSA9>
26.169687

> <SMR>
8.6609001

> <SMR_VSA0>
0.0

> <SMR_VSA1>
14.124202

> <SMR_VSA2>
3.185575

> <SMR_VSA3>
14.800153

> <SMR_VSA4>
0.0

> <SMR_VSA5>
198.58333

> <SMR_VSA6>
18.439579

> <SMR_VSA7>
65.794373

> <TPSA>
12.47

> <VAdjEq>
0.48250595

> <VAdjMa>
5.523562

> <VDistEq>
3.0281317

> <VDistMa>
8.515563

> <vdw_area>
302.98599

> <vdw_vol>
423.61456

> <vsa_acc>
2.503756

> <vsa_acid>
0

> <vsa_base>
0

> <vsa_don>
0.0

> <vsa_hyd>
285.53452

> <vsa_other>
0.0

> <vsa_pol>
2.503756

> <Weight>
279.383

> <weinerPath>
882

> <weinerPol>
35

> <zagreb>
108

$$$$
Row1540
 OpenBabel06061811532D

 44 48  0  0  1  0  0  0  0  0999 V2000
    0.0000    0.0000    0.0000 O   0  0  0  0  0  0  0  0  0  0  0  0
    0.0000    0.0000    0.0000 C   0  0  1  0  0  0  0  0  0  0  0  0
    0.0000    0.0000    0.0000 H   0  0  0  0  0  0  0  0  0  0  0  0
    0.0000    0.0000    0.0000 C   0  0  0  0  0  0  0  0  0  0  0  0
    0.0000    0.0000    0.0000 C   0  0  1  0  0  0  0  0  0  0  0  0
    0.0000    0.0000    0.0000 H   0  0  0  0  0  0  0  0  0  0  0  0
    0.0000    0.0000    0.0000 O   0  0  0  0  0  0  0  0  0  0  0  0
    0.0000    0.0000    0.0000 C   0  0  1  0  0  0  0  0  0  0  0  0
    0.0000    0.0000    0.0000 H   0  0  0  0  0  0  0  0  0  0  0  0
    0.0000    0.0000    0.0000 N   0  0  0  0  0  0  0  0  0  0  0  0
    0.0000    0.0000    0.0000 C   0  0  0  0  0  0  0  0  0  0  0  0
    0.0000    0.0000    0.0000 C   0  0  2  0  0  0  0  0  0  0  0  0
    0.0000    0.0000    0.0000 H   0  0  0  0  0  0  0  0  0  0  0  0
    0.0000    0.0000    0.0000 O   0  0  0  0  0  0  0  0  0  0  0  0
    0.0000    0.0000    0.0000 C   0  0  2  0  0  0  0  0  0  0  0  0
    0.0000    0.0000    0.0000 H   0  0  0  0  0  0  0  0  0  0  0  0
    0.0000    0.0000    0.0000 C   0  0  0  0  0  0  0  0  0  0  0  0
    0.0000    0.0000    0.0000 C   0  0  0  0  0  0  0  0  0  0  0  0
    0.0000    0.0000    0.0000 C   0  0  0  0  0  0  0  0  0  0  0  0
    0.0000    0.0000    0.0000 C   0  0  1  0  0  0  0  0  0  0  0  0
    0.0000    0.0000    0.0000 O   0  0  0  0  0  0  0  0  0  0  0  0
    0.0000    0.0000    0.0000 C   0  0  0  0  0  0  0  0  0  0  0  0
    0.0000    0.0000    0.0000 C   0  0  0  0  0  0  0  0  0  0  0  0
    0.0000    0.0000    0.0000 O   0  0  0  0  0  0  0  0  0  0  0  0
    0.0000    0.0000    0.0000 C   0  0  0  0  0  0  0  0  0  0  0  0
    0.0000    0.0000    0.0000 O   0  0  0  0  0  0  0  0  0  0  0  0
    0.0000    0.0000    0.0000 C   0  0  0  0  0  0  0  0  0  0  0  0
    0.0000    0.0000    0.0000 O   0  0  0  0  0  0  0  0  0  0  0  0
    0.0000    0.0000    0.0000 C   0  0  0  0  0  0  0  0  0  0  0  0
    0.0000    0.0000    0.0000 C   0  0  0  0  0  0  0  0  0  0  0  0
    0.0000    0.0000    0.0000 C   0  0  0  0  0  0  0  0  0  0  0  0
    0.0000    0.0000    0.0000 O   0  0  0  0  0  0  0  0  0  0  0  0
    0.0000    0.0000    0.0000 C   0  0  0  0  0  0  0  0  0  0  0  0
    0.0000    0.0000    0.0000 C   0  0  0  0  0  0  0  0  0  0  0  0
    0.0000    0.0000    0.0000 C   0  0  0  0  0  0  0  0  0  0  0  0
    0.0000    0.0000    0.0000 C   0  0  0  0  0  0  0  0  0  0  0  0
    0.0000    0.0000    0.0000 C   0  0  0  0  0  0  0  0  0  0  0  0
    0.0000    0.0000    0.0000 C   0  0  0  0  0  0  0  0  0  0  0  0
    0.0000    0.0000    0.0000 O   0  0  0  0  0  0  0  0  0  0  0  0
    0.0000    0.0000    0.0000 C   0  0  0  0  0  0  0  0  0  0  0  0
    0.0000    0.0000    0.0000 C   0  0  0  0  0  0  0  0  0  0  0  0
    0.0000    0.0000    0.0000 O   0  0  0  0  0  0  0  0  0  0  0  0
    0.0000    0.0000    0.0000 C   0  0  0  0  0  0  0  0  0  0  0  0
    0.0000    0.0000    0.0000 O   0  0  0  0  0  0  0  0  0  0  0  0
  1 12  1  0  0  0  0
  1  2  1  0  0  0  0
  2  3  1  0  0  0  0
  2  4  1  0  0  0  0
  2  5  1  0  0  0  0
  5  6  1  0  0  0  0
  5  7  1  0  0  0  0
  5  8  1  0  0  0  0
  8  9  1  0  0  0  0
  8 10  1  0  0  0  0
  8 11  1  0  0  0  0
 11 12  1  0  0  0  0
 12 13  1  0  0  0  0
 12 14  1  0  0  0  0
 14 15  1  0  0  0  0
 15 16  1  0  0  0  0
 15 22  1  0  0  0  0
 15 17  1  0  0  0  0
 17 43  1  0  0  0  0
 17 18  2  0  0  0  0
 18 19  1  0  0  0  0
 18 27  1  0  0  0  0
 19 20  1  0  0  0  0
 20 21  1  0  0  0  0
 20 22  1  0  0  0  0
 20 23  1  0  0  0  0
 23 24  2  0  0  0  0
 23 25  1  0  0  0  0
 25 26  1  0  0  0  0
 27 28  1  0  0  0  0
 27 29  2  0  0  0  0
 29 41  1  0  0  0  0
 29 30  1  0  0  0  0
 30 31  1  0  0  0  0
 30 43  2  0  0  0  0
 31 32  2  0  0  0  0
 31 33  1  0  0  0  0
 33 38  1  0  0  0  0
 33 34  2  0  0  0  0
 34 35  1  0  0  0  0
 34 41  1  0  0  0  0
 35 36  2  0  0  0  0
 36 37  1  0  0  0  0
 37 38  2  0  0  0  0
 38 39  1  0  0  0  0
 39 40  1  0  0  0  0
 41 42  2  0  0  0  0
 43 44  1  0  0  0  0
M  END
> <Index>
1541

> <ID>
HT0719

> <class>
1

> <apol>
76.778999

> <ast_fraglike>
0

> <ast_fraglike_ext>
0

> <ast_violation>
3

> <ast_violation_ext>
5

> <a_acc>
12

> <a_acid>
0

> <a_aro>
12

> <a_base>
0

> <a_count>
68

> <a_don>
6

> <a_donacc>
18

> <a_heavy>
39

> <a_hyd>
23

> <a_IC>
106.63032

> <a_ICM>
1.5680928

> <a_nB>
0

> <a_nBr>
0

> <a_nC>
27

> <a_nCl>
0

> <a_nF>
0

> <a_nH>
29

> <a_nI>
0

> <a_nN>
1

> <a_nO>
11

> <a_nP>
0

> <a_nS>
0

> <balabanJ>
1.4874921

> <BCUT_PEOE_0>
-2.7534289

> <BCUT_PEOE_1>
-0.59744149

> <BCUT_PEOE_2>
0.6347934

> <BCUT_PEOE_3>
2.7712181

> <BCUT_SLOGP_0>
-2.9030905

> <BCUT_SLOGP_1>
-0.55116314

> <BCUT_SLOGP_2>
0.62079364

> <BCUT_SLOGP_3>
2.7499509

> <BCUT_SMR_0>
-2.5259449

> <BCUT_SMR_1>
-0.4290697

> <BCUT_SMR_2>
0.76558435

> <BCUT_SMR_3>
2.9902647

> <bpol>
39.665005

> <b_1rotN>
5

> <b_1rotR>
0.11627907

> <b_ar>
12

> <b_count>
72

> <b_double>
3

> <b_heavy>
43

> <b_max1len>
6

> <b_rotN>
5

> <b_rotR>
0.11627907

> <b_single>
57

> <b_triple>
0

> <chi0>
28.386023

> <chi0v>
21.210136

> <chi0v_C>
15.947229

> <chi0_C>
17.264702

> <chi1>
18.427776

> <chi1v>
12.411801

> <chi1v_C>
8.6656675

> <chi1_C>
10.43087

> <chiral>
6

> <chiral_u>
0

> <density>
0.82178414

> <diameter>
14

> <FCharge>
0

> <GCUT_PEOE_0>
-0.82896698

> <GCUT_PEOE_1>
-0.43987748

> <GCUT_PEOE_2>
0.081412219

> <GCUT_PEOE_3>
3.0640163

> <GCUT_SLOGP_0>
-1.3636994

> <GCUT_SLOGP_1>
-0.38165528

> <GCUT_SLOGP_2>
0.051285114

> <GCUT_SLOGP_3>
3.0932858

> <GCUT_SMR_0>
-0.52201724

> <GCUT_SMR_1>
-0.22808231

> <GCUT_SMR_2>
0.19622

> <GCUT_SMR_3>
3.3052013

> <Kier1>
30.457544

> <Kier2>
11.588773

> <Kier3>
5.1278634

> <KierA1>
24.961258

> <KierA2>
9.4452286

> <KierA3>
4.1628561

> <KierFlex>
6.0452514

> <lip_acc>
12

> <lip_don>
7

> <lip_druglike>
0

> <lip_violation>
3

> <logP(o/w)>
0.50700003

> <logS>
-3.8296001

> <mr>
13.280972

> <mutagenic>
0

> <nmol>
1

> <opr_brigid>
27

> <opr_leadlike>
0

> <opr_nring>
5

> <opr_nrot>
8

> <opr_violation>
4

> <PC+>
0

> <PC->
0

> <PEOE_PC+>
4.2805691

> <PEOE_PC->
-4.2805691

> <PEOE_RPC+>
0.050776623

> <PEOE_RPC->
0.090570942

> <PEOE_VSA+0>
101.3185

> <PEOE_VSA+1>
97.900597

> <PEOE_VSA+2>
32.18932

> <PEOE_VSA+3>
36.530468

> <PEOE_VSA+4>
51.620865

> <PEOE_VSA+5>
0.0

> <PEOE_VSA+6>
0.0

> <PEOE_VSA-0>
33.211121

> <PEOE_VSA-1>
24.509808

> <PEOE_VSA-2>
0.0

> <PEOE_VSA-3>
0.0

> <PEOE_VSA-4>
0.0

> <PEOE_VSA-5>
40.700764

> <PEOE_VSA-6>
53.000088

> <PEOE_VSA_FHYD>
0.69144922

> <PEOE_VSA_FNEG>
0.3215026

> <PEOE_VSA_FPNEG>
0.19894804

> <PEOE_VSA_FPOL>
0.30855078

> <PEOE_VSA_FPOS>
0.67849743

> <PEOE_VSA_FPPOS>
0.10960273

> <PEOE_VSA_HYD>
325.65982

> <PEOE_VSA_NEG>
151.42178

> <PEOE_VSA_PNEG>
93.700851

> <PEOE_VSA_POL>
145.32172

> <PEOE_VSA_POS>
319.55975

> <PEOE_VSA_PPOS>
51.620865

> <petitjean>
0.5

> <petitjeanSC>
1.0

> <Q_PC+>
0

> <Q_PC->
0

> <Q_RPC+>
0

> <Q_RPC->
0

> <Q_VSA_FHYD>
1

> <Q_VSA_FNEG>
0

> <Q_VSA_FPNEG>
0

> <Q_VSA_FPOL>
0

> <Q_VSA_FPOS>
1

> <Q_VSA_FPPOS>
0

> <Q_VSA_HYD>
470.98154

> <Q_VSA_NEG>
0

> <Q_VSA_PNEG>
0

> <Q_VSA_POL>
0

> <Q_VSA_POS>
470.98154

> <Q_VSA_PPOS>
0

> <radius>
7

> <reactive>
1

> <rings>
5

> <RPC+>
0

> <RPC->
0

> <rsynth>
0.58974361

> <SlogP>
0.096770003

> <SlogP_VSA0>
170.82321

> <SlogP_VSA1>
17.062834

> <SlogP_VSA2>
71.307762

> <SlogP_VSA3>
20.926258

> <SlogP_VSA4>
66.837883

> <SlogP_VSA5>
54.252274

> <SlogP_VSA6>
0.0

> <SlogP_VSA7>
52.929554

> <SlogP_VSA8>
44.20546

> <SlogP_VSA9>
49.056297

> <SMR>
13.18654

> <SMR_VSA0>
93.586426

> <SMR_VSA1>
137.92603

> <SMR_VSA2>
0.0

> <SMR_VSA3>
66.758156

> <SMR_VSA4>
32.897186

> <SMR_VSA5>
109.53477

> <SMR_VSA6>
37.98909

> <SMR_VSA7>
68.709885

> <TPSA>
206.07001

> <VAdjEq>
0.31356117

> <VAdjMa>
6.4262648

> <VDistEq>
3.5642774

> <VDistMa>
10.328881

> <vdw_area>
470.98154

> <vdw_vol>
661.3963

> <vsa_acc>
48.212032

> <vsa_acid>
0

> <vsa_base>
0

> <vsa_don>
0.0

> <vsa_hyd>
252.67822

> <vsa_other>
40.084057

> <vsa_pol>
133.78912

> <Weight>
543.52496

> <weinerPath>
4392

> <weinerPol>
83

> <zagreb>
220

$$$$
Row1541
 OpenBabel06061811532D

 20 21  0  0  1  0  0  0  0  0999 V2000
    0.0000    0.0000    0.0000 O   0  0  0  0  0  0  0  0  0  0  0  0
    0.0000    0.0000    0.0000 C   0  0  3  0  0  0  0  0  0  0  0  0
    0.0000    0.0000    0.0000 C   0  0  0  0  0  0  0  0  0  0  0  0
    0.0000    0.0000    0.0000 C   0  0  0  0  0  0  0  0  0  0  0  0
    0.0000    0.0000    0.0000 C   0  0  0  0  0  0  0  0  0  0  0  0
    0.0000    0.0000    0.0000 C   0  0  0  0  0  0  0  0  0  0  0  0
    0.0000    0.0000    0.0000 C   0  0  0  0  0  0  0  0  0  0  0  0
    0.0000    0.0000    0.0000 C   0  0  0  0  0  0  0  0  0  0  0  0
    0.0000    0.0000    0.0000 C   0  0  0  0  0  0  0  0  0  0  0  0
    0.0000    0.0000    0.0000 C   0  0  0  0  0  0  0  0  0  0  0  0
    0.0000    0.0000    0.0000 N   0  0  0  0  0  0  0  0  0  0  0  0
    0.0000    0.0000    0.0000 C   0  0  0  0  0  0  0  0  0  0  0  0
    0.0000    0.0000    0.0000 C   0  0  0  0  0  0  0  0  0  0  0  0
    0.0000    0.0000    0.0000 C   0  0  0  0  0  0  0  0  0  0  0  0
    0.0000    0.0000    0.0000 C   0  0  0  0  0  0  0  0  0  0  0  0
    0.0000    0.0000    0.0000 C   0  0  0  0  0  0  0  0  0  0  0  0
    0.0000    0.0000    0.0000 C   0  0  0  0  0  0  0  0  0  0  0  0
    0.0000    0.0000    0.0000 N   0  0  0  0  0  0  0  0  0  0  0  0
    0.0000    0.0000    0.0000 C   0  0  0  0  0  0  0  0  0  0  0  0
    0.0000    0.0000    0.0000 C   0  0  0  0  0  0  0  0  0  0  0  0
  1  2  1  0  0  0  0
  1 16  1  0  0  0  0
  2  3  1  0  0  0  0
  2  4  1  0  0  0  0
  2 10  1  0  0  0  0
  4  9  1  0  0  0  0
  4  5  2  0  0  0  0
  5  6  1  0  0  0  0
  6  7  2  0  0  0  0
  7  8  1  0  0  0  0
  8  9  2  0  0  0  0
 10 15  1  0  0  0  0
 10 11  2  0  0  0  0
 11 12  1  0  0  0  0
 12 13  2  0  0  0  0
 13 14  1  0  0  0  0
 14 15  2  0  0  0  0
 16 17  1  0  0  0  0
 17 18  1  0  0  0  0
 18 19  1  0  0  0  0
 18 20  1  0  0  0  0
M  END
> <Index>
1542

> <ID>
HT0721

> <class>
1

> <apol>
47.591446

> <ast_fraglike>
0

> <ast_fraglike_ext>
0

> <ast_violation>
1

> <ast_violation_ext>
2

> <a_acc>
3

> <a_acid>
0

> <a_aro>
12

> <a_base>
0

> <a_count>
42

> <a_don>
0

> <a_donacc>
3

> <a_heavy>
20

> <a_hyd>
17

> <a_IC>
56.882969

> <a_ICM>
1.3543564

> <a_nB>
0

> <a_nBr>
0

> <a_nC>
17

> <a_nCl>
0

> <a_nF>
0

> <a_nH>
22

> <a_nI>
0

> <a_nN>
2

> <a_nO>
1

> <a_nP>
0

> <a_nS>
0

> <balabanJ>
2.0040121

> <BCUT_PEOE_0>
-2.6222355

> <BCUT_PEOE_1>
-0.51996857

> <BCUT_PEOE_2>
0.58313274

> <BCUT_PEOE_3>
2.5632973

> <BCUT_SLOGP_0>
-2.7024

> <BCUT_SLOGP_1>
-0.42430934

> <BCUT_SLOGP_2>
0.67706001

> <BCUT_SLOGP_3>
2.6366076

> <BCUT_SMR_0>
-2.3539345

> <BCUT_SMR_1>
-0.39169106

> <BCUT_SMR_2>
0.71622133

> <BCUT_SMR_3>
2.8157599

> <bpol>
29.266554

> <b_1rotN>
6

> <b_1rotR>
0.2857143

> <b_ar>
12

> <b_count>
43

> <b_double>
0

> <b_heavy>
21

> <b_max1len>
8

> <b_rotN>
6

> <b_rotR>
0.2857143

> <b_single>
31

> <b_triple>
0

> <chi0>
14.424439

> <chi0v>
12.413041

> <chi0v_C>
11.110366

> <chi0_C>
12.432875

> <chi1>
9.6268454

> <chi1v>
6.8846188

> <chi1v_C>
4.6993589

> <chi1_C>
6.3020949

> <chiral>
1

> <chiral_u>
1

> <density>
0.65960228

> <diameter>
9

> <FCharge>
0

> <GCUT_PEOE_0>
-0.85892802

> <GCUT_PEOE_1>
-0.35076734

> <GCUT_PEOE_2>
0.058983326

> <GCUT_PEOE_3>
2.6108096

> <GCUT_SLOGP_0>
-0.95891827

> <GCUT_SLOGP_1>
-0.25743848

> <GCUT_SLOGP_2>
0.13685323

> <GCUT_SLOGP_3>
2.6997578

> <GCUT_SMR_0>
-0.51768106

> <GCUT_SMR_1>
-0.17986479

> <GCUT_SMR_2>
0.15651894

> <GCUT_SMR_3>
2.8706055

> <Kier1>
16.371881

> <Kier2>
7.8520408

> <Kier3>
4.4963264

> <KierA1>
12.632163

> <KierA2>
5.9692655

> <KierA3>
3.3812115

> <KierFlex>
3.7702367

> <lip_acc>
3

> <lip_don>
0

> <lip_druglike>
1

> <lip_violation>
0

> <logP(o/w)>
2.918

> <logS>
-2.38886

> <mr>
8.3364172

> <mutagenic>
0

> <nmol>
1

> <opr_brigid>
12

> <opr_leadlike>
1

> <opr_nring>
2

> <opr_nrot>
6

> <opr_violation>
0

> <PC+>
0

> <PC->
0

> <PEOE_PC+>
1.4213772

> <PEOE_PC->
-1.4213772

> <PEOE_RPC+>
0.093677357

> <PEOE_RPC->
0.25440526

> <PEOE_VSA+0>
76.857483

> <PEOE_VSA+1>
68.570091

> <PEOE_VSA+2>
0.0

> <PEOE_VSA+3>
0.0

> <PEOE_VSA+4>
0.0

> <PEOE_VSA+5>
0.0

> <PEOE_VSA+6>
0.0

> <PEOE_VSA-0>
91.943405

> <PEOE_VSA-1>
73.529427

> <PEOE_VSA-2>
0.0

> <PEOE_VSA-3>
0.0

> <PEOE_VSA-4>
0.0

> <PEOE_VSA-5>
5.6825762

> <PEOE_VSA-6>
2.503756

> <PEOE_VSA_FHYD>
0.97434449

> <PEOE_VSA_FNEG>
0.54423809

> <PEOE_VSA_FPNEG>
0.025655508

> <PEOE_VSA_FPOL>
0.025655508

> <PEOE_VSA_FPOS>
0.45576191

> <PEOE_VSA_FPPOS>
0.0

> <PEOE_VSA_HYD>
310.90039

> <PEOE_VSA_NEG>
173.65916

> <PEOE_VSA_PNEG>
8.1863317

> <PEOE_VSA_POL>
8.1863317

> <PEOE_VSA_POS>
145.42758

> <PEOE_VSA_PPOS>
0.0

> <petitjean>
0.44444445

> <petitjeanSC>
0.80000001

> <Q_PC+>
0

> <Q_PC->
0

> <Q_RPC+>
0

> <Q_RPC->
0

> <Q_VSA_FHYD>
1

> <Q_VSA_FNEG>
0

> <Q_VSA_FPNEG>
0

> <Q_VSA_FPOL>
0

> <Q_VSA_FPOS>
1

> <Q_VSA_FPPOS>
0

> <Q_VSA_HYD>
319.08673

> <Q_VSA_NEG>
0

> <Q_VSA_PNEG>
0

> <Q_VSA_POL>
0

> <Q_VSA_POS>
319.08673

> <Q_VSA_PPOS>
0

> <radius>
5

> <reactive>
0

> <rings>
2

> <RPC+>
0

> <RPC->
0

> <rsynth>
1.0

> <SlogP>
3.2348001

> <SlogP_VSA0>
0.0

> <SlogP_VSA1>
19.909843

> <SlogP_VSA2>
10.999887

> <SlogP_VSA3>
39.365837

> <SlogP_VSA4>
5.9423227

> <SlogP_VSA5>
65.794373

> <SlogP_VSA6>
0.0

> <SlogP_VSA7>
158.35983

> <SlogP_VSA8>
0.0

> <SlogP_VSA9>
33.326015

> <SMR>
8.1756001

> <SMR_VSA0>
10.999887

> <SMR_VSA1>
19.909843

> <SMR_VSA2>
0.0

> <SMR_VSA3>
5.9423227

> <SMR_VSA4>
0.0

> <SMR_VSA5>
158.35983

> <SMR_VSA6>
39.365837

> <SMR_VSA7>
99.120392

> <TPSA>
25.360001

> <VAdjEq>
0.48464775

> <VAdjMa>
5.3923173

> <VDistEq>
3.0337217

> <VDistMa>
8.3728065

> <vdw_area>
319.08673

> <vdw_vol>
409.90759

> <vsa_acc>
8.1863317

> <vsa_acid>
0

> <vsa_base>
0

> <vsa_don>
0.0

> <vsa_hyd>
295.24091

> <vsa_other>
0.0

> <vsa_pol>
8.1863317

> <Weight>
270.37601

> <weinerPath>
805

> <weinerPol>
29

> <zagreb>
98

$$$$
Row1542
 OpenBabel06061811532D

 37 40  0  0  1  0  0  0  0  0999 V2000
    0.0000    0.0000    0.0000 O   0  0  0  0  0  0  0  0  0  0  0  0
    0.0000    0.0000    0.0000 C   0  0  3  0  0  0  0  0  0  0  0  0
    0.0000    0.0000    0.0000 C   0  0  0  0  0  0  0  0  0  0  0  0
    0.0000    0.0000    0.0000 C   0  0  0  0  0  0  0  0  0  0  0  0
    0.0000    0.0000    0.0000 C   0  0  0  0  0  0  0  0  0  0  0  0
    0.0000    0.0000    0.0000 C   0  0  0  0  0  0  0  0  0  0  0  0
    0.0000    0.0000    0.0000 C   0  0  0  0  0  0  0  0  0  0  0  0
    0.0000    0.0000    0.0000 C   0  0  0  0  0  0  0  0  0  0  0  0
    0.0000    0.0000    0.0000 C   0  0  0  0  0  0  0  0  0  0  0  0
    0.0000    0.0000    0.0000 C   0  0  0  0  0  0  0  0  0  0  0  0
    0.0000    0.0000    0.0000 C   0  0  0  0  0  0  0  0  0  0  0  0
    0.0000    0.0000    0.0000 C   0  0  0  0  0  0  0  0  0  0  0  0
    0.0000    0.0000    0.0000 C   0  0  0  0  0  0  0  0  0  0  0  0
    0.0000    0.0000    0.0000 C   0  0  0  0  0  0  0  0  0  0  0  0
    0.0000    0.0000    0.0000 C   0  0  3  0  0  0  0  0  0  0  0  0
    0.0000    0.0000    0.0000 C   0  0  0  0  0  0  0  0  0  0  0  0
    0.0000    0.0000    0.0000 C   0  0  0  0  0  0  0  0  0  0  0  0
    0.0000    0.0000    0.0000 N   0  0  0  0  0  0  0  0  0  0  0  0
    0.0000    0.0000    0.0000 C   0  0  0  0  0  0  0  0  0  0  0  0
    0.0000    0.0000    0.0000 C   0  0  0  0  0  0  0  0  0  0  0  0
    0.0000    0.0000    0.0000 C   0  0  0  0  0  0  0  0  0  0  0  0
    0.0000    0.0000    0.0000 C   0  0  0  0  0  0  0  0  0  0  0  0
    0.0000    0.0000    0.0000 C   0  0  0  0  0  0  0  0  0  0  0  0
    0.0000    0.0000    0.0000 C   0  0  0  0  0  0  0  0  0  0  0  0
    0.0000    0.0000    0.0000 O   0  0  0  0  0  0  0  0  0  0  0  0
    0.0000    0.0000    0.0000 C   0  0  0  0  0  0  0  0  0  0  0  0
    0.0000    0.0000    0.0000 C   0  0  0  0  0  0  0  0  0  0  0  0
    0.0000    0.0000    0.0000 C   0  0  0  0  0  0  0  0  0  0  0  0
    0.0000    0.0000    0.0000 C   0  0  0  0  0  0  0  0  0  0  0  0
    0.0000    0.0000    0.0000 C   0  0  0  0  0  0  0  0  0  0  0  0
    0.0000    0.0000    0.0000 C   0  0  0  0  0  0  0  0  0  0  0  0
    0.0000    0.0000    0.0000 C   0  0  0  0  0  0  0  0  0  0  0  0
    0.0000    0.0000    0.0000 C   0  0  0  0  0  0  0  0  0  0  0  0
    0.0000    0.0000    0.0000 O   0  0  0  0  0  0  0  0  0  0  0  0
    0.0000    0.0000    0.0000 O   0  0  0  0  0  0  0  0  0  0  0  0
    0.0000    0.0000    0.0000 C   0  0  0  0  0  0  0  0  0  0  0  0
    0.0000    0.0000    0.0000 C   0  0  0  0  0  0  0  0  0  0  0  0
  1  2  1  0  0  0  0
  1 15  1  0  0  0  0
  2  3  1  0  0  0  0
  2  9  1  0  0  0  0
  3  8  1  0  0  0  0
  3  4  2  0  0  0  0
  4  5  1  0  0  0  0
  5  6  2  0  0  0  0
  6  7  1  0  0  0  0
  7  8  2  0  0  0  0
  9 14  1  0  0  0  0
  9 10  2  0  0  0  0
 10 11  1  0  0  0  0
 11 12  2  0  0  0  0
 12 13  1  0  0  0  0
 13 14  2  0  0  0  0
 15 20  1  0  0  0  0
 15 16  1  0  0  0  0
 16 17  1  0  0  0  0
 17 18  1  0  0  0  0
 18 19  1  0  0  0  0
 18 21  1  0  0  0  0
 19 20  1  0  0  0  0
 21 22  1  0  0  0  0
 22 23  1  0  0  0  0
 23 24  1  0  0  0  0
 24 25  2  0  0  0  0
 24 26  1  0  0  0  0
 26 31  1  0  0  0  0
 26 27  2  0  0  0  0
 27 28  1  0  0  0  0
 28 29  2  0  0  0  0
 29 30  1  0  0  0  0
 29 32  1  0  0  0  0
 30 31  2  0  0  0  0
 32 33  1  0  0  0  0
 32 36  1  0  0  0  0
 32 37  1  0  0  0  0
 33 34  1  0  0  0  0
 33 35  2  0  0  0  0
M  END
> <Index>
1543

> <ID>
HT0737

> <class>
1

> <apol>
85.299339

> <ast_fraglike>
0

> <ast_fraglike_ext>
0

> <ast_violation>
3

> <ast_violation_ext>
4

> <a_acc>
5

> <a_acid>
0

> <a_aro>
18

> <a_base>
0

> <a_count>
74

> <a_don>
2

> <a_donacc>
7

> <a_heavy>
37

> <a_hyd>
30

> <a_IC>
98.749771

> <a_ICM>
1.3344564

> <a_nB>
0

> <a_nBr>
0

> <a_nC>
32

> <a_nCl>
0

> <a_nF>
0

> <a_nH>
37

> <a_nI>
0

> <a_nN>
1

> <a_nO>
4

> <a_nP>
0

> <a_nS>
0

> <balabanJ>
1.1367236

> <BCUT_PEOE_0>
-2.7916517

> <BCUT_PEOE_1>
-0.6480006

> <BCUT_PEOE_2>
0.67806786

> <BCUT_PEOE_3>
2.7282231

> <BCUT_SLOGP_0>
-2.8299809

> <BCUT_SLOGP_1>
-0.53807992

> <BCUT_SLOGP_2>
0.74055815

> <BCUT_SLOGP_3>
2.7197809

> <BCUT_SMR_0>
-2.5285027

> <BCUT_SMR_1>
-0.48246714

> <BCUT_SMR_2>
0.83856565

> <BCUT_SMR_3>
2.9828336

> <bpol>
46.260658

> <b_1rotN>
11

> <b_1rotR>
0.27500001

> <b_ar>
18

> <b_count>
77

> <b_double>
2

> <b_heavy>
40

> <b_max1len>
4

> <b_rotN>
11

> <b_rotR>
0.27500001

> <b_single>
57

> <b_triple>
0

> <chi0>
26.252502

> <chi0v>
21.806524

> <chi0v_C>
19.687351

> <chi0_C>
21.968044

> <chi1>
17.841373

> <chi1v>
13.192078

> <chi1v_C>
11.140135

> <chi1_C>
14.068082

> <chiral>
0

> <chiral_u>
0

> <density>
0.68786991

> <diameter>
20

> <FCharge>
0

> <GCUT_PEOE_0>
-0.85753232

> <GCUT_PEOE_1>
-0.38858646

> <GCUT_PEOE_2>
0.079495922

> <GCUT_PEOE_3>
2.8933761

> <GCUT_SLOGP_0>
-0.95315522

> <GCUT_SLOGP_1>
-0.27123794

> <GCUT_SLOGP_2>
0.16005325

> <GCUT_SLOGP_3>
2.9586139

> <GCUT_SMR_0>
-0.52379185

> <GCUT_SMR_1>
-0.21605732

> <GCUT_SMR_2>
0.19305076

> <GCUT_SMR_3>
3.1426659

> <Kier1>
29.969999

> <Kier2>
14.578512

> <Kier3>
8.4930611

> <KierA1>
23.266462

> <KierA2>
11.233226

> <KierA3>
6.5089312

> <KierFlex>
7.0637145

> <lip_acc>
5

> <lip_don>
1

> <lip_druglike>
1

> <lip_violation>
1

> <logP(o/w)>
7.4489999

> <logS>
-6.3365998

> <mr>
14.833989

> <mutagenic>
0

> <nmol>
1

> <opr_brigid>
24

> <opr_leadlike>
0

> <opr_nring>
4

> <opr_nrot>
13

> <opr_violation>
3

> <PC+>
0

> <PC->
0

> <PEOE_PC+>
2.5769439

> <PEOE_PC->
-2.5769439

> <PEOE_RPC+>
0.10463566

> <PEOE_RPC->
0.14126863

> <PEOE_VSA+0>
122.60223

> <PEOE_VSA+1>
73.151108

> <PEOE_VSA+2>
4.9049287

> <PEOE_VSA+3>
8.458519

> <PEOE_VSA+4>
10.324173

> <PEOE_VSA+5>
14.708499

> <PEOE_VSA+6>
0.0

> <PEOE_VSA-0>
83.417236

> <PEOE_VSA-1>
171.56865

> <PEOE_VSA-2>
0.0

> <PEOE_VSA-3>
0.0

> <PEOE_VSA-4>
0.0

> <PEOE_VSA-5>
27.133842

> <PEOE_VSA-6>
10.271297

> <PEOE_VSA_FHYD>
0.88141876

> <PEOE_VSA_FNEG>
0.5553059

> <PEOE_VSA_FPNEG>
0.071039438

> <PEOE_VSA_FPOL>
0.11858121

> <PEOE_VSA_FPOS>
0.4446941

> <PEOE_VSA_FPPOS>
0.047541782

> <PEOE_VSA_HYD>
464.10266

> <PEOE_VSA_NEG>
292.39102

> <PEOE_VSA_PNEG>
37.40514

> <PEOE_VSA_POL>
62.437809

> <PEOE_VSA_POS>
234.14944

> <PEOE_VSA_PPOS>
25.032671

> <petitjean>
0.5

> <petitjeanSC>
1.0

> <Q_PC+>
0

> <Q_PC->
0

> <Q_RPC+>
0

> <Q_RPC->
0

> <Q_VSA_FHYD>
1

> <Q_VSA_FNEG>
0

> <Q_VSA_FPNEG>
0

> <Q_VSA_FPOL>
0

> <Q_VSA_FPOS>
1

> <Q_VSA_FPPOS>
0

> <Q_VSA_HYD>
526.54047

> <Q_VSA_NEG>
0

> <Q_VSA_PNEG>
0

> <Q_VSA_POL>
0

> <Q_VSA_POS>
526.54047

> <Q_VSA_PPOS>
0

> <radius>
10

> <reactive>
1

> <rings>
4

> <RPC+>
0

> <RPC->
0

> <rsynth>
0.35135135

> <SlogP>
6.3778

> <SlogP_VSA0>
0.0

> <SlogP_VSA1>
16.557388

> <SlogP_VSA2>
41.330753

> <SlogP_VSA3>
80.703964

> <SlogP_VSA4>
36.604515

> <SlogP_VSA5>
0.0

> <SlogP_VSA6>
0.0

> <SlogP_VSA7>
247.00458

> <SlogP_VSA8>
81.942268

> <SlogP_VSA9>
66.652031

> <SMR>
14.60533

> <SMR_VSA0>
58.724319

> <SMR_VSA1>
3.1243138

> <SMR_VSA2>
25.385227

> <SMR_VSA3>
25.679598

> <SMR_VSA4>
0.0

> <SMR_VSA5>
322.47821

> <SMR_VSA6>
68.751808

> <SMR_VSA7>
66.652031

> <TPSA>
66.839996

> <VAdjEq>
0.32120815

> <VAdjMa>
6.321928

> <VDistEq>
4.1783228

> <VDistMa>
10.077241

> <vdw_area>
526.54047

> <vdw_vol>
726.37427

> <vsa_acc>
16.070677

> <vsa_acid>
0

> <vsa_base>
0

> <vsa_don>
0.0

> <vsa_hyd>
430.01953

> <vsa_other>
23.167019

> <vsa_pol>
43.204517

> <Weight>
499.651

> <weinerPath>
5490

> <weinerPol>
58

> <zagreb>
190

$$$$
Row1543
 OpenBabel06061811532D

 33 36  0  0  0  0  0  0  0  0999 V2000
    0.0000    0.0000    0.0000 O   0  0  0  0  0  0  0  0  0  0  0  0
    0.0000    0.0000    0.0000 C   0  0  0  0  0  0  0  0  0  0  0  0
    0.0000    0.0000    0.0000 C   0  0  0  0  0  0  0  0  0  0  0  0
    0.0000    0.0000    0.0000 C   0  0  0  0  0  0  0  0  0  0  0  0
    0.0000    0.0000    0.0000 C   0  0  0  0  0  0  0  0  0  0  0  0
    0.0000    0.0000    0.0000 C   0  0  0  0  0  0  0  0  0  0  0  0
    0.0000    0.0000    0.0000 C   0  0  0  0  0  0  0  0  0  0  0  0
    0.0000    0.0000    0.0000 N   0  0  0  0  0  0  0  0  0  0  0  0
    0.0000    0.0000    0.0000 N   0  0  0  0  0  0  0  0  0  0  0  0
    0.0000    0.0000    0.0000 C   0  0  0  0  0  0  0  0  0  0  0  0
    0.0000    0.0000    0.0000 C   0  0  0  0  0  0  0  0  0  0  0  0
    0.0000    0.0000    0.0000 O   0  0  0  0  0  0  0  0  0  0  0  0
    0.0000    0.0000    0.0000 N   0  0  0  0  0  0  0  0  0  0  0  0
    0.0000    0.0000    0.0000 N   0  0  0  0  0  0  0  0  0  0  0  0
    0.0000    0.0000    0.0000 C   0  0  0  0  0  0  0  0  0  0  0  0
    0.0000    0.0000    0.0000 C   0  0  0  0  0  0  0  0  0  0  0  0
    0.0000    0.0000    0.0000 C   0  0  0  0  0  0  0  0  0  0  0  0
    0.0000    0.0000    0.0000 C   0  0  0  0  0  0  0  0  0  0  0  0
    0.0000    0.0000    0.0000 C   0  0  0  0  0  0  0  0  0  0  0  0
    0.0000    0.0000    0.0000 C   0  0  0  0  0  0  0  0  0  0  0  0
    0.0000    0.0000    0.0000 C   0  0  0  0  0  0  0  0  0  0  0  0
    0.0000    0.0000    0.0000 C   0  0  0  0  0  0  0  0  0  0  0  0
    0.0000    0.0000    0.0000 C   0  0  0  0  0  0  0  0  0  0  0  0
    0.0000    0.0000    0.0000 C   0  0  0  0  0  0  0  0  0  0  0  0
    0.0000    0.0000    0.0000 C   0  0  0  0  0  0  0  0  0  0  0  0
    0.0000    0.0000    0.0000 C   0  0  0  0  0  0  0  0  0  0  0  0
    0.0000    0.0000    0.0000 C   0  0  0  0  0  0  0  0  0  0  0  0
    0.0000    0.0000    0.0000 C   0  0  0  0  0  0  0  0  0  0  0  0
    0.0000    0.0000    0.0000 C   0  0  0  0  0  0  0  0  0  0  0  0
    0.0000    0.0000    0.0000 C   0  0  0  0  0  0  0  0  0  0  0  0
    0.0000    0.0000    0.0000 C   0  0  0  0  0  0  0  0  0  0  0  0
    0.0000    0.0000    0.0000 O   0  0  0  0  0  0  0  0  0  0  0  0
    0.0000    0.0000    0.0000 O   0  0  0  0  0  0  0  0  0  0  0  0
  1  2  1  0  0  0  0
  2  7  1  0  0  0  0
  2  3  2  0  0  0  0
  3  4  1  0  0  0  0
  3 25  1  0  0  0  0
  4  5  2  0  0  0  0
  5  6  1  0  0  0  0
  6  7  2  0  0  0  0
  7  8  1  0  0  0  0
  8  9  2  3  0  0  0
  9 10  1  0  0  0  0
 10 15  2  0  0  0  0
 10 11  1  0  0  0  0
 11 12  2  0  0  0  0
 11 13  1  0  0  0  0
 13 14  1  0  0  0  0
 13 17  1  0  0  0  0
 14 15  1  0  0  0  0
 15 16  1  0  0  0  0
 17 23  1  0  0  0  0
 17 18  2  0  0  0  0
 18 19  1  0  0  0  0
 19 20  1  0  0  0  0
 19 21  2  0  0  0  0
 21 22  1  0  0  0  0
 21 24  1  0  0  0  0
 22 23  2  0  0  0  0
 25 30  1  0  0  0  0
 25 26  2  0  0  0  0
 26 27  1  0  0  0  0
 27 28  2  0  0  0  0
 27 31  1  0  0  0  0
 28 29  1  0  0  0  0
 29 30  2  0  0  0  0
 31 32  1  0  0  0  0
 31 33  2  0  0  0  0
M  END
> <Index>
1544

> <ID>
HT0749

> <class>
1

> <apol>
66.277443

> <ast_fraglike>
0

> <ast_fraglike_ext>
0

> <ast_violation>
4

> <ast_violation_ext>
6

> <a_acc>
6

> <a_acid>
0

> <a_aro>
18

> <a_base>
0

> <a_count>
55

> <a_don>
4

> <a_donacc>
10

> <a_heavy>
33

> <a_hyd>
23

> <a_IC>
87.770882

> <a_ICM>
1.5958343

> <a_nB>
0

> <a_nBr>
0

> <a_nC>
25

> <a_nCl>
0

> <a_nF>
0

> <a_nH>
22

> <a_nI>
0

> <a_nN>
4

> <a_nO>
4

> <a_nP>
0

> <a_nS>
0

> <balabanJ>
1.3087277

> <BCUT_PEOE_0>
-2.3897874

> <BCUT_PEOE_1>
-0.57516313

> <BCUT_PEOE_2>
0.63572454

> <BCUT_PEOE_3>
2.4245586

> <BCUT_SLOGP_0>
-2.497227

> <BCUT_SLOGP_1>
-0.46920672

> <BCUT_SLOGP_2>
0.71305621

> <BCUT_SLOGP_3>
2.4843953

> <BCUT_SMR_0>
-2.0758209

> <BCUT_SMR_1>
-0.40072849

> <BCUT_SMR_2>
0.8223784

> <BCUT_SMR_3>
2.7376866

> <bpol>
28.606554

> <b_1rotN>
5

> <b_1rotR>
0.1388889

> <b_ar>
18

> <b_count>
58

> <b_double>
4

> <b_heavy>
36

> <b_max1len>
2

> <b_rotN>
5

> <b_rotR>
0.1388889

> <b_single>
36

> <b_triple>
0

> <chi0>
23.697941

> <chi0v>
18.326067

> <chi0v_C>
14.773502

> <chi0_C>
16.999271

> <chi1>
15.756927

> <chi1v>
10.226913

> <chi1v_C>
7.8034182

> <chi1_C>
10.647867

> <chiral>
0

> <chiral_u>
0

> <density>
0.75405037

> <diameter>
17

> <FCharge>
0

> <GCUT_PEOE_0>
-0.83829939

> <GCUT_PEOE_1>
-0.44919363

> <GCUT_PEOE_2>
0.070165902

> <GCUT_PEOE_3>
2.5837173

> <GCUT_SLOGP_0>
-1.1789674

> <GCUT_SLOGP_1>
-0.30752015

> <GCUT_SLOGP_2>
0.15206264

> <GCUT_SLOGP_3>
2.7162254

> <GCUT_SMR_0>
-0.48108014

> <GCUT_SMR_1>
-0.19981878

> <GCUT_SMR_2>
0.20482157

> <GCUT_SMR_3>
2.8822424

> <Kier1>
26.074074

> <Kier2>
11.372781

> <Kier3>
5.8775511

> <KierA1>
17.767118

> <KierA2>
7.6487064

> <KierA3>
3.9153049

> <KierFlex>
4.1180449

> <lip_acc>
8

> <lip_don>
3

> <lip_druglike>
1

> <lip_violation>
1

> <logP(o/w)>
5.7779999

> <logS>
-6.81634

> <mr>
12.356156

> <mutagenic>
0

> <nmol>
1

> <opr_brigid>
24

> <opr_leadlike>
1

> <opr_nring>
4

> <opr_nrot>
5

> <opr_violation>
1

> <PC+>
0

> <PC->
0

> <PEOE_PC+>
2.6141701

> <PEOE_PC->
-2.6141701

> <PEOE_RPC+>
0.11276045

> <PEOE_RPC->
0.13660543

> <PEOE_VSA+0>
49.505104

> <PEOE_VSA+1>
49.353413

> <PEOE_VSA+2>
15.158071

> <PEOE_VSA+3>
15.318564

> <PEOE_VSA+4>
20.648346

> <PEOE_VSA+5>
27.65803

> <PEOE_VSA+6>
0.0

> <PEOE_VSA-0>
124.14317

> <PEOE_VSA-1>
61.274521

> <PEOE_VSA-2>
18.842079

> <PEOE_VSA-3>
3.8753545

> <PEOE_VSA-4>
0.0

> <PEOE_VSA-5>
27.133842

> <PEOE_VSA-6>
15.535081

> <PEOE_VSA_FHYD>
0.78766197

> <PEOE_VSA_FNEG>
0.58538133

> <PEOE_VSA_FPNEG>
0.099590063

> <PEOE_VSA_FPOL>
0.21233805

> <PEOE_VSA_FPOS>
0.41461864

> <PEOE_VSA_FPPOS>
0.11274799

> <PEOE_VSA_HYD>
337.47028

> <PEOE_VSA_NEG>
250.80405

> <PEOE_VSA_PNEG>
42.668922

> <PEOE_VSA_POL>
90.975296

> <PEOE_VSA_POS>
177.64153

> <PEOE_VSA_PPOS>
48.306377

> <petitjean>
0.47058824

> <petitjeanSC>
0.8888889

> <Q_PC+>
0

> <Q_PC->
0

> <Q_RPC+>
0

> <Q_RPC->
0

> <Q_VSA_FHYD>
1

> <Q_VSA_FNEG>
0

> <Q_VSA_FPNEG>
0

> <Q_VSA_FPOL>
0

> <Q_VSA_FPOS>
1

> <Q_VSA_FPPOS>
0

> <Q_VSA_HYD>
428.44559

> <Q_VSA_NEG>
0

> <Q_VSA_PNEG>
0

> <Q_VSA_POL>
0

> <Q_VSA_POS>
428.44559

> <Q_VSA_PPOS>
0

> <radius>
9

> <reactive>
0

> <rings>
4

> <RPC+>
0

> <RPC->
0

> <rsynth>
0.36363637

> <SlogP>
5.24084

> <SlogP_VSA0>
46.275246

> <SlogP_VSA1>
13.004248

> <SlogP_VSA2>
23.862217

> <SlogP_VSA3>
25.385227

> <SlogP_VSA4>
33.418941

> <SlogP_VSA5>
38.839512

> <SlogP_VSA6>
0.0

> <SlogP_VSA7>
182.80299

> <SlogP_VSA8>
0.0

> <SlogP_VSA9>
110.73497

> <SMR>
12.42558

> <SMR_VSA0>
47.724434

> <SMR_VSA1>
58.711243

> <SMR_VSA2>
46.275246

> <SMR_VSA3>
20.313648

> <SMR_VSA4>
11.884645

> <SMR_VSA5>
176.43184

> <SMR_VSA6>
13.004248

> <SMR_VSA7>
99.978043

> <TPSA>
114.59

> <VAdjEq>
0.3512581

> <VAdjMa>
6.1699252

> <VDistEq>
3.8487618

> <VDistMa>
9.7791605

> <vdw_area>
428.44559

> <vdw_vol>
586.79767

> <vsa_acc>
32.409

> <vsa_acid>
0

> <vsa_base>
0

> <vsa_don>
9.4210396

> <vsa_hyd>
292.60971

> <vsa_other>
27.65803

> <vsa_pol>
82.5308

> <Weight>
442.47498

> <weinerPath>
3489

> <weinerPol>
56

> <zagreb>
176

$$$$
Row1544
 OpenBabel06061811532D

 22 24  0  0  0  0  0  0  0  0999 V2000
    0.0000    0.0000    0.0000 O   0  0  0  0  0  0  0  0  0  0  0  0
    0.0000    0.0000    0.0000 C   0  0  0  0  0  0  0  0  0  0  0  0
    0.0000    0.0000    0.0000 C   0  0  0  0  0  0  0  0  0  0  0  0
    0.0000    0.0000    0.0000 N   0  0  0  0  0  0  0  0  0  0  0  0
    0.0000    0.0000    0.0000 C   0  0  0  0  0  0  0  0  0  0  0  0
    0.0000    0.0000    0.0000 C   0  0  0  0  0  0  0  0  0  0  0  0
    0.0000    0.0000    0.0000 N   0  0  0  0  0  0  0  0  0  0  0  0
    0.0000    0.0000    0.0000 C   0  0  0  0  0  0  0  0  0  0  0  0
    0.0000    0.0000    0.0000 N   0  0  0  0  0  0  0  0  0  0  0  0
    0.0000    0.0000    0.0000 C   0  0  0  0  0  0  0  0  0  0  0  0
    0.0000    0.0000    0.0000 C   0  0  0  0  0  0  0  0  0  0  0  0
    0.0000    0.0000    0.0000 C   0  0  0  0  0  0  0  0  0  0  0  0
    0.0000    0.0000    0.0000 N   0  0  0  0  0  0  0  0  0  0  0  0
    0.0000    0.0000    0.0000 C   0  0  0  0  0  0  0  0  0  0  0  0
    0.0000    0.0000    0.0000 C   0  0  0  0  0  0  0  0  0  0  0  0
    0.0000    0.0000    0.0000 C   0  0  0  0  0  0  0  0  0  0  0  0
    0.0000    0.0000    0.0000 C   0  0  0  0  0  0  0  0  0  0  0  0
    0.0000    0.0000    0.0000 C   0  0  0  0  0  0  0  0  0  0  0  0
    0.0000    0.0000    0.0000 C   0  0  0  0  0  0  0  0  0  0  0  0
    0.0000    0.0000    0.0000 C   0  0  0  0  0  0  0  0  0  0  0  0
    0.0000    0.0000    0.0000 C   0  0  0  0  0  0  0  0  0  0  0  0
    0.0000    0.0000    0.0000 C   0  0  0  0  0  0  0  0  0  0  0  0
  1  2  1  0  0  0  0
  1 21  1  0  0  0  0
  2  3  1  0  0  0  0
  3  4  1  0  0  0  0
  4  8  1  0  0  0  0
  4  5  1  0  0  0  0
  5 20  1  0  0  0  0
  5  6  2  0  0  0  0
  6  7  1  0  0  0  0
  6 17  1  0  0  0  0
  7  8  2  0  0  0  0
  8  9  1  0  0  0  0
  9 15  1  0  0  0  0
  9 10  1  0  0  0  0
 10 11  1  0  0  0  0
 11 12  1  0  0  0  0
 12 13  1  0  0  0  0
 13 14  1  0  0  0  0
 13 16  1  0  0  0  0
 14 15  1  0  0  0  0
 17 18  2  0  0  0  0
 18 19  1  0  0  0  0
 19 20  2  0  0  0  0
 21 22  1  0  0  0  0
M  END
> <Index>
1545

> <ID>
HT0750

> <class>
1

> <apol>
52.458618

> <ast_fraglike>
0

> <ast_fraglike_ext>
0

> <ast_violation>
1

> <ast_violation_ext>
2

> <a_acc>
3

> <a_acid>
0

> <a_aro>
9

> <a_base>
0

> <a_count>
48

> <a_don>
0

> <a_donacc>
3

> <a_heavy>
22

> <a_hyd>
16

> <a_IC>
68.379898

> <a_ICM>
1.4245813

> <a_nB>
0

> <a_nBr>
0

> <a_nC>
17

> <a_nCl>
0

> <a_nF>
0

> <a_nH>
26

> <a_nI>
0

> <a_nN>
4

> <a_nO>
1

> <a_nP>
0

> <a_nS>
0

> <balabanJ>
1.6610709

> <BCUT_PEOE_0>
-2.6221404

> <BCUT_PEOE_1>
-0.33537102

> <BCUT_PEOE_2>
0.35312539

> <BCUT_PEOE_3>
2.6569269

> <BCUT_SLOGP_0>
-2.7221391

> <BCUT_SLOGP_1>
-0.31790635

> <BCUT_SLOGP_2>
0.42593697

> <BCUT_SLOGP_3>
2.6001332

> <BCUT_SMR_0>
-2.3450727

> <BCUT_SMR_1>
-0.091893382

> <BCUT_SMR_2>
0.61518055

> <BCUT_SMR_3>
2.9361784

> <bpol>
37.59938

> <b_1rotN>
5

> <b_1rotR>
0.20833333

> <b_ar>
10

> <b_count>
50

> <b_double>
0

> <b_heavy>
24

> <b_max1len>
6

> <b_rotN>
5

> <b_rotR>
0.20833333

> <b_single>
40

> <b_triple>
0

> <chi0>
15.363597

> <chi0v>
13.663358

> <chi0v_C>
11.466255

> <chi0_C>
12.217332

> <chi1>
10.792025

> <chi1v>
8.258194

> <chi1v_C>
4.5344572

> <chi1_C>
5.3569369

> <chiral>
0

> <chiral_u>
0

> <density>
0.68171299

> <diameter>
11

> <FCharge>
0

> <GCUT_PEOE_0>
-0.85807538

> <GCUT_PEOE_1>
-0.34589931

> <GCUT_PEOE_2>
-0.069711961

> <GCUT_PEOE_3>
2.7683434

> <GCUT_SLOGP_0>
-0.98906571

> <GCUT_SLOGP_1>
-0.30369574

> <GCUT_SLOGP_2>
0.011487467

> <GCUT_SLOGP_3>
2.8028307

> <GCUT_SMR_0>
-0.52050495

> <GCUT_SMR_1>
-0.12788585

> <GCUT_SMR_2>
0.13215582

> <GCUT_SMR_3>
3.0367146

> <Kier1>
16.84375

> <Kier2>
8.203125

> <Kier3>
4.1103301

> <KierA1>
13.69772

> <KierA2>
6.600915

> <KierA3>
3.282263

> <KierFlex>
4.1098857

> <lip_acc>
5

> <lip_don>
0

> <lip_druglike>
1

> <lip_violation>
0

> <logP(o/w)>
2.1860001

> <logS>
-2.94609

> <mr>
8.8733225

> <mutagenic>
0

> <nmol>
1

> <opr_brigid>
17

> <opr_leadlike>
1

> <opr_nring>
3

> <opr_nrot>
8

> <opr_violation>
0

> <PC+>
0

> <PC->
0

> <PEOE_PC+>
1.7253566

> <PEOE_PC->
-1.7253566

> <PEOE_RPC+>
0.1077247

> <PEOE_RPC->
0.21924488

> <PEOE_VSA+0>
135.96677

> <PEOE_VSA+1>
71.004257

> <PEOE_VSA+2>
0.0

> <PEOE_VSA+3>
15.681574

> <PEOE_VSA+4>
0.0

> <PEOE_VSA+5>
0.0

> <PEOE_VSA+6>
0.0

> <PEOE_VSA-0>
88.389816

> <PEOE_VSA-1>
24.509808

> <PEOE_VSA-2>
0.0

> <PEOE_VSA-3>
0.0

> <PEOE_VSA-4>
5.6825762

> <PEOE_VSA-5>
0.0

> <PEOE_VSA-6>
2.503756

> <PEOE_VSA_FHYD>
0.97618443

> <PEOE_VSA_FNEG>
0.35226178

> <PEOE_VSA_FPNEG>
0.023815578

> <PEOE_VSA_FPOL>
0.023815578

> <PEOE_VSA_FPOS>
0.64773822

> <PEOE_VSA_FPPOS>
0.0

> <PEOE_VSA_HYD>
335.55222

> <PEOE_VSA_NEG>
121.08595

> <PEOE_VSA_PNEG>
8.1863317

> <PEOE_VSA_POL>
8.1863317

> <PEOE_VSA_POS>
222.6526

> <PEOE_VSA_PPOS>
0.0

> <petitjean>
0.45454547

> <petitjeanSC>
0.83333331

> <Q_PC+>
0

> <Q_PC->
0

> <Q_RPC+>
0

> <Q_RPC->
0

> <Q_VSA_FHYD>
1

> <Q_VSA_FNEG>
0

> <Q_VSA_FPNEG>
0

> <Q_VSA_FPOL>
0

> <Q_VSA_FPOS>
1

> <Q_VSA_FPPOS>
0

> <Q_VSA_HYD>
343.73856

> <Q_VSA_NEG>
0

> <Q_VSA_PNEG>
0

> <Q_VSA_POL>
0

> <Q_VSA_POS>
343.73856

> <Q_VSA_PPOS>
0

> <radius>
6

> <reactive>
0

> <rings>
3

> <RPC+>
0

> <RPC->
0

> <rsynth>
1.0

> <SlogP>
2.4811001

> <SlogP_VSA0>
3.1243138

> <SlogP_VSA1>
21.808937

> <SlogP_VSA2>
10.999887

> <SlogP_VSA3>
115.61083

> <SlogP_VSA4>
0.0

> <SlogP_VSA5>
32.897186

> <SlogP_VSA6>
0.0

> <SlogP_VSA7>
74.861008

> <SlogP_VSA8>
18.868406

> <SlogP_VSA9>
53.664684

> <SMR>
9.0757999

> <SMR_VSA0>
10.999887

> <SMR_VSA1>
21.808937

> <SMR_VSA2>
3.1243138

> <SMR_VSA3>
0.0

> <SMR_VSA4>
6.187367

> <SMR_VSA5>
107.88072

> <SMR_VSA6>
115.61083

> <SMR_VSA7>
66.223206

> <TPSA>
33.529999

> <VAdjEq>
0.46637034

> <VAdjMa>
5.5849624

> <VDistEq>
3.1706772

> <VDistMa>
8.6429033

> <vdw_area>
343.73856

> <vdw_vol>
443.62073

> <vsa_acc>
8.1863317

> <vsa_acid>
0

> <vsa_base>
0

> <vsa_don>
0.0

> <vsa_hyd>
301.36395

> <vsa_other>
15.681574

> <vsa_pol>
8.1863317

> <Weight>
302.422

> <weinerPath>
1041

> <weinerPol>
35

> <zagreb>
112

$$$$
Row1545
 OpenBabel06061811532D

 30 31  0  0  1  0  0  0  0  0999 V2000
    0.0000    0.0000    0.0000 O   0  0  0  0  0  0  0  0  0  0  0  0
    0.0000    0.0000    0.0000 C   0  0  0  0  0  0  0  0  0  0  0  0
    0.0000    0.0000    0.0000 C   0  0  0  0  0  0  0  0  0  0  0  0
    0.0000    0.0000    0.0000 C   0  0  0  0  0  0  0  0  0  0  0  0
    0.0000    0.0000    0.0000 O   0  0  0  0  0  0  0  0  0  0  0  0
    0.0000    0.0000    0.0000 C   0  0  1  0  0  0  0  0  0  0  0  0
    0.0000    0.0000    0.0000 H   0  0  0  0  0  0  0  0  0  0  0  0
    0.0000    0.0000    0.0000 N   0  0  0  0  0  0  0  0  0  0  0  0
    0.0000    0.0000    0.0000 C   0  0  2  0  0  0  0  0  0  0  0  0
    0.0000    0.0000    0.0000 H   0  0  0  0  0  0  0  0  0  0  0  0
    0.0000    0.0000    0.0000 C   0  0  0  0  0  0  0  0  0  0  0  0
    0.0000    0.0000    0.0000 O   0  0  0  0  0  0  0  0  0  0  0  0
    0.0000    0.0000    0.0000 N   0  0  0  0  0  0  0  0  0  0  0  0
    0.0000    0.0000    0.0000 C   0  0  0  0  0  0  0  0  0  0  0  0
    0.0000    0.0000    0.0000 C   0  0  0  0  0  0  0  0  0  0  0  0
    0.0000    0.0000    0.0000 C   0  0  0  0  0  0  0  0  0  0  0  0
    0.0000    0.0000    0.0000 C   0  0  1  0  0  0  0  0  0  0  0  0
    0.0000    0.0000    0.0000 H   0  0  0  0  0  0  0  0  0  0  0  0
    0.0000    0.0000    0.0000 C   0  0  0  0  0  0  0  0  0  0  0  0
    0.0000    0.0000    0.0000 O   0  0  0  0  0  0  0  0  0  0  0  0
    0.0000    0.0000    0.0000 O   0  0  0  0  0  0  0  0  0  0  0  0
    0.0000    0.0000    0.0000 C   0  0  0  0  0  0  0  0  0  0  0  0
    0.0000    0.0000    0.0000 C   0  0  0  0  0  0  0  0  0  0  0  0
    0.0000    0.0000    0.0000 C   0  0  0  0  0  0  0  0  0  0  0  0
    0.0000    0.0000    0.0000 C   0  0  0  0  0  0  0  0  0  0  0  0
    0.0000    0.0000    0.0000 C   0  0  0  0  0  0  0  0  0  0  0  0
    0.0000    0.0000    0.0000 C   0  0  0  0  0  0  0  0  0  0  0  0
    0.0000    0.0000    0.0000 C   0  0  0  0  0  0  0  0  0  0  0  0
    0.0000    0.0000    0.0000 C   0  0  0  0  0  0  0  0  0  0  0  0
    0.0000    0.0000    0.0000 C   0  0  0  0  0  0  0  0  0  0  0  0
  1  2  1  0  0  0  0
  1  4  1  0  0  0  0
  2  3  1  0  0  0  0
  4  5  2  0  0  0  0
  4  6  1  0  0  0  0
  6  7  1  0  0  0  0
  6  8  1  0  0  0  0
  6 23  1  0  0  0  0
  8  9  1  0  0  0  0
  9 10  1  0  0  0  0
  9 11  1  0  0  0  0
  9 22  1  0  0  0  0
 11 12  2  0  0  0  0
 11 13  1  0  0  0  0
 13 17  1  0  0  0  0
 13 14  1  0  0  0  0
 14 15  1  0  0  0  0
 15 16  1  0  0  0  0
 16 17  1  0  0  0  0
 17 18  1  0  0  0  0
 17 19  1  0  0  0  0
 19 20  1  0  0  0  0
 19 21  2  0  0  0  0
 23 24  1  0  0  0  0
 24 25  1  0  0  0  0
 25 30  1  0  0  0  0
 25 26  2  0  0  0  0
 26 27  1  0  0  0  0
 27 28  2  0  0  0  0
 28 29  1  0  0  0  0
 29 30  2  0  0  0  0
M  END
> <Index>
1546

> <ID>
HT0753

> <class>
1

> <apol>
60.080204

> <ast_fraglike>
0

> <ast_fraglike_ext>
0

> <ast_violation>
2

> <ast_violation_ext>
3

> <a_acc>
5

> <a_acid>
0

> <a_aro>
6

> <a_base>
0

> <a_count>
55

> <a_don>
3

> <a_donacc>
8

> <a_heavy>
27

> <a_hyd>
17

> <a_IC>
83.320641

> <a_ICM>
1.5149208

> <a_nB>
0

> <a_nBr>
0

> <a_nC>
20

> <a_nCl>
0

> <a_nF>
0

> <a_nH>
28

> <a_nI>
0

> <a_nN>
2

> <a_nO>
5

> <a_nP>
0

> <a_nS>
0

> <balabanJ>
1.9121425

> <BCUT_PEOE_0>
-2.6338263

> <BCUT_PEOE_1>
-0.51628423

> <BCUT_PEOE_2>
0.57935011

> <BCUT_PEOE_3>
2.7339659

> <BCUT_SLOGP_0>
-2.8199015

> <BCUT_SLOGP_1>
-0.46874148

> <BCUT_SLOGP_2>
0.55930251

> <BCUT_SLOGP_3>
2.6894314

> <BCUT_SMR_0>
-2.3801324

> <BCUT_SMR_1>
-0.38978475

> <BCUT_SMR_2>
0.7115953

> <BCUT_SMR_3>
2.9823484

> <bpol>
38.039795

> <b_1rotN>
10

> <b_1rotR>
0.35714287

> <b_ar>
6

> <b_count>
56

> <b_double>
3

> <b_heavy>
28

> <b_max1len>
7

> <b_rotN>
11

> <b_rotR>
0.39285713

> <b_single>
47

> <b_triple>
0

> <chi0>
19.81119

> <chi0v>
15.888864

> <chi0v_C>
12.861443

> <chi0_C>
13.819627

> <chi1>
12.934759

> <chi1v>
9.4353781

> <chi1v_C>
6.731216

> <chi1_C>
7.8256984

> <chiral>
3

> <chiral_u>
0

> <density>
0.73255211

> <diameter>
13

> <FCharge>
0

> <GCUT_PEOE_0>
-0.83770448

> <GCUT_PEOE_1>
-0.39002725

> <GCUT_PEOE_2>
0.060489852

> <GCUT_PEOE_3>
2.7882464

> <GCUT_SLOGP_0>
-1.1549973

> <GCUT_SLOGP_1>
-0.34023023

> <GCUT_SLOGP_2>
0.078469209

> <GCUT_SLOGP_3>
2.7480187

> <GCUT_SMR_0>
-0.52482224

> <GCUT_SMR_1>
-0.21605732

> <GCUT_SMR_2>
0.1607468

> <GCUT_SMR_3>
3.0202456

> <Kier1>
23.280613

> <Kier2>
11.869978

> <Kier3>
7.0775046

> <KierA1>
18.709242

> <KierA2>
9.4540014

> <KierA3>
5.5994959

> <KierFlex>
6.5510077

> <lip_acc>
7

> <lip_don>
2

> <lip_druglike>
1

> <lip_violation>
0

> <logP(o/w)>
2.392

> <logS>
-3.06601

> <mr>
10.292163

> <mutagenic>
0

> <nmol>
1

> <opr_brigid>
11

> <opr_leadlike>
1

> <opr_nring>
2

> <opr_nrot>
10

> <opr_violation>
0

> <PC+>
0

> <PC->
0

> <PEOE_PC+>
2.6001992

> <PEOE_PC->
-2.6001992

> <PEOE_RPC+>
0.10860244

> <PEOE_RPC->
0.12680419

> <PEOE_VSA+0>
81.438499

> <PEOE_VSA+1>
63.897076

> <PEOE_VSA+2>
11.764974

> <PEOE_VSA+3>
0.0

> <PEOE_VSA+4>
23.273705

> <PEOE_VSA+5>
29.416998

> <PEOE_VSA+6>
0.0

> <PEOE_VSA-0>
74.509148

> <PEOE_VSA-1>
61.274521

> <PEOE_VSA-2>
0.0

> <PEOE_VSA-3>
0.0

> <PEOE_VSA-4>
0.0

> <PEOE_VSA-5>
40.837654

> <PEOE_VSA-6>
10.271297

> <PEOE_VSA_FHYD>
0.73833156

> <PEOE_VSA_FNEG>
0.47113743

> <PEOE_VSA_FPNEG>
0.12884051

> <PEOE_VSA_FPOL>
0.26166844

> <PEOE_VSA_FPOS>
0.5288626

> <PEOE_VSA_FPPOS>
0.13282794

> <PEOE_VSA_HYD>
292.88422

> <PEOE_VSA_NEG>
186.89262

> <PEOE_VSA_PNEG>
51.108952

> <PEOE_VSA_POL>
103.79965

> <PEOE_VSA_POS>
209.79124

> <PEOE_VSA_PPOS>
52.690701

> <petitjean>
0.46153846

> <petitjeanSC>
0.85714287

> <Q_PC+>
0

> <Q_PC->
0

> <Q_RPC+>
0

> <Q_RPC->
0

> <Q_VSA_FHYD>
1

> <Q_VSA_FNEG>
0

> <Q_VSA_FPNEG>
0

> <Q_VSA_FPOL>
0

> <Q_VSA_FPOS>
1

> <Q_VSA_FPPOS>
0

> <Q_VSA_HYD>
396.68387

> <Q_VSA_NEG>
0

> <Q_VSA_PNEG>
0

> <Q_VSA_POL>
0

> <Q_VSA_POS>
396.68387

> <Q_VSA_PPOS>
0

> <radius>
7

> <reactive>
0

> <rings>
2

> <RPC+>
0

> <RPC->
0

> <rsynth>
1.0

> <SlogP>
1.60457

> <SlogP_VSA0>
18.01075

> <SlogP_VSA1>
23.874025

> <SlogP_VSA2>
94.53244

> <SlogP_VSA3>
64.75106

> <SlogP_VSA4>
3.185575

> <SlogP_VSA5>
18.868406

> <SlogP_VSA6>
0.0

> <SlogP_VSA7>
88.215919

> <SlogP_VSA8>
56.605217

> <SlogP_VSA9>
66.652031

> <SMR>
10.01525

> <SMR_VSA0>
82.58654

> <SMR_VSA1>
3.1243138

> <SMR_VSA2>
43.395977

> <SMR_VSA3>
15.131481

> <SMR_VSA4>
0.0

> <SMR_VSA5>
163.68954

> <SMR_VSA6>
60.115547

> <SMR_VSA7>
66.652031

> <TPSA>
95.940002

> <VAdjEq>
0.39086518

> <VAdjMa>
5.8073549

> <VDistEq>
3.5148313

> <VDistMa>
9.2342472

> <vdw_area>
396.68387

> <vdw_vol>
513.89246

> <vsa_acc>
27.133842

> <vsa_acid>
0

> <vsa_base>
0

> <vsa_don>
0.0

> <vsa_hyd>
265.75851

> <vsa_other>
44.870285

> <vsa_pol>
59.95026

> <Weight>
376.453

> <weinerPath>
1982

> <weinerPol>
38

> <zagreb>
130

$$$$
Row1546
 OpenBabel06061811532D

 28 29  0  0  1  0  0  0  0  0999 V2000
    0.0000    0.0000    0.0000 O   0  0  0  0  0  0  0  0  0  0  0  0
    0.0000    0.0000    0.0000 C   0  0  0  0  0  0  0  0  0  0  0  0
    0.0000    0.0000    0.0000 O   0  0  0  0  0  0  0  0  0  0  0  0
    0.0000    0.0000    0.0000 C   0  0  1  0  0  0  0  0  0  0  0  0
    0.0000    0.0000    0.0000 H   0  0  0  0  0  0  0  0  0  0  0  0
    0.0000    0.0000    0.0000 N   0  0  0  0  0  0  0  0  0  0  0  0
    0.0000    0.0000    0.0000 C   0  0  0  0  0  0  0  0  0  0  0  0
    0.0000    0.0000    0.0000 C   0  0  0  0  0  0  0  0  0  0  0  0
    0.0000    0.0000    0.0000 C   0  0  0  0  0  0  0  0  0  0  0  0
    0.0000    0.0000    0.0000 C   0  0  0  0  0  0  0  0  0  0  0  0
    0.0000    0.0000    0.0000 O   0  0  0  0  0  0  0  0  0  0  0  0
    0.0000    0.0000    0.0000 C   0  0  1  0  0  0  0  0  0  0  0  0
    0.0000    0.0000    0.0000 H   0  0  0  0  0  0  0  0  0  0  0  0
    0.0000    0.0000    0.0000 N   0  0  0  0  0  0  0  0  0  0  0  0
    0.0000    0.0000    0.0000 C   0  0  1  0  0  0  0  0  0  0  0  0
    0.0000    0.0000    0.0000 H   0  0  0  0  0  0  0  0  0  0  0  0
    0.0000    0.0000    0.0000 C   0  0  0  0  0  0  0  0  0  0  0  0
    0.0000    0.0000    0.0000 C   0  0  0  0  0  0  0  0  0  0  0  0
    0.0000    0.0000    0.0000 C   0  0  0  0  0  0  0  0  0  0  0  0
    0.0000    0.0000    0.0000 C   0  0  0  0  0  0  0  0  0  0  0  0
    0.0000    0.0000    0.0000 C   0  0  0  0  0  0  0  0  0  0  0  0
    0.0000    0.0000    0.0000 C   0  0  0  0  0  0  0  0  0  0  0  0
    0.0000    0.0000    0.0000 C   0  0  0  0  0  0  0  0  0  0  0  0
    0.0000    0.0000    0.0000 C   0  0  0  0  0  0  0  0  0  0  0  0
    0.0000    0.0000    0.0000 C   0  0  0  0  0  0  0  0  0  0  0  0
    0.0000    0.0000    0.0000 O   0  0  0  0  0  0  0  0  0  0  0  0
    0.0000    0.0000    0.0000 O   0  0  0  0  0  0  0  0  0  0  0  0
    0.0000    0.0000    0.0000 C   0  0  0  0  0  0  0  0  0  0  0  0
  1  2  1  0  0  0  0
  2  3  2  0  0  0  0
  2  4  1  0  0  0  0
  4  5  1  0  0  0  0
  4  9  1  0  0  0  0
  4  6  1  0  0  0  0
  6  7  1  0  0  0  0
  6 10  1  0  0  0  0
  7  8  1  0  0  0  0
  8  9  1  0  0  0  0
 10 11  2  0  0  0  0
 10 12  1  0  0  0  0
 12 13  1  0  0  0  0
 12 14  1  0  0  0  0
 12 28  1  0  0  0  0
 14 15  1  0  0  0  0
 15 16  1  0  0  0  0
 15 17  1  0  0  0  0
 15 25  1  0  0  0  0
 17 18  1  0  0  0  0
 18 19  1  0  0  0  0
 19 24  1  0  0  0  0
 19 20  2  0  0  0  0
 20 21  1  0  0  0  0
 21 22  2  0  0  0  0
 22 23  1  0  0  0  0
 23 24  2  0  0  0  0
 25 26  1  0  0  0  0
 25 27  2  0  0  0  0
M  END
> <Index>
1547

> <ID>
HT0754

> <class>
1

> <apol>
53.893032

> <ast_fraglike>
0

> <ast_fraglike_ext>
0

> <ast_violation>
3

> <ast_violation_ext>
5

> <a_acc>
6

> <a_acid>
0

> <a_aro>
6

> <a_base>
0

> <a_count>
49

> <a_don>
5

> <a_donacc>
11

> <a_heavy>
25

> <a_hyd>
15

> <a_IC>
76.413391

> <a_ICM>
1.5594569

> <a_nB>
0

> <a_nBr>
0

> <a_nC>
18

> <a_nCl>
0

> <a_nF>
0

> <a_nH>
24

> <a_nI>
0

> <a_nN>
2

> <a_nO>
5

> <a_nP>
0

> <a_nS>
0

> <balabanJ>
1.8452234

> <BCUT_PEOE_0>
-2.6292713

> <BCUT_PEOE_1>
-0.52838111

> <BCUT_PEOE_2>
0.57989079

> <BCUT_PEOE_3>
2.7336776

> <BCUT_SLOGP_0>
-2.8183424

> <BCUT_SLOGP_1>
-0.52558798

> <BCUT_SLOGP_2>
0.67700607

> <BCUT_SLOGP_3>
2.6893957

> <BCUT_SMR_0>
-2.3752737

> <BCUT_SMR_1>
-0.38985455

> <BCUT_SMR_2>
0.7123698

> <BCUT_SMR_3>
2.9820132

> <bpol>
31.750969

> <b_1rotN>
9

> <b_1rotR>
0.34615386

> <b_ar>
6

> <b_count>
50

> <b_double>
3

> <b_heavy>
26

> <b_max1len>
7

> <b_rotN>
9

> <b_rotR>
0.34615386

> <b_single>
41

> <b_triple>
0

> <chi0>
18.396976

> <chi0v>
14.220721

> <chi0v_C>
11.154336

> <chi0_C>
12.112519

> <chi1>
11.896754

> <chi1v>
8.4590788

> <chi1v_C>
6.0241094

> <chi1_C>
7.1185918

> <chiral>
3

> <chiral_u>
0

> <density>
0.75265247

> <diameter>
13

> <FCharge>
0

> <GCUT_PEOE_0>
-0.83770365

> <GCUT_PEOE_1>
-0.41563028

> <GCUT_PEOE_2>
0.076134503

> <GCUT_PEOE_3>
2.7400987

> <GCUT_SLOGP_0>
-1.1549619

> <GCUT_SLOGP_1>
-0.39400128

> <GCUT_SLOGP_2>
0.13827099

> <GCUT_SLOGP_3>
2.6973062

> <GCUT_SMR_0>
-0.52480841

> <GCUT_SMR_1>
-0.23314883

> <GCUT_SMR_2>
0.17917423

> <GCUT_SMR_3>
2.9729679

> <Kier1>
21.301775

> <Kier2>
10.364081

> <Kier3>
6.2823148

> <KierA1>
16.801643

> <KierA2>
8.0883207

> <KierA3>
4.8639255

> <KierFlex>
5.4358835

> <lip_acc>
7

> <lip_don>
3

> <lip_druglike>
1

> <lip_violation>
0

> <logP(o/w)>
1.7869999

> <logS>
-2.3264699

> <mr>
9.3225851

> <mutagenic>
0

> <nmol>
1

> <opr_brigid>
11

> <opr_leadlike>
1

> <opr_nring>
2

> <opr_nrot>
9

> <opr_violation>
0

> <PC+>
0

> <PC->
0

> <PEOE_PC+>
2.5752282

> <PEOE_PC->
-2.5752282

> <PEOE_RPC+>
0.10965551

> <PEOE_RPC->
0.12817968

> <PEOE_VSA+0>
68.642342

> <PEOE_VSA+1>
40.415009

> <PEOE_VSA+2>
11.764974

> <PEOE_VSA+3>
0.0

> <PEOE_VSA+4>
33.597878

> <PEOE_VSA+5>
29.416998

> <PEOE_VSA+6>
0.0

> <PEOE_VSA-0>
55.761471

> <PEOE_VSA-1>
61.274521

> <PEOE_VSA-2>
0.0

> <PEOE_VSA-3>
0.0

> <PEOE_VSA-4>
0.0

> <PEOE_VSA-5>
40.837654

> <PEOE_VSA-6>
15.535081

> <PEOE_VSA_FHYD>
0.66581112

> <PEOE_VSA_FNEG>
0.48540434

> <PEOE_VSA_FPNEG>
0.15779811

> <PEOE_VSA_FPOL>
0.33418885

> <PEOE_VSA_FPOS>
0.51459563

> <PEOE_VSA_FPPOS>
0.17639075

> <PEOE_VSA_HYD>
237.85832

> <PEOE_VSA_NEG>
173.40872

> <PEOE_VSA_PNEG>
56.372734

> <PEOE_VSA_POL>
119.38761

> <PEOE_VSA_POS>
183.8372

> <PEOE_VSA_PPOS>
63.014874

> <petitjean>
0.46153846

> <petitjeanSC>
0.85714287

> <Q_PC+>
0

> <Q_PC->
0

> <Q_RPC+>
0

> <Q_RPC->
0

> <Q_VSA_FHYD>
1

> <Q_VSA_FNEG>
0

> <Q_VSA_FPNEG>
0

> <Q_VSA_FPOL>
0

> <Q_VSA_FPOS>
1

> <Q_VSA_FPPOS>
0

> <Q_VSA_HYD>
357.24591

> <Q_VSA_NEG>
0

> <Q_VSA_PNEG>
0

> <Q_VSA_POL>
0

> <Q_VSA_POS>
357.24591

> <Q_VSA_PPOS>
0

> <radius>
7

> <reactive>
0

> <rings>
2

> <RPC+>
0

> <RPC->
0

> <rsynth>
1.0

> <SlogP>
1.12607

> <SlogP_VSA0>
18.01075

> <SlogP_VSA1>
23.874025

> <SlogP_VSA2>
83.532555

> <SlogP_VSA3>
69.21003

> <SlogP_VSA4>
3.185575

> <SlogP_VSA5>
18.868406

> <SlogP_VSA6>
0.0

> <SlogP_VSA7>
88.215919

> <SlogP_VSA8>
56.605217

> <SlogP_VSA9>
33.326015

> <SMR>
9.11553

> <SMR_VSA0>
71.586647

> <SMR_VSA1>
3.1243138

> <SMR_VSA2>
68.781204

> <SMR_VSA3>
15.131481

> <SMR_VSA4>
0.0

> <SMR_VSA5>
163.68954

> <SMR_VSA6>
39.189289

> <SMR_VSA7>
33.326015

> <TPSA>
106.94

> <VAdjEq>
0.41335541

> <VAdjMa>
5.7004399

> <VDistEq>
3.5056729

> <VDistMa>
8.9932957

> <vdw_area>
357.24591

> <vdw_vol>
462.8949

> <vsa_acc>
13.566921

> <vsa_acid>
0

> <vsa_base>
0

> <vsa_don>
0.0

> <vsa_hyd>
214.2916

> <vsa_other>
42.366531

> <vsa_pol>
73.517181

> <Weight>
348.39899

> <weinerPath>
1634

> <weinerPol>
35

> <zagreb>
122

$$$$
Row1547
 OpenBabel06061811532D

 22 22  0  0  0  0  0  0  0  0999 V2000
    0.0000    0.0000    0.0000 O   0  0  0  0  0  0  0  0  0  0  0  0
    0.0000    0.0000    0.0000 C   0  0  0  0  0  0  0  0  0  0  0  0
    0.0000    0.0000    0.0000 C   0  0  0  0  0  0  0  0  0  0  0  0
    0.0000    0.0000    0.0000 N   0  3  0  0  0  0  0  0  0  0  0  0
    0.0000    0.0000    0.0000 O   0  0  0  0  0  0  0  0  0  0  0  0
    0.0000    0.0000    0.0000 O   0  5  0  0  0  0  0  0  0  0  0  0
    0.0000    0.0000    0.0000 C   0  0  0  0  0  0  0  0  0  0  0  0
    0.0000    0.0000    0.0000 C   0  0  0  0  0  0  0  0  0  0  0  0
    0.0000    0.0000    0.0000 C   0  0  0  0  0  0  0  0  0  0  0  0
    0.0000    0.0000    0.0000 C   0  0  0  0  0  0  0  0  0  0  0  0
    0.0000    0.0000    0.0000 O   0  0  0  0  0  0  0  0  0  0  0  0
    0.0000    0.0000    0.0000 C   0  0  0  0  0  0  0  0  0  0  0  0
    0.0000    0.0000    0.0000 C   0  0  0  0  0  0  0  0  0  0  0  0
    0.0000    0.0000    0.0000 C   0  0  0  0  0  0  0  0  0  0  0  0
    0.0000    0.0000    0.0000 O   0  0  0  0  0  0  0  0  0  0  0  0
    0.0000    0.0000    0.0000 N   0  0  0  0  0  0  0  0  0  0  0  0
    0.0000    0.0000    0.0000 C   0  0  0  0  0  0  0  0  0  0  0  0
    0.0000    0.0000    0.0000 C   0  0  0  0  0  0  0  0  0  0  0  0
    0.0000    0.0000    0.0000 C   0  0  0  0  0  0  0  0  0  0  0  0
    0.0000    0.0000    0.0000 C   0  0  0  0  0  0  0  0  0  0  0  0
    0.0000    0.0000    0.0000 C   0  0  0  0  0  0  0  0  0  0  0  0
    0.0000    0.0000    0.0000 N   0  0  0  0  0  0  0  0  0  0  0  0
  1  2  1  0  0  0  0
  2 10  1  0  0  0  0
  2  3  2  0  0  0  0
  3  4  1  0  0  0  0
  3  7  1  0  0  0  0
  4  5  2  0  0  0  0
  4  6  1  0  0  0  0
  7  8  2  0  0  0  0
  8  9  1  0  0  0  0
  8 12  1  0  0  0  0
  9 10  2  0  0  0  0
 10 11  1  0  0  0  0
 12 13  2  3  0  0  0
 13 14  1  0  0  0  0
 13 21  1  0  0  0  0
 14 15  2  0  0  0  0
 14 16  1  0  0  0  0
 16 17  1  0  0  0  0
 16 19  1  0  0  0  0
 17 18  1  0  0  0  0
 19 20  1  0  0  0  0
 21 22  3  0  0  0  0
M  CHG  2   4   1   6  -1
M  END
> <Index>
1548

> <ID>
HT0763

> <class>
1

> <apol>
41.951897

> <ast_fraglike>
0

> <ast_fraglike_ext>
0

> <ast_violation>
2

> <ast_violation_ext>
3

> <a_acc>
4

> <a_acid>
0

> <a_aro>
6

> <a_base>
0

> <a_count>
37

> <a_don>
2

> <a_donacc>
6

> <a_heavy>
22

> <a_hyd>
13

> <a_IC>
64.47892

> <a_ICM>
1.7426735

> <a_nB>
0

> <a_nBr>
0

> <a_nC>
14

> <a_nCl>
0

> <a_nF>
0

> <a_nH>
15

> <a_nI>
0

> <a_nN>
3

> <a_nO>
5

> <a_nP>
0

> <a_nS>
0

> <balabanJ>
2.7105737

> <BCUT_PEOE_0>
-2.5853021

> <BCUT_PEOE_1>
-0.38786542

> <BCUT_PEOE_2>
0.58893764

> <BCUT_PEOE_3>
2.5059659

> <BCUT_SLOGP_0>
-2.6513965

> <BCUT_SLOGP_1>
-0.37049004

> <BCUT_SLOGP_2>
0.46788529

> <BCUT_SLOGP_3>
2.4833877

> <BCUT_SMR_0>
-2.3076046

> <BCUT_SMR_1>
-0.24170323

> <BCUT_SMR_2>
0.70952606

> <BCUT_SMR_3>
2.7783306

> <bpol>
21.252106

> <b_1rotN>
6

> <b_1rotR>
0.27272728

> <b_ar>
6

> <b_count>
37

> <b_double>
3

> <b_heavy>
22

> <b_max1len>
6

> <b_rotN>
7

> <b_rotR>
0.31818181

> <b_single>
27

> <b_triple>
1

> <chi0>
16.861443

> <chi0v>
12.107078

> <chi0v_C>
8.6462641

> <chi0_C>
9.7067423

> <chi1>
10.348973

> <chi1v>
6.4660263

> <chi1v_C>
4.1462646

> <chi1_C>
5.2719517

> <chiral>
0

> <chiral_u>
0

> <density>
0.8046

> <diameter>
10

> <FCharge>
0

> <GCUT_PEOE_0>
-0.85045522

> <GCUT_PEOE_1>
-0.41825923

> <GCUT_PEOE_2>
0.14226671

> <GCUT_PEOE_3>
2.4318223

> <GCUT_SLOGP_0>
-0.96250021

> <GCUT_SLOGP_1>
-0.33207718

> <GCUT_SLOGP_2>
0.044072244

> <GCUT_SLOGP_3>
2.5060337

> <GCUT_SMR_0>
-0.51657993

> <GCUT_SMR_1>
-0.16350573

> <GCUT_SMR_2>
0.23959793

> <GCUT_SMR_3>
2.6877432

> <Kier1>
20.045454

> <Kier2>
9.333333

> <Kier3>
5.2631578

> <KierA1>
14.166013

> <KierA2>
6.477015

> <KierA3>
3.6044707

> <KierFlex>
4.1706128

> <lip_acc>
8

> <lip_don>
2

> <lip_druglike>
1

> <lip_violation>
0

> <logP(o/w)>
1.523

> <logS>
-3.0385499

> <mr>
7.7851639

> <mutagenic>
1

> <nmol>
1

> <opr_brigid>
7

> <opr_leadlike>
1

> <opr_nring>
1

> <opr_nrot>
6

> <opr_violation>
0

> <PC+>
0

> <PC->
0

> <PEOE_PC+>
2.1844127

> <PEOE_PC->
-2.1844127

> <PEOE_RPC+>
0.13897549

> <PEOE_RPC->
0.16347657

> <PEOE_VSA+0>
81.293411

> <PEOE_VSA+1>
16.824192

> <PEOE_VSA+2>
30.966566

> <PEOE_VSA+3>
8.458519

> <PEOE_VSA+4>
20.648346

> <PEOE_VSA+5>
12.949531

> <PEOE_VSA+6>
6.6995511

> <PEOE_VSA-0>
64.213699

> <PEOE_VSA-1>
0.0

> <PEOE_VSA-2>
0.0

> <PEOE_VSA-3>
17.742489

> <PEOE_VSA-4>
0.0

> <PEOE_VSA-5>
47.497971

> <PEOE_VSA-6>
15.535081

> <PEOE_VSA_FHYD>
0.67992228

> <PEOE_VSA_FNEG>
0.44912037

> <PEOE_VSA_FPNEG>
0.19525191

> <PEOE_VSA_FPOL>
0.32007769

> <PEOE_VSA_FPOS>
0.55087966

> <PEOE_VSA_FPPOS>
0.12482578

> <PEOE_VSA_HYD>
219.49889

> <PEOE_VSA_NEG>
144.98924

> <PEOE_VSA_PNEG>
63.033051

> <PEOE_VSA_POL>
103.33047

> <PEOE_VSA_POS>
177.84012

> <PEOE_VSA_PPOS>
40.297428

> <petitjean>
0.5

> <petitjeanSC>
1.0

> <Q_PC+>
0

> <Q_PC->
0

> <Q_RPC+>
0

> <Q_RPC->
0

> <Q_VSA_FHYD>
1

> <Q_VSA_FNEG>
0

> <Q_VSA_FPNEG>
0

> <Q_VSA_FPOL>
0

> <Q_VSA_FPOS>
1

> <Q_VSA_FPPOS>
0

> <Q_VSA_HYD>
322.82935

> <Q_VSA_NEG>
0

> <Q_VSA_PNEG>
0

> <Q_VSA_POL>
0

> <Q_VSA_POS>
322.82935

> <Q_VSA_PPOS>
0

> <radius>
5

> <reactive>
1

> <rings>
1

> <RPC+>
0

> <RPC->
0

> <rsynth>
1.0

> <SlogP>
1.781384

> <SlogP_VSA0>
50.770454

> <SlogP_VSA1>
15.468714

> <SlogP_VSA2>
23.862217

> <SlogP_VSA3>
135.47527

> <SlogP_VSA4>
3.185575

> <SlogP_VSA5>
3.185575

> <SlogP_VSA6>
0.0

> <SlogP_VSA7>
35.286369

> <SlogP_VSA8>
17.643185

> <SlogP_VSA9>
79.89563

> <SMR>
7.7944002

> <SMR_VSA0>
30.947832

> <SMR_VSA1>
84.954124

> <SMR_VSA2>
50.935009

> <SMR_VSA3>
33.459751

> <SMR_VSA4>
2.7567475

> <SMR_VSA5>
35.286369

> <SMR_VSA6>
59.781124

> <SMR_VSA7>
66.652031

> <TPSA>
130.38

> <VAdjEq>
0.43949699

> <VAdjMa>
5.4594316

> <VDistEq>
3.2057149

> <VDistMa>
8.6419821

> <vdw_area>
322.82935

> <vdw_vol>
379.43076

> <vsa_acc>
31.30941

> <vsa_acid>
0

> <vsa_base>
0

> <vsa_don>
0.0

> <vsa_hyd>
178.90309

> <vsa_other>
67.180084

> <vsa_pol>
58.443253

> <Weight>
305.29001

> <weinerPath>
1078

> <weinerPol>
35

> <zagreb>
104

$$$$
Row1548
 OpenBabel06061811532D

 24 25  0  0  1  0  0  0  0  0999 V2000
    0.0000    0.0000    0.0000 Cl  0  0  0  0  0  0  0  0  0  0  0  0
    0.0000    0.0000    0.0000 C   0  0  0  0  0  0  0  0  0  0  0  0
    0.0000    0.0000    0.0000 C   0  0  0  0  0  0  0  0  0  0  0  0
    0.0000    0.0000    0.0000 C   0  0  0  0  0  0  0  0  0  0  0  0
    0.0000    0.0000    0.0000 N   0  0  0  0  0  0  0  0  0  0  0  0
    0.0000    0.0000    0.0000 C   0  0  3  0  0  0  0  0  0  0  0  0
    0.0000    0.0000    0.0000 N   0  0  0  0  0  0  0  0  0  0  0  0
    0.0000    0.0000    0.0000 S   0  0  0  0  0  0  0  0  0  0  0  0
    0.0000    0.0000    0.0000 O   0  0  0  0  0  0  0  0  0  0  0  0
    0.0000    0.0000    0.0000 O   0  0  0  0  0  0  0  0  0  0  0  0
    0.0000    0.0000    0.0000 C   0  0  0  0  0  0  0  0  0  0  0  0
    0.0000    0.0000    0.0000 C   0  0  0  0  0  0  0  0  0  0  0  0
    0.0000    0.0000    0.0000 C   0  0  0  0  0  0  0  0  0  0  0  0
    0.0000    0.0000    0.0000 S   0  0  0  0  0  0  0  0  0  0  0  0
    0.0000    0.0000    0.0000 O   0  0  0  0  0  0  0  0  0  0  0  0
    0.0000    0.0000    0.0000 O   0  0  0  0  0  0  0  0  0  0  0  0
    0.0000    0.0000    0.0000 N   0  0  0  0  0  0  0  0  0  0  0  0
    0.0000    0.0000    0.0000 C   0  0  0  0  0  0  0  0  0  0  0  0
    0.0000    0.0000    0.0000 S   0  0  0  0  0  0  0  0  0  0  0  0
    0.0000    0.0000    0.0000 C   0  0  0  0  0  0  0  0  0  0  0  0
    0.0000    0.0000    0.0000 C   0  0  0  0  0  0  0  0  0  0  0  0
    0.0000    0.0000    0.0000 F   0  0  0  0  0  0  0  0  0  0  0  0
    0.0000    0.0000    0.0000 F   0  0  0  0  0  0  0  0  0  0  0  0
    0.0000    0.0000    0.0000 F   0  0  0  0  0  0  0  0  0  0  0  0
  1  2  1  0  0  0  0
  2 13  1  0  0  0  0
  2  3  2  0  0  0  0
  3  4  1  0  0  0  0
  4 11  2  0  0  0  0
  4  5  1  0  0  0  0
  5  6  1  0  0  0  0
  6  7  1  0  0  0  0
  6 18  1  0  0  0  0
  7  8  1  0  0  0  0
  8  9  2  0  0  0  0
  8 10  2  0  0  0  0
  8 11  1  0  0  0  0
 11 12  1  0  0  0  0
 12 13  2  0  0  0  0
 13 14  1  0  0  0  0
 14 15  2  0  0  0  0
 14 16  2  0  0  0  0
 14 17  1  0  0  0  0
 18 19  1  0  0  0  0
 19 20  1  0  0  0  0
 20 21  1  0  0  0  0
 21 22  1  0  0  0  0
 21 23  1  0  0  0  0
 21 24  1  0  0  0  0
M  END
> <Index>
1549

> <ID>
HT0770

> <class>
1

> <apol>
43.993725

> <ast_fraglike>
0

> <ast_fraglike_ext>
0

> <ast_violation>
2

> <ast_violation_ext>
4

> <a_acc>
4

> <a_acid>
0

> <a_aro>
6

> <a_base>
0

> <a_count>
35

> <a_don>
3

> <a_donacc>
7

> <a_heavy>
24

> <a_hyd>
14

> <a_IC>
85.987213

> <a_ICM>
2.4567776

> <a_nB>
0

> <a_nBr>
0

> <a_nC>
10

> <a_nCl>
1

> <a_nF>
3

> <a_nH>
11

> <a_nI>
0

> <a_nN>
3

> <a_nO>
4

> <a_nP>
0

> <a_nS>
3

> <balabanJ>
2.0102503

> <BCUT_PEOE_0>
-2.6299052

> <BCUT_PEOE_1>
-0.40980834

> <BCUT_PEOE_2>
0.47592181

> <BCUT_PEOE_3>
2.6159055

> <BCUT_SLOGP_0>
-2.8014565

> <BCUT_SLOGP_1>
-0.42081693

> <BCUT_SLOGP_2>
0.53960842

> <BCUT_SLOGP_3>
2.5524552

> <BCUT_SMR_0>
-2.3006432

> <BCUT_SMR_1>
-0.28408927

> <BCUT_SMR_2>
0.61545974

> <BCUT_SMR_3>
2.9395142

> <bpol>
31.946278

> <b_1rotN>
4

> <b_1rotR>
0.16

> <b_ar>
6

> <b_count>
36

> <b_double>
0

> <b_heavy>
25

> <b_max1len>
6

> <b_rotN>
5

> <b_rotR>
0.2

> <b_single>
30

> <b_triple>
0

> <chi0>
18.336498

> <chi0v>
14.798629

> <chi0v_C>
5.6462646

> <chi0_C>
6.2151785

> <chi1>
10.79446

> <chi1v>
10.654021

> <chi1v_C>
2.4165022

> <chi1_C>
3.0614614

> <chiral>
1

> <chiral_u>
1

> <density>
1.1061145

> <diameter>
12

> <FCharge>
0

> <GCUT_PEOE_0>
-0.88611001

> <GCUT_PEOE_1>
-0.38471463

> <GCUT_PEOE_2>
0.01354348

> <GCUT_PEOE_3>
2.5841749

> <GCUT_SLOGP_0>
-1.3482854

> <GCUT_SLOGP_1>
-0.44469568

> <GCUT_SLOGP_2>
0.24218501

> <GCUT_SLOGP_3>
2.5876966

> <GCUT_SMR_0>
-0.49686942

> <GCUT_SMR_1>
-0.16170406

> <GCUT_SMR_2>
0.21378277

> <GCUT_SMR_3>
2.8682177

> <Kier1>
20.313601

> <Kier2>
6.9575

> <Kier3>
5.25

> <KierA1>
22.558647

> <KierA2>
7.7621632

> <KierA3>
5.8765998

> <KierFlex>
7.2959957

> <lip_acc>
7

> <lip_don>
4

> <lip_druglike>
1

> <lip_violation>
0

> <logP(o/w)>
0.90075999

> <logS>
-4.0846601

> <mr>
8.4469166

> <mutagenic>
0

> <nmol>
1

> <opr_brigid>
11

> <opr_leadlike>
1

> <opr_nring>
2

> <opr_nrot>
4

> <opr_violation>
0

> <PC+>
0

> <PC->
0

> <PEOE_PC+>
2.1835318

> <PEOE_PC->
-2.1835318

> <PEOE_RPC+>
0.1826462

> <PEOE_RPC->
0.17519161

> <PEOE_VSA+0>
63.007088

> <PEOE_VSA+1>
27.82716

> <PEOE_VSA+2>
26.880259

> <PEOE_VSA+3>
0.0

> <PEOE_VSA+4>
0.0

> <PEOE_VSA+5>
0.0

> <PEOE_VSA+6>
17.414705

> <PEOE_VSA-0>
31.551292

> <PEOE_VSA-1>
29.581947

> <PEOE_VSA-2>
34.546043

> <PEOE_VSA-3>
64.530273

> <PEOE_VSA-4>
32.016521

> <PEOE_VSA-5>
0.0

> <PEOE_VSA-6>
0.13689101

> <PEOE_VSA_FHYD>
0.84864336

> <PEOE_VSA_FNEG>
0.5873819

> <PEOE_VSA_FPNEG>
0.098180704

> <PEOE_VSA_FPOL>
0.15135665

> <PEOE_VSA_FPOS>
0.41261813

> <PEOE_VSA_FPPOS>
0.053175941

> <PEOE_VSA_HYD>
277.92407

> <PEOE_VSA_NEG>
192.36298

> <PEOE_VSA_PNEG>
32.153416

> <PEOE_VSA_POL>
49.568119

> <PEOE_VSA_POS>
135.12921

> <PEOE_VSA_PPOS>
17.414705

> <petitjean>
0.5

> <petitjeanSC>
1.0

> <Q_PC+>
0

> <Q_PC->
0

> <Q_RPC+>
0

> <Q_RPC->
0

> <Q_VSA_FHYD>
1

> <Q_VSA_FNEG>
0

> <Q_VSA_FPNEG>
0

> <Q_VSA_FPOL>
0

> <Q_VSA_FPOS>
1

> <Q_VSA_FPPOS>
0

> <Q_VSA_HYD>
327.49219

> <Q_VSA_NEG>
0

> <Q_VSA_PNEG>
0

> <Q_VSA_POL>
0

> <Q_VSA_POS>
327.49219

> <Q_VSA_PPOS>
0

> <radius>
6

> <reactive>
0

> <rings>
2

> <RPC+>
0

> <RPC->
0

> <rsynth>
1.0

> <SlogP>
1.3128

> <SlogP_VSA0>
47.69643

> <SlogP_VSA1>
122.11364

> <SlogP_VSA2>
16.834627

> <SlogP_VSA3>
34.467129

> <SlogP_VSA4>
0.0

> <SlogP_VSA5>
3.1014678

> <SlogP_VSA6>
3.5006065

> <SlogP_VSA7>
35.286369

> <SlogP_VSA8>
0.0

> <SlogP_VSA9>
119.00527

> <SMR>
8.3938398

> <SMR_VSA0>
96.343376

> <SMR_VSA1>
44.880341

> <SMR_VSA2>
27.265982

> <SMR_VSA3>
7.0537477

> <SMR_VSA4>
52.058933

> <SMR_VSA5>
35.286369

> <SMR_VSA6>
34.467129

> <SMR_VSA7>
84.649673

> <TPSA>
118.36

> <VAdjEq>
0.42571631

> <VAdjMa>
5.643856

> <VDistEq>
3.3846073

> <VDistMa>
8.8612423

> <vdw_area>
327.49219

> <vdw_vol>
385.00534

> <vsa_acc>
64.033043

> <vsa_acid>
0

> <vsa_base>
0

> <vsa_don>
33.892902

> <vsa_hyd>
180.88858

> <vsa_other>
31.401779

> <vsa_pol>
97.925949

> <Weight>
425.85999

> <weinerPath>
1372

> <weinerPol>
38

> <zagreb>
130

$$$$
Row1549
 OpenBabel06061811532D

 75 77  0  0  1  0  0  0  0  0999 V2000
    0.0000    0.0000    0.0000 O   0  0  0  0  0  0  0  0  0  0  0  0
    0.0000    0.0000    0.0000 C   0  0  2  0  0  0  0  0  0  0  0  0
    0.0000    0.0000    0.0000 H   0  0  0  0  0  0  0  0  0  0  0  0
    0.0000    0.0000    0.0000 C   0  0  0  0  0  0  0  0  0  0  0  0
    0.0000    0.0000    0.0000 C   0  0  0  0  0  0  0  0  0  0  0  0
    0.0000    0.0000    0.0000 C   0  0  2  0  0  0  0  0  0  0  0  0
    0.0000    0.0000    0.0000 O   0  0  0  0  0  0  0  0  0  0  0  0
    0.0000    0.0000    0.0000 C   0  0  0  0  0  0  0  0  0  0  0  0
    0.0000    0.0000    0.0000 C   0  0  2  0  0  0  0  0  0  0  0  0
    0.0000    0.0000    0.0000 H   0  0  0  0  0  0  0  0  0  0  0  0
    0.0000    0.0000    0.0000 O   0  0  0  0  0  0  0  0  0  0  0  0
    0.0000    0.0000    0.0000 C   0  0  1  0  0  0  0  0  0  0  0  0
    0.0000    0.0000    0.0000 H   0  0  0  0  0  0  0  0  0  0  0  0
    0.0000    0.0000    0.0000 C   0  0  0  0  0  0  0  0  0  0  0  0
    0.0000    0.0000    0.0000 C   0  0  0  0  0  0  0  0  0  0  0  0
    0.0000    0.0000    0.0000 O   0  0  0  0  0  0  0  0  0  0  0  0
    0.0000    0.0000    0.0000 C   0  0  1  0  0  0  0  0  0  0  0  0
    0.0000    0.0000    0.0000 H   0  0  0  0  0  0  0  0  0  0  0  0
    0.0000    0.0000    0.0000 C   0  0  0  0  0  0  0  0  0  0  0  0
    0.0000    0.0000    0.0000 C   0  0  2  0  0  0  0  0  0  0  0  0
    0.0000    0.0000    0.0000 O   0  0  0  0  0  0  0  0  0  0  0  0
    0.0000    0.0000    0.0000 C   0  0  0  0  0  0  0  0  0  0  0  0
    0.0000    0.0000    0.0000 C   0  0  1  0  0  0  0  0  0  0  0  0
    0.0000    0.0000    0.0000 H   0  0  0  0  0  0  0  0  0  0  0  0
    0.0000    0.0000    0.0000 O   0  0  0  0  0  0  0  0  0  0  0  0
    0.0000    0.0000    0.0000 C   0  0  2  0  0  0  0  0  0  0  0  0
    0.0000    0.0000    0.0000 H   0  0  0  0  0  0  0  0  0  0  0  0
    0.0000    0.0000    0.0000 O   0  0  0  0  0  0  0  0  0  0  0  0
    0.0000    0.0000    0.0000 C   0  0  1  0  0  0  0  0  0  0  0  0
    0.0000    0.0000    0.0000 H   0  0  0  0  0  0  0  0  0  0  0  0
    0.0000    0.0000    0.0000 C   0  0  0  0  0  0  0  0  0  0  0  0
    0.0000    0.0000    0.0000 C   0  0  2  0  0  0  0  0  0  0  0  0
    0.0000    0.0000    0.0000 H   0  0  0  0  0  0  0  0  0  0  0  0
    0.0000    0.0000    0.0000 N   0  0  0  0  0  0  0  0  0  0  0  0
    0.0000    0.0000    0.0000 C   0  0  0  0  0  0  0  0  0  0  0  0
    0.0000    0.0000    0.0000 C   0  0  0  0  0  0  0  0  0  0  0  0
    0.0000    0.0000    0.0000 C   0  0  1  0  0  0  0  0  0  0  0  0
    0.0000    0.0000    0.0000 H   0  0  0  0  0  0  0  0  0  0  0  0
    0.0000    0.0000    0.0000 O   0  0  0  0  0  0  0  0  0  0  0  0
    0.0000    0.0000    0.0000 C   0  0  0  0  0  0  0  0  0  0  0  0
    0.0000    0.0000    0.0000 O   0  0  0  0  0  0  0  0  0  0  0  0
    0.0000    0.0000    0.0000 C   0  0  0  0  0  0  0  0  0  0  0  0
    0.0000    0.0000    0.0000 C   0  0  0  0  0  0  0  0  0  0  0  0
    0.0000    0.0000    0.0000 C   0  0  0  0  0  0  0  0  0  0  0  0
    0.0000    0.0000    0.0000 O   0  0  0  0  0  0  0  0  0  0  0  0
    0.0000    0.0000    0.0000 C   0  0  0  0  0  0  0  0  0  0  0  0
    0.0000    0.0000    0.0000 C   0  0  0  0  0  0  0  0  0  0  0  0
    0.0000    0.0000    0.0000 O   0  0  0  0  0  0  0  0  0  0  0  0
    0.0000    0.0000    0.0000 C   0  0  0  0  0  0  0  0  0  0  0  0
    0.0000    0.0000    0.0000 C   0  0  1  0  0  0  0  0  0  0  0  0
    0.0000    0.0000    0.0000 H   0  0  0  0  0  0  0  0  0  0  0  0
    0.0000    0.0000    0.0000 C   0  0  0  0  0  0  0  0  0  0  0  0
    0.0000    0.0000    0.0000 C   0  0  2  0  0  0  0  0  0  0  0  0
    0.0000    0.0000    0.0000 H   0  0  0  0  0  0  0  0  0  0  0  0
    0.0000    0.0000    0.0000 O   0  0  0  0  0  0  0  0  0  0  0  0
    0.0000    0.0000    0.0000 C   0  0  2  0  0  0  0  0  0  0  0  0
    0.0000    0.0000    0.0000 H   0  0  0  0  0  0  0  0  0  0  0  0
    0.0000    0.0000    0.0000 O   0  0  0  0  0  0  0  0  0  0  0  0
    0.0000    0.0000    0.0000 C   0  0  1  0  0  0  0  0  0  0  0  0
    0.0000    0.0000    0.0000 H   0  0  0  0  0  0  0  0  0  0  0  0
    0.0000    0.0000    0.0000 C   0  0  0  0  0  0  0  0  0  0  0  0
    0.0000    0.0000    0.0000 C   0  0  2  0  0  0  0  0  0  0  0  0
    0.0000    0.0000    0.0000 H   0  0  0  0  0  0  0  0  0  0  0  0
    0.0000    0.0000    0.0000 O   0  0  0  0  0  0  0  0  0  0  0  0
    0.0000    0.0000    0.0000 C   0  0  2  0  0  0  0  0  0  0  0  0
    0.0000    0.0000    0.0000 O   0  0  0  0  0  0  0  0  0  0  0  0
    0.0000    0.0000    0.0000 C   0  0  0  0  0  0  0  0  0  0  0  0
    0.0000    0.0000    0.0000 C   0  0  0  0  0  0  0  0  0  0  0  0
    0.0000    0.0000    0.0000 C   0  0  0  0  0  0  0  0  0  0  0  0
    0.0000    0.0000    0.0000 C   0  0  1  0  0  0  0  0  0  0  0  0
    0.0000    0.0000    0.0000 H   0  0  0  0  0  0  0  0  0  0  0  0
    0.0000    0.0000    0.0000 C   0  0  0  0  0  0  0  0  0  0  0  0
    0.0000    0.0000    0.0000 C   0  0  0  0  0  0  0  0  0  0  0  0
    0.0000    0.0000    0.0000 O   0  0  0  0  0  0  0  0  0  0  0  0
    0.0000    0.0000    0.0000 C   0  0  0  0  0  0  0  0  0  0  0  0
  1 73  1  0  0  0  0
  1  2  1  0  0  0  0
  2  3  1  0  0  0  0
  2  4  1  0  0  0  0
  2  6  1  0  0  0  0
  4  5  1  0  0  0  0
  6  7  1  0  0  0  0
  6  8  1  0  0  0  0
  6  9  1  0  0  0  0
  9 10  1  0  0  0  0
  9 11  1  0  0  0  0
  9 12  1  0  0  0  0
 12 13  1  0  0  0  0
 12 14  1  0  0  0  0
 12 15  1  0  0  0  0
 15 16  2  0  0  0  0
 15 17  1  0  0  0  0
 17 18  1  0  0  0  0
 17 19  1  0  0  0  0
 17 75  1  0  0  0  0
 19 20  1  0  0  0  0
 20 21  1  0  0  0  0
 20 22  1  0  0  0  0
 20 23  1  0  0  0  0
 23 24  1  0  0  0  0
 23 25  1  0  0  0  0
 23 50  1  0  0  0  0
 25 26  1  0  0  0  0
 26 27  1  0  0  0  0
 26 37  1  0  0  0  0
 26 28  1  0  0  0  0
 28 29  1  0  0  0  0
 29 30  1  0  0  0  0
 29 31  1  0  0  0  0
 29 49  1  0  0  0  0
 31 32  1  0  0  0  0
 32 33  1  0  0  0  0
 32 34  1  0  0  0  0
 32 37  1  0  0  0  0
 34 35  1  0  0  0  0
 34 36  1  0  0  0  0
 37 38  1  0  0  0  0
 37 39  1  0  0  0  0
 39 40  1  0  0  0  0
 40 41  2  0  0  0  0
 40 42  1  0  0  0  0
 42 43  1  0  0  0  0
 43 44  1  0  0  0  0
 44 45  1  0  0  0  0
 44 48  2  0  0  0  0
 45 46  1  0  0  0  0
 46 47  1  0  0  0  0
 50 51  1  0  0  0  0
 50 52  1  0  0  0  0
 50 53  1  0  0  0  0
 53 54  1  0  0  0  0
 53 55  1  0  0  0  0
 53 70  1  0  0  0  0
 55 56  1  0  0  0  0
 56 57  1  0  0  0  0
 56 68  1  0  0  0  0
 56 58  1  0  0  0  0
 58 59  1  0  0  0  0
 59 60  1  0  0  0  0
 59 61  1  0  0  0  0
 59 62  1  0  0  0  0
 62 63  1  0  0  0  0
 62 64  1  0  0  0  0
 62 65  1  0  0  0  0
 65 66  1  0  0  0  0
 65 68  1  0  0  0  0
 65 69  1  0  0  0  0
 66 67  1  0  0  0  0
 70 71  1  0  0  0  0
 70 72  1  0  0  0  0
 70 73  1  0  0  0  0
 73 74  2  0  0  0  0
M  END
> <Index>
1550

> <ID>
HT0784

> <class>
1

> <apol>
139.62148

> <ast_fraglike>
0

> <ast_fraglike_ext>
0

> <ast_violation>
3

> <ast_violation_ext>
5

> <a_acc>
14

> <a_acid>
0

> <a_aro>
0

> <a_base>
0

> <a_count>
135

> <a_don>
4

> <a_donacc>
18

> <a_heavy>
60

> <a_hyd>
37

> <a_IC>
190.87932

> <a_ICM>
1.4139209

> <a_nB>
0

> <a_nBr>
0

> <a_nC>
43

> <a_nCl>
0

> <a_nF>
0

> <a_nH>
75

> <a_nI>
0

> <a_nN>
1

> <a_nO>
16

> <a_nP>
0

> <a_nS>
0

> <balabanJ>
2.200964

> <BCUT_PEOE_0>
-2.8162642

> <BCUT_PEOE_1>
-0.30031911

> <BCUT_PEOE_2>
0.17503683

> <BCUT_PEOE_3>
2.8425839

> <BCUT_SLOGP_0>
-2.9118032

> <BCUT_SLOGP_1>
-0.20520571

> <BCUT_SLOGP_2>
0.18963617

> <BCUT_SLOGP_3>
2.7734563

> <BCUT_SMR_0>
-2.5934765

> <BCUT_SMR_1>
-0.056199703

> <BCUT_SMR_2>
0.27312744

> <BCUT_SMR_3>
3.0561664

> <bpol>
103.13052

> <b_1rotN>
12

> <b_1rotR>
0.19354838

> <b_ar>
0

> <b_count>
137

> <b_double>
4

> <b_heavy>
62

> <b_max1len>
5

> <b_rotN>
14

> <b_rotR>
0.22580644

> <b_single>
133

> <b_triple>
0

> <chi0>
45.653606

> <chi0v>
38.245049

> <chi0v_C>
31.110001

> <chi0_C>
31.419403

> <chi1>
27.751217

> <chi1v>
21.491007

> <chi1v_C>
14.687829

> <chi1_C>
14.931194

> <chiral>
18

> <chiral_u>
0

> <density>
0.74018472

> <diameter>
19

> <FCharge>
0

> <GCUT_PEOE_0>
-0.85620856

> <GCUT_PEOE_1>
-0.36002153

> <GCUT_PEOE_2>
-0.095298372

> <GCUT_PEOE_3>
3.5881534

> <GCUT_SLOGP_0>
-0.96106601

> <GCUT_SLOGP_1>
-0.31758758

> <GCUT_SLOGP_2>
-0.037

> <GCUT_SLOGP_3>
3.5579062

> <GCUT_SMR_0>
-0.53521216

> <GCUT_SMR_1>
-0.15576439

> <GCUT_SMR_2>
-0.0029527918

> <GCUT_SMR_3>
3.7876911

> <Kier1>
54.334026

> <Kier2>
22.947855

> <Kier3>
13.540569

> <KierA1>
51.103378

> <KierA2>
21.56049

> <KierA3>
12.712675

> <KierFlex>
18.363565

> <lip_acc>
17

> <lip_don>
4

> <lip_druglike>
0

> <lip_violation>
2

> <logP(o/w)>
3.26174

> <logS>
-4.6713099

> <mr>
21.932316

> <mutagenic>
0

> <nmol>
1

> <opr_brigid>
26

> <opr_leadlike>
0

> <opr_nring>
2

> <opr_nrot>
29

> <opr_violation>
3

> <PC+>
0

> <PC->
0

> <PEOE_PC+>
6.1882415

> <PEOE_PC->
-6.1882415

> <PEOE_RPC+>
0.043283783

> <PEOE_RPC->
0.062728889

> <PEOE_VSA+0>
293.10916

> <PEOE_VSA+1>
108.36166

> <PEOE_VSA+2>
18.268377

> <PEOE_VSA+3>
22.309816

> <PEOE_VSA+4>
41.296692

> <PEOE_VSA+5>
44.125496

> <PEOE_VSA+6>
0.0

> <PEOE_VSA-0>
185.06738

> <PEOE_VSA-1>
93.738388

> <PEOE_VSA-2>
0.0

> <PEOE_VSA-3>
0.0

> <PEOE_VSA-4>
0.0

> <PEOE_VSA-5>
54.267685

> <PEOE_VSA-6>
51.100208

> <PEOE_VSA_FHYD>
0.79071885

> <PEOE_VSA_FNEG>
0.42140713

> <PEOE_VSA_FPNEG>
0.11557998

> <PEOE_VSA_FPOL>
0.20928115

> <PEOE_VSA_FPOS>
0.57859284

> <PEOE_VSA_FPPOS>
0.093701169

> <PEOE_VSA_HYD>
720.8548

> <PEOE_VSA_NEG>
384.17368

> <PEOE_VSA_PNEG>
105.3679

> <PEOE_VSA_POL>
190.79008

> <PEOE_VSA_POS>
527.47119

> <PEOE_VSA_PPOS>
85.422188

> <petitjean>
0.47368422

> <petitjeanSC>
0.89999998

> <Q_PC+>
0

> <Q_PC->
0

> <Q_RPC+>
0

> <Q_RPC->
0

> <Q_VSA_FHYD>
1

> <Q_VSA_FNEG>
0

> <Q_VSA_FPNEG>
0

> <Q_VSA_FPOL>
0

> <Q_VSA_FPOS>
1

> <Q_VSA_FPPOS>
0

> <Q_VSA_HYD>
911.6449

> <Q_VSA_NEG>
0

> <Q_VSA_PNEG>
0

> <Q_VSA_POL>
0

> <Q_VSA_POS>
911.6449

> <Q_VSA_PPOS>
0

> <radius>
10

> <reactive>
1

> <rings>
3

> <RPC+>
0

> <RPC->
0

> <rsynth>
0.69999999

> <SlogP>
2.6798

> <SlogP_VSA0>
101.54091

> <SlogP_VSA1>
32.048317

> <SlogP_VSA2>
256.23215

> <SlogP_VSA3>
20.926258

> <SlogP_VSA4>
17.643185

> <SlogP_VSA5>
101.17825

> <SlogP_VSA6>
0.0

> <SlogP_VSA7>
0.0

> <SlogP_VSA8>
113.21043

> <SlogP_VSA9>
366.58615

> <SMR>
21.599819

> <SMR_VSA0>
183.44797

> <SMR_VSA1>
104.66522

> <SMR_VSA2>
17.643185

> <SMR_VSA3>
72.784164

> <SMR_VSA4>
0.0

> <SMR_VSA5>
113.21043

> <SMR_VSA6>
49.850262

> <SMR_VSA7>
467.7644

> <TPSA>
226.28

> <VAdjEq>
0.2162127

> <VAdjMa>
6.9541965

> <VDistEq>
3.9705863

> <VDistMa>
11.597111

> <vdw_area>
911.6449

> <vdw_vol>
1164.6606

> <vsa_acc>
66.786461

> <vsa_acid>
0

> <vsa_base>
0

> <vsa_don>
0.0

> <vsa_hyd>
627.06158

> <vsa_other>
89.512283

> <vsa_pol>
121.05415

> <Weight>
862.06396

> <weinerPath>
14155

> <weinerPol>
113

> <zagreb>
310

$$$$
Row1550
 OpenBabel06061811532D

 66 68  0  0  1  0  0  0  0  0999 V2000
    0.0000    0.0000    0.0000 O   0  0  0  0  0  0  0  0  0  0  0  0
    0.0000    0.0000    0.0000 C   0  0  2  0  0  0  0  0  0  0  0  0
    0.0000    0.0000    0.0000 H   0  0  0  0  0  0  0  0  0  0  0  0
    0.0000    0.0000    0.0000 C   0  0  0  0  0  0  0  0  0  0  0  0
    0.0000    0.0000    0.0000 C   0  0  0  0  0  0  0  0  0  0  0  0
    0.0000    0.0000    0.0000 C   0  0  2  0  0  0  0  0  0  0  0  0
    0.0000    0.0000    0.0000 O   0  0  0  0  0  0  0  0  0  0  0  0
    0.0000    0.0000    0.0000 C   0  0  0  0  0  0  0  0  0  0  0  0
    0.0000    0.0000    0.0000 C   0  0  2  0  0  0  0  0  0  0  0  0
    0.0000    0.0000    0.0000 H   0  0  0  0  0  0  0  0  0  0  0  0
    0.0000    0.0000    0.0000 O   0  0  0  0  0  0  0  0  0  0  0  0
    0.0000    0.0000    0.0000 C   0  0  1  0  0  0  0  0  0  0  0  0
    0.0000    0.0000    0.0000 H   0  0  0  0  0  0  0  0  0  0  0  0
    0.0000    0.0000    0.0000 C   0  0  0  0  0  0  0  0  0  0  0  0
    0.0000    0.0000    0.0000 C   0  0  0  0  0  0  0  0  0  0  0  0
    0.0000    0.0000    0.0000 O   0  0  0  0  0  0  0  0  0  0  0  0
    0.0000    0.0000    0.0000 C   0  0  1  0  0  0  0  0  0  0  0  0
    0.0000    0.0000    0.0000 H   0  0  0  0  0  0  0  0  0  0  0  0
    0.0000    0.0000    0.0000 C   0  0  0  0  0  0  0  0  0  0  0  0
    0.0000    0.0000    0.0000 C   0  0  2  0  0  0  0  0  0  0  0  0
    0.0000    0.0000    0.0000 O   0  0  0  0  0  0  0  0  0  0  0  0
    0.0000    0.0000    0.0000 C   0  0  0  0  0  0  0  0  0  0  0  0
    0.0000    0.0000    0.0000 C   0  0  1  0  0  0  0  0  0  0  0  0
    0.0000    0.0000    0.0000 H   0  0  0  0  0  0  0  0  0  0  0  0
    0.0000    0.0000    0.0000 O   0  0  0  0  0  0  0  0  0  0  0  0
    0.0000    0.0000    0.0000 C   0  0  2  0  0  0  0  0  0  0  0  0
    0.0000    0.0000    0.0000 H   0  0  0  0  0  0  0  0  0  0  0  0
    0.0000    0.0000    0.0000 O   0  0  0  0  0  0  0  0  0  0  0  0
    0.0000    0.0000    0.0000 C   0  0  1  0  0  0  0  0  0  0  0  0
    0.0000    0.0000    0.0000 H   0  0  0  0  0  0  0  0  0  0  0  0
    0.0000    0.0000    0.0000 C   0  0  0  0  0  0  0  0  0  0  0  0
    0.0000    0.0000    0.0000 C   0  0  2  0  0  0  0  0  0  0  0  0
    0.0000    0.0000    0.0000 H   0  0  0  0  0  0  0  0  0  0  0  0
    0.0000    0.0000    0.0000 N   0  0  0  0  0  0  0  0  0  0  0  0
    0.0000    0.0000    0.0000 C   0  0  0  0  0  0  0  0  0  0  0  0
    0.0000    0.0000    0.0000 C   0  0  0  0  0  0  0  0  0  0  0  0
    0.0000    0.0000    0.0000 C   0  0  1  0  0  0  0  0  0  0  0  0
    0.0000    0.0000    0.0000 H   0  0  0  0  0  0  0  0  0  0  0  0
    0.0000    0.0000    0.0000 O   0  0  0  0  0  0  0  0  0  0  0  0
    0.0000    0.0000    0.0000 C   0  0  0  0  0  0  0  0  0  0  0  0
    0.0000    0.0000    0.0000 C   0  0  1  0  0  0  0  0  0  0  0  0
    0.0000    0.0000    0.0000 H   0  0  0  0  0  0  0  0  0  0  0  0
    0.0000    0.0000    0.0000 C   0  0  0  0  0  0  0  0  0  0  0  0
    0.0000    0.0000    0.0000 C   0  0  2  0  0  0  0  0  0  0  0  0
    0.0000    0.0000    0.0000 H   0  0  0  0  0  0  0  0  0  0  0  0
    0.0000    0.0000    0.0000 O   0  0  0  0  0  0  0  0  0  0  0  0
    0.0000    0.0000    0.0000 C   0  0  2  0  0  0  0  0  0  0  0  0
    0.0000    0.0000    0.0000 H   0  0  0  0  0  0  0  0  0  0  0  0
    0.0000    0.0000    0.0000 O   0  0  0  0  0  0  0  0  0  0  0  0
    0.0000    0.0000    0.0000 C   0  0  1  0  0  0  0  0  0  0  0  0
    0.0000    0.0000    0.0000 H   0  0  0  0  0  0  0  0  0  0  0  0
    0.0000    0.0000    0.0000 C   0  0  0  0  0  0  0  0  0  0  0  0
    0.0000    0.0000    0.0000 C   0  0  2  0  0  0  0  0  0  0  0  0
    0.0000    0.0000    0.0000 H   0  0  0  0  0  0  0  0  0  0  0  0
    0.0000    0.0000    0.0000 O   0  0  0  0  0  0  0  0  0  0  0  0
    0.0000    0.0000    0.0000 C   0  0  2  0  0  0  0  0  0  0  0  0
    0.0000    0.0000    0.0000 O   0  0  0  0  0  0  0  0  0  0  0  0
    0.0000    0.0000    0.0000 C   0  0  0  0  0  0  0  0  0  0  0  0
    0.0000    0.0000    0.0000 C   0  0  0  0  0  0  0  0  0  0  0  0
    0.0000    0.0000    0.0000 C   0  0  0  0  0  0  0  0  0  0  0  0
    0.0000    0.0000    0.0000 C   0  0  1  0  0  0  0  0  0  0  0  0
    0.0000    0.0000    0.0000 H   0  0  0  0  0  0  0  0  0  0  0  0
    0.0000    0.0000    0.0000 C   0  0  0  0  0  0  0  0  0  0  0  0
    0.0000    0.0000    0.0000 C   0  0  0  0  0  0  0  0  0  0  0  0
    0.0000    0.0000    0.0000 O   0  0  0  0  0  0  0  0  0  0  0  0
    0.0000    0.0000    0.0000 C   0  0  0  0  0  0  0  0  0  0  0  0
  1 64  1  0  0  0  0
  1  2  1  0  0  0  0
  2  3  1  0  0  0  0
  2  4  1  0  0  0  0
  2  6  1  0  0  0  0
  4  5  1  0  0  0  0
  6  7  1  0  0  0  0
  6  8  1  0  0  0  0
  6  9  1  0  0  0  0
  9 10  1  0  0  0  0
  9 11  1  0  0  0  0
  9 12  1  0  0  0  0
 12 13  1  0  0  0  0
 12 14  1  0  0  0  0
 12 15  1  0  0  0  0
 15 16  2  0  0  0  0
 15 17  1  0  0  0  0
 17 18  1  0  0  0  0
 17 19  1  0  0  0  0
 17 66  1  0  0  0  0
 19 20  1  0  0  0  0
 20 21  1  0  0  0  0
 20 22  1  0  0  0  0
 20 23  1  0  0  0  0
 23 24  1  0  0  0  0
 23 25  1  0  0  0  0
 23 41  1  0  0  0  0
 25 26  1  0  0  0  0
 26 27  1  0  0  0  0
 26 37  1  0  0  0  0
 26 28  1  0  0  0  0
 28 29  1  0  0  0  0
 29 30  1  0  0  0  0
 29 31  1  0  0  0  0
 29 40  1  0  0  0  0
 31 32  1  0  0  0  0
 32 33  1  0  0  0  0
 32 34  1  0  0  0  0
 32 37  1  0  0  0  0
 34 35  1  0  0  0  0
 34 36  1  0  0  0  0
 37 38  1  0  0  0  0
 37 39  1  0  0  0  0
 41 42  1  0  0  0  0
 41 43  1  0  0  0  0
 41 44  1  0  0  0  0
 44 45  1  0  0  0  0
 44 46  1  0  0  0  0
 44 61  1  0  0  0  0
 46 47  1  0  0  0  0
 47 48  1  0  0  0  0
 47 59  1  0  0  0  0
 47 49  1  0  0  0  0
 49 50  1  0  0  0  0
 50 51  1  0  0  0  0
 50 52  1  0  0  0  0
 50 53  1  0  0  0  0
 53 54  1  0  0  0  0
 53 55  1  0  0  0  0
 53 56  1  0  0  0  0
 56 57  1  0  0  0  0
 56 59  1  0  0  0  0
 56 60  1  0  0  0  0
 57 58  1  0  0  0  0
 61 62  1  0  0  0  0
 61 63  1  0  0  0  0
 61 64  1  0  0  0  0
 64 65  2  0  0  0  0
M  END
> <Index>
1551

> <ID>
HT0785

> <class>
1

> <apol>
121.32113

> <ast_fraglike>
0

> <ast_fraglike_ext>
0

> <ast_violation>
3

> <ast_violation_ext>
5

> <a_acc>
13

> <a_acid>
0

> <a_aro>
0

> <a_base>
0

> <a_count>
118

> <a_don>
5

> <a_donacc>
18

> <a_heavy>
51

> <a_hyd>
33

> <a_IC>
164.86841

> <a_ICM>
1.39719

> <a_nB>
0

> <a_nBr>
0

> <a_nC>
37

> <a_nCl>
0

> <a_nF>
0

> <a_nH>
67

> <a_nI>
0

> <a_nN>
1

> <a_nO>
13

> <a_nP>
0

> <a_nS>
0

> <balabanJ>
2.173291

> <BCUT_PEOE_0>
-2.8165276

> <BCUT_PEOE_1>
-0.43872455

> <BCUT_PEOE_2>
0.31393608

> <BCUT_PEOE_3>
2.841392

> <BCUT_SLOGP_0>
-2.9130328

> <BCUT_SLOGP_1>
-0.39585912

> <BCUT_SLOGP_2>
0.32290852

> <BCUT_SLOGP_3>
2.7729871

> <BCUT_SMR_0>
-2.5931668

> <BCUT_SMR_1>
-0.26328337

> <BCUT_SMR_2>
0.49131307

> <BCUT_SMR_3>
3.0551839

> <bpol>
88.636871

> <b_1rotN>
7

> <b_1rotR>
0.13207547

> <b_ar>
0

> <b_count>
120

> <b_double>
2

> <b_heavy>
53

> <b_max1len>
5

> <b_rotN>
7

> <b_rotR>
0.13207547

> <b_single>
118

> <b_triple>
0

> <chi0>
38.963371

> <chi0v>
32.93795

> <chi0v_C>
26.988682

> <chi0_C>
27.143381

> <chi1>
23.425518

> <chi1v>
18.494118

> <chi1v_C>
12.773616

> <chi1_C>
12.907591

> <chiral>
18

> <chiral_u>
0

> <density>
0.73179477

> <diameter>
14

> <FCharge>
0

> <GCUT_PEOE_0>
-0.85631549

> <GCUT_PEOE_1>
-0.32663924

> <GCUT_PEOE_2>
-0.078495085

> <GCUT_PEOE_3>
3.5400639

> <GCUT_SLOGP_0>
-0.96319818

> <GCUT_SLOGP_1>
-0.33563814

> <GCUT_SLOGP_2>
-0.037

> <GCUT_SLOGP_3>
3.5095558

> <GCUT_SMR_0>
-0.53529656

> <GCUT_SMR_1>
-0.20479083

> <GCUT_SMR_2>
0.074646778

> <GCUT_SMR_3>
3.7392793

> <Kier1>
45.38982

> <Kier2>
17.853956

> <Kier3>
10.062015

> <KierA1>
43.78574

> <KierA2>
17.21036

> <KierA3>
9.6942911

> <KierFlex>
14.77585

> <lip_acc>
14

> <lip_don>
5

> <lip_druglike>
0

> <lip_violation>
2

> <logP(o/w)>
2.7609999

> <logS>
-3.5613799

> <mr>
18.753395

> <mutagenic>
0

> <nmol>
1

> <opr_brigid>
26

> <opr_leadlike>
0

> <opr_nring>
2

> <opr_nrot>
24

> <opr_violation>
3

> <PC+>
0

> <PC->
0

> <PEOE_PC+>
5.38201

> <PEOE_PC->
-5.38201

> <PEOE_RPC+>
0.04976774

> <PEOE_RPC->
0.072125748

> <PEOE_VSA+0>
245.84885

> <PEOE_VSA+1>
84.879593

> <PEOE_VSA+2>
18.268377

> <PEOE_VSA+3>
22.309816

> <PEOE_VSA+4>
51.620865

> <PEOE_VSA+5>
14.708499

> <PEOE_VSA+6>
0.0

> <PEOE_VSA-0>
166.3197

> <PEOE_VSA-1>
93.738388

> <PEOE_VSA-2>
0.0

> <PEOE_VSA-3>
0.0

> <PEOE_VSA-4>
0.0

> <PEOE_VSA-5>
27.133842

> <PEOE_VSA-6>
53.860237

> <PEOE_VSA_FHYD>
0.81080562

> <PEOE_VSA_FNEG>
0.43798301

> <PEOE_VSA_FPNEG>
0.1040135

> <PEOE_VSA_FPOL>
0.1891944

> <PEOE_VSA_FPOS>
0.56201702

> <PEOE_VSA_FPPOS>
0.085180908

> <PEOE_VSA_HYD>
631.36475

> <PEOE_VSA_NEG>
341.05219

> <PEOE_VSA_PNEG>
80.99408

> <PEOE_VSA_POL>
147.32344

> <PEOE_VSA_POS>
437.63599

> <PEOE_VSA_PPOS>
66.329361

> <petitjean>
0.42857143

> <petitjeanSC>
0.75

> <Q_PC+>
0

> <Q_PC->
0

> <Q_RPC+>
0

> <Q_RPC->
0

> <Q_VSA_FHYD>
1

> <Q_VSA_FNEG>
0

> <Q_VSA_FPNEG>
0

> <Q_VSA_FPOL>
0

> <Q_VSA_FPOS>
1

> <Q_VSA_FPPOS>
0

> <Q_VSA_HYD>
778.68817

> <Q_VSA_NEG>
0

> <Q_VSA_PNEG>
0

> <Q_VSA_POL>
0

> <Q_VSA_POS>
778.68817

> <Q_VSA_PPOS>
0

> <radius>
8

> <reactive>
1

> <rings>
3

> <RPC+>
0

> <RPC->
0

> <rsynth>
0.64705884

> <SlogP>
1.7855999

> <SlogP_VSA0>
126.92613

> <SlogP_VSA1>
16.557388

> <SlogP_VSA2>
186.50793

> <SlogP_VSA3>
0.0

> <SlogP_VSA4>
17.643185

> <SlogP_VSA5>
101.17825

> <SlogP_VSA6>
0.0

> <SlogP_VSA7>
0.0

> <SlogP_VSA8>
75.473625

> <SlogP_VSA9>
333.26016

> <SMR>
18.625799

> <SMR_VSA0>
113.72376

> <SMR_VSA1>
130.05045

> <SMR_VSA2>
17.643185

> <SMR_VSA3>
72.784164

> <SMR_VSA4>
0.0

> <SMR_VSA5>
75.473625

> <SMR_VSA6>
13.433075

> <SMR_VSA7>
434.43839

> <TPSA>
193.91

> <VAdjEq>
0.24573661

> <VAdjMa>
6.7279205

> <VDistEq>
3.6785717

> <VDistMa>
11.136739

> <vdw_area>
778.68817

> <vdw_vol>
1002.9274

> <vsa_acc>
39.652622

> <vsa_acid>
0

> <vsa_base>
0

> <vsa_don>
0.0

> <vsa_hyd>
543.97766

> <vsa_other>
55.087772

> <vsa_pol>
107.48723

> <Weight>
733.93701

> <weinerPath>
8842

> <weinerPol>
101

> <zagreb>
270

$$$$
Row1551
 OpenBabel06061811532D

 25 27  0  0  0  0  0  0  0  0999 V2000
    0.0000    0.0000    0.0000 S   0  0  3  0  0  0  0  0  0  0  0  0
    0.0000    0.0000    0.0000 O   0  0  0  0  0  0  0  0  0  0  0  0
    0.0000    0.0000    0.0000 C   0  0  0  0  0  0  0  0  0  0  0  0
    0.0000    0.0000    0.0000 C   0  0  0  0  0  0  0  0  0  0  0  0
    0.0000    0.0000    0.0000 N   0  0  0  0  0  0  0  0  0  0  0  0
    0.0000    0.0000    0.0000 C   0  0  0  0  0  0  0  0  0  0  0  0
    0.0000    0.0000    0.0000 C   0  0  0  0  0  0  0  0  0  0  0  0
    0.0000    0.0000    0.0000 C   0  0  0  0  0  0  0  0  0  0  0  0
    0.0000    0.0000    0.0000 C   0  0  0  0  0  0  0  0  0  0  0  0
    0.0000    0.0000    0.0000 O   0  0  0  0  0  0  0  0  0  0  0  0
    0.0000    0.0000    0.0000 C   0  0  0  0  0  0  0  0  0  0  0  0
    0.0000    0.0000    0.0000 C   0  0  0  0  0  0  0  0  0  0  0  0
    0.0000    0.0000    0.0000 C   0  0  0  0  0  0  0  0  0  0  0  0
    0.0000    0.0000    0.0000 C   0  0  0  0  0  0  0  0  0  0  0  0
    0.0000    0.0000    0.0000 N   0  0  0  0  0  0  0  0  0  0  0  0
    0.0000    0.0000    0.0000 H   0  0  0  0  0  0  0  0  0  0  0  0
    0.0000    0.0000    0.0000 C   0  0  0  0  0  0  0  0  0  0  0  0
    0.0000    0.0000    0.0000 C   0  0  0  0  0  0  0  0  0  0  0  0
    0.0000    0.0000    0.0000 N   0  0  0  0  0  0  0  0  0  0  0  0
    0.0000    0.0000    0.0000 C   0  0  0  0  0  0  0  0  0  0  0  0
    0.0000    0.0000    0.0000 C   0  0  0  0  0  0  0  0  0  0  0  0
    0.0000    0.0000    0.0000 O   0  0  0  0  0  0  0  0  0  0  0  0
    0.0000    0.0000    0.0000 C   0  0  0  0  0  0  0  0  0  0  0  0
    0.0000    0.0000    0.0000 C   0  0  0  0  0  0  0  0  0  0  0  0
    0.0000    0.0000    0.0000 C   0  0  0  0  0  0  0  0  0  0  0  0
  1  2  2  0  0  0  0
  1  3  1  0  0  0  0
  1 14  1  0  0  0  0
  3  4  1  0  0  0  0
  4 12  1  0  0  0  0
  4  5  2  0  0  0  0
  5  6  1  0  0  0  0
  6  7  2  0  0  0  0
  7  8  1  0  0  0  0
  7  9  1  0  0  0  0
  9 10  1  0  0  0  0
  9 12  2  0  0  0  0
 10 11  1  0  0  0  0
 12 13  1  0  0  0  0
 14 19  2  0  0  0  0
 14 15  1  0  0  0  0
 15 16  1  0  0  0  0
 15 17  1  0  0  0  0
 17 25  1  0  0  0  0
 17 18  2  0  0  0  0
 18 19  1  0  0  0  0
 18 20  1  0  0  0  0
 20 21  2  0  0  0  0
 21 22  1  0  0  0  0
 21 24  1  0  0  0  0
 22 23  1  0  0  0  0
 24 25  2  0  0  0  0
M  END
> <Index>
1552

> <ID>
HT0788

> <class>
1

> <apol>
51.195068

> <ast_fraglike>
0

> <ast_fraglike_ext>
0

> <ast_violation>
3

> <ast_violation_ext>
4

> <a_acc>
6

> <a_acid>
0

> <a_aro>
15

> <a_base>
0

> <a_count>
43

> <a_don>
2

> <a_donacc>
8

> <a_heavy>
24

> <a_hyd>
16

> <a_IC>
73.622116

> <a_ICM>
1.7121422

> <a_nB>
0

> <a_nBr>
0

> <a_nC>
17

> <a_nCl>
0

> <a_nF>
0

> <a_nH>
19

> <a_nI>
0

> <a_nN>
3

> <a_nO>
3

> <a_nP>
0

> <a_nS>
1

> <balabanJ>
1.5352314

> <BCUT_PEOE_0>
-2.3781588

> <BCUT_PEOE_1>
-0.56377584

> <BCUT_PEOE_2>
0.45089063

> <BCUT_PEOE_3>
2.4481535

> <BCUT_SLOGP_0>
-2.3156435

> <BCUT_SLOGP_1>
-0.50863194

> <BCUT_SLOGP_2>
0.56897813

> <BCUT_SLOGP_3>
2.5246389

> <BCUT_SMR_0>
-2.1045735

> <BCUT_SMR_1>
-0.33206865

> <BCUT_SMR_2>
0.66446382

> <BCUT_SMR_3>
2.7338138

> <bpol>
32.280933

> <b_1rotN>
5

> <b_1rotR>
0.1923077

> <b_ar>
16

> <b_count>
45

> <b_double>
0

> <b_heavy>
26

> <b_max1len>
3

> <b_rotN>
5

> <b_rotR>
0.1923077

> <b_single>
29

> <b_triple>
0

> <chi0>
17.26722

> <chi0v>
14.860425

> <chi0v_C>
11.016508

> <chi0_C>
12.154336

> <chi1>
11.528407

> <chi1v>
8.7624245

> <chi1v_C>
4.1302624

> <chi1_C>
5.4375238

> <chiral>
0

> <chiral_u>
0

> <density>
0.77580321

> <diameter>
13

> <FCharge>
0

> <GCUT_PEOE_0>
-0.84838802

> <GCUT_PEOE_1>
-0.42562145

> <GCUT_PEOE_2>
-0.058513351

> <GCUT_PEOE_3>
2.5274158

> <GCUT_SLOGP_0>
-0.88723654

> <GCUT_SLOGP_1>
-0.31157309

> <GCUT_SLOGP_2>
0.10341401

> <GCUT_SLOGP_3>
2.623554

> <GCUT_SMR_0>
-0.48655948

> <GCUT_SMR_1>
-0.15479371

> <GCUT_SMR_2>
0.11814021

> <GCUT_SMR_3>
2.8099623

> <Kier1>
18.781065

> <Kier2>
8.1314831

> <Kier3>
4.0655999

> <KierA1>
15.237963

> <KierA2>
6.5336437

> <KierA3>
3.2439153

> <KierFlex>
4.1483092

> <lip_acc>
6

> <lip_don>
1

> <lip_druglike>
1

> <lip_violation>
0

> <logP(o/w)>
1.3150001

> <logS>
-3.78087

> <mr>
9.5173721

> <mutagenic>
0

> <nmol>
1

> <opr_brigid>
16

> <opr_leadlike>
1

> <opr_nring>
3

> <opr_nrot>
5

> <opr_violation>
0

> <PC+>
0

> <PC->
0

> <PEOE_PC+>
2.1819289

> <PEOE_PC->
-2.1819289

> <PEOE_RPC+>
0.14885092

> <PEOE_RPC->
0.27986419

> <PEOE_VSA+0>
107.67879

> <PEOE_VSA+1>
88.200325

> <PEOE_VSA+2>
0.0

> <PEOE_VSA+3>
19.296389

> <PEOE_VSA+4>
0.0

> <PEOE_VSA+5>
0.0

> <PEOE_VSA+6>
13.166624

> <PEOE_VSA-0>
76.468605

> <PEOE_VSA-1>
0.0

> <PEOE_VSA-2>
0.0

> <PEOE_VSA-3>
5.6825762

> <PEOE_VSA-4>
0.0

> <PEOE_VSA-5>
5.8194671

> <PEOE_VSA-6>
21.015774

> <PEOE_VSA_FHYD>
0.88141572

> <PEOE_VSA_FNEG>
0.32308686

> <PEOE_VSA_FPNEG>
0.079552233

> <PEOE_VSA_FPOL>
0.11858428

> <PEOE_VSA_FPOS>
0.67691314

> <PEOE_VSA_FPPOS>
0.039032049

> <PEOE_VSA_HYD>
297.32669

> <PEOE_VSA_NEG>
108.98643

> <PEOE_VSA_PNEG>
26.835241

> <PEOE_VSA_POL>
40.001865

> <PEOE_VSA_POS>
228.34213

> <PEOE_VSA_PPOS>
13.166624

> <petitjean>
0.46153846

> <petitjeanSC>
0.85714287

> <Q_PC+>
0

> <Q_PC->
0

> <Q_RPC+>
0

> <Q_RPC->
0

> <Q_VSA_FHYD>
1

> <Q_VSA_FNEG>
0

> <Q_VSA_FPNEG>
0

> <Q_VSA_FPOL>
0

> <Q_VSA_FPOS>
1

> <Q_VSA_FPPOS>
0

> <Q_VSA_HYD>
337.32855

> <Q_VSA_NEG>
0

> <Q_VSA_PNEG>
0

> <Q_VSA_POL>
0

> <Q_VSA_POS>
337.32855

> <Q_VSA_PPOS>
0

> <radius>
7

> <reactive>
0

> <rings>
3

> <RPC+>
0

> <RPC->
0

> <rsynth>
1.0

> <SlogP>
3.1661401

> <SlogP_VSA0>
21.999775

> <SlogP_VSA1>
57.656902

> <SlogP_VSA2>
36.334934

> <SlogP_VSA3>
0.0

> <SlogP_VSA4>
9.1278973

> <SlogP_VSA5>
71.460815

> <SlogP_VSA6>
0.0

> <SlogP_VSA7>
74.432182

> <SlogP_VSA8>
0.0

> <SlogP_VSA9>
94.372452

> <SMR>
9.3226099

> <SMR_VSA0>
24.085844

> <SMR_VSA1>
55.570835

> <SMR_VSA2>
17.478609

> <SMR_VSA3>
19.614754

> <SMR_VSA4>
4.2882738

> <SMR_VSA5>
87.377472

> <SMR_VSA6>
0.0

> <SMR_VSA7>
156.96918

> <TPSA>
96.309998

> <VAdjEq>
0.43739632

> <VAdjMa>
5.7004399

> <VDistEq>
3.4547644

> <VDistMa>
8.8573732

> <vdw_area>
337.32855

> <vdw_vol>
445.24567

> <vsa_acc>
26.698349

> <vsa_acid>
0

> <vsa_base>
0

> <vsa_don>
0.0

> <vsa_hyd>
257.07608

> <vsa_other>
26.303333

> <vsa_pol>
38.063503

> <Weight>
345.423

> <weinerPath>
1419

> <weinerPol>
39

> <zagreb>
126

$$$$
Row1552
 OpenBabel06061811532D

 27 30  0  0  1  0  0  0  0  0999 V2000
    0.0000    0.0000    0.0000 O   0  0  0  0  0  0  0  0  0  0  0  0
    0.0000    0.0000    0.0000 C   0  0  0  0  0  0  0  0  0  0  0  0
    0.0000    0.0000    0.0000 O   0  0  0  0  0  0  0  0  0  0  0  0
    0.0000    0.0000    0.0000 C   0  0  0  0  0  0  0  0  0  0  0  0
    0.0000    0.0000    0.0000 C   0  0  0  0  0  0  0  0  0  0  0  0
    0.0000    0.0000    0.0000 C   0  0  0  0  0  0  0  0  0  0  0  0
    0.0000    0.0000    0.0000 C   0  0  0  0  0  0  0  0  0  0  0  0
    0.0000    0.0000    0.0000 C   0  0  0  0  0  0  0  0  0  0  0  0
    0.0000    0.0000    0.0000 C   0  0  0  0  0  0  0  0  0  0  0  0
    0.0000    0.0000    0.0000 C   0  0  1  0  0  0  0  0  0  0  0  0
    0.0000    0.0000    0.0000 H   0  0  0  0  0  0  0  0  0  0  0  0
    0.0000    0.0000    0.0000 C   0  0  2  0  0  0  0  0  0  0  0  0
    0.0000    0.0000    0.0000 H   0  0  0  0  0  0  0  0  0  0  0  0
    0.0000    0.0000    0.0000 C   0  0  0  0  0  0  0  0  0  0  0  0
    0.0000    0.0000    0.0000 C   0  0  0  0  0  0  0  0  0  0  0  0
    0.0000    0.0000    0.0000 C   0  0  2  0  0  0  0  0  0  0  0  0
    0.0000    0.0000    0.0000 H   0  0  0  0  0  0  0  0  0  0  0  0
    0.0000    0.0000    0.0000 O   0  0  0  0  0  0  0  0  0  0  0  0
    0.0000    0.0000    0.0000 C   0  0  1  0  0  0  0  0  0  0  0  0
    0.0000    0.0000    0.0000 C   0  0  0  0  0  0  0  0  0  0  0  0
    0.0000    0.0000    0.0000 C   0  0  0  0  0  0  0  0  0  0  0  0
    0.0000    0.0000    0.0000 C   0  0  2  0  0  0  0  0  0  0  0  0
    0.0000    0.0000    0.0000 H   0  0  0  0  0  0  0  0  0  0  0  0
    0.0000    0.0000    0.0000 C   0  0  0  0  0  0  0  0  0  0  0  0
    0.0000    0.0000    0.0000 C   0  0  0  0  0  0  0  0  0  0  0  0
    0.0000    0.0000    0.0000 C   0  0  0  0  0  0  0  0  0  0  0  0
    0.0000    0.0000    0.0000 C   0  0  0  0  0  0  0  0  0  0  0  0
  1  2  1  0  0  0  0
  1  5  1  0  0  0  0
  2  3  2  0  0  0  0
  2  4  1  0  0  0  0
  5 26  1  0  0  0  0
  5  6  2  0  0  0  0
  6  7  1  0  0  0  0
  7 24  2  0  0  0  0
  7  8  1  0  0  0  0
  8  9  1  0  0  0  0
  9 10  1  0  0  0  0
 10 11  1  0  0  0  0
 10 22  1  0  0  0  0
 10 12  1  0  0  0  0
 12 13  1  0  0  0  0
 12 19  1  0  0  0  0
 12 14  1  0  0  0  0
 14 15  1  0  0  0  0
 15 16  1  0  0  0  0
 16 17  1  0  0  0  0
 16 18  1  0  0  0  0
 16 19  1  0  0  0  0
 19 20  1  0  0  0  0
 19 27  1  0  0  0  0
 20 21  1  0  0  0  0
 21 22  1  0  0  0  0
 22 23  1  0  0  0  0
 22 24  1  0  0  0  0
 24 25  1  0  0  0  0
 25 26  2  0  0  0  0
M  END
> <Index>
1553

> <ID>
HT0791

> <class>
1

> <apol>
54.942619

> <ast_fraglike>
0

> <ast_fraglike_ext>
0

> <ast_violation>
2

> <ast_violation_ext>
2

> <a_acc>
2

> <a_acid>
0

> <a_aro>
6

> <a_base>
0

> <a_count>
49

> <a_don>
1

> <a_donacc>
3

> <a_heavy>
23

> <a_hyd>
19

> <a_IC>
61.7159

> <a_ICM>
1.2595081

> <a_nB>
0

> <a_nBr>
0

> <a_nC>
20

> <a_nCl>
0

> <a_nF>
0

> <a_nH>
26

> <a_nI>
0

> <a_nN>
0

> <a_nO>
3

> <a_nP>
0

> <a_nS>
0

> <balabanJ>
1.4644189

> <BCUT_PEOE_0>
-2.8853319

> <BCUT_PEOE_1>
-0.49279213

> <BCUT_PEOE_2>
0.53320277

> <BCUT_PEOE_3>
2.9270797

> <BCUT_SLOGP_0>
-2.8038101

> <BCUT_SLOGP_1>
-0.4201979

> <BCUT_SLOGP_2>
0.51692671

> <BCUT_SLOGP_3>
3.0056007

> <BCUT_SMR_0>
-2.6303492

> <BCUT_SMR_1>
-0.37739009

> <BCUT_SMR_2>
0.64806056

> <BCUT_SMR_3>
3.1789644

> <bpol>
31.297382

> <b_1rotN>
1

> <b_1rotR>
0.03846154

> <b_ar>
6

> <b_count>
52

> <b_double>
1

> <b_heavy>
26

> <b_max1len>
3

> <b_rotN>
2

> <b_rotR>
0.07692308

> <b_single>
45

> <b_triple>
0

> <chi0>
16.189871

> <chi0v>
14.047803

> <chi0v_C>
12.784093

> <chi0_C>
13.482763

> <chi1>
10.987019

> <chi1v>
8.9813976

> <chi1v_C>
8.1108255

> <chi1_C>
9.0158215

> <chiral>
5

> <chiral_u>
0

> <density>
0.69941753

> <diameter>
12

> <FCharge>
0

> <GCUT_PEOE_0>
-0.80335838

> <GCUT_PEOE_1>
-0.41831952

> <GCUT_PEOE_2>
0.027756874

> <GCUT_PEOE_3>
3.1250448

> <GCUT_SLOGP_0>
-0.91095483

> <GCUT_SLOGP_1>
-0.32236725

> <GCUT_SLOGP_2>
0.05133241

> <GCUT_SLOGP_3>
3.2221277

> <GCUT_SMR_0>
-0.53566158

> <GCUT_SMR_1>
-0.21507701

> <GCUT_SMR_2>
0.12983298

> <GCUT_SMR_3>
3.3609958

> <Kier1>
16.467455

> <Kier2>
6.0637498

> <Kier3>
2.7085257

> <KierA1>
14.191137

> <KierA2>
5.1882439

> <KierA3>
2.3049114

> <KierFlex>
3.2011774

> <lip_acc>
3

> <lip_don>
1

> <lip_druglike>
1

> <lip_violation>
0

> <logP(o/w)>
4.092

> <logS>
-4.9338598

> <mr>
8.9502029

> <mutagenic>
0

> <nmol>
1

> <opr_brigid>
20

> <opr_leadlike>
1

> <opr_nring>
4

> <opr_nrot>
1

> <opr_violation>
0

> <PC+>
0

> <PC->
0

> <PEOE_PC+>
1.4982027

> <PEOE_PC->
-1.4982027

> <PEOE_RPC+>
0.17620836

> <PEOE_RPC->
0.26113868

> <PEOE_VSA+0>
108.32079

> <PEOE_VSA+1>
30.424992

> <PEOE_VSA+2>
0.0

> <PEOE_VSA+3>
0.0

> <PEOE_VSA+4>
10.324173

> <PEOE_VSA+5>
14.708499

> <PEOE_VSA+6>
0.0

> <PEOE_VSA-0>
81.134766

> <PEOE_VSA-1>
31.002581

> <PEOE_VSA-2>
0.0

> <PEOE_VSA-3>
0.0

> <PEOE_VSA-4>
0.0

> <PEOE_VSA-5>
16.070677

> <PEOE_VSA-6>
7.7675405

> <PEOE_VSA_FHYD>
0.83696336

> <PEOE_VSA_FNEG>
0.45362383

> <PEOE_VSA_FPNEG>
0.079525933

> <PEOE_VSA_FPOL>
0.16303664

> <PEOE_VSA_FPOS>
0.54637617

> <PEOE_VSA_FPPOS>
0.083510712

> <PEOE_VSA_HYD>
250.88312

> <PEOE_VSA_NEG>
135.97557

> <PEOE_VSA_PNEG>
23.838217

> <PEOE_VSA_POL>
48.870888

> <PEOE_VSA_POS>
163.77844

> <PEOE_VSA_PPOS>
25.032671

> <petitjean>
0.5

> <petitjeanSC>
1.0

> <Q_PC+>
0

> <Q_PC->
0

> <Q_RPC+>
0

> <Q_RPC->
0

> <Q_VSA_FHYD>
1

> <Q_VSA_FNEG>
0

> <Q_VSA_FPNEG>
0

> <Q_VSA_FPOL>
0

> <Q_VSA_FPOS>
1

> <Q_VSA_FPPOS>
0

> <Q_VSA_HYD>
299.75403

> <Q_VSA_NEG>
0

> <Q_VSA_PNEG>
0

> <Q_VSA_POL>
0

> <Q_VSA_POS>
299.75403

> <Q_VSA_PPOS>
0

> <radius>
6

> <reactive>
0

> <rings>
4

> <RPC+>
0

> <RPC->
0

> <rsynth>
0.43478259

> <SlogP>
3.8288701

> <SlogP_VSA0>
36.385113

> <SlogP_VSA1>
7.7454643

> <SlogP_VSA2>
30.330866

> <SlogP_VSA3>
0.0

> <SlogP_VSA4>
15.192742

> <SlogP_VSA5>
18.868406

> <SlogP_VSA6>
4.4107962

> <SlogP_VSA7>
52.929554

> <SlogP_VSA8>
94.342026

> <SlogP_VSA9>
71.895454

> <SMR>
8.8374796

> <SMR_VSA0>
23.862217

> <SMR_VSA1>
36.385113

> <SMR_VSA2>
8.8215923

> <SMR_VSA3>
22.494022

> <SMR_VSA4>
0.0

> <SMR_VSA5>
166.13998

> <SMR_VSA6>
7.7454643

> <SMR_VSA7>
66.652031

> <TPSA>
46.529999

> <VAdjEq>
0.46357921

> <VAdjMa>
5.7004399

> <VDistEq>
3.2822671

> <VDistMa>
8.732482

> <vdw_area>
299.75403

> <vdw_vol>
449.55261

> <vsa_acc>
13.566921

> <vsa_acid>
0

> <vsa_base>
0

> <vsa_don>
0.0

> <vsa_hyd>
229.05309

> <vsa_other>
17.212255

> <vsa_pol>
27.133842

> <Weight>
314.42499

> <weinerPath>
1152

> <weinerPol>
43

> <zagreb>
132

$$$$
Row1553
 OpenBabel06061811532D

 33 37  0  0  1  0  0  0  0  0999 V2000
    0.0000    0.0000    0.0000 O   0  0  0  0  0  0  0  0  0  0  0  0
    0.0000    0.0000    0.0000 C   0  0  0  0  0  0  0  0  0  0  0  0
    0.0000    0.0000    0.0000 C   0  0  0  0  0  0  0  0  0  0  0  0
    0.0000    0.0000    0.0000 C   0  0  0  0  0  0  0  0  0  0  0  0
    0.0000    0.0000    0.0000 C   0  0  0  0  0  0  0  0  0  0  0  0
    0.0000    0.0000    0.0000 C   0  0  0  0  0  0  0  0  0  0  0  0
    0.0000    0.0000    0.0000 C   0  0  1  0  0  0  0  0  0  0  0  0
    0.0000    0.0000    0.0000 H   0  0  0  0  0  0  0  0  0  0  0  0
    0.0000    0.0000    0.0000 C   0  0  2  0  0  0  0  0  0  0  0  0
    0.0000    0.0000    0.0000 H   0  0  0  0  0  0  0  0  0  0  0  0
    0.0000    0.0000    0.0000 C   0  0  0  0  0  0  0  0  0  0  0  0
    0.0000    0.0000    0.0000 C   0  0  0  0  0  0  0  0  0  0  0  0
    0.0000    0.0000    0.0000 C   0  0  2  0  0  0  0  0  0  0  0  0
    0.0000    0.0000    0.0000 H   0  0  0  0  0  0  0  0  0  0  0  0
    0.0000    0.0000    0.0000 O   0  0  0  0  0  0  0  0  0  0  0  0
    0.0000    0.0000    0.0000 C   0  0  0  0  0  0  0  0  0  0  0  0
    0.0000    0.0000    0.0000 O   0  0  0  0  0  0  0  0  0  0  0  0
    0.0000    0.0000    0.0000 C   0  0  0  0  0  0  0  0  0  0  0  0
    0.0000    0.0000    0.0000 C   0  0  0  0  0  0  0  0  0  0  0  0
    0.0000    0.0000    0.0000 C   0  0  0  0  0  0  0  0  0  0  0  0
    0.0000    0.0000    0.0000 C   0  0  0  0  0  0  0  0  0  0  0  0
    0.0000    0.0000    0.0000 C   0  0  0  0  0  0  0  0  0  0  0  0
    0.0000    0.0000    0.0000 C   0  0  0  0  0  0  0  0  0  0  0  0
    0.0000    0.0000    0.0000 C   0  0  0  0  0  0  0  0  0  0  0  0
    0.0000    0.0000    0.0000 C   0  0  1  0  0  0  0  0  0  0  0  0
    0.0000    0.0000    0.0000 C   0  0  0  0  0  0  0  0  0  0  0  0
    0.0000    0.0000    0.0000 C   0  0  0  0  0  0  0  0  0  0  0  0
    0.0000    0.0000    0.0000 C   0  0  2  0  0  0  0  0  0  0  0  0
    0.0000    0.0000    0.0000 H   0  0  0  0  0  0  0  0  0  0  0  0
    0.0000    0.0000    0.0000 C   0  0  0  0  0  0  0  0  0  0  0  0
    0.0000    0.0000    0.0000 C   0  0  0  0  0  0  0  0  0  0  0  0
    0.0000    0.0000    0.0000 C   0  0  0  0  0  0  0  0  0  0  0  0
    0.0000    0.0000    0.0000 C   0  0  0  0  0  0  0  0  0  0  0  0
  1  2  1  0  0  0  0
  2 32  1  0  0  0  0
  2  3  2  0  0  0  0
  3  4  1  0  0  0  0
  4 30  2  0  0  0  0
  4  5  1  0  0  0  0
  5  6  1  0  0  0  0
  6  7  1  0  0  0  0
  7  8  1  0  0  0  0
  7 28  1  0  0  0  0
  7  9  1  0  0  0  0
  9 10  1  0  0  0  0
  9 25  1  0  0  0  0
  9 11  1  0  0  0  0
 11 12  1  0  0  0  0
 12 13  1  0  0  0  0
 13 14  1  0  0  0  0
 13 15  1  0  0  0  0
 13 25  1  0  0  0  0
 15 16  1  0  0  0  0
 16 17  2  0  0  0  0
 16 18  1  0  0  0  0
 18 19  1  0  0  0  0
 19 20  1  0  0  0  0
 20 24  1  0  0  0  0
 20 21  1  0  0  0  0
 21 22  1  0  0  0  0
 22 23  1  0  0  0  0
 23 24  1  0  0  0  0
 25 26  1  0  0  0  0
 25 33  1  0  0  0  0
 26 27  1  0  0  0  0
 27 28  1  0  0  0  0
 28 29  1  0  0  0  0
 28 30  1  0  0  0  0
 30 31  1  0  0  0  0
 31 32  2  0  0  0  0
M  END
> <Index>
1554

> <ID>
HT0792

> <class>
1

> <apol>
72.170547

> <ast_fraglike>
0

> <ast_fraglike_ext>
0

> <ast_violation>
2

> <ast_violation_ext>
3

> <a_acc>
2

> <a_acid>
0

> <a_aro>
6

> <a_base>
0

> <a_count>
65

> <a_don>
1

> <a_donacc>
3

> <a_heavy>
29

> <a_hyd>
25

> <a_IC>
78.370285

> <a_ICM>
1.2056967

> <a_nB>
0

> <a_nBr>
0

> <a_nC>
26

> <a_nCl>
0

> <a_nF>
0

> <a_nH>
36

> <a_nI>
0

> <a_nN>
0

> <a_nO>
3

> <a_nP>
0

> <a_nS>
0

> <balabanJ>
1.1966935

> <BCUT_PEOE_0>
-2.8850751

> <BCUT_PEOE_1>
-0.53641564

> <BCUT_PEOE_2>
0.57207286

> <BCUT_PEOE_3>
2.9308689

> <BCUT_SLOGP_0>
-2.803349

> <BCUT_SLOGP_1>
-0.44447377

> <BCUT_SLOGP_2>
0.64783257

> <BCUT_SLOGP_3>
3.007792

> <BCUT_SMR_0>
-2.63064

> <BCUT_SMR_1>
-0.41663826

> <BCUT_SMR_2>
0.69440979

> <BCUT_SMR_3>
3.1813464

> <bpol>
42.22945

> <b_1rotN>
4

> <b_1rotR>
0.12121212

> <b_ar>
6

> <b_count>
69

> <b_double>
1

> <b_heavy>
33

> <b_max1len>
4

> <b_rotN>
5

> <b_rotR>
0.15151516

> <b_single>
62

> <b_triple>
0

> <chi0>
20.009861

> <chi0v>
17.867794

> <chi0v_C>
16.604084

> <chi0_C>
17.302753

> <chi1>
14.042662

> <chi1v>
12.056682

> <chi1v_C>
11.189124

> <chi1_C>
12.071465

> <chiral>
5

> <chiral_u>
0

> <density>
0.68112242

> <diameter>
16

> <FCharge>
0

> <GCUT_PEOE_0>
-0.8021822

> <GCUT_PEOE_1>
-0.38241532

> <GCUT_PEOE_2>
0.043342926

> <GCUT_PEOE_3>
3.2246146

> <GCUT_SLOGP_0>
-0.85166276

> <GCUT_SLOGP_1>
-0.27432188

> <GCUT_SLOGP_2>
0.11309859

> <GCUT_SLOGP_3>
3.3182366

> <GCUT_SMR_0>
-0.53913105

> <GCUT_SMR_1>
-0.21517374

> <GCUT_SMR_2>
0.14779659

> <GCUT_SMR_3>
3.4555423

> <Kier1>
20.877869

> <Kier2>
8.5014582

> <Kier3>
3.9756353

> <KierA1>
18.579655

> <KierA2>
7.5327387

> <KierA3>
3.5113406

> <KierFlex>
4.8260579

> <lip_acc>
3

> <lip_don>
1

> <lip_druglike>
1

> <lip_violation>
1

> <logP(o/w)>
6.5469999

> <logS>
-7.51229

> <mr>
11.525579

> <mutagenic>
0

> <nmol>
1

> <opr_brigid>
25

> <opr_leadlike>
0

> <opr_nring>
5

> <opr_nrot>
5

> <opr_violation>
2

> <PC+>
0

> <PC->
0

> <PEOE_PC+>
1.7880392

> <PEOE_PC->
-1.7880392

> <PEOE_RPC+>
0.14677541

> <PEOE_RPC->
0.20123924

> <PEOE_VSA+0>
140.92828

> <PEOE_VSA+1>
30.424992

> <PEOE_VSA+2>
0.0

> <PEOE_VSA+3>
0.0

> <PEOE_VSA+4>
10.324173

> <PEOE_VSA+5>
14.708499

> <PEOE_VSA+6>
0.0

> <PEOE_VSA-0>
89.836082

> <PEOE_VSA-1>
65.807831

> <PEOE_VSA-2>
0.0

> <PEOE_VSA-3>
0.0

> <PEOE_VSA-4>
0.0

> <PEOE_VSA-5>
13.566921

> <PEOE_VSA-6>
10.271297

> <PEOE_VSA_FHYD>
0.86997861

> <PEOE_VSA_FNEG>
0.47751364

> <PEOE_VSA_FPNEG>
0.063421763

> <PEOE_VSA_FPOL>
0.13002139

> <PEOE_VSA_FPOS>
0.52248639

> <PEOE_VSA_FPPOS>
0.066599622

> <PEOE_VSA_HYD>
326.99719

> <PEOE_VSA_NEG>
179.48213

> <PEOE_VSA_PNEG>
23.838217

> <PEOE_VSA_POL>
48.870888

> <PEOE_VSA_POS>
196.38594

> <PEOE_VSA_PPOS>
25.032671

> <petitjean>
0.5

> <petitjeanSC>
1.0

> <Q_PC+>
0

> <Q_PC->
0

> <Q_RPC+>
0

> <Q_RPC->
0

> <Q_VSA_FHYD>
1

> <Q_VSA_FNEG>
0

> <Q_VSA_FPNEG>
0

> <Q_VSA_FPOL>
0

> <Q_VSA_FPOS>
1

> <Q_VSA_FPPOS>
0

> <Q_VSA_HYD>
375.86807

> <Q_VSA_NEG>
0

> <Q_VSA_PNEG>
0

> <Q_VSA_POL>
0

> <Q_VSA_POS>
375.86807

> <Q_VSA_PPOS>
0

> <radius>
8

> <reactive>
0

> <rings>
5

> <RPC+>
0

> <RPC->
0

> <rsynth>
0.55172414

> <SlogP>
6.1304698

> <SlogP_VSA0>
25.385227

> <SlogP_VSA1>
7.7454643

> <SlogP_VSA2>
41.330753

> <SlogP_VSA3>
0.0

> <SlogP_VSA4>
19.603539

> <SlogP_VSA5>
18.868406

> <SlogP_VSA6>
4.4107962

> <SlogP_VSA7>
52.929554

> <SlogP_VSA8>
207.55246

> <SlogP_VSA9>
38.569443

> <SMR>
11.37958

> <SMR_VSA0>
34.862103

> <SMR_VSA1>
25.385227

> <SMR_VSA2>
13.232388

> <SMR_VSA3>
22.494022

> <SMR_VSA4>
0.0

> <SMR_VSA5>
279.35043

> <SMR_VSA6>
7.7454643

> <SMR_VSA7>
33.326015

> <TPSA>
46.529999

> <VAdjEq>
0.39679351

> <VAdjMa>
6.044394

> <VDistEq>
3.6937017

> <VDistMa>
9.3905182

> <vdw_area>
375.86807

> <vdw_vol>
582.23163

> <vsa_acc>
13.566921

> <vsa_acid>
0

> <vsa_base>
0

> <vsa_don>
0.0

> <vsa_hyd>
296.70413

> <vsa_other>
17.212255

> <vsa_pol>
27.133842

> <Weight>
396.57098

> <weinerPath>
2367

> <weinerPol>
50

> <zagreb>
164

$$$$
Row1554
 OpenBabel06061811532D

 30 33  0  0  1  0  0  0  0  0999 V2000
    0.0000    0.0000    0.0000 O   0  0  0  0  0  0  0  0  0  0  0  0
    0.0000    0.0000    0.0000 C   0  0  0  0  0  0  0  0  0  0  0  0
    0.0000    0.0000    0.0000 C   0  0  0  0  0  0  0  0  0  0  0  0
    0.0000    0.0000    0.0000 C   0  0  0  0  0  0  0  0  0  0  0  0
    0.0000    0.0000    0.0000 C   0  0  0  0  0  0  0  0  0  0  0  0
    0.0000    0.0000    0.0000 C   0  0  0  0  0  0  0  0  0  0  0  0
    0.0000    0.0000    0.0000 C   0  0  1  0  0  0  0  0  0  0  0  0
    0.0000    0.0000    0.0000 H   0  0  0  0  0  0  0  0  0  0  0  0
    0.0000    0.0000    0.0000 C   0  0  2  0  0  0  0  0  0  0  0  0
    0.0000    0.0000    0.0000 H   0  0  0  0  0  0  0  0  0  0  0  0
    0.0000    0.0000    0.0000 C   0  0  0  0  0  0  0  0  0  0  0  0
    0.0000    0.0000    0.0000 C   0  0  0  0  0  0  0  0  0  0  0  0
    0.0000    0.0000    0.0000 C   0  0  2  0  0  0  0  0  0  0  0  0
    0.0000    0.0000    0.0000 H   0  0  0  0  0  0  0  0  0  0  0  0
    0.0000    0.0000    0.0000 O   0  0  0  0  0  0  0  0  0  0  0  0
    0.0000    0.0000    0.0000 C   0  0  0  0  0  0  0  0  0  0  0  0
    0.0000    0.0000    0.0000 O   0  0  0  0  0  0  0  0  0  0  0  0
    0.0000    0.0000    0.0000 C   0  0  0  0  0  0  0  0  0  0  0  0
    0.0000    0.0000    0.0000 C   0  0  0  0  0  0  0  0  0  0  0  0
    0.0000    0.0000    0.0000 C   0  0  0  0  0  0  0  0  0  0  0  0
    0.0000    0.0000    0.0000 C   0  0  0  0  0  0  0  0  0  0  0  0
    0.0000    0.0000    0.0000 C   0  0  2  0  0  0  0  0  0  0  0  0
    0.0000    0.0000    0.0000 C   0  0  0  0  0  0  0  0  0  0  0  0
    0.0000    0.0000    0.0000 C   0  0  0  0  0  0  0  0  0  0  0  0
    0.0000    0.0000    0.0000 C   0  0  2  0  0  0  0  0  0  0  0  0
    0.0000    0.0000    0.0000 H   0  0  0  0  0  0  0  0  0  0  0  0
    0.0000    0.0000    0.0000 C   0  0  0  0  0  0  0  0  0  0  0  0
    0.0000    0.0000    0.0000 C   0  0  0  0  0  0  0  0  0  0  0  0
    0.0000    0.0000    0.0000 C   0  0  0  0  0  0  0  0  0  0  0  0
    0.0000    0.0000    0.0000 C   0  0  0  0  0  0  0  0  0  0  0  0
  1  2  1  0  0  0  0
  2 29  1  0  0  0  0
  2  3  2  0  0  0  0
  3  4  1  0  0  0  0
  4 27  2  0  0  0  0
  4  5  1  0  0  0  0
  5  6  1  0  0  0  0
  6  7  1  0  0  0  0
  7  8  1  0  0  0  0
  7 25  1  0  0  0  0
  7  9  1  0  0  0  0
  9 10  1  0  0  0  0
  9 22  1  0  0  0  0
  9 11  1  0  0  0  0
 11 12  1  0  0  0  0
 12 13  1  0  0  0  0
 13 14  1  0  0  0  0
 13 15  1  0  0  0  0
 13 22  1  0  0  0  0
 15 16  1  0  0  0  0
 16 17  2  0  0  0  0
 16 18  1  0  0  0  0
 18 19  1  0  0  0  0
 19 20  1  0  0  0  0
 20 21  1  0  0  0  0
 22 23  1  0  0  0  0
 22 30  1  0  0  0  0
 23 24  1  0  0  0  0
 24 25  1  0  0  0  0
 25 26  1  0  0  0  0
 25 27  1  0  0  0  0
 27 28  1  0  0  0  0
 28 29  2  0  0  0  0
M  END
> <Index>
1555

> <ID>
HT0793

> <class>
1

> <apol>
64.223373

> <ast_fraglike>
0

> <ast_fraglike_ext>
0

> <ast_violation>
2

> <ast_violation_ext>
3

> <a_acc>
2

> <a_acid>
0

> <a_aro>
6

> <a_base>
0

> <a_count>
58

> <a_don>
1

> <a_donacc>
3

> <a_heavy>
26

> <a_hyd>
22

> <a_IC>
70.966087

> <a_ICM>
1.2235532

> <a_nB>
0

> <a_nBr>
0

> <a_nC>
23

> <a_nCl>
0

> <a_nF>
0

> <a_nH>
32

> <a_nI>
0

> <a_nN>
0

> <a_nO>
3

> <a_nP>
0

> <a_nS>
0

> <balabanJ>
1.4297116

> <BCUT_PEOE_0>
-2.885061

> <BCUT_PEOE_1>
-0.50761992

> <BCUT_PEOE_2>
0.53836471

> <BCUT_PEOE_3>
2.9307678

> <BCUT_SLOGP_0>
-2.8032799

> <BCUT_SLOGP_1>
-0.42162415

> <BCUT_SLOGP_2>
0.60437763

> <BCUT_SLOGP_3>
3.0077152

> <BCUT_SMR_0>
-2.6306233

> <BCUT_SMR_1>
-0.38375434

> <BCUT_SMR_2>
0.66396326

> <BCUT_SMR_3>
3.1812479

> <bpol>
37.856625

> <b_1rotN>
4

> <b_1rotR>
0.13793103

> <b_ar>
6

> <b_count>
61

> <b_double>
1

> <b_heavy>
29

> <b_max1len>
5

> <b_rotN>
5

> <b_rotR>
0.1724138

> <b_single>
54

> <b_triple>
0

> <chi0>
18.31119

> <chi0v>
16.169123

> <chi0v_C>
14.905413

> <chi0_C>
15.604083

> <chi1>
12.525023

> <chi1v>
10.539043

> <chi1v_C>
9.6714859

> <chi1_C>
10.553826

> <chiral>
5

> <chiral_u>
0

> <density>
0.6818642

> <diameter>
15

> <FCharge>
0

> <GCUT_PEOE_0>
-0.79416788

> <GCUT_PEOE_1>
-0.39310491

> <GCUT_PEOE_2>
0.02795931

> <GCUT_PEOE_3>
3.1887352

> <GCUT_SLOGP_0>
-0.85158575

> <GCUT_SLOGP_1>
-0.28480282

> <GCUT_SLOGP_2>
0.10043376

> <GCUT_SLOGP_3>
3.2826538

> <GCUT_SMR_0>
-0.53619075

> <GCUT_SMR_1>
-0.21619925

> <GCUT_SMR_2>
0.13269436

> <GCUT_SMR_3>
3.4211688

> <Kier1>
19.322235

> <Kier2>
7.7879934

> <Kier3>
3.5603333

> <KierA1>
16.954086

> <KierA2>
6.7960019

> <KierA3>
3.0946398

> <KierFlex>
4.4315386

> <lip_acc>
3

> <lip_don>
1

> <lip_druglike>
1

> <lip_violation>
1

> <logP(o/w)>
5.7989998

> <logS>
-6.0686698

> <mr>
10.349016

> <mutagenic>
0

> <nmol>
1

> <opr_brigid>
20

> <opr_leadlike>
1

> <opr_nring>
4

> <opr_nrot>
4

> <opr_violation>
1

> <PC+>
0

> <PC->
0

> <PEOE_PC+>
1.665279

> <PEOE_PC->
-1.665279

> <PEOE_RPC+>
0.1575899

> <PEOE_RPC->
0.21607411

> <PEOE_VSA+0>
123.86674

> <PEOE_VSA+1>
30.424992

> <PEOE_VSA+2>
0.0

> <PEOE_VSA+3>
0.0

> <PEOE_VSA+4>
10.324173

> <PEOE_VSA+5>
14.708499

> <PEOE_VSA+6>
0.0

> <PEOE_VSA-0>
89.836082

> <PEOE_VSA-1>
58.451572

> <PEOE_VSA-2>
0.0

> <PEOE_VSA-3>
0.0

> <PEOE_VSA-4>
0.0

> <PEOE_VSA-5>
13.566921

> <PEOE_VSA-6>
10.271297

> <PEOE_VSA_FHYD>
0.86094511

> <PEOE_VSA_FNEG>
0.48975882

> <PEOE_VSA_FPNEG>
0.067828141

> <PEOE_VSA_FPOL>
0.13905492

> <PEOE_VSA_FPOS>
0.51024115

> <PEOE_VSA_FPPOS>
0.071226783

> <PEOE_VSA_HYD>
302.57938

> <PEOE_VSA_NEG>
172.12587

> <PEOE_VSA_PNEG>
23.838217

> <PEOE_VSA_POL>
48.870888

> <PEOE_VSA_POS>
179.3244

> <PEOE_VSA_PPOS>
25.032671

> <petitjean>
0.46666667

> <petitjeanSC>
0.875

> <Q_PC+>
0

> <Q_PC->
0

> <Q_RPC+>
0

> <Q_RPC->
0

> <Q_VSA_FHYD>
1

> <Q_VSA_FNEG>
0

> <Q_VSA_FPNEG>
0

> <Q_VSA_FPOL>
0

> <Q_VSA_FPOS>
1

> <Q_VSA_FPPOS>
0

> <Q_VSA_HYD>
351.45026

> <Q_VSA_NEG>
0

> <Q_VSA_PNEG>
0

> <Q_VSA_POL>
0

> <Q_VSA_POS>
351.45026

> <Q_VSA_PPOS>
0

> <radius>
8

> <reactive>
0

> <rings>
4

> <RPC+>
0

> <RPC->
0

> <rsynth>
0.5

> <SlogP>
5.3502698

> <SlogP_VSA0>
25.385227

> <SlogP_VSA1>
7.7454643

> <SlogP_VSA2>
41.330753

> <SlogP_VSA3>
0.0

> <SlogP_VSA4>
15.192742

> <SlogP_VSA5>
18.868406

> <SlogP_VSA6>
4.4107962

> <SlogP_VSA7>
52.929554

> <SlogP_VSA8>
150.94725

> <SlogP_VSA9>
71.895454

> <SMR>
10.21288

> <SMR_VSA0>
34.862103

> <SMR_VSA1>
25.385227

> <SMR_VSA2>
8.8215923

> <SMR_VSA3>
22.494022

> <SMR_VSA4>
0.0

> <SMR_VSA5>
222.74521

> <SMR_VSA6>
7.7454643

> <SMR_VSA7>
66.652031

> <TPSA>
46.529999

> <VAdjEq>
0.42228913

> <VAdjMa>
5.8579812

> <VDistEq>
3.4980328

> <VDistMa>
9.0854006

> <vdw_area>
351.45026

> <vdw_vol>
522.84015

> <vsa_acc>
13.566921

> <vsa_acid>
0

> <vsa_base>
0

> <vsa_don>
0.0

> <vsa_hyd>
276.47858

> <vsa_other>
17.212255

> <vsa_pol>
27.133842

> <Weight>
356.50598

> <weinerPath>
1675

> <weinerPol>
47

> <zagreb>
144

$$$$
Row1555
 OpenBabel06061811532D

 24 27  0  0  1  0  0  0  0  0999 V2000
    0.0000    0.0000    0.0000 O   0  0  0  0  0  0  0  0  0  0  0  0
    0.0000    0.0000    0.0000 C   0  0  0  0  0  0  0  0  0  0  0  0
    0.0000    0.0000    0.0000 C   0  0  0  0  0  0  0  0  0  0  0  0
    0.0000    0.0000    0.0000 C   0  0  0  0  0  0  0  0  0  0  0  0
    0.0000    0.0000    0.0000 C   0  0  0  0  0  0  0  0  0  0  0  0
    0.0000    0.0000    0.0000 C   0  0  0  0  0  0  0  0  0  0  0  0
    0.0000    0.0000    0.0000 C   0  0  1  0  0  0  0  0  0  0  0  0
    0.0000    0.0000    0.0000 H   0  0  0  0  0  0  0  0  0  0  0  0
    0.0000    0.0000    0.0000 C   0  0  2  0  0  0  0  0  0  0  0  0
    0.0000    0.0000    0.0000 H   0  0  0  0  0  0  0  0  0  0  0  0
    0.0000    0.0000    0.0000 C   0  0  0  0  0  0  0  0  0  0  0  0
    0.0000    0.0000    0.0000 C   0  0  0  0  0  0  0  0  0  0  0  0
    0.0000    0.0000    0.0000 C   0  0  2  0  0  0  0  0  0  0  0  0
    0.0000    0.0000    0.0000 H   0  0  0  0  0  0  0  0  0  0  0  0
    0.0000    0.0000    0.0000 O   0  0  0  0  0  0  0  0  0  0  0  0
    0.0000    0.0000    0.0000 C   0  0  1  0  0  0  0  0  0  0  0  0
    0.0000    0.0000    0.0000 C   0  0  0  0  0  0  0  0  0  0  0  0
    0.0000    0.0000    0.0000 C   0  0  0  0  0  0  0  0  0  0  0  0
    0.0000    0.0000    0.0000 C   0  0  2  0  0  0  0  0  0  0  0  0
    0.0000    0.0000    0.0000 H   0  0  0  0  0  0  0  0  0  0  0  0
    0.0000    0.0000    0.0000 C   0  0  0  0  0  0  0  0  0  0  0  0
    0.0000    0.0000    0.0000 C   0  0  0  0  0  0  0  0  0  0  0  0
    0.0000    0.0000    0.0000 C   0  0  0  0  0  0  0  0  0  0  0  0
    0.0000    0.0000    0.0000 C   0  0  0  0  0  0  0  0  0  0  0  0
  1  2  1  0  0  0  0
  2 23  1  0  0  0  0
  2  3  2  0  0  0  0
  3  4  1  0  0  0  0
  4 21  2  0  0  0  0
  4  5  1  0  0  0  0
  5  6  1  0  0  0  0
  6  7  1  0  0  0  0
  7  8  1  0  0  0  0
  7 19  1  0  0  0  0
  7  9  1  0  0  0  0
  9 10  1  0  0  0  0
  9 16  1  0  0  0  0
  9 11  1  0  0  0  0
 11 12  1  0  0  0  0
 12 13  1  0  0  0  0
 13 14  1  0  0  0  0
 13 15  1  0  0  0  0
 13 16  1  0  0  0  0
 16 17  1  0  0  0  0
 16 24  1  0  0  0  0
 17 18  1  0  0  0  0
 18 19  1  0  0  0  0
 19 20  1  0  0  0  0
 19 21  1  0  0  0  0
 21 22  1  0  0  0  0
 22 23  2  0  0  0  0
M  END
> <Index>
1556

> <ID>
HT0794

> <class>
1

> <apol>
49.287033

> <ast_fraglike>
0

> <ast_fraglike_ext>
0

> <ast_violation>
1

> <ast_violation_ext>
1

> <a_acc>
2

> <a_acid>
0

> <a_aro>
6

> <a_base>
0

> <a_count>
44

> <a_don>
2

> <a_donacc>
4

> <a_heavy>
20

> <a_hyd>
18

> <a_IC>
53.117241

> <a_ICM>
1.2072101

> <a_nB>
0

> <a_nBr>
0

> <a_nC>
18

> <a_nCl>
0

> <a_nF>
0

> <a_nH>
24

> <a_nI>
0

> <a_nN>
0

> <a_nO>
2

> <a_nP>
0

> <a_nS>
0

> <balabanJ>
1.5684366

> <BCUT_PEOE_0>
-2.8853424

> <BCUT_PEOE_1>
-0.57724309

> <BCUT_PEOE_2>
0.62703317

> <BCUT_PEOE_3>
2.9270682

> <BCUT_SLOGP_0>
-2.8037889

> <BCUT_SLOGP_1>
-0.54807258

> <BCUT_SLOGP_2>
0.60339248

> <BCUT_SLOGP_3>
3.0056038

> <BCUT_SMR_0>
-2.6303475

> <BCUT_SMR_1>
-0.46108723

> <BCUT_SMR_2>
0.7343992

> <BCUT_SMR_3>
3.1789525

> <bpol>
26.236967

> <b_1rotN>
0

> <b_1rotR>
0.0

> <b_ar>
6

> <b_count>
47

> <b_double>
0

> <b_heavy>
23

> <b_max1len>
3

> <b_rotN>
0

> <b_rotR>
0.0

> <b_single>
41

> <b_triple>
0

> <chi0>
13.905413

> <chi0v>
12.17852

> <chi0v_C>
11.284093

> <chi0_C>
11.905413

> <chi1>
9.5931721

> <chi1v>
8.0926313

> <chi1v_C>
7.610826

> <chi1_C>
8.4384718

> <chiral>
5

> <chiral_u>
0

> <density>
0.68546617

> <diameter>
10

> <FCharge>
0

> <GCUT_PEOE_0>
-0.80335909

> <GCUT_PEOE_1>
-0.39791432

> <GCUT_PEOE_2>
0.071031623

> <GCUT_PEOE_3>
3.1078901

> <GCUT_SLOGP_0>
-0.88360137

> <GCUT_SLOGP_1>
-0.30639267

> <GCUT_SLOGP_2>
0.086227879

> <GCUT_SLOGP_3>
3.2065091

> <GCUT_SMR_0>
-0.53566217

> <GCUT_SMR_1>
-0.24061581

> <GCUT_SMR_2>
0.16568822

> <GCUT_SMR_3>
3.3431427

> <Kier1>
13.648394

> <Kier2>
4.75

> <Kier3>
1.9608401

> <KierA1>
12.06131

> <KierA2>
4.1687865

> <KierA3>
1.7122431

> <KierFlex>
2.5140512

> <lip_acc>
2

> <lip_don>
2

> <lip_druglike>
1

> <lip_violation>
0

> <logP(o/w)>
3.8510001

> <logS>
-4.21839

> <mr>
7.9002476

> <mutagenic>
0

> <nmol>
1

> <opr_brigid>
20

> <opr_leadlike>
1

> <opr_nring>
4

> <opr_nrot>
0

> <opr_violation>
0

> <PC+>
0

> <PC->
0

> <PEOE_PC+>
1.3170083

> <PEOE_PC->
-1.3170083

> <PEOE_RPC+>
0.16500536

> <PEOE_RPC->
0.29706624

> <PEOE_VSA+0>
76.776947

> <PEOE_VSA+1>
30.424992

> <PEOE_VSA+2>
0.0

> <PEOE_VSA+3>
0.0

> <PEOE_VSA+4>
20.648346

> <PEOE_VSA+5>
0.0

> <PEOE_VSA+6>
0.0

> <PEOE_VSA-0>
81.134766

> <PEOE_VSA-1>
31.002581

> <PEOE_VSA-2>
0.0

> <PEOE_VSA-3>
0.0

> <PEOE_VSA-4>
0.0

> <PEOE_VSA-5>
0.0

> <PEOE_VSA-6>
15.535081

> <PEOE_VSA_FHYD>
0.8583945

> <PEOE_VSA_FNEG>
0.49965197

> <PEOE_VSA_FPNEG>
0.060797259

> <PEOE_VSA_FPOL>
0.14160551

> <PEOE_VSA_FPOS>
0.50034803

> <PEOE_VSA_FPPOS>
0.08080826

> <PEOE_VSA_HYD>
219.33929

> <PEOE_VSA_NEG>
127.67243

> <PEOE_VSA_PNEG>
15.535081

> <PEOE_VSA_POL>
36.183426

> <PEOE_VSA_POS>
127.85029

> <PEOE_VSA_PPOS>
20.648346

> <petitjean>
0.5

> <petitjeanSC>
1.0

> <Q_PC+>
0

> <Q_PC->
0

> <Q_RPC+>
0

> <Q_RPC->
0

> <Q_VSA_FHYD>
1

> <Q_VSA_FNEG>
0

> <Q_VSA_FPNEG>
0

> <Q_VSA_FPOL>
0

> <Q_VSA_FPOS>
1

> <Q_VSA_FPPOS>
0

> <Q_VSA_HYD>
255.52272

> <Q_VSA_NEG>
0

> <Q_VSA_PNEG>
0

> <Q_VSA_POL>
0

> <Q_VSA_POS>
255.52272

> <Q_VSA_PPOS>
0

> <radius>
5

> <reactive>
0

> <rings>
4

> <RPC+>
0

> <RPC->
0

> <rsynth>
0.34999999

> <SlogP>
3.60917

> <SlogP_VSA0>
50.770454

> <SlogP_VSA1>
0.0

> <SlogP_VSA2>
6.4686494

> <SlogP_VSA3>
0.0

> <SlogP_VSA4>
15.192742

> <SlogP_VSA5>
18.868406

> <SlogP_VSA6>
4.4107962

> <SlogP_VSA7>
52.929554

> <SlogP_VSA8>
94.342026

> <SlogP_VSA9>
38.569443

> <SMR>
7.8730602

> <SMR_VSA0>
0.0

> <SMR_VSA1>
50.770454

> <SMR_VSA2>
8.8215923

> <SMR_VSA3>
22.494022

> <SMR_VSA4>
0.0

> <SMR_VSA5>
166.13998

> <SMR_VSA6>
0.0

> <SMR_VSA7>
33.326015

> <TPSA>
40.459999

> <VAdjEq>
0.51481563

> <VAdjMa>
5.523562

> <VDistEq>
2.957881

> <VDistMa>
8.3559732

> <vdw_area>
255.52272

> <vdw_vol>
397.37628

> <vsa_acc>
0.0

> <vsa_acid>
0

> <vsa_base>
0

> <vsa_don>
0.0

> <vsa_hyd>
199.64464

> <vsa_other>
0.0

> <vsa_pol>
27.133842

> <Weight>
272.388

> <weinerPath>
724

> <weinerPol>
39

> <zagreb>
118

$$$$
Row1556
 OpenBabel06061811532D

 23 26  0  0  1  0  0  0  0  0999 V2000
    0.0000    0.0000    0.0000 O   0  0  0  0  0  0  0  0  0  0  0  0
    0.0000    0.0000    0.0000 C   0  0  0  0  0  0  0  0  0  0  0  0
    0.0000    0.0000    0.0000 C   0  0  0  0  0  0  0  0  0  0  0  0
    0.0000    0.0000    0.0000 C   0  0  0  0  0  0  0  0  0  0  0  0
    0.0000    0.0000    0.0000 C   0  0  0  0  0  0  0  0  0  0  0  0
    0.0000    0.0000    0.0000 C   0  0  0  0  0  0  0  0  0  0  0  0
    0.0000    0.0000    0.0000 C   0  0  1  0  0  0  0  0  0  0  0  0
    0.0000    0.0000    0.0000 H   0  0  0  0  0  0  0  0  0  0  0  0
    0.0000    0.0000    0.0000 C   0  0  2  0  0  0  0  0  0  0  0  0
    0.0000    0.0000    0.0000 H   0  0  0  0  0  0  0  0  0  0  0  0
    0.0000    0.0000    0.0000 C   0  0  0  0  0  0  0  0  0  0  0  0
    0.0000    0.0000    0.0000 C   0  0  0  0  0  0  0  0  0  0  0  0
    0.0000    0.0000    0.0000 C   0  0  0  0  0  0  0  0  0  0  0  0
    0.0000    0.0000    0.0000 O   0  0  0  0  0  0  0  0  0  0  0  0
    0.0000    0.0000    0.0000 C   0  0  1  0  0  0  0  0  0  0  0  0
    0.0000    0.0000    0.0000 C   0  0  0  0  0  0  0  0  0  0  0  0
    0.0000    0.0000    0.0000 C   0  0  0  0  0  0  0  0  0  0  0  0
    0.0000    0.0000    0.0000 C   0  0  2  0  0  0  0  0  0  0  0  0
    0.0000    0.0000    0.0000 H   0  0  0  0  0  0  0  0  0  0  0  0
    0.0000    0.0000    0.0000 C   0  0  0  0  0  0  0  0  0  0  0  0
    0.0000    0.0000    0.0000 C   0  0  0  0  0  0  0  0  0  0  0  0
    0.0000    0.0000    0.0000 C   0  0  0  0  0  0  0  0  0  0  0  0
    0.0000    0.0000    0.0000 C   0  0  0  0  0  0  0  0  0  0  0  0
  1  2  1  0  0  0  0
  2 22  1  0  0  0  0
  2  3  2  0  0  0  0
  3  4  1  0  0  0  0
  4 20  2  0  0  0  0
  4  5  1  0  0  0  0
  5  6  1  0  0  0  0
  6  7  1  0  0  0  0
  7  8  1  0  0  0  0
  7 18  1  0  0  0  0
  7  9  1  0  0  0  0
  9 10  1  0  0  0  0
  9 15  1  0  0  0  0
  9 11  1  0  0  0  0
 11 12  1  0  0  0  0
 12 13  1  0  0  0  0
 13 14  2  0  0  0  0
 13 15  1  0  0  0  0
 15 16  1  0  0  0  0
 15 23  1  0  0  0  0
 16 17  1  0  0  0  0
 17 18  1  0  0  0  0
 18 19  1  0  0  0  0
 18 20  1  0  0  0  0
 20 21  1  0  0  0  0
 21 22  2  0  0  0  0
M  END
> <Index>
1557

> <ID>
HT0798

> <class>
1

> <apol>
47.953445

> <ast_fraglike>
0

> <ast_fraglike_ext>
0

> <ast_violation>
1

> <ast_violation_ext>
1

> <a_acc>
2

> <a_acid>
0

> <a_aro>
6

> <a_base>
0

> <a_count>
42

> <a_don>
1

> <a_donacc>
3

> <a_heavy>
20

> <a_hyd>
17

> <a_IC>
51.311188

> <a_ICM>
1.2216949

> <a_nB>
0

> <a_nBr>
0

> <a_nC>
18

> <a_nCl>
0

> <a_nF>
0

> <a_nH>
22

> <a_nI>
0

> <a_nN>
0

> <a_nO>
2

> <a_nP>
0

> <a_nS>
0

> <balabanJ>
1.5691407

> <BCUT_PEOE_0>
-2.8700118

> <BCUT_PEOE_1>
-0.57500052

> <BCUT_PEOE_2>
0.5580678

> <BCUT_PEOE_3>
2.9055552

> <BCUT_SLOGP_0>
-2.7837393

> <BCUT_SLOGP_1>
-0.48361903

> <BCUT_SLOGP_2>
0.6034199

> <BCUT_SLOGP_3>
2.9821727

> <BCUT_SMR_0>
-2.6172185

> <BCUT_SMR_1>
-0.42335659

> <BCUT_SMR_2>
0.70419341

> <BCUT_SMR_3>
3.1596904

> <bpol>
25.008554

> <b_1rotN>
0

> <b_1rotR>
0.0

> <b_ar>
6

> <b_count>
45

> <b_double>
1

> <b_heavy>
23

> <b_max1len>
2

> <b_rotN>
0

> <b_rotR>
0.0

> <b_single>
38

> <b_triple>
0

> <chi0>
13.905413

> <chi0v>
12.062204

> <chi0v_C>
11.206742

> <chi0_C>
11.905413

> <chi1>
9.5931721

> <chi1v>
7.9451866

> <chi1v_C>
7.5174561

> <chi1_C>
8.4384718

> <chiral>
4

> <chiral_u>
0

> <density>
0.69320309

> <diameter>
10

> <FCharge>
0

> <GCUT_PEOE_0>
-0.7877866

> <GCUT_PEOE_1>
-0.39617342

> <GCUT_PEOE_2>
0.041031398

> <GCUT_PEOE_3>
3.0578723

> <GCUT_SLOGP_0>
-0.83775645

> <GCUT_SLOGP_1>
-0.29399142

> <GCUT_SLOGP_2>
0.092831656

> <GCUT_SLOGP_3>
3.1551912

> <GCUT_SMR_0>
-0.5352177

> <GCUT_SMR_1>
-0.23056428

> <GCUT_SMR_2>
0.15707804

> <GCUT_SMR_3>
3.2977931

> <Kier1>
13.648394

> <Kier2>
4.75

> <Kier3>
1.9608401

> <KierA1>
11.485277

> <KierA2>
3.958528

> <KierA3>
1.6225274

> <KierFlex>
2.2732396

> <lip_acc>
2

> <lip_don>
1

> <lip_druglike>
1

> <lip_violation>
0

> <logP(o/w)>
3.24

> <logS>
-4.1125798

> <mr>
7.8591242

> <mutagenic>
0

> <nmol>
1

> <opr_brigid>
20

> <opr_leadlike>
1

> <opr_nring>
4

> <opr_nrot>
0

> <opr_violation>
0

> <PC+>
0

> <PC->
0

> <PEOE_PC+>
1.1748465

> <PEOE_PC->
-1.1748465

> <PEOE_RPC+>
0.18497175

> <PEOE_RPC->
0.30627292

> <PEOE_VSA+0>
85.478264

> <PEOE_VSA+1>
21.254677

> <PEOE_VSA+2>
8.458519

> <PEOE_VSA+3>
0.0

> <PEOE_VSA+4>
10.324173

> <PEOE_VSA+5>
0.0

> <PEOE_VSA+6>
0.0

> <PEOE_VSA-0>
72.433456

> <PEOE_VSA-1>
31.002581

> <PEOE_VSA-2>
0.0

> <PEOE_VSA-3>
0.0

> <PEOE_VSA-4>
0.0

> <PEOE_VSA-5>
13.566921

> <PEOE_VSA-6>
7.7675405

> <PEOE_VSA_FHYD>
0.87351024

> <PEOE_VSA_FNEG>
0.49851143

> <PEOE_VSA_FPNEG>
0.08524029

> <PEOE_VSA_FPOL>
0.12648977

> <PEOE_VSA_FPOS>
0.50148857

> <PEOE_VSA_FPPOS>
0.04124948

> <PEOE_VSA_HYD>
218.62749

> <PEOE_VSA_NEG>
124.77049

> <PEOE_VSA_PNEG>
21.334461

> <PEOE_VSA_POL>
31.658634

> <PEOE_VSA_POS>
125.51563

> <PEOE_VSA_PPOS>
10.324173

> <petitjean>
0.5

> <petitjeanSC>
1.0

> <Q_PC+>
0

> <Q_PC->
0

> <Q_RPC+>
0

> <Q_RPC->
0

> <Q_VSA_FHYD>
1

> <Q_VSA_FNEG>
0

> <Q_VSA_FPNEG>
0

> <Q_VSA_FPOL>
0

> <Q_VSA_FPOS>
1

> <Q_VSA_FPPOS>
0

> <Q_VSA_HYD>
250.28613

> <Q_VSA_NEG>
0

> <Q_VSA_PNEG>
0

> <Q_VSA_POL>
0

> <Q_VSA_POS>
250.28613

> <Q_VSA_PPOS>
0

> <radius>
5

> <reactive>
1

> <rings>
4

> <RPC+>
0

> <RPC->
0

> <rsynth>
1.0

> <SlogP>
3.8173699

> <SlogP_VSA0>
25.385227

> <SlogP_VSA1>
5.6876111

> <SlogP_VSA2>
23.862217

> <SlogP_VSA3>
0.0

> <SlogP_VSA4>
15.192742

> <SlogP_VSA5>
18.868406

> <SlogP_VSA6>
4.4107962

> <SlogP_VSA7>
52.929554

> <SlogP_VSA8>
94.342026

> <SlogP_VSA9>
38.569443

> <SMR>
7.7730799

> <SMR_VSA0>
23.862217

> <SMR_VSA1>
25.385227

> <SMR_VSA2>
8.8215923

> <SMR_VSA3>
16.025373

> <SMR_VSA4>
0.0

> <SMR_VSA5>
166.13998

> <SMR_VSA6>
5.6876111

> <SMR_VSA7>
33.326015

> <TPSA>
37.299999

> <VAdjEq>
0.51481563

> <VAdjMa>
5.523562

> <VDistEq>
2.957881

> <VDistMa>
8.3559732

> <vdw_area>
250.28613

> <vdw_vol>
390.03287

> <vsa_acc>
13.566921

> <vsa_acid>
0

> <vsa_base>
0

> <vsa_don>
0.0

> <vsa_hyd>
191.18611

> <vsa_other>
8.458519

> <vsa_pol>
27.133842

> <Weight>
270.37198

> <weinerPath>
724

> <weinerPol>
39

> <zagreb>
118

$$$$
Row1557
 OpenBabel06061811532D

 27 30  0  0  1  0  0  0  0  0999 V2000
    0.0000    0.0000    0.0000 S   0  0  0  0  0  0  0  0  0  0  0  0
    0.0000    0.0000    0.0000 O   0  0  0  0  0  0  0  0  0  0  0  0
    0.0000    0.0000    0.0000 C   0  0  0  0  0  0  0  0  0  0  0  0
    0.0000    0.0000    0.0000 C   0  0  0  0  0  0  0  0  0  0  0  0
    0.0000    0.0000    0.0000 C   0  0  0  0  0  0  0  0  0  0  0  0
    0.0000    0.0000    0.0000 C   0  0  0  0  0  0  0  0  0  0  0  0
    0.0000    0.0000    0.0000 C   0  0  0  0  0  0  0  0  0  0  0  0
    0.0000    0.0000    0.0000 C   0  0  1  0  0  0  0  0  0  0  0  0
    0.0000    0.0000    0.0000 H   0  0  0  0  0  0  0  0  0  0  0  0
    0.0000    0.0000    0.0000 C   0  0  2  0  0  0  0  0  0  0  0  0
    0.0000    0.0000    0.0000 H   0  0  0  0  0  0  0  0  0  0  0  0
    0.0000    0.0000    0.0000 C   0  0  0  0  0  0  0  0  0  0  0  0
    0.0000    0.0000    0.0000 C   0  0  0  0  0  0  0  0  0  0  0  0
    0.0000    0.0000    0.0000 C   0  0  0  0  0  0  0  0  0  0  0  0
    0.0000    0.0000    0.0000 O   0  0  0  0  0  0  0  0  0  0  0  0
    0.0000    0.0000    0.0000 C   0  0  1  0  0  0  0  0  0  0  0  0
    0.0000    0.0000    0.0000 C   0  0  0  0  0  0  0  0  0  0  0  0
    0.0000    0.0000    0.0000 C   0  0  0  0  0  0  0  0  0  0  0  0
    0.0000    0.0000    0.0000 C   0  0  2  0  0  0  0  0  0  0  0  0
    0.0000    0.0000    0.0000 H   0  0  0  0  0  0  0  0  0  0  0  0
    0.0000    0.0000    0.0000 C   0  0  0  0  0  0  0  0  0  0  0  0
    0.0000    0.0000    0.0000 C   0  0  0  0  0  0  0  0  0  0  0  0
    0.0000    0.0000    0.0000 C   0  0  0  0  0  0  0  0  0  0  0  0
    0.0000    0.0000    0.0000 C   0  0  0  0  0  0  0  0  0  0  0  0
    0.0000    0.0000    0.0000 O   0  0  0  0  0  0  0  0  0  0  0  0
    0.0000    0.0000    0.0000 O   0  0  0  0  0  0  0  0  0  0  0  0
    0.0000    0.0000    0.0000 O   0  0  0  0  0  0  0  0  0  0  0  0
  1  2  1  0  0  0  0
  1 25  1  0  0  0  0
  1 26  2  0  0  0  0
  1 27  2  0  0  0  0
  2  3  1  0  0  0  0
  3 23  1  0  0  0  0
  3  4  2  0  0  0  0
  4  5  1  0  0  0  0
  5 21  2  0  0  0  0
  5  6  1  0  0  0  0
  6  7  1  0  0  0  0
  7  8  1  0  0  0  0
  8  9  1  0  0  0  0
  8 19  1  0  0  0  0
  8 10  1  0  0  0  0
 10 11  1  0  0  0  0
 10 16  1  0  0  0  0
 10 12  1  0  0  0  0
 12 13  1  0  0  0  0
 13 14  1  0  0  0  0
 14 15  2  0  0  0  0
 14 16  1  0  0  0  0
 16 17  1  0  0  0  0
 16 24  1  0  0  0  0
 17 18  1  0  0  0  0
 18 19  1  0  0  0  0
 19 20  1  0  0  0  0
 19 21  1  0  0  0  0
 21 22  1  0  0  0  0
 22 23  2  0  0  0  0
M  END
> <Index>
1558

> <ID>
HT0799

> <class>
1

> <apol>
53.259445

> <ast_fraglike>
0

> <ast_fraglike_ext>
0

> <ast_violation>
3

> <ast_violation_ext>
4

> <a_acc>
5

> <a_acid>
0

> <a_aro>
6

> <a_base>
0

> <a_count>
46

> <a_don>
3

> <a_donacc>
8

> <a_heavy>
24

> <a_hyd>
17

> <a_IC>
69.308067

> <a_ICM>
1.5066971

> <a_nB>
0

> <a_nBr>
0

> <a_nC>
18

> <a_nCl>
0

> <a_nF>
0

> <a_nH>
22

> <a_nI>
0

> <a_nN>
0

> <a_nO>
5

> <a_nP>
0

> <a_nS>
1

> <balabanJ>
1.4524968

> <BCUT_PEOE_0>
-2.8701236

> <BCUT_PEOE_1>
-0.51285183

> <BCUT_PEOE_2>
0.50429767

> <BCUT_PEOE_3>
2.9055245

> <BCUT_SLOGP_0>
-2.7837822

> <BCUT_SLOGP_1>
-0.54104793

> <BCUT_SLOGP_2>
0.55335826

> <BCUT_SLOGP_3>
2.9821777

> <BCUT_SMR_0>
-2.6172237

> <BCUT_SMR_1>
-0.37271675

> <BCUT_SMR_2>
0.65298897

> <BCUT_SMR_3>
3.1597247

> <bpol>
33.400555

> <b_1rotN>
2

> <b_1rotR>
0.074074075

> <b_ar>
6

> <b_count>
49

> <b_double>
1

> <b_heavy>
27

> <b_max1len>
3

> <b_rotN>
2

> <b_rotR>
0.074074075

> <b_single>
42

> <b_triple>
0

> <chi0>
17.11252

> <chi0v>
14.511694

> <chi0v_C>
11.206742

> <chi0_C>
11.905413

> <chi1>
11.277623

> <chi1v>
9.9734268

> <chi1v_C>
7.5174561

> <chi1_C>
8.4384718

> <chiral>
4

> <chiral_u>
0

> <density>
0.79921216

> <diameter>
12

> <FCharge>
0

> <GCUT_PEOE_0>
-0.78728443

> <GCUT_PEOE_1>
-0.38732448

> <GCUT_PEOE_2>
0.024081325

> <GCUT_PEOE_3>
3.0745702

> <GCUT_SLOGP_0>
-0.85356784

> <GCUT_SLOGP_1>
-0.35996783

> <GCUT_SLOGP_2>
0.095000856

> <GCUT_SLOGP_3>
3.1699913

> <GCUT_SMR_0>
-0.53521234

> <GCUT_SMR_1>
-0.21714476

> <GCUT_SMR_2>
0.13190934

> <GCUT_SMR_3>
3.3170879

> <Kier1>
17.415638

> <Kier2>
6.0205517

> <Kier3>
3.0214031

> <KierA1>
16.148439

> <KierA2>
5.5633659

> <KierA3>
2.7850864

> <KierFlex>
3.74332

> <lip_acc>
5

> <lip_don>
1

> <lip_druglike>
1

> <lip_violation>
0

> <logP(o/w)>
2.5869999

> <logS>
-4.6573801

> <mr>
8.9983196

> <mutagenic>
0

> <nmol>
1

> <opr_brigid>
20

> <opr_leadlike>
1

> <opr_nring>
4

> <opr_nrot>
2

> <opr_violation>
0

> <PC+>
0

> <PC->
0

> <PEOE_PC+>
1.3599116

> <PEOE_PC->
-1.3599116

> <PEOE_RPC+>
0.20012665

> <PEOE_RPC->
0.2182643

> <PEOE_VSA+0>
85.478264

> <PEOE_VSA+1>
21.254677

> <PEOE_VSA+2>
18.782692

> <PEOE_VSA+3>
0.0

> <PEOE_VSA+4>
0.0

> <PEOE_VSA+5>
16.512768

> <PEOE_VSA+6>
0.0

> <PEOE_VSA-0>
72.433456

> <PEOE_VSA-1>
63.019104

> <PEOE_VSA-2>
0.0

> <PEOE_VSA-3>
4.945097

> <PEOE_VSA-4>
10.208881

> <PEOE_VSA-5>
13.566921

> <PEOE_VSA-6>
0.0

> <PEOE_VSA_FHYD>
0.86842483

> <PEOE_VSA_FNEG>
0.53616089

> <PEOE_VSA_FPNEG>
0.077647477

> <PEOE_VSA_FPOL>
0.1315752

> <PEOE_VSA_FPOS>
0.46383911

> <PEOE_VSA_FPPOS>
0.053927716

> <PEOE_VSA_HYD>
265.9133

> <PEOE_VSA_NEG>
164.17346

> <PEOE_VSA_PNEG>
23.775803

> <PEOE_VSA_POL>
40.28857

> <PEOE_VSA_POS>
142.0284

> <PEOE_VSA_PPOS>
16.512768

> <petitjean>
0.5

> <petitjeanSC>
1.0

> <Q_PC+>
0

> <Q_PC->
0

> <Q_RPC+>
0

> <Q_RPC->
0

> <Q_VSA_FHYD>
1

> <Q_VSA_FNEG>
0

> <Q_VSA_FPNEG>
0

> <Q_VSA_FPOL>
0

> <Q_VSA_FPOS>
1

> <Q_VSA_FPPOS>
0

> <Q_VSA_HYD>
306.20184

> <Q_VSA_NEG>
0

> <Q_VSA_PNEG>
0

> <Q_VSA_POL>
0

> <Q_VSA_POS>
306.20184

> <Q_VSA_PPOS>
0

> <radius>
6

> <reactive>
1

> <rings>
4

> <RPC+>
0

> <RPC->
0

> <rsynth>
1.0

> <SlogP>
2.72767

> <SlogP_VSA0>
31.476166

> <SlogP_VSA1>
53.859299

> <SlogP_VSA2>
34.149246

> <SlogP_VSA3>
0.0

> <SlogP_VSA4>
15.192742

> <SlogP_VSA5>
18.868406

> <SlogP_VSA6>
4.4107962

> <SlogP_VSA7>
52.929554

> <SlogP_VSA8>
94.342026

> <SlogP_VSA9>
38.569443

> <SMR>
8.7832603

> <SMR_VSA0>
72.033905

> <SMR_VSA1>
31.476166

> <SMR_VSA2>
8.8215923

> <SMR_VSA3>
16.025373

> <SMR_VSA4>
0.0

> <SMR_VSA5>
166.13998

> <SMR_VSA6>
5.6876111

> <SMR_VSA7>
43.613045

> <TPSA>
80.669998

> <VAdjEq>
0.44886449

> <VAdjMa>
5.7548876

> <VDistEq>
3.3337116

> <VDistMa>
8.8541183

> <vdw_area>
306.20184

> <vdw_vol>
438.47556

> <vsa_acc>
18.512018

> <vsa_acid>
0

> <vsa_base>
0

> <vsa_don>
0.0

> <vsa_hyd>
191.18611

> <vsa_other>
24.971287

> <vsa_pol>
66.536804

> <Weight>
350.435

> <weinerPath>
1305

> <weinerPol>
44

> <zagreb>
140

$$$$
Row1558
 OpenBabel06061811532D

  9  8  0  0  1  0  0  0  0  0999 V2000
    0.0000    0.0000    0.0000 Cl  0  0  0  0  0  0  0  0  0  0  0  0
    0.0000    0.0000    0.0000 C   0  0  0  0  0  0  0  0  0  0  0  0
    0.0000    0.0000    0.0000 C   0  0  0  0  0  0  0  0  0  0  0  0
    0.0000    0.0000    0.0000 C   0  0  3  0  0  0  0  0  0  0  0  0
    0.0000    0.0000    0.0000 O   0  0  0  0  0  0  0  0  0  0  0  0
    0.0000    0.0000    0.0000 C   0  0  0  0  0  0  0  0  0  0  0  0
    0.0000    0.0000    0.0000 C   0  0  0  0  0  0  0  0  0  0  0  0
    0.0000    0.0000    0.0000 C   0  0  0  0  0  0  0  0  0  0  0  0
    0.0000    0.0000    0.0000 C   0  0  0  0  0  0  0  0  0  0  0  0
  1  2  1  0  0  0  0
  2  3  2  3  0  0  0
  3  4  1  0  0  0  0
  4  5  1  0  0  0  0
  4  6  1  0  0  0  0
  4  8  1  0  0  0  0
  6  7  1  0  0  0  0
  8  9  3  0  0  0  0
M  END
> <Index>
1559

> <ID>
HT0806

> <class>
1

> <apol>
21.303137

> <ast_fraglike>
1

> <ast_fraglike_ext>
1

> <ast_violation>
0

> <ast_violation_ext>
0

> <a_acc>
1

> <a_acid>
0

> <a_aro>
0

> <a_base>
0

> <a_count>
18

> <a_don>
1

> <a_donacc>
2

> <a_heavy>
9

> <a_hyd>
8

> <a_IC>
26.87784

> <a_ICM>
1.4932134

> <a_nB>
0

> <a_nBr>
0

> <a_nC>
7

> <a_nCl>
1

> <a_nF>
0

> <a_nH>
9

> <a_nI>
0

> <a_nN>
0

> <a_nO>
1

> <a_nP>
0

> <a_nS>
0

> <balabanJ>
3.6649978

> <BCUT_PEOE_0>
-2.5080817

> <BCUT_PEOE_1>
-0.55973166

> <BCUT_PEOE_2>
0.61563504

> <BCUT_PEOE_3>
2.5145102

> <BCUT_SLOGP_0>
-2.5053999

> <BCUT_SLOGP_1>
-0.53683668

> <BCUT_SLOGP_2>
0.5609498

> <BCUT_SLOGP_3>
2.5580935

> <BCUT_SMR_0>
-2.2745624

> <BCUT_SMR_1>
-0.3623645

> <BCUT_SMR_2>
0.80538976

> <BCUT_SMR_3>
2.7485826

> <bpol>
10.258863

> <b_1rotN>
2

> <b_1rotR>
0.25

> <b_ar>
0

> <b_count>
17

> <b_double>
1

> <b_heavy>
8

> <b_max1len>
5

> <b_rotN>
3

> <b_rotR>
0.375

> <b_single>
15

> <b_triple>
1

> <chi0>
7.3284273

> <chi0v>
6.0202646

> <chi0v_C>
4.4391575

> <chi0_C>
5.3284273

> <chi1>
4.1819806

> <chi1v>
3.0996041

> <chi1v_C>
2.2213438

> <chi1_C>
2.9748738

> <chiral>
1

> <chiral_u>
1

> <density>
0.75441366

> <diameter>
5

> <FCharge>
0

> <GCUT_PEOE_0>
-0.7682544

> <GCUT_PEOE_1>
-0.35277149

> <GCUT_PEOE_2>
0.061668504

> <GCUT_PEOE_3>
2.0683937

> <GCUT_SLOGP_0>
-0.87873483

> <GCUT_SLOGP_1>
-0.28630617

> <GCUT_SLOGP_2>
0.15305844

> <GCUT_SLOGP_3>
2.1313477

> <GCUT_SMR_0>
-0.52033985

> <GCUT_SMR_1>
-0.1627508

> <GCUT_SMR_2>
0.25487635

> <GCUT_SMR_3>
2.3155286

> <Kier1>
9.0

> <Kier2>
3.9200001

> <Kier3>
2.8800001

> <KierA1>
8.2296686

> <KierA2>
3.5399356

> <KierA3>
2.5695379

> <KierFlex>
3.2369442

> <lip_acc>
1

> <lip_don>
1

> <lip_druglike>
1

> <lip_violation>
0

> <logP(o/w)>
1.822

> <logS>
-1.87348

> <mr>
3.9346874

> <mutagenic>
0

> <nmol>
1

> <opr_brigid>
2

> <opr_leadlike>
1

> <opr_nring>
0

> <opr_nrot>
3

> <opr_violation>
0

> <PC+>
0

> <PC->
0

> <PEOE_PC+>
0.75064254

> <PEOE_PC->
-0.75064254

> <PEOE_RPC+>
0.28204614

> <PEOE_RPC->
0.49689147

> <PEOE_VSA+0>
35.89304

> <PEOE_VSA+1>
8.5307722

> <PEOE_VSA+2>
4.2653861

> <PEOE_VSA+3>
0.0

> <PEOE_VSA+4>
10.324173

> <PEOE_VSA+5>
0.0

> <PEOE_VSA+6>
0.0

> <PEOE_VSA-0>
20.956217

> <PEOE_VSA-1>
64.138123

> <PEOE_VSA-2>
25.854858

> <PEOE_VSA-3>
0.0

> <PEOE_VSA-4>
0.0

> <PEOE_VSA-5>
0.0

> <PEOE_VSA-6>
7.7675405

> <PEOE_VSA_FHYD>
0.89820683

> <PEOE_VSA_FNEG>
0.66796076

> <PEOE_VSA_FPNEG>
0.043704133

> <PEOE_VSA_FPOL>
0.10179318

> <PEOE_VSA_FPOS>
0.33203924

> <PEOE_VSA_FPPOS>
0.058089048

> <PEOE_VSA_HYD>
159.6384

> <PEOE_VSA_NEG>
118.71674

> <PEOE_VSA_PNEG>
7.7675405

> <PEOE_VSA_POL>
18.091713

> <PEOE_VSA_POS>
59.013371

> <PEOE_VSA_PPOS>
10.324173

> <petitjean>
0.40000001

> <petitjeanSC>
0.66666669

> <Q_PC+>
0

> <Q_PC->
0

> <Q_RPC+>
0

> <Q_RPC->
0

> <Q_VSA_FHYD>
1

> <Q_VSA_FNEG>
0

> <Q_VSA_FPNEG>
0

> <Q_VSA_FPOL>
0

> <Q_VSA_FPOS>
1

> <Q_VSA_FPPOS>
0

> <Q_VSA_HYD>
177.7301

> <Q_VSA_NEG>
0

> <Q_VSA_PNEG>
0

> <Q_VSA_POL>
0

> <Q_VSA_POS>
177.7301

> <Q_VSA_PPOS>
0

> <radius>
3

> <reactive>
0

> <rings>
0

> <RPC+>
0

> <RPC->
0

> <rsynth>
0.11111111

> <SlogP>
1.513208

> <SlogP_VSA0>
25.385227

> <SlogP_VSA1>
0.0

> <SlogP_VSA2>
0.0

> <SlogP_VSA3>
17.030573

> <SlogP_VSA4>
31.488184

> <SlogP_VSA5>
0.0

> <SlogP_VSA6>
0.0

> <SlogP_VSA7>
35.601398

> <SlogP_VSA8>
18.868406

> <SlogP_VSA9>
72.474655

> <SMR>
3.9066801

> <SMR_VSA0>
0.0

> <SMR_VSA1>
25.385227

> <SMR_VSA2>
0.0

> <SMR_VSA3>
17.030573

> <SMR_VSA4>
0.0

> <SMR_VSA5>
54.469807

> <SMR_VSA6>
31.488184

> <SMR_VSA7>
72.474655

> <TPSA>
20.23

> <VAdjEq>
0.71696228

> <VAdjMa>
4.0

> <VDistEq>
2.17136

> <VDistMa>
6.0152125

> <vdw_area>
177.7301

> <vdw_vol>
191.67336

> <vsa_acc>
0.0

> <vsa_acid>
0

> <vsa_base>
0

> <vsa_don>
0.0

> <vsa_hyd>
153.94403

> <vsa_other>
0.0

> <vsa_pol>
13.566921

> <Weight>
144.601

> <weinerPath>
92

> <weinerPol>
10

> <zagreb>
36

$$$$
Row1559
 OpenBabel06061811532D

 25 28  0  0  1  0  0  0  0  0999 V2000
    0.0000    0.0000    0.0000 O   0  0  0  0  0  0  0  0  0  0  0  0
    0.0000    0.0000    0.0000 C   0  0  0  0  0  0  0  0  0  0  0  0
    0.0000    0.0000    0.0000 C   0  0  0  0  0  0  0  0  0  0  0  0
    0.0000    0.0000    0.0000 C   0  0  0  0  0  0  0  0  0  0  0  0
    0.0000    0.0000    0.0000 C   0  0  0  0  0  0  0  0  0  0  0  0
    0.0000    0.0000    0.0000 C   0  0  0  0  0  0  0  0  0  0  0  0
    0.0000    0.0000    0.0000 C   0  0  1  0  0  0  0  0  0  0  0  0
    0.0000    0.0000    0.0000 H   0  0  0  0  0  0  0  0  0  0  0  0
    0.0000    0.0000    0.0000 C   0  0  2  0  0  0  0  0  0  0  0  0
    0.0000    0.0000    0.0000 H   0  0  0  0  0  0  0  0  0  0  0  0
    0.0000    0.0000    0.0000 C   0  0  0  0  0  0  0  0  0  0  0  0
    0.0000    0.0000    0.0000 C   0  0  0  0  0  0  0  0  0  0  0  0
    0.0000    0.0000    0.0000 C   0  0  1  0  0  0  0  0  0  0  0  0
    0.0000    0.0000    0.0000 O   0  0  0  0  0  0  0  0  0  0  0  0
    0.0000    0.0000    0.0000 C   0  0  0  0  0  0  0  0  0  0  0  0
    0.0000    0.0000    0.0000 C   0  0  0  0  0  0  0  0  0  0  0  0
    0.0000    0.0000    0.0000 C   0  0  1  0  0  0  0  0  0  0  0  0
    0.0000    0.0000    0.0000 C   0  0  0  0  0  0  0  0  0  0  0  0
    0.0000    0.0000    0.0000 C   0  0  0  0  0  0  0  0  0  0  0  0
    0.0000    0.0000    0.0000 C   0  0  2  0  0  0  0  0  0  0  0  0
    0.0000    0.0000    0.0000 H   0  0  0  0  0  0  0  0  0  0  0  0
    0.0000    0.0000    0.0000 C   0  0  0  0  0  0  0  0  0  0  0  0
    0.0000    0.0000    0.0000 C   0  0  0  0  0  0  0  0  0  0  0  0
    0.0000    0.0000    0.0000 C   0  0  0  0  0  0  0  0  0  0  0  0
    0.0000    0.0000    0.0000 C   0  0  0  0  0  0  0  0  0  0  0  0
  1  2  1  0  0  0  0
  2 24  1  0  0  0  0
  2  3  2  0  0  0  0
  3  4  1  0  0  0  0
  4 22  2  0  0  0  0
  4  5  1  0  0  0  0
  5  6  1  0  0  0  0
  6  7  1  0  0  0  0
  7  8  1  0  0  0  0
  7 20  1  0  0  0  0
  7  9  1  0  0  0  0
  9 10  1  0  0  0  0
  9 17  1  0  0  0  0
  9 11  1  0  0  0  0
 11 12  1  0  0  0  0
 12 13  1  0  0  0  0
 13 14  1  0  0  0  0
 13 15  1  0  0  0  0
 13 17  1  0  0  0  0
 15 16  3  0  0  0  0
 17 18  1  0  0  0  0
 17 25  1  0  0  0  0
 18 19  1  0  0  0  0
 19 20  1  0  0  0  0
 20 21  1  0  0  0  0
 20 22  1  0  0  0  0
 22 23  1  0  0  0  0
 23 24  2  0  0  0  0
M  END
> <Index>
1560

> <ID>
HT0808

> <class>
1

> <apol>
52.807034

> <ast_fraglike>
0

> <ast_fraglike_ext>
0

> <ast_violation>
1

> <ast_violation_ext>
1

> <a_acc>
2

> <a_acid>
0

> <a_aro>
6

> <a_base>
0

> <a_count>
46

> <a_don>
2

> <a_donacc>
4

> <a_heavy>
22

> <a_hyd>
20

> <a_IC>
55.60619

> <a_ICM>
1.2088301

> <a_nB>
0

> <a_nBr>
0

> <a_nC>
20

> <a_nCl>
0

> <a_nF>
0

> <a_nH>
24

> <a_nI>
0

> <a_nN>
0

> <a_nO>
2

> <a_nP>
0

> <a_nS>
0

> <balabanJ>
1.5814986

> <BCUT_PEOE_0>
-2.8824177

> <BCUT_PEOE_1>
-0.57627642

> <BCUT_PEOE_2>
0.63652807

> <BCUT_PEOE_3>
2.9363711

> <BCUT_SLOGP_0>
-2.8057826

> <BCUT_SLOGP_1>
-0.61267513

> <BCUT_SLOGP_2>
0.64595401

> <BCUT_SLOGP_3>
3.0056298

> <BCUT_SMR_0>
-2.6298041

> <BCUT_SMR_1>
-0.43044993

> <BCUT_SMR_2>
0.77529645

> <BCUT_SMR_3>
3.1828749

> <bpol>
26.236967

> <b_1rotN>
0

> <b_1rotR>
0.0

> <b_ar>
6

> <b_count>
49

> <b_double>
0

> <b_heavy>
25

> <b_max1len>
3

> <b_rotN>
1

> <b_rotR>
0.039999999

> <b_single>
42

> <b_triple>
1

> <chi0>
15.53517

> <chi0v>
13.17852

> <chi0v_C>
12.284093

> <chi0_C>
13.53517

> <chi1>
10.483112

> <chi1v>
8.5033445

> <chi1v_C>
8.0561314

> <chi1_C>
9.4057617

> <chiral>
5

> <chiral_u>
0

> <density>
0.68229443

> <diameter>
11

> <FCharge>
0

> <GCUT_PEOE_0>
-0.79152739

> <GCUT_PEOE_1>
-0.3964678

> <GCUT_PEOE_2>
0.05747506

> <GCUT_PEOE_3>
3.1384826

> <GCUT_SLOGP_0>
-0.88819593

> <GCUT_SLOGP_1>
-0.32358333

> <GCUT_SLOGP_2>
0.11626016

> <GCUT_SLOGP_3>
3.2301691

> <GCUT_SMR_0>
-0.53540993

> <GCUT_SMR_1>
-0.2291801

> <GCUT_SMR_2>
0.17923997

> <GCUT_SMR_3>
3.3753328

> <Kier1>
15.5232

> <Kier2>
5.25

> <Kier3>
2.1111112

> <KierA1>
13.008226

> <KierA2>
4.3601103

> <KierA3>
1.7418888

> <KierFlex>
2.5780592

> <lip_acc>
2

> <lip_don>
2

> <lip_druglike>
1

> <lip_violation>
0

> <logP(o/w)>
4.223

> <logS>
-5.1370401

> <mr>
8.6531601

> <mutagenic>
0

> <nmol>
1

> <opr_brigid>
21

> <opr_leadlike>
1

> <opr_nring>
4

> <opr_nrot>
1

> <opr_violation>
0

> <PC+>
0

> <PC->
0

> <PEOE_PC+>
1.4663695

> <PEOE_PC->
-1.4663695

> <PEOE_RPC+>
0.14819826

> <PEOE_RPC->
0.25640723

> <PEOE_VSA+0>
76.776947

> <PEOE_VSA+1>
21.254677

> <PEOE_VSA+2>
4.2653861

> <PEOE_VSA+3>
0.0

> <PEOE_VSA+4>
20.648346

> <PEOE_VSA+5>
0.0

> <PEOE_VSA+6>
0.0

> <PEOE_VSA-0>
81.134766

> <PEOE_VSA-1>
46.811077

> <PEOE_VSA-2>
25.854858

> <PEOE_VSA-3>
0.0

> <PEOE_VSA-4>
0.0

> <PEOE_VSA-5>
0.0

> <PEOE_VSA-6>
15.535081

> <PEOE_VSA_FHYD>
0.87620336

> <PEOE_VSA_FNEG>
0.57935923

> <PEOE_VSA_FPNEG>
0.053151157

> <PEOE_VSA_FPOL>
0.12379665

> <PEOE_VSA_FPOS>
0.42064074

> <PEOE_VSA_FPPOS>
0.070645496

> <PEOE_VSA_HYD>
256.09772

> <PEOE_VSA_NEG>
169.33578

> <PEOE_VSA_PNEG>
15.535081

> <PEOE_VSA_POL>
36.183426

> <PEOE_VSA_POS>
122.94536

> <PEOE_VSA_PPOS>
20.648346

> <petitjean>
0.45454547

> <petitjeanSC>
0.83333331

> <Q_PC+>
0

> <Q_PC->
0

> <Q_RPC+>
0

> <Q_RPC->
0

> <Q_VSA_FHYD>
1

> <Q_VSA_FNEG>
0

> <Q_VSA_FPNEG>
0

> <Q_VSA_FPOL>
0

> <Q_VSA_FPOS>
1

> <Q_VSA_FPPOS>
0

> <Q_VSA_HYD>
292.28113

> <Q_VSA_NEG>
0

> <Q_VSA_PNEG>
0

> <Q_VSA_POL>
0

> <Q_VSA_POS>
292.28113

> <Q_VSA_PPOS>
0

> <radius>
6

> <reactive>
0

> <rings>
4

> <RPC+>
0

> <RPC->
0

> <rsynth>
0.31818181

> <SlogP>
3.6125779

> <SlogP_VSA0>
50.770454

> <SlogP_VSA1>
0.0

> <SlogP_VSA2>
0.0

> <SlogP_VSA3>
17.030573

> <SlogP_VSA4>
46.680923

> <SlogP_VSA5>
18.868406

> <SlogP_VSA6>
4.4107962

> <SlogP_VSA7>
52.929554

> <SlogP_VSA8>
94.342026

> <SlogP_VSA9>
38.569443

> <SMR>
8.6506596

> <SMR_VSA0>
0.0

> <SMR_VSA1>
50.770454

> <SMR_VSA2>
8.8215923

> <SMR_VSA3>
33.055946

> <SMR_VSA4>
0.0

> <SMR_VSA5>
166.13998

> <SMR_VSA6>
31.488184

> <SMR_VSA7>
33.326015

> <TPSA>
40.459999

> <VAdjEq>
0.47938794

> <VAdjMa>
5.643856

> <VDistEq>
3.0712955

> <VDistMa>
8.6308546

> <vdw_area>
292.28113

> <vdw_vol>
434.43121

> <vsa_acc>
0.0

> <vsa_acid>
0

> <vsa_base>
0

> <vsa_don>
0.0

> <vsa_hyd>
236.40306

> <vsa_other>
0.0

> <vsa_pol>
27.133842

> <Weight>
296.41

> <weinerPath>
941

> <weinerPol>
46

> <zagreb>
130

$$$$
Row1560
 OpenBabel06061811532D

 22 24  0  0  1  0  0  0  0  0999 V2000
    0.0000    0.0000    0.0000 O   0  0  0  0  0  0  0  0  0  0  0  0
    0.0000    0.0000    0.0000 C   0  0  0  0  0  0  0  0  0  0  0  0
    0.0000    0.0000    0.0000 C   0  0  0  0  0  0  0  0  0  0  0  0
    0.0000    0.0000    0.0000 C   0  0  0  0  0  0  0  0  0  0  0  0
    0.0000    0.0000    0.0000 C   0  0  0  0  0  0  0  0  0  0  0  0
    0.0000    0.0000    0.0000 N   0  0  0  0  0  0  0  0  0  0  0  0
    0.0000    0.0000    0.0000 H   0  0  0  0  0  0  0  0  0  0  0  0
    0.0000    0.0000    0.0000 C   0  0  0  0  0  0  0  0  0  0  0  0
    0.0000    0.0000    0.0000 C   0  0  0  0  0  0  0  0  0  0  0  0
    0.0000    0.0000    0.0000 C   0  0  0  0  0  0  0  0  0  0  0  0
    0.0000    0.0000    0.0000 C   0  0  0  0  0  0  0  0  0  0  0  0
    0.0000    0.0000    0.0000 C   0  0  0  0  0  0  0  0  0  0  0  0
    0.0000    0.0000    0.0000 C   0  0  0  0  0  0  0  0  0  0  0  0
    0.0000    0.0000    0.0000 C   0  0  0  0  0  0  0  0  0  0  0  0
    0.0000    0.0000    0.0000 C   0  0  0  0  0  0  0  0  0  0  0  0
    0.0000    0.0000    0.0000 C   0  0  3  0  0  0  0  0  0  0  0  0
    0.0000    0.0000    0.0000 C   0  0  0  0  0  0  0  0  0  0  0  0
    0.0000    0.0000    0.0000 C   0  0  0  0  0  0  0  0  0  0  0  0
    0.0000    0.0000    0.0000 O   0  0  0  0  0  0  0  0  0  0  0  0
    0.0000    0.0000    0.0000 O   0  0  0  0  0  0  0  0  0  0  0  0
    0.0000    0.0000    0.0000 C   0  0  0  0  0  0  0  0  0  0  0  0
    0.0000    0.0000    0.0000 C   0  0  0  0  0  0  0  0  0  0  0  0
  1 16  1  0  0  0  0
  1  2  1  0  0  0  0
  2  3  1  0  0  0  0
  3  4  1  0  0  0  0
  4  9  1  0  0  0  0
  4  5  2  0  0  0  0
  5  6  1  0  0  0  0
  5 16  1  0  0  0  0
  6  7  1  0  0  0  0
  6  8  1  0  0  0  0
  8 13  1  0  0  0  0
  8  9  2  0  0  0  0
  9 10  1  0  0  0  0
 10 11  2  0  0  0  0
 11 12  1  0  0  0  0
 12 13  2  0  0  0  0
 13 14  1  0  0  0  0
 14 15  1  0  0  0  0
 16 17  1  0  0  0  0
 16 21  1  0  0  0  0
 17 18  1  0  0  0  0
 18 19  1  0  0  0  0
 18 20  2  0  0  0  0
 21 22  1  0  0  0  0
M  END
> <Index>
1561

> <ID>
HT0826

> <class>
1

> <apol>
47.428654

> <ast_fraglike>
0

> <ast_fraglike_ext>
0

> <ast_violation>
1

> <ast_violation_ext>
2

> <a_acc>
3

> <a_acid>
0

> <a_aro>
9

> <a_base>
0

> <a_count>
42

> <a_don>
3

> <a_donacc>
6

> <a_heavy>
21

> <a_hyd>
16

> <a_IC>
59.99691

> <a_ICM>
1.4284979

> <a_nB>
0

> <a_nBr>
0

> <a_nC>
17

> <a_nCl>
0

> <a_nF>
0

> <a_nH>
21

> <a_nI>
0

> <a_nN>
1

> <a_nO>
3

> <a_nP>
0

> <a_nS>
0

> <balabanJ>
1.8541893

> <BCUT_PEOE_0>
-2.6582541

> <BCUT_PEOE_1>
-0.50410259

> <BCUT_PEOE_2>
0.49268806

> <BCUT_PEOE_3>
2.6890705

> <BCUT_SLOGP_0>
-2.5992486

> <BCUT_SLOGP_1>
-0.41643202

> <BCUT_SLOGP_2>
0.55779386

> <BCUT_SLOGP_3>
2.7744997

> <BCUT_SMR_0>
-2.422493

> <BCUT_SMR_1>
-0.31459352

> <BCUT_SMR_2>
0.64681709

> <BCUT_SMR_3>
2.9247911

> <bpol>
26.491346

> <b_1rotN>
4

> <b_1rotR>
0.17391305

> <b_ar>
10

> <b_count>
44

> <b_double>
1

> <b_heavy>
23

> <b_max1len>
5

> <b_rotN>
4

> <b_rotR>
0.17391305

> <b_single>
33

> <b_triple>
0

> <chi0>
15.03517

> <chi0v>
12.531295

> <chi0v_C>
10.767585

> <chi0_C>
11.620955

> <chi1>
10.109321

> <chi1v>
7.5965276

> <chi1v_C>
6.1759973

> <chi1_C>
7.2845702

> <chiral>
1

> <chiral_u>
1

> <density>
0.71741718

> <diameter>
9

> <FCharge>
0

> <GCUT_PEOE_0>
-0.85264897

> <GCUT_PEOE_1>
-0.39878288

> <GCUT_PEOE_2>
0.056596085

> <GCUT_PEOE_3>
2.8051085

> <GCUT_SLOGP_0>
-0.87315774

> <GCUT_SLOGP_1>
-0.29331899

> <GCUT_SLOGP_2>
0.072210237

> <GCUT_SLOGP_3>
2.9068272

> <GCUT_SMR_0>
-0.52364421

> <GCUT_SMR_1>
-0.20306864

> <GCUT_SMR_2>
0.17454983

> <GCUT_SMR_3>
3.0720766

> <Kier1>
15.879017

> <Kier2>
6.2456746

> <Kier3>
2.6988754

> <KierA1>
12.595922

> <KierA2>
4.8928137

> <KierA3>
2.0940452

> <KierFlex>
2.9347384

> <lip_acc>
4

> <lip_don>
2

> <lip_druglike>
1

> <lip_violation>
0

> <logP(o/w)>
3.7360001

> <logS>
-3.2102001

> <mr>
8.189127

> <mutagenic>
0

> <nmol>
1

> <opr_brigid>
15

> <opr_leadlike>
1

> <opr_nring>
3

> <opr_nrot>
4

> <opr_violation>
0

> <PC+>
0

> <PC->
0

> <PEOE_PC+>
1.6998358

> <PEOE_PC->
-1.6998358

> <PEOE_RPC+>
0.15456708

> <PEOE_RPC->
0.21560328

> <PEOE_VSA+0>
61.923943

> <PEOE_VSA+1>
58.378639

> <PEOE_VSA+2>
0.0

> <PEOE_VSA+3>
8.6190128

> <PEOE_VSA+4>
10.324173

> <PEOE_VSA+5>
14.708499

> <PEOE_VSA+6>
0.0

> <PEOE_VSA-0>
30.521019

> <PEOE_VSA-1>
74.260063

> <PEOE_VSA-2>
0.0

> <PEOE_VSA-3>
0.0

> <PEOE_VSA-4>
0.0

> <PEOE_VSA-5>
13.566921

> <PEOE_VSA-6>
10.408187

> <PEOE_VSA_FHYD>
0.82665026

> <PEOE_VSA_FNEG>
0.45543483

> <PEOE_VSA_FPNEG>
0.08480446

> <PEOE_VSA_FPOL>
0.17334972

> <PEOE_VSA_FPOS>
0.54456514

> <PEOE_VSA_FPPOS>
0.088545263

> <PEOE_VSA_HYD>
233.70268

> <PEOE_VSA_NEG>
128.7562

> <PEOE_VSA_PNEG>
23.975109

> <PEOE_VSA_POL>
49.007782

> <PEOE_VSA_POS>
153.95427

> <PEOE_VSA_PPOS>
25.032671

> <petitjean>
0.44444445

> <petitjeanSC>
0.80000001

> <Q_PC+>
0

> <Q_PC->
0

> <Q_RPC+>
0

> <Q_RPC->
0

> <Q_VSA_FHYD>
1

> <Q_VSA_FNEG>
0

> <Q_VSA_FPNEG>
0

> <Q_VSA_FPOL>
0

> <Q_VSA_FPOS>
1

> <Q_VSA_FPPOS>
0

> <Q_VSA_HYD>
282.71045

> <Q_VSA_NEG>
0

> <Q_VSA_PNEG>
0

> <Q_VSA_POL>
0

> <Q_VSA_POS>
282.71045

> <Q_VSA_PPOS>
0

> <radius>
5

> <reactive>
0

> <rings>
3

> <RPC+>
0

> <RPC->
0

> <rsynth>
0.61904764

> <SlogP>
3.6944399

> <SlogP_VSA0>
0.0

> <SlogP_VSA1>
7.7454643

> <SlogP_VSA2>
51.647633

> <SlogP_VSA3>
46.311485

> <SlogP_VSA4>
9.1278973

> <SlogP_VSA5>
37.736813

> <SlogP_VSA6>
0.0

> <SlogP_VSA7>
57.646656

> <SlogP_VSA8>
37.736813

> <SlogP_VSA9>
66.652031

> <SMR>
8.1671495

> <SMR_VSA0>
34.862103

> <SMR_VSA1>
0.0

> <SMR_VSA2>
42.170757

> <SMR_VSA3>
9.1278973

> <SMR_VSA4>
4.7171016

> <SMR_VSA5>
128.40317

> <SMR_VSA6>
28.671722

> <SMR_VSA7>
66.652031

> <TPSA>
62.32

> <VAdjEq>
0.48250595

> <VAdjMa>
5.523562

> <VDistEq>
2.921818

> <VDistMa>
8.5283966

> <vdw_area>
282.71045

> <vdw_vol>
400.5466

> <vsa_acc>
2.503756

> <vsa_acid>
0

> <vsa_base>
0

> <vsa_don>
5.6825762

> <vsa_hyd>
211.55956

> <vsa_other>
14.708499

> <vsa_pol>
35.320175

> <Weight>
287.35898

> <weinerPath>
825

> <weinerPol>
38

> <zagreb>
114

$$$$
Row1561
 OpenBabel06061811532D

 26 26  0  0  0  0  0  0  0  0999 V2000
    0.0000    0.0000    0.0000 O   0  0  0  0  0  0  0  0  0  0  0  0
    0.0000    0.0000    0.0000 C   0  0  0  0  0  0  0  0  0  0  0  0
    0.0000    0.0000    0.0000 C   0  0  0  0  0  0  0  0  0  0  0  0
    0.0000    0.0000    0.0000 C   0  0  0  0  0  0  0  0  0  0  0  0
    0.0000    0.0000    0.0000 C   0  0  0  0  0  0  0  0  0  0  0  0
    0.0000    0.0000    0.0000 C   0  0  0  0  0  0  0  0  0  0  0  0
    0.0000    0.0000    0.0000 C   0  0  0  0  0  0  0  0  0  0  0  0
    0.0000    0.0000    0.0000 C   0  0  0  0  0  0  0  0  0  0  0  0
    0.0000    0.0000    0.0000 C   0  0  0  0  0  0  0  0  0  0  0  0
    0.0000    0.0000    0.0000 C   0  0  0  0  0  0  0  0  0  0  0  0
    0.0000    0.0000    0.0000 C   0  0  0  0  0  0  0  0  0  0  0  0
    0.0000    0.0000    0.0000 C   0  0  0  0  0  0  0  0  0  0  0  0
    0.0000    0.0000    0.0000 C   0  0  0  0  0  0  0  0  0  0  0  0
    0.0000    0.0000    0.0000 C   0  0  0  0  0  0  0  0  0  0  0  0
    0.0000    0.0000    0.0000 C   0  0  0  0  0  0  0  0  0  0  0  0
    0.0000    0.0000    0.0000 C   0  0  0  0  0  0  0  0  0  0  0  0
    0.0000    0.0000    0.0000 O   0  0  0  0  0  0  0  0  0  0  0  0
    0.0000    0.0000    0.0000 C   0  0  0  0  0  0  0  0  0  0  0  0
    0.0000    0.0000    0.0000 C   0  0  0  0  0  0  0  0  0  0  0  0
    0.0000    0.0000    0.0000 O   0  0  0  0  0  0  0  0  0  0  0  0
    0.0000    0.0000    0.0000 C   0  0  0  0  0  0  0  0  0  0  0  0
    0.0000    0.0000    0.0000 C   0  0  0  0  0  0  0  0  0  0  0  0
    0.0000    0.0000    0.0000 C   0  0  0  0  0  0  0  0  0  0  0  0
    0.0000    0.0000    0.0000 C   0  0  0  0  0  0  0  0  0  0  0  0
    0.0000    0.0000    0.0000 C   0  0  0  0  0  0  0  0  0  0  0  0
    0.0000    0.0000    0.0000 C   0  0  0  0  0  0  0  0  0  0  0  0
  1  2  1  0  0  0  0
  1  3  1  0  0  0  0
  3 25  1  0  0  0  0
  3  4  2  0  0  0  0
  4  5  1  0  0  0  0
  5  6  1  0  0  0  0
  5  7  2  0  0  0  0
  7  8  1  0  0  0  0
  7 23  1  0  0  0  0
  8  9  2  3  0  0  0
  9 10  1  0  0  0  0
 10 11  2  3  0  0  0
 10 22  1  0  0  0  0
 11 12  1  0  0  0  0
 12 13  2  3  0  0  0
 13 14  1  0  0  0  0
 14 15  2  3  0  0  0
 14 21  1  0  0  0  0
 15 16  1  0  0  0  0
 16 17  1  0  0  0  0
 16 20  2  0  0  0  0
 17 18  1  0  0  0  0
 18 19  1  0  0  0  0
 23 24  1  0  0  0  0
 23 25  2  0  0  0  0
 25 26  1  0  0  0  0
M  END
> <Index>
1562

> <ID>
HT0835

> <class>
1

> <apol>
62.88979

> <ast_fraglike>
0

> <ast_fraglike_ext>
0

> <ast_violation>
2

> <ast_violation_ext>
3

> <a_acc>
2

> <a_acid>
0

> <a_aro>
6

> <a_base>
0

> <a_count>
56

> <a_don>
0

> <a_donacc>
2

> <a_heavy>
26

> <a_hyd>
22

> <a_IC>
69.208344

> <a_ICM>
1.2358633

> <a_nB>
0

> <a_nBr>
0

> <a_nC>
23

> <a_nCl>
0

> <a_nF>
0

> <a_nH>
30

> <a_nI>
0

> <a_nN>
0

> <a_nO>
3

> <a_nP>
0

> <a_nS>
0

> <balabanJ>
2.2654719

> <BCUT_PEOE_0>
-2.412184

> <BCUT_PEOE_1>
-0.25797042

> <BCUT_PEOE_2>
0.1498795

> <BCUT_PEOE_3>
2.3661196

> <BCUT_SLOGP_0>
-2.3885624

> <BCUT_SLOGP_1>
-0.15028921

> <BCUT_SLOGP_2>
0.25124353

> <BCUT_SLOGP_3>
2.5314748

> <BCUT_SMR_0>
-2.1458478

> <BCUT_SMR_1>
0.0054964726

> <BCUT_SMR_2>
0.35751477

> <BCUT_SMR_3>
2.6789517

> <bpol>
37.586208

> <b_1rotN>
7

> <b_1rotR>
0.26923078

> <b_ar>
6

> <b_count>
56

> <b_double>
5

> <b_heavy>
26

> <b_max1len>
3

> <b_rotN>
8

> <b_rotR>
0.30769232

> <b_single>
45

> <b_triple>
0

> <chi0>
19.689871

> <chi0v>
16.973303

> <chi0v_C>
15.748559

> <chi0_C>
17.275656

> <chi1>
12.294131

> <chi1v>
8.8258038

> <chi1v_C>
7.5165076

> <chi1_C>
9.6931782

> <chiral>
0

> <chiral_u>
0

> <density>
0.65276307

> <diameter>
17

> <FCharge>
0

> <GCUT_PEOE_0>
-0.7886433

> <GCUT_PEOE_1>
-0.37416402

> <GCUT_PEOE_2>
-0.10483452

> <GCUT_PEOE_3>
2.5664301

> <GCUT_SLOGP_0>
-0.88695472

> <GCUT_SLOGP_1>
-0.24976477

> <GCUT_SLOGP_2>
-0.037

> <GCUT_SLOGP_3>
2.721776

> <GCUT_SMR_0>
-0.51363206

> <GCUT_SMR_1>
-0.12717405

> <GCUT_SMR_2>
0.022497503

> <GCUT_SMR_3>
2.8601174

> <Kier1>
24.038462

> <Kier2>
12.456747

> <Kier3>
8.2799997

> <KierA1>
18.492672

> <KierA2>
9.475297

> <KierA3>
6.2474837

> <KierFlex>
6.7393675

> <lip_acc>
3

> <lip_don>
0

> <lip_druglike>
1

> <lip_violation>
1

> <logP(o/w)>
5.7309999

> <logS>
-7.8172898

> <mr>
10.840234

> <mutagenic>
0

> <nmol>
1

> <opr_brigid>
10

> <opr_leadlike>
1

> <opr_nring>
1

> <opr_nrot>
7

> <opr_violation>
1

> <PC+>
0

> <PC->
0

> <PEOE_PC+>
1.6828393

> <PEOE_PC->
-1.6828393

> <PEOE_RPC+>
0.17044169

> <PEOE_RPC->
0.20657533

> <PEOE_VSA+0>
114.02951

> <PEOE_VSA+1>
74.594444

> <PEOE_VSA+2>
0.0

> <PEOE_VSA+3>
0.0

> <PEOE_VSA+4>
0.0

> <PEOE_VSA+5>
14.708499

> <PEOE_VSA+6>
0.0

> <PEOE_VSA-0>
135.78366

> <PEOE_VSA-1>
63.483059

> <PEOE_VSA-2>
0.0

> <PEOE_VSA-3>
0.0

> <PEOE_VSA-4>
0.0

> <PEOE_VSA-5>
13.566921

> <PEOE_VSA-6>
5.0075121

> <PEOE_VSA_FHYD>
0.92097574

> <PEOE_VSA_FNEG>
0.51722413

> <PEOE_VSA_FPNEG>
0.044101607

> <PEOE_VSA_FPOL>
0.079024255

> <PEOE_VSA_FPOS>
0.48277587

> <PEOE_VSA_FPPOS>
0.034922652

> <PEOE_VSA_HYD>
387.89069

> <PEOE_VSA_NEG>
217.84116

> <PEOE_VSA_PNEG>
18.574432

> <PEOE_VSA_POL>
33.282932

> <PEOE_VSA_POS>
203.33246

> <PEOE_VSA_PPOS>
14.708499

> <petitjean>
0.47058824

> <petitjeanSC>
0.8888889

> <Q_PC+>
0

> <Q_PC->
0

> <Q_RPC+>
0

> <Q_RPC->
0

> <Q_VSA_FHYD>
1

> <Q_VSA_FNEG>
0

> <Q_VSA_FPNEG>
0

> <Q_VSA_FPOL>
0

> <Q_VSA_FPOS>
1

> <Q_VSA_FPPOS>
0

> <Q_VSA_HYD>
421.17361

> <Q_VSA_NEG>
0

> <Q_VSA_PNEG>
0

> <Q_VSA_POL>
0

> <Q_VSA_POS>
421.17361

> <Q_VSA_PPOS>
0

> <radius>
9

> <reactive>
0

> <rings>
1

> <RPC+>
0

> <RPC->
0

> <rsynth>
0.15384616

> <SlogP>
5.6455598

> <SlogP_VSA0>
10.999887

> <SlogP_VSA1>
7.7454643

> <SlogP_VSA2>
34.862103

> <SlogP_VSA3>
20.926258

> <SlogP_VSA4>
12.7423

> <SlogP_VSA5>
41.755016

> <SlogP_VSA6>
0.0

> <SlogP_VSA7>
105.85911

> <SlogP_VSA8>
17.643185

> <SlogP_VSA9>
205.19952

> <SMR>
10.9526

> <SMR_VSA0>
34.862103

> <SMR_VSA1>
10.999887

> <SMR_VSA2>
0.0

> <SMR_VSA3>
24.356878

> <SMR_VSA4>
0.0

> <SMR_VSA5>
105.85911

> <SMR_VSA6>
46.314907

> <SMR_VSA7>
235.33995

> <TPSA>
35.529999

> <VAdjEq>
0.39124358

> <VAdjMa>
5.7004399

> <VDistEq>
3.8216951

> <VDistMa>
9.0605993

> <vdw_area>
421.17361

> <vdw_vol>
543.06073

> <vsa_acc>
16.070677

> <vsa_acid>
0

> <vsa_base>
0

> <vsa_don>
0.0

> <vsa_hyd>
366.53683

> <vsa_other>
17.212255

> <vsa_pol>
16.070677

> <Weight>
354.48999

> <weinerPath>
2087

> <weinerPol>
37

> <zagreb>
120

$$$$
Row1562
 OpenBabel06061811532D

 20 20  0  0  0  0  0  0  0  0999 V2000
    0.0000    0.0000    0.0000 S   0  0  0  0  0  0  0  0  0  0  0  0
    0.0000    0.0000    0.0000 C   0  0  0  0  0  0  0  0  0  0  0  0
    0.0000    0.0000    0.0000 C   0  0  0  0  0  0  0  0  0  0  0  0
    0.0000    0.0000    0.0000 N   0  0  0  0  0  0  0  0  0  0  0  0
    0.0000    0.0000    0.0000 C   0  0  0  0  0  0  0  0  0  0  0  0
    0.0000    0.0000    0.0000 N   0  0  0  0  0  0  0  0  0  0  0  0
    0.0000    0.0000    0.0000 C   0  0  0  0  0  0  0  0  0  0  0  0
    0.0000    0.0000    0.0000 N   0  0  0  0  0  0  0  0  0  0  0  0
    0.0000    0.0000    0.0000 N   0  0  0  0  0  0  0  0  0  0  0  0
    0.0000    0.0000    0.0000 C   0  0  0  0  0  0  0  0  0  0  0  0
    0.0000    0.0000    0.0000 S   0  0  0  0  0  0  0  0  0  0  0  0
    0.0000    0.0000    0.0000 C   0  0  0  0  0  0  0  0  0  0  0  0
    0.0000    0.0000    0.0000 C   0  0  0  0  0  0  0  0  0  0  0  0
    0.0000    0.0000    0.0000 C   0  0  0  0  0  0  0  0  0  0  0  0
    0.0000    0.0000    0.0000 N   0  0  0  0  0  0  0  0  0  0  0  0
    0.0000    0.0000    0.0000 S   0  0  0  0  0  0  0  0  0  0  0  0
    0.0000    0.0000    0.0000 O   0  0  0  0  0  0  0  0  0  0  0  0
    0.0000    0.0000    0.0000 O   0  0  0  0  0  0  0  0  0  0  0  0
    0.0000    0.0000    0.0000 N   0  0  0  0  0  0  0  0  0  0  0  0
    0.0000    0.0000    0.0000 N   0  0  0  0  0  0  0  0  0  0  0  0
  1  5  1  0  0  0  0
  1  2  1  0  0  0  0
  2  3  2  0  0  0  0
  3  4  1  0  0  0  0
  3 10  1  0  0  0  0
  4  5  2  0  0  0  0
  5  6  1  0  0  0  0
  6  7  1  0  0  0  0
  7  8  1  0  0  0  0
  7  9  2  0  0  0  0
 10 11  1  0  0  0  0
 11 12  1  0  0  0  0
 12 13  1  0  0  0  0
 13 14  1  0  0  0  0
 14 15  1  0  0  0  0
 14 20  2  0  0  0  0
 15 16  1  0  0  0  0
 16 17  2  0  0  0  0
 16 18  2  0  0  0  0
 16 19  1  0  0  0  0
M  END
> <Index>
1563

> <ID>
HT0847

> <class>
1

> <apol>
42.085896

> <ast_fraglike>
0

> <ast_fraglike_ext>
0

> <ast_violation>
3

> <ast_violation_ext>
5

> <a_acc>
5

> <a_acid>
0

> <a_aro>
5

> <a_base>
0

> <a_count>
35

> <a_don>
6

> <a_donacc>
11

> <a_heavy>
20

> <a_hyd>
7

> <a_IC>
70.515175

> <a_ICM>
2.0147192

> <a_nB>
0

> <a_nBr>
0

> <a_nC>
8

> <a_nCl>
0

> <a_nF>
0

> <a_nH>
15

> <a_nI>
0

> <a_nN>
7

> <a_nO>
2

> <a_nP>
0

> <a_nS>
3

> <balabanJ>
2.0534985

> <BCUT_PEOE_0>
-2.4936953

> <BCUT_PEOE_1>
-0.57105136

> <BCUT_PEOE_2>
0.62290645

> <BCUT_PEOE_3>
2.4848263

> <BCUT_SLOGP_0>
-2.7373345

> <BCUT_SLOGP_1>
-0.68806654

> <BCUT_SLOGP_2>
0.68147713

> <BCUT_SLOGP_3>
2.5844567

> <BCUT_SMR_0>
-2.1793847

> <BCUT_SMR_1>
-0.39614052

> <BCUT_SMR_2>
0.90761322

> <BCUT_SMR_3>
2.8284745

> <bpol>
28.754105

> <b_1rotN>
7

> <b_1rotR>
0.34999999

> <b_ar>
5

> <b_count>
35

> <b_double>
2

> <b_heavy>
20

> <b_max1len>
5

> <b_rotN>
9

> <b_rotR>
0.44999999

> <b_single>
28

> <b_triple>
0

> <chi0>
15.173362

> <chi0v>
12.791316

> <chi0v_C>
4.6986704

> <chi0_C>
5.1378284

> <chi1>
9.2598391

> <chi1v>
8.8526802

> <chi1v_C>
1.4957819

> <chi1_C>
1.7247449

> <chiral>
0

> <chiral_u>
0

> <density>
0.93853766

> <diameter>
13

> <FCharge>
0

> <GCUT_PEOE_0>
-0.840051

> <GCUT_PEOE_1>
-0.36612603

> <GCUT_PEOE_2>
0.080184795

> <GCUT_PEOE_3>
2.2780557

> <GCUT_SLOGP_0>
-1.3705999

> <GCUT_SLOGP_1>
-0.40991974

> <GCUT_SLOGP_2>
0.17911421

> <GCUT_SLOGP_3>
2.3723123

> <GCUT_SMR_0>
-0.48653522

> <GCUT_SMR_1>
-0.15027918

> <GCUT_SMR_2>
0.29696763

> <GCUT_SMR_3>
2.6107676

> <Kier1>
18.049999

> <Kier2>
8.4444447

> <Kier3>
8.8128004

> <KierA1>
17.577753

> <KierA2>
8.2115564

> <KierA3>
8.5606508

> <KierFlex>
7.2170353

> <lip_acc>
9

> <lip_don>
8

> <lip_druglike>
1

> <lip_violation>
1

> <logP(o/w)>
-0.69

> <logS>
-2.8889301

> <mr>
7.9021626

> <mutagenic>
0

> <nmol>
1

> <opr_brigid>
7

> <opr_leadlike>
0

> <opr_nring>
1

> <opr_nrot>
8

> <opr_violation>
2

> <PC+>
0

> <PC->
0

> <PEOE_PC+>
2.2218454

> <PEOE_PC->
-2.2218454

> <PEOE_RPC+>
0.10795043

> <PEOE_RPC->
0.19677286

> <PEOE_VSA+0>
54.159805

> <PEOE_VSA+1>
26.051023

> <PEOE_VSA+2>
17.238026

> <PEOE_VSA+3>
78.537254

> <PEOE_VSA+4>
13.698418

> <PEOE_VSA+5>
0.0

> <PEOE_VSA+6>
0.0

> <PEOE_VSA-0>
51.39521

> <PEOE_VSA-1>
23.274715

> <PEOE_VSA-2>
0.0

> <PEOE_VSA-3>
22.29014

> <PEOE_VSA-4>
5.6825762

> <PEOE_VSA-5>
12.196804

> <PEOE_VSA-6>
18.984816

> <PEOE_VSA_FHYD>
0.84370559

> <PEOE_VSA_FNEG>
0.413665

> <PEOE_VSA_FPNEG>
0.11395114

> <PEOE_VSA_FPOL>
0.15629441

> <PEOE_VSA_FPOS>
0.586335

> <PEOE_VSA_FPPOS>
0.042343263

> <PEOE_VSA_HYD>
272.94617

> <PEOE_VSA_NEG>
133.82426

> <PEOE_VSA_PNEG>
36.864197

> <PEOE_VSA_POL>
50.562614

> <PEOE_VSA_POS>
189.68452

> <PEOE_VSA_PPOS>
13.698418

> <petitjean>
0.46153846

> <petitjeanSC>
0.85714287

> <Q_PC+>
0

> <Q_PC->
0

> <Q_RPC+>
0

> <Q_RPC->
0

> <Q_VSA_FHYD>
1

> <Q_VSA_FNEG>
0

> <Q_VSA_FPNEG>
0

> <Q_VSA_FPOL>
0

> <Q_VSA_FPOS>
1

> <Q_VSA_FPPOS>
0

> <Q_VSA_HYD>
323.50879

> <Q_VSA_NEG>
0

> <Q_VSA_PNEG>
0

> <Q_VSA_POL>
0

> <Q_VSA_POS>
323.50879

> <Q_VSA_PPOS>
0

> <radius>
7

> <reactive>
0

> <rings>
1

> <RPC+>
0

> <RPC->
0

> <rsynth>
1.0

> <SlogP>
0.10854

> <SlogP_VSA0>
80.59362

> <SlogP_VSA1>
87.194984

> <SlogP_VSA2>
6.4022179

> <SlogP_VSA3>
17.233564

> <SlogP_VSA4>
2.7567475

> <SlogP_VSA5>
0.0

> <SlogP_VSA6>
0.0

> <SlogP_VSA7>
79.159943

> <SlogP_VSA8>
18.868406

> <SlogP_VSA9>
81.231537

> <SMR>
8.26054

> <SMR_VSA0>
48.171688

> <SMR_VSA1>
16.78553

> <SMR_VSA2>
79.748932

> <SMR_VSA3>
2.7567475

> <SMR_VSA4>
82.700119

> <SMR_VSA5>
51.91798

> <SMR_VSA6>
21.460577

> <SMR_VSA7>
69.899445

> <TPSA>
170.83

> <VAdjEq>
0.4689956

> <VAdjMa>
5.321928

> <VDistEq>
3.5654135

> <VDistMa>
8.285758

> <vdw_area>
323.50879

> <vdw_vol>
359.55191

> <vsa_acc>
37.6991

> <vsa_acid>
0

> <vsa_base>
0

> <vsa_don>
51.635391

> <vsa_hyd>
115.38295

> <vsa_other>
53.737179

> <vsa_pol>
124.81947

> <Weight>
337.453

> <weinerPath>
1046

> <weinerPol>
20

> <zagreb>
94

$$$$
Row1563
 OpenBabel06061811532D

 25 26  0  0  1  0  0  0  0  0999 V2000
    0.0000    0.0000    0.0000 Cl  0  0  0  0  0  0  0  0  0  0  0  0
    0.0000    0.0000    0.0000 C   0  0  0  0  0  0  0  0  0  0  0  0
    0.0000    0.0000    0.0000 C   0  0  0  0  0  0  0  0  0  0  0  0
    0.0000    0.0000    0.0000 C   0  0  0  0  0  0  0  0  0  0  0  0
    0.0000    0.0000    0.0000 C   0  0  0  0  0  0  0  0  0  0  0  0
    0.0000    0.0000    0.0000 C   0  0  0  0  0  0  0  0  0  0  0  0
    0.0000    0.0000    0.0000 C   0  0  0  0  0  0  0  0  0  0  0  0
    0.0000    0.0000    0.0000 Cl  0  0  0  0  0  0  0  0  0  0  0  0
    0.0000    0.0000    0.0000 C   0  0  3  0  0  0  0  0  0  0  0  0
    0.0000    0.0000    0.0000 C   0  0  0  0  0  0  0  0  0  0  0  0
    0.0000    0.0000    0.0000 C   0  0  0  0  0  0  0  0  0  0  0  0
    0.0000    0.0000    0.0000 O   0  0  0  0  0  0  0  0  0  0  0  0
    0.0000    0.0000    0.0000 C   0  0  0  0  0  0  0  0  0  0  0  0
    0.0000    0.0000    0.0000 C   0  0  0  0  0  0  0  0  0  0  0  0
    0.0000    0.0000    0.0000 O   0  0  0  0  0  0  0  0  0  0  0  0
    0.0000    0.0000    0.0000 C   0  0  0  0  0  0  0  0  0  0  0  0
    0.0000    0.0000    0.0000 N   0  0  0  0  0  0  0  0  0  0  0  0
    0.0000    0.0000    0.0000 C   0  0  0  0  0  0  0  0  0  0  0  0
    0.0000    0.0000    0.0000 C   0  0  0  0  0  0  0  0  0  0  0  0
    0.0000    0.0000    0.0000 C   0  0  0  0  0  0  0  0  0  0  0  0
    0.0000    0.0000    0.0000 C   0  0  0  0  0  0  0  0  0  0  0  0
    0.0000    0.0000    0.0000 O   0  0  0  0  0  0  0  0  0  0  0  0
    0.0000    0.0000    0.0000 C   0  0  0  0  0  0  0  0  0  0  0  0
    0.0000    0.0000    0.0000 O   0  0  0  0  0  0  0  0  0  0  0  0
    0.0000    0.0000    0.0000 C   0  0  0  0  0  0  0  0  0  0  0  0
  1  2  1  0  0  0  0
  2  7  1  0  0  0  0
  2  3  2  0  0  0  0
  3  4  1  0  0  0  0
  3  9  1  0  0  0  0
  4  5  2  0  0  0  0
  5  6  1  0  0  0  0
  6  7  2  0  0  0  0
  7  8  1  0  0  0  0
  9 20  1  0  0  0  0
  9 10  1  0  0  0  0
 10 11  2  3  0  0  0
 10 16  1  0  0  0  0
 11 12  1  0  0  0  0
 11 15  1  0  0  0  0
 12 13  1  0  0  0  0
 13 14  1  0  0  0  0
 16 17  2  0  0  0  0
 16 25  1  0  0  0  0
 17 18  1  0  0  0  0
 18 19  1  0  0  0  0
 18 20  2  0  0  0  0
 20 21  1  0  0  0  0
 21 22  1  0  0  0  0
 21 24  2  0  0  0  0
 22 23  1  0  0  0  0
M  END
> <Index>
1564

> <ID>
HT0853

> <class>
1

> <apol>
53.017067

> <ast_fraglike>
0

> <ast_fraglike_ext>
0

> <ast_violation>
3

> <ast_violation_ext>
4

> <a_acc>
4

> <a_acid>
0

> <a_aro>
6

> <a_base>
0

> <a_count>
44

> <a_don>
1

> <a_donacc>
5

> <a_heavy>
25

> <a_hyd>
17

> <a_IC>
74.445717

> <a_ICM>
1.6919482

> <a_nB>
0

> <a_nBr>
0

> <a_nC>
18

> <a_nCl>
2

> <a_nF>
0

> <a_nH>
19

> <a_nI>
0

> <a_nN>
1

> <a_nO>
4

> <a_nP>
0

> <a_nS>
0

> <balabanJ>
2.4090223

> <BCUT_PEOE_0>
-2.4705186

> <BCUT_PEOE_1>
-0.51492441

> <BCUT_PEOE_2>
0.52304333

> <BCUT_PEOE_3>
2.5166831

> <BCUT_SLOGP_0>
-2.4320824

> <BCUT_SLOGP_1>
-0.33581194

> <BCUT_SLOGP_2>
0.64963645

> <BCUT_SLOGP_3>
2.5883751

> <BCUT_SMR_0>
-2.1988182

> <BCUT_SMR_1>
-0.2131858

> <BCUT_SMR_2>
0.7306003

> <BCUT_SMR_3>
2.7989938

> <bpol>
27.720934

> <b_1rotN>
4

> <b_1rotR>
0.15384616

> <b_ar>
6

> <b_count>
45

> <b_double>
4

> <b_heavy>
26

> <b_max1len>
3

> <b_rotN>
5

> <b_rotR>
0.1923077

> <b_single>
35

> <b_triple>
0

> <chi0>
18.723249

> <chi0v>
15.903467

> <chi0v_C>
11.516508

> <chi0_C>
12.60193

> <chi1>
11.827805

> <chi1v>
8.431159

> <chi1v_C>
5.3171492

> <chi1_C>
6.6783037

> <chiral>
1

> <chiral_u>
1

> <density>
0.81982565

> <diameter>
9

> <FCharge>
0

> <GCUT_PEOE_0>
-0.77557814

> <GCUT_PEOE_1>
-0.41715416

> <GCUT_PEOE_2>
-0.021512166

> <GCUT_PEOE_3>
2.6644073

> <GCUT_SLOGP_0>
-0.84477377

> <GCUT_SLOGP_1>
-0.26236704

> <GCUT_SLOGP_2>
0.14610837

> <GCUT_SLOGP_3>
2.760534

> <GCUT_SMR_0>
-0.5147692

> <GCUT_SMR_1>
-0.15586759

> <GCUT_SMR_2>
0.20544663

> <GCUT_SMR_3>
2.9455116

> <Kier1>
21.301775

> <Kier2>
9.2739229

> <Kier3>
4.4659748

> <KierA1>
18.8095

> <KierA2>
8.1443453

> <KierA3>
3.9060216

> <KierFlex>
6.1276426

> <lip_acc>
5

> <lip_don>
1

> <lip_druglike>
1

> <lip_violation>
0

> <logP(o/w)>
4.0780001

> <logS>
-4.93538

> <mr>
9.8653421

> <mutagenic>
0

> <nmol>
1

> <opr_brigid>
13

> <opr_leadlike>
1

> <opr_nring>
2

> <opr_nrot>
4

> <opr_violation>
1

> <PC+>
0

> <PC->
0

> <PEOE_PC+>
1.9173398

> <PEOE_PC->
-1.9173398

> <PEOE_RPC+>
0.15238456

> <PEOE_RPC->
0.17741965

> <PEOE_VSA+0>
83.259163

> <PEOE_VSA+1>
60.322414

> <PEOE_VSA+2>
0.0

> <PEOE_VSA+3>
14.708499

> <PEOE_VSA+4>
10.324173

> <PEOE_VSA+5>
14.708499

> <PEOE_VSA+6>
0.0

> <PEOE_VSA-0>
70.706474

> <PEOE_VSA-1>
83.673698

> <PEOE_VSA-2>
0.0

> <PEOE_VSA-3>
0.0

> <PEOE_VSA-4>
0.0

> <PEOE_VSA-5>
19.249496

> <PEOE_VSA-6>
12.775052

> <PEOE_VSA_FHYD>
0.84567761

> <PEOE_VSA_FNEG>
0.50416791

> <PEOE_VSA_FPNEG>
0.086616635

> <PEOE_VSA_FPOL>
0.15432237

> <PEOE_VSA_FPOS>
0.49583209

> <PEOE_VSA_FPPOS>
0.067705743

> <PEOE_VSA_HYD>
312.67026

> <PEOE_VSA_NEG>
186.40472

> <PEOE_VSA_PNEG>
32.024548

> <PEOE_VSA_POL>
57.05722

> <PEOE_VSA_POS>
183.32274

> <PEOE_VSA_PPOS>
25.032671

> <petitjean>
0.44444445

> <petitjeanSC>
0.80000001

> <Q_PC+>
0

> <Q_PC->
0

> <Q_RPC+>
0

> <Q_RPC->
0

> <Q_VSA_FHYD>
1

> <Q_VSA_FNEG>
0

> <Q_VSA_FPNEG>
0

> <Q_VSA_FPOL>
0

> <Q_VSA_FPOS>
1

> <Q_VSA_FPPOS>
0

> <Q_VSA_HYD>
369.72748

> <Q_VSA_NEG>
0

> <Q_VSA_PNEG>
0

> <Q_VSA_POL>
0

> <Q_VSA_POS>
369.72748

> <Q_VSA_PPOS>
0

> <radius>
5

> <reactive>
1

> <rings>
2

> <RPC+>
0

> <RPC->
0

> <rsynth>
1.0

> <SlogP>
4.8045998

> <SlogP_VSA0>
0.0

> <SlogP_VSA1>
10.502212

> <SlogP_VSA2>
45.861992

> <SlogP_VSA3>
46.311485

> <SlogP_VSA4>
3.185575

> <SlogP_VSA5>
68.598579

> <SlogP_VSA6>
11.412009

> <SlogP_VSA7>
52.929554

> <SlogP_VSA8>
0.0

> <SlogP_VSA9>
178.27533

> <SMR>
9.8308802

> <SMR_VSA0>
45.861992

> <SMR_VSA1>
16.78553

> <SMR_VSA2>
25.385227

> <SMR_VSA3>
31.026762

> <SMR_VSA4>
0.0

> <SMR_VSA5>
52.929554

> <SMR_VSA6>
31.428471

> <SMR_VSA7>
213.65919

> <TPSA>
68.120003

> <VAdjEq>
0.41335541

> <VAdjMa>
5.7004399

> <VDistEq>
2.9470043

> <VDistMa>
9.067709

> <vdw_area>
369.72748

> <vdw_vol>
468.70819

> <vsa_acc>
21.753254

> <vsa_acid>
0

> <vsa_base>
0

> <vsa_don>
0.0

> <vsa_hyd>
277.10483

> <vsa_other>
38.620304

> <vsa_pol>
35.320175

> <Weight>
384.259

> <weinerPath>
1300

> <weinerPol>
45

> <zagreb>
126

$$$$
Row1564
 OpenBabel06061811532D

 18 19  0  0  1  0  0  0  0  0999 V2000
    0.0000    0.0000    0.0000 O   0  0  0  0  0  0  0  0  0  0  0  0
    0.0000    0.0000    0.0000 C   0  0  0  0  0  0  0  0  0  0  0  0
    0.0000    0.0000    0.0000 C   0  0  0  0  0  0  0  0  0  0  0  0
    0.0000    0.0000    0.0000 C   0  0  0  0  0  0  0  0  0  0  0  0
    0.0000    0.0000    0.0000 C   0  0  0  0  0  0  0  0  0  0  0  0
    0.0000    0.0000    0.0000 C   0  0  0  0  0  0  0  0  0  0  0  0
    0.0000    0.0000    0.0000 C   0  0  0  0  0  0  0  0  0  0  0  0
    0.0000    0.0000    0.0000 C   0  0  3  0  0  0  0  0  0  0  0  0
    0.0000    0.0000    0.0000 C   0  0  0  0  0  0  0  0  0  0  0  0
    0.0000    0.0000    0.0000 O   0  0  0  0  0  0  0  0  0  0  0  0
    0.0000    0.0000    0.0000 O   0  0  0  0  0  0  0  0  0  0  0  0
    0.0000    0.0000    0.0000 C   0  0  0  0  0  0  0  0  0  0  0  0
    0.0000    0.0000    0.0000 C   0  0  0  0  0  0  0  0  0  0  0  0
    0.0000    0.0000    0.0000 C   0  0  0  0  0  0  0  0  0  0  0  0
    0.0000    0.0000    0.0000 C   0  0  0  0  0  0  0  0  0  0  0  0
    0.0000    0.0000    0.0000 C   0  0  0  0  0  0  0  0  0  0  0  0
    0.0000    0.0000    0.0000 C   0  0  0  0  0  0  0  0  0  0  0  0
    0.0000    0.0000    0.0000 C   0  0  0  0  0  0  0  0  0  0  0  0
  1  2  1  0  0  0  0
  1 13  1  0  0  0  0
  2  7  1  0  0  0  0
  2  3  2  0  0  0  0
  3  4  1  0  0  0  0
  4  5  2  0  0  0  0
  4  8  1  0  0  0  0
  5  6  1  0  0  0  0
  6  7  2  0  0  0  0
  8  9  1  0  0  0  0
  8 12  1  0  0  0  0
  9 10  1  0  0  0  0
  9 11  2  0  0  0  0
 13 18  1  0  0  0  0
 13 14  2  0  0  0  0
 14 15  1  0  0  0  0
 15 16  2  0  0  0  0
 16 17  1  0  0  0  0
 17 18  2  0  0  0  0
M  END
> <Index>
1565

> <ID>
HT0862

> <class>
1

> <apol>
38.141102

> <ast_fraglike>
0

> <ast_fraglike_ext>
0

> <ast_violation>
1

> <ast_violation_ext>
2

> <a_acc>
2

> <a_acid>
0

> <a_aro>
12

> <a_base>
0

> <a_count>
32

> <a_don>
2

> <a_donacc>
4

> <a_heavy>
18

> <a_hyd>
14

> <a_IC>
43.338783

> <a_ICM>
1.354337

> <a_nB>
0

> <a_nBr>
0

> <a_nC>
15

> <a_nCl>
0

> <a_nF>
0

> <a_nH>
14

> <a_nI>
0

> <a_nN>
0

> <a_nO>
3

> <a_nP>
0

> <a_nS>
0

> <balabanJ>
1.7954082

> <BCUT_PEOE_0>
-2.4242201

> <BCUT_PEOE_1>
-0.62212217

> <BCUT_PEOE_2>
0.68026048

> <BCUT_PEOE_3>
2.4719605

> <BCUT_SLOGP_0>
-2.3806345

> <BCUT_SLOGP_1>
-0.52091944

> <BCUT_SLOGP_2>
0.78390366

> <BCUT_SLOGP_3>
2.5476272

> <BCUT_SMR_0>
-2.1822038

> <BCUT_SMR_1>
-0.47993791

> <BCUT_SMR_2>
0.83010918

> <BCUT_SMR_3>
2.7177579

> <bpol>
18.178898

> <b_1rotN>
4

> <b_1rotR>
0.21052632

> <b_ar>
12

> <b_count>
33

> <b_double>
1

> <b_heavy>
19

> <b_max1len>
3

> <b_rotN>
4

> <b_rotR>
0.21052632

> <b_single>
20

> <b_triple>
0

> <chi0>
12.957819

> <chi0v>
10.037213

> <chi0v_C>
8.7735023

> <chi0_C>
10.250712

> <chi1>
8.6647034

> <chi1v>
5.7227306

> <chi1v_C>
4.8867512

> <chi1_C>
6.6935067

> <chiral>
1

> <chiral_u>
1

> <density>
0.71786207

> <diameter>
10

> <FCharge>
0

> <GCUT_PEOE_0>
-0.75981766

> <GCUT_PEOE_1>
-0.42763957

> <GCUT_PEOE_2>
0.070354819

> <GCUT_PEOE_3>
2.3659179

> <GCUT_SLOGP_0>
-0.87403697

> <GCUT_SLOGP_1>
-0.32490727

> <GCUT_SLOGP_2>
0.16009121

> <GCUT_SLOGP_3>
2.5206907

> <GCUT_SMR_0>
-0.50069314

> <GCUT_SMR_1>
-0.2266043

> <GCUT_SMR_2>
0.18966471

> <GCUT_SMR_3>
2.6462493

> <Kier1>
14.409972

> <Kier2>
6.9632001

> <Kier3>
4.2666669

> <KierA1>
10.248212

> <KierA2>
4.8433371

> <KierA3>
2.9191182

> <KierFlex>
2.75753

> <lip_acc>
3

> <lip_don>
1

> <lip_druglike>
1

> <lip_violation>
0

> <logP(o/w)>
3.688

> <logS>
-3.4002299

> <mr>
7.030056

> <mutagenic>
0

> <nmol>
1

> <opr_brigid>
12

> <opr_leadlike>
1

> <opr_nring>
2

> <opr_nrot>
4

> <opr_violation>
0

> <PC+>
0

> <PC->
0

> <PEOE_PC+>
1.404139

> <PEOE_PC->
-1.404139

> <PEOE_RPC+>
0.19000715

> <PEOE_RPC->
0.2356029

> <PEOE_VSA+0>
17.061544

> <PEOE_VSA+1>
55.305511

> <PEOE_VSA+2>
0.0

> <PEOE_VSA+3>
0.0

> <PEOE_VSA+4>
10.324173

> <PEOE_VSA+5>
14.708499

> <PEOE_VSA+6>
0.0

> <PEOE_VSA-0>
69.97583

> <PEOE_VSA-1>
61.274521

> <PEOE_VSA-2>
0.0

> <PEOE_VSA-3>
0.0

> <PEOE_VSA-4>
0.0

> <PEOE_VSA-5>
13.566921

> <PEOE_VSA-6>
10.271297

> <PEOE_VSA_FHYD>
0.80644298

> <PEOE_VSA_FNEG>
0.61424065

> <PEOE_VSA_FPNEG>
0.094413154

> <PEOE_VSA_FPOL>
0.19355704

> <PEOE_VSA_FPOS>
0.38575938

> <PEOE_VSA_FPPOS>
0.099143893

> <PEOE_VSA_HYD>
203.61742

> <PEOE_VSA_NEG>
155.08858

> <PEOE_VSA_PNEG>
23.838217

> <PEOE_VSA_POL>
48.870888

> <PEOE_VSA_POS>
97.399727

> <PEOE_VSA_PPOS>
25.032671

> <petitjean>
0.5

> <petitjeanSC>
1.0

> <Q_PC+>
0

> <Q_PC->
0

> <Q_RPC+>
0

> <Q_RPC->
0

> <Q_VSA_FHYD>
1

> <Q_VSA_FNEG>
0

> <Q_VSA_FPNEG>
0

> <Q_VSA_FPOL>
0

> <Q_VSA_FPOS>
1

> <Q_VSA_FPPOS>
0

> <Q_VSA_HYD>
252.4883

> <Q_VSA_NEG>
0

> <Q_VSA_PNEG>
0

> <Q_VSA_POL>
0

> <Q_VSA_POS>
252.4883

> <Q_VSA_PPOS>
0

> <radius>
5

> <reactive>
0

> <rings>
2

> <RPC+>
0

> <RPC->
0

> <rsynth>
0.3888889

> <SlogP>
3.6670001

> <SlogP_VSA0>
10.999887

> <SlogP_VSA1>
7.7454643

> <SlogP_VSA2>
23.862217

> <SlogP_VSA3>
25.385227

> <SlogP_VSA4>
3.185575

> <SlogP_VSA5>
0.0

> <SlogP_VSA6>
4.4107962

> <SlogP_VSA7>
158.78867

> <SlogP_VSA8>
0.0

> <SlogP_VSA9>
43.81287

> <SMR>
6.9008799

> <SMR_VSA0>
23.862217

> <SMR_VSA1>
10.999887

> <SMR_VSA2>
25.385227

> <SMR_VSA3>
18.083227

> <SMR_VSA4>
0.0

> <SMR_VSA5>
158.78867

> <SMR_VSA6>
7.7454643

> <SMR_VSA7>
33.326015

> <TPSA>
46.529999

> <VAdjEq>
0.52150291

> <VAdjMa>
5.2479277

> <VDistEq>
3.1283426

> <VDistMa>
8.0269279

> <vdw_area>
252.4883

> <vdw_vol>
337.49377

> <vsa_acc>
0.0

> <vsa_acid>
0

> <vsa_base>
0

> <vsa_don>
0.0

> <vsa_hyd>
193.01901

> <vsa_other>
17.212255

> <vsa_pol>
27.133842

> <Weight>
242.27399

> <weinerPath>
650

> <weinerPol>
24

> <zagreb>
88

$$$$
Row1565
 OpenBabel06061811532D

 25 27  0  0  1  0  0  0  0  0999 V2000
    0.0000    0.0000    0.0000 O   0  0  0  0  0  0  0  0  0  0  0  0
    0.0000    0.0000    0.0000 C   0  0  0  0  0  0  0  0  0  0  0  0
    0.0000    0.0000    0.0000 N   0  0  0  0  0  0  0  0  0  0  0  0
    0.0000    0.0000    0.0000 C   0  0  3  0  0  0  0  0  0  0  0  0
    0.0000    0.0000    0.0000 C   0  0  0  0  0  0  0  0  0  0  0  0
    0.0000    0.0000    0.0000 C   0  0  0  0  0  0  0  0  0  0  0  0
    0.0000    0.0000    0.0000 N   0  0  0  0  0  0  0  0  0  0  0  0
    0.0000    0.0000    0.0000 C   0  0  0  0  0  0  0  0  0  0  0  0
    0.0000    0.0000    0.0000 C   0  0  0  0  0  0  0  0  0  0  0  0
    0.0000    0.0000    0.0000 C   0  0  0  0  0  0  0  0  0  0  0  0
    0.0000    0.0000    0.0000 C   0  0  0  0  0  0  0  0  0  0  0  0
    0.0000    0.0000    0.0000 C   0  0  0  0  0  0  0  0  0  0  0  0
    0.0000    0.0000    0.0000 C   0  0  0  0  0  0  0  0  0  0  0  0
    0.0000    0.0000    0.0000 C   0  0  0  0  0  0  0  0  0  0  0  0
    0.0000    0.0000    0.0000 C   0  0  0  0  0  0  0  0  0  0  0  0
    0.0000    0.0000    0.0000 C   0  0  0  0  0  0  0  0  0  0  0  0
    0.0000    0.0000    0.0000 C   0  0  0  0  0  0  0  0  0  0  0  0
    0.0000    0.0000    0.0000 C   0  0  0  0  0  0  0  0  0  0  0  0
    0.0000    0.0000    0.0000 C   0  0  0  0  0  0  0  0  0  0  0  0
    0.0000    0.0000    0.0000 C   0  0  0  0  0  0  0  0  0  0  0  0
    0.0000    0.0000    0.0000 C   0  0  0  0  0  0  0  0  0  0  0  0
    0.0000    0.0000    0.0000 C   0  0  0  0  0  0  0  0  0  0  0  0
    0.0000    0.0000    0.0000 C   0  0  0  0  0  0  0  0  0  0  0  0
    0.0000    0.0000    0.0000 C   0  0  0  0  0  0  0  0  0  0  0  0
    0.0000    0.0000    0.0000 C   0  0  0  0  0  0  0  0  0  0  0  0
  1  2  2  0  0  0  0
  2  3  1  0  0  0  0
  2 24  1  0  0  0  0
  3  4  1  0  0  0  0
  3 18  1  0  0  0  0
  4  9  1  0  0  0  0
  4  5  1  0  0  0  0
  5  6  1  0  0  0  0
  6  7  1  0  0  0  0
  7  8  1  0  0  0  0
  7 10  1  0  0  0  0
  8  9  1  0  0  0  0
 10 11  1  0  0  0  0
 11 12  1  0  0  0  0
 12 17  1  0  0  0  0
 12 13  2  0  0  0  0
 13 14  1  0  0  0  0
 14 15  2  0  0  0  0
 15 16  1  0  0  0  0
 16 17  2  0  0  0  0
 18 23  1  0  0  0  0
 18 19  2  0  0  0  0
 19 20  1  0  0  0  0
 20 21  2  0  0  0  0
 21 22  1  0  0  0  0
 22 23  2  0  0  0  0
 24 25  1  0  0  0  0
M  END
> <Index>
1566

> <ID>
HT0865

> <class>
1

> <apol>
60.392204

> <ast_fraglike>
0

> <ast_fraglike_ext>
0

> <ast_violation>
2

> <ast_violation_ext>
3

> <a_acc>
2

> <a_acid>
0

> <a_aro>
12

> <a_base>
0

> <a_count>
53

> <a_don>
0

> <a_donacc>
2

> <a_heavy>
25

> <a_hyd>
21

> <a_IC>
68.866348

> <a_ICM>
1.2993652

> <a_nB>
0

> <a_nBr>
0

> <a_nC>
22

> <a_nCl>
0

> <a_nF>
0

> <a_nH>
28

> <a_nI>
0

> <a_nN>
2

> <a_nO>
1

> <a_nP>
0

> <a_nS>
0

> <balabanJ>
1.4503106

> <BCUT_PEOE_0>
-2.8012633

> <BCUT_PEOE_1>
-0.59475994

> <BCUT_PEOE_2>
0.62146962

> <BCUT_PEOE_3>
2.731822

> <BCUT_SLOGP_0>
-2.8584776

> <BCUT_SLOGP_1>
-0.50181544

> <BCUT_SLOGP_2>
0.69258493

> <BCUT_SLOGP_3>
2.7036598

> <BCUT_SMR_0>
-2.5262604

> <BCUT_SMR_1>
-0.43885064

> <BCUT_SMR_2>
0.76142681

> <BCUT_SMR_3>
3.0021346

> <bpol>
35.527798

> <b_1rotN>
7

> <b_1rotR>
0.25925925

> <b_ar>
12

> <b_count>
55

> <b_double>
1

> <b_heavy>
27

> <b_max1len>
3

> <b_rotN>
7

> <b_rotR>
0.25925925

> <b_single>
42

> <b_triple>
0

> <chi0>
17.484917

> <chi0v>
15.103276

> <chi0v_C>
13.8006

> <chi0_C>
15.330216

> <chi1>
12.275188

> <chi1v>
9.4102974

> <chi1v_C>
7.5520773

> <chi1_C>
9.473093

> <chiral>
0

> <chiral_u>
0

> <density>
0.65818292

> <diameter>
14

> <FCharge>
0

> <GCUT_PEOE_0>
-0.85793388

> <GCUT_PEOE_1>
-0.37631994

> <GCUT_PEOE_2>
0.072784543

> <GCUT_PEOE_3>
2.8309865

> <GCUT_SLOGP_0>
-0.99587053

> <GCUT_SLOGP_1>
-0.26822117

> <GCUT_SLOGP_2>
0.14158177

> <GCUT_SLOGP_3>
2.8669605

> <GCUT_SMR_0>
-0.52009219

> <GCUT_SMR_1>
-0.20479204

> <GCUT_SMR_2>
0.18252505

> <GCUT_SMR_3>
3.0892041

> <Kier1>
19.753086

> <Kier2>
10.364081

> <Kier3>
5.7362962

> <KierA1>
15.208752

> <KierA2>
7.8866186

> <KierA3>
4.3267436

> <KierFlex>
4.7978249

> <lip_acc>
3

> <lip_don>
0

> <lip_druglike>
1

> <lip_violation>
0

> <logP(o/w)>
4.2750001

> <logS>
-3.9697499

> <mr>
10.410104

> <mutagenic>
0

> <nmol>
1

> <opr_brigid>
18

> <opr_leadlike>
1

> <opr_nring>
3

> <opr_nrot>
8

> <opr_violation>
0

> <PC+>
0

> <PC->
0

> <PEOE_PC+>
1.5988966

> <PEOE_PC->
-1.5988966

> <PEOE_RPC+>
0.14246379

> <PEOE_RPC->
0.19328324

> <PEOE_VSA+0>
130.63536

> <PEOE_VSA+1>
46.919247

> <PEOE_VSA+2>
0.0

> <PEOE_VSA+3>
0.0

> <PEOE_VSA+4>
12.949531

> <PEOE_VSA+5>
0.0

> <PEOE_VSA+6>
0.0

> <PEOE_VSA-0>
52.822289

> <PEOE_VSA-1>
116.78691

> <PEOE_VSA-2>
0.0

> <PEOE_VSA-3>
0.0

> <PEOE_VSA-4>
0.0

> <PEOE_VSA-5>
13.566921

> <PEOE_VSA-6>
0.0

> <PEOE_VSA_FHYD>
0.92903972

> <PEOE_VSA_FNEG>
0.4901948

> <PEOE_VSA_FPNEG>
0.036306228

> <PEOE_VSA_FPOL>
0.070960268

> <PEOE_VSA_FPOS>
0.5098052

> <PEOE_VSA_FPPOS>
0.03465404

> <PEOE_VSA_HYD>
347.16382

> <PEOE_VSA_NEG>
183.17612

> <PEOE_VSA_PNEG>
13.566921

> <PEOE_VSA_POL>
26.516451

> <PEOE_VSA_POS>
190.50414

> <PEOE_VSA_PPOS>
12.949531

> <petitjean>
0.5

> <petitjeanSC>
1.0

> <Q_PC+>
0

> <Q_PC->
0

> <Q_RPC+>
0

> <Q_RPC->
0

> <Q_VSA_FHYD>
1

> <Q_VSA_FNEG>
0

> <Q_VSA_FPNEG>
0

> <Q_VSA_FPOL>
0

> <Q_VSA_FPOS>
1

> <Q_VSA_FPPOS>
0

> <Q_VSA_HYD>
373.68027

> <Q_VSA_NEG>
0

> <Q_VSA_PNEG>
0

> <Q_VSA_POL>
0

> <Q_VSA_POS>
373.68027

> <Q_VSA_PPOS>
0

> <radius>
7

> <reactive>
0

> <rings>
3

> <RPC+>
0

> <RPC->
0

> <rsynth>
1.0

> <SlogP>
4.1366701

> <SlogP_VSA0>
3.1243138

> <SlogP_VSA1>
8.3830976

> <SlogP_VSA2>
27.844185

> <SlogP_VSA3>
55.318733

> <SlogP_VSA4>
3.185575

> <SlogP_VSA5>
18.868406

> <SlogP_VSA6>
0.0

> <SlogP_VSA7>
176.43184

> <SlogP_VSA8>
56.605217

> <SlogP_VSA9>
36.082764

> <SMR>
10.3827

> <SMR_VSA0>
23.862217

> <SMR_VSA1>
3.1243138

> <SMR_VSA2>
3.1243138

> <SMR_VSA3>
7.1675434

> <SMR_VSA4>
2.7567475

> <SMR_VSA5>
251.90547

> <SMR_VSA6>
60.577518

> <SMR_VSA7>
33.326015

> <TPSA>
23.549999

> <VAdjEq>
0.42433795

> <VAdjMa>
5.7548876

> <VDistEq>
3.5759881

> <VDistMa>
8.9668493

> <vdw_area>
373.68027

> <vdw_vol>
511.22412

> <vsa_acc>
13.566921

> <vsa_acid>
0

> <vsa_base>
0

> <vsa_don>
0.0

> <vsa_hyd>
327.23352

> <vsa_other>
12.949531

> <vsa_pol>
13.566921

> <Weight>
336.479

> <weinerPath>
1680

> <weinerPol>
36

> <zagreb>
124

$$$$
Row1566
 OpenBabel06061811532D

 37 40  0  0  1  0  0  0  0  0999 V2000
    0.0000    0.0000    0.0000 O   0  0  0  0  0  0  0  0  0  0  0  0
    0.0000    0.0000    0.0000 C   0  0  3  0  0  0  0  0  0  0  0  0
    0.0000    0.0000    0.0000 C   0  0  3  0  0  0  0  0  0  0  0  0
    0.0000    0.0000    0.0000 C   0  0  0  0  0  0  0  0  0  0  0  0
    0.0000    0.0000    0.0000 C   0  0  0  0  0  0  0  0  0  0  0  0
    0.0000    0.0000    0.0000 N   0  0  0  0  0  0  0  0  0  0  0  0
    0.0000    0.0000    0.0000 C   0  0  0  0  0  0  0  0  0  0  0  0
    0.0000    0.0000    0.0000 C   0  0  0  0  0  0  0  0  0  0  0  0
    0.0000    0.0000    0.0000 C   0  0  0  0  0  0  0  0  0  0  0  0
    0.0000    0.0000    0.0000 C   0  0  0  0  0  0  0  0  0  0  0  0
    0.0000    0.0000    0.0000 C   0  0  0  0  0  0  0  0  0  0  0  0
    0.0000    0.0000    0.0000 C   0  0  3  0  0  0  0  0  0  0  0  0
    0.0000    0.0000    0.0000 O   0  0  0  0  0  0  0  0  0  0  0  0
    0.0000    0.0000    0.0000 C   0  0  0  0  0  0  0  0  0  0  0  0
    0.0000    0.0000    0.0000 C   0  0  0  0  0  0  0  0  0  0  0  0
    0.0000    0.0000    0.0000 C   0  0  0  0  0  0  0  0  0  0  0  0
    0.0000    0.0000    0.0000 C   0  0  0  0  0  0  0  0  0  0  0  0
    0.0000    0.0000    0.0000 C   0  0  0  0  0  0  0  0  0  0  0  0
    0.0000    0.0000    0.0000 C   0  0  0  0  0  0  0  0  0  0  0  0
    0.0000    0.0000    0.0000 C   0  0  0  0  0  0  0  0  0  0  0  0
    0.0000    0.0000    0.0000 C   0  0  0  0  0  0  0  0  0  0  0  0
    0.0000    0.0000    0.0000 O   0  0  0  0  0  0  0  0  0  0  0  0
    0.0000    0.0000    0.0000 O   0  0  0  0  0  0  0  0  0  0  0  0
    0.0000    0.0000    0.0000 C   0  0  0  0  0  0  0  0  0  0  0  0
    0.0000    0.0000    0.0000 C   0  0  0  0  0  0  0  0  0  0  0  0
    0.0000    0.0000    0.0000 C   0  0  0  0  0  0  0  0  0  0  0  0
    0.0000    0.0000    0.0000 C   0  0  0  0  0  0  0  0  0  0  0  0
    0.0000    0.0000    0.0000 C   0  0  0  0  0  0  0  0  0  0  0  0
    0.0000    0.0000    0.0000 C   0  0  0  0  0  0  0  0  0  0  0  0
    0.0000    0.0000    0.0000 C   0  0  0  0  0  0  0  0  0  0  0  0
    0.0000    0.0000    0.0000 C   0  0  0  0  0  0  0  0  0  0  0  0
    0.0000    0.0000    0.0000 C   0  0  0  0  0  0  0  0  0  0  0  0
    0.0000    0.0000    0.0000 C   0  0  0  0  0  0  0  0  0  0  0  0
    0.0000    0.0000    0.0000 C   0  0  0  0  0  0  0  0  0  0  0  0
    0.0000    0.0000    0.0000 C   0  0  0  0  0  0  0  0  0  0  0  0
    0.0000    0.0000    0.0000 C   0  0  0  0  0  0  0  0  0  0  0  0
    0.0000    0.0000    0.0000 C   0  0  0  0  0  0  0  0  0  0  0  0
  1  2  1  0  0  0  0
  2  3  1  0  0  0  0
  2 26  1  0  0  0  0
  2 32  1  0  0  0  0
  3  8  1  0  0  0  0
  3  4  1  0  0  0  0
  4  5  1  0  0  0  0
  5  6  1  0  0  0  0
  6  7  1  0  0  0  0
  6  9  1  0  0  0  0
  7  8  1  0  0  0  0
  9 10  1  0  0  0  0
 10 11  1  0  0  0  0
 11 12  1  0  0  0  0
 12 13  1  0  0  0  0
 12 14  1  0  0  0  0
 14 19  1  0  0  0  0
 14 15  2  0  0  0  0
 15 16  1  0  0  0  0
 16 17  2  0  0  0  0
 17 18  1  0  0  0  0
 17 20  1  0  0  0  0
 18 19  2  0  0  0  0
 20 21  1  0  0  0  0
 20 24  1  0  0  0  0
 20 25  1  0  0  0  0
 21 22  1  0  0  0  0
 21 23  2  0  0  0  0
 26 31  1  0  0  0  0
 26 27  2  0  0  0  0
 27 28  1  0  0  0  0
 28 29  2  0  0  0  0
 29 30  1  0  0  0  0
 30 31  2  0  0  0  0
 32 37  1  0  0  0  0
 32 33  2  0  0  0  0
 33 34  1  0  0  0  0
 34 35  2  0  0  0  0
 35 36  1  0  0  0  0
 36 37  2  0  0  0  0
M  END
> <Index>
1567

> <ID>
HT0871

> <class>
1

> <apol>
86.632927

> <ast_fraglike>
0

> <ast_fraglike_ext>
0

> <ast_violation>
4

> <ast_violation_ext>
5

> <a_acc>
5

> <a_acid>
0

> <a_aro>
18

> <a_base>
0

> <a_count>
76

> <a_don>
4

> <a_donacc>
9

> <a_heavy>
37

> <a_hyd>
31

> <a_IC>
100.71181

> <a_ICM>
1.3251554

> <a_nB>
0

> <a_nBr>
0

> <a_nC>
32

> <a_nCl>
0

> <a_nF>
0

> <a_nH>
39

> <a_nI>
0

> <a_nN>
1

> <a_nO>
4

> <a_nP>
0

> <a_nS>
0

> <balabanJ>
1.2017764

> <BCUT_PEOE_0>
-2.8204756

> <BCUT_PEOE_1>
-0.64810228

> <BCUT_PEOE_2>
0.69778067

> <BCUT_PEOE_3>
2.7650676

> <BCUT_SLOGP_0>
-2.8225222

> <BCUT_SLOGP_1>
-0.53807992

> <BCUT_SLOGP_2>
0.73114407

> <BCUT_SLOGP_3>
2.8134899

> <BCUT_SMR_0>
-2.5578854

> <BCUT_SMR_1>
-0.49986199

> <BCUT_SMR_2>
0.85431087

> <BCUT_SMR_3>
3.0207241

> <bpol>
45.573074

> <b_1rotN>
10

> <b_1rotR>
0.25

> <b_ar>
18

> <b_count>
79

> <b_double>
1

> <b_heavy>
40

> <b_max1len>
6

> <b_rotN>
10

> <b_rotR>
0.25

> <b_single>
60

> <b_triple>
0

> <chi0>
26.468044

> <chi0v>
21.884455

> <chi0v_C>
19.687351

> <chi0_C>
21.890694

> <chi1>
17.724236

> <chi1v>
13.303049

> <chi1v_C>
11.44483

> <chi1_C>
14.26744

> <chiral>
1

> <chiral_u>
1

> <density>
0.68573231

> <diameter>
19

> <FCharge>
0

> <GCUT_PEOE_0>
-0.85822523

> <GCUT_PEOE_1>
-0.38927785

> <GCUT_PEOE_2>
0.079518102

> <GCUT_PEOE_3>
3.0216181

> <GCUT_SLOGP_0>
-0.95249087

> <GCUT_SLOGP_1>
-0.28666976

> <GCUT_SLOGP_2>
0.14417286

> <GCUT_SLOGP_3>
3.1035085

> <GCUT_SMR_0>
-0.5306235

> <GCUT_SMR_1>
-0.21605732

> <GCUT_SMR_2>
0.19305076

> <GCUT_SMR_3>
3.2696605

> <Kier1>
29.969999

> <Kier2>
13.573407

> <Kier3>
7.2049861

> <KierA1>
23.899303

> <KierA2>
10.752102

> <KierA3>
5.6800342

> <KierFlex>
6.9450741

> <lip_acc>
5

> <lip_don>
3

> <lip_druglike>
0

> <lip_violation>
2

> <logP(o/w)>
7.2950001

> <logS>
-5.8537102

> <mr>
14.822876

> <mutagenic>
0

> <nmol>
1

> <opr_brigid>
24

> <opr_leadlike>
0

> <opr_nring>
4

> <opr_nrot>
12

> <opr_violation>
3

> <PC+>
0

> <PC->
0

> <PEOE_PC+>
2.7793884

> <PEOE_PC->
-2.7793884

> <PEOE_RPC+>
0.097014233

> <PEOE_RPC->
0.13930459

> <PEOE_VSA+0>
89.573105

> <PEOE_VSA+1>
68.885719

> <PEOE_VSA+2>
0.0

> <PEOE_VSA+3>
0.0

> <PEOE_VSA+4>
30.972517

> <PEOE_VSA+5>
14.708499

> <PEOE_VSA+6>
0.0

> <PEOE_VSA-0>
120.71174

> <PEOE_VSA-1>
171.56865

> <PEOE_VSA-2>
0.0

> <PEOE_VSA-3>
0.0

> <PEOE_VSA-4>
0.0

> <PEOE_VSA-5>
13.566921

> <PEOE_VSA-6>
23.30262

> <PEOE_VSA_FHYD>
0.84520507

> <PEOE_VSA_FNEG>
0.61720651

> <PEOE_VSA_FPNEG>
0.069136038

> <PEOE_VSA_FPOL>
0.15479493

> <PEOE_VSA_FPOS>
0.38279346

> <PEOE_VSA_FPPOS>
0.0856589

> <PEOE_VSA_HYD>
450.73923

> <PEOE_VSA_NEG>
329.14993

> <PEOE_VSA_PNEG>
36.869541

> <PEOE_VSA_POL>
82.55056

> <PEOE_VSA_POS>
204.13985

> <PEOE_VSA_PPOS>
45.681019

> <petitjean>
0.47368422

> <petitjeanSC>
0.89999998

> <Q_PC+>
0

> <Q_PC->
0

> <Q_RPC+>
0

> <Q_RPC->
0

> <Q_VSA_FHYD>
1

> <Q_VSA_FNEG>
0

> <Q_VSA_FPNEG>
0

> <Q_VSA_FPOL>
0

> <Q_VSA_FPOS>
1

> <Q_VSA_FPPOS>
0

> <Q_VSA_HYD>
533.28979

> <Q_VSA_NEG>
0

> <Q_VSA_PNEG>
0

> <Q_VSA_POL>
0

> <Q_VSA_POS>
533.28979

> <Q_VSA_PPOS>
0

> <radius>
10

> <reactive>
0

> <rings>
4

> <RPC+>
0

> <RPC->
0

> <rsynth>
1.0

> <SlogP>
5.9175

> <SlogP_VSA0>
50.770454

> <SlogP_VSA1>
10.869778

> <SlogP_VSA2>
23.862217

> <SlogP_VSA3>
80.703964

> <SlogP_VSA4>
17.153095

> <SlogP_VSA5>
0.0

> <SlogP_VSA6>
0.0

> <SlogP_VSA7>
247.00458

> <SlogP_VSA8>
81.942268

> <SlogP_VSA9>
66.652031

> <SMR>
14.65724

> <SMR_VSA0>
23.862217

> <SMR_VSA1>
53.894768

> <SMR_VSA2>
29.796022

> <SMR_VSA3>
19.210949

> <SMR_VSA4>
0.0

> <SMR_VSA5>
322.47821

> <SMR_VSA6>
63.064198

> <SMR_VSA7>
66.652031

> <TPSA>
81.0

> <VAdjEq>
0.32120815

> <VAdjMa>
6.321928

> <VDistEq>
4.0947576

> <VDistMa>
10.08168

> <vdw_area>
533.28979

> <vdw_vol>
731.57849

> <vsa_acc>
0.0

> <vsa_acid>
0

> <vsa_base>
0

> <vsa_don>
0.0

> <vsa_hyd>
423.76953

> <vsa_other>
14.708499

> <vsa_pol>
54.267685

> <Weight>
501.66699

> <weinerPath>
5214

> <weinerPol>
64

> <zagreb>
194

$$$$
Row1567
 OpenBabel06061811532D

 28 29  0  0  1  0  0  0  0  0999 V2000
    0.0000    0.0000    0.0000 F   0  0  0  0  0  0  0  0  0  0  0  0
    0.0000    0.0000    0.0000 C   0  0  0  0  0  0  0  0  0  0  0  0
    0.0000    0.0000    0.0000 F   0  0  0  0  0  0  0  0  0  0  0  0
    0.0000    0.0000    0.0000 F   0  0  0  0  0  0  0  0  0  0  0  0
    0.0000    0.0000    0.0000 C   0  0  0  0  0  0  0  0  0  0  0  0
    0.0000    0.0000    0.0000 O   0  0  0  0  0  0  0  0  0  0  0  0
    0.0000    0.0000    0.0000 C   0  0  0  0  0  0  0  0  0  0  0  0
    0.0000    0.0000    0.0000 C   0  0  0  0  0  0  0  0  0  0  0  0
    0.0000    0.0000    0.0000 C   0  0  0  0  0  0  0  0  0  0  0  0
    0.0000    0.0000    0.0000 C   0  0  0  0  0  0  0  0  0  0  0  0
    0.0000    0.0000    0.0000 O   0  0  0  0  0  0  0  0  0  0  0  0
    0.0000    0.0000    0.0000 C   0  0  0  0  0  0  0  0  0  0  0  0
    0.0000    0.0000    0.0000 C   0  0  0  0  0  0  0  0  0  0  0  0
    0.0000    0.0000    0.0000 F   0  0  0  0  0  0  0  0  0  0  0  0
    0.0000    0.0000    0.0000 F   0  0  0  0  0  0  0  0  0  0  0  0
    0.0000    0.0000    0.0000 F   0  0  0  0  0  0  0  0  0  0  0  0
    0.0000    0.0000    0.0000 C   0  0  0  0  0  0  0  0  0  0  0  0
    0.0000    0.0000    0.0000 C   0  0  0  0  0  0  0  0  0  0  0  0
    0.0000    0.0000    0.0000 C   0  0  0  0  0  0  0  0  0  0  0  0
    0.0000    0.0000    0.0000 O   0  0  0  0  0  0  0  0  0  0  0  0
    0.0000    0.0000    0.0000 N   0  0  0  0  0  0  0  0  0  0  0  0
    0.0000    0.0000    0.0000 C   0  0  0  0  0  0  0  0  0  0  0  0
    0.0000    0.0000    0.0000 C   0  0  3  0  0  0  0  0  0  0  0  0
    0.0000    0.0000    0.0000 N   0  0  0  0  0  0  0  0  0  0  0  0
    0.0000    0.0000    0.0000 C   0  0  0  0  0  0  0  0  0  0  0  0
    0.0000    0.0000    0.0000 C   0  0  0  0  0  0  0  0  0  0  0  0
    0.0000    0.0000    0.0000 C   0  0  0  0  0  0  0  0  0  0  0  0
    0.0000    0.0000    0.0000 C   0  0  0  0  0  0  0  0  0  0  0  0
  1  2  1  0  0  0  0
  2  3  1  0  0  0  0
  2  4  1  0  0  0  0
  2  5  1  0  0  0  0
  5  6  1  0  0  0  0
  6  7  1  0  0  0  0
  7 18  1  0  0  0  0
  7  8  2  0  0  0  0
  8  9  1  0  0  0  0
  9 10  2  0  0  0  0
 10 11  1  0  0  0  0
 10 17  1  0  0  0  0
 11 12  1  0  0  0  0
 12 13  1  0  0  0  0
 13 14  1  0  0  0  0
 13 15  1  0  0  0  0
 13 16  1  0  0  0  0
 17 18  2  0  0  0  0
 18 19  1  0  0  0  0
 19 20  2  0  0  0  0
 19 21  1  0  0  0  0
 21 22  1  0  0  0  0
 22 23  1  0  0  0  0
 23 28  1  0  0  0  0
 23 24  1  0  0  0  0
 24 25  1  0  0  0  0
 25 26  1  0  0  0  0
 26 27  1  0  0  0  0
 27 28  1  0  0  0  0
M  END
> <Index>
1568

> <ID>
HT0880

> <class>
1

> <apol>
51.203861

> <ast_fraglike>
0

> <ast_fraglike_ext>
0

> <ast_violation>
3

> <ast_violation_ext>
4

> <a_acc>
4

> <a_acid>
0

> <a_aro>
6

> <a_base>
0

> <a_count>
48

> <a_don>
2

> <a_donacc>
6

> <a_heavy>
28

> <a_hyd>
22

> <a_IC>
89.888107

> <a_ICM>
1.8726689

> <a_nB>
0

> <a_nBr>
0

> <a_nC>
17

> <a_nCl>
0

> <a_nF>
6

> <a_nH>
20

> <a_nI>
0

> <a_nN>
2

> <a_nO>
3

> <a_nP>
0

> <a_nS>
0

> <balabanJ>
1.9158949

> <BCUT_PEOE_0>
-2.7775674

> <BCUT_PEOE_1>
-0.52629071

> <BCUT_PEOE_2>
0.52424741

> <BCUT_PEOE_3>
2.7051888

> <BCUT_SLOGP_0>
-2.8799148

> <BCUT_SLOGP_1>
-0.47683257

> <BCUT_SLOGP_2>
0.59053081

> <BCUT_SLOGP_3>
2.7257116

> <BCUT_SMR_0>
-2.5093691

> <BCUT_SMR_1>
-0.362849

> <BCUT_SMR_2>
0.66479027

> <BCUT_SMR_3>
2.9684591

> <bpol>
35.192139

> <b_1rotN>
7

> <b_1rotR>
0.24137931

> <b_ar>
6

> <b_count>
49

> <b_double>
1

> <b_heavy>
29

> <b_max1len>
4

> <b_rotN>
10

> <b_rotR>
0.34482759

> <b_single>
42

> <b_triple>
0

> <chi0>
20.786245

> <chi0v>
14.75168

> <chi0v_C>
10.259149

> <chi0_C>
10.957819

> <chi1>
13.033607

> <chi1v>
8.5810356

> <chi1v_C>
5.0116372

> <chi1_C>
5.8232632

> <chiral>
1

> <chiral_u>
1

> <density>
0.90542859

> <diameter>
13

> <FCharge>
0

> <GCUT_PEOE_0>
-0.84335816

> <GCUT_PEOE_1>
-0.37978727

> <GCUT_PEOE_2>
0.026129251

> <GCUT_PEOE_3>
2.6413703

> <GCUT_SLOGP_0>
-1.161651

> <GCUT_SLOGP_1>
-0.33014596

> <GCUT_SLOGP_2>
0.26019999

> <GCUT_SLOGP_3>
2.6636271

> <GCUT_SMR_0>
-0.52285421

> <GCUT_SMR_1>
-0.19867469

> <GCUT_SMR_2>
0.13790955

> <GCUT_SMR_3>
2.8797474

> <Kier1>
24.271107

> <Kier2>
10.857822

> <Kier3>
9.5804987

> <KierA1>
20.245401

> <KierA2>
8.9927111

> <KierA3>
7.8947363

> <KierFlex>
6.5021801

> <lip_acc>
5

> <lip_don>
2

> <lip_druglike>
1

> <lip_violation>
0

> <logP(o/w)>
3.38152

> <logS>
-4.31884

> <mr>
8.9499588

> <mutagenic>
0

> <nmol>
1

> <opr_brigid>
12

> <opr_leadlike>
1

> <opr_nring>
2

> <opr_nrot>
9

> <opr_violation>
0

> <PC+>
0

> <PC->
0

> <PEOE_PC+>
2.8145132

> <PEOE_PC->
-2.8145132

> <PEOE_RPC+>
0.14682846

> <PEOE_RPC->
0.12450746

> <PEOE_VSA+0>
54.726761

> <PEOE_VSA+1>
57.514053

> <PEOE_VSA+2>
38.521599

> <PEOE_VSA+3>
8.6190128

> <PEOE_VSA+4>
0.0

> <PEOE_VSA+5>
12.949531

> <PEOE_VSA+6>
18.091003

> <PEOE_VSA-0>
67.359665

> <PEOE_VSA-1>
8.701313

> <PEOE_VSA-2>
0.0

> <PEOE_VSA-3>
71.451813

> <PEOE_VSA-4>
0.0

> <PEOE_VSA-5>
13.566921

> <PEOE_VSA-6>
5.2812943

> <PEOE_VSA_FHYD>
0.8601706

> <PEOE_VSA_FNEG>
0.4662807

> <PEOE_VSA_FPNEG>
0.052828237

> <PEOE_VSA_FPOL>
0.13982941

> <PEOE_VSA_FPOS>
0.5337193

> <PEOE_VSA_FPPOS>
0.087001167

> <PEOE_VSA_HYD>
306.89423

> <PEOE_VSA_NEG>
166.36101

> <PEOE_VSA_PNEG>
18.848215

> <PEOE_VSA_POL>
49.888752

> <PEOE_VSA_POS>
190.42197

> <PEOE_VSA_PPOS>
31.040535

> <petitjean>
0.46153846

> <petitjeanSC>
0.85714287

> <Q_PC+>
0

> <Q_PC->
0

> <Q_RPC+>
0

> <Q_RPC->
0

> <Q_VSA_FHYD>
1

> <Q_VSA_FNEG>
0

> <Q_VSA_FPNEG>
0

> <Q_VSA_FPOL>
0

> <Q_VSA_FPOS>
1

> <Q_VSA_FPPOS>
0

> <Q_VSA_HYD>
356.78296

> <Q_VSA_NEG>
0

> <Q_VSA_PNEG>
0

> <Q_VSA_POL>
0

> <Q_VSA_POS>
356.78296

> <Q_VSA_PPOS>
0

> <radius>
7

> <reactive>
0

> <rings>
2

> <RPC+>
0

> <RPC->
0

> <rsynth>
1.0

> <SlogP>
3.4407001

> <SlogP_VSA0>
58.021278

> <SlogP_VSA1>
20.777815

> <SlogP_VSA2>
3.9819686

> <SlogP_VSA3>
78.731674

> <SlogP_VSA4>
27.047791

> <SlogP_VSA5>
0.0

> <SlogP_VSA6>
0.0

> <SlogP_VSA7>
52.929554

> <SlogP_VSA8>
56.605217

> <SlogP_VSA9>
100.24754

> <SMR>
8.7516899

> <SMR_VSA0>
23.862217

> <SMR_VSA1>
111.76045

> <SMR_VSA2>
51.540535

> <SMR_VSA3>
17.6544

> <SMR_VSA4>
0.0

> <SMR_VSA5>
109.53477

> <SMR_VSA6>
83.990456

> <SMR_VSA7>
0.0

> <TPSA>
59.59

> <VAdjEq>
0.38060221

> <VAdjMa>
5.8579812

> <VDistEq>
3.561955

> <VDistMa>
9.3376751

> <vdw_area>
356.78296

> <vdw_vol>
457.62415

> <vsa_acc>
18.574432

> <vsa_acid>
0

> <vsa_base>
0

> <vsa_don>
5.6825762

> <vsa_hyd>
294.93488

> <vsa_other>
12.949531

> <vsa_pol>
29.939585

> <Weight>
414.34598

> <weinerPath>
2232

> <weinerPol>
36

> <zagreb>
140

$$$$
Row1568
 OpenBabel06061811532D

 33 36  0  0  1  0  0  0  0  0999 V2000
    0.0000    0.0000    0.0000 Cl  0  0  0  0  0  0  0  0  0  0  0  0
    0.0000    0.0000    0.0000 C   0  0  0  0  0  0  0  0  0  0  0  0
    0.0000    0.0000    0.0000 C   0  0  0  0  0  0  0  0  0  0  0  0
    0.0000    0.0000    0.0000 C   0  0  0  0  0  0  0  0  0  0  0  0
    0.0000    0.0000    0.0000 C   0  0  0  0  0  0  0  0  0  0  0  0
    0.0000    0.0000    0.0000 C   0  0  0  0  0  0  0  0  0  0  0  0
    0.0000    0.0000    0.0000 F   0  0  0  0  0  0  0  0  0  0  0  0
    0.0000    0.0000    0.0000 C   0  0  0  0  0  0  0  0  0  0  0  0
    0.0000    0.0000    0.0000 C   0  0  0  0  0  0  0  0  0  0  0  0
    0.0000    0.0000    0.0000 N   0  0  0  0  0  0  0  0  0  0  0  0
    0.0000    0.0000    0.0000 O   0  0  0  0  0  0  0  0  0  0  0  0
    0.0000    0.0000    0.0000 C   0  0  0  0  0  0  0  0  0  0  0  0
    0.0000    0.0000    0.0000 C   0  0  0  0  0  0  0  0  0  0  0  0
    0.0000    0.0000    0.0000 C   0  0  0  0  0  0  0  0  0  0  0  0
    0.0000    0.0000    0.0000 C   0  0  0  0  0  0  0  0  0  0  0  0
    0.0000    0.0000    0.0000 O   0  0  0  0  0  0  0  0  0  0  0  0
    0.0000    0.0000    0.0000 N   0  0  0  0  0  0  0  0  0  0  0  0
    0.0000    0.0000    0.0000 C   0  0  1  0  0  0  0  0  0  0  0  0
    0.0000    0.0000    0.0000 H   0  0  0  0  0  0  0  0  0  0  0  0
    0.0000    0.0000    0.0000 C   0  0  1  0  0  0  0  0  0  0  0  0
    0.0000    0.0000    0.0000 H   0  0  0  0  0  0  0  0  0  0  0  0
    0.0000    0.0000    0.0000 S   0  0  0  0  0  0  0  0  0  0  0  0
    0.0000    0.0000    0.0000 C   0  0  0  0  0  0  0  0  0  0  0  0
    0.0000    0.0000    0.0000 C   0  0  0  0  0  0  0  0  0  0  0  0
    0.0000    0.0000    0.0000 C   0  0  0  0  0  0  0  0  0  0  0  0
    0.0000    0.0000    0.0000 C   0  0  1  0  0  0  0  0  0  0  0  0
    0.0000    0.0000    0.0000 H   0  0  0  0  0  0  0  0  0  0  0  0
    0.0000    0.0000    0.0000 N   0  0  0  0  0  0  0  0  0  0  0  0
    0.0000    0.0000    0.0000 C   0  0  0  0  0  0  0  0  0  0  0  0
    0.0000    0.0000    0.0000 O   0  0  0  0  0  0  0  0  0  0  0  0
    0.0000    0.0000    0.0000 C   0  0  0  0  0  0  0  0  0  0  0  0
    0.0000    0.0000    0.0000 O   0  0  0  0  0  0  0  0  0  0  0  0
    0.0000    0.0000    0.0000 O   0  0  0  0  0  0  0  0  0  0  0  0
  1  2  1  0  0  0  0
  2  8  1  0  0  0  0
  2  3  2  0  0  0  0
  3  4  1  0  0  0  0
  4  5  2  0  0  0  0
  5  6  1  0  0  0  0
  6  7  1  0  0  0  0
  6  8  2  0  0  0  0
  8  9  1  0  0  0  0
  9 14  1  0  0  0  0
  9 10  2  0  0  0  0
 10 11  1  0  0  0  0
 11 12  1  0  0  0  0
 12 13  1  0  0  0  0
 12 14  2  0  0  0  0
 14 15  1  0  0  0  0
 15 16  2  0  0  0  0
 15 17  1  0  0  0  0
 17 18  1  0  0  0  0
 18 19  1  0  0  0  0
 18 29  1  0  0  0  0
 18 20  1  0  0  0  0
 20 21  1  0  0  0  0
 20 28  1  0  0  0  0
 20 22  1  0  0  0  0
 22 23  1  0  0  0  0
 23 24  1  0  0  0  0
 23 25  1  0  0  0  0
 23 26  1  0  0  0  0
 26 27  1  0  0  0  0
 26 28  1  0  0  0  0
 26 31  1  0  0  0  0
 28 29  1  0  0  0  0
 29 30  2  0  0  0  0
 31 32  1  0  0  0  0
 31 33  2  0  0  0  0
M  END
> <Index>
1569

> <ID>
HT0888

> <class>
1

> <apol>
57.722481

> <ast_fraglike>
0

> <ast_fraglike_ext>
0

> <ast_violation>
2

> <ast_violation_ext>
4

> <a_acc>
5

> <a_acid>
0

> <a_aro>
11

> <a_base>
0

> <a_count>
47

> <a_don>
3

> <a_donacc>
8

> <a_heavy>
30

> <a_hyd>
18

> <a_IC>
94.503654

> <a_ICM>
2.0107162

> <a_nB>
0

> <a_nBr>
0

> <a_nC>
19

> <a_nCl>
1

> <a_nF>
1

> <a_nH>
17

> <a_nI>
0

> <a_nN>
3

> <a_nO>
5

> <a_nP>
0

> <a_nS>
1

> <balabanJ>
1.4640665

> <BCUT_PEOE_0>
-2.6399822

> <BCUT_PEOE_1>
-0.54029572

> <BCUT_PEOE_2>
0.55126119

> <BCUT_PEOE_3>
2.8494

> <BCUT_SLOGP_0>
-2.89501

> <BCUT_SLOGP_1>
-0.4429388

> <BCUT_SLOGP_2>
0.65824389

> <BCUT_SLOGP_3>
2.7542496

> <BCUT_SMR_0>
-2.3874598

> <BCUT_SMR_1>
-0.35851151

> <BCUT_SMR_2>
0.75599235

> <BCUT_SMR_3>
3.130357

> <bpol>
29.917519

> <b_1rotN>
4

> <b_1rotR>
0.12121212

> <b_ar>
11

> <b_count>
50

> <b_double>
3

> <b_heavy>
33

> <b_max1len>
4

> <b_rotN>
5

> <b_rotR>
0.15151516

> <b_single>
36

> <b_triple>
0

> <chi0>
21.955301

> <chi0v>
17.675339

> <chi0v_C>
11.464102

> <chi0_C>
12.549523

> <chi1>
14.041418

> <chi1v>
10.243748

> <chi1v_C>
5.4433756

> <chi1_C>
6.6825218

> <chiral>
3

> <chiral_u>
0

> <density>
0.89775097

> <diameter>
13

> <FCharge>
0

> <GCUT_PEOE_0>
-0.83718663

> <GCUT_PEOE_1>
-0.42520687

> <GCUT_PEOE_2>
0.052002896

> <GCUT_PEOE_3>
2.7342091

> <GCUT_SLOGP_0>
-1.164017

> <GCUT_SLOGP_1>
-0.37367171

> <GCUT_SLOGP_2>
0.1506447

> <GCUT_SLOGP_3>
2.7081392

> <GCUT_SMR_0>
-0.53651941

> <GCUT_SMR_1>
-0.20012724

> <GCUT_SMR_2>
0.22591226

> <GCUT_SMR_3>
3.0002239

> <Kier1>
23.168043

> <Kier2>
8.4082842

> <Kier3>
3.8655953

> <KierA1>
19.764065

> <KierA2>
7.1316342

> <KierA3>
3.265305

> <KierFlex>
4.6983361

> <lip_acc>
8

> <lip_don>
2

> <lip_druglike>
1

> <lip_violation>
0

> <logP(o/w)>
2.701

> <logS>
-5.80233

> <mr>
10.918307

> <mutagenic>
0

> <nmol>
1

> <opr_brigid>
19

> <opr_leadlike>
1

> <opr_nring>
4

> <opr_nrot>
4

> <opr_violation>
1

> <PC+>
0

> <PC->
0

> <PEOE_PC+>
2.8543389

> <PEOE_PC->
-2.8543389

> <PEOE_RPC+>
0.099419348

> <PEOE_RPC->
0.12561522

> <PEOE_VSA+0>
38.388474

> <PEOE_VSA+1>
32.320602

> <PEOE_VSA+2>
37.801399

> <PEOE_VSA+3>
8.6190128

> <PEOE_VSA+4>
10.324173

> <PEOE_VSA+5>
40.607563

> <PEOE_VSA+6>
0.0

> <PEOE_VSA-0>
80.752838

> <PEOE_VSA-1>
52.722111

> <PEOE_VSA-2>
19.760618

> <PEOE_VSA-3>
0.0

> <PEOE_VSA-4>
11.908636

> <PEOE_VSA-5>
40.700764

> <PEOE_VSA-6>
13.80679

> <PEOE_VSA_FHYD>
0.69733298

> <PEOE_VSA_FNEG>
0.5665319

> <PEOE_VSA_FPNEG>
0.17130247

> <PEOE_VSA_FPOL>
0.30266699

> <PEOE_VSA_FPOS>
0.43346813

> <PEOE_VSA_FPPOS>
0.13136452

> <PEOE_VSA_HYD>
270.36505

> <PEOE_VSA_NEG>
219.65176

> <PEOE_VSA_PNEG>
66.416191

> <PEOE_VSA_POL>
117.34792

> <PEOE_VSA_POS>
168.06122

> <PEOE_VSA_PPOS>
50.931732

> <petitjean>
0.46153846

> <petitjeanSC>
0.85714287

> <Q_PC+>
0

> <Q_PC->
0

> <Q_RPC+>
0

> <Q_RPC->
0

> <Q_VSA_FHYD>
1

> <Q_VSA_FNEG>
0

> <Q_VSA_FPNEG>
0

> <Q_VSA_FPOL>
0

> <Q_VSA_FPOS>
1

> <Q_VSA_FPPOS>
0

> <Q_VSA_HYD>
387.71298

> <Q_VSA_NEG>
0

> <Q_VSA_PNEG>
0

> <Q_VSA_POL>
0

> <Q_VSA_POS>
387.71298

> <Q_VSA_PPOS>
0

> <radius>
7

> <reactive>
0

> <rings>
4

> <RPC+>
0

> <RPC->
0

> <rsynth>
1.0

> <SlogP>
2.68782

> <SlogP_VSA0>
18.01075

> <SlogP_VSA1>
40.98394

> <SlogP_VSA2>
67.156517

> <SlogP_VSA3>
25.385227

> <SlogP_VSA4>
32.496613

> <SlogP_VSA5>
9.7341213

> <SlogP_VSA6>
3.5006065

> <SlogP_VSA7>
58.871876

> <SlogP_VSA8>
0.0

> <SlogP_VSA9>
186.30635

> <SMR>
10.6627

> <SMR_VSA0>
81.32077

> <SMR_VSA1>
37.681023

> <SMR_VSA2>
52.516994

> <SMR_VSA3>
22.446068

> <SMR_VSA4>
5.9423227

> <SMR_VSA5>
52.929554

> <SMR_VSA6>
18.263031

> <SMR_VSA7>
171.34624

> <TPSA>
112.74

> <VAdjEq>
0.37824166

> <VAdjMa>
6.044394

> <VDistEq>
3.5059464

> <VDistMa>
9.5333061

> <vdw_area>
387.71298

> <vdw_vol>
505.57227

> <vsa_acc>
38.019104

> <vsa_acid>
0

> <vsa_base>
0

> <vsa_don>
5.6825762

> <vsa_hyd>
243.63397

> <vsa_other>
54.968441

> <vsa_pol>
70.835518

> <Weight>
453.87799

> <weinerPath>
2402

> <weinerPol>
53

> <zagreb>
170

$$$$
Row1569
 OpenBabel06061811532D

 22 24  0  0  1  0  0  0  0  0999 V2000
    0.0000    0.0000    0.0000 F   0  0  0  0  0  0  0  0  0  0  0  0
    0.0000    0.0000    0.0000 C   0  0  0  0  0  0  0  0  0  0  0  0
    0.0000    0.0000    0.0000 C   0  0  0  0  0  0  0  0  0  0  0  0
    0.0000    0.0000    0.0000 C   0  0  0  0  0  0  0  0  0  0  0  0
    0.0000    0.0000    0.0000 F   0  0  0  0  0  0  0  0  0  0  0  0
    0.0000    0.0000    0.0000 C   0  0  0  0  0  0  0  0  0  0  0  0
    0.0000    0.0000    0.0000 C   0  0  0  0  0  0  0  0  0  0  0  0
    0.0000    0.0000    0.0000 C   0  0  0  0  0  0  0  0  0  0  0  0
    0.0000    0.0000    0.0000 C   0  0  3  0  0  0  0  0  0  0  0  0
    0.0000    0.0000    0.0000 O   0  0  0  0  0  0  0  0  0  0  0  0
    0.0000    0.0000    0.0000 C   0  0  0  0  0  0  0  0  0  0  0  0
    0.0000    0.0000    0.0000 N   0  0  0  0  0  0  0  0  0  0  0  0
    0.0000    0.0000    0.0000 N   0  0  0  0  0  0  0  0  0  0  0  0
    0.0000    0.0000    0.0000 C   0  0  0  0  0  0  0  0  0  0  0  0
    0.0000    0.0000    0.0000 N   0  0  0  0  0  0  0  0  0  0  0  0
    0.0000    0.0000    0.0000 C   0  0  0  0  0  0  0  0  0  0  0  0
    0.0000    0.0000    0.0000 C   0  0  0  0  0  0  0  0  0  0  0  0
    0.0000    0.0000    0.0000 N   0  0  0  0  0  0  0  0  0  0  0  0
    0.0000    0.0000    0.0000 N   0  0  0  0  0  0  0  0  0  0  0  0
    0.0000    0.0000    0.0000 C   0  0  0  0  0  0  0  0  0  0  0  0
    0.0000    0.0000    0.0000 N   0  0  0  0  0  0  0  0  0  0  0  0
    0.0000    0.0000    0.0000 C   0  0  0  0  0  0  0  0  0  0  0  0
  1  2  1  0  0  0  0
  2  8  1  0  0  0  0
  2  3  2  0  0  0  0
  3  4  1  0  0  0  0
  4  5  1  0  0  0  0
  4  6  2  0  0  0  0
  6  7  1  0  0  0  0
  7  8  2  0  0  0  0
  8  9  1  0  0  0  0
  9 10  1  0  0  0  0
  9 11  1  0  0  0  0
  9 17  1  0  0  0  0
 11 12  1  0  0  0  0
 12 16  1  0  0  0  0
 12 13  1  0  0  0  0
 13 14  2  0  0  0  0
 14 15  1  0  0  0  0
 15 16  2  0  0  0  0
 17 18  1  0  0  0  0
 18 22  1  0  0  0  0
 18 19  1  0  0  0  0
 19 20  2  0  0  0  0
 20 21  1  0  0  0  0
 21 22  2  0  0  0  0
M  END
> <Index>
1570

> <ID>
HT0889

> <class>
1

> <apol>
39.397514

> <ast_fraglike>
0

> <ast_fraglike_ext>
0

> <ast_violation>
2

> <ast_violation_ext>
3

> <a_acc>
5

> <a_acid>
0

> <a_aro>
16

> <a_base>
0

> <a_count>
34

> <a_don>
1

> <a_donacc>
6

> <a_heavy>
22

> <a_hyd>
11

> <a_IC>
64.338692

> <a_ICM>
1.8923146

> <a_nB>
0

> <a_nBr>
0

> <a_nC>
13

> <a_nCl>
0

> <a_nF>
2

> <a_nH>
12

> <a_nI>
0

> <a_nN>
6

> <a_nO>
1

> <a_nP>
0

> <a_nS>
0

> <balabanJ>
1.7139099

> <BCUT_PEOE_0>
-2.5515108

> <BCUT_PEOE_1>
-0.61341786

> <BCUT_PEOE_2>
0.56768495

> <BCUT_PEOE_3>
2.6110854

> <BCUT_SLOGP_0>
-2.4828672

> <BCUT_SLOGP_1>
-0.46844169

> <BCUT_SLOGP_2>
0.77869219

> <BCUT_SLOGP_3>
2.6972194

> <BCUT_SMR_0>
-2.3281541

> <BCUT_SMR_1>
-0.4077138

> <BCUT_SMR_2>
0.77940202

> <BCUT_SMR_3>
2.8262873

> <bpol>
22.124483

> <b_1rotN>
5

> <b_1rotR>
0.20833333

> <b_ar>
16

> <b_count>
36

> <b_double>
0

> <b_heavy>
24

> <b_max1len>
4

> <b_rotN>
5

> <b_rotR>
0.20833333

> <b_single>
20

> <b_triple>
0

> <chi0>
15.57914

> <chi0v>
11.34209

> <chi0v_C>
7.4556656

> <chi0_C>
8.5960121

> <chi1>
10.566298

> <chi1v>
6.3947587

> <chi1v_C>
2.6951406

> <chi1_C>
3.4621084

> <chiral>
0

> <chiral_u>
0

> <density>
0.8534264

> <diameter>
9

> <FCharge>
0

> <GCUT_PEOE_0>
-0.82598299

> <GCUT_PEOE_1>
-0.42112628

> <GCUT_PEOE_2>
0.002617581

> <GCUT_PEOE_3>
2.5626822

> <GCUT_SLOGP_0>
-0.89942437

> <GCUT_SLOGP_1>
-0.30203456

> <GCUT_SLOGP_2>
0.19309296

> <GCUT_SLOGP_3>
2.6269352

> <GCUT_SMR_0>
-0.51470155

> <GCUT_SMR_1>
-0.19297661

> <GCUT_SMR_2>
0.1932752

> <GCUT_SMR_3>
2.800801

> <Kier1>
16.84375

> <Kier2>
7.2664361

> <Kier3>
4.1103301

> <KierA1>
11.702123

> <KierA2>
4.9526834

> <KierA3>
2.7628069

> <KierFlex>
2.6344051

> <lip_acc>
7

> <lip_don>
1

> <lip_druglike>
1

> <lip_violation>
0

> <logP(o/w)>
-1.124

> <logS>
-2.3195601

> <mr>
7.5367618

> <mutagenic>
0

> <nmol>
1

> <opr_brigid>
16

> <opr_leadlike>
1

> <opr_nring>
3

> <opr_nrot>
5

> <opr_violation>
0

> <PC+>
0

> <PC->
0

> <PEOE_PC+>
2.1268198

> <PEOE_PC->
-2.1268198

> <PEOE_RPC+>
0.099104241

> <PEOE_RPC->
0.17875184

> <PEOE_VSA+0>
14.463444

> <PEOE_VSA+1>
56.242352

> <PEOE_VSA+2>
120.05094

> <PEOE_VSA+3>
0.0

> <PEOE_VSA+4>
10.324173

> <PEOE_VSA+5>
0.0

> <PEOE_VSA+6>
0.0

> <PEOE_VSA-0>
12.254904

> <PEOE_VSA-1>
12.254904

> <PEOE_VSA-2>
0.0

> <PEOE_VSA-3>
18.842079

> <PEOE_VSA-4>
35.182423

> <PEOE_VSA-5>
0.0

> <PEOE_VSA-6>
7.7675405

> <PEOE_VSA_FHYD>
0.81462306

> <PEOE_VSA_FNEG>
0.3003028

> <PEOE_VSA_FPNEG>
0.14945212

> <PEOE_VSA_FPOL>
0.18537694

> <PEOE_VSA_FPOS>
0.6996972

> <PEOE_VSA_FPPOS>
0.035924815

> <PEOE_VSA_HYD>
234.10863

> <PEOE_VSA_NEG>
86.301849

> <PEOE_VSA_PNEG>
42.949963

> <PEOE_VSA_POL>
53.274136

> <PEOE_VSA_POS>
201.08092

> <PEOE_VSA_PPOS>
10.324173

> <petitjean>
0.44444445

> <petitjeanSC>
0.80000001

> <Q_PC+>
0

> <Q_PC->
0

> <Q_RPC+>
0

> <Q_RPC->
0

> <Q_VSA_FHYD>
1

> <Q_VSA_FNEG>
0

> <Q_VSA_FPNEG>
0

> <Q_VSA_FPOL>
0

> <Q_VSA_FPOS>
1

> <Q_VSA_FPPOS>
0

> <Q_VSA_HYD>
287.38275

> <Q_VSA_NEG>
0

> <Q_VSA_PNEG>
0

> <Q_VSA_POL>
0

> <Q_VSA_POS>
287.38275

> <Q_VSA_PPOS>
0

> <radius>
5

> <reactive>
0

> <rings>
3

> <RPC+>
0

> <RPC->
0

> <rsynth>
0.5

> <SlogP>
1.5801001

> <SlogP_VSA0>
25.385227

> <SlogP_VSA1>
70.450218

> <SlogP_VSA2>
18.242037

> <SlogP_VSA3>
0.0

> <SlogP_VSA4>
3.185575

> <SlogP_VSA5>
0.0

> <SlogP_VSA6>
0.0

> <SlogP_VSA7>
120.07167

> <SlogP_VSA8>
0.0

> <SlogP_VSA9>
66.799385

> <SMR>
7.0825801

> <SMR_VSA0>
0.0

> <SMR_VSA1>
125.75567

> <SMR_VSA2>
18.242037

> <SMR_VSA3>
3.185575

> <SMR_VSA4>
0.0

> <SMR_VSA5>
156.95082

> <SMR_VSA6>
0.0

> <SMR_VSA7>
0.0

> <TPSA>
81.650002

> <VAdjEq>
0.46637034

> <VAdjMa>
5.5849624

> <VDistEq>
3.0211732

> <VDistMa>
8.6635313

> <vdw_area>
287.38275

> <vdw_vol>
358.87805

> <vsa_acc>
30.207232

> <vsa_acid>
0

> <vsa_base>
0

> <vsa_don>
0.0

> <vsa_hyd>
132.092

> <vsa_other>
99.162071

> <vsa_pol>
43.774151

> <Weight>
306.276

> <weinerPath>
1000

> <weinerPol>
30

> <zagreb>
116

$$$$
Row1570
 OpenBabel06061811532D

 30 33  0  0  1  0  0  0  0  0999 V2000
    0.0000    0.0000    0.0000 F   0  0  0  0  0  0  0  0  0  0  0  0
    0.0000    0.0000    0.0000 C   0  0  0  0  0  0  0  0  0  0  0  0
    0.0000    0.0000    0.0000 C   0  0  0  0  0  0  0  0  0  0  0  0
    0.0000    0.0000    0.0000 C   0  0  0  0  0  0  0  0  0  0  0  0
    0.0000    0.0000    0.0000 C   0  0  0  0  0  0  0  0  0  0  0  0
    0.0000    0.0000    0.0000 C   0  0  0  0  0  0  0  0  0  0  0  0
    0.0000    0.0000    0.0000 C   0  0  0  0  0  0  0  0  0  0  0  0
    0.0000    0.0000    0.0000 C   0  0  3  0  0  0  0  0  0  0  0  0
    0.0000    0.0000    0.0000 N   0  0  0  0  0  0  0  0  0  0  0  0
    0.0000    0.0000    0.0000 C   0  0  0  0  0  0  0  0  0  0  0  0
    0.0000    0.0000    0.0000 C   0  0  0  0  0  0  0  0  0  0  0  0
    0.0000    0.0000    0.0000 N   0  0  0  0  0  0  0  0  0  0  0  0
    0.0000    0.0000    0.0000 C   0  0  0  0  0  0  0  0  0  0  0  0
    0.0000    0.0000    0.0000 C   0  0  0  0  0  0  0  0  0  0  0  0
    0.0000    0.0000    0.0000 C   0  0  0  0  0  0  0  0  0  0  0  0
    0.0000    0.0000    0.0000 C   0  0  0  0  0  0  0  0  0  0  0  0
    0.0000    0.0000    0.0000 C   0  0  0  0  0  0  0  0  0  0  0  0
    0.0000    0.0000    0.0000 C   0  0  0  0  0  0  0  0  0  0  0  0
    0.0000    0.0000    0.0000 C   0  0  0  0  0  0  0  0  0  0  0  0
    0.0000    0.0000    0.0000 C   0  0  0  0  0  0  0  0  0  0  0  0
    0.0000    0.0000    0.0000 C   0  0  0  0  0  0  0  0  0  0  0  0
    0.0000    0.0000    0.0000 C   0  0  0  0  0  0  0  0  0  0  0  0
    0.0000    0.0000    0.0000 C   0  0  0  0  0  0  0  0  0  0  0  0
    0.0000    0.0000    0.0000 C   0  0  0  0  0  0  0  0  0  0  0  0
    0.0000    0.0000    0.0000 C   0  0  0  0  0  0  0  0  0  0  0  0
    0.0000    0.0000    0.0000 C   0  0  0  0  0  0  0  0  0  0  0  0
    0.0000    0.0000    0.0000 C   0  0  0  0  0  0  0  0  0  0  0  0
    0.0000    0.0000    0.0000 F   0  0  0  0  0  0  0  0  0  0  0  0
    0.0000    0.0000    0.0000 C   0  0  0  0  0  0  0  0  0  0  0  0
    0.0000    0.0000    0.0000 C   0  0  0  0  0  0  0  0  0  0  0  0
  1  2  1  0  0  0  0
  2  7  1  0  0  0  0
  2  3  2  0  0  0  0
  3  4  1  0  0  0  0
  4  5  2  0  0  0  0
  5  6  1  0  0  0  0
  5  8  1  0  0  0  0
  6  7  2  0  0  0  0
  8  9  1  0  0  0  0
  8 24  1  0  0  0  0
  9 14  1  0  0  0  0
  9 10  1  0  0  0  0
 10 11  1  0  0  0  0
 11 12  1  0  0  0  0
 12 13  1  0  0  0  0
 12 15  1  0  0  0  0
 13 14  1  0  0  0  0
 15 16  1  0  0  0  0
 16 17  2  3  0  0  0
 17 18  1  0  0  0  0
 18 23  1  0  0  0  0
 18 19  2  0  0  0  0
 19 20  1  0  0  0  0
 20 21  2  0  0  0  0
 21 22  1  0  0  0  0
 22 23  2  0  0  0  0
 24 30  1  0  0  0  0
 24 25  2  0  0  0  0
 25 26  1  0  0  0  0
 26 27  2  0  0  0  0
 27 28  1  0  0  0  0
 27 29  1  0  0  0  0
 29 30  2  0  0  0  0
M  END
> <Index>
1571

> <ID>
HT0900

> <class>
1

> <apol>
66.410622

> <ast_fraglike>
0

> <ast_fraglike_ext>
0

> <ast_violation>
2

> <ast_violation_ext>
3

> <a_acc>
2

> <a_acid>
0

> <a_aro>
18

> <a_base>
0

> <a_count>
56

> <a_don>
0

> <a_donacc>
2

> <a_heavy>
30

> <a_hyd>
28

> <a_IC>
76.789009

> <a_ICM>
1.3712323

> <a_nB>
0

> <a_nBr>
0

> <a_nC>
26

> <a_nCl>
0

> <a_nF>
2

> <a_nH>
26

> <a_nI>
0

> <a_nN>
2

> <a_nO>
0

> <a_nP>
0

> <a_nS>
0

> <balabanJ>
1.2558904

> <BCUT_PEOE_0>
-2.7784066

> <BCUT_PEOE_1>
-0.64169186

> <BCUT_PEOE_2>
0.70205975

> <BCUT_PEOE_3>
2.6760197

> <BCUT_SLOGP_0>
-2.8767376

> <BCUT_SLOGP_1>
-0.53807992

> <BCUT_SLOGP_2>
0.80591482

> <BCUT_SLOGP_3>
2.6286528

> <BCUT_SMR_0>
-2.4904203

> <BCUT_SMR_1>
-0.49986199

> <BCUT_SMR_2>
0.85431087

> <BCUT_SMR_3>
2.9569263

> <bpol>
34.789383

> <b_1rotN>
6

> <b_1rotR>
0.18181819

> <b_ar>
18

> <b_count>
59

> <b_double>
1

> <b_heavy>
33

> <b_max1len>
3

> <b_rotN>
6

> <b_rotR>
0.18181819

> <b_single>
40

> <b_triple>
0

> <chi0>
20.760939

> <chi0v>
16.923494

> <chi0v_C>
15.273138

> <chi0_C>
17.606237

> <chi1>
14.686673

> <chi1v>
10.378327

> <chi1v_C>
8.161025

> <chi1_C>
11.157398

> <chiral>
0

> <chiral_u>
0

> <density>
0.70160174

> <diameter>
16

> <FCharge>
0

> <GCUT_PEOE_0>
-0.85166585

> <GCUT_PEOE_1>
-0.39860058

> <GCUT_PEOE_2>
0.081990212

> <GCUT_PEOE_3>
2.8250599

> <GCUT_SLOGP_0>
-0.96068281

> <GCUT_SLOGP_1>
-0.26386139

> <GCUT_SLOGP_2>
0.17670985

> <GCUT_SLOGP_3>
2.8801625

> <GCUT_SMR_0>
-0.51433307

> <GCUT_SMR_1>
-0.2120079

> <GCUT_SMR_2>
0.19305076

> <GCUT_SMR_3>
3.0934279

> <Kier1>
23.168043

> <Kier2>
11.743802

> <Kier3>
6.75

> <KierA1>
17.305431

> <KierA2>
8.6774845

> <KierA3>
4.9493675

> <KierFlex>
5.0055871

> <lip_acc>
2

> <lip_don>
0

> <lip_druglike>
1

> <lip_violation>
1

> <logP(o/w)>
6.1269999

> <logS>
-5.9346399

> <mr>
11.919695

> <mutagenic>
0

> <nmol>
1

> <opr_brigid>
25

> <opr_leadlike>
1

> <opr_nring>
4

> <opr_nrot>
8

> <opr_violation>
1

> <PC+>
0

> <PC->
0

> <PEOE_PC+>
1.8139745

> <PEOE_PC->
-1.8139745

> <PEOE_RPC+>
0.068039164

> <PEOE_RPC->
0.16334093

> <PEOE_VSA+0>
108.61549

> <PEOE_VSA+1>
71.392136

> <PEOE_VSA+2>
18.041691

> <PEOE_VSA+3>
0.0

> <PEOE_VSA+4>
0.0

> <PEOE_VSA+5>
0.0

> <PEOE_VSA+6>
0.0

> <PEOE_VSA-0>
55.645233

> <PEOE_VSA-1>
134.80394

> <PEOE_VSA-2>
0.0

> <PEOE_VSA-3>
0.0

> <PEOE_VSA-4>
23.817272

> <PEOE_VSA-5>
0.0

> <PEOE_VSA-6>
0.0

> <PEOE_VSA_FHYD>
0.94223535

> <PEOE_VSA_FNEG>
0.5196659

> <PEOE_VSA_FPNEG>
0.057764638

> <PEOE_VSA_FPOL>
0.057764638

> <PEOE_VSA_FPOS>
0.48033407

> <PEOE_VSA_FPPOS>
0.0

> <PEOE_VSA_HYD>
388.4985

> <PEOE_VSA_NEG>
214.26645

> <PEOE_VSA_PNEG>
23.817272

> <PEOE_VSA_POL>
23.817272

> <PEOE_VSA_POS>
198.04932

> <PEOE_VSA_PPOS>
0.0

> <petitjean>
0.5

> <petitjeanSC>
1.0

> <Q_PC+>
0

> <Q_PC->
0

> <Q_RPC+>
0

> <Q_RPC->
0

> <Q_VSA_FHYD>
1

> <Q_VSA_FNEG>
0

> <Q_VSA_FPNEG>
0

> <Q_VSA_FPOL>
0

> <Q_VSA_FPOS>
1

> <Q_VSA_FPPOS>
0

> <Q_VSA_HYD>
412.31577

> <Q_VSA_NEG>
0

> <Q_VSA_PNEG>
0

> <Q_VSA_POL>
0

> <Q_VSA_POS>
412.31577

> <Q_VSA_PPOS>
0

> <radius>
8

> <reactive>
0

> <rings>
4

> <RPC+>
0

> <RPC->
0

> <rsynth>
1.0

> <SlogP>
5.4807

> <SlogP_VSA0>
0.0

> <SlogP_VSA1>
6.2486277

> <SlogP_VSA2>
18.242037

> <SlogP_VSA3>
92.197891

> <SlogP_VSA4>
9.5567245

> <SlogP_VSA5>
0.0

> <SlogP_VSA6>
0.0

> <SlogP_VSA7>
247.00458

> <SlogP_VSA8>
21.625153

> <SlogP_VSA9>
29.920227

> <SMR>
11.8243

> <SMR_VSA0>
0.0

> <SMR_VSA1>
36.168854

> <SMR_VSA2>
18.242037

> <SMR_VSA3>
13.538693

> <SMR_VSA4>
0.0

> <SMR_VSA5>
247.00458

> <SMR_VSA6>
109.84107

> <SMR_VSA7>
0.0

> <TPSA>
6.48

> <VAdjEq>
0.37824166

> <VAdjMa>
6.044394

> <VDistEq>
3.7920032

> <VDistMa>
9.4990301

> <vdw_area>
412.31577

> <vdw_vol>
576.54364

> <vsa_acc>
0.0

> <vsa_acid>
0

> <vsa_base>
0

> <vsa_don>
0.0

> <vsa_hyd>
393.80908

> <vsa_other>
0.0

> <vsa_pol>
0.0

> <Weight>
404.504

> <weinerPath>
2790

> <weinerPol>
44

> <zagreb>
154

$$$$
Row1571
 OpenBabel06061811532D

 22 23  0  0  1  0  0  0  0  0999 V2000
    0.0000    0.0000    0.0000 F   0  0  0  0  0  0  0  0  0  0  0  0
    0.0000    0.0000    0.0000 C   0  0  0  0  0  0  0  0  0  0  0  0
    0.0000    0.0000    0.0000 F   0  0  0  0  0  0  0  0  0  0  0  0
    0.0000    0.0000    0.0000 F   0  0  0  0  0  0  0  0  0  0  0  0
    0.0000    0.0000    0.0000 C   0  0  0  0  0  0  0  0  0  0  0  0
    0.0000    0.0000    0.0000 C   0  0  0  0  0  0  0  0  0  0  0  0
    0.0000    0.0000    0.0000 C   0  0  0  0  0  0  0  0  0  0  0  0
    0.0000    0.0000    0.0000 C   0  0  0  0  0  0  0  0  0  0  0  0
    0.0000    0.0000    0.0000 O   0  0  0  0  0  0  0  0  0  0  0  0
    0.0000    0.0000    0.0000 C   0  0  3  0  0  0  0  0  0  0  0  0
    0.0000    0.0000    0.0000 C   0  0  0  0  0  0  0  0  0  0  0  0
    0.0000    0.0000    0.0000 C   0  0  0  0  0  0  0  0  0  0  0  0
    0.0000    0.0000    0.0000 N   0  0  0  0  0  0  0  0  0  0  0  0
    0.0000    0.0000    0.0000 C   0  0  0  0  0  0  0  0  0  0  0  0
    0.0000    0.0000    0.0000 C   0  0  0  0  0  0  0  0  0  0  0  0
    0.0000    0.0000    0.0000 C   0  0  0  0  0  0  0  0  0  0  0  0
    0.0000    0.0000    0.0000 C   0  0  0  0  0  0  0  0  0  0  0  0
    0.0000    0.0000    0.0000 C   0  0  0  0  0  0  0  0  0  0  0  0
    0.0000    0.0000    0.0000 C   0  0  0  0  0  0  0  0  0  0  0  0
    0.0000    0.0000    0.0000 C   0  0  0  0  0  0  0  0  0  0  0  0
    0.0000    0.0000    0.0000 C   0  0  0  0  0  0  0  0  0  0  0  0
    0.0000    0.0000    0.0000 C   0  0  0  0  0  0  0  0  0  0  0  0
  1  2  1  0  0  0  0
  2  3  1  0  0  0  0
  2  4  1  0  0  0  0
  2  5  1  0  0  0  0
  5 22  1  0  0  0  0
  5  6  2  0  0  0  0
  6  7  1  0  0  0  0
  7  8  2  0  0  0  0
  8  9  1  0  0  0  0
  8 21  1  0  0  0  0
  9 10  1  0  0  0  0
 10 11  1  0  0  0  0
 10 15  1  0  0  0  0
 11 12  1  0  0  0  0
 12 13  1  0  0  0  0
 13 14  1  0  0  0  0
 15 20  1  0  0  0  0
 15 16  2  0  0  0  0
 16 17  1  0  0  0  0
 17 18  2  0  0  0  0
 18 19  1  0  0  0  0
 19 20  2  0  0  0  0
 21 22  2  0  0  0  0
M  END
> <Index>
1572

> <ID>
HT0910

> <class>
1

> <apol>
45.495274

> <ast_fraglike>
0

> <ast_fraglike_ext>
0

> <ast_violation>
2

> <ast_violation_ext>
3

> <a_acc>
2

> <a_acid>
0

> <a_aro>
12

> <a_base>
0

> <a_count>
40

> <a_don>
1

> <a_donacc>
3

> <a_heavy>
22

> <a_hyd>
20

> <a_IC>
63.576717

> <a_ICM>
1.5894179

> <a_nB>
0

> <a_nBr>
0

> <a_nC>
17

> <a_nCl>
0

> <a_nF>
3

> <a_nH>
18

> <a_nI>
0

> <a_nN>
1

> <a_nO>
1

> <a_nP>
0

> <a_nS>
0

> <balabanJ>
1.828146

> <BCUT_PEOE_0>
-2.5973706

> <BCUT_PEOE_1>
-0.64152062

> <BCUT_PEOE_2>
0.68524039

> <BCUT_PEOE_3>
2.55426

> <BCUT_SLOGP_0>
-2.6832395

> <BCUT_SLOGP_1>
-0.53807992

> <BCUT_SLOGP_2>
0.6948753

> <BCUT_SLOGP_3>
2.6236069

> <BCUT_SMR_0>
-2.3365104

> <BCUT_SMR_1>
-0.49986199

> <BCUT_SMR_2>
0.80878991

> <BCUT_SMR_3>
2.8064325

> <bpol>
25.862726

> <b_1rotN>
6

> <b_1rotR>
0.26086956

> <b_ar>
12

> <b_count>
41

> <b_double>
0

> <b_heavy>
23

> <b_max1len>
6

> <b_rotN>
7

> <b_rotR>
0.30434781

> <b_single>
29

> <b_triple>
0

> <chi0>
16.001789

> <chi0v>
12.229858

> <chi0v_C>
10.187716

> <chi0_C>
11.587576

> <chi1>
10.50335

> <chi1v>
7.0393009

> <chi1v_C>
5.1789742

> <chi1_C>
6.9797463

> <chiral>
1

> <chiral_u>
1

> <density>
0.76878214

> <diameter>
11

> <FCharge>
0

> <GCUT_PEOE_0>
-0.85376763

> <GCUT_PEOE_1>
-0.3816469

> <GCUT_PEOE_2>
0.079471156

> <GCUT_PEOE_3>
2.532371

> <GCUT_SLOGP_0>
-1.1525521

> <GCUT_SLOGP_1>
-0.26386139

> <GCUT_SLOGP_2>
0.19814764

> <GCUT_SLOGP_3>
2.6578126

> <GCUT_SMR_0>
-0.51753175

> <GCUT_SMR_1>
-0.21605732

> <GCUT_SMR_2>
0.19305076

> <GCUT_SMR_3>
2.7928607

> <Kier1>
18.340265

> <Kier2>
8.7408953

> <Kier3>
5.8641977

> <KierA1>
14.214485

> <KierA2>
6.6862388

> <KierA3>
4.443181

> <KierFlex>
4.3200655

> <lip_acc>
2

> <lip_don>
1

> <lip_druglike>
1

> <lip_violation>
0

> <logP(o/w)>
4.7567601

> <logS>
-4.2284198

> <mr>
8.2034378

> <mutagenic>
0

> <nmol>
1

> <opr_brigid>
12

> <opr_leadlike>
1

> <opr_nring>
2

> <opr_nrot>
6

> <opr_violation>
1

> <PC+>
0

> <PC->
0

> <PEOE_PC+>
1.6530278

> <PEOE_PC->
-1.6530278

> <PEOE_RPC+>
0.25252023

> <PEOE_RPC->
0.20377158

> <PEOE_VSA+0>
29.857702

> <PEOE_VSA+1>
58.225849

> <PEOE_VSA+2>
8.6190128

> <PEOE_VSA+3>
0.0

> <PEOE_VSA+4>
0.0

> <PEOE_VSA+5>
0.0

> <PEOE_VSA+6>
9.0455017

> <PEOE_VSA-0>
96.360481

> <PEOE_VSA-1>
61.274521

> <PEOE_VSA-2>
0.0

> <PEOE_VSA-3>
35.725906

> <PEOE_VSA-4>
0.0

> <PEOE_VSA-5>
0.0

> <PEOE_VSA-6>
2.6406472

> <PEOE_VSA_FHYD>
0.96127206

> <PEOE_VSA_FNEG>
0.64955032

> <PEOE_VSA_FPNEG>
0.0087511195

> <PEOE_VSA_FPOL>
0.038727965

> <PEOE_VSA_FPOS>
0.35044971

> <PEOE_VSA_FPPOS>
0.029976847

> <PEOE_VSA_HYD>
290.06348

> <PEOE_VSA_NEG>
196.00156

> <PEOE_VSA_PNEG>
2.6406472

> <PEOE_VSA_POL>
11.68615

> <PEOE_VSA_POS>
105.74806

> <PEOE_VSA_PPOS>
9.0455017

> <petitjean>
0.45454547

> <petitjeanSC>
0.83333331

> <Q_PC+>
0

> <Q_PC->
0

> <Q_RPC+>
0

> <Q_RPC->
0

> <Q_VSA_FHYD>
1

> <Q_VSA_FNEG>
0

> <Q_VSA_FPNEG>
0

> <Q_VSA_FPOL>
0

> <Q_VSA_FPOS>
1

> <Q_VSA_FPPOS>
0

> <Q_VSA_HYD>
301.74963

> <Q_VSA_NEG>
0

> <Q_VSA_PNEG>
0

> <Q_VSA_POL>
0

> <Q_VSA_POS>
301.74963

> <Q_VSA_PPOS>
0

> <radius>
6

> <reactive>
0

> <rings>
2

> <RPC+>
0

> <RPC->
0

> <rsynth>
1.0

> <SlogP>
4.842

> <SlogP_VSA0>
29.010639

> <SlogP_VSA1>
0.0

> <SlogP_VSA2>
0.0

> <SlogP_VSA3>
18.439579

> <SlogP_VSA4>
6.37115

> <SlogP_VSA5>
32.897186

> <SlogP_VSA6>
7.7595162

> <SlogP_VSA7>
158.78867

> <SlogP_VSA8>
25.337055

> <SlogP_VSA9>
50.123768

> <SMR>
8.0026703

> <SMR_VSA0>
0.0

> <SMR_VSA1>
55.880226

> <SMR_VSA2>
25.770267

> <SMR_VSA3>
18.083227

> <SMR_VSA4>
0.0

> <SMR_VSA5>
177.65706

> <SMR_VSA6>
18.439579

> <SMR_VSA7>
32.897186

> <TPSA>
21.26

> <VAdjEq>
0.4530769

> <VAdjMa>
5.523562

> <VDistEq>
3.3491058

> <VDistMa>
8.6178093

> <vdw_area>
301.74963

> <vdw_vol>
402.36496

> <vsa_acc>
2.503756

> <vsa_acid>
0

> <vsa_base>
0

> <vsa_don>
0.0

> <vsa_hyd>
278.38943

> <vsa_other>
0.0

> <vsa_pol>
8.1863317

> <Weight>
309.33099

> <weinerPath>
1148

> <weinerPol>
30

> <zagreb>
108

$$$$
Row1572
 OpenBabel06061811532D

 27 30  0  0  1  0  0  0  0  0999 V2000
    0.0000    0.0000    0.0000 F   0  0  0  0  0  0  0  0  0  0  0  0
    0.0000    0.0000    0.0000 C   0  0  1  0  0  0  0  0  0  0  0  0
    0.0000    0.0000    0.0000 C   0  0  2  0  0  0  0  0  0  0  0  0
    0.0000    0.0000    0.0000 H   0  0  0  0  0  0  0  0  0  0  0  0
    0.0000    0.0000    0.0000 C   0  0  2  0  0  0  0  0  0  0  0  0
    0.0000    0.0000    0.0000 H   0  0  0  0  0  0  0  0  0  0  0  0
    0.0000    0.0000    0.0000 C   0  0  0  0  0  0  0  0  0  0  0  0
    0.0000    0.0000    0.0000 C   0  0  0  0  0  0  0  0  0  0  0  0
    0.0000    0.0000    0.0000 C   0  0  1  0  0  0  0  0  0  0  0  0
    0.0000    0.0000    0.0000 O   0  0  0  0  0  0  0  0  0  0  0  0
    0.0000    0.0000    0.0000 C   0  0  0  0  0  0  0  0  0  0  0  0
    0.0000    0.0000    0.0000 C   0  0  1  0  0  0  0  0  0  0  0  0
    0.0000    0.0000    0.0000 C   0  0  0  0  0  0  0  0  0  0  0  0
    0.0000    0.0000    0.0000 C   0  0  2  0  0  0  0  0  0  0  0  0
    0.0000    0.0000    0.0000 H   0  0  0  0  0  0  0  0  0  0  0  0
    0.0000    0.0000    0.0000 O   0  0  0  0  0  0  0  0  0  0  0  0
    0.0000    0.0000    0.0000 C   0  0  0  0  0  0  0  0  0  0  0  0
    0.0000    0.0000    0.0000 C   0  0  0  0  0  0  0  0  0  0  0  0
    0.0000    0.0000    0.0000 C   0  0  0  0  0  0  0  0  0  0  0  0
    0.0000    0.0000    0.0000 C   0  0  0  0  0  0  0  0  0  0  0  0
    0.0000    0.0000    0.0000 C   0  0  0  0  0  0  0  0  0  0  0  0
    0.0000    0.0000    0.0000 C   0  0  0  0  0  0  0  0  0  0  0  0
    0.0000    0.0000    0.0000 O   0  0  0  0  0  0  0  0  0  0  0  0
    0.0000    0.0000    0.0000 C   0  0  0  0  0  0  0  0  0  0  0  0
    0.0000    0.0000    0.0000 C   0  0  0  0  0  0  0  0  0  0  0  0
    0.0000    0.0000    0.0000 C   0  0  2  0  0  0  0  0  0  0  0  0
    0.0000    0.0000    0.0000 C   0  0  0  0  0  0  0  0  0  0  0  0
  1  2  1  0  0  0  0
  2 14  1  0  0  0  0
  2 26  1  0  0  0  0
  2  3  1  0  0  0  0
  3  4  1  0  0  0  0
  3  5  1  0  0  0  0
  3 18  1  0  0  0  0
  5  6  1  0  0  0  0
  5 12  1  0  0  0  0
  5  7  1  0  0  0  0
  7  8  1  0  0  0  0
  8  9  1  0  0  0  0
  9 10  1  0  0  0  0
  9 11  1  0  0  0  0
  9 12  1  0  0  0  0
 12 13  1  0  0  0  0
 12 17  1  0  0  0  0
 13 14  1  0  0  0  0
 14 15  1  0  0  0  0
 14 16  1  0  0  0  0
 18 19  1  0  0  0  0
 19 20  1  0  0  0  0
 20 26  1  0  0  0  0
 20 21  2  0  0  0  0
 21 22  1  0  0  0  0
 22 23  2  0  0  0  0
 22 24  1  0  0  0  0
 24 25  1  0  0  0  0
 25 26  1  0  0  0  0
 26 27  1  0  0  0  0
M  END
> <Index>
1573

> <ID>
HT0911

> <class>
1

> <apol>
57.499996

> <ast_fraglike>
0

> <ast_fraglike_ext>
0

> <ast_violation>
2

> <ast_violation_ext>
2

> <a_acc>
3

> <a_acid>
0

> <a_aro>
0

> <a_base>
0

> <a_count>
53

> <a_don>
2

> <a_donacc>
5

> <a_heavy>
24

> <a_hyd>
20

> <a_IC>
71.504883

> <a_ICM>
1.3491488

> <a_nB>
0

> <a_nBr>
0

> <a_nC>
20

> <a_nCl>
0

> <a_nF>
1

> <a_nH>
29

> <a_nI>
0

> <a_nN>
0

> <a_nO>
3

> <a_nP>
0

> <a_nS>
0

> <balabanJ>
1.7611735

> <BCUT_PEOE_0>
-2.9196441

> <BCUT_PEOE_1>
-0.47004464

> <BCUT_PEOE_2>
0.39671102

> <BCUT_PEOE_3>
2.9944799

> <BCUT_SLOGP_0>
-2.9312325

> <BCUT_SLOGP_1>
-0.42828467

> <BCUT_SLOGP_2>
0.44135034

> <BCUT_SLOGP_3>
3.0126336

> <BCUT_SMR_0>
-2.6903269

> <BCUT_SMR_1>
-0.27928507

> <BCUT_SMR_2>
0.58010387

> <BCUT_SMR_3>
3.2251527

> <bpol>
33.864002

> <b_1rotN>
0

> <b_1rotR>
0.0

> <b_ar>
0

> <b_count>
56

> <b_double>
2

> <b_heavy>
27

> <b_max1len>
4

> <b_rotN>
0

> <b_rotR>
0.0

> <b_single>
54

> <b_triple>
0

> <chi0>
17.543606

> <chi0v>
14.939789

> <chi0v_C>
13.259149

> <chi0_C>
13.543606

> <chi1>
11.061132

> <chi1v>
9.3941326

> <chi1v_C>
8.5192213

> <chi1_C>
8.9064322

> <chiral>
7

> <chiral_u>
0

> <density>
0.72767466

> <diameter>
10

> <FCharge>
0

> <GCUT_PEOE_0>
-0.80363989

> <GCUT_PEOE_1>
-0.37153196

> <GCUT_PEOE_2>
-0.013728595

> <GCUT_PEOE_3>
3.3448131

> <GCUT_SLOGP_0>
-0.91122824

> <GCUT_SLOGP_1>
-0.32026154

> <GCUT_SLOGP_2>
-0.0092665209

> <GCUT_SLOGP_3>
3.3923192

> <GCUT_SMR_0>
-0.53929973

> <GCUT_SMR_1>
-0.2100186

> <GCUT_SMR_2>
0.11573126

> <GCUT_SMR_3>
3.5591023

> <Kier1>
17.415638

> <Kier2>
5.0393844

> <Kier3>
1.9606482

> <KierA1>
16.065886

> <KierA2>
4.6318064

> <KierA3>
1.7973285

> <KierFlex>
3.1005862

> <lip_acc>
3

> <lip_don>
2

> <lip_druglike>
1

> <lip_violation>
0

> <logP(o/w)>
2.5090001

> <logS>
-2.7536299

> <mr>
8.9527588

> <mutagenic>
0

> <nmol>
1

> <opr_brigid>
20

> <opr_leadlike>
1

> <opr_nring>
4

> <opr_nrot>
0

> <opr_violation>
0

> <PC+>
0

> <PC->
0

> <PEOE_PC+>
1.7493548

> <PEOE_PC->
-1.7493548

> <PEOE_RPC+>
0.12014182

> <PEOE_RPC->
0.22213426

> <PEOE_VSA+0>
115.33596

> <PEOE_VSA+1>
13.4357

> <PEOE_VSA+2>
0.0

> <PEOE_VSA+3>
8.458519

> <PEOE_VSA+4>
20.648346

> <PEOE_VSA+5>
0.0

> <PEOE_VSA+6>
0.0

> <PEOE_VSA-0>
83.210464

> <PEOE_VSA-1>
39.703896

> <PEOE_VSA-2>
0.0

> <PEOE_VSA-3>
0.0

> <PEOE_VSA-4>
11.908636

> <PEOE_VSA-5>
13.566921

> <PEOE_VSA-6>
15.535081

> <PEOE_VSA_FHYD>
0.80839556

> <PEOE_VSA_FNEG>
0.50939465

> <PEOE_VSA_FPNEG>
0.12743999

> <PEOE_VSA_FPOL>
0.19160444

> <PEOE_VSA_FPOS>
0.49060535

> <PEOE_VSA_FPPOS>
0.064164445

> <PEOE_VSA_HYD>
260.14453

> <PEOE_VSA_NEG>
163.92499

> <PEOE_VSA_PNEG>
41.010635

> <PEOE_VSA_POL>
61.658981

> <PEOE_VSA_POS>
157.87852

> <PEOE_VSA_PPOS>
20.648346

> <petitjean>
0.5

> <petitjeanSC>
1.0

> <Q_PC+>
0

> <Q_PC->
0

> <Q_RPC+>
0

> <Q_RPC->
0

> <Q_VSA_FHYD>
1

> <Q_VSA_FNEG>
0

> <Q_VSA_FPNEG>
0

> <Q_VSA_FPOL>
0

> <Q_VSA_FPOS>
1

> <Q_VSA_FPPOS>
0

> <Q_VSA_HYD>
321.80353

> <Q_VSA_NEG>
0

> <Q_VSA_PNEG>
0

> <Q_VSA_POL>
0

> <Q_VSA_POS>
321.80353

> <Q_VSA_PPOS>
0

> <radius>
5

> <reactive>
1

> <rings>
4

> <RPC+>
0

> <RPC->
0

> <rsynth>
0.0

> <SlogP>
3.3322001

> <SlogP_VSA0>
50.770454

> <SlogP_VSA1>
5.6876111

> <SlogP_VSA2>
30.330866

> <SlogP_VSA3>
0.0

> <SlogP_VSA4>
8.8215923

> <SlogP_VSA5>
3.185575

> <SlogP_VSA6>
0.0

> <SlogP_VSA7>
17.643185

> <SlogP_VSA8>
132.07884

> <SlogP_VSA9>
114.93816

> <SMR>
8.9072599

> <SMR_VSA0>
23.862217

> <SMR_VSA1>
65.730568

> <SMR_VSA2>
8.8215923

> <SMR_VSA3>
9.6542244

> <SMR_VSA4>
0.0

> <SMR_VSA5>
149.72202

> <SMR_VSA6>
5.6876111

> <SMR_VSA7>
99.978043

> <TPSA>
57.529999

> <VAdjEq>
0.44886449

> <VAdjMa>
5.7548876

> <VDistEq>
2.9475381

> <VDistMa>
8.9184399

> <vdw_area>
321.80353

> <vdw_vol>
462.3591

> <vsa_acc>
13.566921

> <vsa_acid>
0

> <vsa_base>
0

> <vsa_don>
0.0

> <vsa_hyd>
241.68608

> <vsa_other>
8.458519

> <vsa_pol>
40.700764

> <Weight>
336.44699

> <weinerPath>
1083

> <weinerPol>
58

> <zagreb>
148

$$$$
Row1573
 OpenBabel06061811532D

 41 44  0  0  0  0  0  0  0  0999 V2000
    0.0000    0.0000    0.0000 S   0  0  0  0  0  0  0  0  0  0  0  0
    0.0000    0.0000    0.0000 C   0  0  0  0  0  0  0  0  0  0  0  0
    0.0000    0.0000    0.0000 C   0  0  0  0  0  0  0  0  0  0  0  0
    0.0000    0.0000    0.0000 N   0  0  0  0  0  0  0  0  0  0  0  0
    0.0000    0.0000    0.0000 C   0  0  0  0  0  0  0  0  0  0  0  0
    0.0000    0.0000    0.0000 C   0  0  0  0  0  0  0  0  0  0  0  0
    0.0000    0.0000    0.0000 C   0  0  0  0  0  0  0  0  0  0  0  0
    0.0000    0.0000    0.0000 C   0  0  0  0  0  0  0  0  0  0  0  0
    0.0000    0.0000    0.0000 C   0  0  0  0  0  0  0  0  0  0  0  0
    0.0000    0.0000    0.0000 C   0  0  0  0  0  0  0  0  0  0  0  0
    0.0000    0.0000    0.0000 C   0  0  0  0  0  0  0  0  0  0  0  0
    0.0000    0.0000    0.0000 C   0  0  0  0  0  0  0  0  0  0  0  0
    0.0000    0.0000    0.0000 C   0  0  0  0  0  0  0  0  0  0  0  0
    0.0000    0.0000    0.0000 N   0  0  0  0  0  0  0  0  0  0  0  0
    0.0000    0.0000    0.0000 C   0  0  0  0  0  0  0  0  0  0  0  0
    0.0000    0.0000    0.0000 C   0  0  0  0  0  0  0  0  0  0  0  0
    0.0000    0.0000    0.0000 N   0  0  0  0  0  0  0  0  0  0  0  0
    0.0000    0.0000    0.0000 C   0  0  0  0  0  0  0  0  0  0  0  0
    0.0000    0.0000    0.0000 C   0  0  0  0  0  0  0  0  0  0  0  0
    0.0000    0.0000    0.0000 C   0  0  0  0  0  0  0  0  0  0  0  0
    0.0000    0.0000    0.0000 C   0  0  0  0  0  0  0  0  0  0  0  0
    0.0000    0.0000    0.0000 O   0  0  0  0  0  0  0  0  0  0  0  0
    0.0000    0.0000    0.0000 C   0  0  0  0  0  0  0  0  0  0  0  0
    0.0000    0.0000    0.0000 O   0  0  0  0  0  0  0  0  0  0  0  0
    0.0000    0.0000    0.0000 C   0  0  0  0  0  0  0  0  0  0  0  0
    0.0000    0.0000    0.0000 C   0  0  0  0  0  0  0  0  0  0  0  0
    0.0000    0.0000    0.0000 C   0  0  0  0  0  0  0  0  0  0  0  0
    0.0000    0.0000    0.0000 C   0  0  0  0  0  0  0  0  0  0  0  0
    0.0000    0.0000    0.0000 C   0  0  0  0  0  0  0  0  0  0  0  0
    0.0000    0.0000    0.0000 C   0  0  0  0  0  0  0  0  0  0  0  0
    0.0000    0.0000    0.0000 C   0  0  0  0  0  0  0  0  0  0  0  0
    0.0000    0.0000    0.0000 C   0  0  0  0  0  0  0  0  0  0  0  0
    0.0000    0.0000    0.0000 C   0  0  0  0  0  0  0  0  0  0  0  0
    0.0000    0.0000    0.0000 C   0  0  0  0  0  0  0  0  0  0  0  0
    0.0000    0.0000    0.0000 C   0  0  0  0  0  0  0  0  0  0  0  0
    0.0000    0.0000    0.0000 C   0  0  0  0  0  0  0  0  0  0  0  0
    0.0000    0.0000    0.0000 C   0  0  0  0  0  0  0  0  0  0  0  0
    0.0000    0.0000    0.0000 C   0  0  0  0  0  0  0  0  0  0  0  0
    0.0000    0.0000    0.0000 F   0  0  0  0  0  0  0  0  0  0  0  0
    0.0000    0.0000    0.0000 F   0  0  0  0  0  0  0  0  0  0  0  0
    0.0000    0.0000    0.0000 F   0  0  0  0  0  0  0  0  0  0  0  0
  1  6  1  0  0  0  0
  1  2  1  0  0  0  0
  2 37  1  0  0  0  0
  2  3  2  0  0  0  0
  3  4  1  0  0  0  0
  3 34  1  0  0  0  0
  4  5  1  0  0  0  0
  4 11  1  0  0  0  0
  5 10  1  0  0  0  0
  5  6  2  0  0  0  0
  6  7  1  0  0  0  0
  7  8  2  0  0  0  0
  8  9  1  0  0  0  0
  9 10  2  0  0  0  0
 11 12  1  0  0  0  0
 12 13  1  0  0  0  0
 13 14  1  0  0  0  0
 14 19  1  0  0  0  0
 14 15  1  0  0  0  0
 15 16  1  0  0  0  0
 16 17  1  0  0  0  0
 17 18  1  0  0  0  0
 17 20  1  0  0  0  0
 18 19  1  0  0  0  0
 20 21  1  0  0  0  0
 21 22  1  0  0  0  0
 22 23  1  0  0  0  0
 23 24  2  0  0  0  0
 23 25  1  0  0  0  0
 25 26  1  0  0  0  0
 26 27  1  0  0  0  0
 27 28  1  0  0  0  0
 28 29  1  0  0  0  0
 29 30  1  0  0  0  0
 30 31  1  0  0  0  0
 31 32  1  0  0  0  0
 32 33  1  0  0  0  0
 34 35  2  0  0  0  0
 35 36  1  0  0  0  0
 35 38  1  0  0  0  0
 36 37  2  0  0  0  0
 38 39  1  0  0  0  0
 38 40  1  0  0  0  0
 38 41  1  0  0  0  0
M  END
> <Index>
1574

> <ID>
HT0913

> <class>
1

> <apol>
95.133888

> <ast_fraglike>
0

> <ast_fraglike_ext>
0

> <ast_violation>
2

> <ast_violation_ext>
3

> <a_acc>
3

> <a_acid>
0

> <a_aro>
12

> <a_base>
0

> <a_count>
85

> <a_don>
0

> <a_donacc>
3

> <a_heavy>
41

> <a_hyd>
35

> <a_IC>
133.07346

> <a_ICM>
1.5655701

> <a_nB>
0

> <a_nBr>
0

> <a_nC>
32

> <a_nCl>
0

> <a_nF>
3

> <a_nH>
44

> <a_nI>
0

> <a_nN>
3

> <a_nO>
2

> <a_nP>
0

> <a_nS>
1

> <balabanJ>
1.1080594

> <BCUT_PEOE_0>
-2.7987714

> <BCUT_PEOE_1>
-0.50582576

> <BCUT_PEOE_2>
0.55573082

> <BCUT_PEOE_3>
2.6966228

> <BCUT_SLOGP_0>
-2.9125166

> <BCUT_SLOGP_1>
-0.39691934

> <BCUT_SLOGP_2>
0.67206955

> <BCUT_SLOGP_3>
2.8102944

> <BCUT_SMR_0>
-2.5153263

> <BCUT_SMR_1>
-0.32947645

> <BCUT_SMR_2>
0.71008939

> <BCUT_SMR_3>
2.9711709

> <bpol>
62.804108

> <b_1rotN>
15

> <b_1rotR>
0.34090909

> <b_ar>
12

> <b_count>
88

> <b_double>
1

> <b_heavy>
44

> <b_max1len>
10

> <b_rotN>
17

> <b_rotR>
0.38636363

> <b_single>
75

> <b_triple>
0

> <chi0>
29.080929

> <chi0v>
25.079042

> <chi0v_C>
20.562267

> <chi0_C>
21.934664

> <chi1>
19.846687

> <chi1v>
16.025467

> <chi1v_C>
10.876044

> <chi1_C>
12.520186

> <chiral>
0

> <chiral_u>
0

> <density>
0.73788977

> <diameter>
25

> <FCharge>
0

> <GCUT_PEOE_0>
-0.85810608

> <GCUT_PEOE_1>
-0.3842847

> <GCUT_PEOE_2>
-0.027877742

> <GCUT_PEOE_3>
2.9084396

> <GCUT_SLOGP_0>
-0.96558428

> <GCUT_SLOGP_1>
-0.27808696

> <GCUT_SLOGP_2>
0.15809712

> <GCUT_SLOGP_3>
2.9729128

> <GCUT_SMR_0>
-0.53241551

> <GCUT_SMR_1>
-0.16272588

> <GCUT_SMR_2>
0.15822896

> <GCUT_SMR_3>
3.1660933

> <Kier1>
33.884296

> <Kier2>
17.477736

> <Kier3>
10.838806

> <KierA1>
29.762299

> <KierA2>
15.299891

> <KierA3>
9.4653807

> <KierFlex>
11.106339

> <lip_acc>
5

> <lip_don>
0

> <lip_druglike>
0

> <lip_violation>
2

> <logP(o/w)>
7.95576

> <logS>
-9.1669798

> <mr>
16.303129

> <mutagenic>
0

> <nmol>
1

> <opr_brigid>
22

> <opr_leadlike>
0

> <opr_nring>
4

> <opr_nrot>
17

> <opr_violation>
3

> <PC+>
0

> <PC->
0

> <PEOE_PC+>
2.7948768

> <PEOE_PC->
-2.7948768

> <PEOE_RPC+>
0.14936987

> <PEOE_RPC->
0.11231936

> <PEOE_VSA+0>
272.1044

> <PEOE_VSA+1>
55.548306

> <PEOE_VSA+2>
0.0

> <PEOE_VSA+3>
0.0

> <PEOE_VSA+4>
0.0

> <PEOE_VSA+5>
14.708499

> <PEOE_VSA+6>
9.0455017

> <PEOE_VSA-0>
78.677147

> <PEOE_VSA-1>
115.22598

> <PEOE_VSA-2>
0.0

> <PEOE_VSA-3>
35.725906

> <PEOE_VSA-4>
0.0

> <PEOE_VSA-5>
13.566921

> <PEOE_VSA-6>
2.503756

> <PEOE_VSA_FHYD>
0.93330389

> <PEOE_VSA_FNEG>
0.41148394

> <PEOE_VSA_FPNEG>
0.026914259

> <PEOE_VSA_FPOL>
0.066696115

> <PEOE_VSA_FPOS>
0.58851606

> <PEOE_VSA_FPPOS>
0.039781854

> <PEOE_VSA_HYD>
557.28174

> <PEOE_VSA_NEG>
245.69971

> <PEOE_VSA_PNEG>
16.070677

> <PEOE_VSA_POL>
39.824677

> <PEOE_VSA_POS>
351.40671

> <PEOE_VSA_PPOS>
23.754002

> <petitjean>
0.47999999

> <petitjeanSC>
0.92307693

> <Q_PC+>
0

> <Q_PC->
0

> <Q_RPC+>
0

> <Q_RPC->
0

> <Q_VSA_FHYD>
1

> <Q_VSA_FNEG>
0

> <Q_VSA_FPNEG>
0

> <Q_VSA_FPOL>
0

> <Q_VSA_FPOS>
1

> <Q_VSA_FPPOS>
0

> <Q_VSA_HYD>
597.10645

> <Q_VSA_NEG>
0

> <Q_VSA_PNEG>
0

> <Q_VSA_POL>
0

> <Q_VSA_POS>
597.10645

> <Q_VSA_PPOS>
0

> <radius>
13

> <reactive>
0

> <rings>
4

> <RPC+>
0

> <RPC->
0

> <rsynth>
1.0

> <SlogP>
8.3112001

> <SlogP_VSA0>
3.1243138

> <SlogP_VSA1>
13.994092

> <SlogP_VSA2>
34.862103

> <SlogP_VSA3>
150.00331

> <SlogP_VSA4>
3.185575

> <SlogP_VSA5>
3.1014678

> <SlogP_VSA6>
7.7595162

> <SlogP_VSA7>
123.50229

> <SlogP_VSA8>
169.81564

> <SlogP_VSA9>
115.93939

> <SMR>
16.019899

> <SMR_VSA0>
34.862103

> <SMR_VSA1>
51.128967

> <SMR_VSA2>
13.985298

> <SMR_VSA3>
3.185575

> <SMR_VSA4>
5.513495

> <SMR_VSA5>
293.31793

> <SMR_VSA6>
157.74876

> <SMR_VSA7>
65.545555

> <TPSA>
36.02

> <VAdjEq>
0.29629606

> <VAdjMa>
6.4594316

> <VDistEq>
4.429327

> <VDistMa>
10.360272

> <vdw_area>
597.10645

> <vdw_vol>
801.99371

> <vsa_acc>
13.566921

> <vsa_acid>
0

> <vsa_base>
0

> <vsa_don>
0.0

> <vsa_hyd>
535.00824

> <vsa_other>
17.212255

> <vsa_pol>
13.566921

> <Weight>
591.78296

> <weinerPath>
7694

> <weinerPol>
61

> <zagreb>
206

$$$$
Row1574
 OpenBabel06061811532D

 38 41  0  0  0  0  0  0  0  0999 V2000
    0.0000    0.0000    0.0000 S   0  0  0  0  0  0  0  0  0  0  0  0
    0.0000    0.0000    0.0000 C   0  0  0  0  0  0  0  0  0  0  0  0
    0.0000    0.0000    0.0000 C   0  0  0  0  0  0  0  0  0  0  0  0
    0.0000    0.0000    0.0000 N   0  0  0  0  0  0  0  0  0  0  0  0
    0.0000    0.0000    0.0000 C   0  0  0  0  0  0  0  0  0  0  0  0
    0.0000    0.0000    0.0000 C   0  0  0  0  0  0  0  0  0  0  0  0
    0.0000    0.0000    0.0000 C   0  0  0  0  0  0  0  0  0  0  0  0
    0.0000    0.0000    0.0000 C   0  0  0  0  0  0  0  0  0  0  0  0
    0.0000    0.0000    0.0000 C   0  0  0  0  0  0  0  0  0  0  0  0
    0.0000    0.0000    0.0000 C   0  0  0  0  0  0  0  0  0  0  0  0
    0.0000    0.0000    0.0000 C   0  0  0  0  0  0  0  0  0  0  0  0
    0.0000    0.0000    0.0000 C   0  0  0  0  0  0  0  0  0  0  0  0
    0.0000    0.0000    0.0000 C   0  0  0  0  0  0  0  0  0  0  0  0
    0.0000    0.0000    0.0000 N   0  0  0  0  0  0  0  0  0  0  0  0
    0.0000    0.0000    0.0000 C   0  0  0  0  0  0  0  0  0  0  0  0
    0.0000    0.0000    0.0000 C   0  0  0  0  0  0  0  0  0  0  0  0
    0.0000    0.0000    0.0000 N   0  0  0  0  0  0  0  0  0  0  0  0
    0.0000    0.0000    0.0000 C   0  0  0  0  0  0  0  0  0  0  0  0
    0.0000    0.0000    0.0000 C   0  0  0  0  0  0  0  0  0  0  0  0
    0.0000    0.0000    0.0000 C   0  0  0  0  0  0  0  0  0  0  0  0
    0.0000    0.0000    0.0000 C   0  0  0  0  0  0  0  0  0  0  0  0
    0.0000    0.0000    0.0000 O   0  0  0  0  0  0  0  0  0  0  0  0
    0.0000    0.0000    0.0000 C   0  0  0  0  0  0  0  0  0  0  0  0
    0.0000    0.0000    0.0000 O   0  0  0  0  0  0  0  0  0  0  0  0
    0.0000    0.0000    0.0000 C   0  0  0  0  0  0  0  0  0  0  0  0
    0.0000    0.0000    0.0000 C   0  0  0  0  0  0  0  0  0  0  0  0
    0.0000    0.0000    0.0000 C   0  0  0  0  0  0  0  0  0  0  0  0
    0.0000    0.0000    0.0000 C   0  0  0  0  0  0  0  0  0  0  0  0
    0.0000    0.0000    0.0000 C   0  0  0  0  0  0  0  0  0  0  0  0
    0.0000    0.0000    0.0000 C   0  0  0  0  0  0  0  0  0  0  0  0
    0.0000    0.0000    0.0000 C   0  0  0  0  0  0  0  0  0  0  0  0
    0.0000    0.0000    0.0000 C   0  0  0  0  0  0  0  0  0  0  0  0
    0.0000    0.0000    0.0000 C   0  0  0  0  0  0  0  0  0  0  0  0
    0.0000    0.0000    0.0000 C   0  0  0  0  0  0  0  0  0  0  0  0
    0.0000    0.0000    0.0000 C   0  0  0  0  0  0  0  0  0  0  0  0
    0.0000    0.0000    0.0000 F   0  0  0  0  0  0  0  0  0  0  0  0
    0.0000    0.0000    0.0000 F   0  0  0  0  0  0  0  0  0  0  0  0
    0.0000    0.0000    0.0000 F   0  0  0  0  0  0  0  0  0  0  0  0
  1  6  1  0  0  0  0
  1  2  1  0  0  0  0
  2 34  1  0  0  0  0
  2  3  2  0  0  0  0
  3  4  1  0  0  0  0
  3 31  1  0  0  0  0
  4  5  1  0  0  0  0
  4 11  1  0  0  0  0
  5 10  1  0  0  0  0
  5  6  2  0  0  0  0
  6  7  1  0  0  0  0
  7  8  2  0  0  0  0
  8  9  1  0  0  0  0
  9 10  2  0  0  0  0
 11 12  1  0  0  0  0
 12 13  1  0  0  0  0
 13 14  1  0  0  0  0
 14 19  1  0  0  0  0
 14 15  1  0  0  0  0
 15 16  1  0  0  0  0
 16 17  1  0  0  0  0
 17 18  1  0  0  0  0
 17 20  1  0  0  0  0
 18 19  1  0  0  0  0
 20 21  1  0  0  0  0
 21 22  1  0  0  0  0
 22 23  1  0  0  0  0
 23 24  2  0  0  0  0
 23 25  1  0  0  0  0
 25 26  1  0  0  0  0
 26 27  1  0  0  0  0
 27 28  1  0  0  0  0
 28 29  1  0  0  0  0
 29 30  1  0  0  0  0
 31 32  2  0  0  0  0
 32 33  1  0  0  0  0
 32 35  1  0  0  0  0
 33 34  2  0  0  0  0
 35 36  1  0  0  0  0
 35 37  1  0  0  0  0
 35 38  1  0  0  0  0
M  END
> <Index>
1575

> <ID>
HT0914

> <class>
1

> <apol>
85.853134

> <ast_fraglike>
0

> <ast_fraglike_ext>
0

> <ast_violation>
2

> <ast_violation_ext>
3

> <a_acc>
3

> <a_acid>
0

> <a_aro>
12

> <a_base>
0

> <a_count>
76

> <a_don>
0

> <a_donacc>
3

> <a_heavy>
38

> <a_hyd>
32

> <a_IC>
123.03002

> <a_ICM>
1.618816

> <a_nB>
0

> <a_nBr>
0

> <a_nC>
29

> <a_nCl>
0

> <a_nF>
3

> <a_nH>
38

> <a_nI>
0

> <a_nN>
3

> <a_nO>
2

> <a_nP>
0

> <a_nS>
1

> <balabanJ>
1.1667234

> <BCUT_PEOE_0>
-2.798759

> <BCUT_PEOE_1>
-0.50582576

> <BCUT_PEOE_2>
0.55573082

> <BCUT_PEOE_3>
2.6964729

> <BCUT_SLOGP_0>
-2.9125166

> <BCUT_SLOGP_1>
-0.39691934

> <BCUT_SLOGP_2>
0.67206955

> <BCUT_SLOGP_3>
2.7582979

> <BCUT_SMR_0>
-2.515281

> <BCUT_SMR_1>
-0.32947645

> <BCUT_SMR_2>
0.71008939

> <BCUT_SMR_3>
2.9711249

> <bpol>
56.244865

> <b_1rotN>
12

> <b_1rotR>
0.29268292

> <b_ar>
12

> <b_count>
79

> <b_double>
1

> <b_heavy>
41

> <b_max1len>
7

> <b_rotN>
14

> <b_rotR>
0.34146342

> <b_single>
66

> <b_triple>
0

> <chi0>
26.959608

> <chi0v>
22.957722

> <chi0v_C>
18.440947

> <chi0_C>
19.813345

> <chi1>
18.346687

> <chi1v>
14.525467

> <chi1v_C>
9.3760443

> <chi1_C>
11.020186

> <chiral>
0

> <chiral_u>
0

> <density>
0.7543534

> <diameter>
22

> <FCharge>
0

> <GCUT_PEOE_0>
-0.85810548

> <GCUT_PEOE_1>
-0.38431051

> <GCUT_PEOE_2>
-0.027877742

> <GCUT_PEOE_3>
2.8893645

> <GCUT_SLOGP_0>
-0.96558398

> <GCUT_SLOGP_1>
-0.27829644

> <GCUT_SLOGP_2>
0.1580974

> <GCUT_SLOGP_3>
2.9528687

> <GCUT_SMR_0>
-0.53203195

> <GCUT_SMR_1>
-0.16272591

> <GCUT_SMR_2>
0.15822898

> <GCUT_SMR_3>
3.1509027

> <Kier1>
30.947056

> <Kier2>
15.290816

> <Kier3>
9.257143

> <KierA1>
26.893768

> <KierA2>
13.235593

> <KierA3>
7.9907608

> <KierFlex>
9.3672361

> <lip_acc>
5

> <lip_don>
0

> <lip_druglike>
0

> <lip_violation>
2

> <logP(o/w)>
6.6297598

> <logS>
-7.6213198

> <mr>
14.89775

> <mutagenic>
0

> <nmol>
1

> <opr_brigid>
22

> <opr_leadlike>
0

> <opr_nring>
4

> <opr_nrot>
14

> <opr_violation>
3

> <PC+>
0

> <PC->
0

> <PEOE_PC+>
2.6357059

> <PEOE_PC->
-2.6357059

> <PEOE_RPC+>
0.15839034

> <PEOE_RPC->
0.11910234

> <PEOE_VSA+0>
246.51208

> <PEOE_VSA+1>
55.548306

> <PEOE_VSA+2>
0.0

> <PEOE_VSA+3>
0.0

> <PEOE_VSA+4>
0.0

> <PEOE_VSA+5>
14.708499

> <PEOE_VSA+6>
9.0455017

> <PEOE_VSA-0>
78.677147

> <PEOE_VSA-1>
89.12204

> <PEOE_VSA-2>
0.0

> <PEOE_VSA-3>
35.725906

> <PEOE_VSA-4>
0.0

> <PEOE_VSA-5>
13.566921

> <PEOE_VSA-6>
2.503756

> <PEOE_VSA_FHYD>
0.92698216

> <PEOE_VSA_FNEG>
0.40262499

> <PEOE_VSA_FPNEG>
0.029465305

> <PEOE_VSA_FPOL>
0.073017851

> <PEOE_VSA_FPOS>
0.59737498

> <PEOE_VSA_FPPOS>
0.043552544

> <PEOE_VSA_HYD>
505.58548

> <PEOE_VSA_NEG>
219.59578

> <PEOE_VSA_PNEG>
16.070677

> <PEOE_VSA_POL>
39.824677

> <PEOE_VSA_POS>
325.81439

> <PEOE_VSA_PPOS>
23.754002

> <petitjean>
0.5

> <petitjeanSC>
1.0

> <Q_PC+>
0

> <Q_PC->
0

> <Q_RPC+>
0

> <Q_RPC->
0

> <Q_VSA_FHYD>
1

> <Q_VSA_FNEG>
0

> <Q_VSA_FPNEG>
0

> <Q_VSA_FPOL>
0

> <Q_VSA_FPOS>
1

> <Q_VSA_FPPOS>
0

> <Q_VSA_HYD>
545.41016

> <Q_VSA_NEG>
0

> <Q_VSA_PNEG>
0

> <Q_VSA_POL>
0

> <Q_VSA_POS>
545.41016

> <Q_VSA_PPOS>
0

> <radius>
11

> <reactive>
0

> <rings>
4

> <RPC+>
0

> <RPC->
0

> <rsynth>
1.0

> <SlogP>
7.1409001

> <SlogP_VSA0>
3.1243138

> <SlogP_VSA1>
13.994092

> <SlogP_VSA2>
34.862103

> <SlogP_VSA3>
150.00331

> <SlogP_VSA4>
3.185575

> <SlogP_VSA5>
3.1014678

> <SlogP_VSA6>
7.7595162

> <SlogP_VSA7>
123.50229

> <SlogP_VSA8>
113.21043

> <SlogP_VSA9>
115.93939

> <SMR>
14.6348

> <SMR_VSA0>
34.862103

> <SMR_VSA1>
51.128967

> <SMR_VSA2>
13.985298

> <SMR_VSA3>
3.185575

> <SMR_VSA4>
5.513495

> <SMR_VSA5>
236.71272

> <SMR_VSA6>
157.74876

> <SMR_VSA7>
65.545555

> <TPSA>
36.02

> <VAdjEq>
0.31455502

> <VAdjMa>
6.3575521

> <VDistEq>
4.245223

> <VDistMa>
10.153223

> <vdw_area>
545.41016

> <vdw_vol>
728.70618

> <vsa_acc>
13.566921

> <vsa_acid>
0

> <vsa_base>
0

> <vsa_don>
0.0

> <vsa_hyd>
487.58276

> <vsa_other>
17.212255

> <vsa_pol>
13.566921

> <Weight>
549.70197

> <weinerPath>
5890

> <weinerPol>
58

> <zagreb>
194

$$$$
Row1575
 OpenBabel06061811532D

 30 33  0  0  0  0  0  0  0  0999 V2000
    0.0000    0.0000    0.0000 S   0  0  0  0  0  0  0  0  0  0  0  0
    0.0000    0.0000    0.0000 C   0  0  0  0  0  0  0  0  0  0  0  0
    0.0000    0.0000    0.0000 C   0  0  0  0  0  0  0  0  0  0  0  0
    0.0000    0.0000    0.0000 N   0  0  0  0  0  0  0  0  0  0  0  0
    0.0000    0.0000    0.0000 C   0  0  0  0  0  0  0  0  0  0  0  0
    0.0000    0.0000    0.0000 C   0  0  0  0  0  0  0  0  0  0  0  0
    0.0000    0.0000    0.0000 C   0  0  0  0  0  0  0  0  0  0  0  0
    0.0000    0.0000    0.0000 C   0  0  0  0  0  0  0  0  0  0  0  0
    0.0000    0.0000    0.0000 C   0  0  0  0  0  0  0  0  0  0  0  0
    0.0000    0.0000    0.0000 C   0  0  0  0  0  0  0  0  0  0  0  0
    0.0000    0.0000    0.0000 C   0  0  0  0  0  0  0  0  0  0  0  0
    0.0000    0.0000    0.0000 C   0  0  0  0  0  0  0  0  0  0  0  0
    0.0000    0.0000    0.0000 C   0  0  0  0  0  0  0  0  0  0  0  0
    0.0000    0.0000    0.0000 N   0  0  0  0  0  0  0  0  0  0  0  0
    0.0000    0.0000    0.0000 C   0  0  0  0  0  0  0  0  0  0  0  0
    0.0000    0.0000    0.0000 C   0  0  0  0  0  0  0  0  0  0  0  0
    0.0000    0.0000    0.0000 N   0  0  0  0  0  0  0  0  0  0  0  0
    0.0000    0.0000    0.0000 C   0  0  0  0  0  0  0  0  0  0  0  0
    0.0000    0.0000    0.0000 C   0  0  0  0  0  0  0  0  0  0  0  0
    0.0000    0.0000    0.0000 C   0  0  0  0  0  0  0  0  0  0  0  0
    0.0000    0.0000    0.0000 C   0  0  0  0  0  0  0  0  0  0  0  0
    0.0000    0.0000    0.0000 O   0  0  0  0  0  0  0  0  0  0  0  0
    0.0000    0.0000    0.0000 C   0  0  0  0  0  0  0  0  0  0  0  0
    0.0000    0.0000    0.0000 C   0  0  0  0  0  0  0  0  0  0  0  0
    0.0000    0.0000    0.0000 C   0  0  0  0  0  0  0  0  0  0  0  0
    0.0000    0.0000    0.0000 C   0  0  0  0  0  0  0  0  0  0  0  0
    0.0000    0.0000    0.0000 C   0  0  0  0  0  0  0  0  0  0  0  0
    0.0000    0.0000    0.0000 F   0  0  0  0  0  0  0  0  0  0  0  0
    0.0000    0.0000    0.0000 F   0  0  0  0  0  0  0  0  0  0  0  0
    0.0000    0.0000    0.0000 F   0  0  0  0  0  0  0  0  0  0  0  0
  1  6  1  0  0  0  0
  1  2  1  0  0  0  0
  2 26  1  0  0  0  0
  2  3  2  0  0  0  0
  3  4  1  0  0  0  0
  3 23  1  0  0  0  0
  4  5  1  0  0  0  0
  4 11  1  0  0  0  0
  5 10  1  0  0  0  0
  5  6  2  0  0  0  0
  6  7  1  0  0  0  0
  7  8  2  0  0  0  0
  8  9  1  0  0  0  0
  9 10  2  0  0  0  0
 11 12  1  0  0  0  0
 12 13  1  0  0  0  0
 13 14  1  0  0  0  0
 14 19  1  0  0  0  0
 14 15  1  0  0  0  0
 15 16  1  0  0  0  0
 16 17  1  0  0  0  0
 17 18  1  0  0  0  0
 17 20  1  0  0  0  0
 18 19  1  0  0  0  0
 20 21  1  0  0  0  0
 21 22  1  0  0  0  0
 23 24  2  0  0  0  0
 24 25  1  0  0  0  0
 24 27  1  0  0  0  0
 25 26  2  0  0  0  0
 27 28  1  0  0  0  0
 27 29  1  0  0  0  0
 27 30  1  0  0  0  0
M  END
> <Index>
1576

> <ID>
HT0915

> <class>
1

> <apol>
64.729614

> <ast_fraglike>
0

> <ast_fraglike_ext>
0

> <ast_violation>
2

> <ast_violation_ext>
3

> <a_acc>
3

> <a_acid>
0

> <a_aro>
12

> <a_base>
0

> <a_count>
56

> <a_don>
1

> <a_donacc>
4

> <a_heavy>
30

> <a_hyd>
26

> <a_IC>
95.383171

> <a_ICM>
1.7032709

> <a_nB>
0

> <a_nBr>
0

> <a_nC>
22

> <a_nCl>
0

> <a_nF>
3

> <a_nH>
26

> <a_nI>
0

> <a_nN>
3

> <a_nO>
1

> <a_nP>
0

> <a_nS>
1

> <balabanJ>
1.346352

> <BCUT_PEOE_0>
-2.7987814

> <BCUT_PEOE_1>
-0.61303371

> <BCUT_PEOE_2>
0.64472109

> <BCUT_PEOE_3>
2.6942267

> <BCUT_SLOGP_0>
-2.9128623

> <BCUT_SLOGP_1>
-0.47438219

> <BCUT_SLOGP_2>
0.65632415

> <BCUT_SLOGP_3>
2.6303654

> <BCUT_SMR_0>
-2.5147822

> <BCUT_SMR_1>
-0.41328284

> <BCUT_SMR_2>
0.81235033

> <BCUT_SMR_3>
2.9698191

> <bpol>
40.25238

> <b_1rotN>
6

> <b_1rotR>
0.18181819

> <b_ar>
12

> <b_count>
59

> <b_double>
0

> <b_heavy>
33

> <b_max1len>
4

> <b_rotN>
7

> <b_rotR>
0.21212122

> <b_single>
47

> <b_triple>
0

> <chi0>
21.139618

> <chi0v>
17.552906

> <chi0v_C>
13.405413

> <chi0_C>
14.700459

> <chi1>
14.45284

> <chi1v>
11.084111

> <chi1v_C>
6.3153839

> <chi1_C>
7.9048314

> <chiral>
0

> <chiral_u>
0

> <density>
0.78921837

> <diameter>
15

> <FCharge>
0

> <GCUT_PEOE_0>
-0.85830778

> <GCUT_PEOE_1>
-0.38560665

> <GCUT_PEOE_2>
0.03256692

> <GCUT_PEOE_3>
2.82845

> <GCUT_SLOGP_0>
-0.96576941

> <GCUT_SLOGP_1>
-0.29981193

> <GCUT_SLOGP_2>
0.22244243

> <GCUT_SLOGP_3>
2.9057357

> <GCUT_SMR_0>
-0.52268744

> <GCUT_SMR_1>
-0.17800076

> <GCUT_SMR_2>
0.18710527

> <GCUT_SMR_3>
3.100153

> <Kier1>
23.168043

> <Kier2>
10.29244

> <Kier3>
5.6887932

> <KierA1>
19.991915

> <KierA2>
8.8341236

> <KierA3>
4.8643236

> <KierFlex>
5.8870349

> <lip_acc>
4

> <lip_don>
1

> <lip_druglike>
1

> <lip_violation>
0

> <logP(o/w)>
3.79776

> <logS>
-4.7406001

> <mr>
11.472607

> <mutagenic>
0

> <nmol>
1

> <opr_brigid>
22

> <opr_leadlike>
1

> <opr_nring>
4

> <opr_nrot>
8

> <opr_violation>
1

> <PC+>
0

> <PC->
0

> <PEOE_PC+>
2.1794446

> <PEOE_PC->
-2.1794446

> <PEOE_RPC+>
0.19154897

> <PEOE_RPC->
0.18066399

> <PEOE_VSA+0>
182.36075

> <PEOE_VSA+1>
55.548306

> <PEOE_VSA+2>
0.0

> <PEOE_VSA+3>
0.0

> <PEOE_VSA+4>
10.324173

> <PEOE_VSA+5>
0.0

> <PEOE_VSA+6>
9.0455017

> <PEOE_VSA-0>
69.97583

> <PEOE_VSA-1>
44.270424

> <PEOE_VSA-2>
0.0

> <PEOE_VSA-3>
35.725906

> <PEOE_VSA-4>
0.0

> <PEOE_VSA-5>
0.0

> <PEOE_VSA-6>
7.7675405

> <PEOE_VSA_FHYD>
0.93461204

> <PEOE_VSA_FNEG>
0.38007879

> <PEOE_VSA_FPNEG>
0.018716132

> <PEOE_VSA_FPOL>
0.065387972

> <PEOE_VSA_FPOS>
0.61992121

> <PEOE_VSA_FPPOS>
0.046671841

> <PEOE_VSA_HYD>
387.88123

> <PEOE_VSA_NEG>
157.7397

> <PEOE_VSA_PNEG>
7.7675405

> <PEOE_VSA_POL>
27.137215

> <PEOE_VSA_POS>
257.27875

> <PEOE_VSA_PPOS>
19.369675

> <petitjean>
0.46666667

> <petitjeanSC>
0.875

> <Q_PC+>
0

> <Q_PC->
0

> <Q_RPC+>
0

> <Q_RPC->
0

> <Q_VSA_FHYD>
1

> <Q_VSA_FNEG>
0

> <Q_VSA_FPNEG>
0

> <Q_VSA_FPOL>
0

> <Q_VSA_FPOS>
1

> <Q_VSA_FPPOS>
0

> <Q_VSA_HYD>
415.01843

> <Q_VSA_NEG>
0

> <Q_VSA_PNEG>
0

> <Q_VSA_POL>
0

> <Q_VSA_POS>
415.01843

> <Q_VSA_PPOS>
0

> <radius>
8

> <reactive>
0

> <rings>
4

> <RPC+>
0

> <RPC->
0

> <rsynth>
1.0

> <SlogP>
4.6195998

> <SlogP_VSA0>
28.509541

> <SlogP_VSA1>
6.2486277

> <SlogP_VSA2>
0.0

> <SlogP_VSA3>
150.00331

> <SlogP_VSA4>
3.185575

> <SlogP_VSA5>
3.1014678

> <SlogP_VSA6>
7.7595162

> <SlogP_VSA7>
123.50229

> <SlogP_VSA8>
18.868406

> <SlogP_VSA9>
82.613373

> <SMR>
11.37158

> <SMR_VSA0>
0.0

> <SMR_VSA1>
76.514191

> <SMR_VSA2>
13.985298

> <SMR_VSA3>
3.185575

> <SMR_VSA4>
5.513495

> <SMR_VSA5>
142.3707

> <SMR_VSA6>
150.00331

> <SMR_VSA7>
32.21954

> <TPSA>
29.950001

> <VAdjEq>
0.37824166

> <VAdjMa>
6.044394

> <VDistEq>
3.6887107

> <VDistMa>
9.5141916

> <vdw_area>
415.01843

> <vdw_vol>
554.38397

> <vsa_acc>
0.0

> <vsa_acid>
0

> <vsa_base>
0

> <vsa_don>
0.0

> <vsa_hyd>
379.13184

> <vsa_other>
0.0

> <vsa_pol>
13.566921

> <Weight>
437.53

> <weinerPath>
2618

> <weinerPol>
49

> <zagreb>
160

$$$$
Row1576
 OpenBabel06061811532D

 18 19  0  0  1  0  0  0  0  0999 V2000
    0.0000    0.0000    0.0000 F   0  0  0  0  0  0  0  0  0  0  0  0
    0.0000    0.0000    0.0000 C   0  0  0  0  0  0  0  0  0  0  0  0
    0.0000    0.0000    0.0000 C   0  0  0  0  0  0  0  0  0  0  0  0
    0.0000    0.0000    0.0000 C   0  0  0  0  0  0  0  0  0  0  0  0
    0.0000    0.0000    0.0000 C   0  0  0  0  0  0  0  0  0  0  0  0
    0.0000    0.0000    0.0000 C   0  0  0  0  0  0  0  0  0  0  0  0
    0.0000    0.0000    0.0000 C   0  0  0  0  0  0  0  0  0  0  0  0
    0.0000    0.0000    0.0000 C   0  0  0  0  0  0  0  0  0  0  0  0
    0.0000    0.0000    0.0000 C   0  0  0  0  0  0  0  0  0  0  0  0
    0.0000    0.0000    0.0000 C   0  0  0  0  0  0  0  0  0  0  0  0
    0.0000    0.0000    0.0000 C   0  0  0  0  0  0  0  0  0  0  0  0
    0.0000    0.0000    0.0000 C   0  0  0  0  0  0  0  0  0  0  0  0
    0.0000    0.0000    0.0000 C   0  0  0  0  0  0  0  0  0  0  0  0
    0.0000    0.0000    0.0000 C   0  0  3  0  0  0  0  0  0  0  0  0
    0.0000    0.0000    0.0000 C   0  0  0  0  0  0  0  0  0  0  0  0
    0.0000    0.0000    0.0000 O   0  0  0  0  0  0  0  0  0  0  0  0
    0.0000    0.0000    0.0000 O   0  0  0  0  0  0  0  0  0  0  0  0
    0.0000    0.0000    0.0000 C   0  0  0  0  0  0  0  0  0  0  0  0
  1  2  1  0  0  0  0
  2  7  1  0  0  0  0
  2  3  2  0  0  0  0
  3  4  1  0  0  0  0
  4  5  2  0  0  0  0
  4 14  1  0  0  0  0
  5  6  1  0  0  0  0
  6  7  2  0  0  0  0
  7  8  1  0  0  0  0
  8 13  1  0  0  0  0
  8  9  2  0  0  0  0
  9 10  1  0  0  0  0
 10 11  2  0  0  0  0
 11 12  1  0  0  0  0
 12 13  2  0  0  0  0
 14 15  1  0  0  0  0
 14 18  1  0  0  0  0
 15 16  1  0  0  0  0
 15 17  2  0  0  0  0
M  END
> <Index>
1577

> <ID>
HT0920

> <class>
1

> <apol>
37.229309

> <ast_fraglike>
0

> <ast_fraglike_ext>
0

> <ast_violation>
1

> <ast_violation_ext>
1

> <a_acc>
2

> <a_acid>
0

> <a_aro>
12

> <a_base>
0

> <a_count>
31

> <a_don>
2

> <a_donacc>
4

> <a_heavy>
18

> <a_hyd>
15

> <a_IC>
44.87101

> <a_ICM>
1.4474519

> <a_nB>
0

> <a_nBr>
0

> <a_nC>
15

> <a_nCl>
0

> <a_nF>
1

> <a_nH>
13

> <a_nI>
0

> <a_nN>
0

> <a_nO>
2

> <a_nP>
0

> <a_nS>
0

> <balabanJ>
1.8861228

> <BCUT_PEOE_0>
-2.422215

> <BCUT_PEOE_1>
-0.64845896

> <BCUT_PEOE_2>
0.67949885

> <BCUT_PEOE_3>
2.4733539

> <BCUT_SLOGP_0>
-2.3822246

> <BCUT_SLOGP_1>
-0.51096642

> <BCUT_SLOGP_2>
0.80591482

> <BCUT_SLOGP_3>
2.5411935

> <BCUT_SMR_0>
-2.181901

> <BCUT_SMR_1>
-0.49955955

> <BCUT_SMR_2>
0.85429859

> <BCUT_SMR_3>
2.7194417

> <bpol>
16.37269

> <b_1rotN>
3

> <b_1rotR>
0.15789473

> <b_ar>
12

> <b_count>
32

> <b_double>
1

> <b_heavy>
19

> <b_max1len>
3

> <b_rotN>
3

> <b_rotR>
0.15789473

> <b_single>
19

> <b_triple>
0

> <chi0>
13.120955

> <chi0v>
9.9295788

> <chi0v_C>
8.6961527

> <chi0_C>
10.120955

> <chi1>
8.5922241

> <chi1v>
5.6701312

> <chi1v_C>
5.0534182

> <chi1_C>
6.8601732

> <chiral>
1

> <chiral_u>
1

> <density>
0.74025387

> <diameter>
10

> <FCharge>
0

> <GCUT_PEOE_0>
-0.75300914

> <GCUT_PEOE_1>
-0.44075978

> <GCUT_PEOE_2>
0.061781995

> <GCUT_PEOE_3>
2.401603

> <GCUT_SLOGP_0>
-0.87404341

> <GCUT_SLOGP_1>
-0.26386139

> <GCUT_SLOGP_2>
0.16445385

> <GCUT_SLOGP_3>
2.538826

> <GCUT_SMR_0>
-0.5006094

> <GCUT_SMR_1>
-0.21605732

> <GCUT_SMR_2>
0.19305076

> <GCUT_SMR_3>
2.6880991

> <Kier1>
14.409972

> <Kier2>
6.43787

> <Kier3>
3.5261707

> <KierA1>
10.131671

> <KierA2>
4.4235039

> <KierA3>
2.3817534

> <KierFlex>
2.4898601

> <lip_acc>
2

> <lip_don>
1

> <lip_druglike>
1

> <lip_violation>
0

> <logP(o/w)>
4.1890001

> <logS>
-4.3388801

> <mr>
6.923377

> <mutagenic>
0

> <nmol>
1

> <opr_brigid>
12

> <opr_leadlike>
1

> <opr_nring>
2

> <opr_nrot>
3

> <opr_violation>
0

> <PC+>
0

> <PC->
0

> <PEOE_PC+>
1.3188852

> <PEOE_PC->
-1.3188852

> <PEOE_RPC+>
0.20228943

> <PEOE_RPC->
0.2508325

> <PEOE_VSA+0>
19.270084

> <PEOE_VSA+1>
34.123089

> <PEOE_VSA+2>
9.0208454

> <PEOE_VSA+3>
0.0

> <PEOE_VSA+4>
10.324173

> <PEOE_VSA+5>
14.708499

> <PEOE_VSA+6>
0.0

> <PEOE_VSA-0>
35.419662

> <PEOE_VSA-1>
85.784325

> <PEOE_VSA-2>
0.0

> <PEOE_VSA-3>
0.0

> <PEOE_VSA-4>
11.908636

> <PEOE_VSA-5>
13.566921

> <PEOE_VSA-6>
7.7675405

> <PEOE_VSA_FHYD>
0.7590853

> <PEOE_VSA_FNEG>
0.63849133

> <PEOE_VSA_FPNEG>
0.13742849

> <PEOE_VSA_FPOL>
0.24091472

> <PEOE_VSA_FPOS>
0.36150864

> <PEOE_VSA_FPPOS>
0.10348622

> <PEOE_VSA_HYD>
183.61801

> <PEOE_VSA_NEG>
154.44708

> <PEOE_VSA_PNEG>
33.243095

> <PEOE_VSA_POL>
58.275768

> <PEOE_VSA_POS>
87.446686

> <PEOE_VSA_PPOS>
25.032671

> <petitjean>
0.5

> <petitjeanSC>
1.0

> <Q_PC+>
0

> <Q_PC->
0

> <Q_RPC+>
0

> <Q_RPC->
0

> <Q_VSA_FHYD>
1

> <Q_VSA_FNEG>
0

> <Q_VSA_FPNEG>
0

> <Q_VSA_FPOL>
0

> <Q_VSA_FPOS>
1

> <Q_VSA_FPPOS>
0

> <Q_VSA_HYD>
241.89377

> <Q_VSA_NEG>
0

> <Q_VSA_PNEG>
0

> <Q_VSA_POL>
0

> <Q_VSA_POS>
241.89377

> <Q_VSA_PPOS>
0

> <radius>
5

> <reactive>
0

> <rings>
2

> <RPC+>
0

> <RPC->
0

> <rsynth>
1.0

> <SlogP>
3.6808

> <SlogP_VSA0>
0.0

> <SlogP_VSA1>
7.7454643

> <SlogP_VSA2>
32.983234

> <SlogP_VSA3>
25.385227

> <SlogP_VSA4>
3.185575

> <SlogP_VSA5>
0.0

> <SlogP_VSA6>
4.4107962

> <SlogP_VSA7>
147.51663

> <SlogP_VSA8>
0.0

> <SlogP_VSA9>
48.286129

> <SMR>
6.7886801

> <SMR_VSA0>
23.862217

> <SMR_VSA1>
14.960114

> <SMR_VSA2>
34.506245

> <SMR_VSA3>
7.5963712

> <SMR_VSA4>
6.37115

> <SMR_VSA5>
141.14548

> <SMR_VSA6>
7.7454643

> <SMR_VSA7>
33.326015

> <TPSA>
37.299999

> <VAdjEq>
0.52150291

> <VAdjMa>
5.2479277

> <VDistEq>
3.0826774

> <VDistMa>
8.026329

> <vdw_area>
241.89377

> <vdw_vol>
329.97464

> <vsa_acc>
0.0

> <vsa_acid>
0

> <vsa_base>
0

> <vsa_don>
0.0

> <vsa_hyd>
185.64005

> <vsa_other>
14.708499

> <vsa_pol>
27.133842

> <Weight>
244.265

> <weinerPath>
626

> <weinerPol>
27

> <zagreb>
90

$$$$
Row1577
 OpenBabel06061811532D

 19 19  0  0  0  0  0  0  0  0999 V2000
    0.0000    0.0000    0.0000 F   0  0  0  0  0  0  0  0  0  0  0  0
    0.0000    0.0000    0.0000 C   0  0  0  0  0  0  0  0  0  0  0  0
    0.0000    0.0000    0.0000 F   0  0  0  0  0  0  0  0  0  0  0  0
    0.0000    0.0000    0.0000 F   0  0  0  0  0  0  0  0  0  0  0  0
    0.0000    0.0000    0.0000 C   0  0  0  0  0  0  0  0  0  0  0  0
    0.0000    0.0000    0.0000 C   0  0  0  0  0  0  0  0  0  0  0  0
    0.0000    0.0000    0.0000 C   0  0  0  0  0  0  0  0  0  0  0  0
    0.0000    0.0000    0.0000 N   0  0  0  0  0  0  0  0  0  0  0  0
    0.0000    0.0000    0.0000 C   0  0  0  0  0  0  0  0  0  0  0  0
    0.0000    0.0000    0.0000 O   0  0  0  0  0  0  0  0  0  0  0  0
    0.0000    0.0000    0.0000 C   0  0  0  0  0  0  0  0  0  0  0  0
    0.0000    0.0000    0.0000 C   0  0  0  0  0  0  0  0  0  0  0  0
    0.0000    0.0000    0.0000 C   0  0  0  0  0  0  0  0  0  0  0  0
    0.0000    0.0000    0.0000 C   0  0  0  0  0  0  0  0  0  0  0  0
    0.0000    0.0000    0.0000 C   0  0  0  0  0  0  0  0  0  0  0  0
    0.0000    0.0000    0.0000 C   0  0  0  0  0  0  0  0  0  0  0  0
    0.0000    0.0000    0.0000 N   0  3  0  0  0  0  0  0  0  0  0  0
    0.0000    0.0000    0.0000 O   0  0  0  0  0  0  0  0  0  0  0  0
    0.0000    0.0000    0.0000 O   0  5  0  0  0  0  0  0  0  0  0  0
  1  2  1  0  0  0  0
  2  3  1  0  0  0  0
  2  4  1  0  0  0  0
  2  5  1  0  0  0  0
  5 16  1  0  0  0  0
  5  6  2  0  0  0  0
  6  7  1  0  0  0  0
  7  8  1  0  0  0  0
  7 14  2  0  0  0  0
  8  9  1  0  0  0  0
  9 10  2  0  0  0  0
  9 11  1  0  0  0  0
 11 12  1  0  0  0  0
 11 13  1  0  0  0  0
 14 15  1  0  0  0  0
 15 16  2  0  0  0  0
 16 17  1  0  0  0  0
 17 18  2  0  0  0  0
 17 19  1  0  0  0  0
M  CHG  2  17   1  19  -1
M  END
> <Index>
1578

> <ID>
HT0922

> <class>
1

> <apol>
32.971722

> <ast_fraglike>
0

> <ast_fraglike_ext>
0

> <ast_violation>
1

> <ast_violation_ext>
1

> <a_acc>
1

> <a_acid>
0

> <a_aro>
6

> <a_base>
0

> <a_count>
30

> <a_don>
1

> <a_donacc>
2

> <a_heavy>
19

> <a_hyd>
14

> <a_IC>
59.589447

> <a_ICM>
1.9863149

> <a_nB>
0

> <a_nBr>
0

> <a_nC>
11

> <a_nCl>
0

> <a_nF>
3

> <a_nH>
11

> <a_nI>
0

> <a_nN>
2

> <a_nO>
3

> <a_nP>
0

> <a_nS>
0

> <balabanJ>
2.7010489

> <BCUT_PEOE_0>
-2.5122862

> <BCUT_PEOE_1>
-0.3638106

> <BCUT_PEOE_2>
0.38841543

> <BCUT_PEOE_3>
2.5259264

> <BCUT_SLOGP_0>
-2.5209591

> <BCUT_SLOGP_1>
-0.25236604

> <BCUT_SLOGP_2>
0.45770839

> <BCUT_SLOGP_3>
2.5675063

> <BCUT_SMR_0>
-2.2743597

> <BCUT_SMR_1>
-0.16820414

> <BCUT_SMR_2>
0.55819654

> <BCUT_SMR_3>
2.7721379

> <bpol>
18.508278

> <b_1rotN>
3

> <b_1rotR>
0.15789473

> <b_ar>
6

> <b_count>
30

> <b_double>
2

> <b_heavy>
19

> <b_max1len>
4

> <b_rotN>
5

> <b_rotR>
0.2631579

> <b_single>
22

> <b_triple>
0

> <chi0>
14.792529

> <chi0v>
10.115252

> <chi0v_C>
6.809401

> <chi0_C>
7.5080719

> <chi1>
8.6249161

> <chi1v>
5.2912354

> <chi1v_C>
3.4314096

> <chi1_C>
4.2430353

> <chiral>
0

> <chiral_u>
0

> <density>
0.91518998

> <diameter>
9

> <FCharge>
0

> <GCUT_PEOE_0>
-0.81318027

> <GCUT_PEOE_1>
-0.4171949

> <GCUT_PEOE_2>
0.0018644637

> <GCUT_PEOE_3>
2.3895471

> <GCUT_SLOGP_0>
-1.0000378

> <GCUT_SLOGP_1>
-0.20426667

> <GCUT_SLOGP_2>
0.23703803

> <GCUT_SLOGP_3>
2.4795344

> <GCUT_SMR_0>
-0.51935726

> <GCUT_SMR_1>
-0.15201841

> <GCUT_SMR_2>
0.15300751

> <GCUT_SMR_3>
2.6249335

> <Kier1>
17.052631

> <Kier2>
6.6352043

> <Kier3>
4.7950053

> <KierA1>
12.580356

> <KierA2>
4.8050504

> <KierA3>
3.4222739

> <KierFlex>
3.1815393

> <lip_acc>
5

> <lip_don>
1

> <lip_druglike>
1

> <lip_violation>
0

> <logP(o/w)>
2.9467599

> <logS>
-3.84465

> <mr>
6.1051521

> <mutagenic>
0

> <nmol>
1

> <opr_brigid>
6

> <opr_leadlike>
1

> <opr_nring>
1

> <opr_nrot>
3

> <opr_violation>
0

> <PC+>
0

> <PC->
0

> <PEOE_PC+>
1.7723529

> <PEOE_PC->
-1.7723529

> <PEOE_RPC+>
0.23906347

> <PEOE_RPC->
0.18388481

> <PEOE_VSA+0>
48.812157

> <PEOE_VSA+1>
16.824192

> <PEOE_VSA+2>
2.2085397

> <PEOE_VSA+3>
8.6190128

> <PEOE_VSA+4>
12.949531

> <PEOE_VSA+5>
6.6995511

> <PEOE_VSA+6>
9.0455017

> <PEOE_VSA-0>
24.509808

> <PEOE_VSA-1>
37.495354

> <PEOE_VSA-2>
0.0

> <PEOE_VSA-3>
35.725906

> <PEOE_VSA-4>
0.0

> <PEOE_VSA-5>
47.497971

> <PEOE_VSA-6>
0.13689101

> <PEOE_VSA_FHYD>
0.69532132

> <PEOE_VSA_FNEG>
0.58024657

> <PEOE_VSA_FPNEG>
0.19014059

> <PEOE_VSA_FPOL>
0.30467865

> <PEOE_VSA_FPOS>
0.41975343

> <PEOE_VSA_FPPOS>
0.11453807

> <PEOE_VSA_HYD>
174.19498

> <PEOE_VSA_NEG>
145.36594

> <PEOE_VSA_PNEG>
47.634861

> <PEOE_VSA_POL>
76.329445

> <PEOE_VSA_POS>
105.15849

> <PEOE_VSA_PPOS>
28.694584

> <petitjean>
0.44444445

> <petitjeanSC>
0.80000001

> <Q_PC+>
0

> <Q_PC->
0

> <Q_RPC+>
0

> <Q_RPC->
0

> <Q_VSA_FHYD>
1

> <Q_VSA_FNEG>
0

> <Q_VSA_FPNEG>
0

> <Q_VSA_FPOL>
0

> <Q_VSA_FPOS>
1

> <Q_VSA_FPPOS>
0

> <Q_VSA_HYD>
250.52441

> <Q_VSA_NEG>
0

> <Q_VSA_PNEG>
0

> <Q_VSA_POL>
0

> <Q_VSA_POS>
250.52441

> <Q_VSA_PPOS>
0

> <radius>
5

> <reactive>
0

> <rings>
1

> <RPC+>
0

> <RPC->
0

> <rsynth>
1.0

> <SlogP>
3.5195999

> <SlogP_VSA0>
0.0

> <SlogP_VSA1>
30.35515

> <SlogP_VSA2>
23.862217

> <SlogP_VSA3>
50.935009

> <SlogP_VSA4>
7.5963712

> <SlogP_VSA5>
0.0

> <SlogP_VSA6>
7.7595162

> <SlogP_VSA7>
52.929554

> <SlogP_VSA8>
0.0

> <SlogP_VSA9>
117.04587

> <SMR>
6.1683102

> <SMR_VSA0>
30.947832

> <SMR_VSA1>
44.880341

> <SMR_VSA2>
63.10532

> <SMR_VSA3>
3.185575

> <SMR_VSA4>
23.524246

> <SMR_VSA5>
52.929554

> <SMR_VSA6>
5.2587838

> <SMR_VSA7>
66.652031

> <TPSA>
74.919998

> <VAdjEq>
0.48546076

> <VAdjMa>
5.2479277

> <VDistEq>
3.0200377

> <VDistMa>
8.21175

> <vdw_area>
250.52441

> <vdw_vol>
301.81055

> <vsa_acc>
13.566921

> <vsa_acid>
0

> <vsa_base>
0

> <vsa_don>
5.6825762

> <vsa_hyd>
172.858

> <vsa_other>
46.880581

> <vsa_pol>
19.249496

> <Weight>
276.21399

> <weinerPath>
706

> <weinerPol>
28

> <zagreb>
94

$$$$
Row1578
 OpenBabel06061811532D

 32 34  0  0  1  0  0  0  0  0999 V2000
    0.0000    0.0000    0.0000 F   0  0  0  0  0  0  0  0  0  0  0  0
    0.0000    0.0000    0.0000 C   0  0  0  0  0  0  0  0  0  0  0  0
    0.0000    0.0000    0.0000 C   0  0  0  0  0  0  0  0  0  0  0  0
    0.0000    0.0000    0.0000 C   0  0  0  0  0  0  0  0  0  0  0  0
    0.0000    0.0000    0.0000 C   0  0  0  0  0  0  0  0  0  0  0  0
    0.0000    0.0000    0.0000 C   0  0  0  0  0  0  0  0  0  0  0  0
    0.0000    0.0000    0.0000 C   0  0  0  0  0  0  0  0  0  0  0  0
    0.0000    0.0000    0.0000 C   0  0  0  0  0  0  0  0  0  0  0  0
    0.0000    0.0000    0.0000 C   0  0  0  0  0  0  0  0  0  0  0  0
    0.0000    0.0000    0.0000 C   0  0  0  0  0  0  0  0  0  0  0  0
    0.0000    0.0000    0.0000 N   0  0  0  0  0  0  0  0  0  0  0  0
    0.0000    0.0000    0.0000 C   0  0  0  0  0  0  0  0  0  0  0  0
    0.0000    0.0000    0.0000 C   0  0  0  0  0  0  0  0  0  0  0  0
    0.0000    0.0000    0.0000 C   0  0  0  0  0  0  0  0  0  0  0  0
    0.0000    0.0000    0.0000 C   0  0  0  0  0  0  0  0  0  0  0  0
    0.0000    0.0000    0.0000 C   0  0  0  0  0  0  0  0  0  0  0  0
    0.0000    0.0000    0.0000 C   0  0  0  0  0  0  0  0  0  0  0  0
    0.0000    0.0000    0.0000 C   0  0  2  0  0  0  0  0  0  0  0  0
    0.0000    0.0000    0.0000 H   0  0  0  0  0  0  0  0  0  0  0  0
    0.0000    0.0000    0.0000 O   0  0  0  0  0  0  0  0  0  0  0  0
    0.0000    0.0000    0.0000 C   0  0  0  0  0  0  0  0  0  0  0  0
    0.0000    0.0000    0.0000 C   0  0  2  0  0  0  0  0  0  0  0  0
    0.0000    0.0000    0.0000 H   0  0  0  0  0  0  0  0  0  0  0  0
    0.0000    0.0000    0.0000 O   0  0  0  0  0  0  0  0  0  0  0  0
    0.0000    0.0000    0.0000 C   0  0  0  0  0  0  0  0  0  0  0  0
    0.0000    0.0000    0.0000 C   0  0  0  0  0  0  0  0  0  0  0  0
    0.0000    0.0000    0.0000 O   0  0  0  0  0  0  0  0  0  0  0  0
    0.0000    0.0000    0.0000 O   0  0  0  0  0  0  0  0  0  0  0  0
    0.0000    0.0000    0.0000 C   0  0  0  0  0  0  0  0  0  0  0  0
    0.0000    0.0000    0.0000 C   0  0  0  0  0  0  0  0  0  0  0  0
    0.0000    0.0000    0.0000 C   0  0  0  0  0  0  0  0  0  0  0  0
    0.0000    0.0000    0.0000 C   0  0  0  0  0  0  0  0  0  0  0  0
  1  2  1  0  0  0  0
  2  7  1  0  0  0  0
  2  3  2  0  0  0  0
  3  4  1  0  0  0  0
  4  5  2  0  0  0  0
  5  6  1  0  0  0  0
  5  8  1  0  0  0  0
  6  7  2  0  0  0  0
  8 15  2  0  0  0  0
  8  9  1  0  0  0  0
  9 32  1  0  0  0  0
  9 10  2  0  0  0  0
 10 11  1  0  0  0  0
 10 29  1  0  0  0  0
 11 12  1  0  0  0  0
 11 15  1  0  0  0  0
 12 13  1  0  0  0  0
 12 14  1  0  0  0  0
 15 16  1  0  0  0  0
 16 17  2  3  0  0  0
 17 18  1  0  0  0  0
 18 19  1  0  0  0  0
 18 20  1  0  0  0  0
 18 21  1  0  0  0  0
 21 22  1  0  0  0  0
 22 23  1  0  0  0  0
 22 24  1  0  0  0  0
 22 25  1  0  0  0  0
 25 26  1  0  0  0  0
 26 27  1  0  0  0  0
 26 28  2  0  0  0  0
 29 30  2  0  0  0  0
 30 31  1  0  0  0  0
 31 32  2  0  0  0  0
M  END
> <Index>
1579

> <ID>
HT0926

> <class>
1

> <apol>
64.44162

> <ast_fraglike>
0

> <ast_fraglike_ext>
0

> <ast_violation>
4

> <ast_violation_ext>
5

> <a_acc>
4

> <a_acid>
0

> <a_aro>
15

> <a_base>
0

> <a_count>
56

> <a_don>
4

> <a_donacc>
8

> <a_heavy>
30

> <a_hyd>
24

> <a_IC>
84.961342

> <a_ICM>
1.5171669

> <a_nB>
0

> <a_nBr>
0

> <a_nC>
24

> <a_nCl>
0

> <a_nF>
1

> <a_nH>
26

> <a_nI>
0

> <a_nN>
1

> <a_nO>
4

> <a_nP>
0

> <a_nS>
0

> <balabanJ>
1.7003043

> <BCUT_PEOE_0>
-2.585305

> <BCUT_PEOE_1>
-0.56233162

> <BCUT_PEOE_2>
0.62144613

> <BCUT_PEOE_3>
2.6173964

> <BCUT_SLOGP_0>
-2.6402287

> <BCUT_SLOGP_1>
-0.51456779

> <BCUT_SLOGP_2>
0.73751938

> <BCUT_SLOGP_3>
2.650923

> <BCUT_SMR_0>
-2.3629143

> <BCUT_SMR_1>
-0.41578144

> <BCUT_SMR_2>
0.74133617

> <BCUT_SMR_3>
2.8344729

> <bpol>
32.564381

> <b_1rotN>
8

> <b_1rotR>
0.25

> <b_ar>
16

> <b_count>
58

> <b_double>
2

> <b_heavy>
32

> <b_max1len>
6

> <b_rotN>
8

> <b_rotR>
0.25

> <b_single>
40

> <b_triple>
0

> <chi0>
21.836134

> <chi0v>
16.994835

> <chi0v_C>
14.419767

> <chi0_C>
16.258783

> <chi1>
14.273765

> <chi1v>
9.9255819

> <chi1v_C>
8.0870581

> <chi1_C>
10.387013

> <chiral>
2

> <chiral_u>
0

> <density>
0.73597562

> <diameter>
14

> <FCharge>
0

> <GCUT_PEOE_0>
-0.86116409

> <GCUT_PEOE_1>
-0.39782774

> <GCUT_PEOE_2>
0.081722468

> <GCUT_PEOE_3>
2.8002625

> <GCUT_SLOGP_0>
-0.87817329

> <GCUT_SLOGP_1>
-0.29636577

> <GCUT_SLOGP_2>
0.15715009

> <GCUT_SLOGP_3>
2.9381852

> <GCUT_SMR_0>
-0.52542478

> <GCUT_SMR_1>
-0.21376254

> <GCUT_SMR_2>
0.18428908

> <GCUT_SMR_3>
3.0978291

> <Kier1>
24.638672

> <Kier2>
11.227654

> <Kier3>
6.2925091

> <KierA1>
18.630659

> <KierA2>
8.4023228

> <KierA3>
4.6745782

> <KierFlex>
5.2180271

> <lip_acc>
5

> <lip_don>
3

> <lip_druglike>
1

> <lip_violation>
0

> <logP(o/w)>
5.243

> <logS>
-5.2513199

> <mr>
11.504419

> <mutagenic>
0

> <nmol>
1

> <opr_brigid>
17

> <opr_leadlike>
1

> <opr_nring>
3

> <opr_nrot>
8

> <opr_violation>
1

> <PC+>
0

> <PC->
0

> <PEOE_PC+>
2.4793968

> <PEOE_PC->
-2.4793968

> <PEOE_RPC+>
0.10569662

> <PEOE_RPC->
0.15777636

> <PEOE_VSA+0>
58.918213

> <PEOE_VSA+1>
87.360291

> <PEOE_VSA+2>
9.0208454

> <PEOE_VSA+3>
0.0

> <PEOE_VSA+4>
30.972517

> <PEOE_VSA+5>
14.708499

> <PEOE_VSA+6>
0.0

> <PEOE_VSA-0>
88.723511

> <PEOE_VSA-1>
73.529427

> <PEOE_VSA-2>
0.0

> <PEOE_VSA-3>
0.0

> <PEOE_VSA-4>
11.908636

> <PEOE_VSA-5>
13.566921

> <PEOE_VSA-6>
23.30262

> <PEOE_VSA_FHYD>
0.77073652

> <PEOE_VSA_FNEG>
0.51219714

> <PEOE_VSA_FPNEG>
0.11839034

> <PEOE_VSA_FPOL>
0.2292635

> <PEOE_VSA_FPOS>
0.48780283

> <PEOE_VSA_FPPOS>
0.11087316

> <PEOE_VSA_HYD>
317.55228

> <PEOE_VSA_NEG>
211.03111

> <PEOE_VSA_PNEG>
48.778175

> <PEOE_VSA_POL>
94.459198

> <PEOE_VSA_POS>
200.98036

> <PEOE_VSA_PPOS>
45.681019

> <petitjean>
0.5

> <petitjeanSC>
1.0

> <Q_PC+>
0

> <Q_PC->
0

> <Q_RPC+>
0

> <Q_RPC->
0

> <Q_VSA_FHYD>
1

> <Q_VSA_FNEG>
0

> <Q_VSA_FPNEG>
0

> <Q_VSA_FPOL>
0

> <Q_VSA_FPOS>
1

> <Q_VSA_FPPOS>
0

> <Q_VSA_HYD>
412.01147

> <Q_VSA_NEG>
0

> <Q_VSA_PNEG>
0

> <Q_VSA_POL>
0

> <Q_VSA_POS>
412.01147

> <Q_VSA_PPOS>
0

> <radius>
7

> <reactive>
0

> <rings>
3

> <RPC+>
0

> <RPC->
0

> <rsynth>
1.0

> <SlogP>
4.7235999

> <SlogP_VSA0>
50.770454

> <SlogP_VSA1>
9.644557

> <SlogP_VSA2>
45.920532

> <SlogP_VSA3>
25.385227

> <SlogP_VSA4>
2.7567475

> <SlogP_VSA5>
0.0

> <SlogP_VSA6>
0.0

> <SlogP_VSA7>
169.87691

> <SlogP_VSA8>
59.361965

> <SlogP_VSA9>
81.612144

> <SMR>
11.57454

> <SMR_VSA0>
23.862217

> <SMR_VSA1>
67.629662

> <SMR_VSA2>
34.506245

> <SMR_VSA3>
19.676014

> <SMR_VSA4>
11.088251

> <SMR_VSA5>
196.52547

> <SMR_VSA6>
25.388649

> <SMR_VSA7>
66.652031

> <TPSA>
82.690002

> <VAdjEq>
0.37005648

> <VAdjMa>
6.0

> <VDistEq>
3.5508661

> <VDistMa>
9.5424004

> <vdw_area>
412.01147

> <vdw_vol>
559.08508

> <vsa_acc>
0.0

> <vsa_acid>
0

> <vsa_base>
0

> <vsa_don>
0.0

> <vsa_hyd>
313.08963

> <vsa_other>
14.708499

> <vsa_pol>
54.267685

> <Weight>
411.47299

> <weinerPath>
2476

> <weinerPol>
47

> <zagreb>
154

$$$$
Row1579
 OpenBabel06061811532D

 10 10  0  0  1  0  0  0  0  0999 V2000
    0.0000    0.0000    0.0000 P   0  0  0  0  0  0  0  0  0  0  0  0
    0.0000    0.0000    0.0000 O   0  0  0  0  0  0  0  0  0  0  0  0
    0.0000    0.0000    0.0000 O   0  0  0  0  0  0  0  0  0  0  0  0
    0.0000    0.0000    0.0000 O   0  0  0  0  0  0  0  0  0  0  0  0
    0.0000    0.0000    0.0000 C   0  0  1  0  0  0  0  0  0  0  0  0
    0.0000    0.0000    0.0000 H   0  0  0  0  0  0  0  0  0  0  0  0
    0.0000    0.0000    0.0000 O   0  0  0  0  0  0  0  0  0  0  0  0
    0.0000    0.0000    0.0000 C   0  0  1  0  0  0  0  0  0  0  0  0
    0.0000    0.0000    0.0000 H   0  0  0  0  0  0  0  0  0  0  0  0
    0.0000    0.0000    0.0000 C   0  0  0  0  0  0  0  0  0  0  0  0
  1  2  1  0  0  0  0
  1  3  1  0  0  0  0
  1  4  2  0  0  0  0
  1  5  1  0  0  0  0
  5  6  1  0  0  0  0
  5  8  1  0  0  0  0
  5  7  1  0  0  0  0
  7  8  1  0  0  0  0
  8  9  1  0  0  0  0
  8 10  1  0  0  0  0
M  END
> <Index>
1580

> <ID>
HT0937

> <class>
1

> <apol>
16.785551

> <ast_fraglike>
0

> <ast_fraglike_ext>
0

> <ast_violation>
1

> <ast_violation_ext>
1

> <a_acc>
4

> <a_acid>
0

> <a_aro>
0

> <a_base>
0

> <a_count>
15

> <a_don>
3

> <a_donacc>
7

> <a_heavy>
8

> <a_hyd>
3

> <a_IC>
26.196987

> <a_ICM>
1.7464658

> <a_nB>
0

> <a_nBr>
0

> <a_nC>
3

> <a_nCl>
0

> <a_nF>
0

> <a_nH>
7

> <a_nI>
0

> <a_nN>
0

> <a_nO>
4

> <a_nP>
1

> <a_nS>
0

> <balabanJ>
2.3899639

> <BCUT_PEOE_0>
-2.3112719

> <BCUT_PEOE_1>
-0.74770194

> <BCUT_PEOE_2>
0.56007588

> <BCUT_PEOE_3>
2.8167708

> <BCUT_SLOGP_0>
-2.3930678

> <BCUT_SLOGP_1>
-1.1523613

> <BCUT_SLOGP_2>
0.35914618

> <BCUT_SLOGP_3>
2.7697272

> <BCUT_SMR_0>
-2.1072519

> <BCUT_SMR_1>
-0.54333949

> <BCUT_SMR_2>
0.65651941

> <BCUT_SMR_3>
3.0124025

> <bpol>
18.006449

> <b_1rotN>
1

> <b_1rotR>
0.125

> <b_ar>
0

> <b_count>
15

> <b_double>
0

> <b_heavy>
8

> <b_max1len>
4

> <b_rotN>
1

> <b_rotR>
0.125

> <b_single>
15

> <b_triple>
0

> <chi0>
6.3618073

> <chi0v>
5.2072649

> <chi0v_C>
2.1547005

> <chi0_C>
2.1547005

> <chi1>
3.5158553

> <chi1v>
3.9044073

> <chi1v_C>
0.91068363

> <chi1_C>
0.91068363

> <chiral>
2

> <chiral_u>
0

> <density>
1.0078027

> <diameter>
4

> <FCharge>
0

> <GCUT_PEOE_0>
-0.72961044

> <GCUT_PEOE_1>
-0.4463369

> <GCUT_PEOE_2>
0.093249395

> <GCUT_PEOE_3>
2.0746427

> <GCUT_SLOGP_0>
-1.2940634

> <GCUT_SLOGP_1>
-0.54339206

> <GCUT_SLOGP_2>
-0.022413455

> <GCUT_SLOGP_3>
2.0845072

> <GCUT_SMR_0>
-0.49593866

> <GCUT_SMR_1>
-0.25135872

> <GCUT_SMR_2>
0.1796775

> <GCUT_SMR_3>
2.2766426

> <Kier1>
6.125

> <Kier2>
1.4911243

> <Kier3>
0.91836733

> <KierA1>
7.5980849

> <KierA2>
1.9117185

> <KierA3>
1.2113749

> <KierFlex>
1.8156749

> <lip_acc>
4

> <lip_don>
2

> <lip_druglike>
1

> <lip_violation>
0

> <logP(o/w)>
-1.207

> <logS>
0.57955998

> <mr>
2.8224318

> <mutagenic>
1

> <nmol>
1

> <opr_brigid>
3

> <opr_leadlike>
1

> <opr_nring>
1

> <opr_nrot>
1

> <opr_violation>
0

> <PC+>
0

> <PC->
0

> <PEOE_PC+>
1.2444426

> <PEOE_PC->
-1.2444426

> <PEOE_RPC+>
0.25284582

> <PEOE_RPC->
0.27304575

> <PEOE_VSA+0>
12.796158

> <PEOE_VSA+1>
4.2653861

> <PEOE_VSA+2>
29.818661

> <PEOE_VSA+3>
0.0

> <PEOE_VSA+4>
6.4254417

> <PEOE_VSA+5>
0.0

> <PEOE_VSA+6>
13.666999

> <PEOE_VSA-0>
18.747677

> <PEOE_VSA-1>
0.0

> <PEOE_VSA-2>
0.0

> <PEOE_VSA-3>
0.0

> <PEOE_VSA-4>
15.729136

> <PEOE_VSA-5>
0.0

> <PEOE_VSA-6>
22.363268

> <PEOE_VSA_FHYD>
0.53005767

> <PEOE_VSA_FNEG>
0.45908108

> <PEOE_VSA_FPNEG>
0.30766147

> <PEOE_VSA_FPOL>
0.46994236

> <PEOE_VSA_FPOS>
0.54091889

> <PEOE_VSA_FPPOS>
0.1622809

> <PEOE_VSA_HYD>
65.627884

> <PEOE_VSA_NEG>
56.84008

> <PEOE_VSA_PNEG>
38.092403

> <PEOE_VSA_POL>
58.184845

> <PEOE_VSA_POS>
66.972641

> <PEOE_VSA_PPOS>
20.09244

> <petitjean>
0.5

> <petitjeanSC>
1.0

> <Q_PC+>
0

> <Q_PC->
0

> <Q_RPC+>
0

> <Q_RPC->
0

> <Q_VSA_FHYD>
1

> <Q_VSA_FNEG>
0

> <Q_VSA_FPNEG>
0

> <Q_VSA_FPOL>
0

> <Q_VSA_FPOS>
1

> <Q_VSA_FPPOS>
0

> <Q_VSA_HYD>
123.81273

> <Q_VSA_NEG>
0

> <Q_VSA_PNEG>
0

> <Q_VSA_POL>
0

> <Q_VSA_POS>
123.81273

> <Q_VSA_PPOS>
0

> <radius>
2

> <reactive>
1

> <rings>
1

> <RPC+>
0

> <RPC->
0

> <rsynth>
0.0

> <SlogP>
-1.1612999

> <SlogP_VSA0>
65.047699

> <SlogP_VSA1>
0.0

> <SlogP_VSA2>
21.108021

> <SlogP_VSA3>
0.0

> <SlogP_VSA4>
0.0

> <SlogP_VSA5>
0.0

> <SlogP_VSA6>
0.0

> <SlogP_VSA7>
0.0

> <SlogP_VSA8>
0.0

> <SlogP_VSA9>
48.125488

> <SMR>
2.5692599

> <SMR_VSA0>
33.433655

> <SMR_VSA1>
42.613937

> <SMR_VSA2>
0.0

> <SMR_VSA3>
10.108133

> <SMR_VSA4>
0.0

> <SMR_VSA5>
0.0

> <SMR_VSA6>
0.0

> <SMR_VSA7>
48.125488

> <TPSA>
70.059998

> <VAdjEq>
0.8112781

> <VAdjMa>
4.0

> <VDistEq>
1.892153

> <VDistMa>
5.6637831

> <vdw_area>
123.81273

> <vdw_vol>
136.9901

> <vsa_acc>
2.503756

> <vsa_acid>
0

> <vsa_base>
0

> <vsa_don>
0.0

> <vsa_hyd>
47.846001

> <vsa_other>
13.666999

> <vsa_pol>
49.691166

> <Weight>
138.05901

> <weinerPath>
61

> <weinerPol>
7

> <zagreb>
42

$$$$
Row1580
 OpenBabel06061811532D

 42 44  0  0  1  0  0  0  0  0999 V2000
    0.0000    0.0000    0.0000 P   0  0  3  0  0  0  0  0  0  0  0  0
    0.0000    0.0000    0.0000 O   0  0  0  0  0  0  0  0  0  0  0  0
    0.0000    0.0000    0.0000 C   0  0  2  0  0  0  0  0  0  0  0  0
    0.0000    0.0000    0.0000 H   0  0  0  0  0  0  0  0  0  0  0  0
    0.0000    0.0000    0.0000 O   0  0  0  0  0  0  0  0  0  0  0  0
    0.0000    0.0000    0.0000 C   0  0  0  0  0  0  0  0  0  0  0  0
    0.0000    0.0000    0.0000 O   0  0  0  0  0  0  0  0  0  0  0  0
    0.0000    0.0000    0.0000 C   0  0  0  0  0  0  0  0  0  0  0  0
    0.0000    0.0000    0.0000 C   0  0  0  0  0  0  0  0  0  0  0  0
    0.0000    0.0000    0.0000 C   0  0  0  0  0  0  0  0  0  0  0  0
    0.0000    0.0000    0.0000 C   0  0  0  0  0  0  0  0  0  0  0  0
    0.0000    0.0000    0.0000 C   0  0  0  0  0  0  0  0  0  0  0  0
    0.0000    0.0000    0.0000 O   0  0  0  0  0  0  0  0  0  0  0  0
    0.0000    0.0000    0.0000 C   0  0  0  0  0  0  0  0  0  0  0  0
    0.0000    0.0000    0.0000 C   0  0  0  0  0  0  0  0  0  0  0  0
    0.0000    0.0000    0.0000 C   0  0  0  0  0  0  0  0  0  0  0  0
    0.0000    0.0000    0.0000 C   0  0  0  0  0  0  0  0  0  0  0  0
    0.0000    0.0000    0.0000 C   0  0  0  0  0  0  0  0  0  0  0  0
    0.0000    0.0000    0.0000 C   0  0  0  0  0  0  0  0  0  0  0  0
    0.0000    0.0000    0.0000 C   0  0  0  0  0  0  0  0  0  0  0  0
    0.0000    0.0000    0.0000 C   0  0  0  0  0  0  0  0  0  0  0  0
    0.0000    0.0000    0.0000 C   0  0  0  0  0  0  0  0  0  0  0  0
    0.0000    0.0000    0.0000 C   0  0  0  0  0  0  0  0  0  0  0  0
    0.0000    0.0000    0.0000 C   0  0  0  0  0  0  0  0  0  0  0  0
    0.0000    0.0000    0.0000 C   0  0  0  0  0  0  0  0  0  0  0  0
    0.0000    0.0000    0.0000 O   0  0  0  0  0  0  0  0  0  0  0  0
    0.0000    0.0000    0.0000 N   0  0  0  0  0  0  0  0  0  0  0  0
    0.0000    0.0000    0.0000 C   0  0  0  0  0  0  0  0  0  0  0  0
    0.0000    0.0000    0.0000 C   0  0  1  0  0  0  0  0  0  0  0  0
    0.0000    0.0000    0.0000 H   0  0  0  0  0  0  0  0  0  0  0  0
    0.0000    0.0000    0.0000 C   0  0  0  0  0  0  0  0  0  0  0  0
    0.0000    0.0000    0.0000 C   0  0  1  0  0  0  0  0  0  0  0  0
    0.0000    0.0000    0.0000 H   0  0  0  0  0  0  0  0  0  0  0  0
    0.0000    0.0000    0.0000 C   0  0  0  0  0  0  0  0  0  0  0  0
    0.0000    0.0000    0.0000 O   0  0  0  0  0  0  0  0  0  0  0  0
    0.0000    0.0000    0.0000 O   0  0  0  0  0  0  0  0  0  0  0  0
    0.0000    0.0000    0.0000 C   0  0  0  0  0  0  0  0  0  0  0  0
    0.0000    0.0000    0.0000 C   0  0  0  0  0  0  0  0  0  0  0  0
    0.0000    0.0000    0.0000 C   0  0  0  0  0  0  0  0  0  0  0  0
    0.0000    0.0000    0.0000 C   0  0  0  0  0  0  0  0  0  0  0  0
    0.0000    0.0000    0.0000 C   0  0  0  0  0  0  0  0  0  0  0  0
    0.0000    0.0000    0.0000 C   0  0  0  0  0  0  0  0  0  0  0  0
  1  2  1  0  0  0  0
  1 13  2  0  0  0  0
  1 14  1  0  0  0  0
  1 24  1  0  0  0  0
  2  3  1  0  0  0  0
  3  4  1  0  0  0  0
  3  5  1  0  0  0  0
  3 10  1  0  0  0  0
  5  6  1  0  0  0  0
  6  7  2  0  0  0  0
  6  8  1  0  0  0  0
  8  9  1  0  0  0  0
 10 11  1  0  0  0  0
 10 12  1  0  0  0  0
 14 15  1  0  0  0  0
 15 16  1  0  0  0  0
 16 17  1  0  0  0  0
 17 18  1  0  0  0  0
 18 23  1  0  0  0  0
 18 19  2  0  0  0  0
 19 20  1  0  0  0  0
 20 21  2  0  0  0  0
 21 22  1  0  0  0  0
 22 23  2  0  0  0  0
 24 25  1  0  0  0  0
 25 26  2  0  0  0  0
 25 27  1  0  0  0  0
 27 32  1  0  0  0  0
 27 28  1  0  0  0  0
 28 29  1  0  0  0  0
 29 30  1  0  0  0  0
 29 31  1  0  0  0  0
 29 37  1  0  0  0  0
 31 32  1  0  0  0  0
 32 33  1  0  0  0  0
 32 34  1  0  0  0  0
 34 35  1  0  0  0  0
 34 36  2  0  0  0  0
 37 42  1  0  0  0  0
 37 38  1  0  0  0  0
 38 39  1  0  0  0  0
 39 40  1  0  0  0  0
 40 41  1  0  0  0  0
 41 42  1  0  0  0  0
M  END
> <Index>
1581

> <ID>
HT0938

> <class>
1

> <apol>
93.816475

> <ast_fraglike>
0

> <ast_fraglike_ext>
0

> <ast_violation>
3

> <ast_violation_ext>
5

> <a_acc>
6

> <a_acid>
0

> <a_aro>
6

> <a_base>
0

> <a_count>
85

> <a_don>
2

> <a_donacc>
8

> <a_heavy>
39

> <a_hyd>
26

> <a_IC>
123.85618

> <a_ICM>
1.4571315

> <a_nB>
0

> <a_nBr>
0

> <a_nC>
30

> <a_nCl>
0

> <a_nF>
0

> <a_nH>
46

> <a_nI>
0

> <a_nN>
1

> <a_nO>
7

> <a_nP>
1

> <a_nS>
0

> <balabanJ>
1.6751444

> <BCUT_PEOE_0>
-2.8270643

> <BCUT_PEOE_1>
-0.51615423

> <BCUT_PEOE_2>
0.57980216

> <BCUT_PEOE_3>
2.8433602

> <BCUT_SLOGP_0>
-2.7268052

> <BCUT_SLOGP_1>
-0.46377704

> <BCUT_SLOGP_2>
0.59017378

> <BCUT_SLOGP_3>
2.9141378

> <BCUT_SMR_0>
-2.5753176

> <BCUT_SMR_1>
-0.38983917

> <BCUT_SMR_2>
0.71222848

> <BCUT_SMR_3>
3.093437

> <bpol>
67.411522

> <b_1rotN>
15

> <b_1rotR>
0.36585367

> <b_ar>
6

> <b_count>
87

> <b_double>
3

> <b_heavy>
41

> <b_max1len>
10

> <b_rotN>
16

> <b_rotR>
0.39024389

> <b_single>
78

> <b_triple>
0

> <chi0>
28.415638

> <chi0v>
24.651449

> <chi0v_C>
19.965891

> <chi0_C>
20.924074

> <chi1>
18.614012

> <chi1v>
16.632088

> <chi1v_C>
11.329735

> <chi1_C>
12.44429

> <chiral>
4

> <chiral_u>
1

> <density>
0.72712171

> <diameter>
17

> <FCharge>
0

> <GCUT_PEOE_0>
-0.8328076

> <GCUT_PEOE_1>
-0.39526823

> <GCUT_PEOE_2>
0.058697753

> <GCUT_PEOE_3>
3.1246405

> <GCUT_SLOGP_0>
-1.2945318

> <GCUT_SLOGP_1>
-0.32915354

> <GCUT_SLOGP_2>
0.10026686

> <GCUT_SLOGP_3>
3.1576085

> <GCUT_SMR_0>
-0.53461748

> <GCUT_SMR_1>
-0.21605732

> <GCUT_SMR_2>
0.17032896

> <GCUT_SMR_3>
3.3484361

> <Kier1>
33.501488

> <Kier2>
16.588648

> <Kier3>
10.650519

> <KierA1>
30.192478

> <KierA2>
14.907804

> <KierA3>
9.5519123

> <KierFlex>
11.541117

> <lip_acc>
8

> <lip_don>
1

> <lip_druglike>
0

> <lip_violation>
2

> <logP(o/w)>
5.4239998

> <logS>
-6.4225898

> <mr>
15.602008

> <mutagenic>
0

> <nmol>
1

> <opr_brigid>
17

> <opr_leadlike>
0

> <opr_nring>
3

> <opr_nrot>
17

> <opr_violation>
3

> <PC+>
0

> <PC->
0

> <PEOE_PC+>
3.4192846

> <PEOE_PC->
-3.4192846

> <PEOE_RPC+>
0.082590155

> <PEOE_RPC->
0.12090212

> <PEOE_VSA+0>
166.91676

> <PEOE_VSA+1>
57.141071

> <PEOE_VSA+2>
39.231194

> <PEOE_VSA+3>
0.0

> <PEOE_VSA+4>
10.324173

> <PEOE_VSA+5>
36.278957

> <PEOE_VSA+6>
0.0

> <PEOE_VSA-0>
54.41642

> <PEOE_VSA-1>
143.62149

> <PEOE_VSA-2>
0.0

> <PEOE_VSA-3>
15.729136

> <PEOE_VSA-4>
0.0

> <PEOE_VSA-5>
27.133842

> <PEOE_VSA-6>
28.504189

> <PEOE_VSA_FHYD>
0.82350826

> <PEOE_VSA_FNEG>
0.46505499

> <PEOE_VSA_FPNEG>
0.096044011

> <PEOE_VSA_FPOL>
0.17649171

> <PEOE_VSA_FPOS>
0.53494501

> <PEOE_VSA_FPPOS>
0.080447704

> <PEOE_VSA_HYD>
477.05609

> <PEOE_VSA_NEG>
269.40509

> <PEOE_VSA_PNEG>
55.638031

> <PEOE_VSA_POL>
102.24117

> <PEOE_VSA_POS>
309.89215

> <PEOE_VSA_PPOS>
46.60313

> <petitjean>
0.47058824

> <petitjeanSC>
0.8888889

> <Q_PC+>
0

> <Q_PC->
0

> <Q_RPC+>
0

> <Q_RPC->
0

> <Q_VSA_FHYD>
1

> <Q_VSA_FNEG>
0

> <Q_VSA_FPNEG>
0

> <Q_VSA_FPOL>
0

> <Q_VSA_FPOS>
1

> <Q_VSA_FPPOS>
0

> <Q_VSA_HYD>
579.29724

> <Q_VSA_NEG>
0

> <Q_VSA_PNEG>
0

> <Q_VSA_POL>
0

> <Q_VSA_POS>
579.29724

> <Q_VSA_PPOS>
0

> <radius>
9

> <reactive>
0

> <rings>
3

> <RPC+>
0

> <RPC->
0

> <rsynth>
0.64102566

> <SlogP>
5.0510702

> <SlogP_VSA0>
22.433765

> <SlogP_VSA1>
23.874025

> <SlogP_VSA2>
102.01664

> <SlogP_VSA3>
75.903282

> <SlogP_VSA4>
16.417963

> <SlogP_VSA5>
18.868406

> <SlogP_VSA6>
0.0

> <SlogP_VSA7>
88.215919

> <SlogP_VSA8>
169.81564

> <SlogP_VSA9>
112.88215

> <SMR>
14.99468

> <SMR_VSA0>
111.94193

> <SMR_VSA1>
3.1243138

> <SMR_VSA2>
38.617615

> <SMR_VSA3>
15.694046

> <SMR_VSA4>
0.0

> <SMR_VSA5>
276.89996

> <SMR_VSA6>
71.267769

> <SMR_VSA7>
112.88215

> <TPSA>
110.21

> <VAdjEq>
0.30278754

> <VAdjMa>
6.3575521

> <VDistEq>
3.8338296

> <VDistMa>
10.318009

> <vdw_area>
579.29724

> <vdw_vol>
775.20996

> <vsa_acc>
47.52895

> <vsa_acid>
0

> <vsa_base>
0

> <vsa_don>
0.0

> <vsa_hyd>
395.84399

> <vsa_other>
68.199715

> <vsa_pol>
74.662788

> <Weight>
563.672

> <weinerPath>
5262

> <weinerPol>
57

> <zagreb>
194

$$$$
Row1581
 OpenBabel06061811532D

 21 22  0  0  0  0  0  0  0  0999 V2000
    0.0000    0.0000    0.0000 Cl  0  0  0  0  0  0  0  0  0  0  0  0
    0.0000    0.0000    0.0000 C   0  0  0  0  0  0  0  0  0  0  0  0
    0.0000    0.0000    0.0000 C   0  0  0  0  0  0  0  0  0  0  0  0
    0.0000    0.0000    0.0000 C   0  0  0  0  0  0  0  0  0  0  0  0
    0.0000    0.0000    0.0000 N   0  0  0  0  0  0  0  0  0  0  0  0
    0.0000    0.0000    0.0000 C   0  0  0  0  0  0  0  0  0  0  0  0
    0.0000    0.0000    0.0000 C   0  0  0  0  0  0  0  0  0  0  0  0
    0.0000    0.0000    0.0000 O   0  0  0  0  0  0  0  0  0  0  0  0
    0.0000    0.0000    0.0000 C   0  0  0  0  0  0  0  0  0  0  0  0
    0.0000    0.0000    0.0000 C   0  0  0  0  0  0  0  0  0  0  0  0
    0.0000    0.0000    0.0000 C   0  0  0  0  0  0  0  0  0  0  0  0
    0.0000    0.0000    0.0000 C   0  0  0  0  0  0  0  0  0  0  0  0
    0.0000    0.0000    0.0000 C   0  0  0  0  0  0  0  0  0  0  0  0
    0.0000    0.0000    0.0000 C   0  0  0  0  0  0  0  0  0  0  0  0
    0.0000    0.0000    0.0000 S   0  0  0  0  0  0  0  0  0  0  0  0
    0.0000    0.0000    0.0000 O   0  0  0  0  0  0  0  0  0  0  0  0
    0.0000    0.0000    0.0000 O   0  0  0  0  0  0  0  0  0  0  0  0
    0.0000    0.0000    0.0000 N   0  0  0  0  0  0  0  0  0  0  0  0
    0.0000    0.0000    0.0000 C   0  0  0  0  0  0  0  0  0  0  0  0
    0.0000    0.0000    0.0000 O   0  0  0  0  0  0  0  0  0  0  0  0
    0.0000    0.0000    0.0000 O   0  0  0  0  0  0  0  0  0  0  0  0
  1  2  1  0  0  0  0
  2 14  1  0  0  0  0
  2  3  2  0  0  0  0
  3  4  1  0  0  0  0
  4  5  1  0  0  0  0
  4 12  2  0  0  0  0
  5  6  1  0  0  0  0
  6  7  1  0  0  0  0
  7 11  2  0  0  0  0
  7  8  1  0  0  0  0
  8  9  1  0  0  0  0
  9 10  2  0  0  0  0
 10 11  1  0  0  0  0
 12 13  1  0  0  0  0
 12 19  1  0  0  0  0
 13 14  2  0  0  0  0
 14 15  1  0  0  0  0
 15 16  2  0  0  0  0
 15 17  2  0  0  0  0
 15 18  1  0  0  0  0
 19 20  1  0  0  0  0
 19 21  2  0  0  0  0
M  END
> <Index>
1582

> <ID>
HT0945

> <class>
1

> <apol>
39.744724

> <ast_fraglike>
0

> <ast_fraglike_ext>
0

> <ast_violation>
3

> <ast_violation_ext>
5

> <a_acc>
4

> <a_acid>
0

> <a_aro>
11

> <a_base>
0

> <a_count>
32

> <a_don>
4

> <a_donacc>
8

> <a_heavy>
21

> <a_hyd>
10

> <a_IC>
65.317062

> <a_ICM>
2.0411582

> <a_nB>
0

> <a_nBr>
0

> <a_nC>
12

> <a_nCl>
1

> <a_nF>
0

> <a_nH>
11

> <a_nI>
0

> <a_nN>
2

> <a_nO>
5

> <a_nP>
0

> <a_nS>
1

> <balabanJ>
1.9682306

> <BCUT_PEOE_0>
-2.3767881

> <BCUT_PEOE_1>
-0.62318337

> <BCUT_PEOE_2>
0.72193617

> <BCUT_PEOE_3>
2.4112983

> <BCUT_SLOGP_0>
-2.5715327

> <BCUT_SLOGP_1>
-0.48990574

> <BCUT_SLOGP_2>
0.83167654

> <BCUT_SLOGP_3>
2.4773343

> <BCUT_SMR_0>
-2.0696931

> <BCUT_SMR_1>
-0.44363832

> <BCUT_SMR_2>
0.90409487

> <BCUT_SMR_3>
2.7433565

> <bpol>
21.795277

> <b_1rotN>
5

> <b_1rotR>
0.22727273

> <b_ar>
11

> <b_count>
33

> <b_double>
1

> <b_heavy>
22

> <b_max1len>
3

> <b_rotN>
5

> <b_rotR>
0.22727273

> <b_single>
21

> <b_triple>
0

> <chi0>
15.620955

> <chi0v>
12.110053

> <chi0v_C>
6.5938582

> <chi0_C>
7.7067423

> <chi1>
9.7867126

> <chi1v>
7.5711322

> <chi1v_C>
3.2135956

> <chi1_C>
4.4494896

> <chiral>
0

> <chiral_u>
0

> <density>
0.92991853

> <diameter>
10

> <FCharge>
0

> <GCUT_PEOE_0>
-0.8451857

> <GCUT_PEOE_1>
-0.43387857

> <GCUT_PEOE_2>
0.12925312

> <GCUT_PEOE_3>
2.4127376

> <GCUT_SLOGP_0>
-1.348271

> <GCUT_SLOGP_1>
-0.36941594

> <GCUT_SLOGP_2>
0.2274574

> <GCUT_SLOGP_3>
2.4944599

> <GCUT_SMR_0>
-0.46980354

> <GCUT_SMR_1>
-0.19665365

> <GCUT_SMR_2>
0.29530683

> <GCUT_SMR_3>
2.6939375

> <Kier1>
17.355371

> <Kier2>
7.0507812

> <Kier3>
4.4875345

> <KierA1>
15.352035

> <KierA2>
6.196559

> <KierA3>
3.9242642

> <KierFlex>
4.5299897

> <lip_acc>
7

> <lip_don>
4

> <lip_druglike>
1

> <lip_violation>
0

> <logP(o/w)>
0.82300001

> <logS>
-3.63111

> <mr>
7.740808

> <mutagenic>
0

> <nmol>
1

> <opr_brigid>
11

> <opr_leadlike>
1

> <opr_nring>
2

> <opr_nrot>
5

> <opr_violation>
0

> <PC+>
0

> <PC->
0

> <PEOE_PC+>
2.1289914

> <PEOE_PC->
-2.1289914

> <PEOE_RPC+>
0.1413243

> <PEOE_RPC->
0.21912025

> <PEOE_VSA+0>
34.043186

> <PEOE_VSA+1>
71.752968

> <PEOE_VSA+2>
25.862665

> <PEOE_VSA+3>
0.0

> <PEOE_VSA+4>
10.324173

> <PEOE_VSA+5>
14.708499

> <PEOE_VSA+6>
4.1846013

> <PEOE_VSA-0>
36.764713

> <PEOE_VSA-1>
29.581947

> <PEOE_VSA-2>
0.0

> <PEOE_VSA-3>
9.0437498

> <PEOE_VSA-4>
32.016521

> <PEOE_VSA-5>
13.703812

> <PEOE_VSA-6>
10.271297

> <PEOE_VSA_FHYD>
0.70844644

> <PEOE_VSA_FNEG>
0.44954109

> <PEOE_VSA_FPNEG>
0.1915828

> <PEOE_VSA_FPOL>
0.29155359

> <PEOE_VSA_FPOS>
0.55045891

> <PEOE_VSA_FPPOS>
0.09997078

> <PEOE_VSA_HYD>
207.04922

> <PEOE_VSA_NEG>
131.38203

> <PEOE_VSA_PNEG>
55.991631

> <PEOE_VSA_POL>
85.208908

> <PEOE_VSA_POS>
160.8761

> <PEOE_VSA_PPOS>
29.217274

> <petitjean>
0.5

> <petitjeanSC>
1.0

> <Q_PC+>
0

> <Q_PC->
0

> <Q_RPC+>
0

> <Q_RPC->
0

> <Q_VSA_FHYD>
1

> <Q_VSA_FNEG>
0

> <Q_VSA_FPNEG>
0

> <Q_VSA_FPOL>
0

> <Q_VSA_FPOS>
1

> <Q_VSA_FPPOS>
0

> <Q_VSA_HYD>
292.25812

> <Q_VSA_NEG>
0

> <Q_VSA_PNEG>
0

> <Q_VSA_POL>
0

> <Q_VSA_POS>
292.25812

> <Q_VSA_PPOS>
0

> <radius>
5

> <reactive>
0

> <rings>
2

> <RPC+>
0

> <RPC->
0

> <rsynth>
1.0

> <SlogP>
2.1571

> <SlogP_VSA0>
31.291433

> <SlogP_VSA1>
73.927902

> <SlogP_VSA2>
6.6407428

> <SlogP_VSA3>
25.385227

> <SlogP_VSA4>
32.496613

> <SlogP_VSA5>
11.058081

> <SlogP_VSA6>
3.5006065

> <SlogP_VSA7>
90.479164

> <SlogP_VSA8>
0.0

> <SlogP_VSA9>
60.344971

> <SMR>
7.6024199

> <SMR_VSA0>
81.541252

> <SMR_VSA1>
0.0

> <SMR_VSA2>
26.935961

> <SMR_VSA3>
12.135002

> <SMR_VSA4>
52.058933

> <SMR_VSA5>
108.91875

> <SMR_VSA6>
7.7454643

> <SMR_VSA7>
45.789387

> <TPSA>
122.63

> <VAdjEq>
0.46827638

> <VAdjMa>
5.4594316

> <VDistEq>
3.1737554

> <VDistMa>
8.4964733

> <vdw_area>
292.25812

> <vdw_vol>
355.67416

> <vsa_acc>
32.016521

> <vsa_acid>
0

> <vsa_base>
0

> <vsa_don>
25.817696

> <vsa_hyd>
130.72787

> <vsa_other>
57.834858

> <vsa_pol>
84.968063

> <Weight>
330.74799

> <weinerPath>
939

> <weinerPol>
30

> <zagreb>
108

$$$$
Row1582
 OpenBabel06061811532D

 12 12  0  0  0  0  0  0  0  0999 V2000
    0.0000    0.0000    0.0000 O   0  0  0  0  0  0  0  0  0  0  0  0
    0.0000    0.0000    0.0000 C   0  0  0  0  0  0  0  0  0  0  0  0
    0.0000    0.0000    0.0000 O   0  0  0  0  0  0  0  0  0  0  0  0
    0.0000    0.0000    0.0000 C   0  0  0  0  0  0  0  0  0  0  0  0
    0.0000    0.0000    0.0000 C   0  0  0  0  0  0  0  0  0  0  0  0
    0.0000    0.0000    0.0000 C   0  0  0  0  0  0  0  0  0  0  0  0
    0.0000    0.0000    0.0000 C   0  0  0  0  0  0  0  0  0  0  0  0
    0.0000    0.0000    0.0000 C   0  0  0  0  0  0  0  0  0  0  0  0
    0.0000    0.0000    0.0000 C   0  0  0  0  0  0  0  0  0  0  0  0
    0.0000    0.0000    0.0000 C   0  0  0  0  0  0  0  0  0  0  0  0
    0.0000    0.0000    0.0000 C   0  0  0  0  0  0  0  0  0  0  0  0
    0.0000    0.0000    0.0000 N   0  0  0  0  0  0  0  0  0  0  0  0
  1  2  1  0  0  0  0
  2  3  2  0  0  0  0
  2  4  1  0  0  0  0
  4  5  1  0  0  0  0
  5 10  1  0  0  0  0
  5  6  1  0  0  0  0
  5 11  1  0  0  0  0
  6  7  1  0  0  0  0
  7  8  1  0  0  0  0
  8  9  1  0  0  0  0
  9 10  1  0  0  0  0
 11 12  1  0  0  0  0
M  END
> <Index>
1583

> <ID>
HT0947

> <class>
1

> <apol>
29.87948

> <ast_fraglike>
1

> <ast_fraglike_ext>
0

> <ast_violation>
0

> <ast_violation_ext>
1

> <a_acc>
3

> <a_acid>
0

> <a_aro>
0

> <a_base>
0

> <a_count>
29

> <a_don>
3

> <a_donacc>
6

> <a_heavy>
12

> <a_hyd>
8

> <a_IC>
40.865257

> <a_ICM>
1.4091468

> <a_nB>
0

> <a_nBr>
0

> <a_nC>
9

> <a_nCl>
0

> <a_nF>
0

> <a_nH>
17

> <a_nI>
0

> <a_nN>
1

> <a_nO>
2

> <a_nP>
0

> <a_nS>
0

> <balabanJ>
2.4815419

> <BCUT_PEOE_0>
-2.8406591

> <BCUT_PEOE_1>
-0.34290802

> <BCUT_PEOE_2>
0.34583509

> <BCUT_PEOE_3>
2.8000414

> <BCUT_SLOGP_0>
-2.812474

> <BCUT_SLOGP_1>
-0.30089736

> <BCUT_SLOGP_2>
0.33713478

> <BCUT_SLOGP_3>
2.9040453

> <BCUT_SMR_0>
-2.5898848

> <BCUT_SMR_1>
-0.17423017

> <BCUT_SMR_2>
0.44726035

> <BCUT_SMR_3>
3.0494976

> <bpol>
18.882519

> <b_1rotN>
3

> <b_1rotR>
0.25

> <b_ar>
0

> <b_count>
29

> <b_double>
1

> <b_heavy>
12

> <b_max1len>
5

> <b_rotN>
3

> <b_rotR>
0.25

> <b_single>
28

> <b_triple>
0

> <chi0>
9.0270977

> <chi0v>
7.3825598

> <chi0v_C>
5.9497476

> <chi0_C>
6.0270977

> <chi1>
5.684269

> <chi1v>
4.6037464

> <chi1v_C>
3.767767

> <chi1_C>
3.8224618

> <chiral>
0

> <chiral_u>
0

> <density>
0.70112807

> <diameter>
6

> <FCharge>
0

> <GCUT_PEOE_0>
-0.83900243

> <GCUT_PEOE_1>
-0.37534311

> <GCUT_PEOE_2>
0.051847741

> <GCUT_PEOE_3>
2.6580272

> <GCUT_SLOGP_0>
-1.3635622

> <GCUT_SLOGP_1>
-0.26710194

> <GCUT_SLOGP_2>
0.048965909

> <GCUT_SLOGP_3>
2.7300825

> <GCUT_SMR_0>
-0.52829653

> <GCUT_SMR_1>
-0.18329239

> <GCUT_SMR_2>
0.12533014

> <GCUT_SMR_3>
2.8760436

> <Kier1>
10.083333

> <Kier2>
4.296875

> <Kier3>
2.7777777

> <KierA1>
9.3023129

> <KierA2>
3.932668

> <KierA3>
2.5264907

> <KierFlex>
3.0485756

> <lip_acc>
3

> <lip_don>
3

> <lip_druglike>
1

> <lip_violation>
0

> <logP(o/w)>
0.99800003

> <logS>
-1.20859

> <mr>
4.7572055

> <mutagenic>
0

> <nmol>
1

> <opr_brigid>
6

> <opr_leadlike>
1

> <opr_nring>
1

> <opr_nrot>
5

> <opr_violation>
0

> <PC+>
0

> <PC->
0

> <PEOE_PC+>
1.1841547

> <PEOE_PC->
-1.1841547

> <PEOE_RPC+>
0.21970251

> <PEOE_RPC->
0.27973816

> <PEOE_VSA+0>
68.416718

> <PEOE_VSA+1>
0.0

> <PEOE_VSA+2>
17.238026

> <PEOE_VSA+3>
0.0

> <PEOE_VSA+4>
10.324173

> <PEOE_VSA+5>
14.708499

> <PEOE_VSA+6>
0.0

> <PEOE_VSA-0>
30.594952

> <PEOE_VSA-1>
26.103939

> <PEOE_VSA-2>
0.0

> <PEOE_VSA-3>
0.0

> <PEOE_VSA-4>
0.0

> <PEOE_VSA-5>
13.566921

> <PEOE_VSA-6>
14.418659

> <PEOE_VSA_FHYD>
0.72862905

> <PEOE_VSA_FNEG>
0.4334527

> <PEOE_VSA_FPNEG>
0.14324261

> <PEOE_VSA_FPOL>
0.27137095

> <PEOE_VSA_FPOS>
0.56654727

> <PEOE_VSA_FPPOS>
0.12812832

> <PEOE_VSA_HYD>
142.35364

> <PEOE_VSA_NEG>
84.684471

> <PEOE_VSA_PNEG>
27.98558

> <PEOE_VSA_POL>
53.018253

> <PEOE_VSA_POS>
110.68742

> <PEOE_VSA_PPOS>
25.032671

> <petitjean>
0.5

> <petitjeanSC>
1.0

> <Q_PC+>
0

> <Q_PC->
0

> <Q_RPC+>
0

> <Q_RPC->
0

> <Q_VSA_FHYD>
1

> <Q_VSA_FNEG>
0

> <Q_VSA_FPNEG>
0

> <Q_VSA_FPOL>
0

> <Q_VSA_FPOS>
1

> <Q_VSA_FPPOS>
0

> <Q_VSA_HYD>
195.37189

> <Q_VSA_NEG>
0

> <Q_VSA_PNEG>
0

> <Q_VSA_POL>
0

> <Q_VSA_POS>
195.37189

> <Q_VSA_PPOS>
0

> <radius>
3

> <reactive>
0

> <rings>
1

> <RPC+>
0

> <RPC->
0

> <rsynth>
0.0

> <SlogP>
1.3703001

> <SlogP_VSA0>
32.897186

> <SlogP_VSA1>
7.7454643

> <SlogP_VSA2>
23.862217

> <SlogP_VSA3>
43.824806

> <SlogP_VSA4>
0.0

> <SlogP_VSA5>
0.0

> <SlogP_VSA6>
0.0

> <SlogP_VSA7>
0.0

> <SlogP_VSA8>
113.21043

> <SlogP_VSA9>
0.0

> <SMR>
4.6825199

> <SMR_VSA0>
23.862217

> <SMR_VSA1>
0.0

> <SMR_VSA2>
25.385227

> <SMR_VSA3>
0.0

> <SMR_VSA4>
32.897186

> <SMR_VSA5>
113.21043

> <SMR_VSA6>
26.185041

> <SMR_VSA7>
0.0

> <TPSA>
63.32

> <VAdjEq>
0.65002245

> <VAdjMa>
4.5849624

> <VDistEq>
2.4121423

> <VDistMa>
6.8762913

> <vdw_area>
195.37189

> <vdw_vol>
244.23499

> <vsa_acc>
0.0

> <vsa_acid>
0

> <vsa_base>
0

> <vsa_don>
0.0

> <vsa_hyd>
115.15047

> <vsa_other>
14.708499

> <vsa_pol>
44.876331

> <Weight>
171.23999

> <weinerPath>
193

> <weinerPol>
15

> <zagreb>
56

$$$$
Row1583
 OpenBabel06061811532D

 18 19  0  0  0  0  0  0  0  0999 V2000
    0.0000    0.0000    0.0000 O   0  0  0  0  0  0  0  0  0  0  0  0
    0.0000    0.0000    0.0000 C   0  0  0  0  0  0  0  0  0  0  0  0
    0.0000    0.0000    0.0000 N   0  0  0  0  0  0  0  0  0  0  0  0
    0.0000    0.0000    0.0000 C   0  0  0  0  0  0  0  0  0  0  0  0
    0.0000    0.0000    0.0000 N   0  0  0  0  0  0  0  0  0  0  0  0
    0.0000    0.0000    0.0000 C   0  0  0  0  0  0  0  0  0  0  0  0
    0.0000    0.0000    0.0000 N   0  0  0  0  0  0  0  0  0  0  0  0
    0.0000    0.0000    0.0000 C   0  0  0  0  0  0  0  0  0  0  0  0
    0.0000    0.0000    0.0000 N   0  0  0  0  0  0  0  0  0  0  0  0
    0.0000    0.0000    0.0000 C   0  0  0  0  0  0  0  0  0  0  0  0
    0.0000    0.0000    0.0000 C   0  0  0  0  0  0  0  0  0  0  0  0
    0.0000    0.0000    0.0000 O   0  0  0  0  0  0  0  0  0  0  0  0
    0.0000    0.0000    0.0000 C   0  0  0  0  0  0  0  0  0  0  0  0
    0.0000    0.0000    0.0000 C   0  0  0  0  0  0  0  0  0  0  0  0
    0.0000    0.0000    0.0000 O   0  0  0  0  0  0  0  0  0  0  0  0
    0.0000    0.0000    0.0000 C   0  0  0  0  0  0  0  0  0  0  0  0
    0.0000    0.0000    0.0000 O   0  0  0  0  0  0  0  0  0  0  0  0
    0.0000    0.0000    0.0000 N   0  0  0  0  0  0  0  0  0  0  0  0
  1  2  2  0  0  0  0
  2 10  1  0  0  0  0
  2  3  1  0  0  0  0
  3  4  1  0  0  0  0
  4  5  2  0  0  0  0
  4 18  1  0  0  0  0
  5  6  1  0  0  0  0
  6 10  2  0  0  0  0
  6  7  1  0  0  0  0
  7  8  1  0  0  0  0
  7 11  1  0  0  0  0
  8  9  2  0  0  0  0
  9 10  1  0  0  0  0
 11 12  1  0  0  0  0
 12 13  1  0  0  0  0
 13 14  1  0  0  0  0
 13 16  1  0  0  0  0
 14 15  1  0  0  0  0
 16 17  1  0  0  0  0
M  END
> <Index>
1584

> <ID>
HT0964

> <class>
1

> <apol>
33.216309

> <ast_fraglike>
0

> <ast_fraglike_ext>
0

> <ast_violation>
2

> <ast_violation_ext>
4

> <a_acc>
6

> <a_acid>
0

> <a_aro>
5

> <a_base>
0

> <a_count>
31

> <a_don>
4

> <a_donacc>
10

> <a_heavy>
18

> <a_hyd>
4

> <a_IC>
57.335403

> <a_ICM>
1.8495291

> <a_nB>
0

> <a_nBr>
0

> <a_nC>
9

> <a_nCl>
0

> <a_nF>
0

> <a_nH>
13

> <a_nI>
0

> <a_nN>
5

> <a_nO>
4

> <a_nP>
0

> <a_nS>
0

> <balabanJ>
1.8741482

> <BCUT_PEOE_0>
-2.5423927

> <BCUT_PEOE_1>
-0.65672719

> <BCUT_PEOE_2>
0.71789032

> <BCUT_PEOE_3>
2.5578449

> <BCUT_SLOGP_0>
-2.6732202

> <BCUT_SLOGP_1>
-0.71836001

> <BCUT_SLOGP_2>
0.56878233

> <BCUT_SLOGP_3>
2.4621496

> <BCUT_SMR_0>
-2.3230274

> <BCUT_SMR_1>
-0.5362156

> <BCUT_SMR_2>
0.80559009

> <BCUT_SMR_3>
2.7629104

> <bpol>
21.70569

> <b_1rotN>
5

> <b_1rotR>
0.2631579

> <b_ar>
5

> <b_count>
32

> <b_double>
2

> <b_heavy>
19

> <b_max1len>
6

> <b_rotN>
5

> <b_rotR>
0.2631579

> <b_single>
25

> <b_triple>
0

> <chi0>
13.120955

> <chi0v>
9.4059353

> <chi0v_C>
5.276021

> <chi0_C>
5.7151785

> <chi1>
8.6513968

> <chi1v>
5.1931815

> <chi1v_C>
1.3164966

> <chi1_C>
1.4831632

> <chiral>
0

> <chiral_u>
0

> <density>
0.86020023

> <diameter>
9

> <FCharge>
0

> <GCUT_PEOE_0>
-0.8275454

> <GCUT_PEOE_1>
-0.45600981

> <GCUT_PEOE_2>
0.1504515

> <GCUT_PEOE_3>
2.3764033

> <GCUT_SLOGP_0>
-1.371049

> <GCUT_SLOGP_1>
-0.45871735

> <GCUT_SLOGP_2>
0.044603854

> <GCUT_SLOGP_3>
2.347724

> <GCUT_SMR_0>
-0.52269965

> <GCUT_SMR_1>
-0.25975996

> <GCUT_SMR_2>
0.21321611

> <GCUT_SMR_3>
2.622874

> <Kier1>
14.409972

> <Kier2>
6.43787

> <Kier3>
3.3217993

> <KierA1>
10.630735

> <KierA2>
4.6568027

> <KierA3>
2.3679073

> <KierFlex>
2.7502909

> <lip_acc>
9

> <lip_don>
5

> <lip_druglike>
1

> <lip_violation>
0

> <logP(o/w)>
-2.1719999

> <logS>
-0.54413003

> <mr>
5.9686904

> <mutagenic>
0

> <nmol>
1

> <opr_brigid>
10

> <opr_leadlike>
1

> <opr_nring>
2

> <opr_nrot>
5

> <opr_violation>
1

> <PC+>
0

> <PC->
0

> <PEOE_PC+>
2.7760475

> <PEOE_PC->
-2.7760475

> <PEOE_RPC+>
0.10102887

> <PEOE_RPC->
0.14134416

> <PEOE_VSA+0>
0.0

> <PEOE_VSA+1>
59.760288

> <PEOE_VSA+2>
49.849545

> <PEOE_VSA+3>
43.747154

> <PEOE_VSA+4>
36.329918

> <PEOE_VSA+5>
12.949531

> <PEOE_VSA+6>
0.0

> <PEOE_VSA-0>
0.0

> <PEOE_VSA-1>
0.0

> <PEOE_VSA-2>
0.0

> <PEOE_VSA-3>
5.6825762

> <PEOE_VSA-4>
5.6825762

> <PEOE_VSA-5>
13.703812

> <PEOE_VSA-6>
24.689957

> <PEOE_VSA_FHYD>
0.63012081

> <PEOE_VSA_FNEG>
0.19714673

> <PEOE_VSA_FPNEG>
0.17463215

> <PEOE_VSA_FPOL>
0.36987922

> <PEOE_VSA_FPOS>
0.80285329

> <PEOE_VSA_FPPOS>
0.19524705

> <PEOE_VSA_HYD>
159.03957

> <PEOE_VSA_NEG>
49.758919

> <PEOE_VSA_PNEG>
44.076344

> <PEOE_VSA_POL>
93.355797

> <PEOE_VSA_POS>
202.63644

> <PEOE_VSA_PPOS>
49.279449

> <petitjean>
0.44444445

> <petitjeanSC>
0.80000001

> <Q_PC+>
0

> <Q_PC->
0

> <Q_RPC+>
0

> <Q_RPC->
0

> <Q_VSA_FHYD>
1

> <Q_VSA_FNEG>
0

> <Q_VSA_FPNEG>
0

> <Q_VSA_FPOL>
0

> <Q_VSA_FPOS>
1

> <Q_VSA_FPPOS>
0

> <Q_VSA_HYD>
252.39536

> <Q_VSA_NEG>
0

> <Q_VSA_PNEG>
0

> <Q_VSA_POL>
0

> <Q_VSA_POS>
252.39536

> <Q_VSA_PPOS>
0

> <radius>
5

> <reactive>
0

> <rings>
2

> <RPC+>
0

> <RPC->
0

> <rsynth>
1.0

> <SlogP>
-1.8336

> <SlogP_VSA0>
101.67839

> <SlogP_VSA1>
25.842499

> <SlogP_VSA2>
17.468536

> <SlogP_VSA3>
41.852516

> <SlogP_VSA4>
26.618963

> <SlogP_VSA5>
16.78553

> <SlogP_VSA6>
0.0

> <SlogP_VSA7>
16.78553

> <SlogP_VSA8>
0.0

> <SlogP_VSA9>
22.825352

> <SMR>
6.0225201

> <SMR_VSA0>
34.862103

> <SMR_VSA1>
86.240608

> <SMR_VSA2>
18.01075

> <SMR_VSA3>
9.2253971

> <SMR_VSA4>
35.225109

> <SMR_VSA5>
37.282959

> <SMR_VSA6>
49.010395

> <SMR_VSA7>
0.0

> <TPSA>
134.99001

> <VAdjEq>
0.52150291

> <VAdjMa>
5.2479277

> <VDistEq>
3.0568707

> <VDistMa>
8.0305634

> <vdw_area>
252.39536

> <vdw_vol>
296.71463

> <vsa_acc>
27.435829

> <vsa_acid>
0

> <vsa_base>
0

> <vsa_don>
23.425066

> <vsa_hyd>
59.275021

> <vsa_other>
91.161674

> <vsa_pol>
77.994736

> <Weight>
255.23399

> <weinerPath>
632

> <weinerPol>
26

> <zagreb>
90

$$$$
Row1584
 OpenBabel06061811532D

 18 18  0  0  0  0  0  0  0  0999 V2000
    0.0000    0.0000    0.0000 O   0  0  0  0  0  0  0  0  0  0  0  0
    0.0000    0.0000    0.0000 C   0  0  0  0  0  0  0  0  0  0  0  0
    0.0000    0.0000    0.0000 C   0  0  0  0  0  0  0  0  0  0  0  0
    0.0000    0.0000    0.0000 C   0  0  0  0  0  0  0  0  0  0  0  0
    0.0000    0.0000    0.0000 C   0  0  0  0  0  0  0  0  0  0  0  0
    0.0000    0.0000    0.0000 C   0  0  0  0  0  0  0  0  0  0  0  0
    0.0000    0.0000    0.0000 O   0  0  0  0  0  0  0  0  0  0  0  0
    0.0000    0.0000    0.0000 O   0  0  0  0  0  0  0  0  0  0  0  0
    0.0000    0.0000    0.0000 C   0  0  0  0  0  0  0  0  0  0  0  0
    0.0000    0.0000    0.0000 C   0  0  0  0  0  0  0  0  0  0  0  0
    0.0000    0.0000    0.0000 C   0  0  0  0  0  0  0  0  0  0  0  0
    0.0000    0.0000    0.0000 C   0  0  0  0  0  0  0  0  0  0  0  0
    0.0000    0.0000    0.0000 C   0  0  0  0  0  0  0  0  0  0  0  0
    0.0000    0.0000    0.0000 C   0  0  0  0  0  0  0  0  0  0  0  0
    0.0000    0.0000    0.0000 C   0  0  0  0  0  0  0  0  0  0  0  0
    0.0000    0.0000    0.0000 C   0  0  0  0  0  0  0  0  0  0  0  0
    0.0000    0.0000    0.0000 C   0  0  0  0  0  0  0  0  0  0  0  0
    0.0000    0.0000    0.0000 C   0  0  0  0  0  0  0  0  0  0  0  0
  1  2  1  0  0  0  0
  1 11  1  0  0  0  0
  2  3  1  0  0  0  0
  3  4  1  0  0  0  0
  4  5  1  0  0  0  0
  5  6  1  0  0  0  0
  5  9  1  0  0  0  0
  5 10  1  0  0  0  0
  6  7  1  0  0  0  0
  6  8  2  0  0  0  0
 11 16  1  0  0  0  0
 11 12  2  0  0  0  0
 12 13  1  0  0  0  0
 13 14  2  0  0  0  0
 13 18  1  0  0  0  0
 14 15  1  0  0  0  0
 15 16  2  0  0  0  0
 16 17  1  0  0  0  0
M  END
> <Index>
1585

> <ID>
HT0970

> <class>
1

> <apol>
43.475445

> <ast_fraglike>
0

> <ast_fraglike_ext>
0

> <ast_violation>
1

> <ast_violation_ext>
2

> <a_acc>
3

> <a_acid>
0

> <a_aro>
6

> <a_base>
0

> <a_count>
40

> <a_don>
2

> <a_donacc>
5

> <a_heavy>
18

> <a_hyd>
14

> <a_IC>
51.411381

> <a_ICM>
1.2852845

> <a_nB>
0

> <a_nBr>
0

> <a_nC>
15

> <a_nCl>
0

> <a_nF>
0

> <a_nH>
22

> <a_nI>
0

> <a_nN>
0

> <a_nO>
3

> <a_nP>
0

> <a_nS>
0

> <balabanJ>
2.216861

> <BCUT_PEOE_0>
-2.6696084

> <BCUT_PEOE_1>
-0.092544995

> <BCUT_PEOE_2>
0.056486338

> <BCUT_PEOE_3>
2.6818664

> <BCUT_SLOGP_0>
-2.629828

> <BCUT_SLOGP_1>
-0.037286155

> <BCUT_SLOGP_2>
0.12787536

> <BCUT_SLOGP_3>
2.7411695

> <BCUT_SMR_0>
-2.4410307

> <BCUT_SMR_1>
0.091671653

> <BCUT_SMR_2>
0.19968177

> <BCUT_SMR_3>
2.9105384

> <bpol>
26.924555

> <b_1rotN>
6

> <b_1rotR>
0.33333334

> <b_ar>
6

> <b_count>
40

> <b_double>
1

> <b_heavy>
18

> <b_max1len>
6

> <b_rotN>
6

> <b_rotR>
0.33333334

> <b_single>
33

> <b_triple>
0

> <chi0>
13.759149

> <chi0v>
11.617082

> <chi0v_C>
10.353372

> <chi0_C>
11.052042

> <chi1>
8.3262043

> <chi1v>
6.2621174

> <chi1v_C>
5.3415871

> <chi1_C>
6.2632556

> <chiral>
0

> <chiral_u>
0

> <density>
0.67824817

> <diameter>
10

> <FCharge>
0

> <GCUT_PEOE_0>
-0.79097635

> <GCUT_PEOE_1>
-0.27415681

> <GCUT_PEOE_2>
-0.10351367

> <GCUT_PEOE_3>
2.5557902

> <GCUT_SLOGP_0>
-0.89042896

> <GCUT_SLOGP_1>
-0.20906083

> <GCUT_SLOGP_2>
-0.037

> <GCUT_SLOGP_3>
2.6486506

> <GCUT_SMR_0>
-0.52705801

> <GCUT_SMR_1>
-0.094911948

> <GCUT_SMR_2>
-0.017290046

> <GCUT_SMR_3>
2.7905452

> <Kier1>
16.055555

> <Kier2>
6.9632001

> <Kier3>
5.2674899

> <KierA1>
13.235535

> <KierA2>
5.6702304

> <KierA3>
4.2505913

> <KierFlex>
4.1693625

> <lip_acc>
3

> <lip_don>
1

> <lip_druglike>
1

> <lip_violation>
0

> <logP(o/w)>
3.6960001

> <logS>
-2.7544899

> <mr>
7.2621903

> <mutagenic>
0

> <nmol>
1

> <opr_brigid>
6

> <opr_leadlike>
1

> <opr_nring>
1

> <opr_nrot>
6

> <opr_violation>
0

> <PC+>
0

> <PC->
0

> <PEOE_PC+>
1.3945767

> <PEOE_PC->
-1.3945767

> <PEOE_RPC+>
0.19021976

> <PEOE_RPC->
0.24697281

> <PEOE_VSA+0>
68.246178

> <PEOE_VSA+1>
44.736744

> <PEOE_VSA+2>
0.0

> <PEOE_VSA+3>
0.0

> <PEOE_VSA+4>
10.324173

> <PEOE_VSA+5>
14.708499

> <PEOE_VSA+6>
0.0

> <PEOE_VSA-0>
71.569962

> <PEOE_VSA-1>
62.005161

> <PEOE_VSA-2>
0.0

> <PEOE_VSA-3>
0.0

> <PEOE_VSA-4>
0.0

> <PEOE_VSA-5>
13.566921

> <PEOE_VSA-6>
10.271297

> <PEOE_VSA_FHYD>
0.83457649

> <PEOE_VSA_FNEG>
0.53282982

> <PEOE_VSA_FPNEG>
0.08069019

> <PEOE_VSA_FPOL>
0.1654235

> <PEOE_VSA_FPOS>
0.46717018

> <PEOE_VSA_FPPOS>
0.084733315

> <PEOE_VSA_HYD>
246.55804

> <PEOE_VSA_NEG>
157.41335

> <PEOE_VSA_PNEG>
23.838217

> <PEOE_VSA_POL>
48.870888

> <PEOE_VSA_POS>
138.01559

> <PEOE_VSA_PPOS>
25.032671

> <petitjean>
0.5

> <petitjeanSC>
1.0

> <Q_PC+>
0

> <Q_PC->
0

> <Q_RPC+>
0

> <Q_RPC->
0

> <Q_VSA_FHYD>
1

> <Q_VSA_FNEG>
0

> <Q_VSA_FPNEG>
0

> <Q_VSA_FPOL>
0

> <Q_VSA_FPOS>
1

> <Q_VSA_FPPOS>
0

> <Q_VSA_HYD>
295.42892

> <Q_VSA_NEG>
0

> <Q_VSA_PNEG>
0

> <Q_VSA_POL>
0

> <Q_VSA_POS>
295.42892

> <Q_VSA_PPOS>
0

> <radius>
5

> <reactive>
0

> <rings>
1

> <RPC+>
0

> <RPC->
0

> <rsynth>
1.0

> <SlogP>
3.57324

> <SlogP_VSA0>
10.999887

> <SlogP_VSA1>
7.7454643

> <SlogP_VSA2>
23.862217

> <SlogP_VSA3>
46.311485

> <SlogP_VSA4>
6.37115

> <SlogP_VSA5>
0.0

> <SlogP_VSA6>
0.0

> <SlogP_VSA7>
52.929554

> <SlogP_VSA8>
37.736813

> <SlogP_VSA9>
138.54749

> <SMR>
7.2061801

> <SMR_VSA0>
23.862217

> <SMR_VSA1>
10.999887

> <SMR_VSA2>
25.385227

> <SMR_VSA3>
11.614578

> <SMR_VSA4>
0.0

> <SMR_VSA5>
90.666367

> <SMR_VSA6>
28.671722

> <SMR_VSA7>
133.30406

> <TPSA>
46.529999

> <VAdjEq>
0.50325835

> <VAdjMa>
5.1699252

> <VDistEq>
3.2100329

> <VDistMa>
8.005497

> <vdw_area>
295.42892

> <vdw_vol>
369.09497

> <vsa_acc>
2.503756

> <vsa_acid>
0

> <vsa_base>
0

> <vsa_don>
0.0

> <vsa_hyd>
231.61035

> <vsa_other>
14.708499

> <vsa_pol>
29.637598

> <Weight>
250.338

> <weinerPath>
705

> <weinerPol>
24

> <zagreb>
86

$$$$
Row1585
 OpenBabel06061811532D

 34 36  0  0  1  0  0  0  0  0999 V2000
    0.0000    0.0000    0.0000 S   0  0  0  0  0  0  0  0  0  0  0  0
    0.0000    0.0000    0.0000 O   0  0  0  0  0  0  0  0  0  0  0  0
    0.0000    0.0000    0.0000 O   0  0  0  0  0  0  0  0  0  0  0  0
    0.0000    0.0000    0.0000 N   0  0  0  0  0  0  0  0  0  0  0  0
    0.0000    0.0000    0.0000 C   0  0  0  0  0  0  0  0  0  0  0  0
    0.0000    0.0000    0.0000 O   0  0  0  0  0  0  0  0  0  0  0  0
    0.0000    0.0000    0.0000 N   0  0  0  0  0  0  0  0  0  0  0  0
    0.0000    0.0000    0.0000 C   0  0  3  0  0  0  0  0  0  0  0  0
    0.0000    0.0000    0.0000 C   0  0  0  0  0  0  0  0  0  0  0  0
    0.0000    0.0000    0.0000 C   0  0  0  0  0  0  0  0  0  0  0  0
    0.0000    0.0000    0.0000 C   0  0  3  0  0  0  0  0  0  0  0  0
    0.0000    0.0000    0.0000 C   0  0  0  0  0  0  0  0  0  0  0  0
    0.0000    0.0000    0.0000 C   0  0  0  0  0  0  0  0  0  0  0  0
    0.0000    0.0000    0.0000 C   0  0  0  0  0  0  0  0  0  0  0  0
    0.0000    0.0000    0.0000 C   0  0  0  0  0  0  0  0  0  0  0  0
    0.0000    0.0000    0.0000 C   0  0  0  0  0  0  0  0  0  0  0  0
    0.0000    0.0000    0.0000 C   0  0  0  0  0  0  0  0  0  0  0  0
    0.0000    0.0000    0.0000 C   0  0  0  0  0  0  0  0  0  0  0  0
    0.0000    0.0000    0.0000 C   0  0  0  0  0  0  0  0  0  0  0  0
    0.0000    0.0000    0.0000 C   0  0  0  0  0  0  0  0  0  0  0  0
    0.0000    0.0000    0.0000 C   0  0  0  0  0  0  0  0  0  0  0  0
    0.0000    0.0000    0.0000 C   0  0  0  0  0  0  0  0  0  0  0  0
    0.0000    0.0000    0.0000 N   0  0  0  0  0  0  0  0  0  0  0  0
    0.0000    0.0000    0.0000 C   0  0  0  0  0  0  0  0  0  0  0  0
    0.0000    0.0000    0.0000 O   0  0  0  0  0  0  0  0  0  0  0  0
    0.0000    0.0000    0.0000 N   0  0  0  0  0  0  0  0  0  0  0  0
    0.0000    0.0000    0.0000 C   0  0  0  0  0  0  0  0  0  0  0  0
    0.0000    0.0000    0.0000 C   0  0  0  0  0  0  0  0  0  0  0  0
    0.0000    0.0000    0.0000 C   0  0  0  0  0  0  0  0  0  0  0  0
    0.0000    0.0000    0.0000 C   0  0  0  0  0  0  0  0  0  0  0  0
    0.0000    0.0000    0.0000 C   0  0  0  0  0  0  0  0  0  0  0  0
    0.0000    0.0000    0.0000 C   0  0  0  0  0  0  0  0  0  0  0  0
    0.0000    0.0000    0.0000 C   0  0  0  0  0  0  0  0  0  0  0  0
    0.0000    0.0000    0.0000 O   0  0  0  0  0  0  0  0  0  0  0  0
  1  2  2  0  0  0  0
  1  3  2  0  0  0  0
  1  4  1  0  0  0  0
  1 15  1  0  0  0  0
  4  5  1  0  0  0  0
  5  6  2  0  0  0  0
  5  7  1  0  0  0  0
  7  8  1  0  0  0  0
  8 13  1  0  0  0  0
  8  9  1  0  0  0  0
  9 10  1  0  0  0  0
 10 11  1  0  0  0  0
 11 12  1  0  0  0  0
 11 14  1  0  0  0  0
 12 13  1  0  0  0  0
 15 20  1  0  0  0  0
 15 16  2  0  0  0  0
 16 17  1  0  0  0  0
 17 18  2  0  0  0  0
 18 19  1  0  0  0  0
 18 21  1  0  0  0  0
 19 20  2  0  0  0  0
 21 22  1  0  0  0  0
 22 23  1  0  0  0  0
 23 24  1  0  0  0  0
 24 25  2  0  0  0  0
 24 26  1  0  0  0  0
 26 33  1  0  0  0  0
 26 27  1  0  0  0  0
 27 28  2  0  0  0  0
 28 29  1  0  0  0  0
 28 30  1  0  0  0  0
 30 31  1  0  0  0  0
 30 33  2  0  0  0  0
 31 32  1  0  0  0  0
 33 34  1  0  0  0  0
M  END
> <Index>
1586

> <ID>
HT0987

> <class>
1

> <apol>
76.220963

> <ast_fraglike>
0

> <ast_fraglike_ext>
0

> <ast_violation>
4

> <ast_violation_ext>
6

> <a_acc>
5

> <a_acid>
0

> <a_aro>
11

> <a_base>
0

> <a_count>
68

> <a_don>
4

> <a_donacc>
9

> <a_heavy>
34

> <a_hyd>
21

> <a_IC>
111.325

> <a_ICM>
1.6371323

> <a_nB>
0

> <a_nBr>
0

> <a_nC>
24

> <a_nCl>
0

> <a_nF>
0

> <a_nH>
34

> <a_nI>
0

> <a_nN>
4

> <a_nO>
5

> <a_nP>
0

> <a_nS>
1

> <balabanJ>
1.3324606

> <BCUT_PEOE_0>
-2.8325849

> <BCUT_PEOE_1>
-0.57575065

> <BCUT_PEOE_2>
0.59302819

> <BCUT_PEOE_3>
2.743803

> <BCUT_SLOGP_0>
-2.8103786

> <BCUT_SLOGP_1>
-0.45190454

> <BCUT_SLOGP_2>
0.63906235

> <BCUT_SLOGP_3>
2.8500581

> <BCUT_SMR_0>
-2.5590606

> <BCUT_SMR_1>
-0.38833919

> <BCUT_SMR_2>
0.74830139

> <BCUT_SMR_3>
3.0148993

> <bpol>
49.521038

> <b_1rotN>
8

> <b_1rotR>
0.22222222

> <b_ar>
11

> <b_count>
70

> <b_double>
2

> <b_heavy>
36

> <b_max1len>
4

> <b_rotN>
11

> <b_rotR>
0.30555555

> <b_single>
57

> <b_triple>
0

> <chi0>
24.880104

> <chi0v>
20.743364

> <chi0v_C>
15.491199

> <chi0_C>
16.681435

> <chi1>
16.101393

> <chi1v>
13.18884

> <chi1v_C>
8.2345991

> <chi1_C>
9.5192051

> <chiral>
0

> <chiral_u>
0

> <density>
0.76031059

> <diameter>
21

> <FCharge>
0

> <GCUT_PEOE_0>
-0.91891181

> <GCUT_PEOE_1>
-0.39826414

> <GCUT_PEOE_2>
0.064314611

> <GCUT_PEOE_3>
2.7449446

> <GCUT_SLOGP_0>
-1.1809947

> <GCUT_SLOGP_1>
-0.34774441

> <GCUT_SLOGP_2>
0.14671864

> <GCUT_SLOGP_3>
2.7849457

> <GCUT_SMR_0>
-0.53027713

> <GCUT_SMR_1>
-0.21212026

> <GCUT_SMR_2>
0.18112977

> <GCUT_SMR_3>
2.9995108

> <Kier1>
28.569445

> <Kier2>
12.991926

> <Kier3>
7.9979844

> <KierA1>
23.54707

> <KierA2>
10.641977

> <KierA3>
6.5228949

> <KierFlex>
7.3702164

> <lip_acc>
9

> <lip_don>
4

> <lip_druglike>
1

> <lip_violation>
0

> <logP(o/w)>
4.1849999

> <logS>
-4.8182402

> <mr>
13.207117

> <mutagenic>
0

> <nmol>
1

> <opr_brigid>
17

> <opr_leadlike>
0

> <opr_nring>
3

> <opr_nrot>
9

> <opr_violation>
2

> <PC+>
0

> <PC->
0

> <PEOE_PC+>
2.9781141

> <PEOE_PC->
-2.9781141

> <PEOE_RPC+>
0.11035655

> <PEOE_RPC->
0.16587915

> <PEOE_VSA+0>
163.29124

> <PEOE_VSA+1>
29.945944

> <PEOE_VSA+2>
17.440542

> <PEOE_VSA+3>
30.187557

> <PEOE_VSA+4>
20.429781

> <PEOE_VSA+5>
0.0

> <PEOE_VSA+6>
21.625143

> <PEOE_VSA-0>
117.6423

> <PEOE_VSA-1>
54.89798

> <PEOE_VSA-2>
0.0

> <PEOE_VSA-3>
2.5295215

> <PEOE_VSA-4>
13.566921

> <PEOE_VSA-5>
0.0

> <PEOE_VSA-6>
21.608244

> <PEOE_VSA_FHYD>
0.84339917

> <PEOE_VSA_FNEG>
0.42631754

> <PEOE_VSA_FPNEG>
0.071325317

> <PEOE_VSA_FPOL>
0.15660086

> <PEOE_VSA_FPOS>
0.57368243

> <PEOE_VSA_FPPOS>
0.085275538

> <PEOE_VSA_HYD>
415.93509

> <PEOE_VSA_NEG>
210.24496

> <PEOE_VSA_PNEG>
35.175163

> <PEOE_VSA_POL>
77.230087

> <PEOE_VSA_POS>
282.9202

> <PEOE_VSA_PPOS>
42.054924

> <petitjean>
0.47619048

> <petitjeanSC>
0.90909094

> <Q_PC+>
0

> <Q_PC->
0

> <Q_RPC+>
0

> <Q_RPC->
0

> <Q_VSA_FHYD>
1

> <Q_VSA_FNEG>
0

> <Q_VSA_FPNEG>
0

> <Q_VSA_FPOL>
0

> <Q_VSA_FPOS>
1

> <Q_VSA_FPPOS>
0

> <Q_VSA_HYD>
493.16516

> <Q_VSA_NEG>
0

> <Q_VSA_PNEG>
0

> <Q_VSA_POL>
0

> <Q_VSA_POS>
493.16516

> <Q_VSA_PPOS>
0

> <radius>
11

> <reactive>
0

> <rings>
3

> <RPC+>
0

> <RPC->
0

> <rsynth>
0.7647059

> <SlogP>
3.4314599

> <SlogP_VSA0>
77.811722

> <SlogP_VSA1>
59.730694

> <SlogP_VSA2>
10.622711

> <SlogP_VSA3>
18.439579

> <SlogP_VSA4>
13.967521

> <SlogP_VSA5>
39.287544

> <SlogP_VSA6>
0.0

> <SlogP_VSA7>
87.787094

> <SlogP_VSA8>
75.473625

> <SlogP_VSA9>
152.51707

> <SMR>
12.94277

> <SMR_VSA0>
95.896118

> <SMR_VSA1>
27.284319

> <SMR_VSA2>
58.388027

> <SMR_VSA3>
18.353294

> <SMR_VSA4>
0.0

> <SMR_VSA5>
200.99753

> <SMR_VSA6>
28.099491

> <SMR_VSA7>
106.61879

> <TPSA>
129.53

> <VAdjEq>
0.33644459

> <VAdjMa>
6.1699252

> <VDistEq>
4.1416411

> <VDistMa>
9.82903

> <vdw_area>
493.16516

> <vdw_vol>
645.29547

> <vsa_acc>
59.150364

> <vsa_acid>
0

> <vsa_base>
0

> <vsa_don>
19.440359

> <vsa_hyd>
306.62762

> <vsa_other>
57.936226

> <vsa_pol>
92.157646

> <Weight>
490.625

> <weinerPath>
4390

> <weinerPol>
52

> <zagreb>
174

$$$$
Row1586
 OpenBabel06061811532D

 31 33  0  0  0  0  0  0  0  0999 V2000
    0.0000    0.0000    0.0000 S   0  0  0  0  0  0  0  0  0  0  0  0
    0.0000    0.0000    0.0000 O   0  0  0  0  0  0  0  0  0  0  0  0
    0.0000    0.0000    0.0000 O   0  0  0  0  0  0  0  0  0  0  0  0
    0.0000    0.0000    0.0000 N   0  0  0  0  0  0  0  0  0  0  0  0
    0.0000    0.0000    0.0000 C   0  0  0  0  0  0  0  0  0  0  0  0
    0.0000    0.0000    0.0000 O   0  0  0  0  0  0  0  0  0  0  0  0
    0.0000    0.0000    0.0000 N   0  0  0  0  0  0  0  0  0  0  0  0
    0.0000    0.0000    0.0000 C   0  0  0  0  0  0  0  0  0  0  0  0
    0.0000    0.0000    0.0000 C   0  0  0  0  0  0  0  0  0  0  0  0
    0.0000    0.0000    0.0000 C   0  0  0  0  0  0  0  0  0  0  0  0
    0.0000    0.0000    0.0000 C   0  0  0  0  0  0  0  0  0  0  0  0
    0.0000    0.0000    0.0000 C   0  0  0  0  0  0  0  0  0  0  0  0
    0.0000    0.0000    0.0000 C   0  0  0  0  0  0  0  0  0  0  0  0
    0.0000    0.0000    0.0000 C   0  0  0  0  0  0  0  0  0  0  0  0
    0.0000    0.0000    0.0000 C   0  0  0  0  0  0  0  0  0  0  0  0
    0.0000    0.0000    0.0000 C   0  0  0  0  0  0  0  0  0  0  0  0
    0.0000    0.0000    0.0000 C   0  0  0  0  0  0  0  0  0  0  0  0
    0.0000    0.0000    0.0000 C   0  0  0  0  0  0  0  0  0  0  0  0
    0.0000    0.0000    0.0000 C   0  0  0  0  0  0  0  0  0  0  0  0
    0.0000    0.0000    0.0000 C   0  0  0  0  0  0  0  0  0  0  0  0
    0.0000    0.0000    0.0000 C   0  0  0  0  0  0  0  0  0  0  0  0
    0.0000    0.0000    0.0000 N   0  0  0  0  0  0  0  0  0  0  0  0
    0.0000    0.0000    0.0000 C   0  0  0  0  0  0  0  0  0  0  0  0
    0.0000    0.0000    0.0000 O   0  0  0  0  0  0  0  0  0  0  0  0
    0.0000    0.0000    0.0000 C   0  0  0  0  0  0  0  0  0  0  0  0
    0.0000    0.0000    0.0000 N   0  0  0  0  0  0  0  0  0  0  0  0
    0.0000    0.0000    0.0000 C   0  0  0  0  0  0  0  0  0  0  0  0
    0.0000    0.0000    0.0000 C   0  0  0  0  0  0  0  0  0  0  0  0
    0.0000    0.0000    0.0000 N   0  0  0  0  0  0  0  0  0  0  0  0
    0.0000    0.0000    0.0000 C   0  0  0  0  0  0  0  0  0  0  0  0
    0.0000    0.0000    0.0000 C   0  0  0  0  0  0  0  0  0  0  0  0
  1  2  2  0  0  0  0
  1  3  2  0  0  0  0
  1  4  1  0  0  0  0
  1 14  1  0  0  0  0
  4  5  1  0  0  0  0
  5  6  2  0  0  0  0
  5  7  1  0  0  0  0
  7  8  1  0  0  0  0
  8 13  1  0  0  0  0
  8  9  1  0  0  0  0
  9 10  1  0  0  0  0
 10 11  1  0  0  0  0
 11 12  1  0  0  0  0
 12 13  1  0  0  0  0
 14 19  1  0  0  0  0
 14 15  2  0  0  0  0
 15 16  1  0  0  0  0
 16 17  2  0  0  0  0
 17 18  1  0  0  0  0
 17 20  1  0  0  0  0
 18 19  2  0  0  0  0
 20 21  1  0  0  0  0
 21 22  1  0  0  0  0
 22 23  1  0  0  0  0
 23 24  2  0  0  0  0
 23 25  1  0  0  0  0
 25 30  1  0  0  0  0
 25 26  2  0  0  0  0
 26 27  1  0  0  0  0
 27 28  2  0  0  0  0
 28 29  1  0  0  0  0
 28 31  1  0  0  0  0
 29 30  2  0  0  0  0
M  END
> <Index>
1587

> <ID>
HT0988

> <class>
1

> <apol>
66.571411

> <ast_fraglike>
0

> <ast_fraglike_ext>
0

> <ast_violation>
2

> <ast_violation_ext>
4

> <a_acc>
6

> <a_acid>
0

> <a_aro>
12

> <a_base>
0

> <a_count>
58

> <a_don>
3

> <a_donacc>
9

> <a_heavy>
31

> <a_hyd>
19

> <a_IC>
99.532631

> <a_ICM>
1.7160798

> <a_nB>
0

> <a_nBr>
0

> <a_nC>
21

> <a_nCl>
0

> <a_nF>
0

> <a_nH>
27

> <a_nI>
0

> <a_nN>
5

> <a_nO>
4

> <a_nP>
0

> <a_nS>
1

> <balabanJ>
1.3060586

> <BCUT_PEOE_0>
-2.8065372

> <BCUT_PEOE_1>
-0.62590206

> <BCUT_PEOE_2>
0.5795244

> <BCUT_PEOE_3>
2.7123089

> <BCUT_SLOGP_0>
-2.7951715

> <BCUT_SLOGP_1>
-0.50877792

> <BCUT_SLOGP_2>
0.65408117

> <BCUT_SLOGP_3>
2.8320704

> <BCUT_SMR_0>
-2.5291383

> <BCUT_SMR_1>
-0.42762324

> <BCUT_SMR_2>
0.71189409

> <BCUT_SMR_3>
2.9867754

> <bpol>
42.528587

> <b_1rotN>
7

> <b_1rotR>
0.21212122

> <b_ar>
12

> <b_count>
60

> <b_double>
2

> <b_heavy>
33

> <b_max1len>
4

> <b_rotN>
10

> <b_rotR>
0.30303031

> <b_single>
46

> <b_triple>
0

> <chi0>
22.269375

> <chi0v>
18.243364

> <chi0v_C>
12.991199

> <chi0_C>
14.23384

> <chi1>
14.831337

> <chi1v>
11.807601

> <chi1v_C>
6.8187675

> <chi1_C>
8.084918

> <chiral>
0

> <chiral_u>
0

> <density>
0.78112388

> <diameter>
20

> <FCharge>
0

> <GCUT_PEOE_0>
-0.91882551

> <GCUT_PEOE_1>
-0.42604694

> <GCUT_PEOE_2>
0.064852923

> <GCUT_PEOE_3>
2.6595347

> <GCUT_SLOGP_0>
-1.1809707

> <GCUT_SLOGP_1>
-0.38208824

> <GCUT_SLOGP_2>
0.16422103

> <GCUT_SLOGP_3>
2.6879084

> <GCUT_SMR_0>
-0.52668744

> <GCUT_SMR_1>
-0.21576932

> <GCUT_SMR_2>
0.18548316

> <GCUT_SMR_3>
2.9162171

> <Kier1>
25.619835

> <Kier2>
12.459259

> <Kier3>
8.3730869

> <KierA1>
20.329933

> <KierA2>
9.8058567

> <KierA3>
6.5503683

> <KierFlex>
6.4307227

> <lip_acc>
9

> <lip_don>
3

> <lip_druglike>
1

> <lip_violation>
0

> <logP(o/w)>
1.50253

> <logS>
-3.04795

> <mr>
11.928211

> <mutagenic>
0

> <nmol>
1

> <opr_brigid>
18

> <opr_leadlike>
1

> <opr_nring>
3

> <opr_nrot>
8

> <opr_violation>
1

> <PC+>
0

> <PC->
0

> <PEOE_PC+>
2.7409894

> <PEOE_PC->
-2.7409894

> <PEOE_RPC+>
0.1154863

> <PEOE_RPC->
0.18022944

> <PEOE_VSA+0>
131.22499

> <PEOE_VSA+1>
57.656796

> <PEOE_VSA+2>
24.140093

> <PEOE_VSA+3>
17.238026

> <PEOE_VSA+4>
10.105608

> <PEOE_VSA+5>
12.949531

> <PEOE_VSA+6>
4.1846013

> <PEOE_VSA-0>
106.73244

> <PEOE_VSA-1>
26.103939

> <PEOE_VSA-2>
0.0

> <PEOE_VSA-3>
2.5295215

> <PEOE_VSA-4>
5.6825762

> <PEOE_VSA-5>
19.249496

> <PEOE_VSA-6>
13.840703

> <PEOE_VSA_FHYD>
0.84706521

> <PEOE_VSA_FNEG>
0.40343657

> <PEOE_VSA_FPNEG>
0.089827001

> <PEOE_VSA_FPOL>
0.15293479

> <PEOE_VSA_FPOS>
0.59656346

> <PEOE_VSA_FPPOS>
0.063107789

> <PEOE_VSA_HYD>
365.62582

> <PEOE_VSA_NEG>
174.13869

> <PEOE_VSA_PNEG>
38.772778

> <PEOE_VSA_POL>
66.01252

> <PEOE_VSA_POS>
257.49966

> <PEOE_VSA_PPOS>
27.23974

> <petitjean>
0.5

> <petitjeanSC>
1.0

> <Q_PC+>
0

> <Q_PC->
0

> <Q_RPC+>
0

> <Q_RPC->
0

> <Q_VSA_FHYD>
1

> <Q_VSA_FNEG>
0

> <Q_VSA_FPNEG>
0

> <Q_VSA_FPOL>
0

> <Q_VSA_FPOS>
1

> <Q_VSA_FPPOS>
0

> <Q_VSA_HYD>
431.63834

> <Q_VSA_NEG>
0

> <Q_VSA_PNEG>
0

> <Q_VSA_POL>
0

> <Q_VSA_POS>
431.63834

> <Q_VSA_PPOS>
0

> <radius>
10

> <reactive>
0

> <rings>
3

> <RPC+>
0

> <RPC->
0

> <rsynth>
1.0

> <SlogP>
2.07809

> <SlogP_VSA0>
52.426498

> <SlogP_VSA1>
91.83149

> <SlogP_VSA2>
10.622711

> <SlogP_VSA3>
18.439579

> <SlogP_VSA4>
32.561287

> <SlogP_VSA5>
20.41914

> <SlogP_VSA6>
0.0

> <SlogP_VSA7>
105.00145

> <SlogP_VSA8>
94.342026

> <SlogP_VSA9>
57.188232

> <SMR>
11.49744

> <SMR_VSA0>
95.896118

> <SMR_VSA1>
33.57106

> <SMR_VSA2>
53.977234

> <SMR_VSA3>
12.681039

> <SMR_VSA4>
0.0

> <SMR_VSA5>
218.21188

> <SMR_VSA6>
28.528318

> <SMR_VSA7>
39.966759

> <TPSA>
130.14999

> <VAdjEq>
0.36097246

> <VAdjMa>
6.044394

> <VDistEq>
4.059814

> <VDistMa>
9.5601654

> <vdw_area>
431.63834

> <vdw_vol>
570.38837

> <vsa_acc>
70.515518

> <vsa_acid>
0

> <vsa_base>
0

> <vsa_don>
19.440359

> <vsa_hyd>
274.8837

> <vsa_other>
40.495682

> <vsa_pol>
89.955879

> <Weight>
445.54401

> <weinerPath>
3430

> <weinerPol>
44

> <zagreb>
156

$$$$
Row1587
 OpenBabel06061811532D

 33 35  0  0  0  0  0  0  0  0999 V2000
    0.0000    0.0000    0.0000 Cl  0  0  0  0  0  0  0  0  0  0  0  0
    0.0000    0.0000    0.0000 C   0  0  0  0  0  0  0  0  0  0  0  0
    0.0000    0.0000    0.0000 C   0  0  0  0  0  0  0  0  0  0  0  0
    0.0000    0.0000    0.0000 C   0  0  0  0  0  0  0  0  0  0  0  0
    0.0000    0.0000    0.0000 C   0  0  0  0  0  0  0  0  0  0  0  0
    0.0000    0.0000    0.0000 O   0  0  0  0  0  0  0  0  0  0  0  0
    0.0000    0.0000    0.0000 N   0  0  0  0  0  0  0  0  0  0  0  0
    0.0000    0.0000    0.0000 C   0  0  0  0  0  0  0  0  0  0  0  0
    0.0000    0.0000    0.0000 C   0  0  0  0  0  0  0  0  0  0  0  0
    0.0000    0.0000    0.0000 C   0  0  0  0  0  0  0  0  0  0  0  0
    0.0000    0.0000    0.0000 C   0  0  0  0  0  0  0  0  0  0  0  0
    0.0000    0.0000    0.0000 C   0  0  0  0  0  0  0  0  0  0  0  0
    0.0000    0.0000    0.0000 C   0  0  0  0  0  0  0  0  0  0  0  0
    0.0000    0.0000    0.0000 S   0  0  0  0  0  0  0  0  0  0  0  0
    0.0000    0.0000    0.0000 O   0  0  0  0  0  0  0  0  0  0  0  0
    0.0000    0.0000    0.0000 O   0  0  0  0  0  0  0  0  0  0  0  0
    0.0000    0.0000    0.0000 N   0  0  0  0  0  0  0  0  0  0  0  0
    0.0000    0.0000    0.0000 C   0  0  0  0  0  0  0  0  0  0  0  0
    0.0000    0.0000    0.0000 O   0  0  0  0  0  0  0  0  0  0  0  0
    0.0000    0.0000    0.0000 N   0  0  0  0  0  0  0  0  0  0  0  0
    0.0000    0.0000    0.0000 C   0  0  0  0  0  0  0  0  0  0  0  0
    0.0000    0.0000    0.0000 C   0  0  0  0  0  0  0  0  0  0  0  0
    0.0000    0.0000    0.0000 C   0  0  0  0  0  0  0  0  0  0  0  0
    0.0000    0.0000    0.0000 C   0  0  0  0  0  0  0  0  0  0  0  0
    0.0000    0.0000    0.0000 C   0  0  0  0  0  0  0  0  0  0  0  0
    0.0000    0.0000    0.0000 C   0  0  0  0  0  0  0  0  0  0  0  0
    0.0000    0.0000    0.0000 C   0  0  0  0  0  0  0  0  0  0  0  0
    0.0000    0.0000    0.0000 C   0  0  0  0  0  0  0  0  0  0  0  0
    0.0000    0.0000    0.0000 C   0  0  0  0  0  0  0  0  0  0  0  0
    0.0000    0.0000    0.0000 O   0  0  0  0  0  0  0  0  0  0  0  0
    0.0000    0.0000    0.0000 C   0  0  0  0  0  0  0  0  0  0  0  0
    0.0000    0.0000    0.0000 C   0  0  0  0  0  0  0  0  0  0  0  0
    0.0000    0.0000    0.0000 C   0  0  0  0  0  0  0  0  0  0  0  0
  1  2  1  0  0  0  0
  2 33  1  0  0  0  0
  2  3  2  0  0  0  0
  3  4  1  0  0  0  0
  4  5  1  0  0  0  0
  4 29  2  0  0  0  0
  5  6  2  0  0  0  0
  5  7  1  0  0  0  0
  7  8  1  0  0  0  0
  8  9  1  0  0  0  0
  9 10  1  0  0  0  0
 10 28  1  0  0  0  0
 10 11  2  0  0  0  0
 11 12  1  0  0  0  0
 12 13  2  0  0  0  0
 13 14  1  0  0  0  0
 13 27  1  0  0  0  0
 14 15  2  0  0  0  0
 14 16  2  0  0  0  0
 14 17  1  0  0  0  0
 17 18  1  0  0  0  0
 18 19  2  0  0  0  0
 18 20  1  0  0  0  0
 20 21  1  0  0  0  0
 21 26  1  0  0  0  0
 21 22  1  0  0  0  0
 22 23  1  0  0  0  0
 23 24  1  0  0  0  0
 24 25  1  0  0  0  0
 25 26  1  0  0  0  0
 27 28  2  0  0  0  0
 29 30  1  0  0  0  0
 29 32  1  0  0  0  0
 30 31  1  0  0  0  0
 32 33  2  0  0  0  0
M  END
> <Index>
1588

> <ID>
HT0995

> <class>
1

> <apol>
71.540207

> <ast_fraglike>
0

> <ast_fraglike_ext>
0

> <ast_violation>
3

> <ast_violation_ext>
5

> <a_acc>
5

> <a_acid>
0

> <a_aro>
12

> <a_base>
0

> <a_count>
61

> <a_don>
3

> <a_donacc>
8

> <a_heavy>
33

> <a_hyd>
22

> <a_IC>
106.76259

> <a_ICM>
1.7502064

> <a_nB>
0

> <a_nBr>
0

> <a_nC>
23

> <a_nCl>
1

> <a_nF>
0

> <a_nH>
28

> <a_nI>
0

> <a_nN>
3

> <a_nO>
5

> <a_nP>
0

> <a_nS>
1

> <balabanJ>
1.3389518

> <BCUT_PEOE_0>
-2.8065374

> <BCUT_PEOE_1>
-0.62590206

> <BCUT_PEOE_2>
0.59882605

> <BCUT_PEOE_3>
2.7123089

> <BCUT_SLOGP_0>
-2.7951713

> <BCUT_SLOGP_1>
-0.53807992

> <BCUT_SLOGP_2>
0.7126022

> <BCUT_SLOGP_3>
2.8320704

> <BCUT_SMR_0>
-2.5291383

> <BCUT_SMR_1>
-0.42762235

> <BCUT_SMR_2>
0.78269184

> <BCUT_SMR_3>
2.9867754

> <bpol>
43.317795

> <b_1rotN>
8

> <b_1rotR>
0.22857143

> <b_ar>
12

> <b_count>
63

> <b_double>
2

> <b_heavy>
35

> <b_max1len>
4

> <b_rotN>
11

> <b_rotR>
0.31428573

> <b_single>
49

> <b_triple>
0

> <chi0>
23.846724

> <chi0v>
19.96843

> <chi0v_C>
14.068549

> <chi0_C>
15.518297

> <chi1>
15.780025

> <chi1v>
12.683991

> <chi1v_C>
7.4794512

> <chi1_C>
9.1573982

> <chiral>
0

> <chiral_u>
0

> <density>
0.80306673

> <diameter>
19

> <FCharge>
0

> <GCUT_PEOE_0>
-0.91882569

> <GCUT_PEOE_1>
-0.42632425

> <GCUT_PEOE_2>
0.064852886

> <GCUT_PEOE_3>
2.678035

> <GCUT_SLOGP_0>
-1.1809708

> <GCUT_SLOGP_1>
-0.35167611

> <GCUT_SLOGP_2>
0.16445385

> <GCUT_SLOGP_3>
2.7148163

> <GCUT_SMR_0>
-0.52668738

> <GCUT_SMR_1>
-0.20723963

> <GCUT_SMR_2>
0.1867782

> <GCUT_SMR_3>
2.9380269

> <Kier1>
27.585306

> <Kier2>
13.347222

> <Kier3>
8.5612364

> <KierA1>
23.425711

> <KierA2>
11.273905

> <KierA3>
7.2031708

> <KierFlex>
8.0030079

> <lip_acc>
8

> <lip_don>
3

> <lip_druglike>
1

> <lip_violation>
0

> <logP(o/w)>
4.1360002

> <logS>
-5.8825898

> <mr>
12.977388

> <mutagenic>
0

> <nmol>
1

> <opr_brigid>
18

> <opr_leadlike>
1

> <opr_nring>
3

> <opr_nrot>
9

> <opr_violation>
1

> <PC+>
0

> <PC->
0

> <PEOE_PC+>
2.7494471

> <PEOE_PC->
-2.7494471

> <PEOE_RPC+>
0.11513105

> <PEOE_RPC->
0.17967504

> <PEOE_VSA+0>
131.20033

> <PEOE_VSA+1>
61.939934

> <PEOE_VSA+2>
17.440542

> <PEOE_VSA+3>
17.238026

> <PEOE_VSA+4>
10.105608

> <PEOE_VSA+5>
12.949531

> <PEOE_VSA+6>
4.1846013

> <PEOE_VSA-0>
124.74948

> <PEOE_VSA-1>
55.685886

> <PEOE_VSA-2>
0.0

> <PEOE_VSA-3>
2.5295215

> <PEOE_VSA-4>
0.0

> <PEOE_VSA-5>
13.566921

> <PEOE_VSA-6>
16.34446

> <PEOE_VSA_FHYD>
0.8778652

> <PEOE_VSA_FNEG>
0.45492718

> <PEOE_VSA_FPNEG>
0.063922107

> <PEOE_VSA_FPOL>
0.12213478

> <PEOE_VSA_FPOS>
0.54507285

> <PEOE_VSA_FPPOS>
0.058212679

> <PEOE_VSA_HYD>
410.78372

> <PEOE_VSA_NEG>
212.87627

> <PEOE_VSA_PNEG>
29.911381

> <PEOE_VSA_POL>
57.151119

> <PEOE_VSA_POS>
255.05856

> <PEOE_VSA_PPOS>
27.23974

> <petitjean>
0.47368422

> <petitjeanSC>
0.89999998

> <Q_PC+>
0

> <Q_PC->
0

> <Q_RPC+>
0

> <Q_RPC->
0

> <Q_VSA_FHYD>
1

> <Q_VSA_FNEG>
0

> <Q_VSA_FPNEG>
0

> <Q_VSA_FPOL>
0

> <Q_VSA_FPOS>
1

> <Q_VSA_FPPOS>
0

> <Q_VSA_HYD>
467.93484

> <Q_VSA_NEG>
0

> <Q_VSA_PNEG>
0

> <Q_VSA_POL>
0

> <Q_VSA_POS>
467.93484

> <Q_VSA_PPOS>
0

> <radius>
10

> <reactive>
0

> <rings>
3

> <RPC+>
0

> <RPC->
0

> <rsynth>
1.0

> <SlogP>
3.64167

> <SlogP_VSA0>
63.426388

> <SlogP_VSA1>
58.260429

> <SlogP_VSA2>
10.622711

> <SlogP_VSA3>
18.439579

> <SlogP_VSA4>
30.233366

> <SlogP_VSA5>
55.803009

> <SlogP_VSA6>
3.5006065

> <SlogP_VSA7>
123.50229

> <SlogP_VSA8>
94.342026

> <SlogP_VSA9>
68.254288

> <SMR>
12.62094

> <SMR_VSA0>
95.896118

> <SMR_VSA1>
10.999887

> <SMR_VSA2>
53.977234

> <SMR_VSA3>
19.097153

> <SMR_VSA4>
0.0

> <SMR_VSA5>
236.71272

> <SMR_VSA6>
28.528318

> <SMR_VSA7>
81.173256

> <TPSA>
113.6

> <VAdjEq>
0.3442024

> <VAdjMa>
6.129283

> <VDistEq>
4.0739555

> <VDistMa>
9.7481441

> <vdw_area>
467.93484

> <vdw_vol>
615.15686

> <vsa_acc>
61.654121

> <vsa_acid>
0

> <vsa_base>
0

> <vsa_don>
19.440359

> <vsa_hyd>
319.3298

> <vsa_other>
40.495682

> <vsa_pol>
81.094482

> <Weight>
494.01199

> <weinerPath>
3998

> <weinerPol>
49

> <zagreb>
166

$$$$
Row1588
 OpenBabel06061811532D

 26 28  0  0  1  0  0  0  0  0999 V2000
    0.0000    0.0000    0.0000 Cl  0  0  0  0  0  0  0  0  0  0  0  0
    0.0000    0.0000    0.0000 C   0  0  0  0  0  0  0  0  0  0  0  0
    0.0000    0.0000    0.0000 C   0  0  0  0  0  0  0  0  0  0  0  0
    0.0000    0.0000    0.0000 C   0  0  0  0  0  0  0  0  0  0  0  0
    0.0000    0.0000    0.0000 C   0  0  0  0  0  0  0  0  0  0  0  0
    0.0000    0.0000    0.0000 C   0  0  0  0  0  0  0  0  0  0  0  0
    0.0000    0.0000    0.0000 C   0  0  0  0  0  0  0  0  0  0  0  0
    0.0000    0.0000    0.0000 C   0  0  3  0  0  0  0  0  0  0  0  0
    0.0000    0.0000    0.0000 O   0  0  0  0  0  0  0  0  0  0  0  0
    0.0000    0.0000    0.0000 C   0  0  0  0  0  0  0  0  0  0  0  0
    0.0000    0.0000    0.0000 C   0  0  0  0  0  0  0  0  0  0  0  0
    0.0000    0.0000    0.0000 N   0  0  0  0  0  0  0  0  0  0  0  0
    0.0000    0.0000    0.0000 C   0  0  0  0  0  0  0  0  0  0  0  0
    0.0000    0.0000    0.0000 C   0  0  0  0  0  0  0  0  0  0  0  0
    0.0000    0.0000    0.0000 C   0  0  0  0  0  0  0  0  0  0  0  0
    0.0000    0.0000    0.0000 C   0  0  0  0  0  0  0  0  0  0  0  0
    0.0000    0.0000    0.0000 C   0  0  0  0  0  0  0  0  0  0  0  0
    0.0000    0.0000    0.0000 C   0  0  0  0  0  0  0  0  0  0  0  0
    0.0000    0.0000    0.0000 O   0  0  0  0  0  0  0  0  0  0  0  0
    0.0000    0.0000    0.0000 C   0  0  0  0  0  0  0  0  0  0  0  0
    0.0000    0.0000    0.0000 C   0  0  0  0  0  0  0  0  0  0  0  0
    0.0000    0.0000    0.0000 C   0  0  0  0  0  0  0  0  0  0  0  0
    0.0000    0.0000    0.0000 C   0  0  0  0  0  0  0  0  0  0  0  0
    0.0000    0.0000    0.0000 F   0  0  0  0  0  0  0  0  0  0  0  0
    0.0000    0.0000    0.0000 C   0  0  0  0  0  0  0  0  0  0  0  0
    0.0000    0.0000    0.0000 C   0  0  0  0  0  0  0  0  0  0  0  0
  1  2  1  0  0  0  0
  2  7  1  0  0  0  0
  2  3  2  0  0  0  0
  3  4  1  0  0  0  0
  4  5  2  0  0  0  0
  5  6  1  0  0  0  0
  5  8  1  0  0  0  0
  6  7  2  0  0  0  0
  8 14  1  0  0  0  0
  8  9  1  0  0  0  0
  8 10  1  0  0  0  0
 10 11  1  0  0  0  0
 11 12  1  0  0  0  0
 12 13  1  0  0  0  0
 12 15  1  0  0  0  0
 13 14  1  0  0  0  0
 15 16  1  0  0  0  0
 16 17  1  0  0  0  0
 17 18  1  0  0  0  0
 18 19  2  0  0  0  0
 18 20  1  0  0  0  0
 20 26  1  0  0  0  0
 20 21  2  0  0  0  0
 21 22  1  0  0  0  0
 22 23  2  0  0  0  0
 23 24  1  0  0  0  0
 23 25  1  0  0  0  0
 25 26  2  0  0  0  0
M  END
> <Index>
1589

> <ID>
HT1017

> <class>
1

> <apol>
57.73724

> <ast_fraglike>
0

> <ast_fraglike_ext>
0

> <ast_violation>
2

> <ast_violation_ext>
3

> <a_acc>
3

> <a_acid>
0

> <a_aro>
12

> <a_base>
0

> <a_count>
49

> <a_don>
1

> <a_donacc>
4

> <a_heavy>
26

> <a_hyd>
22

> <a_IC>
76.840195

> <a_ICM>
1.5681672

> <a_nB>
0

> <a_nBr>
0

> <a_nC>
21

> <a_nCl>
1

> <a_nF>
1

> <a_nH>
23

> <a_nI>
0

> <a_nN>
1

> <a_nO>
2

> <a_nP>
0

> <a_nS>
0

> <balabanJ>
1.3265237

> <BCUT_PEOE_0>
-2.7920995

> <BCUT_PEOE_1>
-0.64061767

> <BCUT_PEOE_2>
0.69514072

> <BCUT_PEOE_3>
2.7403922

> <BCUT_SLOGP_0>
-2.8023071

> <BCUT_SLOGP_1>
-0.53807992

> <BCUT_SLOGP_2>
0.80591482

> <BCUT_SLOGP_3>
2.7879086

> <BCUT_SMR_0>
-2.5297687

> <BCUT_SMR_1>
-0.49986199

> <BCUT_SMR_2>
0.85431087

> <BCUT_SMR_3>
2.9943554

> <bpol>
29.704762

> <b_1rotN>
6

> <b_1rotR>
0.21428572

> <b_ar>
12

> <b_count>
51

> <b_double>
1

> <b_heavy>
28

> <b_max1len>
4

> <b_rotN>
6

> <b_rotR>
0.21428572

> <b_single>
38

> <b_triple>
0

> <chi0>
18.570704

> <chi0v>
15.383083

> <chi0v_C>
12.568549

> <chi0_C>
13.993353

> <chi1>
12.460146

> <chi1v>
9.3357382

> <chi1v_C>
7.2033944

> <chi1_C>
9.0033503

> <chiral>
0

> <chiral_u>
0

> <density>
0.75702226

> <diameter>
17

> <FCharge>
0

> <GCUT_PEOE_0>
-0.85738176

> <GCUT_PEOE_1>
-0.38992807

> <GCUT_PEOE_2>
0.081409425

> <GCUT_PEOE_3>
2.7805417

> <GCUT_SLOGP_0>
-0.95250767

> <GCUT_SLOGP_1>
-0.26386139

> <GCUT_SLOGP_2>
0.1852041

> <GCUT_SLOGP_3>
2.8467832

> <GCUT_SMR_0>
-0.52270555

> <GCUT_SMR_1>
-0.21605732

> <GCUT_SMR_2>
0.19305076

> <GCUT_SMR_3>
3.0252602

> <Kier1>
20.727041

> <Kier2>
9.4674559

> <Kier3>
5.75

> <KierA1>
17.338472

> <KierA2>
7.8599076

> <KierA3>
4.7478652

> <KierFlex>
5.2414923

> <lip_acc>
3

> <lip_don>
1

> <lip_druglike>
1

> <lip_violation>
0

> <logP(o/w)>
4.598

> <logS>
-4.8183799

> <mr>
10.365606

> <mutagenic>
0

> <nmol>
1

> <opr_brigid>
18

> <opr_leadlike>
1

> <opr_nring>
3

> <opr_nrot>
8

> <opr_violation>
1

> <PC+>
0

> <PC->
0

> <PEOE_PC+>
1.6745889

> <PEOE_PC->
-1.6745889

> <PEOE_RPC+>
0.12577261

> <PEOE_RPC->
0.22923207

> <PEOE_VSA+0>
101.52966

> <PEOE_VSA+1>
34.123089

> <PEOE_VSA+2>
9.0208454

> <PEOE_VSA+3>
8.458519

> <PEOE_VSA+4>
10.324173

> <PEOE_VSA+5>
0.0

> <PEOE_VSA+6>
0.0

> <PEOE_VSA-0>
115.03423

> <PEOE_VSA-1>
54.091755

> <PEOE_VSA-2>
0.0

> <PEOE_VSA-3>
0.0

> <PEOE_VSA-4>
11.908636

> <PEOE_VSA-5>
13.566921

> <PEOE_VSA-6>
7.7675405

> <PEOE_VSA_FHYD>
0.88090694

> <PEOE_VSA_FNEG>
0.55318493

> <PEOE_VSA_FPNEG>
0.090871491

> <PEOE_VSA_FPOL>
0.11909308

> <PEOE_VSA_FPOS>
0.44681504

> <PEOE_VSA_FPPOS>
0.028221589

> <PEOE_VSA_HYD>
322.25809

> <PEOE_VSA_NEG>
202.36908

> <PEOE_VSA_PNEG>
33.243095

> <PEOE_VSA_POL>
43.567268

> <PEOE_VSA_POS>
163.45628

> <PEOE_VSA_PPOS>
10.324173

> <petitjean>
0.47058824

> <petitjeanSC>
0.8888889

> <Q_PC+>
0

> <Q_PC->
0

> <Q_RPC+>
0

> <Q_RPC->
0

> <Q_VSA_FHYD>
1

> <Q_VSA_FNEG>
0

> <Q_VSA_FPNEG>
0

> <Q_VSA_FPOL>
0

> <Q_VSA_FPOS>
1

> <Q_VSA_FPPOS>
0

> <Q_VSA_HYD>
365.82535

> <Q_VSA_NEG>
0

> <Q_VSA_PNEG>
0

> <Q_VSA_POL>
0

> <Q_VSA_POS>
365.82535

> <Q_VSA_PPOS>
0

> <radius>
9

> <reactive>
1

> <rings>
3

> <RPC+>
0

> <RPC->
0

> <rsynth>
1.0

> <SlogP>
4.7371001

> <SlogP_VSA0>
25.385227

> <SlogP_VSA1>
8.8119249

> <SlogP_VSA2>
9.1210184

> <SlogP_VSA3>
55.318733

> <SlogP_VSA4>
30.233366

> <SlogP_VSA5>
0.0

> <SlogP_VSA6>
3.5006065

> <SlogP_VSA7>
141.14548

> <SlogP_VSA8>
75.473625

> <SlogP_VSA9>
54.108757

> <SMR>
10.11043

> <SMR_VSA0>
23.862217

> <SMR_VSA1>
43.469654

> <SMR_VSA2>
9.1210184

> <SMR_VSA3>
9.8717566

> <SMR_VSA4>
0.0

> <SMR_VSA5>
216.61909

> <SMR_VSA6>
61.006344

> <SMR_VSA7>
39.148643

> <TPSA>
40.540001

> <VAdjEq>
0.41210872

> <VAdjMa>
5.8073549

> <VDistEq>
3.8023999

> <VDistMa>
9.0479355

> <vdw_area>
365.82535

> <vdw_vol>
496.51245

> <vsa_acc>
13.566921

> <vsa_acid>
0

> <vsa_base>
0

> <vsa_don>
0.0

> <vsa_hyd>
310.04871

> <vsa_other>
8.458519

> <vsa_pol>
27.133842

> <Weight>
375.871

> <weinerPath>
2035

> <weinerPol>
39

> <zagreb>
134

$$$$
Row1589
 OpenBabel06061811532D

 37 39  0  0  1  0  0  0  0  0999 V2000
    0.0000    0.0000    0.0000 Cl  0  0  0  0  0  0  0  0  0  0  0  0
    0.0000    0.0000    0.0000 C   0  0  0  0  0  0  0  0  0  0  0  0
    0.0000    0.0000    0.0000 C   0  0  0  0  0  0  0  0  0  0  0  0
    0.0000    0.0000    0.0000 C   0  0  0  0  0  0  0  0  0  0  0  0
    0.0000    0.0000    0.0000 C   0  0  0  0  0  0  0  0  0  0  0  0
    0.0000    0.0000    0.0000 C   0  0  0  0  0  0  0  0  0  0  0  0
    0.0000    0.0000    0.0000 C   0  0  0  0  0  0  0  0  0  0  0  0
    0.0000    0.0000    0.0000 C   0  0  3  0  0  0  0  0  0  0  0  0
    0.0000    0.0000    0.0000 O   0  0  0  0  0  0  0  0  0  0  0  0
    0.0000    0.0000    0.0000 C   0  0  0  0  0  0  0  0  0  0  0  0
    0.0000    0.0000    0.0000 O   0  0  0  0  0  0  0  0  0  0  0  0
    0.0000    0.0000    0.0000 C   0  0  0  0  0  0  0  0  0  0  0  0
    0.0000    0.0000    0.0000 C   0  0  0  0  0  0  0  0  0  0  0  0
    0.0000    0.0000    0.0000 C   0  0  0  0  0  0  0  0  0  0  0  0
    0.0000    0.0000    0.0000 C   0  0  0  0  0  0  0  0  0  0  0  0
    0.0000    0.0000    0.0000 C   0  0  0  0  0  0  0  0  0  0  0  0
    0.0000    0.0000    0.0000 C   0  0  0  0  0  0  0  0  0  0  0  0
    0.0000    0.0000    0.0000 C   0  0  0  0  0  0  0  0  0  0  0  0
    0.0000    0.0000    0.0000 C   0  0  0  0  0  0  0  0  0  0  0  0
    0.0000    0.0000    0.0000 C   0  0  0  0  0  0  0  0  0  0  0  0
    0.0000    0.0000    0.0000 C   0  0  0  0  0  0  0  0  0  0  0  0
    0.0000    0.0000    0.0000 C   0  0  0  0  0  0  0  0  0  0  0  0
    0.0000    0.0000    0.0000 N   0  0  0  0  0  0  0  0  0  0  0  0
    0.0000    0.0000    0.0000 C   0  0  0  0  0  0  0  0  0  0  0  0
    0.0000    0.0000    0.0000 C   0  0  0  0  0  0  0  0  0  0  0  0
    0.0000    0.0000    0.0000 C   0  0  0  0  0  0  0  0  0  0  0  0
    0.0000    0.0000    0.0000 C   0  0  0  0  0  0  0  0  0  0  0  0
    0.0000    0.0000    0.0000 C   0  0  0  0  0  0  0  0  0  0  0  0
    0.0000    0.0000    0.0000 C   0  0  0  0  0  0  0  0  0  0  0  0
    0.0000    0.0000    0.0000 O   0  0  0  0  0  0  0  0  0  0  0  0
    0.0000    0.0000    0.0000 C   0  0  0  0  0  0  0  0  0  0  0  0
    0.0000    0.0000    0.0000 C   0  0  0  0  0  0  0  0  0  0  0  0
    0.0000    0.0000    0.0000 C   0  0  0  0  0  0  0  0  0  0  0  0
    0.0000    0.0000    0.0000 C   0  0  0  0  0  0  0  0  0  0  0  0
    0.0000    0.0000    0.0000 F   0  0  0  0  0  0  0  0  0  0  0  0
    0.0000    0.0000    0.0000 C   0  0  0  0  0  0  0  0  0  0  0  0
    0.0000    0.0000    0.0000 C   0  0  0  0  0  0  0  0  0  0  0  0
  1  2  1  0  0  0  0
  2  7  1  0  0  0  0
  2  3  2  0  0  0  0
  3  4  1  0  0  0  0
  4  5  2  0  0  0  0
  5  6  1  0  0  0  0
  5  8  1  0  0  0  0
  6  7  2  0  0  0  0
  8 25  1  0  0  0  0
  8  9  1  0  0  0  0
  8 21  1  0  0  0  0
  9 10  1  0  0  0  0
 10 11  2  0  0  0  0
 10 12  1  0  0  0  0
 12 13  1  0  0  0  0
 13 14  1  0  0  0  0
 14 15  1  0  0  0  0
 15 16  1  0  0  0  0
 16 17  1  0  0  0  0
 17 18  1  0  0  0  0
 18 19  1  0  0  0  0
 19 20  1  0  0  0  0
 21 22  1  0  0  0  0
 22 23  1  0  0  0  0
 23 24  1  0  0  0  0
 23 26  1  0  0  0  0
 24 25  1  0  0  0  0
 26 27  1  0  0  0  0
 27 28  1  0  0  0  0
 28 29  1  0  0  0  0
 29 30  2  0  0  0  0
 29 31  1  0  0  0  0
 31 37  1  0  0  0  0
 31 32  2  0  0  0  0
 32 33  1  0  0  0  0
 33 34  2  0  0  0  0
 34 35  1  0  0  0  0
 34 36  1  0  0  0  0
 36 37  2  0  0  0  0
M  END
> <Index>
1590

> <ID>
HT1018

> <class>
1

> <apol>
88.14151

> <ast_fraglike>
0

> <ast_fraglike_ext>
0

> <ast_violation>
2

> <ast_violation_ext>
3

> <a_acc>
3

> <a_acid>
0

> <a_aro>
12

> <a_base>
0

> <a_count>
78

> <a_don>
0

> <a_donacc>
3

> <a_heavy>
37

> <a_hyd>
31

> <a_IC>
112.26677

> <a_ICM>
1.4393176

> <a_nB>
0

> <a_nBr>
0

> <a_nC>
31

> <a_nCl>
1

> <a_nF>
1

> <a_nH>
41

> <a_nI>
0

> <a_nN>
1

> <a_nO>
3

> <a_nP>
0

> <a_nS>
0

> <balabanJ>
1.4100456

> <BCUT_PEOE_0>
-2.7922375

> <BCUT_PEOE_1>
-0.61288154

> <BCUT_PEOE_2>
0.6209963

> <BCUT_PEOE_3>
2.7512612

> <BCUT_SLOGP_0>
-2.8017335

> <BCUT_SLOGP_1>
-0.47890764

> <BCUT_SLOGP_2>
0.80591482

> <BCUT_SLOGP_3>
2.8161638

> <BCUT_SMR_0>
-2.5324116

> <BCUT_SMR_1>
-0.41305944

> <BCUT_SMR_2>
0.85431087

> <BCUT_SMR_3>
3.0022783

> <bpol>
52.256489

> <b_1rotN>
15

> <b_1rotR>
0.38461539

> <b_ar>
12

> <b_count>
80

> <b_double>
2

> <b_heavy>
39

> <b_max1len>
10

> <b_rotN>
16

> <b_rotR>
0.41025642

> <b_single>
66

> <b_triple>
0

> <chi0>
26.512014

> <chi0v>
22.90922

> <chi0v_C>
19.725405

> <chi0_C>
21.227558

> <chi1>
17.914652

> <chi1v>
14.285164

> <chi1v_C>
11.764054

> <chi1_C>
13.618705

> <chiral>
0

> <chiral_u>
0

> <density>
0.71241522

> <diameter>
23

> <FCharge>
0

> <GCUT_PEOE_0>
-0.8570205

> <GCUT_PEOE_1>
-0.3962684

> <GCUT_PEOE_2>
0.039125334

> <GCUT_PEOE_3>
2.9636159

> <GCUT_SLOGP_0>
-0.95246834

> <GCUT_SLOGP_1>
-0.26819891

> <GCUT_SLOGP_2>
0.17137159

> <GCUT_SLOGP_3>
3.0432515

> <GCUT_SMR_0>
-0.53259069

> <GCUT_SMR_1>
-0.21605732

> <GCUT_SMR_2>
0.19305076

> <GCUT_SMR_3>
3.2004704

> <Kier1>
31.526627

> <Kier2>
16.955017

> <Kier3>
10.826222

> <KierA1>
27.155846

> <KierA2>
14.541234

> <KierA3>
9.256012

> <KierFlex>
10.67242

> <lip_acc>
4

> <lip_don>
0

> <lip_druglike>
0

> <lip_violation>
2

> <logP(o/w)>
8.7559996

> <logS>
-9.2447596

> <mr>
15.175088

> <mutagenic>
0

> <nmol>
1

> <opr_brigid>
18

> <opr_leadlike>
0

> <opr_nring>
3

> <opr_nrot>
17

> <opr_violation>
3

> <PC+>
0

> <PC->
0

> <PEOE_PC+>
2.2870917

> <PEOE_PC->
-2.2870917

> <PEOE_RPC+>
0.11498424

> <PEOE_RPC->
0.1328055

> <PEOE_VSA+0>
191.2733

> <PEOE_VSA+1>
34.123089

> <PEOE_VSA+2>
9.0208454

> <PEOE_VSA+3>
8.458519

> <PEOE_VSA+4>
0.0

> <PEOE_VSA+5>
14.708499

> <PEOE_VSA+6>
0.0

> <PEOE_VSA-0>
123.73554

> <PEOE_VSA-1>
125.04731

> <PEOE_VSA-2>
0.0

> <PEOE_VSA-3>
0.0

> <PEOE_VSA-4>
11.908636

> <PEOE_VSA-5>
27.133842

> <PEOE_VSA-6>
2.503756

> <PEOE_VSA_FHYD>
0.89732915

> <PEOE_VSA_FNEG>
0.52988142

> <PEOE_VSA_FPNEG>
0.075826287

> <PEOE_VSA_FPOL>
0.10267086

> <PEOE_VSA_FPOS>
0.47011861

> <PEOE_VSA_FPPOS>
0.026844572

> <PEOE_VSA_HYD>
491.6586

> <PEOE_VSA_NEG>
290.3291

> <PEOE_VSA_PNEG>
41.546234

> <PEOE_VSA_POL>
56.254734

> <PEOE_VSA_POS>
257.58426

> <PEOE_VSA_PPOS>
14.708499

> <petitjean>
0.47826087

> <petitjeanSC>
0.91666669

> <Q_PC+>
0

> <Q_PC->
0

> <Q_RPC+>
0

> <Q_RPC->
0

> <Q_VSA_FHYD>
1

> <Q_VSA_FNEG>
0

> <Q_VSA_FPNEG>
0

> <Q_VSA_FPOL>
0

> <Q_VSA_FPOS>
1

> <Q_VSA_FPPOS>
0

> <Q_VSA_HYD>
547.91333

> <Q_VSA_NEG>
0

> <Q_VSA_PNEG>
0

> <Q_VSA_POL>
0

> <Q_VSA_POS>
547.91333

> <Q_VSA_PPOS>
0

> <radius>
12

> <reactive>
1

> <rings>
3

> <RPC+>
0

> <RPC->
0

> <rsynth>
1.0

> <SlogP>
8.4287004

> <SlogP_VSA0>
0.0

> <SlogP_VSA1>
16.557388

> <SlogP_VSA2>
43.983124

> <SlogP_VSA3>
55.318733

> <SlogP_VSA4>
30.233366

> <SlogP_VSA5>
0.0

> <SlogP_VSA6>
3.5006065

> <SlogP_VSA7>
141.14548

> <SlogP_VSA8>
226.42087

> <SlogP_VSA9>
87.434769

> <SMR>
14.75875

> <SMR_VSA0>
58.724319

> <SMR_VSA1>
18.084427

> <SMR_VSA2>
9.1210184

> <SMR_VSA3>
9.8717566

> <SMR_VSA4>
0.0

> <SMR_VSA5>
367.56635

> <SMR_VSA6>
68.751808

> <SMR_VSA7>
72.474655

> <TPSA>
46.610001

> <VAdjEq>
0.31532151

> <VAdjMa>
6.2854023

> <VDistEq>
4.1856346

> <VDistMa>
10.102475

> <vdw_area>
547.91333

> <vdw_vol>
744.12225

> <vsa_acc>
27.133842

> <vsa_acid>
0

> <vsa_base>
0

> <vsa_don>
0.0

> <vsa_hyd>
465.92511

> <vsa_other>
25.670774

> <vsa_pol>
27.133842

> <Weight>
530.12396

> <weinerPath>
5420

> <weinerPol>
53

> <zagreb>
180

$$$$
Row1590
 OpenBabel06061811532D

 17 18  0  0  0  0  0  0  0  0999 V2000
    0.0000    0.0000    0.0000 Cl  0  0  0  0  0  0  0  0  0  0  0  0
    0.0000    0.0000    0.0000 C   0  0  0  0  0  0  0  0  0  0  0  0
    0.0000    0.0000    0.0000 C   0  0  0  0  0  0  0  0  0  0  0  0
    0.0000    0.0000    0.0000 C   0  0  0  0  0  0  0  0  0  0  0  0
    0.0000    0.0000    0.0000 N   0  0  0  0  0  0  0  0  0  0  0  0
    0.0000    0.0000    0.0000 C   0  0  0  0  0  0  0  0  0  0  0  0
    0.0000    0.0000    0.0000 N   0  0  0  0  0  0  0  0  0  0  0  0
    0.0000    0.0000    0.0000 S   0  0  0  0  0  0  0  0  0  0  0  0
    0.0000    0.0000    0.0000 O   0  0  0  0  0  0  0  0  0  0  0  0
    0.0000    0.0000    0.0000 O   0  0  0  0  0  0  0  0  0  0  0  0
    0.0000    0.0000    0.0000 C   0  0  0  0  0  0  0  0  0  0  0  0
    0.0000    0.0000    0.0000 C   0  0  0  0  0  0  0  0  0  0  0  0
    0.0000    0.0000    0.0000 C   0  0  0  0  0  0  0  0  0  0  0  0
    0.0000    0.0000    0.0000 S   0  0  0  0  0  0  0  0  0  0  0  0
    0.0000    0.0000    0.0000 O   0  0  0  0  0  0  0  0  0  0  0  0
    0.0000    0.0000    0.0000 O   0  0  0  0  0  0  0  0  0  0  0  0
    0.0000    0.0000    0.0000 N   0  0  0  0  0  0  0  0  0  0  0  0
  1  2  1  0  0  0  0
  2 13  1  0  0  0  0
  2  3  2  0  0  0  0
  3  4  1  0  0  0  0
  4 11  2  0  0  0  0
  4  5  1  0  0  0  0
  5  6  1  0  0  0  0
  6  7  1  0  0  0  0
  7  8  1  0  0  0  0
  8  9  2  0  0  0  0
  8 10  2  0  0  0  0
  8 11  1  0  0  0  0
 11 12  1  0  0  0  0
 12 13  2  0  0  0  0
 13 14  1  0  0  0  0
 14 15  2  0  0  0  0
 14 16  2  0  0  0  0
 14 17  1  0  0  0  0
M  END
> <Index>
1591

> <ID>
HT1044

> <class>
1

> <apol>
32.142345

> <ast_fraglike>
0

> <ast_fraglike_ext>
0

> <ast_violation>
1

> <ast_violation_ext>
2

> <a_acc>
4

> <a_acid>
0

> <a_aro>
6

> <a_base>
0

> <a_count>
25

> <a_don>
3

> <a_donacc>
7

> <a_heavy>
17

> <a_hyd>
7

> <a_IC>
57.690033

> <a_ICM>
2.3076012

> <a_nB>
0

> <a_nBr>
0

> <a_nC>
7

> <a_nCl>
1

> <a_nF>
0

> <a_nH>
8

> <a_nI>
0

> <a_nN>
3

> <a_nO>
4

> <a_nP>
0

> <a_nS>
2

> <balabanJ>
2.1891959

> <BCUT_PEOE_0>
-2.5396874

> <BCUT_PEOE_1>
-0.64166272

> <BCUT_PEOE_2>
0.64609414

> <BCUT_PEOE_3>
2.5485628

> <BCUT_SLOGP_0>
-2.723186

> <BCUT_SLOGP_1>
-0.57691866

> <BCUT_SLOGP_2>
0.65662229

> <BCUT_SLOGP_3>
2.4933581

> <BCUT_SMR_0>
-2.2002804

> <BCUT_SMR_1>
-0.48046133

> <BCUT_SMR_2>
0.78878403

> <BCUT_SMR_3>
2.8720257

> <bpol>
22.777657

> <b_1rotN>
1

> <b_1rotR>
0.055555556

> <b_ar>
6

> <b_count>
26

> <b_double>
0

> <b_heavy>
18

> <b_max1len>
3

> <b_rotN>
1

> <b_rotR>
0.055555556

> <b_single>
20

> <b_triple>
0

> <chi0>
12.844935

> <chi0v>
10.655534

> <chi0v_C>
3.8618073

> <chi0_C>
4.4307213

> <chi1>
7.7161622

> <chi1v>
7.7229781

> <chi1v_C>
1.6547005

> <chi1_C>
2.2996597

> <chiral>
0

> <chiral_u>
0

> <density>
1.0637167

> <diameter>
7

> <FCharge>
0

> <GCUT_PEOE_0>
-0.89129108

> <GCUT_PEOE_1>
-0.41575637

> <GCUT_PEOE_2>
0.07267011

> <GCUT_PEOE_3>
2.4349923

> <GCUT_SLOGP_0>
-1.3482828

> <GCUT_SLOGP_1>
-0.4939

> <GCUT_SLOGP_2>
0.17099661

> <GCUT_SLOGP_3>
2.436583

> <GCUT_SMR_0>
-0.47940341

> <GCUT_SMR_1>
-0.18148735

> <GCUT_SMR_2>
0.20147602

> <GCUT_SMR_3>
2.7127883

> <Kier1>
13.432098

> <Kier2>
4.2806182

> <Kier3>
2.5599999

> <KierA1>
14.720294

> <KierA2>
4.7188449

> <KierA3>
2.8352473

> <KierFlex>
4.0860462

> <lip_acc>
7

> <lip_don>
4

> <lip_druglike>
1

> <lip_violation>
0

> <logP(o/w)>
-0.50400001

> <logS>
-1.83456

> <mr>
6.2059088

> <mutagenic>
0

> <nmol>
1

> <opr_brigid>
11

> <opr_leadlike>
1

> <opr_nring>
2

> <opr_nrot>
1

> <opr_violation>
0

> <PC+>
0

> <PC->
0

> <PEOE_PC+>
1.526812

> <PEOE_PC->
-1.526812

> <PEOE_RPC+>
0.20287257

> <PEOE_RPC->
0.25282782

> <PEOE_VSA+0>
42.573959

> <PEOE_VSA+1>
17.149784

> <PEOE_VSA+2>
26.880259

> <PEOE_VSA+3>
0.0

> <PEOE_VSA+4>
0.0

> <PEOE_VSA+5>
0.0

> <PEOE_VSA+6>
8.3692026

> <PEOE_VSA-0>
38.557255

> <PEOE_VSA-1>
29.581947

> <PEOE_VSA-2>
34.546043

> <PEOE_VSA-3>
9.0437498

> <PEOE_VSA-4>
32.016521

> <PEOE_VSA-5>
0.0

> <PEOE_VSA-6>
0.13689101

> <PEOE_VSA_FHYD>
0.83034682

> <PEOE_VSA_FNEG>
0.60238236

> <PEOE_VSA_FPNEG>
0.13461444

> <PEOE_VSA_FPOL>
0.16965319

> <PEOE_VSA_FPOS>
0.39761764

> <PEOE_VSA_FPPOS>
0.035038751

> <PEOE_VSA_HYD>
198.33299

> <PEOE_VSA_NEG>
143.88242

> <PEOE_VSA_PNEG>
32.153416

> <PEOE_VSA_POL>
40.522617

> <PEOE_VSA_POS>
94.973206

> <PEOE_VSA_PPOS>
8.3692026

> <petitjean>
0.42857143

> <petitjeanSC>
0.75

> <Q_PC+>
0

> <Q_PC->
0

> <Q_RPC+>
0

> <Q_RPC->
0

> <Q_VSA_FHYD>
1

> <Q_VSA_FNEG>
0

> <Q_VSA_FPNEG>
0

> <Q_VSA_FPOL>
0

> <Q_VSA_FPOS>
1

> <Q_VSA_FPPOS>
0

> <Q_VSA_HYD>
238.85561

> <Q_VSA_NEG>
0

> <Q_VSA_PNEG>
0

> <Q_VSA_POL>
0

> <Q_VSA_POS>
238.85561

> <Q_VSA_PPOS>
0

> <radius>
4

> <reactive>
0

> <rings>
2

> <RPC+>
0

> <RPC->
0

> <rsynth>
1.0

> <SlogP>
-0.3513

> <SlogP_VSA0>
47.69643

> <SlogP_VSA1>
114.35413

> <SlogP_VSA2>
13.281486

> <SlogP_VSA3>
18.01075

> <SlogP_VSA4>
0.0

> <SlogP_VSA5>
3.1014678

> <SlogP_VSA6>
3.5006065

> <SlogP_VSA7>
35.286369

> <SlogP_VSA8>
0.0

> <SlogP_VSA9>
41.905392

> <SMR>
6.16364

> <SMR_VSA0>
96.343376

> <SMR_VSA1>
0.0

> <SMR_VSA2>
19.506466

> <SMR_VSA3>
3.5006065

> <SMR_VSA4>
52.058933

> <SMR_VSA5>
35.286369

> <SMR_VSA6>
18.01075

> <SMR_VSA7>
52.43013

> <TPSA>
118.36

> <VAdjEq>
0.54234898

> <VAdjMa>
5.1699252

> <VDistEq>
2.633986

> <VDistMa>
7.9134102

> <vdw_area>
238.85561

> <vdw_vol>
279.90817

> <vsa_acc>
64.033043

> <vsa_acid>
0

> <vsa_base>
0

> <vsa_don>
33.892902

> <vsa_hyd>
80.787437

> <vsa_other>
45.001736

> <vsa_pol>
97.925949

> <Weight>
297.74301

> <weinerPath>
460

> <weinerPol>
29

> <zagreb>
94

$$$$
Row1591
 OpenBabel06061811532D

 20 21  0  0  0  0  0  0  0  0999 V2000
    0.0000    0.0000    0.0000 S   0  0  0  0  0  0  0  0  0  0  0  0
    0.0000    0.0000    0.0000 O   0  0  0  0  0  0  0  0  0  0  0  0
    0.0000    0.0000    0.0000 O   0  0  0  0  0  0  0  0  0  0  0  0
    0.0000    0.0000    0.0000 N   0  0  0  0  0  0  0  0  0  0  0  0
    0.0000    0.0000    0.0000 C   0  0  0  0  0  0  0  0  0  0  0  0
    0.0000    0.0000    0.0000 C   0  0  0  0  0  0  0  0  0  0  0  0
    0.0000    0.0000    0.0000 C   0  0  0  0  0  0  0  0  0  0  0  0
    0.0000    0.0000    0.0000 S   0  0  0  0  0  0  0  0  0  0  0  0
    0.0000    0.0000    0.0000 O   0  0  0  0  0  0  0  0  0  0  0  0
    0.0000    0.0000    0.0000 O   0  0  0  0  0  0  0  0  0  0  0  0
    0.0000    0.0000    0.0000 N   0  0  0  0  0  0  0  0  0  0  0  0
    0.0000    0.0000    0.0000 C   0  0  0  0  0  0  0  0  0  0  0  0
    0.0000    0.0000    0.0000 N   0  0  0  0  0  0  0  0  0  0  0  0
    0.0000    0.0000    0.0000 C   0  0  0  0  0  0  0  0  0  0  0  0
    0.0000    0.0000    0.0000 C   0  0  0  0  0  0  0  0  0  0  0  0
    0.0000    0.0000    0.0000 C   0  0  0  0  0  0  0  0  0  0  0  0
    0.0000    0.0000    0.0000 C   0  0  0  0  0  0  0  0  0  0  0  0
    0.0000    0.0000    0.0000 F   0  0  0  0  0  0  0  0  0  0  0  0
    0.0000    0.0000    0.0000 F   0  0  0  0  0  0  0  0  0  0  0  0
    0.0000    0.0000    0.0000 F   0  0  0  0  0  0  0  0  0  0  0  0
  1  2  2  0  0  0  0
  1  3  2  0  0  0  0
  1  4  1  0  0  0  0
  1  5  1  0  0  0  0
  5 16  1  0  0  0  0
  5  6  2  0  0  0  0
  6  7  1  0  0  0  0
  7 14  2  0  0  0  0
  7  8  1  0  0  0  0
  8  9  2  0  0  0  0
  8 10  2  0  0  0  0
  8 11  1  0  0  0  0
 11 12  1  0  0  0  0
 12 13  1  0  0  0  0
 13 14  1  0  0  0  0
 14 15  1  0  0  0  0
 15 16  2  0  0  0  0
 16 17  1  0  0  0  0
 17 18  1  0  0  0  0
 17 19  1  0  0  0  0
 17 20  1  0  0  0  0
M  END
> <Index>
1592

> <ID>
HT1055

> <class>
1

> <apol>
33.393345

> <ast_fraglike>
0

> <ast_fraglike_ext>
0

> <ast_violation>
2

> <ast_violation_ext>
3

> <a_acc>
4

> <a_acid>
0

> <a_aro>
6

> <a_base>
0

> <a_count>
28

> <a_don>
3

> <a_donacc>
7

> <a_heavy>
20

> <a_hyd>
10

> <a_IC>
67.096161

> <a_ICM>
2.3962915

> <a_nB>
0

> <a_nBr>
0

> <a_nC>
8

> <a_nCl>
0

> <a_nF>
3

> <a_nH>
8

> <a_nI>
0

> <a_nN>
3

> <a_nO>
4

> <a_nP>
0

> <a_nS>
2

> <balabanJ>
2.3059595

> <BCUT_PEOE_0>
-2.5410728

> <BCUT_PEOE_1>
-0.41838223

> <BCUT_PEOE_2>
0.51757401

> <BCUT_PEOE_3>
2.5729585

> <BCUT_SLOGP_0>
-2.7237477

> <BCUT_SLOGP_1>
-0.38550407

> <BCUT_SLOGP_2>
0.56366217

> <BCUT_SLOGP_3>
2.5408354

> <BCUT_SMR_0>
-2.2066402

> <BCUT_SMR_1>
-0.25832894

> <BCUT_SMR_2>
0.70079404

> <BCUT_SMR_3>
2.8759849

> <bpol>
25.966656

> <b_1rotN>
1

> <b_1rotR>
0.047619049

> <b_ar>
6

> <b_count>
29

> <b_double>
0

> <b_heavy>
21

> <b_max1len>
3

> <b_rotN>
2

> <b_rotR>
0.095238097

> <b_single>
23

> <b_triple>
0

> <chi0>
15.344935

> <chi0v>
11.155534

> <chi0v_C>
4.3618073

> <chi0_C>
4.9307213

> <chi1>
8.9274874

> <chi1v>
7.9729781

> <chi1v_C>
1.9047005

> <chi1_C>
2.588335

> <chiral>
0

> <chiral_u>
0

> <density>
1.1124443

> <diameter>
7

> <FCharge>
0

> <GCUT_PEOE_0>
-0.89140326

> <GCUT_PEOE_1>
-0.39678919

> <GCUT_PEOE_2>
0.0023720528

> <GCUT_PEOE_3>
2.5304654

> <GCUT_SLOGP_0>
-1.3482997

> <GCUT_SLOGP_1>
-0.49116904

> <GCUT_SLOGP_2>
0.22116184

> <GCUT_SLOGP_3>
2.5273099

> <GCUT_SMR_0>
-0.47991419

> <GCUT_SMR_1>
-0.17532705

> <GCUT_SMR_2>
0.17005317

> <GCUT_SMR_3>
2.7779551

> <Kier1>
16.371881

> <Kier2>
5.0253062

> <Kier3>
3.2766211

> <KierA1>
16.052498

> <KierA2>
4.9219551

> <KierA3>
3.2067039

> <KierFlex>
3.950484

> <lip_acc>
7

> <lip_don>
4

> <lip_druglike>
1

> <lip_violation>
0

> <logP(o/w)>
-0.16124

> <logS>
-2.1568201

> <mr>
6.2808309

> <mutagenic>
0

> <nmol>
1

> <opr_brigid>
11

> <opr_leadlike>
1

> <opr_nring>
2

> <opr_nrot>
1

> <opr_violation>
0

> <PC+>
0

> <PC->
0

> <PEOE_PC+>
1.9570975

> <PEOE_PC->
-1.9570975

> <PEOE_RPC+>
0.21800162

> <PEOE_RPC->
0.19725502

> <PEOE_VSA+0>
42.573959

> <PEOE_VSA+1>
17.149784

> <PEOE_VSA+2>
22.360512

> <PEOE_VSA+3>
2.2085397

> <PEOE_VSA+4>
0.0

> <PEOE_VSA+5>
0.0

> <PEOE_VSA+6>
17.414705

> <PEOE_VSA-0>
38.557255

> <PEOE_VSA-1>
0.0

> <PEOE_VSA-2>
34.546043

> <PEOE_VSA-3>
44.769657

> <PEOE_VSA-4>
32.016521

> <PEOE_VSA-5>
0.0

> <PEOE_VSA-6>
0.13689101

> <PEOE_VSA_FHYD>
0.80309319

> <PEOE_VSA_FNEG>
0.59597212

> <PEOE_VSA_FPNEG>
0.12772781

> <PEOE_VSA_FPOL>
0.19690683

> <PEOE_VSA_FPOS>
0.40402788

> <PEOE_VSA_FPPOS>
0.069179028

> <PEOE_VSA_HYD>
202.16576

> <PEOE_VSA_NEG>
150.02637

> <PEOE_VSA_PNEG>
32.153416

> <PEOE_VSA_POL>
49.568119

> <PEOE_VSA_POS>
101.7075

> <PEOE_VSA_PPOS>
17.414705

> <petitjean>
0.42857143

> <petitjeanSC>
0.75

> <Q_PC+>
0

> <Q_PC->
0

> <Q_RPC+>
0

> <Q_RPC->
0

> <Q_VSA_FHYD>
1

> <Q_VSA_FNEG>
0

> <Q_VSA_FPNEG>
0

> <Q_VSA_FPOL>
0

> <Q_VSA_FPOS>
1

> <Q_VSA_FPPOS>
0

> <Q_VSA_HYD>
251.73387

> <Q_VSA_NEG>
0

> <Q_VSA_PNEG>
0

> <Q_VSA_POL>
0

> <Q_VSA_POS>
251.73387

> <Q_VSA_PPOS>
0

> <radius>
4

> <reactive>
0

> <rings>
2

> <RPC+>
0

> <RPC->
0

> <rsynth>
1.0

> <SlogP>
0.3256

> <SlogP_VSA0>
47.69643

> <SlogP_VSA1>
114.35413

> <SlogP_VSA2>
13.281486

> <SlogP_VSA3>
18.01075

> <SlogP_VSA4>
3.185575

> <SlogP_VSA5>
3.1014678

> <SlogP_VSA6>
7.7595162

> <SlogP_VSA7>
35.286369

> <SlogP_VSA8>
0.0

> <SlogP_VSA9>
47.637089

> <SMR>
6.17454

> <SMR_VSA0>
96.343376

> <SMR_VSA1>
44.880341

> <SMR_VSA2>
27.265982

> <SMR_VSA3>
3.185575

> <SMR_VSA4>
52.058933

> <SMR_VSA5>
35.286369

> <SMR_VSA6>
18.01075

> <SMR_VSA7>
13.281486

> <TPSA>
118.36

> <VAdjEq>
0.48464775

> <VAdjMa>
5.3923173

> <VDistEq>
2.7331748

> <VDistMa>
8.4014025

> <vdw_area>
251.73387

> <vdw_vol>
297.80817

> <vsa_acc>
64.033043

> <vsa_acid>
0

> <vsa_base>
0

> <vsa_don>
33.892902

> <vsa_hyd>
93.665695

> <vsa_other>
45.001736

> <vsa_pol>
97.925949

> <Weight>
331.29498

> <weinerPath>
703

> <weinerPol>
35

> <zagreb>
112

$$$$
Row1592
 OpenBabel06061811532D

 26 28  0  0  1  0  0  0  0  0999 V2000
    0.0000    0.0000    0.0000 Cl  0  0  0  0  0  0  0  0  0  0  0  0
    0.0000    0.0000    0.0000 C   0  0  0  0  0  0  0  0  0  0  0  0
    0.0000    0.0000    0.0000 C   0  0  0  0  0  0  0  0  0  0  0  0
    0.0000    0.0000    0.0000 C   0  0  0  0  0  0  0  0  0  0  0  0
    0.0000    0.0000    0.0000 C   0  0  0  0  0  0  0  0  0  0  0  0
    0.0000    0.0000    0.0000 C   0  0  0  0  0  0  0  0  0  0  0  0
    0.0000    0.0000    0.0000 C   0  0  0  0  0  0  0  0  0  0  0  0
    0.0000    0.0000    0.0000 C   0  0  3  0  0  0  0  0  0  0  0  0
    0.0000    0.0000    0.0000 N   0  0  0  0  0  0  0  0  0  0  0  0
    0.0000    0.0000    0.0000 C   0  0  0  0  0  0  0  0  0  0  0  0
    0.0000    0.0000    0.0000 C   0  0  0  0  0  0  0  0  0  0  0  0
    0.0000    0.0000    0.0000 N   0  0  0  0  0  0  0  0  0  0  0  0
    0.0000    0.0000    0.0000 C   0  0  0  0  0  0  0  0  0  0  0  0
    0.0000    0.0000    0.0000 C   0  0  0  0  0  0  0  0  0  0  0  0
    0.0000    0.0000    0.0000 C   0  0  0  0  0  0  0  0  0  0  0  0
    0.0000    0.0000    0.0000 C   0  0  0  0  0  0  0  0  0  0  0  0
    0.0000    0.0000    0.0000 O   0  0  0  0  0  0  0  0  0  0  0  0
    0.0000    0.0000    0.0000 C   0  0  0  0  0  0  0  0  0  0  0  0
    0.0000    0.0000    0.0000 C   0  0  0  0  0  0  0  0  0  0  0  0
    0.0000    0.0000    0.0000 O   0  0  0  0  0  0  0  0  0  0  0  0
    0.0000    0.0000    0.0000 C   0  0  0  0  0  0  0  0  0  0  0  0
    0.0000    0.0000    0.0000 C   0  0  0  0  0  0  0  0  0  0  0  0
    0.0000    0.0000    0.0000 C   0  0  0  0  0  0  0  0  0  0  0  0
    0.0000    0.0000    0.0000 C   0  0  0  0  0  0  0  0  0  0  0  0
    0.0000    0.0000    0.0000 C   0  0  0  0  0  0  0  0  0  0  0  0
    0.0000    0.0000    0.0000 C   0  0  0  0  0  0  0  0  0  0  0  0
  1  2  1  0  0  0  0
  2  7  1  0  0  0  0
  2  3  2  0  0  0  0
  3  4  1  0  0  0  0
  4  5  2  0  0  0  0
  5  6  1  0  0  0  0
  5  8  1  0  0  0  0
  6  7  2  0  0  0  0
  8  9  1  0  0  0  0
  8 21  1  0  0  0  0
  9 14  1  0  0  0  0
  9 10  1  0  0  0  0
 10 11  1  0  0  0  0
 11 12  1  0  0  0  0
 12 13  1  0  0  0  0
 12 15  1  0  0  0  0
 13 14  1  0  0  0  0
 15 16  1  0  0  0  0
 16 17  1  0  0  0  0
 17 18  1  0  0  0  0
 18 19  1  0  0  0  0
 19 20  1  0  0  0  0
 21 26  1  0  0  0  0
 21 22  2  0  0  0  0
 22 23  1  0  0  0  0
 23 24  2  0  0  0  0
 24 25  1  0  0  0  0
 25 26  2  0  0  0  0
M  END
> <Index>
1593

> <ID>
HT1064

> <class>
1

> <apol>
60.947411

> <ast_fraglike>
0

> <ast_fraglike_ext>
0

> <ast_violation>
3

> <ast_violation_ext>
4

> <a_acc>
4

> <a_acid>
0

> <a_aro>
12

> <a_base>
0

> <a_count>
53

> <a_don>
1

> <a_donacc>
5

> <a_heavy>
26

> <a_hyd>
22

> <a_IC>
78.959152

> <a_ICM>
1.4897954

> <a_nB>
0

> <a_nBr>
0

> <a_nC>
21

> <a_nCl>
1

> <a_nF>
0

> <a_nH>
27

> <a_nI>
0

> <a_nN>
2

> <a_nO>
2

> <a_nP>
0

> <a_nS>
0

> <balabanJ>
1.5200155

> <BCUT_PEOE_0>
-2.7872989

> <BCUT_PEOE_1>
-0.61477453

> <BCUT_PEOE_2>
0.65884328

> <BCUT_PEOE_3>
2.6887286

> <BCUT_SLOGP_0>
-2.8927591

> <BCUT_SLOGP_1>
-0.49763528

> <BCUT_SLOGP_2>
0.76290953

> <BCUT_SLOGP_3>
2.6316428

> <BCUT_SMR_0>
-2.503299

> <BCUT_SMR_1>
-0.46306258

> <BCUT_SMR_2>
0.85431087

> <BCUT_SMR_3>
2.964921

> <bpol>
35.812588

> <b_1rotN>
8

> <b_1rotR>
0.2857143

> <b_ar>
12

> <b_count>
55

> <b_double>
0

> <b_heavy>
28

> <b_max1len>
7

> <b_rotN>
8

> <b_rotR>
0.2857143

> <b_single>
43

> <b_triple>
0

> <chi0>
18.192024

> <chi0v>
15.814139

> <chi0v_C>
12.930357

> <chi0_C>
14.330216

> <chi1>
12.775188

> <chi1v>
9.6092634

> <chi1v_C>
6.309401

> <chi1_C>
8.1161566

> <chiral>
1

> <chiral_u>
1

> <density>
0.7199384

> <diameter>
15

> <FCharge>
0

> <GCUT_PEOE_0>
-0.85095686

> <GCUT_PEOE_1>
-0.38179877

> <GCUT_PEOE_2>
0.072496027

> <GCUT_PEOE_3>
2.8210945

> <GCUT_SLOGP_0>
-0.96416014

> <GCUT_SLOGP_1>
-0.26386139

> <GCUT_SLOGP_2>
0.155642

> <GCUT_SLOGP_3>
2.8640642

> <GCUT_SMR_0>
-0.51974344

> <GCUT_SMR_1>
-0.20389295

> <GCUT_SMR_2>
0.19305076

> <GCUT_SMR_3>
3.0838208

> <Kier1>
20.727041

> <Kier2>
11.111111

> <Kier3>
6.2608695

> <KierA1>
18.132496

> <KierA2>
9.6656895

> <KierA3>
5.4245229

> <KierFlex>
6.7408876

> <lip_acc>
4

> <lip_don>
1

> <lip_druglike>
1

> <lip_violation>
0

> <logP(o/w)>
3.2049999

> <logS>
-3.7453499

> <mr>
10.739425

> <mutagenic>
0

> <nmol>
1

> <opr_brigid>
18

> <opr_leadlike>
1

> <opr_nring>
3

> <opr_nrot>
10

> <opr_violation>
0

> <PC+>
0

> <PC->
0

> <PEOE_PC+>
1.9860978

> <PEOE_PC->
-1.9860978

> <PEOE_RPC+>
0.10548013

> <PEOE_RPC->
0.19774711

> <PEOE_VSA+0>
113.13523

> <PEOE_VSA+1>
116.24602

> <PEOE_VSA+2>
0.0

> <PEOE_VSA+3>
0.0

> <PEOE_VSA+4>
10.324173

> <PEOE_VSA+5>
0.0

> <PEOE_VSA+6>
0.0

> <PEOE_VSA-0>
28.926888

> <PEOE_VSA-1>
115.36627

> <PEOE_VSA-2>
0.0

> <PEOE_VSA-3>
0.0

> <PEOE_VSA-4>
0.0

> <PEOE_VSA-5>
0.0

> <PEOE_VSA-6>
10.271297

> <PEOE_VSA_FHYD>
0.94776303

> <PEOE_VSA_FNEG>
0.39202705

> <PEOE_VSA_FPNEG>
0.026051436

> <PEOE_VSA_FPOL>
0.052236982

> <PEOE_VSA_FPOS>
0.60797292

> <PEOE_VSA_FPPOS>
0.026185548

> <PEOE_VSA_HYD>
373.67441

> <PEOE_VSA_NEG>
154.56445

> <PEOE_VSA_PNEG>
10.271297

> <PEOE_VSA_POL>
20.595469

> <PEOE_VSA_POS>
239.70541

> <PEOE_VSA_PPOS>
10.324173

> <petitjean>
0.46666667

> <petitjeanSC>
0.875

> <Q_PC+>
0

> <Q_PC->
0

> <Q_RPC+>
0

> <Q_RPC->
0

> <Q_VSA_FHYD>
1

> <Q_VSA_FNEG>
0

> <Q_VSA_FPNEG>
0

> <Q_VSA_FPOL>
0

> <Q_VSA_FPOS>
1

> <Q_VSA_FPPOS>
0

> <Q_VSA_HYD>
394.26987

> <Q_VSA_NEG>
0

> <Q_VSA_PNEG>
0

> <Q_VSA_POL>
0

> <Q_VSA_POS>
394.26987

> <Q_VSA_PPOS>
0

> <radius>
8

> <reactive>
0

> <rings>
3

> <RPC+>
0

> <RPC->
0

> <rsynth>
1.0

> <SlogP>
3.1514001

> <SlogP_VSA0>
25.385227

> <SlogP_VSA1>
6.2486277

> <SlogP_VSA2>
10.999887

> <SlogP_VSA3>
154.97667

> <SlogP_VSA4>
6.37115

> <SlogP_VSA5>
0.0

> <SlogP_VSA6>
3.5006065

> <SlogP_VSA7>
158.78867

> <SlogP_VSA8>
3.9819686

> <SlogP_VSA9>
39.148643

> <SMR>
10.57658

> <SMR_VSA0>
10.999887

> <SMR_VSA1>
31.633854

> <SMR_VSA2>
0.0

> <SMR_VSA3>
13.853725

> <SMR_VSA4>
0.0

> <SMR_VSA5>
158.78867

> <SMR_VSA6>
154.97667

> <SMR_VSA7>
39.148643

> <TPSA>
35.939999

> <VAdjEq>
0.41210872

> <VAdjMa>
5.8073549

> <VDistEq>
3.6059597

> <VDistMa>
9.091013

> <vdw_area>
394.26987

> <vdw_vol>
520.75568

> <vsa_acc>
2.503756

> <vsa_acid>
0

> <vsa_base>
0

> <vsa_don>
0.0

> <vsa_hyd>
355.16772

> <vsa_other>
0.0

> <vsa_pol>
16.070677

> <Weight>
374.91199

> <weinerPath>
1831

> <weinerPol>
37

> <zagreb>
128

$$$$
Row1593
 OpenBabel06061811532D

 16 16  0  0  1  0  0  0  0  0999 V2000
    0.0000    0.0000    0.0000 O   0  0  0  0  0  0  0  0  0  0  0  0
    0.0000    0.0000    0.0000 C   0  0  0  0  0  0  0  0  0  0  0  0
    0.0000    0.0000    0.0000 O   0  0  0  0  0  0  0  0  0  0  0  0
    0.0000    0.0000    0.0000 C   0  0  2  0  0  0  0  0  0  0  0  0
    0.0000    0.0000    0.0000 H   0  0  0  0  0  0  0  0  0  0  0  0
    0.0000    0.0000    0.0000 C   0  0  0  0  0  0  0  0  0  0  0  0
    0.0000    0.0000    0.0000 C   0  0  0  0  0  0  0  0  0  0  0  0
    0.0000    0.0000    0.0000 C   0  0  0  0  0  0  0  0  0  0  0  0
    0.0000    0.0000    0.0000 C   0  0  0  0  0  0  0  0  0  0  0  0
    0.0000    0.0000    0.0000 C   0  0  0  0  0  0  0  0  0  0  0  0
    0.0000    0.0000    0.0000 C   0  0  0  0  0  0  0  0  0  0  0  0
    0.0000    0.0000    0.0000 C   0  0  0  0  0  0  0  0  0  0  0  0
    0.0000    0.0000    0.0000 C   0  0  0  0  0  0  0  0  0  0  0  0
    0.0000    0.0000    0.0000 C   0  0  0  0  0  0  0  0  0  0  0  0
    0.0000    0.0000    0.0000 C   0  0  0  0  0  0  0  0  0  0  0  0
    0.0000    0.0000    0.0000 C   0  0  0  0  0  0  0  0  0  0  0  0
  1  2  1  0  0  0  0
  2  3  2  0  0  0  0
  2  4  1  0  0  0  0
  4  5  1  0  0  0  0
  4  6  1  0  0  0  0
  4  7  1  0  0  0  0
  7 12  1  0  0  0  0
  7  8  2  0  0  0  0
  8  9  1  0  0  0  0
  9 10  2  0  0  0  0
 10 11  1  0  0  0  0
 10 13  1  0  0  0  0
 11 12  2  0  0  0  0
 13 14  1  0  0  0  0
 14 15  1  0  0  0  0
 14 16  1  0  0  0  0
M  END
> <Index>
1594

> <ID>
HT1069

> <class>
1

> <apol>
36.486275

> <ast_fraglike>
0

> <ast_fraglike_ext>
0

> <ast_violation>
1

> <ast_violation_ext>
2

> <a_acc>
2

> <a_acid>
0

> <a_aro>
6

> <a_base>
0

> <a_count>
33

> <a_don>
2

> <a_donacc>
4

> <a_heavy>
15

> <a_hyd>
12

> <a_IC>
41.30064

> <a_ICM>
1.2515346

> <a_nB>
0

> <a_nBr>
0

> <a_nC>
13

> <a_nCl>
0

> <a_nF>
0

> <a_nH>
18

> <a_nI>
0

> <a_nN>
0

> <a_nO>
2

> <a_nP>
0

> <a_nS>
0

> <balabanJ>
2.3077445

> <BCUT_PEOE_0>
-2.6159275

> <BCUT_PEOE_1>
-0.54485768

> <BCUT_PEOE_2>
0.50477314

> <BCUT_PEOE_3>
2.5565081

> <BCUT_SLOGP_0>
-2.5210288

> <BCUT_SLOGP_1>
-0.47702608

> <BCUT_SLOGP_2>
0.50369388

> <BCUT_SLOGP_3>
2.6573513

> <BCUT_SMR_0>
-2.3624966

> <BCUT_SMR_1>
-0.35797486

> <BCUT_SMR_2>
0.64097345

> <BCUT_SMR_3>
2.8158619

> <bpol>
20.635727

> <b_1rotN>
4

> <b_1rotR>
0.26666668

> <b_ar>
6

> <b_count>
33

> <b_double>
1

> <b_heavy>
15

> <b_max1len>
4

> <b_rotN>
4

> <b_rotR>
0.26666668

> <b_single>
26

> <b_triple>
0

> <chi0>
11.422285

> <chi0v>
9.5266705

> <chi0v_C>
8.6712084

> <chi0_C>
9.4222851

> <chi1>
7.0029078

> <chi1v>
5.3203011

> <chi1v_C>
4.89257

> <chi1_C>
5.848207

> <chiral>
1

> <chiral_u>
0

> <density>
0.66634852

> <diameter>
9

> <FCharge>
0

> <GCUT_PEOE_0>
-0.79578137

> <GCUT_PEOE_1>
-0.3956525

> <GCUT_PEOE_2>
0.061622169

> <GCUT_PEOE_3>
2.4652193

> <GCUT_SLOGP_0>
-0.87404597

> <GCUT_SLOGP_1>
-0.2825194

> <GCUT_SLOGP_2>
0.073873818

> <GCUT_SLOGP_3>
2.574919

> <GCUT_SMR_0>
-0.53118223

> <GCUT_SMR_1>
-0.22078934

> <GCUT_SMR_2>
0.17755085

> <GCUT_SMR_3>
2.7258718

> <Kier1>
13.066667

> <Kier2>
5.915

> <Kier3>
4.1652894

> <KierA1>
10.32718

> <KierA2>
4.5893908

> <KierA3>
3.1831889

> <KierFlex>
3.1596975

> <lip_acc>
2

> <lip_don>
1

> <lip_druglike>
1

> <lip_violation>
0

> <logP(o/w)>
3.6140001

> <logS>
-3.6371

> <mr>
6.1857176

> <mutagenic>
0

> <nmol>
1

> <opr_brigid>
6

> <opr_leadlike>
1

> <opr_nring>
1

> <opr_nrot>
4

> <opr_violation>
0

> <PC+>
0

> <PC->
0

> <PEOE_PC+>
1.1512718

> <PEOE_PC->
-1.1512718

> <PEOE_RPC+>
0.23173973

> <PEOE_RPC->
0.28735113

> <PEOE_VSA+0>
55.45002

> <PEOE_VSA+1>
17.061544

> <PEOE_VSA+2>
0.0

> <PEOE_VSA+3>
0.0

> <PEOE_VSA+4>
10.324173

> <PEOE_VSA+5>
14.708499

> <PEOE_VSA+6>
0.0

> <PEOE_VSA-0>
31.86607

> <PEOE_VSA-1>
86.514969

> <PEOE_VSA-2>
0.0

> <PEOE_VSA-3>
0.0

> <PEOE_VSA-4>
0.0

> <PEOE_VSA-5>
13.566921

> <PEOE_VSA-6>
7.7675405

> <PEOE_VSA_FHYD>
0.80457228

> <PEOE_VSA_FNEG>
0.58887154

> <PEOE_VSA_FPNEG>
0.089920275

> <PEOE_VSA_FPOL>
0.19542773

> <PEOE_VSA_FPOS>
0.41112849

> <PEOE_VSA_FPPOS>
0.10550746

> <PEOE_VSA_HYD>
190.89261

> <PEOE_VSA_NEG>
139.7155

> <PEOE_VSA_PNEG>
21.334461

> <PEOE_VSA_POL>
46.367134

> <PEOE_VSA_POS>
97.544235

> <PEOE_VSA_PPOS>
25.032671

> <petitjean>
0.44444445

> <petitjeanSC>
0.80000001

> <Q_PC+>
0

> <Q_PC->
0

> <Q_RPC+>
0

> <Q_RPC->
0

> <Q_VSA_FHYD>
1

> <Q_VSA_FNEG>
0

> <Q_VSA_FPNEG>
0

> <Q_VSA_FPOL>
0

> <Q_VSA_FPOS>
1

> <Q_VSA_FPPOS>
0

> <Q_VSA_HYD>
237.25974

> <Q_VSA_NEG>
0

> <Q_VSA_PNEG>
0

> <Q_VSA_POL>
0

> <Q_VSA_POS>
237.25974

> <Q_VSA_PPOS>
0

> <radius>
5

> <reactive>
0

> <rings>
1

> <RPC+>
0

> <RPC->
0

> <rsynth>
1.0

> <SlogP>
3.0731699

> <SlogP_VSA0>
0.0

> <SlogP_VSA1>
7.7454643

> <SlogP_VSA2>
23.862217

> <SlogP_VSA3>
25.385227

> <SlogP_VSA4>
10.781946

> <SlogP_VSA5>
18.868406

> <SlogP_VSA6>
4.4107962

> <SlogP_VSA7>
70.572739

> <SlogP_VSA8>
0.0

> <SlogP_VSA9>
99.978043

> <SMR>
6.1034799

> <SMR_VSA0>
23.862217

> <SMR_VSA1>
0.0

> <SMR_VSA2>
29.796022

> <SMR_VSA3>
10.781946

> <SMR_VSA4>
0.0

> <SMR_VSA5>
89.441139

> <SMR_VSA6>
7.7454643

> <SMR_VSA7>
99.978043

> <TPSA>
37.299999

> <VAdjEq>
0.56650949

> <VAdjMa>
4.9068904

> <VDistEq>
2.9862158

> <VDistMa>
7.4744163

> <vdw_area>
237.25974

> <vdw_vol>
309.57523

> <vsa_acc>
0.0

> <vsa_acid>
0

> <vsa_base>
0

> <vsa_don>
0.0

> <vsa_hyd>
176.10197

> <vsa_other>
14.708499

> <vsa_pol>
27.133842

> <Weight>
206.28499

> <weinerPath>
404

> <weinerPol>
19

> <zagreb>
70

$$$$
Row1594
 OpenBabel06061811532D

 21 23  0  0  0  0  0  0  0  0999 V2000
    0.0000    0.0000    0.0000 N   0  0  0  0  0  0  0  0  0  0  0  0
    0.0000    0.0000    0.0000 C   0  0  0  0  0  0  0  0  0  0  0  0
    0.0000    0.0000    0.0000 C   0  0  0  0  0  0  0  0  0  0  0  0
    0.0000    0.0000    0.0000 C   0  0  0  0  0  0  0  0  0  0  0  0
    0.0000    0.0000    0.0000 N   0  0  0  0  0  0  0  0  0  0  0  0
    0.0000    0.0000    0.0000 C   0  0  0  0  0  0  0  0  0  0  0  0
    0.0000    0.0000    0.0000 C   0  0  0  0  0  0  0  0  0  0  0  0
    0.0000    0.0000    0.0000 C   0  0  0  0  0  0  0  0  0  0  0  0
    0.0000    0.0000    0.0000 C   0  0  0  0  0  0  0  0  0  0  0  0
    0.0000    0.0000    0.0000 C   0  0  0  0  0  0  0  0  0  0  0  0
    0.0000    0.0000    0.0000 C   0  0  0  0  0  0  0  0  0  0  0  0
    0.0000    0.0000    0.0000 C   0  0  0  0  0  0  0  0  0  0  0  0
    0.0000    0.0000    0.0000 C   0  0  0  0  0  0  0  0  0  0  0  0
    0.0000    0.0000    0.0000 C   0  0  0  0  0  0  0  0  0  0  0  0
    0.0000    0.0000    0.0000 C   0  0  0  0  0  0  0  0  0  0  0  0
    0.0000    0.0000    0.0000 C   0  0  0  0  0  0  0  0  0  0  0  0
    0.0000    0.0000    0.0000 C   0  0  0  0  0  0  0  0  0  0  0  0
    0.0000    0.0000    0.0000 C   0  0  0  0  0  0  0  0  0  0  0  0
    0.0000    0.0000    0.0000 C   0  0  0  0  0  0  0  0  0  0  0  0
    0.0000    0.0000    0.0000 C   0  0  0  0  0  0  0  0  0  0  0  0
    0.0000    0.0000    0.0000 C   0  0  0  0  0  0  0  0  0  0  0  0
  1  2  1  0  0  0  0
  1 20  1  0  0  0  0
  1 21  1  0  0  0  0
  2  3  1  0  0  0  0
  3  4  1  0  0  0  0
  4  5  1  0  0  0  0
  5 11  1  0  0  0  0
  5  6  1  0  0  0  0
  6 19  1  0  0  0  0
  6  7  2  0  0  0  0
  7  8  1  0  0  0  0
  7 16  1  0  0  0  0
  8  9  1  0  0  0  0
  9 10  1  0  0  0  0
 10 15  1  0  0  0  0
 10 11  2  0  0  0  0
 11 12  1  0  0  0  0
 12 13  2  0  0  0  0
 13 14  1  0  0  0  0
 14 15  2  0  0  0  0
 16 17  2  0  0  0  0
 17 18  1  0  0  0  0
 18 19  2  0  0  0  0
M  END
> <Index>
1595

> <ID>
HT1082

> <class>
1

> <apol>
51.643032

> <ast_fraglike>
0

> <ast_fraglike_ext>
0

> <ast_violation>
1

> <ast_violation_ext>
2

> <a_acc>
1

> <a_acid>
0

> <a_aro>
12

> <a_base>
0

> <a_count>
45

> <a_don>
0

> <a_donacc>
1

> <a_heavy>
21

> <a_hyd>
19

> <a_IC>
54.383667

> <a_ICM>
1.2085259

> <a_nB>
0

> <a_nBr>
0

> <a_nC>
19

> <a_nCl>
0

> <a_nF>
0

> <a_nH>
24

> <a_nI>
0

> <a_nN>
2

> <a_nO>
0

> <a_nP>
0

> <a_nS>
0

> <balabanJ>
1.7113639

> <BCUT_PEOE_0>
-2.6549234

> <BCUT_PEOE_1>
-0.5209651

> <BCUT_PEOE_2>
0.58689421

> <BCUT_PEOE_3>
2.5751114

> <BCUT_SLOGP_0>
-2.7068775

> <BCUT_SLOGP_1>
-0.42273843

> <BCUT_SLOGP_2>
0.68544054

> <BCUT_SLOGP_3>
2.6181657

> <BCUT_SMR_0>
-2.3726218

> <BCUT_SMR_1>
-0.39313805

> <BCUT_SMR_2>
0.72225022

> <BCUT_SMR_3>
2.8660841

> <bpol>
30.196968

> <b_1rotN>
4

> <b_1rotR>
0.17391305

> <b_ar>
12

> <b_count>
47

> <b_double>
0

> <b_heavy>
23

> <b_max1len>
6

> <b_rotN>
4

> <b_rotR>
0.17391305

> <b_single>
35

> <b_triple>
0

> <chi0>
14.656489

> <chi0v>
13.048763

> <chi0v_C>
12.154336

> <chi0_C>
13.501789

> <chi1>
10.25402

> <chi1v>
7.8359036

> <chi1v_C>
5.8618073

> <chi1_C>
7.6161566

> <chiral>
0

> <chiral_u>
0

> <density>
0.64203781

> <diameter>
9

> <FCharge>
0

> <GCUT_PEOE_0>
-0.86401153

> <GCUT_PEOE_1>
-0.33645689

> <GCUT_PEOE_2>
0.045459747

> <GCUT_PEOE_3>
2.7543588

> <GCUT_SLOGP_0>
-0.95430422

> <GCUT_SLOGP_1>
-0.25371483

> <GCUT_SLOGP_2>
0.13842522

> <GCUT_SLOGP_3>
2.8672001

> <GCUT_SMR_0>
-0.51980084

> <GCUT_SMR_1>
-0.18155444

> <GCUT_SMR_2>
0.15946189

> <GCUT_SMR_3>
3.0449533

> <Kier1>
15.879017

> <Kier2>
7.5130072

> <Kier3>
3.8548484

> <KierA1>
12.159148

> <KierA2>
5.6702189

> <KierA3>
2.8770401

> <KierFlex>
3.2830968

> <lip_acc>
2

> <lip_don>
0

> <lip_druglike>
1

> <lip_violation>
0

> <logP(o/w)>
4.1040001

> <logS>
-3.45471

> <mr>
8.8513355

> <mutagenic>
0

> <nmol>
1

> <opr_brigid>
17

> <opr_leadlike>
1

> <opr_nring>
3

> <opr_nrot>
4

> <opr_violation>
0

> <PC+>
0

> <PC->
0

> <PEOE_PC+>
1.1507252

> <PEOE_PC->
-1.1507252

> <PEOE_RPC+>
0.055043526

> <PEOE_RPC->
0.2679185

> <PEOE_VSA+0>
94.837601

> <PEOE_VSA+1>
34.123089

> <PEOE_VSA+2>
0.0

> <PEOE_VSA+3>
0.0

> <PEOE_VSA+4>
0.0

> <PEOE_VSA+5>
0.0

> <PEOE_VSA+6>
0.0

> <PEOE_VSA-0>
114.70053

> <PEOE_VSA-1>
73.529427

> <PEOE_VSA-2>
0.0

> <PEOE_VSA-3>
0.0

> <PEOE_VSA-4>
0.0

> <PEOE_VSA-5>
0.0

> <PEOE_VSA-6>
0.0

> <PEOE_VSA_FHYD>
1.0

> <PEOE_VSA_FNEG>
0.59342843

> <PEOE_VSA_FPNEG>
0.0

> <PEOE_VSA_FPOL>
0.0

> <PEOE_VSA_FPOS>
0.40657154

> <PEOE_VSA_FPPOS>
0.0

> <PEOE_VSA_HYD>
317.19064

> <PEOE_VSA_NEG>
188.22995

> <PEOE_VSA_PNEG>
0.0

> <PEOE_VSA_POL>
0.0

> <PEOE_VSA_POS>
128.96069

> <PEOE_VSA_PPOS>
0.0

> <petitjean>
0.44444445

> <petitjeanSC>
0.80000001

> <Q_PC+>
0

> <Q_PC->
0

> <Q_RPC+>
0

> <Q_RPC->
0

> <Q_VSA_FHYD>
1

> <Q_VSA_FNEG>
0

> <Q_VSA_FPNEG>
0

> <Q_VSA_FPOL>
0

> <Q_VSA_FPOS>
1

> <Q_VSA_FPPOS>
0

> <Q_VSA_HYD>
317.19064

> <Q_VSA_NEG>
0

> <Q_VSA_PNEG>
0

> <Q_VSA_POL>
0

> <Q_VSA_POS>
317.19064

> <Q_VSA_PPOS>
0

> <radius>
5

> <reactive>
0

> <rings>
3

> <RPC+>
0

> <RPC->
0

> <rsynth>
1.0

> <SlogP>
3.8749399

> <SlogP_VSA0>
3.1243138

> <SlogP_VSA1>
3.1243138

> <SlogP_VSA2>
0.0

> <SlogP_VSA3>
36.879158

> <SlogP_VSA4>
6.37115

> <SlogP_VSA5>
103.53119

> <SlogP_VSA6>
0.0

> <SlogP_VSA7>
141.14548

> <SlogP_VSA8>
18.868406

> <SlogP_VSA9>
5.513495

> <SMR>
9.0468998

> <SMR_VSA0>
0.0

> <SMR_VSA1>
3.1243138

> <SMR_VSA2>
3.1243138

> <SMR_VSA3>
6.37115

> <SMR_VSA4>
5.513495

> <SMR_VSA5>
197.75069

> <SMR_VSA6>
36.879158

> <SMR_VSA7>
65.794373

> <TPSA>
6.48

> <VAdjEq>
0.48250595

> <VAdjMa>
5.523562

> <VDistEq>
3.0281317

> <VDistMa>
8.515563

> <vdw_area>
317.19064

> <vdw_vol>
436.75778

> <vsa_acc>
0.0

> <vsa_acid>
0

> <vsa_base>
0

> <vsa_don>
0.0

> <vsa_hyd>
300.10754

> <vsa_other>
0.0

> <vsa_pol>
0.0

> <Weight>
280.41501

> <weinerPath>
882

> <weinerPol>
35

> <zagreb>
108

$$$$
Row1595
 OpenBabel06061811532D

 22 24  0  0  0  0  0  0  0  0999 V2000
    0.0000    0.0000    0.0000 O   0  5  0  0  0  0  0  0  0  0  0  0
    0.0000    0.0000    0.0000 N   0  3  0  0  0  0  0  0  0  0  0  0
    0.0000    0.0000    0.0000 C   0  0  0  0  0  0  0  0  0  0  0  0
    0.0000    0.0000    0.0000 C   0  0  0  0  0  0  0  0  0  0  0  0
    0.0000    0.0000    0.0000 C   0  0  0  0  0  0  0  0  0  0  0  0
    0.0000    0.0000    0.0000 N   0  0  0  0  0  0  0  0  0  0  0  0
    0.0000    0.0000    0.0000 C   0  0  0  0  0  0  0  0  0  0  0  0
    0.0000    0.0000    0.0000 C   0  0  0  0  0  0  0  0  0  0  0  0
    0.0000    0.0000    0.0000 C   0  0  0  0  0  0  0  0  0  0  0  0
    0.0000    0.0000    0.0000 C   0  0  0  0  0  0  0  0  0  0  0  0
    0.0000    0.0000    0.0000 C   0  0  0  0  0  0  0  0  0  0  0  0
    0.0000    0.0000    0.0000 C   0  0  0  0  0  0  0  0  0  0  0  0
    0.0000    0.0000    0.0000 C   0  0  0  0  0  0  0  0  0  0  0  0
    0.0000    0.0000    0.0000 C   0  0  0  0  0  0  0  0  0  0  0  0
    0.0000    0.0000    0.0000 C   0  0  0  0  0  0  0  0  0  0  0  0
    0.0000    0.0000    0.0000 C   0  0  0  0  0  0  0  0  0  0  0  0
    0.0000    0.0000    0.0000 C   0  0  0  0  0  0  0  0  0  0  0  0
    0.0000    0.0000    0.0000 C   0  0  0  0  0  0  0  0  0  0  0  0
    0.0000    0.0000    0.0000 C   0  0  0  0  0  0  0  0  0  0  0  0
    0.0000    0.0000    0.0000 C   0  0  0  0  0  0  0  0  0  0  0  0
    0.0000    0.0000    0.0000 C   0  0  0  0  0  0  0  0  0  0  0  0
    0.0000    0.0000    0.0000 C   0  0  0  0  0  0  0  0  0  0  0  0
  1  2  1  0  0  0  0
  2  3  1  0  0  0  0
  2 21  1  0  0  0  0
  2 22  1  0  0  0  0
  3  4  1  0  0  0  0
  4  5  1  0  0  0  0
  5  6  1  0  0  0  0
  6 12  1  0  0  0  0
  6  7  1  0  0  0  0
  7 20  1  0  0  0  0
  7  8  2  0  0  0  0
  8  9  1  0  0  0  0
  8 17  1  0  0  0  0
  9 10  1  0  0  0  0
 10 11  1  0  0  0  0
 11 16  1  0  0  0  0
 11 12  2  0  0  0  0
 12 13  1  0  0  0  0
 13 14  2  0  0  0  0
 14 15  1  0  0  0  0
 15 16  2  0  0  0  0
 17 18  2  0  0  0  0
 18 19  1  0  0  0  0
 19 20  2  0  0  0  0
M  CHG  2   1  -1   2   1
M  END
> <Index>
1596

> <ID>
HT1083

> <class>
1

> <apol>
52.44503

> <ast_fraglike>
0

> <ast_fraglike_ext>
0

> <ast_violation>
1

> <ast_violation_ext>
2

> <a_acc>
1

> <a_acid>
0

> <a_aro>
12

> <a_base>
0

> <a_count>
46

> <a_don>
0

> <a_donacc>
1

> <a_heavy>
22

> <a_hyd>
19

> <a_IC>
61.334126

> <a_ICM>
1.3333505

> <a_nB>
0

> <a_nBr>
0

> <a_nC>
19

> <a_nCl>
0

> <a_nF>
0

> <a_nH>
24

> <a_nI>
0

> <a_nN>
2

> <a_nO>
1

> <a_nP>
0

> <a_nS>
0

> <balabanJ>
1.7041489

> <BCUT_PEOE_0>
-2.7360501

> <BCUT_PEOE_1>
-0.5308997

> <BCUT_PEOE_2>
0.58282256

> <BCUT_PEOE_3>
2.6301425

> <BCUT_SLOGP_0>
-2.7929111

> <BCUT_SLOGP_1>
-0.42864066

> <BCUT_SLOGP_2>
0.67879474

> <BCUT_SLOGP_3>
2.62569

> <BCUT_SMR_0>
-2.4661899

> <BCUT_SMR_1>
-0.4029097

> <BCUT_SMR_2>
0.73086381

> <BCUT_SMR_3>
2.8833003

> <bpol>
30.494968

> <b_1rotN>
4

> <b_1rotR>
0.16666667

> <b_ar>
12

> <b_count>
48

> <b_double>
0

> <b_heavy>
24

> <b_max1len>
6

> <b_rotN>
4

> <b_rotR>
0.16666667

> <b_single>
36

> <b_triple>
0

> <chi0>
15.57914

> <chi0v>
13.457011

> <chi0v_C>
12.154336

> <chi0_C>
13.501789

> <chi1>
10.544624

> <chi1v>
8.0184774

> <chi1v_C>
5.8618073

> <chi1_C>
7.6161566

> <chiral>
0

> <chiral_u>
0

> <density>
0.66571367

> <diameter>
9

> <FCharge>
0

> <GCUT_PEOE_0>
-1.0364419

> <GCUT_PEOE_1>
-0.33970883

> <GCUT_PEOE_2>
0.037737064

> <GCUT_PEOE_3>
2.7848978

> <GCUT_SLOGP_0>
-0.99240804

> <GCUT_SLOGP_1>
-0.22366323

> <GCUT_SLOGP_2>
0.13642862

> <GCUT_SLOGP_3>
2.8867073

> <GCUT_SMR_0>
-0.60202801

> <GCUT_SMR_1>
-0.18537492

> <GCUT_SMR_2>
0.16102129

> <GCUT_SMR_3>
3.065531

> <Kier1>
16.84375

> <Kier2>
7.2664361

> <Kier3>
4.3083901

> <KierA1>
13.067566

> <KierA2>
5.5641775

> <KierA3>
3.2679157

> <KierFlex>
3.3050115

> <lip_acc>
3

> <lip_don>
0

> <lip_druglike>
1

> <lip_violation>
0

> <logP(o/w)>
3.9560001

> <logS>
-3.7880001

> <mr>
9.0040073

> <mutagenic>
0

> <nmol>
1

> <opr_brigid>
17

> <opr_leadlike>
1

> <opr_nring>
3

> <opr_nrot>
4

> <opr_violation>
0

> <PC+>
0

> <PC->
0

> <PEOE_PC+>
1.790808

> <PEOE_PC->
-1.790808

> <PEOE_RPC+>
0.051370997

> <PEOE_RPC->
0.35392478

> <PEOE_VSA+0>
69.415825

> <PEOE_VSA+1>
127.91588

> <PEOE_VSA+2>
0.0

> <PEOE_VSA+3>
0.0

> <PEOE_VSA+4>
0.0

> <PEOE_VSA+5>
0.0

> <PEOE_VSA+6>
0.0

> <PEOE_VSA-0>
46.329514

> <PEOE_VSA-1>
73.529427

> <PEOE_VSA-2>
0.0

> <PEOE_VSA-3>
0.0

> <PEOE_VSA-4>
0.0

> <PEOE_VSA-5>
0.0

> <PEOE_VSA-6>
16.965525

> <PEOE_VSA_FHYD>
0.94922876

> <PEOE_VSA_FNEG>
0.40946263

> <PEOE_VSA_FPNEG>
0.050771244

> <PEOE_VSA_FPOL>
0.050771244

> <PEOE_VSA_FPOS>
0.59053737

> <PEOE_VSA_FPPOS>
0.0

> <PEOE_VSA_HYD>
317.19064

> <PEOE_VSA_NEG>
136.82446

> <PEOE_VSA_PNEG>
16.965525

> <PEOE_VSA_POL>
16.965525

> <PEOE_VSA_POS>
197.33171

> <PEOE_VSA_PPOS>
0.0

> <petitjean>
0.44444445

> <petitjeanSC>
0.80000001

> <Q_PC+>
0

> <Q_PC->
0

> <Q_RPC+>
0

> <Q_RPC->
0

> <Q_VSA_FHYD>
1

> <Q_VSA_FNEG>
0

> <Q_VSA_FPNEG>
0

> <Q_VSA_FPOL>
0

> <Q_VSA_FPOS>
1

> <Q_VSA_FPPOS>
0

> <Q_VSA_HYD>
334.15616

> <Q_VSA_NEG>
0

> <Q_VSA_PNEG>
0

> <Q_VSA_POL>
0

> <Q_VSA_POS>
334.15616

> <Q_VSA_PPOS>
0

> <radius>
5

> <reactive>
0

> <rings>
3

> <RPC+>
0

> <RPC->
0

> <rsynth>
0.68181819

> <SlogP>
3.8875401

> <SlogP_VSA0>
3.1243138

> <SlogP_VSA1>
0.0

> <SlogP_VSA2>
0.0

> <SlogP_VSA3>
63.715294

> <SlogP_VSA4>
6.37115

> <SlogP_VSA5>
103.53119

> <SlogP_VSA6>
0.0

> <SlogP_VSA7>
141.14548

> <SlogP_VSA8>
18.868406

> <SlogP_VSA9>
5.513495

> <SMR>
9.2257404

> <SMR_VSA0>
0.0

> <SMR_VSA1>
0.0

> <SMR_VSA2>
29.960453

> <SMR_VSA3>
6.37115

> <SMR_VSA4>
5.513495

> <SMR_VSA5>
197.75069

> <SMR_VSA6>
36.879158

> <SMR_VSA7>
65.794373

> <TPSA>
20.309999

> <VAdjEq>
0.46637034

> <VAdjMa>
5.5849624

> <VDistEq>
3.0686817

> <VDistMa>
8.6497612

> <vdw_area>
334.15616

> <vdw_vol>
445.25748

> <vsa_acc>
16.965525

> <vsa_acid>
0

> <vsa_base>
0

> <vsa_don>
0.0

> <vsa_hyd>
300.10754

> <vsa_other>
0.0

> <vsa_pol>
16.965525

> <Weight>
296.414

> <weinerPath>
1007

> <weinerPol>
36

> <zagreb>
116

$$$$
Row1596
 OpenBabel06061811532D

 24 26  0  0  1  0  0  0  0  0999 V2000
    0.0000    0.0000    0.0000 Cl  0  0  0  0  0  0  0  0  0  0  0  0
    0.0000    0.0000    0.0000 C   0  0  0  0  0  0  0  0  0  0  0  0
    0.0000    0.0000    0.0000 C   0  0  0  0  0  0  0  0  0  0  0  0
    0.0000    0.0000    0.0000 C   0  0  0  0  0  0  0  0  0  0  0  0
    0.0000    0.0000    0.0000 C   0  0  0  0  0  0  0  0  0  0  0  0
    0.0000    0.0000    0.0000 C   0  0  0  0  0  0  0  0  0  0  0  0
    0.0000    0.0000    0.0000 C   0  0  0  0  0  0  0  0  0  0  0  0
    0.0000    0.0000    0.0000 S   0  0  0  0  0  0  0  0  0  0  0  0
    0.0000    0.0000    0.0000 O   0  0  0  0  0  0  0  0  0  0  0  0
    0.0000    0.0000    0.0000 O   0  0  0  0  0  0  0  0  0  0  0  0
    0.0000    0.0000    0.0000 N   0  0  0  0  0  0  0  0  0  0  0  0
    0.0000    0.0000    0.0000 C   0  0  0  0  0  0  0  0  0  0  0  0
    0.0000    0.0000    0.0000 O   0  0  0  0  0  0  0  0  0  0  0  0
    0.0000    0.0000    0.0000 N   0  0  0  0  0  0  0  0  0  0  0  0
    0.0000    0.0000    0.0000 N   0  0  0  0  0  0  0  0  0  0  0  0
    0.0000    0.0000    0.0000 C   0  0  0  0  0  0  0  0  0  0  0  0
    0.0000    0.0000    0.0000 C   0  0  0  0  0  0  0  0  0  0  0  0
    0.0000    0.0000    0.0000 C   0  0  0  0  0  0  0  0  0  0  0  0
    0.0000    0.0000    0.0000 C   0  0  3  0  0  0  0  0  0  0  0  0
    0.0000    0.0000    0.0000 C   0  0  0  0  0  0  0  0  0  0  0  0
    0.0000    0.0000    0.0000 C   0  0  0  0  0  0  0  0  0  0  0  0
    0.0000    0.0000    0.0000 C   0  0  0  0  0  0  0  0  0  0  0  0
    0.0000    0.0000    0.0000 C   0  0  0  0  0  0  0  0  0  0  0  0
    0.0000    0.0000    0.0000 C   0  0  0  0  0  0  0  0  0  0  0  0
  1  2  1  0  0  0  0
  2  7  1  0  0  0  0
  2  3  2  0  0  0  0
  3  4  1  0  0  0  0
  4  5  2  0  0  0  0
  5  6  1  0  0  0  0
  5 12  1  0  0  0  0
  6  7  2  0  0  0  0
  7  8  1  0  0  0  0
  8  9  2  0  0  0  0
  8 10  2  0  0  0  0
  8 11  1  0  0  0  0
 12 13  2  0  0  0  0
 12 14  1  0  0  0  0
 14 15  1  0  0  0  0
 15 19  1  0  0  0  0
 15 16  1  0  0  0  0
 16 24  1  0  0  0  0
 16 17  2  0  0  0  0
 17 18  1  0  0  0  0
 17 21  1  0  0  0  0
 18 19  1  0  0  0  0
 19 20  1  0  0  0  0
 21 22  2  0  0  0  0
 22 23  1  0  0  0  0
 23 24  2  0  0  0  0
M  END
> <Index>
1597

> <ID>
HT1089

> <class>
1

> <apol>
49.614689

> <ast_fraglike>
0

> <ast_fraglike_ext>
0

> <ast_violation>
1

> <ast_violation_ext>
2

> <a_acc>
3

> <a_acid>
0

> <a_aro>
12

> <a_base>
0

> <a_count>
40

> <a_don>
2

> <a_donacc>
5

> <a_heavy>
24

> <a_hyd>
16

> <a_IC>
75.367348

> <a_ICM>
1.8841838

> <a_nB>
0

> <a_nBr>
0

> <a_nC>
16

> <a_nCl>
1

> <a_nF>
0

> <a_nH>
16

> <a_nI>
0

> <a_nN>
3

> <a_nO>
3

> <a_nP>
0

> <a_nS>
1

> <balabanJ>
1.6135348

> <BCUT_PEOE_0>
-2.5488918

> <BCUT_PEOE_1>
-0.57629526

> <BCUT_PEOE_2>
0.62320399

> <BCUT_PEOE_3>
2.6098068

> <BCUT_SLOGP_0>
-2.695446

> <BCUT_SLOGP_1>
-0.43565243

> <BCUT_SLOGP_2>
0.71089715

> <BCUT_SLOGP_3>
2.6109259

> <BCUT_SMR_0>
-2.2815101

> <BCUT_SMR_1>
-0.40413544

> <BCUT_SMR_2>
0.79330963

> <BCUT_SMR_3>
2.8991251

> <bpol>
26.005312

> <b_1rotN>
3

> <b_1rotR>
0.11538462

> <b_ar>
12

> <b_count>
42

> <b_double>
1

> <b_heavy>
26

> <b_max1len>
3

> <b_rotN>
4

> <b_rotR>
0.15384616

> <b_single>
29

> <b_triple>
0

> <chi0>
17.482763

> <chi0v>
14.433856

> <chi0v_C>
9.3259087

> <chi0_C>
10.698306

> <chi1>
11.269876

> <chi1v>
9.2004986

> <chi1v_C>
5.1545362

> <chi1_C>
6.8433366

> <chiral>
1

> <chiral_u>
1

> <density>
0.84783483

> <diameter>
11

> <FCharge>
0

> <GCUT_PEOE_0>
-0.84999597

> <GCUT_PEOE_1>
-0.39676067

> <GCUT_PEOE_2>
0.061557483

> <GCUT_PEOE_3>
2.6024976

> <GCUT_SLOGP_0>
-1.3482778

> <GCUT_SLOGP_1>
-0.36810765

> <GCUT_SLOGP_2>
0.16691233

> <GCUT_SLOGP_3>
2.6464374

> <GCUT_SMR_0>
-0.51564014

> <GCUT_SMR_1>
-0.18268947

> <GCUT_SMR_2>
0.21366058

> <GCUT_SMR_3>
2.8876345

> <Kier1>
18.781065

> <Kier2>
7.3188691

> <Kier3>
4.0655999

> <KierA1>
15.933104

> <KierA2>
6.1621161

> <KierA3>
3.4043863

> <KierFlex>
4.0909014

> <lip_acc>
6

> <lip_don>
3

> <lip_druglike>
1

> <lip_violation>
0

> <logP(o/w)>
1.83

> <logS>
-4.59972

> <mr>
9.3376064

> <mutagenic>
0

> <nmol>
1

> <opr_brigid>
16

> <opr_leadlike>
1

> <opr_nring>
3

> <opr_nrot>
3

> <opr_violation>
0

> <PC+>
0

> <PC->
0

> <PEOE_PC+>
1.8514183

> <PEOE_PC->
-1.8514183

> <PEOE_RPC+>
0.16244826

> <PEOE_RPC->
0.15104681

> <PEOE_VSA+0>
64.990005

> <PEOE_VSA+1>
42.112606

> <PEOE_VSA+2>
4.5197463

> <PEOE_VSA+3>
8.6190128

> <PEOE_VSA+4>
0.0

> <PEOE_VSA+5>
12.949531

> <PEOE_VSA+6>
4.1846013

> <PEOE_VSA-0>
66.422241

> <PEOE_VSA-1>
66.346657

> <PEOE_VSA-2>
0.0

> <PEOE_VSA-3>
9.0437498

> <PEOE_VSA-4>
32.016521

> <PEOE_VSA-5>
17.442276

> <PEOE_VSA-6>
0.0

> <PEOE_VSA_FHYD>
0.79737246

> <PEOE_VSA_FNEG>
0.58199674

> <PEOE_VSA_FPNEG>
0.15049219

> <PEOE_VSA_FPOL>
0.20262757

> <PEOE_VSA_FPOS>
0.41800326

> <PEOE_VSA_FPPOS>
0.052135374

> <PEOE_VSA_HYD>
262.05402

> <PEOE_VSA_NEG>
191.27145

> <PEOE_VSA_PNEG>
49.458797

> <PEOE_VSA_POL>
66.592934

> <PEOE_VSA_POS>
137.3755

> <PEOE_VSA_PPOS>
17.134132

> <petitjean>
0.45454547

> <petitjeanSC>
0.83333331

> <Q_PC+>
0

> <Q_PC->
0

> <Q_RPC+>
0

> <Q_RPC->
0

> <Q_VSA_FHYD>
1

> <Q_VSA_FNEG>
0

> <Q_VSA_FPNEG>
0

> <Q_VSA_FPOL>
0

> <Q_VSA_FPOS>
1

> <Q_VSA_FPPOS>
0

> <Q_VSA_HYD>
328.64694

> <Q_VSA_NEG>
0

> <Q_VSA_PNEG>
0

> <Q_VSA_POL>
0

> <Q_VSA_POS>
328.64694

> <Q_VSA_PPOS>
0

> <radius>
6

> <reactive>
0

> <rings>
3

> <RPC+>
0

> <RPC->
0

> <rsynth>
1.0

> <SlogP>
2.08337

> <SlogP_VSA0>
52.181454

> <SlogP_VSA1>
53.430473

> <SlogP_VSA2>
10.622711

> <SlogP_VSA3>
0.0

> <SlogP_VSA4>
30.233366

> <SlogP_VSA5>
20.41914

> <SlogP_VSA6>
3.5006065

> <SlogP_VSA7>
123.50229

> <SlogP_VSA8>
0.0

> <SlogP_VSA9>
75.231407

> <SMR>
9.2378397

> <SMR_VSA0>
72.033905

> <SMR_VSA1>
0.0

> <SMR_VSA2>
22.440754

> <SMR_VSA3>
13.853725

> <SMR_VSA4>
34.048183

> <SMR_VSA5>
142.3707

> <SMR_VSA6>
5.2587838

> <SMR_VSA7>
79.115402

> <TPSA>
92.5

> <VAdjEq>
0.43739632

> <VAdjMa>
5.7004399

> <VDistEq>
3.3073354

> <VDistMa>
8.8782387

> <vdw_area>
328.64694

> <vdw_vol>
431.50034

> <vsa_acc>
45.583443

> <vsa_acid>
0

> <vsa_base>
0

> <vsa_don>
29.55616

> <vsa_hyd>
211.97888

> <vsa_other>
23.05514

> <vsa_pol>
75.139603

> <Weight>
365.841

> <weinerPath>
1345

> <weinerPol>
39

> <zagreb>
130

$$$$
Row1597
 OpenBabel06061811532D

 25 27  0  0  0  0  0  0  0  0999 V2000
    0.0000    0.0000    0.0000 Cl  0  0  0  0  0  0  0  0  0  0  0  0
    0.0000    0.0000    0.0000 C   0  0  0  0  0  0  0  0  0  0  0  0
    0.0000    0.0000    0.0000 C   0  0  0  0  0  0  0  0  0  0  0  0
    0.0000    0.0000    0.0000 C   0  0  0  0  0  0  0  0  0  0  0  0
    0.0000    0.0000    0.0000 C   0  0  0  0  0  0  0  0  0  0  0  0
    0.0000    0.0000    0.0000 C   0  0  0  0  0  0  0  0  0  0  0  0
    0.0000    0.0000    0.0000 C   0  0  0  0  0  0  0  0  0  0  0  0
    0.0000    0.0000    0.0000 C   0  0  0  0  0  0  0  0  0  0  0  0
    0.0000    0.0000    0.0000 O   0  0  0  0  0  0  0  0  0  0  0  0
    0.0000    0.0000    0.0000 N   0  0  0  0  0  0  0  0  0  0  0  0
    0.0000    0.0000    0.0000 C   0  0  0  0  0  0  0  0  0  0  0  0
    0.0000    0.0000    0.0000 C   0  0  0  0  0  0  0  0  0  0  0  0
    0.0000    0.0000    0.0000 C   0  0  0  0  0  0  0  0  0  0  0  0
    0.0000    0.0000    0.0000 C   0  0  0  0  0  0  0  0  0  0  0  0
    0.0000    0.0000    0.0000 O   0  0  0  0  0  0  0  0  0  0  0  0
    0.0000    0.0000    0.0000 C   0  0  0  0  0  0  0  0  0  0  0  0
    0.0000    0.0000    0.0000 C   0  0  0  0  0  0  0  0  0  0  0  0
    0.0000    0.0000    0.0000 C   0  0  0  0  0  0  0  0  0  0  0  0
    0.0000    0.0000    0.0000 C   0  0  0  0  0  0  0  0  0  0  0  0
    0.0000    0.0000    0.0000 C   0  0  0  0  0  0  0  0  0  0  0  0
    0.0000    0.0000    0.0000 C   0  0  0  0  0  0  0  0  0  0  0  0
    0.0000    0.0000    0.0000 O   0  0  0  0  0  0  0  0  0  0  0  0
    0.0000    0.0000    0.0000 O   0  0  0  0  0  0  0  0  0  0  0  0
    0.0000    0.0000    0.0000 C   0  0  0  0  0  0  0  0  0  0  0  0
    0.0000    0.0000    0.0000 C   0  0  0  0  0  0  0  0  0  0  0  0
  1  2  1  0  0  0  0
  2  7  1  0  0  0  0
  2  3  2  0  0  0  0
  3  4  1  0  0  0  0
  4  5  2  0  0  0  0
  5  6  1  0  0  0  0
  5  8  1  0  0  0  0
  6  7  2  0  0  0  0
  8  9  2  0  0  0  0
  8 10  1  0  0  0  0
 10 24  1  0  0  0  0
 10 11  1  0  0  0  0
 11 18  1  0  0  0  0
 11 12  2  0  0  0  0
 12 13  1  0  0  0  0
 12 19  1  0  0  0  0
 13 14  2  0  0  0  0
 14 15  1  0  0  0  0
 14 17  1  0  0  0  0
 15 16  1  0  0  0  0
 17 18  2  0  0  0  0
 19 20  1  0  0  0  0
 19 24  2  0  0  0  0
 20 21  1  0  0  0  0
 21 22  1  0  0  0  0
 21 23  2  0  0  0  0
 24 25  1  0  0  0  0
M  END
> <Index>
1598

> <ID>
HT1096

> <class>
1

> <apol>
50.596687

> <ast_fraglike>
0

> <ast_fraglike_ext>
0

> <ast_violation>
3

> <ast_violation_ext>
4

> <a_acc>
4

> <a_acid>
0

> <a_aro>
15

> <a_base>
0

> <a_count>
41

> <a_don>
2

> <a_donacc>
6

> <a_heavy>
25

> <a_hyd>
18

> <a_IC>
66.949013

> <a_ICM>
1.6329026

> <a_nB>
0

> <a_nBr>
0

> <a_nC>
19

> <a_nCl>
1

> <a_nF>
0

> <a_nH>
16

> <a_nI>
0

> <a_nN>
1

> <a_nO>
4

> <a_nP>
0

> <a_nS>
0

> <balabanJ>
1.7641709

> <BCUT_PEOE_0>
-2.2999675

> <BCUT_PEOE_1>
-0.58252817

> <BCUT_PEOE_2>
0.52326465

> <BCUT_PEOE_3>
2.4086096

> <BCUT_SLOGP_0>
-2.3327489

> <BCUT_SLOGP_1>
-0.5117023

> <BCUT_SLOGP_2>
0.73138279

> <BCUT_SLOGP_3>
2.4775817

> <BCUT_SMR_0>
-2.0439348

> <BCUT_SMR_1>
-0.34700221

> <BCUT_SMR_2>
0.80520219

> <BCUT_SMR_3>
2.7026448

> <bpol>
23.723312

> <b_1rotN>
5

> <b_1rotR>
0.18518518

> <b_ar>
16

> <b_count>
43

> <b_double>
2

> <b_heavy>
27

> <b_max1len>
2

> <b_rotN>
5

> <b_rotR>
0.18518518

> <b_single>
25

> <b_triple>
0

> <chi0>
18.137465

> <chi0v>
14.501624

> <chi0v_C>
11.248559

> <chi0_C>
12.853006

> <chi1>
11.917923

> <chi1v>
7.9985023

> <chi1v_C>
5.5165076

> <chi1_C>
7.4931664

> <chiral>
0

> <chiral_u>
0

> <density>
0.79430062

> <diameter>
12

> <FCharge>
0

> <GCUT_PEOE_0>
-0.80848604

> <GCUT_PEOE_1>
-0.43479782

> <GCUT_PEOE_2>
0.057437699

> <GCUT_PEOE_3>
2.6132295

> <GCUT_SLOGP_0>
-0.89829993

> <GCUT_SLOGP_1>
-0.33647203

> <GCUT_SLOGP_2>
0.14762172

> <GCUT_SLOGP_3>
2.7169464

> <GCUT_SMR_0>
-0.48363942

> <GCUT_SMR_1>
-0.20941971

> <GCUT_SMR_2>
0.20714541

> <GCUT_SMR_3>
2.9171443

> <Kier1>
19.753086

> <Kier2>
8.3471403

> <Kier3>
4.1352797

> <KierA1>
14.996656

> <KierA2>
6.2590914

> <KierA3>
3.0720692

> <KierFlex>
3.7546179

> <lip_acc>
5

> <lip_don>
1

> <lip_druglike>
1

> <lip_violation>
0

> <logP(o/w)>
4.3730001

> <logS>
-4.8529301

> <mr>
9.6372404

> <mutagenic>
0

> <nmol>
1

> <opr_brigid>
16

> <opr_leadlike>
1

> <opr_nring>
3

> <opr_nrot>
5

> <opr_violation>
0

> <PC+>
0

> <PC->
0

> <PEOE_PC+>
1.8747717

> <PEOE_PC->
-1.8747717

> <PEOE_RPC+>
0.14082786

> <PEOE_RPC->
0.18556502

> <PEOE_VSA+0>
61.960964

> <PEOE_VSA+1>
66.513245

> <PEOE_VSA+2>
0.0

> <PEOE_VSA+3>
0.0

> <PEOE_VSA+4>
10.324173

> <PEOE_VSA+5>
27.65803

> <PEOE_VSA+6>
0.0

> <PEOE_VSA-0>
106.74055

> <PEOE_VSA-1>
29.581947

> <PEOE_VSA-2>
0.0

> <PEOE_VSA-3>
0.0

> <PEOE_VSA-4>
0.0

> <PEOE_VSA-5>
27.133842

> <PEOE_VSA-6>
10.271297

> <PEOE_VSA_FHYD>
0.77839249

> <PEOE_VSA_FNEG>
0.51068717

> <PEOE_VSA_FPNEG>
0.10995559

> <PEOE_VSA_FPOL>
0.22160752

> <PEOE_VSA_FPOS>
0.48931283

> <PEOE_VSA_FPPOS>
0.11165193

> <PEOE_VSA_HYD>
264.79669

> <PEOE_VSA_NEG>
173.72763

> <PEOE_VSA_PNEG>
37.40514

> <PEOE_VSA_POL>
75.387344

> <PEOE_VSA_POS>
166.45641

> <PEOE_VSA_PPOS>
37.982204

> <petitjean>
0.5

> <petitjeanSC>
1.0

> <Q_PC+>
0

> <Q_PC->
0

> <Q_RPC+>
0

> <Q_RPC->
0

> <Q_VSA_FHYD>
1

> <Q_VSA_FNEG>
0

> <Q_VSA_FPNEG>
0

> <Q_VSA_FPOL>
0

> <Q_VSA_FPOS>
1

> <Q_VSA_FPPOS>
0

> <Q_VSA_HYD>
340.18405

> <Q_VSA_NEG>
0

> <Q_VSA_PNEG>
0

> <Q_VSA_POL>
0

> <Q_VSA_POS>
340.18405

> <Q_VSA_PPOS>
0

> <radius>
6

> <reactive>
0

> <rings>
3

> <RPC+>
0

> <RPC->
0

> <rsynth>
1.0

> <SlogP>
3.92729

> <SlogP_VSA0>
10.999887

> <SlogP_VSA1>
14.90334

> <SlogP_VSA2>
23.862217

> <SlogP_VSA3>
25.385227

> <SlogP_VSA4>
32.990112

> <SlogP_VSA5>
54.252274

> <SlogP_VSA6>
3.5006065

> <SlogP_VSA7>
128.21939

> <SlogP_VSA8>
0.0

> <SlogP_VSA9>
77.718086

> <SMR>
9.5747299

> <SMR_VSA0>
47.724434

> <SMR_VSA1>
12.898981

> <SMR_VSA2>
25.385227

> <SMR_VSA3>
17.871933

> <SMR_VSA4>
4.7171016

> <SMR_VSA5>
142.3707

> <SMR_VSA6>
13.004248

> <SMR_VSA7>
107.85853

> <TPSA>
68.529999

> <VAdjEq>
0.42433795

> <VAdjMa>
5.7548876

> <VDistEq>
3.2664471

> <VDistMa>
9.0199146

> <vdw_area>
340.18405

> <vdw_vol>
450.45035

> <vsa_acc>
16.070677

> <vsa_acid>
0

> <vsa_base>
0

> <vsa_don>
0.0

> <vsa_hyd>
254.11977

> <vsa_other>
27.65803

> <vsa_pol>
43.204517

> <Weight>
357.793

> <weinerPath>
1424

> <weinerPol>
42

> <zagreb>
132

$$$$
Row1598
 OpenBabel06061811532D

 35 35  0  0  1  0  0  0  0  0999 V2000
    0.0000    0.0000    0.0000 I   0  0  0  0  0  0  0  0  0  0  0  0
    0.0000    0.0000    0.0000 C   0  0  0  0  0  0  0  0  0  0  0  0
    0.0000    0.0000    0.0000 C   0  0  0  0  0  0  0  0  0  0  0  0
    0.0000    0.0000    0.0000 C   0  0  0  0  0  0  0  0  0  0  0  0
    0.0000    0.0000    0.0000 O   0  0  0  0  0  0  0  0  0  0  0  0
    0.0000    0.0000    0.0000 N   0  0  0  0  0  0  0  0  0  0  0  0
    0.0000    0.0000    0.0000 C   0  0  0  0  0  0  0  0  0  0  0  0
    0.0000    0.0000    0.0000 C   0  0  3  0  0  0  0  0  0  0  0  0
    0.0000    0.0000    0.0000 O   0  0  0  0  0  0  0  0  0  0  0  0
    0.0000    0.0000    0.0000 C   0  0  0  0  0  0  0  0  0  0  0  0
    0.0000    0.0000    0.0000 O   0  0  0  0  0  0  0  0  0  0  0  0
    0.0000    0.0000    0.0000 C   0  0  0  0  0  0  0  0  0  0  0  0
    0.0000    0.0000    0.0000 C   0  0  0  0  0  0  0  0  0  0  0  0
    0.0000    0.0000    0.0000 I   0  0  0  0  0  0  0  0  0  0  0  0
    0.0000    0.0000    0.0000 C   0  0  0  0  0  0  0  0  0  0  0  0
    0.0000    0.0000    0.0000 N   0  0  0  0  0  0  0  0  0  0  0  0
    0.0000    0.0000    0.0000 C   0  0  0  0  0  0  0  0  0  0  0  0
    0.0000    0.0000    0.0000 O   0  0  0  0  0  0  0  0  0  0  0  0
    0.0000    0.0000    0.0000 C   0  0  0  0  0  0  0  0  0  0  0  0
    0.0000    0.0000    0.0000 C   0  0  0  0  0  0  0  0  0  0  0  0
    0.0000    0.0000    0.0000 O   0  0  0  0  0  0  0  0  0  0  0  0
    0.0000    0.0000    0.0000 C   0  0  0  0  0  0  0  0  0  0  0  0
    0.0000    0.0000    0.0000 O   0  0  0  0  0  0  0  0  0  0  0  0
    0.0000    0.0000    0.0000 C   0  0  0  0  0  0  0  0  0  0  0  0
    0.0000    0.0000    0.0000 I   0  0  0  0  0  0  0  0  0  0  0  0
    0.0000    0.0000    0.0000 C   0  0  0  0  0  0  0  0  0  0  0  0
    0.0000    0.0000    0.0000 C   0  0  0  0  0  0  0  0  0  0  0  0
    0.0000    0.0000    0.0000 O   0  0  0  0  0  0  0  0  0  0  0  0
    0.0000    0.0000    0.0000 N   0  0  0  0  0  0  0  0  0  0  0  0
    0.0000    0.0000    0.0000 C   0  0  0  0  0  0  0  0  0  0  0  0
    0.0000    0.0000    0.0000 C   0  0  3  0  0  0  0  0  0  0  0  0
    0.0000    0.0000    0.0000 O   0  0  0  0  0  0  0  0  0  0  0  0
    0.0000    0.0000    0.0000 C   0  0  0  0  0  0  0  0  0  0  0  0
    0.0000    0.0000    0.0000 O   0  0  0  0  0  0  0  0  0  0  0  0
    0.0000    0.0000    0.0000 C   0  0  0  0  0  0  0  0  0  0  0  0
  1  2  1  0  0  0  0
  2 26  1  0  0  0  0
  2  3  2  0  0  0  0
  3  4  1  0  0  0  0
  3 13  1  0  0  0  0
  4  5  2  0  0  0  0
  4  6  1  0  0  0  0
  6  7  1  0  0  0  0
  6 12  1  0  0  0  0
  7  8  1  0  0  0  0
  8  9  1  0  0  0  0
  8 10  1  0  0  0  0
 10 11  1  0  0  0  0
 13 14  1  0  0  0  0
 13 15  2  0  0  0  0
 15 16  1  0  0  0  0
 15 24  1  0  0  0  0
 16 17  1  0  0  0  0
 17 18  2  0  0  0  0
 17 19  1  0  0  0  0
 19 20  1  0  0  0  0
 19 22  1  0  0  0  0
 20 21  1  0  0  0  0
 22 23  1  0  0  0  0
 24 25  1  0  0  0  0
 24 26  2  0  0  0  0
 26 27  1  0  0  0  0
 27 28  2  0  0  0  0
 27 29  1  0  0  0  0
 29 30  1  0  0  0  0
 29 35  1  0  0  0  0
 30 31  1  0  0  0  0
 31 32  1  0  0  0  0
 31 33  1  0  0  0  0
 33 34  1  0  0  0  0
M  END
> <Index>
1599

> <ID>
HT1100

> <class>
1

> <apol>
80.438202

> <ast_fraglike>
0

> <ast_fraglike_ext>
0

> <ast_violation>
3

> <ast_violation_ext>
5

> <a_acc>
9

> <a_acid>
0

> <a_aro>
6

> <a_base>
0

> <a_count>
63

> <a_don>
7

> <a_donacc>
16

> <a_heavy>
35

> <a_hyd>
20

> <a_IC>
117.48504

> <a_ICM>
1.8648418

> <a_nB>
0

> <a_nBr>
0

> <a_nC>
20

> <a_nCl>
0

> <a_nF>
0

> <a_nH>
28

> <a_nI>
3

> <a_nN>
3

> <a_nO>
9

> <a_nP>
0

> <a_nS>
0

> <balabanJ>
3.3309374

> <BCUT_PEOE_0>
-2.5936935

> <BCUT_PEOE_1>
-0.54058141

> <BCUT_PEOE_2>
0.64701718

> <BCUT_PEOE_3>
2.5843856

> <BCUT_SLOGP_0>
-2.7498915

> <BCUT_SLOGP_1>
-0.61562276

> <BCUT_SLOGP_2>
0.55913478

> <BCUT_SLOGP_3>
2.4572308

> <BCUT_SMR_0>
-2.3446338

> <BCUT_SMR_1>
-0.42341971

> <BCUT_SMR_2>
0.80817252

> <BCUT_SMR_3>
2.8345022

> <bpol>
48.873795

> <b_1rotN>
14

> <b_1rotR>
0.40000001

> <b_ar>
6

> <b_count>
63

> <b_double>
3

> <b_heavy>
35

> <b_max1len>
7

> <b_rotN>
15

> <b_rotR>
0.42857143

> <b_single>
54

> <b_triple>
0

> <chi0>
27.032652

> <chi0v>
25.383533

> <chi0v_C>
12.474691

> <chi0_C>
13.170844

> <chi1>
16.35108

> <chi1v>
13.409137

> <chi1v_C>
4.7381649

> <chi1_C>
5.4494896

> <chiral>
2

> <chiral_u>
2

> <density>
1.2366673

> <diameter>
14

> <FCharge>
0

> <GCUT_PEOE_0>
-0.8463515

> <GCUT_PEOE_1>
-0.42485887

> <GCUT_PEOE_2>
0.13123867

> <GCUT_PEOE_3>
2.7443614

> <GCUT_SLOGP_0>
-1.0006263

> <GCUT_SLOGP_1>
-0.45976561

> <GCUT_SLOGP_2>
0.0037915562

> <GCUT_SLOGP_3>
2.735821

> <GCUT_SMR_0>
-0.52288502

> <GCUT_SMR_1>
-0.2179846

> <GCUT_SMR_2>
0.2781716

> <GCUT_SMR_3>
3.0763717

> <Kier1>
33.028572

> <Kier2>
15.421075

> <Kier3>
8.5

> <KierA1>
35.958652

> <KierA2>
16.831394

> <KierA3>
9.2941971

> <KierFlex>
17.292408

> <lip_acc>
12

> <lip_don>
7

> <lip_druglike>
0

> <lip_violation>
3

> <logP(o/w)>
-0.35600001

> <logS>
-3.1830499

> <mr>
15.343445

> <mutagenic>
0

> <nmol>
1

> <opr_brigid>
6

> <opr_leadlike>
0

> <opr_nring>
1

> <opr_nrot>
12

> <opr_violation>
4

> <PC+>
0

> <PC->
0

> <PEOE_PC+>
4.2811832

> <PEOE_PC->
-4.2811832

> <PEOE_RPC+>
0.059915438

> <PEOE_RPC->
0.092071183

> <PEOE_VSA+0>
105.75983

> <PEOE_VSA+1>
146.52725

> <PEOE_VSA+2>
0.0

> <PEOE_VSA+3>
8.6190128

> <PEOE_VSA+4>
74.894569

> <PEOE_VSA+5>
25.899061

> <PEOE_VSA+6>
0.0

> <PEOE_VSA-0>
140.97005

> <PEOE_VSA-1>
0.0

> <PEOE_VSA-2>
0.0

> <PEOE_VSA-3>
0.0

> <PEOE_VSA-4>
0.0

> <PEOE_VSA-5>
40.700764

> <PEOE_VSA-6>
46.742134

> <PEOE_VSA_FHYD>
0.68101597

> <PEOE_VSA_FNEG>
0.38706666

> <PEOE_VSA_FPNEG>
0.14818001

> <PEOE_VSA_FPOL>
0.31898406

> <PEOE_VSA_FPOS>
0.61293334

> <PEOE_VSA_FPPOS>
0.17080404

> <PEOE_VSA_HYD>
401.87613

> <PEOE_VSA_NEG>
228.41293

> <PEOE_VSA_PNEG>
87.442894

> <PEOE_VSA_POL>
188.23653

> <PEOE_VSA_POS>
361.69971

> <PEOE_VSA_PPOS>
100.79363

> <petitjean>
0.42857143

> <petitjeanSC>
0.75

> <Q_PC+>
0

> <Q_PC->
0

> <Q_RPC+>
0

> <Q_RPC->
0

> <Q_VSA_FHYD>
1

> <Q_VSA_FNEG>
0

> <Q_VSA_FPNEG>
0

> <Q_VSA_FPOL>
0

> <Q_VSA_FPOS>
1

> <Q_VSA_FPPOS>
0

> <Q_VSA_HYD>
590.11267

> <Q_VSA_NEG>
0

> <Q_VSA_PNEG>
0

> <Q_VSA_POL>
0

> <Q_VSA_POS>
590.11267

> <Q_VSA_PPOS>
0

> <radius>
8

> <reactive>
0

> <rings>
1

> <RPC+>
0

> <RPC->
0

> <rsynth>
1.0

> <SlogP>
-1.1099

> <SlogP_VSA0>
152.31136

> <SlogP_VSA1>
40.035728

> <SlogP_VSA2>
41.778442

> <SlogP_VSA3>
120.58419

> <SlogP_VSA4>
58.506378

> <SlogP_VSA5>
65.794373

> <SlogP_VSA6>
0.0

> <SlogP_VSA7>
0.0

> <SlogP_VSA8>
0.0

> <SlogP_VSA9>
173.10277

> <SMR>
15.09905

> <SMR_VSA0>
71.586647

> <SMR_VSA1>
158.55998

> <SMR_VSA2>
9.3897247

> <SMR_VSA3>
19.308449

> <SMR_VSA4>
20.767498

> <SMR_VSA5>
0.0

> <SMR_VSA6>
136.36053

> <SMR_VSA7>
236.1404

> <TPSA>
191.10001

> <VAdjEq>
0.31599712

> <VAdjMa>
6.129283

> <VDistEq>
3.5654671

> <VDistMa>
10.018992

> <vdw_area>
590.11267

> <vdw_vol>
675.33765

> <vsa_acc>
40.700764

> <vsa_acid>
0

> <vsa_base>
0

> <vsa_don>
5.6825762

> <vsa_hyd>
376.96436

> <vsa_other>
38.848595

> <vsa_pol>
127.78487

> <Weight>
835.16797

> <weinerPath>
3584

> <weinerPol>
61

> <zagreb>
168

$$$$
Row1599
 OpenBabel06061811532D

 21 21  0  0  0  0  0  0  0  0999 V2000
    0.0000    0.0000    0.0000 I   0  0  0  0  0  0  0  0  0  0  0  0
    0.0000    0.0000    0.0000 C   0  0  0  0  0  0  0  0  0  0  0  0
    0.0000    0.0000    0.0000 C   0  0  0  0  0  0  0  0  0  0  0  0
    0.0000    0.0000    0.0000 C   0  0  0  0  0  0  0  0  0  0  0  0
    0.0000    0.0000    0.0000 N   0  0  0  0  0  0  0  0  0  0  0  0
    0.0000    0.0000    0.0000 C   0  0  0  0  0  0  0  0  0  0  0  0
    0.0000    0.0000    0.0000 O   0  0  0  0  0  0  0  0  0  0  0  0
    0.0000    0.0000    0.0000 C   0  0  0  0  0  0  0  0  0  0  0  0
    0.0000    0.0000    0.0000 C   0  0  0  0  0  0  0  0  0  0  0  0
    0.0000    0.0000    0.0000 I   0  0  0  0  0  0  0  0  0  0  0  0
    0.0000    0.0000    0.0000 C   0  0  0  0  0  0  0  0  0  0  0  0
    0.0000    0.0000    0.0000 N   0  0  0  0  0  0  0  0  0  0  0  0
    0.0000    0.0000    0.0000 C   0  0  0  0  0  0  0  0  0  0  0  0
    0.0000    0.0000    0.0000 O   0  0  0  0  0  0  0  0  0  0  0  0
    0.0000    0.0000    0.0000 C   0  0  0  0  0  0  0  0  0  0  0  0
    0.0000    0.0000    0.0000 C   0  0  0  0  0  0  0  0  0  0  0  0
    0.0000    0.0000    0.0000 I   0  0  0  0  0  0  0  0  0  0  0  0
    0.0000    0.0000    0.0000 C   0  0  0  0  0  0  0  0  0  0  0  0
    0.0000    0.0000    0.0000 C   0  0  0  0  0  0  0  0  0  0  0  0
    0.0000    0.0000    0.0000 O   0  0  0  0  0  0  0  0  0  0  0  0
    0.0000    0.0000    0.0000 O   0  0  0  0  0  0  0  0  0  0  0  0
  1  2  1  0  0  0  0
  2 18  1  0  0  0  0
  2  3  2  0  0  0  0
  3  4  1  0  0  0  0
  3  9  1  0  0  0  0
  4  5  1  0  0  0  0
  5  6  1  0  0  0  0
  6  7  2  0  0  0  0
  6  8  1  0  0  0  0
  9 10  1  0  0  0  0
  9 11  2  0  0  0  0
 11 12  1  0  0  0  0
 11 16  1  0  0  0  0
 12 13  1  0  0  0  0
 13 14  2  0  0  0  0
 13 15  1  0  0  0  0
 16 17  1  0  0  0  0
 16 18  2  0  0  0  0
 18 19  1  0  0  0  0
 19 20  1  0  0  0  0
 19 21  2  0  0  0  0
M  END
> <Index>
1600

> <ID>
HT1102

> <class>
1

> <apol>
49.912724

> <ast_fraglike>
0

> <ast_fraglike_ext>
0

> <ast_violation>
4

> <ast_violation_ext>
6

> <a_acc>
4

> <a_acid>
0

> <a_aro>
6

> <a_base>
0

> <a_count>
32

> <a_don>
4

> <a_donacc>
8

> <a_heavy>
21

> <a_hyd>
12

> <a_IC>
64.171814

> <a_ICM>
2.0053692

> <a_nB>
0

> <a_nBr>
0

> <a_nC>
12

> <a_nCl>
0

> <a_nF>
0

> <a_nH>
11

> <a_nI>
3

> <a_nN>
2

> <a_nO>
4

> <a_nP>
0

> <a_nS>
0

> <balabanJ>
2.9616625

> <BCUT_PEOE_0>
-2.4135847

> <BCUT_PEOE_1>
-0.56270003

> <BCUT_PEOE_2>
0.45202404

> <BCUT_PEOE_3>
2.3941453

> <BCUT_SLOGP_0>
-2.510716

> <BCUT_SLOGP_1>
-0.50459093

> <BCUT_SLOGP_2>
0.53896594

> <BCUT_SLOGP_3>
2.4604137

> <BCUT_SMR_0>
-2.1133606

> <BCUT_SMR_1>
-0.31605521

> <BCUT_SMR_2>
0.80304044

> <BCUT_SMR_3>
2.7487307

> <bpol>
26.989277

> <b_1rotN>
4

> <b_1rotR>
0.19047619

> <b_ar>
6

> <b_count>
32

> <b_double>
3

> <b_heavy>
21

> <b_max1len>
3

> <b_rotN>
6

> <b_rotR>
0.2857143

> <b_single>
23

> <b_triple>
0

> <chi0>
16.317472

> <chi0v>
17.485453

> <chi0v_C>
7.2071066

> <chi0_C>
7.9032593

> <chi1>
9.6624784

> <chi1v>
8.8462801

> <chi1v_C>
3.1035533

> <chi1_C>
3.8962822

> <chiral>
0

> <chiral_u>
0

> <density>
1.5030644

> <diameter>
9

> <FCharge>
0

> <GCUT_PEOE_0>
-0.83364552

> <GCUT_PEOE_1>
-0.48867339

> <GCUT_PEOE_2>
0.076215409

> <GCUT_PEOE_3>
2.3738852

> <GCUT_SLOGP_0>
-1.1315925

> <GCUT_SLOGP_1>
-0.40093318

> <GCUT_SLOGP_2>
0.19882043

> <GCUT_SLOGP_3>
2.4788029

> <GCUT_SMR_0>
-0.47971255

> <GCUT_SMR_1>
-0.20756194

> <GCUT_SMR_2>
0.34908828

> <GCUT_SMR_3>
2.7836304

> <Kier1>
19.047619

> <Kier2>
8.0222225

> <Kier3>
4.7333822

> <KierA1>
22.487875

> <KierA2>
9.5505781

> <KierA3>
5.671145

> <KierFlex>
10.227248

> <lip_acc>
6

> <lip_don>
3

> <lip_druglike>
1

> <lip_violation>
1

> <logP(o/w)>
3.8570001

> <logS>
-4.6917801

> <mr>
10.511796

> <mutagenic>
0

> <nmol>
1

> <opr_brigid>
6

> <opr_leadlike>
1

> <opr_nring>
1

> <opr_nrot>
4

> <opr_violation>
1

> <PC+>
0

> <PC->
0

> <PEOE_PC+>
1.9350429

> <PEOE_PC->
-1.9350429

> <PEOE_RPC+>
0.15158677

> <PEOE_RPC->
0.18197396

> <PEOE_VSA+0>
84.568726

> <PEOE_VSA+1>
20.478956

> <PEOE_VSA+2>
0.0

> <PEOE_VSA+3>
17.238026

> <PEOE_VSA+4>
36.223236

> <PEOE_VSA+5>
14.708499

> <PEOE_VSA+6>
0.0

> <PEOE_VSA-0>
140.97005

> <PEOE_VSA-1>
0.0

> <PEOE_VSA-2>
0.0

> <PEOE_VSA-3>
0.0

> <PEOE_VSA-4>
0.0

> <PEOE_VSA-5>
40.700764

> <PEOE_VSA-6>
8.0413227

> <PEOE_VSA_FHYD>
0.72536319

> <PEOE_VSA_FNEG>
0.52272439

> <PEOE_VSA_FPNEG>
0.13430178

> <PEOE_VSA_FPOL>
0.27463681

> <PEOE_VSA_FPOS>
0.47727564

> <PEOE_VSA_FPPOS>
0.14033504

> <PEOE_VSA_HYD>
263.25574

> <PEOE_VSA_NEG>
189.71213

> <PEOE_VSA_PNEG>
48.742085

> <PEOE_VSA_POL>
99.67382

> <PEOE_VSA_POS>
173.21744

> <PEOE_VSA_PPOS>
50.931732

> <petitjean>
0.44444445

> <petitjeanSC>
0.80000001

> <Q_PC+>
0

> <Q_PC->
0

> <Q_RPC+>
0

> <Q_RPC->
0

> <Q_VSA_FHYD>
1

> <Q_VSA_FNEG>
0

> <Q_VSA_FPNEG>
0

> <Q_VSA_FPOL>
0

> <Q_VSA_FPOS>
1

> <Q_VSA_FPPOS>
0

> <Q_VSA_HYD>
362.92957

> <Q_VSA_NEG>
0

> <Q_VSA_PNEG>
0

> <Q_VSA_POL>
0

> <Q_VSA_POS>
362.92957

> <Q_VSA_PPOS>
0

> <radius>
5

> <reactive>
0

> <rings>
1

> <RPC+>
0

> <RPC->
0

> <rsynth>
0.52380955

> <SlogP>
3.0595

> <SlogP_VSA0>
18.01075

> <SlogP_VSA1>
36.273781

> <SlogP_VSA2>
52.703362

> <SlogP_VSA3>
25.385227

> <SlogP_VSA4>
30.233366

> <SlogP_VSA5>
0.0

> <SlogP_VSA6>
0.0

> <SlogP_VSA7>
0.0

> <SlogP_VSA8>
0.0

> <SlogP_VSA9>
258.19437

> <SMR>
10.35817

> <SMR_VSA0>
71.586647

> <SMR_VSA1>
0.0

> <SMR_VSA2>
48.374905

> <SMR_VSA3>
6.37115

> <SMR_VSA4>
20.767498

> <SMR_VSA5>
18.439579

> <SMR_VSA6>
18.263031

> <SMR_VSA7>
236.99806

> <TPSA>
95.5

> <VAdjEq>
0.45371634

> <VAdjMa>
5.3923173

> <VDistEq>
2.9970746

> <VDistMa>
8.5306063

> <vdw_area>
362.92957

> <vdw_vol>
417.77451

> <vsa_acc>
27.133842

> <vsa_acid>
0

> <vsa_base>
0

> <vsa_don>
11.365152

> <vsa_hyd>
240.32336

> <vsa_other>
40.607563

> <vsa_pol>
65.632835

> <Weight>
627.94202

> <weinerPath>
880

> <weinerPol>
34

> <zagreb>
102

$$$$
Row1600
 OpenBabel06061811532D

 62 63  0  0  1  0  0  0  0  0999 V2000
    0.0000    0.0000    0.0000 I   0  0  0  0  0  0  0  0  0  0  0  0
    0.0000    0.0000    0.0000 C   0  0  0  0  0  0  0  0  0  0  0  0
    0.0000    0.0000    0.0000 C   0  0  0  0  0  0  0  0  0  0  0  0
    0.0000    0.0000    0.0000 C   0  0  0  0  0  0  0  0  0  0  0  0
    0.0000    0.0000    0.0000 O   0  0  0  0  0  0  0  0  0  0  0  0
    0.0000    0.0000    0.0000 N   0  0  0  0  0  0  0  0  0  0  0  0
    0.0000    0.0000    0.0000 C   0  0  0  0  0  0  0  0  0  0  0  0
    0.0000    0.0000    0.0000 C   0  0  3  0  0  0  0  0  0  0  0  0
    0.0000    0.0000    0.0000 O   0  0  0  0  0  0  0  0  0  0  0  0
    0.0000    0.0000    0.0000 C   0  0  0  0  0  0  0  0  0  0  0  0
    0.0000    0.0000    0.0000 O   0  0  0  0  0  0  0  0  0  0  0  0
    0.0000    0.0000    0.0000 C   0  0  0  0  0  0  0  0  0  0  0  0
    0.0000    0.0000    0.0000 I   0  0  0  0  0  0  0  0  0  0  0  0
    0.0000    0.0000    0.0000 C   0  0  0  0  0  0  0  0  0  0  0  0
    0.0000    0.0000    0.0000 N   0  0  0  0  0  0  0  0  0  0  0  0
    0.0000    0.0000    0.0000 C   0  0  0  0  0  0  0  0  0  0  0  0
    0.0000    0.0000    0.0000 O   0  0  0  0  0  0  0  0  0  0  0  0
    0.0000    0.0000    0.0000 C   0  0  0  0  0  0  0  0  0  0  0  0
    0.0000    0.0000    0.0000 C   0  0  0  0  0  0  0  0  0  0  0  0
    0.0000    0.0000    0.0000 C   0  0  3  0  0  0  0  0  0  0  0  0
    0.0000    0.0000    0.0000 O   0  0  0  0  0  0  0  0  0  0  0  0
    0.0000    0.0000    0.0000 C   0  0  0  0  0  0  0  0  0  0  0  0
    0.0000    0.0000    0.0000 N   0  0  0  0  0  0  0  0  0  0  0  0
    0.0000    0.0000    0.0000 C   0  0  0  0  0  0  0  0  0  0  0  0
    0.0000    0.0000    0.0000 O   0  0  0  0  0  0  0  0  0  0  0  0
    0.0000    0.0000    0.0000 C   0  0  0  0  0  0  0  0  0  0  0  0
    0.0000    0.0000    0.0000 C   0  0  0  0  0  0  0  0  0  0  0  0
    0.0000    0.0000    0.0000 C   0  0  0  0  0  0  0  0  0  0  0  0
    0.0000    0.0000    0.0000 I   0  0  0  0  0  0  0  0  0  0  0  0
    0.0000    0.0000    0.0000 C   0  0  0  0  0  0  0  0  0  0  0  0
    0.0000    0.0000    0.0000 C   0  0  0  0  0  0  0  0  0  0  0  0
    0.0000    0.0000    0.0000 O   0  0  0  0  0  0  0  0  0  0  0  0
    0.0000    0.0000    0.0000 N   0  0  0  0  0  0  0  0  0  0  0  0
    0.0000    0.0000    0.0000 C   0  0  0  0  0  0  0  0  0  0  0  0
    0.0000    0.0000    0.0000 C   0  0  3  0  0  0  0  0  0  0  0  0
    0.0000    0.0000    0.0000 O   0  0  0  0  0  0  0  0  0  0  0  0
    0.0000    0.0000    0.0000 C   0  0  0  0  0  0  0  0  0  0  0  0
    0.0000    0.0000    0.0000 O   0  0  0  0  0  0  0  0  0  0  0  0
    0.0000    0.0000    0.0000 C   0  0  0  0  0  0  0  0  0  0  0  0
    0.0000    0.0000    0.0000 I   0  0  0  0  0  0  0  0  0  0  0  0
    0.0000    0.0000    0.0000 C   0  0  0  0  0  0  0  0  0  0  0  0
    0.0000    0.0000    0.0000 C   0  0  0  0  0  0  0  0  0  0  0  0
    0.0000    0.0000    0.0000 O   0  0  0  0  0  0  0  0  0  0  0  0
    0.0000    0.0000    0.0000 N   0  0  0  0  0  0  0  0  0  0  0  0
    0.0000    0.0000    0.0000 C   0  0  0  0  0  0  0  0  0  0  0  0
    0.0000    0.0000    0.0000 C   0  0  3  0  0  0  0  0  0  0  0  0
    0.0000    0.0000    0.0000 O   0  0  0  0  0  0  0  0  0  0  0  0
    0.0000    0.0000    0.0000 C   0  0  0  0  0  0  0  0  0  0  0  0
    0.0000    0.0000    0.0000 O   0  0  0  0  0  0  0  0  0  0  0  0
    0.0000    0.0000    0.0000 C   0  0  0  0  0  0  0  0  0  0  0  0
    0.0000    0.0000    0.0000 I   0  0  0  0  0  0  0  0  0  0  0  0
    0.0000    0.0000    0.0000 C   0  0  0  0  0  0  0  0  0  0  0  0
    0.0000    0.0000    0.0000 I   0  0  0  0  0  0  0  0  0  0  0  0
    0.0000    0.0000    0.0000 C   0  0  0  0  0  0  0  0  0  0  0  0
    0.0000    0.0000    0.0000 C   0  0  0  0  0  0  0  0  0  0  0  0
    0.0000    0.0000    0.0000 O   0  0  0  0  0  0  0  0  0  0  0  0
    0.0000    0.0000    0.0000 N   0  0  0  0  0  0  0  0  0  0  0  0
    0.0000    0.0000    0.0000 C   0  0  0  0  0  0  0  0  0  0  0  0
    0.0000    0.0000    0.0000 C   0  0  3  0  0  0  0  0  0  0  0  0
    0.0000    0.0000    0.0000 O   0  0  0  0  0  0  0  0  0  0  0  0
    0.0000    0.0000    0.0000 C   0  0  0  0  0  0  0  0  0  0  0  0
    0.0000    0.0000    0.0000 O   0  0  0  0  0  0  0  0  0  0  0  0
  1  2  1  0  0  0  0
  2 54  1  0  0  0  0
  2  3  2  0  0  0  0
  3  4  1  0  0  0  0
  3 12  1  0  0  0  0
  4  5  2  0  0  0  0
  4  6  1  0  0  0  0
  6  7  1  0  0  0  0
  7  8  1  0  0  0  0
  8  9  1  0  0  0  0
  8 10  1  0  0  0  0
 10 11  1  0  0  0  0
 12 13  1  0  0  0  0
 12 14  2  0  0  0  0
 14 15  1  0  0  0  0
 14 52  1  0  0  0  0
 15 16  1  0  0  0  0
 15 19  1  0  0  0  0
 16 17  2  0  0  0  0
 16 18  1  0  0  0  0
 19 20  1  0  0  0  0
 20 21  1  0  0  0  0
 20 22  1  0  0  0  0
 22 23  1  0  0  0  0
 23 24  1  0  0  0  0
 23 27  1  0  0  0  0
 24 25  2  0  0  0  0
 24 26  1  0  0  0  0
 27 50  1  0  0  0  0
 27 28  2  0  0  0  0
 28 29  1  0  0  0  0
 28 30  1  0  0  0  0
 30 31  1  0  0  0  0
 30 39  2  0  0  0  0
 31 32  2  0  0  0  0
 31 33  1  0  0  0  0
 33 34  1  0  0  0  0
 34 35  1  0  0  0  0
 35 36  1  0  0  0  0
 35 37  1  0  0  0  0
 37 38  1  0  0  0  0
 39 40  1  0  0  0  0
 39 41  1  0  0  0  0
 41 42  1  0  0  0  0
 41 50  2  0  0  0  0
 42 43  2  0  0  0  0
 42 44  1  0  0  0  0
 44 45  1  0  0  0  0
 45 46  1  0  0  0  0
 46 47  1  0  0  0  0
 46 48  1  0  0  0  0
 48 49  1  0  0  0  0
 50 51  1  0  0  0  0
 52 53  1  0  0  0  0
 52 54  2  0  0  0  0
 54 55  1  0  0  0  0
 55 56  2  0  0  0  0
 55 57  1  0  0  0  0
 57 58  1  0  0  0  0
 58 59  1  0  0  0  0
 59 60  1  0  0  0  0
 59 61  1  0  0  0  0
 61 62  1  0  0  0  0
M  END
> <Index>
1601

> <ID>
HT1104

> <class>
1

> <apol>
141.6689

> <ast_fraglike>
0

> <ast_fraglike_ext>
0

> <ast_violation>
3

> <ast_violation_ext>
5

> <a_acc>
15

> <a_acid>
0

> <a_aro>
12

> <a_base>
0

> <a_count>
106

> <a_don>
13

> <a_donacc>
28

> <a_heavy>
62

> <a_hyd>
35

> <a_IC>
203.79677

> <a_ICM>
1.922611

> <a_nB>
0

> <a_nBr>
0

> <a_nC>
35

> <a_nCl>
0

> <a_nF>
0

> <a_nH>
44

> <a_nI>
6

> <a_nN>
6

> <a_nO>
15

> <a_nP>
0

> <a_nS>
0

> <balabanJ>
2.5716641

> <BCUT_PEOE_0>
-2.6065888

> <BCUT_PEOE_1>
-0.59179127

> <BCUT_PEOE_2>
0.61829257

> <BCUT_PEOE_3>
2.6013112

> <BCUT_SLOGP_0>
-2.7735152

> <BCUT_SLOGP_1>
-0.58327872

> <BCUT_SLOGP_2>
0.59856582

> <BCUT_SLOGP_3>
2.4874356

> <BCUT_SMR_0>
-2.3386517

> <BCUT_SMR_1>
-0.38989997

> <BCUT_SMR_2>
0.86427218

> <BCUT_SMR_3>
2.8786407

> <bpol>
81.989105

> <b_1rotN>
24

> <b_1rotR>
0.38095239

> <b_ar>
12

> <b_count>
107

> <b_double>
6

> <b_heavy>
63

> <b_max1len>
6

> <b_rotN>
28

> <b_rotR>
0.44444445

> <b_single>
89

> <b_triple>
0

> <chi0>
47.333252

> <chi0v>
45.539436

> <chi0v_C>
20.957819

> <chi0_C>
22.350124

> <chi1>
28.996721

> <chi1v>
24.410618

> <chi1v_C>
9.0824833

> <chi1_C>
10.570517

> <chiral>
4

> <chiral_u>
4

> <density>
1.3072542

> <diameter>
22

> <FCharge>
0

> <GCUT_PEOE_0>
-0.83003014

> <GCUT_PEOE_1>
-0.46278441

> <GCUT_PEOE_2>
0.12303619

> <GCUT_PEOE_3>
2.9734302

> <GCUT_SLOGP_0>
-1.1630626

> <GCUT_SLOGP_1>
-0.47044176

> <GCUT_SLOGP_2>
0.061230112

> <GCUT_SLOGP_3>
2.9654012

> <GCUT_SMR_0>
-0.52247512

> <GCUT_SMR_1>
-0.21941984

> <GCUT_SMR_2>
0.28993502

> <GCUT_SMR_3>
3.3144267

> <Kier1>
58.125977

> <Kier2>
27.723772

> <Kier3>
15.78478

> <KierA1>
63.917999

> <KierA2>
30.533611

> <KierA3>
17.403049

> <KierFlex>
31.478182

> <lip_acc>
21

> <lip_don>
13

> <lip_druglike>
0

> <lip_violation>
3

> <logP(o/w)>
1.169

> <logS>
-8.09692

> <mr>
27.621405

> <mutagenic>
0

> <nmol>
1

> <opr_brigid>
12

> <opr_leadlike>
0

> <opr_nring>
2

> <opr_nrot>
22

> <opr_violation>
4

> <PC+>
0

> <PC->
0

> <PEOE_PC+>
7.3861694

> <PEOE_PC->
-7.3861694

> <PEOE_RPC+>
0.03441821

> <PEOE_RPC->
0.053127065

> <PEOE_VSA+0>
121.93716

> <PEOE_VSA+1>
251.74275

> <PEOE_VSA+2>
0.0

> <PEOE_VSA+3>
34.476051

> <PEOE_VSA+4>
118.81661

> <PEOE_VSA+5>
51.798122

> <PEOE_VSA+6>
0.0

> <PEOE_VSA-0>
281.94009

> <PEOE_VSA-1>
0.0

> <PEOE_VSA-2>
0.0

> <PEOE_VSA-3>
0.0

> <PEOE_VSA-4>
0.0

> <PEOE_VSA-5>
81.401527

> <PEOE_VSA-6>
70.455429

> <PEOE_VSA_FHYD>
0.68153077

> <PEOE_VSA_FNEG>
0.42841285

> <PEOE_VSA_FPNEG>
0.14997214

> <PEOE_VSA_FPOL>
0.31846926

> <PEOE_VSA_FPOS>
0.57158715

> <PEOE_VSA_FPPOS>
0.16849712

> <PEOE_VSA_HYD>
690.09607

> <PEOE_VSA_NEG>
433.79703

> <PEOE_VSA_PNEG>
151.85695

> <PEOE_VSA_POL>
322.47168

> <PEOE_VSA_POS>
578.77069

> <PEOE_VSA_PPOS>
170.61475

> <petitjean>
0.5

> <petitjeanSC>
1.0

> <Q_PC+>
0

> <Q_PC->
0

> <Q_RPC+>
0

> <Q_RPC->
0

> <Q_VSA_FHYD>
1

> <Q_VSA_FNEG>
0

> <Q_VSA_FPNEG>
0

> <Q_VSA_FPOL>
0

> <Q_VSA_FPOS>
1

> <Q_VSA_FPPOS>
0

> <Q_VSA_HYD>
1012.5677

> <Q_VSA_NEG>
0

> <Q_VSA_PNEG>
0

> <Q_VSA_POL>
0

> <Q_VSA_POS>
1012.5677

> <Q_VSA_PPOS>
0

> <radius>
11

> <reactive>
0

> <rings>
2

> <RPC+>
0

> <RPC->
0

> <rsynth>
1.0

> <SlogP>
-1.5869

> <SlogP_VSA0>
306.75867

> <SlogP_VSA1>
31.552702

> <SlogP_VSA2>
90.025536

> <SlogP_VSA3>
194.3425

> <SlogP_VSA4>
108.19116

> <SlogP_VSA5>
0.0

> <SlogP_VSA6>
0.0

> <SlogP_VSA7>
0.0

> <SlogP_VSA8>
0.0

> <SlogP_VSA9>
412.85757

> <SMR>
27.295

> <SMR_VSA0>
143.17329

> <SMR_VSA1>
228.46704

> <SMR_VSA2>
88.249489

> <SMR_VSA3>
45.085545

> <SMR_VSA4>
5.513495

> <SMR_VSA5>
0.0

> <SMR_VSA6>
225.8952

> <SMR_VSA7>
407.34409

> <TPSA>
339.09

> <VAdjEq>
0.2081393

> <VAdjMa>
6.9772801

> <VDistEq>
4.2441311

> <VDistMa>
11.662036

> <vdw_area>
1012.5677

> <vdw_vol>
1185.8352

> <vsa_acc>
81.401527

> <vsa_acid>
0

> <vsa_base>
0

> <vsa_don>
22.730305

> <vsa_hyd>
633.55432

> <vsa_other>
77.697189

> <vsa_pol>
226.23412

> <Weight>
1550.188

> <weinerPath>
17289

> <weinerPol>
110

> <zagreb>
304

$$$$
Row1601
 OpenBabel06061811532D

 34 34  0  0  1  0  0  0  0  0999 V2000
    0.0000    0.0000    0.0000 I   0  0  0  0  0  0  0  0  0  0  0  0
    0.0000    0.0000    0.0000 C   0  0  0  0  0  0  0  0  0  0  0  0
    0.0000    0.0000    0.0000 C   0  0  0  0  0  0  0  0  0  0  0  0
    0.0000    0.0000    0.0000 C   0  0  0  0  0  0  0  0  0  0  0  0
    0.0000    0.0000    0.0000 O   0  0  0  0  0  0  0  0  0  0  0  0
    0.0000    0.0000    0.0000 N   0  0  0  0  0  0  0  0  0  0  0  0
    0.0000    0.0000    0.0000 C   0  0  0  0  0  0  0  0  0  0  0  0
    0.0000    0.0000    0.0000 C   0  0  3  0  0  0  0  0  0  0  0  0
    0.0000    0.0000    0.0000 O   0  0  0  0  0  0  0  0  0  0  0  0
    0.0000    0.0000    0.0000 C   0  0  0  0  0  0  0  0  0  0  0  0
    0.0000    0.0000    0.0000 O   0  0  0  0  0  0  0  0  0  0  0  0
    0.0000    0.0000    0.0000 C   0  0  0  0  0  0  0  0  0  0  0  0
    0.0000    0.0000    0.0000 I   0  0  0  0  0  0  0  0  0  0  0  0
    0.0000    0.0000    0.0000 C   0  0  0  0  0  0  0  0  0  0  0  0
    0.0000    0.0000    0.0000 N   0  0  0  0  0  0  0  0  0  0  0  0
    0.0000    0.0000    0.0000 C   0  0  0  0  0  0  0  0  0  0  0  0
    0.0000    0.0000    0.0000 O   0  0  0  0  0  0  0  0  0  0  0  0
    0.0000    0.0000    0.0000 C   0  0  0  0  0  0  0  0  0  0  0  0
    0.0000    0.0000    0.0000 C   0  0  0  0  0  0  0  0  0  0  0  0
    0.0000    0.0000    0.0000 C   0  0  3  0  0  0  0  0  0  0  0  0
    0.0000    0.0000    0.0000 O   0  0  0  0  0  0  0  0  0  0  0  0
    0.0000    0.0000    0.0000 C   0  0  0  0  0  0  0  0  0  0  0  0
    0.0000    0.0000    0.0000 O   0  0  0  0  0  0  0  0  0  0  0  0
    0.0000    0.0000    0.0000 C   0  0  0  0  0  0  0  0  0  0  0  0
    0.0000    0.0000    0.0000 I   0  0  0  0  0  0  0  0  0  0  0  0
    0.0000    0.0000    0.0000 C   0  0  0  0  0  0  0  0  0  0  0  0
    0.0000    0.0000    0.0000 C   0  0  0  0  0  0  0  0  0  0  0  0
    0.0000    0.0000    0.0000 O   0  0  0  0  0  0  0  0  0  0  0  0
    0.0000    0.0000    0.0000 N   0  0  0  0  0  0  0  0  0  0  0  0
    0.0000    0.0000    0.0000 C   0  0  0  0  0  0  0  0  0  0  0  0
    0.0000    0.0000    0.0000 C   0  0  3  0  0  0  0  0  0  0  0  0
    0.0000    0.0000    0.0000 O   0  0  0  0  0  0  0  0  0  0  0  0
    0.0000    0.0000    0.0000 C   0  0  0  0  0  0  0  0  0  0  0  0
    0.0000    0.0000    0.0000 O   0  0  0  0  0  0  0  0  0  0  0  0
  1  2  1  0  0  0  0
  2 26  1  0  0  0  0
  2  3  2  0  0  0  0
  3  4  1  0  0  0  0
  3 12  1  0  0  0  0
  4  5  2  0  0  0  0
  4  6  1  0  0  0  0
  6  7  1  0  0  0  0
  7  8  1  0  0  0  0
  8  9  1  0  0  0  0
  8 10  1  0  0  0  0
 10 11  1  0  0  0  0
 12 13  1  0  0  0  0
 12 14  2  0  0  0  0
 14 15  1  0  0  0  0
 14 24  1  0  0  0  0
 15 16  1  0  0  0  0
 15 19  1  0  0  0  0
 16 17  2  0  0  0  0
 16 18  1  0  0  0  0
 19 20  1  0  0  0  0
 20 21  1  0  0  0  0
 20 22  1  0  0  0  0
 22 23  1  0  0  0  0
 24 25  1  0  0  0  0
 24 26  2  0  0  0  0
 26 27  1  0  0  0  0
 27 28  2  0  0  0  0
 27 29  1  0  0  0  0
 29 30  1  0  0  0  0
 30 31  1  0  0  0  0
 31 32  1  0  0  0  0
 31 33  1  0  0  0  0
 33 34  1  0  0  0  0
M  END
> <Index>
1602

> <ID>
HT1109

> <class>
1

> <apol>
77.34462

> <ast_fraglike>
0

> <ast_fraglike_ext>
0

> <ast_violation>
3

> <ast_violation_ext>
5

> <a_acc>
9

> <a_acid>
0

> <a_aro>
6

> <a_base>
0

> <a_count>
60

> <a_don>
8

> <a_donacc>
17

> <a_heavy>
34

> <a_hyd>
19

> <a_IC>
113.45228

> <a_ICM>
1.8908713

> <a_nB>
0

> <a_nBr>
0

> <a_nC>
19

> <a_nCl>
0

> <a_nF>
0

> <a_nH>
26

> <a_nI>
3

> <a_nN>
3

> <a_nO>
9

> <a_nP>
0

> <a_nS>
0

> <balabanJ>
3.316653

> <BCUT_PEOE_0>
-2.5696719

> <BCUT_PEOE_1>
-0.59809709

> <BCUT_PEOE_2>
0.62487209

> <BCUT_PEOE_3>
2.5729876

> <BCUT_SLOGP_0>
-2.7604046

> <BCUT_SLOGP_1>
-0.57988691

> <BCUT_SLOGP_2>
0.59859848

> <BCUT_SLOGP_3>
2.4572458

> <BCUT_SMR_0>
-2.3194938

> <BCUT_SMR_1>
-0.38932642

> <BCUT_SMR_2>
0.88156503

> <BCUT_SMR_3>
2.8397264

> <bpol>
45.367382

> <b_1rotN>
13

> <b_1rotR>
0.38235295

> <b_ar>
6

> <b_count>
60

> <b_double>
3

> <b_heavy>
34

> <b_max1len>
6

> <b_rotN>
15

> <b_rotR>
0.44117647

> <b_single>
51

> <b_triple>
0

> <chi0>
26.162407

> <chi0v>
24.436319

> <chi0v_C>
11.474691

> <chi0_C>
12.170844

> <chi1>
15.902391

> <chi1v>
13.058885

> <chi1v_C>
4.9494896

> <chi1_C>
5.6935067

> <chiral>
3

> <chiral_u>
3

> <density>
1.26467

> <diameter>
14

> <FCharge>
0

> <GCUT_PEOE_0>
-0.83003014

> <GCUT_PEOE_1>
-0.46206027

> <GCUT_PEOE_2>
0.12308051

> <GCUT_PEOE_3>
2.718689

> <GCUT_SLOGP_0>
-1.1630626

> <GCUT_SLOGP_1>
-0.47116932

> <GCUT_SLOGP_2>
0.033616506

> <GCUT_SLOGP_3>
2.7087464

> <GCUT_SMR_0>
-0.52247512

> <GCUT_SMR_1>
-0.22059001

> <GCUT_SMR_2>
0.28981209

> <GCUT_SMR_3>
3.0601842

> <Kier1>
32.029411

> <Kier2>
15.29742

> <Kier3>
8.8177776

> <KierA1>
34.958633

> <KierA2>
16.741026

> <KierA3>
9.6679745

> <KierFlex>
17.213039

> <lip_acc>
12

> <lip_don>
8

> <lip_druglike>
0

> <lip_violation>
3

> <logP(o/w)>
-0.25099999

> <logS>
-3.5399201

> <mr>
14.869492

> <mutagenic>
0

> <nmol>
1

> <opr_brigid>
6

> <opr_leadlike>
0

> <opr_nring>
1

> <opr_nrot>
12

> <opr_violation>
4

> <PC+>
0

> <PC->
0

> <PEOE_PC+>
4.279099

> <PEOE_PC->
-4.279099

> <PEOE_RPC+>
0.059409413

> <PEOE_RPC->
0.091702841

> <PEOE_VSA+0>
60.968578

> <PEOE_VSA+1>
153.9386

> <PEOE_VSA+2>
0.0

> <PEOE_VSA+3>
17.238026

> <PEOE_VSA+4>
74.894569

> <PEOE_VSA+5>
25.899061

> <PEOE_VSA+6>
0.0

> <PEOE_VSA-0>
140.97005

> <PEOE_VSA-1>
0.0

> <PEOE_VSA-2>
0.0

> <PEOE_VSA-3>
0.0

> <PEOE_VSA-4>
0.0

> <PEOE_VSA-5>
40.700764

> <PEOE_VSA-6>
46.879025

> <PEOE_VSA_FHYD>
0.66451073

> <PEOE_VSA_FNEG>
0.40704265

> <PEOE_VSA_FPNEG>
0.15597783

> <PEOE_VSA_FPOL>
0.33548927

> <PEOE_VSA_FPOS>
0.59295738

> <PEOE_VSA_FPPOS>
0.17951143

> <PEOE_VSA_HYD>
373.11523

> <PEOE_VSA_NEG>
228.54984

> <PEOE_VSA_PNEG>
87.579788

> <PEOE_VSA_POL>
188.37341

> <PEOE_VSA_POS>
332.93884

> <PEOE_VSA_PPOS>
100.79363

> <petitjean>
0.42857143

> <petitjeanSC>
0.75

> <Q_PC+>
0

> <Q_PC->
0

> <Q_RPC+>
0

> <Q_RPC->
0

> <Q_VSA_FHYD>
1

> <Q_VSA_FNEG>
0

> <Q_VSA_FPNEG>
0

> <Q_VSA_FPOL>
0

> <Q_VSA_FPOS>
1

> <Q_VSA_FPPOS>
0

> <Q_VSA_HYD>
561.48865

> <Q_VSA_NEG>
0

> <Q_VSA_PNEG>
0

> <Q_VSA_POL>
0

> <Q_VSA_POS>
561.48865

> <Q_VSA_PPOS>
0

> <radius>
8

> <reactive>
0

> <rings>
1

> <RPC+>
0

> <RPC->
0

> <rsynth>
1.0

> <SlogP>
-1.6275001

> <SlogP_VSA0>
191.45717

> <SlogP_VSA1>
15.776351

> <SlogP_VSA2>
48.247093

> <SlogP_VSA3>
118.09751

> <SlogP_VSA4>
54.095581

> <SlogP_VSA5>
0.0

> <SlogP_VSA6>
0.0

> <SlogP_VSA7>
0.0

> <SlogP_VSA8>
0.0

> <SlogP_VSA9>
206.42879

> <SMR>
14.65642

> <SMR_VSA0>
71.586647

> <SMR_VSA1>
152.31136

> <SMR_VSA2>
44.124744

> <SMR_VSA3>
25.777098

> <SMR_VSA4>
2.7567475

> <SMR_VSA5>
0.0

> <SMR_VSA6>
133.87386

> <SMR_VSA7>
203.67204

> <TPSA>
199.89

> <VAdjEq>
0.32275695

> <VAdjMa>
6.0874629

> <VDistEq>
3.5406394

> <VDistMa>
9.935358

> <vdw_area>
561.48865

> <vdw_vol>
649.29272

> <vsa_acc>
40.700764

> <vsa_acid>
0

> <vsa_base>
0

> <vsa_don>
11.365152

> <vsa_hyd>
343.06491

> <vsa_other>
38.848595

> <vsa_pol>
133.46744

> <Weight>
821.14099

> <weinerPath>
3312

> <weinerPol>
57

> <zagreb>
162

$$$$
Row1602
 OpenBabel06061811532D

 31 31  0  0  1  0  0  0  0  0999 V2000
    0.0000    0.0000    0.0000 I   0  0  0  0  0  0  0  0  0  0  0  0
    0.0000    0.0000    0.0000 C   0  0  0  0  0  0  0  0  0  0  0  0
    0.0000    0.0000    0.0000 C   0  0  0  0  0  0  0  0  0  0  0  0
    0.0000    0.0000    0.0000 C   0  0  0  0  0  0  0  0  0  0  0  0
    0.0000    0.0000    0.0000 O   0  0  0  0  0  0  0  0  0  0  0  0
    0.0000    0.0000    0.0000 N   0  0  0  0  0  0  0  0  0  0  0  0
    0.0000    0.0000    0.0000 C   0  0  0  0  0  0  0  0  0  0  0  0
    0.0000    0.0000    0.0000 C   0  0  3  0  0  0  0  0  0  0  0  0
    0.0000    0.0000    0.0000 O   0  0  0  0  0  0  0  0  0  0  0  0
    0.0000    0.0000    0.0000 C   0  0  0  0  0  0  0  0  0  0  0  0
    0.0000    0.0000    0.0000 O   0  0  0  0  0  0  0  0  0  0  0  0
    0.0000    0.0000    0.0000 C   0  0  0  0  0  0  0  0  0  0  0  0
    0.0000    0.0000    0.0000 I   0  0  0  0  0  0  0  0  0  0  0  0
    0.0000    0.0000    0.0000 C   0  0  0  0  0  0  0  0  0  0  0  0
    0.0000    0.0000    0.0000 N   0  0  0  0  0  0  0  0  0  0  0  0
    0.0000    0.0000    0.0000 C   0  0  0  0  0  0  0  0  0  0  0  0
    0.0000    0.0000    0.0000 O   0  0  0  0  0  0  0  0  0  0  0  0
    0.0000    0.0000    0.0000 C   0  0  0  0  0  0  0  0  0  0  0  0
    0.0000    0.0000    0.0000 O   0  0  0  0  0  0  0  0  0  0  0  0
    0.0000    0.0000    0.0000 C   0  0  0  0  0  0  0  0  0  0  0  0
    0.0000    0.0000    0.0000 C   0  0  0  0  0  0  0  0  0  0  0  0
    0.0000    0.0000    0.0000 I   0  0  0  0  0  0  0  0  0  0  0  0
    0.0000    0.0000    0.0000 C   0  0  0  0  0  0  0  0  0  0  0  0
    0.0000    0.0000    0.0000 C   0  0  0  0  0  0  0  0  0  0  0  0
    0.0000    0.0000    0.0000 O   0  0  0  0  0  0  0  0  0  0  0  0
    0.0000    0.0000    0.0000 N   0  0  0  0  0  0  0  0  0  0  0  0
    0.0000    0.0000    0.0000 C   0  0  0  0  0  0  0  0  0  0  0  0
    0.0000    0.0000    0.0000 C   0  0  3  0  0  0  0  0  0  0  0  0
    0.0000    0.0000    0.0000 O   0  0  0  0  0  0  0  0  0  0  0  0
    0.0000    0.0000    0.0000 C   0  0  0  0  0  0  0  0  0  0  0  0
    0.0000    0.0000    0.0000 O   0  0  0  0  0  0  0  0  0  0  0  0
  1  2  1  0  0  0  0
  2 23  1  0  0  0  0
  2  3  2  0  0  0  0
  3  4  1  0  0  0  0
  3 12  1  0  0  0  0
  4  5  2  0  0  0  0
  4  6  1  0  0  0  0
  6  7  1  0  0  0  0
  7  8  1  0  0  0  0
  8  9  1  0  0  0  0
  8 10  1  0  0  0  0
 10 11  1  0  0  0  0
 12 13  1  0  0  0  0
 12 14  2  0  0  0  0
 14 15  1  0  0  0  0
 14 21  1  0  0  0  0
 15 16  1  0  0  0  0
 15 20  1  0  0  0  0
 16 17  2  0  0  0  0
 16 18  1  0  0  0  0
 18 19  1  0  0  0  0
 21 22  1  0  0  0  0
 21 23  2  0  0  0  0
 23 24  1  0  0  0  0
 24 25  2  0  0  0  0
 24 26  1  0  0  0  0
 26 27  1  0  0  0  0
 27 28  1  0  0  0  0
 28 29  1  0  0  0  0
 28 30  1  0  0  0  0
 30 31  1  0  0  0  0
M  END
> <Index>
1603

> <ID>
HT1110

> <class>
1

> <apol>
70.355446

> <ast_fraglike>
0

> <ast_fraglike_ext>
0

> <ast_violation>
3

> <ast_violation_ext>
5

> <a_acc>
8

> <a_acid>
0

> <a_aro>
6

> <a_base>
0

> <a_count>
53

> <a_don>
7

> <a_donacc>
15

> <a_heavy>
31

> <a_hyd>
17

> <a_IC>
102.47565

> <a_ICM>
1.9335028

> <a_nB>
0

> <a_nBr>
0

> <a_nC>
17

> <a_nCl>
0

> <a_nF>
0

> <a_nH>
22

> <a_nI>
3

> <a_nN>
3

> <a_nO>
8

> <a_nP>
0

> <a_nS>
0

> <balabanJ>
3.1765513

> <BCUT_PEOE_0>
-2.5502043

> <BCUT_PEOE_1>
-0.60399312

> <BCUT_PEOE_2>
0.63129842

> <BCUT_PEOE_3>
2.5526755

> <BCUT_SLOGP_0>
-2.7596135

> <BCUT_SLOGP_1>
-0.58155239

> <BCUT_SLOGP_2>
0.5986194

> <BCUT_SLOGP_3>
2.4110293

> <BCUT_SMR_0>
-2.3129542

> <BCUT_SMR_1>
-0.38936472

> <BCUT_SMR_2>
0.89116919

> <BCUT_SMR_3>
2.8030016

> <bpol>
40.994553

> <b_1rotN>
11

> <b_1rotR>
0.3548387

> <b_ar>
6

> <b_count>
53

> <b_double>
3

> <b_heavy>
31

> <b_max1len>
6

> <b_rotN>
13

> <b_rotR>
0.41935483

> <b_single>
44

> <b_triple>
0

> <chi0>
23.877951

> <chi0v>
22.704649

> <chi0v_C>
10.190234

> <chi0_C>
10.886387

> <chi1>
14.508544

> <chi1v>
11.968728

> <chi1v_C>
3.9865465

> <chi1_C>
4.7079082

> <chiral>
2

> <chiral_u>
2

> <density>
1.3128434

> <diameter>
14

> <FCharge>
0

> <GCUT_PEOE_0>
-0.83003014

> <GCUT_PEOE_1>
-0.46239752

> <GCUT_PEOE_2>
0.12351047

> <GCUT_PEOE_3>
2.6230159

> <GCUT_SLOGP_0>
-1.1630626

> <GCUT_SLOGP_1>
-0.48229611

> <GCUT_SLOGP_2>
0.047766354

> <GCUT_SLOGP_3>
2.6182165

> <GCUT_SMR_0>
-0.52247512

> <GCUT_SMR_1>
-0.22287343

> <GCUT_SMR_2>
0.28664768

> <GCUT_SMR_3>
2.9789567

> <Kier1>
29.032259

> <Kier2>
13.645214

> <Kier3>
7.5

> <KierA1>
31.958557

> <KierA2>
15.069051

> <KierA3>
8.3020763

> <KierFlex>
15.535004

> <lip_acc>
11

> <lip_don>
7

> <lip_druglike>
0

> <lip_violation>
3

> <logP(o/w)>
0.19599999

> <logS>
-3.7351

> <mr>
13.791408

> <mutagenic>
0

> <nmol>
1

> <opr_brigid>
6

> <opr_leadlike>
0

> <opr_nring>
1

> <opr_nrot>
10

> <opr_violation>
3

> <PC+>
0

> <PC->
0

> <PEOE_PC+>
3.8852153

> <PEOE_PC->
-3.8852153

> <PEOE_RPC+>
0.065432347

> <PEOE_RPC->
0.10099968

> <PEOE_VSA+0>
65.459587

> <PEOE_VSA+1>
108.09389

> <PEOE_VSA+2>
14.951293

> <PEOE_VSA+3>
17.238026

> <PEOE_VSA+4>
51.620865

> <PEOE_VSA+5>
38.848595

> <PEOE_VSA+6>
0.0

> <PEOE_VSA-0>
140.97005

> <PEOE_VSA-1>
0.0

> <PEOE_VSA-2>
0.0

> <PEOE_VSA-3>
0.0

> <PEOE_VSA-4>
0.0

> <PEOE_VSA-5>
40.700764

> <PEOE_VSA-6>
39.111485

> <PEOE_VSA_FHYD>
0.67063153

> <PEOE_VSA_FNEG>
0.42704955

> <PEOE_VSA_FPNEG>
0.15437734

> <PEOE_VSA_FPOL>
0.32936847

> <PEOE_VSA_FPOS>
0.57295042

> <PEOE_VSA_FPPOS>
0.17499112

> <PEOE_VSA_HYD>
346.71286

> <PEOE_VSA_NEG>
220.78229

> <PEOE_VSA_PNEG>
79.812248

> <PEOE_VSA_POL>
170.28171

> <PEOE_VSA_POS>
296.21225

> <PEOE_VSA_PPOS>
90.46946

> <petitjean>
0.5

> <petitjeanSC>
1.0

> <Q_PC+>
0

> <Q_PC->
0

> <Q_RPC+>
0

> <Q_RPC->
0

> <Q_VSA_FHYD>
1

> <Q_VSA_FNEG>
0

> <Q_VSA_FPNEG>
0

> <Q_VSA_FPOL>
0

> <Q_VSA_FPOS>
1

> <Q_VSA_FPPOS>
0

> <Q_VSA_HYD>
516.99457

> <Q_VSA_NEG>
0

> <Q_VSA_PNEG>
0

> <Q_VSA_POL>
0

> <Q_VSA_POS>
516.99457

> <Q_VSA_PPOS>
0

> <radius>
7

> <reactive>
0

> <rings>
1

> <RPC+>
0

> <RPC->
0

> <rsynth>
1.0

> <SlogP>
-1.3785

> <SlogP_VSA0>
166.07195

> <SlogP_VSA1>
15.776351

> <SlogP_VSA2>
41.778442

> <SlogP_VSA3>
99.657928

> <SlogP_VSA4>
54.095581

> <SlogP_VSA5>
32.897186

> <SlogP_VSA6>
0.0

> <SlogP_VSA7>
0.0

> <SlogP_VSA8>
0.0

> <SlogP_VSA9>
173.10277

> <SMR>
13.59404

> <SMR_VSA0>
71.586647

> <SMR_VSA1>
126.92613

> <SMR_VSA2>
44.124744

> <SMR_VSA3>
19.308449

> <SMR_VSA4>
2.7567475

> <SMR_VSA5>
0.0

> <SMR_VSA6>
115.43428

> <SMR_VSA7>
203.24321

> <TPSA>
179.66

> <VAdjEq>
0.3451173

> <VAdjMa>
5.9541965

> <VDistEq>
3.5010529

> <VDistMa>
9.6575203

> <vdw_area>
516.99457

> <vdw_vol>
591.91217

> <vsa_acc>
40.700764

> <vsa_acid>
0

> <vsa_base>
0

> <vsa_don>
11.365152

> <vsa_hyd>
318.79788

> <vsa_other>
38.848595

> <vsa_pol>
119.90052

> <Weight>
777.08801

> <weinerPath>
2624

> <weinerPol>
53

> <zagreb>
148

$$$$
Row1603
 OpenBabel06061811532D

 32 32  0  0  1  0  0  0  0  0999 V2000
    0.0000    0.0000    0.0000 I   0  0  0  0  0  0  0  0  0  0  0  0
    0.0000    0.0000    0.0000 C   0  0  0  0  0  0  0  0  0  0  0  0
    0.0000    0.0000    0.0000 C   0  0  0  0  0  0  0  0  0  0  0  0
    0.0000    0.0000    0.0000 C   0  0  0  0  0  0  0  0  0  0  0  0
    0.0000    0.0000    0.0000 O   0  0  0  0  0  0  0  0  0  0  0  0
    0.0000    0.0000    0.0000 N   0  0  0  0  0  0  0  0  0  0  0  0
    0.0000    0.0000    0.0000 C   0  0  0  0  0  0  0  0  0  0  0  0
    0.0000    0.0000    0.0000 C   0  0  0  0  0  0  0  0  0  0  0  0
    0.0000    0.0000    0.0000 O   0  0  0  0  0  0  0  0  0  0  0  0
    0.0000    0.0000    0.0000 C   0  0  0  0  0  0  0  0  0  0  0  0
    0.0000    0.0000    0.0000 O   0  0  0  0  0  0  0  0  0  0  0  0
    0.0000    0.0000    0.0000 C   0  0  0  0  0  0  0  0  0  0  0  0
    0.0000    0.0000    0.0000 I   0  0  0  0  0  0  0  0  0  0  0  0
    0.0000    0.0000    0.0000 C   0  0  0  0  0  0  0  0  0  0  0  0
    0.0000    0.0000    0.0000 N   0  0  0  0  0  0  0  0  0  0  0  0
    0.0000    0.0000    0.0000 C   0  0  0  0  0  0  0  0  0  0  0  0
    0.0000    0.0000    0.0000 O   0  0  0  0  0  0  0  0  0  0  0  0
    0.0000    0.0000    0.0000 C   0  0  1  0  0  0  0  0  0  0  0  0
    0.0000    0.0000    0.0000 H   0  0  0  0  0  0  0  0  0  0  0  0
    0.0000    0.0000    0.0000 O   0  0  0  0  0  0  0  0  0  0  0  0
    0.0000    0.0000    0.0000 C   0  0  0  0  0  0  0  0  0  0  0  0
    0.0000    0.0000    0.0000 C   0  0  0  0  0  0  0  0  0  0  0  0
    0.0000    0.0000    0.0000 I   0  0  0  0  0  0  0  0  0  0  0  0
    0.0000    0.0000    0.0000 C   0  0  0  0  0  0  0  0  0  0  0  0
    0.0000    0.0000    0.0000 C   0  0  0  0  0  0  0  0  0  0  0  0
    0.0000    0.0000    0.0000 O   0  0  0  0  0  0  0  0  0  0  0  0
    0.0000    0.0000    0.0000 N   0  0  0  0  0  0  0  0  0  0  0  0
    0.0000    0.0000    0.0000 C   0  0  0  0  0  0  0  0  0  0  0  0
    0.0000    0.0000    0.0000 C   0  0  0  0  0  0  0  0  0  0  0  0
    0.0000    0.0000    0.0000 O   0  0  0  0  0  0  0  0  0  0  0  0
    0.0000    0.0000    0.0000 C   0  0  0  0  0  0  0  0  0  0  0  0
    0.0000    0.0000    0.0000 O   0  0  0  0  0  0  0  0  0  0  0  0
  1  2  1  0  0  0  0
  2 24  1  0  0  0  0
  2  3  2  0  0  0  0
  3  4  1  0  0  0  0
  3 12  1  0  0  0  0
  4  5  2  0  0  0  0
  4  6  1  0  0  0  0
  6  7  1  0  0  0  0
  7  8  1  0  0  0  0
  7 10  1  0  0  0  0
  8  9  1  0  0  0  0
 10 11  1  0  0  0  0
 12 13  1  0  0  0  0
 12 14  2  0  0  0  0
 14 15  1  0  0  0  0
 14 22  1  0  0  0  0
 15 16  1  0  0  0  0
 16 17  2  0  0  0  0
 16 18  1  0  0  0  0
 18 19  1  0  0  0  0
 18 20  1  0  0  0  0
 18 21  1  0  0  0  0
 22 23  1  0  0  0  0
 22 24  2  0  0  0  0
 24 25  1  0  0  0  0
 25 26  2  0  0  0  0
 25 27  1  0  0  0  0
 27 28  1  0  0  0  0
 28 29  1  0  0  0  0
 28 31  1  0  0  0  0
 29 30  1  0  0  0  0
 31 32  1  0  0  0  0
M  END
> <Index>
1604

> <ID>
HT1111

> <class>
1

> <apol>
70.355446

> <ast_fraglike>
0

> <ast_fraglike_ext>
0

> <ast_violation>
3

> <ast_violation_ext>
5

> <a_acc>
8

> <a_acid>
0

> <a_aro>
6

> <a_base>
0

> <a_count>
53

> <a_don>
8

> <a_donacc>
16

> <a_heavy>
31

> <a_hyd>
17

> <a_IC>
102.47565

> <a_ICM>
1.9335028

> <a_nB>
0

> <a_nBr>
0

> <a_nC>
17

> <a_nCl>
0

> <a_nF>
0

> <a_nH>
22

> <a_nI>
3

> <a_nN>
3

> <a_nO>
8

> <a_nP>
0

> <a_nS>
0

> <balabanJ>
3.2309296

> <BCUT_PEOE_0>
-2.5654657

> <BCUT_PEOE_1>
-0.6868301

> <BCUT_PEOE_2>
0.72098231

> <BCUT_PEOE_3>
2.5650046

> <BCUT_SLOGP_0>
-2.7872372

> <BCUT_SLOGP_1>
-0.65735203

> <BCUT_SLOGP_2>
0.59000206

> <BCUT_SLOGP_3>
2.4136138

> <BCUT_SMR_0>
-2.3220828

> <BCUT_SMR_1>
-0.44410357

> <BCUT_SMR_2>
0.89207786

> <BCUT_SMR_3>
2.8155231

> <bpol>
39.674553

> <b_1rotN>
10

> <b_1rotR>
0.32258064

> <b_ar>
6

> <b_count>
53

> <b_double>
3

> <b_heavy>
31

> <b_max1len>
6

> <b_rotN>
13

> <b_rotR>
0.41935483

> <b_single>
44

> <b_triple>
0

> <chi0>
23.877951

> <chi0v>
22.62768

> <chi0v_C>
10.060478

> <chi0_C>
10.75663

> <chi1>
14.529712

> <chi1v>
12.015045

> <chi1v_C>
4.4990187

> <chi1_C>
5.2103434

> <chiral>
1

> <chiral_u>
0

> <density>
1.316437

> <diameter>
12

> <FCharge>
0

> <GCUT_PEOE_0>
-0.82262444

> <GCUT_PEOE_1>
-0.45846662

> <GCUT_PEOE_2>
0.14609975

> <GCUT_PEOE_3>
2.6289811

> <GCUT_SLOGP_0>
-1.1637874

> <GCUT_SLOGP_1>
-0.46539634

> <GCUT_SLOGP_2>
0.064985871

> <GCUT_SLOGP_3>
2.6175163

> <GCUT_SMR_0>
-0.51898152

> <GCUT_SMR_1>
-0.22409861

> <GCUT_SMR_2>
0.27216741

> <GCUT_SMR_3>
2.9776292

> <Kier1>
29.032259

> <Kier2>
13.645214

> <Kier3>
7.5

> <KierA1>
31.958557

> <KierA2>
15.069051

> <KierA3>
8.3020763

> <KierFlex>
15.535004

> <lip_acc>
11

> <lip_don>
8

> <lip_druglike>
0

> <lip_violation>
3

> <logP(o/w)>
0.461

> <logS>
-4.1683002

> <mr>
13.788127

> <mutagenic>
0

> <nmol>
1

> <opr_brigid>
6

> <opr_leadlike>
0

> <opr_nring>
1

> <opr_nrot>
10

> <opr_violation>
3

> <PC+>
0

> <PC->
0

> <PEOE_PC+>
3.9253192

> <PEOE_PC->
-3.9253192

> <PEOE_RPC+>
0.064830102

> <PEOE_RPC->
0.10009615

> <PEOE_VSA+0>
15.836252

> <PEOE_VSA+1>
130.21317

> <PEOE_VSA+2>
4.9049287

> <PEOE_VSA+3>
25.857038

> <PEOE_VSA+4>
51.620865

> <PEOE_VSA+5>
38.848595

> <PEOE_VSA+6>
0.0

> <PEOE_VSA-0>
159.71771

> <PEOE_VSA-1>
0.0

> <PEOE_VSA-2>
0.0

> <PEOE_VSA-3>
0.0

> <PEOE_VSA-4>
0.0

> <PEOE_VSA-5>
40.700764

> <PEOE_VSA-6>
39.248375

> <PEOE_VSA_FHYD>
0.66383398

> <PEOE_VSA_FNEG>
0.47276446

> <PEOE_VSA_FPNEG>
0.15770687

> <PEOE_VSA_FPOL>
0.33616602

> <PEOE_VSA_FPOS>
0.52723551

> <PEOE_VSA_FPPOS>
0.17845915

> <PEOE_VSA_HYD>
336.52908

> <PEOE_VSA_NEG>
239.66685

> <PEOE_VSA_PNEG>
79.949135

> <PEOE_VSA_POL>
170.41859

> <PEOE_VSA_POS>
267.28082

> <PEOE_VSA_PPOS>
90.46946

> <petitjean>
0.41666666

> <petitjeanSC>
0.71428573

> <Q_PC+>
0

> <Q_PC->
0

> <Q_RPC+>
0

> <Q_RPC->
0

> <Q_VSA_FHYD>
1

> <Q_VSA_FNEG>
0

> <Q_VSA_FPNEG>
0

> <Q_VSA_FPOL>
0

> <Q_VSA_FPOS>
1

> <Q_VSA_FPPOS>
0

> <Q_VSA_HYD>
506.94769

> <Q_VSA_NEG>
0

> <Q_VSA_PNEG>
0

> <Q_VSA_POL>
0

> <Q_VSA_POS>
506.94769

> <Q_VSA_PPOS>
0

> <radius>
7

> <reactive>
0

> <rings>
1

> <RPC+>
0

> <RPC->
0

> <rsynth>
1.0

> <SlogP>
-1.0143

> <SlogP_VSA0>
162.94763

> <SlogP_VSA1>
33.787102

> <SlogP_VSA2>
43.273731

> <SlogP_VSA3>
83.705032

> <SlogP_VSA4>
54.095581

> <SlogP_VSA5>
0.0

> <SlogP_VSA6>
0.0

> <SlogP_VSA7>
0.0

> <SlogP_VSA8>
0.0

> <SlogP_VSA9>
206.42879

> <SMR>
13.57551

> <SMR_VSA0>
71.586647

> <SMR_VSA1>
126.92613

> <SMR_VSA2>
41.000431

> <SMR_VSA3>
20.803736

> <SMR_VSA4>
20.767498

> <SMR_VSA5>
0.0

> <SMR_VSA6>
99.481384

> <SMR_VSA7>
203.67204

> <TPSA>
188.45

> <VAdjEq>
0.3451173

> <VAdjMa>
5.9541965

> <VDistEq>
3.4186544

> <VDistMa>
9.6684866

> <vdw_area>
506.94769

> <vdw_vol>
590.29639

> <vsa_acc>
40.700764

> <vsa_acid>
0

> <vsa_base>
0

> <vsa_don>
17.047728

> <vsa_hyd>
300.70691

> <vsa_other>
38.848595

> <vsa_pol>
125.58309

> <Weight>
777.08801

> <weinerPath>
2572

> <weinerPol>
53

> <zagreb>
148

$$$$
Row1604
 OpenBabel06061811532D

 32 32  0  0  1  0  0  0  0  0999 V2000
    0.0000    0.0000    0.0000 I   0  0  0  0  0  0  0  0  0  0  0  0
    0.0000    0.0000    0.0000 C   0  0  0  0  0  0  0  0  0  0  0  0
    0.0000    0.0000    0.0000 C   0  0  0  0  0  0  0  0  0  0  0  0
    0.0000    0.0000    0.0000 C   0  0  0  0  0  0  0  0  0  0  0  0
    0.0000    0.0000    0.0000 O   0  0  0  0  0  0  0  0  0  0  0  0
    0.0000    0.0000    0.0000 N   0  0  0  0  0  0  0  0  0  0  0  0
    0.0000    0.0000    0.0000 C   0  0  0  0  0  0  0  0  0  0  0  0
    0.0000    0.0000    0.0000 C   0  0  3  0  0  0  0  0  0  0  0  0
    0.0000    0.0000    0.0000 O   0  0  0  0  0  0  0  0  0  0  0  0
    0.0000    0.0000    0.0000 C   0  0  0  0  0  0  0  0  0  0  0  0
    0.0000    0.0000    0.0000 O   0  0  0  0  0  0  0  0  0  0  0  0
    0.0000    0.0000    0.0000 C   0  0  0  0  0  0  0  0  0  0  0  0
    0.0000    0.0000    0.0000 C   0  0  0  0  0  0  0  0  0  0  0  0
    0.0000    0.0000    0.0000 I   0  0  0  0  0  0  0  0  0  0  0  0
    0.0000    0.0000    0.0000 C   0  0  0  0  0  0  0  0  0  0  0  0
    0.0000    0.0000    0.0000 N   0  0  0  0  0  0  0  0  0  0  0  0
    0.0000    0.0000    0.0000 C   0  0  0  0  0  0  0  0  0  0  0  0
    0.0000    0.0000    0.0000 O   0  0  0  0  0  0  0  0  0  0  0  0
    0.0000    0.0000    0.0000 C   0  0  0  0  0  0  0  0  0  0  0  0
    0.0000    0.0000    0.0000 O   0  0  0  0  0  0  0  0  0  0  0  0
    0.0000    0.0000    0.0000 C   0  0  0  0  0  0  0  0  0  0  0  0
    0.0000    0.0000    0.0000 C   0  0  0  0  0  0  0  0  0  0  0  0
    0.0000    0.0000    0.0000 I   0  0  0  0  0  0  0  0  0  0  0  0
    0.0000    0.0000    0.0000 C   0  0  0  0  0  0  0  0  0  0  0  0
    0.0000    0.0000    0.0000 C   0  0  0  0  0  0  0  0  0  0  0  0
    0.0000    0.0000    0.0000 O   0  0  0  0  0  0  0  0  0  0  0  0
    0.0000    0.0000    0.0000 N   0  0  0  0  0  0  0  0  0  0  0  0
    0.0000    0.0000    0.0000 C   0  0  0  0  0  0  0  0  0  0  0  0
    0.0000    0.0000    0.0000 C   0  0  3  0  0  0  0  0  0  0  0  0
    0.0000    0.0000    0.0000 O   0  0  0  0  0  0  0  0  0  0  0  0
    0.0000    0.0000    0.0000 C   0  0  0  0  0  0  0  0  0  0  0  0
    0.0000    0.0000    0.0000 O   0  0  0  0  0  0  0  0  0  0  0  0
  1  2  1  0  0  0  0
  2 24  1  0  0  0  0
  2  3  2  0  0  0  0
  3  4  1  0  0  0  0
  3 13  1  0  0  0  0
  4  5  2  0  0  0  0
  4  6  1  0  0  0  0
  6  7  1  0  0  0  0
  6 12  1  0  0  0  0
  7  8  1  0  0  0  0
  8  9  1  0  0  0  0
  8 10  1  0  0  0  0
 10 11  1  0  0  0  0
 13 14  1  0  0  0  0
 13 15  2  0  0  0  0
 15 16  1  0  0  0  0
 15 22  1  0  0  0  0
 16 17  1  0  0  0  0
 17 18  2  0  0  0  0
 17 19  1  0  0  0  0
 19 20  1  0  0  0  0
 20 21  1  0  0  0  0
 22 23  1  0  0  0  0
 22 24  2  0  0  0  0
 24 25  1  0  0  0  0
 25 26  2  0  0  0  0
 25 27  1  0  0  0  0
 27 28  1  0  0  0  0
 28 29  1  0  0  0  0
 29 30  1  0  0  0  0
 29 31  1  0  0  0  0
 31 32  1  0  0  0  0
M  END
> <Index>
1605

> <ID>
HT1114

> <class>
1

> <apol>
73.449036

> <ast_fraglike>
0

> <ast_fraglike_ext>
0

> <ast_violation>
3

> <ast_violation_ext>
5

> <a_acc>
8

> <a_acid>
0

> <a_aro>
6

> <a_base>
0

> <a_count>
56

> <a_don>
6

> <a_donacc>
14

> <a_heavy>
32

> <a_hyd>
18

> <a_IC>
106.60435

> <a_ICM>
1.9036491

> <a_nB>
0

> <a_nBr>
0

> <a_nC>
18

> <a_nCl>
0

> <a_nF>
0

> <a_nH>
24

> <a_nI>
3

> <a_nN>
3

> <a_nO>
8

> <a_nP>
0

> <a_nS>
0

> <balabanJ>
3.1742318

> <BCUT_PEOE_0>
-2.5903313

> <BCUT_PEOE_1>
-0.53978223

> <BCUT_PEOE_2>
0.59173256

> <BCUT_PEOE_3>
2.5740874

> <BCUT_SLOGP_0>
-2.7574668

> <BCUT_SLOGP_1>
-0.55997318

> <BCUT_SLOGP_2>
0.54330033

> <BCUT_SLOGP_3>
2.4273183

> <BCUT_SMR_0>
-2.3428049

> <BCUT_SMR_1>
-0.36519068

> <BCUT_SMR_2>
0.77635533

> <BCUT_SMR_3>
2.8197429

> <bpol>
45.09697

> <b_1rotN>
12

> <b_1rotR>
0.375

> <b_ar>
6

> <b_count>
56

> <b_double>
3

> <b_heavy>
32

> <b_max1len>
7

> <b_rotN>
14

> <b_rotR>
0.4375

> <b_single>
47

> <b_triple>
0

> <chi0>
24.585058

> <chi0v>
23.665684

> <chi0v_C>
11.190234

> <chi0_C>
11.886387

> <chi1>
14.991708

> <chi1v>
12.338491

> <chi1v_C>
3.9865465

> <chi1_C>
4.7079082

> <chiral>
2

> <chiral_u>
2

> <density>
1.2791268

> <diameter>
14

> <FCharge>
0

> <GCUT_PEOE_0>
-0.84528029

> <GCUT_PEOE_1>
-0.44307622

> <GCUT_PEOE_2>
0.10867251

> <GCUT_PEOE_3>
2.6427195

> <GCUT_SLOGP_0>
-1.1615261

> <GCUT_SLOGP_1>
-0.45125154

> <GCUT_SLOGP_2>
0.019433057

> <GCUT_SLOGP_3>
2.6390529

> <GCUT_SMR_0>
-0.52270621

> <GCUT_SMR_1>
-0.21105041

> <GCUT_SMR_2>
0.27813217

> <GCUT_SMR_3>
2.9890516

> <Kier1>
30.03125

> <Kier2>
14.411157

> <Kier3>
8.3227043

> <KierA1>
32.958584

> <KierA2>
15.863726

> <KierA3>
9.1810741

> <KierFlex>
16.338934

> <lip_acc>
11

> <lip_don>
6

> <lip_druglike>
0

> <lip_violation>
3

> <logP(o/w)>
0.80800003

> <logS>
-4.0802798

> <mr>
14.294416

> <mutagenic>
0

> <nmol>
1

> <opr_brigid>
6

> <opr_leadlike>
0

> <opr_nring>
1

> <opr_nrot>
11

> <opr_violation>
4

> <PC+>
0

> <PC->
0

> <PEOE_PC+>
3.873661

> <PEOE_PC->
-3.873661

> <PEOE_RPC+>
0.066218749

> <PEOE_RPC->
0.10130094

> <PEOE_VSA+0>
90.457245

> <PEOE_VSA+1>
120.89005

> <PEOE_VSA+2>
14.951293

> <PEOE_VSA+3>
17.238026

> <PEOE_VSA+4>
41.296692

> <PEOE_VSA+5>
38.848595

> <PEOE_VSA+6>
0.0

> <PEOE_VSA-0>
140.97005

> <PEOE_VSA-1>
0.0

> <PEOE_VSA-2>
0.0

> <PEOE_VSA-3>
0.0

> <PEOE_VSA-4>
0.0

> <PEOE_VSA-5>
40.700764

> <PEOE_VSA-6>
33.847698

> <PEOE_VSA_FHYD>
0.71310526

> <PEOE_VSA_FNEG>
0.39970019

> <PEOE_VSA_FPNEG>
0.13825743

> <PEOE_VSA_FPOL>
0.28689471

> <PEOE_VSA_FPOS>
0.60029984

> <PEOE_VSA_FPPOS>
0.14863728

> <PEOE_VSA_HYD>
384.50665

> <PEOE_VSA_NEG>
215.51851

> <PEOE_VSA_PNEG>
74.548462

> <PEOE_VSA_POL>
154.69374

> <PEOE_VSA_POS>
323.68192

> <PEOE_VSA_PPOS>
80.145287

> <petitjean>
0.42857143

> <petitjeanSC>
0.75

> <Q_PC+>
0

> <Q_PC->
0

> <Q_RPC+>
0

> <Q_RPC->
0

> <Q_VSA_FHYD>
1

> <Q_VSA_FNEG>
0

> <Q_VSA_FPNEG>
0

> <Q_VSA_FPOL>
0

> <Q_VSA_FPOS>
1

> <Q_VSA_FPPOS>
0

> <Q_VSA_HYD>
539.20038

> <Q_VSA_NEG>
0

> <Q_VSA_PNEG>
0

> <Q_VSA_POL>
0

> <Q_VSA_POS>
539.20038

> <Q_VSA_PPOS>
0

> <radius>
8

> <reactive>
0

> <rings>
1

> <RPC+>
0

> <RPC->
0

> <rsynth>
1.0

> <SlogP>
-0.40650001

> <SlogP_VSA0>
119.55166

> <SlogP_VSA1>
36.911415

> <SlogP_VSA2>
52.778332

> <SlogP_VSA3>
99.657928

> <SlogP_VSA4>
54.095581

> <SlogP_VSA5>
68.281059

> <SlogP_VSA6>
0.0

> <SlogP_VSA7>
0.0

> <SlogP_VSA8>
0.0

> <SlogP_VSA9>
173.10277

> <SMR>
14.05776

> <SMR_VSA0>
82.58654

> <SMR_VSA1>
104.66522

> <SMR_VSA2>
22.989679

> <SMR_VSA3>
19.308449

> <SMR_VSA4>
20.767498

> <SMR_VSA5>
0.0

> <SMR_VSA6>
115.43428

> <SMR_VSA7>
238.62708

> <TPSA>
168.66

> <VAdjEq>
0.33729008

> <VAdjMa>
6.0

> <VDistEq>
3.5392628

> <VDistMa>
9.75068

> <vdw_area>
539.20038

> <vdw_vol>
618.48047

> <vsa_acc>
43.204517

> <vsa_acid>
0

> <vsa_base>
0

> <vsa_don>
11.365152

> <vsa_hyd>
354.45633

> <vsa_other>
38.848595

> <vsa_pol>
108.83736

> <Weight>
791.11499

> <weinerPath>
2884

> <weinerPol>
53

> <zagreb>
152

$$$$
Row1605
 OpenBabel06061811532D

 20 20  0  0  0  0  0  0  0  0999 V2000
    0.0000    0.0000    0.0000 I   0  0  0  0  0  0  0  0  0  0  0  0
    0.0000    0.0000    0.0000 C   0  0  0  0  0  0  0  0  0  0  0  0
    0.0000    0.0000    0.0000 C   0  0  0  0  0  0  0  0  0  0  0  0
    0.0000    0.0000    0.0000 C   0  0  0  0  0  0  0  0  0  0  0  0
    0.0000    0.0000    0.0000 O   0  0  0  0  0  0  0  0  0  0  0  0
    0.0000    0.0000    0.0000 N   0  0  0  0  0  0  0  0  0  0  0  0
    0.0000    0.0000    0.0000 C   0  0  0  0  0  0  0  0  0  0  0  0
    0.0000    0.0000    0.0000 C   0  0  0  0  0  0  0  0  0  0  0  0
    0.0000    0.0000    0.0000 I   0  0  0  0  0  0  0  0  0  0  0  0
    0.0000    0.0000    0.0000 C   0  0  0  0  0  0  0  0  0  0  0  0
    0.0000    0.0000    0.0000 N   0  0  0  0  0  0  0  0  0  0  0  0
    0.0000    0.0000    0.0000 C   0  0  0  0  0  0  0  0  0  0  0  0
    0.0000    0.0000    0.0000 O   0  0  0  0  0  0  0  0  0  0  0  0
    0.0000    0.0000    0.0000 C   0  0  0  0  0  0  0  0  0  0  0  0
    0.0000    0.0000    0.0000 C   0  0  0  0  0  0  0  0  0  0  0  0
    0.0000    0.0000    0.0000 I   0  0  0  0  0  0  0  0  0  0  0  0
    0.0000    0.0000    0.0000 C   0  0  0  0  0  0  0  0  0  0  0  0
    0.0000    0.0000    0.0000 C   0  0  0  0  0  0  0  0  0  0  0  0
    0.0000    0.0000    0.0000 O   0  0  0  0  0  0  0  0  0  0  0  0
    0.0000    0.0000    0.0000 O   0  0  0  0  0  0  0  0  0  0  0  0
  1  2  1  0  0  0  0
  2 17  1  0  0  0  0
  2  3  2  0  0  0  0
  3  4  1  0  0  0  0
  3  8  1  0  0  0  0
  4  5  2  0  0  0  0
  4  6  1  0  0  0  0
  6  7  1  0  0  0  0
  8  9  1  0  0  0  0
  8 10  2  0  0  0  0
 10 11  1  0  0  0  0
 10 15  1  0  0  0  0
 11 12  1  0  0  0  0
 12 13  2  0  0  0  0
 12 14  1  0  0  0  0
 15 16  1  0  0  0  0
 15 17  2  0  0  0  0
 17 18  1  0  0  0  0
 18 19  1  0  0  0  0
 18 20  2  0  0  0  0
M  END
> <Index>
1606

> <ID>
HT1115

> <class>
1

> <apol>
46.819138

> <ast_fraglike>
0

> <ast_fraglike_ext>
0

> <ast_violation>
3

> <ast_violation_ext>
4

> <a_acc>
4

> <a_acid>
0

> <a_aro>
6

> <a_base>
0

> <a_count>
29

> <a_don>
4

> <a_donacc>
8

> <a_heavy>
20

> <a_hyd>
11

> <a_IC>
59.543488

> <a_ICM>
2.0532238

> <a_nB>
0

> <a_nBr>
0

> <a_nC>
11

> <a_nCl>
0

> <a_nF>
0

> <a_nH>
9

> <a_nI>
3

> <a_nN>
2

> <a_nO>
4

> <a_nP>
0

> <a_nS>
0

> <balabanJ>
3.0900528

> <BCUT_PEOE_0>
-2.3348444

> <BCUT_PEOE_1>
-0.59344935

> <BCUT_PEOE_2>
0.54781139

> <BCUT_PEOE_3>
2.3378112

> <BCUT_SLOGP_0>
-2.5410969

> <BCUT_SLOGP_1>
-0.50052404

> <BCUT_SLOGP_2>
0.66378641

> <BCUT_SLOGP_3>
2.3788967

> <BCUT_SMR_0>
-2.0244591

> <BCUT_SMR_1>
-0.31750181

> <BCUT_SMR_2>
0.89246982

> <BCUT_SMR_3>
2.7211635

> <bpol>
24.802862

> <b_1rotN>
3

> <b_1rotR>
0.15000001

> <b_ar>
6

> <b_count>
29

> <b_double>
3

> <b_heavy>
20

> <b_max1len>
3

> <b_rotN>
5

> <b_rotR>
0.25

> <b_single>
20

> <b_triple>
0

> <chi0>
15.610366

> <chi0v>
16.778347

> <chi0v_C>
6.5

> <chi0_C>
7.1961522

> <chi1>
9.2173204

> <chi1v>
8.3891735

> <chi1v_C>
2.5

> <chi1_C>
3.2440169

> <chiral>
0

> <chiral_u>
0

> <density>
1.5607532

> <diameter>
8

> <FCharge>
0

> <GCUT_PEOE_0>
-0.83989131

> <GCUT_PEOE_1>
-0.49448106

> <GCUT_PEOE_2>
0.10219984

> <GCUT_PEOE_3>
2.3132455

> <GCUT_SLOGP_0>
-1.1607196

> <GCUT_SLOGP_1>
-0.42643031

> <GCUT_SLOGP_2>
0.23225348

> <GCUT_SLOGP_3>
2.3931289

> <GCUT_SMR_0>
-0.48508152

> <GCUT_SMR_1>
-0.20515123

> <GCUT_SMR_2>
0.36009854

> <GCUT_SMR_3>
2.7367985

> <Kier1>
18.049999

> <Kier2>
7.3198571

> <Kier3>
3.8144045

> <KierA1>
21.488802

> <KierA2>
8.7952757

> <KierA3>
4.6141872

> <KierFlex>
9.4499969

> <lip_acc>
6

> <lip_don>
3

> <lip_druglike>
1

> <lip_violation>
1

> <logP(o/w)>
3.7309999

> <logS>
-4.6844201

> <mr>
10.034142

> <mutagenic>
0

> <nmol>
1

> <opr_brigid>
6

> <opr_leadlike>
1

> <opr_nring>
1

> <opr_nrot>
3

> <opr_violation>
1

> <PC+>
0

> <PC->
0

> <PEOE_PC+>
1.9310044

> <PEOE_PC->
-1.9310044

> <PEOE_RPC+>
0.15190971

> <PEOE_RPC->
0.18383333

> <PEOE_VSA+0>
70.618774

> <PEOE_VSA+1>
17.196817

> <PEOE_VSA+2>
0.0

> <PEOE_VSA+3>
17.238026

> <PEOE_VSA+4>
23.273705

> <PEOE_VSA+5>
27.65803

> <PEOE_VSA+6>
0.0

> <PEOE_VSA-0>
140.97005

> <PEOE_VSA-1>
0.0

> <PEOE_VSA-2>
0.0

> <PEOE_VSA-3>
0.0

> <PEOE_VSA-4>
0.0

> <PEOE_VSA-5>
40.700764

> <PEOE_VSA-6>
8.0413227

> <PEOE_VSA_FHYD>
0.71167326

> <PEOE_VSA_FNEG>
0.54878074

> <PEOE_VSA_FPNEG>
0.14099635

> <PEOE_VSA_FPOL>
0.28832671

> <PEOE_VSA_FPOS>
0.45121923

> <PEOE_VSA_FPPOS>
0.14733036

> <PEOE_VSA_HYD>
246.02367

> <PEOE_VSA_NEG>
189.71213

> <PEOE_VSA_PNEG>
48.742085

> <PEOE_VSA_POL>
99.67382

> <PEOE_VSA_POS>
155.98535

> <PEOE_VSA_PPOS>
50.931732

> <petitjean>
0.375

> <petitjeanSC>
0.60000002

> <Q_PC+>
0

> <Q_PC->
0

> <Q_RPC+>
0

> <Q_RPC->
0

> <Q_VSA_FHYD>
1

> <Q_VSA_FNEG>
0

> <Q_VSA_FPNEG>
0

> <Q_VSA_FPOL>
0

> <Q_VSA_FPOS>
1

> <Q_VSA_FPPOS>
0

> <Q_VSA_HYD>
345.69748

> <Q_VSA_NEG>
0

> <Q_VSA_PNEG>
0

> <Q_VSA_POL>
0

> <Q_VSA_POS>
345.69748

> <Q_VSA_PPOS>
0

> <radius>
5

> <reactive>
0

> <rings>
1

> <RPC+>
0

> <RPC->
0

> <rsynth>
1.0

> <SlogP>
2.5165999

> <SlogP_VSA0>
18.01075

> <SlogP_VSA1>
36.273781

> <SlogP_VSA2>
28.841145

> <SlogP_VSA3>
25.385227

> <SlogP_VSA4>
54.095581

> <SlogP_VSA5>
32.897186

> <SlogP_VSA6>
0.0

> <SlogP_VSA7>
0.0

> <SlogP_VSA8>
0.0

> <SlogP_VSA9>
206.42879

> <SMR>
9.9246197

> <SMR_VSA0>
71.586647

> <SMR_VSA1>
0.0

> <SMR_VSA2>
48.374905

> <SMR_VSA3>
6.37115

> <SMR_VSA4>
20.767498

> <SMR_VSA5>
0.0

> <SMR_VSA6>
18.263031

> <SMR_VSA7>
236.56923

> <TPSA>
95.5

> <VAdjEq>
0.4689956

> <VAdjMa>
5.321928

> <VDistEq>
2.7967854

> <VDistMa>
8.4055929

> <vdw_area>
345.69748

> <vdw_vol>
393.34534

> <vsa_acc>
27.133842

> <vsa_acid>
0

> <vsa_base>
0

> <vsa_don>
11.365152

> <vsa_hyd>
224.51486

> <vsa_other>
40.607563

> <vsa_pol>
65.632835

> <Weight>
613.91498

> <weinerPath>
731

> <weinerPol>
35

> <zagreb>
98

$$$$
Row1606
 OpenBabel06061811532D

 67 68  0  0  1  0  0  0  0  0999 V2000
    0.0000    0.0000    0.0000 I   0  0  0  0  0  0  0  0  0  0  0  0
    0.0000    0.0000    0.0000 C   0  0  0  0  0  0  0  0  0  0  0  0
    0.0000    0.0000    0.0000 C   0  0  0  0  0  0  0  0  0  0  0  0
    0.0000    0.0000    0.0000 C   0  0  0  0  0  0  0  0  0  0  0  0
    0.0000    0.0000    0.0000 O   0  0  0  0  0  0  0  0  0  0  0  0
    0.0000    0.0000    0.0000 N   0  0  0  0  0  0  0  0  0  0  0  0
    0.0000    0.0000    0.0000 C   0  0  3  0  0  0  0  0  0  0  0  0
    0.0000    0.0000    0.0000 C   0  0  3  0  0  0  0  0  0  0  0  0
    0.0000    0.0000    0.0000 O   0  0  0  0  0  0  0  0  0  0  0  0
    0.0000    0.0000    0.0000 C   0  0  0  0  0  0  0  0  0  0  0  0
    0.0000    0.0000    0.0000 O   0  0  0  0  0  0  0  0  0  0  0  0
    0.0000    0.0000    0.0000 C   0  0  0  0  0  0  0  0  0  0  0  0
    0.0000    0.0000    0.0000 O   0  0  0  0  0  0  0  0  0  0  0  0
    0.0000    0.0000    0.0000 C   0  0  0  0  0  0  0  0  0  0  0  0
    0.0000    0.0000    0.0000 I   0  0  0  0  0  0  0  0  0  0  0  0
    0.0000    0.0000    0.0000 C   0  0  0  0  0  0  0  0  0  0  0  0
    0.0000    0.0000    0.0000 N   0  0  0  0  0  0  0  0  0  0  0  0
    0.0000    0.0000    0.0000 C   0  0  0  0  0  0  0  0  0  0  0  0
    0.0000    0.0000    0.0000 O   0  0  0  0  0  0  0  0  0  0  0  0
    0.0000    0.0000    0.0000 C   0  0  0  0  0  0  0  0  0  0  0  0
    0.0000    0.0000    0.0000 C   0  0  0  0  0  0  0  0  0  0  0  0
    0.0000    0.0000    0.0000 O   0  0  0  0  0  0  0  0  0  0  0  0
    0.0000    0.0000    0.0000 N   0  0  0  0  0  0  0  0  0  0  0  0
    0.0000    0.0000    0.0000 C   0  0  0  0  0  0  0  0  0  0  0  0
    0.0000    0.0000    0.0000 C   0  0  0  0  0  0  0  0  0  0  0  0
    0.0000    0.0000    0.0000 C   0  0  0  0  0  0  0  0  0  0  0  0
    0.0000    0.0000    0.0000 I   0  0  0  0  0  0  0  0  0  0  0  0
    0.0000    0.0000    0.0000 C   0  0  0  0  0  0  0  0  0  0  0  0
    0.0000    0.0000    0.0000 C   0  0  0  0  0  0  0  0  0  0  0  0
    0.0000    0.0000    0.0000 O   0  0  0  0  0  0  0  0  0  0  0  0
    0.0000    0.0000    0.0000 N   0  0  0  0  0  0  0  0  0  0  0  0
    0.0000    0.0000    0.0000 C   0  0  3  0  0  0  0  0  0  0  0  0
    0.0000    0.0000    0.0000 C   0  0  3  0  0  0  0  0  0  0  0  0
    0.0000    0.0000    0.0000 O   0  0  0  0  0  0  0  0  0  0  0  0
    0.0000    0.0000    0.0000 C   0  0  0  0  0  0  0  0  0  0  0  0
    0.0000    0.0000    0.0000 O   0  0  0  0  0  0  0  0  0  0  0  0
    0.0000    0.0000    0.0000 C   0  0  0  0  0  0  0  0  0  0  0  0
    0.0000    0.0000    0.0000 O   0  0  0  0  0  0  0  0  0  0  0  0
    0.0000    0.0000    0.0000 C   0  0  0  0  0  0  0  0  0  0  0  0
    0.0000    0.0000    0.0000 I   0  0  0  0  0  0  0  0  0  0  0  0
    0.0000    0.0000    0.0000 C   0  0  0  0  0  0  0  0  0  0  0  0
    0.0000    0.0000    0.0000 C   0  0  0  0  0  0  0  0  0  0  0  0
    0.0000    0.0000    0.0000 O   0  0  0  0  0  0  0  0  0  0  0  0
    0.0000    0.0000    0.0000 N   0  0  0  0  0  0  0  0  0  0  0  0
    0.0000    0.0000    0.0000 C   0  0  3  0  0  0  0  0  0  0  0  0
    0.0000    0.0000    0.0000 C   0  0  3  0  0  0  0  0  0  0  0  0
    0.0000    0.0000    0.0000 O   0  0  0  0  0  0  0  0  0  0  0  0
    0.0000    0.0000    0.0000 C   0  0  0  0  0  0  0  0  0  0  0  0
    0.0000    0.0000    0.0000 O   0  0  0  0  0  0  0  0  0  0  0  0
    0.0000    0.0000    0.0000 C   0  0  0  0  0  0  0  0  0  0  0  0
    0.0000    0.0000    0.0000 O   0  0  0  0  0  0  0  0  0  0  0  0
    0.0000    0.0000    0.0000 C   0  0  0  0  0  0  0  0  0  0  0  0
    0.0000    0.0000    0.0000 I   0  0  0  0  0  0  0  0  0  0  0  0
    0.0000    0.0000    0.0000 C   0  0  0  0  0  0  0  0  0  0  0  0
    0.0000    0.0000    0.0000 C   0  0  0  0  0  0  0  0  0  0  0  0
    0.0000    0.0000    0.0000 I   0  0  0  0  0  0  0  0  0  0  0  0
    0.0000    0.0000    0.0000 C   0  0  0  0  0  0  0  0  0  0  0  0
    0.0000    0.0000    0.0000 C   0  0  0  0  0  0  0  0  0  0  0  0
    0.0000    0.0000    0.0000 O   0  0  0  0  0  0  0  0  0  0  0  0
    0.0000    0.0000    0.0000 N   0  0  0  0  0  0  0  0  0  0  0  0
    0.0000    0.0000    0.0000 C   0  0  3  0  0  0  0  0  0  0  0  0
    0.0000    0.0000    0.0000 C   0  0  3  0  0  0  0  0  0  0  0  0
    0.0000    0.0000    0.0000 O   0  0  0  0  0  0  0  0  0  0  0  0
    0.0000    0.0000    0.0000 C   0  0  0  0  0  0  0  0  0  0  0  0
    0.0000    0.0000    0.0000 O   0  0  0  0  0  0  0  0  0  0  0  0
    0.0000    0.0000    0.0000 C   0  0  0  0  0  0  0  0  0  0  0  0
    0.0000    0.0000    0.0000 O   0  0  0  0  0  0  0  0  0  0  0  0
  1  2  1  0  0  0  0
  2 57  1  0  0  0  0
  2  3  2  0  0  0  0
  3  4  1  0  0  0  0
  3 14  1  0  0  0  0
  4  5  2  0  0  0  0
  4  6  1  0  0  0  0
  6  7  1  0  0  0  0
  7  8  1  0  0  0  0
  7 12  1  0  0  0  0
  8  9  1  0  0  0  0
  8 10  1  0  0  0  0
 10 11  1  0  0  0  0
 12 13  1  0  0  0  0
 14 15  1  0  0  0  0
 14 16  2  0  0  0  0
 16 17  1  0  0  0  0
 16 55  1  0  0  0  0
 17 18  1  0  0  0  0
 17 54  1  0  0  0  0
 18 19  2  0  0  0  0
 18 20  1  0  0  0  0
 20 21  1  0  0  0  0
 21 22  2  0  0  0  0
 21 23  1  0  0  0  0
 23 24  1  0  0  0  0
 23 25  1  0  0  0  0
 25 52  1  0  0  0  0
 25 26  2  0  0  0  0
 26 27  1  0  0  0  0
 26 28  1  0  0  0  0
 28 29  1  0  0  0  0
 28 39  2  0  0  0  0
 29 30  2  0  0  0  0
 29 31  1  0  0  0  0
 31 32  1  0  0  0  0
 32 33  1  0  0  0  0
 32 37  1  0  0  0  0
 33 34  1  0  0  0  0
 33 35  1  0  0  0  0
 35 36  1  0  0  0  0
 37 38  1  0  0  0  0
 39 40  1  0  0  0  0
 39 41  1  0  0  0  0
 41 42  1  0  0  0  0
 41 52  2  0  0  0  0
 42 43  2  0  0  0  0
 42 44  1  0  0  0  0
 44 45  1  0  0  0  0
 45 46  1  0  0  0  0
 45 50  1  0  0  0  0
 46 47  1  0  0  0  0
 46 48  1  0  0  0  0
 48 49  1  0  0  0  0
 50 51  1  0  0  0  0
 52 53  1  0  0  0  0
 55 56  1  0  0  0  0
 55 57  2  0  0  0  0
 57 58  1  0  0  0  0
 58 59  2  0  0  0  0
 58 60  1  0  0  0  0
 60 61  1  0  0  0  0
 61 62  1  0  0  0  0
 61 66  1  0  0  0  0
 62 63  1  0  0  0  0
 62 64  1  0  0  0  0
 64 65  1  0  0  0  0
 66 67  1  0  0  0  0
M  END
> <Index>
1607

> <ID>
HT1116

> <class>
1

> <apol>
150.26207

> <ast_fraglike>
0

> <ast_fraglike_ext>
0

> <ast_violation>
3

> <ast_violation_ext>
5

> <a_acc>
18

> <a_acid>
0

> <a_aro>
12

> <a_base>
0

> <a_count>
115

> <a_don>
16

> <a_donacc>
34

> <a_heavy>
67

> <a_hyd>
37

> <a_IC>
220.32518

> <a_ICM>
1.9158711

> <a_nB>
0

> <a_nBr>
0

> <a_nC>
37

> <a_nCl>
0

> <a_nF>
0

> <a_nH>
48

> <a_nI>
6

> <a_nN>
6

> <a_nO>
18

> <a_nP>
0

> <a_nS>
0

> <balabanJ>
2.5937631

> <BCUT_PEOE_0>
-2.6168599

> <BCUT_PEOE_1>
-0.70525628

> <BCUT_PEOE_2>
0.75331581

> <BCUT_PEOE_3>
2.638196

> <BCUT_SLOGP_0>
-2.8413661

> <BCUT_SLOGP_1>
-0.75850207

> <BCUT_SLOGP_2>
0.59880555

> <BCUT_SLOGP_3>
2.4529486

> <BCUT_SMR_0>
-2.3861036

> <BCUT_SMR_1>
-0.48438415

> <BCUT_SMR_2>
0.90907031

> <BCUT_SMR_3>
2.8665938

> <bpol>
86.361938

> <b_1rotN>
26

> <b_1rotR>
0.38235295

> <b_ar>
12

> <b_count>
116

> <b_double>
6

> <b_heavy>
68

> <b_max1len>
7

> <b_rotN>
30

> <b_rotR>
0.44117647

> <b_single>
98

> <b_triple>
0

> <chi0>
51.358196

> <chi0v>
47.906021

> <chi0v_C>
21.982763

> <chi0_C>
23.375069

> <chi1>
31.397629

> <chi1v>
25.643732

> <chi1v_C>
9.306426

> <chi1_C>
10.749149

> <chiral>
8

> <chiral_u>
8

> <density>
1.2903994

> <diameter>
22

> <FCharge>
0

> <GCUT_PEOE_0>
-0.83008128

> <GCUT_PEOE_1>
-0.48589909

> <GCUT_PEOE_2>
0.12808211

> <GCUT_PEOE_3>
2.9802632

> <GCUT_SLOGP_0>
-1.1639338

> <GCUT_SLOGP_1>
-0.49811286

> <GCUT_SLOGP_2>
0.043966595

> <GCUT_SLOGP_3>
2.9559691

> <GCUT_SMR_0>
-0.52305907

> <GCUT_SMR_1>
-0.25023076

> <GCUT_SMR_2>
0.28653491

> <GCUT_SMR_3>
3.3135955

> <Kier1>
63.116783

> <Kier2>
29.636518

> <Kier3>
15.515152

> <KierA1>
68.91806

> <KierA2>
32.403458

> <KierA3>
16.979303

> <KierFlex>
33.331093

> <lip_acc>
24

> <lip_don>
16

> <lip_druglike>
0

> <lip_violation>
3

> <logP(o/w)>
-0.71399999

> <logS>
-7.3565001

> <mr>
28.990438

> <mutagenic>
0

> <nmol>
1

> <opr_brigid>
12

> <opr_leadlike>
0

> <opr_nring>
2

> <opr_nrot>
24

> <opr_violation>
5

> <PC+>
0

> <PC->
0

> <PEOE_PC+>
8.5566177

> <PEOE_PC->
-8.5566177

> <PEOE_RPC+>
0.029741729

> <PEOE_RPC->
0.045917455

> <PEOE_VSA+0>
86.680656

> <PEOE_VSA+1>
268.95709

> <PEOE_VSA+2>
28.321028

> <PEOE_VSA+3>
34.476051

> <PEOE_VSA+4>
149.78914

> <PEOE_VSA+5>
51.798122

> <PEOE_VSA+6>
0.0

> <PEOE_VSA-0>
281.94009

> <PEOE_VSA-1>
0.0

> <PEOE_VSA-2>
0.0

> <PEOE_VSA-3>
0.0

> <PEOE_VSA-4>
0.0

> <PEOE_VSA-5>
81.401527

> <PEOE_VSA-6>
93.758049

> <PEOE_VSA_FHYD>
0.6502282

> <PEOE_VSA_FNEG>
0.42437139

> <PEOE_VSA_FPNEG>
0.16261818

> <PEOE_VSA_FPOL>
0.34977183

> <PEOE_VSA_FPOS>
0.57562858

> <PEOE_VSA_FPPOS>
0.18715364

> <PEOE_VSA_HYD>
700.37488

> <PEOE_VSA_NEG>
457.09967

> <PEOE_VSA_PNEG>
175.15958

> <PEOE_VSA_POL>
376.74683

> <PEOE_VSA_POS>
620.02209

> <PEOE_VSA_PPOS>
201.58727

> <petitjean>
0.5

> <petitjeanSC>
1.0

> <Q_PC+>
0

> <Q_PC->
0

> <Q_RPC+>
0

> <Q_RPC->
0

> <Q_VSA_FHYD>
1

> <Q_VSA_FNEG>
0

> <Q_VSA_FPNEG>
0

> <Q_VSA_FPOL>
0

> <Q_VSA_FPOS>
1

> <Q_VSA_FPPOS>
0

> <Q_VSA_HYD>
1077.1217

> <Q_VSA_NEG>
0

> <Q_VSA_PNEG>
0

> <Q_VSA_POL>
0

> <Q_VSA_POS>
1077.1217

> <Q_VSA_PPOS>
0

> <radius>
11

> <reactive>
0

> <rings>
2

> <RPC+>
0

> <RPC->
0

> <rsynth>
0.52238804

> <SlogP>
-3.8943

> <SlogP_VSA0>
382.91434

> <SlogP_VSA1>
31.552702

> <SlogP_VSA2>
99.484764

> <SlogP_VSA3>
167.41006

> <SlogP_VSA4>
108.19116

> <SlogP_VSA5>
65.794373

> <SlogP_VSA6>
0.0

> <SlogP_VSA7>
0.0

> <SlogP_VSA8>
18.868406

> <SlogP_VSA9>
346.20554

> <SMR>
28.63534

> <SMR_VSA0>
143.17329

> <SMR_VSA1>
304.62271

> <SMR_VSA2>
88.249489

> <SMR_VSA3>
54.544773

> <SMR_VSA4>
5.513495

> <SMR_VSA5>
18.868406

> <SMR_VSA6>
198.96277

> <SMR_VSA7>
406.48642

> <TPSA>
399.78

> <VAdjEq>
0.19587551

> <VAdjMa>
7.0874629

> <VDistEq>
4.3106146

> <VDistMa>
11.884621

> <vdw_area>
1077.1217

> <vdw_vol>
1260.2601

> <vsa_acc>
81.401527

> <vsa_acid>
0

> <vsa_base>
0

> <vsa_don>
22.730305

> <vsa_hyd>
643.1214

> <vsa_other>
77.697189

> <vsa_pol>
266.93488

> <Weight>
1626.239

> <weinerPath>
21476

> <weinerPol>
126

> <zagreb>
330

$$$$
Row1607
 OpenBabel06061811532D

 33 33  0  0  1  0  0  0  0  0999 V2000
    0.0000    0.0000    0.0000 I   0  0  0  0  0  0  0  0  0  0  0  0
    0.0000    0.0000    0.0000 C   0  0  0  0  0  0  0  0  0  0  0  0
    0.0000    0.0000    0.0000 C   0  0  0  0  0  0  0  0  0  0  0  0
    0.0000    0.0000    0.0000 C   0  0  0  0  0  0  0  0  0  0  0  0
    0.0000    0.0000    0.0000 O   0  0  0  0  0  0  0  0  0  0  0  0
    0.0000    0.0000    0.0000 N   0  0  0  0  0  0  0  0  0  0  0  0
    0.0000    0.0000    0.0000 C   0  0  0  0  0  0  0  0  0  0  0  0
    0.0000    0.0000    0.0000 C   0  0  3  0  0  0  0  0  0  0  0  0
    0.0000    0.0000    0.0000 O   0  0  0  0  0  0  0  0  0  0  0  0
    0.0000    0.0000    0.0000 C   0  0  0  0  0  0  0  0  0  0  0  0
    0.0000    0.0000    0.0000 O   0  0  0  0  0  0  0  0  0  0  0  0
    0.0000    0.0000    0.0000 C   0  0  0  0  0  0  0  0  0  0  0  0
    0.0000    0.0000    0.0000 I   0  0  0  0  0  0  0  0  0  0  0  0
    0.0000    0.0000    0.0000 C   0  0  0  0  0  0  0  0  0  0  0  0
    0.0000    0.0000    0.0000 N   0  0  0  0  0  0  0  0  0  0  0  0
    0.0000    0.0000    0.0000 C   0  0  0  0  0  0  0  0  0  0  0  0
    0.0000    0.0000    0.0000 O   0  0  0  0  0  0  0  0  0  0  0  0
    0.0000    0.0000    0.0000 C   0  0  0  0  0  0  0  0  0  0  0  0
    0.0000    0.0000    0.0000 O   0  0  0  0  0  0  0  0  0  0  0  0
    0.0000    0.0000    0.0000 C   0  0  0  0  0  0  0  0  0  0  0  0
    0.0000    0.0000    0.0000 C   0  0  0  0  0  0  0  0  0  0  0  0
    0.0000    0.0000    0.0000 O   0  0  0  0  0  0  0  0  0  0  0  0
    0.0000    0.0000    0.0000 C   0  0  0  0  0  0  0  0  0  0  0  0
    0.0000    0.0000    0.0000 I   0  0  0  0  0  0  0  0  0  0  0  0
    0.0000    0.0000    0.0000 C   0  0  0  0  0  0  0  0  0  0  0  0
    0.0000    0.0000    0.0000 C   0  0  0  0  0  0  0  0  0  0  0  0
    0.0000    0.0000    0.0000 O   0  0  0  0  0  0  0  0  0  0  0  0
    0.0000    0.0000    0.0000 N   0  0  0  0  0  0  0  0  0  0  0  0
    0.0000    0.0000    0.0000 C   0  0  0  0  0  0  0  0  0  0  0  0
    0.0000    0.0000    0.0000 C   0  0  3  0  0  0  0  0  0  0  0  0
    0.0000    0.0000    0.0000 O   0  0  0  0  0  0  0  0  0  0  0  0
    0.0000    0.0000    0.0000 C   0  0  0  0  0  0  0  0  0  0  0  0
    0.0000    0.0000    0.0000 O   0  0  0  0  0  0  0  0  0  0  0  0
  1  2  1  0  0  0  0
  2 25  1  0  0  0  0
  2  3  2  0  0  0  0
  3  4  1  0  0  0  0
  3 12  1  0  0  0  0
  4  5  2  0  0  0  0
  4  6  1  0  0  0  0
  6  7  1  0  0  0  0
  7  8  1  0  0  0  0
  8  9  1  0  0  0  0
  8 10  1  0  0  0  0
 10 11  1  0  0  0  0
 12 13  1  0  0  0  0
 12 14  2  0  0  0  0
 14 15  1  0  0  0  0
 14 23  1  0  0  0  0
 15 16  1  0  0  0  0
 15 20  1  0  0  0  0
 16 17  2  0  0  0  0
 16 18  1  0  0  0  0
 18 19  1  0  0  0  0
 20 21  1  0  0  0  0
 21 22  1  0  0  0  0
 23 24  1  0  0  0  0
 23 25  2  0  0  0  0
 25 26  1  0  0  0  0
 26 27  2  0  0  0  0
 26 28  1  0  0  0  0
 28 29  1  0  0  0  0
 29 30  1  0  0  0  0
 30 31  1  0  0  0  0
 30 32  1  0  0  0  0
 32 33  1  0  0  0  0
M  END
> <Index>
1608

> <ID>
HT1117

> <class>
1

> <apol>
74.25103

> <ast_fraglike>
0

> <ast_fraglike_ext>
0

> <ast_violation>
3

> <ast_violation_ext>
5

> <a_acc>
9

> <a_acid>
0

> <a_aro>
6

> <a_base>
0

> <a_count>
57

> <a_don>
8

> <a_donacc>
17

> <a_heavy>
33

> <a_hyd>
18

> <a_IC>
109.33788

> <a_ICM>
1.9182085

> <a_nB>
0

> <a_nBr>
0

> <a_nC>
18

> <a_nCl>
0

> <a_nF>
0

> <a_nH>
24

> <a_nI>
3

> <a_nN>
3

> <a_nO>
9

> <a_nP>
0

> <a_nS>
0

> <balabanJ>
3.2911642

> <BCUT_PEOE_0>
-2.5513334

> <BCUT_PEOE_1>
-0.63128817

> <BCUT_PEOE_2>
0.66705495

> <BCUT_PEOE_3>
2.5536082

> <BCUT_SLOGP_0>
-2.7598133

> <BCUT_SLOGP_1>
-0.64090258

> <BCUT_SLOGP_2>
0.59859264

> <BCUT_SLOGP_3>
2.4280763

> <BCUT_SMR_0>
-2.3130972

> <BCUT_SMR_1>
-0.42305937

> <BCUT_SMR_2>
0.87807465

> <BCUT_SMR_3>
2.8164628

> <bpol>
43.180969

> <b_1rotN>
13

> <b_1rotR>
0.39393941

> <b_ar>
6

> <b_count>
57

> <b_double>
3

> <b_heavy>
33

> <b_max1len>
6

> <b_rotN>
15

> <b_rotR>
0.45454547

> <b_single>
48

> <b_triple>
0

> <chi0>
25.292164

> <chi0v>
23.566076

> <chi0v_C>
10.604448

> <chi0_C>
11.3006

> <chi1>
15.546549

> <chi1v>
12.65397

> <chi1v_C>
4.4865465

> <chi1_C>
5.2079082

> <chiral>
2

> <chiral_u>
2

> <density>
1.2916644

> <diameter>
14

> <FCharge>
0

> <GCUT_PEOE_0>
-0.83003014

> <GCUT_PEOE_1>
-0.46207079

> <GCUT_PEOE_2>
0.13743165

> <GCUT_PEOE_3>
2.6791775

> <GCUT_SLOGP_0>
-1.1630626

> <GCUT_SLOGP_1>
-0.48194152

> <GCUT_SLOGP_2>
0.033586528

> <GCUT_SLOGP_3>
2.6669164

> <GCUT_SMR_0>
-0.52247512

> <GCUT_SMR_1>
-0.23472354

> <GCUT_SMR_2>
0.28316706

> <GCUT_SMR_3>
3.0276105

> <Kier1>
31.030304

> <Kier2>
15.186172

> <Kier3>
8.2734842

> <KierA1>
33.958607

> <KierA2>
16.666464

> <KierA3>
9.0986309

> <KierFlex>
17.150604

> <lip_acc>
12

> <lip_don>
8

> <lip_druglike>
0

> <lip_violation>
3

> <logP(o/w)>
-0.498

> <logS>
-3.5325601

> <mr>
14.425773

> <mutagenic>
0

> <nmol>
1

> <opr_brigid>
6

> <opr_leadlike>
0

> <opr_nring>
1

> <opr_nrot>
12

> <opr_violation>
4

> <PC+>
0

> <PC->
0

> <PEOE_PC+>
4.273181

> <PEOE_PC->
-4.273181

> <PEOE_RPC+>
0.059491687

> <PEOE_RPC->
0.092027776

> <PEOE_VSA+0>
42.617069

> <PEOE_VSA+1>
140.10674

> <PEOE_VSA+2>
14.951293

> <PEOE_VSA+3>
17.238026

> <PEOE_VSA+4>
61.945034

> <PEOE_VSA+5>
38.848595

> <PEOE_VSA+6>
0.0

> <PEOE_VSA-0>
140.97005

> <PEOE_VSA-1>
0.0

> <PEOE_VSA-2>
0.0

> <PEOE_VSA-3>
0.0

> <PEOE_VSA-4>
0.0

> <PEOE_VSA-5>
40.700764

> <PEOE_VSA-6>
46.879025

> <PEOE_VSA_FHYD>
0.65388858

> <PEOE_VSA_FNEG>
0.41993031

> <PEOE_VSA_FPNEG>
0.16091636

> <PEOE_VSA_FPOL>
0.34611142

> <PEOE_VSA_FPOS>
0.58006972

> <PEOE_VSA_FPPOS>
0.18519506

> <PEOE_VSA_HYD>
355.88315

> <PEOE_VSA_NEG>
228.54984

> <PEOE_VSA_PNEG>
87.579788

> <PEOE_VSA_POL>
188.37341

> <PEOE_VSA_POS>
315.70676

> <PEOE_VSA_PPOS>
100.79363

> <petitjean>
0.5

> <petitjeanSC>
1.0

> <Q_PC+>
0

> <Q_PC->
0

> <Q_RPC+>
0

> <Q_RPC->
0

> <Q_VSA_FHYD>
1

> <Q_VSA_FNEG>
0

> <Q_VSA_FPNEG>
0

> <Q_VSA_FPOL>
0

> <Q_VSA_FPOS>
1

> <Q_VSA_FPPOS>
0

> <Q_VSA_HYD>
544.25659

> <Q_VSA_NEG>
0

> <Q_VSA_PNEG>
0

> <Q_VSA_POL>
0

> <Q_VSA_POS>
544.25659

> <Q_VSA_PPOS>
0

> <radius>
7

> <reactive>
0

> <rings>
1

> <RPC+>
0

> <RPC->
0

> <rsynth>
1.0

> <SlogP>
-2.016

> <SlogP_VSA0>
191.45717

> <SlogP_VSA1>
15.776351

> <SlogP_VSA2>
41.778442

> <SlogP_VSA3>
139.02377

> <SlogP_VSA4>
54.095581

> <SlogP_VSA5>
0.0

> <SlogP_VSA6>
0.0

> <SlogP_VSA7>
0.0

> <SlogP_VSA8>
0.0

> <SlogP_VSA9>
173.10277

> <SMR>
14.19692

> <SMR_VSA0>
71.586647

> <SMR_VSA1>
152.31136

> <SMR_VSA2>
44.124744

> <SMR_VSA3>
19.308449

> <SMR_VSA4>
2.7567475

> <SMR_VSA5>
0.0

> <SMR_VSA6>
154.80013

> <SMR_VSA7>
170.34602

> <TPSA>
199.89

> <VAdjEq>
0.32984608

> <VAdjMa>
6.044394

> <VDistEq>
3.5131624

> <VDistMa>
9.8480234

> <vdw_area>
544.25659

> <vdw_vol>
624.86353

> <vsa_acc>
40.700764

> <vsa_acid>
0

> <vsa_base>
0

> <vsa_don>
11.365152

> <vsa_hyd>
327.25641

> <vsa_other>
38.848595

> <vsa_pol>
133.46744

> <Weight>
807.11401

> <weinerPath>
3054

> <weinerPol>
56

> <zagreb>
156

$$$$
Row1608
 OpenBabel06061811532D

 21 23  0  0  0  0  0  0  0  0999 V2000
    0.0000    0.0000    0.0000 N   0  0  0  0  0  0  0  0  0  0  0  0
    0.0000    0.0000    0.0000 C   0  0  0  0  0  0  0  0  0  0  0  0
    0.0000    0.0000    0.0000 C   0  0  0  0  0  0  0  0  0  0  0  0
    0.0000    0.0000    0.0000 C   0  0  0  0  0  0  0  0  0  0  0  0
    0.0000    0.0000    0.0000 C   0  0  0  0  0  0  0  0  0  0  0  0
    0.0000    0.0000    0.0000 C   0  0  0  0  0  0  0  0  0  0  0  0
    0.0000    0.0000    0.0000 C   0  0  0  0  0  0  0  0  0  0  0  0
    0.0000    0.0000    0.0000 C   0  0  0  0  0  0  0  0  0  0  0  0
    0.0000    0.0000    0.0000 C   0  0  0  0  0  0  0  0  0  0  0  0
    0.0000    0.0000    0.0000 C   0  0  0  0  0  0  0  0  0  0  0  0
    0.0000    0.0000    0.0000 C   0  0  0  0  0  0  0  0  0  0  0  0
    0.0000    0.0000    0.0000 C   0  0  0  0  0  0  0  0  0  0  0  0
    0.0000    0.0000    0.0000 C   0  0  0  0  0  0  0  0  0  0  0  0
    0.0000    0.0000    0.0000 C   0  0  0  0  0  0  0  0  0  0  0  0
    0.0000    0.0000    0.0000 C   0  0  0  0  0  0  0  0  0  0  0  0
    0.0000    0.0000    0.0000 C   0  0  0  0  0  0  0  0  0  0  0  0
    0.0000    0.0000    0.0000 C   0  0  0  0  0  0  0  0  0  0  0  0
    0.0000    0.0000    0.0000 C   0  0  0  0  0  0  0  0  0  0  0  0
    0.0000    0.0000    0.0000 N   0  0  0  0  0  0  0  0  0  0  0  0
    0.0000    0.0000    0.0000 C   0  0  0  0  0  0  0  0  0  0  0  0
    0.0000    0.0000    0.0000 C   0  0  0  0  0  0  0  0  0  0  0  0
  1 11  1  0  0  0  0
  1  2  1  0  0  0  0
  1 16  1  0  0  0  0
  2  9  2  0  0  0  0
  2  3  1  0  0  0  0
  3  4  1  0  0  0  0
  4  5  1  0  0  0  0
  5  6  1  0  0  0  0
  6  7  1  0  0  0  0
  7  8  1  0  0  0  0
  8  9  1  0  0  0  0
  9 10  1  0  0  0  0
 10 15  1  0  0  0  0
 10 11  2  0  0  0  0
 11 12  1  0  0  0  0
 12 13  2  0  0  0  0
 13 14  1  0  0  0  0
 14 15  2  0  0  0  0
 16 17  1  0  0  0  0
 17 18  1  0  0  0  0
 18 19  1  0  0  0  0
 19 20  1  0  0  0  0
 19 21  1  0  0  0  0
M  END
> <Index>
1609

> <ID>
HT1121

> <class>
1

> <apol>
54.310204

> <ast_fraglike>
0

> <ast_fraglike_ext>
0

> <ast_violation>
1

> <ast_violation_ext>
2

> <a_acc>
1

> <a_acid>
0

> <a_aro>
9

> <a_base>
0

> <a_count>
49

> <a_don>
0

> <a_donacc>
1

> <a_heavy>
21

> <a_hyd>
19

> <a_IC>
57.804222

> <a_ICM>
1.179678

> <a_nB>
0

> <a_nBr>
0

> <a_nC>
19

> <a_nCl>
0

> <a_nF>
0

> <a_nH>
28

> <a_nI>
0

> <a_nN>
2

> <a_nO>
0

> <a_nP>
0

> <a_nS>
0

> <balabanJ>
1.6882689

> <BCUT_PEOE_0>
-2.6908543

> <BCUT_PEOE_1>
-0.52150303

> <BCUT_PEOE_2>
0.33797199

> <BCUT_PEOE_3>
2.6435602

> <BCUT_SLOGP_0>
-2.6754663

> <BCUT_SLOGP_1>
-0.42200342

> <BCUT_SLOGP_2>
0.47480091

> <BCUT_SLOGP_3>
2.7768273

> <BCUT_SMR_0>
-2.4342709

> <BCUT_SMR_1>
-0.38441253

> <BCUT_SMR_2>
0.56608963

> <BCUT_SMR_3>
2.9100885

> <bpol>
34.569798

> <b_1rotN>
4

> <b_1rotR>
0.17391305

> <b_ar>
10

> <b_count>
51

> <b_double>
0

> <b_heavy>
23

> <b_max1len>
6

> <b_rotN>
4

> <b_rotR>
0.17391305

> <b_single>
41

> <b_triple>
0

> <chi0>
14.656489

> <chi0v>
13.567789

> <chi0v_C>
12.673362

> <chi0_C>
13.501789

> <chi1>
10.270857

> <chi1v>
8.5085535

> <chi1v_C>
6.5344572

> <chi1_C>
7.6329932

> <chiral>
0

> <chiral_u>
0

> <density>
0.63413197

> <diameter>
10

> <FCharge>
0

> <GCUT_PEOE_0>
-0.87081468

> <GCUT_PEOE_1>
-0.33581662

> <GCUT_PEOE_2>
-0.09575031

> <GCUT_PEOE_3>
2.8620143

> <GCUT_SLOGP_0>
-0.95322299

> <GCUT_SLOGP_1>
-0.27999973

> <GCUT_SLOGP_2>
0.036855578

> <GCUT_SLOGP_3>
2.9810541

> <GCUT_SMR_0>
-0.53340584

> <GCUT_SMR_1>
-0.18049732

> <GCUT_SMR_2>
0.11550205

> <GCUT_SMR_3>
3.1341438

> <Kier1>
15.879017

> <Kier2>
7.5130072

> <Kier3>
3.6734693

> <KierA1>
13.208201

> <KierA2>
6.1880708

> <KierA3>
3.0028219

> <KierFlex>
3.8920612

> <lip_acc>
2

> <lip_don>
0

> <lip_druglike>
1

> <lip_violation>
0

> <logP(o/w)>
4.8769999

> <logS>
-3.7876999

> <mr>
8.9609308

> <mutagenic>
0

> <nmol>
1

> <opr_brigid>
17

> <opr_leadlike>
1

> <opr_nring>
3

> <opr_nrot>
6

> <opr_violation>
1

> <PC+>
0

> <PC->
0

> <PEOE_PC+>
1.1693234

> <PEOE_PC->
-1.1693234

> <PEOE_RPC+>
0.054584641

> <PEOE_RPC->
0.29374209

> <PEOE_VSA+0>
131.16924

> <PEOE_VSA+1>
17.061544

> <PEOE_VSA+2>
0.0

> <PEOE_VSA+3>
0.0

> <PEOE_VSA+4>
0.0

> <PEOE_VSA+5>
0.0

> <PEOE_VSA+6>
0.0

> <PEOE_VSA-0>
117.63971

> <PEOE_VSA-1>
54.167339

> <PEOE_VSA-2>
0.0

> <PEOE_VSA-3>
0.0

> <PEOE_VSA-4>
0.0

> <PEOE_VSA-5>
0.0

> <PEOE_VSA-6>
0.0

> <PEOE_VSA_FHYD>
1.0

> <PEOE_VSA_FNEG>
0.53683358

> <PEOE_VSA_FPNEG>
0.0

> <PEOE_VSA_FPOL>
0.0

> <PEOE_VSA_FPOS>
0.46316642

> <PEOE_VSA_FPPOS>
0.0

> <PEOE_VSA_HYD>
320.03781

> <PEOE_VSA_NEG>
171.80705

> <PEOE_VSA_PNEG>
0.0

> <PEOE_VSA_POL>
0.0

> <PEOE_VSA_POS>
148.23077

> <PEOE_VSA_PPOS>
0.0

> <petitjean>
0.5

> <petitjeanSC>
1.0

> <Q_PC+>
0

> <Q_PC->
0

> <Q_RPC+>
0

> <Q_RPC->
0

> <Q_VSA_FHYD>
1

> <Q_VSA_FNEG>
0

> <Q_VSA_FPNEG>
0

> <Q_VSA_FPOL>
0

> <Q_VSA_FPOS>
1

> <Q_VSA_FPPOS>
0

> <Q_VSA_HYD>
320.03781

> <Q_VSA_NEG>
0

> <Q_VSA_PNEG>
0

> <Q_VSA_POL>
0

> <Q_VSA_POS>
320.03781

> <Q_VSA_PPOS>
0

> <radius>
5

> <reactive>
0

> <rings>
3

> <RPC+>
0

> <RPC->
0

> <rsynth>
1.0

> <SlogP>
4.5183401

> <SlogP_VSA0>
0.0

> <SlogP_VSA1>
5.0234065

> <SlogP_VSA2>
0.0

> <SlogP_VSA3>
18.439579

> <SlogP_VSA4>
5.9423227

> <SlogP_VSA5>
103.53119

> <SlogP_VSA6>
0.0

> <SlogP_VSA7>
75.289841

> <SlogP_VSA8>
94.342026

> <SlogP_VSA9>
18.439579

> <SMR>
9.1190004

> <SMR_VSA0>
0.0

> <SMR_VSA1>
5.0234065

> <SMR_VSA2>
0.0

> <SMR_VSA3>
5.9423227

> <SMR_VSA4>
4.7171016

> <SMR_VSA5>
221.09116

> <SMR_VSA6>
18.439579

> <SMR_VSA7>
65.794373

> <TPSA>
8.1700001

> <VAdjEq>
0.48250595

> <VAdjMa>
5.523562

> <VDistEq>
3.1028109

> <VDistMa>
8.5055885

> <vdw_area>
320.03781

> <vdw_vol>
448.56119

> <vsa_acc>
0.0

> <vsa_acid>
0

> <vsa_base>
0

> <vsa_don>
0.0

> <vsa_hyd>
300.10754

> <vsa_other>
0.0

> <vsa_pol>
0.0

> <Weight>
284.44699

> <weinerPath>
900

> <weinerPol>
34

> <zagreb>
108

$$$$
Row1609
 OpenBabel06061811532D

 33 37  0  0  0  0  0  0  0  0999 V2000
    0.0000    0.0000    0.0000 O   0  0  0  0  0  0  0  0  0  0  0  0
    0.0000    0.0000    0.0000 C   0  0  0  0  0  0  0  0  0  0  0  0
    0.0000    0.0000    0.0000 N   0  0  0  0  0  0  0  0  0  0  0  0
    0.0000    0.0000    0.0000 C   0  0  0  0  0  0  0  0  0  0  0  0
    0.0000    0.0000    0.0000 C   0  0  0  0  0  0  0  0  0  0  0  0
    0.0000    0.0000    0.0000 C   0  0  0  0  0  0  0  0  0  0  0  0
    0.0000    0.0000    0.0000 C   0  0  0  0  0  0  0  0  0  0  0  0
    0.0000    0.0000    0.0000 C   0  0  0  0  0  0  0  0  0  0  0  0
    0.0000    0.0000    0.0000 C   0  0  0  0  0  0  0  0  0  0  0  0
    0.0000    0.0000    0.0000 C   0  0  0  0  0  0  0  0  0  0  0  0
    0.0000    0.0000    0.0000 C   0  0  0  0  0  0  0  0  0  0  0  0
    0.0000    0.0000    0.0000 C   0  0  0  0  0  0  0  0  0  0  0  0
    0.0000    0.0000    0.0000 C   0  0  0  0  0  0  0  0  0  0  0  0
    0.0000    0.0000    0.0000 C   0  0  0  0  0  0  0  0  0  0  0  0
    0.0000    0.0000    0.0000 C   0  0  0  0  0  0  0  0  0  0  0  0
    0.0000    0.0000    0.0000 C   0  0  0  0  0  0  0  0  0  0  0  0
    0.0000    0.0000    0.0000 C   0  0  0  0  0  0  0  0  0  0  0  0
    0.0000    0.0000    0.0000 N   0  0  0  0  0  0  0  0  0  0  0  0
    0.0000    0.0000    0.0000 N   0  0  0  0  0  0  0  0  0  0  0  0
    0.0000    0.0000    0.0000 N   0  0  0  0  0  0  0  0  0  0  0  0
    0.0000    0.0000    0.0000 H   0  0  0  0  0  0  0  0  0  0  0  0
    0.0000    0.0000    0.0000 N   0  0  0  0  0  0  0  0  0  0  0  0
    0.0000    0.0000    0.0000 C   0  0  0  0  0  0  0  0  0  0  0  0
    0.0000    0.0000    0.0000 N   0  0  0  0  0  0  0  0  0  0  0  0
    0.0000    0.0000    0.0000 C   0  0  0  0  0  0  0  0  0  0  0  0
    0.0000    0.0000    0.0000 C   0  0  0  0  0  0  0  0  0  0  0  0
    0.0000    0.0000    0.0000 C   0  0  0  0  0  0  0  0  0  0  0  0
    0.0000    0.0000    0.0000 C   0  0  0  0  0  0  0  0  0  0  0  0
    0.0000    0.0000    0.0000 C   0  0  0  0  0  0  0  0  0  0  0  0
    0.0000    0.0000    0.0000 C   0  0  0  0  0  0  0  0  0  0  0  0
    0.0000    0.0000    0.0000 C   0  0  0  0  0  0  0  0  0  0  0  0
    0.0000    0.0000    0.0000 C   0  0  0  0  0  0  0  0  0  0  0  0
    0.0000    0.0000    0.0000 C   0  0  0  0  0  0  0  0  0  0  0  0
  1  2  2  0  0  0  0
  2 25  1  0  0  0  0
  2  3  1  0  0  0  0
  3  4  1  0  0  0  0
  3 23  1  0  0  0  0
  4  5  1  0  0  0  0
  5 10  1  0  0  0  0
  5  6  2  0  0  0  0
  6  7  1  0  0  0  0
  7  8  2  0  0  0  0
  8  9  1  0  0  0  0
  8 11  1  0  0  0  0
  9 10  2  0  0  0  0
 11 16  1  0  0  0  0
 11 12  2  0  0  0  0
 12 13  1  0  0  0  0
 13 14  2  0  0  0  0
 14 15  1  0  0  0  0
 15 16  2  0  0  0  0
 16 17  1  0  0  0  0
 17 22  2  0  0  0  0
 17 18  1  0  0  0  0
 18 19  2  0  0  0  0
 19 20  1  0  0  0  0
 20 21  1  0  0  0  0
 20 22  1  0  0  0  0
 23 24  2  0  0  0  0
 23 30  1  0  0  0  0
 24 25  1  0  0  0  0
 25 29  1  0  0  0  0
 25 26  1  0  0  0  0
 26 27  1  0  0  0  0
 27 28  1  0  0  0  0
 28 29  1  0  0  0  0
 30 31  1  0  0  0  0
 31 32  1  0  0  0  0
 32 33  1  0  0  0  0
M  END
> <Index>
1610

> <ID>
HT1123

> <class>
1

> <apol>
70.072205

> <ast_fraglike>
0

> <ast_fraglike_ext>
0

> <ast_violation>
3

> <ast_violation_ext>
5

> <a_acc>
6

> <a_acid>
0

> <a_aro>
17

> <a_base>
0

> <a_count>
60

> <a_don>
2

> <a_donacc>
8

> <a_heavy>
32

> <a_hyd>
22

> <a_IC>
88.201317

> <a_ICM>
1.470022

> <a_nB>
0

> <a_nBr>
0

> <a_nC>
25

> <a_nCl>
0

> <a_nF>
0

> <a_nH>
28

> <a_nI>
0

> <a_nN>
6

> <a_nO>
1

> <a_nP>
0

> <a_nS>
0

> <balabanJ>
1.1742235

> <BCUT_PEOE_0>
-2.5901768

> <BCUT_PEOE_1>
-0.57899636

> <BCUT_PEOE_2>
0.58794361

> <BCUT_PEOE_3>
2.7944422

> <BCUT_SLOGP_0>
-2.5669563

> <BCUT_SLOGP_1>
-0.47892767

> <BCUT_SLOGP_2>
0.66396868

> <BCUT_SLOGP_3>
2.8424962

> <BCUT_SMR_0>
-2.3377254

> <BCUT_SMR_1>
-0.43868792

> <BCUT_SMR_2>
0.82688564

> <BCUT_SMR_3>
3.0367823

> <bpol>
35.527798

> <b_1rotN>
7

> <b_1rotR>
0.19444445

> <b_ar>
17

> <b_count>
64

> <b_double>
2

> <b_heavy>
36

> <b_max1len>
5

> <b_rotN>
7

> <b_rotR>
0.19444445

> <b_single>
45

> <b_triple>
0

> <chi0>
21.968044

> <chi0v>
18.419973

> <chi0v_C>
15.275657

> <chi0_C>
16.85516

> <chi1>
15.699438

> <chi1v>
11.529244

> <chi1v_C>
9.0200377

> <chi1_C>
10.968875

> <chiral>
0

> <chiral_u>
0

> <density>
0.71857244

> <diameter>
15

> <FCharge>
0

> <GCUT_PEOE_0>
-0.81206673

> <GCUT_PEOE_1>
-0.40354115

> <GCUT_PEOE_2>
0.064839907

> <GCUT_PEOE_3>
2.8616097

> <GCUT_SLOGP_0>
-0.96598172

> <GCUT_SLOGP_1>
-0.30314302

> <GCUT_SLOGP_2>
0.12197958

> <GCUT_SLOGP_3>
2.9365158

> <GCUT_SMR_0>
-0.53139472

> <GCUT_SMR_1>
-0.19459891

> <GCUT_SMR_2>
0.21359237

> <GCUT_SMR_3>
3.1249728

> <Kier1>
23.728395

> <Kier2>
10.726644

> <Kier3>
5.0347223

> <KierA1>
17.28437

> <KierA2>
7.7277451

> <KierA3>
3.5989478

> <KierFlex>
4.1740375

> <lip_acc>
7

> <lip_don>
1

> <lip_druglike>
1

> <lip_violation>
1

> <logP(o/w)>
5.513

> <logS>
-7.3140502

> <mr>
12.466624

> <mutagenic>
0

> <nmol>
1

> <opr_brigid>
27

> <opr_leadlike>
0

> <opr_nring>
5

> <opr_nrot>
8

> <opr_violation>
2

> <PC+>
0

> <PC->
0

> <PEOE_PC+>
2.08781

> <PEOE_PC->
-2.08781

> <PEOE_RPC+>
0.1229133

> <PEOE_RPC->
0.14087155

> <PEOE_VSA+0>
83.421417

> <PEOE_VSA+1>
55.846184

> <PEOE_VSA+2>
11.190562

> <PEOE_VSA+3>
0.0

> <PEOE_VSA+4>
19.809576

> <PEOE_VSA+5>
12.949531

> <PEOE_VSA+6>
0.0

> <PEOE_VSA-0>
45.889061

> <PEOE_VSA-1>
142.89085

> <PEOE_VSA-2>
18.842079

> <PEOE_VSA-3>
7.6138182

> <PEOE_VSA-4>
0.0

> <PEOE_VSA-5>
19.249496

> <PEOE_VSA-6>
0.0

> <PEOE_VSA_FHYD>
0.87548894

> <PEOE_VSA_FNEG>
0.56136906

> <PEOE_VSA_FPNEG>
0.046084218

> <PEOE_VSA_FPOL>
0.12451109

> <PEOE_VSA_FPOS>
0.43863094

> <PEOE_VSA_FPPOS>
0.078426875

> <PEOE_VSA_HYD>
365.69397

> <PEOE_VSA_NEG>
234.48531

> <PEOE_VSA_PNEG>
19.249496

> <PEOE_VSA_POL>
52.008602

> <PEOE_VSA_POS>
183.21727

> <PEOE_VSA_PPOS>
32.759106

> <petitjean>
0.46666667

> <petitjeanSC>
0.875

> <Q_PC+>
0

> <Q_PC->
0

> <Q_RPC+>
0

> <Q_RPC->
0

> <Q_VSA_FHYD>
1

> <Q_VSA_FNEG>
0

> <Q_VSA_FPNEG>
0

> <Q_VSA_FPOL>
0

> <Q_VSA_FPOS>
1

> <Q_VSA_FPPOS>
0

> <Q_VSA_HYD>
417.70258

> <Q_VSA_NEG>
0

> <Q_VSA_PNEG>
0

> <Q_VSA_POL>
0

> <Q_VSA_POS>
417.70258

> <Q_VSA_PPOS>
0

> <radius>
8

> <reactive>
0

> <rings>
5

> <RPC+>
0

> <RPC->
0

> <rsynth>
1.0

> <SlogP>
5.0437999

> <SlogP_VSA0>
0.0

> <SlogP_VSA1>
60.577518

> <SlogP_VSA2>
40.402702

> <SlogP_VSA3>
0.0

> <SlogP_VSA4>
3.185575

> <SlogP_VSA5>
16.78553

> <SlogP_VSA6>
0.0

> <SlogP_VSA7>
153.03012

> <SlogP_VSA8>
132.07884

> <SlogP_VSA9>
51.765594

> <SMR>
12.39637

> <SMR_VSA0>
23.862217

> <SMR_VSA1>
69.776344

> <SMR_VSA2>
16.540485

> <SMR_VSA3>
3.185575

> <SMR_VSA4>
11.884645

> <SMR_VSA5>
291.66388

> <SMR_VSA6>
7.5867038

> <SMR_VSA7>
33.326015

> <TPSA>
87.129997

> <VAdjEq>
0.36708876

> <VAdjMa>
6.1699252

> <VDistEq>
3.7259567

> <VDistMa>
9.6982937

> <vdw_area>
417.70258

> <vdw_vol>
596.37689

> <vsa_acc>
41.83004

> <vsa_acid>
0

> <vsa_base>
0

> <vsa_don>
0.0

> <vsa_hyd>
295.66953

> <vsa_other>
35.330658

> <vsa_pol>
64.410583

> <Weight>
428.53998

> <weinerPath>
3125

> <weinerPol>
51

> <zagreb>
174

$$$$
Row1610
 OpenBabel06061811532D

 50 56  0  0  1  0  0  0  0  0999 V2000
    0.0000    0.0000    0.0000 Cl  0  0  0  0  0  0  0  0  0  0  0  0
    0.0000    0.0000    0.0000 C   0  0  0  0  0  0  0  0  0  0  0  0
    0.0000    0.0000    0.0000 C   0  0  0  0  0  0  0  0  0  0  0  0
    0.0000    0.0000    0.0000 C   0  0  0  0  0  0  0  0  0  0  0  0
    0.0000    0.0000    0.0000 Cl  0  0  0  0  0  0  0  0  0  0  0  0
    0.0000    0.0000    0.0000 C   0  0  0  0  0  0  0  0  0  0  0  0
    0.0000    0.0000    0.0000 C   0  0  0  0  0  0  0  0  0  0  0  0
    0.0000    0.0000    0.0000 C   0  0  0  0  0  0  0  0  0  0  0  0
    0.0000    0.0000    0.0000 C   0  0  2  0  0  0  0  0  0  0  0  0
    0.0000    0.0000    0.0000 O   0  0  0  0  0  0  0  0  0  0  0  0
    0.0000    0.0000    0.0000 C   0  0  2  0  0  0  0  0  0  0  0  0
    0.0000    0.0000    0.0000 H   0  0  0  0  0  0  0  0  0  0  0  0
    0.0000    0.0000    0.0000 C   0  0  0  0  0  0  0  0  0  0  0  0
    0.0000    0.0000    0.0000 O   0  0  0  0  0  0  0  0  0  0  0  0
    0.0000    0.0000    0.0000 C   0  0  0  0  0  0  0  0  0  0  0  0
    0.0000    0.0000    0.0000 O   0  0  0  0  0  0  0  0  0  0  0  0
    0.0000    0.0000    0.0000 C   0  0  0  0  0  0  0  0  0  0  0  0
    0.0000    0.0000    0.0000 C   0  0  0  0  0  0  0  0  0  0  0  0
    0.0000    0.0000    0.0000 C   0  0  0  0  0  0  0  0  0  0  0  0
    0.0000    0.0000    0.0000 C   0  0  0  0  0  0  0  0  0  0  0  0
    0.0000    0.0000    0.0000 N   0  0  0  0  0  0  0  0  0  0  0  0
    0.0000    0.0000    0.0000 C   0  0  0  0  0  0  0  0  0  0  0  0
    0.0000    0.0000    0.0000 C   0  0  0  0  0  0  0  0  0  0  0  0
    0.0000    0.0000    0.0000 N   0  0  0  0  0  0  0  0  0  0  0  0
    0.0000    0.0000    0.0000 C   0  0  0  0  0  0  0  0  0  0  0  0
    0.0000    0.0000    0.0000 C   0  0  0  0  0  0  0  0  0  0  0  0
    0.0000    0.0000    0.0000 C   0  0  0  0  0  0  0  0  0  0  0  0
    0.0000    0.0000    0.0000 C   0  0  0  0  0  0  0  0  0  0  0  0
    0.0000    0.0000    0.0000 C   0  0  0  0  0  0  0  0  0  0  0  0
    0.0000    0.0000    0.0000 C   0  0  0  0  0  0  0  0  0  0  0  0
    0.0000    0.0000    0.0000 N   0  0  0  0  0  0  0  0  0  0  0  0
    0.0000    0.0000    0.0000 C   0  0  0  0  0  0  0  0  0  0  0  0
    0.0000    0.0000    0.0000 N   0  0  0  0  0  0  0  0  0  0  0  0
    0.0000    0.0000    0.0000 N   0  0  0  0  0  0  0  0  0  0  0  0
    0.0000    0.0000    0.0000 C   0  0  3  0  0  0  0  0  0  0  0  0
    0.0000    0.0000    0.0000 C   0  0  0  0  0  0  0  0  0  0  0  0
    0.0000    0.0000    0.0000 C   0  0  0  0  0  0  0  0  0  0  0  0
    0.0000    0.0000    0.0000 C   0  0  0  0  0  0  0  0  0  0  0  0
    0.0000    0.0000    0.0000 C   0  0  0  0  0  0  0  0  0  0  0  0
    0.0000    0.0000    0.0000 O   0  0  0  0  0  0  0  0  0  0  0  0
    0.0000    0.0000    0.0000 C   0  0  0  0  0  0  0  0  0  0  0  0
    0.0000    0.0000    0.0000 C   0  0  0  0  0  0  0  0  0  0  0  0
    0.0000    0.0000    0.0000 C   0  0  0  0  0  0  0  0  0  0  0  0
    0.0000    0.0000    0.0000 C   0  0  0  0  0  0  0  0  0  0  0  0
    0.0000    0.0000    0.0000 C   0  0  0  0  0  0  0  0  0  0  0  0
    0.0000    0.0000    0.0000 N   0  0  0  0  0  0  0  0  0  0  0  0
    0.0000    0.0000    0.0000 N   0  0  0  0  0  0  0  0  0  0  0  0
    0.0000    0.0000    0.0000 C   0  0  0  0  0  0  0  0  0  0  0  0
    0.0000    0.0000    0.0000 N   0  0  0  0  0  0  0  0  0  0  0  0
    0.0000    0.0000    0.0000 C   0  0  0  0  0  0  0  0  0  0  0  0
  1  2  1  0  0  0  0
  2  8  1  0  0  0  0
  2  3  2  0  0  0  0
  3  4  1  0  0  0  0
  4  5  1  0  0  0  0
  4  6  2  0  0  0  0
  6  7  1  0  0  0  0
  7  8  2  0  0  0  0
  8  9  1  0  0  0  0
  9 14  1  0  0  0  0
  9 10  1  0  0  0  0
  9 45  1  0  0  0  0
 10 11  1  0  0  0  0
 11 12  1  0  0  0  0
 11 13  1  0  0  0  0
 11 15  1  0  0  0  0
 13 14  1  0  0  0  0
 15 16  1  0  0  0  0
 16 17  1  0  0  0  0
 17 44  1  0  0  0  0
 17 18  2  0  0  0  0
 18 19  1  0  0  0  0
 19 20  2  0  0  0  0
 20 21  1  0  0  0  0
 20 43  1  0  0  0  0
 21 26  1  0  0  0  0
 21 22  1  0  0  0  0
 22 23  1  0  0  0  0
 23 24  1  0  0  0  0
 24 25  1  0  0  0  0
 24 27  1  0  0  0  0
 25 26  1  0  0  0  0
 27 42  1  0  0  0  0
 27 28  2  0  0  0  0
 28 29  1  0  0  0  0
 29 30  2  0  0  0  0
 30 31  1  0  0  0  0
 30 41  1  0  0  0  0
 31 39  1  0  0  0  0
 31 32  1  0  0  0  0
 32 33  2  0  0  0  0
 33 34  1  0  0  0  0
 34 35  1  0  0  0  0
 34 39  1  0  0  0  0
 35 36  1  0  0  0  0
 35 38  1  0  0  0  0
 36 37  1  0  0  0  0
 39 40  2  0  0  0  0
 41 42  2  0  0  0  0
 43 44  2  0  0  0  0
 45 46  1  0  0  0  0
 46 50  1  0  0  0  0
 46 47  1  0  0  0  0
 47 48  2  0  0  0  0
 48 49  1  0  0  0  0
 49 50  2  0  0  0  0
M  END
> <Index>
1611

> <ID>
HT1147

> <class>
1

> <apol>
103.30614

> <ast_fraglike>
0

> <ast_fraglike_ext>
0

> <ast_violation>
3

> <ast_violation_ext>
4

> <a_acc>
7

> <a_acid>
0

> <a_aro>
23

> <a_base>
0

> <a_count>
87

> <a_don>
0

> <a_donacc>
7

> <a_heavy>
49

> <a_hyd>
32

> <a_IC>
147.58994

> <a_ICM>
1.696436

> <a_nB>
0

> <a_nBr>
0

> <a_nC>
35

> <a_nCl>
2

> <a_nF>
0

> <a_nH>
38

> <a_nI>
0

> <a_nN>
8

> <a_nO>
4

> <a_nP>
0

> <a_nS>
0

> <balabanJ>
0.80673105

> <BCUT_PEOE_0>
-2.7235858

> <BCUT_PEOE_1>
-0.58645993

> <BCUT_PEOE_2>
0.59113777

> <BCUT_PEOE_3>
2.7002428

> <BCUT_SLOGP_0>
-2.8536105

> <BCUT_SLOGP_1>
-0.45912588

> <BCUT_SLOGP_2>
0.80591482

> <BCUT_SLOGP_3>
2.6955874

> <BCUT_SMR_0>
-2.4148068

> <BCUT_SMR_1>
-0.34604669

> <BCUT_SMR_2>
0.85431087

> <BCUT_SMR_3>
2.9360981

> <bpol>
60.307865

> <b_1rotN>
11

> <b_1rotR>
0.2

> <b_ar>
23

> <b_count>
93

> <b_double>
2

> <b_heavy>
55

> <b_max1len>
5

> <b_rotN>
11

> <b_rotR>
0.2

> <b_single>
68

> <b_triple>
0

> <chi0>
33.959244

> <chi0v>
28.872948

> <chi0v_C>
21.394459

> <chi0_C>
23.829851

> <chi1>
23.813633

> <chi1v>
17.16353

> <chi1v_C>
9.4935236

> <chi1_C>
11.883743

> <chiral>
3

> <chiral_u>
1

> <density>
0.78418261

> <diameter>
27

> <FCharge>
0

> <GCUT_PEOE_0>
-0.83613062

> <GCUT_PEOE_1>
-0.39788041

> <GCUT_PEOE_2>
0.029817786

> <GCUT_PEOE_3>
2.8769913

> <GCUT_SLOGP_0>
-1.0168697

> <GCUT_SLOGP_1>
-0.31104359

> <GCUT_SLOGP_2>
0.16445385

> <GCUT_SLOGP_3>
2.9389379

> <GCUT_SMR_0>
-0.52541465

> <GCUT_SMR_1>
-0.18233219

> <GCUT_SMR_2>
0.19305076

> <GCUT_SMR_3>
3.1482177

> <Kier1>
37.320992

> <Kier2>
16.989586

> <Kier3>
8.707819

> <KierA1>
29.828983

> <KierA2>
13.51236

> <KierA3>
6.9015622

> <KierFlex>
8.2257128

> <lip_acc>
12

> <lip_don>
0

> <lip_druglike>
0

> <lip_violation>
3

> <logP(o/w)>
6.1440001

> <logS>
-8.5733099

> <mr>
18.799877

> <mutagenic>
0

> <nmol>
1

> <opr_brigid>
39

> <opr_leadlike>
0

> <opr_nring>
7

> <opr_nrot>
14

> <opr_violation>
5

> <PC+>
0

> <PC->
0

> <PEOE_PC+>
3.772701

> <PEOE_PC->
-3.772701

> <PEOE_RPC+>
0.093113385

> <PEOE_RPC->
0.090667151

> <PEOE_VSA+0>
141.14287

> <PEOE_VSA+1>
133.76869

> <PEOE_VSA+2>
94.604195

> <PEOE_VSA+3>
0.0

> <PEOE_VSA+4>
1.1085443

> <PEOE_VSA+5>
0.0

> <PEOE_VSA+6>
17.440542

> <PEOE_VSA-0>
149.99803

> <PEOE_VSA-1>
90.166473

> <PEOE_VSA-2>
0.0

> <PEOE_VSA-3>
18.842079

> <PEOE_VSA-4>
19.249496

> <PEOE_VSA-5>
0.0

> <PEOE_VSA-6>
7.5112681

> <PEOE_VSA_FHYD>
0.93275797

> <PEOE_VSA_FNEG>
0.42409274

> <PEOE_VSA_FPNEG>
0.039714288

> <PEOE_VSA_FPOL>
0.067242041

> <PEOE_VSA_FPOS>
0.57590723

> <PEOE_VSA_FPPOS>
0.027527753

> <PEOE_VSA_HYD>
628.52234

> <PEOE_VSA_NEG>
285.76736

> <PEOE_VSA_PNEG>
26.760765

> <PEOE_VSA_POL>
45.309853

> <PEOE_VSA_POS>
388.06485

> <PEOE_VSA_PPOS>
18.549088

> <petitjean>
0.48148149

> <petitjeanSC>
0.9285714

> <Q_PC+>
0

> <Q_PC->
0

> <Q_RPC+>
0

> <Q_RPC->
0

> <Q_VSA_FHYD>
1

> <Q_VSA_FNEG>
0

> <Q_VSA_FPNEG>
0

> <Q_VSA_FPOL>
0

> <Q_VSA_FPOS>
1

> <Q_VSA_FPPOS>
0

> <Q_VSA_HYD>
673.83221

> <Q_VSA_NEG>
0

> <Q_VSA_PNEG>
0

> <Q_VSA_POL>
0

> <Q_VSA_POS>
673.83221

> <Q_VSA_PPOS>
0

> <radius>
14

> <reactive>
1

> <rings>
7

> <RPC+>
0

> <RPC->
0

> <rsynth>
1.0

> <SlogP>
6.8206

> <SlogP_VSA0>
20.372829

> <SlogP_VSA1>
43.056854

> <SlogP_VSA2>
49.235924

> <SlogP_VSA3>
115.61083

> <SlogP_VSA4>
3.185575

> <SlogP_VSA5>
16.663008

> <SlogP_VSA6>
7.0012131

> <SlogP_VSA7>
227.64609

> <SlogP_VSA8>
18.868406

> <SlogP_VSA9>
200.76479

> <SMR>
19.007299

> <SMR_VSA0>
45.861992

> <SMR_VSA1>
65.889793

> <SMR_VSA2>
9.372942

> <SMR_VSA3>
25.880835

> <SMR_VSA4>
8.2702427

> <SMR_VSA5>
264.95407

> <SMR_VSA6>
120.44079

> <SMR_VSA7>
161.73485

> <TPSA>
100.79

> <VAdjEq>
0.26834276

> <VAdjMa>
6.7813597

> <VDistEq>
4.5460687

> <VDistMa>
10.878242

> <vdw_area>
673.83221

> <vdw_vol>
899.85034

> <vsa_acc>
45.602844

> <vsa_acid>
0

> <vsa_base>
0

> <vsa_don>
0.0

> <vsa_hyd>
508.2605

> <vsa_other>
92.920639

> <vsa_pol>
45.602844

> <Weight>
705.64697

> <weinerPath>
12096

> <weinerPol>
81

> <zagreb>
268

$$$$
Row1611
 OpenBabel06061811532D

 73 75  0  0  1  0  0  0  0  0999 V2000
    0.0000    0.0000    0.0000 O   0  0  0  0  0  0  0  0  0  0  0  0
    0.0000    0.0000    0.0000 C   0  0  1  0  0  0  0  0  0  0  0  0
    0.0000    0.0000    0.0000 H   0  0  0  0  0  0  0  0  0  0  0  0
    0.0000    0.0000    0.0000 C   0  0  0  0  0  0  0  0  0  0  0  0
    0.0000    0.0000    0.0000 C   0  0  0  0  0  0  0  0  0  0  0  0
    0.0000    0.0000    0.0000 C   0  0  0  0  0  0  0  0  0  0  0  0
    0.0000    0.0000    0.0000 C   0  0  0  0  0  0  0  0  0  0  0  0
    0.0000    0.0000    0.0000 C   0  0  0  0  0  0  0  0  0  0  0  0
    0.0000    0.0000    0.0000 C   0  0  2  0  0  0  0  0  0  0  0  0
    0.0000    0.0000    0.0000 H   0  0  0  0  0  0  0  0  0  0  0  0
    0.0000    0.0000    0.0000 O   0  0  0  0  0  0  0  0  0  0  0  0
    0.0000    0.0000    0.0000 C   0  0  1  0  0  0  0  0  0  0  0  0
    0.0000    0.0000    0.0000 H   0  0  0  0  0  0  0  0  0  0  0  0
    0.0000    0.0000    0.0000 C   0  0  0  0  0  0  0  0  0  0  0  0
    0.0000    0.0000    0.0000 C   0  0  2  0  0  0  0  0  0  0  0  0
    0.0000    0.0000    0.0000 H   0  0  0  0  0  0  0  0  0  0  0  0
    0.0000    0.0000    0.0000 C   0  0  0  0  0  0  0  0  0  0  0  0
    0.0000    0.0000    0.0000 C   0  0  0  0  0  0  0  0  0  0  0  0
    0.0000    0.0000    0.0000 O   0  0  0  0  0  0  0  0  0  0  0  0
    0.0000    0.0000    0.0000 C   0  0  2  0  0  0  0  0  0  0  0  0
    0.0000    0.0000    0.0000 H   0  0  0  0  0  0  0  0  0  0  0  0
    0.0000    0.0000    0.0000 O   0  0  0  0  0  0  0  0  0  0  0  0
    0.0000    0.0000    0.0000 C   0  0  2  0  0  0  0  0  0  0  0  0
    0.0000    0.0000    0.0000 H   0  0  0  0  0  0  0  0  0  0  0  0
    0.0000    0.0000    0.0000 O   0  0  0  0  0  0  0  0  0  0  0  0
    0.0000    0.0000    0.0000 C   0  0  2  0  0  0  0  0  0  0  0  0
    0.0000    0.0000    0.0000 H   0  0  0  0  0  0  0  0  0  0  0  0
    0.0000    0.0000    0.0000 C   0  0  0  0  0  0  0  0  0  0  0  0
    0.0000    0.0000    0.0000 C   0  0  1  0  0  0  0  0  0  0  0  0
    0.0000    0.0000    0.0000 H   0  0  0  0  0  0  0  0  0  0  0  0
    0.0000    0.0000    0.0000 O   0  0  0  0  0  0  0  0  0  0  0  0
    0.0000    0.0000    0.0000 C   0  0  2  0  0  0  0  0  0  0  0  0
    0.0000    0.0000    0.0000 H   0  0  0  0  0  0  0  0  0  0  0  0
    0.0000    0.0000    0.0000 O   0  0  0  0  0  0  0  0  0  0  0  0
    0.0000    0.0000    0.0000 C   0  0  1  0  0  0  0  0  0  0  0  0
    0.0000    0.0000    0.0000 H   0  0  0  0  0  0  0  0  0  0  0  0
    0.0000    0.0000    0.0000 C   0  0  0  0  0  0  0  0  0  0  0  0
    0.0000    0.0000    0.0000 C   0  0  2  0  0  0  0  0  0  0  0  0
    0.0000    0.0000    0.0000 H   0  0  0  0  0  0  0  0  0  0  0  0
    0.0000    0.0000    0.0000 O   0  0  0  0  0  0  0  0  0  0  0  0
    0.0000    0.0000    0.0000 C   0  0  0  0  0  0  0  0  0  0  0  0
    0.0000    0.0000    0.0000 O   0  0  0  0  0  0  0  0  0  0  0  0
    0.0000    0.0000    0.0000 C   0  0  0  0  0  0  0  0  0  0  0  0
    0.0000    0.0000    0.0000 C   0  0  0  0  0  0  0  0  0  0  0  0
    0.0000    0.0000    0.0000 C   0  0  0  0  0  0  0  0  0  0  0  0
    0.0000    0.0000    0.0000 C   0  0  0  0  0  0  0  0  0  0  0  0
    0.0000    0.0000    0.0000 C   0  0  2  0  0  0  0  0  0  0  0  0
    0.0000    0.0000    0.0000 O   0  0  0  0  0  0  0  0  0  0  0  0
    0.0000    0.0000    0.0000 C   0  0  0  0  0  0  0  0  0  0  0  0
    0.0000    0.0000    0.0000 C   0  0  0  0  0  0  0  0  0  0  0  0
    0.0000    0.0000    0.0000 C   0  0  2  0  0  0  0  0  0  0  0  0
    0.0000    0.0000    0.0000 H   0  0  0  0  0  0  0  0  0  0  0  0
    0.0000    0.0000    0.0000 N   0  0  0  0  0  0  0  0  0  0  0  0
    0.0000    0.0000    0.0000 C   0  0  0  0  0  0  0  0  0  0  0  0
    0.0000    0.0000    0.0000 C   0  0  0  0  0  0  0  0  0  0  0  0
    0.0000    0.0000    0.0000 C   0  0  1  0  0  0  0  0  0  0  0  0
    0.0000    0.0000    0.0000 H   0  0  0  0  0  0  0  0  0  0  0  0
    0.0000    0.0000    0.0000 O   0  0  0  0  0  0  0  0  0  0  0  0
    0.0000    0.0000    0.0000 C   0  0  1  0  0  0  0  0  0  0  0  0
    0.0000    0.0000    0.0000 H   0  0  0  0  0  0  0  0  0  0  0  0
    0.0000    0.0000    0.0000 O   0  0  0  0  0  0  0  0  0  0  0  0
    0.0000    0.0000    0.0000 C   0  0  0  0  0  0  0  0  0  0  0  0
    0.0000    0.0000    0.0000 C   0  0  1  0  0  0  0  0  0  0  0  0
    0.0000    0.0000    0.0000 H   0  0  0  0  0  0  0  0  0  0  0  0
    0.0000    0.0000    0.0000 O   0  0  0  0  0  0  0  0  0  0  0  0
    0.0000    0.0000    0.0000 C   0  0  0  0  0  0  0  0  0  0  0  0
    0.0000    0.0000    0.0000 O   0  0  0  0  0  0  0  0  0  0  0  0
    0.0000    0.0000    0.0000 C   0  0  0  0  0  0  0  0  0  0  0  0
    0.0000    0.0000    0.0000 C   0  0  0  0  0  0  0  0  0  0  0  0
    0.0000    0.0000    0.0000 C   0  0  0  0  0  0  0  0  0  0  0  0
    0.0000    0.0000    0.0000 O   0  0  0  0  0  0  0  0  0  0  0  0
    0.0000    0.0000    0.0000 C   0  0  0  0  0  0  0  0  0  0  0  0
    0.0000    0.0000    0.0000 C   0  0  0  0  0  0  0  0  0  0  0  0
  1 70  1  0  0  0  0
  1  2  1  0  0  0  0
  2  3  1  0  0  0  0
  2  4  1  0  0  0  0
  2 73  1  0  0  0  0
  4  5  1  0  0  0  0
  5  6  2  3  0  0  0
  6  7  1  0  0  0  0
  7  8  2  3  0  0  0
  8  9  1  0  0  0  0
  9 10  1  0  0  0  0
  9 11  1  0  0  0  0
  9 12  1  0  0  0  0
 12 13  1  0  0  0  0
 12 14  1  0  0  0  0
 12 72  1  0  0  0  0
 14 15  1  0  0  0  0
 15 16  1  0  0  0  0
 15 17  1  0  0  0  0
 15 20  1  0  0  0  0
 17 18  1  0  0  0  0
 18 19  2  0  0  0  0
 20 21  1  0  0  0  0
 20 22  1  0  0  0  0
 20 59  1  0  0  0  0
 22 23  1  0  0  0  0
 23 24  1  0  0  0  0
 23 56  1  0  0  0  0
 23 25  1  0  0  0  0
 25 26  1  0  0  0  0
 26 27  1  0  0  0  0
 26 28  1  0  0  0  0
 26 29  1  0  0  0  0
 29 30  1  0  0  0  0
 29 31  1  0  0  0  0
 29 51  1  0  0  0  0
 31 32  1  0  0  0  0
 32 33  1  0  0  0  0
 32 49  1  0  0  0  0
 32 34  1  0  0  0  0
 34 35  1  0  0  0  0
 35 36  1  0  0  0  0
 35 37  1  0  0  0  0
 35 38  1  0  0  0  0
 38 39  1  0  0  0  0
 38 40  1  0  0  0  0
 38 47  1  0  0  0  0
 40 41  1  0  0  0  0
 41 42  2  0  0  0  0
 41 43  1  0  0  0  0
 43 44  1  0  0  0  0
 44 45  1  0  0  0  0
 44 46  1  0  0  0  0
 47 48  1  0  0  0  0
 47 49  1  0  0  0  0
 47 50  1  0  0  0  0
 51 52  1  0  0  0  0
 51 53  1  0  0  0  0
 51 56  1  0  0  0  0
 53 54  1  0  0  0  0
 53 55  1  0  0  0  0
 56 57  1  0  0  0  0
 56 58  1  0  0  0  0
 59 60  1  0  0  0  0
 59 61  1  0  0  0  0
 59 63  1  0  0  0  0
 61 62  1  0  0  0  0
 63 64  1  0  0  0  0
 63 65  1  0  0  0  0
 63 69  1  0  0  0  0
 65 66  1  0  0  0  0
 66 67  2  0  0  0  0
 66 68  1  0  0  0  0
 69 70  1  0  0  0  0
 70 71  2  0  0  0  0
M  END
> <Index>
1612

> <ID>
HT1153

> <class>
1

> <apol>
133.05872

> <ast_fraglike>
0

> <ast_fraglike_ext>
0

> <ast_violation>
3

> <ast_violation_ext>
5

> <a_acc>
13

> <a_acid>
0

> <a_aro>
0

> <a_base>
0

> <a_count>
127

> <a_don>
3

> <a_donacc>
16

> <a_heavy>
58

> <a_hyd>
36

> <a_IC>
180.99408

> <a_ICM>
1.4251502

> <a_nB>
0

> <a_nBr>
0

> <a_nC>
42

> <a_nCl>
0

> <a_nF>
0

> <a_nH>
69

> <a_nI>
0

> <a_nN>
1

> <a_nO>
15

> <a_nP>
0

> <a_nS>
0

> <balabanJ>
1.9479383

> <BCUT_PEOE_0>
-2.8117142

> <BCUT_PEOE_1>
-0.44927096

> <BCUT_PEOE_2>
0.54830277

> <BCUT_PEOE_3>
2.8379006

> <BCUT_SLOGP_0>
-2.9522791

> <BCUT_SLOGP_1>
-0.41306177

> <BCUT_SLOGP_2>
0.46739313

> <BCUT_SLOGP_3>
2.7684326

> <BCUT_SMR_0>
-2.590008

> <BCUT_SMR_1>
-0.36391556

> <BCUT_SMR_2>
0.63675237

> <BCUT_SMR_3>
3.0450945

> <bpol>
96.571281

> <b_1rotN>
12

> <b_1rotR>
0.2

> <b_ar>
0

> <b_count>
129

> <b_double>
6

> <b_heavy>
60

> <b_max1len>
4

> <b_rotN>
14

> <b_rotR>
0.23333333

> <b_single>
123

> <b_triple>
0

> <chi0>
43.482033

> <chi0v>
36.054829

> <chi0v_C>
29.366997

> <chi0_C>
30.247829

> <chi1>
27.178886

> <chi1v>
20.410759

> <chi1v_C>
13.821005

> <chi1_C>
14.766163

> <chiral>
16

> <chiral_u>
0

> <density>
0.73935324

> <diameter>
23

> <FCharge>
0

> <GCUT_PEOE_0>
-0.85206783

> <GCUT_PEOE_1>
-0.35986349

> <GCUT_PEOE_2>
0.048886985

> <GCUT_PEOE_3>
3.4173288

> <GCUT_SLOGP_0>
-0.96996385

> <GCUT_SLOGP_1>
-0.28923589

> <GCUT_SLOGP_2>
-0.008212422

> <GCUT_SLOGP_3>
3.3801074

> <GCUT_SMR_0>
-0.5334084

> <GCUT_SMR_1>
-0.19227813

> <GCUT_SMR_2>
0.12719627

> <GCUT_SMR_3>
3.6196258

> <Kier1>
52.345001

> <Kier2>
24.740761

> <Kier3>
15.946746

> <KierA1>
47.773567

> <KierA2>
22.542904

> <KierA3>
14.513669

> <KierFlex>
18.568188

> <lip_acc>
16

> <lip_don>
3

> <lip_druglike>
0

> <lip_violation>
2

> <logP(o/w)>
3.51248

> <logS>
-5.1556301

> <mr>
21.353077

> <mutagenic>
0

> <nmol>
1

> <opr_brigid>
28

> <opr_leadlike>
0

> <opr_nring>
2

> <opr_nrot>
29

> <opr_violation>
3

> <PC+>
0

> <PC->
0

> <PEOE_PC+>
5.9581642

> <PEOE_PC->
-5.9581642

> <PEOE_RPC+>
0.044477876

> <PEOE_RPC->
0.065035783

> <PEOE_VSA+0>
261.79166

> <PEOE_VSA+1>
121.67963

> <PEOE_VSA+2>
47.294914

> <PEOE_VSA+3>
22.309816

> <PEOE_VSA+4>
30.972517

> <PEOE_VSA+5>
44.125496

> <PEOE_VSA+6>
0.0

> <PEOE_VSA-0>
138.87071

> <PEOE_VSA-1>
105.26265

> <PEOE_VSA-2>
0.0

> <PEOE_VSA-3>
0.0

> <PEOE_VSA-4>
0.0

> <PEOE_VSA-5>
40.700764

> <PEOE_VSA-6>
56.89959

> <PEOE_VSA_FHYD>
0.80147505

> <PEOE_VSA_FNEG>
0.39283904

> <PEOE_VSA_FPNEG>
0.11219621

> <PEOE_VSA_FPOL>
0.19852492

> <PEOE_VSA_FPOS>
0.60716099

> <PEOE_VSA_FPPOS>
0.086328715

> <PEOE_VSA_HYD>
697.20935

> <PEOE_VSA_NEG>
341.7337

> <PEOE_VSA_PNEG>
97.600349

> <PEOE_VSA_POL>
172.69836

> <PEOE_VSA_POS>
528.17401

> <PEOE_VSA_PPOS>
75.098015

> <petitjean>
0.47826087

> <petitjeanSC>
0.91666669

> <Q_PC+>
0

> <Q_PC->
0

> <Q_RPC+>
0

> <Q_RPC->
0

> <Q_VSA_FHYD>
1

> <Q_VSA_FNEG>
0

> <Q_VSA_FPNEG>
0

> <Q_VSA_FPOL>
0

> <Q_VSA_FPOS>
1

> <Q_VSA_FPPOS>
0

> <Q_VSA_HYD>
869.90778

> <Q_VSA_NEG>
0

> <Q_VSA_PNEG>
0

> <Q_VSA_POL>
0

> <Q_VSA_POS>
869.90778

> <Q_VSA_PPOS>
0

> <radius>
12

> <reactive>
1

> <rings>
3

> <RPC+>
0

> <RPC->
0

> <rsynth>
0.63793105

> <SlogP>
3.0134001

> <SlogP_VSA0>
76.155678

> <SlogP_VSA1>
26.360706

> <SlogP_VSA2>
289.31467

> <SlogP_VSA3>
0.0

> <SlogP_VSA4>
13.232388

> <SlogP_VSA5>
101.17825

> <SlogP_VSA6>
0.0

> <SlogP_VSA7>
70.572739

> <SlogP_VSA8>
113.21043

> <SlogP_VSA9>
266.60812

> <SMR>
20.98514

> <SMR_VSA0>
183.44797

> <SMR_VSA1>
79.279991

> <SMR_VSA2>
13.232388

> <SMR_VSA3>
85.721466

> <SMR_VSA4>
0.0

> <SMR_VSA5>
183.78317

> <SMR_VSA6>
23.236393

> <SMR_VSA7>
387.93158

> <TPSA>
206.05

> <VAdjEq>
0.22208287

> <VAdjMa>
6.9068904

> <VDistEq>
4.2164636

> <VDistMa>
11.456266

> <vdw_area>
869.90778

> <vdw_vol>
1119.9059

> <vsa_acc>
66.786461

> <vsa_acid>
0

> <vsa_base>
0

> <vsa_don>
0.0

> <vsa_hyd>
594.72028

> <vsa_other>
103.11224

> <vsa_pol>
107.48723

> <Weight>
828.00598

> <weinerPath>
14434

> <weinerPol>
98

> <zagreb>
290

$$$$
Row1612
 OpenBabel06061811532D

 24 26  0  0  1  0  0  0  0  0999 V2000
    0.0000    0.0000    0.0000 O   0  0  0  0  0  0  0  0  0  0  0  0
    0.0000    0.0000    0.0000 C   0  0  0  0  0  0  0  0  0  0  0  0
    0.0000    0.0000    0.0000 N   0  0  0  0  0  0  0  0  0  0  0  0
    0.0000    0.0000    0.0000 N   0  0  0  0  0  0  0  0  0  0  0  0
    0.0000    0.0000    0.0000 C   0  0  0  0  0  0  0  0  0  0  0  0
    0.0000    0.0000    0.0000 O   0  0  0  0  0  0  0  0  0  0  0  0
    0.0000    0.0000    0.0000 C   0  0  3  0  0  0  0  0  0  0  0  0
    0.0000    0.0000    0.0000 C   0  0  0  0  0  0  0  0  0  0  0  0
    0.0000    0.0000    0.0000 C   0  0  0  0  0  0  0  0  0  0  0  0
    0.0000    0.0000    0.0000 C   0  0  0  0  0  0  0  0  0  0  0  0
    0.0000    0.0000    0.0000 O   0  0  0  0  0  0  0  0  0  0  0  0
    0.0000    0.0000    0.0000 C   0  0  0  0  0  0  0  0  0  0  0  0
    0.0000    0.0000    0.0000 C   0  0  0  0  0  0  0  0  0  0  0  0
    0.0000    0.0000    0.0000 C   0  0  0  0  0  0  0  0  0  0  0  0
    0.0000    0.0000    0.0000 C   0  0  0  0  0  0  0  0  0  0  0  0
    0.0000    0.0000    0.0000 C   0  0  0  0  0  0  0  0  0  0  0  0
    0.0000    0.0000    0.0000 C   0  0  0  0  0  0  0  0  0  0  0  0
    0.0000    0.0000    0.0000 C   0  0  0  0  0  0  0  0  0  0  0  0
    0.0000    0.0000    0.0000 C   0  0  0  0  0  0  0  0  0  0  0  0
    0.0000    0.0000    0.0000 C   0  0  0  0  0  0  0  0  0  0  0  0
    0.0000    0.0000    0.0000 C   0  0  0  0  0  0  0  0  0  0  0  0
    0.0000    0.0000    0.0000 C   0  0  0  0  0  0  0  0  0  0  0  0
    0.0000    0.0000    0.0000 C   0  0  0  0  0  0  0  0  0  0  0  0
    0.0000    0.0000    0.0000 C   0  0  0  0  0  0  0  0  0  0  0  0
  1  2  2  0  0  0  0
  2  7  1  0  0  0  0
  2  3  1  0  0  0  0
  3  4  1  0  0  0  0
  3 19  1  0  0  0  0
  4  5  1  0  0  0  0
  4 13  1  0  0  0  0
  5  6  2  0  0  0  0
  5  7  1  0  0  0  0
  7  8  1  0  0  0  0
  8  9  1  0  0  0  0
  9 10  1  0  0  0  0
 10 11  2  0  0  0  0
 10 12  1  0  0  0  0
 13 18  1  0  0  0  0
 13 14  2  0  0  0  0
 14 15  1  0  0  0  0
 15 16  2  0  0  0  0
 16 17  1  0  0  0  0
 17 18  2  0  0  0  0
 19 24  1  0  0  0  0
 19 20  2  0  0  0  0
 20 21  1  0  0  0  0
 21 22  2  0  0  0  0
 22 23  1  0  0  0  0
 23 24  2  0  0  0  0
M  END
> <Index>
1613

> <ID>
HT1156

> <class>
1

> <apol>
50.048275

> <ast_fraglike>
0

> <ast_fraglike_ext>
0

> <ast_violation>
1

> <ast_violation_ext>
2

> <a_acc>
3

> <a_acid>
0

> <a_aro>
12

> <a_base>
0

> <a_count>
42

> <a_don>
0

> <a_donacc>
3

> <a_heavy>
24

> <a_hyd>
16

> <a_IC>
63.953171

> <a_ICM>
1.5226946

> <a_nB>
0

> <a_nBr>
0

> <a_nC>
19

> <a_nCl>
0

> <a_nF>
0

> <a_nH>
18

> <a_nI>
0

> <a_nN>
2

> <a_nO>
3

> <a_nP>
0

> <a_nS>
0

> <balabanJ>
1.7773119

> <BCUT_PEOE_0>
-2.4966919

> <BCUT_PEOE_1>
-0.6093117

> <BCUT_PEOE_2>
0.62992358

> <BCUT_PEOE_3>
2.6710479

> <BCUT_SLOGP_0>
-2.5227234

> <BCUT_SLOGP_1>
-0.53807992

> <BCUT_SLOGP_2>
0.71576506

> <BCUT_SLOGP_3>
2.625859

> <BCUT_SMR_0>
-2.2852955

> <BCUT_SMR_1>
-0.40785593

> <BCUT_SMR_2>
0.77827513

> <BCUT_SMR_3>
2.9233453

> <bpol>
25.191727

> <b_1rotN>
5

> <b_1rotR>
0.1923077

> <b_ar>
12

> <b_count>
44

> <b_double>
3

> <b_heavy>
26

> <b_max1len>
6

> <b_rotN>
5

> <b_rotR>
0.1923077

> <b_single>
29

> <b_triple>
0

> <chi0>
17.104084

> <chi0v>
13.384238

> <chi0v_C>
11.265066

> <chi0_C>
12.949383

> <chi1>
11.592224

> <chi1v>
7.8673186

> <chi1v_C>
6.1605191

> <chi1_C>
8.1935062

> <chiral>
0

> <chiral_u>
0

> <density>
0.73350865

> <diameter>
10

> <FCharge>
0

> <GCUT_PEOE_0>
-0.83111084

> <GCUT_PEOE_1>
-0.39292589

> <GCUT_PEOE_2>
0.067291602

> <GCUT_PEOE_3>
2.6535144

> <GCUT_SLOGP_0>
-1.067979

> <GCUT_SLOGP_1>
-0.33465093

> <GCUT_SLOGP_2>
0.14348464

> <GCUT_SLOGP_3>
2.6865251

> <GCUT_SMR_0>
-0.51320112

> <GCUT_SMR_1>
-0.21734707

> <GCUT_SMR_2>
0.19305076

> <GCUT_SMR_3>
2.9334917

> <Kier1>
18.781065

> <Kier2>
8.5895061

> <Kier3>
4.2332363

> <KierA1>
12.796521

> <KierA2>
5.7457776

> <KierA3>
2.7943556

> <KierFlex>
3.0635819

> <lip_acc>
5

> <lip_don>
0

> <lip_druglike>
1

> <lip_violation>
0

> <logP(o/w)>
2.448

> <logS>
-3.81106

> <mr>
9.2104902

> <mutagenic>
0

> <nmol>
1

> <opr_brigid>
17

> <opr_leadlike>
1

> <opr_nring>
3

> <opr_nrot>
5

> <opr_violation>
0

> <PC+>
0

> <PC->
0

> <PEOE_PC+>
1.8028039

> <PEOE_PC->
-1.8028039

> <PEOE_RPC+>
0.14366929

> <PEOE_RPC->
0.16513345

> <PEOE_VSA+0>
42.824402

> <PEOE_VSA+1>
56.052963

> <PEOE_VSA+2>
8.458519

> <PEOE_VSA+3>
0.0

> <PEOE_VSA+4>
0.0

> <PEOE_VSA+5>
25.899061

> <PEOE_VSA+6>
0.0

> <PEOE_VSA-0>
76.468605

> <PEOE_VSA-1>
73.529427

> <PEOE_VSA-2>
0.0

> <PEOE_VSA-3>
0.0

> <PEOE_VSA-4>
0.0

> <PEOE_VSA-5>
40.700764

> <PEOE_VSA-6>
0.0

> <PEOE_VSA_FHYD>
0.79440296

> <PEOE_VSA_FNEG>
0.5886969

> <PEOE_VSA_FPNEG>
0.12564534

> <PEOE_VSA_FPOL>
0.20559706

> <PEOE_VSA_FPOS>
0.41130307

> <PEOE_VSA_FPPOS>
0.079951726

> <PEOE_VSA_HYD>
257.33392

> <PEOE_VSA_NEG>
190.69879

> <PEOE_VSA_PNEG>
40.700764

> <PEOE_VSA_POL>
66.599823

> <PEOE_VSA_POS>
133.23494

> <PEOE_VSA_PPOS>
25.899061

> <petitjean>
0.40000001

> <petitjeanSC>
0.66666669

> <Q_PC+>
0

> <Q_PC->
0

> <Q_RPC+>
0

> <Q_RPC->
0

> <Q_VSA_FHYD>
1

> <Q_VSA_FNEG>
0

> <Q_VSA_FPNEG>
0

> <Q_VSA_FPOL>
0

> <Q_VSA_FPOS>
1

> <Q_VSA_FPPOS>
0

> <Q_VSA_HYD>
323.93375

> <Q_VSA_NEG>
0

> <Q_VSA_PNEG>
0

> <Q_VSA_POL>
0

> <Q_VSA_POS>
323.93375

> <Q_VSA_PPOS>
0

> <radius>
6

> <reactive>
1

> <rings>
3

> <RPC+>
0

> <RPC->
0

> <rsynth>
1.0

> <SlogP>
2.9668

> <SlogP_VSA0>
6.0035834

> <SlogP_VSA1>
16.205177

> <SlogP_VSA2>
71.586647

> <SlogP_VSA3>
0.0

> <SlogP_VSA4>
4.4107962

> <SlogP_VSA5>
0.0

> <SlogP_VSA6>
0.0

> <SlogP_VSA7>
176.43184

> <SlogP_VSA8>
37.736813

> <SlogP_VSA9>
38.839512

> <SMR>
9.1260996

> <SMR_VSA0>
71.586647

> <SMR_VSA1>
0.0

> <SMR_VSA2>
10.41438

> <SMR_VSA3>
0.0

> <SMR_VSA4>
5.513495

> <SMR_VSA5>
214.16866

> <SMR_VSA6>
16.205177

> <SMR_VSA7>
33.326015

> <TPSA>
57.689999

> <VAdjEq>
0.43739632

> <VAdjMa>
5.7004399

> <VDistEq>
3.1413841

> <VDistMa>
8.9155006

> <vdw_area>
323.93375

> <vdw_vol>
439.48218

> <vsa_acc>
40.700764

> <vsa_acid>
0

> <vsa_base>
0

> <vsa_don>
0.0

> <vsa_hyd>
234.71803

> <vsa_other>
34.357582

> <vsa_pol>
40.700764

> <Weight>
322.36398

> <weinerPath>
1257

> <weinerPol>
38

> <zagreb>
124

$$$$
Row1613
 OpenBabel06061811532D

 19 20  0  0  1  0  0  0  0  0999 V2000
    0.0000    0.0000    0.0000 O   0  0  0  0  0  0  0  0  0  0  0  0
    0.0000    0.0000    0.0000 C   0  0  0  0  0  0  0  0  0  0  0  0
    0.0000    0.0000    0.0000 O   0  0  0  0  0  0  0  0  0  0  0  0
    0.0000    0.0000    0.0000 C   0  0  3  0  0  0  0  0  0  0  0  0
    0.0000    0.0000    0.0000 C   0  0  0  0  0  0  0  0  0  0  0  0
    0.0000    0.0000    0.0000 C   0  0  0  0  0  0  0  0  0  0  0  0
    0.0000    0.0000    0.0000 C   0  0  0  0  0  0  0  0  0  0  0  0
    0.0000    0.0000    0.0000 C   0  0  0  0  0  0  0  0  0  0  0  0
    0.0000    0.0000    0.0000 C   0  0  0  0  0  0  0  0  0  0  0  0
    0.0000    0.0000    0.0000 C   0  0  0  0  0  0  0  0  0  0  0  0
    0.0000    0.0000    0.0000 C   0  0  0  0  0  0  0  0  0  0  0  0
    0.0000    0.0000    0.0000 C   0  0  0  0  0  0  0  0  0  0  0  0
    0.0000    0.0000    0.0000 O   0  0  0  0  0  0  0  0  0  0  0  0
    0.0000    0.0000    0.0000 C   0  0  0  0  0  0  0  0  0  0  0  0
    0.0000    0.0000    0.0000 C   0  0  0  0  0  0  0  0  0  0  0  0
    0.0000    0.0000    0.0000 C   0  0  0  0  0  0  0  0  0  0  0  0
    0.0000    0.0000    0.0000 C   0  0  0  0  0  0  0  0  0  0  0  0
    0.0000    0.0000    0.0000 C   0  0  0  0  0  0  0  0  0  0  0  0
    0.0000    0.0000    0.0000 C   0  0  0  0  0  0  0  0  0  0  0  0
  1  2  1  0  0  0  0
  2  3  2  0  0  0  0
  2  4  1  0  0  0  0
  4  5  1  0  0  0  0
  4  6  1  0  0  0  0
  6 11  1  0  0  0  0
  6  7  2  0  0  0  0
  7  8  1  0  0  0  0
  8  9  2  0  0  0  0
  8 12  1  0  0  0  0
  9 10  1  0  0  0  0
 10 11  2  0  0  0  0
 12 13  2  0  0  0  0
 12 14  1  0  0  0  0
 14 19  1  0  0  0  0
 14 15  2  0  0  0  0
 15 16  1  0  0  0  0
 16 17  2  0  0  0  0
 17 18  1  0  0  0  0
 18 19  2  0  0  0  0
M  END
> <Index>
1614

> <ID>
HT1160

> <class>
1

> <apol>
39.9011

> <ast_fraglike>
0

> <ast_fraglike_ext>
0

> <ast_violation>
1

> <ast_violation_ext>
2

> <a_acc>
3

> <a_acid>
0

> <a_aro>
12

> <a_base>
0

> <a_count>
33

> <a_don>
2

> <a_donacc>
5

> <a_heavy>
19

> <a_hyd>
14

> <a_IC>
44.40715

> <a_ICM>
1.3456712

> <a_nB>
0

> <a_nBr>
0

> <a_nC>
16

> <a_nCl>
0

> <a_nF>
0

> <a_nH>
14

> <a_nI>
0

> <a_nN>
0

> <a_nO>
3

> <a_nP>
0

> <a_nS>
0

> <balabanJ>
1.8972659

> <BCUT_PEOE_0>
-2.4249463

> <BCUT_PEOE_1>
-0.60612863

> <BCUT_PEOE_2>
0.65981942

> <BCUT_PEOE_3>
2.4727926

> <BCUT_SLOGP_0>
-2.3845711

> <BCUT_SLOGP_1>
-0.50524217

> <BCUT_SLOGP_2>
0.76163197

> <BCUT_SLOGP_3>
2.5369732

> <BCUT_SMR_0>
-2.1821094

> <BCUT_SMR_1>
-0.4625921

> <BCUT_SMR_2>
0.80882204

> <BCUT_SMR_3>
2.7221205

> <bpol>
17.220898

> <b_1rotN>
4

> <b_1rotR>
0.2

> <b_ar>
12

> <b_count>
34

> <b_double>
2

> <b_heavy>
20

> <b_max1len>
3

> <b_rotN>
4

> <b_rotR>
0.2

> <b_single>
20

> <b_triple>
0

> <chi0>
13.828063

> <chi0v>
10.537213

> <chi0v_C>
9.2735023

> <chi0_C>
10.828063

> <chi1>
9.0922241

> <chi1v>
6.0186067

> <chi1v_C>
5.3867512

> <chi1_C>
7.3601732

> <chiral>
1

> <chiral_u>
1

> <density>
0.72149789

> <diameter>
10

> <FCharge>
0

> <GCUT_PEOE_0>
-0.75086969

> <GCUT_PEOE_1>
-0.40940154

> <GCUT_PEOE_2>
0.073901638

> <GCUT_PEOE_3>
2.4187403

> <GCUT_SLOGP_0>
-0.87408149

> <GCUT_SLOGP_1>
-0.29445753

> <GCUT_SLOGP_2>
0.15569733

> <GCUT_SLOGP_3>
2.5132716

> <GCUT_SMR_0>
-0.50061882

> <GCUT_SMR_1>
-0.22131573

> <GCUT_SMR_2>
0.18664676

> <GCUT_SMR_3>
2.705291

> <Kier1>
15.39

> <Kier2>
7.1358023

> <Kier3>
3.9861591

> <KierA1>
10.563126

> <KierA2>
4.7851486

> <KierA3>
2.6246386

> <KierFlex>
2.6603227

> <lip_acc>
3

> <lip_don>
1

> <lip_druglike>
1

> <lip_violation>
0

> <logP(o/w)>
3.5929999

> <logS>
-3.69033

> <mr>
7.40975

> <mutagenic>
0

> <nmol>
1

> <opr_brigid>
12

> <opr_leadlike>
1

> <opr_nring>
2

> <opr_nrot>
4

> <opr_violation>
0

> <PC+>
0

> <PC->
0

> <PEOE_PC+>
1.4678659

> <PEOE_PC->
-1.4678659

> <PEOE_RPC+>
0.18175751

> <PEOE_RPC->
0.22537428

> <PEOE_VSA+0>
21.478622

> <PEOE_VSA+1>
38.388474

> <PEOE_VSA+2>
0.0

> <PEOE_VSA+3>
8.458519

> <PEOE_VSA+4>
10.324173

> <PEOE_VSA+5>
14.708499

> <PEOE_VSA+6>
0.0

> <PEOE_VSA-0>
33.211121

> <PEOE_VSA-1>
98.03923

> <PEOE_VSA-2>
0.0

> <PEOE_VSA-3>
0.0

> <PEOE_VSA-4>
0.0

> <PEOE_VSA-5>
27.133842

> <PEOE_VSA-6>
7.7675405

> <PEOE_VSA_FHYD>
0.76904917

> <PEOE_VSA_FNEG>
0.6402517

> <PEOE_VSA_FPNEG>
0.13448954

> <PEOE_VSA_FPOL>
0.23095082

> <PEOE_VSA_FPOS>
0.3597483

> <PEOE_VSA_FPPOS>
0.096461289

> <PEOE_VSA_HYD>
199.57597

> <PEOE_VSA_NEG>
166.15173

> <PEOE_VSA_PNEG>
34.901382

> <PEOE_VSA_POL>
59.934055

> <PEOE_VSA_POS>
93.358292

> <PEOE_VSA_PPOS>
25.032671

> <petitjean>
0.5

> <petitjeanSC>
1.0

> <Q_PC+>
0

> <Q_PC->
0

> <Q_RPC+>
0

> <Q_RPC->
0

> <Q_VSA_FHYD>
1

> <Q_VSA_FNEG>
0

> <Q_VSA_FPNEG>
0

> <Q_VSA_FPOL>
0

> <Q_VSA_FPOS>
1

> <Q_VSA_FPPOS>
0

> <Q_VSA_HYD>
259.51001

> <Q_VSA_NEG>
0

> <Q_VSA_PNEG>
0

> <Q_VSA_POL>
0

> <Q_VSA_POS>
259.51001

> <Q_VSA_PPOS>
0

> <radius>
5

> <reactive>
1

> <rings>
2

> <RPC+>
0

> <RPC->
0

> <rsynth>
1.0

> <SlogP>
3.1057

> <SlogP_VSA0>
0.0

> <SlogP_VSA1>
13.433075

> <SlogP_VSA2>
23.862217

> <SlogP_VSA3>
25.385227

> <SlogP_VSA4>
33.418941

> <SlogP_VSA5>
0.0

> <SlogP_VSA6>
4.4107962

> <SlogP_VSA7>
158.78867

> <SlogP_VSA8>
0.0

> <SlogP_VSA9>
33.326015

> <SMR>
7.2367301

> <SMR_VSA0>
47.724434

> <SMR_VSA1>
0.0

> <SMR_VSA2>
25.385227

> <SMR_VSA3>
13.967521

> <SMR_VSA4>
0.0

> <SMR_VSA5>
158.78867

> <SMR_VSA6>
13.433075

> <SMR_VSA7>
33.326015

> <TPSA>
54.369999

> <VAdjEq>
0.5023343

> <VAdjMa>
5.321928

> <VDistEq>
3.1098776

> <VDistMa>
8.1981049

> <vdw_area>
259.51001

> <vdw_vol>
352.4404

> <vsa_acc>
13.566921

> <vsa_acid>
0

> <vsa_base>
0

> <vsa_don>
0.0

> <vsa_hyd>
180.51906

> <vsa_other>
23.167019

> <vsa_pol>
40.700764

> <Weight>
254.28499

> <weinerPath>
724

> <weinerPol>
28

> <zagreb>
94

$$$$
Row1614
 OpenBabel06061811532D

 19 21  0  0  1  0  0  0  0  0999 V2000
    0.0000    0.0000    0.0000 O   0  0  0  0  0  0  0  0  0  0  0  0
    0.0000    0.0000    0.0000 C   0  0  0  0  0  0  0  0  0  0  0  0
    0.0000    0.0000    0.0000 O   0  0  0  0  0  0  0  0  0  0  0  0
    0.0000    0.0000    0.0000 C   0  0  3  0  0  0  0  0  0  0  0  0
    0.0000    0.0000    0.0000 C   0  0  0  0  0  0  0  0  0  0  0  0
    0.0000    0.0000    0.0000 C   0  0  0  0  0  0  0  0  0  0  0  0
    0.0000    0.0000    0.0000 N   0  0  0  0  0  0  0  0  0  0  0  0
    0.0000    0.0000    0.0000 C   0  0  0  0  0  0  0  0  0  0  0  0
    0.0000    0.0000    0.0000 C   0  0  0  0  0  0  0  0  0  0  0  0
    0.0000    0.0000    0.0000 C   0  0  0  0  0  0  0  0  0  0  0  0
    0.0000    0.0000    0.0000 C   0  0  0  0  0  0  0  0  0  0  0  0
    0.0000    0.0000    0.0000 C   0  0  0  0  0  0  0  0  0  0  0  0
    0.0000    0.0000    0.0000 O   0  0  0  0  0  0  0  0  0  0  0  0
    0.0000    0.0000    0.0000 C   0  0  0  0  0  0  0  0  0  0  0  0
    0.0000    0.0000    0.0000 C   0  0  0  0  0  0  0  0  0  0  0  0
    0.0000    0.0000    0.0000 C   0  0  0  0  0  0  0  0  0  0  0  0
    0.0000    0.0000    0.0000 C   0  0  0  0  0  0  0  0  0  0  0  0
    0.0000    0.0000    0.0000 C   0  0  0  0  0  0  0  0  0  0  0  0
    0.0000    0.0000    0.0000 C   0  0  0  0  0  0  0  0  0  0  0  0
  1  2  1  0  0  0  0
  2  3  2  0  0  0  0
  2  4  1  0  0  0  0
  4  8  1  0  0  0  0
  4  5  1  0  0  0  0
  5  6  1  0  0  0  0
  6  7  1  0  0  0  0
  7 11  1  0  0  0  0
  7  8  1  0  0  0  0
  8  9  2  0  0  0  0
  9 10  1  0  0  0  0
 10 11  2  0  0  0  0
 11 12  1  0  0  0  0
 12 13  2  0  0  0  0
 12 14  1  0  0  0  0
 14 19  1  0  0  0  0
 14 15  2  0  0  0  0
 15 16  1  0  0  0  0
 16 17  2  0  0  0  0
 17 18  1  0  0  0  0
 18 19  2  0  0  0  0
M  END
> <Index>
1615

> <ID>
HT1161

> <class>
1

> <apol>
38.57431

> <ast_fraglike>
1

> <ast_fraglike_ext>
1

> <ast_violation>
0

> <ast_violation_ext>
0

> <a_acc>
3

> <a_acid>
0

> <a_aro>
11

> <a_base>
0

> <a_count>
32

> <a_don>
2

> <a_donacc>
5

> <a_heavy>
19

> <a_hyd>
13

> <a_IC>
48.536037

> <a_ICM>
1.5167512

> <a_nB>
0

> <a_nBr>
0

> <a_nC>
15

> <a_nCl>
0

> <a_nF>
0

> <a_nH>
13

> <a_nI>
0

> <a_nN>
1

> <a_nO>
3

> <a_nP>
0

> <a_nS>
0

> <balabanJ>
1.6425577

> <BCUT_PEOE_0>
-2.4407306

> <BCUT_PEOE_1>
-0.60806501

> <BCUT_PEOE_2>
0.66246426

> <BCUT_PEOE_3>
2.6376369

> <BCUT_SLOGP_0>
-2.3874328

> <BCUT_SLOGP_1>
-0.51115513

> <BCUT_SLOGP_2>
0.76381963

> <BCUT_SLOGP_3>
2.7134168

> <BCUT_SMR_0>
-2.2228944

> <BCUT_SMR_1>
-0.46208611

> <BCUT_SMR_2>
0.82264268

> <BCUT_SMR_3>
2.8866825

> <bpol>
18.107691

> <b_1rotN>
3

> <b_1rotR>
0.14285715

> <b_ar>
11

> <b_count>
34

> <b_double>
2

> <b_heavy>
21

> <b_max1len>
2

> <b_rotN>
3

> <b_rotR>
0.14285715

> <b_single>
21

> <b_triple>
0

> <chi0>
13.405413

> <chi0v>
10.243939

> <chi0v_C>
8.5330153

> <chi0_C>
9.828063

> <chi1>
9.1815405

> <chi1v>
6.2022624

> <chi1v_C>
4.8069658

> <chi1_C>
6.3745747

> <chiral>
1

> <chiral_u>
1

> <density>
0.75542492

> <diameter>
10

> <FCharge>
0

> <GCUT_PEOE_0>
-0.8651253

> <GCUT_PEOE_1>
-0.4238171

> <GCUT_PEOE_2>
0.07717827

> <GCUT_PEOE_3>
2.5360582

> <GCUT_SLOGP_0>
-0.87406033

> <GCUT_SLOGP_1>
-0.32245907

> <GCUT_SLOGP_2>
0.15564252

> <GCUT_SLOGP_3>
2.6044226

> <GCUT_SMR_0>
-0.51789874

> <GCUT_SMR_1>
-0.22419831

> <GCUT_SMR_2>
0.21690713

> <GCUT_SMR_3>
2.8085206

> <Kier1>
13.959184

> <Kier2>
5.7800002

> <Kier3>
2.6122448

> <KierA1>
9.7420406

> <KierA2>
3.9454167

> <KierA3>
1.7523443

> <KierFlex>
2.0229688

> <lip_acc>
4

> <lip_don>
1

> <lip_druglike>
1

> <lip_violation>
0

> <logP(o/w)>
2.3800001

> <logS>
-2.3568001

> <mr>
7.1399813

> <mutagenic>
0

> <nmol>
1

> <opr_brigid>
15

> <opr_leadlike>
1

> <opr_nring>
3

> <opr_nrot>
3

> <opr_violation>
0

> <PC+>
0

> <PC->
0

> <PEOE_PC+>
1.5963289

> <PEOE_PC->
-1.5963289

> <PEOE_RPC+>
0.16823882

> <PEOE_RPC->
0.213305

> <PEOE_VSA+0>
43.427345

> <PEOE_VSA+1>
36.557255

> <PEOE_VSA+2>
0.0

> <PEOE_VSA+3>
0.0

> <PEOE_VSA+4>
18.782692

> <PEOE_VSA+5>
14.708499

> <PEOE_VSA+6>
0.0

> <PEOE_VSA-0>
33.211121

> <PEOE_VSA-1>
61.274521

> <PEOE_VSA-2>
0.0

> <PEOE_VSA-3>
0.0

> <PEOE_VSA-4>
0.0

> <PEOE_VSA-5>
27.133842

> <PEOE_VSA-6>
7.7675405

> <PEOE_VSA_FHYD>
0.71839011

> <PEOE_VSA_FNEG>
0.53275764

> <PEOE_VSA_FPNEG>
0.14370821

> <PEOE_VSA_FPOL>
0.28160989

> <PEOE_VSA_FPOS>
0.46724233

> <PEOE_VSA_FPPOS>
0.13790168

> <PEOE_VSA_HYD>
174.47025

> <PEOE_VSA_NEG>
129.38702

> <PEOE_VSA_PNEG>
34.901382

> <PEOE_VSA_POL>
68.39257

> <PEOE_VSA_POS>
113.47579

> <PEOE_VSA_PPOS>
33.491192

> <petitjean>
0.5

> <petitjeanSC>
1.0

> <Q_PC+>
0

> <Q_PC->
0

> <Q_RPC+>
0

> <Q_RPC->
0

> <Q_VSA_FHYD>
1

> <Q_VSA_FNEG>
0

> <Q_VSA_FPNEG>
0

> <Q_VSA_FPOL>
0

> <Q_VSA_FPOS>
1

> <Q_VSA_FPPOS>
0

> <Q_VSA_HYD>
242.86281

> <Q_VSA_NEG>
0

> <Q_VSA_PNEG>
0

> <Q_VSA_POL>
0

> <Q_VSA_POS>
242.86281

> <Q_VSA_PPOS>
0

> <radius>
5

> <reactive>
1

> <rings>
3

> <RPC+>
0

> <RPC->
0

> <rsynth>
1.0

> <SlogP>
2.5574

> <SlogP_VSA0>
0.0

> <SlogP_VSA1>
15.332168

> <SlogP_VSA2>
23.862217

> <SlogP_VSA3>
25.385227

> <SlogP_VSA4>
32.561287

> <SlogP_VSA5>
0.0

> <SlogP_VSA6>
4.4107962

> <SlogP_VSA7>
123.50229

> <SlogP_VSA8>
18.868406

> <SlogP_VSA9>
18.439579

> <SMR>
6.9505301

> <SMR_VSA0>
47.724434

> <SMR_VSA1>
1.8990928

> <SMR_VSA2>
25.385227

> <SMR_VSA3>
13.109866

> <SMR_VSA4>
0.0

> <SMR_VSA5>
160.81027

> <SMR_VSA6>
13.433075

> <SMR_VSA7>
0.0

> <TPSA>
59.299999

> <VAdjEq>
0.51875818

> <VAdjMa>
5.3923173

> <VDistEq>
3.0640965

> <VDistMa>
8.1937027

> <vdw_area>
242.86281

> <vdw_vol>
337.91974

> <vsa_acc>
13.566921

> <vsa_acid>
0

> <vsa_base>
0

> <vsa_don>
0.0

> <vsa_hyd>
164.58365

> <vsa_other>
23.167019

> <vsa_pol>
40.700764

> <Weight>
255.27299

> <weinerPath>
693

> <weinerPol>
29

> <zagreb>
102

$$$$
Row1615
 OpenBabel06061811532D

 22 25  0  0  0  0  0  0  0  0999 V2000
    0.0000    0.0000    0.0000 S   0  0  0  0  0  0  0  0  0  0  0  0
    0.0000    0.0000    0.0000 C   0  0  0  0  0  0  0  0  0  0  0  0
    0.0000    0.0000    0.0000 C   0  0  0  0  0  0  0  0  0  0  0  0
    0.0000    0.0000    0.0000 C   0  0  0  0  0  0  0  0  0  0  0  0
    0.0000    0.0000    0.0000 C   0  0  0  0  0  0  0  0  0  0  0  0
    0.0000    0.0000    0.0000 C   0  0  0  0  0  0  0  0  0  0  0  0
    0.0000    0.0000    0.0000 C   0  0  0  0  0  0  0  0  0  0  0  0
    0.0000    0.0000    0.0000 C   0  0  0  0  0  0  0  0  0  0  0  0
    0.0000    0.0000    0.0000 C   0  0  0  0  0  0  0  0  0  0  0  0
    0.0000    0.0000    0.0000 C   0  0  0  0  0  0  0  0  0  0  0  0
    0.0000    0.0000    0.0000 O   0  0  0  0  0  0  0  0  0  0  0  0
    0.0000    0.0000    0.0000 C   0  0  0  0  0  0  0  0  0  0  0  0
    0.0000    0.0000    0.0000 C   0  0  0  0  0  0  0  0  0  0  0  0
    0.0000    0.0000    0.0000 C   0  0  0  0  0  0  0  0  0  0  0  0
    0.0000    0.0000    0.0000 C   0  0  0  0  0  0  0  0  0  0  0  0
    0.0000    0.0000    0.0000 C   0  0  0  0  0  0  0  0  0  0  0  0
    0.0000    0.0000    0.0000 C   0  0  0  0  0  0  0  0  0  0  0  0
    0.0000    0.0000    0.0000 C   0  0  0  0  0  0  0  0  0  0  0  0
    0.0000    0.0000    0.0000 N   0  0  0  0  0  0  0  0  0  0  0  0
    0.0000    0.0000    0.0000 C   0  0  0  0  0  0  0  0  0  0  0  0
    0.0000    0.0000    0.0000 C   0  0  0  0  0  0  0  0  0  0  0  0
    0.0000    0.0000    0.0000 C   0  0  0  0  0  0  0  0  0  0  0  0
  1  5  1  0  0  0  0
  1  2  1  0  0  0  0
  2 10  1  0  0  0  0
  2  3  2  0  0  0  0
  3  4  1  0  0  0  0
  3  6  1  0  0  0  0
  4  5  2  0  0  0  0
  6  7  1  0  0  0  0
  6 16  2  0  0  0  0
  7 15  1  0  0  0  0
  7  8  2  0  0  0  0
  8  9  1  0  0  0  0
  8 12  1  0  0  0  0
  9 10  1  0  0  0  0
 10 11  2  0  0  0  0
 12 13  2  0  0  0  0
 13 14  1  0  0  0  0
 14 15  2  0  0  0  0
 16 21  1  0  0  0  0
 16 17  1  0  0  0  0
 17 18  1  0  0  0  0
 18 19  1  0  0  0  0
 19 20  1  0  0  0  0
 19 22  1  0  0  0  0
 20 21  1  0  0  0  0
M  END
> <Index>
1616

> <ID>
HT1162

> <class>
1

> <apol>
50.911068

> <ast_fraglike>
0

> <ast_fraglike_ext>
0

> <ast_violation>
2

> <ast_violation_ext>
2

> <a_acc>
2

> <a_acid>
0

> <a_aro>
11

> <a_base>
0

> <a_count>
41

> <a_don>
0

> <a_donacc>
2

> <a_heavy>
22

> <a_hyd>
19

> <a_IC>
58.238388

> <a_ICM>
1.4204484

> <a_nB>
0

> <a_nBr>
0

> <a_nC>
19

> <a_nCl>
0

> <a_nF>
0

> <a_nH>
19

> <a_nI>
0

> <a_nN>
1

> <a_nO>
1

> <a_nP>
0

> <a_nS>
1

> <balabanJ>
1.6171029

> <BCUT_PEOE_0>
-2.7191765

> <BCUT_PEOE_1>
-0.50270641

> <BCUT_PEOE_2>
0.50963324

> <BCUT_PEOE_3>
2.6300442

> <BCUT_SLOGP_0>
-2.7418594

> <BCUT_SLOGP_1>
-0.37665698

> <BCUT_SLOGP_2>
0.62953067

> <BCUT_SLOGP_3>
2.6669681

> <BCUT_SMR_0>
-2.4354918

> <BCUT_SMR_1>
-0.33353934

> <BCUT_SMR_2>
0.69465268

> <BCUT_SMR_3>
2.9111195

> <bpol>
25.988934

> <b_1rotN>
0

> <b_1rotR>
0.0

> <b_ar>
11

> <b_count>
44

> <b_double>
2

> <b_heavy>
25

> <b_max1len>
2

> <b_rotN>
0

> <b_rotR>
0.0

> <b_single>
31

> <b_triple>
0

> <chi0>
15.104083

> <chi0v>
13.579843

> <chi0v_C>
11.499636

> <chi0_C>
12.819627

> <chi1>
10.737184

> <chi1v>
8.7168446

> <chi1v_C>
6.1135721

> <chi1_C>
7.857738

> <chiral>
0

> <chiral_u>
0

> <density>
0.72209609

> <diameter>
9

> <FCharge>
0

> <GCUT_PEOE_0>
-0.85854566

> <GCUT_PEOE_1>
-0.38049778

> <GCUT_PEOE_2>
0.030198121

> <GCUT_PEOE_3>
2.7593668

> <GCUT_SLOGP_0>
-0.95211917

> <GCUT_SLOGP_1>
-0.27603817

> <GCUT_SLOGP_2>
0.14251888

> <GCUT_SLOGP_3>
2.8577116

> <GCUT_SMR_0>
-0.51361728

> <GCUT_SMR_1>
-0.17626213

> <GCUT_SMR_2>
0.18936756

> <GCUT_SMR_3>
3.0533137

> <Kier1>
15.5232

> <Kier2>
6.4814816

> <Kier3>
2.9219532

> <KierA1>
12.738335

> <KierA2>
5.2653627

> <KierA3>
2.3564055

> <KierFlex>
3.0487251

> <lip_acc>
2

> <lip_don>
0

> <lip_druglike>
1

> <lip_violation>
0

> <logP(o/w)>
3.3380001

> <logS>
-3.75736

> <mr>
9.2297039

> <mutagenic>
0

> <nmol>
1

> <opr_brigid>
23

> <opr_leadlike>
1

> <opr_nring>
4

> <opr_nrot>
2

> <opr_violation>
0

> <PC+>
0

> <PC->
0

> <PEOE_PC+>
1.2161642

> <PEOE_PC->
-1.2161642

> <PEOE_RPC+>
0.13439053

> <PEOE_RPC->
0.25056762

> <PEOE_VSA+0>
94.801369

> <PEOE_VSA+1>
21.326929

> <PEOE_VSA+2>
0.0

> <PEOE_VSA+3>
28.219137

> <PEOE_VSA+4>
0.0

> <PEOE_VSA+5>
0.0

> <PEOE_VSA+6>
0.0

> <PEOE_VSA-0>
53.660076

> <PEOE_VSA-1>
63.483059

> <PEOE_VSA-2>
14.230966

> <PEOE_VSA-3>
0.0

> <PEOE_VSA-4>
0.0

> <PEOE_VSA-5>
13.566921

> <PEOE_VSA-6>
0.0

> <PEOE_VSA_FHYD>
0.95310247

> <PEOE_VSA_FNEG>
0.50102592

> <PEOE_VSA_FPNEG>
0.046897553

> <PEOE_VSA_FPOL>
0.046897553

> <PEOE_VSA_FPOS>
0.49897406

> <PEOE_VSA_FPPOS>
0.0

> <PEOE_VSA_HYD>
275.72153

> <PEOE_VSA_NEG>
144.94102

> <PEOE_VSA_PNEG>
13.566921

> <PEOE_VSA_POL>
13.566921

> <PEOE_VSA_POS>
144.34743

> <PEOE_VSA_PPOS>
0.0

> <petitjean>
0.44444445

> <petitjeanSC>
0.80000001

> <Q_PC+>
0

> <Q_PC->
0

> <Q_RPC+>
0

> <Q_RPC->
0

> <Q_VSA_FHYD>
1

> <Q_VSA_FNEG>
0

> <Q_VSA_FPNEG>
0

> <Q_VSA_FPOL>
0

> <Q_VSA_FPOS>
1

> <Q_VSA_FPPOS>
0

> <Q_VSA_HYD>
289.28845

> <Q_VSA_NEG>
0

> <Q_VSA_PNEG>
0

> <Q_VSA_POL>
0

> <Q_VSA_POS>
289.28845

> <Q_VSA_PPOS>
0

> <radius>
5

> <reactive>
1

> <rings>
4

> <RPC+>
0

> <RPC->
0

> <rsynth>
1.0

> <SlogP>
3.83166

> <SlogP_VSA0>
0.0

> <SlogP_VSA1>
8.8119249

> <SlogP_VSA2>
0.0

> <SlogP_VSA3>
40.064732

> <SlogP_VSA4>
34.777344

> <SlogP_VSA5>
54.951168

> <SlogP_VSA6>
0.0

> <SlogP_VSA7>
104.03193

> <SlogP_VSA8>
37.736813

> <SlogP_VSA9>
31.277687

> <SMR>
9.0486498

> <SMR_VSA0>
23.862217

> <SMR_VSA1>
3.1243138

> <SMR_VSA2>
3.185575

> <SMR_VSA3>
14.100701

> <SMR_VSA4>
0.0

> <SMR_VSA5>
160.63715

> <SMR_VSA6>
42.566769

> <SMR_VSA7>
64.174873

> <TPSA>
20.309999

> <VAdjEq>
0.47938794

> <VAdjMa>
5.643856

> <VDistEq>
2.9170001

> <VDistMa>
8.6708145

> <vdw_area>
289.28845

> <vdw_vol>
428.52051

> <vsa_acc>
13.566921

> <vsa_acid>
0

> <vsa_base>
0

> <vsa_don>
0.0

> <vsa_hyd>
253.73891

> <vsa_other>
8.458519

> <vsa_pol>
13.566921

> <Weight>
309.43298

> <weinerPath>
917

> <weinerPol>
40

> <zagreb>
122

$$$$
Row1616
 OpenBabel06061811532D

 19 20  0  0  0  0  0  0  0  0999 V2000
    0.0000    0.0000    0.0000 F   0  0  0  0  0  0  0  0  0  0  0  0
    0.0000    0.0000    0.0000 C   0  0  0  0  0  0  0  0  0  0  0  0
    0.0000    0.0000    0.0000 F   0  0  0  0  0  0  0  0  0  0  0  0
    0.0000    0.0000    0.0000 F   0  0  0  0  0  0  0  0  0  0  0  0
    0.0000    0.0000    0.0000 C   0  0  0  0  0  0  0  0  0  0  0  0
    0.0000    0.0000    0.0000 C   0  0  0  0  0  0  0  0  0  0  0  0
    0.0000    0.0000    0.0000 C   0  0  0  0  0  0  0  0  0  0  0  0
    0.0000    0.0000    0.0000 C   0  0  0  0  0  0  0  0  0  0  0  0
    0.0000    0.0000    0.0000 N   0  0  0  0  0  0  0  0  0  0  0  0
    0.0000    0.0000    0.0000 C   0  0  0  0  0  0  0  0  0  0  0  0
    0.0000    0.0000    0.0000 O   0  0  0  0  0  0  0  0  0  0  0  0
    0.0000    0.0000    0.0000 C   0  0  0  0  0  0  0  0  0  0  0  0
    0.0000    0.0000    0.0000 C   0  0  0  0  0  0  0  0  0  0  0  0
    0.0000    0.0000    0.0000 N   0  0  0  0  0  0  0  0  0  0  0  0
    0.0000    0.0000    0.0000 O   0  0  0  0  0  0  0  0  0  0  0  0
    0.0000    0.0000    0.0000 C   0  0  0  0  0  0  0  0  0  0  0  0
    0.0000    0.0000    0.0000 C   0  0  0  0  0  0  0  0  0  0  0  0
    0.0000    0.0000    0.0000 C   0  0  0  0  0  0  0  0  0  0  0  0
    0.0000    0.0000    0.0000 C   0  0  0  0  0  0  0  0  0  0  0  0
  1  2  1  0  0  0  0
  2  3  1  0  0  0  0
  2  4  1  0  0  0  0
  2  5  1  0  0  0  0
  5 19  1  0  0  0  0
  5  6  2  0  0  0  0
  6  7  1  0  0  0  0
  7  8  2  0  0  0  0
  8  9  1  0  0  0  0
  8 18  1  0  0  0  0
  9 10  1  0  0  0  0
 10 11  2  0  0  0  0
 10 12  1  0  0  0  0
 12 16  2  0  0  0  0
 12 13  1  0  0  0  0
 13 14  2  0  0  0  0
 14 15  1  0  0  0  0
 15 16  1  0  0  0  0
 16 17  1  0  0  0  0
 18 19  2  0  0  0  0
M  END
> <Index>
1617

> <ID>
HT1182

> <class>
1

> <apol>
32.596138

> <ast_fraglike>
0

> <ast_fraglike_ext>
0

> <ast_violation>
1

> <ast_violation_ext>
1

> <a_acc>
2

> <a_acid>
0

> <a_aro>
11

> <a_base>
0

> <a_count>
28

> <a_don>
1

> <a_donacc>
3

> <a_heavy>
19

> <a_hyd>
13

> <a_IC>
54.302174

> <a_ICM>
1.9393634

> <a_nB>
0

> <a_nBr>
0

> <a_nC>
12

> <a_nCl>
0

> <a_nF>
3

> <a_nH>
9

> <a_nI>
0

> <a_nN>
2

> <a_nO>
2

> <a_nP>
0

> <a_nS>
0

> <balabanJ>
1.7698283

> <BCUT_PEOE_0>
-2.2754724

> <BCUT_PEOE_1>
-0.64289856

> <BCUT_PEOE_2>
0.70306647

> <BCUT_PEOE_3>
2.3613679

> <BCUT_SLOGP_0>
-2.2981751

> <BCUT_SLOGP_1>
-0.53807992

> <BCUT_SLOGP_2>
0.77915275

> <BCUT_SLOGP_3>
2.4740982

> <BCUT_SMR_0>
-1.9946483

> <BCUT_SMR_1>
-0.43144706

> <BCUT_SMR_2>
0.85431087

> <BCUT_SMR_3>
2.611659

> <bpol>
16.981863

> <b_1rotN>
2

> <b_1rotR>
0.1

> <b_ar>
11

> <b_count>
29

> <b_double>
1

> <b_heavy>
20

> <b_max1len>
2

> <b_rotN>
4

> <b_rotR>
0.2

> <b_single>
17

> <b_triple>
0

> <chi0>
14.043606

> <chi0v>
9.7843552

> <chi0v_C>
6.8867512

> <chi0_C>
7.9222851

> <chi1>
8.876029

> <chi1v>
5.2760105

> <chi1v_C>
3.3600423

> <chi1_C>
4.5739336

> <chiral>
0

> <chiral_u>
0

> <density>
0.89615023

> <diameter>
10

> <FCharge>
0

> <GCUT_PEOE_0>
-0.80916595

> <GCUT_PEOE_1>
-0.38168007

> <GCUT_PEOE_2>
0.082515687

> <GCUT_PEOE_3>
2.2832866

> <GCUT_SLOGP_0>
-0.99305302

> <GCUT_SLOGP_1>
-0.26386139

> <GCUT_SLOGP_2>
0.26019999

> <GCUT_SLOGP_3>
2.3888221

> <GCUT_SMR_0>
-0.48403811

> <GCUT_SMR_1>
-0.21605732

> <GCUT_SMR_2>
0.19305076

> <GCUT_SMR_3>
2.5535319

> <Kier1>
15.39

> <Kier2>
6.1854935

> <Kier3>
3.9861591

> <KierA1>
10.907081

> <KierA2>
4.2919698

> <KierA3>
2.7203469

> <KierFlex>
2.4638348

> <lip_acc>
4

> <lip_don>
1

> <lip_druglike>
1

> <lip_violation>
0

> <logP(o/w)>
2.2967601

> <logS>
-3.37116

> <mr>
6.2823677

> <mutagenic>
0

> <nmol>
1

> <opr_brigid>
11

> <opr_leadlike>
1

> <opr_nring>
2

> <opr_nrot>
2

> <opr_violation>
0

> <PC+>
0

> <PC->
0

> <PEOE_PC+>
1.7064935

> <PEOE_PC->
-1.7064935

> <PEOE_RPC+>
0.24460834

> <PEOE_RPC->
0.21046296

> <PEOE_VSA+0>
19.495708

> <PEOE_VSA+1>
40.281384

> <PEOE_VSA+2>
10.667059

> <PEOE_VSA+3>
8.6190128

> <PEOE_VSA+4>
0.0

> <PEOE_VSA+5>
12.949531

> <PEOE_VSA+6>
9.0455017

> <PEOE_VSA-0>
67.767296

> <PEOE_VSA-1>
10.885262

> <PEOE_VSA-2>
0.0

> <PEOE_VSA-3>
35.725906

> <PEOE_VSA-4>
0.0

> <PEOE_VSA-5>
13.566921

> <PEOE_VSA-6>
6.0392504

> <PEOE_VSA_FHYD>
0.82300586

> <PEOE_VSA_FNEG>
0.5700435

> <PEOE_VSA_FPNEG>
0.083415315

> <PEOE_VSA_FPOL>
0.17699414

> <PEOE_VSA_FPOS>
0.42995653

> <PEOE_VSA_FPPOS>
0.09357883

> <PEOE_VSA_HYD>
193.44164

> <PEOE_VSA_NEG>
133.98463

> <PEOE_VSA_PNEG>
19.606171

> <PEOE_VSA_POL>
41.601204

> <PEOE_VSA_POS>
101.0582

> <PEOE_VSA_PPOS>
21.995033

> <petitjean>
0.5

> <petitjeanSC>
1.0

> <Q_PC+>
0

> <Q_PC->
0

> <Q_RPC+>
0

> <Q_RPC->
0

> <Q_VSA_FHYD>
1

> <Q_VSA_FNEG>
0

> <Q_VSA_FPNEG>
0

> <Q_VSA_FPOL>
0

> <Q_VSA_FPOS>
1

> <Q_VSA_FPPOS>
0

> <Q_VSA_HYD>
235.04283

> <Q_VSA_NEG>
0

> <Q_VSA_PNEG>
0

> <Q_VSA_POL>
0

> <Q_VSA_POS>
235.04283

> <Q_VSA_PPOS>
0

> <radius>
5

> <reactive>
0

> <rings>
2

> <RPC+>
0

> <RPC->
0

> <rsynth>
1.0

> <SlogP>
3.5656199

> <SlogP_VSA0>
0.0

> <SlogP_VSA1>
42.866131

> <SlogP_VSA2>
0.0

> <SlogP_VSA3>
0.0

> <SlogP_VSA4>
35.682186

> <SlogP_VSA5>
9.7341213

> <SlogP_VSA6>
7.7595162

> <SlogP_VSA7>
87.787094

> <SlogP_VSA8>
0.0

> <SlogP_VSA9>
80.963104

> <SMR>
6.0754199

> <SMR_VSA0>
33.596336

> <SMR_VSA1>
64.476936

> <SMR_VSA2>
7.7595162

> <SMR_VSA3>
11.819971

> <SMR_VSA4>
20.767498

> <SMR_VSA5>
87.787094

> <SMR_VSA6>
5.2587838

> <SMR_VSA7>
33.326015

> <TPSA>
55.130001

> <VAdjEq>
0.5023343

> <VAdjMa>
5.321928

> <VDistEq>
3.21401

> <VDistMa>
8.1643715

> <vdw_area>
235.04283

> <vdw_vol>
301.5231

> <vsa_acc>
24.452183

> <vsa_acid>
0

> <vsa_base>
0

> <vsa_don>
5.6825762

> <vsa_hyd>
168.82997

> <vsa_other>
27.31041

> <vsa_pol>
30.134758

> <Weight>
270.20999

> <weinerPath>
770

> <weinerPol>
26

> <zagreb>
98

$$$$
Row1617
 OpenBabel06061811532D

 32 35  0  0  1  0  0  0  0  0999 V2000
    0.0000    0.0000    0.0000 F   0  0  0  0  0  0  0  0  0  0  0  0
    0.0000    0.0000    0.0000 C   0  0  0  0  0  0  0  0  0  0  0  0
    0.0000    0.0000    0.0000 C   0  0  0  0  0  0  0  0  0  0  0  0
    0.0000    0.0000    0.0000 C   0  0  0  0  0  0  0  0  0  0  0  0
    0.0000    0.0000    0.0000 C   0  0  0  0  0  0  0  0  0  0  0  0
    0.0000    0.0000    0.0000 C   0  0  0  0  0  0  0  0  0  0  0  0
    0.0000    0.0000    0.0000 C   0  0  0  0  0  0  0  0  0  0  0  0
    0.0000    0.0000    0.0000 C   0  0  3  0  0  0  0  0  0  0  0  0
    0.0000    0.0000    0.0000 C   0  0  0  0  0  0  0  0  0  0  0  0
    0.0000    0.0000    0.0000 C   0  0  0  0  0  0  0  0  0  0  0  0
    0.0000    0.0000    0.0000 C   0  0  3  0  0  0  0  0  0  0  0  0
    0.0000    0.0000    0.0000 N   0  0  3  0  0  0  0  0  0  0  0  0
    0.0000    0.0000    0.0000 C   0  0  0  0  0  0  0  0  0  0  0  0
    0.0000    0.0000    0.0000 C   0  0  1  0  0  0  0  0  0  0  0  0
    0.0000    0.0000    0.0000 H   0  0  0  0  0  0  0  0  0  0  0  0
    0.0000    0.0000    0.0000 C   0  0  0  0  0  0  0  0  0  0  0  0
    0.0000    0.0000    0.0000 C   0  0  1  0  0  0  0  0  0  0  0  0
    0.0000    0.0000    0.0000 C   0  0  0  0  0  0  0  0  0  0  0  0
    0.0000    0.0000    0.0000 C   0  0  0  0  0  0  0  0  0  0  0  0
    0.0000    0.0000    0.0000 C   0  0  0  0  0  0  0  0  0  0  0  0
    0.0000    0.0000    0.0000 O   0  0  0  0  0  0  0  0  0  0  0  0
    0.0000    0.0000    0.0000 O   0  0  0  0  0  0  0  0  0  0  0  0
    0.0000    0.0000    0.0000 C   0  0  0  0  0  0  0  0  0  0  0  0
    0.0000    0.0000    0.0000 C   0  0  0  0  0  0  0  0  0  0  0  0
    0.0000    0.0000    0.0000 C   0  0  0  0  0  0  0  0  0  0  0  0
    0.0000    0.0000    0.0000 C   0  0  0  0  0  0  0  0  0  0  0  0
    0.0000    0.0000    0.0000 C   0  0  0  0  0  0  0  0  0  0  0  0
    0.0000    0.0000    0.0000 C   0  0  0  0  0  0  0  0  0  0  0  0
    0.0000    0.0000    0.0000 C   0  0  0  0  0  0  0  0  0  0  0  0
    0.0000    0.0000    0.0000 C   0  0  0  0  0  0  0  0  0  0  0  0
    0.0000    0.0000    0.0000 C   0  0  0  0  0  0  0  0  0  0  0  0
    0.0000    0.0000    0.0000 N   0  0  0  0  0  0  0  0  0  0  0  0
  1  2  1  0  0  0  0
  2  7  1  0  0  0  0
  2  3  2  0  0  0  0
  3  4  1  0  0  0  0
  4  5  2  0  0  0  0
  5  6  1  0  0  0  0
  5  8  1  0  0  0  0
  6  7  2  0  0  0  0
  8 30  1  0  0  0  0
  8  9  1  0  0  0  0
  8 31  1  0  0  0  0
  9 10  1  0  0  0  0
 10 11  1  0  0  0  0
 11 12  1  0  0  0  0
 11 29  1  0  0  0  0
 12 19  1  0  0  0  0
 12 13  1  0  0  0  0
 13 14  1  0  0  0  0
 14 15  1  0  0  0  0
 14 16  1  0  0  0  0
 14 17  1  0  0  0  0
 17 18  1  0  0  0  0
 17 20  1  0  0  0  0
 17 23  1  0  0  0  0
 18 19  1  0  0  0  0
 20 21  1  0  0  0  0
 20 22  2  0  0  0  0
 23 28  1  0  0  0  0
 23 24  2  0  0  0  0
 24 25  1  0  0  0  0
 25 26  2  0  0  0  0
 26 27  1  0  0  0  0
 27 28  2  0  0  0  0
 29 30  1  0  0  0  0
 31 32  3  0  0  0  0
M  END
> <Index>
1618

> <ID>
HT1194

> <class>
1

> <apol>
69.458

> <ast_fraglike>
0

> <ast_fraglike_ext>
0

> <ast_violation>
3

> <ast_violation_ext>
4

> <a_acc>
4

> <a_acid>
0

> <a_aro>
12

> <a_base>
0

> <a_count>
60

> <a_don>
2

> <a_donacc>
6

> <a_heavy>
31

> <a_hyd>
25

> <a_IC>
87.320557

> <a_ICM>
1.4553425

> <a_nB>
0

> <a_nBr>
0

> <a_nC>
26

> <a_nCl>
0

> <a_nF>
1

> <a_nH>
29

> <a_nI>
0

> <a_nN>
2

> <a_nO>
2

> <a_nP>
0

> <a_nS>
0

> <balabanJ>
1.3670434

> <BCUT_PEOE_0>
-2.8669107

> <BCUT_PEOE_1>
-0.61617321

> <BCUT_PEOE_2>
0.65281928

> <BCUT_PEOE_3>
2.8287399

> <BCUT_SLOGP_0>
-2.8961933

> <BCUT_SLOGP_1>
-0.53807992

> <BCUT_SLOGP_2>
0.76593107

> <BCUT_SLOGP_3>
2.8468223

> <BCUT_SMR_0>
-2.6065731

> <BCUT_SMR_1>
-0.45460409

> <BCUT_SMR_2>
0.79181391

> <BCUT_SMR_3>
3.0826678

> <bpol>
36.504002

> <b_1rotN>
4

> <b_1rotR>
0.11764706

> <b_ar>
12

> <b_count>
63

> <b_double>
1

> <b_heavy>
34

> <b_max1len>
3

> <b_rotN>
5

> <b_rotR>
0.14705883

> <b_single>
49

> <b_triple>
1

> <chi0>
22.062267

> <chi0v>
17.928453

> <chi0v_C>
15.8006

> <chi0_C>
17.484917

> <chi1>
14.909487

> <chi1v>
11.114455

> <chi1v_C>
9.383481

> <chi1_C>
11.320499

> <chiral>
2

> <chiral_u>
0

> <density>
0.71299225

> <diameter>
16

> <FCharge>
0

> <GCUT_PEOE_0>
-0.85528177

> <GCUT_PEOE_1>
-0.40338999

> <GCUT_PEOE_2>
0.080607265

> <GCUT_PEOE_3>
3.1000679

> <GCUT_SLOGP_0>
-0.95514804

> <GCUT_SLOGP_1>
-0.2734108

> <GCUT_SLOGP_2>
0.16445385

> <GCUT_SLOGP_3>
3.140404

> <GCUT_SMR_0>
-0.52710044

> <GCUT_SMR_1>
-0.21605732

> <GCUT_SMR_2>
0.19305076

> <GCUT_SMR_3>
3.3379703

> <Kier1>
24.134949

> <Kier2>
10.092

> <Kier3>
4.665741

> <KierA1>
18.848694

> <KierA2>
7.8124862

> <KierA3>
3.5886469

> <KierFlex>
4.7501664

> <lip_acc>
4

> <lip_don>
1

> <lip_druglike>
1

> <lip_violation>
0

> <logP(o/w)>
6.1919999

> <logS>
-5.0236702

> <mr>
12.085408

> <mutagenic>
0

> <nmol>
1

> <opr_brigid>
24

> <opr_leadlike>
1

> <opr_nring>
4

> <opr_nrot>
9

> <opr_violation>
1

> <PC+>
0

> <PC->
0

> <PEOE_PC+>
2.03704

> <PEOE_PC->
-2.03704

> <PEOE_RPC+>
0.13280182

> <PEOE_RPC->
0.16229138

> <PEOE_VSA+0>
110.57294

> <PEOE_VSA+1>
58.687981

> <PEOE_VSA+2>
9.0208454

> <PEOE_VSA+3>
0.0

> <PEOE_VSA+4>
10.324173

> <PEOE_VSA+5>
14.708499

> <PEOE_VSA+6>
0.0

> <PEOE_VSA-0>
72.433456

> <PEOE_VSA-1>
104.53201

> <PEOE_VSA-2>
0.0

> <PEOE_VSA-3>
17.742489

> <PEOE_VSA-4>
11.908636

> <PEOE_VSA-5>
13.566921

> <PEOE_VSA-6>
7.7675405

> <PEOE_VSA_FHYD>
0.86487263

> <PEOE_VSA_FNEG>
0.52856314

> <PEOE_VSA_FPNEG>
0.077082671

> <PEOE_VSA_FPOL>
0.13512737

> <PEOE_VSA_FPOS>
0.47143686

> <PEOE_VSA_FPPOS>
0.058044691

> <PEOE_VSA_HYD>
372.98972

> <PEOE_VSA_NEG>
227.95105

> <PEOE_VSA_PNEG>
33.243095

> <PEOE_VSA_POL>
58.275768

> <PEOE_VSA_POS>
203.31444

> <PEOE_VSA_PPOS>
25.032671

> <petitjean>
0.5

> <petitjeanSC>
1.0

> <Q_PC+>
0

> <Q_PC->
0

> <Q_RPC+>
0

> <Q_RPC->
0

> <Q_VSA_FHYD>
1

> <Q_VSA_FNEG>
0

> <Q_VSA_FPNEG>
0

> <Q_VSA_FPOL>
0

> <Q_VSA_FPOS>
1

> <Q_VSA_FPPOS>
0

> <Q_VSA_HYD>
431.26547

> <Q_VSA_NEG>
0

> <Q_VSA_PNEG>
0

> <Q_VSA_POL>
0

> <Q_VSA_POS>
431.26547

> <Q_VSA_PPOS>
0

> <radius>
8

> <reactive>
0

> <rings>
4

> <RPC+>
0

> <RPC->
0

> <rsynth>
0.25806451

> <SlogP>
4.894084

> <SlogP_VSA0>
0.0

> <SlogP_VSA1>
10.869778

> <SlogP_VSA2>
36.965202

> <SlogP_VSA3>
109.92548

> <SlogP_VSA4>
10.781946

> <SlogP_VSA5>
0.0

> <SlogP_VSA6>
0.0

> <SlogP_VSA7>
158.78867

> <SlogP_VSA8>
94.342026

> <SlogP_VSA9>
48.286129

> <SMR>
11.70568

> <SMR_VSA0>
23.862217

> <SMR_VSA1>
49.143784

> <SMR_VSA2>
38.917042

> <SMR_VSA3>
26.954865

> <SMR_VSA4>
0.0

> <SMR_VSA5>
253.13069

> <SMR_VSA6>
44.624619

> <SMR_VSA7>
33.326015

> <TPSA>
64.330002

> <VAdjEq>
0.36875206

> <VAdjMa>
6.0874629

> <VDistEq>
3.7071435

> <VDistMa>
9.5962992

> <vdw_area>
431.26547

> <vdw_vol>
589.80725

> <vsa_acc>
17.742489

> <vsa_acid>
0

> <vsa_base>
0

> <vsa_don>
0.0

> <vsa_hyd>
325.58102

> <vsa_other>
35.008007

> <vsa_pol>
44.876331

> <Weight>
420.52798

> <weinerPath>
2806

> <weinerPol>
59

> <zagreb>
168

$$$$
Row1618
 OpenBabel06061811532D

 27 30  0  0  1  0  0  0  0  0999 V2000
    0.0000    0.0000    0.0000 F   0  0  0  0  0  0  0  0  0  0  0  0
    0.0000    0.0000    0.0000 C   0  0  0  0  0  0  0  0  0  0  0  0
    0.0000    0.0000    0.0000 C   0  0  0  0  0  0  0  0  0  0  0  0
    0.0000    0.0000    0.0000 C   0  0  0  0  0  0  0  0  0  0  0  0
    0.0000    0.0000    0.0000 C   0  0  0  0  0  0  0  0  0  0  0  0
    0.0000    0.0000    0.0000 N   0  0  0  0  0  0  0  0  0  0  0  0
    0.0000    0.0000    0.0000 C   0  0  0  0  0  0  0  0  0  0  0  0
    0.0000    0.0000    0.0000 C   0  0  0  0  0  0  0  0  0  0  0  0
    0.0000    0.0000    0.0000 C   0  0  0  0  0  0  0  0  0  0  0  0
    0.0000    0.0000    0.0000 O   0  0  0  0  0  0  0  0  0  0  0  0
    0.0000    0.0000    0.0000 O   0  0  0  0  0  0  0  0  0  0  0  0
    0.0000    0.0000    0.0000 C   0  0  0  0  0  0  0  0  0  0  0  0
    0.0000    0.0000    0.0000 O   0  0  0  0  0  0  0  0  0  0  0  0
    0.0000    0.0000    0.0000 C   0  0  2  0  0  0  0  0  0  0  0  0
    0.0000    0.0000    0.0000 H   0  0  0  0  0  0  0  0  0  0  0  0
    0.0000    0.0000    0.0000 C   0  0  0  0  0  0  0  0  0  0  0  0
    0.0000    0.0000    0.0000 O   0  0  0  0  0  0  0  0  0  0  0  0
    0.0000    0.0000    0.0000 C   0  0  0  0  0  0  0  0  0  0  0  0
    0.0000    0.0000    0.0000 C   0  0  0  0  0  0  0  0  0  0  0  0
    0.0000    0.0000    0.0000 N   0  0  0  0  0  0  0  0  0  0  0  0
    0.0000    0.0000    0.0000 C   0  0  0  0  0  0  0  0  0  0  0  0
    0.0000    0.0000    0.0000 C   0  0  0  0  0  0  0  0  0  0  0  0
    0.0000    0.0000    0.0000 N   0  0  0  0  0  0  0  0  0  0  0  0
    0.0000    0.0000    0.0000 C   0  0  0  0  0  0  0  0  0  0  0  0
    0.0000    0.0000    0.0000 C   0  0  0  0  0  0  0  0  0  0  0  0
    0.0000    0.0000    0.0000 C   0  0  0  0  0  0  0  0  0  0  0  0
    0.0000    0.0000    0.0000 C   0  0  0  0  0  0  0  0  0  0  0  0
  1  2  1  0  0  0  0
  2 19  1  0  0  0  0
  2  3  2  0  0  0  0
  3  4  1  0  0  0  0
  4 12  1  0  0  0  0
  4  5  2  0  0  0  0
  5 18  1  0  0  0  0
  5  6  1  0  0  0  0
  6  7  1  0  0  0  0
  6 14  1  0  0  0  0
  7  8  2  0  0  0  0
  8  9  1  0  0  0  0
  8 12  1  0  0  0  0
  9 10  1  0  0  0  0
  9 11  2  0  0  0  0
 12 13  2  0  0  0  0
 14 15  1  0  0  0  0
 14 16  1  0  0  0  0
 14 27  1  0  0  0  0
 16 17  1  0  0  0  0
 17 18  1  0  0  0  0
 18 19  2  0  0  0  0
 19 20  1  0  0  0  0
 20 25  1  0  0  0  0
 20 21  1  0  0  0  0
 21 22  1  0  0  0  0
 22 23  1  0  0  0  0
 23 24  1  0  0  0  0
 23 26  1  0  0  0  0
 24 25  1  0  0  0  0
M  END
> <Index>
1619

> <ID>
HT1197

> <class>
1

> <apol>
52.08086

> <ast_fraglike>
0

> <ast_fraglike_ext>
0

> <ast_violation>
2

> <ast_violation_ext>
3

> <a_acc>
5

> <a_acid>
0

> <a_aro>
6

> <a_base>
0

> <a_count>
46

> <a_don>
2

> <a_donacc>
7

> <a_heavy>
26

> <a_hyd>
17

> <a_IC>
79.831749

> <a_ICM>
1.7354728

> <a_nB>
0

> <a_nBr>
0

> <a_nC>
18

> <a_nCl>
0

> <a_nF>
1

> <a_nH>
20

> <a_nI>
0

> <a_nN>
3

> <a_nO>
4

> <a_nP>
0

> <a_nS>
0

> <balabanJ>
1.6099478

> <BCUT_PEOE_0>
-2.7464559

> <BCUT_PEOE_1>
-0.53128892

> <BCUT_PEOE_2>
0.46531206

> <BCUT_PEOE_3>
2.6530197

> <BCUT_SLOGP_0>
-2.8701489

> <BCUT_SLOGP_1>
-0.37161919

> <BCUT_SLOGP_2>
0.57648861

> <BCUT_SLOGP_3>
2.6186156

> <BCUT_SMR_0>
-2.4524214

> <BCUT_SMR_1>
-0.28721562

> <BCUT_SMR_2>
0.68648124

> <BCUT_SMR_3>
2.9423387

> <bpol>
32.839142

> <b_1rotN>
2

> <b_1rotR>
0.068965517

> <b_ar>
6

> <b_count>
49

> <b_double>
3

> <b_heavy>
29

> <b_max1len>
3

> <b_rotN>
2

> <b_rotR>
0.068965517

> <b_single>
40

> <b_triple>
0

> <chi0>
18.585058

> <chi0v>
14.659148

> <chi0v_C>
11.267585

> <chi0_C>
12.1459

> <chi1>
12.379918

> <chi1v>
8.5909967

> <chi1v_C>
4.601624

> <chi1_C>
5.5436769

> <chiral>
1

> <chiral_u>
0

> <density>
0.79804593

> <diameter>
12

> <FCharge>
0

> <GCUT_PEOE_0>
-0.85578698

> <GCUT_PEOE_1>
-0.43560857

> <GCUT_PEOE_2>
-0.069684349

> <GCUT_PEOE_3>
2.8191056

> <GCUT_SLOGP_0>
-0.98742127

> <GCUT_SLOGP_1>
-0.36910385

> <GCUT_SLOGP_2>
0.121792

> <GCUT_SLOGP_3>
2.8533425

> <GCUT_SMR_0>
-0.51317096

> <GCUT_SMR_1>
-0.17326753

> <GCUT_SMR_2>
0.1368853

> <GCUT_SMR_3>
3.0909255

> <Kier1>
19.322235

> <Kier2>
7.4380164

> <Kier3>
3.3378685

> <KierA1>
15.021054

> <KierA2>
5.7200522

> <KierA3>
2.5470986

> <KierFlex>
3.304662

> <lip_acc>
7

> <lip_don>
1

> <lip_druglike>
1

> <lip_violation>
0

> <logP(o/w)>
0.67699999

> <logS>
-2.8395901

> <mr>
9.1526031

> <mutagenic>
0

> <nmol>
1

> <opr_brigid>
21

> <opr_leadlike>
1

> <opr_nring>
4

> <opr_nrot>
4

> <opr_violation>
0

> <PC+>
0

> <PC->
0

> <PEOE_PC+>
2.3005683

> <PEOE_PC->
-2.3005683

> <PEOE_RPC+>
0.12863304

> <PEOE_RPC->
0.14773625

> <PEOE_VSA+0>
138.85051

> <PEOE_VSA+1>
45.411938

> <PEOE_VSA+2>
19.687904

> <PEOE_VSA+3>
0.0

> <PEOE_VSA+4>
18.782692

> <PEOE_VSA+5>
14.708499

> <PEOE_VSA+6>
0.0

> <PEOE_VSA-0>
54.241272

> <PEOE_VSA-1>
0.0

> <PEOE_VSA-2>
0.0

> <PEOE_VSA-3>
0.0

> <PEOE_VSA-4>
11.908636

> <PEOE_VSA-5>
27.133842

> <PEOE_VSA-6>
10.271297

> <PEOE_VSA_FHYD>
0.75716776

> <PEOE_VSA_FNEG>
0.30368352

> <PEOE_VSA_FPNEG>
0.14461662

> <PEOE_VSA_FPOL>
0.24283224

> <PEOE_VSA_FPOS>
0.69631648

> <PEOE_VSA_FPPOS>
0.098215625

> <PEOE_VSA_HYD>
258.19162

> <PEOE_VSA_NEG>
103.55505

> <PEOE_VSA_PNEG>
49.313774

> <PEOE_VSA_POL>
82.804962

> <PEOE_VSA_POS>
237.44154

> <PEOE_VSA_PPOS>
33.491192

> <petitjean>
0.5

> <petitjeanSC>
1.0

> <Q_PC+>
0

> <Q_PC->
0

> <Q_RPC+>
0

> <Q_RPC->
0

> <Q_VSA_FHYD>
1

> <Q_VSA_FNEG>
0

> <Q_VSA_FPNEG>
0

> <Q_VSA_FPOL>
0

> <Q_VSA_FPOS>
1

> <Q_VSA_FPPOS>
0

> <Q_VSA_HYD>
340.99658

> <Q_VSA_NEG>
0

> <Q_VSA_PNEG>
0

> <Q_VSA_POL>
0

> <Q_VSA_POS>
340.99658

> <Q_VSA_PPOS>
0

> <radius>
6

> <reactive>
0

> <rings>
4

> <RPC+>
0

> <RPC->
0

> <rsynth>
1.0

> <SlogP>
1.3296

> <SlogP_VSA0>
17.248516

> <SlogP_VSA1>
16.557388

> <SlogP_VSA2>
36.965202

> <SlogP_VSA3>
120.06979

> <SlogP_VSA4>
27.047791

> <SlogP_VSA5>
36.082764

> <SlogP_VSA6>
0.0

> <SlogP_VSA7>
34.85754

> <SlogP_VSA8>
0.0

> <SlogP_VSA9>
59.043053

> <SMR>
9.3595304

> <SMR_VSA0>
47.724434

> <SMR_VSA1>
29.084314

> <SMR_VSA2>
40.754871

> <SMR_VSA3>
15.596547

> <SMR_VSA4>
5.513495

> <SMR_VSA5>
34.85754

> <SMR_VSA6>
108.11765

> <SMR_VSA7>
66.223206

> <TPSA>
73.32

> <VAdjEq>
0.42228913

> <VAdjMa>
5.8579812

> <VDistEq>
3.219456

> <VDistMa>
9.1354771

> <vdw_area>
340.99658

> <vdw_vol>
452.82233

> <vsa_acc>
16.070677

> <vsa_acid>
0

> <vsa_base>
0

> <vsa_don>
0.0

> <vsa_hyd>
256.57614

> <vsa_other>
23.167019

> <vsa_pol>
43.204517

> <Weight>
361.37299

> <weinerPath>
1484

> <weinerPol>
51

> <zagreb>
146

$$$$
Row1619
 OpenBabel06061811532D

 36 40  0  0  1  0  0  0  0  0999 V2000
    0.0000    0.0000    0.0000 O   0  0  0  0  0  0  0  0  0  0  0  0
    0.0000    0.0000    0.0000 C   0  0  0  0  0  0  0  0  0  0  0  0
    0.0000    0.0000    0.0000 N   0  0  0  0  0  0  0  0  0  0  0  0
    0.0000    0.0000    0.0000 C   0  0  0  0  0  0  0  0  0  0  0  0
    0.0000    0.0000    0.0000 C   0  0  0  0  0  0  0  0  0  0  0  0
    0.0000    0.0000    0.0000 N   0  0  0  0  0  0  0  0  0  0  0  0
    0.0000    0.0000    0.0000 C   0  0  0  0  0  0  0  0  0  0  0  0
    0.0000    0.0000    0.0000 C   0  0  0  0  0  0  0  0  0  0  0  0
    0.0000    0.0000    0.0000 C   0  0  0  0  0  0  0  0  0  0  0  0
    0.0000    0.0000    0.0000 N   0  0  0  0  0  0  0  0  0  0  0  0
    0.0000    0.0000    0.0000 C   0  0  0  0  0  0  0  0  0  0  0  0
    0.0000    0.0000    0.0000 C   0  0  0  0  0  0  0  0  0  0  0  0
    0.0000    0.0000    0.0000 C   0  0  0  0  0  0  0  0  0  0  0  0
    0.0000    0.0000    0.0000 C   0  0  0  0  0  0  0  0  0  0  0  0
    0.0000    0.0000    0.0000 C   0  0  0  0  0  0  0  0  0  0  0  0
    0.0000    0.0000    0.0000 C   0  0  0  0  0  0  0  0  0  0  0  0
    0.0000    0.0000    0.0000 O   0  0  0  0  0  0  0  0  0  0  0  0
    0.0000    0.0000    0.0000 N   0  0  0  0  0  0  0  0  0  0  0  0
    0.0000    0.0000    0.0000 C   0  0  0  0  0  0  0  0  0  0  0  0
    0.0000    0.0000    0.0000 N   0  0  0  0  0  0  0  0  0  0  0  0
    0.0000    0.0000    0.0000 C   0  0  0  0  0  0  0  0  0  0  0  0
    0.0000    0.0000    0.0000 N   0  0  0  0  0  0  0  0  0  0  0  0
    0.0000    0.0000    0.0000 C   0  0  0  0  0  0  0  0  0  0  0  0
    0.0000    0.0000    0.0000 C   0  0  0  0  0  0  0  0  0  0  0  0
    0.0000    0.0000    0.0000 C   0  0  0  0  0  0  0  0  0  0  0  0
    0.0000    0.0000    0.0000 C   0  0  0  0  0  0  0  0  0  0  0  0
    0.0000    0.0000    0.0000 C   0  0  0  0  0  0  0  0  0  0  0  0
    0.0000    0.0000    0.0000 N   0  0  0  0  0  0  0  0  0  0  0  0
    0.0000    0.0000    0.0000 C   0  0  0  0  0  0  0  0  0  0  0  0
    0.0000    0.0000    0.0000 C   0  0  2  0  0  0  0  0  0  0  0  0
    0.0000    0.0000    0.0000 H   0  0  0  0  0  0  0  0  0  0  0  0
    0.0000    0.0000    0.0000 N   0  0  0  0  0  0  0  0  0  0  0  0
    0.0000    0.0000    0.0000 C   0  0  0  0  0  0  0  0  0  0  0  0
    0.0000    0.0000    0.0000 C   0  0  0  0  0  0  0  0  0  0  0  0
    0.0000    0.0000    0.0000 C   0  0  0  0  0  0  0  0  0  0  0  0
    0.0000    0.0000    0.0000 C   0  0  0  0  0  0  0  0  0  0  0  0
  1  2  2  0  0  0  0
  2 23  1  0  0  0  0
  2  3  1  0  0  0  0
  3  4  1  0  0  0  0
  3 16  1  0  0  0  0
  4  5  1  0  0  0  0
  5 10  1  0  0  0  0
  5  6  2  0  0  0  0
  6  7  1  0  0  0  0
  7  8  2  0  0  0  0
  7 15  1  0  0  0  0
  8 14  1  0  0  0  0
  8  9  1  0  0  0  0
  9 10  2  0  0  0  0
  9 11  1  0  0  0  0
 11 12  2  0  0  0  0
 12 13  1  0  0  0  0
 13 14  2  0  0  0  0
 16 17  2  0  0  0  0
 16 18  1  0  0  0  0
 18 19  1  0  0  0  0
 18 36  1  0  0  0  0
 19 23  2  0  0  0  0
 19 20  1  0  0  0  0
 20 21  2  0  0  0  0
 21 22  1  0  0  0  0
 21 28  1  0  0  0  0
 22 23  1  0  0  0  0
 22 24  1  0  0  0  0
 24 25  1  0  0  0  0
 25 26  3  0  0  0  0
 26 27  1  0  0  0  0
 28 35  1  0  0  0  0
 28 29  1  0  0  0  0
 29 30  1  0  0  0  0
 30 31  1  0  0  0  0
 30 32  1  0  0  0  0
 30 33  1  0  0  0  0
 33 34  1  0  0  0  0
 34 35  1  0  0  0  0
M  END
> <Index>
1620

> <ID>
HT1211

> <class>
1

> <apol>
73.074203

> <ast_fraglike>
0

> <ast_fraglike_ext>
0

> <ast_violation>
2

> <ast_violation_ext>
4

> <a_acc>
6

> <a_acid>
0

> <a_aro>
15

> <a_base>
0

> <a_count>
63

> <a_don>
1

> <a_donacc>
7

> <a_heavy>
35

> <a_hyd>
20

> <a_IC>
99.866295

> <a_ICM>
1.5851792

> <a_nB>
0

> <a_nBr>
0

> <a_nC>
25

> <a_nCl>
0

> <a_nF>
0

> <a_nH>
28

> <a_nI>
0

> <a_nN>
8

> <a_nO>
2

> <a_nP>
0

> <a_nS>
0

> <balabanJ>
1.3278455

> <BCUT_PEOE_0>
-2.7560575

> <BCUT_PEOE_1>
-0.48124921

> <BCUT_PEOE_2>
0.51926142

> <BCUT_PEOE_3>
2.6988461

> <BCUT_SLOGP_0>
-2.8780422

> <BCUT_SLOGP_1>
-0.39547768

> <BCUT_SLOGP_2>
0.59780186

> <BCUT_SLOGP_3>
2.677084

> <BCUT_SMR_0>
-2.484246

> <BCUT_SMR_1>
-0.27068749

> <BCUT_SMR_2>
0.72194064

> <BCUT_SMR_3>
2.969434

> <bpol>
43.745796

> <b_1rotN>
5

> <b_1rotR>
0.12820514

> <b_ar>
16

> <b_count>
67

> <b_double>
2

> <b_heavy>
39

> <b_max1len>
3

> <b_rotN>
5

> <b_rotR>
0.12820514

> <b_single>
48

> <b_triple>
1

> <chi0>
24.689505

> <chi0v>
20.153734

> <chi0v_C>
15.629392

> <chi0_C>
17.258783

> <chi1>
16.884249

> <chi1v>
11.711548

> <chi1v_C>
6.3509536

> <chi1_C>
8.1590319

> <chiral>
1

> <chiral_u>
0

> <density>
0.74215466

> <diameter>
15

> <FCharge>
0

> <GCUT_PEOE_0>
-0.83437628

> <GCUT_PEOE_1>
-0.41853148

> <GCUT_PEOE_2>
0.0085741226

> <GCUT_PEOE_3>
2.8623726

> <GCUT_SLOGP_0>
-1.363554

> <GCUT_SLOGP_1>
-0.35321715

> <GCUT_SLOGP_2>
0.092380755

> <GCUT_SLOGP_3>
2.8691852

> <GCUT_SMR_0>
-0.5189209

> <GCUT_SMR_1>
-0.15970278

> <GCUT_SMR_2>
0.16276899

> <GCUT_SMR_3>
3.131995

> <Kier1>
26.60092

> <Kier2>
11.396122

> <Kier3>
5.3065081

> <KierA1>
18.9671

> <KierA2>
8.0387049

> <KierA3>
3.7140286

> <KierFlex>
4.3563118

> <lip_acc>
10

> <lip_don>
2

> <lip_druglike>
1

> <lip_violation>
0

> <logP(o/w)>
1.424

> <logS>
-5.37292

> <mr>
13.082201

> <mutagenic>
0

> <nmol>
1

> <opr_brigid>
28

> <opr_leadlike>
0

> <opr_nring>
5

> <opr_nrot>
7

> <opr_violation>
3

> <PC+>
0

> <PC->
0

> <PEOE_PC+>
3.061595

> <PEOE_PC->
-3.061595

> <PEOE_RPC+>
0.10899847

> <PEOE_RPC->
0.10652178

> <PEOE_VSA+0>
138.45435

> <PEOE_VSA+1>
67.207291

> <PEOE_VSA+2>
28.428589

> <PEOE_VSA+3>
33.57169

> <PEOE_VSA+4>
0.0

> <PEOE_VSA+5>
12.949531

> <PEOE_VSA+6>
17.440542

> <PEOE_VSA-0>
67.152885

> <PEOE_VSA-1>
52.573208

> <PEOE_VSA-2>
15.808495

> <PEOE_VSA-3>
5.6825762

> <PEOE_VSA-4>
24.932074

> <PEOE_VSA-5>
13.566921

> <PEOE_VSA-6>
6.6511192

> <PEOE_VSA_FHYD>
0.8440603

> <PEOE_VSA_FNEG>
0.3847231

> <PEOE_VSA_FPNEG>
0.093204625

> <PEOE_VSA_FPOL>
0.15593968

> <PEOE_VSA_FPOS>
0.61527687

> <PEOE_VSA_FPPOS>
0.062735066

> <PEOE_VSA_HYD>
408.87906

> <PEOE_VSA_NEG>
186.36728

> <PEOE_VSA_PNEG>
45.150112

> <PEOE_VSA_POL>
75.540184

> <PEOE_VSA_POS>
298.05197

> <PEOE_VSA_PPOS>
30.390074

> <petitjean>
0.46666667

> <petitjeanSC>
0.875

> <Q_PC+>
0

> <Q_PC->
0

> <Q_RPC+>
0

> <Q_RPC->
0

> <Q_VSA_FHYD>
1

> <Q_VSA_FNEG>
0

> <Q_VSA_FPNEG>
0

> <Q_VSA_FPOL>
0

> <Q_VSA_FPOS>
1

> <Q_VSA_FPPOS>
0

> <Q_VSA_HYD>
484.41925

> <Q_VSA_NEG>
0

> <Q_VSA_PNEG>
0

> <Q_VSA_POL>
0

> <Q_VSA_POS>
484.41925

> <Q_VSA_PPOS>
0

> <radius>
8

> <reactive>
0

> <rings>
5

> <RPC+>
0

> <RPC->
0

> <rsynth>
1.0

> <SlogP>
2.830528

> <SlogP_VSA0>
39.145817

> <SlogP_VSA1>
65.468735

> <SlogP_VSA2>
3.9819686

> <SlogP_VSA3>
70.9403

> <SlogP_VSA4>
31.703632

> <SlogP_VSA5>
32.897186

> <SlogP_VSA6>
0.0

> <SlogP_VSA7>
75.289841

> <SlogP_VSA8>
37.736813

> <SlogP_VSA9>
131.62042

> <SMR>
13.34569

> <SMR_VSA0>
47.724434

> <SMR_VSA1>
55.379993

> <SMR_VSA2>
6.2486277

> <SMR_VSA3>
45.884533

> <SMR_VSA4>
41.841301

> <SMR_VSA5>
145.18871

> <SMR_VSA6>
46.967896

> <SMR_VSA7>
99.549217

> <TPSA>
113.48

> <VAdjEq>
0.34185782

> <VAdjMa>
6.2854023

> <VDistEq>
3.6572235

> <VDistMa>
9.9891882

> <vdw_area>
484.41925

> <vdw_vol>
636.7312

> <vsa_acc>
44.181568

> <vsa_acid>
0

> <vsa_base>
0

> <vsa_don>
0.0

> <vsa_hyd>
329.3891

> <vsa_other>
68.452774

> <vsa_pol>
61.924061

> <Weight>
472.55298

> <weinerPath>
3601

> <weinerPol>
64

> <zagreb>
192

$$$$
Row1620
 OpenBabel06061811532D

 32 33  0  0  1  0  0  0  0  0999 V2000
    0.0000    0.0000    0.0000 O   0  0  0  0  0  0  0  0  0  0  0  0
    0.0000    0.0000    0.0000 C   0  0  0  0  0  0  0  0  0  0  0  0
    0.0000    0.0000    0.0000 O   0  0  0  0  0  0  0  0  0  0  0  0
    0.0000    0.0000    0.0000 C   0  0  1  0  0  0  0  0  0  0  0  0
    0.0000    0.0000    0.0000 H   0  0  0  0  0  0  0  0  0  0  0  0
    0.0000    0.0000    0.0000 N   0  0  0  0  0  0  0  0  0  0  0  0
    0.0000    0.0000    0.0000 C   0  0  0  0  0  0  0  0  0  0  0  0
    0.0000    0.0000    0.0000 C   0  0  0  0  0  0  0  0  0  0  0  0
    0.0000    0.0000    0.0000 C   0  0  0  0  0  0  0  0  0  0  0  0
    0.0000    0.0000    0.0000 C   0  0  0  0  0  0  0  0  0  0  0  0
    0.0000    0.0000    0.0000 O   0  0  0  0  0  0  0  0  0  0  0  0
    0.0000    0.0000    0.0000 C   0  0  1  0  0  0  0  0  0  0  0  0
    0.0000    0.0000    0.0000 H   0  0  0  0  0  0  0  0  0  0  0  0
    0.0000    0.0000    0.0000 N   0  0  0  0  0  0  0  0  0  0  0  0
    0.0000    0.0000    0.0000 C   0  0  1  0  0  0  0  0  0  0  0  0
    0.0000    0.0000    0.0000 H   0  0  0  0  0  0  0  0  0  0  0  0
    0.0000    0.0000    0.0000 C   0  0  0  0  0  0  0  0  0  0  0  0
    0.0000    0.0000    0.0000 C   0  0  0  0  0  0  0  0  0  0  0  0
    0.0000    0.0000    0.0000 C   0  0  0  0  0  0  0  0  0  0  0  0
    0.0000    0.0000    0.0000 C   0  0  0  0  0  0  0  0  0  0  0  0
    0.0000    0.0000    0.0000 C   0  0  0  0  0  0  0  0  0  0  0  0
    0.0000    0.0000    0.0000 C   0  0  0  0  0  0  0  0  0  0  0  0
    0.0000    0.0000    0.0000 C   0  0  0  0  0  0  0  0  0  0  0  0
    0.0000    0.0000    0.0000 C   0  0  0  0  0  0  0  0  0  0  0  0
    0.0000    0.0000    0.0000 C   0  0  0  0  0  0  0  0  0  0  0  0
    0.0000    0.0000    0.0000 O   0  0  0  0  0  0  0  0  0  0  0  0
    0.0000    0.0000    0.0000 O   0  0  0  0  0  0  0  0  0  0  0  0
    0.0000    0.0000    0.0000 C   0  0  0  0  0  0  0  0  0  0  0  0
    0.0000    0.0000    0.0000 C   0  0  0  0  0  0  0  0  0  0  0  0
    0.0000    0.0000    0.0000 C   0  0  0  0  0  0  0  0  0  0  0  0
    0.0000    0.0000    0.0000 C   0  0  0  0  0  0  0  0  0  0  0  0
    0.0000    0.0000    0.0000 N   0  0  0  0  0  0  0  0  0  0  0  0
  1  2  1  0  0  0  0
  2  3  2  0  0  0  0
  2  4  1  0  0  0  0
  4  5  1  0  0  0  0
  4  9  1  0  0  0  0
  4  6  1  0  0  0  0
  6  7  1  0  0  0  0
  6 10  1  0  0  0  0
  7  8  1  0  0  0  0
  8  9  1  0  0  0  0
 10 11  2  0  0  0  0
 10 12  1  0  0  0  0
 12 13  1  0  0  0  0
 12 14  1  0  0  0  0
 12 28  1  0  0  0  0
 14 15  1  0  0  0  0
 15 16  1  0  0  0  0
 15 17  1  0  0  0  0
 15 25  1  0  0  0  0
 17 18  1  0  0  0  0
 18 19  1  0  0  0  0
 19 24  1  0  0  0  0
 19 20  2  0  0  0  0
 20 21  1  0  0  0  0
 21 22  2  0  0  0  0
 22 23  1  0  0  0  0
 23 24  2  0  0  0  0
 25 26  1  0  0  0  0
 25 27  2  0  0  0  0
 28 29  1  0  0  0  0
 29 30  1  0  0  0  0
 30 31  1  0  0  0  0
 31 32  1  0  0  0  0
M  END
> <Index>
1621

> <ID>
HT1218

> <class>
1

> <apol>
64.940582

> <ast_fraglike>
0

> <ast_fraglike_ext>
0

> <ast_violation>
3

> <ast_violation_ext>
5

> <a_acc>
7

> <a_acid>
0

> <a_aro>
6

> <a_base>
0

> <a_count>
60

> <a_don>
6

> <a_donacc>
13

> <a_heavy>
29

> <a_hyd>
18

> <a_IC>
92.230156

> <a_ICM>
1.5371692

> <a_nB>
0

> <a_nBr>
0

> <a_nC>
21

> <a_nCl>
0

> <a_nF>
0

> <a_nH>
31

> <a_nI>
0

> <a_nN>
3

> <a_nO>
5

> <a_nP>
0

> <a_nS>
0

> <balabanJ>
1.9896681

> <BCUT_PEOE_0>
-2.6903579

> <BCUT_PEOE_1>
-0.56399167

> <BCUT_PEOE_2>
0.61902338

> <BCUT_PEOE_3>
2.7438712

> <BCUT_SLOGP_0>
-2.8343549

> <BCUT_SLOGP_1>
-0.51809716

> <BCUT_SLOGP_2>
0.68514115

> <BCUT_SLOGP_3>
2.7057617

> <BCUT_SMR_0>
-2.437721

> <BCUT_SMR_1>
-0.42652187

> <BCUT_SMR_2>
0.75967878

> <BCUT_SMR_3>
2.9931087

> <bpol>
38.743416

> <b_1rotN>
13

> <b_1rotR>
0.43333334

> <b_ar>
6

> <b_count>
61

> <b_double>
3

> <b_heavy>
30

> <b_max1len>
11

> <b_rotN>
13

> <b_rotR>
0.43333334

> <b_single>
52

> <b_triple>
0

> <chi0>
21.225405

> <chi0v>
16.626499

> <chi0v_C>
12.982763

> <chi0_C>
13.940947

> <chi1>
13.934759

> <chi1v>
10.198225

> <chi1v_C>
7.3550072

> <chi1_C>
8.4494896

> <chiral>
3

> <chiral_u>
0

> <density>
0.73612088

> <diameter>
13

> <FCharge>
0

> <GCUT_PEOE_0>
-0.84163755

> <GCUT_PEOE_1>
-0.41550836

> <GCUT_PEOE_2>
0.075016983

> <GCUT_PEOE_3>
2.8822875

> <GCUT_SLOGP_0>
-1.3632872

> <GCUT_SLOGP_1>
-0.36215726

> <GCUT_SLOGP_2>
0.14699844

> <GCUT_SLOGP_3>
2.850471

> <GCUT_SMR_0>
-0.52882522

> <GCUT_SMR_1>
-0.23425776

> <GCUT_SMR_2>
0.18125463

> <GCUT_SMR_3>
3.1116936

> <Kier1>
25.262222

> <Kier2>
13.420118

> <Kier3>
8.2152777

> <KierA1>
20.628645

> <KierA2>
10.874729

> <KierA3>
6.6194739

> <KierFlex>
7.7355494

> <lip_acc>
8

> <lip_don>
5

> <lip_druglike>
1

> <lip_violation>
0

> <logP(o/w)>
1.8559999

> <logS>
-2.2959299

> <mr>
11.037318

> <mutagenic>
0

> <nmol>
1

> <opr_brigid>
11

> <opr_leadlike>
1

> <opr_nring>
2

> <opr_nrot>
13

> <opr_violation>
1

> <PC+>
0

> <PC->
0

> <PEOE_PC+>
2.9903426

> <PEOE_PC->
-2.9903426

> <PEOE_RPC+>
0.094433323

> <PEOE_RPC->
0.110386

> <PEOE_VSA+0>
89.969276

> <PEOE_VSA+1>
40.415009

> <PEOE_VSA+2>
29.003

> <PEOE_VSA+3>
0.0

> <PEOE_VSA+4>
33.597878

> <PEOE_VSA+5>
29.416998

> <PEOE_VSA+6>
0.0

> <PEOE_VSA-0>
67.608742

> <PEOE_VSA-1>
69.97583

> <PEOE_VSA-2>
0.0

> <PEOE_VSA-3>
0.0

> <PEOE_VSA-4>
0.0

> <PEOE_VSA-5>
40.837654

> <PEOE_VSA-6>
22.186199

> <PEOE_VSA_FHYD>
0.70204353

> <PEOE_VSA_FNEG>
0.47423974

> <PEOE_VSA_FPNEG>
0.14898883

> <PEOE_VSA_FPOL>
0.29795644

> <PEOE_VSA_FPOS>
0.52576023

> <PEOE_VSA_FPPOS>
0.14896761

> <PEOE_VSA_HYD>
296.97186

> <PEOE_VSA_NEG>
200.60843

> <PEOE_VSA_PNEG>
63.023853

> <PEOE_VSA_POL>
126.03873

> <PEOE_VSA_POS>
222.40216

> <PEOE_VSA_PPOS>
63.014874

> <petitjean>
0.46153846

> <petitjeanSC>
0.85714287

> <Q_PC+>
0

> <Q_PC->
0

> <Q_RPC+>
0

> <Q_RPC->
0

> <Q_VSA_FHYD>
1

> <Q_VSA_FNEG>
0

> <Q_VSA_FPNEG>
0

> <Q_VSA_FPOL>
0

> <Q_VSA_FPOS>
1

> <Q_VSA_FPPOS>
0

> <Q_VSA_HYD>
423.01059

> <Q_VSA_NEG>
0

> <Q_VSA_PNEG>
0

> <Q_VSA_POL>
0

> <Q_VSA_POS>
423.01059

> <Q_VSA_PPOS>
0

> <radius>
7

> <reactive>
0

> <rings>
2

> <RPC+>
0

> <RPC->
0

> <rsynth>
1.0

> <SlogP>
1.23517

> <SlogP_VSA0>
50.90794

> <SlogP_VSA1>
23.874025

> <SlogP_VSA2>
83.532555

> <SlogP_VSA3>
87.649612

> <SlogP_VSA4>
3.185575

> <SlogP_VSA5>
18.868406

> <SlogP_VSA6>
0.0

> <SlogP_VSA7>
88.215919

> <SlogP_VSA8>
113.21043

> <SlogP_VSA9>
0.0

> <SMR>
10.83867

> <SMR_VSA0>
71.586647

> <SMR_VSA1>
3.1243138

> <SMR_VSA2>
68.781204

> <SMR_VSA3>
15.131481

> <SMR_VSA4>
32.897186

> <SMR_VSA5>
220.29475

> <SMR_VSA6>
57.628868

> <SMR_VSA7>
0.0

> <TPSA>
132.96001

> <VAdjEq>
0.37091795

> <VAdjMa>
5.9068904

> <VDistEq>
3.5300453

> <VDistMa>
9.4557533

> <vdw_area>
423.01059

> <vdw_vol>
550.85382

> <vsa_acc>
13.566921

> <vsa_acid>
0

> <vsa_base>
0

> <vsa_don>
0.0

> <vsa_hyd>
252.60814

> <vsa_other>
42.366531

> <vsa_pol>
91.259666

> <Weight>
405.495

> <weinerPath>
2362

> <weinerPol>
40

> <zagreb>
138

$$$$
Row1621
 OpenBabel06061811532D

 30 33  0  0  0  0  0  0  0  0999 V2000
    0.0000    0.0000    0.0000 Cl  0  0  0  0  0  0  0  0  0  0  0  0
    0.0000    0.0000    0.0000 C   0  0  0  0  0  0  0  0  0  0  0  0
    0.0000    0.0000    0.0000 C   0  0  0  0  0  0  0  0  0  0  0  0
    0.0000    0.0000    0.0000 C   0  0  0  0  0  0  0  0  0  0  0  0
    0.0000    0.0000    0.0000 C   0  0  0  0  0  0  0  0  0  0  0  0
    0.0000    0.0000    0.0000 C   0  0  0  0  0  0  0  0  0  0  0  0
    0.0000    0.0000    0.0000 C   0  0  0  0  0  0  0  0  0  0  0  0
    0.0000    0.0000    0.0000 C   0  0  0  0  0  0  0  0  0  0  0  0
    0.0000    0.0000    0.0000 O   0  0  0  0  0  0  0  0  0  0  0  0
    0.0000    0.0000    0.0000 C   0  0  0  0  0  0  0  0  0  0  0  0
    0.0000    0.0000    0.0000 N   0  0  0  0  0  0  0  0  0  0  0  0
    0.0000    0.0000    0.0000 C   0  0  0  0  0  0  0  0  0  0  0  0
    0.0000    0.0000    0.0000 C   0  0  0  0  0  0  0  0  0  0  0  0
    0.0000    0.0000    0.0000 C   0  0  0  0  0  0  0  0  0  0  0  0
    0.0000    0.0000    0.0000 N   0  0  0  0  0  0  0  0  0  0  0  0
    0.0000    0.0000    0.0000 C   0  0  0  0  0  0  0  0  0  0  0  0
    0.0000    0.0000    0.0000 C   0  0  0  0  0  0  0  0  0  0  0  0
    0.0000    0.0000    0.0000 C   0  0  0  0  0  0  0  0  0  0  0  0
    0.0000    0.0000    0.0000 C   0  0  0  0  0  0  0  0  0  0  0  0
    0.0000    0.0000    0.0000 C   0  0  0  0  0  0  0  0  0  0  0  0
    0.0000    0.0000    0.0000 C   0  0  0  0  0  0  0  0  0  0  0  0
    0.0000    0.0000    0.0000 C   0  0  0  0  0  0  0  0  0  0  0  0
    0.0000    0.0000    0.0000 C   0  0  0  0  0  0  0  0  0  0  0  0
    0.0000    0.0000    0.0000 C   0  0  0  0  0  0  0  0  0  0  0  0
    0.0000    0.0000    0.0000 C   0  0  0  0  0  0  0  0  0  0  0  0
    0.0000    0.0000    0.0000 C   0  0  0  0  0  0  0  0  0  0  0  0
    0.0000    0.0000    0.0000 C   0  0  0  0  0  0  0  0  0  0  0  0
    0.0000    0.0000    0.0000 C   0  0  0  0  0  0  0  0  0  0  0  0
    0.0000    0.0000    0.0000 C   0  0  0  0  0  0  0  0  0  0  0  0
    0.0000    0.0000    0.0000 C   0  0  0  0  0  0  0  0  0  0  0  0
  1  2  1  0  0  0  0
  2  7  1  0  0  0  0
  2  3  2  0  0  0  0
  3  4  1  0  0  0  0
  4  5  2  0  0  0  0
  5  6  1  0  0  0  0
  5  8  1  0  0  0  0
  6  7  2  0  0  0  0
  8  9  2  0  0  0  0
  8 10  1  0  0  0  0
 10 11  1  0  0  0  0
 11 12  1  0  0  0  0
 11 30  1  0  0  0  0
 12 13  1  0  0  0  0
 13 14  1  0  0  0  0
 14 15  1  0  0  0  0
 15 21  1  0  0  0  0
 15 16  1  0  0  0  0
 16 29  1  0  0  0  0
 16 17  2  0  0  0  0
 17 18  1  0  0  0  0
 17 26  1  0  0  0  0
 18 19  1  0  0  0  0
 19 20  1  0  0  0  0
 20 25  1  0  0  0  0
 20 21  2  0  0  0  0
 21 22  1  0  0  0  0
 22 23  2  0  0  0  0
 23 24  1  0  0  0  0
 24 25  2  0  0  0  0
 26 27  2  0  0  0  0
 27 28  1  0  0  0  0
 28 29  2  0  0  0  0
M  END
> <Index>
1622

> <ID>
HT1227

> <class>
1

> <apol>
68.945412

> <ast_fraglike>
0

> <ast_fraglike_ext>
0

> <ast_violation>
2

> <ast_violation_ext>
3

> <a_acc>
2

> <a_acid>
0

> <a_aro>
18

> <a_base>
0

> <a_count>
57

> <a_don>
0

> <a_donacc>
2

> <a_heavy>
30

> <a_hyd>
26

> <a_IC>
79.881332

> <a_ICM>
1.4014269

> <a_nB>
0

> <a_nBr>
0

> <a_nC>
26

> <a_nCl>
1

> <a_nF>
0

> <a_nH>
27

> <a_nI>
0

> <a_nN>
2

> <a_nO>
1

> <a_nP>
0

> <a_nS>
0

> <balabanJ>
1.2727584

> <BCUT_PEOE_0>
-2.6548753

> <BCUT_PEOE_1>
-0.57521123

> <BCUT_PEOE_2>
0.62628442

> <BCUT_PEOE_3>
2.5887859

> <BCUT_SLOGP_0>
-2.7275307

> <BCUT_SLOGP_1>
-0.4651204

> <BCUT_SLOGP_2>
0.73054469

> <BCUT_SLOGP_3>
2.6185954

> <BCUT_SMR_0>
-2.3764079

> <BCUT_SMR_1>
-0.43211183

> <BCUT_SMR_2>
0.81735218

> <BCUT_SMR_3>
2.8745306

> <bpol>
34.854588

> <b_1rotN>
7

> <b_1rotR>
0.21212122

> <b_ar>
18

> <b_count>
60

> <b_double>
1

> <b_heavy>
33

> <b_max1len>
6

> <b_rotN>
7

> <b_rotR>
0.21212122

> <b_single>
41

> <b_triple>
0

> <chi0>
20.924074

> <chi0v>
18.107412

> <chi0v_C>
15.670844

> <chi0_C>
17.769375

> <chi1>
14.614194

> <chi1v>
10.900909

> <chi1v_C>
8.2867279

> <chi1_C>
10.990731

> <chiral>
0

> <chiral_u>
0

> <density>
0.70617074

> <diameter>
15

> <FCharge>
0

> <GCUT_PEOE_0>
-0.84955376

> <GCUT_PEOE_1>
-0.38047367

> <GCUT_PEOE_2>
0.061805893

> <GCUT_PEOE_3>
2.8241529

> <GCUT_SLOGP_0>
-0.9613995

> <GCUT_SLOGP_1>
-0.27530771

> <GCUT_SLOGP_2>
0.16057874

> <GCUT_SLOGP_3>
2.9224825

> <GCUT_SMR_0>
-0.51920617

> <GCUT_SMR_1>
-0.19425802

> <GCUT_SMR_2>
0.19566965

> <GCUT_SMR_3>
3.1110978

> <Kier1>
23.168043

> <Kier2>
11.227654

> <Kier3>
6.0810113

> <KierA1>
18.024483

> <KierA2>
8.6544676

> <KierA3>
4.656672

> <KierFlex>
5.1997433

> <lip_acc>
3

> <lip_don>
0

> <lip_druglike>
1

> <lip_violation>
1

> <logP(o/w)>
6.039

> <logS>
-6.28825

> <mr>
12.473859

> <mutagenic>
0

> <nmol>
1

> <opr_brigid>
23

> <opr_leadlike>
1

> <opr_nring>
4

> <opr_nrot>
7

> <opr_violation>
1

> <PC+>
0

> <PC->
0

> <PEOE_PC+>
1.6855803

> <PEOE_PC->
-1.6855803

> <PEOE_RPC+>
0.10501467

> <PEOE_RPC->
0.17685355

> <PEOE_VSA+0>
101.96206

> <PEOE_VSA+1>
72.90773

> <PEOE_VSA+2>
0.0

> <PEOE_VSA+3>
8.458519

> <PEOE_VSA+4>
0.0

> <PEOE_VSA+5>
0.0

> <PEOE_VSA+6>
0.0

> <PEOE_VSA-0>
127.28913

> <PEOE_VSA-1>
103.11137

> <PEOE_VSA-2>
0.0

> <PEOE_VSA-3>
0.0

> <PEOE_VSA-4>
0.0

> <PEOE_VSA-5>
13.566921

> <PEOE_VSA-6>
0.0

> <PEOE_VSA_FHYD>
0.96824932

> <PEOE_VSA_FNEG>
0.57095683

> <PEOE_VSA_FPNEG>
0.03175066

> <PEOE_VSA_FPOL>
0.03175066

> <PEOE_VSA_FPOS>
0.42904314

> <PEOE_VSA_FPPOS>
0.0

> <PEOE_VSA_HYD>
413.72882

> <PEOE_VSA_NEG>
243.96742

> <PEOE_VSA_PNEG>
13.566921

> <PEOE_VSA_POL>
13.566921

> <PEOE_VSA_POS>
183.32831

> <PEOE_VSA_PPOS>
0.0

> <petitjean>
0.46666667

> <petitjeanSC>
0.875

> <Q_PC+>
0

> <Q_PC->
0

> <Q_RPC+>
0

> <Q_RPC->
0

> <Q_VSA_FHYD>
1

> <Q_VSA_FNEG>
0

> <Q_VSA_FPNEG>
0

> <Q_VSA_FPOL>
0

> <Q_VSA_FPOS>
1

> <Q_VSA_FPPOS>
0

> <Q_VSA_HYD>
427.29572

> <Q_VSA_NEG>
0

> <Q_VSA_PNEG>
0

> <Q_VSA_POL>
0

> <Q_VSA_POS>
427.29572

> <Q_VSA_PPOS>
0

> <radius>
8

> <reactive>
1

> <rings>
4

> <RPC+>
0

> <RPC->
0

> <rsynth>
1.0

> <SlogP>
5.7814398

> <SlogP_VSA0>
3.1243138

> <SlogP_VSA1>
8.8119249

> <SlogP_VSA2>
0.0

> <SlogP_VSA3>
55.318733

> <SlogP_VSA4>
33.418941

> <SlogP_VSA5>
70.633995

> <SlogP_VSA6>
3.5006065

> <SlogP_VSA7>
211.71822

> <SlogP_VSA8>
18.868406

> <SlogP_VSA9>
44.66214

> <SMR>
12.51945

> <SMR_VSA0>
23.862217

> <SMR_VSA1>
3.1243138

> <SMR_VSA2>
3.1243138

> <SMR_VSA3>
13.057331

> <SMR_VSA4>
5.513495

> <SMR_VSA5>
268.32343

> <SMR_VSA6>
61.006344

> <SMR_VSA7>
72.04583

> <TPSA>
23.549999

> <VAdjEq>
0.37824166

> <VAdjMa>
6.044394

> <VDistEq>
3.7239358

> <VDistMa>
9.5039434

> <vdw_area>
427.29572

> <vdw_vol>
593.29559

> <vsa_acc>
13.566921

> <vsa_acid>
0

> <vsa_base>
0

> <vsa_don>
0.0

> <vsa_hyd>
386.05182

> <vsa_other>
8.458519

> <vsa_pol>
13.566921

> <Weight>
418.96799

> <weinerPath>
2709

> <weinerPol>
50

> <zagreb>
156

$$$$
Row1622
 OpenBabel06061811532D

 22 24  0  0  0  0  0  0  0  0999 V2000
    0.0000    0.0000    0.0000 Cl  0  0  0  0  0  0  0  0  0  0  0  0
    0.0000    0.0000    0.0000 C   0  0  0  0  0  0  0  0  0  0  0  0
    0.0000    0.0000    0.0000 C   0  0  0  0  0  0  0  0  0  0  0  0
    0.0000    0.0000    0.0000 C   0  0  0  0  0  0  0  0  0  0  0  0
    0.0000    0.0000    0.0000 C   0  0  0  0  0  0  0  0  0  0  0  0
    0.0000    0.0000    0.0000 C   0  0  0  0  0  0  0  0  0  0  0  0
    0.0000    0.0000    0.0000 C   0  0  0  0  0  0  0  0  0  0  0  0
    0.0000    0.0000    0.0000 C   0  0  0  0  0  0  0  0  0  0  0  0
    0.0000    0.0000    0.0000 N   0  0  0  0  0  0  0  0  0  0  0  0
    0.0000    0.0000    0.0000 N   0  0  0  0  0  0  0  0  0  0  0  0
    0.0000    0.0000    0.0000 C   0  0  0  0  0  0  0  0  0  0  0  0
    0.0000    0.0000    0.0000 C   0  0  0  0  0  0  0  0  0  0  0  0
    0.0000    0.0000    0.0000 C   0  0  0  0  0  0  0  0  0  0  0  0
    0.0000    0.0000    0.0000 C   0  0  0  0  0  0  0  0  0  0  0  0
    0.0000    0.0000    0.0000 O   0  0  0  0  0  0  0  0  0  0  0  0
    0.0000    0.0000    0.0000 O   0  0  0  0  0  0  0  0  0  0  0  0
    0.0000    0.0000    0.0000 C   0  0  0  0  0  0  0  0  0  0  0  0
    0.0000    0.0000    0.0000 C   0  0  0  0  0  0  0  0  0  0  0  0
    0.0000    0.0000    0.0000 C   0  0  0  0  0  0  0  0  0  0  0  0
    0.0000    0.0000    0.0000 C   0  0  0  0  0  0  0  0  0  0  0  0
    0.0000    0.0000    0.0000 C   0  0  0  0  0  0  0  0  0  0  0  0
    0.0000    0.0000    0.0000 C   0  0  0  0  0  0  0  0  0  0  0  0
  1  2  1  0  0  0  0
  2  7  1  0  0  0  0
  2  3  2  0  0  0  0
  3  4  1  0  0  0  0
  4  5  2  0  0  0  0
  5  6  1  0  0  0  0
  5  8  1  0  0  0  0
  6  7  2  0  0  0  0
  8 12  1  0  0  0  0
  8  9  2  0  0  0  0
  9 10  1  0  0  0  0
 10 11  1  0  0  0  0
 10 17  1  0  0  0  0
 11 12  2  0  0  0  0
 12 13  1  0  0  0  0
 13 14  1  0  0  0  0
 14 15  1  0  0  0  0
 14 16  2  0  0  0  0
 17 22  1  0  0  0  0
 17 18  2  0  0  0  0
 18 19  1  0  0  0  0
 19 20  2  0  0  0  0
 20 21  1  0  0  0  0
 21 22  2  0  0  0  0
M  END
> <Index>
1623

> <ID>
HT1231

> <class>
1

> <apol>
44.572308

> <ast_fraglike>
0

> <ast_fraglike_ext>
0

> <ast_violation>
2

> <ast_violation_ext>
3

> <a_acc>
3

> <a_acid>
0

> <a_aro>
17

> <a_base>
0

> <a_count>
35

> <a_don>
2

> <a_donacc>
5

> <a_heavy>
22

> <a_hyd>
17

> <a_IC>
57.93232

> <a_ICM>
1.6552092

> <a_nB>
0

> <a_nBr>
0

> <a_nC>
17

> <a_nCl>
1

> <a_nF>
0

> <a_nH>
13

> <a_nI>
0

> <a_nN>
2

> <a_nO>
2

> <a_nP>
0

> <a_nS>
0

> <balabanJ>
1.6341516

> <BCUT_PEOE_0>
-2.2470276

> <BCUT_PEOE_1>
-0.63224399

> <BCUT_PEOE_2>
0.69852895

> <BCUT_PEOE_3>
2.3712716

> <BCUT_SLOGP_0>
-2.3092434

> <BCUT_SLOGP_1>
-0.52412593

> <BCUT_SLOGP_2>
0.80591482

> <BCUT_SLOGP_3>
2.4228005

> <BCUT_SMR_0>
-1.9993937

> <BCUT_SMR_1>
-0.47104445

> <BCUT_SMR_2>
0.85431087

> <BCUT_SMR_3>
2.6419168

> <bpol>
17.569691

> <b_1rotN>
4

> <b_1rotR>
0.16666667

> <b_ar>
17

> <b_count>
37

> <b_double>
1

> <b_heavy>
24

> <b_max1len>
2

> <b_rotN>
4

> <b_rotR>
0.16666667

> <b_single>
19

> <b_triple>
0

> <chi0>
15.526733

> <chi0v>
12.364392

> <chi0v_C>
9.4806099

> <chi0_C>
11.242276

> <chi1>
10.63103

> <chi1v>
7.127923

> <chi1v_C>
5.2278328

> <chi1_C>
7.3409014

> <chiral>
0

> <chiral_u>
0

> <density>
0.78504658

> <diameter>
11

> <FCharge>
0

> <GCUT_PEOE_0>
-0.82592362

> <GCUT_PEOE_1>
-0.39331421

> <GCUT_PEOE_2>
0.081728809

> <GCUT_PEOE_3>
2.4483519

> <GCUT_SLOGP_0>
-0.89087462

> <GCUT_SLOGP_1>
-0.27258492

> <GCUT_SLOGP_2>
0.16445385

> <GCUT_SLOGP_3>
2.5631227

> <GCUT_SMR_0>
-0.45936096

> <GCUT_SMR_1>
-0.21605732

> <GCUT_SMR_2>
0.23266011

> <GCUT_SMR_3>
2.751327

> <Kier1>
16.84375

> <Kier2>
7.7134986

> <Kier3>
4.3083901

> <KierA1>
12.275512

> <KierA2>
5.5296569

> <KierA3>
3.0518236

> <KierFlex>
3.0854259

> <lip_acc>
4

> <lip_don>
1

> <lip_druglike>
1

> <lip_violation>
0

> <logP(o/w)>
3.812

> <logS>
-4.6991301

> <mr>
8.6994362

> <mutagenic>
0

> <nmol>
1

> <opr_brigid>
17

> <opr_leadlike>
1

> <opr_nring>
3

> <opr_nrot>
4

> <opr_violation>
0

> <PC+>
0

> <PC->
0

> <PEOE_PC+>
1.525928

> <PEOE_PC->
-1.525928

> <PEOE_RPC+>
0.17305005

> <PEOE_RPC->
0.21693082

> <PEOE_VSA+0>
34.213512

> <PEOE_VSA+1>
64.754272

> <PEOE_VSA+2>
0.0

> <PEOE_VSA+3>
0.0

> <PEOE_VSA+4>
10.324173

> <PEOE_VSA+5>
14.708499

> <PEOE_VSA+6>
0.0

> <PEOE_VSA-0>
49.019615

> <PEOE_VSA-1>
90.856468

> <PEOE_VSA-2>
0.0

> <PEOE_VSA-3>
9.4210396

> <PEOE_VSA-4>
0.0

> <PEOE_VSA-5>
13.566921

> <PEOE_VSA-6>
7.7675405

> <PEOE_VSA_FHYD>
0.84262699

> <PEOE_VSA_FNEG>
0.57913452

> <PEOE_VSA_FPNEG>
0.072410524

> <PEOE_VSA_FPOL>
0.15737301

> <PEOE_VSA_FPOS>
0.42086551

> <PEOE_VSA_FPPOS>
0.084962487

> <PEOE_VSA_HYD>
248.26491

> <PEOE_VSA_NEG>
170.63158

> <PEOE_VSA_PNEG>
21.334461

> <PEOE_VSA_POL>
46.367134

> <PEOE_VSA_POS>
124.00046

> <PEOE_VSA_PPOS>
25.032671

> <petitjean>
0.45454547

> <petitjeanSC>
0.83333331

> <Q_PC+>
0

> <Q_PC->
0

> <Q_RPC+>
0

> <Q_RPC->
0

> <Q_VSA_FHYD>
1

> <Q_VSA_FNEG>
0

> <Q_VSA_FPNEG>
0

> <Q_VSA_FPOL>
0

> <Q_VSA_FPOS>
1

> <Q_VSA_FPPOS>
0

> <Q_VSA_HYD>
294.63205

> <Q_VSA_NEG>
0

> <Q_VSA_PNEG>
0

> <Q_VSA_POL>
0

> <Q_VSA_POS>
294.63205

> <Q_VSA_PPOS>
0

> <radius>
6

> <reactive>
0

> <rings>
3

> <RPC+>
0

> <RPC->
0

> <rsynth>
1.0

> <SlogP>
3.8197701

> <SlogP_VSA0>
0.0

> <SlogP_VSA1>
26.185041

> <SlogP_VSA2>
23.862217

> <SlogP_VSA3>
25.385227

> <SlogP_VSA4>
3.185575

> <SlogP_VSA5>
18.868406

> <SlogP_VSA6>
3.5006065

> <SlogP_VSA7>
184.70209

> <SlogP_VSA8>
0.0

> <SlogP_VSA9>
39.148643

> <SMR>
8.5349798

> <SMR_VSA0>
23.862217

> <SMR_VSA1>
18.439579

> <SMR_VSA2>
25.385227

> <SMR_VSA3>
6.6861815

> <SMR_VSA4>
8.69907

> <SMR_VSA5>
194.87141

> <SMR_VSA6>
7.7454643

> <SMR_VSA7>
39.148643

> <TPSA>
55.119999

> <VAdjEq>
0.46637034

> <VAdjMa>
5.5849624

> <VDistEq>
3.1918485

> <VDistMa>
8.6401339

> <vdw_area>
294.63205

> <vdw_vol>
398.39163

> <vsa_acc>
9.4210396

> <vsa_acid>
0

> <vsa_base>
0

> <vsa_don>
0.0

> <vsa_hyd>
230.30232

> <vsa_other>
14.708499

> <vsa_pol>
36.554882

> <Weight>
312.75598

> <weinerPath>
1057

> <weinerPol>
31

> <zagreb>
114

$$$$
Row1623
 OpenBabel06061811532D

 27 29  0  0  1  0  0  0  0  0999 V2000
    0.0000    0.0000    0.0000 Cl  0  0  0  0  0  0  0  0  0  0  0  0
    0.0000    0.0000    0.0000 C   0  0  0  0  0  0  0  0  0  0  0  0
    0.0000    0.0000    0.0000 C   0  0  0  0  0  0  0  0  0  0  0  0
    0.0000    0.0000    0.0000 C   0  0  0  0  0  0  0  0  0  0  0  0
    0.0000    0.0000    0.0000 C   0  0  1  0  0  0  0  0  0  0  0  0
    0.0000    0.0000    0.0000 H   0  0  0  0  0  0  0  0  0  0  0  0
    0.0000    0.0000    0.0000 N   0  0  0  0  0  0  0  0  0  0  0  0
    0.0000    0.0000    0.0000 C   0  0  0  0  0  0  0  0  0  0  0  0
    0.0000    0.0000    0.0000 C   0  0  0  0  0  0  0  0  0  0  0  0
    0.0000    0.0000    0.0000 O   0  0  0  0  0  0  0  0  0  0  0  0
    0.0000    0.0000    0.0000 O   0  0  0  0  0  0  0  0  0  0  0  0
    0.0000    0.0000    0.0000 C   0  0  0  0  0  0  0  0  0  0  0  0
    0.0000    0.0000    0.0000 O   0  0  0  0  0  0  0  0  0  0  0  0
    0.0000    0.0000    0.0000 C   0  0  1  0  0  0  0  0  0  0  0  0
    0.0000    0.0000    0.0000 H   0  0  0  0  0  0  0  0  0  0  0  0
    0.0000    0.0000    0.0000 N   0  0  0  0  0  0  0  0  0  0  0  0
    0.0000    0.0000    0.0000 C   0  0  0  0  0  0  0  0  0  0  0  0
    0.0000    0.0000    0.0000 O   0  0  0  0  0  0  0  0  0  0  0  0
    0.0000    0.0000    0.0000 C   0  0  2  0  0  0  0  0  0  0  0  0
    0.0000    0.0000    0.0000 H   0  0  0  0  0  0  0  0  0  0  0  0
    0.0000    0.0000    0.0000 N   0  0  0  0  0  0  0  0  0  0  0  0
    0.0000    0.0000    0.0000 C   0  0  0  0  0  0  0  0  0  0  0  0
    0.0000    0.0000    0.0000 C   0  0  0  0  0  0  0  0  0  0  0  0
    0.0000    0.0000    0.0000 C   0  0  0  0  0  0  0  0  0  0  0  0
    0.0000    0.0000    0.0000 C   0  0  0  0  0  0  0  0  0  0  0  0
    0.0000    0.0000    0.0000 C   0  0  0  0  0  0  0  0  0  0  0  0
    0.0000    0.0000    0.0000 C   0  0  0  0  0  0  0  0  0  0  0  0
  1  2  1  0  0  0  0
  2  8  2  0  0  0  0
  2  3  1  0  0  0  0
  3  4  1  0  0  0  0
  4  5  1  0  0  0  0
  5  6  1  0  0  0  0
  5 14  1  0  0  0  0
  5  7  1  0  0  0  0
  7  8  1  0  0  0  0
  7 12  1  0  0  0  0
  8  9  1  0  0  0  0
  9 10  1  0  0  0  0
  9 11  2  0  0  0  0
 12 13  2  0  0  0  0
 12 14  1  0  0  0  0
 14 15  1  0  0  0  0
 14 16  1  0  0  0  0
 16 17  1  0  0  0  0
 17 18  2  0  0  0  0
 17 19  1  0  0  0  0
 19 20  1  0  0  0  0
 19 21  1  0  0  0  0
 19 22  1  0  0  0  0
 22 27  1  0  0  0  0
 22 23  2  0  0  0  0
 23 24  1  0  0  0  0
 24 25  2  0  0  0  0
 25 26  1  0  0  0  0
 26 27  2  0  0  0  0
M  END
> <Index>
1624

> <ID>
HT1236

> <class>
1

> <apol>
47.516689

> <ast_fraglike>
0

> <ast_fraglike_ext>
0

> <ast_violation>
3

> <ast_violation_ext>
5

> <a_acc>
5

> <a_acid>
0

> <a_aro>
6

> <a_base>
0

> <a_count>
40

> <a_don>
4

> <a_donacc>
9

> <a_heavy>
24

> <a_hyd>
14

> <a_IC>
72.122238

> <a_ICM>
1.8030559

> <a_nB>
0

> <a_nBr>
0

> <a_nC>
16

> <a_nCl>
1

> <a_nF>
0

> <a_nH>
16

> <a_nI>
0

> <a_nN>
3

> <a_nO>
4

> <a_nP>
0

> <a_nS>
0

> <balabanJ>
1.5845311

> <BCUT_PEOE_0>
-2.7494793

> <BCUT_PEOE_1>
-0.64904583

> <BCUT_PEOE_2>
0.67449731

> <BCUT_PEOE_3>
2.7814105

> <BCUT_SLOGP_0>
-2.9321232

> <BCUT_SLOGP_1>
-0.53807992

> <BCUT_SLOGP_2>
0.7120775

> <BCUT_SLOGP_3>
2.7004991

> <BCUT_SMR_0>
-2.4953012

> <BCUT_SMR_1>
-0.43821698

> <BCUT_SMR_2>
0.85431087

> <BCUT_SMR_3>
3.0286355

> <bpol>
22.765312

> <b_1rotN>
4

> <b_1rotR>
0.15384616

> <b_ar>
6

> <b_count>
42

> <b_double>
4

> <b_heavy>
26

> <b_max1len>
3

> <b_rotN>
5

> <b_rotR>
0.1923077

> <b_single>
32

> <b_triple>
0

> <chi0>
17.430357

> <chi0v>
13.363432

> <chi0v_C>
9.0330153

> <chi0_C>
10.1459

> <chi1>
11.413591

> <chi1v>
7.852191

> <chi1v_C>
4.8718438

> <chi1_C>
6.1329932

> <chiral>
3

> <chiral_u>
0

> <density>
0.84010851

> <diameter>
12

> <FCharge>
0

> <GCUT_PEOE_0>
-0.83551121

> <GCUT_PEOE_1>
-0.43957791

> <GCUT_PEOE_2>
0.081180133

> <GCUT_PEOE_3>
2.6341946

> <GCUT_SLOGP_0>
-1.3374579

> <GCUT_SLOGP_1>
-0.34211323

> <GCUT_SLOGP_2>
0.16444275

> <GCUT_SLOGP_3>
2.5999665

> <GCUT_SMR_0>
-0.53721482

> <GCUT_SMR_1>
-0.22842537

> <GCUT_SMR_2>
0.21786568

> <GCUT_SMR_3>
2.884963

> <Kier1>
18.781065

> <Kier2>
7.7091413

> <Kier3>
3.6183696

> <KierA1>
15.061874

> <KierA2>
6.1192751

> <KierA3>
2.8509517

> <KierFlex>
3.8403232

> <lip_acc>
7

> <lip_don>
4

> <lip_druglike>
1

> <lip_violation>
0

> <logP(o/w)>
0.73900002

> <logS>
-3.0683601

> <mr>
8.7651014

> <mutagenic>
0

> <nmol>
1

> <opr_brigid>
15

> <opr_leadlike>
1

> <opr_nring>
3

> <opr_nrot>
4

> <opr_violation>
0

> <PC+>
0

> <PC->
0

> <PEOE_PC+>
2.5249712

> <PEOE_PC->
-2.5249712

> <PEOE_RPC+>
0.12239275

> <PEOE_RPC->
0.13515352

> <PEOE_VSA+0>
21.581291

> <PEOE_VSA+1>
37.269047

> <PEOE_VSA+2>
30.229498

> <PEOE_VSA+3>
8.6190128

> <PEOE_VSA+4>
23.273705

> <PEOE_VSA+5>
12.949531

> <PEOE_VSA+6>
14.708499

> <PEOE_VSA-0>
19.611166

> <PEOE_VSA-1>
90.856468

> <PEOE_VSA-2>
0.0

> <PEOE_VSA-3>
0.0

> <PEOE_VSA-4>
0.0

> <PEOE_VSA-5>
40.700764

> <PEOE_VSA-6>
14.555551

> <PEOE_VSA_FHYD>
0.66220289

> <PEOE_VSA_FNEG>
0.527188

> <PEOE_VSA_FPNEG>
0.17577705

> <PEOE_VSA_FPOL>
0.33779711

> <PEOE_VSA_FPOS>
0.47281197

> <PEOE_VSA_FPPOS>
0.16202004

> <PEOE_VSA_HYD>
208.16649

> <PEOE_VSA_NEG>
165.72395

> <PEOE_VSA_PNEG>
55.256313

> <PEOE_VSA_POL>
106.18805

> <PEOE_VSA_POS>
148.63058

> <PEOE_VSA_PPOS>
50.931732

> <petitjean>
0.5

> <petitjeanSC>
1.0

> <Q_PC+>
0

> <Q_PC->
0

> <Q_RPC+>
0

> <Q_RPC->
0

> <Q_VSA_FHYD>
1

> <Q_VSA_FNEG>
0

> <Q_VSA_FPNEG>
0

> <Q_VSA_FPOL>
0

> <Q_VSA_FPOS>
1

> <Q_VSA_FPPOS>
0

> <Q_VSA_HYD>
314.35452

> <Q_VSA_NEG>
0

> <Q_VSA_PNEG>
0

> <Q_VSA_POL>
0

> <Q_VSA_POS>
314.35452

> <Q_VSA_PPOS>
0

> <radius>
6

> <reactive>
0

> <rings>
3

> <RPC+>
0

> <RPC->
0

> <rsynth>
0.625

> <SlogP>
0.80629998

> <SlogP_VSA0>
50.90794

> <SlogP_VSA1>
21.387344

> <SlogP_VSA2>
79.550583

> <SlogP_VSA3>
25.385227

> <SlogP_VSA4>
3.185575

> <SlogP_VSA5>
6.2573543

> <SlogP_VSA6>
0.0

> <SlogP_VSA7>
88.215919

> <SlogP_VSA8>
41.718781

> <SlogP_VSA9>
39.148643

> <SMR>
8.5794897

> <SMR_VSA0>
71.586647

> <SMR_VSA1>
3.1243138

> <SMR_VSA2>
43.395977

> <SMR_VSA3>
21.388836

> <SMR_VSA4>
32.897186

> <SMR_VSA5>
125.95274

> <SMR_VSA6>
18.263031

> <SMR_VSA7>
39.148643

> <TPSA>
112.73

> <VAdjEq>
0.43739632

> <VAdjMa>
5.7004399

> <VDistEq>
3.3900189

> <VDistMa>
8.8684988

> <vdw_area>
314.35452

> <vdw_vol>
416.34384

> <vsa_acc>
27.133842

> <vsa_acid>
0

> <vsa_base>
0

> <vsa_don>
5.6825762

> <vsa_hyd>
173.7679

> <vsa_other>
40.607563

> <vsa_pol>
77.692749

> <Weight>
349.77399

> <weinerPath>
1383

> <weinerPol>
39

> <zagreb>
128

$$$$
Row1624
 OpenBabel06061811532D

 27 30  0  0  0  0  0  0  0  0999 V2000
    0.0000    0.0000    0.0000 Cl  0  0  0  0  0  0  0  0  0  0  0  0
    0.0000    0.0000    0.0000 C   0  0  0  0  0  0  0  0  0  0  0  0
    0.0000    0.0000    0.0000 C   0  0  0  0  0  0  0  0  0  0  0  0
    0.0000    0.0000    0.0000 C   0  0  0  0  0  0  0  0  0  0  0  0
    0.0000    0.0000    0.0000 C   0  0  0  0  0  0  0  0  0  0  0  0
    0.0000    0.0000    0.0000 C   0  0  0  0  0  0  0  0  0  0  0  0
    0.0000    0.0000    0.0000 C   0  0  0  0  0  0  0  0  0  0  0  0
    0.0000    0.0000    0.0000 C   0  0  0  0  0  0  0  0  0  0  0  0
    0.0000    0.0000    0.0000 C   0  0  0  0  0  0  0  0  0  0  0  0
    0.0000    0.0000    0.0000 N   0  0  0  0  0  0  0  0  0  0  0  0
    0.0000    0.0000    0.0000 C   0  0  0  0  0  0  0  0  0  0  0  0
    0.0000    0.0000    0.0000 C   0  0  0  0  0  0  0  0  0  0  0  0
    0.0000    0.0000    0.0000 C   0  0  0  0  0  0  0  0  0  0  0  0
    0.0000    0.0000    0.0000 C   0  0  0  0  0  0  0  0  0  0  0  0
    0.0000    0.0000    0.0000 C   0  0  0  0  0  0  0  0  0  0  0  0
    0.0000    0.0000    0.0000 C   0  0  0  0  0  0  0  0  0  0  0  0
    0.0000    0.0000    0.0000 C   0  0  0  0  0  0  0  0  0  0  0  0
    0.0000    0.0000    0.0000 C   0  0  0  0  0  0  0  0  0  0  0  0
    0.0000    0.0000    0.0000 C   0  0  0  0  0  0  0  0  0  0  0  0
    0.0000    0.0000    0.0000 N   0  0  0  0  0  0  0  0  0  0  0  0
    0.0000    0.0000    0.0000 C   0  0  0  0  0  0  0  0  0  0  0  0
    0.0000    0.0000    0.0000 C   0  0  0  0  0  0  0  0  0  0  0  0
    0.0000    0.0000    0.0000 C   0  0  0  0  0  0  0  0  0  0  0  0
    0.0000    0.0000    0.0000 O   0  0  0  0  0  0  0  0  0  0  0  0
    0.0000    0.0000    0.0000 C   0  0  0  0  0  0  0  0  0  0  0  0
    0.0000    0.0000    0.0000 C   0  0  0  0  0  0  0  0  0  0  0  0
    0.0000    0.0000    0.0000 O   0  0  0  0  0  0  0  0  0  0  0  0
  1  2  1  0  0  0  0
  2  7  1  0  0  0  0
  2  3  2  0  0  0  0
  3  4  1  0  0  0  0
  4 16  1  0  0  0  0
  4  5  2  0  0  0  0
  5  6  1  0  0  0  0
  5  8  1  0  0  0  0
  6  7  2  0  0  0  0
  8  9  1  0  0  0  0
  8 17  2  0  0  0  0
  9 14  1  0  0  0  0
  9 10  2  0  0  0  0
 10 11  1  0  0  0  0
 11 12  2  0  0  0  0
 12 13  1  0  0  0  0
 13 14  2  0  0  0  0
 14 15  1  0  0  0  0
 15 16  1  0  0  0  0
 17 22  1  0  0  0  0
 17 18  1  0  0  0  0
 18 19  1  0  0  0  0
 19 20  1  0  0  0  0
 20 21  1  0  0  0  0
 20 23  1  0  0  0  0
 21 22  1  0  0  0  0
 23 24  1  0  0  0  0
 23 27  2  0  0  0  0
 24 25  1  0  0  0  0
 25 26  1  0  0  0  0
M  END
> <Index>
1625

> <ID>
HT1237

> <class>
1

> <apol>
60.040237

> <ast_fraglike>
0

> <ast_fraglike_ext>
0

> <ast_violation>
2

> <ast_violation_ext>
2

> <a_acc>
2

> <a_acid>
0

> <a_aro>
12

> <a_base>
0

> <a_count>
50

> <a_don>
0

> <a_donacc>
2

> <a_heavy>
27

> <a_hyd>
22

> <a_IC>
76.043388

> <a_ICM>
1.5208678

> <a_nB>
0

> <a_nBr>
0

> <a_nC>
22

> <a_nCl>
1

> <a_nF>
0

> <a_nH>
23

> <a_nI>
0

> <a_nN>
2

> <a_nO>
2

> <a_nP>
0

> <a_nS>
0

> <balabanJ>
1.4903163

> <BCUT_PEOE_0>
-2.6812871

> <BCUT_PEOE_1>
-0.5199042

> <BCUT_PEOE_2>
0.54333282

> <BCUT_PEOE_3>
2.6337402

> <BCUT_SLOGP_0>
-2.7190635

> <BCUT_SLOGP_1>
-0.32990497

> <BCUT_SLOGP_2>
0.70933062

> <BCUT_SLOGP_3>
2.6602275

> <BCUT_SMR_0>
-2.4089861

> <BCUT_SMR_1>
-0.27412891

> <BCUT_SMR_2>
0.77051264

> <BCUT_SMR_3>
2.903801

> <bpol>
31.737761

> <b_1rotN>
2

> <b_1rotR>
0.06666667

> <b_ar>
12

> <b_count>
53

> <b_double>
2

> <b_heavy>
30

> <b_max1len>
3

> <b_rotN>
3

> <b_rotR>
0.1

> <b_single>
39

> <b_triple>
0

> <chi0>
18.802753

> <chi0v>
16.258667

> <chi0v_C>
13.413849

> <chi0_C>
14.811191

> <chi1>
13.169035

> <chi1v>
9.9164343

> <chi1v_C>
7.3146958

> <chi1_C>
9.048008

> <chiral>
0

> <chiral_u>
0

> <density>
0.74276459

> <diameter>
13

> <FCharge>
0

> <GCUT_PEOE_0>
-0.82861358

> <GCUT_PEOE_1>
-0.37280524

> <GCUT_PEOE_2>
0.011255102

> <GCUT_PEOE_3>
2.8369174

> <GCUT_SLOGP_0>
-0.95879191

> <GCUT_SLOGP_1>
-0.27813795

> <GCUT_SLOGP_2>
0.13196869

> <GCUT_SLOGP_3>
2.9225769

> <GCUT_SMR_0>
-0.51622021

> <GCUT_SMR_1>
-0.15065485

> <GCUT_SMR_2>
0.19021273

> <GCUT_SMR_3>
3.1130643

> <Kier1>
20.280001

> <Kier2>
9.212018

> <Kier3>
4.4518433

> <KierA1>
16.249695

> <KierA2>
7.3144426

> <KierA3>
3.5109806

> <KierFlex>
4.4021282

> <lip_acc>
4

> <lip_don>
0

> <lip_druglike>
1

> <lip_violation>
0

> <logP(o/w)>
3.8989999

> <logS>
-4.1960502

> <mr>
10.851775

> <mutagenic>
0

> <nmol>
1

> <opr_brigid>
24

> <opr_leadlike>
1

> <opr_nring>
4

> <opr_nrot>
3

> <opr_violation>
1

> <PC+>
0

> <PC->
0

> <PEOE_PC+>
1.6652632

> <PEOE_PC->
-1.6652632

> <PEOE_RPC+>
0.21814933

> <PEOE_RPC->
0.19082262

> <PEOE_VSA+0>
113.83964

> <PEOE_VSA+1>
55.773933

> <PEOE_VSA+2>
0.0

> <PEOE_VSA+3>
0.0

> <PEOE_VSA+4>
0.0

> <PEOE_VSA+5>
0.0

> <PEOE_VSA+6>
19.199511

> <PEOE_VSA-0>
96.94326

> <PEOE_VSA-1>
56.300293

> <PEOE_VSA-2>
0.0

> <PEOE_VSA-3>
0.0

> <PEOE_VSA-4>
13.566921

> <PEOE_VSA-5>
8.1863317

> <PEOE_VSA-6>
0.0

> <PEOE_VSA_FHYD>
0.88743359

> <PEOE_VSA_FNEG>
0.48101169

> <PEOE_VSA_FPNEG>
0.059792913

> <PEOE_VSA_FPOL>
0.11256638

> <PEOE_VSA_FPOS>
0.51898831

> <PEOE_VSA_FPPOS>
0.052773472

> <PEOE_VSA_HYD>
322.85712

> <PEOE_VSA_NEG>
174.99681

> <PEOE_VSA_PNEG>
21.753254

> <PEOE_VSA_POL>
40.952763

> <PEOE_VSA_POS>
188.81308

> <PEOE_VSA_PPOS>
19.199511

> <petitjean>
0.46153846

> <petitjeanSC>
0.85714287

> <Q_PC+>
0

> <Q_PC->
0

> <Q_RPC+>
0

> <Q_RPC->
0

> <Q_VSA_FHYD>
1

> <Q_VSA_FNEG>
0

> <Q_VSA_FPNEG>
0

> <Q_VSA_FPOL>
0

> <Q_VSA_FPOS>
1

> <Q_VSA_FPPOS>
0

> <Q_VSA_HYD>
363.80991

> <Q_VSA_NEG>
0

> <Q_VSA_PNEG>
0

> <Q_VSA_POL>
0

> <Q_VSA_POS>
363.80991

> <Q_VSA_PPOS>
0

> <radius>
7

> <reactive>
0

> <rings>
4

> <RPC+>
0

> <RPC->
0

> <rsynth>
1.0

> <SlogP>
4.70503

> <SlogP_VSA0>
0.0

> <SlogP_VSA1>
27.22648

> <SlogP_VSA2>
10.999887

> <SlogP_VSA3>
60.99099

> <SlogP_VSA4>
12.313473

> <SlogP_VSA5>
40.922386

> <SlogP_VSA6>
3.5006065

> <SlogP_VSA7>
105.43027

> <SlogP_VSA8>
37.736813

> <SlogP_VSA9>
96.336876

> <SMR>
10.5886

> <SMR_VSA0>
34.862103

> <SMR_VSA1>
19.909843

> <SMR_VSA2>
3.185575

> <SMR_VSA3>
18.999655

> <SMR_VSA4>
0.0

> <SMR_VSA5>
180.9039

> <SMR_VSA6>
65.122055

> <SMR_VSA7>
72.474655

> <TPSA>
42.43

> <VAdjEq>
0.41024774

> <VAdjMa>
5.9068904

> <VDistEq>
3.3899591

> <VDistMa>
9.2298813

> <vdw_area>
363.80991

> <vdw_vol>
515.49438

> <vsa_acc>
19.249496

> <vsa_acid>
0

> <vsa_base>
0

> <vsa_don>
0.0

> <vsa_hyd>
306.48584

> <vsa_other>
21.703266

> <vsa_pol>
19.249496

> <Weight>
382.89099

> <weinerPath>
1772

> <weinerPol>
49

> <zagreb>
144

$$$$
Row1625
 OpenBabel06061811532D

 31 34  0  0  0  0  0  0  0  0999 V2000
    0.0000    0.0000    0.0000 Cl  0  0  0  0  0  0  0  0  0  0  0  0
    0.0000    0.0000    0.0000 C   0  0  0  0  0  0  0  0  0  0  0  0
    0.0000    0.0000    0.0000 N   0  0  0  0  0  0  0  0  0  0  0  0
    0.0000    0.0000    0.0000 C   0  0  0  0  0  0  0  0  0  0  0  0
    0.0000    0.0000    0.0000 N   0  0  0  0  0  0  0  0  0  0  0  0
    0.0000    0.0000    0.0000 C   0  0  0  0  0  0  0  0  0  0  0  0
    0.0000    0.0000    0.0000 C   0  0  0  0  0  0  0  0  0  0  0  0
    0.0000    0.0000    0.0000 C   0  0  0  0  0  0  0  0  0  0  0  0
    0.0000    0.0000    0.0000 C   0  0  0  0  0  0  0  0  0  0  0  0
    0.0000    0.0000    0.0000 C   0  0  0  0  0  0  0  0  0  0  0  0
    0.0000    0.0000    0.0000 C   0  0  0  0  0  0  0  0  0  0  0  0
    0.0000    0.0000    0.0000 C   0  0  0  0  0  0  0  0  0  0  0  0
    0.0000    0.0000    0.0000 C   0  0  0  0  0  0  0  0  0  0  0  0
    0.0000    0.0000    0.0000 C   0  0  0  0  0  0  0  0  0  0  0  0
    0.0000    0.0000    0.0000 C   0  0  0  0  0  0  0  0  0  0  0  0
    0.0000    0.0000    0.0000 C   0  0  0  0  0  0  0  0  0  0  0  0
    0.0000    0.0000    0.0000 C   0  0  0  0  0  0  0  0  0  0  0  0
    0.0000    0.0000    0.0000 C   0  0  0  0  0  0  0  0  0  0  0  0
    0.0000    0.0000    0.0000 C   0  0  0  0  0  0  0  0  0  0  0  0
    0.0000    0.0000    0.0000 N   0  0  0  0  0  0  0  0  0  0  0  0
    0.0000    0.0000    0.0000 N   0  0  0  0  0  0  0  0  0  0  0  0
    0.0000    0.0000    0.0000 N   0  0  0  0  0  0  0  0  0  0  0  0
    0.0000    0.0000    0.0000 H   0  0  0  0  0  0  0  0  0  0  0  0
    0.0000    0.0000    0.0000 N   0  0  0  0  0  0  0  0  0  0  0  0
    0.0000    0.0000    0.0000 C   0  0  0  0  0  0  0  0  0  0  0  0
    0.0000    0.0000    0.0000 C   0  0  0  0  0  0  0  0  0  0  0  0
    0.0000    0.0000    0.0000 O   0  0  0  0  0  0  0  0  0  0  0  0
    0.0000    0.0000    0.0000 C   0  0  0  0  0  0  0  0  0  0  0  0
    0.0000    0.0000    0.0000 C   0  0  0  0  0  0  0  0  0  0  0  0
    0.0000    0.0000    0.0000 C   0  0  0  0  0  0  0  0  0  0  0  0
    0.0000    0.0000    0.0000 C   0  0  0  0  0  0  0  0  0  0  0  0
  1  2  1  0  0  0  0
  2 25  2  0  0  0  0
  2  3  1  0  0  0  0
  3  4  2  0  0  0  0
  4  5  1  0  0  0  0
  4 28  1  0  0  0  0
  5  6  1  0  0  0  0
  5 25  1  0  0  0  0
  6  7  1  0  0  0  0
  7 12  1  0  0  0  0
  7  8  2  0  0  0  0
  8  9  1  0  0  0  0
  9 10  2  0  0  0  0
 10 11  1  0  0  0  0
 10 13  1  0  0  0  0
 11 12  2  0  0  0  0
 13 18  1  0  0  0  0
 13 14  2  0  0  0  0
 14 15  1  0  0  0  0
 15 16  2  0  0  0  0
 16 17  1  0  0  0  0
 17 18  2  0  0  0  0
 18 19  1  0  0  0  0
 19 24  2  0  0  0  0
 19 20  1  0  0  0  0
 20 21  2  0  0  0  0
 21 22  1  0  0  0  0
 22 23  1  0  0  0  0
 22 24  1  0  0  0  0
 25 26  1  0  0  0  0
 26 27  1  0  0  0  0
 28 29  1  0  0  0  0
 29 30  1  0  0  0  0
 30 31  1  0  0  0  0
M  END
> <Index>
1626

> <ID>
HT1243

> <class>
1

> <apol>
63.638241

> <ast_fraglike>
0

> <ast_fraglike_ext>
0

> <ast_violation>
3

> <ast_violation_ext>
5

> <a_acc>
6

> <a_acid>
0

> <a_aro>
22

> <a_base>
0

> <a_count>
53

> <a_don>
3

> <a_donacc>
9

> <a_heavy>
30

> <a_hyd>
20

> <a_IC>
85.920586

> <a_ICM>
1.6211432

> <a_nB>
0

> <a_nBr>
0

> <a_nC>
22

> <a_nCl>
1

> <a_nF>
0

> <a_nH>
23

> <a_nI>
0

> <a_nN>
6

> <a_nO>
1

> <a_nP>
0

> <a_nS>
0

> <balabanJ>
1.3100702

> <BCUT_PEOE_0>
-2.5792813

> <BCUT_PEOE_1>
-0.61317658

> <BCUT_PEOE_2>
0.6284675

> <BCUT_PEOE_3>
2.5448997

> <BCUT_SLOGP_0>
-2.4651465

> <BCUT_SLOGP_1>
-0.50850284

> <BCUT_SLOGP_2>
0.68839467

> <BCUT_SLOGP_3>
2.6671848

> <BCUT_SMR_0>
-2.3360488

> <BCUT_SMR_1>
-0.46926352

> <BCUT_SMR_2>
0.84058213

> <BCUT_SMR_3>
2.7942753

> <bpol>
29.523762

> <b_1rotN>
8

> <b_1rotR>
0.24242425

> <b_ar>
22

> <b_count>
56

> <b_double>
0

> <b_heavy>
33

> <b_max1len>
5

> <b_rotN>
8

> <b_rotR>
0.24242425

> <b_single>
34

> <b_triple>
0

> <chi0>
20.924074

> <chi0v>
17.471512

> <chi0v_C>
13.154336

> <chi0_C>
14.811191

> <chi1>
14.70704

> <chi1v>
10.354741

> <chi1v_C>
7.1664844

> <chi1_C>
9.2146749

> <chiral>
0

> <chiral_u>
0

> <density>
0.76286602

> <diameter>
15

> <FCharge>
0

> <GCUT_PEOE_0>
-0.83922309

> <GCUT_PEOE_1>
-0.38021898

> <GCUT_PEOE_2>
0.057041351

> <GCUT_PEOE_3>
2.6687944

> <GCUT_SLOGP_0>
-0.96363866

> <GCUT_SLOGP_1>
-0.31038421

> <GCUT_SLOGP_2>
0.13057163

> <GCUT_SLOGP_3>
2.7974291

> <GCUT_SMR_0>
-0.52925545

> <GCUT_SMR_1>
-0.20530762

> <GCUT_SMR_2>
0.23413445

> <GCUT_SMR_3>
2.9540479

> <Kier1>
23.168043

> <Kier2>
11.227654

> <Kier3>
5.5067639

> <KierA1>
17.449299

> <KierA2>
8.367775

> <KierA3>
4.073596

> <KierFlex>
4.8670602

> <lip_acc>
7

> <lip_don>
2

> <lip_druglike>
1

> <lip_violation>
0

> <logP(o/w)>
5.4180002

> <logS>
-6.90762

> <mr>
11.891712

> <mutagenic>
0

> <nmol>
1

> <opr_brigid>
22

> <opr_leadlike>
1

> <opr_nring>
4

> <opr_nrot>
8

> <opr_violation>
1

> <PC+>
0

> <PC->
0

> <PEOE_PC+>
2.1240759

> <PEOE_PC->
-2.1240759

> <PEOE_RPC+>
0.10089302

> <PEOE_RPC->
0.18307553

> <PEOE_VSA+0>
62.49065

> <PEOE_VSA+1>
72.83548

> <PEOE_VSA+2>
11.190562

> <PEOE_VSA+3>
9.0107584

> <PEOE_VSA+4>
30.133749

> <PEOE_VSA+5>
0.0

> <PEOE_VSA+6>
0.0

> <PEOE_VSA-0>
28.486435

> <PEOE_VSA-1>
155.07018

> <PEOE_VSA-2>
18.842079

> <PEOE_VSA-3>
7.6138182

> <PEOE_VSA-4>
5.6825762

> <PEOE_VSA-5>
0.0

> <PEOE_VSA-6>
7.7675405

> <PEOE_VSA_FHYD>
0.89347023

> <PEOE_VSA_FNEG>
0.54619801

> <PEOE_VSA_FPNEG>
0.032875419

> <PEOE_VSA_FPOL>
0.10652976

> <PEOE_VSA_FPOS>
0.45380199

> <PEOE_VSA_FPPOS>
0.073654346

> <PEOE_VSA_HYD>
365.53995

> <PEOE_VSA_NEG>
223.46262

> <PEOE_VSA_PNEG>
13.450116

> <PEOE_VSA_POL>
43.583866

> <PEOE_VSA_POS>
185.66119

> <PEOE_VSA_PPOS>
30.133749

> <petitjean>
0.46666667

> <petitjeanSC>
0.875

> <Q_PC+>
0

> <Q_PC->
0

> <Q_RPC+>
0

> <Q_RPC->
0

> <Q_VSA_FHYD>
1

> <Q_VSA_FNEG>
0

> <Q_VSA_FPNEG>
0

> <Q_VSA_FPOL>
0

> <Q_VSA_FPOS>
1

> <Q_VSA_FPPOS>
0

> <Q_VSA_HYD>
409.12381

> <Q_VSA_NEG>
0

> <Q_VSA_PNEG>
0

> <Q_VSA_POL>
0

> <Q_VSA_POS>
409.12381

> <Q_VSA_PPOS>
0

> <radius>
8

> <reactive>
0

> <rings>
4

> <RPC+>
0

> <RPC->
0

> <rsynth>
1.0

> <SlogP>
4.7995701

> <SlogP_VSA0>
25.385227

> <SlogP_VSA1>
68.551125

> <SlogP_VSA2>
16.540485

> <SlogP_VSA3>
0.0

> <SlogP_VSA4>
8.2702427

> <SlogP_VSA5>
18.868406

> <SlogP_VSA6>
3.0717793

> <SlogP_VSA7>
153.03012

> <SlogP_VSA8>
37.736813

> <SlogP_VSA9>
111.84049

> <SMR>
11.63335

> <SMR_VSA0>
0.0

> <SMR_VSA1>
93.936348

> <SMR_VSA2>
16.540485

> <SMR_VSA3>
11.342022

> <SMR_VSA4>
11.884645

> <SMR_VSA5>
237.11653

> <SMR_VSA6>
0.0

> <SMR_VSA7>
72.474655

> <TPSA>
92.510002

> <VAdjEq>
0.37824166

> <VAdjMa>
6.044394

> <VDistEq>
3.6918509

> <VDistMa>
9.5100803

> <vdw_area>
409.12381

> <vdw_vol>
554.38306

> <vsa_acc>
28.263119

> <vsa_acid>
0

> <vsa_base>
0

> <vsa_don>
0.0

> <vsa_hyd>
290.77551

> <vsa_other>
31.391884

> <vsa_pol>
64.410583

> <Weight>
422.91998

> <weinerPath>
2665

> <weinerPol>
46

> <zagreb>
156

$$$$
Row1626
 OpenBabel06061811532D

 37 39  0  0  1  0  0  0  0  0999 V2000
    0.0000    0.0000    0.0000 O   0  0  0  0  0  0  0  0  0  0  0  0
    0.0000    0.0000    0.0000 C   0  0  1  0  0  0  0  0  0  0  0  0
    0.0000    0.0000    0.0000 H   0  0  0  0  0  0  0  0  0  0  0  0
    0.0000    0.0000    0.0000 C   0  0  0  0  0  0  0  0  0  0  0  0
    0.0000    0.0000    0.0000 C   0  0  1  0  0  0  0  0  0  0  0  0
    0.0000    0.0000    0.0000 H   0  0  0  0  0  0  0  0  0  0  0  0
    0.0000    0.0000    0.0000 O   0  0  0  0  0  0  0  0  0  0  0  0
    0.0000    0.0000    0.0000 C   0  0  0  0  0  0  0  0  0  0  0  0
    0.0000    0.0000    0.0000 C   0  0  0  0  0  0  0  0  0  0  0  0
    0.0000    0.0000    0.0000 O   0  0  0  0  0  0  0  0  0  0  0  0
    0.0000    0.0000    0.0000 C   0  0  0  0  0  0  0  0  0  0  0  0
    0.0000    0.0000    0.0000 C   0  0  0  0  0  0  0  0  0  0  0  0
    0.0000    0.0000    0.0000 C   0  0  2  0  0  0  0  0  0  0  0  0
    0.0000    0.0000    0.0000 H   0  0  0  0  0  0  0  0  0  0  0  0
    0.0000    0.0000    0.0000 C   0  0  2  0  0  0  0  0  0  0  0  0
    0.0000    0.0000    0.0000 H   0  0  0  0  0  0  0  0  0  0  0  0
    0.0000    0.0000    0.0000 C   0  0  0  0  0  0  0  0  0  0  0  0
    0.0000    0.0000    0.0000 C   0  0  0  0  0  0  0  0  0  0  0  0
    0.0000    0.0000    0.0000 C   0  0  1  0  0  0  0  0  0  0  0  0
    0.0000    0.0000    0.0000 H   0  0  0  0  0  0  0  0  0  0  0  0
    0.0000    0.0000    0.0000 C   0  0  0  0  0  0  0  0  0  0  0  0
    0.0000    0.0000    0.0000 C   0  0  2  0  0  0  0  0  0  0  0  0
    0.0000    0.0000    0.0000 H   0  0  0  0  0  0  0  0  0  0  0  0
    0.0000    0.0000    0.0000 O   0  0  0  0  0  0  0  0  0  0  0  0
    0.0000    0.0000    0.0000 C   0  0  0  0  0  0  0  0  0  0  0  0
    0.0000    0.0000    0.0000 O   0  0  0  0  0  0  0  0  0  0  0  0
    0.0000    0.0000    0.0000 C   0  0  2  0  0  0  0  0  0  0  0  0
    0.0000    0.0000    0.0000 H   0  0  0  0  0  0  0  0  0  0  0  0
    0.0000    0.0000    0.0000 C   0  0  0  0  0  0  0  0  0  0  0  0
    0.0000    0.0000    0.0000 C   0  0  0  0  0  0  0  0  0  0  0  0
    0.0000    0.0000    0.0000 C   0  0  0  0  0  0  0  0  0  0  0  0
    0.0000    0.0000    0.0000 C   0  0  0  0  0  0  0  0  0  0  0  0
    0.0000    0.0000    0.0000 C   0  0  0  0  0  0  0  0  0  0  0  0
    0.0000    0.0000    0.0000 C   0  0  0  0  0  0  0  0  0  0  0  0
    0.0000    0.0000    0.0000 C   0  0  2  0  0  0  0  0  0  0  0  0
    0.0000    0.0000    0.0000 H   0  0  0  0  0  0  0  0  0  0  0  0
    0.0000    0.0000    0.0000 C   0  0  0  0  0  0  0  0  0  0  0  0
  1  9  1  0  0  0  0
  1  2  1  0  0  0  0
  2  3  1  0  0  0  0
  2  4  1  0  0  0  0
  2 11  1  0  0  0  0
  4  5  1  0  0  0  0
  5  6  1  0  0  0  0
  5  7  1  0  0  0  0
  5  8  1  0  0  0  0
  8  9  1  0  0  0  0
  9 10  2  0  0  0  0
 11 12  1  0  0  0  0
 12 13  1  0  0  0  0
 13 14  1  0  0  0  0
 13 35  1  0  0  0  0
 13 15  1  0  0  0  0
 15 16  1  0  0  0  0
 15 22  1  0  0  0  0
 15 17  1  0  0  0  0
 17 18  2  0  0  0  0
 17 33  1  0  0  0  0
 18 19  1  0  0  0  0
 19 20  1  0  0  0  0
 19 21  1  0  0  0  0
 19 32  1  0  0  0  0
 21 22  1  0  0  0  0
 22 23  1  0  0  0  0
 22 24  1  0  0  0  0
 24 25  1  0  0  0  0
 25 26  2  0  0  0  0
 25 27  1  0  0  0  0
 27 28  1  0  0  0  0
 27 29  1  0  0  0  0
 27 31  1  0  0  0  0
 29 30  1  0  0  0  0
 33 34  2  0  0  0  0
 34 35  1  0  0  0  0
 35 36  1  0  0  0  0
 35 37  1  0  0  0  0
M  END
> <Index>
1627

> <ID>
HT1245

> <class>
1

> <apol>
70.254547

> <ast_fraglike>
0

> <ast_fraglike_ext>
0

> <ast_violation>
2

> <ast_violation_ext>
3

> <a_acc>
3

> <a_acid>
0

> <a_aro>
0

> <a_base>
0

> <a_count>
65

> <a_don>
1

> <a_donacc>
4

> <a_heavy>
29

> <a_hyd>
22

> <a_IC>
83.687866

> <a_ICM>
1.2875056

> <a_nB>
0

> <a_nBr>
0

> <a_nC>
24

> <a_nCl>
0

> <a_nF>
0

> <a_nH>
36

> <a_nI>
0

> <a_nN>
0

> <a_nO>
5

> <a_nP>
0

> <a_nS>
0

> <balabanJ>
1.6834055

> <BCUT_PEOE_0>
-2.8231277

> <BCUT_PEOE_1>
-0.49690759

> <BCUT_PEOE_2>
0.56487781

> <BCUT_PEOE_3>
2.8041193

> <BCUT_SLOGP_0>
-2.7874877

> <BCUT_SLOGP_1>
-0.46106943

> <BCUT_SLOGP_2>
0.55501044

> <BCUT_SLOGP_3>
2.8566062

> <BCUT_SMR_0>
-2.5744784

> <BCUT_SMR_1>
-0.38365576

> <BCUT_SMR_2>
0.65576065

> <BCUT_SMR_3>
3.0530977

> <bpol>
45.103451

> <b_1rotN>
6

> <b_1rotR>
0.19354838

> <b_ar>
0

> <b_count>
67

> <b_double>
4

> <b_heavy>
31

> <b_max1len>
5

> <b_rotN>
7

> <b_rotR>
0.22580644

> <b_single>
63

> <b_triple>
0

> <chi0>
21.129028

> <chi0v>
18.1737

> <chi0v_C>
16.093494

> <chi0_C>
16.714813

> <chi1>
13.778096

> <chi1v>
11.259498

> <chi1v_C>
9.713398

> <chi1_C>
10.413052

> <chiral>
8

> <chiral_u>
0

> <density>
0.69881129

> <diameter>
13

> <FCharge>
0

> <GCUT_PEOE_0>
-0.79550207

> <GCUT_PEOE_1>
-0.36795142

> <GCUT_PEOE_2>
0.049645074

> <GCUT_PEOE_3>
3.1030049

> <GCUT_SLOGP_0>
-0.87573683

> <GCUT_SLOGP_1>
-0.29109639

> <GCUT_SLOGP_2>
0.077497445

> <GCUT_SLOGP_3>
3.1648967

> <GCUT_SMR_0>
-0.53533542

> <GCUT_SMR_1>
-0.21560857

> <GCUT_SMR_2>
0.14959437

> <GCUT_SMR_3>
3.3314013

> <Kier1>
23.658689

> <Kier2>
10.543388

> <Kier3>
6.0357141

> <KierA1>
20.961767

> <KierA2>
9.2993469

> <KierA3>
5.3058376

> <KierFlex>
6.7217503

> <lip_acc>
5

> <lip_don>
1

> <lip_druglike>
1

> <lip_violation>
0

> <logP(o/w)>
4.0640001

> <logS>
-4.2277498

> <mr>
11.266318

> <mutagenic>
0

> <nmol>
1

> <opr_brigid>
17

> <opr_leadlike>
1

> <opr_nring>
3

> <opr_nrot>
7

> <opr_violation>
0

> <PC+>
0

> <PC->
0

> <PEOE_PC+>
2.2513576

> <PEOE_PC->
-2.2513576

> <PEOE_RPC+>
0.11782711

> <PEOE_RPC->
0.17376204

> <PEOE_VSA+0>
132.39751

> <PEOE_VSA+1>
49.008415

> <PEOE_VSA+2>
0.0

> <PEOE_VSA+3>
0.0

> <PEOE_VSA+4>
10.324173

> <PEOE_VSA+5>
29.416998

> <PEOE_VSA+6>
0.0

> <PEOE_VSA-0>
37.013794

> <PEOE_VSA-1>
111.75542

> <PEOE_VSA-2>
0.0

> <PEOE_VSA-3>
0.0

> <PEOE_VSA-4>
0.0

> <PEOE_VSA-5>
27.133842

> <PEOE_VSA-6>
12.775052

> <PEOE_VSA_FHYD>
0.80564868

> <PEOE_VSA_FNEG>
0.46038678

> <PEOE_VSA_FPNEG>
0.09738028

> <PEOE_VSA_FPOL>
0.19435132

> <PEOE_VSA_FPOS>
0.53961319

> <PEOE_VSA_FPPOS>
0.096971028

> <PEOE_VSA_HYD>
330.17514

> <PEOE_VSA_NEG>
188.67812

> <PEOE_VSA_PNEG>
39.908894

> <PEOE_VSA_POL>
79.650063

> <PEOE_VSA_POS>
221.14709

> <PEOE_VSA_PPOS>
39.741173

> <petitjean>
0.46153846

> <petitjeanSC>
0.85714287

> <Q_PC+>
0

> <Q_PC->
0

> <Q_RPC+>
0

> <Q_RPC->
0

> <Q_VSA_FHYD>
1

> <Q_VSA_FNEG>
0

> <Q_VSA_FPNEG>
0

> <Q_VSA_FPOL>
0

> <Q_VSA_FPOS>
1

> <Q_VSA_FPPOS>
0

> <Q_VSA_HYD>
409.8252

> <Q_VSA_NEG>
0

> <Q_VSA_PNEG>
0

> <Q_VSA_POL>
0

> <Q_VSA_POS>
409.8252

> <Q_VSA_PPOS>
0

> <radius>
7

> <reactive>
1

> <rings>
3

> <RPC+>
0

> <RPC->
0

> <rsynth>
1.0

> <SlogP>
4.1954999

> <SlogP_VSA0>
25.385227

> <SlogP_VSA1>
15.490929

> <SlogP_VSA2>
89.130157

> <SlogP_VSA3>
0.0

> <SlogP_VSA4>
22.05398

> <SlogP_VSA5>
3.185575

> <SlogP_VSA6>
0.0

> <SlogP_VSA7>
52.929554

> <SlogP_VSA8>
113.21043

> <SlogP_VSA9>
133.30406

> <SMR>
11.08378

> <SMR_VSA0>
69.724205

> <SMR_VSA1>
25.385227

> <SMR_VSA2>
22.05398

> <SMR_VSA3>
22.591522

> <SMR_VSA4>
0.0

> <SMR_VSA5>
166.13998

> <SMR_VSA6>
15.490929

> <SMR_VSA7>
133.30406

> <TPSA>
72.830002

> <VAdjEq>
0.3796615

> <VAdjMa>
5.9541965

> <VDistEq>
3.4917691

> <VDistMa>
9.4474201

> <vdw_area>
409.8252

> <vdw_vol>
578.90735

> <vsa_acc>
27.133842

> <vsa_acid>
0

> <vsa_base>
0

> <vsa_don>
0.0

> <vsa_hyd>
298.53705

> <vsa_other>
34.424511

> <vsa_pol>
40.700764

> <Weight>
404.547

> <weinerPath>
2246

> <weinerPol>
47

> <zagreb>
150

$$$$
Row1627
 OpenBabel06061811532D

 40 44  0  0  1  0  0  0  0  0999 V2000
    0.0000    0.0000    0.0000 F   0  0  0  0  0  0  0  0  0  0  0  0
    0.0000    0.0000    0.0000 C   0  0  0  0  0  0  0  0  0  0  0  0
    0.0000    0.0000    0.0000 F   0  0  0  0  0  0  0  0  0  0  0  0
    0.0000    0.0000    0.0000 C   0  0  0  0  0  0  0  0  0  0  0  0
    0.0000    0.0000    0.0000 C   0  0  0  0  0  0  0  0  0  0  0  0
    0.0000    0.0000    0.0000 C   0  0  0  0  0  0  0  0  0  0  0  0
    0.0000    0.0000    0.0000 C   0  0  0  0  0  0  0  0  0  0  0  0
    0.0000    0.0000    0.0000 C   0  0  0  0  0  0  0  0  0  0  0  0
    0.0000    0.0000    0.0000 C   0  0  0  0  0  0  0  0  0  0  0  0
    0.0000    0.0000    0.0000 O   0  0  0  0  0  0  0  0  0  0  0  0
    0.0000    0.0000    0.0000 N   0  0  0  0  0  0  0  0  0  0  0  0
    0.0000    0.0000    0.0000 C   0  0  1  0  0  0  0  0  0  0  0  0
    0.0000    0.0000    0.0000 H   0  0  0  0  0  0  0  0  0  0  0  0
    0.0000    0.0000    0.0000 C   0  0  0  0  0  0  0  0  0  0  0  0
    0.0000    0.0000    0.0000 C   0  0  0  0  0  0  0  0  0  0  0  0
    0.0000    0.0000    0.0000 N   0  0  0  0  0  0  0  0  0  0  0  0
    0.0000    0.0000    0.0000 C   0  0  1  0  0  0  0  0  0  0  0  0
    0.0000    0.0000    0.0000 H   0  0  0  0  0  0  0  0  0  0  0  0
    0.0000    0.0000    0.0000 C   0  0  0  0  0  0  0  0  0  0  0  0
    0.0000    0.0000    0.0000 C   0  0  3  0  0  0  0  0  0  0  0  0
    0.0000    0.0000    0.0000 N   0  0  0  0  0  0  0  0  0  0  0  0
    0.0000    0.0000    0.0000 C   0  0  0  0  0  0  0  0  0  0  0  0
    0.0000    0.0000    0.0000 N   0  0  0  0  0  0  0  0  0  0  0  0
    0.0000    0.0000    0.0000 N   0  0  0  0  0  0  0  0  0  0  0  0
    0.0000    0.0000    0.0000 C   0  0  0  0  0  0  0  0  0  0  0  0
    0.0000    0.0000    0.0000 C   0  0  0  0  0  0  0  0  0  0  0  0
    0.0000    0.0000    0.0000 C   0  0  0  0  0  0  0  0  0  0  0  0
    0.0000    0.0000    0.0000 C   0  0  0  0  0  0  0  0  0  0  0  0
    0.0000    0.0000    0.0000 C   0  0  0  0  0  0  0  0  0  0  0  0
    0.0000    0.0000    0.0000 C   0  0  0  0  0  0  0  0  0  0  0  0
    0.0000    0.0000    0.0000 C   0  0  2  0  0  0  0  0  0  0  0  0
    0.0000    0.0000    0.0000 H   0  0  0  0  0  0  0  0  0  0  0  0
    0.0000    0.0000    0.0000 C   0  0  0  0  0  0  0  0  0  0  0  0
    0.0000    0.0000    0.0000 C   0  0  0  0  0  0  0  0  0  0  0  0
    0.0000    0.0000    0.0000 C   0  0  0  0  0  0  0  0  0  0  0  0
    0.0000    0.0000    0.0000 C   0  0  0  0  0  0  0  0  0  0  0  0
    0.0000    0.0000    0.0000 C   0  0  0  0  0  0  0  0  0  0  0  0
    0.0000    0.0000    0.0000 C   0  0  0  0  0  0  0  0  0  0  0  0
    0.0000    0.0000    0.0000 C   0  0  0  0  0  0  0  0  0  0  0  0
    0.0000    0.0000    0.0000 C   0  0  0  0  0  0  0  0  0  0  0  0
  1  2  1  0  0  0  0
  2  8  1  0  0  0  0
  2  3  1  0  0  0  0
  2  4  1  0  0  0  0
  4  5  1  0  0  0  0
  5  6  1  0  0  0  0
  6  7  1  0  0  0  0
  6  9  1  0  0  0  0
  7  8  1  0  0  0  0
  9 10  2  0  0  0  0
  9 11  1  0  0  0  0
 11 12  1  0  0  0  0
 12 13  1  0  0  0  0
 12 14  1  0  0  0  0
 12 35  1  0  0  0  0
 14 15  1  0  0  0  0
 15 16  1  0  0  0  0
 16 31  1  0  0  0  0
 16 17  1  0  0  0  0
 17 18  1  0  0  0  0
 17 34  1  0  0  0  0
 17 19  1  0  0  0  0
 19 20  1  0  0  0  0
 20 21  1  0  0  0  0
 20 30  1  0  0  0  0
 21 25  1  0  0  0  0
 21 22  1  0  0  0  0
 22 23  2  0  0  0  0
 22 27  1  0  0  0  0
 23 24  1  0  0  0  0
 24 25  2  0  0  0  0
 25 26  1  0  0  0  0
 27 28  1  0  0  0  0
 27 29  1  0  0  0  0
 30 31  1  0  0  0  0
 31 32  1  0  0  0  0
 31 33  1  0  0  0  0
 33 34  1  0  0  0  0
 35 40  1  0  0  0  0
 35 36  2  0  0  0  0
 36 37  1  0  0  0  0
 37 38  2  0  0  0  0
 38 39  1  0  0  0  0
 39 40  2  0  0  0  0
M  END
> <Index>
1628

> <ID>
HT1271

> <class>
1

> <apol>
85.79451

> <ast_fraglike>
0

> <ast_fraglike_ext>
0

> <ast_violation>
3

> <ast_violation_ext>
4

> <a_acc>
4

> <a_acid>
0

> <a_aro>
11

> <a_base>
0

> <a_count>
78

> <a_don>
1

> <a_donacc>
5

> <a_heavy>
37

> <a_hyd>
28

> <a_IC>
116.11065

> <a_ICM>
1.4885981

> <a_nB>
0

> <a_nBr>
0

> <a_nC>
29

> <a_nCl>
0

> <a_nF>
2

> <a_nH>
41

> <a_nI>
0

> <a_nN>
5

> <a_nO>
1

> <a_nP>
0

> <a_nS>
0

> <balabanJ>
1.1842104

> <BCUT_PEOE_0>
-2.7899139

> <BCUT_PEOE_1>
-0.54692906

> <BCUT_PEOE_2>
0.59536177

> <BCUT_PEOE_3>
2.8576443

> <BCUT_SLOGP_0>
-2.8009787

> <BCUT_SLOGP_1>
-0.4748584

> <BCUT_SLOGP_2>
0.67084128

> <BCUT_SLOGP_3>
2.8982983

> <BCUT_SMR_0>
-2.5287769

> <BCUT_SMR_1>
-0.4188143

> <BCUT_SMR_2>
0.7137472

> <BCUT_SMR_3>
3.1196446

> <bpol>
54.125488

> <b_1rotN>
8

> <b_1rotR>
0.19512194

> <b_ar>
11

> <b_count>
82

> <b_double>
1

> <b_heavy>
41

> <b_max1len>
5

> <b_rotN>
9

> <b_rotR>
0.21951219

> <b_single>
70

> <b_triple>
0

> <chi0>
26.156126

> <chi0v>
22.374952

> <chi0v_C>
18.921921

> <chi0_C>
19.880104

> <chi1>
17.715147

> <chi1v>
14.118767

> <chi1v_C>
10.812751

> <chi1_C>
11.929889

> <chiral>
3

> <chiral_u>
0

> <density>
0.72064197

> <diameter>
17

> <FCharge>
0

> <GCUT_PEOE_0>
-0.85982972

> <GCUT_PEOE_1>
-0.38255414

> <GCUT_PEOE_2>
0.061938424

> <GCUT_PEOE_3>
3.1614709

> <GCUT_SLOGP_0>
-1.1327161

> <GCUT_SLOGP_1>
-0.28157815

> <GCUT_SLOGP_2>
0.14624247

> <GCUT_SLOGP_3>
3.2131312

> <GCUT_SMR_0>
-0.53000486

> <GCUT_SMR_1>
-0.21882305

> <GCUT_SMR_2>
0.15767094

> <GCUT_SMR_3>
3.395776

> <Kier1>
28.525877

> <Kier2>
12.25

> <Kier3>
6.6681623

> <KierA1>
23.780624

> <KierA2>
10.158088

> <KierA3>
5.5083132

> <KierFlex>
6.5288014

> <lip_acc>
6

> <lip_don>
1

> <lip_druglike>
0

> <lip_violation>
2

> <logP(o/w)>
6.63692

> <logS>
-4.8261399

> <mr>
14.244287

> <mutagenic>
0

> <nmol>
1

> <opr_brigid>
26

> <opr_leadlike>
0

> <opr_nring>
5

> <opr_nrot>
13

> <opr_violation>
4

> <PC+>
0

> <PC->
0

> <PEOE_PC+>
2.5411873

> <PEOE_PC->
-2.5411873

> <PEOE_RPC+>
0.097983301

> <PEOE_RPC->
0.13733737

> <PEOE_VSA+0>
180.79057

> <PEOE_VSA+1>
33.003662

> <PEOE_VSA+2>
22.381124

> <PEOE_VSA+3>
8.6190128

> <PEOE_VSA+4>
15.182727

> <PEOE_VSA+5>
0.0

> <PEOE_VSA+6>
0.0

> <PEOE_VSA-0>
81.86541

> <PEOE_VSA-1>
98.769875

> <PEOE_VSA-2>
18.842079

> <PEOE_VSA-3>
0.0

> <PEOE_VSA-4>
23.817272

> <PEOE_VSA-5>
13.566921

> <PEOE_VSA-6>
0.13689101

> <PEOE_VSA_FHYD>
0.89395088

> <PEOE_VSA_FNEG>
0.4768815

> <PEOE_VSA_FPNEG>
0.075498849

> <PEOE_VSA_FPOL>
0.10604911

> <PEOE_VSA_FPOS>
0.5231185

> <PEOE_VSA_FPPOS>
0.030550251

> <PEOE_VSA_HYD>
444.27173

> <PEOE_VSA_NEG>
236.99844

> <PEOE_VSA_PNEG>
37.521084

> <PEOE_VSA_POL>
52.703812

> <PEOE_VSA_POS>
259.97711

> <PEOE_VSA_PPOS>
15.182727

> <petitjean>
0.47058824

> <petitjeanSC>
0.8888889

> <Q_PC+>
0

> <Q_PC->
0

> <Q_RPC+>
0

> <Q_RPC->
0

> <Q_VSA_FHYD>
1

> <Q_VSA_FNEG>
0

> <Q_VSA_FPNEG>
0

> <Q_VSA_FPOL>
0

> <Q_VSA_FPOS>
1

> <Q_VSA_FPPOS>
0

> <Q_VSA_HYD>
496.97556

> <Q_VSA_NEG>
0

> <Q_VSA_PNEG>
0

> <Q_VSA_POL>
0

> <Q_VSA_POS>
496.97556

> <Q_VSA_PPOS>
0

> <radius>
9

> <reactive>
0

> <rings>
5

> <RPC+>
0

> <RPC->
0

> <rsynth>
0.54054052

> <SlogP>
6.1419201

> <SlogP_VSA0>
18.01075

> <SlogP_VSA1>
45.432278

> <SlogP_VSA2>
31.826153

> <SlogP_VSA3>
18.439579

> <SlogP_VSA4>
12.252212

> <SlogP_VSA5>
0.0

> <SlogP_VSA6>
4.4107962

> <SlogP_VSA7>
88.215919

> <SlogP_VSA8>
177.77959

> <SlogP_VSA9>
129.89827

> <SMR>
13.97047

> <SMR_VSA0>
23.862217

> <SMR_VSA1>
68.269646

> <SMR_VSA2>
24.245619

> <SMR_VSA3>
28.180086

> <SMR_VSA4>
0.0

> <SMR_VSA5>
258.03159

> <SMR_VSA6>
23.698362

> <SMR_VSA7>
99.978043

> <TPSA>
63.049999

> <VAdjEq>
0.32703882

> <VAdjMa>
6.3575521

> <VDistEq>
3.8984611

> <VDistMa>
10.129999

> <vdw_area>
496.97556

> <vdw_vol>
712.80469

> <vsa_acc>
32.409

> <vsa_acid>
0

> <vsa_base>
0

> <vsa_don>
5.6825762

> <vsa_hyd>
389.31808

> <vsa_other>
35.330658

> <vsa_pol>
38.091576

> <Weight>
513.677

> <weinerPath>
4668

> <weinerPol>
60

> <zagreb>
202

$$$$
Row1628
 OpenBabel06061811532D

 21 24  0  0  0  0  0  0  0  0999 V2000
    0.0000    0.0000    0.0000 N   0  0  0  0  0  0  0  0  0  0  0  0
    0.0000    0.0000    0.0000 C   0  0  0  0  0  0  0  0  0  0  0  0
    0.0000    0.0000    0.0000 C   0  0  0  0  0  0  0  0  0  0  0  0
    0.0000    0.0000    0.0000 C   0  0  0  0  0  0  0  0  0  0  0  0
    0.0000    0.0000    0.0000 N   0  0  0  0  0  0  0  0  0  0  0  0
    0.0000    0.0000    0.0000 C   0  0  0  0  0  0  0  0  0  0  0  0
    0.0000    0.0000    0.0000 C   0  0  0  0  0  0  0  0  0  0  0  0
    0.0000    0.0000    0.0000 C   0  0  0  0  0  0  0  0  0  0  0  0
    0.0000    0.0000    0.0000 C   0  0  0  0  0  0  0  0  0  0  0  0
    0.0000    0.0000    0.0000 C   0  0  0  0  0  0  0  0  0  0  0  0
    0.0000    0.0000    0.0000 C   0  0  0  0  0  0  0  0  0  0  0  0
    0.0000    0.0000    0.0000 C   0  0  0  0  0  0  0  0  0  0  0  0
    0.0000    0.0000    0.0000 C   0  0  0  0  0  0  0  0  0  0  0  0
    0.0000    0.0000    0.0000 C   0  0  0  0  0  0  0  0  0  0  0  0
    0.0000    0.0000    0.0000 C   0  0  0  0  0  0  0  0  0  0  0  0
    0.0000    0.0000    0.0000 C   0  0  0  0  0  0  0  0  0  0  0  0
    0.0000    0.0000    0.0000 C   0  0  0  0  0  0  0  0  0  0  0  0
    0.0000    0.0000    0.0000 C   0  0  0  0  0  0  0  0  0  0  0  0
    0.0000    0.0000    0.0000 C   0  0  0  0  0  0  0  0  0  0  0  0
    0.0000    0.0000    0.0000 C   0  0  0  0  0  0  0  0  0  0  0  0
    0.0000    0.0000    0.0000 C   0  0  0  0  0  0  0  0  0  0  0  0
  1  9  1  0  0  0  0
  1  2  1  0  0  0  0
  1 15  1  0  0  0  0
  2  7  2  0  0  0  0
  2  3  1  0  0  0  0
  3  4  1  0  0  0  0
  4  5  1  0  0  0  0
  5  6  1  0  0  0  0
  5 14  1  0  0  0  0
  6  7  1  0  0  0  0
  7  8  1  0  0  0  0
  8 13  1  0  0  0  0
  8  9  2  0  0  0  0
  9 10  1  0  0  0  0
 10 11  2  0  0  0  0
 11 12  1  0  0  0  0
 12 13  2  0  0  0  0
 15 16  1  0  0  0  0
 16 21  1  0  0  0  0
 16 17  2  0  0  0  0
 17 18  1  0  0  0  0
 18 19  2  0  0  0  0
 19 20  1  0  0  0  0
 20 21  2  0  0  0  0
M  END
> <Index>
1629

> <ID>
HT1277

> <class>
1

> <apol>
48.975861

> <ast_fraglike>
0

> <ast_fraglike_ext>
0

> <ast_violation>
1

> <ast_violation_ext>
1

> <a_acc>
1

> <a_acid>
0

> <a_aro>
15

> <a_base>
0

> <a_count>
41

> <a_don>
0

> <a_donacc>
1

> <a_heavy>
21

> <a_hyd>
19

> <a_IC>
50.510448

> <a_ICM>
1.2319621

> <a_nB>
0

> <a_nBr>
0

> <a_nC>
19

> <a_nCl>
0

> <a_nF>
0

> <a_nH>
20

> <a_nI>
0

> <a_nN>
2

> <a_nO>
0

> <a_nP>
0

> <a_nS>
0

> <balabanJ>
1.5061171

> <BCUT_PEOE_0>
-2.6516042

> <BCUT_PEOE_1>
-0.56934845

> <BCUT_PEOE_2>
0.60209823

> <BCUT_PEOE_3>
2.5847018

> <BCUT_SLOGP_0>
-2.6746178

> <BCUT_SLOGP_1>
-0.45917797

> <BCUT_SLOGP_2>
0.70487529

> <BCUT_SLOGP_3>
2.6261492

> <BCUT_SMR_0>
-2.3677671

> <BCUT_SMR_1>
-0.39839172

> <BCUT_SMR_2>
0.75991976

> <BCUT_SMR_3>
2.8723619

> <bpol>
25.824141

> <b_1rotN>
2

> <b_1rotR>
0.083333336

> <b_ar>
16

> <b_count>
44

> <b_double>
0

> <b_heavy>
24

> <b_max1len>
2

> <b_rotN>
2

> <b_rotR>
0.083333336

> <b_single>
28

> <b_triple>
0

> <chi0>
14.23384

> <chi0v>
12.419006

> <chi0v_C>
11.52458

> <chi0_C>
13.07914

> <chi1>
10.3265

> <chi1v>
7.6418047

> <chi1v_C>
5.7986941

> <chi1_C>
7.857738

> <chiral>
0

> <chiral_u>
0

> <density>
0.66285253

> <diameter>
10

> <FCharge>
0

> <GCUT_PEOE_0>
-0.86451519

> <GCUT_PEOE_1>
-0.37193635

> <GCUT_PEOE_2>
0.061362777

> <GCUT_PEOE_3>
2.731601

> <GCUT_SLOGP_0>
-0.92758363

> <GCUT_SLOGP_1>
-0.26054645

> <GCUT_SLOGP_2>
0.14199157

> <GCUT_SLOGP_3>
2.8477025

> <GCUT_SMR_0>
-0.51257497

> <GCUT_SMR_1>
-0.19140533

> <GCUT_SMR_2>
0.17009433

> <GCUT_SMR_3>
3.0289605

> <Kier1>
14.583333

> <Kier2>
6.2456746

> <Kier3>
2.8125

> <KierA1>
10.705009

> <KierA2>
4.5077987

> <KierA3>
2.0036132

> <KierFlex>
2.2979062

> <lip_acc>
2

> <lip_don>
0

> <lip_druglike>
1

> <lip_violation>
0

> <logP(o/w)>
4.3670001

> <logS>
-3.54493

> <mr>
8.6785631

> <mutagenic>
0

> <nmol>
1

> <opr_brigid>
21

> <opr_leadlike>
1

> <opr_nring>
4

> <opr_nrot>
2

> <opr_violation>
0

> <PC+>
0

> <PC->
0

> <PEOE_PC+>
1.1939739

> <PEOE_PC->
-1.1939739

> <PEOE_RPC+>
0.0534578

> <PEOE_RPC->
0.28400922

> <PEOE_VSA+0>
102.27441

> <PEOE_VSA+1>
46.919247

> <PEOE_VSA+2>
0.0

> <PEOE_VSA+3>
0.0

> <PEOE_VSA+4>
0.0

> <PEOE_VSA+5>
0.0

> <PEOE_VSA+6>
0.0

> <PEOE_VSA-0>
39.910671

> <PEOE_VSA-1>
98.03923

> <PEOE_VSA-2>
0.0

> <PEOE_VSA-3>
0.0

> <PEOE_VSA-4>
0.0

> <PEOE_VSA-5>
0.0

> <PEOE_VSA-6>
0.0

> <PEOE_VSA_FHYD>
1.0

> <PEOE_VSA_FNEG>
0.48042139

> <PEOE_VSA_FPNEG>
0.0

> <PEOE_VSA_FPOL>
0.0

> <PEOE_VSA_FPOS>
0.51957864

> <PEOE_VSA_FPPOS>
0.0

> <PEOE_VSA_HYD>
287.14355

> <PEOE_VSA_NEG>
137.94991

> <PEOE_VSA_PNEG>
0.0

> <PEOE_VSA_POL>
0.0

> <PEOE_VSA_POS>
149.19365

> <PEOE_VSA_PPOS>
0.0

> <petitjean>
0.5

> <petitjeanSC>
1.0

> <Q_PC+>
0

> <Q_PC->
0

> <Q_RPC+>
0

> <Q_RPC->
0

> <Q_VSA_FHYD>
1

> <Q_VSA_FNEG>
0

> <Q_VSA_FPNEG>
0

> <Q_VSA_FPOL>
0

> <Q_VSA_FPOS>
1

> <Q_VSA_FPPOS>
0

> <Q_VSA_HYD>
287.14355

> <Q_VSA_NEG>
0

> <Q_VSA_PNEG>
0

> <Q_VSA_POL>
0

> <Q_VSA_POS>
287.14355

> <Q_VSA_PPOS>
0

> <radius>
5

> <reactive>
0

> <rings>
4

> <RPC+>
0

> <RPC->
0

> <rsynth>
1.0

> <SlogP>
4.2102699

> <SlogP_VSA0>
0.0

> <SlogP_VSA1>
5.0234065

> <SlogP_VSA2>
0.0

> <SlogP_VSA3>
18.439579

> <SlogP_VSA4>
9.1278973

> <SlogP_VSA5>
51.765594

> <SlogP_VSA6>
0.0

> <SlogP_VSA7>
163.50577

> <SlogP_VSA8>
0.0

> <SlogP_VSA9>
36.879158

> <SMR>
8.7930002

> <SMR_VSA0>
0.0

> <SMR_VSA1>
5.0234065

> <SMR_VSA2>
0.0

> <SMR_VSA3>
9.1278973

> <SMR_VSA4>
4.7171016

> <SMR_VSA5>
214.53622

> <SMR_VSA6>
18.439579

> <SMR_VSA7>
32.897186

> <TPSA>
8.1700001

> <VAdjEq>
0.49641782

> <VAdjMa>
5.5849624

> <VDistEq>
3.0353689

> <VDistMa>
8.5099878

> <vdw_area>
287.14355

> <vdw_vol>
416.95999

> <vsa_acc>
0.0

> <vsa_acid>
0

> <vsa_base>
0

> <vsa_don>
0.0

> <vsa_hyd>
272.90765

> <vsa_other>
0.0

> <vsa_pol>
0.0

> <Weight>
276.383

> <weinerPath>
867

> <weinerPol>
34

> <zagreb>
116

$$$$
Row1629
 OpenBabel06061811532D

 23 24  0  0  1  0  0  0  0  0999 V2000
    0.0000    0.0000    0.0000 Cl  0  0  0  0  0  0  0  0  0  0  0  0
    0.0000    0.0000    0.0000 C   0  0  0  0  0  0  0  0  0  0  0  0
    0.0000    0.0000    0.0000 C   0  0  0  0  0  0  0  0  0  0  0  0
    0.0000    0.0000    0.0000 C   0  0  0  0  0  0  0  0  0  0  0  0
    0.0000    0.0000    0.0000 N   0  0  0  0  0  0  0  0  0  0  0  0
    0.0000    0.0000    0.0000 C   0  0  3  0  0  0  0  0  0  0  0  0
    0.0000    0.0000    0.0000 N   0  0  0  0  0  0  0  0  0  0  0  0
    0.0000    0.0000    0.0000 S   0  0  0  0  0  0  0  0  0  0  0  0
    0.0000    0.0000    0.0000 O   0  0  0  0  0  0  0  0  0  0  0  0
    0.0000    0.0000    0.0000 O   0  0  0  0  0  0  0  0  0  0  0  0
    0.0000    0.0000    0.0000 C   0  0  0  0  0  0  0  0  0  0  0  0
    0.0000    0.0000    0.0000 C   0  0  0  0  0  0  0  0  0  0  0  0
    0.0000    0.0000    0.0000 C   0  0  0  0  0  0  0  0  0  0  0  0
    0.0000    0.0000    0.0000 S   0  0  0  0  0  0  0  0  0  0  0  0
    0.0000    0.0000    0.0000 O   0  0  0  0  0  0  0  0  0  0  0  0
    0.0000    0.0000    0.0000 O   0  0  0  0  0  0  0  0  0  0  0  0
    0.0000    0.0000    0.0000 N   0  0  0  0  0  0  0  0  0  0  0  0
    0.0000    0.0000    0.0000 C   0  0  3  0  0  0  0  0  0  0  0  0
    0.0000    0.0000    0.0000 C   0  0  3  0  0  0  0  0  0  0  0  0
    0.0000    0.0000    0.0000 C   0  0  0  0  0  0  0  0  0  0  0  0
    0.0000    0.0000    0.0000 C   0  0  0  0  0  0  0  0  0  0  0  0
    0.0000    0.0000    0.0000 C   0  0  0  0  0  0  0  0  0  0  0  0
    0.0000    0.0000    0.0000 C   0  0  0  0  0  0  0  0  0  0  0  0
  1  2  1  0  0  0  0
  2 13  1  0  0  0  0
  2  3  2  0  0  0  0
  3  4  1  0  0  0  0
  4 11  2  0  0  0  0
  4  5  1  0  0  0  0
  5  6  1  0  0  0  0
  6  7  1  0  0  0  0
  6 18  1  0  0  0  0
  7  8  1  0  0  0  0
  8  9  2  0  0  0  0
  8 10  2  0  0  0  0
  8 11  1  0  0  0  0
 11 12  1  0  0  0  0
 12 13  2  0  0  0  0
 13 14  1  0  0  0  0
 14 15  2  0  0  0  0
 14 16  2  0  0  0  0
 14 17  1  0  0  0  0
 18 19  1  0  0  0  0
 18 23  1  0  0  0  0
 19 20  1  0  0  0  0
 19 22  1  0  0  0  0
 20 21  1  0  0  0  0
M  END
> <Index>
1630

> <ID>
HT1279

> <class>
1

> <apol>
50.703861

> <ast_fraglike>
0

> <ast_fraglike_ext>
0

> <ast_violation>
2

> <ast_violation_ext>
4

> <a_acc>
4

> <a_acid>
0

> <a_aro>
6

> <a_base>
0

> <a_count>
43

> <a_don>
3

> <a_donacc>
7

> <a_heavy>
23

> <a_hyd>
13

> <a_IC>
84.03022

> <a_ICM>
1.9541911

> <a_nB>
0

> <a_nBr>
0

> <a_nC>
13

> <a_nCl>
1

> <a_nF>
0

> <a_nH>
20

> <a_nI>
0

> <a_nN>
3

> <a_nO>
4

> <a_nP>
0

> <a_nS>
2

> <balabanJ>
2.1721668

> <BCUT_PEOE_0>
-2.782136

> <BCUT_PEOE_1>
-0.41216266

> <BCUT_PEOE_2>
0.45989612

> <BCUT_PEOE_3>
2.7140939

> <BCUT_SLOGP_0>
-2.8390591

> <BCUT_SLOGP_1>
-0.3472369

> <BCUT_SLOGP_2>
0.52622241

> <BCUT_SLOGP_3>
2.7692428

> <BCUT_SMR_0>
-2.5072997

> <BCUT_SMR_1>
-0.30367863

> <BCUT_SMR_2>
0.57998651

> <BCUT_SMR_3>
3.0007677

> <bpol>
35.896141

> <b_1rotN>
4

> <b_1rotR>
0.16666667

> <b_ar>
6

> <b_count>
44

> <b_double>
0

> <b_heavy>
24

> <b_max1len>
6

> <b_rotN>
4

> <b_rotR>
0.16666667

> <b_single>
38

> <b_triple>
0

> <chi0>
17.576986

> <chi0v>
15.387585

> <chi0v_C>
8.5938578

> <chi0_C>
9.1627722

> <chi1>
10.469381

> <chi1v>
10.529943

> <chi1v_C>
4.591423

> <chi1_C>
5.236382

> <chiral>
3

> <chiral_u>
3

> <density>
0.89547479

> <diameter>
11

> <FCharge>
0

> <GCUT_PEOE_0>
-0.88803947

> <GCUT_PEOE_1>
-0.39675659

> <GCUT_PEOE_2>
0.011228701

> <GCUT_PEOE_3>
2.7859962

> <GCUT_SLOGP_0>
-1.3482877

> <GCUT_SLOGP_1>
-0.37290692

> <GCUT_SLOGP_2>
0.10079119

> <GCUT_SLOGP_3>
2.817873

> <GCUT_SMR_0>
-0.5354684

> <GCUT_SMR_1>
-0.17024724

> <GCUT_SMR_2>
0.13818024

> <GCUT_SMR_3>
3.046273

> <Kier1>
19.326389

> <Kier2>
6.7188368

> <Kier3>
3.9837031

> <KierA1>
20.670271

> <KierA2>
7.2084746

> <KierA3>
4.2840767

> <KierFlex>
6.4783096

> <lip_acc>
7

> <lip_don>
4

> <lip_druglike>
1

> <lip_violation>
0

> <logP(o/w)>
2.1389999

> <logS>
-4.2862

> <mr>
9.043787

> <mutagenic>
0

> <nmol>
1

> <opr_brigid>
11

> <opr_leadlike>
1

> <opr_nring>
2

> <opr_nrot>
4

> <opr_violation>
0

> <PC+>
0

> <PC->
0

> <PEOE_PC+>
1.8426445

> <PEOE_PC->
-1.8426445

> <PEOE_RPC+>
0.16809985

> <PEOE_RPC->
0.20782883

> <PEOE_VSA+0>
101.39556

> <PEOE_VSA+1>
17.149784

> <PEOE_VSA+2>
26.880259

> <PEOE_VSA+3>
0.0

> <PEOE_VSA+4>
0.0

> <PEOE_VSA+5>
0.0

> <PEOE_VSA+6>
8.3692026

> <PEOE_VSA-0>
20.873917

> <PEOE_VSA-1>
94.526291

> <PEOE_VSA-2>
34.546043

> <PEOE_VSA-3>
9.0437498

> <PEOE_VSA-4>
32.016521

> <PEOE_VSA-5>
0.0

> <PEOE_VSA-6>
0.13689101

> <PEOE_VSA_FHYD>
0.88252211

> <PEOE_VSA_FNEG>
0.55413812

> <PEOE_VSA_FPNEG>
0.093214996

> <PEOE_VSA_FPOL>
0.11747789

> <PEOE_VSA_FPOS>
0.44586188

> <PEOE_VSA_FPPOS>
0.024262903

> <PEOE_VSA_HYD>
304.41562

> <PEOE_VSA_NEG>
191.14342

> <PEOE_VSA_PNEG>
32.153416

> <PEOE_VSA_POL>
40.522617

> <PEOE_VSA_POS>
153.79482

> <PEOE_VSA_PPOS>
8.3692026

> <petitjean>
0.45454547

> <petitjeanSC>
0.83333331

> <Q_PC+>
0

> <Q_PC->
0

> <Q_RPC+>
0

> <Q_RPC->
0

> <Q_VSA_FHYD>
1

> <Q_VSA_FNEG>
0

> <Q_VSA_FPNEG>
0

> <Q_VSA_FPOL>
0

> <Q_VSA_FPOS>
1

> <Q_VSA_FPPOS>
0

> <Q_VSA_HYD>
344.93823

> <Q_VSA_NEG>
0

> <Q_VSA_PNEG>
0

> <Q_VSA_POL>
0

> <Q_VSA_POS>
344.93823

> <Q_VSA_PPOS>
0

> <radius>
6

> <reactive>
0

> <rings>
2

> <RPC+>
0

> <RPC->
0

> <rsynth>
0.69565219

> <SlogP>
1.6995

> <SlogP_VSA0>
47.69643

> <SlogP_VSA1>
114.35413

> <SlogP_VSA2>
16.834627

> <SlogP_VSA3>
0.0

> <SlogP_VSA4>
8.8215923

> <SlogP_VSA5>
3.1014678

> <SlogP_VSA6>
3.5006065

> <SlogP_VSA7>
35.286369

> <SlogP_VSA8>
18.868406

> <SlogP_VSA9>
141.88344

> <SMR>
8.9176397

> <SMR_VSA0>
96.343376

> <SMR_VSA1>
0.0

> <SMR_VSA2>
28.328058

> <SMR_VSA3>
7.0537477

> <SMR_VSA4>
52.058933

> <SMR_VSA5>
54.154774

> <SMR_VSA6>
0.0

> <SMR_VSA7>
152.40817

> <TPSA>
118.36

> <VAdjEq>
0.43892586

> <VAdjMa>
5.5849624

> <VDistEq>
3.1808984

> <VDistMa>
8.7668238

> <vdw_area>
344.93823

> <vdw_vol>
426.48325

> <vsa_acc>
64.033043

> <vsa_acid>
0

> <vsa_base>
0

> <vsa_don>
33.892902

> <vsa_hyd>
189.23836

> <vsa_other>
31.401779

> <vsa_pol>
97.925949

> <Weight>
381.905

> <weinerPath>
1124

> <weinerPol>
41

> <zagreb>
124

$$$$
Row1630
 OpenBabel06061811532D

 19 20  0  0  0  0  0  0  0  0999 V2000
    0.0000    0.0000    0.0000 Cl  0  0  0  0  0  0  0  0  0  0  0  0
    0.0000    0.0000    0.0000 C   0  0  0  0  0  0  0  0  0  0  0  0
    0.0000    0.0000    0.0000 C   0  0  0  0  0  0  0  0  0  0  0  0
    0.0000    0.0000    0.0000 N   0  0  0  0  0  0  0  0  0  0  0  0
    0.0000    0.0000    0.0000 C   0  0  0  0  0  0  0  0  0  0  0  0
    0.0000    0.0000    0.0000 C   0  0  0  0  0  0  0  0  0  0  0  0
    0.0000    0.0000    0.0000 C   0  0  0  0  0  0  0  0  0  0  0  0
    0.0000    0.0000    0.0000 C   0  0  0  0  0  0  0  0  0  0  0  0
    0.0000    0.0000    0.0000 C   0  0  0  0  0  0  0  0  0  0  0  0
    0.0000    0.0000    0.0000 C   0  0  0  0  0  0  0  0  0  0  0  0
    0.0000    0.0000    0.0000 C   0  0  0  0  0  0  0  0  0  0  0  0
    0.0000    0.0000    0.0000 O   0  0  0  0  0  0  0  0  0  0  0  0
    0.0000    0.0000    0.0000 O   0  0  0  0  0  0  0  0  0  0  0  0
    0.0000    0.0000    0.0000 C   0  0  0  0  0  0  0  0  0  0  0  0
    0.0000    0.0000    0.0000 Cl  0  0  0  0  0  0  0  0  0  0  0  0
    0.0000    0.0000    0.0000 C   0  0  0  0  0  0  0  0  0  0  0  0
    0.0000    0.0000    0.0000 C   0  0  0  0  0  0  0  0  0  0  0  0
    0.0000    0.0000    0.0000 C   0  0  0  0  0  0  0  0  0  0  0  0
    0.0000    0.0000    0.0000 C   0  0  0  0  0  0  0  0  0  0  0  0
  1  2  1  0  0  0  0
  2 18  1  0  0  0  0
  2  3  2  0  0  0  0
  3  4  1  0  0  0  0
  3 14  1  0  0  0  0
  4  5  1  0  0  0  0
  5 10  1  0  0  0  0
  5  6  2  0  0  0  0
  6  7  1  0  0  0  0
  7  8  2  0  0  0  0
  8  9  1  0  0  0  0
  9 10  2  0  0  0  0
 10 11  1  0  0  0  0
 11 12  1  0  0  0  0
 11 13  2  0  0  0  0
 14 15  1  0  0  0  0
 14 16  2  0  0  0  0
 16 17  1  0  0  0  0
 17 18  2  0  0  0  0
 18 19  1  0  0  0  0
M  END
> <Index>
1631

> <ID>
HT1284

> <class>
1

> <apol>
39.038723

> <ast_fraglike>
0

> <ast_fraglike_ext>
0

> <ast_violation>
1

> <ast_violation_ext>
1

> <a_acc>
2

> <a_acid>
0

> <a_aro>
12

> <a_base>
0

> <a_count>
30

> <a_don>
3

> <a_donacc>
5

> <a_heavy>
19

> <a_hyd>
15

> <a_IC>
51.850002

> <a_ICM>
1.7283334

> <a_nB>
0

> <a_nBr>
0

> <a_nC>
14

> <a_nCl>
2

> <a_nF>
0

> <a_nH>
11

> <a_nI>
0

> <a_nN>
1

> <a_nO>
2

> <a_nP>
0

> <a_nS>
0

> <balabanJ>
2.0172591

> <BCUT_PEOE_0>
-2.3190198

> <BCUT_PEOE_1>
-0.61289638

> <BCUT_PEOE_2>
0.64841354

> <BCUT_PEOE_3>
2.2886481

> <BCUT_SLOGP_0>
-2.2110872

> <BCUT_SLOGP_1>
-0.46271181

> <BCUT_SLOGP_2>
0.78272825

> <BCUT_SLOGP_3>
2.4805098

> <BCUT_SMR_0>
-1.9939626

> <BCUT_SMR_1>
-0.40965176

> <BCUT_SMR_2>
0.84564668

> <BCUT_SMR_3>
2.6312542

> <bpol>
14.483277

> <b_1rotN>
3

> <b_1rotR>
0.15000001

> <b_ar>
12

> <b_count>
31

> <b_double>
1

> <b_heavy>
20

> <b_max1len>
2

> <b_rotN>
3

> <b_rotR>
0.15000001

> <b_single>
18

> <b_triple>
0

> <chi0>
13.991199

> <chi0v>
11.58735

> <chi0v_C>
7.9641018

> <chi0_C>
9.2840929

> <chi1>
9.0029078

> <chi1v>
6.2996583

> <chi1v_C>
4.2380338

> <chi1_C>
5.8770099

> <chiral>
0

> <chiral_u>
0

> <density>
0.84469801

> <diameter>
8

> <FCharge>
0

> <GCUT_PEOE_0>
-0.79140955

> <GCUT_PEOE_1>
-0.42043331

> <GCUT_PEOE_2>
0.089093491

> <GCUT_PEOE_3>
2.3407919

> <GCUT_SLOGP_0>
-0.89542359

> <GCUT_SLOGP_1>
-0.25308463

> <GCUT_SLOGP_2>
0.24359867

> <GCUT_SLOGP_3>
2.527513

> <GCUT_SMR_0>
-0.47879535

> <GCUT_SMR_1>
-0.20165528

> <GCUT_SMR_2>
0.27986431

> <GCUT_SMR_3>
2.6656604

> <Kier1>
15.39

> <Kier2>
6.6352043

> <Kier3>
3.5555556

> <KierA1>
12.740488

> <KierA2>
5.4312439

> <KierA3>
2.8848398

> <KierFlex>
3.6419315

> <lip_acc>
3

> <lip_don>
2

> <lip_druglike>
1

> <lip_violation>
0

> <logP(o/w)>
4.4390001

> <logS>
-4.6036501

> <mr>
7.6938066

> <mutagenic>
0

> <nmol>
1

> <opr_brigid>
12

> <opr_leadlike>
1

> <opr_nring>
2

> <opr_nrot>
3

> <opr_violation>
1

> <PC+>
0

> <PC->
0

> <PEOE_PC+>
1.3834652

> <PEOE_PC->
-1.3834652

> <PEOE_RPC+>
0.21161535

> <PEOE_RPC->
0.23668917

> <PEOE_VSA+0>
19.495708

> <PEOE_VSA+1>
43.539898

> <PEOE_VSA+2>
8.6190128

> <PEOE_VSA+3>
0.0

> <PEOE_VSA+4>
10.324173

> <PEOE_VSA+5>
14.708499

> <PEOE_VSA+6>
0.0

> <PEOE_VSA-0>
57.720928

> <PEOE_VSA-1>
95.928604

> <PEOE_VSA-2>
0.0

> <PEOE_VSA-3>
0.0

> <PEOE_VSA-4>
0.0

> <PEOE_VSA-5>
13.703812

> <PEOE_VSA-6>
7.7675405

> <PEOE_VSA_FHYD>
0.82890868

> <PEOE_VSA_FNEG>
0.64428115

> <PEOE_VSA_FPNEG>
0.078994505

> <PEOE_VSA_FPOL>
0.17109133

> <PEOE_VSA_FPOS>
0.35571885

> <PEOE_VSA_FPPOS>
0.092096828

> <PEOE_VSA_HYD>
225.30415

> <PEOE_VSA_NEG>
175.12088

> <PEOE_VSA_PNEG>
21.471352

> <PEOE_VSA_POL>
46.504025

> <PEOE_VSA_POS>
96.687294

> <PEOE_VSA_PPOS>
25.032671

> <petitjean>
0.5

> <petitjeanSC>
1.0

> <Q_PC+>
0

> <Q_PC->
0

> <Q_RPC+>
0

> <Q_RPC->
0

> <Q_VSA_FHYD>
1

> <Q_VSA_FNEG>
0

> <Q_VSA_FPNEG>
0

> <Q_VSA_FPOL>
0

> <Q_VSA_FPOS>
1

> <Q_VSA_FPPOS>
0

> <Q_VSA_HYD>
271.80817

> <Q_VSA_NEG>
0

> <Q_VSA_PNEG>
0

> <Q_VSA_POL>
0

> <Q_VSA_POS>
271.80817

> <Q_VSA_PPOS>
0

> <radius>
4

> <reactive>
0

> <rings>
2

> <RPC+>
0

> <RPC->
0

> <rsynth>
1.0

> <SlogP>
4.7436199

> <SlogP_VSA0>
0.0

> <SlogP_VSA1>
25.756214

> <SlogP_VSA2>
0.0

> <SlogP_VSA3>
25.385227

> <SlogP_VSA4>
30.233366

> <SlogP_VSA5>
0.0

> <SlogP_VSA6>
7.0012131

> <SlogP_VSA7>
105.85911

> <SlogP_VSA8>
0.0

> <SlogP_VSA9>
117.1368

> <SMR>
7.7883

> <SMR_VSA0>
23.862217

> <SMR_VSA1>
0.0

> <SMR_VSA2>
25.385227

> <SMR_VSA3>
13.372363

> <SMR_VSA4>
23.524246

> <SMR_VSA5>
105.85911

> <SMR_VSA6>
7.7454643

> <SMR_VSA7>
111.62331

> <TPSA>
49.330002

> <VAdjEq>
0.5023343

> <VAdjMa>
5.321928

> <VDistEq>
2.9083142

> <VDistMa>
8.2244778

> <vdw_area>
271.80817

> <vdw_vol>
350.6022

> <vsa_acc>
0.0

> <vsa_acid>
0

> <vsa_base>
0

> <vsa_don>
5.6825762

> <vsa_hyd>
210.27899

> <vsa_other>
14.708499

> <vsa_pol>
32.816418

> <Weight>
296.15298

> <weinerPath>
682

> <weinerPol>
30

> <zagreb>
96

$$$$
Row1631
 OpenBabel06061811532D

 32 35  0  0  1  0  0  0  0  0999 V2000
    0.0000    0.0000    0.0000 O   0  0  0  0  0  0  0  0  0  0  0  0
    0.0000    0.0000    0.0000 C   0  0  0  0  0  0  0  0  0  0  0  0
    0.0000    0.0000    0.0000 C   0  0  0  0  0  0  0  0  0  0  0  0
    0.0000    0.0000    0.0000 C   0  0  0  0  0  0  0  0  0  0  0  0
    0.0000    0.0000    0.0000 C   0  0  1  0  0  0  0  0  0  0  0  0
    0.0000    0.0000    0.0000 C   0  0  2  0  0  0  0  0  0  0  0  0
    0.0000    0.0000    0.0000 H   0  0  0  0  0  0  0  0  0  0  0  0
    0.0000    0.0000    0.0000 C   0  0  2  0  0  0  0  0  0  0  0  0
    0.0000    0.0000    0.0000 H   0  0  0  0  0  0  0  0  0  0  0  0
    0.0000    0.0000    0.0000 C   0  0  2  0  0  0  0  0  0  0  0  0
    0.0000    0.0000    0.0000 H   0  0  0  0  0  0  0  0  0  0  0  0
    0.0000    0.0000    0.0000 C   0  0  0  0  0  0  0  0  0  0  0  0
    0.0000    0.0000    0.0000 C   0  0  0  0  0  0  0  0  0  0  0  0
    0.0000    0.0000    0.0000 C   0  0  1  0  0  0  0  0  0  0  0  0
    0.0000    0.0000    0.0000 O   0  0  0  0  0  0  0  0  0  0  0  0
    0.0000    0.0000    0.0000 C   0  0  0  0  0  0  0  0  0  0  0  0
    0.0000    0.0000    0.0000 O   0  0  0  0  0  0  0  0  0  0  0  0
    0.0000    0.0000    0.0000 C   0  0  0  0  0  0  0  0  0  0  0  0
    0.0000    0.0000    0.0000 C   0  0  0  0  0  0  0  0  0  0  0  0
    0.0000    0.0000    0.0000 O   0  0  0  0  0  0  0  0  0  0  0  0
    0.0000    0.0000    0.0000 C   0  0  0  0  0  0  0  0  0  0  0  0
    0.0000    0.0000    0.0000 C   0  0  2  0  0  0  0  0  0  0  0  0
    0.0000    0.0000    0.0000 C   0  0  0  0  0  0  0  0  0  0  0  0
    0.0000    0.0000    0.0000 C   0  0  0  0  0  0  0  0  0  0  0  0
    0.0000    0.0000    0.0000 C   0  0  0  0  0  0  0  0  0  0  0  0
    0.0000    0.0000    0.0000 C   0  0  0  0  0  0  0  0  0  0  0  0
    0.0000    0.0000    0.0000 C   0  0  1  0  0  0  0  0  0  0  0  0
    0.0000    0.0000    0.0000 H   0  0  0  0  0  0  0  0  0  0  0  0
    0.0000    0.0000    0.0000 C   0  0  0  0  0  0  0  0  0  0  0  0
    0.0000    0.0000    0.0000 C   0  0  0  0  0  0  0  0  0  0  0  0
    0.0000    0.0000    0.0000 C   0  0  0  0  0  0  0  0  0  0  0  0
    0.0000    0.0000    0.0000 C   0  0  0  0  0  0  0  0  0  0  0  0
  1  2  2  0  0  0  0
  2 30  1  0  0  0  0
  2  3  1  0  0  0  0
  3  4  1  0  0  0  0
  4  5  1  0  0  0  0
  5 29  1  0  0  0  0
  5  6  1  0  0  0  0
  5 32  1  0  0  0  0
  6  7  1  0  0  0  0
  6 24  1  0  0  0  0
  6  8  1  0  0  0  0
  8  9  1  0  0  0  0
  8 10  1  0  0  0  0
  8 26  1  0  0  0  0
 10 11  1  0  0  0  0
 10 22  1  0  0  0  0
 10 12  1  0  0  0  0
 12 13  1  0  0  0  0
 13 14  1  0  0  0  0
 14 15  1  0  0  0  0
 14 19  1  0  0  0  0
 14 22  1  0  0  0  0
 15 16  1  0  0  0  0
 16 17  2  0  0  0  0
 16 18  1  0  0  0  0
 19 20  2  0  0  0  0
 19 21  1  0  0  0  0
 22 23  1  0  0  0  0
 22 25  1  0  0  0  0
 23 24  1  0  0  0  0
 26 27  1  0  0  0  0
 27 28  1  0  0  0  0
 27 29  1  0  0  0  0
 27 31  1  0  0  0  0
 29 30  2  0  0  0  0
M  END
> <Index>
1632

> <ID>
HT1286

> <class>
1

> <apol>
68.118965

> <ast_fraglike>
0

> <ast_fraglike_ext>
0

> <ast_violation>
2

> <ast_violation_ext>
2

> <a_acc>
3

> <a_acid>
0

> <a_aro>
0

> <a_base>
0

> <a_count>
62

> <a_don>
0

> <a_donacc>
3

> <a_heavy>
28

> <a_hyd>
21

> <a_IC>
78.147331

> <a_ICM>
1.2604408

> <a_nB>
0

> <a_nBr>
0

> <a_nC>
24

> <a_nCl>
0

> <a_nF>
0

> <a_nH>
34

> <a_nI>
0

> <a_nN>
0

> <a_nO>
4

> <a_nP>
0

> <a_nS>
0

> <balabanJ>
1.6747658

> <BCUT_PEOE_0>
-2.9512501

> <BCUT_PEOE_1>
-0.41828319

> <BCUT_PEOE_2>
0.30988798

> <BCUT_PEOE_3>
2.9763622

> <BCUT_SLOGP_0>
-2.879323

> <BCUT_SLOGP_1>
-0.33906376

> <BCUT_SLOGP_2>
0.32093275

> <BCUT_SLOGP_3>
3.0378187

> <BCUT_SMR_0>
-2.6961329

> <BCUT_SMR_1>
-0.21729542

> <BCUT_SMR_2>
0.48478082

> <BCUT_SMR_3>
3.2243373

> <bpol>
41.959038

> <b_1rotN>
2

> <b_1rotR>
0.064516127

> <b_ar>
0

> <b_count>
65

> <b_double>
4

> <b_heavy>
31

> <b_max1len>
4

> <b_rotN>
3

> <b_rotR>
0.096774191

> <b_single>
61

> <b_triple>
0

> <chi0>
20.482763

> <chi0v>
17.969492

> <chi0v_C>
16.336498

> <chi0_C>
16.775656

> <chi1>
13.049002

> <chi1v>
11.00522

> <chi1v_C>
9.9845991

> <chi1_C>
10.555149

> <chiral>
7

> <chiral_u>
0

> <density>
0.69908893

> <diameter>
12

> <FCharge>
0

> <GCUT_PEOE_0>
-0.79447454

> <GCUT_PEOE_1>
-0.36837116

> <GCUT_PEOE_2>
-0.089664742

> <GCUT_PEOE_3>
3.4146237

> <GCUT_SLOGP_0>
-0.90200806

> <GCUT_SLOGP_1>
-0.28007612

> <GCUT_SLOGP_2>
-0.021225579

> <GCUT_SLOGP_3>
3.484513

> <GCUT_SMR_0>
-0.53900886

> <GCUT_SMR_1>
-0.19868891

> <GCUT_SMR_2>
0.076304749

> <GCUT_SMR_3>
3.6398501

> <Kier1>
21.240376

> <Kier2>
7.0173011

> <Kier3>
2.9259002

> <KierA1>
18.64851

> <KierA2>
6.1299276

> <KierA3>
2.5467262

> <KierFlex>
4.0826435

> <lip_acc>
4

> <lip_don>
0

> <lip_druglike>
1

> <lip_violation>
0

> <logP(o/w)>
3.8080001

> <logS>
-5.93607

> <mr>
10.805756

> <mutagenic>
0

> <nmol>
1

> <opr_brigid>
20

> <opr_leadlike>
1

> <opr_nring>
4

> <opr_nrot>
2

> <opr_violation>
1

> <PC+>
0

> <PC->
0

> <PEOE_PC+>
1.7574178

> <PEOE_PC->
-1.7574178

> <PEOE_RPC+>
0.1479224

> <PEOE_RPC->
0.17101751

> <PEOE_VSA+0>
168.20673

> <PEOE_VSA+1>
4.2653861

> <PEOE_VSA+2>
0.0

> <PEOE_VSA+3>
16.917038

> <PEOE_VSA+4>
0.0

> <PEOE_VSA+5>
14.708499

> <PEOE_VSA+6>
0.0

> <PEOE_VSA-0>
83.210464

> <PEOE_VSA-1>
58.451572

> <PEOE_VSA-2>
0.0

> <PEOE_VSA-3>
0.0

> <PEOE_VSA-4>
0.0

> <PEOE_VSA-5>
40.700764

> <PEOE_VSA-6>
2.503756

> <PEOE_VSA_FHYD>
0.85110962

> <PEOE_VSA_FNEG>
0.47527909

> <PEOE_VSA_FPNEG>
0.11107582

> <PEOE_VSA_FPOL>
0.14889035

> <PEOE_VSA_FPOS>
0.52472091

> <PEOE_VSA_FPPOS>
0.037814531

> <PEOE_VSA_HYD>
331.05118

> <PEOE_VSA_NEG>
184.86655

> <PEOE_VSA_PNEG>
43.204517

> <PEOE_VSA_POL>
57.913017

> <PEOE_VSA_POS>
204.09766

> <PEOE_VSA_PPOS>
14.708499

> <petitjean>
0.5

> <petitjeanSC>
1.0

> <Q_PC+>
0

> <Q_PC->
0

> <Q_RPC+>
0

> <Q_RPC->
0

> <Q_VSA_FHYD>
1

> <Q_VSA_FNEG>
0

> <Q_VSA_FPNEG>
0

> <Q_VSA_FPOL>
0

> <Q_VSA_FPOS>
1

> <Q_VSA_FPPOS>
0

> <Q_VSA_HYD>
388.9642

> <Q_VSA_NEG>
0

> <Q_VSA_PNEG>
0

> <Q_VSA_POL>
0

> <Q_VSA_POS>
388.9642

> <Q_VSA_PPOS>
0

> <radius>
6

> <reactive>
1

> <rings>
4

> <RPC+>
0

> <RPC->
0

> <rsynth>
0.10714286

> <SlogP>
4.6552

> <SlogP_VSA0>
0.0

> <SlogP_VSA1>
19.120686

> <SlogP_VSA2>
82.58654

> <SlogP_VSA3>
0.0

> <SlogP_VSA4>
17.643185

> <SlogP_VSA5>
3.185575

> <SlogP_VSA6>
0.0

> <SlogP_VSA7>
17.643185

> <SlogP_VSA8>
132.07884

> <SlogP_VSA9>
166.63008

> <SMR>
10.6435

> <SMR_VSA0>
82.58654

> <SMR_VSA1>
0.0

> <SMR_VSA2>
17.643185

> <SMR_VSA3>
3.185575

> <SMR_VSA4>
0.0

> <SMR_VSA5>
149.72202

> <SMR_VSA6>
19.120686

> <SMR_VSA7>
166.63008

> <TPSA>
60.439999

> <VAdjEq>
0.39893496

> <VAdjMa>
5.9541965

> <VDistEq>
3.2472198

> <VDistMa>
9.3497791

> <vdw_area>
388.9642

> <vdw_vol>
552.90814

> <vsa_acc>
40.700764

> <vsa_acid>
0

> <vsa_base>
0

> <vsa_don>
0.0

> <vsa_hyd>
284.55292

> <vsa_other>
34.129295

> <vsa_pol>
40.700764

> <Weight>
386.53198

> <weinerPath>
1759

> <weinerPol>
62

> <zagreb>
164

$$$$
Row1632
 OpenBabel06061811532D

 22 24  0  0  0  0  0  0  0  0999 V2000
    0.0000    0.0000    0.0000 N   0  0  0  0  0  0  0  0  0  0  0  0
    0.0000    0.0000    0.0000 C   0  0  0  0  0  0  0  0  0  0  0  0
    0.0000    0.0000    0.0000 C   0  0  0  0  0  0  0  0  0  0  0  0
    0.0000    0.0000    0.0000 C   0  0  0  0  0  0  0  0  0  0  0  0
    0.0000    0.0000    0.0000 C   0  0  0  0  0  0  0  0  0  0  0  0
    0.0000    0.0000    0.0000 C   0  0  0  0  0  0  0  0  0  0  0  0
    0.0000    0.0000    0.0000 C   0  0  0  0  0  0  0  0  0  0  0  0
    0.0000    0.0000    0.0000 C   0  0  0  0  0  0  0  0  0  0  0  0
    0.0000    0.0000    0.0000 C   0  0  0  0  0  0  0  0  0  0  0  0
    0.0000    0.0000    0.0000 C   0  0  0  0  0  0  0  0  0  0  0  0
    0.0000    0.0000    0.0000 C   0  0  0  0  0  0  0  0  0  0  0  0
    0.0000    0.0000    0.0000 C   0  0  0  0  0  0  0  0  0  0  0  0
    0.0000    0.0000    0.0000 C   0  0  0  0  0  0  0  0  0  0  0  0
    0.0000    0.0000    0.0000 C   0  0  0  0  0  0  0  0  0  0  0  0
    0.0000    0.0000    0.0000 C   0  0  0  0  0  0  0  0  0  0  0  0
    0.0000    0.0000    0.0000 C   0  0  0  0  0  0  0  0  0  0  0  0
    0.0000    0.0000    0.0000 C   0  0  0  0  0  0  0  0  0  0  0  0
    0.0000    0.0000    0.0000 C   0  0  0  0  0  0  0  0  0  0  0  0
    0.0000    0.0000    0.0000 C   0  0  0  0  0  0  0  0  0  0  0  0
    0.0000    0.0000    0.0000 C   0  0  0  0  0  0  0  0  0  0  0  0
    0.0000    0.0000    0.0000 C   0  0  0  0  0  0  0  0  0  0  0  0
    0.0000    0.0000    0.0000 C   0  0  0  0  0  0  0  0  0  0  0  0
  1  2  1  0  0  0  0
  1 21  1  0  0  0  0
  1 22  1  0  0  0  0
  2  3  1  0  0  0  0
  3  4  1  0  0  0  0
  4  5  2  3  0  0  0
  5 14  1  0  0  0  0
  5  6  1  0  0  0  0
  6 11  1  0  0  0  0
  6  7  2  0  0  0  0
  7  8  1  0  0  0  0
  7 12  1  0  0  0  0
  8  9  2  0  0  0  0
  9 10  1  0  0  0  0
 10 11  2  0  0  0  0
 12 13  1  0  0  0  0
 12 19  1  0  0  0  0
 12 20  1  0  0  0  0
 13 18  1  0  0  0  0
 13 14  2  0  0  0  0
 14 15  1  0  0  0  0
 15 16  2  0  0  0  0
 16 17  1  0  0  0  0
 17 18  2  0  0  0  0
M  END
> <Index>
1633

> <ID>
HT1294

> <class>
1

> <apol>
54.729824

> <ast_fraglike>
0

> <ast_fraglike_ext>
0

> <ast_violation>
1

> <ast_violation_ext>
1

> <a_acc>
1

> <a_acid>
0

> <a_aro>
12

> <a_base>
0

> <a_count>
47

> <a_don>
0

> <a_donacc>
1

> <a_heavy>
22

> <a_hyd>
21

> <a_IC>
52.730606

> <a_ICM>
1.1219277

> <a_nB>
0

> <a_nBr>
0

> <a_nC>
21

> <a_nCl>
0

> <a_nF>
0

> <a_nH>
25

> <a_nI>
0

> <a_nN>
1

> <a_nO>
0

> <a_nP>
0

> <a_nS>
0

> <balabanJ>
1.7928213

> <BCUT_PEOE_0>
-2.6216364

> <BCUT_PEOE_1>
-0.50844944

> <BCUT_PEOE_2>
0.57085073

> <BCUT_PEOE_3>
2.5725391

> <BCUT_SLOGP_0>
-2.6604125

> <BCUT_SLOGP_1>
-0.41211131

> <BCUT_SLOGP_2>
0.66401941

> <BCUT_SLOGP_3>
2.6686473

> <BCUT_SMR_0>
-2.3362286

> <BCUT_SMR_1>
-0.37448078

> <BCUT_SMR_2>
0.70865327

> <BCUT_SMR_3>
2.8638575

> <bpol>
29.310175

> <b_1rotN>
3

> <b_1rotR>
0.125

> <b_ar>
12

> <b_count>
49

> <b_double>
1

> <b_heavy>
24

> <b_max1len>
6

> <b_rotN>
3

> <b_rotR>
0.125

> <b_single>
36

> <b_triple>
0

> <chi0>
15.742276

> <chi0v>
14.05758

> <chi0v_C>
13.610366

> <chi0_C>
15.164926

> <chi1>
10.514874

> <chi1v>
8.0622787

> <chi1v_C>
6.851624

> <chi1_C>
8.9519253

> <chiral>
0

> <chiral_u>
0

> <density>
0.63107562

> <diameter>
9

> <FCharge>
0

> <GCUT_PEOE_0>
-0.86319751

> <GCUT_PEOE_1>
-0.34819889

> <GCUT_PEOE_2>
0.021183789

> <GCUT_PEOE_3>
2.7945256

> <GCUT_SLOGP_0>
-0.95306128

> <GCUT_SLOGP_1>
-0.24913232

> <GCUT_SLOGP_2>
0.10753722

> <GCUT_SLOGP_3>
2.9146395

> <GCUT_SMR_0>
-0.51746529

> <GCUT_SMR_1>
-0.17993924

> <GCUT_SMR_2>
0.14880104

> <GCUT_SMR_3>
3.0845923

> <Kier1>
16.84375

> <Kier2>
6.8571429

> <Kier3>
3.2986112

> <KierA1>
12.888308

> <KierA2>
5.17488

> <KierA3>
2.4644978

> <KierFlex>
3.031611

> <lip_acc>
1

> <lip_don>
0

> <lip_druglike>
1

> <lip_violation>
0

> <logP(o/w)>
5.8449998

> <logS>
-4.9228802

> <mr>
9.3547325

> <mutagenic>
0

> <nmol>
1

> <opr_brigid>
17

> <opr_leadlike>
1

> <opr_nring>
3

> <opr_nrot>
3

> <opr_violation>
1

> <PC+>
0

> <PC->
0

> <PEOE_PC+>
1.1007481

> <PEOE_PC->
-1.1007481

> <PEOE_RPC+>
0.056661997

> <PEOE_RPC->
0.27985752

> <PEOE_VSA+0>
81.438499

> <PEOE_VSA+1>
38.388474

> <PEOE_VSA+2>
0.0

> <PEOE_VSA+3>
0.0

> <PEOE_VSA+4>
0.0

> <PEOE_VSA+5>
0.0

> <PEOE_VSA+6>
0.0

> <PEOE_VSA-0>
66.22139

> <PEOE_VSA-1>
147.78949

> <PEOE_VSA-2>
0.0

> <PEOE_VSA-3>
0.0

> <PEOE_VSA-4>
0.0

> <PEOE_VSA-5>
0.0

> <PEOE_VSA-6>
0.0

> <PEOE_VSA_FHYD>
1.0

> <PEOE_VSA_FNEG>
0.64106238

> <PEOE_VSA_FPNEG>
0.0

> <PEOE_VSA_FPOL>
0.0

> <PEOE_VSA_FPOS>
0.35893765

> <PEOE_VSA_FPPOS>
0.0

> <PEOE_VSA_HYD>
333.83786

> <PEOE_VSA_NEG>
214.01088

> <PEOE_VSA_PNEG>
0.0

> <PEOE_VSA_POL>
0.0

> <PEOE_VSA_POS>
119.82697

> <PEOE_VSA_PPOS>
0.0

> <petitjean>
0.44444445

> <petitjeanSC>
0.80000001

> <Q_PC+>
0

> <Q_PC->
0

> <Q_RPC+>
0

> <Q_RPC->
0

> <Q_VSA_FHYD>
1

> <Q_VSA_FNEG>
0

> <Q_VSA_FPNEG>
0

> <Q_VSA_FPOL>
0

> <Q_VSA_FPOS>
1

> <Q_VSA_FPPOS>
0

> <Q_VSA_HYD>
333.83786

> <Q_VSA_NEG>
0

> <Q_VSA_PNEG>
0

> <Q_VSA_POL>
0

> <Q_VSA_POS>
333.83786

> <Q_VSA_PPOS>
0

> <radius>
5

> <reactive>
0

> <rings>
3

> <RPC+>
0

> <RPC->
0

> <rsynth>
0.0

> <SlogP>
4.5265899

> <SlogP_VSA0>
0.0

> <SlogP_VSA1>
3.1243138

> <SlogP_VSA2>
0.0

> <SlogP_VSA3>
21.625153

> <SlogP_VSA4>
12.7423

> <SlogP_VSA5>
65.794373

> <SlogP_VSA6>
0.0

> <SlogP_VSA7>
158.78867

> <SlogP_VSA8>
18.868406

> <SlogP_VSA9>
66.652031

> <SMR>
9.4200001

> <SMR_VSA0>
0.0

> <SMR_VSA1>
3.1243138

> <SMR_VSA2>
3.185575

> <SMR_VSA3>
12.7423

> <SMR_VSA4>
0.0

> <SMR_VSA5>
177.65706

> <SMR_VSA6>
18.439579

> <SMR_VSA7>
132.44641

> <TPSA>
3.24

> <VAdjEq>
0.46637034

> <VAdjMa>
5.5849624

> <VDistEq>
3.0433009

> <VDistMa>
8.6511908

> <vdw_area>
333.83786

> <vdw_vol>
461.81152

> <vsa_acc>
0.0

> <vsa_acid>
0

> <vsa_base>
0

> <vsa_don>
0.0

> <vsa_hyd>
316.04297

> <vsa_other>
0.0

> <vsa_pol>
0.0

> <Weight>
291.43799

> <weinerPath>
973

> <weinerPol>
39

> <zagreb>
118

$$$$
Row1633
 OpenBabel06061811532D

 13 15  0  0  1  0  0  0  0  0999 V2000
    0.0000    0.0000    0.0000 N   0  0  0  0  0  0  0  0  0  0  0  0
    0.0000    0.0000    0.0000 C   0  0  3  0  0  0  0  0  0  0  0  0
    0.0000    0.0000    0.0000 C   0  0  0  0  0  0  0  0  0  0  0  0
    0.0000    0.0000    0.0000 C   0  0  3  0  0  0  0  0  0  0  0  0
    0.0000    0.0000    0.0000 C   0  0  0  0  0  0  0  0  0  0  0  0
    0.0000    0.0000    0.0000 C   0  0  3  0  0  0  0  0  0  0  0  0
    0.0000    0.0000    0.0000 C   0  0  0  0  0  0  0  0  0  0  0  0
    0.0000    0.0000    0.0000 C   0  0  0  0  0  0  0  0  0  0  0  0
    0.0000    0.0000    0.0000 C   0  0  3  0  0  0  0  0  0  0  0  0
    0.0000    0.0000    0.0000 C   0  0  0  0  0  0  0  0  0  0  0  0
    0.0000    0.0000    0.0000 C   0  0  0  0  0  0  0  0  0  0  0  0
    0.0000    0.0000    0.0000 C   0  0  0  0  0  0  0  0  0  0  0  0
    0.0000    0.0000    0.0000 C   0  0  0  0  0  0  0  0  0  0  0  0
  1  2  1  0  0  0  0
  2  7  1  0  0  0  0
  2 11  1  0  0  0  0
  2  3  1  0  0  0  0
  3  4  1  0  0  0  0
  4 10  1  0  0  0  0
  4  5  1  0  0  0  0
  4 13  1  0  0  0  0
  5  6  1  0  0  0  0
  6  7  1  0  0  0  0
  6  8  1  0  0  0  0
  6 12  1  0  0  0  0
  8  9  1  0  0  0  0
  9 10  1  0  0  0  0
  9 11  1  0  0  0  0
M  END
> <Index>
1634

> <ID>
HT1297

> <class>
1

> <apol>
36.222652

> <ast_fraglike>
1

> <ast_fraglike_ext>
1

> <ast_violation>
0

> <ast_violation_ext>
0

> <a_acc>
1

> <a_acid>
0

> <a_aro>
0

> <a_base>
0

> <a_count>
34

> <a_don>
1

> <a_donacc>
2

> <a_heavy>
13

> <a_hyd>
12

> <a_IC>
37.715519

> <a_ICM>
1.10928

> <a_nB>
0

> <a_nBr>
0

> <a_nC>
12

> <a_nCl>
0

> <a_nF>
0

> <a_nH>
21

> <a_nI>
0

> <a_nN>
1

> <a_nO>
0

> <a_nP>
0

> <a_nS>
0

> <balabanJ>
2.0314968

> <BCUT_PEOE_0>
-3.0345573

> <BCUT_PEOE_1>
0.0095314309

> <BCUT_PEOE_2>
0.040088315

> <BCUT_PEOE_3>
2.9780478

> <BCUT_SLOGP_0>
-2.9922695

> <BCUT_SLOGP_1>
0.070339382

> <BCUT_SLOGP_2>
0.123

> <BCUT_SLOGP_3>
3.064853

> <BCUT_SMR_0>
-2.7742906

> <BCUT_SMR_1>
0.1057

> <BCUT_SMR_2>
0.16474937

> <BCUT_SMR_3>
3.2384121

> <bpol>
22.297346

> <b_1rotN>
0

> <b_1rotR>
0.0

> <b_ar>
0

> <b_count>
36

> <b_double>
0

> <b_heavy>
15

> <b_max1len>
2

> <b_rotN>
0

> <b_rotR>
0.0

> <b_single>
36

> <b_triple>
0

> <chi0>
9.3199911

> <chi0v>
8.8973408

> <chi0v_C>
8.3199911

> <chi0_C>
8.3199911

> <chi1>
5.9067254

> <chi1v>
5.6954007

> <chi1v_C>
5.4067254

> <chi1_C>
5.4067254

> <chiral>
2

> <chiral_u>
2

> <density>
0.64031512

> <diameter>
4

> <FCharge>
0

> <GCUT_PEOE_0>
-0.83956963

> <GCUT_PEOE_1>
-0.25569099

> <GCUT_PEOE_2>
-0.13118072

> <GCUT_PEOE_3>
3.0435104

> <GCUT_SLOGP_0>
-1.3636006

> <GCUT_SLOGP_1>
-0.19935967

> <GCUT_SLOGP_2>
-0.037

> <GCUT_SLOGP_3>
3.1285527

> <GCUT_SMR_0>
-0.53635597

> <GCUT_SMR_1>
-0.096836947

> <GCUT_SMR_2>
-0.054299999

> <GCUT_SMR_3>
3.2700474

> <Kier1>
8.3199997

> <Kier2>
1.9917696

> <Kier3>
1.1019284

> <KierA1>
8.3199997

> <KierA2>
1.9917696

> <KierA3>
1.1019284

> <KierFlex>
1.2747325

> <lip_acc>
1

> <lip_don>
2

> <lip_druglike>
1

> <lip_violation>
0

> <logP(o/w)>
2.816

> <logS>
-3.1388199

> <mr>
5.3085175

> <mutagenic>
0

> <nmol>
1

> <opr_brigid>
12

> <opr_leadlike>
1

> <opr_nring>
3

> <opr_nrot>
0

> <opr_violation>
0

> <PC+>
0

> <PC->
0

> <PEOE_PC+>
0.76322675

> <PEOE_PC->
-0.76322675

> <PEOE_RPC+>
0.15555739

> <PEOE_RPC->
0.42526996

> <PEOE_VSA+0>
81.042336

> <PEOE_VSA+1>
0.0

> <PEOE_VSA+2>
17.238026

> <PEOE_VSA+3>
0.0

> <PEOE_VSA+4>
0.0

> <PEOE_VSA+5>
0.0

> <PEOE_VSA+6>
0.0

> <PEOE_VSA-0>
52.207878

> <PEOE_VSA-1>
37.495354

> <PEOE_VSA-2>
0.0

> <PEOE_VSA-3>
0.0

> <PEOE_VSA-4>
0.0

> <PEOE_VSA-5>
0.0

> <PEOE_VSA-6>
6.6511192

> <PEOE_VSA_FHYD>
0.9658277

> <PEOE_VSA_FNEG>
0.49505225

> <PEOE_VSA_FPNEG>
0.034172319

> <PEOE_VSA_FPOL>
0.034172319

> <PEOE_VSA_FPOS>
0.50494772

> <PEOE_VSA_FPPOS>
0.0

> <PEOE_VSA_HYD>
187.9836

> <PEOE_VSA_NEG>
96.354355

> <PEOE_VSA_PNEG>
6.6511192

> <PEOE_VSA_POL>
6.6511192

> <PEOE_VSA_POS>
98.280357

> <PEOE_VSA_PPOS>
0.0

> <petitjean>
0.25

> <petitjeanSC>
0.33333334

> <Q_PC+>
0

> <Q_PC->
0

> <Q_RPC+>
0

> <Q_RPC->
0

> <Q_VSA_FHYD>
1

> <Q_VSA_FNEG>
0

> <Q_VSA_FPNEG>
0

> <Q_VSA_FPOL>
0

> <Q_VSA_FPOS>
1

> <Q_VSA_FPPOS>
0

> <Q_VSA_HYD>
194.63472

> <Q_VSA_NEG>
0

> <Q_VSA_PNEG>
0

> <Q_VSA_POL>
0

> <Q_VSA_POS>
194.63472

> <Q_VSA_PPOS>
0

> <radius>
3

> <reactive>
0

> <rings>
3

> <RPC+>
0

> <RPC->
0

> <rsynth>
1.0

> <SlogP>
2.6940999

> <SlogP_VSA0>
32.897186

> <SlogP_VSA1>
0.0

> <SlogP_VSA2>
0.0

> <SlogP_VSA3>
0.0

> <SlogP_VSA4>
4.4107962

> <SlogP_VSA5>
0.0

> <SlogP_VSA6>
0.0

> <SlogP_VSA7>
0.0

> <SlogP_VSA8>
113.21043

> <SlogP_VSA9>
66.652031

> <SMR>
5.4324398

> <SMR_VSA0>
0.0

> <SMR_VSA1>
0.0

> <SMR_VSA2>
4.4107962

> <SMR_VSA3>
0.0

> <SMR_VSA4>
32.897186

> <SMR_VSA5>
113.21043

> <SMR_VSA6>
0.0

> <SMR_VSA7>
66.652031

> <TPSA>
26.02

> <VAdjEq>
0.67461002

> <VAdjMa>
4.9068904

> <VDistEq>
1.9542824

> <VDistMa>
7.1586466

> <vdw_area>
194.63472

> <vdw_vol>
280.02933

> <vsa_acc>
0.0

> <vsa_acid>
0

> <vsa_base>
0

> <vsa_don>
0.0

> <vsa_hyd>
155.8764

> <vsa_other>
0.0

> <vsa_pol>
17.742489

> <Weight>
179.30699

> <weinerPath>
192

> <weinerPol>
21

> <zagreb>
84

$$$$
Row1634
 OpenBabel06061811532D

 22 25  0  0  1  0  0  0  0  0999 V2000
    0.0000    0.0000    0.0000 S   0  0  0  0  0  0  0  0  0  0  0  0
    0.0000    0.0000    0.0000 C   0  0  0  0  0  0  0  0  0  0  0  0
    0.0000    0.0000    0.0000 C   0  0  0  0  0  0  0  0  0  0  0  0
    0.0000    0.0000    0.0000 N   0  0  0  0  0  0  0  0  0  0  0  0
    0.0000    0.0000    0.0000 C   0  0  0  0  0  0  0  0  0  0  0  0
    0.0000    0.0000    0.0000 C   0  0  0  0  0  0  0  0  0  0  0  0
    0.0000    0.0000    0.0000 C   0  0  0  0  0  0  0  0  0  0  0  0
    0.0000    0.0000    0.0000 C   0  0  0  0  0  0  0  0  0  0  0  0
    0.0000    0.0000    0.0000 C   0  0  0  0  0  0  0  0  0  0  0  0
    0.0000    0.0000    0.0000 C   0  0  0  0  0  0  0  0  0  0  0  0
    0.0000    0.0000    0.0000 C   0  0  0  0  0  0  0  0  0  0  0  0
    0.0000    0.0000    0.0000 C   0  0  3  0  0  0  0  0  0  0  0  0
    0.0000    0.0000    0.0000 C   0  0  0  0  0  0  0  0  0  0  0  0
    0.0000    0.0000    0.0000 C   0  0  0  0  0  0  0  0  0  0  0  0
    0.0000    0.0000    0.0000 C   0  0  0  0  0  0  0  0  0  0  0  0
    0.0000    0.0000    0.0000 N   0  0  0  0  0  0  0  0  0  0  0  0
    0.0000    0.0000    0.0000 C   0  0  0  0  0  0  0  0  0  0  0  0
    0.0000    0.0000    0.0000 C   0  0  0  0  0  0  0  0  0  0  0  0
    0.0000    0.0000    0.0000 C   0  0  0  0  0  0  0  0  0  0  0  0
    0.0000    0.0000    0.0000 C   0  0  0  0  0  0  0  0  0  0  0  0
    0.0000    0.0000    0.0000 C   0  0  0  0  0  0  0  0  0  0  0  0
    0.0000    0.0000    0.0000 C   0  0  0  0  0  0  0  0  0  0  0  0
  1  6  1  0  0  0  0
  1  2  1  0  0  0  0
  2 22  1  0  0  0  0
  2  3  2  0  0  0  0
  3  4  1  0  0  0  0
  3 19  1  0  0  0  0
  4  5  1  0  0  0  0
  4 11  1  0  0  0  0
  5 10  1  0  0  0  0
  5  6  2  0  0  0  0
  6  7  1  0  0  0  0
  7  8  2  0  0  0  0
  8  9  1  0  0  0  0
  9 10  2  0  0  0  0
 11 12  1  0  0  0  0
 12 17  1  0  0  0  0
 12 13  1  0  0  0  0
 13 14  1  0  0  0  0
 14 15  1  0  0  0  0
 15 16  1  0  0  0  0
 16 17  1  0  0  0  0
 16 18  1  0  0  0  0
 19 20  2  0  0  0  0
 20 21  1  0  0  0  0
 21 22  2  0  0  0  0
M  END
> <Index>
1635

> <ID>
HT1303

> <class>
1

> <apol>
53.209446

> <ast_fraglike>
0

> <ast_fraglike_ext>
0

> <ast_violation>
2

> <ast_violation_ext>
3

> <a_acc>
1

> <a_acid>
0

> <a_aro>
12

> <a_base>
0

> <a_count>
44

> <a_don>
0

> <a_donacc>
1

> <a_heavy>
22

> <a_hyd>
20

> <a_IC>
59.396873

> <a_ICM>
1.349929

> <a_nB>
0

> <a_nBr>
0

> <a_nC>
19

> <a_nCl>
0

> <a_nF>
0

> <a_nH>
22

> <a_nI>
0

> <a_nN>
2

> <a_nO>
0

> <a_nP>
0

> <a_nS>
1

> <balabanJ>
1.497745

> <BCUT_PEOE_0>
-2.8082933

> <BCUT_PEOE_1>
-0.55743492

> <BCUT_PEOE_2>
0.6086936

> <BCUT_PEOE_3>
2.7319009

> <BCUT_SLOGP_0>
-2.8345172

> <BCUT_SLOGP_1>
-0.47408748

> <BCUT_SLOGP_2>
0.69804758

> <BCUT_SLOGP_3>
2.7513463

> <BCUT_SMR_0>
-2.538234

> <BCUT_SMR_1>
-0.42867431

> <BCUT_SMR_2>
0.73673284

> <BCUT_SMR_3>
2.9989066

> <bpol>
30.290554

> <b_1rotN>
2

> <b_1rotR>
0.079999998

> <b_ar>
12

> <b_count>
47

> <b_double>
0

> <b_heavy>
25

> <b_max1len>
3

> <b_rotN>
2

> <b_rotR>
0.079999998

> <b_single>
35

> <b_triple>
0

> <chi0>
14.940947

> <chi0v>
13.850859

> <chi0v_C>
11.731687

> <chi0_C>
13.07914

> <chi1>
10.809663

> <chi1v>
8.9473009

> <chi1v_C>
5.8794456

> <chi1_C>
7.5244045

> <chiral>
1

> <chiral_u>
1

> <density>
0.6972909

> <diameter>
9

> <FCharge>
0

> <GCUT_PEOE_0>
-0.85981166

> <GCUT_PEOE_1>
-0.37446234

> <GCUT_PEOE_2>
0.062003717

> <GCUT_PEOE_3>
2.7864642

> <GCUT_SLOGP_0>
-0.9539327

> <GCUT_SLOGP_1>
-0.25357211

> <GCUT_SLOGP_2>
0.14450282

> <GCUT_SLOGP_3>
2.8937011

> <GCUT_SMR_0>
-0.52446091

> <GCUT_SMR_1>
-0.18575607

> <GCUT_SMR_2>
0.16362394

> <GCUT_SMR_3>
3.0693743

> <Kier1>
15.5232

> <Kier2>
6.8571429

> <Kier3>
3.2986112

> <KierA1>
12.988824

> <KierA2>
5.6858988

> <KierA3>
2.7172744

> <KierFlex>
3.3569608

> <lip_acc>
2

> <lip_don>
0

> <lip_druglike>
1

> <lip_violation>
0

> <logP(o/w)>
4.3720002

> <logS>
-4.2667999

> <mr>
9.392127

> <mutagenic>
0

> <nmol>
1

> <opr_brigid>
22

> <opr_leadlike>
1

> <opr_nring>
4

> <opr_nrot>
4

> <opr_violation>
1

> <PC+>
0

> <PC->
0

> <PEOE_PC+>
1.1679497

> <PEOE_PC->
-1.1679497

> <PEOE_RPC+>
0.054253824

> <PEOE_RPC->
0.26116303

> <PEOE_VSA+0>
107.86836

> <PEOE_VSA+1>
34.123089

> <PEOE_VSA+2>
0.0

> <PEOE_VSA+3>
0.0

> <PEOE_VSA+4>
0.0

> <PEOE_VSA+5>
0.0

> <PEOE_VSA+6>
0.0

> <PEOE_VSA-0>
102.85326

> <PEOE_VSA-1>
68.780235

> <PEOE_VSA-2>
0.0

> <PEOE_VSA-3>
0.0

> <PEOE_VSA-4>
0.0

> <PEOE_VSA-5>
0.0

> <PEOE_VSA-6>
0.0

> <PEOE_VSA_FHYD>
1.0

> <PEOE_VSA_FNEG>
0.54725713

> <PEOE_VSA_FPNEG>
0.0

> <PEOE_VSA_FPOL>
0.0

> <PEOE_VSA_FPOS>
0.45274284

> <PEOE_VSA_FPPOS>
0.0

> <PEOE_VSA_HYD>
313.62494

> <PEOE_VSA_NEG>
171.63348

> <PEOE_VSA_PNEG>
0.0

> <PEOE_VSA_POL>
0.0

> <PEOE_VSA_POS>
141.99144

> <PEOE_VSA_PPOS>
0.0

> <petitjean>
0.44444445

> <petitjeanSC>
0.80000001

> <Q_PC+>
0

> <Q_PC->
0

> <Q_RPC+>
0

> <Q_RPC->
0

> <Q_VSA_FHYD>
1

> <Q_VSA_FNEG>
0

> <Q_VSA_FPNEG>
0

> <Q_VSA_FPOL>
0

> <Q_VSA_FPOS>
1

> <Q_VSA_FPPOS>
0

> <Q_VSA_HYD>
313.62494

> <Q_VSA_NEG>
0

> <Q_VSA_PNEG>
0

> <Q_VSA_POL>
0

> <Q_VSA_POS>
313.62494

> <Q_VSA_PPOS>
0

> <radius>
5

> <reactive>
0

> <rings>
4

> <RPC+>
0

> <RPC->
0

> <rsynth>
1.0

> <SlogP>
4.6311002

> <SlogP_VSA0>
3.1243138

> <SlogP_VSA1>
3.1243138

> <SlogP_VSA2>
0.0

> <SlogP_VSA3>
55.318733

> <SlogP_VSA4>
4.4107962

> <SlogP_VSA5>
35.998657

> <SlogP_VSA6>
0.0

> <SlogP_VSA7>
141.14548

> <SlogP_VSA8>
37.736813

> <SlogP_VSA9>
37.733036

> <SMR>
9.4235001

> <SMR_VSA0>
0.0

> <SMR_VSA1>
3.1243138

> <SMR_VSA2>
10.636578

> <SMR_VSA3>
0.0

> <SMR_VSA4>
5.513495

> <SMR_VSA5>
178.88228

> <SMR_VSA6>
55.318733

> <SMR_VSA7>
65.11673

> <TPSA>
6.48

> <VAdjEq>
0.47938794

> <VAdjMa>
5.643856

> <VDistEq>
3.0298119

> <VDistMa>
8.6543236

> <vdw_area>
313.62494

> <vdw_vol>
445.2446

> <vsa_acc>
0.0

> <vsa_acid>
0

> <vsa_base>
0

> <vsa_don>
0.0

> <vsa_hyd>
296.62039

> <vsa_other>
0.0

> <vsa_pol>
0.0

> <Weight>
310.465

> <weinerPath>
982

> <weinerPol>
36

> <zagreb>
120

$$$$
Row1635
 OpenBabel06061811532D

 23 27  0  0  1  0  0  0  0  0999 V2000
    0.0000    0.0000    0.0000 S   0  0  0  0  0  0  0  0  0  0  0  0
    0.0000    0.0000    0.0000 C   0  0  0  0  0  0  0  0  0  0  0  0
    0.0000    0.0000    0.0000 C   0  0  0  0  0  0  0  0  0  0  0  0
    0.0000    0.0000    0.0000 N   0  0  0  0  0  0  0  0  0  0  0  0
    0.0000    0.0000    0.0000 C   0  0  0  0  0  0  0  0  0  0  0  0
    0.0000    0.0000    0.0000 C   0  0  0  0  0  0  0  0  0  0  0  0
    0.0000    0.0000    0.0000 C   0  0  0  0  0  0  0  0  0  0  0  0
    0.0000    0.0000    0.0000 C   0  0  0  0  0  0  0  0  0  0  0  0
    0.0000    0.0000    0.0000 C   0  0  0  0  0  0  0  0  0  0  0  0
    0.0000    0.0000    0.0000 C   0  0  0  0  0  0  0  0  0  0  0  0
    0.0000    0.0000    0.0000 C   0  0  0  0  0  0  0  0  0  0  0  0
    0.0000    0.0000    0.0000 C   0  0  3  0  0  0  0  0  0  0  0  0
    0.0000    0.0000    0.0000 C   0  0  3  0  0  0  0  0  0  0  0  0
    0.0000    0.0000    0.0000 C   0  0  0  0  0  0  0  0  0  0  0  0
    0.0000    0.0000    0.0000 C   0  0  0  0  0  0  0  0  0  0  0  0
    0.0000    0.0000    0.0000 N   0  0  3  0  0  0  0  0  0  0  0  0
    0.0000    0.0000    0.0000 C   0  0  0  0  0  0  0  0  0  0  0  0
    0.0000    0.0000    0.0000 C   0  0  0  0  0  0  0  0  0  0  0  0
    0.0000    0.0000    0.0000 C   0  0  0  0  0  0  0  0  0  0  0  0
    0.0000    0.0000    0.0000 C   0  0  0  0  0  0  0  0  0  0  0  0
    0.0000    0.0000    0.0000 C   0  0  0  0  0  0  0  0  0  0  0  0
    0.0000    0.0000    0.0000 C   0  0  0  0  0  0  0  0  0  0  0  0
    0.0000    0.0000    0.0000 C   0  0  0  0  0  0  0  0  0  0  0  0
  1  6  1  0  0  0  0
  1  2  1  0  0  0  0
  2 23  1  0  0  0  0
  2  3  2  0  0  0  0
  3  4  1  0  0  0  0
  3 20  1  0  0  0  0
  4  5  1  0  0  0  0
  4 11  1  0  0  0  0
  5 10  1  0  0  0  0
  5  6  2  0  0  0  0
  6  7  1  0  0  0  0
  7  8  2  0  0  0  0
  8  9  1  0  0  0  0
  9 10  2  0  0  0  0
 11 12  1  0  0  0  0
 12 17  1  0  0  0  0
 12 13  1  0  0  0  0
 13 19  1  0  0  0  0
 13 14  1  0  0  0  0
 14 15  1  0  0  0  0
 15 16  1  0  0  0  0
 16 17  1  0  0  0  0
 16 18  1  0  0  0  0
 18 19  1  0  0  0  0
 20 21  2  0  0  0  0
 21 22  1  0  0  0  0
 22 23  2  0  0  0  0
M  END
> <Index>
1636

> <ID>
HT1313

> <class>
1

> <apol>
54.969444

> <ast_fraglike>
0

> <ast_fraglike_ext>
0

> <ast_violation>
2

> <ast_violation_ext>
3

> <a_acc>
1

> <a_acid>
0

> <a_aro>
12

> <a_base>
0

> <a_count>
45

> <a_don>
0

> <a_donacc>
1

> <a_heavy>
23

> <a_hyd>
21

> <a_IC>
60.587334

> <a_ICM>
1.3463851

> <a_nB>
0

> <a_nBr>
0

> <a_nC>
20

> <a_nCl>
0

> <a_nF>
0

> <a_nH>
22

> <a_nI>
0

> <a_nN>
2

> <a_nO>
0

> <a_nP>
0

> <a_nS>
1

> <balabanJ>
1.3609023

> <BCUT_PEOE_0>
-2.9089227

> <BCUT_PEOE_1>
-0.58061534

> <BCUT_PEOE_2>
0.63053554

> <BCUT_PEOE_3>
2.8352292

> <BCUT_SLOGP_0>
-2.932296

> <BCUT_SLOGP_1>
-0.46957743

> <BCUT_SLOGP_2>
0.73238212

> <BCUT_SLOGP_3>
2.8416429

> <BCUT_SMR_0>
-2.6404791

> <BCUT_SMR_1>
-0.43601561

> <BCUT_SMR_2>
0.78117543

> <BCUT_SMR_3>
3.1000662

> <bpol>
30.290554

> <b_1rotN>
2

> <b_1rotR>
0.074074075

> <b_ar>
12

> <b_count>
49

> <b_double>
0

> <b_heavy>
27

> <b_max1len>
3

> <b_rotN>
2

> <b_rotR>
0.074074075

> <b_single>
37

> <b_triple>
0

> <chi0>
15.225404

> <chi0v>
14.135316

> <chi0v_C>
12.016144

> <chi0_C>
13.363597

> <chi1>
11.382143

> <chi1v>
9.5578966

> <chi1v_C>
6.621027

> <chi1_C>
8.2659864

> <chiral>
1

> <chiral_u>
1

> <density>
0.70752913

> <diameter>
9

> <FCharge>
0

> <GCUT_PEOE_0>
-0.85803515

> <GCUT_PEOE_1>
-0.3831535

> <GCUT_PEOE_2>
0.062100142

> <GCUT_PEOE_3>
2.890094

> <GCUT_SLOGP_0>
-0.95439208

> <GCUT_SLOGP_1>
-0.26984254

> <GCUT_SLOGP_2>
0.14794856

> <GCUT_SLOGP_3>
2.9751344

> <GCUT_SMR_0>
-0.5237847

> <GCUT_SMR_1>
-0.19126411

> <GCUT_SMR_2>
0.17508979

> <GCUT_SMR_3>
3.1622276

> <Kier1>
15.270233

> <Kier2>
6.3786983

> <Kier3>
2.8061225

> <KierA1>
12.882611

> <KierA2>
5.3372879

> <KierA3>
2.3333988

> <KierFlex>
2.9894869

> <lip_acc>
2

> <lip_don>
0

> <lip_druglike>
1

> <lip_violation>
0

> <logP(o/w)>
4.3070002

> <logS>
-4.4919701

> <mr>
9.6470871

> <mutagenic>
0

> <nmol>
1

> <opr_brigid>
25

> <opr_leadlike>
0

> <opr_nring>
5

> <opr_nrot>
6

> <opr_violation>
2

> <PC+>
0

> <PC->
0

> <PEOE_PC+>
1.1705126

> <PEOE_PC->
-1.1705126

> <PEOE_RPC+>
0.054135032

> <PEOE_RPC->
0.25799358

> <PEOE_VSA+0>
107.86836

> <PEOE_VSA+1>
34.123089

> <PEOE_VSA+2>
0.0

> <PEOE_VSA+3>
0.0

> <PEOE_VSA+4>
0.0

> <PEOE_VSA+5>
0.0

> <PEOE_VSA+6>
0.0

> <PEOE_VSA-0>
92.806892

> <PEOE_VSA-1>
68.780235

> <PEOE_VSA-2>
0.0

> <PEOE_VSA-3>
0.0

> <PEOE_VSA-4>
0.0

> <PEOE_VSA-5>
0.0

> <PEOE_VSA-6>
0.0

> <PEOE_VSA_FHYD>
1.0

> <PEOE_VSA_FNEG>
0.53227448

> <PEOE_VSA_FPNEG>
0.0

> <PEOE_VSA_FPOL>
0.0

> <PEOE_VSA_FPOS>
0.46772552

> <PEOE_VSA_FPPOS>
0.0

> <PEOE_VSA_HYD>
303.57858

> <PEOE_VSA_NEG>
161.58713

> <PEOE_VSA_PNEG>
0.0

> <PEOE_VSA_POL>
0.0

> <PEOE_VSA_POS>
141.99144

> <PEOE_VSA_PPOS>
0.0

> <petitjean>
0.44444445

> <petitjeanSC>
0.80000001

> <Q_PC+>
0

> <Q_PC->
0

> <Q_RPC+>
0

> <Q_RPC->
0

> <Q_VSA_FHYD>
1

> <Q_VSA_FNEG>
0

> <Q_VSA_FPNEG>
0

> <Q_VSA_FPOL>
0

> <Q_VSA_FPOS>
1

> <Q_VSA_FPPOS>
0

> <Q_VSA_HYD>
303.57858

> <Q_VSA_NEG>
0

> <Q_VSA_PNEG>
0

> <Q_VSA_POL>
0

> <Q_VSA_POS>
303.57858

> <Q_VSA_PPOS>
0

> <radius>
5

> <reactive>
0

> <rings>
5

> <RPC+>
0

> <RPC->
0

> <rsynth>
0.60869563

> <SlogP>
4.6311002

> <SlogP_VSA0>
3.1243138

> <SlogP_VSA1>
3.1243138

> <SlogP_VSA2>
0.0

> <SlogP_VSA3>
73.758316

> <SlogP_VSA4>
8.8215923

> <SlogP_VSA5>
3.1014678

> <SlogP_VSA6>
0.0

> <SlogP_VSA7>
141.14548

> <SlogP_VSA8>
37.736813

> <SlogP_VSA9>
37.733036

> <SMR>
9.6667995

> <SMR_VSA0>
0.0

> <SMR_VSA1>
3.1243138

> <SMR_VSA2>
15.047374

> <SMR_VSA3>
0.0

> <SMR_VSA4>
5.513495

> <SMR_VSA5>
178.88228

> <SMR_VSA6>
73.758316

> <SMR_VSA7>
32.21954

> <TPSA>
6.48

> <VAdjEq>
0.47555268

> <VAdjMa>
5.7548876

> <VDistEq>
3.0305686

> <VDistMa>
8.7847147

> <vdw_area>
303.57858

> <vdw_vol>
455.77768

> <vsa_acc>
0.0

> <vsa_acid>
0

> <vsa_base>
0

> <vsa_don>
0.0

> <vsa_hyd>
285.22897

> <vsa_other>
0.0

> <vsa_pol>
0.0

> <Weight>
322.47598

> <weinerPath>
1086

> <weinerPol>
39

> <zagreb>
132

$$$$
Row1636
 OpenBabel06061811532D

 11 12  0  0  0  0  0  0  0  0999 V2000
    0.0000    0.0000    0.0000 S   0  0  0  0  0  0  0  0  0  0  0  0
    0.0000    0.0000    0.0000 C   0  0  0  0  0  0  0  0  0  0  0  0
    0.0000    0.0000    0.0000 N   0  0  0  0  0  0  0  0  0  0  0  0
    0.0000    0.0000    0.0000 C   0  0  0  0  0  0  0  0  0  0  0  0
    0.0000    0.0000    0.0000 N   0  0  0  0  0  0  0  0  0  0  0  0
    0.0000    0.0000    0.0000 C   0  0  0  0  0  0  0  0  0  0  0  0
    0.0000    0.0000    0.0000 N   0  0  0  0  0  0  0  0  0  0  0  0
    0.0000    0.0000    0.0000 C   0  0  0  0  0  0  0  0  0  0  0  0
    0.0000    0.0000    0.0000 N   0  0  0  0  0  0  0  0  0  0  0  0
    0.0000    0.0000    0.0000 H   0  0  0  0  0  0  0  0  0  0  0  0
    0.0000    0.0000    0.0000 C   0  0  0  0  0  0  0  0  0  0  0  0
  1  2  1  0  0  0  0
  2 11  1  0  0  0  0
  2  3  2  0  0  0  0
  3  4  1  0  0  0  0
  4  5  2  0  0  0  0
  5  6  1  0  0  0  0
  6 11  2  0  0  0  0
  6  7  1  0  0  0  0
  7  8  2  0  0  0  0
  8  9  1  0  0  0  0
  9 10  1  0  0  0  0
  9 11  1  0  0  0  0
M  END
> <Index>
1637

> <ID>
HT1314

> <class>
1

> <apol>
18.767172

> <ast_fraglike>
0

> <ast_fraglike_ext>
0

> <ast_violation>
1

> <ast_violation_ext>
1

> <a_acc>
4

> <a_acid>
0

> <a_aro>
9

> <a_base>
0

> <a_count>
14

> <a_don>
2

> <a_donacc>
6

> <a_heavy>
10

> <a_hyd>
2

> <a_IC>
25.693329

> <a_ICM>
1.8352377

> <a_nB>
0

> <a_nBr>
0

> <a_nC>
5

> <a_nCl>
0

> <a_nF>
0

> <a_nH>
4

> <a_nI>
0

> <a_nN>
4

> <a_nO>
0

> <a_nP>
0

> <a_nS>
1

> <balabanJ>
2.0757287

> <BCUT_PEOE_0>
-2.0108747

> <BCUT_PEOE_1>
-0.62905204

> <BCUT_PEOE_2>
0.81479096

> <BCUT_PEOE_3>
2.1068482

> <BCUT_SLOGP_0>
-1.936192

> <BCUT_SLOGP_1>
-0.65447849

> <BCUT_SLOGP_2>
0.84257323

> <BCUT_SLOGP_3>
2.226028

> <BCUT_SMR_0>
-1.6767455

> <BCUT_SMR_1>
-0.4220688

> <BCUT_SMR_2>
1.0728951

> <BCUT_SMR_3>
2.4385266

> <bpol>
11.272828

> <b_1rotN>
0

> <b_1rotR>
0.0

> <b_ar>
10

> <b_count>
15

> <b_double>
0

> <b_heavy>
11

> <b_max1len>
2

> <b_rotN>
0

> <b_rotR>
0.0

> <b_single>
5

> <b_triple>
0

> <chi0>
6.9746914

> <chi0v>
5.8379822

> <chi0v_C>
2.6547005

> <chi0_C>
3.1462643

> <chi1>
4.8770099

> <chi1v>
3.1549125

> <chi1v_C>
0.5

> <chi1_C>
0.66666669

> <chiral>
0

> <chiral_u>
0

> <density>
0.90415978

> <diameter>
4

> <FCharge>
0

> <GCUT_PEOE_0>
-0.82922643

> <GCUT_PEOE_1>
-0.46979254

> <GCUT_PEOE_2>
0.19797844

> <GCUT_PEOE_3>
1.9505928

> <GCUT_SLOGP_0>
-0.79587799

> <GCUT_SLOGP_1>
-0.40763238

> <GCUT_SLOGP_2>
0.24957073

> <GCUT_SLOGP_3>
2.0397592

> <GCUT_SMR_0>
-0.43723372

> <GCUT_SMR_1>
-0.17135409

> <GCUT_SMR_2>
0.41574714

> <GCUT_SMR_3>
2.2689543

> <Kier1>
6.6942148

> <Kier2>
2.5599999

> <Kier3>
1.12

> <KierA1>
5.0585737

> <KierA2>
1.8667142

> <KierA3>
0.79298228

> <KierFlex>
0.94429111

> <lip_acc>
4

> <lip_don>
1

> <lip_druglike>
1

> <lip_violation>
0

> <logP(o/w)>
0.40706

> <logS>
-2.8011799

> <mr>
3.9412851

> <mutagenic>
0

> <nmol>
1

> <opr_brigid>
10

> <opr_leadlike>
1

> <opr_nring>
2

> <opr_nrot>
0

> <opr_violation>
0

> <PC+>
0

> <PC->
0

> <PEOE_PC+>
1.1204375

> <PEOE_PC->
-1.1204375

> <PEOE_RPC+>
0.16218971

> <PEOE_RPC->
0.3043811

> <PEOE_VSA+0>
0.0

> <PEOE_VSA+1>
21.236927

> <PEOE_VSA+2>
52.923962

> <PEOE_VSA+3>
19.809576

> <PEOE_VSA+4>
0.0

> <PEOE_VSA+5>
0.0

> <PEOE_VSA+6>
0.0

> <PEOE_VSA-0>
0.0

> <PEOE_VSA-1>
0.0

> <PEOE_VSA-2>
26.362989

> <PEOE_VSA-3>
0.0

> <PEOE_VSA-4>
17.047728

> <PEOE_VSA-5>
0.0

> <PEOE_VSA-6>
0.13689101

> <PEOE_VSA_FHYD>
0.87503737

> <PEOE_VSA_FNEG>
0.31666827

> <PEOE_VSA_FPNEG>
0.12496263

> <PEOE_VSA_FPOL>
0.12496263

> <PEOE_VSA_FPOS>
0.68333173

> <PEOE_VSA_FPPOS>
0.0

> <PEOE_VSA_HYD>
120.33345

> <PEOE_VSA_NEG>
43.547607

> <PEOE_VSA_PNEG>
17.18462

> <PEOE_VSA_POL>
17.18462

> <PEOE_VSA_POS>
93.970467

> <PEOE_VSA_PPOS>
0.0

> <petitjean>
0.25

> <petitjeanSC>
0.33333334

> <Q_PC+>
0

> <Q_PC->
0

> <Q_RPC+>
0

> <Q_RPC->
0

> <Q_VSA_FHYD>
1

> <Q_VSA_FNEG>
0

> <Q_VSA_FPNEG>
0

> <Q_VSA_FPOL>
0

> <Q_VSA_FPOS>
1

> <Q_VSA_FPPOS>
0

> <Q_VSA_HYD>
137.51807

> <Q_VSA_NEG>
0

> <Q_VSA_PNEG>
0

> <Q_VSA_POL>
0

> <Q_VSA_POS>
137.51807

> <Q_VSA_PPOS>
0

> <radius>
3

> <reactive>
1

> <rings>
2

> <RPC+>
0

> <RPC->
0

> <rsynth>
1.0

> <SlogP>
0.64160001

> <SlogP_VSA0>
0.0

> <SlogP_VSA1>
50.35659

> <SlogP_VSA2>
16.78553

> <SlogP_VSA3>
0.0

> <SlogP_VSA4>
0.0

> <SlogP_VSA5>
1.1219065

> <SlogP_VSA6>
0.0

> <SlogP_VSA7>
37.430504

> <SlogP_VSA8>
46.107109

> <SlogP_VSA9>
0.0

> <SMR>
3.8936701

> <SMR_VSA0>
0.0

> <SMR_VSA1>
50.35659

> <SMR_VSA2>
17.907436

> <SMR_VSA3>
0.0

> <SMR_VSA4>
3.8594465

> <SMR_VSA5>
33.57106

> <SMR_VSA6>
0.0

> <SMR_VSA7>
46.107109

> <TPSA>
93.260002

> <VAdjEq>
0.76016748

> <VAdjMa>
4.4594316

> <VDistEq>
1.9512278

> <VDistMa>
6.3517823

> <vdw_area>
137.51807

> <vdw_vol>
168.31206

> <vsa_acc>
11.365152

> <vsa_acid>
0

> <vsa_base>
0

> <vsa_don>
0.0

> <vsa_hyd>
15.375164

> <vsa_other>
92.156113

> <vsa_pol>
22.730305

> <Weight>
152.181

> <weinerPath>
105

> <weinerPol>
12

> <zagreb>
52

$$$$
Row1637
 OpenBabel06061811532D

 32 34  0  0  1  0  0  0  0  0999 V2000
    0.0000    0.0000    0.0000 S   0  0  0  0  0  0  0  0  0  0  0  0
    0.0000    0.0000    0.0000 C   0  0  1  0  0  0  0  0  0  0  0  0
    0.0000    0.0000    0.0000 H   0  0  0  0  0  0  0  0  0  0  0  0
    0.0000    0.0000    0.0000 C   0  0  0  0  0  0  0  0  0  0  0  0
    0.0000    0.0000    0.0000 C   0  0  2  0  0  0  0  0  0  0  0  0
    0.0000    0.0000    0.0000 H   0  0  0  0  0  0  0  0  0  0  0  0
    0.0000    0.0000    0.0000 N   0  0  0  0  0  0  0  0  0  0  0  0
    0.0000    0.0000    0.0000 C   0  0  0  0  0  0  0  0  0  0  0  0
    0.0000    0.0000    0.0000 C   0  0  0  0  0  0  0  0  0  0  0  0
    0.0000    0.0000    0.0000 O   0  0  0  0  0  0  0  0  0  0  0  0
    0.0000    0.0000    0.0000 N   0  0  0  0  0  0  0  0  0  0  0  0
    0.0000    0.0000    0.0000 C   0  0  0  0  0  0  0  0  0  0  0  0
    0.0000    0.0000    0.0000 C   0  0  0  0  0  0  0  0  0  0  0  0
    0.0000    0.0000    0.0000 C   0  0  0  0  0  0  0  0  0  0  0  0
    0.0000    0.0000    0.0000 C   0  0  1  0  0  0  0  0  0  0  0  0
    0.0000    0.0000    0.0000 H   0  0  0  0  0  0  0  0  0  0  0  0
    0.0000    0.0000    0.0000 C   0  0  1  0  0  0  0  0  0  0  0  0
    0.0000    0.0000    0.0000 H   0  0  0  0  0  0  0  0  0  0  0  0
    0.0000    0.0000    0.0000 N   0  0  0  0  0  0  0  0  0  0  0  0
    0.0000    0.0000    0.0000 C   0  0  0  0  0  0  0  0  0  0  0  0
    0.0000    0.0000    0.0000 C   0  0  0  0  0  0  0  0  0  0  0  0
    0.0000    0.0000    0.0000 O   0  0  0  0  0  0  0  0  0  0  0  0
    0.0000    0.0000    0.0000 O   0  0  0  0  0  0  0  0  0  0  0  0
    0.0000    0.0000    0.0000 C   0  0  0  0  0  0  0  0  0  0  0  0
    0.0000    0.0000    0.0000 O   0  0  0  0  0  0  0  0  0  0  0  0
    0.0000    0.0000    0.0000 C   0  0  2  0  0  0  0  0  0  0  0  0
    0.0000    0.0000    0.0000 H   0  0  0  0  0  0  0  0  0  0  0  0
    0.0000    0.0000    0.0000 C   0  0  2  0  0  0  0  0  0  0  0  0
    0.0000    0.0000    0.0000 H   0  0  0  0  0  0  0  0  0  0  0  0
    0.0000    0.0000    0.0000 O   0  0  0  0  0  0  0  0  0  0  0  0
    0.0000    0.0000    0.0000 C   0  0  0  0  0  0  0  0  0  0  0  0
    0.0000    0.0000    0.0000 C   0  0  0  0  0  0  0  0  0  0  0  0
  1  2  1  0  0  0  0
  1 14  1  0  0  0  0
  2  3  1  0  0  0  0
  2  8  1  0  0  0  0
  2  4  1  0  0  0  0
  4  5  1  0  0  0  0
  5  6  1  0  0  0  0
  5  7  1  0  0  0  0
  5  9  1  0  0  0  0
  7  8  1  0  0  0  0
  9 10  2  0  0  0  0
  9 11  1  0  0  0  0
 11 12  1  0  0  0  0
 11 13  1  0  0  0  0
 14 20  2  0  0  0  0
 14 15  1  0  0  0  0
 15 16  1  0  0  0  0
 15 17  1  0  0  0  0
 15 32  1  0  0  0  0
 17 18  1  0  0  0  0
 17 26  1  0  0  0  0
 17 19  1  0  0  0  0
 19 20  1  0  0  0  0
 19 24  1  0  0  0  0
 20 21  1  0  0  0  0
 21 22  1  0  0  0  0
 21 23  2  0  0  0  0
 24 25  2  0  0  0  0
 24 26  1  0  0  0  0
 26 27  1  0  0  0  0
 26 28  1  0  0  0  0
 28 29  1  0  0  0  0
 28 30  1  0  0  0  0
 28 31  1  0  0  0  0
M  END
> <Index>
1638

> <ID>
HT1316

> <class>
1

> <apol>
56.799824

> <ast_fraglike>
0

> <ast_fraglike_ext>
0

> <ast_violation>
3

> <ast_violation_ext>
5

> <a_acc>
6

> <a_acid>
0

> <a_aro>
0

> <a_base>
0

> <a_count>
51

> <a_don>
4

> <a_donacc>
10

> <a_heavy>
26

> <a_hyd>
15

> <a_IC>
87.345894

> <a_ICM>
1.7126645

> <a_nB>
0

> <a_nBr>
0

> <a_nC>
17

> <a_nCl>
0

> <a_nF>
0

> <a_nH>
25

> <a_nI>
0

> <a_nN>
3

> <a_nO>
5

> <a_nP>
0

> <a_nS>
1

> <balabanJ>
1.6936814

> <BCUT_PEOE_0>
-2.7329874

> <BCUT_PEOE_1>
-0.4680233

> <BCUT_PEOE_2>
0.51643997

> <BCUT_PEOE_3>
2.8367743

> <BCUT_SLOGP_0>
-2.860635

> <BCUT_SLOGP_1>
-0.46874231

> <BCUT_SLOGP_2>
0.51530796

> <BCUT_SLOGP_3>
2.7708127

> <BCUT_SMR_0>
-2.499064

> <BCUT_SMR_1>
-0.34333003

> <BCUT_SMR_2>
0.61937362

> <BCUT_SMR_3>
3.0887849

> <bpol>
37.104176

> <b_1rotN>
6

> <b_1rotR>
0.21428572

> <b_ar>
0

> <b_count>
53

> <b_double>
4

> <b_heavy>
28

> <b_max1len>
4

> <b_rotN>
6

> <b_rotR>
0.21428572

> <b_single>
49

> <b_triple>
0

> <chi0>
19.333981

> <chi0v>
16.116659

> <chi0v_C>
11.378315

> <chi0_C>
11.765066

> <chi1>
12.145642

> <chi1v>
9.6248035

> <chi1v_C>
4.745471

> <chi1_C>
5.0461121

> <chiral>
6

> <chiral_u>
0

> <density>
0.80449361

> <diameter>
12

> <FCharge>
0

> <GCUT_PEOE_0>
-0.85731024

> <GCUT_PEOE_1>
-0.40228146

> <GCUT_PEOE_2>
0.05365821

> <GCUT_PEOE_3>
2.8584256

> <GCUT_SLOGP_0>
-1.1589053

> <GCUT_SLOGP_1>
-0.38684419

> <GCUT_SLOGP_2>
0.060298845

> <GCUT_SLOGP_3>
2.8364048

> <GCUT_SMR_0>
-0.54824108

> <GCUT_SMR_1>
-0.20608151

> <GCUT_SMR_2>
0.14793836

> <GCUT_SMR_3>
3.1139634

> <Kier1>
20.727041

> <Kier2>
7.7879934

> <Kier3>
3.5603333

> <KierA1>
18.755146

> <KierA2>
7.0176516

> <KierA3>
3.1985865

> <KierFlex>
5.0621953

> <lip_acc>
8

> <lip_don>
3

> <lip_druglike>
1

> <lip_violation>
0

> <logP(o/w)>
-0.59600002

> <logS>
-1.72841

> <mr>
9.6667891

> <mutagenic>
0

> <nmol>
1

> <opr_brigid>
13

> <opr_leadlike>
1

> <opr_nring>
3

> <opr_nrot>
6

> <opr_violation>
0

> <PC+>
0

> <PC->
0

> <PEOE_PC+>
2.7037973

> <PEOE_PC->
-2.7037973

> <PEOE_RPC+>
0.11416993

> <PEOE_RPC->
0.14469646

> <PEOE_VSA+0>
145.52765

> <PEOE_VSA+1>
23.993008

> <PEOE_VSA+2>
15.318564

> <PEOE_VSA+3>
0.0

> <PEOE_VSA+4>
46.547409

> <PEOE_VSA+5>
0.0

> <PEOE_VSA+6>
14.708499

> <PEOE_VSA-0>
27.44899

> <PEOE_VSA-1>
18.747677

> <PEOE_VSA-2>
19.760618

> <PEOE_VSA-3>
0.0

> <PEOE_VSA-4>
0.0

> <PEOE_VSA-5>
40.700764

> <PEOE_VSA-6>
15.671971

> <PEOE_VSA_FHYD>
0.68072581

> <PEOE_VSA_FNEG>
0.33203495

> <PEOE_VSA_FPNEG>
0.15301001

> <PEOE_VSA_FPOL>
0.31927419

> <PEOE_VSA_FPOS>
0.66796505

> <PEOE_VSA_FPPOS>
0.16626419

> <PEOE_VSA_HYD>
250.79651

> <PEOE_VSA_NEG>
122.33002

> <PEOE_VSA_PNEG>
56.372734

> <PEOE_VSA_POL>
117.62864

> <PEOE_VSA_POS>
246.09512

> <PEOE_VSA_PPOS>
61.255905

> <petitjean>
0.5

> <petitjeanSC>
1.0

> <Q_PC+>
0

> <Q_PC->
0

> <Q_RPC+>
0

> <Q_RPC->
0

> <Q_VSA_FHYD>
1

> <Q_VSA_FNEG>
0

> <Q_VSA_FPNEG>
0

> <Q_VSA_FPOL>
0

> <Q_VSA_FPOS>
1

> <Q_VSA_FPPOS>
0

> <Q_VSA_HYD>
368.42514

> <Q_VSA_NEG>
0

> <Q_VSA_PNEG>
0

> <Q_VSA_POL>
0

> <Q_VSA_POS>
368.42514

> <Q_VSA_PPOS>
0

> <radius>
6

> <reactive>
0

> <rings>
3

> <RPC+>
0

> <RPC->
0

> <rsynth>
1.0

> <SlogP>
-0.308

> <SlogP_VSA0>
43.395977

> <SlogP_VSA1>
24.51166

> <SlogP_VSA2>
88.795189

> <SlogP_VSA3>
43.824806

> <SlogP_VSA4>
8.8215923

> <SlogP_VSA5>
70.10186

> <SlogP_VSA6>
0.0

> <SlogP_VSA7>
0.0

> <SlogP_VSA8>
18.868406

> <SlogP_VSA9>
98.871574

> <SMR>
9.6112299

> <SMR_VSA0>
71.586647

> <SMR_VSA1>
31.633854

> <SMR_VSA2>
52.217567

> <SMR_VSA3>
21.516024

> <SMR_VSA4>
0.0

> <SMR_VSA5>
18.868406

> <SMR_VSA6>
36.70261

> <SMR_VSA7>
164.66594

> <TPSA>
110.18

> <VAdjEq>
0.41210872

> <VAdjMa>
5.8073549

> <VDistEq>
3.3929026

> <VDistMa>
9.1161518

> <vdw_area>
368.42514

> <vdw_vol>
476.65884

> <vsa_acc>
27.133842

> <vsa_acid>
0

> <vsa_base>
0

> <vsa_don>
0.0

> <vsa_hyd>
223.8279

> <vsa_other>
40.607563

> <vsa_pol>
73.517181

> <Weight>
383.46899

> <weinerPath>
1652

> <weinerPol>
43

> <zagreb>
142

$$$$
Row1638
 OpenBabel06061811532D

 11 11  0  0  0  0  0  0  0  0999 V2000
    0.0000    0.0000    0.0000 O   0  0  0  0  0  0  0  0  0  0  0  0
    0.0000    0.0000    0.0000 C   0  0  0  0  0  0  0  0  0  0  0  0
    0.0000    0.0000    0.0000 C   0  0  0  0  0  0  0  0  0  0  0  0
    0.0000    0.0000    0.0000 C   0  0  0  0  0  0  0  0  0  0  0  0
    0.0000    0.0000    0.0000 C   0  0  0  0  0  0  0  0  0  0  0  0
    0.0000    0.0000    0.0000 N   0  0  0  0  0  0  0  0  0  0  0  0
    0.0000    0.0000    0.0000 C   0  0  0  0  0  0  0  0  0  0  0  0
    0.0000    0.0000    0.0000 C   0  0  0  0  0  0  0  0  0  0  0  0
    0.0000    0.0000    0.0000 C   0  0  0  0  0  0  0  0  0  0  0  0
    0.0000    0.0000    0.0000 O   0  0  0  0  0  0  0  0  0  0  0  0
    0.0000    0.0000    0.0000 O   0  0  0  0  0  0  0  0  0  0  0  0
  1  2  1  0  0  0  0
  2  8  1  0  0  0  0
  2  3  2  0  0  0  0
  3  4  1  0  0  0  0
  4  5  2  0  0  0  0
  5  6  1  0  0  0  0
  5  7  1  0  0  0  0
  7  8  2  0  0  0  0
  8  9  1  0  0  0  0
  9 10  1  0  0  0  0
  9 11  2  0  0  0  0
M  END
> <Index>
1639

> <ID>
HT1317

> <class>
1

> <apol>
20.493551

> <ast_fraglike>
0

> <ast_fraglike_ext>
0

> <ast_violation>
1

> <ast_violation_ext>
1

> <a_acc>
3

> <a_acid>
0

> <a_aro>
6

> <a_base>
0

> <a_count>
18

> <a_don>
4

> <a_donacc>
7

> <a_heavy>
11

> <a_hyd>
6

> <a_IC>
31.000793

> <a_ICM>
1.7222663

> <a_nB>
0

> <a_nBr>
0

> <a_nC>
7

> <a_nCl>
0

> <a_nF>
0

> <a_nH>
7

> <a_nI>
0

> <a_nN>
1

> <a_nO>
3

> <a_nP>
0

> <a_nS>
0

> <balabanJ>
2.5185201

> <BCUT_PEOE_0>
-2.2279639

> <BCUT_PEOE_1>
-0.6891439

> <BCUT_PEOE_2>
0.74265337

> <BCUT_PEOE_3>
2.2197061

> <BCUT_SLOGP_0>
-2.3307903

> <BCUT_SLOGP_1>
-0.61877692

> <BCUT_SLOGP_2>
0.75986779

> <BCUT_SLOGP_3>
2.3628151

> <BCUT_SMR_0>
-1.897175

> <BCUT_SMR_1>
-0.50796998

> <BCUT_SMR_2>
0.88271731

> <BCUT_SMR_3>
2.5335209

> <bpol>
7.950449

> <b_1rotN>
1

> <b_1rotR>
0.090909094

> <b_ar>
6

> <b_count>
18

> <b_double>
1

> <b_heavy>
11

> <b_max1len>
2

> <b_rotN>
1

> <b_rotR>
0.090909094

> <b_single>
11

> <b_triple>
0

> <chi0>
8.4307213

> <chi0v>
5.6120768

> <chi0v_C>
3.7320509

> <chi0_C>
4.4307213

> <chi1>
5.1090608

> <chi1v>
2.9280467

> <chi1v_C>
1.9880339

> <chi1_C>
2.7996597

> <chiral>
0

> <chiral_u>
0

> <density>
0.82246053

> <diameter>
5

> <FCharge>
0

> <GCUT_PEOE_0>
-0.81250143

> <GCUT_PEOE_1>
-0.49308228

> <GCUT_PEOE_2>
0.17640068

> <GCUT_PEOE_3>
2.0574436

> <GCUT_SLOGP_0>
-1.3342918

> <GCUT_SLOGP_1>
-0.34615678

> <GCUT_SLOGP_2>
0.18741892

> <GCUT_SLOGP_3>
2.1880281

> <GCUT_SMR_0>
-0.42845571

> <GCUT_SMR_1>
-0.24563538

> <GCUT_SMR_2>
0.28174925

> <GCUT_SMR_3>
2.3505466

> <Kier1>
9.090909

> <Kier2>
3.5999999

> <Kier3>
2.2145329

> <KierA1>
6.1692924

> <KierA2>
2.3357639

> <KierA3>
1.3794875

> <KierFlex>
1.3100009

> <lip_acc>
4

> <lip_don>
4

> <lip_druglike>
1

> <lip_violation>
0

> <logP(o/w)>
0.63800001

> <logS>
-0.71320999

> <mr>
3.8655775

> <mutagenic>
0

> <nmol>
1

> <opr_brigid>
6

> <opr_leadlike>
1

> <opr_nring>
1

> <opr_nrot>
1

> <opr_violation>
0

> <PC+>
0

> <PC->
0

> <PEOE_PC+>
1.348148

> <PEOE_PC->
-1.348148

> <PEOE_RPC+>
0.21791551

> <PEOE_RPC->
0.26632968

> <PEOE_VSA+0>
6.6995511

> <PEOE_VSA+1>
23.463217

> <PEOE_VSA+2>
17.238026

> <PEOE_VSA+3>
0.0

> <PEOE_VSA+4>
20.648346

> <PEOE_VSA+5>
14.708499

> <PEOE_VSA+6>
0.0

> <PEOE_VSA-0>
36.764713

> <PEOE_VSA-1>
0.0

> <PEOE_VSA-2>
0.0

> <PEOE_VSA-3>
0.0

> <PEOE_VSA-4>
0.0

> <PEOE_VSA-5>
13.566921

> <PEOE_VSA-6>
22.186199

> <PEOE_VSA_FHYD>
0.54203993

> <PEOE_VSA_FNEG>
0.46702698

> <PEOE_VSA_FPNEG>
0.23025608

> <PEOE_VSA_FPOL>
0.45796007

> <PEOE_VSA_FPOS>
0.53297305

> <PEOE_VSA_FPPOS>
0.22770399

> <PEOE_VSA_HYD>
84.165504

> <PEOE_VSA_NEG>
72.51783

> <PEOE_VSA_PNEG>
35.75312

> <PEOE_VSA_POL>
71.109962

> <PEOE_VSA_POS>
82.757637

> <PEOE_VSA_PPOS>
35.356846

> <petitjean>
0.40000001

> <petitjeanSC>
0.66666669

> <Q_PC+>
0

> <Q_PC->
0

> <Q_RPC+>
0

> <Q_RPC->
0

> <Q_VSA_FHYD>
1

> <Q_VSA_FNEG>
0

> <Q_VSA_FPNEG>
0

> <Q_VSA_FPOL>
0

> <Q_VSA_FPOS>
1

> <Q_VSA_FPPOS>
0

> <Q_VSA_HYD>
155.27547

> <Q_VSA_NEG>
0

> <Q_VSA_PNEG>
0

> <Q_VSA_POL>
0

> <Q_VSA_POS>
155.27547

> <Q_VSA_PPOS>
0

> <radius>
3

> <reactive>
0

> <rings>
1

> <RPC+>
0

> <RPC->
0

> <rsynth>
1.0

> <SlogP>
0.67259997

> <SlogP_VSA0>
58.282413

> <SlogP_VSA1>
7.7454643

> <SlogP_VSA2>
0.0

> <SlogP_VSA3>
25.385227

> <SlogP_VSA4>
27.047791

> <SlogP_VSA5>
0.0

> <SlogP_VSA6>
0.0

> <SlogP_VSA7>
52.929554

> <SlogP_VSA8>
0.0

> <SlogP_VSA9>
8.0001755

> <SMR>
3.94785

> <SMR_VSA0>
23.862217

> <SMR_VSA1>
25.385227

> <SMR_VSA2>
25.385227

> <SMR_VSA3>
8.4290028

> <SMR_VSA4>
2.7567475

> <SMR_VSA5>
85.826744

> <SMR_VSA6>
7.7454643

> <SMR_VSA7>
0.0

> <TPSA>
83.550003

> <VAdjEq>
0.68403846

> <VAdjMa>
4.4594316

> <VDistEq>
2.2397416

> <VDistMa>
6.6242061

> <vdw_area>
155.27547

> <vdw_vol>
186.19373

> <vsa_acc>
0.0

> <vsa_acid>
0

> <vsa_base>
0

> <vsa_don>
17.742489

> <vsa_hyd>
64.792091

> <vsa_other>
14.708499

> <vsa_pol>
58.443253

> <Weight>
153.13699

> <weinerPath>
148

> <weinerPol>
14

> <zagreb>
52

$$$$
Row1639
 OpenBabel06061811532D

  9  8  0  0  0  0  0  0  0  0999 V2000
    0.0000    0.0000    0.0000 N   0  0  0  0  0  0  0  0  0  0  0  0
    0.0000    0.0000    0.0000 C   0  0  0  0  0  0  0  0  0  0  0  0
    0.0000    0.0000    0.0000 N   0  0  0  0  0  0  0  0  0  0  0  0
    0.0000    0.0000    0.0000 N   0  0  0  0  0  0  0  0  0  0  0  0
    0.0000    0.0000    0.0000 C   0  0  0  0  0  0  0  0  0  0  0  0
    0.0000    0.0000    0.0000 N   0  0  0  0  0  0  0  0  0  0  0  0
    0.0000    0.0000    0.0000 C   0  0  0  0  0  0  0  0  0  0  0  0
    0.0000    0.0000    0.0000 C   0  0  0  0  0  0  0  0  0  0  0  0
    0.0000    0.0000    0.0000 N   0  0  0  0  0  0  0  0  0  0  0  0
  1  2  2  0  0  0  0
  1  5  1  0  0  0  0
  2  3  1  0  0  0  0
  2  4  1  0  0  0  0
  5  6  1  0  0  0  0
  5  9  2  0  0  0  0
  6  7  1  0  0  0  0
  6  8  1  0  0  0  0
M  END
> <Index>
1640

> <ID>
HT1328

> <class>
1

> <apol>
19.874723

> <ast_fraglike>
1

> <ast_fraglike_ext>
1

> <ast_violation>
0

> <ast_violation_ext>
0

> <a_acc>
2

> <a_acid>
0

> <a_aro>
0

> <a_base>
0

> <a_count>
20

> <a_don>
3

> <a_donacc>
5

> <a_heavy>
9

> <a_hyd>
2

> <a_IC>
28.775173

> <a_ICM>
1.4387587

> <a_nB>
0

> <a_nBr>
0

> <a_nC>
4

> <a_nCl>
0

> <a_nF>
0

> <a_nH>
11

> <a_nI>
0

> <a_nN>
5

> <a_nO>
0

> <a_nP>
0

> <a_nS>
0

> <balabanJ>
3.4381251

> <BCUT_PEOE_0>
-2.4586136

> <BCUT_PEOE_1>
-0.21014707

> <BCUT_PEOE_2>
0.27413762

> <BCUT_PEOE_3>
2.3370888

> <BCUT_SLOGP_0>
-2.6597159

> <BCUT_SLOGP_1>
-0.18859479

> <BCUT_SLOGP_2>
0.22424632

> <BCUT_SLOGP_3>
2.2394164

> <BCUT_SMR_0>
-2.1553864

> <BCUT_SMR_1>
-1.9008883E-4

> <BCUT_SMR_2>
0.38455898

> <BCUT_SMR_3>
2.6337857

> <bpol>
14.005277

> <b_1rotN>
2

> <b_1rotR>
0.25

> <b_ar>
0

> <b_count>
19

> <b_double>
2

> <b_heavy>
8

> <b_max1len>
4

> <b_rotN>
2

> <b_rotR>
0.25

> <b_single>
17

> <b_triple>
0

> <chi0>
7.4391575

> <chi0v>
5.5491276

> <chi0v_C>
3.0

> <chi0_C>
3.1547005

> <chi1>
4.036581

> <chi1v>
2.3925979

> <chi1v_C>
0.0

> <chi1_C>
0.0

> <chiral>
0

> <chiral_u>
0

> <density>
0.73329335

> <diameter>
5

> <FCharge>
0

> <GCUT_PEOE_0>
-0.8590278

> <GCUT_PEOE_1>
-0.33037782

> <GCUT_PEOE_2>
-0.0012886366

> <GCUT_PEOE_3>
1.9664787

> <GCUT_SLOGP_0>
-1.3840367

> <GCUT_SLOGP_1>
-0.31040832

> <GCUT_SLOGP_2>
0.054200001

> <GCUT_SLOGP_3>
1.8775862

> <GCUT_SMR_0>
-0.49898258

> <GCUT_SMR_1>
-0.10942523

> <GCUT_SMR_2>
0.071113959

> <GCUT_SMR_3>
2.2471359

> <Kier1>
9.0

> <Kier2>
3.9200001

> <Kier3>
4.5

> <KierA1>
5.8524199

> <KierA2>
2.3902857

> <KierA3>
2.5742869

> <KierFlex>
1.5543283

> <lip_acc>
5

> <lip_don>
5

> <lip_druglike>
1

> <lip_violation>
0

> <logP(o/w)>
-0.43799999

> <logS>
-0.23438001

> <mr>
3.3034995

> <mutagenic>
0

> <nmol>
1

> <opr_brigid>
2

> <opr_leadlike>
1

> <opr_nring>
0

> <opr_nrot>
2

> <opr_violation>
0

> <PC+>
0

> <PC->
0

> <PEOE_PC+>
1.5326287

> <PEOE_PC->
-1.5326287

> <PEOE_RPC+>
0.14466639

> <PEOE_RPC->
0.24126247

> <PEOE_VSA+0>
72.069695

> <PEOE_VSA+1>
0.0

> <PEOE_VSA+2>
0.0

> <PEOE_VSA+3>
58.776638

> <PEOE_VSA+4>
15.681574

> <PEOE_VSA+5>
0.0

> <PEOE_VSA+6>
0.0

> <PEOE_VSA-0>
0.0

> <PEOE_VSA-1>
0.0

> <PEOE_VSA-2>
0.0

> <PEOE_VSA-3>
5.6825762

> <PEOE_VSA-4>
0.0

> <PEOE_VSA-5>
12.196804

> <PEOE_VSA-6>
13.302238

> <PEOE_VSA_FHYD>
0.76827008

> <PEOE_VSA_FNEG>
0.17546397

> <PEOE_VSA_FPNEG>
0.1434872

> <PEOE_VSA_FPOL>
0.23172994

> <PEOE_VSA_FPOS>
0.82453603

> <PEOE_VSA_FPPOS>
0.088242732

> <PEOE_VSA_HYD>
136.52892

> <PEOE_VSA_NEG>
31.18162

> <PEOE_VSA_PNEG>
25.499043

> <PEOE_VSA_POL>
41.180618

> <PEOE_VSA_POS>
146.52791

> <PEOE_VSA_PPOS>
15.681574

> <petitjean>
0.40000001

> <petitjeanSC>
0.66666669

> <Q_PC+>
0

> <Q_PC->
0

> <Q_RPC+>
0

> <Q_RPC->
0

> <Q_VSA_FHYD>
1

> <Q_VSA_FNEG>
0

> <Q_VSA_FPNEG>
0

> <Q_VSA_FPOL>
0

> <Q_VSA_FPOS>
1

> <Q_VSA_FPPOS>
0

> <Q_VSA_HYD>
177.70953

> <Q_VSA_NEG>
0

> <Q_VSA_PNEG>
0

> <Q_VSA_POL>
0

> <Q_VSA_POS>
177.70953

> <Q_VSA_PPOS>
0

> <radius>
3

> <reactive>
0

> <rings>
0

> <RPC+>
0

> <RPC->
0

> <rsynth>
1.0

> <SlogP>
-1.24383

> <SlogP_VSA0>
65.794373

> <SlogP_VSA1>
6.9224992

> <SlogP_VSA2>
0.0

> <SlogP_VSA3>
0.0

> <SlogP_VSA4>
0.0

> <SlogP_VSA5>
82.579903

> <SlogP_VSA6>
0.0

> <SlogP_VSA7>
31.671967

> <SlogP_VSA8>
0.0

> <SlogP_VSA9>
0.0

> <SMR>
3.7223499

> <SMR_VSA0>
0.0

> <SMR_VSA1>
19.909843

> <SMR_VSA2>
31.671967

> <SMR_VSA3>
0.0

> <SMR_VSA4>
65.794373

> <SMR_VSA5>
0.0

> <SMR_VSA6>
3.7981856

> <SMR_VSA7>
65.794373

> <TPSA>
91.489998

> <VAdjEq>
0.71696228

> <VAdjMa>
4.0

> <VDistEq>
2.2607846

> <VDistMa>
5.9966536

> <vdw_area>
177.70953

> <vdw_vol>
176.14641

> <vsa_acc>
5.6825762

> <vsa_acid>
0

> <vsa_base>
0

> <vsa_don>
35.484978

> <vsa_hyd>
67.79892

> <vsa_other>
31.363148

> <vsa_pol>
58.910046

> <Weight>
129.16699

> <weinerPath>
96

> <weinerPol>
8

> <zagreb>
36

$$$$
Row1640
 OpenBabel06061811532D

 18 19  0  0  0  0  0  0  0  0999 V2000
    0.0000    0.0000    0.0000 S   0  0  0  0  0  0  0  0  0  0  0  0
    0.0000    0.0000    0.0000 C   0  0  0  0  0  0  0  0  0  0  0  0
    0.0000    0.0000    0.0000 C   0  0  0  0  0  0  0  0  0  0  0  0
    0.0000    0.0000    0.0000 C   0  0  0  0  0  0  0  0  0  0  0  0
    0.0000    0.0000    0.0000 C   0  0  0  0  0  0  0  0  0  0  0  0
    0.0000    0.0000    0.0000 C   0  0  0  0  0  0  0  0  0  0  0  0
    0.0000    0.0000    0.0000 N   0  0  0  0  0  0  0  0  0  0  0  0
    0.0000    0.0000    0.0000 C   0  0  0  0  0  0  0  0  0  0  0  0
    0.0000    0.0000    0.0000 C   0  0  0  0  0  0  0  0  0  0  0  0
    0.0000    0.0000    0.0000 N   0  0  0  0  0  0  0  0  0  0  0  0
    0.0000    0.0000    0.0000 C   0  0  0  0  0  0  0  0  0  0  0  0
    0.0000    0.0000    0.0000 C   0  0  0  0  0  0  0  0  0  0  0  0
    0.0000    0.0000    0.0000 C   0  0  0  0  0  0  0  0  0  0  0  0
    0.0000    0.0000    0.0000 N   0  0  0  0  0  0  0  0  0  0  0  0
    0.0000    0.0000    0.0000 C   0  0  0  0  0  0  0  0  0  0  0  0
    0.0000    0.0000    0.0000 C   0  0  0  0  0  0  0  0  0  0  0  0
    0.0000    0.0000    0.0000 C   0  0  0  0  0  0  0  0  0  0  0  0
    0.0000    0.0000    0.0000 C   0  0  0  0  0  0  0  0  0  0  0  0
  1  5  1  0  0  0  0
  1  2  1  0  0  0  0
  2  3  2  0  0  0  0
  3  4  1  0  0  0  0
  4  5  2  0  0  0  0
  5  6  1  0  0  0  0
  6  7  1  0  0  0  0
  7  8  1  0  0  0  0
  7 13  1  0  0  0  0
  8  9  1  0  0  0  0
  9 10  1  0  0  0  0
 10 11  1  0  0  0  0
 10 12  1  0  0  0  0
 13 18  1  0  0  0  0
 13 14  2  0  0  0  0
 14 15  1  0  0  0  0
 15 16  2  0  0  0  0
 16 17  1  0  0  0  0
 17 18  2  0  0  0  0
M  END
> <Index>
1641

> <ID>
HT1336

> <class>
1

> <apol>
43.509068

> <ast_fraglike>
1

> <ast_fraglike_ext>
0

> <ast_violation>
0

> <ast_violation_ext>
1

> <a_acc>
2

> <a_acid>
0

> <a_aro>
11

> <a_base>
0

> <a_count>
37

> <a_don>
0

> <a_donacc>
2

> <a_heavy>
18

> <a_hyd>
14

> <a_IC>
53.981297

> <a_ICM>
1.458954

> <a_nB>
0

> <a_nBr>
0

> <a_nC>
14

> <a_nCl>
0

> <a_nF>
0

> <a_nH>
19

> <a_nI>
0

> <a_nN>
3

> <a_nO>
0

> <a_nP>
0

> <a_nS>
1

> <balabanJ>
1.8380609

> <BCUT_PEOE_0>
-2.6436713

> <BCUT_PEOE_1>
-0.52499473

> <BCUT_PEOE_2>
0.56547922

> <BCUT_PEOE_3>
2.5407815

> <BCUT_SLOGP_0>
-2.7391393

> <BCUT_SLOGP_1>
-0.43915176

> <BCUT_SLOGP_2>
0.65580481

> <BCUT_SLOGP_3>
2.528893

> <BCUT_SMR_0>
-2.3499503

> <BCUT_SMR_1>
-0.36795357

> <BCUT_SMR_2>
0.71546578

> <BCUT_SMR_3>
2.8327513

> <bpol>
28.330933

> <b_1rotN>
6

> <b_1rotR>
0.31578946

> <b_ar>
11

> <b_count>
38

> <b_double>
0

> <b_heavy>
19

> <b_max1len>
7

> <b_rotN>
6

> <b_rotR>
0.31578946

> <b_single>
27

> <b_triple>
0

> <chi0>
12.794683

> <chi0v>
11.729157

> <chi0v_C>
9.1627722

> <chi0_C>
10.225768

> <chi1>
8.7540197

> <chi1v>
6.9655724

> <chi1v_C>
3.0975704

> <chi1_C>
4.2247448

> <chiral>
0

> <chiral_u>
0

> <density>
0.70239335

> <diameter>
8

> <FCharge>
0

> <GCUT_PEOE_0>
-0.86105764

> <GCUT_PEOE_1>
-0.34560558

> <GCUT_PEOE_2>
0.014366778

> <GCUT_PEOE_3>
2.4919605

> <GCUT_SLOGP_0>
-0.96781802

> <GCUT_SLOGP_1>
-0.25329798

> <GCUT_SLOGP_2>
0.12203519

> <GCUT_SLOGP_3>
2.5696473

> <GCUT_SMR_0>
-0.51513499

> <GCUT_SMR_1>
-0.1811045

> <GCUT_SMR_2>
0.15211722

> <GCUT_SMR_3>
2.7798862

> <Kier1>
14.409972

> <Kier2>
7.5555553

> <Kier3>
4.8979592

> <KierA1>
12.033255

> <KierA2>
6.2377682

> <KierA3>
4.0096354

> <KierFlex>
4.1700363

> <lip_acc>
3

> <lip_don>
0

> <lip_druglike>
1

> <lip_violation>
0

> <logP(o/w)>
2.1889999

> <logS>
-1.83787

> <mr>
7.8553615

> <mutagenic>
0

> <nmol>
1

> <opr_brigid>
11

> <opr_leadlike>
1

> <opr_nring>
2

> <opr_nrot>
6

> <opr_violation>
0

> <PC+>
0

> <PC->
0

> <PEOE_PC+>
1.2952003

> <PEOE_PC->
-1.2952003

> <PEOE_RPC+>
0.12149997

> <PEOE_RPC->
0.23712471

> <PEOE_VSA+0>
111.77291

> <PEOE_VSA+1>
25.592316

> <PEOE_VSA+2>
11.190562

> <PEOE_VSA+3>
19.760618

> <PEOE_VSA+4>
0.0

> <PEOE_VSA+5>
0.0

> <PEOE_VSA+6>
0.0

> <PEOE_VSA-0>
70.987183

> <PEOE_VSA-1>
40.949314

> <PEOE_VSA-2>
14.230966

> <PEOE_VSA-3>
0.0

> <PEOE_VSA-4>
5.6825762

> <PEOE_VSA-5>
0.0

> <PEOE_VSA-6>
0.0

> <PEOE_VSA_FHYD>
0.98106861

> <PEOE_VSA_FNEG>
0.43925643

> <PEOE_VSA_FPNEG>
0.018931417

> <PEOE_VSA_FPOL>
0.018931417

> <PEOE_VSA_FPOS>
0.56074357

> <PEOE_VSA_FPPOS>
0.0

> <PEOE_VSA_HYD>
294.48386

> <PEOE_VSA_NEG>
131.85004

> <PEOE_VSA_PNEG>
5.6825762

> <PEOE_VSA_POL>
5.6825762

> <PEOE_VSA_POS>
168.31641

> <PEOE_VSA_PPOS>
0.0

> <petitjean>
0.5

> <petitjeanSC>
1.0

> <Q_PC+>
0

> <Q_PC->
0

> <Q_RPC+>
0

> <Q_RPC->
0

> <Q_VSA_FHYD>
1

> <Q_VSA_FNEG>
0

> <Q_VSA_FPNEG>
0

> <Q_VSA_FPOL>
0

> <Q_VSA_FPOS>
1

> <Q_VSA_FPPOS>
0

> <Q_VSA_HYD>
300.16644

> <Q_VSA_NEG>
0

> <Q_VSA_PNEG>
0

> <Q_VSA_POL>
0

> <Q_VSA_POS>
300.16644

> <Q_VSA_PPOS>
0

> <radius>
4

> <reactive>
0

> <rings>
2

> <RPC+>
0

> <RPC->
0

> <rsynth>
1.0

> <SlogP>
2.9777

> <SlogP_VSA0>
3.1243138

> <SlogP_VSA1>
19.909843

> <SlogP_VSA2>
0.0

> <SlogP_VSA3>
36.879158

> <SlogP_VSA4>
1.3584013

> <SlogP_VSA5>
65.794373

> <SlogP_VSA6>
0.0

> <SlogP_VSA7>
121.24629

> <SlogP_VSA8>
0.0

> <SlogP_VSA9>
52.045185

> <SMR>
7.8365002

> <SMR_VSA0>
0.0

> <SMR_VSA1>
19.909843

> <SMR_VSA2>
3.1243138

> <SMR_VSA3>
1.3584013

> <SMR_VSA4>
2.3279202

> <SMR_VSA5>
139.68587

> <SMR_VSA6>
36.879158

> <SMR_VSA7>
97.07206

> <TPSA>
19.370001

> <VAdjEq>
0.52150291

> <VAdjMa>
5.2479277

> <VDistEq>
2.9484785

> <VDistMa>
8.0586195

> <vdw_area>
300.16644

> <vdw_vol>
372.14618

> <vsa_acc>
5.6825762

> <vsa_acid>
0

> <vsa_base>
0

> <vsa_don>
0.0

> <vsa_hyd>
269.7692

> <vsa_other>
11.190562

> <vsa_pol>
5.6825762

> <Weight>
261.39301

> <weinerPath>
637

> <weinerPol>
20

> <zagreb>
86

$$$$
Row1641
 OpenBabel06061811532D

 21 24  0  0  1  0  0  0  0  0999 V2000
    0.0000    0.0000    0.0000 S   0  0  0  0  0  0  0  0  0  0  0  0
    0.0000    0.0000    0.0000 C   0  0  0  0  0  0  0  0  0  0  0  0
    0.0000    0.0000    0.0000 C   0  0  0  0  0  0  0  0  0  0  0  0
    0.0000    0.0000    0.0000 N   0  0  0  0  0  0  0  0  0  0  0  0
    0.0000    0.0000    0.0000 C   0  0  0  0  0  0  0  0  0  0  0  0
    0.0000    0.0000    0.0000 C   0  0  0  0  0  0  0  0  0  0  0  0
    0.0000    0.0000    0.0000 C   0  0  0  0  0  0  0  0  0  0  0  0
    0.0000    0.0000    0.0000 C   0  0  0  0  0  0  0  0  0  0  0  0
    0.0000    0.0000    0.0000 C   0  0  0  0  0  0  0  0  0  0  0  0
    0.0000    0.0000    0.0000 C   0  0  0  0  0  0  0  0  0  0  0  0
    0.0000    0.0000    0.0000 C   0  0  0  0  0  0  0  0  0  0  0  0
    0.0000    0.0000    0.0000 C   0  0  3  0  0  0  0  0  0  0  0  0
    0.0000    0.0000    0.0000 C   0  0  0  0  0  0  0  0  0  0  0  0
    0.0000    0.0000    0.0000 C   0  0  0  0  0  0  0  0  0  0  0  0
    0.0000    0.0000    0.0000 N   0  0  0  0  0  0  0  0  0  0  0  0
    0.0000    0.0000    0.0000 C   0  0  0  0  0  0  0  0  0  0  0  0
    0.0000    0.0000    0.0000 C   0  0  0  0  0  0  0  0  0  0  0  0
    0.0000    0.0000    0.0000 C   0  0  0  0  0  0  0  0  0  0  0  0
    0.0000    0.0000    0.0000 C   0  0  0  0  0  0  0  0  0  0  0  0
    0.0000    0.0000    0.0000 C   0  0  0  0  0  0  0  0  0  0  0  0
    0.0000    0.0000    0.0000 C   0  0  0  0  0  0  0  0  0  0  0  0
  1  6  1  0  0  0  0
  1  2  1  0  0  0  0
  2 21  1  0  0  0  0
  2  3  2  0  0  0  0
  3  4  1  0  0  0  0
  3 18  1  0  0  0  0
  4  5  1  0  0  0  0
  4 11  1  0  0  0  0
  5 10  1  0  0  0  0
  5  6  2  0  0  0  0
  6  7  1  0  0  0  0
  7  8  2  0  0  0  0
  8  9  1  0  0  0  0
  9 10  2  0  0  0  0
 11 12  1  0  0  0  0
 12 16  1  0  0  0  0
 12 13  1  0  0  0  0
 13 14  1  0  0  0  0
 14 15  1  0  0  0  0
 15 16  1  0  0  0  0
 15 17  1  0  0  0  0
 18 19  2  0  0  0  0
 19 20  1  0  0  0  0
 20 21  2  0  0  0  0
M  END
> <Index>
1642

> <ID>
HT1339

> <class>
1

> <apol>
50.11586

> <ast_fraglike>
0

> <ast_fraglike_ext>
0

> <ast_violation>
1

> <ast_violation_ext>
1

> <a_acc>
1

> <a_acid>
0

> <a_aro>
12

> <a_base>
0

> <a_count>
41

> <a_don>
0

> <a_donacc>
1

> <a_heavy>
21

> <a_hyd>
19

> <a_IC>
56.162418

> <a_ICM>
1.3698151

> <a_nB>
0

> <a_nBr>
0

> <a_nC>
18

> <a_nCl>
0

> <a_nF>
0

> <a_nH>
20

> <a_nI>
0

> <a_nN>
2

> <a_nO>
0

> <a_nP>
0

> <a_nS>
1

> <balabanJ>
1.5091345

> <BCUT_PEOE_0>
-2.6260965

> <BCUT_PEOE_1>
-0.56326658

> <BCUT_PEOE_2>
0.60532016

> <BCUT_PEOE_3>
2.7362747

> <BCUT_SLOGP_0>
-2.6725185

> <BCUT_SLOGP_1>
-0.48189175

> <BCUT_SLOGP_2>
0.69575715

> <BCUT_SLOGP_3>
2.720089

> <BCUT_SMR_0>
-2.3592708

> <BCUT_SMR_1>
-0.43115166

> <BCUT_SMR_2>
0.73146415

> <BCUT_SMR_3>
3.004611

> <bpol>
28.104139

> <b_1rotN>
2

> <b_1rotR>
0.083333336

> <b_ar>
12

> <b_count>
44

> <b_double>
0

> <b_heavy>
24

> <b_max1len>
3

> <b_rotN>
2

> <b_rotR>
0.083333336

> <b_single>
32

> <b_triple>
0

> <chi0>
14.23384

> <chi0v>
13.143751

> <chi0v_C>
11.02458

> <chi0_C>
12.372033

> <chi1>
10.309663

> <chi1v>
8.4473009

> <chi1v_C>
5.3794456

> <chi1_C>
7.0244045

> <chiral>
1

> <chiral_u>
1

> <density>
0.70443714

> <diameter>
9

> <FCharge>
0

> <GCUT_PEOE_0>
-0.86567348

> <GCUT_PEOE_1>
-0.37895504

> <GCUT_PEOE_2>
0.061571714

> <GCUT_PEOE_3>
2.7326655

> <GCUT_SLOGP_0>
-0.9603377

> <GCUT_SLOGP_1>
-0.25396755

> <GCUT_SLOGP_2>
0.14303468

> <GCUT_SLOGP_3>
2.8421748

> <GCUT_SMR_0>
-0.52849501

> <GCUT_SMR_1>
-0.18579979

> <GCUT_SMR_2>
0.16148296

> <GCUT_SMR_3>
3.0228159

> <Kier1>
14.583333

> <Kier2>
6.2456746

> <Kier3>
2.933454

> <KierA1>
12.092406

> <KierA2>
5.127212

> <KierA3>
2.389652

> <KierFlex>
2.9523969

> <lip_acc>
2

> <lip_don>
0

> <lip_druglike>
1

> <lip_violation>
0

> <logP(o/w)>
3.9300001

> <logS>
-4.0650301

> <mr>
8.925436

> <mutagenic>
0

> <nmol>
1

> <opr_brigid>
21

> <opr_leadlike>
1

> <opr_nring>
4

> <opr_nrot>
3

> <opr_violation>
0

> <PC+>
0

> <PC->
0

> <PEOE_PC+>
1.1149386

> <PEOE_PC->
-1.1149386

> <PEOE_RPC+>
0.056833386

> <PEOE_RPC->
0.27357104

> <PEOE_VSA+0>
99.337585

> <PEOE_VSA+1>
34.123089

> <PEOE_VSA+2>
0.0

> <PEOE_VSA+3>
0.0

> <PEOE_VSA+4>
0.0

> <PEOE_VSA+5>
0.0

> <PEOE_VSA+6>
0.0

> <PEOE_VSA-0>
94.151939

> <PEOE_VSA-1>
68.780235

> <PEOE_VSA-2>
0.0

> <PEOE_VSA-3>
0.0

> <PEOE_VSA-4>
0.0

> <PEOE_VSA-5>
0.0

> <PEOE_VSA-6>
0.0

> <PEOE_VSA_FHYD>
1.0

> <PEOE_VSA_FNEG>
0.54971695

> <PEOE_VSA_FPNEG>
0.0

> <PEOE_VSA_FPOL>
0.0

> <PEOE_VSA_FPOS>
0.45028305

> <PEOE_VSA_FPPOS>
0.0

> <PEOE_VSA_HYD>
296.39285

> <PEOE_VSA_NEG>
162.93217

> <PEOE_VSA_PNEG>
0.0

> <PEOE_VSA_POL>
0.0

> <PEOE_VSA_POS>
133.46068

> <PEOE_VSA_PPOS>
0.0

> <petitjean>
0.44444445

> <petitjeanSC>
0.80000001

> <Q_PC+>
0

> <Q_PC->
0

> <Q_RPC+>
0

> <Q_RPC->
0

> <Q_VSA_FHYD>
1

> <Q_VSA_FNEG>
0

> <Q_VSA_FPNEG>
0

> <Q_VSA_FPOL>
0

> <Q_VSA_FPOS>
1

> <Q_VSA_FPPOS>
0

> <Q_VSA_HYD>
296.39285

> <Q_VSA_NEG>
0

> <Q_VSA_PNEG>
0

> <Q_VSA_POL>
0

> <Q_VSA_POS>
296.39285

> <Q_VSA_PPOS>
0

> <radius>
5

> <reactive>
0

> <rings>
4

> <RPC+>
0

> <RPC->
0

> <rsynth>
0.66666669

> <SlogP>
4.2410002

> <SlogP_VSA0>
3.1243138

> <SlogP_VSA1>
3.1243138

> <SlogP_VSA2>
0.0

> <SlogP_VSA3>
55.318733

> <SlogP_VSA4>
4.4107962

> <SlogP_VSA5>
35.998657

> <SlogP_VSA6>
0.0

> <SlogP_VSA7>
141.14548

> <SlogP_VSA8>
18.868406

> <SlogP_VSA9>
37.733036

> <SMR>
8.9617996

> <SMR_VSA0>
0.0

> <SMR_VSA1>
3.1243138

> <SMR_VSA2>
10.636578

> <SMR_VSA3>
0.0

> <SMR_VSA4>
5.513495

> <SMR_VSA5>
160.01389

> <SMR_VSA6>
55.318733

> <SMR_VSA7>
65.11673

> <TPSA>
6.48

> <VAdjEq>
0.49641782

> <VAdjMa>
5.5849624

> <VDistEq>
2.9739356

> <VDistMa>
8.5188513

> <vdw_area>
296.39285

> <vdw_vol>
420.8154

> <vsa_acc>
0.0

> <vsa_acid>
0

> <vsa_base>
0

> <vsa_don>
0.0

> <vsa_hyd>
280.81189

> <vsa_other>
0.0

> <vsa_pol>
0.0

> <Weight>
296.43799

> <weinerPath>
859

> <weinerPol>
33

> <zagreb>
116

$$$$
Row1642
 OpenBabel06061811532D

 29 31  0  0  1  0  0  0  0  0999 V2000
    0.0000    0.0000    0.0000 S   0  0  0  0  0  0  0  0  0  0  0  0
    0.0000    0.0000    0.0000 C   0  0  1  0  0  0  0  0  0  0  0  0
    0.0000    0.0000    0.0000 H   0  0  0  0  0  0  0  0  0  0  0  0
    0.0000    0.0000    0.0000 N   0  0  0  0  0  0  0  0  0  0  0  0
    0.0000    0.0000    0.0000 C   0  0  1  0  0  0  0  0  0  0  0  0
    0.0000    0.0000    0.0000 H   0  0  0  0  0  0  0  0  0  0  0  0
    0.0000    0.0000    0.0000 C   0  0  0  0  0  0  0  0  0  0  0  0
    0.0000    0.0000    0.0000 O   0  0  0  0  0  0  0  0  0  0  0  0
    0.0000    0.0000    0.0000 O   0  0  0  0  0  0  0  0  0  0  0  0
    0.0000    0.0000    0.0000 C   0  0  0  0  0  0  0  0  0  0  0  0
    0.0000    0.0000    0.0000 C   0  0  0  0  0  0  0  0  0  0  0  0
    0.0000    0.0000    0.0000 C   0  0  0  0  0  0  0  0  0  0  0  0
    0.0000    0.0000    0.0000 C   0  0  0  0  0  0  0  0  0  0  0  0
    0.0000    0.0000    0.0000 O   0  0  0  0  0  0  0  0  0  0  0  0
    0.0000    0.0000    0.0000 C   0  0  1  0  0  0  0  0  0  0  0  0
    0.0000    0.0000    0.0000 H   0  0  0  0  0  0  0  0  0  0  0  0
    0.0000    0.0000    0.0000 N   0  0  0  0  0  0  0  0  0  0  0  0
    0.0000    0.0000    0.0000 C   0  0  0  0  0  0  0  0  0  0  0  0
    0.0000    0.0000    0.0000 O   0  0  0  0  0  0  0  0  0  0  0  0
    0.0000    0.0000    0.0000 C   0  0  0  0  0  0  0  0  0  0  0  0
    0.0000    0.0000    0.0000 C   0  0  0  0  0  0  0  0  0  0  0  0
    0.0000    0.0000    0.0000 O   0  0  0  0  0  0  0  0  0  0  0  0
    0.0000    0.0000    0.0000 C   0  0  0  0  0  0  0  0  0  0  0  0
    0.0000    0.0000    0.0000 C   0  0  0  0  0  0  0  0  0  0  0  0
    0.0000    0.0000    0.0000 C   0  0  0  0  0  0  0  0  0  0  0  0
    0.0000    0.0000    0.0000 C   0  0  0  0  0  0  0  0  0  0  0  0
    0.0000    0.0000    0.0000 C   0  0  0  0  0  0  0  0  0  0  0  0
    0.0000    0.0000    0.0000 O   0  0  0  0  0  0  0  0  0  0  0  0
    0.0000    0.0000    0.0000 C   0  0  0  0  0  0  0  0  0  0  0  0
  1 10  1  0  0  0  0
  1  2  1  0  0  0  0
  2  3  1  0  0  0  0
  2 15  1  0  0  0  0
  2  4  1  0  0  0  0
  4  5  1  0  0  0  0
  4 13  1  0  0  0  0
  5  6  1  0  0  0  0
  5  7  1  0  0  0  0
  5 10  1  0  0  0  0
  7  8  1  0  0  0  0
  7  9  2  0  0  0  0
 10 11  1  0  0  0  0
 10 12  1  0  0  0  0
 13 14  2  0  0  0  0
 13 15  1  0  0  0  0
 15 16  1  0  0  0  0
 15 17  1  0  0  0  0
 17 18  1  0  0  0  0
 18 19  2  0  0  0  0
 18 20  1  0  0  0  0
 20 27  1  0  0  0  0
 20 21  2  0  0  0  0
 21 22  1  0  0  0  0
 21 24  1  0  0  0  0
 22 23  1  0  0  0  0
 24 25  2  0  0  0  0
 25 26  1  0  0  0  0
 26 27  2  0  0  0  0
 27 28  1  0  0  0  0
 28 29  1  0  0  0  0
M  END
> <Index>
1643

> <ID>
HT1342

> <class>
1

> <apol>
53.167858

> <ast_fraglike>
0

> <ast_fraglike_ext>
0

> <ast_violation>
2

> <ast_violation_ext>
4

> <a_acc>
6

> <a_acid>
0

> <a_aro>
6

> <a_base>
0

> <a_count>
46

> <a_don>
3

> <a_donacc>
9

> <a_heavy>
26

> <a_hyd>
15

> <a_IC>
80.648643

> <a_ICM>
1.7532314

> <a_nB>
0

> <a_nBr>
0

> <a_nC>
17

> <a_nCl>
0

> <a_nF>
0

> <a_nH>
20

> <a_nI>
0

> <a_nN>
2

> <a_nO>
6

> <a_nP>
0

> <a_nS>
1

> <balabanJ>
1.6979371

> <BCUT_PEOE_0>
-2.6404355

> <BCUT_PEOE_1>
-0.52691597

> <BCUT_PEOE_2>
0.52588117

> <BCUT_PEOE_3>
2.8493166

> <BCUT_SLOGP_0>
-2.8948829

> <BCUT_SLOGP_1>
-0.50992775

> <BCUT_SLOGP_2>
0.55880505

> <BCUT_SLOGP_3>
2.7543046

> <BCUT_SMR_0>
-2.3875673

> <BCUT_SMR_1>
-0.31975856

> <BCUT_SMR_2>
0.71046603

> <BCUT_SMR_3>
3.1303353

> <bpol>
33.490139

> <b_1rotN>
5

> <b_1rotR>
0.17857143

> <b_ar>
6

> <b_count>
48

> <b_double>
3

> <b_heavy>
28

> <b_max1len>
4

> <b_rotN>
6

> <b_rotR>
0.21428572

> <b_single>
39

> <b_triple>
0

> <chi0>
19.223249

> <chi0v>
15.624516

> <chi0v_C>
10.964102

> <chi0_C>
11.817472

> <chi1>
12.223581

> <chi1v>
8.8522587

> <chi1v_C>
4.1933756

> <chi1_C>
5.1051717

> <chiral>
3

> <chiral_u>
0

> <density>
0.82744628

> <diameter>
11

> <FCharge>
0

> <GCUT_PEOE_0>
-0.83735144

> <GCUT_PEOE_1>
-0.39676031

> <GCUT_PEOE_2>
0.03577058

> <GCUT_PEOE_3>
2.7187569

> <GCUT_SLOGP_0>
-1.1641091

> <GCUT_SLOGP_1>
-0.39558226

> <GCUT_SLOGP_2>
0.13170692

> <GCUT_SLOGP_3>
2.6920786

> <GCUT_SMR_0>
-0.53648877

> <GCUT_SMR_1>
-0.20953204

> <GCUT_SMR_2>
0.15384406

> <GCUT_SMR_3>
2.9853904

> <Kier1>
20.727041

> <Kier2>
7.7879934

> <Kier3>
3.5603333

> <KierA1>
17.585842

> <KierA2>
6.5619159

> <KierA3>
2.9849334

> <KierFlex>
4.4383388

> <lip_acc>
8

> <lip_don>
2

> <lip_druglike>
1

> <lip_violation>
0

> <logP(o/w)>
1.4450001

> <logS>
-3.5188999

> <mr>
9.5260973

> <mutagenic>
0

> <nmol>
1

> <opr_brigid>
14

> <opr_leadlike>
1

> <opr_nring>
3

> <opr_nrot>
5

> <opr_violation>
0

> <PC+>
0

> <PC->
0

> <PEOE_PC+>
2.8148558

> <PEOE_PC->
-2.8148558

> <PEOE_RPC+>
0.10081387

> <PEOE_RPC->
0.12329814

> <PEOE_VSA+0>
75.587631

> <PEOE_VSA+1>
70.310211

> <PEOE_VSA+2>
11.413943

> <PEOE_VSA+3>
8.6190128

> <PEOE_VSA+4>
10.324173

> <PEOE_VSA+5>
40.607563

> <PEOE_VSA+6>
0.0

> <PEOE_VSA-0>
62.005161

> <PEOE_VSA-1>
12.254904

> <PEOE_VSA-2>
19.760618

> <PEOE_VSA-3>
0.0

> <PEOE_VSA-4>
0.0

> <PEOE_VSA-5>
40.700764

> <PEOE_VSA-6>
12.911943

> <PEOE_VSA_FHYD>
0.71318078

> <PEOE_VSA_FNEG>
0.40503442

> <PEOE_VSA_FPNEG>
0.14708726

> <PEOE_VSA_FPOL>
0.28681922

> <PEOE_VSA_FPOS>
0.59496558

> <PEOE_VSA_FPPOS>
0.13973197

> <PEOE_VSA_HYD>
259.95148

> <PEOE_VSA_NEG>
147.63339

> <PEOE_VSA_PNEG>
53.612705

> <PEOE_VSA_POL>
104.54444

> <PEOE_VSA_POS>
216.86253

> <PEOE_VSA_PPOS>
50.931732

> <petitjean>
0.45454547

> <petitjeanSC>
0.83333331

> <Q_PC+>
0

> <Q_PC->
0

> <Q_RPC+>
0

> <Q_RPC->
0

> <Q_VSA_FHYD>
1

> <Q_VSA_FNEG>
0

> <Q_VSA_FPNEG>
0

> <Q_VSA_FPOL>
0

> <Q_VSA_FPOS>
1

> <Q_VSA_FPPOS>
0

> <Q_VSA_HYD>
364.49591

> <Q_VSA_NEG>
0

> <Q_VSA_PNEG>
0

> <Q_VSA_POL>
0

> <Q_VSA_POS>
364.49591

> <Q_VSA_PPOS>
0

> <radius>
6

> <reactive>
0

> <rings>
3

> <RPC+>
0

> <RPC->
0

> <rsynth>
1.0

> <SlogP>
0.94910002

> <SlogP_VSA0>
40.010525

> <SlogP_VSA1>
21.387344

> <SlogP_VSA2>
58.035496

> <SlogP_VSA3>
25.385227

> <SlogP_VSA4>
27.047791

> <SlogP_VSA5>
70.767738

> <SlogP_VSA6>
0.0

> <SlogP_VSA7>
52.929554

> <SlogP_VSA8>
0.0

> <SlogP_VSA9>
109.35843

> <SMR>
9.4528999

> <SMR_VSA0>
71.586647

> <SMR_VSA1>
25.12409

> <SMR_VSA2>
43.395977

> <SMR_VSA3>
23.983496

> <SMR_VSA4>
0.0

> <SMR_VSA5>
52.929554

> <SMR_VSA6>
18.263031

> <SMR_VSA7>
169.63931

> <TPSA>
105.17

> <VAdjEq>
0.41210872

> <VAdjMa>
5.8073549

> <VDistEq>
3.3317902

> <VDistMa>
9.1213856

> <vdw_area>
364.49591

> <vdw_vol>
459.75311

> <vsa_acc>
32.141354

> <vsa_acid>
0

> <vsa_base>
0

> <vsa_don>
5.6825762

> <vsa_hyd>
238.52016

> <vsa_other>
40.607563

> <vsa_pol>
64.957771

> <Weight>
380.42099

> <weinerPath>
1630

> <weinerPol>
45

> <zagreb>
142

$$$$
Row1643
 OpenBabel06061811532D

 17 17  0  0  1  0  0  0  0  0999 V2000
    0.0000    0.0000    0.0000 O   0  0  0  0  0  0  0  0  0  0  0  0
    0.0000    0.0000    0.0000 C   0  0  0  0  0  0  0  0  0  0  0  0
    0.0000    0.0000    0.0000 C   0  0  3  0  0  0  0  0  0  0  0  0
    0.0000    0.0000    0.0000 O   0  0  0  0  0  0  0  0  0  0  0  0
    0.0000    0.0000    0.0000 C   0  0  0  0  0  0  0  0  0  0  0  0
    0.0000    0.0000    0.0000 O   0  0  0  0  0  0  0  0  0  0  0  0
    0.0000    0.0000    0.0000 C   0  0  0  0  0  0  0  0  0  0  0  0
    0.0000    0.0000    0.0000 O   0  0  0  0  0  0  0  0  0  0  0  0
    0.0000    0.0000    0.0000 N   0  0  0  0  0  0  0  0  0  0  0  0
    0.0000    0.0000    0.0000 C   0  0  0  0  0  0  0  0  0  0  0  0
    0.0000    0.0000    0.0000 C   0  0  0  0  0  0  0  0  0  0  0  0
    0.0000    0.0000    0.0000 C   0  0  0  0  0  0  0  0  0  0  0  0
    0.0000    0.0000    0.0000 C   0  0  0  0  0  0  0  0  0  0  0  0
    0.0000    0.0000    0.0000 C   0  0  0  0  0  0  0  0  0  0  0  0
    0.0000    0.0000    0.0000 C   0  0  0  0  0  0  0  0  0  0  0  0
    0.0000    0.0000    0.0000 O   0  0  0  0  0  0  0  0  0  0  0  0
    0.0000    0.0000    0.0000 C   0  0  0  0  0  0  0  0  0  0  0  0
  1  2  1  0  0  0  0
  1 10  1  0  0  0  0
  2  3  1  0  0  0  0
  3  4  1  0  0  0  0
  3  5  1  0  0  0  0
  5  6  1  0  0  0  0
  6  7  1  0  0  0  0
  7  8  2  0  0  0  0
  7  9  1  0  0  0  0
 10 15  1  0  0  0  0
 10 11  2  0  0  0  0
 11 12  1  0  0  0  0
 12 13  2  0  0  0  0
 13 14  1  0  0  0  0
 14 15  2  0  0  0  0
 15 16  1  0  0  0  0
 16 17  1  0  0  0  0
M  END
> <Index>
1644

> <ID>
HT1344

> <class>
1

> <apol>
34.471893

> <ast_fraglike>
0

> <ast_fraglike_ext>
0

> <ast_violation>
1

> <ast_violation_ext>
2

> <a_acc>
4

> <a_acid>
0

> <a_aro>
6

> <a_base>
0

> <a_count>
32

> <a_don>
2

> <a_donacc>
6

> <a_heavy>
17

> <a_hyd>
10

> <a_IC>
51.733253

> <a_ICM>
1.6166642

> <a_nB>
0

> <a_nBr>
0

> <a_nC>
11

> <a_nCl>
0

> <a_nF>
0

> <a_nH>
15

> <a_nI>
0

> <a_nN>
1

> <a_nO>
5

> <a_nP>
0

> <a_nS>
0

> <balabanJ>
2.1946871

> <BCUT_PEOE_0>
-2.5099769

> <BCUT_PEOE_1>
-0.59433377

> <BCUT_PEOE_2>
0.62413079

> <BCUT_PEOE_3>
2.5500479

> <BCUT_SLOGP_0>
-2.6881731

> <BCUT_SLOGP_1>
-0.54790461

> <BCUT_SLOGP_2>
0.65510339

> <BCUT_SLOGP_3>
2.4474545

> <BCUT_SMR_0>
-2.2977343

> <BCUT_SMR_1>
-0.43027383

> <BCUT_SMR_2>
0.76203293

> <BCUT_SMR_3>
2.7488489

> <bpol>
22.444105

> <b_1rotN>
6

> <b_1rotR>
0.35294119

> <b_ar>
6

> <b_count>
32

> <b_double>
1

> <b_heavy>
17

> <b_max1len>
4

> <b_rotN>
7

> <b_rotR>
0.41176471

> <b_single>
25

> <b_triple>
0

> <chi0>
12.673362

> <chi0v>
9.4585218

> <chi0v_C>
6.8009648

> <chi0_C>
7.5520415

> <chi1>
8.130229

> <chi1v>
4.992816

> <chi1v_C>
2.6438468

> <chi1_C>
3.4663265

> <chiral>
1

> <chiral_u>
1

> <density>
0.78485578

> <diameter>
10

> <FCharge>
0

> <GCUT_PEOE_0>
-0.79359645

> <GCUT_PEOE_1>
-0.42159903

> <GCUT_PEOE_2>
0.05719934

> <GCUT_PEOE_3>
2.3086095

> <GCUT_SLOGP_0>
-1.3703313

> <GCUT_SLOGP_1>
-0.38119984

> <GCUT_SLOGP_2>
0.11969042

> <GCUT_SLOGP_3>
2.3767617

> <GCUT_SMR_0>
-0.5202803

> <GCUT_SMR_1>
-0.21207796

> <GCUT_SMR_2>
0.16699044

> <GCUT_SMR_3>
2.5500572

> <Kier1>
15.058824

> <Kier2>
8.1632652

> <Kier3>
5.9281664

> <KierA1>
11.85678

> <KierA2>
6.3235188

> <KierA3>
4.5326972

> <KierFlex>
4.4103866

> <lip_acc>
6

> <lip_don>
3

> <lip_druglike>
1

> <lip_violation>
0

> <logP(o/w)>
0.17773999

> <logS>
-1.6384799

> <mr>
6.1332269

> <mutagenic>
0

> <nmol>
1

> <opr_brigid>
6

> <opr_leadlike>
1

> <opr_nring>
1

> <opr_nrot>
6

> <opr_violation>
0

> <PC+>
0

> <PC->
0

> <PEOE_PC+>
2.1288791

> <PEOE_PC->
-2.1288791

> <PEOE_RPC+>
0.16824536

> <PEOE_RPC->
0.18187876

> <PEOE_VSA+0>
24.997658

> <PEOE_VSA+1>
81.087219

> <PEOE_VSA+2>
21.821968

> <PEOE_VSA+3>
17.238026

> <PEOE_VSA+4>
10.324173

> <PEOE_VSA+5>
0.0

> <PEOE_VSA+6>
19.199511

> <PEOE_VSA-0>
24.509808

> <PEOE_VSA-1>
24.509808

> <PEOE_VSA-2>
0.0

> <PEOE_VSA-3>
0.0

> <PEOE_VSA-4>
13.566921

> <PEOE_VSA-5>
2.503756

> <PEOE_VSA-6>
19.426172

> <PEOE_VSA_FHYD>
0.74913466

> <PEOE_VSA_FNEG>
0.32608545

> <PEOE_VSA_FPNEG>
0.13695563

> <PEOE_VSA_FPOL>
0.25086531

> <PEOE_VSA_FPOS>
0.67391455

> <PEOE_VSA_FPPOS>
0.11390968

> <PEOE_VSA_HYD>
194.16449

> <PEOE_VSA_NEG>
84.516464

> <PEOE_VSA_PNEG>
35.496849

> <PEOE_VSA_POL>
65.020531

> <PEOE_VSA_POS>
174.66855

> <PEOE_VSA_PPOS>
29.523684

> <petitjean>
0.5

> <petitjeanSC>
1.0

> <Q_PC+>
0

> <Q_PC->
0

> <Q_RPC+>
0

> <Q_RPC->
0

> <Q_VSA_FHYD>
1

> <Q_VSA_FNEG>
0

> <Q_VSA_FPNEG>
0

> <Q_VSA_FPOL>
0

> <Q_VSA_FPOS>
1

> <Q_VSA_FPPOS>
0

> <Q_VSA_HYD>
259.18503

> <Q_VSA_NEG>
0

> <Q_VSA_PNEG>
0

> <Q_VSA_POL>
0

> <Q_VSA_POS>
259.18503

> <Q_VSA_PPOS>
0

> <radius>
5

> <reactive>
0

> <rings>
1

> <RPC+>
0

> <RPC->
0

> <rsynth>
1.0

> <SlogP>
0.5302

> <SlogP_VSA0>
80.282188

> <SlogP_VSA1>
7.3166366

> <SlogP_VSA2>
17.468536

> <SlogP_VSA3>
41.852516

> <SlogP_VSA4>
0.0

> <SlogP_VSA5>
35.383869

> <SlogP_VSA6>
0.0

> <SlogP_VSA7>
70.572739

> <SlogP_VSA8>
0.0

> <SlogP_VSA9>
34.349072

> <SMR>
6.0031199

> <SMR_VSA0>
34.862103

> <SMR_VSA1>
47.385002

> <SMR_VSA2>
0.0

> <SMR_VSA3>
16.955505

> <SMR_VSA4>
32.897186

> <SMR_VSA5>
70.572739

> <SMR_VSA6>
49.169155

> <SMR_VSA7>
35.383869

> <TPSA>
91.010002

> <VAdjEq>
0.52255934

> <VAdjMa>
5.0874629

> <VDistEq>
3.2026117

> <VDistMa>
7.8442349

> <vdw_area>
259.18503

> <vdw_vol>
307.37241

> <vsa_acc>
18.574432

> <vsa_acid>
0

> <vsa_base>
0

> <vsa_don>
17.742489

> <vsa_hyd>
168.38492

> <vsa_other>
21.703266

> <vsa_pol>
49.883842

> <Weight>
241.243

> <weinerPath>
606

> <weinerPol>
20

> <zagreb>
76

$$$$
Row1644
 OpenBabel06061811532D

 23 25  0  0  1  0  0  0  0  0999 V2000
    0.0000    0.0000    0.0000 S   0  0  0  0  0  0  0  0  0  0  0  0
    0.0000    0.0000    0.0000 C   0  0  0  0  0  0  0  0  0  0  0  0
    0.0000    0.0000    0.0000 C   0  0  0  0  0  0  0  0  0  0  0  0
    0.0000    0.0000    0.0000 N   0  0  0  0  0  0  0  0  0  0  0  0
    0.0000    0.0000    0.0000 C   0  0  0  0  0  0  0  0  0  0  0  0
    0.0000    0.0000    0.0000 C   0  0  0  0  0  0  0  0  0  0  0  0
    0.0000    0.0000    0.0000 C   0  0  0  0  0  0  0  0  0  0  0  0
    0.0000    0.0000    0.0000 C   0  0  0  0  0  0  0  0  0  0  0  0
    0.0000    0.0000    0.0000 C   0  0  0  0  0  0  0  0  0  0  0  0
    0.0000    0.0000    0.0000 C   0  0  0  0  0  0  0  0  0  0  0  0
    0.0000    0.0000    0.0000 C   0  0  0  0  0  0  0  0  0  0  0  0
    0.0000    0.0000    0.0000 C   0  0  3  0  0  0  0  0  0  0  0  0
    0.0000    0.0000    0.0000 C   0  0  0  0  0  0  0  0  0  0  0  0
    0.0000    0.0000    0.0000 N   0  0  0  0  0  0  0  0  0  0  0  0
    0.0000    0.0000    0.0000 C   0  0  0  0  0  0  0  0  0  0  0  0
    0.0000    0.0000    0.0000 C   0  0  0  0  0  0  0  0  0  0  0  0
    0.0000    0.0000    0.0000 C   0  0  0  0  0  0  0  0  0  0  0  0
    0.0000    0.0000    0.0000 C   0  0  0  0  0  0  0  0  0  0  0  0
    0.0000    0.0000    0.0000 C   0  0  0  0  0  0  0  0  0  0  0  0
    0.0000    0.0000    0.0000 O   0  0  0  0  0  0  0  0  0  0  0  0
    0.0000    0.0000    0.0000 C   0  0  0  0  0  0  0  0  0  0  0  0
    0.0000    0.0000    0.0000 C   0  0  0  0  0  0  0  0  0  0  0  0
    0.0000    0.0000    0.0000 C   0  0  0  0  0  0  0  0  0  0  0  0
  1  6  1  0  0  0  0
  1  2  1  0  0  0  0
  2 23  1  0  0  0  0
  2  3  2  0  0  0  0
  3  4  1  0  0  0  0
  3 18  1  0  0  0  0
  4  5  1  0  0  0  0
  4 11  1  0  0  0  0
  5 10  1  0  0  0  0
  5  6  2  0  0  0  0
  6  7  1  0  0  0  0
  7  8  2  0  0  0  0
  8  9  1  0  0  0  0
  9 10  2  0  0  0  0
 11 12  1  0  0  0  0
 12 13  1  0  0  0  0
 12 17  1  0  0  0  0
 13 14  1  0  0  0  0
 14 15  1  0  0  0  0
 14 16  1  0  0  0  0
 18 19  2  0  0  0  0
 19 20  1  0  0  0  0
 19 22  1  0  0  0  0
 20 21  1  0  0  0  0
 22 23  2  0  0  0  0
M  END
> <Index>
1645

> <ID>
HT1348

> <class>
1

> <apol>
55.345032

> <ast_fraglike>
0

> <ast_fraglike_ext>
0

> <ast_violation>
2

> <ast_violation_ext>
3

> <a_acc>
2

> <a_acid>
0

> <a_aro>
12

> <a_base>
0

> <a_count>
47

> <a_don>
0

> <a_donacc>
2

> <a_heavy>
23

> <a_hyd>
20

> <a_IC>
68.315956

> <a_ICM>
1.4535309

> <a_nB>
0

> <a_nBr>
0

> <a_nC>
19

> <a_nCl>
0

> <a_nF>
0

> <a_nH>
24

> <a_nI>
0

> <a_nN>
2

> <a_nO>
1

> <a_nP>
0

> <a_nS>
1

> <balabanJ>
1.741223

> <BCUT_PEOE_0>
-2.7045894

> <BCUT_PEOE_1>
-0.53521758

> <BCUT_PEOE_2>
0.53438133

> <BCUT_PEOE_3>
2.627408

> <BCUT_SLOGP_0>
-2.7559142

> <BCUT_SLOGP_1>
-0.44677392

> <BCUT_SLOGP_2>
0.66022962

> <BCUT_SLOGP_3>
2.6426468

> <BCUT_SMR_0>
-2.4302979

> <BCUT_SMR_1>
-0.34408155

> <BCUT_SMR_2>
0.69923884

> <BCUT_SMR_3>
2.9025316

> <bpol>
34.392967

> <b_1rotN>
5

> <b_1rotR>
0.2

> <b_ar>
12

> <b_count>
49

> <b_double>
0

> <b_heavy>
25

> <b_max1len>
6

> <b_rotN>
5

> <b_rotR>
0.2

> <b_single>
37

> <b_triple>
0

> <chi0>
16.396976

> <chi0v>
15.060436

> <chi0v_C>
12.533015

> <chi0_C>
13.828063

> <chi1>
11.079719

> <chi1v>
8.7704449

> <chi1v_C>
4.9592309

> <chi1_C>
6.5100031

> <chiral>
1

> <chiral_u>
1

> <density>
0.69918805

> <diameter>
10

> <FCharge>
0

> <GCUT_PEOE_0>
-0.86346245

> <GCUT_PEOE_1>
-0.37701476

> <GCUT_PEOE_2>
-0.027638284

> <GCUT_PEOE_3>
2.7251427

> <GCUT_SLOGP_0>
-0.95486665

> <GCUT_SLOGP_1>
-0.27082583

> <GCUT_SLOGP_2>
0.13112785

> <GCUT_SLOGP_3>
2.8548343

> <GCUT_SMR_0>
-0.5253166

> <GCUT_SMR_1>
-0.17782964

> <GCUT_SMR_2>
0.14690624

> <GCUT_SMR_3>
3.0193353

> <Kier1>
17.811199

> <Kier2>
7.9200001

> <Kier3>
4.1587901

> <KierA1>
15.026278

> <KierA2>
6.6269507

> <KierA3>
3.4581943

> <KierFlex>
4.3294959

> <lip_acc>
3

> <lip_don>
0

> <lip_druglike>
1

> <lip_violation>
0

> <logP(o/w)>
4.3460002

> <logS>
-4.09201

> <mr>
9.7975893

> <mutagenic>
0

> <nmol>
1

> <opr_brigid>
16

> <opr_leadlike>
1

> <opr_nring>
3

> <opr_nrot>
5

> <opr_violation>
0

> <PC+>
0

> <PC->
0

> <PEOE_PC+>
1.3843405

> <PEOE_PC->
-1.3843405

> <PEOE_RPC+>
0.055894546

> <PEOE_RPC->
0.25128269

> <PEOE_VSA+0>
132.86601

> <PEOE_VSA+1>
51.112381

> <PEOE_VSA+2>
0.0

> <PEOE_VSA+3>
0.0

> <PEOE_VSA+4>
0.0

> <PEOE_VSA+5>
0.0

> <PEOE_VSA+6>
0.0

> <PEOE_VSA-0>
107.7519

> <PEOE_VSA-1>
63.018105

> <PEOE_VSA-2>
0.0

> <PEOE_VSA-3>
0.0

> <PEOE_VSA-4>
0.0

> <PEOE_VSA-5>
0.0

> <PEOE_VSA-6>
2.503756

> <PEOE_VSA_FHYD>
0.99299163

> <PEOE_VSA_FNEG>
0.4850181

> <PEOE_VSA_FPNEG>
0.0070083723

> <PEOE_VSA_FPOL>
0.0070083723

> <PEOE_VSA_FPOS>
0.51498193

> <PEOE_VSA_FPPOS>
0.0

> <PEOE_VSA_HYD>
354.74838

> <PEOE_VSA_NEG>
173.27376

> <PEOE_VSA_PNEG>
2.503756

> <PEOE_VSA_POL>
2.503756

> <PEOE_VSA_POS>
183.97839

> <PEOE_VSA_PPOS>
0.0

> <petitjean>
0.5

> <petitjeanSC>
1.0

> <Q_PC+>
0

> <Q_PC->
0

> <Q_RPC+>
0

> <Q_RPC->
0

> <Q_VSA_FHYD>
1

> <Q_VSA_FNEG>
0

> <Q_VSA_FPNEG>
0

> <Q_VSA_FPOL>
0

> <Q_VSA_FPOS>
1

> <Q_VSA_FPPOS>
0

> <Q_VSA_HYD>
357.25217

> <Q_VSA_NEG>
0

> <Q_VSA_PNEG>
0

> <Q_VSA_POL>
0

> <Q_VSA_POS>
357.25217

> <Q_VSA_PPOS>
0

> <radius>
5

> <reactive>
0

> <rings>
3

> <RPC+>
0

> <RPC->
0

> <rsynth>
1.0

> <SlogP>
4.4956002

> <SlogP_VSA0>
14.124202

> <SlogP_VSA1>
3.1243138

> <SlogP_VSA2>
0.0

> <SlogP_VSA3>
36.879158

> <SlogP_VSA4>
4.4107962

> <SlogP_VSA5>
104.27971

> <SlogP_VSA6>
0.0

> <SlogP_VSA7>
123.50229

> <SlogP_VSA8>
0.0

> <SlogP_VSA9>
76.302483

> <SMR>
9.8283997

> <SMR_VSA0>
0.0

> <SMR_VSA1>
14.124202

> <SMR_VSA2>
10.636578

> <SMR_VSA3>
5.2434282

> <SMR_VSA4>
5.513495

> <SMR_VSA5>
123.50229

> <SMR_VSA6>
36.879158

> <SMR_VSA7>
166.7238

> <TPSA>
15.71

> <VAdjEq>
0.45137304

> <VAdjMa>
5.643856

> <VDistEq>
3.1184394

> <VDistMa>
8.7858391

> <vdw_area>
357.25217

> <vdw_vol>
469.80206

> <vsa_acc>
2.503756

> <vsa_acid>
0

> <vsa_base>
0

> <vsa_don>
0.0

> <vsa_hyd>
336.32025

> <vsa_other>
0.0

> <vsa_pol>
2.503756

> <Weight>
328.47998

> <weinerPath>
1130

> <weinerPol>
37

> <zagreb>
120

$$$$
Row1645
 OpenBabel06061811532D

 20 21  0  0  1  0  0  0  0  0999 V2000
    0.0000    0.0000    0.0000 Cl  0  0  0  0  0  0  0  0  0  0  0  0
    0.0000    0.0000    0.0000 C   0  0  0  0  0  0  0  0  0  0  0  0
    0.0000    0.0000    0.0000 C   0  0  0  0  0  0  0  0  0  0  0  0
    0.0000    0.0000    0.0000 C   0  0  0  0  0  0  0  0  0  0  0  0
    0.0000    0.0000    0.0000 N   0  0  0  0  0  0  0  0  0  0  0  0
    0.0000    0.0000    0.0000 C   0  0  3  0  0  0  0  0  0  0  0  0
    0.0000    0.0000    0.0000 N   0  0  0  0  0  0  0  0  0  0  0  0
    0.0000    0.0000    0.0000 S   0  0  0  0  0  0  0  0  0  0  0  0
    0.0000    0.0000    0.0000 O   0  0  0  0  0  0  0  0  0  0  0  0
    0.0000    0.0000    0.0000 O   0  0  0  0  0  0  0  0  0  0  0  0
    0.0000    0.0000    0.0000 C   0  0  0  0  0  0  0  0  0  0  0  0
    0.0000    0.0000    0.0000 C   0  0  0  0  0  0  0  0  0  0  0  0
    0.0000    0.0000    0.0000 C   0  0  0  0  0  0  0  0  0  0  0  0
    0.0000    0.0000    0.0000 S   0  0  0  0  0  0  0  0  0  0  0  0
    0.0000    0.0000    0.0000 O   0  0  0  0  0  0  0  0  0  0  0  0
    0.0000    0.0000    0.0000 O   0  0  0  0  0  0  0  0  0  0  0  0
    0.0000    0.0000    0.0000 N   0  0  0  0  0  0  0  0  0  0  0  0
    0.0000    0.0000    0.0000 C   0  0  0  0  0  0  0  0  0  0  0  0
    0.0000    0.0000    0.0000 C   0  0  0  0  0  0  0  0  0  0  0  0
    0.0000    0.0000    0.0000 Cl  0  0  0  0  0  0  0  0  0  0  0  0
  1  2  1  0  0  0  0
  2 13  1  0  0  0  0
  2  3  2  0  0  0  0
  3  4  1  0  0  0  0
  4 11  2  0  0  0  0
  4  5  1  0  0  0  0
  5  6  1  0  0  0  0
  6  7  1  0  0  0  0
  6 19  1  0  0  0  0
  7  8  1  0  0  0  0
  7 18  1  0  0  0  0
  8  9  2  0  0  0  0
  8 10  2  0  0  0  0
  8 11  1  0  0  0  0
 11 12  1  0  0  0  0
 12 13  2  0  0  0  0
 13 14  1  0  0  0  0
 14 15  2  0  0  0  0
 14 16  2  0  0  0  0
 14 17  1  0  0  0  0
 19 20  1  0  0  0  0
M  END
> <Index>
1646

> <ID>
HT1355

> <class>
1

> <apol>
39.842724

> <ast_fraglike>
0

> <ast_fraglike_ext>
0

> <ast_violation>
2

> <ast_violation_ext>
3

> <a_acc>
4

> <a_acid>
0

> <a_aro>
6

> <a_base>
0

> <a_count>
31

> <a_don>
2

> <a_donacc>
6

> <a_heavy>
20

> <a_hyd>
10

> <a_IC>
70.242126

> <a_ICM>
2.2658751

> <a_nB>
0

> <a_nBr>
0

> <a_nC>
9

> <a_nCl>
2

> <a_nF>
0

> <a_nH>
11

> <a_nI>
0

> <a_nN>
3

> <a_nO>
4

> <a_nP>
0

> <a_nS>
2

> <balabanJ>
2.2573788

> <BCUT_PEOE_0>
-2.6472316

> <BCUT_PEOE_1>
-0.25313196

> <BCUT_PEOE_2>
0.37592337

> <BCUT_PEOE_3>
2.6343896

> <BCUT_SLOGP_0>
-2.7764778

> <BCUT_SLOGP_1>
-0.3339

> <BCUT_SLOGP_2>
0.49450219

> <BCUT_SLOGP_3>
2.5602648

> <BCUT_SMR_0>
-2.3352866

> <BCUT_SMR_1>
-0.12364018

> <BCUT_SMR_2>
0.52709097

> <BCUT_SMR_3>
2.9483452

> <bpol>
27.797277

> <b_1rotN>
2

> <b_1rotR>
0.095238097

> <b_ar>
6

> <b_count>
32

> <b_double>
0

> <b_heavy>
21

> <b_max1len>
3

> <b_rotN>
2

> <b_rotR>
0.095238097

> <b_single>
26

> <b_triple>
0

> <chi0>
15.292529

> <chi0v>
13.313992

> <chi0v_C>
5.4391575

> <chi0_C>
6.0080719

> <chi1>
9.0855703

> <chi1v>
9.1553411

> <chi1v_C>
2.0629489

> <chi1_C>
2.7079082

> <chiral>
1

> <chiral_u>
1

> <density>
1.040145

> <diameter>
9

> <FCharge>
0

> <GCUT_PEOE_0>
-0.88451976

> <GCUT_PEOE_1>
-0.39675659

> <GCUT_PEOE_2>
-0.02645373

> <GCUT_PEOE_3>
2.5860081

> <GCUT_SLOGP_0>
-1.3482807

> <GCUT_SLOGP_1>
-0.45785823

> <GCUT_SLOGP_2>
0.17064205

> <GCUT_SLOGP_3>
2.5848057

> <GCUT_SMR_0>
-0.49941197

> <GCUT_SMR_1>
-0.12556329

> <GCUT_SMR_2>
0.22070539

> <GCUT_SMR_3>
2.863754

> <Kier1>
16.371881

> <Kier2>
5.3252597

> <Kier3>
2.8450413

> <KierA1>
18.940311

> <KierA2>
6.2086701

> <KierA3>
3.3358088

> <KierFlex>
5.8797073

> <lip_acc>
7

> <lip_don>
3

> <lip_druglike>
1

> <lip_violation>
0

> <logP(o/w)>
-0.211

> <logS>
-2.8506501

> <mr>
7.6403074

> <mutagenic>
1

> <nmol>
1

> <opr_brigid>
11

> <opr_leadlike>
1

> <opr_nring>
2

> <opr_nrot>
2

> <opr_violation>
0

> <PC+>
0

> <PC->
0

> <PEOE_PC+>
1.6351389

> <PEOE_PC->
-1.6351389

> <PEOE_RPC+>
0.18943247

> <PEOE_RPC->
0.23365305

> <PEOE_VSA+0>
101.52368

> <PEOE_VSA+1>
8.5307722

> <PEOE_VSA+2>
16.774651

> <PEOE_VSA+3>
10.105608

> <PEOE_VSA+4>
0.0

> <PEOE_VSA+5>
0.0

> <PEOE_VSA+6>
8.3692026

> <PEOE_VSA-0>
20.873917

> <PEOE_VSA-1>
29.581947

> <PEOE_VSA-2>
61.598469

> <PEOE_VSA-3>
9.0437498

> <PEOE_VSA-4>
32.016521

> <PEOE_VSA-5>
0.0

> <PEOE_VSA-6>
0.13689101

> <PEOE_VSA_FHYD>
0.86427104

> <PEOE_VSA_FNEG>
0.51331007

> <PEOE_VSA_FPNEG>
0.10769664

> <PEOE_VSA_FPOL>
0.13572897

> <PEOE_VSA_FPOS>
0.48668993

> <PEOE_VSA_FPPOS>
0.028032325

> <PEOE_VSA_HYD>
258.03281

> <PEOE_VSA_NEG>
153.2515

> <PEOE_VSA_PNEG>
32.153416

> <PEOE_VSA_POL>
40.522617

> <PEOE_VSA_POS>
145.30391

> <PEOE_VSA_PPOS>
8.3692026

> <petitjean>
0.44444445

> <petitjeanSC>
0.80000001

> <Q_PC+>
0

> <Q_PC->
0

> <Q_RPC+>
0

> <Q_RPC->
0

> <Q_VSA_FHYD>
1

> <Q_VSA_FNEG>
0

> <Q_VSA_FPNEG>
0

> <Q_VSA_FPOL>
0

> <Q_VSA_FPOS>
1

> <Q_VSA_FPPOS>
0

> <Q_VSA_HYD>
298.55542

> <Q_VSA_NEG>
0

> <Q_VSA_PNEG>
0

> <Q_VSA_POL>
0

> <Q_VSA_POS>
298.55542

> <Q_VSA_PPOS>
0

> <radius>
5

> <reactive>
1

> <rings>
2

> <RPC+>
0

> <RPC->
0

> <rsynth>
1.0

> <SlogP>
0.59829998

> <SlogP_VSA0>
31.291433

> <SlogP_VSA1>
115.87269

> <SlogP_VSA2>
16.834627

> <SlogP_VSA3>
19.183437

> <SlogP_VSA4>
0.0

> <SlogP_VSA5>
35.998657

> <SlogP_VSA6>
3.5006065

> <SlogP_VSA7>
35.286369

> <SlogP_VSA8>
0.0

> <SlogP_VSA9>
81.054039

> <SMR>
7.5904698

> <SMR_VSA0>
96.343376

> <SMR_VSA1>
1.5185606

> <SMR_VSA2>
3.1014678

> <SMR_VSA3>
7.0537477

> <SMR_VSA4>
52.058933

> <SMR_VSA5>
35.286369

> <SMR_VSA6>
19.183437

> <SMR_VSA7>
124.47596

> <TPSA>
109.57

> <VAdjEq>
0.48464775

> <VAdjMa>
5.3923173

> <VDistEq>
2.8765495

> <VDistMa>
8.382638

> <vdw_area>
298.55542

> <vdw_vol>
346.33826

> <vsa_acc>
64.033043

> <vsa_acid>
0

> <vsa_base>
0

> <vsa_don>
25.817696

> <vsa_hyd>
162.38855

> <vsa_other>
31.401779

> <vsa_pol>
89.850746

> <Weight>
360.242

> <weinerPath>
720

> <weinerPol>
38

> <zagreb>
110

$$$$
Row1646
 OpenBabel06061811532D

 25 28  0  0  1  0  0  0  0  0999 V2000
    0.0000    0.0000    0.0000 O   0  0  0  0  0  0  0  0  0  0  0  0
    0.0000    0.0000    0.0000 C   0  0  0  0  0  0  0  0  0  0  0  0
    0.0000    0.0000    0.0000 C   0  0  0  0  0  0  0  0  0  0  0  0
    0.0000    0.0000    0.0000 C   0  0  0  0  0  0  0  0  0  0  0  0
    0.0000    0.0000    0.0000 C   0  0  2  0  0  0  0  0  0  0  0  0
    0.0000    0.0000    0.0000 C   0  0  2  0  0  0  0  0  0  0  0  0
    0.0000    0.0000    0.0000 H   0  0  0  0  0  0  0  0  0  0  0  0
    0.0000    0.0000    0.0000 C   0  0  2  0  0  0  0  0  0  0  0  0
    0.0000    0.0000    0.0000 H   0  0  0  0  0  0  0  0  0  0  0  0
    0.0000    0.0000    0.0000 C   0  0  2  0  0  0  0  0  0  0  0  0
    0.0000    0.0000    0.0000 H   0  0  0  0  0  0  0  0  0  0  0  0
    0.0000    0.0000    0.0000 C   0  0  0  0  0  0  0  0  0  0  0  0
    0.0000    0.0000    0.0000 C   0  0  0  0  0  0  0  0  0  0  0  0
    0.0000    0.0000    0.0000 C   0  0  1  0  0  0  0  0  0  0  0  0
    0.0000    0.0000    0.0000 O   0  0  0  0  0  0  0  0  0  0  0  0
    0.0000    0.0000    0.0000 C   0  0  0  0  0  0  0  0  0  0  0  0
    0.0000    0.0000    0.0000 C   0  0  1  0  0  0  0  0  0  0  0  0
    0.0000    0.0000    0.0000 C   0  0  0  0  0  0  0  0  0  0  0  0
    0.0000    0.0000    0.0000 C   0  0  0  0  0  0  0  0  0  0  0  0
    0.0000    0.0000    0.0000 C   0  0  0  0  0  0  0  0  0  0  0  0
    0.0000    0.0000    0.0000 C   0  0  0  0  0  0  0  0  0  0  0  0
    0.0000    0.0000    0.0000 C   0  0  0  0  0  0  0  0  0  0  0  0
    0.0000    0.0000    0.0000 C   0  0  0  0  0  0  0  0  0  0  0  0
    0.0000    0.0000    0.0000 C   0  0  0  0  0  0  0  0  0  0  0  0
    0.0000    0.0000    0.0000 C   0  0  0  0  0  0  0  0  0  0  0  0
  1  2  2  0  0  0  0
  2 24  1  0  0  0  0
  2  3  1  0  0  0  0
  3  4  1  0  0  0  0
  4  5  1  0  0  0  0
  5 23  1  0  0  0  0
  5  6  1  0  0  0  0
  5 25  1  0  0  0  0
  6  7  1  0  0  0  0
  6 19  1  0  0  0  0
  6  8  1  0  0  0  0
  8  9  1  0  0  0  0
  8 10  1  0  0  0  0
  8 21  1  0  0  0  0
 10 11  1  0  0  0  0
 10 17  1  0  0  0  0
 10 12  1  0  0  0  0
 12 13  1  0  0  0  0
 13 14  1  0  0  0  0
 14 15  1  0  0  0  0
 14 16  1  0  0  0  0
 14 17  1  0  0  0  0
 17 18  1  0  0  0  0
 17 20  1  0  0  0  0
 18 19  1  0  0  0  0
 21 22  1  0  0  0  0
 22 23  1  0  0  0  0
 23 24  2  0  0  0  0
M  END
> <Index>
1647

> <ID>
HT1370

> <class>
1

> <apol>
56.807789

> <ast_fraglike>
0

> <ast_fraglike_ext>
0

> <ast_violation>
2

> <ast_violation_ext>
2

> <a_acc>
2

> <a_acid>
0

> <a_aro>
0

> <a_base>
0

> <a_count>
52

> <a_don>
1

> <a_donacc>
3

> <a_heavy>
22

> <a_hyd>
19

> <a_IC>
60.777584

> <a_ICM>
1.1687998

> <a_nB>
0

> <a_nBr>
0

> <a_nC>
20

> <a_nCl>
0

> <a_nF>
0

> <a_nH>
30

> <a_nI>
0

> <a_nN>
0

> <a_nO>
2

> <a_nP>
0

> <a_nS>
0

> <balabanJ>
1.6375484

> <BCUT_PEOE_0>
-2.9474161

> <BCUT_PEOE_1>
-0.3574228

> <BCUT_PEOE_2>
0.37010768

> <BCUT_PEOE_3>
2.9667108

> <BCUT_SLOGP_0>
-2.869405

> <BCUT_SLOGP_1>
-0.3332676

> <BCUT_SLOGP_2>
0.34670463

> <BCUT_SLOGP_3>
3.041497

> <BCUT_SMR_0>
-2.6915562

> <BCUT_SMR_1>
-0.1907371

> <BCUT_SMR_2>
0.51132685

> <BCUT_SMR_3>
3.2196286

> <bpol>
33.754211

> <b_1rotN>
0

> <b_1rotR>
0.0

> <b_ar>
0

> <b_count>
55

> <b_double>
2

> <b_heavy>
25

> <b_max1len>
4

> <b_rotN>
0

> <b_rotR>
0.0

> <b_single>
53

> <b_triple>
0

> <chi0>
15.750712

> <chi0v>
14.321717

> <chi0v_C>
13.466255

> <chi0_C>
13.750712

> <chi1>
10.27844

> <chi1v>
9.2416096

> <chi1v_C>
8.813879

> <chi1_C>
9.2010899

> <chiral>
6

> <chiral_u>
0

> <density>
0.67109293

> <diameter>
10

> <FCharge>
0

> <GCUT_PEOE_0>
-0.80488002

> <GCUT_PEOE_1>
-0.3475877

> <GCUT_PEOE_2>
-0.047521379

> <GCUT_PEOE_3>
3.3124192

> <GCUT_SLOGP_0>
-0.88372803

> <GCUT_SLOGP_1>
-0.29381844

> <GCUT_SLOGP_2>
-0.0127482

> <GCUT_SLOGP_3>
3.3991997

> <GCUT_SMR_0>
-0.53941005

> <GCUT_SMR_1>
-0.17869237

> <GCUT_SMR_2>
0.069113433

> <GCUT_SMR_3>
3.538455

> <Kier1>
15.5232

> <Kier2>
4.7619047

> <Kier3>
1.9771072

> <KierA1>
14.331991

> <KierA2>
4.3789988

> <KierA3>
1.8128842

> <KierFlex>
2.8527172

> <lip_acc>
2

> <lip_don>
1

> <lip_druglike>
1

> <lip_violation>
0

> <logP(o/w)>
3.5090001

> <logS>
-4.7912798

> <mr>
8.7324982

> <mutagenic>
0

> <nmol>
1

> <opr_brigid>
20

> <opr_leadlike>
1

> <opr_nring>
4

> <opr_nrot>
0

> <opr_violation>
0

> <PC+>
0

> <PC->
0

> <PEOE_PC+>
1.2846702

> <PEOE_PC->
-1.2846702

> <PEOE_RPC+>
0.16359892

> <PEOE_RPC->
0.30225489

> <PEOE_VSA+0>
128.13213

> <PEOE_VSA+1>
4.2653861

> <PEOE_VSA+2>
0.0

> <PEOE_VSA+3>
8.458519

> <PEOE_VSA+4>
10.324173

> <PEOE_VSA+5>
0.0

> <PEOE_VSA+6>
0.0

> <PEOE_VSA-0>
91.911774

> <PEOE_VSA-1>
39.703896

> <PEOE_VSA-2>
0.0

> <PEOE_VSA-3>
0.0

> <PEOE_VSA-4>
0.0

> <PEOE_VSA-5>
13.566921

> <PEOE_VSA-6>
7.7675405

> <PEOE_VSA_FHYD>
0.89590436

> <PEOE_VSA_FNEG>
0.50290984

> <PEOE_VSA_FPNEG>
0.070149072

> <PEOE_VSA_FPOL>
0.10409562

> <PEOE_VSA_FPOS>
0.49709019

> <PEOE_VSA_FPPOS>
0.03394654

> <PEOE_VSA_HYD>
272.47171

> <PEOE_VSA_NEG>
152.95013

> <PEOE_VSA_PNEG>
21.334461

> <PEOE_VSA_POL>
31.658634

> <PEOE_VSA_POS>
151.18021

> <PEOE_VSA_PPOS>
10.324173

> <petitjean>
0.5

> <petitjeanSC>
1.0

> <Q_PC+>
0

> <Q_PC->
0

> <Q_RPC+>
0

> <Q_RPC->
0

> <Q_VSA_FHYD>
1

> <Q_VSA_FNEG>
0

> <Q_VSA_FPNEG>
0

> <Q_VSA_FPOL>
0

> <Q_VSA_FPOS>
1

> <Q_VSA_FPPOS>
0

> <Q_VSA_HYD>
304.13034

> <Q_VSA_NEG>
0

> <Q_VSA_PNEG>
0

> <Q_VSA_POL>
0

> <Q_VSA_POS>
304.13034

> <Q_VSA_PPOS>
0

> <radius>
5

> <reactive>
1

> <rings>
4

> <RPC+>
0

> <RPC->
0

> <rsynth>
0.0

> <SlogP>
4.2693

> <SlogP_VSA0>
25.385227

> <SlogP_VSA1>
5.6876111

> <SlogP_VSA2>
23.862217

> <SlogP_VSA3>
0.0

> <SlogP_VSA4>
13.232388

> <SlogP_VSA5>
3.185575

> <SlogP_VSA6>
0.0

> <SlogP_VSA7>
17.643185

> <SlogP_VSA8>
150.94725

> <SlogP_VSA9>
99.978043

> <SMR>
8.7333803

> <SMR_VSA0>
23.862217

> <SMR_VSA1>
25.385227

> <SMR_VSA2>
13.232388

> <SMR_VSA3>
3.185575

> <SMR_VSA4>
0.0

> <SMR_VSA5>
168.59042

> <SMR_VSA6>
5.6876111

> <SMR_VSA7>
99.978043

> <TPSA>
37.299999

> <VAdjEq>
0.47938794

> <VAdjMa>
5.643856

> <VDistEq>
2.9879878

> <VDistMa>
8.6431408

> <vdw_area>
304.13034

> <vdw_vol>
450.69464

> <vsa_acc>
13.566921

> <vsa_acid>
0

> <vsa_base>
0

> <vsa_don>
0.0

> <vsa_hyd>
239.33595

> <vsa_other>
8.458519

> <vsa_pol>
27.133842

> <Weight>
302.45801

> <weinerPath>
907

> <weinerPol>
48

> <zagreb>
134

$$$$
Row1647
 OpenBabel06061811532D

 17 18  0  0  0  0  0  0  0  0999 V2000
    0.0000    0.0000    0.0000 S   0  0  0  0  0  0  0  0  0  0  0  0
    0.0000    0.0000    0.0000 O   0  0  0  0  0  0  0  0  0  0  0  0
    0.0000    0.0000    0.0000 O   0  0  0  0  0  0  0  0  0  0  0  0
    0.0000    0.0000    0.0000 N   0  0  0  0  0  0  0  0  0  0  0  0
    0.0000    0.0000    0.0000 C   0  0  0  0  0  0  0  0  0  0  0  0
    0.0000    0.0000    0.0000 C   0  0  0  0  0  0  0  0  0  0  0  0
    0.0000    0.0000    0.0000 C   0  0  0  0  0  0  0  0  0  0  0  0
    0.0000    0.0000    0.0000 S   0  0  0  0  0  0  0  0  0  0  0  0
    0.0000    0.0000    0.0000 O   0  0  0  0  0  0  0  0  0  0  0  0
    0.0000    0.0000    0.0000 O   0  0  0  0  0  0  0  0  0  0  0  0
    0.0000    0.0000    0.0000 C   0  0  0  0  0  0  0  0  0  0  0  0
    0.0000    0.0000    0.0000 C   0  0  0  0  0  0  0  0  0  0  0  0
    0.0000    0.0000    0.0000 C   0  0  0  0  0  0  0  0  0  0  0  0
    0.0000    0.0000    0.0000 C   0  0  0  0  0  0  0  0  0  0  0  0
    0.0000    0.0000    0.0000 C   0  0  0  0  0  0  0  0  0  0  0  0
    0.0000    0.0000    0.0000 C   0  0  0  0  0  0  0  0  0  0  0  0
    0.0000    0.0000    0.0000 C   0  0  0  0  0  0  0  0  0  0  0  0
  1  2  2  0  0  0  0
  1  3  2  0  0  0  0
  1  4  1  0  0  0  0
  1  5  1  0  0  0  0
  5 16  1  0  0  0  0
  5  6  2  0  0  0  0
  6  7  1  0  0  0  0
  7 14  2  0  0  0  0
  7  8  1  0  0  0  0
  8  9  2  0  0  0  0
  8 10  2  0  0  0  0
  8 11  1  0  0  0  0
 11 12  1  0  0  0  0
 12 13  1  0  0  0  0
 13 14  1  0  0  0  0
 14 15  1  0  0  0  0
 15 16  2  0  0  0  0
 16 17  1  0  0  0  0
M  END
> <Index>
1648

> <ID>
HT1373

> <class>
1

> <apol>
36.376308

> <ast_fraglike>
0

> <ast_fraglike_ext>
0

> <ast_violation>
1

> <ast_violation_ext>
2

> <a_acc>
4

> <a_acid>
0

> <a_aro>
6

> <a_base>
0

> <a_count>
30

> <a_don>
1

> <a_donacc>
5

> <a_heavy>
17

> <a_hyd>
10

> <a_IC>
55.881721

> <a_ICM>
1.8627241

> <a_nB>
0

> <a_nBr>
0

> <a_nC>
10

> <a_nCl>
0

> <a_nF>
0

> <a_nH>
13

> <a_nI>
0

> <a_nN>
1

> <a_nO>
4

> <a_nP>
0

> <a_nS>
2

> <balabanJ>
2.1891959

> <BCUT_PEOE_0>
-2.602973

> <BCUT_PEOE_1>
-0.47705549

> <BCUT_PEOE_2>
0.39681837

> <BCUT_PEOE_3>
2.6766455

> <BCUT_SLOGP_0>
-2.6313603

> <BCUT_SLOGP_1>
-0.37979984

> <BCUT_SLOGP_2>
0.4339405

> <BCUT_SLOGP_3>
2.6574006

> <BCUT_SMR_0>
-2.3401399

> <BCUT_SMR_1>
-0.16745868

> <BCUT_SMR_2>
0.56105822

> <BCUT_SMR_3>
2.9554448

> <bpol>
26.503691

> <b_1rotN>
1

> <b_1rotR>
0.055555556

> <b_ar>
6

> <b_count>
31

> <b_double>
0

> <b_heavy>
18

> <b_max1len>
3

> <b_rotN>
1

> <b_rotR>
0.055555556

> <b_single>
25

> <b_triple>
0

> <chi0>
12.844935

> <chi0v>
10.935854

> <chi0v_C>
6.276021

> <chi0_C>
6.8449349

> <chi1>
7.7161622

> <chi1v>
8.3061314

> <chi1v_C>
3.5082538

> <chi1_C>
4.2852583

> <chiral>
0

> <chiral_u>
0

> <density>
0.90247571

> <diameter>
7

> <FCharge>
0

> <GCUT_PEOE_0>
-0.88624257

> <GCUT_PEOE_1>
-0.40390822

> <GCUT_PEOE_2>
-0.01857077

> <GCUT_PEOE_3>
2.6102595

> <GCUT_SLOGP_0>
-1.3482944

> <GCUT_SLOGP_1>
-0.43569267

> <GCUT_SLOGP_2>
0.017731482

> <GCUT_SLOGP_3>
2.6182151

> <GCUT_SMR_0>
-0.51315093

> <GCUT_SMR_1>
-0.14151482

> <GCUT_SMR_2>
0.10550335

> <GCUT_SMR_3>
2.8605802

> <Kier1>
13.432098

> <Kier2>
4.2806182

> <Kier3>
2.5599999

> <KierA1>
13.982661

> <KierA2>
4.4677014

> <KierA3>
2.6774042

> <KierFlex>
3.6747267

> <lip_acc>
5

> <lip_don>
2

> <lip_druglike>
1

> <lip_violation>
0

> <logP(o/w)>
0.25

> <logS>
-2.29829

> <mr>
6.5281048

> <mutagenic>
0

> <nmol>
1

> <opr_brigid>
11

> <opr_leadlike>
1

> <opr_nring>
2

> <opr_nrot>
2

> <opr_violation>
0

> <PC+>
0

> <PC->
0

> <PEOE_PC+>
1.8054237

> <PEOE_PC->
-1.8054237

> <PEOE_RPC+>
0.16301553

> <PEOE_RPC->
0.26172435

> <PEOE_VSA+0>
65.902649

> <PEOE_VSA+1>
12.947851

> <PEOE_VSA+2>
20.785675

> <PEOE_VSA+3>
10.677375

> <PEOE_VSA+4>
0.0

> <PEOE_VSA+5>
8.3692026

> <PEOE_VSA+6>
0.0

> <PEOE_VSA-0>
39.703896

> <PEOE_VSA-1>
0.0

> <PEOE_VSA-2>
6.5127993

> <PEOE_VSA-3>
9.0437498

> <PEOE_VSA-4>
32.016521

> <PEOE_VSA-5>
0.0

> <PEOE_VSA-6>
32.016521

> <PEOE_VSA_FHYD>
0.69575852

> <PEOE_VSA_FNEG>
0.50128317

> <PEOE_VSA_FPNEG>
0.26907328

> <PEOE_VSA_FPOL>
0.30424151

> <PEOE_VSA_FPOS>
0.4987168

> <PEOE_VSA_FPPOS>
0.035168227

> <PEOE_VSA_HYD>
165.57399

> <PEOE_VSA_NEG>
119.29349

> <PEOE_VSA_PNEG>
64.033043

> <PEOE_VSA_POL>
72.402252

> <PEOE_VSA_POS>
118.68275

> <PEOE_VSA_PPOS>
8.3692026

> <petitjean>
0.42857143

> <petitjeanSC>
0.75

> <Q_PC+>
0

> <Q_PC->
0

> <Q_RPC+>
0

> <Q_RPC->
0

> <Q_VSA_FHYD>
1

> <Q_VSA_FNEG>
0

> <Q_VSA_FPNEG>
0

> <Q_VSA_FPOL>
0

> <Q_VSA_FPOS>
1

> <Q_VSA_FPPOS>
0

> <Q_VSA_HYD>
237.97624

> <Q_VSA_NEG>
0

> <Q_VSA_PNEG>
0

> <Q_VSA_POL>
0

> <Q_VSA_POS>
237.97624

> <Q_VSA_PPOS>
0

> <radius>
4

> <reactive>
0

> <rings>
2

> <RPC+>
0

> <RPC->
0

> <rsynth>
1.0

> <SlogP>
0.36228999

> <SlogP_VSA0>
31.291433

> <SlogP_VSA1>
96.343376

> <SlogP_VSA2>
13.52001

> <SlogP_VSA3>
17.233564

> <SlogP_VSA4>
6.37115

> <SlogP_VSA5>
21.969873

> <SlogP_VSA6>
0.0

> <SlogP_VSA7>
35.286369

> <SlogP_VSA8>
18.868406

> <SlogP_VSA9>
33.326015

> <SMR>
6.2926002

> <SMR_VSA0>
96.343376

> <SMR_VSA1>
0.0

> <SMR_VSA2>
3.1014678

> <SMR_VSA3>
6.37115

> <SMR_VSA4>
31.291433

> <SMR_VSA5>
73.023178

> <SMR_VSA6>
17.233564

> <SMR_VSA7>
46.846024

> <TPSA>
94.300003

> <VAdjEq>
0.54234898

> <VAdjMa>
5.1699252

> <VDistEq>
2.633986

> <VDistMa>
7.9134102

> <vdw_area>
237.97624

> <vdw_vol>
305.10406

> <vsa_acc>
64.033043

> <vsa_acid>
0

> <vsa_base>
0

> <vsa_don>
20.13512

> <vsa_hyd>
123.21326

> <vsa_other>
16.618408

> <vsa_pol>
84.168167

> <Weight>
275.349

> <weinerPath>
460

> <weinerPol>
29

> <zagreb>
94

$$$$
Row1648
 OpenBabel06061811532D

 20 20  0  0  0  0  0  0  0  0999 V2000
    0.0000    0.0000    0.0000 Cl  0  0  0  0  0  0  0  0  0  0  0  0
    0.0000    0.0000    0.0000 C   0  0  0  0  0  0  0  0  0  0  0  0
    0.0000    0.0000    0.0000 C   0  0  0  0  0  0  0  0  0  0  0  0
    0.0000    0.0000    0.0000 C   0  0  0  0  0  0  0  0  0  0  0  0
    0.0000    0.0000    0.0000 C   0  0  0  0  0  0  0  0  0  0  0  0
    0.0000    0.0000    0.0000 O   0  0  0  0  0  0  0  0  0  0  0  0
    0.0000    0.0000    0.0000 N   0  0  0  0  0  0  0  0  0  0  0  0
    0.0000    0.0000    0.0000 C   0  0  0  0  0  0  0  0  0  0  0  0
    0.0000    0.0000    0.0000 C   0  0  0  0  0  0  0  0  0  0  0  0
    0.0000    0.0000    0.0000 N   0  0  0  0  0  0  0  0  0  0  0  0
    0.0000    0.0000    0.0000 C   0  0  0  0  0  0  0  0  0  0  0  0
    0.0000    0.0000    0.0000 C   0  0  0  0  0  0  0  0  0  0  0  0
    0.0000    0.0000    0.0000 C   0  0  0  0  0  0  0  0  0  0  0  0
    0.0000    0.0000    0.0000 C   0  0  0  0  0  0  0  0  0  0  0  0
    0.0000    0.0000    0.0000 C   0  0  0  0  0  0  0  0  0  0  0  0
    0.0000    0.0000    0.0000 O   0  0  0  0  0  0  0  0  0  0  0  0
    0.0000    0.0000    0.0000 C   0  0  0  0  0  0  0  0  0  0  0  0
    0.0000    0.0000    0.0000 C   0  0  0  0  0  0  0  0  0  0  0  0
    0.0000    0.0000    0.0000 C   0  0  0  0  0  0  0  0  0  0  0  0
    0.0000    0.0000    0.0000 N   0  0  0  0  0  0  0  0  0  0  0  0
  1  2  1  0  0  0  0
  2 19  1  0  0  0  0
  2  3  2  0  0  0  0
  3  4  1  0  0  0  0
  4  5  1  0  0  0  0
  4 15  2  0  0  0  0
  5  6  2  0  0  0  0
  5  7  1  0  0  0  0
  7  8  1  0  0  0  0
  8  9  1  0  0  0  0
  9 10  1  0  0  0  0
 10 11  1  0  0  0  0
 10 13  1  0  0  0  0
 11 12  1  0  0  0  0
 13 14  1  0  0  0  0
 15 16  1  0  0  0  0
 15 18  1  0  0  0  0
 16 17  1  0  0  0  0
 18 19  2  0  0  0  0
 19 20  1  0  0  0  0
M  END
> <Index>
1649

> <ID>
HT1376

> <class>
1

> <apol>
46.393448

> <ast_fraglike>
1

> <ast_fraglike_ext>
0

> <ast_violation>
0

> <ast_violation_ext>
1

> <a_acc>
3

> <a_acid>
0

> <a_aro>
6

> <a_base>
0

> <a_count>
42

> <a_don>
2

> <a_donacc>
5

> <a_heavy>
20

> <a_hyd>
14

> <a_IC>
68.311981

> <a_ICM>
1.6264757

> <a_nB>
0

> <a_nBr>
0

> <a_nC>
14

> <a_nCl>
1

> <a_nF>
0

> <a_nH>
22

> <a_nI>
0

> <a_nN>
3

> <a_nO>
2

> <a_nP>
0

> <a_nS>
0

> <balabanJ>
2.4265146

> <BCUT_PEOE_0>
-2.6817372

> <BCUT_PEOE_1>
-0.27490166

> <BCUT_PEOE_2>
0.25799096

> <BCUT_PEOE_3>
2.5747447

> <BCUT_SLOGP_0>
-2.7911084

> <BCUT_SLOGP_1>
-0.18355027

> <BCUT_SLOGP_2>
0.43694052

> <BCUT_SLOGP_3>
2.5199735

> <BCUT_SMR_0>
-2.3993266

> <BCUT_SMR_1>
-0.058218982

> <BCUT_SMR_2>
0.44114336

> <BCUT_SMR_3>
2.8486657

> <bpol>
29.324554

> <b_1rotN>
7

> <b_1rotR>
0.34999999

> <b_ar>
6

> <b_count>
42

> <b_double>
1

> <b_heavy>
20

> <b_max1len>
7

> <b_rotN>
8

> <b_rotR>
0.40000001

> <b_single>
35

> <b_triple>
0

> <chi0>
15.120955

> <chi0v>
12.958081

> <chi0v_C>
9.4831276

> <chi0_C>
10.129392

> <chi1>
9.527606

> <chi1v>
7.0432692

> <chi1v_C>
3.8189142

> <chi1_C>
4.5472069

> <chiral>
0

> <chiral_u>
0

> <density>
0.74770886

> <diameter>
11

> <FCharge>
0

> <GCUT_PEOE_0>
-0.85718888

> <GCUT_PEOE_1>
-0.34831005

> <GCUT_PEOE_2>
-0.024181953

> <GCUT_PEOE_3>
2.5015702

> <GCUT_SLOGP_0>
-1.3343023

> <GCUT_SLOGP_1>
-0.25694439

> <GCUT_SLOGP_2>
0.12048326

> <GCUT_SLOGP_3>
2.5272772

> <GCUT_SMR_0>
-0.52160752

> <GCUT_SMR_1>
-0.10801258

> <GCUT_SMR_2>
0.11414585

> <GCUT_SMR_3>
2.7617102

> <Kier1>
18.049999

> <Kier2>
9.1065092

> <Kier3>
5.3789062

> <KierA1>
15.4806

> <KierA2>
7.7431908

> <KierA3>
4.5448775

> <KierFlex>
5.9934621

> <lip_acc>
5

> <lip_don>
3

> <lip_druglike>
1

> <lip_violation>
0

> <logP(o/w)>
1.71

> <logS>
-2.58887

> <mr>
8.1584721

> <mutagenic>
1

> <nmol>
1

> <opr_brigid>
6

> <opr_leadlike>
1

> <opr_nring>
1

> <opr_nrot>
7

> <opr_violation>
0

> <PC+>
0

> <PC->
0

> <PEOE_PC+>
1.8008858

> <PEOE_PC->
-1.8008858

> <PEOE_RPC+>
0.14138925

> <PEOE_RPC->
0.19473369

> <PEOE_VSA+0>
117.79726

> <PEOE_VSA+1>
36.513737

> <PEOE_VSA+2>
17.238026

> <PEOE_VSA+3>
8.6190128

> <PEOE_VSA+4>
0.0

> <PEOE_VSA+5>
12.949531

> <PEOE_VSA+6>
0.0

> <PEOE_VSA-0>
50.894459

> <PEOE_VSA-1>
67.077301

> <PEOE_VSA-2>
0.0

> <PEOE_VSA-3>
0.0

> <PEOE_VSA-4>
0.0

> <PEOE_VSA-5>
13.566921

> <PEOE_VSA-6>
9.2917662

> <PEOE_VSA_FHYD>
0.89277309

> <PEOE_VSA_FNEG>
0.42171368

> <PEOE_VSA_FPNEG>
0.06844984

> <PEOE_VSA_FPOL>
0.10722692

> <PEOE_VSA_FPOS>
0.57828629

> <PEOE_VSA_FPPOS>
0.038777087

> <PEOE_VSA_HYD>
298.1398

> <PEOE_VSA_NEG>
140.83044

> <PEOE_VSA_PNEG>
22.858686

> <PEOE_VSA_POL>
35.80822

> <PEOE_VSA_POS>
193.11757

> <PEOE_VSA_PPOS>
12.949531

> <petitjean>
0.45454547

> <petitjeanSC>
0.83333331

> <Q_PC+>
0

> <Q_PC->
0

> <Q_RPC+>
0

> <Q_RPC->
0

> <Q_VSA_FHYD>
1

> <Q_VSA_FNEG>
0

> <Q_VSA_FPNEG>
0

> <Q_VSA_FPOL>
0

> <Q_VSA_FPOS>
1

> <Q_VSA_FPPOS>
0

> <Q_VSA_HYD>
333.94803

> <Q_VSA_NEG>
0

> <Q_VSA_PNEG>
0

> <Q_VSA_POL>
0

> <Q_VSA_POS>
333.94803

> <Q_VSA_PPOS>
0

> <radius>
6

> <reactive>
0

> <rings>
1

> <RPC+>
0

> <RPC->
0

> <rsynth>
1.0

> <SlogP>
2.0023999

> <SlogP_VSA0>
61.907825

> <SlogP_VSA1>
8.3830976

> <SlogP_VSA2>
0.0

> <SlogP_VSA3>
73.758316

> <SlogP_VSA4>
27.047791

> <SlogP_VSA5>
35.383869

> <SlogP_VSA6>
3.5006065

> <SlogP_VSA7>
35.286369

> <SlogP_VSA8>
0.0

> <SlogP_VSA9>
113.80085

> <SMR>
8.2537603

> <SMR_VSA0>
23.862217

> <SMR_VSA1>
14.124202

> <SMR_VSA2>
18.01075

> <SMR_VSA3>
11.929609

> <SMR_VSA4>
2.7567475

> <SMR_VSA5>
68.183556

> <SMR_VSA6>
79.017097

> <SMR_VSA7>
141.18454

> <TPSA>
67.589996

> <VAdjEq>
0.4689956

> <VAdjMa>
5.321928

> <VDistEq>
3.288985

> <VDistMa>
8.3326426

> <vdw_area>
333.94803

> <vdw_vol>
400.96088

> <vsa_acc>
16.070677

> <vsa_acid>
0

> <vsa_base>
0

> <vsa_don>
23.425066

> <vsa_hyd>
258.75864

> <vsa_other>
12.949531

> <vsa_pol>
39.495743

> <Weight>
299.802

> <weinerPath>
902

> <weinerPol>
29

> <zagreb>
92

$$$$
Row1649
 OpenBabel06061811532D

 24 26  0  0  1  0  0  0  0  0999 V2000
    0.0000    0.0000    0.0000 Cl  0  0  0  0  0  0  0  0  0  0  0  0
    0.0000    0.0000    0.0000 C   0  0  0  0  0  0  0  0  0  0  0  0
    0.0000    0.0000    0.0000 C   0  0  0  0  0  0  0  0  0  0  0  0
    0.0000    0.0000    0.0000 C   0  0  0  0  0  0  0  0  0  0  0  0
    0.0000    0.0000    0.0000 N   0  0  0  0  0  0  0  0  0  0  0  0
    0.0000    0.0000    0.0000 C   0  0  3  0  0  0  0  0  0  0  0  0
    0.0000    0.0000    0.0000 N   0  0  0  0  0  0  0  0  0  0  0  0
    0.0000    0.0000    0.0000 C   0  0  0  0  0  0  0  0  0  0  0  0
    0.0000    0.0000    0.0000 C   0  0  0  0  0  0  0  0  0  0  0  0
    0.0000    0.0000    0.0000 C   0  0  0  0  0  0  0  0  0  0  0  0
    0.0000    0.0000    0.0000 C   0  0  0  0  0  0  0  0  0  0  0  0
    0.0000    0.0000    0.0000 C   0  0  0  0  0  0  0  0  0  0  0  0
    0.0000    0.0000    0.0000 C   0  0  0  0  0  0  0  0  0  0  0  0
    0.0000    0.0000    0.0000 C   0  0  0  0  0  0  0  0  0  0  0  0
    0.0000    0.0000    0.0000 C   0  0  0  0  0  0  0  0  0  0  0  0
    0.0000    0.0000    0.0000 O   0  0  0  0  0  0  0  0  0  0  0  0
    0.0000    0.0000    0.0000 C   0  0  0  0  0  0  0  0  0  0  0  0
    0.0000    0.0000    0.0000 C   0  0  0  0  0  0  0  0  0  0  0  0
    0.0000    0.0000    0.0000 C   0  0  0  0  0  0  0  0  0  0  0  0
    0.0000    0.0000    0.0000 S   0  0  0  0  0  0  0  0  0  0  0  0
    0.0000    0.0000    0.0000 O   0  0  0  0  0  0  0  0  0  0  0  0
    0.0000    0.0000    0.0000 O   0  0  0  0  0  0  0  0  0  0  0  0
    0.0000    0.0000    0.0000 N   0  0  0  0  0  0  0  0  0  0  0  0
    0.0000    0.0000    0.0000 C   0  0  0  0  0  0  0  0  0  0  0  0
  1  2  1  0  0  0  0
  2 19  1  0  0  0  0
  2  3  2  0  0  0  0
  3  4  1  0  0  0  0
  4 17  2  0  0  0  0
  4  5  1  0  0  0  0
  5  6  1  0  0  0  0
  6  7  1  0  0  0  0
  6 24  1  0  0  0  0
  7  8  1  0  0  0  0
  7 15  1  0  0  0  0
  8 13  1  0  0  0  0
  8  9  2  0  0  0  0
  9 10  1  0  0  0  0
 10 11  2  0  0  0  0
 11 12  1  0  0  0  0
 12 13  2  0  0  0  0
 13 14  1  0  0  0  0
 15 16  2  0  0  0  0
 15 17  1  0  0  0  0
 17 18  1  0  0  0  0
 18 19  2  0  0  0  0
 19 20  1  0  0  0  0
 20 21  2  0  0  0  0
 20 22  2  0  0  0  0
 20 23  1  0  0  0  0
M  END
> <Index>
1650

> <ID>
HT1378

> <class>
1

> <apol>
49.614689

> <ast_fraglike>
0

> <ast_fraglike_ext>
0

> <ast_violation>
1

> <ast_violation_ext>
2

> <a_acc>
3

> <a_acid>
0

> <a_aro>
12

> <a_base>
0

> <a_count>
40

> <a_don>
2

> <a_donacc>
5

> <a_heavy>
24

> <a_hyd>
15

> <a_IC>
75.367348

> <a_ICM>
1.8841838

> <a_nB>
0

> <a_nBr>
0

> <a_nC>
16

> <a_nCl>
1

> <a_nF>
0

> <a_nH>
16

> <a_nI>
0

> <a_nN>
3

> <a_nO>
3

> <a_nP>
0

> <a_nS>
1

> <balabanJ>
1.7961094

> <BCUT_PEOE_0>
-2.588882

> <BCUT_PEOE_1>
-0.53389156

> <BCUT_PEOE_2>
0.6000694

> <BCUT_PEOE_3>
2.5461466

> <BCUT_SLOGP_0>
-2.6901598

> <BCUT_SLOGP_1>
-0.43380886

> <BCUT_SLOGP_2>
0.70032674

> <BCUT_SLOGP_3>
2.5380177

> <BCUT_SMR_0>
-2.2774436

> <BCUT_SMR_1>
-0.40497217

> <BCUT_SMR_2>
0.73855525

> <BCUT_SMR_3>
2.8583863

> <bpol>
27.325312

> <b_1rotN>
2

> <b_1rotR>
0.07692308

> <b_ar>
12

> <b_count>
42

> <b_double>
1

> <b_heavy>
26

> <b_max1len>
3

> <b_rotN>
2

> <b_rotR>
0.07692308

> <b_single>
29

> <b_triple>
0

> <chi0>
17.645901

> <chi0v>
14.649399

> <chi0v_C>
9.5414515

> <chi0_C>
10.861443

> <chi1>
11.197396

> <chi1v>
9.1440392

> <chi1v_C>
4.809401

> <chi1_C>
6.4375238

> <chiral>
1

> <chiral_u>
1

> <density>
0.84624225

> <diameter>
10

> <FCharge>
0

> <GCUT_PEOE_0>
-0.81384492

> <GCUT_PEOE_1>
-0.39676067

> <GCUT_PEOE_2>
0.061815564

> <GCUT_PEOE_3>
2.6586478

> <GCUT_SLOGP_0>
-1.3482753

> <GCUT_SLOGP_1>
-0.32987744

> <GCUT_SLOGP_2>
0.14423659

> <GCUT_SLOGP_3>
2.7226396

> <GCUT_SMR_0>
-0.50417459

> <GCUT_SMR_1>
-0.18007974

> <GCUT_SMR_2>
0.16301441

> <GCUT_SMR_3>
2.9535856

> <Kier1>
18.781065

> <Kier2>
6.9575

> <Kier3>
3.6183696

> <KierA1>
15.933104

> <KierA2>
5.8578615

> <KierA3>
3.0298915

> <KierFlex>
3.8889134

> <lip_acc>
6

> <lip_don>
3

> <lip_druglike>
1

> <lip_violation>
0

> <logP(o/w)>
2.276

> <logS>
-4.52349

> <mr>
9.3198977

> <mutagenic>
0

> <nmol>
1

> <opr_brigid>
17

> <opr_leadlike>
1

> <opr_nring>
3

> <opr_nrot>
2

> <opr_violation>
0

> <PC+>
0

> <PC->
0

> <PEOE_PC+>
1.8889004

> <PEOE_PC->
-1.8889004

> <PEOE_RPC+>
0.15927832

> <PEOE_RPC->
0.1545568

> <PEOE_VSA+0>
66.335052

> <PEOE_VSA+1>
51.958118

> <PEOE_VSA+2>
13.13876

> <PEOE_VSA+3>
0.0

> <PEOE_VSA+4>
0.0

> <PEOE_VSA+5>
12.949531

> <PEOE_VSA+6>
4.1846013

> <PEOE_VSA-0>
64.213699

> <PEOE_VSA-1>
66.346657

> <PEOE_VSA-2>
0.0

> <PEOE_VSA-3>
9.0437498

> <PEOE_VSA-4>
32.016521

> <PEOE_VSA-5>
13.703812

> <PEOE_VSA-6>
0.0

> <PEOE_VSA_FHYD>
0.81175125

> <PEOE_VSA_FNEG>
0.55504555

> <PEOE_VSA_FPNEG>
0.13693212

> <PEOE_VSA_FPOL>
0.18824874

> <PEOE_VSA_FPOS>
0.44495443

> <PEOE_VSA_FPPOS>
0.051316619

> <PEOE_VSA_HYD>
271.03604

> <PEOE_VSA_NEG>
185.32445

> <PEOE_VSA_PNEG>
45.720337

> <PEOE_VSA_POL>
62.854465

> <PEOE_VSA_POS>
148.56606

> <PEOE_VSA_PPOS>
17.134132

> <petitjean>
0.5

> <petitjeanSC>
1.0

> <Q_PC+>
0

> <Q_PC->
0

> <Q_RPC+>
0

> <Q_RPC->
0

> <Q_VSA_FHYD>
1

> <Q_VSA_FNEG>
0

> <Q_VSA_FPNEG>
0

> <Q_VSA_FPOL>
0

> <Q_VSA_FPOS>
1

> <Q_VSA_FPPOS>
0

> <Q_VSA_HYD>
333.8905

> <Q_VSA_NEG>
0

> <Q_VSA_PNEG>
0

> <Q_VSA_POL>
0

> <Q_VSA_POS>
333.8905

> <Q_VSA_PPOS>
0

> <radius>
5

> <reactive>
0

> <rings>
3

> <RPC+>
0

> <RPC->
0

> <rsynth>
1.0

> <SlogP>
2.7141199

> <SlogP_VSA0>
34.415749

> <SlogP_VSA1>
71.441223

> <SlogP_VSA2>
10.193884

> <SlogP_VSA3>
0.0

> <SlogP_VSA4>
30.233366

> <SlogP_VSA5>
1.5507339

> <SlogP_VSA6>
3.5006065

> <SlogP_VSA7>
105.85911

> <SlogP_VSA8>
0.0

> <SlogP_VSA9>
111.31417

> <SMR>
9.3898401

> <SMR_VSA0>
72.033905

> <SMR_VSA1>
0.0

> <SMR_VSA2>
4.6750479

> <SMR_VSA3>
13.424898

> <SMR_VSA4>
54.815681

> <SMR_VSA5>
105.85911

> <SMR_VSA6>
5.2587838

> <SMR_VSA7>
112.44141

> <TPSA>
92.5

> <VAdjEq>
0.43739632

> <VAdjMa>
5.7004399

> <VDistEq>
3.1432741

> <VDistMa>
8.9023447

> <vdw_area>
333.8905

> <vdw_vol>
432.31238

> <vsa_acc>
45.583443

> <vsa_acid>
0

> <vsa_base>
0

> <vsa_don>
25.817696

> <vsa_hyd>
209.77034

> <vsa_other>
34.245701

> <vsa_pol>
71.401138

> <Weight>
365.841

> <weinerPath>
1228

> <weinerPol>
44

> <zagreb>
132

$$$$
Row1650
 OpenBabel06061811532D

 13 13  0  0  1  0  0  0  0  0999 V2000
    0.0000    0.0000    0.0000 O   0  0  0  0  0  0  0  0  0  0  0  0
    0.0000    0.0000    0.0000 C   0  0  0  0  0  0  0  0  0  0  0  0
    0.0000    0.0000    0.0000 C   0  0  3  0  0  0  0  0  0  0  0  0
    0.0000    0.0000    0.0000 N   0  0  0  0  0  0  0  0  0  0  0  0
    0.0000    0.0000    0.0000 C   0  0  0  0  0  0  0  0  0  0  0  0
    0.0000    0.0000    0.0000 C   0  0  0  0  0  0  0  0  0  0  0  0
    0.0000    0.0000    0.0000 C   0  0  0  0  0  0  0  0  0  0  0  0
    0.0000    0.0000    0.0000 C   0  0  0  0  0  0  0  0  0  0  0  0
    0.0000    0.0000    0.0000 C   0  0  0  0  0  0  0  0  0  0  0  0
    0.0000    0.0000    0.0000 C   0  0  0  0  0  0  0  0  0  0  0  0
    0.0000    0.0000    0.0000 C   0  0  0  0  0  0  0  0  0  0  0  0
    0.0000    0.0000    0.0000 C   0  0  0  0  0  0  0  0  0  0  0  0
    0.0000    0.0000    0.0000 C   0  0  0  0  0  0  0  0  0  0  0  0
  1  2  1  0  0  0  0
  1  6  1  0  0  0  0
  2  3  1  0  0  0  0
  3  4  1  0  0  0  0
  3  5  1  0  0  0  0
  6 11  1  0  0  0  0
  6  7  2  0  0  0  0
  7  8  1  0  0  0  0
  7 13  1  0  0  0  0
  8  9  2  0  0  0  0
  9 10  1  0  0  0  0
 10 11  2  0  0  0  0
 11 12  1  0  0  0  0
M  END
> <Index>
1651

> <ID>
HT1387

> <class>
1

> <apol>
32.597481

> <ast_fraglike>
1

> <ast_fraglike_ext>
1

> <ast_violation>
0

> <ast_violation_ext>
0

> <a_acc>
2

> <a_acid>
0

> <a_aro>
6

> <a_base>
0

> <a_count>
30

> <a_don>
1

> <a_donacc>
3

> <a_heavy>
13

> <a_hyd>
11

> <a_IC>
39.666103

> <a_ICM>
1.3222034

> <a_nB>
0

> <a_nBr>
0

> <a_nC>
11

> <a_nCl>
0

> <a_nF>
0

> <a_nH>
17

> <a_nI>
0

> <a_nN>
1

> <a_nO>
1

> <a_nP>
0

> <a_nS>
0

> <balabanJ>
2.3703382

> <BCUT_PEOE_0>
-2.5631149

> <BCUT_PEOE_1>
-0.24550092

> <BCUT_PEOE_2>
0.283829

> <BCUT_PEOE_3>
2.5164366

> <BCUT_SLOGP_0>
-2.7610083

> <BCUT_SLOGP_1>
-0.18360293

> <BCUT_SLOGP_2>
0.36829358

> <BCUT_SLOGP_3>
2.5018735

> <BCUT_SMR_0>
-2.308167

> <BCUT_SMR_1>
-0.07639125

> <BCUT_SMR_2>
0.4011223

> <BCUT_SMR_3>
2.7638113

> <bpol>
19.840519

> <b_1rotN>
3

> <b_1rotR>
0.23076923

> <b_ar>
6

> <b_count>
30

> <b_double>
0

> <b_heavy>
13

> <b_max1len>
4

> <b_rotN>
3

> <b_rotR>
0.23076923

> <b_single>
24

> <b_triple>
0

> <chi0>
9.8449354

> <chi0v>
8.5021067

> <chi0v_C>
7.5165076

> <chi0_C>
8.1378279

> <chi1>
6.1090608

> <chi1v>
4.555748

> <chi1v_C>
3.7296154

> <chi1_C>
4.6234622

> <chiral>
1

> <chiral_u>
1

> <density>
0.64868432

> <diameter>
7

> <FCharge>
0

> <GCUT_PEOE_0>
-0.83162719

> <GCUT_PEOE_1>
-0.30879024

> <GCUT_PEOE_2>
-0.0089260954

> <GCUT_PEOE_3>
2.3592436

> <GCUT_SLOGP_0>
-1.3633435

> <GCUT_SLOGP_1>
-0.21709536

> <GCUT_SLOGP_2>
0.084853664

> <GCUT_SLOGP_3>
2.4654477

> <GCUT_SMR_0>
-0.51750708

> <GCUT_SMR_1>
-0.10750045

> <GCUT_SMR_2>
0.038037252

> <GCUT_SMR_3>
2.6240244

> <Kier1>
11.076923

> <Kier2>
5.0242214

> <Kier3>
3.3240998

> <KierA1>
9.1026993

> <KierA2>
4.0550556

> <KierA3>
2.6420894

> <KierFlex>
2.839381

> <lip_acc>
2

> <lip_don>
2

> <lip_druglike>
1

> <lip_violation>
0

> <logP(o/w)>
2.0

> <logS>
-1.77477

> <mr>
5.5025616

> <mutagenic>
0

> <nmol>
1

> <opr_brigid>
6

> <opr_leadlike>
1

> <opr_nring>
1

> <opr_nrot>
3

> <opr_violation>
0

> <PC+>
0

> <PC->
0

> <PEOE_PC+>
1.0047593

> <PEOE_PC->
-1.0047593

> <PEOE_RPC+>
0.11797035

> <PEOE_RPC->
0.34102854

> <PEOE_VSA+0>
45.79982

> <PEOE_VSA+1>
44.736744

> <PEOE_VSA+2>
17.238026

> <PEOE_VSA+3>
0.0

> <PEOE_VSA+4>
0.0

> <PEOE_VSA+5>
0.0

> <PEOE_VSA+6>
0.0

> <PEOE_VSA-0>
60.66011

> <PEOE_VSA-1>
36.764713

> <PEOE_VSA-2>
0.0

> <PEOE_VSA-3>
0.0

> <PEOE_VSA-4>
0.0

> <PEOE_VSA-5>
0.0

> <PEOE_VSA-6>
9.1548758

> <PEOE_VSA_FHYD>
0.95729089

> <PEOE_VSA_FNEG>
0.49721283

> <PEOE_VSA_FPNEG>
0.042709086

> <PEOE_VSA_FPOL>
0.042709086

> <PEOE_VSA_FPOS>
0.50278717

> <PEOE_VSA_FPPOS>
0.0

> <PEOE_VSA_HYD>
205.19942

> <PEOE_VSA_NEG>
106.5797

> <PEOE_VSA_PNEG>
9.1548758

> <PEOE_VSA_POL>
9.1548758

> <PEOE_VSA_POS>
107.77459

> <PEOE_VSA_PPOS>
0.0

> <petitjean>
0.42857143

> <petitjeanSC>
0.75

> <Q_PC+>
0

> <Q_PC->
0

> <Q_RPC+>
0

> <Q_RPC->
0

> <Q_VSA_FHYD>
1

> <Q_VSA_FNEG>
0

> <Q_VSA_FPNEG>
0

> <Q_VSA_FPOL>
0

> <Q_VSA_FPOS>
1

> <Q_VSA_FPPOS>
0

> <Q_VSA_HYD>
214.35429

> <Q_VSA_NEG>
0

> <Q_VSA_PNEG>
0

> <Q_VSA_POL>
0

> <Q_VSA_POS>
214.35429

> <Q_VSA_PPOS>
0

> <radius>
4

> <reactive>
0

> <rings>
1

> <RPC+>
0

> <RPC->
0

> <rsynth>
1.0

> <SlogP>
2.0294399

> <SlogP_VSA0>
43.897076

> <SlogP_VSA1>
0.0

> <SlogP_VSA2>
3.9819686

> <SlogP_VSA3>
20.926258

> <SlogP_VSA4>
6.37115

> <SlogP_VSA5>
0.0

> <SlogP_VSA6>
0.0

> <SlogP_VSA7>
52.929554

> <SlogP_VSA8>
0.0

> <SlogP_VSA9>
105.22147

> <SMR>
5.5060401

> <SMR_VSA0>
0.0

> <SMR_VSA1>
10.999887

> <SMR_VSA2>
0.0

> <SMR_VSA3>
15.596547

> <SMR_VSA4>
32.897186

> <SMR_VSA5>
52.929554

> <SMR_VSA6>
20.926258

> <SMR_VSA7>
99.978043

> <TPSA>
35.25

> <VAdjEq>
0.6193822

> <VAdjMa>
4.7004399

> <VDistEq>
2.6485972

> <VDistMa>
7.0880628

> <vdw_area>
214.35429

> <vdw_vol>
276.34857

> <vsa_acc>
2.503756

> <vsa_acid>
0

> <vsa_base>
0

> <vsa_don>
0.0

> <vsa_hyd>
177.28445

> <vsa_other>
0.0

> <vsa_pol>
20.246246

> <Weight>
179.263

> <weinerPath>
256

> <weinerPol>
16

> <zagreb>
60

$$$$
Row1651
 OpenBabel06061811532D

 40 43  0  0  1  0  0  0  0  0999 V2000
    0.0000    0.0000    0.0000 S   0  0  0  0  0  0  0  0  0  0  0  0
    0.0000    0.0000    0.0000 C   0  0  1  0  0  0  0  0  0  0  0  0
    0.0000    0.0000    0.0000 H   0  0  0  0  0  0  0  0  0  0  0  0
    0.0000    0.0000    0.0000 N   0  0  0  0  0  0  0  0  0  0  0  0
    0.0000    0.0000    0.0000 C   0  0  1  0  0  0  0  0  0  0  0  0
    0.0000    0.0000    0.0000 H   0  0  0  0  0  0  0  0  0  0  0  0
    0.0000    0.0000    0.0000 C   0  0  0  0  0  0  0  0  0  0  0  0
    0.0000    0.0000    0.0000 O   0  0  0  0  0  0  0  0  0  0  0  0
    0.0000    0.0000    0.0000 O   0  0  0  0  0  0  0  0  0  0  0  0
    0.0000    0.0000    0.0000 C   0  0  0  0  0  0  0  0  0  0  0  0
    0.0000    0.0000    0.0000 C   0  0  0  0  0  0  0  0  0  0  0  0
    0.0000    0.0000    0.0000 C   0  0  0  0  0  0  0  0  0  0  0  0
    0.0000    0.0000    0.0000 C   0  0  0  0  0  0  0  0  0  0  0  0
    0.0000    0.0000    0.0000 O   0  0  0  0  0  0  0  0  0  0  0  0
    0.0000    0.0000    0.0000 C   0  0  1  0  0  0  0  0  0  0  0  0
    0.0000    0.0000    0.0000 H   0  0  0  0  0  0  0  0  0  0  0  0
    0.0000    0.0000    0.0000 N   0  0  0  0  0  0  0  0  0  0  0  0
    0.0000    0.0000    0.0000 C   0  0  0  0  0  0  0  0  0  0  0  0
    0.0000    0.0000    0.0000 O   0  0  0  0  0  0  0  0  0  0  0  0
    0.0000    0.0000    0.0000 C   0  0  2  0  0  0  0  0  0  0  0  0
    0.0000    0.0000    0.0000 H   0  0  0  0  0  0  0  0  0  0  0  0
    0.0000    0.0000    0.0000 N   0  0  0  0  0  0  0  0  0  0  0  0
    0.0000    0.0000    0.0000 C   0  0  0  0  0  0  0  0  0  0  0  0
    0.0000    0.0000    0.0000 O   0  0  0  0  0  0  0  0  0  0  0  0
    0.0000    0.0000    0.0000 N   0  0  0  0  0  0  0  0  0  0  0  0
    0.0000    0.0000    0.0000 C   0  0  0  0  0  0  0  0  0  0  0  0
    0.0000    0.0000    0.0000 C   0  0  0  0  0  0  0  0  0  0  0  0
    0.0000    0.0000    0.0000 N   0  0  0  0  0  0  0  0  0  0  0  0
    0.0000    0.0000    0.0000 S   0  0  0  0  0  0  0  0  0  0  0  0
    0.0000    0.0000    0.0000 O   0  0  0  0  0  0  0  0  0  0  0  0
    0.0000    0.0000    0.0000 O   0  0  0  0  0  0  0  0  0  0  0  0
    0.0000    0.0000    0.0000 C   0  0  0  0  0  0  0  0  0  0  0  0
    0.0000    0.0000    0.0000 C   0  0  0  0  0  0  0  0  0  0  0  0
    0.0000    0.0000    0.0000 O   0  0  0  0  0  0  0  0  0  0  0  0
    0.0000    0.0000    0.0000 C   0  0  0  0  0  0  0  0  0  0  0  0
    0.0000    0.0000    0.0000 C   0  0  0  0  0  0  0  0  0  0  0  0
    0.0000    0.0000    0.0000 C   0  0  0  0  0  0  0  0  0  0  0  0
    0.0000    0.0000    0.0000 C   0  0  0  0  0  0  0  0  0  0  0  0
    0.0000    0.0000    0.0000 C   0  0  0  0  0  0  0  0  0  0  0  0
    0.0000    0.0000    0.0000 C   0  0  0  0  0  0  0  0  0  0  0  0
  1 10  1  0  0  0  0
  1  2  1  0  0  0  0
  2  3  1  0  0  0  0
  2 15  1  0  0  0  0
  2  4  1  0  0  0  0
  4  5  1  0  0  0  0
  4 13  1  0  0  0  0
  5  6  1  0  0  0  0
  5  7  1  0  0  0  0
  5 10  1  0  0  0  0
  7  8  1  0  0  0  0
  7  9  2  0  0  0  0
 10 11  1  0  0  0  0
 10 12  1  0  0  0  0
 13 14  2  0  0  0  0
 13 15  1  0  0  0  0
 15 16  1  0  0  0  0
 15 17  1  0  0  0  0
 17 18  1  0  0  0  0
 18 19  2  0  0  0  0
 18 20  1  0  0  0  0
 20 21  1  0  0  0  0
 20 22  1  0  0  0  0
 20 35  1  0  0  0  0
 22 23  1  0  0  0  0
 23 24  2  0  0  0  0
 23 25  1  0  0  0  0
 25 33  1  0  0  0  0
 25 26  1  0  0  0  0
 26 27  1  0  0  0  0
 27 28  1  0  0  0  0
 28 29  1  0  0  0  0
 28 33  1  0  0  0  0
 29 30  2  0  0  0  0
 29 31  2  0  0  0  0
 29 32  1  0  0  0  0
 33 34  2  0  0  0  0
 35 40  1  0  0  0  0
 35 36  2  0  0  0  0
 36 37  1  0  0  0  0
 37 38  2  0  0  0  0
 38 39  1  0  0  0  0
 39 40  2  0  0  0  0
M  END
> <Index>
1652

> <ID>
HT1388

> <class>
1

> <apol>
71.345825

> <ast_fraglike>
0

> <ast_fraglike_ext>
0

> <ast_violation>
3

> <ast_violation_ext>
5

> <a_acc>
8

> <a_acid>
0

> <a_aro>
6

> <a_base>
0

> <a_count>
61

> <a_don>
4

> <a_donacc>
12

> <a_heavy>
36

> <a_hyd>
17

> <a_IC>
115.83027

> <a_ICM>
1.8988569

> <a_nB>
0

> <a_nBr>
0

> <a_nC>
21

> <a_nCl>
0

> <a_nF>
0

> <a_nH>
25

> <a_nI>
0

> <a_nN>
5

> <a_nO>
8

> <a_nP>
0

> <a_nS>
2

> <balabanJ>
1.4448576

> <BCUT_PEOE_0>
-2.6505117

> <BCUT_PEOE_1>
-0.54780608

> <BCUT_PEOE_2>
0.52593559

> <BCUT_PEOE_3>
2.8501949

> <BCUT_SLOGP_0>
-2.9021833

> <BCUT_SLOGP_1>
-0.52025104

> <BCUT_SLOGP_2>
0.60798544

> <BCUT_SLOGP_3>
2.7546291

> <BCUT_SMR_0>
-2.3920782

> <BCUT_SMR_1>
-0.37242383

> <BCUT_SMR_2>
0.72829396

> <BCUT_SMR_3>
3.1313782

> <bpol>
48.136173

> <b_1rotN>
7

> <b_1rotR>
0.17948718

> <b_ar>
6

> <b_count>
64

> <b_double>
5

> <b_heavy>
39

> <b_max1len>
4

> <b_rotN>
9

> <b_rotR>
0.23076923

> <b_single>
53

> <b_triple>
0

> <chi0>
26.576622

> <chi0v>
21.206448

> <chi0v_C>
13.110366

> <chi0_C>
14.22325

> <chi1>
16.735907

> <chi1v>
13.644197

> <chi1v_C>
5.1873927

> <chi1_C>
6.2718382

> <chiral>
4

> <chiral_u>
0

> <density>
0.87687832

> <diameter>
15

> <FCharge>
0

> <GCUT_PEOE_0>
-0.87691122

> <GCUT_PEOE_1>
-0.41426408

> <GCUT_PEOE_2>
0.059671357

> <GCUT_PEOE_3>
2.8346272

> <GCUT_SLOGP_0>
-1.1656176

> <GCUT_SLOGP_1>
-0.44924167

> <GCUT_SLOGP_2>
0.13799652

> <GCUT_SLOGP_3>
2.7818954

> <GCUT_SMR_0>
-0.53667819

> <GCUT_SMR_1>
-0.21605732

> <GCUT_SMR_2>
0.19305076

> <GCUT_SMR_3>
3.1085548

> <Kier1>
28.994083

> <Kier2>
10.873421

> <Kier3>
5.6734085

> <KierA1>
24.430954

> <KierA2>
9.1151829

> <KierA3>
4.7389159

> <KierFlex>
6.1859055

> <lip_acc>
13

> <lip_don>
3

> <lip_druglike>
0

> <lip_violation>
2

> <logP(o/w)>
-0.22400001

> <logS>
-3.82041

> <mr>
12.81713

> <mutagenic>
0

> <nmol>
1

> <opr_brigid>
19

> <opr_leadlike>
0

> <opr_nring>
4

> <opr_nrot>
5

> <opr_violation>
2

> <PC+>
0

> <PC->
0

> <PEOE_PC+>
4.0364561

> <PEOE_PC->
-4.0364561

> <PEOE_RPC+>
0.07030338

> <PEOE_RPC->
0.10639626

> <PEOE_VSA+0>
87.862709

> <PEOE_VSA+1>
63.345772

> <PEOE_VSA+2>
41.650642

> <PEOE_VSA+3>
8.6190128

> <PEOE_VSA+4>
61.437984

> <PEOE_VSA+5>
37.763638

> <PEOE_VSA+6>
0.0

> <PEOE_VSA-0>
39.703896

> <PEOE_VSA-1>
61.274521

> <PEOE_VSA-2>
19.760618

> <PEOE_VSA-3>
0.0

> <PEOE_VSA-4>
0.0

> <PEOE_VSA-5>
40.700764

> <PEOE_VSA-6>
35.175163

> <PEOE_VSA_FHYD>
0.64794004

> <PEOE_VSA_FNEG>
0.39536908

> <PEOE_VSA_FPNEG>
0.15257739

> <PEOE_VSA_FPOL>
0.35205993

> <PEOE_VSA_FPOS>
0.60463089

> <PEOE_VSA_FPPOS>
0.19948256

> <PEOE_VSA_HYD>
322.21716

> <PEOE_VSA_NEG>
196.61496

> <PEOE_VSA_PNEG>
75.875923

> <PEOE_VSA_POL>
175.07755

> <PEOE_VSA_POS>
300.67975

> <PEOE_VSA_PPOS>
99.201622

> <petitjean>
0.46666667

> <petitjeanSC>
0.875

> <Q_PC+>
0

> <Q_PC->
0

> <Q_RPC+>
0

> <Q_RPC->
0

> <Q_VSA_FHYD>
1

> <Q_VSA_FNEG>
0

> <Q_VSA_FPNEG>
0

> <Q_VSA_FPOL>
0

> <Q_VSA_FPOS>
1

> <Q_VSA_FPPOS>
0

> <Q_VSA_HYD>
497.29471

> <Q_VSA_NEG>
0

> <Q_VSA_PNEG>
0

> <Q_VSA_POL>
0

> <Q_VSA_POS>
497.29471

> <Q_VSA_PPOS>
0

> <radius>
8

> <reactive>
0

> <rings>
4

> <RPC+>
0

> <RPC->
0

> <rsynth>
1.0

> <SlogP>
-0.1383

> <SlogP_VSA0>
36.0215

> <SlogP_VSA1>
83.861816

> <SlogP_VSA2>
88.53846

> <SlogP_VSA3>
62.264381

> <SlogP_VSA4>
3.185575

> <SlogP_VSA5>
31.691174

> <SlogP_VSA6>
0.0

> <SlogP_VSA7>
88.215919

> <SlogP_VSA8>
3.9819686

> <SlogP_VSA9>
146.59601

> <SMR>
12.7137

> <SMR_VSA0>
167.48277

> <SMR_VSA1>
7.7671885

> <SMR_VSA2>
61.406727

> <SMR_VSA3>
17.478609

> <SMR_VSA4>
0.0

> <SMR_VSA5>
88.215919

> <SMR_VSA6>
64.802101

> <SMR_VSA7>
137.20349

> <TPSA>
173.5

> <VAdjEq>
0.3281796

> <VAdjMa>
6.2854023

> <VDistEq>
3.7329631

> <VDistMa>
10.070024

> <vdw_area>
497.29471

> <vdw_vol>
615.35333

> <vsa_acc>
86.28421

> <vsa_acid>
0

> <vsa_base>
0

> <vsa_don>
11.365152

> <vsa_hyd>
260.58633

> <vsa_other>
85.594254

> <vsa_pol>
124.7832

> <Weight>
539.58997

> <weinerPath>
4071

> <weinerPol>
61

> <zagreb>
200

$$$$
Row1652
 OpenBabel06061811532D

104110  0  0  1  0  0  0  0  0999 V2000
    0.0000    0.0000    0.0000 S   0  0  0  0  0  0  0  0  0  0  0  0
    0.0000    0.0000    0.0000 O   0  0  0  0  0  0  0  0  0  0  0  0
    0.0000    0.0000    0.0000 C   0  0  0  0  0  0  0  0  0  0  0  0
    0.0000    0.0000    0.0000 C   0  0  0  0  0  0  0  0  0  0  0  0
    0.0000    0.0000    0.0000 C   0  0  0  0  0  0  0  0  0  0  0  0
    0.0000    0.0000    0.0000 C   0  0  0  0  0  0  0  0  0  0  0  0
    0.0000    0.0000    0.0000 C   0  0  0  0  0  0  0  0  0  0  0  0
    0.0000    0.0000    0.0000 C   0  0  0  0  0  0  0  0  0  0  0  0
    0.0000    0.0000    0.0000 O   0  0  0  0  0  0  0  0  0  0  0  0
    0.0000    0.0000    0.0000 C   0  0  2  0  0  0  0  0  0  0  0  0
    0.0000    0.0000    0.0000 H   0  0  0  0  0  0  0  0  0  0  0  0
    0.0000    0.0000    0.0000 O   0  0  0  0  0  0  0  0  0  0  0  0
    0.0000    0.0000    0.0000 C   0  0  1  0  0  0  0  0  0  0  0  0
    0.0000    0.0000    0.0000 H   0  0  0  0  0  0  0  0  0  0  0  0
    0.0000    0.0000    0.0000 O   0  0  0  0  0  0  0  0  0  0  0  0
    0.0000    0.0000    0.0000 C   0  0  2  0  0  0  0  0  0  0  0  0
    0.0000    0.0000    0.0000 H   0  0  0  0  0  0  0  0  0  0  0  0
    0.0000    0.0000    0.0000 N   0  0  0  0  0  0  0  0  0  0  0  0
    0.0000    0.0000    0.0000 C   0  0  0  0  0  0  0  0  0  0  0  0
    0.0000    0.0000    0.0000 O   0  0  0  0  0  0  0  0  0  0  0  0
    0.0000    0.0000    0.0000 C   0  0  1  0  0  0  0  0  0  0  0  0
    0.0000    0.0000    0.0000 H   0  0  0  0  0  0  0  0  0  0  0  0
    0.0000    0.0000    0.0000 N   0  0  0  0  0  0  0  0  0  0  0  0
    0.0000    0.0000    0.0000 C   0  0  0  0  0  0  0  0  0  0  0  0
    0.0000    0.0000    0.0000 C   0  0  2  0  0  0  0  0  0  0  0  0
    0.0000    0.0000    0.0000 H   0  0  0  0  0  0  0  0  0  0  0  0
    0.0000    0.0000    0.0000 O   0  0  0  0  0  0  0  0  0  0  0  0
    0.0000    0.0000    0.0000 C   0  0  0  0  0  0  0  0  0  0  0  0
    0.0000    0.0000    0.0000 C   0  0  0  0  0  0  0  0  0  0  0  0
    0.0000    0.0000    0.0000 O   0  0  0  0  0  0  0  0  0  0  0  0
    0.0000    0.0000    0.0000 C   0  0  1  0  0  0  0  0  0  0  0  0
    0.0000    0.0000    0.0000 H   0  0  0  0  0  0  0  0  0  0  0  0
    0.0000    0.0000    0.0000 N   0  0  0  0  0  0  0  0  0  0  0  0
    0.0000    0.0000    0.0000 C   0  0  0  0  0  0  0  0  0  0  0  0
    0.0000    0.0000    0.0000 O   0  0  0  0  0  0  0  0  0  0  0  0
    0.0000    0.0000    0.0000 C   0  0  1  0  0  0  0  0  0  0  0  0
    0.0000    0.0000    0.0000 H   0  0  0  0  0  0  0  0  0  0  0  0
    0.0000    0.0000    0.0000 N   0  0  0  0  0  0  0  0  0  0  0  0
    0.0000    0.0000    0.0000 C   0  0  0  0  0  0  0  0  0  0  0  0
    0.0000    0.0000    0.0000 O   0  0  0  0  0  0  0  0  0  0  0  0
    0.0000    0.0000    0.0000 C   0  0  0  0  0  0  0  0  0  0  0  0
    0.0000    0.0000    0.0000 C   0  0  0  0  0  0  0  0  0  0  0  0
    0.0000    0.0000    0.0000 C   0  0  0  0  0  0  0  0  0  0  0  0
    0.0000    0.0000    0.0000 C   0  0  0  0  0  0  0  0  0  0  0  0
    0.0000    0.0000    0.0000 C   0  0  0  0  0  0  0  0  0  0  0  0
    0.0000    0.0000    0.0000 C   0  0  0  0  0  0  0  0  0  0  0  0
    0.0000    0.0000    0.0000 C   0  0  0  0  0  0  0  0  0  0  0  0
    0.0000    0.0000    0.0000 N   0  0  0  0  0  0  0  0  0  0  0  0
    0.0000    0.0000    0.0000 O   0  0  0  0  0  0  0  0  0  0  0  0
    0.0000    0.0000    0.0000 C   0  0  0  0  0  0  0  0  0  0  0  0
    0.0000    0.0000    0.0000 C   0  0  0  0  0  0  0  0  0  0  0  0
    0.0000    0.0000    0.0000 C   0  0  0  0  0  0  0  0  0  0  0  0
    0.0000    0.0000    0.0000 C   0  0  0  0  0  0  0  0  0  0  0  0
    0.0000    0.0000    0.0000 C   0  0  0  0  0  0  0  0  0  0  0  0
    0.0000    0.0000    0.0000 C   0  0  0  0  0  0  0  0  0  0  0  0
    0.0000    0.0000    0.0000 O   0  0  0  0  0  0  0  0  0  0  0  0
    0.0000    0.0000    0.0000 C   0  0  0  0  0  0  0  0  0  0  0  0
    0.0000    0.0000    0.0000 C   0  0  0  0  0  0  0  0  0  0  0  0
    0.0000    0.0000    0.0000 C   0  0  0  0  0  0  0  0  0  0  0  0
    0.0000    0.0000    0.0000 C   0  0  0  0  0  0  0  0  0  0  0  0
    0.0000    0.0000    0.0000 C   0  0  0  0  0  0  0  0  0  0  0  0
    0.0000    0.0000    0.0000 C   0  0  0  0  0  0  0  0  0  0  0  0
    0.0000    0.0000    0.0000 C   0  0  0  0  0  0  0  0  0  0  0  0
    0.0000    0.0000    0.0000 C   0  0  0  0  0  0  0  0  0  0  0  0
    0.0000    0.0000    0.0000 C   0  0  1  0  0  0  0  0  0  0  0  0
    0.0000    0.0000    0.0000 H   0  0  0  0  0  0  0  0  0  0  0  0
    0.0000    0.0000    0.0000 O   0  0  0  0  0  0  0  0  0  0  0  0
    0.0000    0.0000    0.0000 C   0  0  1  0  0  0  0  0  0  0  0  0
    0.0000    0.0000    0.0000 H   0  0  0  0  0  0  0  0  0  0  0  0
    0.0000    0.0000    0.0000 O   0  0  0  0  0  0  0  0  0  0  0  0
    0.0000    0.0000    0.0000 N   0  0  0  0  0  0  0  0  0  0  0  0
    0.0000    0.0000    0.0000 C   0  0  0  0  0  0  0  0  0  0  0  0
    0.0000    0.0000    0.0000 O   0  0  0  0  0  0  0  0  0  0  0  0
    0.0000    0.0000    0.0000 C   0  0  1  0  0  0  0  0  0  0  0  0
    0.0000    0.0000    0.0000 H   0  0  0  0  0  0  0  0  0  0  0  0
    0.0000    0.0000    0.0000 N   0  0  0  0  0  0  0  0  0  0  0  0
    0.0000    0.0000    0.0000 C   0  0  0  0  0  0  0  0  0  0  0  0
    0.0000    0.0000    0.0000 C   0  0  2  0  0  0  0  0  0  0  0  0
    0.0000    0.0000    0.0000 H   0  0  0  0  0  0  0  0  0  0  0  0
    0.0000    0.0000    0.0000 C   0  0  0  0  0  0  0  0  0  0  0  0
    0.0000    0.0000    0.0000 C   0  0  2  0  0  0  0  0  0  0  0  0
    0.0000    0.0000    0.0000 H   0  0  0  0  0  0  0  0  0  0  0  0
    0.0000    0.0000    0.0000 O   0  0  0  0  0  0  0  0  0  0  0  0
    0.0000    0.0000    0.0000 C   0  0  0  0  0  0  0  0  0  0  0  0
    0.0000    0.0000    0.0000 O   0  0  0  0  0  0  0  0  0  0  0  0
    0.0000    0.0000    0.0000 C   0  0  1  0  0  0  0  0  0  0  0  0
    0.0000    0.0000    0.0000 H   0  0  0  0  0  0  0  0  0  0  0  0
    0.0000    0.0000    0.0000 N   0  0  0  0  0  0  0  0  0  0  0  0
    0.0000    0.0000    0.0000 C   0  0  0  0  0  0  0  0  0  0  0  0
    0.0000    0.0000    0.0000 O   0  0  0  0  0  0  0  0  0  0  0  0
    0.0000    0.0000    0.0000 C   0  0  2  0  0  0  0  0  0  0  0  0
    0.0000    0.0000    0.0000 H   0  0  0  0  0  0  0  0  0  0  0  0
    0.0000    0.0000    0.0000 O   0  0  0  0  0  0  0  0  0  0  0  0
    0.0000    0.0000    0.0000 C   0  0  0  0  0  0  0  0  0  0  0  0
    0.0000    0.0000    0.0000 C   0  0  0  0  0  0  0  0  0  0  0  0
    0.0000    0.0000    0.0000 O   0  0  0  0  0  0  0  0  0  0  0  0
    0.0000    0.0000    0.0000 N   0  0  0  0  0  0  0  0  0  0  0  0
    0.0000    0.0000    0.0000 C   0  0  2  0  0  0  0  0  0  0  0  0
    0.0000    0.0000    0.0000 H   0  0  0  0  0  0  0  0  0  0  0  0
    0.0000    0.0000    0.0000 O   0  0  0  0  0  0  0  0  0  0  0  0
    0.0000    0.0000    0.0000 C   0  0  0  0  0  0  0  0  0  0  0  0
    0.0000    0.0000    0.0000 O   0  0  0  0  0  0  0  0  0  0  0  0
    0.0000    0.0000    0.0000 O   0  0  0  0  0  0  0  0  0  0  0  0
    0.0000    0.0000    0.0000 O   0  0  0  0  0  0  0  0  0  0  0  0
  1  2  1  0  0  0  0
  1102  1  0  0  0  0
  1103  2  0  0  0  0
  1104  2  0  0  0  0
  2  3  1  0  0  0  0
  3  8  1  0  0  0  0
  3  4  2  0  0  0  0
  4  5  1  0  0  0  0
  5  6  2  0  0  0  0
  5 10  1  0  0  0  0
  6  7  1  0  0  0  0
  7  8  2  0  0  0  0
  8  9  1  0  0  0  0
 10 11  1  0  0  0  0
 10 12  1  0  0  0  0
 10 13  1  0  0  0  0
 13 14  1  0  0  0  0
 13 15  1  0  0  0  0
 13 16  1  0  0  0  0
 16 17  1  0  0  0  0
 16 89  1  0  0  0  0
 16 18  1  0  0  0  0
 18 19  1  0  0  0  0
 19 20  2  0  0  0  0
 19 21  1  0  0  0  0
 21 22  1  0  0  0  0
 21 28  1  0  0  0  0
 21 23  1  0  0  0  0
 23 24  1  0  0  0  0
 23 29  1  0  0  0  0
 24 25  1  0  0  0  0
 25 26  1  0  0  0  0
 25 27  1  0  0  0  0
 25 28  1  0  0  0  0
 29 30  2  0  0  0  0
 29 31  1  0  0  0  0
 31 32  1  0  0  0  0
 31 33  1  0  0  0  0
 31 98  1  0  0  0  0
 33 34  1  0  0  0  0
 34 35  2  0  0  0  0
 34 36  1  0  0  0  0
 36 37  1  0  0  0  0
 36 38  1  0  0  0  0
 36 64  1  0  0  0  0
 38 39  1  0  0  0  0
 39 40  2  0  0  0  0
 39 41  1  0  0  0  0
 41 46  1  0  0  0  0
 41 42  2  0  0  0  0
 42 43  1  0  0  0  0
 43 44  2  0  0  0  0
 44 45  1  0  0  0  0
 44 47  1  0  0  0  0
 45 46  2  0  0  0  0
 47 51  1  0  0  0  0
 47 48  2  0  0  0  0
 48 49  1  0  0  0  0
 49 50  1  0  0  0  0
 50 51  2  0  0  0  0
 50 52  1  0  0  0  0
 52 63  1  0  0  0  0
 52 53  2  0  0  0  0
 53 54  1  0  0  0  0
 54 55  2  0  0  0  0
 55 56  1  0  0  0  0
 55 62  1  0  0  0  0
 56 57  1  0  0  0  0
 57 58  1  0  0  0  0
 58 59  1  0  0  0  0
 59 60  1  0  0  0  0
 60 61  1  0  0  0  0
 62 63  2  0  0  0  0
 64 65  1  0  0  0  0
 65 66  1  0  0  0  0
 65 67  1  0  0  0  0
 65 68  1  0  0  0  0
 68 69  1  0  0  0  0
 68 70  1  0  0  0  0
 68 71  1  0  0  0  0
 71 72  1  0  0  0  0
 72 73  2  0  0  0  0
 72 74  1  0  0  0  0
 74 75  1  0  0  0  0
 74 81  1  0  0  0  0
 74 76  1  0  0  0  0
 76 77  1  0  0  0  0
 76 84  1  0  0  0  0
 77 78  1  0  0  0  0
 78 79  1  0  0  0  0
 78 80  1  0  0  0  0
 78 81  1  0  0  0  0
 81 82  1  0  0  0  0
 81 83  1  0  0  0  0
 84 85  2  0  0  0  0
 84 86  1  0  0  0  0
 86 87  1  0  0  0  0
 86 88  1  0  0  0  0
 86 91  1  0  0  0  0
 88 89  1  0  0  0  0
 89 90  2  0  0  0  0
 91 92  1  0  0  0  0
 91 93  1  0  0  0  0
 91 94  1  0  0  0  0
 94 95  1  0  0  0  0
 95 96  2  0  0  0  0
 95 97  1  0  0  0  0
 98 99  1  0  0  0  0
 98100  1  0  0  0  0
 98101  1  0  0  0  0
M  END
> <Index>
1653

> <ID>
HT1391

> <class>
1

> <apol>
177.1483

> <ast_fraglike>
0

> <ast_fraglike_ext>
0

> <ast_violation>
3

> <ast_violation_ext>
5

> <a_acc>
23

> <a_acid>
0

> <a_aro>
23

> <a_base>
0

> <a_count>
160

> <a_don>
18

> <a_donacc>
41

> <a_heavy>
89

> <a_hyd>
46

> <a_IC>
277.09332

> <a_ICM>
1.7318332

> <a_nB>
0

> <a_nBr>
0

> <a_nC>
56

> <a_nCl>
0

> <a_nF>
0

> <a_nH>
71

> <a_nI>
0

> <a_nN>
9

> <a_nO>
23

> <a_nP>
0

> <a_nS>
1

> <balabanJ>
1.1354564

> <BCUT_PEOE_0>
-2.6463826

> <BCUT_PEOE_1>
-0.5878374

> <BCUT_PEOE_2>
0.70052135

> <BCUT_PEOE_3>
2.8019378

> <BCUT_SLOGP_0>
-2.8898189

> <BCUT_SLOGP_1>
-0.59269536

> <BCUT_SLOGP_2>
0.56204629

> <BCUT_SLOGP_3>
2.6999099

> <BCUT_SMR_0>
-2.4139087

> <BCUT_SMR_1>
-0.40665564

> <BCUT_SMR_2>
0.80458349

> <BCUT_SMR_3>
3.0349157

> <bpol>
104.1057

> <b_1rotN>
18

> <b_1rotR>
0.18947369

> <b_ar>
23

> <b_count>
166

> <b_double>
8

> <b_heavy>
95

> <b_max1len>
6

> <b_rotN>
19

> <b_rotR>
0.2

> <b_single>
135

> <b_triple>
0

> <chi0>
65.343109

> <chi0v>
48.875519

> <chi0v_C>
33.452419

> <chi0_C>
36.324451

> <chi1>
41.954433

> <chi1v>
29.490536

> <chi1v_C>
17.635277

> <chi1_C>
20.843269

> <chiral>
15

> <chiral_u>
0

> <density>
0.83009583

> <diameter>
36

> <FCharge>
0

> <GCUT_PEOE_0>
-0.83282918

> <GCUT_PEOE_1>
-0.42926472

> <GCUT_PEOE_2>
0.10314327

> <GCUT_PEOE_3>
3.366437

> <GCUT_SLOGP_0>
-1.3704727

> <GCUT_SLOGP_1>
-0.4396421

> <GCUT_SLOGP_2>
0.054200001

> <GCUT_SLOGP_3>
3.2494805

> <GCUT_SMR_0>
-0.53245711

> <GCUT_SMR_1>
-0.2429903

> <GCUT_SMR_2>
0.19493432

> <GCUT_SMR_3>
3.5915377

> <Kier1>
76.367424

> <Kier2>
34.975426

> <Kier3>
20.774618

> <KierA1>
61.478622

> <KierA2>
28.08407

> <KierA3>
16.65176

> <KierFlex>
19.399662

> <lip_acc>
32

> <lip_don>
17

> <lip_druglike>
0

> <lip_violation>
3

> <logP(o/w)>
-3.1170001

> <logS>
-8.9914598

> <mr>
30.860165

> <mutagenic>
0

> <nmol>
1

> <opr_brigid>
52

> <opr_leadlike>
0

> <opr_nring>
6

> <opr_nrot>
31

> <opr_violation>
6

> <PC+>
0

> <PC->
0

> <PEOE_PC+>
10.400926

> <PEOE_PC->
-10.400926

> <PEOE_RPC+>
0.026173698

> <PEOE_RPC->
0.037492588

> <PEOE_VSA+0>
165.03706

> <PEOE_VSA+1>
196.60947

> <PEOE_VSA+2>
50.614273

> <PEOE_VSA+3>
78.187553

> <PEOE_VSA+4>
183.56427

> <PEOE_VSA+5>
29.462297

> <PEOE_VSA+6>
0.0

> <PEOE_VSA-0>
127.69676

> <PEOE_VSA-1>
134.56448

> <PEOE_VSA-2>
0.0

> <PEOE_VSA-3>
4.945097

> <PEOE_VSA-4>
10.208881

> <PEOE_VSA-5>
108.53537

> <PEOE_VSA-6>
85.649551

> <PEOE_VSA_FHYD>
0.64477134

> <PEOE_VSA_FNEG>
0.40133619

> <PEOE_VSA_FPNEG>
0.17394106

> <PEOE_VSA_FPOL>
0.35522869

> <PEOE_VSA_FPOS>
0.59866381

> <PEOE_VSA_FPPOS>
0.18128763

> <PEOE_VSA_HYD>
757.65466

> <PEOE_VSA_NEG>
471.60013

> <PEOE_VSA_PNEG>
204.3938

> <PEOE_VSA_POL>
417.42038

> <PEOE_VSA_POS>
703.47491

> <PEOE_VSA_PPOS>
213.02657

> <petitjean>
0.5

> <petitjeanSC>
1.0

> <Q_PC+>
0

> <Q_PC->
0

> <Q_RPC+>
0

> <Q_RPC->
0

> <Q_VSA_FHYD>
1

> <Q_VSA_FNEG>
0

> <Q_VSA_FPNEG>
0

> <Q_VSA_FPOL>
0

> <Q_VSA_FPOS>
1

> <Q_VSA_FPPOS>
0

> <Q_VSA_HYD>
1175.0751

> <Q_VSA_NEG>
0

> <Q_VSA_PNEG>
0

> <Q_VSA_POL>
0

> <Q_VSA_POS>
1175.0751

> <Q_VSA_PPOS>
0

> <radius>
18

> <reactive>
0

> <rings>
7

> <RPC+>
0

> <RPC->
0

> <rsynth>
1.0

> <SlogP>
-4.3722

> <SlogP_VSA0>
393.89404

> <SlogP_VSA1>
116.08718

> <SlogP_VSA2>
246.06607

> <SlogP_VSA3>
57.805416

> <SlogP_VSA4>
34.644161

> <SlogP_VSA5>
9.7341213

> <SlogP_VSA6>
0.0

> <SlogP_VSA7>
226.29494

> <SlogP_VSA8>
119.67908

> <SlogP_VSA9>
115.70833

> <SMR>
30.346121

> <SMR_VSA0>
248.80354

> <SMR_VSA1>
296.78833

> <SMR_VSA2>
94.464546

> <SMR_VSA3>
97.313614

> <SMR_VSA4>
47.473907

> <SMR_VSA5>
324.92865

> <SMR_VSA6>
99.875687

> <SMR_VSA7>
110.26508

> <TPSA>
510.14001

> <VAdjEq>
0.16327535

> <VAdjMa>
7.5698557

> <VDistEq>
4.7468247

> <VDistMa>
12.677969

> <vdw_area>
1175.0751

> <vdw_vol>
1530.2931

> <vsa_acc>
126.86948

> <vsa_acid>
0

> <vsa_base>
0

> <vsa_don>
46.155369

> <vsa_hyd>
577.96051

> <vsa_other>
147.41942

> <vsa_pol>
343.15192

> <Weight>
1270.2899

> <weinerPath>
47366

> <weinerPol>
153

> <zagreb>
466

$$$$
Row1653
 OpenBabel06061811532D

 57 59  0  0  1  0  0  0  0  0999 V2000
    0.0000    0.0000    0.0000 O   0  0  0  0  0  0  0  0  0  0  0  0
    0.0000    0.0000    0.0000 C   0  0  3  0  0  0  0  0  0  0  0  0
    0.0000    0.0000    0.0000 C   0  0  0  0  0  0  0  0  0  0  0  0
    0.0000    0.0000    0.0000 C   0  0  3  0  0  0  0  0  0  0  0  0
    0.0000    0.0000    0.0000 O   0  0  0  0  0  0  0  0  0  0  0  0
    0.0000    0.0000    0.0000 C   0  0  3  0  0  0  0  0  0  0  0  0
    0.0000    0.0000    0.0000 O   0  0  0  0  0  0  0  0  0  0  0  0
    0.0000    0.0000    0.0000 C   0  0  3  0  0  0  0  0  0  0  0  0
    0.0000    0.0000    0.0000 C   0  0  0  0  0  0  0  0  0  0  0  0
    0.0000    0.0000    0.0000 C   0  0  3  0  0  0  0  0  0  0  0  0
    0.0000    0.0000    0.0000 O   0  0  0  0  0  0  0  0  0  0  0  0
    0.0000    0.0000    0.0000 C   0  0  0  0  0  0  0  0  0  0  0  0
    0.0000    0.0000    0.0000 O   0  0  0  0  0  0  0  0  0  0  0  0
    0.0000    0.0000    0.0000 C   0  0  0  0  0  0  0  0  0  0  0  0
    0.0000    0.0000    0.0000 C   0  0  0  0  0  0  0  0  0  0  0  0
    0.0000    0.0000    0.0000 C   0  0  3  0  0  0  0  0  0  0  0  0
    0.0000    0.0000    0.0000 O   0  0  0  0  0  0  0  0  0  0  0  0
    0.0000    0.0000    0.0000 C   0  0  0  0  0  0  0  0  0  0  0  0
    0.0000    0.0000    0.0000 C   0  0  0  0  0  0  0  0  0  0  0  0
    0.0000    0.0000    0.0000 C   0  0  3  0  0  0  0  0  0  0  0  0
    0.0000    0.0000    0.0000 N   0  0  0  0  0  0  0  0  0  0  0  0
    0.0000    0.0000    0.0000 C   0  0  0  0  0  0  0  0  0  0  0  0
    0.0000    0.0000    0.0000 C   0  0  0  0  0  0  0  0  0  0  0  0
    0.0000    0.0000    0.0000 C   0  0  3  0  0  0  0  0  0  0  0  0
    0.0000    0.0000    0.0000 O   0  0  0  0  0  0  0  0  0  0  0  0
    0.0000    0.0000    0.0000 C   0  0  3  0  0  0  0  0  0  0  0  0
    0.0000    0.0000    0.0000 O   0  0  0  0  0  0  0  0  0  0  0  0
    0.0000    0.0000    0.0000 C   0  0  3  0  0  0  0  0  0  0  0  0
    0.0000    0.0000    0.0000 C   0  0  3  0  0  0  0  0  0  0  0  0
    0.0000    0.0000    0.0000 O   0  0  0  0  0  0  0  0  0  0  0  0
    0.0000    0.0000    0.0000 C   0  0  0  0  0  0  0  0  0  0  0  0
    0.0000    0.0000    0.0000 C   0  0  3  0  0  0  0  0  0  0  0  0
    0.0000    0.0000    0.0000 O   0  0  0  0  0  0  0  0  0  0  0  0
    0.0000    0.0000    0.0000 C   0  0  0  0  0  0  0  0  0  0  0  0
    0.0000    0.0000    0.0000 O   0  0  0  0  0  0  0  0  0  0  0  0
    0.0000    0.0000    0.0000 C   0  0  0  0  0  0  0  0  0  0  0  0
    0.0000    0.0000    0.0000 C   0  0  0  0  0  0  0  0  0  0  0  0
    0.0000    0.0000    0.0000 C   0  0  0  0  0  0  0  0  0  0  0  0
    0.0000    0.0000    0.0000 C   0  0  0  0  0  0  0  0  0  0  0  0
    0.0000    0.0000    0.0000 O   0  0  0  0  0  0  0  0  0  0  0  0
    0.0000    0.0000    0.0000 C   0  0  3  0  0  0  0  0  0  0  0  0
    0.0000    0.0000    0.0000 C   0  0  0  0  0  0  0  0  0  0  0  0
    0.0000    0.0000    0.0000 C   0  0  0  0  0  0  0  0  0  0  0  0
    0.0000    0.0000    0.0000 C   0  0  0  0  0  0  0  0  0  0  0  0
    0.0000    0.0000    0.0000 C   0  0  0  0  0  0  0  0  0  0  0  0
    0.0000    0.0000    0.0000 C   0  0  0  0  0  0  0  0  0  0  0  0
    0.0000    0.0000    0.0000 C   0  0  3  0  0  0  0  0  0  0  0  0
    0.0000    0.0000    0.0000 O   0  0  0  0  0  0  0  0  0  0  0  0
    0.0000    0.0000    0.0000 C   0  0  3  0  0  0  0  0  0  0  0  0
    0.0000    0.0000    0.0000 C   0  0  0  0  0  0  0  0  0  0  0  0
    0.0000    0.0000    0.0000 C   0  0  3  0  0  0  0  0  0  0  0  0
    0.0000    0.0000    0.0000 C   0  0  0  0  0  0  0  0  0  0  0  0
    0.0000    0.0000    0.0000 C   0  0  0  0  0  0  0  0  0  0  0  0
    0.0000    0.0000    0.0000 O   0  0  0  0  0  0  0  0  0  0  0  0
    0.0000    0.0000    0.0000 C   0  0  0  0  0  0  0  0  0  0  0  0
    0.0000    0.0000    0.0000 C   0  0  0  0  0  0  0  0  0  0  0  0
    0.0000    0.0000    0.0000 O   0  0  0  0  0  0  0  0  0  0  0  0
  1 26  1  0  0  0  0
  1  2  1  0  0  0  0
  2  3  1  0  0  0  0
  2  4  1  0  0  0  0
  4  5  1  0  0  0  0
  4 20  1  0  0  0  0
  5  6  1  0  0  0  0
  6 18  1  0  0  0  0
  6  7  1  0  0  0  0
  7  8  1  0  0  0  0
  8  9  1  0  0  0  0
  8 10  1  0  0  0  0
 10 11  1  0  0  0  0
 10 16  1  0  0  0  0
 11 12  1  0  0  0  0
 12 13  2  0  0  0  0
 12 14  1  0  0  0  0
 14 15  1  0  0  0  0
 16 17  1  0  0  0  0
 16 18  1  0  0  0  0
 16 19  1  0  0  0  0
 20 21  1  0  0  0  0
 20 24  1  0  0  0  0
 21 22  1  0  0  0  0
 21 23  1  0  0  0  0
 24 25  1  0  0  0  0
 24 26  1  0  0  0  0
 26 27  1  0  0  0  0
 27 28  1  0  0  0  0
 28 51  1  0  0  0  0
 28 29  1  0  0  0  0
 29 30  1  0  0  0  0
 29 32  1  0  0  0  0
 30 31  1  0  0  0  0
 32 33  1  0  0  0  0
 32 38  1  0  0  0  0
 33 34  1  0  0  0  0
 34 35  2  0  0  0  0
 34 36  1  0  0  0  0
 36 37  1  0  0  0  0
 38 39  1  0  0  0  0
 39 40  1  0  0  0  0
 39 57  2  0  0  0  0
 40 41  1  0  0  0  0
 41 42  1  0  0  0  0
 41 56  1  0  0  0  0
 42 43  1  0  0  0  0
 43 44  2  3  0  0  0
 44 45  1  0  0  0  0
 45 46  2  3  0  0  0
 46 47  1  0  0  0  0
 47 48  1  0  0  0  0
 47 49  1  0  0  0  0
 49 50  1  0  0  0  0
 49 55  1  0  0  0  0
 50 51  1  0  0  0  0
 51 52  1  0  0  0  0
 52 53  1  0  0  0  0
 53 54  2  0  0  0  0
M  END
> <Index>
1654

> <ID>
HT1395

> <class>
1

> <apol>
129.96513

> <ast_fraglike>
0

> <ast_fraglike_ext>
0

> <ast_violation>
2

> <ast_violation_ext>
4

> <a_acc>
13

> <a_acid>
0

> <a_aro>
0

> <a_base>
0

> <a_count>
124

> <a_don>
3

> <a_donacc>
16

> <a_heavy>
57

> <a_hyd>
35

> <a_IC>
177.62938

> <a_ICM>
1.432495

> <a_nB>
0

> <a_nBr>
0

> <a_nC>
41

> <a_nCl>
0

> <a_nF>
0

> <a_nH>
67

> <a_nI>
0

> <a_nN>
1

> <a_nO>
15

> <a_nP>
0

> <a_nS>
0

> <balabanJ>
1.9851004

> <BCUT_PEOE_0>
-2.8116236

> <BCUT_PEOE_1>
-0.44926366

> <BCUT_PEOE_2>
0.54777062

> <BCUT_PEOE_3>
2.837781

> <BCUT_SLOGP_0>
-2.9522662

> <BCUT_SLOGP_1>
-0.41305423

> <BCUT_SLOGP_2>
0.46739134

> <BCUT_SLOGP_3>
2.7685237

> <BCUT_SMR_0>
-2.5899093

> <BCUT_SMR_1>
-0.36378509

> <BCUT_SMR_2>
0.63661325

> <BCUT_SMR_3>
3.0449693

> <bpol>
94.384872

> <b_1rotN>
12

> <b_1rotR>
0.20338982

> <b_ar>
0

> <b_count>
126

> <b_double>
6

> <b_heavy>
59

> <b_max1len>
4

> <b_rotN>
14

> <b_rotR>
0.23728813

> <b_single>
120

> <b_triple>
0

> <chi0>
42.61179

> <chi0v>
35.184586

> <chi0v_C>
28.496754

> <chi0_C>
29.377586

> <chi1>
26.86105

> <chi1v>
20.115576

> <chi1v_C>
13.525823

> <chi1_C>
14.448326

> <chiral>
16

> <chiral_u>
16

> <density>
0.74303639

> <diameter>
22

> <FCharge>
0

> <GCUT_PEOE_0>
-0.85206801

> <GCUT_PEOE_1>
-0.35980779

> <GCUT_PEOE_2>
0.04886625

> <GCUT_PEOE_3>
3.417968

> <GCUT_SLOGP_0>
-0.96996391

> <GCUT_SLOGP_1>
-0.28923693

> <GCUT_SLOGP_2>
-0.0082121762

> <GCUT_SLOGP_3>
3.3811605

> <GCUT_SMR_0>
-0.53336293

> <GCUT_SMR_1>
-0.19227801

> <GCUT_SMR_2>
0.1271822

> <GCUT_SMR_3>
3.6204243

> <Kier1>
51.350761

> <Kier2>
24.589926

> <Kier3>
15.097633

> <KierA1>
46.788994

> <KierA2>
22.367224

> <KierA3>
13.716532

> <KierFlex>
18.360348

> <lip_acc>
16

> <lip_don>
3

> <lip_druglike>
0

> <lip_violation>
2

> <logP(o/w)>
3.18748

> <logS>
-4.3269601

> <mr>
20.923758

> <mutagenic>
0

> <nmol>
1

> <opr_brigid>
28

> <opr_leadlike>
0

> <opr_nring>
2

> <opr_nrot>
29

> <opr_violation>
3

> <PC+>
0

> <PC->
0

> <PEOE_PC+>
5.9080639

> <PEOE_PC->
-5.9080639

> <PEOE_RPC+>
0.044855047

> <PEOE_RPC->
0.065587282

> <PEOE_VSA+0>
243.21451

> <PEOE_VSA+1>
121.67963

> <PEOE_VSA+2>
47.294914

> <PEOE_VSA+3>
22.309816

> <PEOE_VSA+4>
30.972517

> <PEOE_VSA+5>
44.125496

> <PEOE_VSA+6>
0.0

> <PEOE_VSA-0>
138.87071

> <PEOE_VSA-1>
105.26265

> <PEOE_VSA-2>
0.0

> <PEOE_VSA-3>
0.0

> <PEOE_VSA-4>
0.0

> <PEOE_VSA-5>
40.700764

> <PEOE_VSA-6>
56.89959

> <PEOE_VSA_FHYD>
0.79714298

> <PEOE_VSA_FNEG>
0.40141129

> <PEOE_VSA_FPNEG>
0.11464448

> <PEOE_VSA_FPOL>
0.20285699

> <PEOE_VSA_FPOS>
0.59858871

> <PEOE_VSA_FPPOS>
0.08821252

> <PEOE_VSA_HYD>
678.63226

> <PEOE_VSA_NEG>
341.7337

> <PEOE_VSA_PNEG>
97.600349

> <PEOE_VSA_POL>
172.69836

> <PEOE_VSA_POS>
509.59689

> <PEOE_VSA_PPOS>
75.098015

> <petitjean>
0.5

> <petitjeanSC>
1.0

> <Q_PC+>
0

> <Q_PC->
0

> <Q_RPC+>
0

> <Q_RPC->
0

> <Q_VSA_FHYD>
1

> <Q_VSA_FNEG>
0

> <Q_VSA_FPNEG>
0

> <Q_VSA_FPOL>
0

> <Q_VSA_FPOS>
1

> <Q_VSA_FPPOS>
0

> <Q_VSA_HYD>
851.33063

> <Q_VSA_NEG>
0

> <Q_VSA_PNEG>
0

> <Q_VSA_POL>
0

> <Q_VSA_POS>
851.33063

> <Q_VSA_PPOS>
0

> <radius>
11

> <reactive>
1

> <rings>
3

> <RPC+>
0

> <RPC->
0

> <rsynth>
0.63157892

> <SlogP>
2.7674

> <SlogP_VSA0>
76.155678

> <SlogP_VSA1>
26.360706

> <SlogP_VSA2>
289.31467

> <SlogP_VSA3>
0.0

> <SlogP_VSA4>
8.8215923

> <SlogP_VSA5>
101.17825

> <SlogP_VSA6>
0.0

> <SlogP_VSA7>
70.572739

> <SlogP_VSA8>
132.07884

> <SlogP_VSA9>
233.2821

> <SMR>
20.530439

> <SMR_VSA0>
183.44797

> <SMR_VSA1>
79.279991

> <SMR_VSA2>
8.8215923

> <SMR_VSA3>
85.721466

> <SMR_VSA4>
0.0

> <SMR_VSA5>
202.65158

> <SMR_VSA6>
23.236393

> <SMR_VSA7>
354.60556

> <TPSA>
206.05

> <VAdjEq>
0.22515193

> <VAdjMa>
6.8826432

> <VDistEq>
4.1386619

> <VDistMa>
11.417174

> <vdw_area>
851.33063

> <vdw_vol>
1095.4767

> <vsa_acc>
66.786461

> <vsa_acid>
0

> <vsa_base>
0

> <vsa_don>
0.0

> <vsa_hyd>
578.91174

> <vsa_other>
103.11224

> <vsa_pol>
107.48723

> <Weight>
813.979

> <weinerPath>
13446

> <weinerPol>
98

> <zagreb>
284

$$$$
Row1654
 OpenBabel06061811532D

 36 39  0  0  1  0  0  0  0  0999 V2000
    0.0000    0.0000    0.0000 O   0  0  0  0  0  0  0  0  0  0  0  0
    0.0000    0.0000    0.0000 C   0  0  0  0  0  0  0  0  0  0  0  0
    0.0000    0.0000    0.0000 C   0  0  2  0  0  0  0  0  0  0  0  0
    0.0000    0.0000    0.0000 O   0  0  0  0  0  0  0  0  0  0  0  0
    0.0000    0.0000    0.0000 C   0  0  1  0  0  0  0  0  0  0  0  0
    0.0000    0.0000    0.0000 H   0  0  0  0  0  0  0  0  0  0  0  0
    0.0000    0.0000    0.0000 C   0  0  0  0  0  0  0  0  0  0  0  0
    0.0000    0.0000    0.0000 C   0  0  1  0  0  0  0  0  0  0  0  0
    0.0000    0.0000    0.0000 H   0  0  0  0  0  0  0  0  0  0  0  0
    0.0000    0.0000    0.0000 C   0  0  0  0  0  0  0  0  0  0  0  0
    0.0000    0.0000    0.0000 C   0  0  0  0  0  0  0  0  0  0  0  0
    0.0000    0.0000    0.0000 O   0  0  0  0  0  0  0  0  0  0  0  0
    0.0000    0.0000    0.0000 C   0  0  0  0  0  0  0  0  0  0  0  0
    0.0000    0.0000    0.0000 O   0  0  0  0  0  0  0  0  0  0  0  0
    0.0000    0.0000    0.0000 C   0  0  0  0  0  0  0  0  0  0  0  0
    0.0000    0.0000    0.0000 C   0  0  0  0  0  0  0  0  0  0  0  0
    0.0000    0.0000    0.0000 C   0  0  0  0  0  0  0  0  0  0  0  0
    0.0000    0.0000    0.0000 C   0  0  0  0  0  0  0  0  0  0  0  0
    0.0000    0.0000    0.0000 N   0  0  0  0  0  0  0  0  0  0  0  0
    0.0000    0.0000    0.0000 C   0  0  0  0  0  0  0  0  0  0  0  0
    0.0000    0.0000    0.0000 C   0  0  0  0  0  0  0  0  0  0  0  0
    0.0000    0.0000    0.0000 C   0  0  0  0  0  0  0  0  0  0  0  0
    0.0000    0.0000    0.0000 C   0  0  0  0  0  0  0  0  0  0  0  0
    0.0000    0.0000    0.0000 C   0  0  0  0  0  0  0  0  0  0  0  0
    0.0000    0.0000    0.0000 O   0  0  0  0  0  0  0  0  0  0  0  0
    0.0000    0.0000    0.0000 C   0  0  2  0  0  0  0  0  0  0  0  0
    0.0000    0.0000    0.0000 H   0  0  0  0  0  0  0  0  0  0  0  0
    0.0000    0.0000    0.0000 N   0  0  0  0  0  0  0  0  0  0  0  0
    0.0000    0.0000    0.0000 C   0  0  0  0  0  0  0  0  0  0  0  0
    0.0000    0.0000    0.0000 C   0  0  0  0  0  0  0  0  0  0  0  0
    0.0000    0.0000    0.0000 C   0  0  0  0  0  0  0  0  0  0  0  0
    0.0000    0.0000    0.0000 O   0  0  0  0  0  0  0  0  0  0  0  0
    0.0000    0.0000    0.0000 C   0  0  0  0  0  0  0  0  0  0  0  0
    0.0000    0.0000    0.0000 C   0  0  0  0  0  0  0  0  0  0  0  0
    0.0000    0.0000    0.0000 O   0  0  0  0  0  0  0  0  0  0  0  0
    0.0000    0.0000    0.0000 N   0  0  0  0  0  0  0  0  0  0  0  0
  1  2  1  0  0  0  0
  2 33  2  0  0  0  0
  2  3  1  0  0  0  0
  3 11  1  0  0  0  0
  3  4  1  0  0  0  0
  3  5  1  0  0  0  0
  5  6  1  0  0  0  0
  5  7  1  0  0  0  0
  5 26  1  0  0  0  0
  7  8  1  0  0  0  0
  8  9  1  0  0  0  0
  8 17  1  0  0  0  0
  8 10  1  0  0  0  0
 10 11  1  0  0  0  0
 10 13  2  0  0  0  0
 11 12  2  0  0  0  0
 13 14  1  0  0  0  0
 13 15  1  0  0  0  0
 15 24  1  0  0  0  0
 15 16  2  0  0  0  0
 16 17  1  0  0  0  0
 16 18  1  0  0  0  0
 18 19  1  0  0  0  0
 18 22  2  0  0  0  0
 19 20  1  0  0  0  0
 19 21  1  0  0  0  0
 22 23  1  0  0  0  0
 23 24  2  0  0  0  0
 24 25  1  0  0  0  0
 26 27  1  0  0  0  0
 26 28  1  0  0  0  0
 26 31  1  0  0  0  0
 28 29  1  0  0  0  0
 28 30  1  0  0  0  0
 31 32  2  0  0  0  0
 31 33  1  0  0  0  0
 33 34  1  0  0  0  0
 34 35  2  0  0  0  0
 34 36  1  0  0  0  0
M  END
> <Index>
1655

> <ID>
HT1407

> <class>
1

> <apol>
67.397408

> <ast_fraglike>
0

> <ast_fraglike_ext>
0

> <ast_violation>
3

> <ast_violation_ext>
4

> <a_acc>
8

> <a_acid>
0

> <a_aro>
6

> <a_base>
0

> <a_count>
60

> <a_don>
7

> <a_donacc>
15

> <a_heavy>
33

> <a_hyd>
20

> <a_IC>
97.583176

> <a_ICM>
1.6263863

> <a_nB>
0

> <a_nBr>
0

> <a_nC>
23

> <a_nCl>
0

> <a_nF>
0

> <a_nH>
27

> <a_nI>
0

> <a_nN>
3

> <a_nO>
7

> <a_nP>
0

> <a_nS>
0

> <balabanJ>
1.7498753

> <BCUT_PEOE_0>
-2.7735937

> <BCUT_PEOE_1>
-0.55145115

> <BCUT_PEOE_2>
0.53364068

> <BCUT_PEOE_3>
2.8307769

> <BCUT_SLOGP_0>
-2.8690076

> <BCUT_SLOGP_1>
-0.4995077

> <BCUT_SLOGP_2>
0.5023151

> <BCUT_SLOGP_3>
2.7825699

> <BCUT_SMR_0>
-2.5365293

> <BCUT_SMR_1>
-0.34571731

> <BCUT_SMR_2>
0.71400213

> <BCUT_SMR_3>
3.0630157

> <bpol>
35.69059

> <b_1rotN>
3

> <b_1rotR>
0.083333336

> <b_ar>
6

> <b_count>
63

> <b_double>
5

> <b_heavy>
36

> <b_max1len>
4

> <b_rotN>
3

> <b_rotR>
0.083333336

> <b_single>
52

> <b_triple>
0

> <chi0>
24.566031

> <chi0v>
18.786341

> <chi0v_C>
14.300965

> <chi0_C>
15.411331

> <chi1>
15.333035

> <chi1v>
10.504476

> <chi1v_C>
6.4383407

> <chi1_C>
7.815515

> <chiral>
4

> <chiral_u>
0

> <density>
0.79043078

> <diameter>
12

> <FCharge>
0

> <GCUT_PEOE_0>
-0.84918219

> <GCUT_PEOE_1>
-0.4295252

> <GCUT_PEOE_2>
0.024548391

> <GCUT_PEOE_3>
3.1105726

> <GCUT_SLOGP_0>
-1.3705202

> <GCUT_SLOGP_1>
-0.38623658

> <GCUT_SLOGP_2>
0.055489037

> <GCUT_SLOGP_3>
3.1069536

> <GCUT_SMR_0>
-0.52340984

> <GCUT_SMR_1>
-0.20832831

> <GCUT_SMR_2>
0.17122646

> <GCUT_SMR_3>
3.3588195

> <Kier1>
26.074074

> <Kier2>
9.1414986

> <Kier3>
3.8049941

> <KierA1>
20.39813

> <KierA2>
7.0932708

> <KierA3>
2.9349134

> <KierFlex>
4.3845296

> <lip_acc>
10

> <lip_don>
6

> <lip_druglike>
1

> <lip_violation>
1

> <logP(o/w)>
-0.27500001

> <logS>
-2.4556201

> <mr>
11.599611

> <mutagenic>
0

> <nmol>
1

> <opr_brigid>
21

> <opr_leadlike>
0

> <opr_nring>
4

> <opr_nrot>
3

> <opr_violation>
3

> <PC+>
0

> <PC->
0

> <PEOE_PC+>
3.4325898

> <PEOE_PC->
-3.4325898

> <PEOE_RPC+>
0.074353732

> <PEOE_RPC->
0.10893287

> <PEOE_VSA+0>
87.893578

> <PEOE_VSA+1>
32.859158

> <PEOE_VSA+2>
10.667059

> <PEOE_VSA+3>
25.696545

> <PEOE_VSA+4>
49.755211

> <PEOE_VSA+5>
12.949531

> <PEOE_VSA+6>
0.0

> <PEOE_VSA-0>
137.07573

> <PEOE_VSA-1>
0.0

> <PEOE_VSA-2>
0.0

> <PEOE_VSA-3>
0.0

> <PEOE_VSA-4>
0.0

> <PEOE_VSA-5>
40.700764

> <PEOE_VSA-6>
37.721279

> <PEOE_VSA_FHYD>
0.67580825

> <PEOE_VSA_FNEG>
0.49503431

> <PEOE_VSA_FPNEG>
0.18014851

> <PEOE_VSA_FPOL>
0.32419175

> <PEOE_VSA_FPOS>
0.50496566

> <PEOE_VSA_FPPOS>
0.14404325

> <PEOE_VSA_HYD>
294.19208

> <PEOE_VSA_NEG>
215.49777

> <PEOE_VSA_PNEG>
78.422043

> <PEOE_VSA_POL>
141.12679

> <PEOE_VSA_POS>
219.82108

> <PEOE_VSA_PPOS>
62.704742

> <petitjean>
0.5

> <petitjeanSC>
1.0

> <Q_PC+>
0

> <Q_PC->
0

> <Q_RPC+>
0

> <Q_RPC->
0

> <Q_VSA_FHYD>
1

> <Q_VSA_FNEG>
0

> <Q_VSA_FPNEG>
0

> <Q_VSA_FPOL>
0

> <Q_VSA_FPOS>
1

> <Q_VSA_FPPOS>
0

> <Q_VSA_HYD>
435.31885

> <Q_VSA_NEG>
0

> <Q_VSA_PNEG>
0

> <Q_VSA_POL>
0

> <Q_VSA_POS>
435.31885

> <Q_VSA_PPOS>
0

> <radius>
6

> <reactive>
0

> <rings>
4

> <RPC+>
0

> <RPC->
0

> <rsynth>
0.27272728

> <SlogP>
0.02997

> <SlogP_VSA0>
86.791954

> <SlogP_VSA1>
19.75832

> <SlogP_VSA2>
75.568619

> <SlogP_VSA3>
50.770454

> <SlogP_VSA4>
15.192742

> <SlogP_VSA5>
162.07173

> <SlogP_VSA6>
0.0

> <SlogP_VSA7>
40.529797

> <SlogP_VSA8>
18.868406

> <SlogP_VSA9>
8.0001755

> <SMR>
11.85716

> <SMR_VSA0>
71.586647

> <SMR_VSA1>
53.894768

> <SMR_VSA2>
62.716358

> <SMR_VSA3>
27.211124

> <SMR_VSA4>
40.897362

> <SMR_VSA5>
73.023178

> <SMR_VSA6>
16.634007

> <SMR_VSA7>
131.58875

> <TPSA>
164.63

> <VAdjEq>
0.3512581

> <VAdjMa>
6.1699252

> <VDistEq>
3.3213925

> <VDistMa>
9.8463755

> <vdw_area>
435.31885

> <vdw_vol>
578.77679

> <vsa_acc>
13.566921

> <vsa_acid>
0

> <vsa_base>
0

> <vsa_don>
17.742489

> <vsa_hyd>
250.85773

> <vsa_other>
29.86657

> <vsa_pol>
112.71094

> <Weight>
457.483

> <weinerPath>
2672

> <weinerPol>
75

> <zagreb>
188

$$$$
Row1655
 OpenBabel06061811532D

 32 34  0  0  0  0  0  0  0  0999 V2000
    0.0000    0.0000    0.0000 O   0  0  0  0  0  0  0  0  0  0  0  0
    0.0000    0.0000    0.0000 C   0  0  0  0  0  0  0  0  0  0  0  0
    0.0000    0.0000    0.0000 C   0  0  0  0  0  0  0  0  0  0  0  0
    0.0000    0.0000    0.0000 C   0  0  0  0  0  0  0  0  0  0  0  0
    0.0000    0.0000    0.0000 C   0  0  0  0  0  0  0  0  0  0  0  0
    0.0000    0.0000    0.0000 N   0  0  0  0  0  0  0  0  0  0  0  0
    0.0000    0.0000    0.0000 C   0  0  0  0  0  0  0  0  0  0  0  0
    0.0000    0.0000    0.0000 C   0  0  0  0  0  0  0  0  0  0  0  0
    0.0000    0.0000    0.0000 N   0  0  0  0  0  0  0  0  0  0  0  0
    0.0000    0.0000    0.0000 C   0  0  0  0  0  0  0  0  0  0  0  0
    0.0000    0.0000    0.0000 C   0  0  0  0  0  0  0  0  0  0  0  0
    0.0000    0.0000    0.0000 O   0  0  0  0  0  0  0  0  0  0  0  0
    0.0000    0.0000    0.0000 C   0  0  0  0  0  0  0  0  0  0  0  0
    0.0000    0.0000    0.0000 C   0  0  0  0  0  0  0  0  0  0  0  0
    0.0000    0.0000    0.0000 C   0  0  0  0  0  0  0  0  0  0  0  0
    0.0000    0.0000    0.0000 N   0  0  0  0  0  0  0  0  0  0  0  0
    0.0000    0.0000    0.0000 C   0  0  0  0  0  0  0  0  0  0  0  0
    0.0000    0.0000    0.0000 C   0  0  0  0  0  0  0  0  0  0  0  0
    0.0000    0.0000    0.0000 N   0  0  0  0  0  0  0  0  0  0  0  0
    0.0000    0.0000    0.0000 C   0  0  0  0  0  0  0  0  0  0  0  0
    0.0000    0.0000    0.0000 C   0  0  0  0  0  0  0  0  0  0  0  0
    0.0000    0.0000    0.0000 O   0  0  0  0  0  0  0  0  0  0  0  0
    0.0000    0.0000    0.0000 C   0  0  0  0  0  0  0  0  0  0  0  0
    0.0000    0.0000    0.0000 O   0  0  0  0  0  0  0  0  0  0  0  0
    0.0000    0.0000    0.0000 C   0  0  0  0  0  0  0  0  0  0  0  0
    0.0000    0.0000    0.0000 C   0  0  0  0  0  0  0  0  0  0  0  0
    0.0000    0.0000    0.0000 C   0  0  0  0  0  0  0  0  0  0  0  0
    0.0000    0.0000    0.0000 O   0  0  0  0  0  0  0  0  0  0  0  0
    0.0000    0.0000    0.0000 C   0  0  0  0  0  0  0  0  0  0  0  0
    0.0000    0.0000    0.0000 C   0  0  0  0  0  0  0  0  0  0  0  0
    0.0000    0.0000    0.0000 C   0  0  0  0  0  0  0  0  0  0  0  0
    0.0000    0.0000    0.0000 O   0  0  0  0  0  0  0  0  0  0  0  0
  1  2  1  0  0  0  0
  2 26  1  0  0  0  0
  2  3  2  0  0  0  0
  3 15  1  0  0  0  0
  3  4  1  0  0  0  0
  4  5  1  0  0  0  0
  4 23  2  0  0  0  0
  5  6  1  0  0  0  0
  5 13  2  0  0  0  0
  6  7  2  3  0  0  0
  7  8  1  0  0  0  0
  8  9  1  0  0  0  0
  9 10  1  0  0  0  0
 10 11  1  0  0  0  0
 11 12  1  0  0  0  0
 13 14  1  0  0  0  0
 14 15  2  0  0  0  0
 15 16  1  0  0  0  0
 16 17  1  0  0  0  0
 17 18  1  0  0  0  0
 18 19  1  0  0  0  0
 19 20  1  0  0  0  0
 20 21  1  0  0  0  0
 21 22  1  0  0  0  0
 23 24  1  0  0  0  0
 23 25  1  0  0  0  0
 25 31  1  0  0  0  0
 25 26  2  0  0  0  0
 26 27  1  0  0  0  0
 27 28  1  0  0  0  0
 27 29  2  0  0  0  0
 29 30  1  0  0  0  0
 30 31  2  0  0  0  0
 31 32  1  0  0  0  0
M  END
> <Index>
1656

> <ID>
HT1418

> <class>
1

> <apol>
66.602203

> <ast_fraglike>
0

> <ast_fraglike_ext>
0

> <ast_violation>
3

> <ast_violation_ext>
5

> <a_acc>
9

> <a_acid>
0

> <a_aro>
14

> <a_base>
0

> <a_count>
60

> <a_don>
9

> <a_donacc>
18

> <a_heavy>
32

> <a_hyd>
21

> <a_IC>
98.190224

> <a_ICM>
1.6365038

> <a_nB>
0

> <a_nBr>
0

> <a_nC>
22

> <a_nCl>
0

> <a_nF>
0

> <a_nH>
28

> <a_nI>
0

> <a_nN>
4

> <a_nO>
6

> <a_nP>
0

> <a_nS>
0

> <balabanJ>
1.7285397

> <BCUT_PEOE_0>
-2.5969608

> <BCUT_PEOE_1>
-0.72515899

> <BCUT_PEOE_2>
0.76611185

> <BCUT_PEOE_3>
2.51001

> <BCUT_SLOGP_0>
-2.7877445

> <BCUT_SLOGP_1>
-0.70260465

> <BCUT_SLOGP_2>
0.67970264

> <BCUT_SLOGP_3>
2.5677981

> <BCUT_SMR_0>
-2.3156383

> <BCUT_SMR_1>
-0.56571168

> <BCUT_SMR_2>
0.87841451

> <BCUT_SMR_3>
2.7865679

> <bpol>
33.909798

> <b_1rotN>
11

> <b_1rotR>
0.32352942

> <b_ar>
16

> <b_count>
62

> <b_double>
1

> <b_heavy>
34

> <b_max1len>
8

> <b_rotN>
11

> <b_rotR>
0.32352942

> <b_single>
45

> <b_triple>
0

> <chi0>
23.087212

> <chi0v>
17.466993

> <chi0v_C>
12.836499

> <chi0_C>
14.258784

> <chi1>
15.506437

> <chi1v>
10.256071

> <chi1v_C>
6.2296157

> <chi1_C>
7.9663267

> <chiral>
0

> <chiral_u>
0

> <density>
0.76929736

> <diameter>
17

> <FCharge>
0

> <GCUT_PEOE_0>
-0.84297168

> <GCUT_PEOE_1>
-0.44414607

> <GCUT_PEOE_2>
0.16955636

> <GCUT_PEOE_3>
2.7384698

> <GCUT_SLOGP_0>
-1.1540816

> <GCUT_SLOGP_1>
-0.33923179

> <GCUT_SLOGP_2>
0.12831187

> <GCUT_SLOGP_3>
2.9194212

> <GCUT_SMR_0>
-0.51517487

> <GCUT_SMR_1>
-0.24073642

> <GCUT_SMR_2>
0.25634032

> <GCUT_SMR_3>
3.0512488

> <Kier1>
26.602076

> <Kier2>
13.185255

> <Kier3>
6.3720703

> <KierA1>
21.184158

> <KierA2>
10.418149

> <KierA3>
5.0071082

> <KierFlex>
6.8968663

> <lip_acc>
10

> <lip_don>
9

> <lip_druglike>
1

> <lip_violation>
1

> <logP(o/w)>
0.42300001

> <logS>
-2.77494

> <mr>
11.827441

> <mutagenic>
1

> <nmol>
1

> <opr_brigid>
17

> <opr_leadlike>
0

> <opr_nring>
3

> <opr_nrot>
11

> <opr_violation>
3

> <PC+>
0

> <PC->
0

> <PEOE_PC+>
3.5214496

> <PEOE_PC->
-3.5214496

> <PEOE_RPC+>
0.061726019

> <PEOE_RPC->
0.11181627

> <PEOE_VSA+0>
140.89511

> <PEOE_VSA+1>
108.82469

> <PEOE_VSA+2>
25.857038

> <PEOE_VSA+3>
0.0

> <PEOE_VSA+4>
61.945034

> <PEOE_VSA+5>
0.0

> <PEOE_VSA+6>
0.0

> <PEOE_VSA-0>
49.019615

> <PEOE_VSA-1>
0.0

> <PEOE_VSA-2>
0.0

> <PEOE_VSA-3>
0.0

> <PEOE_VSA-4>
0.0

> <PEOE_VSA-5>
5.8194671

> <PEOE_VSA-6>
46.879025

> <PEOE_VSA_FHYD>
0.73899567

> <PEOE_VSA_FNEG>
0.23157752

> <PEOE_VSA_FPNEG>
0.11997654

> <PEOE_VSA_FPOL>
0.2610043

> <PEOE_VSA_FPOS>
0.76842248

> <PEOE_VSA_FPPOS>
0.14102778

> <PEOE_VSA_HYD>
324.59647

> <PEOE_VSA_NEG>
101.71811

> <PEOE_VSA_PNEG>
52.69849

> <PEOE_VSA_POL>
114.64352

> <PEOE_VSA_POS>
337.52188

> <PEOE_VSA_PPOS>
61.945034

> <petitjean>
0.47058824

> <petitjeanSC>
0.8888889

> <Q_PC+>
0

> <Q_PC->
0

> <Q_RPC+>
0

> <Q_RPC->
0

> <Q_VSA_FHYD>
1

> <Q_VSA_FNEG>
0

> <Q_VSA_FPNEG>
0

> <Q_VSA_FPOL>
0

> <Q_VSA_FPOS>
1

> <Q_VSA_FPPOS>
0

> <Q_VSA_HYD>
439.23999

> <Q_VSA_NEG>
0

> <Q_VSA_PNEG>
0

> <Q_VSA_POL>
0

> <Q_VSA_POS>
439.23999

> <Q_VSA_PPOS>
0

> <radius>
9

> <reactive>
0

> <rings>
3

> <RPC+>
0

> <RPC->
0

> <rsynth>
0.375

> <SlogP>
1.0934

> <SlogP_VSA0>
188.33286

> <SlogP_VSA1>
18.01075

> <SlogP_VSA2>
17.214357

> <SlogP_VSA3>
134.05042

> <SlogP_VSA4>
0.0

> <SlogP_VSA5>
16.78553

> <SlogP_VSA6>
0.0

> <SlogP_VSA7>
80.864594

> <SlogP_VSA8>
0.0

> <SlogP_VSA9>
26.487207

> <SMR>
12.46659

> <SMR_VSA0>
0.0

> <SMR_VSA1>
169.09689

> <SMR_VSA2>
36.0215

> <SMR_VSA3>
20.973713

> <SMR_VSA4>
33.816105

> <SMR_VSA5>
70.572739

> <SMR_VSA6>
134.05042

> <SMR_VSA7>
17.214357

> <TPSA>
169.83

> <VAdjEq>
0.35236704

> <VAdjMa>
6.0874629

> <VDistEq>
3.6855123

> <VDistMa>
9.7179117

> <vdw_area>
439.23999

> <vdw_vol>
577.78436

> <vsa_acc>
5.6825762

> <vsa_acid>
0

> <vsa_base>
0

> <vsa_don>
5.6825762

> <vsa_hyd>
264.9158

> <vsa_other>
20.299505

> <vsa_pol>
104.13183

> <Weight>
444.48798

> <weinerPath>
2996

> <weinerPol>
55

> <zagreb>
160

$$$$
Row1656
 OpenBabel06061811532D

 32 36  0  0  1  0  0  0  0  0999 V2000
    0.0000    0.0000    0.0000 F   0  0  0  0  0  0  0  0  0  0  0  0
    0.0000    0.0000    0.0000 C   0  0  0  0  0  0  0  0  0  0  0  0
    0.0000    0.0000    0.0000 C   0  0  0  0  0  0  0  0  0  0  0  0
    0.0000    0.0000    0.0000 C   0  0  0  0  0  0  0  0  0  0  0  0
    0.0000    0.0000    0.0000 C   0  0  0  0  0  0  0  0  0  0  0  0
    0.0000    0.0000    0.0000 C   0  0  0  0  0  0  0  0  0  0  0  0
    0.0000    0.0000    0.0000 C   0  0  0  0  0  0  0  0  0  0  0  0
    0.0000    0.0000    0.0000 C   0  0  0  0  0  0  0  0  0  0  0  0
    0.0000    0.0000    0.0000 N   0  0  0  0  0  0  0  0  0  0  0  0
    0.0000    0.0000    0.0000 C   0  0  0  0  0  0  0  0  0  0  0  0
    0.0000    0.0000    0.0000 C   0  0  0  0  0  0  0  0  0  0  0  0
    0.0000    0.0000    0.0000 N   0  0  0  0  0  0  0  0  0  0  0  0
    0.0000    0.0000    0.0000 C   0  0  0  0  0  0  0  0  0  0  0  0
    0.0000    0.0000    0.0000 N   0  0  0  0  0  0  0  0  0  0  0  0
    0.0000    0.0000    0.0000 C   0  0  0  0  0  0  0  0  0  0  0  0
    0.0000    0.0000    0.0000 C   0  0  0  0  0  0  0  0  0  0  0  0
    0.0000    0.0000    0.0000 C   0  0  3  0  0  0  0  0  0  0  0  0
    0.0000    0.0000    0.0000 N   0  0  0  0  0  0  0  0  0  0  0  0
    0.0000    0.0000    0.0000 C   0  0  0  0  0  0  0  0  0  0  0  0
    0.0000    0.0000    0.0000 C   0  0  0  0  0  0  0  0  0  0  0  0
    0.0000    0.0000    0.0000 N   0  0  0  0  0  0  0  0  0  0  0  0
    0.0000    0.0000    0.0000 C   0  0  0  0  0  0  0  0  0  0  0  0
    0.0000    0.0000    0.0000 O   0  0  0  0  0  0  0  0  0  0  0  0
    0.0000    0.0000    0.0000 C   0  0  0  0  0  0  0  0  0  0  0  0
    0.0000    0.0000    0.0000 C   0  0  0  0  0  0  0  0  0  0  0  0
    0.0000    0.0000    0.0000 N   0  0  0  0  0  0  0  0  0  0  0  0
    0.0000    0.0000    0.0000 C   0  0  0  0  0  0  0  0  0  0  0  0
    0.0000    0.0000    0.0000 C   0  0  0  0  0  0  0  0  0  0  0  0
    0.0000    0.0000    0.0000 C   0  0  0  0  0  0  0  0  0  0  0  0
    0.0000    0.0000    0.0000 C   0  0  0  0  0  0  0  0  0  0  0  0
    0.0000    0.0000    0.0000 C   0  0  0  0  0  0  0  0  0  0  0  0
    0.0000    0.0000    0.0000 C   0  0  0  0  0  0  0  0  0  0  0  0
  1  2  1  0  0  0  0
  2  7  1  0  0  0  0
  2  3  2  0  0  0  0
  3  4  1  0  0  0  0
  4  5  2  0  0  0  0
  5  6  1  0  0  0  0
  5  8  1  0  0  0  0
  6  7  2  0  0  0  0
  8  9  1  0  0  0  0
  9 13  1  0  0  0  0
  9 10  1  0  0  0  0
 10 32  1  0  0  0  0
 10 11  2  0  0  0  0
 11 12  1  0  0  0  0
 11 29  1  0  0  0  0
 12 13  2  0  0  0  0
 13 14  1  0  0  0  0
 14 28  1  0  0  0  0
 14 15  1  0  0  0  0
 15 16  1  0  0  0  0
 16 17  1  0  0  0  0
 17 18  1  0  0  0  0
 17 27  1  0  0  0  0
 18 19  1  0  0  0  0
 18 20  1  0  0  0  0
 20 26  2  0  0  0  0
 20 21  1  0  0  0  0
 21 22  1  0  0  0  0
 22 23  2  0  0  0  0
 22 24  1  0  0  0  0
 24 25  2  0  0  0  0
 25 26  1  0  0  0  0
 27 28  1  0  0  0  0
 29 30  2  0  0  0  0
 30 31  1  0  0  0  0
 31 32  2  0  0  0  0
M  END
> <Index>
1657

> <ID>
HT1420

> <class>
1

> <apol>
66.868828

> <ast_fraglike>
0

> <ast_fraglike_ext>
0

> <ast_violation>
2

> <ast_violation_ext>
3

> <a_acc>
3

> <a_acid>
0

> <a_aro>
15

> <a_base>
0

> <a_count>
57

> <a_don>
1

> <a_donacc>
4

> <a_heavy>
32

> <a_hyd>
22

> <a_IC>
90.829453

> <a_ICM>
1.5934992

> <a_nB>
0

> <a_nBr>
0

> <a_nC>
24

> <a_nCl>
0

> <a_nF>
1

> <a_nH>
25

> <a_nI>
0

> <a_nN>
6

> <a_nO>
1

> <a_nP>
0

> <a_nS>
0

> <balabanJ>
1.1911572

> <BCUT_PEOE_0>
-2.7763414

> <BCUT_PEOE_1>
-0.59644037

> <BCUT_PEOE_2>
0.5764634

> <BCUT_PEOE_3>
2.7206309

> <BCUT_SLOGP_0>
-2.8487034

> <BCUT_SLOGP_1>
-0.50141609

> <BCUT_SLOGP_2>
0.73405647

> <BCUT_SLOGP_3>
2.688448

> <BCUT_SMR_0>
-2.503016

> <BCUT_SMR_1>
-0.40934518

> <BCUT_SMR_2>
0.74956101

> <BCUT_SMR_3>
2.9901495

> <bpol>
38.731174

> <b_1rotN>
5

> <b_1rotR>
0.1388889

> <b_ar>
16

> <b_count>
61

> <b_double>
3

> <b_heavy>
36

> <b_max1len>
4

> <b_rotN>
5

> <b_rotR>
0.1388889

> <b_single>
42

> <b_triple>
0

> <chi0>
22.078775

> <chi0v>
17.908669

> <chi0v_C>
14.386387

> <chi0_C>
16.225405

> <chi1>
15.58052

> <chi1v>
10.811424

> <chi1v_C>
6.4407759

> <chi1_C>
8.4158163

> <chiral>
0

> <chiral_u>
0

> <density>
0.7423355

> <diameter>
16

> <FCharge>
0

> <GCUT_PEOE_0>
-0.85520118

> <GCUT_PEOE_1>
-0.42194489

> <GCUT_PEOE_2>
0.062389024

> <GCUT_PEOE_3>
2.8635833

> <GCUT_SLOGP_0>
-1.171129

> <GCUT_SLOGP_1>
-0.33635572

> <GCUT_SLOGP_2>
0.15062469

> <GCUT_SLOGP_3>
2.9077661

> <GCUT_SMR_0>
-0.51779824

> <GCUT_SMR_1>
-0.20887616

> <GCUT_SMR_2>
0.17219718

> <GCUT_SMR_3>
3.1399944

> <Kier1>
23.728395

> <Kier2>
10.726644

> <Kier3>
5.4820414

> <KierA1>
16.704437

> <KierA2>
7.4590321

> <KierA3>
3.7790537

> <KierFlex>
3.8937166

> <lip_acc>
7

> <lip_don>
1

> <lip_druglike>
1

> <lip_violation>
0

> <logP(o/w)>
3.826

> <logS>
-5.6542902

> <mr>
12.103253

> <mutagenic>
0

> <nmol>
1

> <opr_brigid>
28

> <opr_leadlike>
1

> <opr_nring>
5

> <opr_nrot>
7

> <opr_violation>
1

> <PC+>
0

> <PC->
0

> <PEOE_PC+>
2.517051

> <PEOE_PC->
-2.517051

> <PEOE_RPC+>
0.1004133

> <PEOE_RPC->
0.13577667

> <PEOE_VSA+0>
128.68936

> <PEOE_VSA+1>
82.041443

> <PEOE_VSA+2>
9.0208454

> <PEOE_VSA+3>
24.300587

> <PEOE_VSA+4>
15.681574

> <PEOE_VSA+5>
12.949531

> <PEOE_VSA+6>
0.0

> <PEOE_VSA-0>
68.630783

> <PEOE_VSA-1>
49.019615

> <PEOE_VSA-2>
0.0

> <PEOE_VSA-3>
0.0

> <PEOE_VSA-4>
23.273788

> <PEOE_VSA-5>
13.703812

> <PEOE_VSA-6>
0.0

> <PEOE_VSA_FHYD>
0.84646159

> <PEOE_VSA_FNEG>
0.3618626

> <PEOE_VSA_FPNEG>
0.086535498

> <PEOE_VSA_FPOL>
0.15353841

> <PEOE_VSA_FPOS>
0.6381374

> <PEOE_VSA_FPPOS>
0.067002915

> <PEOE_VSA_HYD>
361.70264

> <PEOE_VSA_NEG>
154.62799

> <PEOE_VSA_PNEG>
36.9776

> <PEOE_VSA_POL>
65.608704

> <PEOE_VSA_POS>
272.68335

> <PEOE_VSA_PPOS>
28.631105

> <petitjean>
0.5

> <petitjeanSC>
1.0

> <Q_PC+>
0

> <Q_PC->
0

> <Q_RPC+>
0

> <Q_RPC->
0

> <Q_VSA_FHYD>
1

> <Q_VSA_FNEG>
0

> <Q_VSA_FPNEG>
0

> <Q_VSA_FPOL>
0

> <Q_VSA_FPOS>
1

> <Q_VSA_FPPOS>
0

> <Q_VSA_HYD>
427.31134

> <Q_VSA_NEG>
0

> <Q_VSA_PNEG>
0

> <Q_VSA_POL>
0

> <Q_VSA_POS>
427.31134

> <Q_VSA_PPOS>
0

> <radius>
8

> <reactive>
0

> <rings>
5

> <RPC+>
0

> <RPC->
0

> <rsynth>
1.0

> <SlogP>
3.3901999

> <SlogP_VSA0>
21.135065

> <SlogP_VSA1>
28.966812

> <SlogP_VSA2>
36.965202

> <SlogP_VSA3>
36.879158

> <SlogP_VSA4>
3.185575

> <SlogP_VSA5>
49.682716

> <SlogP_VSA6>
0.0

> <SlogP_VSA7>
180.29129

> <SlogP_VSA8>
37.736813

> <SlogP_VSA9>
35.298782

> <SMR>
12.31557

> <SMR_VSA0>
23.862217

> <SMR_VSA1>
53.554581

> <SMR_VSA2>
30.256083

> <SMR_VSA3>
7.1675434

> <SMR_VSA4>
6.187367

> <SMR_VSA5>
232.1794

> <SMR_VSA6>
44.037033

> <SMR_VSA7>
32.897186

> <TPSA>
65.760002

> <VAdjEq>
0.36708876

> <VAdjMa>
6.1699252

> <VDistEq>
3.7499976

> <VDistMa>
9.7016726

> <vdw_area>
427.31134

> <vdw_vol>
582.62469

> <vsa_acc>
24.932074

> <vsa_acid>
0

> <vsa_base>
0

> <vsa_don>
5.6825762

> <vsa_hyd>
332.2276

> <vsa_other>
44.312679

> <vsa_pol>
30.614649

> <Weight>
432.50299

> <weinerPath>
3107

> <weinerPol>
52

> <zagreb>
174

$$$$
Row1657
 OpenBabel06061811532D

 18 19  0  0  0  0  0  0  0  0999 V2000
    0.0000    0.0000    0.0000 Cl  0  0  0  0  0  0  0  0  0  0  0  0
    0.0000    0.0000    0.0000 C   0  0  0  0  0  0  0  0  0  0  0  0
    0.0000    0.0000    0.0000 C   0  0  0  0  0  0  0  0  0  0  0  0
    0.0000    0.0000    0.0000 C   0  0  0  0  0  0  0  0  0  0  0  0
    0.0000    0.0000    0.0000 C   0  0  0  0  0  0  0  0  0  0  0  0
    0.0000    0.0000    0.0000 C   0  0  0  0  0  0  0  0  0  0  0  0
    0.0000    0.0000    0.0000 C   0  0  0  0  0  0  0  0  0  0  0  0
    0.0000    0.0000    0.0000 C   0  0  0  0  0  0  0  0  0  0  0  0
    0.0000    0.0000    0.0000 O   0  0  0  0  0  0  0  0  0  0  0  0
    0.0000    0.0000    0.0000 N   0  0  0  0  0  0  0  0  0  0  0  0
    0.0000    0.0000    0.0000 C   0  0  0  0  0  0  0  0  0  0  0  0
    0.0000    0.0000    0.0000 C   0  0  0  0  0  0  0  0  0  0  0  0
    0.0000    0.0000    0.0000 N   0  0  0  0  0  0  0  0  0  0  0  0
    0.0000    0.0000    0.0000 C   0  0  0  0  0  0  0  0  0  0  0  0
    0.0000    0.0000    0.0000 C   0  0  0  0  0  0  0  0  0  0  0  0
    0.0000    0.0000    0.0000 O   0  0  0  0  0  0  0  0  0  0  0  0
    0.0000    0.0000    0.0000 C   0  0  0  0  0  0  0  0  0  0  0  0
    0.0000    0.0000    0.0000 C   0  0  0  0  0  0  0  0  0  0  0  0
  1  2  1  0  0  0  0
  2  7  1  0  0  0  0
  2  3  2  0  0  0  0
  3  4  1  0  0  0  0
  4  5  2  0  0  0  0
  5  6  1  0  0  0  0
  5  8  1  0  0  0  0
  6  7  2  0  0  0  0
  8  9  2  0  0  0  0
  8 10  1  0  0  0  0
 10 11  1  0  0  0  0
 11 12  1  0  0  0  0
 12 13  1  0  0  0  0
 13 18  1  0  0  0  0
 13 14  1  0  0  0  0
 14 15  1  0  0  0  0
 15 16  1  0  0  0  0
 16 17  1  0  0  0  0
 17 18  1  0  0  0  0
M  END
> <Index>
1658

> <ID>
HT1421

> <class>
1

> <apol>
40.199482

> <ast_fraglike>
1

> <ast_fraglike_ext>
0

> <ast_violation>
0

> <ast_violation_ext>
1

> <a_acc>
3

> <a_acid>
0

> <a_aro>
6

> <a_base>
0

> <a_count>
35

> <a_don>
1

> <a_donacc>
4

> <a_heavy>
18

> <a_hyd>
13

> <a_IC>
57.93232

> <a_ICM>
1.6552092

> <a_nB>
0

> <a_nBr>
0

> <a_nC>
13

> <a_nCl>
1

> <a_nF>
0

> <a_nH>
17

> <a_nI>
0

> <a_nN>
2

> <a_nO>
2

> <a_nP>
0

> <a_nS>
0

> <balabanJ>
1.5794771

> <BCUT_PEOE_0>
-2.7248356

> <BCUT_PEOE_1>
-0.57803112

> <BCUT_PEOE_2>
0.58281142

> <BCUT_PEOE_3>
2.6435158

> <BCUT_SLOGP_0>
-2.8564782

> <BCUT_SLOGP_1>
-0.43685958

> <BCUT_SLOGP_2>
0.73211902

> <BCUT_SLOGP_3>
2.5211434

> <BCUT_SMR_0>
-2.4545288

> <BCUT_SMR_1>
-0.34165743

> <BCUT_SMR_2>
0.79626113

> <BCUT_SMR_3>
2.9024737

> <bpol>
24.518518

> <b_1rotN>
4

> <b_1rotR>
0.21052632

> <b_ar>
6

> <b_count>
36

> <b_double>
1

> <b_heavy>
19

> <b_max1len>
4

> <b_rotN>
5

> <b_rotR>
0.2631579

> <b_single>
29

> <b_triple>
0

> <chi0>
12.794683

> <chi0v>
10.949645

> <chi0v_C>
8.052042

> <chi0_C>
8.8031187

> <chi1>
8.7540197

> <chi1v>
6.4720249

> <chi1v_C>
3.5713673

> <chi1_C>
4.4663267

> <chiral>
0

> <chiral_u>
0

> <density>
0.77233213

> <diameter>
12

> <FCharge>
0

> <GCUT_PEOE_0>
-0.84576482

> <GCUT_PEOE_1>
-0.38066199

> <GCUT_PEOE_2>
0.060549736

> <GCUT_PEOE_3>
2.4775217

> <GCUT_SLOGP_0>
-1.1614633

> <GCUT_SLOGP_1>
-0.28434244

> <GCUT_SLOGP_2>
0.16455409

> <GCUT_SLOGP_3>
2.4364829

> <GCUT_SMR_0>
-0.5153141

> <GCUT_SMR_1>
-0.17787616

> <GCUT_SMR_2>
0.18895228

> <GCUT_SMR_3>
2.723479

> <Kier1>
14.409972

> <Kier2>
7.5555553

> <Kier3>
4.8979592

> <KierA1>
12.517428

> <KierA2>
6.5053916

> <KierA3>
4.1896276

> <KierFlex>
4.523932

> <lip_acc>
4

> <lip_don>
1

> <lip_druglike>
1

> <lip_violation>
0

> <logP(o/w)>
1.24

> <logS>
-2.45467

> <mr>
7.2386432

> <mutagenic>
0

> <nmol>
1

> <opr_brigid>
12

> <opr_leadlike>
1

> <opr_nring>
2

> <opr_nrot>
6

> <opr_violation>
0

> <PC+>
0

> <PC->
0

> <PEOE_PC+>
1.556932

> <PEOE_PC->
-1.556932

> <PEOE_RPC+>
0.16191237

> <PEOE_RPC->
0.24229865

> <PEOE_VSA+0>
93.620674

> <PEOE_VSA+1>
64.025673

> <PEOE_VSA+2>
0.0

> <PEOE_VSA+3>
8.6190128

> <PEOE_VSA+4>
0.0

> <PEOE_VSA+5>
12.949531

> <PEOE_VSA+6>
0.0

> <PEOE_VSA-0>
49.019615

> <PEOE_VSA-1>
29.581947

> <PEOE_VSA-2>
0.0

> <PEOE_VSA-3>
0.0

> <PEOE_VSA-4>
0.0

> <PEOE_VSA-5>
13.566921

> <PEOE_VSA-6>
2.6406472

> <PEOE_VSA_FHYD>
0.89359653

> <PEOE_VSA_FNEG>
0.34598839

> <PEOE_VSA_FPNEG>
0.059146523

> <PEOE_VSA_FPOL>
0.10640344

> <PEOE_VSA_FPOS>
0.65401161

> <PEOE_VSA_FPPOS>
0.04725692

> <PEOE_VSA_HYD>
244.86693

> <PEOE_VSA_NEG>
94.809128

> <PEOE_VSA_PNEG>
16.207567

> <PEOE_VSA_POL>
29.157099

> <PEOE_VSA_POS>
179.21489

> <PEOE_VSA_PPOS>
12.949531

> <petitjean>
0.5

> <petitjeanSC>
1.0

> <Q_PC+>
0

> <Q_PC->
0

> <Q_RPC+>
0

> <Q_RPC->
0

> <Q_VSA_FHYD>
1

> <Q_VSA_FNEG>
0

> <Q_VSA_FPNEG>
0

> <Q_VSA_FPOL>
0

> <Q_VSA_FPOS>
1

> <Q_VSA_FPPOS>
0

> <Q_VSA_HYD>
274.02402

> <Q_VSA_NEG>
0

> <Q_VSA_PNEG>
0

> <Q_VSA_POL>
0

> <Q_VSA_POS>
274.02402

> <Q_VSA_PPOS>
0

> <radius>
6

> <reactive>
0

> <rings>
2

> <RPC+>
0

> <RPC->
0

> <rsynth>
1.0

> <SlogP>
1.402

> <SlogP_VSA0>
18.01075

> <SlogP_VSA1>
8.3830976

> <SlogP_VSA2>
10.999887

> <SlogP_VSA3>
115.61083

> <SlogP_VSA4>
27.047791

> <SlogP_VSA5>
0.0

> <SlogP_VSA6>
3.5006065

> <SlogP_VSA7>
70.572739

> <SlogP_VSA8>
0.0

> <SlogP_VSA9>
39.148643

> <SMR>
7.1044202

> <SMR_VSA0>
34.862103

> <SMR_VSA1>
3.1243138

> <SMR_VSA2>
18.01075

> <SMR_VSA3>
6.6861815

> <SMR_VSA4>
0.0

> <SMR_VSA5>
70.572739

> <SMR_VSA6>
120.86961

> <SMR_VSA7>
39.148643

> <TPSA>
41.57

> <VAdjEq>
0.52150291

> <VAdjMa>
5.2479277

> <VDistEq>
3.3398557

> <VDistMa>
7.9901648

> <vdw_area>
274.02402

> <vdw_vol>
347.96426

> <vsa_acc>
16.070677

> <vsa_acid>
0

> <vsa_base>
0

> <vsa_don>
5.6825762

> <vsa_hyd>
224.85919

> <vsa_other>
12.949531

> <vsa_pol>
21.753254

> <Weight>
268.74399

> <weinerPath>
724

> <weinerPol>
22

> <zagreb>
86

$$$$
Row1658
 OpenBabel06061811532D

 42 46  0  0  1  0  0  0  0  0999 V2000
    0.0000    0.0000    0.0000 Cl  0  0  0  0  0  0  0  0  0  0  0  0
    0.0000    0.0000    0.0000 C   0  0  0  0  0  0  0  0  0  0  0  0
    0.0000    0.0000    0.0000 C   0  0  0  0  0  0  0  0  0  0  0  0
    0.0000    0.0000    0.0000 C   0  0  0  0  0  0  0  0  0  0  0  0
    0.0000    0.0000    0.0000 N   0  0  0  0  0  0  0  0  0  0  0  0
    0.0000    0.0000    0.0000 C   0  0  0  0  0  0  0  0  0  0  0  0
    0.0000    0.0000    0.0000 C   0  0  0  0  0  0  0  0  0  0  0  0
    0.0000    0.0000    0.0000 C   0  0  0  0  0  0  0  0  0  0  0  0
    0.0000    0.0000    0.0000 C   0  0  0  0  0  0  0  0  0  0  0  0
    0.0000    0.0000    0.0000 C   0  0  0  0  0  0  0  0  0  0  0  0
    0.0000    0.0000    0.0000 C   0  0  0  0  0  0  0  0  0  0  0  0
    0.0000    0.0000    0.0000 C   0  0  0  0  0  0  0  0  0  0  0  0
    0.0000    0.0000    0.0000 C   0  0  0  0  0  0  0  0  0  0  0  0
    0.0000    0.0000    0.0000 C   0  0  0  0  0  0  0  0  0  0  0  0
    0.0000    0.0000    0.0000 C   0  0  0  0  0  0  0  0  0  0  0  0
    0.0000    0.0000    0.0000 C   0  0  0  0  0  0  0  0  0  0  0  0
    0.0000    0.0000    0.0000 C   0  0  0  0  0  0  0  0  0  0  0  0
    0.0000    0.0000    0.0000 C   0  0  0  0  0  0  0  0  0  0  0  0
    0.0000    0.0000    0.0000 C   0  0  0  0  0  0  0  0  0  0  0  0
    0.0000    0.0000    0.0000 C   0  0  2  0  0  0  0  0  0  0  0  0
    0.0000    0.0000    0.0000 H   0  0  0  0  0  0  0  0  0  0  0  0
    0.0000    0.0000    0.0000 S   0  0  0  0  0  0  0  0  0  0  0  0
    0.0000    0.0000    0.0000 C   0  0  0  0  0  0  0  0  0  0  0  0
    0.0000    0.0000    0.0000 C   0  0  0  0  0  0  0  0  0  0  0  0
    0.0000    0.0000    0.0000 C   0  0  0  0  0  0  0  0  0  0  0  0
    0.0000    0.0000    0.0000 C   0  0  0  0  0  0  0  0  0  0  0  0
    0.0000    0.0000    0.0000 C   0  0  0  0  0  0  0  0  0  0  0  0
    0.0000    0.0000    0.0000 C   0  0  0  0  0  0  0  0  0  0  0  0
    0.0000    0.0000    0.0000 O   0  0  0  0  0  0  0  0  0  0  0  0
    0.0000    0.0000    0.0000 O   0  0  0  0  0  0  0  0  0  0  0  0
    0.0000    0.0000    0.0000 C   0  0  0  0  0  0  0  0  0  0  0  0
    0.0000    0.0000    0.0000 C   0  0  0  0  0  0  0  0  0  0  0  0
    0.0000    0.0000    0.0000 C   0  0  0  0  0  0  0  0  0  0  0  0
    0.0000    0.0000    0.0000 C   0  0  0  0  0  0  0  0  0  0  0  0
    0.0000    0.0000    0.0000 C   0  0  0  0  0  0  0  0  0  0  0  0
    0.0000    0.0000    0.0000 C   0  0  0  0  0  0  0  0  0  0  0  0
    0.0000    0.0000    0.0000 C   0  0  0  0  0  0  0  0  0  0  0  0
    0.0000    0.0000    0.0000 C   0  0  0  0  0  0  0  0  0  0  0  0
    0.0000    0.0000    0.0000 C   0  0  0  0  0  0  0  0  0  0  0  0
    0.0000    0.0000    0.0000 O   0  0  0  0  0  0  0  0  0  0  0  0
    0.0000    0.0000    0.0000 C   0  0  0  0  0  0  0  0  0  0  0  0
    0.0000    0.0000    0.0000 C   0  0  0  0  0  0  0  0  0  0  0  0
  1  2  1  0  0  0  0
  2 11  1  0  0  0  0
  2  3  2  0  0  0  0
  3  4  1  0  0  0  0
  4  9  1  0  0  0  0
  4  5  2  0  0  0  0
  5  6  1  0  0  0  0
  6  7  2  0  0  0  0
  6 12  1  0  0  0  0
  7  8  1  0  0  0  0
  8  9  2  0  0  0  0
  9 10  1  0  0  0  0
 10 11  2  0  0  0  0
 12 13  2  3  0  0  0
 13 14  1  0  0  0  0
 14 19  1  0  0  0  0
 14 15  2  0  0  0  0
 15 16  1  0  0  0  0
 16 17  2  0  0  0  0
 16 20  1  0  0  0  0
 17 18  1  0  0  0  0
 18 19  2  0  0  0  0
 20 21  1  0  0  0  0
 20 22  1  0  0  0  0
 20 31  1  0  0  0  0
 22 23  1  0  0  0  0
 23 24  1  0  0  0  0
 24 26  1  0  0  0  0
 24 25  1  0  0  0  0
 24 27  1  0  0  0  0
 25 26  1  0  0  0  0
 27 28  1  0  0  0  0
 28 29  1  0  0  0  0
 28 30  2  0  0  0  0
 31 32  1  0  0  0  0
 32 33  1  0  0  0  0
 33 38  1  0  0  0  0
 33 34  2  0  0  0  0
 34 35  1  0  0  0  0
 35 36  2  0  0  0  0
 36 37  1  0  0  0  0
 37 38  2  0  0  0  0
 38 39  1  0  0  0  0
 39 40  1  0  0  0  0
 39 41  1  0  0  0  0
 39 42  1  0  0  0  0
M  END
> <Index>
1659

> <ID>
HT1433

> <class>
1

> <apol>
94.190552

> <ast_fraglike>
0

> <ast_fraglike_ext>
0

> <ast_violation>
3

> <ast_violation_ext>
4

> <a_acc>
4

> <a_acid>
0

> <a_aro>
22

> <a_base>
0

> <a_count>
77

> <a_don>
3

> <a_donacc>
7

> <a_heavy>
41

> <a_hyd>
36

> <a_IC>
112.14547

> <a_ICM>
1.4564347

> <a_nB>
0

> <a_nBr>
0

> <a_nC>
35

> <a_nCl>
1

> <a_nF>
0

> <a_nH>
36

> <a_nI>
0

> <a_nN>
1

> <a_nO>
3

> <a_nP>
0

> <a_nS>
1

> <balabanJ>
1.1588976

> <BCUT_PEOE_0>
-2.6146958

> <BCUT_PEOE_1>
-0.57007474

> <BCUT_PEOE_2>
0.62663722

> <BCUT_PEOE_3>
2.8576491

> <BCUT_SLOGP_0>
-2.5055382

> <BCUT_SLOGP_1>
-0.4850747

> <BCUT_SLOGP_2>
0.74679071

> <BCUT_SLOGP_3>
2.9519398

> <BCUT_SMR_0>
-2.3388319

> <BCUT_SMR_1>
-0.42917046

> <BCUT_SMR_2>
0.81920135

> <BCUT_SMR_3>
3.118283

> <bpol>
44.33345

> <b_1rotN>
12

> <b_1rotR>
0.26666668

> <b_ar>
23

> <b_count>
81

> <b_double>
2

> <b_heavy>
45

> <b_max1len>
8

> <b_rotN>
12

> <b_rotR>
0.26666668

> <b_single>
56

> <b_triple>
0

> <chi0>
29.036959

> <chi0v>
25.088772

> <chi0v_C>
20.980246

> <chi0_C>
23.622746

> <chi1>
19.599905

> <chi1v>
15.514993

> <chi1v_C>
12.276362

> <chi1_C>
15.643109

> <chiral>
1

> <chiral_u>
0

> <density>
0.7322579

> <diameter>
17

> <FCharge>
0

> <GCUT_PEOE_0>
-0.79363519

> <GCUT_PEOE_1>
-0.39972088

> <GCUT_PEOE_2>
0.066793762

> <GCUT_PEOE_3>
2.9117949

> <GCUT_SLOGP_0>
-0.87274861

> <GCUT_SLOGP_1>
-0.26807359

> <GCUT_SLOGP_2>
0.14980321

> <GCUT_SLOGP_3>
3.058578

> <GCUT_SMR_0>
-0.52470982

> <GCUT_SMR_1>
-0.19882423

> <GCUT_SMR_2>
0.21181998

> <GCUT_SMR_3>
3.1981287

> <Kier1>
32.395061

> <Kier2>
14.4

> <Kier3>
8.8035364

> <KierA1>
26.727381

> <KierA2>
11.820738

> <KierA3>
7.2006135

> <KierFlex>
7.7057896

> <lip_acc>
4

> <lip_don>
2

> <lip_druglike>
0

> <lip_violation>
2

> <logP(o/w)>
9.1470003

> <logS>
-8.9109602

> <mr>
17.027489

> <mutagenic>
0

> <nmol>
1

> <opr_brigid>
27

> <opr_leadlike>
0

> <opr_nring>
5

> <opr_nrot>
12

> <opr_violation>
4

> <PC+>
0

> <PC->
0

> <PEOE_PC+>
2.5489318

> <PEOE_PC->
-2.5489318

> <PEOE_RPC+>
0.10206068

> <PEOE_RPC->
0.15084641

> <PEOE_VSA+0>
107.78032

> <PEOE_VSA+1>
77.37989

> <PEOE_VSA+2>
0.0

> <PEOE_VSA+3>
0.0

> <PEOE_VSA+4>
20.648346

> <PEOE_VSA+5>
14.708499

> <PEOE_VSA+6>
0.0

> <PEOE_VSA-0>
130.15439

> <PEOE_VSA-1>
164.38589

> <PEOE_VSA-2>
0.0

> <PEOE_VSA-3>
19.760618

> <PEOE_VSA-4>
5.6825762

> <PEOE_VSA-5>
13.566921

> <PEOE_VSA-6>
15.535081

> <PEOE_VSA_FHYD>
0.87685901

> <PEOE_VSA_FNEG>
0.612858

> <PEOE_VSA_FPNEG>
0.061068159

> <PEOE_VSA_FPOL>
0.123141

> <PEOE_VSA_FPOS>
0.387142

> <PEOE_VSA_FPPOS>
0.062072836

> <PEOE_VSA_HYD>
499.46109

> <PEOE_VSA_NEG>
349.08548

> <PEOE_VSA_PNEG>
34.784576

> <PEOE_VSA_POL>
70.141418

> <PEOE_VSA_POS>
220.51706

> <PEOE_VSA_PPOS>
35.356846

> <petitjean>
0.47058824

> <petitjeanSC>
0.8888889

> <Q_PC+>
0

> <Q_PC->
0

> <Q_RPC+>
0

> <Q_RPC->
0

> <Q_VSA_FHYD>
1

> <Q_VSA_FNEG>
0

> <Q_VSA_FPNEG>
0

> <Q_VSA_FPOL>
0

> <Q_VSA_FPOS>
1

> <Q_VSA_FPPOS>
0

> <Q_VSA_HYD>
569.60254

> <Q_VSA_NEG>
0

> <Q_VSA_PNEG>
0

> <Q_VSA_POL>
0

> <Q_VSA_POS>
569.60254

> <Q_VSA_PPOS>
0

> <radius>
9

> <reactive>
0

> <rings>
5

> <RPC+>
0

> <RPC->
0

> <rsynth>
1.0

> <SlogP>
9.35497

> <SlogP_VSA0>
25.385227

> <SlogP_VSA1>
24.530994

> <SlogP_VSA2>
23.862217

> <SlogP_VSA3>
42.61879

> <SlogP_VSA4>
15.499047

> <SlogP_VSA5>
18.868406

> <SlogP_VSA6>
3.5006065

> <SlogP_VSA7>
234.07849

> <SlogP_VSA8>
113.53594

> <SlogP_VSA9>
138.02022

> <SMR>
17.14786

> <SMR_VSA0>
23.862217

> <SMR_VSA1>
42.170757

> <SMR_VSA2>
25.385227

> <SMR_VSA3>
21.775608

> <SMR_VSA4>
4.7171016

> <SMR_VSA5>
323.70343

> <SMR_VSA6>
60.265396

> <SMR_VSA7>
138.02022

> <TPSA>
70.419998

> <VAdjEq>
0.30124658

> <VAdjMa>
6.4918532

> <VDistEq>
3.9933765

> <VDistMa>
10.441765

> <vdw_area>
569.60254

> <vdw_vol>
800.5321

> <vsa_acc>
5.6825762

> <vsa_acid>
0

> <vsa_base>
0

> <vsa_don>
0.0

> <vsa_hyd>
475.26007

> <vsa_other>
14.708499

> <vsa_pol>
46.383339

> <Weight>
586.19598

> <weinerPath>
6351

> <weinerPol>
62

> <zagreb>
220

$$$$
Row1659
 OpenBabel06061811532D

 31 35  0  0  1  0  0  0  0  0999 V2000
    0.0000    0.0000    0.0000 F   0  0  0  0  0  0  0  0  0  0  0  0
    0.0000    0.0000    0.0000 C   0  0  0  0  0  0  0  0  0  0  0  0
    0.0000    0.0000    0.0000 C   0  0  0  0  0  0  0  0  0  0  0  0
    0.0000    0.0000    0.0000 C   0  0  0  0  0  0  0  0  0  0  0  0
    0.0000    0.0000    0.0000 C   0  0  0  0  0  0  0  0  0  0  0  0
    0.0000    0.0000    0.0000 N   0  0  0  0  0  0  0  0  0  0  0  0
    0.0000    0.0000    0.0000 C   0  0  0  0  0  0  0  0  0  0  0  0
    0.0000    0.0000    0.0000 C   0  0  0  0  0  0  0  0  0  0  0  0
    0.0000    0.0000    0.0000 C   0  0  0  0  0  0  0  0  0  0  0  0
    0.0000    0.0000    0.0000 O   0  0  0  0  0  0  0  0  0  0  0  0
    0.0000    0.0000    0.0000 O   0  0  0  0  0  0  0  0  0  0  0  0
    0.0000    0.0000    0.0000 C   0  0  0  0  0  0  0  0  0  0  0  0
    0.0000    0.0000    0.0000 O   0  0  0  0  0  0  0  0  0  0  0  0
    0.0000    0.0000    0.0000 C   0  0  0  0  0  0  0  0  0  0  0  0
    0.0000    0.0000    0.0000 C   0  0  0  0  0  0  0  0  0  0  0  0
    0.0000    0.0000    0.0000 C   0  0  0  0  0  0  0  0  0  0  0  0
    0.0000    0.0000    0.0000 C   0  0  0  0  0  0  0  0  0  0  0  0
    0.0000    0.0000    0.0000 O   0  0  0  0  0  0  0  0  0  0  0  0
    0.0000    0.0000    0.0000 C   0  0  0  0  0  0  0  0  0  0  0  0
    0.0000    0.0000    0.0000 C   0  0  0  0  0  0  0  0  0  0  0  0
    0.0000    0.0000    0.0000 N   0  0  0  0  0  0  0  0  0  0  0  0
    0.0000    0.0000    0.0000 C   0  0  0  0  0  0  0  0  0  0  0  0
    0.0000    0.0000    0.0000 C   0  0  1  0  0  0  0  0  0  0  0  0
    0.0000    0.0000    0.0000 H   0  0  0  0  0  0  0  0  0  0  0  0
    0.0000    0.0000    0.0000 C   0  0  2  0  0  0  0  0  0  0  0  0
    0.0000    0.0000    0.0000 H   0  0  0  0  0  0  0  0  0  0  0  0
    0.0000    0.0000    0.0000 N   0  0  0  0  0  0  0  0  0  0  0  0
    0.0000    0.0000    0.0000 C   0  0  0  0  0  0  0  0  0  0  0  0
    0.0000    0.0000    0.0000 C   0  0  0  0  0  0  0  0  0  0  0  0
    0.0000    0.0000    0.0000 C   0  0  0  0  0  0  0  0  0  0  0  0
    0.0000    0.0000    0.0000 C   0  0  0  0  0  0  0  0  0  0  0  0
  1  2  1  0  0  0  0
  2 20  1  0  0  0  0
  2  3  2  0  0  0  0
  3  4  1  0  0  0  0
  4 12  1  0  0  0  0
  4  5  2  0  0  0  0
  5  6  1  0  0  0  0
  5 17  1  0  0  0  0
  6  7  1  0  0  0  0
  6 14  1  0  0  0  0
  7  8  2  0  0  0  0
  8  9  1  0  0  0  0
  8 12  1  0  0  0  0
  9 10  1  0  0  0  0
  9 11  2  0  0  0  0
 12 13  2  0  0  0  0
 14 16  1  0  0  0  0
 14 15  1  0  0  0  0
 15 16  1  0  0  0  0
 17 18  1  0  0  0  0
 17 20  2  0  0  0  0
 18 19  1  0  0  0  0
 20 21  1  0  0  0  0
 21 31  1  0  0  0  0
 21 22  1  0  0  0  0
 22 23  1  0  0  0  0
 23 24  1  0  0  0  0
 23 30  1  0  0  0  0
 23 25  1  0  0  0  0
 25 26  1  0  0  0  0
 25 27  1  0  0  0  0
 25 31  1  0  0  0  0
 27 28  1  0  0  0  0
 28 29  1  0  0  0  0
 29 30  1  0  0  0  0
M  END
> <Index>
1660

> <ID>
HT1438

> <class>
1

> <apol>
60.02803

> <ast_fraglike>
0

> <ast_fraglike_ext>
0

> <ast_violation>
2

> <ast_violation_ext>
3

> <a_acc>
5

> <a_acid>
0

> <a_aro>
6

> <a_base>
0

> <a_count>
53

> <a_don>
3

> <a_donacc>
8

> <a_heavy>
29

> <a_hyd>
20

> <a_IC>
88.547134

> <a_ICM>
1.6707006

> <a_nB>
0

> <a_nBr>
0

> <a_nC>
21

> <a_nCl>
0

> <a_nF>
1

> <a_nH>
24

> <a_nI>
0

> <a_nN>
3

> <a_nO>
4

> <a_nP>
0

> <a_nS>
0

> <balabanJ>
1.4179872

> <BCUT_PEOE_0>
-2.7637379

> <BCUT_PEOE_1>
-0.57996595

> <BCUT_PEOE_2>
0.58146167

> <BCUT_PEOE_3>
2.8090053

> <BCUT_SLOGP_0>
-2.8534329

> <BCUT_SLOGP_1>
-0.53348005

> <BCUT_SLOGP_2>
0.67511094

> <BCUT_SLOGP_3>
2.8135908

> <BCUT_SMR_0>
-2.5028527

> <BCUT_SMR_1>
-0.38867545

> <BCUT_SMR_2>
0.74861556

> <BCUT_SMR_3>
3.0799904

> <bpol>
35.891968

> <b_1rotN>
4

> <b_1rotR>
0.12121212

> <b_ar>
6

> <b_count>
57

> <b_double>
3

> <b_heavy>
33

> <b_max1len>
2

> <b_rotN>
4

> <b_rotR>
0.12121212

> <b_single>
48

> <b_triple>
0

> <chi0>
20.283728

> <chi0v>
16.280849

> <chi0v_C>
12.836499

> <chi0_C>
13.714814

> <chi1>
13.990402

> <chi1v>
10.162106

> <chi1v_C>
6.4906001

> <chi1_C>
7.432653

> <chiral>
2

> <chiral_u>
0

> <density>
0.78621143

> <diameter>
12

> <FCharge>
0

> <GCUT_PEOE_0>
-0.84508342

> <GCUT_PEOE_1>
-0.44673213

> <GCUT_PEOE_2>
0.089191727

> <GCUT_PEOE_3>
2.9308212

> <GCUT_SLOGP_0>
-1.1542289

> <GCUT_SLOGP_1>
-0.36342025

> <GCUT_SLOGP_2>
0.16220775

> <GCUT_SLOGP_3>
2.9693787

> <GCUT_SMR_0>
-0.52573335

> <GCUT_SMR_1>
-0.23321512

> <GCUT_SMR_2>
0.18359992

> <GCUT_SMR_3>
3.1947532

> <Kier1>
20.877869

> <Kier2>
8.1647997

> <Kier3>
3.4565377

> <KierA1>
16.686287

> <KierA2>
6.4701514

> <KierA3>
2.7219315

> <KierFlex>
3.7228553

> <lip_acc>
7

> <lip_don>
2

> <lip_druglike>
1

> <lip_violation>
0

> <logP(o/w)>
1.892

> <logS>
-3.4136801

> <mr>
10.363347

> <mutagenic>
0

> <nmol>
1

> <opr_brigid>
24

> <opr_leadlike>
1

> <opr_nring>
5

> <opr_nrot>
5

> <opr_violation>
1

> <PC+>
0

> <PC->
0

> <PEOE_PC+>
2.4293742

> <PEOE_PC->
-2.4293742

> <PEOE_RPC+>
0.1218129

> <PEOE_RPC->
0.1418691

> <PEOE_VSA+0>
149.14024

> <PEOE_VSA+1>
34.726032

> <PEOE_VSA+2>
28.306917

> <PEOE_VSA+3>
0.0

> <PEOE_VSA+4>
18.782692

> <PEOE_VSA+5>
14.708499

> <PEOE_VSA+6>
0.0

> <PEOE_VSA-0>
60.252483

> <PEOE_VSA-1>
0.0

> <PEOE_VSA-2>
0.0

> <PEOE_VSA-3>
0.0

> <PEOE_VSA-4>
11.908636

> <PEOE_VSA-5>
27.133842

> <PEOE_VSA-6>
10.408187

> <PEOE_VSA_FHYD>
0.76660264

> <PEOE_VSA_FNEG>
0.30870333

> <PEOE_VSA_FPNEG>
0.13915358

> <PEOE_VSA_FPOL>
0.23339739

> <PEOE_VSA_FPOS>
0.69129664

> <PEOE_VSA_FPPOS>
0.09424381

> <PEOE_VSA_HYD>
272.42569

> <PEOE_VSA_NEG>
109.70315

> <PEOE_VSA_PNEG>
49.450665

> <PEOE_VSA_POL>
82.941856

> <PEOE_VSA_POS>
245.66438

> <PEOE_VSA_PPOS>
33.491192

> <petitjean>
0.5

> <petitjeanSC>
1.0

> <Q_PC+>
0

> <Q_PC->
0

> <Q_RPC+>
0

> <Q_RPC->
0

> <Q_VSA_FHYD>
1

> <Q_VSA_FNEG>
0

> <Q_VSA_FPNEG>
0

> <Q_VSA_FPOL>
0

> <Q_VSA_FPOS>
1

> <Q_VSA_FPPOS>
0

> <Q_VSA_HYD>
355.36752

> <Q_VSA_NEG>
0

> <Q_VSA_PNEG>
0

> <Q_VSA_POL>
0

> <Q_VSA_POS>
355.36752

> <Q_VSA_PPOS>
0

> <radius>
6

> <reactive>
0

> <rings>
5

> <RPC+>
0

> <RPC->
0

> <rsynth>
0.7241379

> <SlogP>
2.1561

> <SlogP_VSA0>
35.259266

> <SlogP_VSA1>
13.433075

> <SlogP_VSA2>
40.94717

> <SlogP_VSA3>
80.703964

> <SlogP_VSA4>
31.458588

> <SlogP_VSA5>
38.569443

> <SlogP_VSA6>
0.0

> <SlogP_VSA7>
34.85754

> <SlogP_VSA8>
75.473625

> <SlogP_VSA9>
25.717037

> <SMR>
10.523

> <SMR_VSA0>
47.724434

> <SMR_VSA1>
25.960001

> <SMR_VSA2>
63.176418

> <SMR_VSA3>
19.578516

> <SMR_VSA4>
5.513495

> <SMR_VSA5>
110.33116

> <SMR_VSA6>
68.751808

> <SMR_VSA7>
35.383869

> <TPSA>
82.110001

> <VAdjEq>
0.39679351

> <VAdjMa>
6.044394

> <VDistEq>
3.3193138

> <VDistMa>
9.4594126

> <vdw_area>
355.36752

> <vdw_vol>
510.59799

> <vsa_acc>
16.070677

> <vsa_acid>
0

> <vsa_base>
0

> <vsa_don>
0.0

> <vsa_hyd>
258.71075

> <vsa_other>
23.167019

> <vsa_pol>
48.887096

> <Weight>
401.43799

> <weinerPath>
2006

> <weinerPol>
55

> <zagreb>
166

$$$$
Row1660
 OpenBabel06061811532D

 16 17  0  0  0  0  0  0  0  0999 V2000
    0.0000    0.0000    0.0000 Cl  0  0  0  0  0  0  0  0  0  0  0  0
    0.0000    0.0000    0.0000 C   0  0  0  0  0  0  0  0  0  0  0  0
    0.0000    0.0000    0.0000 N   0  0  0  0  0  0  0  0  0  0  0  0
    0.0000    0.0000    0.0000 C   0  0  0  0  0  0  0  0  0  0  0  0
    0.0000    0.0000    0.0000 N   0  0  0  0  0  0  0  0  0  0  0  0
    0.0000    0.0000    0.0000 C   0  0  0  0  0  0  0  0  0  0  0  0
    0.0000    0.0000    0.0000 O   0  0  0  0  0  0  0  0  0  0  0  0
    0.0000    0.0000    0.0000 C   0  0  0  0  0  0  0  0  0  0  0  0
    0.0000    0.0000    0.0000 C   0  0  0  0  0  0  0  0  0  0  0  0
    0.0000    0.0000    0.0000 N   0  0  0  0  0  0  0  0  0  0  0  0
    0.0000    0.0000    0.0000 C   0  0  0  0  0  0  0  0  0  0  0  0
    0.0000    0.0000    0.0000 N   0  0  0  0  0  0  0  0  0  0  0  0
    0.0000    0.0000    0.0000 C   0  0  0  0  0  0  0  0  0  0  0  0
    0.0000    0.0000    0.0000 C   0  0  0  0  0  0  0  0  0  0  0  0
    0.0000    0.0000    0.0000 N   0  0  0  0  0  0  0  0  0  0  0  0
    0.0000    0.0000    0.0000 C   0  0  0  0  0  0  0  0  0  0  0  0
  1  2  1  0  0  0  0
  2  9  1  0  0  0  0
  2  3  2  0  0  0  0
  3  4  1  0  0  0  0
  4  5  2  0  0  0  0
  4 16  1  0  0  0  0
  5  6  1  0  0  0  0
  6  7  1  0  0  0  0
  6  9  2  0  0  0  0
  7  8  1  0  0  0  0
  9 10  1  0  0  0  0
 10 11  1  0  0  0  0
 11 15  2  0  0  0  0
 11 12  1  0  0  0  0
 12 13  1  0  0  0  0
 13 14  1  0  0  0  0
 14 15  1  0  0  0  0
M  END
> <Index>
1661

> <ID>
HT1440

> <class>
1

> <apol>
32.323517

> <ast_fraglike>
1

> <ast_fraglike_ext>
1

> <ast_violation>
0

> <ast_violation_ext>
0

> <a_acc>
3

> <a_acid>
0

> <a_aro>
6

> <a_base>
0

> <a_count>
28

> <a_don>
2

> <a_donacc>
5

> <a_heavy>
16

> <a_hyd>
6

> <a_IC>
51.447422

> <a_ICM>
1.8374079

> <a_nB>
0

> <a_nBr>
0

> <a_nC>
9

> <a_nCl>
1

> <a_nF>
0

> <a_nH>
12

> <a_nI>
0

> <a_nN>
5

> <a_nO>
1

> <a_nP>
0

> <a_nS>
0

> <balabanJ>
1.9412476

> <BCUT_PEOE_0>
-2.3924232

> <BCUT_PEOE_1>
-0.36693561

> <BCUT_PEOE_2>
0.36871025

> <BCUT_PEOE_3>
2.4778178

> <BCUT_SLOGP_0>
-2.6166394

> <BCUT_SLOGP_1>
-0.29355332

> <BCUT_SLOGP_2>
0.43757787

> <BCUT_SLOGP_3>
2.3844502

> <BCUT_SMR_0>
-2.1279593

> <BCUT_SMR_1>
-0.11684354

> <BCUT_SMR_2>
0.54079479

> <BCUT_SMR_3>
2.7651634

> <bpol>
20.734484

> <b_1rotN>
2

> <b_1rotR>
0.11764706

> <b_ar>
6

> <b_count>
29

> <b_double>
1

> <b_heavy>
17

> <b_max1len>
2

> <b_rotN>
3

> <b_rotR>
0.17647059

> <b_single>
22

> <b_triple>
0

> <chi0>
11.543606

> <chi0v>
9.7979965

> <chi0v_C>
5.9142137

> <chi0_C>
6.3009648

> <chi1>
7.7027087

> <chi1v>
5.2171345

> <chi1v_C>
1.5

> <chi1_C>
1.7440169

> <chiral>
0

> <chiral_u>
0

> <density>
0.84030539

> <diameter>
8

> <FCharge>
0

> <GCUT_PEOE_0>
-0.84436125

> <GCUT_PEOE_1>
-0.41222042

> <GCUT_PEOE_2>
0.039187998

> <GCUT_PEOE_3>
2.2677014

> <GCUT_SLOGP_0>
-1.1700944

> <GCUT_SLOGP_1>
-0.42557523

> <GCUT_SLOGP_2>
0.15207312

> <GCUT_SLOGP_3>
2.3098931

> <GCUT_SMR_0>
-0.50484407

> <GCUT_SMR_1>
-0.13855599

> <GCUT_SMR_2>
0.18270259

> <GCUT_SMR_3>
2.5550468

> <Kier1>
12.456747

> <Kier2>
5.5576558

> <Kier3>
3.0297265

> <KierA1>
10.079264

> <KierA2>
4.4282856

> <KierA3>
2.3862703

> <KierFlex>
2.7896161

> <lip_acc>
6

> <lip_don>
2

> <lip_druglike>
1

> <lip_violation>
0

> <logP(o/w)>
0.597

> <logS>
-1.97414

> <mr>
6.0283689

> <mutagenic>
0

> <nmol>
1

> <opr_brigid>
11

> <opr_leadlike>
1

> <opr_nring>
2

> <opr_nrot>
3

> <opr_violation>
0

> <PC+>
0

> <PC->
0

> <PEOE_PC+>
1.7443836

> <PEOE_PC->
-1.7443836

> <PEOE_RPC+>
0.11338957

> <PEOE_RPC->
0.20296745

> <PEOE_VSA+0>
50.986141

> <PEOE_VSA+1>
43.050026

> <PEOE_VSA+2>
17.890114

> <PEOE_VSA+3>
54.87989

> <PEOE_VSA+4>
0.0

> <PEOE_VSA+5>
0.0

> <PEOE_VSA+6>
0.0

> <PEOE_VSA-0>
18.747677

> <PEOE_VSA-1>
29.581947

> <PEOE_VSA-2>
0.0

> <PEOE_VSA-3>
0.0

> <PEOE_VSA-4>
11.365152

> <PEOE_VSA-5>
5.6825762

> <PEOE_VSA-6>
2.7775381

> <PEOE_VSA_FHYD>
0.91562319

> <PEOE_VSA_FNEG>
0.29006886

> <PEOE_VSA_FPNEG>
0.084376819

> <PEOE_VSA_FPOL>
0.084376819

> <PEOE_VSA_FPOS>
0.70993114

> <PEOE_VSA_FPPOS>
0.0

> <PEOE_VSA_HYD>
215.13579

> <PEOE_VSA_NEG>
68.154892

> <PEOE_VSA_PNEG>
19.825266

> <PEOE_VSA_POL>
19.825266

> <PEOE_VSA_POS>
166.80617

> <PEOE_VSA_PPOS>
0.0

> <petitjean>
0.5

> <petitjeanSC>
1.0

> <Q_PC+>
0

> <Q_PC->
0

> <Q_RPC+>
0

> <Q_RPC->
0

> <Q_VSA_FHYD>
1

> <Q_VSA_FNEG>
0

> <Q_VSA_FPNEG>
0

> <Q_VSA_FPOL>
0

> <Q_VSA_FPOS>
1

> <Q_VSA_FPPOS>
0

> <Q_VSA_HYD>
234.96106

> <Q_VSA_NEG>
0

> <Q_VSA_PNEG>
0

> <Q_VSA_POL>
0

> <Q_VSA_POS>
234.96106

> <Q_VSA_PPOS>
0

> <radius>
4

> <reactive>
0

> <rings>
2

> <RPC+>
0

> <RPC->
0

> <rsynth>
1.0

> <SlogP>
0.81812

> <SlogP_VSA0>
29.010639

> <SlogP_VSA1>
53.480904

> <SlogP_VSA2>
0.0

> <SlogP_VSA3>
36.879158

> <SlogP_VSA4>
2.3279202

> <SlogP_VSA5>
52.169399

> <SlogP_VSA6>
3.0717793

> <SlogP_VSA7>
0.0

> <SlogP_VSA8>
0.0

> <SlogP_VSA9>
80.046005

> <SMR>
6.2258401

> <SMR_VSA0>
0.0

> <SMR_VSA1>
61.356476

> <SMR_VSA2>
18.01075

> <SMR_VSA3>
10.2143

> <SMR_VSA4>
20.767498

> <SMR_VSA5>
0.0

> <SMR_VSA6>
38.778248

> <SMR_VSA7>
107.85853

> <TPSA>
71.43

> <VAdjEq>
0.56510133

> <VAdjMa>
5.0874629

> <VDistEq>
2.799556

> <VDistMa>
7.7123823

> <vdw_area>
234.96106

> <vdw_vol>
287.61209

> <vsa_acc>
17.047728

> <vsa_acid>
0

> <vsa_base>
0

> <vsa_don>
11.365152

> <vsa_hyd>
141.94739

> <vsa_other>
51.336182

> <vsa_pol>
28.41288

> <Weight>
241.68199

> <weinerPath>
432

> <weinerPol>
21

> <zagreb>
80

$$$$
Row1661
 OpenBabel06061811532D

 31 33  0  0  0  0  0  0  0  0999 V2000
    0.0000    0.0000    0.0000 O   0  0  0  0  0  0  0  0  0  0  0  0
    0.0000    0.0000    0.0000 C   0  0  0  0  0  0  0  0  0  0  0  0
    0.0000    0.0000    0.0000 C   0  0  0  0  0  0  0  0  0  0  0  0
    0.0000    0.0000    0.0000 C   0  0  0  0  0  0  0  0  0  0  0  0
    0.0000    0.0000    0.0000 C   0  0  0  0  0  0  0  0  0  0  0  0
    0.0000    0.0000    0.0000 O   0  0  0  0  0  0  0  0  0  0  0  0
    0.0000    0.0000    0.0000 C   0  0  0  0  0  0  0  0  0  0  0  0
    0.0000    0.0000    0.0000 C   0  0  0  0  0  0  0  0  0  0  0  0
    0.0000    0.0000    0.0000 C   0  0  0  0  0  0  0  0  0  0  0  0
    0.0000    0.0000    0.0000 C   0  0  0  0  0  0  0  0  0  0  0  0
    0.0000    0.0000    0.0000 C   0  0  0  0  0  0  0  0  0  0  0  0
    0.0000    0.0000    0.0000 C   0  0  0  0  0  0  0  0  0  0  0  0
    0.0000    0.0000    0.0000 C   0  0  0  0  0  0  0  0  0  0  0  0
    0.0000    0.0000    0.0000 O   0  0  0  0  0  0  0  0  0  0  0  0
    0.0000    0.0000    0.0000 C   0  0  0  0  0  0  0  0  0  0  0  0
    0.0000    0.0000    0.0000 C   0  0  0  0  0  0  0  0  0  0  0  0
    0.0000    0.0000    0.0000 N   0  0  0  0  0  0  0  0  0  0  0  0
    0.0000    0.0000    0.0000 C   0  0  0  0  0  0  0  0  0  0  0  0
    0.0000    0.0000    0.0000 C   0  0  0  0  0  0  0  0  0  0  0  0
    0.0000    0.0000    0.0000 O   0  0  0  0  0  0  0  0  0  0  0  0
    0.0000    0.0000    0.0000 C   0  0  0  0  0  0  0  0  0  0  0  0
    0.0000    0.0000    0.0000 C   0  0  0  0  0  0  0  0  0  0  0  0
    0.0000    0.0000    0.0000 O   0  0  0  0  0  0  0  0  0  0  0  0
    0.0000    0.0000    0.0000 C   0  0  0  0  0  0  0  0  0  0  0  0
    0.0000    0.0000    0.0000 C   0  0  0  0  0  0  0  0  0  0  0  0
    0.0000    0.0000    0.0000 O   0  0  0  0  0  0  0  0  0  0  0  0
    0.0000    0.0000    0.0000 C   0  0  0  0  0  0  0  0  0  0  0  0
    0.0000    0.0000    0.0000 C   0  0  0  0  0  0  0  0  0  0  0  0
    0.0000    0.0000    0.0000 C   0  0  0  0  0  0  0  0  0  0  0  0
    0.0000    0.0000    0.0000 C   0  0  0  0  0  0  0  0  0  0  0  0
    0.0000    0.0000    0.0000 O   0  0  0  0  0  0  0  0  0  0  0  0
  1 30  1  0  0  0  0
  1  2  1  0  0  0  0
  2  3  1  0  0  0  0
  3 28  1  0  0  0  0
  3  4  2  0  0  0  0
  4  5  1  0  0  0  0
  4 30  1  0  0  0  0
  5  6  1  0  0  0  0
  5  7  2  0  0  0  0
  7  8  1  0  0  0  0
  7 25  1  0  0  0  0
  8  9  1  0  0  0  0
  9 10  2  3  0  0  0
 10 11  1  0  0  0  0
 10 24  1  0  0  0  0
 11 12  1  0  0  0  0
 12 13  1  0  0  0  0
 13 14  1  0  0  0  0
 13 23  2  0  0  0  0
 14 15  1  0  0  0  0
 15 16  1  0  0  0  0
 16 17  1  0  0  0  0
 17 22  1  0  0  0  0
 17 18  1  0  0  0  0
 18 19  1  0  0  0  0
 19 20  1  0  0  0  0
 20 21  1  0  0  0  0
 21 22  1  0  0  0  0
 25 26  1  0  0  0  0
 25 28  2  0  0  0  0
 26 27  1  0  0  0  0
 28 29  1  0  0  0  0
 30 31  2  0  0  0  0
M  END
> <Index>
1662

> <ID>
HT1442

> <class>
1

> <apol>
67.864586

> <ast_fraglike>
0

> <ast_fraglike_ext>
0

> <ast_violation>
2

> <ast_violation_ext>
3

> <a_acc>
6

> <a_acid>
0

> <a_aro>
6

> <a_base>
0

> <a_count>
62

> <a_don>
1

> <a_donacc>
7

> <a_heavy>
31

> <a_hyd>
21

> <a_IC>
91.886673

> <a_ICM>
1.4820431

> <a_nB>
0

> <a_nBr>
0

> <a_nC>
23

> <a_nCl>
0

> <a_nF>
0

> <a_nH>
31

> <a_nI>
0

> <a_nN>
1

> <a_nO>
7

> <a_nP>
0

> <a_nS>
0

> <balabanJ>
1.3701863

> <BCUT_PEOE_0>
-2.717108

> <BCUT_PEOE_1>
-0.22683236

> <BCUT_PEOE_2>
0.060382552

> <BCUT_PEOE_3>
2.6442499

> <BCUT_SLOGP_0>
-2.8362839

> <BCUT_SLOGP_1>
-0.078190193

> <BCUT_SLOGP_2>
0.13217179

> <BCUT_SLOGP_3>
2.6188197

> <BCUT_SMR_0>
-2.4519973

> <BCUT_SMR_1>
0.051180623

> <BCUT_SMR_2>
0.20667723

> <BCUT_SMR_3>
2.8971598

> <bpol>
45.449417

> <b_1rotN>
9

> <b_1rotR>
0.27272728

> <b_ar>
6

> <b_count>
64

> <b_double>
3

> <b_heavy>
33

> <b_max1len>
5

> <b_rotN>
10

> <b_rotR>
0.30303031

> <b_single>
55

> <b_triple>
0

> <chi0>
22.380104

> <chi0v>
18.492334

> <chi0v_C>
15.148418

> <chi0_C>
15.974327

> <chi1>
14.917923

> <chi1v>
10.616997

> <chi1v_C>
6.8611369

> <chi1_C>
8.0292749

> <chiral>
0

> <chiral_u>
0

> <density>
0.74497455

> <diameter>
17

> <FCharge>
0

> <GCUT_PEOE_0>
-0.84337306

> <GCUT_PEOE_1>
-0.38604686

> <GCUT_PEOE_2>
-0.099617444

> <GCUT_PEOE_3>
2.7263722

> <GCUT_SLOGP_0>
-0.96267354

> <GCUT_SLOGP_1>
-0.27932385

> <GCUT_SLOGP_2>
-0.037

> <GCUT_SLOGP_3>
2.8124416

> <GCUT_SMR_0>
-0.51679295

> <GCUT_SMR_1>
-0.12941736

> <GCUT_SMR_2>
-0.025913494

> <GCUT_SMR_3>
2.9769895

> <Kier1>
25.619835

> <Kier2>
12.459259

> <Kier3>
6.7566791

> <KierA1>
21.684061

> <KierA2>
10.483671

> <KierA3>
5.6609983

> <KierFlex>
7.3331795

> <lip_acc>
8

> <lip_don>
1

> <lip_druglike>
1

> <lip_violation>
0

> <logP(o/w)>
1.937

> <logS>
-3.59744

> <mr>
11.545483

> <mutagenic>
0

> <nmol>
1

> <opr_brigid>
17

> <opr_leadlike>
1

> <opr_nring>
3

> <opr_nrot>
11

> <opr_violation>
1

> <PC+>
0

> <PC->
0

> <PEOE_PC+>
2.8024127

> <PEOE_PC->
-2.8024127

> <PEOE_RPC+>
0.1059699

> <PEOE_RPC->
0.13461347

> <PEOE_VSA+0>
152.26143

> <PEOE_VSA+1>
130.11539

> <PEOE_VSA+2>
0.0

> <PEOE_VSA+3>
0.0

> <PEOE_VSA+4>
10.324173

> <PEOE_VSA+5>
29.416998

> <PEOE_VSA+6>
0.0

> <PEOE_VSA-0>
59.31506

> <PEOE_VSA-1>
14.463444

> <PEOE_VSA-2>
0.0

> <PEOE_VSA-3>
0.0

> <PEOE_VSA-4>
0.0

> <PEOE_VSA-5>
27.133842

> <PEOE_VSA-6>
17.782564

> <PEOE_VSA_FHYD>
0.80795121

> <PEOE_VSA_FNEG>
0.26926368

> <PEOE_VSA_FPNEG>
0.10189449

> <PEOE_VSA_FPOL>
0.19204877

> <PEOE_VSA_FPOS>
0.73073632

> <PEOE_VSA_FPPOS>
0.090154283

> <PEOE_VSA_HYD>
356.15533

> <PEOE_VSA_NEG>
118.69491

> <PEOE_VSA_PNEG>
44.916405

> <PEOE_VSA_POL>
84.657578

> <PEOE_VSA_POS>
322.11798

> <PEOE_VSA_PPOS>
39.741173

> <petitjean>
0.47058824

> <petitjeanSC>
0.8888889

> <Q_PC+>
0

> <Q_PC->
0

> <Q_RPC+>
0

> <Q_RPC->
0

> <Q_VSA_FHYD>
1

> <Q_VSA_FNEG>
0

> <Q_VSA_FPNEG>
0

> <Q_VSA_FPOL>
0

> <Q_VSA_FPOS>
1

> <Q_VSA_FPPOS>
0

> <Q_VSA_HYD>
440.8129

> <Q_VSA_NEG>
0

> <Q_VSA_PNEG>
0

> <Q_VSA_POL>
0

> <Q_VSA_POS>
440.8129

> <Q_VSA_PPOS>
0

> <radius>
9

> <reactive>
1

> <rings>
3

> <RPC+>
0

> <RPC->
0

> <rsynth>
1.0

> <SlogP>
2.79039

> <SlogP_VSA0>
36.385113

> <SlogP_VSA1>
18.615242

> <SlogP_VSA2>
56.861881

> <SlogP_VSA3>
118.09751

> <SlogP_VSA4>
36.604515

> <SlogP_VSA5>
57.437847

> <SlogP_VSA6>
0.0

> <SlogP_VSA7>
17.643185

> <SlogP_VSA8>
37.736813

> <SlogP_VSA9>
98.065147

> <SMR>
11.36333

> <SMR_VSA0>
80.724098

> <SMR_VSA1>
39.50943

> <SMR_VSA2>
0.0

> <SMR_VSA3>
26.41473

> <SMR_VSA4>
0.0

> <SMR_VSA5>
95.17466

> <SMR_VSA6>
133.58844

> <SMR_VSA7>
102.0359

> <TPSA>
94.529999

> <VAdjEq>
0.36097246

> <VAdjMa>
6.044394

> <VDistEq>
3.9308181

> <VDistMa>
9.572176

> <vdw_area>
440.8129

> <vdw_vol>
581.90039

> <vsa_acc>
32.141354

> <vsa_acid>
0

> <vsa_base>
0

> <vsa_don>
0.0

> <vsa_hyd>
334.80145

> <vsa_other>
34.424511

> <vsa_pol>
45.708275

> <Weight>
433.50098

> <weinerPath>
3259

> <weinerPol>
48

> <zagreb>
156

$$$$
Row1662
 OpenBabel06061811532D

 17 18  0  0  0  0  0  0  0  0999 V2000
    0.0000    0.0000    0.0000 O   0  0  0  0  0  0  0  0  0  0  0  0
    0.0000    0.0000    0.0000 C   0  0  0  0  0  0  0  0  0  0  0  0
    0.0000    0.0000    0.0000 C   0  0  0  0  0  0  0  0  0  0  0  0
    0.0000    0.0000    0.0000 C   0  0  0  0  0  0  0  0  0  0  0  0
    0.0000    0.0000    0.0000 C   0  0  0  0  0  0  0  0  0  0  0  0
    0.0000    0.0000    0.0000 C   0  0  0  0  0  0  0  0  0  0  0  0
    0.0000    0.0000    0.0000 C   0  0  0  0  0  0  0  0  0  0  0  0
    0.0000    0.0000    0.0000 C   0  0  0  0  0  0  0  0  0  0  0  0
    0.0000    0.0000    0.0000 C   0  0  0  0  0  0  0  0  0  0  0  0
    0.0000    0.0000    0.0000 C   0  0  0  0  0  0  0  0  0  0  0  0
    0.0000    0.0000    0.0000 C   0  0  0  0  0  0  0  0  0  0  0  0
    0.0000    0.0000    0.0000 C   0  0  0  0  0  0  0  0  0  0  0  0
    0.0000    0.0000    0.0000 C   0  0  0  0  0  0  0  0  0  0  0  0
    0.0000    0.0000    0.0000 O   0  0  0  0  0  0  0  0  0  0  0  0
    0.0000    0.0000    0.0000 C   0  0  0  0  0  0  0  0  0  0  0  0
    0.0000    0.0000    0.0000 C   0  0  0  0  0  0  0  0  0  0  0  0
    0.0000    0.0000    0.0000 C   0  0  0  0  0  0  0  0  0  0  0  0
  1  2  1  0  0  0  0
  1  3  1  0  0  0  0
  3 17  1  0  0  0  0
  3  4  2  0  0  0  0
  4  5  1  0  0  0  0
  5 10  1  0  0  0  0
  5  6  2  0  0  0  0
  6  7  1  0  0  0  0
  6 16  1  0  0  0  0
  7  8  2  0  0  0  0
  8  9  1  0  0  0  0
  8 11  1  0  0  0  0
  9 10  2  0  0  0  0
 11 12  1  0  0  0  0
 12 13  1  0  0  0  0
 13 14  2  0  0  0  0
 13 15  1  0  0  0  0
 16 17  2  0  0  0  0
M  END
> <Index>
1663

> <ID>
HT1447

> <class>
1

> <apol>
38.672688

> <ast_fraglike>
0

> <ast_fraglike_ext>
0

> <ast_violation>
1

> <ast_violation_ext>
2

> <a_acc>
2

> <a_acid>
0

> <a_aro>
10

> <a_base>
0

> <a_count>
33

> <a_don>
0

> <a_donacc>
2

> <a_heavy>
17

> <a_hyd>
14

> <a_IC>
41.861649

> <a_ICM>
1.2685348

> <a_nB>
0

> <a_nBr>
0

> <a_nC>
15

> <a_nCl>
0

> <a_nF>
0

> <a_nH>
16

> <a_nI>
0

> <a_nN>
0

> <a_nO>
2

> <a_nP>
0

> <a_nS>
0

> <balabanJ>
1.7782995

> <BCUT_PEOE_0>
-2.4584222

> <BCUT_PEOE_1>
-0.58617449

> <BCUT_PEOE_2>
0.44741899

> <BCUT_PEOE_3>
2.4749813

> <BCUT_SLOGP_0>
-2.4265659

> <BCUT_SLOGP_1>
-0.53105372

> <BCUT_SLOGP_2>
0.52749443

> <BCUT_SLOGP_3>
2.5291622

> <BCUT_SMR_0>
-2.2072961

> <BCUT_SMR_1>
-0.3495771

> <BCUT_SMR_2>
0.67764133

> <BCUT_SMR_3>
2.7344222

> <bpol>
20.365313

> <b_1rotN>
4

> <b_1rotR>
0.22222222

> <b_ar>
11

> <b_count>
34

> <b_double>
1

> <b_heavy>
18

> <b_max1len>
5

> <b_rotN>
4

> <b_rotR>
0.22222222

> <b_single>
22

> <b_triple>
0

> <chi0>
12.250712

> <chi0v>
10.194812

> <chi0v_C>
9.378315

> <chi0_C>
10.543606

> <chi1>
8.1858721

> <chi1v>
5.749671

> <chi1v_C>
4.9331746

> <chi1_C>
6.4931664

> <chiral>
0

> <chiral_u>
0

> <density>
0.68172354

> <diameter>
11

> <FCharge>
0

> <GCUT_PEOE_0>
-0.78936958

> <GCUT_PEOE_1>
-0.42884243

> <GCUT_PEOE_2>
-0.02823361

> <GCUT_PEOE_3>
2.4284029

> <GCUT_SLOGP_0>
-0.88673663

> <GCUT_SLOGP_1>
-0.30695269

> <GCUT_SLOGP_2>
0.079536863

> <GCUT_SLOGP_3>
2.5855238

> <GCUT_SMR_0>
-0.50196379

> <GCUT_SMR_1>
-0.20780252

> <GCUT_SMR_2>
0.15728205

> <GCUT_SMR_3>
2.7304916

> <Kier1>
13.432098

> <Kier2>
6.25

> <Kier3>
3.7288942

> <KierA1>
9.8559999

> <KierA2>
4.4889998

> <KierA3>
2.6327515

> <KierFlex>
2.6025639

> <lip_acc>
2

> <lip_don>
0

> <lip_druglike>
1

> <lip_violation>
0

> <logP(o/w)>
3.187

> <logS>
-3.5688

> <mr>
6.9476504

> <mutagenic>
0

> <nmol>
1

> <opr_brigid>
11

> <opr_leadlike>
1

> <opr_nring>
2

> <opr_nrot>
4

> <opr_violation>
0

> <PC+>
0

> <PC->
0

> <PEOE_PC+>
1.0210576

> <PEOE_PC->
-1.0210576

> <PEOE_RPC+>
0.12793639

> <PEOE_RPC->
0.34071866

> <PEOE_VSA+0>
63.556671

> <PEOE_VSA+1>
46.846992

> <PEOE_VSA+2>
8.458519

> <PEOE_VSA+3>
0.0

> <PEOE_VSA+4>
0.0

> <PEOE_VSA+5>
0.0

> <PEOE_VSA+6>
0.0

> <PEOE_VSA-0>
58.584419

> <PEOE_VSA-1>
49.019615

> <PEOE_VSA-2>
0.0

> <PEOE_VSA-3>
0.0

> <PEOE_VSA-4>
0.0

> <PEOE_VSA-5>
13.566921

> <PEOE_VSA-6>
2.503756

> <PEOE_VSA_FHYD>
0.93373924

> <PEOE_VSA_FNEG>
0.50992119

> <PEOE_VSA_FPNEG>
0.066260755

> <PEOE_VSA_FPOL>
0.066260755

> <PEOE_VSA_FPOS>
0.49007878

> <PEOE_VSA_FPPOS>
0.0

> <PEOE_VSA_HYD>
226.46622

> <PEOE_VSA_NEG>
123.67471

> <PEOE_VSA_PNEG>
16.070677

> <PEOE_VSA_POL>
16.070677

> <PEOE_VSA_POS>
118.86218

> <PEOE_VSA_PPOS>
0.0

> <petitjean>
0.45454547

> <petitjeanSC>
0.83333331

> <Q_PC+>
0

> <Q_PC->
0

> <Q_RPC+>
0

> <Q_RPC->
0

> <Q_VSA_FHYD>
1

> <Q_VSA_FNEG>
0

> <Q_VSA_FPNEG>
0

> <Q_VSA_FPOL>
0

> <Q_VSA_FPOS>
1

> <Q_VSA_FPPOS>
0

> <Q_VSA_HYD>
242.5369

> <Q_VSA_NEG>
0

> <Q_VSA_PNEG>
0

> <Q_VSA_POL>
0

> <Q_VSA_POS>
242.5369

> <Q_VSA_PPOS>
0

> <radius>
6

> <reactive>
1

> <rings>
2

> <RPC+>
0

> <RPC->
0

> <rsynth>
0.05882353

> <SlogP>
3.3699701

> <SlogP_VSA0>
10.999887

> <SlogP_VSA1>
5.6876111

> <SlogP_VSA2>
23.862217

> <SlogP_VSA3>
0.0

> <SlogP_VSA4>
3.185575

> <SlogP_VSA5>
54.252274

> <SlogP_VSA6>
0.0

> <SlogP_VSA7>
111.00504

> <SlogP_VSA8>
18.868406

> <SlogP_VSA9>
38.569443

> <SMR>
6.9502001

> <SMR_VSA0>
23.862217

> <SMR_VSA1>
10.999887

> <SMR_VSA2>
0.0

> <SMR_VSA3>
8.4290028

> <SMR_VSA4>
5.1459289

> <SMR_VSA5>
143.59592

> <SMR_VSA6>
5.6876111

> <SMR_VSA7>
68.709885

> <TPSA>
26.299999

> <VAdjEq>
0.54234898

> <VAdjMa>
5.1699252

> <VDistEq>
3.159863

> <VDistMa>
7.8337398

> <vdw_area>
242.5369

> <vdw_vol>
334.87326

> <vsa_acc>
16.070677

> <vsa_acid>
0

> <vsa_base>
0

> <vsa_don>
0.0

> <vsa_hyd>
206.61897

> <vsa_other>
8.458519

> <vsa_pol>
16.070677

> <Weight>
228.291

> <weinerPath>
566

> <weinerPol>
23

> <zagreb>
84

$$$$
Row1663
 OpenBabel06061811532D

 17 18  0  0  0  0  0  0  0  0999 V2000
    0.0000    0.0000    0.0000 O   0  0  0  0  0  0  0  0  0  0  0  0
    0.0000    0.0000    0.0000 C   0  0  0  0  0  0  0  0  0  0  0  0
    0.0000    0.0000    0.0000 C   0  0  0  0  0  0  0  0  0  0  0  0
    0.0000    0.0000    0.0000 C   0  0  0  0  0  0  0  0  0  0  0  0
    0.0000    0.0000    0.0000 C   0  0  0  0  0  0  0  0  0  0  0  0
    0.0000    0.0000    0.0000 C   0  0  0  0  0  0  0  0  0  0  0  0
    0.0000    0.0000    0.0000 N   0  0  0  0  0  0  0  0  0  0  0  0
    0.0000    0.0000    0.0000 C   0  0  0  0  0  0  0  0  0  0  0  0
    0.0000    0.0000    0.0000 N   0  0  0  0  0  0  0  0  0  0  0  0
    0.0000    0.0000    0.0000 C   0  0  0  0  0  0  0  0  0  0  0  0
    0.0000    0.0000    0.0000 C   0  0  0  0  0  0  0  0  0  0  0  0
    0.0000    0.0000    0.0000 C   0  0  0  0  0  0  0  0  0  0  0  0
    0.0000    0.0000    0.0000 O   0  0  0  0  0  0  0  0  0  0  0  0
    0.0000    0.0000    0.0000 O   0  0  0  0  0  0  0  0  0  0  0  0
    0.0000    0.0000    0.0000 C   0  0  0  0  0  0  0  0  0  0  0  0
    0.0000    0.0000    0.0000 C   0  0  0  0  0  0  0  0  0  0  0  0
    0.0000    0.0000    0.0000 C   0  0  0  0  0  0  0  0  0  0  0  0
  1  2  2  0  0  0  0
  2 11  1  0  0  0  0
  2  3  1  0  0  0  0
  3  8  1  0  0  0  0
  3  4  2  0  0  0  0
  4  5  1  0  0  0  0
  5  6  2  0  0  0  0
  6  7  1  0  0  0  0
  6 17  1  0  0  0  0
  7  8  2  0  0  0  0
  8  9  1  0  0  0  0
  9 10  1  0  0  0  0
  9 15  1  0  0  0  0
 10 11  2  0  0  0  0
 11 12  1  0  0  0  0
 12 13  1  0  0  0  0
 12 14  2  0  0  0  0
 15 16  1  0  0  0  0
M  END
> <Index>
1664

> <ID>
HT1456

> <class>
1

> <apol>
33.727516

> <ast_fraglike>
0

> <ast_fraglike_ext>
0

> <ast_violation>
1

> <ast_violation_ext>
1

> <a_acc>
4

> <a_acid>
0

> <a_aro>
6

> <a_base>
0

> <a_count>
29

> <a_don>
2

> <a_donacc>
6

> <a_heavy>
17

> <a_hyd>
9

> <a_IC>
48.08746

> <a_ICM>
1.6581883

> <a_nB>
0

> <a_nBr>
0

> <a_nC>
12

> <a_nCl>
0

> <a_nF>
0

> <a_nH>
12

> <a_nI>
0

> <a_nN>
2

> <a_nO>
3

> <a_nP>
0

> <a_nS>
0

> <balabanJ>
2.162838

> <BCUT_PEOE_0>
-2.4954002

> <BCUT_PEOE_1>
-0.52441311

> <BCUT_PEOE_2>
0.51580411

> <BCUT_PEOE_3>
2.456486

> <BCUT_SLOGP_0>
-2.5341682

> <BCUT_SLOGP_1>
-0.49504146

> <BCUT_SLOGP_2>
0.51487356

> <BCUT_SLOGP_3>
2.4640496

> <BCUT_SMR_0>
-2.2059402

> <BCUT_SMR_1>
-0.30786291

> <BCUT_SMR_2>
0.68476462

> <BCUT_SMR_3>
2.7552049

> <bpol>
18.334484

> <b_1rotN>
2

> <b_1rotR>
0.11111111

> <b_ar>
6

> <b_count>
30

> <b_double>
3

> <b_heavy>
18

> <b_max1len>
3

> <b_rotN>
2

> <b_rotR>
0.11111111

> <b_single>
21

> <b_triple>
0

> <chi0>
12.576985

> <chi0v>
9.5972948

> <chi0v_C>
7.4391575

> <chi0_C>
8.2925291

> <chi1>
8.0409126

> <chi1v>
5.2835674

> <chi1v_C>
3.4064655

> <chi1_C>
4.342535

> <chiral>
0

> <chiral_u>
0

> <density>
0.77468878

> <diameter>
8

> <FCharge>
0

> <GCUT_PEOE_0>
-0.80557245

> <GCUT_PEOE_1>
-0.46330404

> <GCUT_PEOE_2>
0.063839339

> <GCUT_PEOE_3>
2.4175646

> <GCUT_SLOGP_0>
-0.94483024

> <GCUT_SLOGP_1>
-0.37907791

> <GCUT_SLOGP_2>
0.075625733

> <GCUT_SLOGP_3>
2.4552777

> <GCUT_SMR_0>
-0.50736779

> <GCUT_SMR_1>
-0.2130059

> <GCUT_SMR_2>
0.20795289

> <GCUT_SMR_3>
2.7018373

> <Kier1>
13.432098

> <Kier2>
5.3254437

> <Kier3>
2.5599999

> <KierA1>
9.3622561

> <KierA2>
3.6196055

> <KierA3>
1.7051905

> <KierFlex>
1.9933926

> <lip_acc>
5

> <lip_don>
1

> <lip_druglike>
1

> <lip_violation>
0

> <logP(o/w)>
0.75999999

> <logS>
-1.7377599

> <mr>
6.2170696

> <mutagenic>
0

> <nmol>
1

> <opr_brigid>
11

> <opr_leadlike>
1

> <opr_nring>
2

> <opr_nrot>
2

> <opr_violation>
0

> <PC+>
0

> <PC->
0

> <PEOE_PC+>
1.5065025

> <PEOE_PC->
-1.5065025

> <PEOE_RPC+>
0.19643527

> <PEOE_RPC->
0.21730745

> <PEOE_VSA+0>
70.76088

> <PEOE_VSA+1>
15.004698

> <PEOE_VSA+2>
13.399102

> <PEOE_VSA+3>
0.0

> <PEOE_VSA+4>
18.782692

> <PEOE_VSA+5>
14.708499

> <PEOE_VSA+6>
0.0

> <PEOE_VSA-0>
43.257484

> <PEOE_VSA-1>
18.747677

> <PEOE_VSA-2>
0.0

> <PEOE_VSA-3>
0.0

> <PEOE_VSA-4>
5.6825762

> <PEOE_VSA-5>
27.133842

> <PEOE_VSA-6>
7.7675405

> <PEOE_VSA_FHYD>
0.68511486

> <PEOE_VSA_FNEG>
0.43609482

> <PEOE_VSA_FPNEG>
0.17251784

> <PEOE_VSA_FPOL>
0.31488514

> <PEOE_VSA_FPOS>
0.56390518

> <PEOE_VSA_FPPOS>
0.14236729

> <PEOE_VSA_HYD>
161.16985

> <PEOE_VSA_NEG>
102.58912

> <PEOE_VSA_PNEG>
40.583958

> <PEOE_VSA_POL>
74.07515

> <PEOE_VSA_POS>
132.65587

> <PEOE_VSA_PPOS>
33.491192

> <petitjean>
0.5

> <petitjeanSC>
1.0

> <Q_PC+>
0

> <Q_PC->
0

> <Q_RPC+>
0

> <Q_RPC->
0

> <Q_VSA_FHYD>
1

> <Q_VSA_FNEG>
0

> <Q_VSA_FPNEG>
0

> <Q_VSA_FPOL>
0

> <Q_VSA_FPOS>
1

> <Q_VSA_FPPOS>
0

> <Q_VSA_HYD>
235.245

> <Q_VSA_NEG>
0

> <Q_VSA_PNEG>
0

> <Q_VSA_POL>
0

> <Q_VSA_POS>
235.245

> <Q_VSA_PPOS>
0

> <radius>
4

> <reactive>
0

> <rings>
2

> <RPC+>
0

> <RPC->
0

> <rsynth>
1.0

> <SlogP>
1.38112

> <SlogP_VSA0>
3.1243138

> <SlogP_VSA1>
30.218605

> <SlogP_VSA2>
23.862217

> <SlogP_VSA3>
43.824806

> <SlogP_VSA4>
29.804539

> <SlogP_VSA5>
3.185575

> <SlogP_VSA6>
0.0

> <SlogP_VSA7>
52.500725

> <SlogP_VSA8>
0.0

> <SlogP_VSA9>
68.97995

> <SMR>
6.20433

> <SMR_VSA0>
47.724434

> <SMR_VSA1>
16.78553

> <SMR_VSA2>
28.509541

> <SMR_VSA3>
9.1278973

> <SMR_VSA4>
2.3279202

> <SMR_VSA5>
52.500725

> <SMR_VSA6>
31.872654

> <SMR_VSA7>
66.652031

> <TPSA>
70.5

> <VAdjEq>
0.54234898

> <VAdjMa>
5.1699252

> <VDistEq>
2.7008748

> <VDistMa>
7.9123545

> <vdw_area>
235.245

> <vdw_vol>
299.7836

> <vsa_acc>
19.249496

> <vsa_acid>
0

> <vsa_base>
0

> <vsa_don>
0.0

> <vsa_hyd>
142.14954

> <vsa_other>
34.357582

> <vsa_pol>
46.383339

> <Weight>
232.239

> <weinerPath>
470

> <weinerPol>
29

> <zagreb>
88

$$$$
Row1664
 OpenBabel06061811532D

 36 39  0  0  1  0  0  0  0  0999 V2000
    0.0000    0.0000    0.0000 O   0  0  0  0  0  0  0  0  0  0  0  0
    0.0000    0.0000    0.0000 C   0  0  0  0  0  0  0  0  0  0  0  0
    0.0000    0.0000    0.0000 C   0  0  0  0  0  0  0  0  0  0  0  0
    0.0000    0.0000    0.0000 C   0  0  0  0  0  0  0  0  0  0  0  0
    0.0000    0.0000    0.0000 C   0  0  2  0  0  0  0  0  0  0  0  0
    0.0000    0.0000    0.0000 H   0  0  0  0  0  0  0  0  0  0  0  0
    0.0000    0.0000    0.0000 C   0  0  2  0  0  0  0  0  0  0  0  0
    0.0000    0.0000    0.0000 H   0  0  0  0  0  0  0  0  0  0  0  0
    0.0000    0.0000    0.0000 C   0  0  2  0  0  0  0  0  0  0  0  0
    0.0000    0.0000    0.0000 H   0  0  0  0  0  0  0  0  0  0  0  0
    0.0000    0.0000    0.0000 C   0  0  2  0  0  0  0  0  0  0  0  0
    0.0000    0.0000    0.0000 H   0  0  0  0  0  0  0  0  0  0  0  0
    0.0000    0.0000    0.0000 C   0  0  0  0  0  0  0  0  0  0  0  0
    0.0000    0.0000    0.0000 C   0  0  0  0  0  0  0  0  0  0  0  0
    0.0000    0.0000    0.0000 C   0  0  2  0  0  0  0  0  0  0  0  0
    0.0000    0.0000    0.0000 H   0  0  0  0  0  0  0  0  0  0  0  0
    0.0000    0.0000    0.0000 O   0  0  0  0  0  0  0  0  0  0  0  0
    0.0000    0.0000    0.0000 C   0  0  0  0  0  0  0  0  0  0  0  0
    0.0000    0.0000    0.0000 O   0  0  0  0  0  0  0  0  0  0  0  0
    0.0000    0.0000    0.0000 C   0  0  0  0  0  0  0  0  0  0  0  0
    0.0000    0.0000    0.0000 C   0  0  0  0  0  0  0  0  0  0  0  0
    0.0000    0.0000    0.0000 C   0  0  0  0  0  0  0  0  0  0  0  0
    0.0000    0.0000    0.0000 C   0  0  0  0  0  0  0  0  0  0  0  0
    0.0000    0.0000    0.0000 C   0  0  0  0  0  0  0  0  0  0  0  0
    0.0000    0.0000    0.0000 C   0  0  0  0  0  0  0  0  0  0  0  0
    0.0000    0.0000    0.0000 C   0  0  0  0  0  0  0  0  0  0  0  0
    0.0000    0.0000    0.0000 C   0  0  0  0  0  0  0  0  0  0  0  0
    0.0000    0.0000    0.0000 C   0  0  0  0  0  0  0  0  0  0  0  0
    0.0000    0.0000    0.0000 C   0  0  1  0  0  0  0  0  0  0  0  0
    0.0000    0.0000    0.0000 C   0  0  0  0  0  0  0  0  0  0  0  0
    0.0000    0.0000    0.0000 C   0  0  0  0  0  0  0  0  0  0  0  0
    0.0000    0.0000    0.0000 C   0  0  0  0  0  0  0  0  0  0  0  0
    0.0000    0.0000    0.0000 C   0  0  0  0  0  0  0  0  0  0  0  0
    0.0000    0.0000    0.0000 C   0  0  0  0  0  0  0  0  0  0  0  0
    0.0000    0.0000    0.0000 C   0  0  0  0  0  0  0  0  0  0  0  0
    0.0000    0.0000    0.0000 C   0  0  0  0  0  0  0  0  0  0  0  0
  1  2  2  0  0  0  0
  2 36  1  0  0  0  0
  2  3  1  0  0  0  0
  3  4  1  0  0  0  0
  4  5  1  0  0  0  0
  5  6  1  0  0  0  0
  5 35  1  0  0  0  0
  5  7  1  0  0  0  0
  7  8  1  0  0  0  0
  7 31  1  0  0  0  0
  7  9  1  0  0  0  0
  9 10  1  0  0  0  0
  9 11  1  0  0  0  0
  9 33  1  0  0  0  0
 11 12  1  0  0  0  0
 11 29  1  0  0  0  0
 11 13  1  0  0  0  0
 13 14  1  0  0  0  0
 14 15  1  0  0  0  0
 15 16  1  0  0  0  0
 15 17  1  0  0  0  0
 15 29  1  0  0  0  0
 17 18  1  0  0  0  0
 18 19  2  0  0  0  0
 18 20  1  0  0  0  0
 20 21  1  0  0  0  0
 21 22  1  0  0  0  0
 22 23  1  0  0  0  0
 23 24  1  0  0  0  0
 24 25  1  0  0  0  0
 25 26  1  0  0  0  0
 26 27  1  0  0  0  0
 27 28  1  0  0  0  0
 29 30  1  0  0  0  0
 29 32  1  0  0  0  0
 30 31  1  0  0  0  0
 33 34  1  0  0  0  0
 34 35  1  0  0  0  0
 35 36  2  0  0  0  0
M  END
> <Index>
1665

> <ID>
HT1461

> <class>
1

> <apol>
81.024895

> <ast_fraglike>
0

> <ast_fraglike_ext>
0

> <ast_violation>
2

> <ast_violation_ext>
3

> <a_acc>
2

> <a_acid>
0

> <a_aro>
0

> <a_base>
0

> <a_count>
75

> <a_don>
0

> <a_donacc>
2

> <a_heavy>
31

> <a_hyd>
26

> <a_IC>
87.585587

> <a_ICM>
1.1678078

> <a_nB>
0

> <a_nBr>
0

> <a_nC>
28

> <a_nCl>
0

> <a_nF>
0

> <a_nH>
44

> <a_nI>
0

> <a_nN>
0

> <a_nO>
3

> <a_nP>
0

> <a_nS>
0

> <balabanJ>
1.2489032

> <BCUT_PEOE_0>
-2.9294903

> <BCUT_PEOE_1>
-0.48780096

> <BCUT_PEOE_2>
0.41938379

> <BCUT_PEOE_3>
2.9496598

> <BCUT_SLOGP_0>
-2.8501794

> <BCUT_SLOGP_1>
-0.41000226

> <BCUT_SLOGP_2>
0.42985576

> <BCUT_SLOGP_3>
3.0248928

> <BCUT_SMR_0>
-2.6745827

> <BCUT_SMR_1>
-0.32358077

> <BCUT_SMR_2>
0.59443903

> <BCUT_SMR_3>
3.2013078

> <bpol>
51.933109

> <b_1rotN>
9

> <b_1rotR>
0.2647059

> <b_ar>
0

> <b_count>
78

> <b_double>
3

> <b_heavy>
34

> <b_max1len>
10

> <b_rotN>
10

> <b_rotR>
0.29411766

> <b_single>
75

> <b_triple>
0

> <chi0>
21.846724

> <chi0v>
20.002556

> <chi0v_C>
18.777811

> <chi0_C>
19.139618

> <chi1>
15.025023

> <chi1v>
13.454012

> <chi1v_C>
12.605937

> <chi1_C>
13.053826

> <chiral>
6

> <chiral_u>
0

> <density>
0.66003478

> <diameter>
20

> <FCharge>
0

> <GCUT_PEOE_0>
-0.80272818

> <GCUT_PEOE_1>
-0.39229667

> <GCUT_PEOE_2>
0.0068290983

> <GCUT_PEOE_3>
3.2891932

> <GCUT_SLOGP_0>
-0.85167569

> <GCUT_SLOGP_1>
-0.28157812

> <GCUT_SLOGP_2>
0.026670389

> <GCUT_SLOGP_3>
3.3735013

> <GCUT_SMR_0>
-0.53793204

> <GCUT_SMR_1>
-0.21191959

> <GCUT_SMR_2>
0.12736532

> <GCUT_SMR_3>
3.513098

> <Kier1>
24.134949

> <Kier2>
10.950521

> <Kier3>
5.3994489

> <KierA1>
22.139332

> <KierA2>
10.0151

> <KierA3>
4.9274402

> <KierFlex>
7.1525035

> <lip_acc>
3

> <lip_don>
0

> <lip_druglike>
1

> <lip_violation>
1

> <logP(o/w)>
6.9039998

> <logS>
-8.3752298

> <mr>
12.649731

> <mutagenic>
0

> <nmol>
1

> <opr_brigid>
20

> <opr_leadlike>
1

> <opr_nring>
4

> <opr_nrot>
9

> <opr_violation>
1

> <PC+>
0

> <PC->
0

> <PEOE_PC+>
1.8341209

> <PEOE_PC->
-1.8341209

> <PEOE_RPC+>
0.14308284

> <PEOE_RPC->
0.16973931

> <PEOE_VSA+0>
196.54884

> <PEOE_VSA+1>
13.4357

> <PEOE_VSA+2>
0.0

> <PEOE_VSA+3>
8.458519

> <PEOE_VSA+4>
0.0

> <PEOE_VSA+5>
14.708499

> <PEOE_VSA+6>
0.0

> <PEOE_VSA-0>
81.86541

> <PEOE_VSA-1>
91.911774

> <PEOE_VSA-2>
0.0

> <PEOE_VSA-3>
0.0

> <PEOE_VSA-4>
0.0

> <PEOE_VSA-5>
27.133842

> <PEOE_VSA-6>
2.503756

> <PEOE_VSA_FHYD>
0.89842069

> <PEOE_VSA_FNEG>
0.46594244

> <PEOE_VSA_FPNEG>
0.067887962

> <PEOE_VSA_FPOL>
0.10157929

> <PEOE_VSA_FPOS>
0.53405756

> <PEOE_VSA_FPPOS>
0.033691328

> <PEOE_VSA_HYD>
392.22025

> <PEOE_VSA_NEG>
203.41478

> <PEOE_VSA_PNEG>
29.637598

> <PEOE_VSA_POL>
44.346096

> <PEOE_VSA_POS>
233.15157

> <PEOE_VSA_PPOS>
14.708499

> <petitjean>
0.5

> <petitjeanSC>
1.0

> <Q_PC+>
0

> <Q_PC->
0

> <Q_RPC+>
0

> <Q_RPC->
0

> <Q_VSA_FHYD>
1

> <Q_VSA_FNEG>
0

> <Q_VSA_FPNEG>
0

> <Q_VSA_FPOL>
0

> <Q_VSA_FPOS>
1

> <Q_VSA_FPPOS>
0

> <Q_VSA_HYD>
436.56635

> <Q_VSA_NEG>
0

> <Q_VSA_PNEG>
0

> <Q_VSA_POL>
0

> <Q_VSA_POS>
436.56635

> <Q_VSA_PPOS>
0

> <radius>
10

> <reactive>
1

> <rings>
4

> <RPC+>
0

> <RPC->
0

> <rsynth>
1.0

> <SlogP>
7.1806998

> <SlogP_VSA0>
0.0

> <SlogP_VSA1>
13.433075

> <SlogP_VSA2>
65.19297

> <SlogP_VSA3>
0.0

> <SlogP_VSA4>
17.643185

> <SlogP_VSA5>
3.185575

> <SlogP_VSA6>
0.0

> <SlogP_VSA7>
17.643185

> <SlogP_VSA8>
301.8945

> <SlogP_VSA9>
66.652031

> <SMR>
12.4583

> <SMR_VSA0>
58.724319

> <SMR_VSA1>
0.0

> <SMR_VSA2>
17.643185

> <SMR_VSA3>
9.6542244

> <SMR_VSA4>
0.0

> <SMR_VSA5>
319.53766

> <SMR_VSA6>
13.433075

> <SMR_VSA7>
66.652031

> <TPSA>
43.369999

> <VAdjEq>
0.36875206

> <VAdjMa>
6.0874629

> <VDistEq>
3.9529152

> <VDistMa>
9.5569382

> <vdw_area>
436.56635

> <vdw_vol>
649.44604

> <vsa_acc>
27.133842

> <vsa_acid>
0

> <vsa_base>
0

> <vsa_don>
0.0

> <vsa_hyd>
347.06253

> <vsa_other>
25.670774

> <vsa_pol>
27.133842

> <Weight>
428.65698

> <weinerPath>
3140

> <weinerPol>
52

> <zagreb>
164

$$$$
Row1665
 OpenBabel06061811532D

 20 23  0  0  0  0  0  0  0  0999 V2000
    0.0000    0.0000    0.0000 O   0  0  0  0  0  0  0  0  0  0  0  0
    0.0000    0.0000    0.0000 C   0  0  0  0  0  0  0  0  0  0  0  0
    0.0000    0.0000    0.0000 N   0  0  0  0  0  0  0  0  0  0  0  0
    0.0000    0.0000    0.0000 C   0  0  0  0  0  0  0  0  0  0  0  0
    0.0000    0.0000    0.0000 C   0  0  0  0  0  0  0  0  0  0  0  0
    0.0000    0.0000    0.0000 N   0  0  0  0  0  0  0  0  0  0  0  0
    0.0000    0.0000    0.0000 C   0  0  0  0  0  0  0  0  0  0  0  0
    0.0000    0.0000    0.0000 C   0  0  0  0  0  0  0  0  0  0  0  0
    0.0000    0.0000    0.0000 C   0  0  0  0  0  0  0  0  0  0  0  0
    0.0000    0.0000    0.0000 C   0  0  0  0  0  0  0  0  0  0  0  0
    0.0000    0.0000    0.0000 N   0  0  0  0  0  0  0  0  0  0  0  0
    0.0000    0.0000    0.0000 C   0  0  0  0  0  0  0  0  0  0  0  0
    0.0000    0.0000    0.0000 N   0  0  0  0  0  0  0  0  0  0  0  0
    0.0000    0.0000    0.0000 C   0  0  0  0  0  0  0  0  0  0  0  0
    0.0000    0.0000    0.0000 C   0  0  0  0  0  0  0  0  0  0  0  0
    0.0000    0.0000    0.0000 C   0  0  0  0  0  0  0  0  0  0  0  0
    0.0000    0.0000    0.0000 C   0  0  0  0  0  0  0  0  0  0  0  0
    0.0000    0.0000    0.0000 C   0  0  0  0  0  0  0  0  0  0  0  0
    0.0000    0.0000    0.0000 C   0  0  0  0  0  0  0  0  0  0  0  0
    0.0000    0.0000    0.0000 C   0  0  0  0  0  0  0  0  0  0  0  0
  1  2  2  0  0  0  0
  2 17  1  0  0  0  0
  2  3  1  0  0  0  0
  3  4  1  0  0  0  0
  4  9  1  0  0  0  0
  4  5  2  0  0  0  0
  5  6  1  0  0  0  0
  5 11  1  0  0  0  0
  6  7  2  0  0  0  0
  7  8  1  0  0  0  0
  8  9  2  0  0  0  0
  9 10  1  0  0  0  0
 11 12  1  0  0  0  0
 11 18  1  0  0  0  0
 12 17  1  0  0  0  0
 12 13  2  0  0  0  0
 13 14  1  0  0  0  0
 14 15  2  0  0  0  0
 15 16  1  0  0  0  0
 16 17  2  0  0  0  0
 18 20  1  0  0  0  0
 18 19  1  0  0  0  0
 19 20  1  0  0  0  0
M  END
> <Index>
1666

> <ID>
HT1479

> <class>
1

> <apol>
40.937103

> <ast_fraglike>
1

> <ast_fraglike_ext>
1

> <ast_violation>
0

> <ast_violation_ext>
0

> <a_acc>
3

> <a_acid>
0

> <a_aro>
12

> <a_base>
0

> <a_count>
34

> <a_don>
1

> <a_donacc>
4

> <a_heavy>
20

> <a_hyd>
12

> <a_IC>
53.06741

> <a_ICM>
1.5608062

> <a_nB>
0

> <a_nBr>
0

> <a_nC>
15

> <a_nCl>
0

> <a_nF>
0

> <a_nH>
14

> <a_nI>
0

> <a_nN>
4

> <a_nO>
1

> <a_nP>
0

> <a_nS>
0

> <balabanJ>
1.6805271

> <BCUT_PEOE_0>
-2.3617723

> <BCUT_PEOE_1>
-0.56748056

> <BCUT_PEOE_2>
0.62482047

> <BCUT_PEOE_3>
2.7666535

> <BCUT_SLOGP_0>
-2.3798954

> <BCUT_SLOGP_1>
-0.49763617

> <BCUT_SLOGP_2>
0.7085678

> <BCUT_SLOGP_3>
2.8125789

> <BCUT_SMR_0>
-2.0429745

> <BCUT_SMR_1>
-0.40449917

> <BCUT_SMR_2>
0.76903784

> <BCUT_SMR_3>
3.0293295

> <bpol>
21.542898

> <b_1rotN>
1

> <b_1rotR>
0.043478262

> <b_ar>
12

> <b_count>
37

> <b_double>
1

> <b_heavy>
23

> <b_max1len>
2

> <b_rotN>
1

> <b_rotR>
0.043478262

> <b_single>
24

> <b_triple>
0

> <chi0>
13.68987

> <chi0v>
11.128204

> <chi0v_C>
8.878315

> <chi0_C>
9.9911995

> <chi1>
9.7540197

> <chi1v>
6.766995

> <chi1v_C>
4.393847

> <chi1_C>
5.5436769

> <chiral>
0

> <chiral_u>
0

> <density>
0.74927562

> <diameter>
7

> <FCharge>
0

> <GCUT_PEOE_0>
-0.79746771

> <GCUT_PEOE_1>
-0.45099154

> <GCUT_PEOE_2>
0.097697124

> <GCUT_PEOE_3>
2.5948856

> <GCUT_SLOGP_0>
-0.99318826

> <GCUT_SLOGP_1>
-0.31336549

> <GCUT_SLOGP_2>
0.16734357

> <GCUT_SLOGP_3>
2.6821594

> <GCUT_SMR_0>
-0.47900531

> <GCUT_SMR_1>
-0.22180553

> <GCUT_SMR_2>
0.21351379

> <GCUT_SMR_3>
2.8908169

> <Kier1>
13.648394

> <Kier2>
5.3252597

> <Kier3>
2.2032001

> <KierA1>
9.3644133

> <KierA2>
3.5742385

> <KierA3>
1.4550332

> <KierFlex>
1.6735324

> <lip_acc>
5

> <lip_don>
1

> <lip_druglike>
1

> <lip_violation>
0

> <logP(o/w)>
1.897

> <logS>
-2.2797301

> <mr>
7.4932094

> <mutagenic>
0

> <nmol>
1

> <opr_brigid>
20

> <opr_leadlike>
1

> <opr_nring>
4

> <opr_nrot>
1

> <opr_violation>
0

> <PC+>
0

> <PC->
0

> <PEOE_PC+>
1.5340822

> <PEOE_PC->
-1.5340822

> <PEOE_RPC+>
0.16912453

> <PEOE_RPC->
0.20812121

> <PEOE_VSA+0>
70.76088

> <PEOE_VSA+1>
30.235022

> <PEOE_VSA+2>
22.381124

> <PEOE_VSA+3>
8.6190128

> <PEOE_VSA+4>
0.0

> <PEOE_VSA+5>
12.949531

> <PEOE_VSA+6>
0.0

> <PEOE_VSA-0>
75.123558

> <PEOE_VSA-1>
0.0

> <PEOE_VSA-2>
0.0

> <PEOE_VSA-3>
0.0

> <PEOE_VSA-4>
11.365152

> <PEOE_VSA-5>
13.566921

> <PEOE_VSA-6>
0.13689101

> <PEOE_VSA_FHYD>
0.84490991

> <PEOE_VSA_FNEG>
0.40871871

> <PEOE_VSA_FPNEG>
0.10226467

> <PEOE_VSA_FPOL>
0.15509012

> <PEOE_VSA_FPOS>
0.59128129

> <PEOE_VSA_FPPOS>
0.052825455

> <PEOE_VSA_HYD>
207.1196

> <PEOE_VSA_NEG>
100.19252

> <PEOE_VSA_PNEG>
25.068964

> <PEOE_VSA_POL>
38.018494

> <PEOE_VSA_POS>
144.94557

> <PEOE_VSA_PPOS>
12.949531

> <petitjean>
0.42857143

> <petitjeanSC>
0.75

> <Q_PC+>
0

> <Q_PC->
0

> <Q_RPC+>
0

> <Q_RPC->
0

> <Q_VSA_FHYD>
1

> <Q_VSA_FNEG>
0

> <Q_VSA_FPNEG>
0

> <Q_VSA_FPOL>
0

> <Q_VSA_FPOS>
1

> <Q_VSA_FPPOS>
0

> <Q_VSA_HYD>
245.13809

> <Q_VSA_NEG>
0

> <Q_VSA_PNEG>
0

> <Q_VSA_POL>
0

> <Q_VSA_POS>
245.13809

> <Q_VSA_PPOS>
0

> <radius>
4

> <reactive>
0

> <rings>
4

> <RPC+>
0

> <RPC->
0

> <rsynth>
1.0

> <SlogP>
2.6512201

> <SlogP_VSA0>
3.1243138

> <SlogP_VSA1>
56.840595

> <SlogP_VSA2>
3.9819686

> <SlogP_VSA3>
0.0

> <SlogP_VSA4>
30.233366

> <SlogP_VSA5>
0.0

> <SlogP_VSA6>
0.0

> <SlogP_VSA7>
87.358269

> <SlogP_VSA8>
37.736813

> <SlogP_VSA9>
40.738602

> <SMR>
7.6325202

> <SMR_VSA0>
23.862217

> <SMR_VSA1>
33.57106

> <SMR_VSA2>
3.1243138

> <SMR_VSA3>
10.353119

> <SMR_VSA4>
25.423338

> <SMR_VSA5>
125.09508

> <SMR_VSA6>
5.2587838

> <SMR_VSA7>
33.326015

> <TPSA>
58.119999

> <VAdjEq>
0.51481563

> <VAdjMa>
5.523562

> <VDistEq>
2.6431367

> <VDistMa>
8.4138803

> <vdw_area>
245.13809

> <vdw_vol>
355.41525

> <vsa_acc>
24.932074

> <vsa_acid>
0

> <vsa_base>
0

> <vsa_don>
5.6825762

> <vsa_hyd>
166.86612

> <vsa_other>
35.330658

> <vsa_pol>
30.614649

> <Weight>
266.30399

> <weinerPath>
676

> <weinerPol>
39

> <zagreb>
114

$$$$
Row1666
 OpenBabel06061811532D

 25 26  0  0  1  0  0  0  0  0999 V2000
    0.0000    0.0000    0.0000 O   0  0  0  0  0  0  0  0  0  0  0  0
    0.0000    0.0000    0.0000 C   0  0  0  0  0  0  0  0  0  0  0  0
    0.0000    0.0000    0.0000 O   0  0  0  0  0  0  0  0  0  0  0  0
    0.0000    0.0000    0.0000 C   0  0  0  0  0  0  0  0  0  0  0  0
    0.0000    0.0000    0.0000 C   0  0  3  0  0  0  0  0  0  0  0  0
    0.0000    0.0000    0.0000 C   0  0  0  0  0  0  0  0  0  0  0  0
    0.0000    0.0000    0.0000 C   0  0  0  0  0  0  0  0  0  0  0  0
    0.0000    0.0000    0.0000 O   0  0  0  0  0  0  0  0  0  0  0  0
    0.0000    0.0000    0.0000 C   0  0  0  0  0  0  0  0  0  0  0  0
    0.0000    0.0000    0.0000 O   0  0  0  0  0  0  0  0  0  0  0  0
    0.0000    0.0000    0.0000 C   0  0  0  0  0  0  0  0  0  0  0  0
    0.0000    0.0000    0.0000 N   0  0  0  0  0  0  0  0  0  0  0  0
    0.0000    0.0000    0.0000 C   0  0  0  0  0  0  0  0  0  0  0  0
    0.0000    0.0000    0.0000 C   0  0  0  0  0  0  0  0  0  0  0  0
    0.0000    0.0000    0.0000 C   0  0  0  0  0  0  0  0  0  0  0  0
    0.0000    0.0000    0.0000 C   0  0  0  0  0  0  0  0  0  0  0  0
    0.0000    0.0000    0.0000 C   0  0  0  0  0  0  0  0  0  0  0  0
    0.0000    0.0000    0.0000 C   0  0  0  0  0  0  0  0  0  0  0  0
    0.0000    0.0000    0.0000 C   0  0  0  0  0  0  0  0  0  0  0  0
    0.0000    0.0000    0.0000 C   0  0  0  0  0  0  0  0  0  0  0  0
    0.0000    0.0000    0.0000 C   0  0  0  0  0  0  0  0  0  0  0  0
    0.0000    0.0000    0.0000 N   0  3  0  0  0  0  0  0  0  0  0  0
    0.0000    0.0000    0.0000 O   0  0  0  0  0  0  0  0  0  0  0  0
    0.0000    0.0000    0.0000 O   0  5  0  0  0  0  0  0  0  0  0  0
    0.0000    0.0000    0.0000 C   0  0  0  0  0  0  0  0  0  0  0  0
  1  2  1  0  0  0  0
  1 25  1  0  0  0  0
  2  3  2  0  0  0  0
  2  4  1  0  0  0  0
  4 13  2  0  0  0  0
  4  5  1  0  0  0  0
  5  6  1  0  0  0  0
  5 16  1  0  0  0  0
  6  7  2  3  0  0  0
  6 11  1  0  0  0  0
  7  8  1  0  0  0  0
  7 10  1  0  0  0  0
  8  9  1  0  0  0  0
 11 12  2  0  0  0  0
 11 15  1  0  0  0  0
 12 13  1  0  0  0  0
 13 14  1  0  0  0  0
 16 21  1  0  0  0  0
 16 17  2  0  0  0  0
 17 18  1  0  0  0  0
 18 19  2  0  0  0  0
 19 20  1  0  0  0  0
 20 21  2  0  0  0  0
 21 22  1  0  0  0  0
 22 23  2  0  0  0  0
 22 24  1  0  0  0  0
M  CHG  2  22   1  24  -1
M  END
> <Index>
1667

> <ID>
HT1489

> <class>
1

> <apol>
48.934273

> <ast_fraglike>
0

> <ast_fraglike_ext>
0

> <ast_violation>
3

> <ast_violation_ext>
4

> <a_acc>
4

> <a_acid>
0

> <a_aro>
6

> <a_base>
0

> <a_count>
43

> <a_don>
1

> <a_donacc>
5

> <a_heavy>
25

> <a_hyd>
15

> <a_IC>
71.274094

> <a_ICM>
1.657537

> <a_nB>
0

> <a_nBr>
0

> <a_nC>
17

> <a_nCl>
0

> <a_nF>
0

> <a_nH>
18

> <a_nI>
0

> <a_nN>
2

> <a_nO>
6

> <a_nP>
0

> <a_nS>
0

> <balabanJ>
2.4447894

> <BCUT_PEOE_0>
-2.4559784

> <BCUT_PEOE_1>
-0.5196721

> <BCUT_PEOE_2>
0.47271523

> <BCUT_PEOE_3>
2.5284607

> <BCUT_SLOGP_0>
-2.4213099

> <BCUT_SLOGP_1>
-0.42633006

> <BCUT_SLOGP_2>
0.51962119

> <BCUT_SLOGP_3>
2.588521

> <BCUT_SMR_0>
-2.1864598

> <BCUT_SMR_1>
-0.23690827

> <BCUT_SMR_2>
0.68355989

> <BCUT_SMR_3>
2.7979226

> <bpol>
27.043726

> <b_1rotN>
4

> <b_1rotR>
0.15384616

> <b_ar>
6

> <b_count>
44

> <b_double>
5

> <b_heavy>
26

> <b_max1len>
2

> <b_rotN>
5

> <b_rotR>
0.1923077

> <b_single>
33

> <b_triple>
0

> <chi0>
18.723249

> <chi0v>
14.269633

> <chi0v_C>
10.886751

> <chi0_C>
12.02458

> <chi1>
11.827805

> <chi1v>
7.3818202

> <chi1v_C>
4.6933756

> <chi1_C>
6.1378636

> <chiral>
1

> <chiral_u>
1

> <density>
0.79386538

> <diameter>
8

> <FCharge>
0

> <GCUT_PEOE_0>
-0.76985073

> <GCUT_PEOE_1>
-0.41850442

> <GCUT_PEOE_2>
-0.023842668

> <GCUT_PEOE_3>
2.6865242

> <GCUT_SLOGP_0>
-0.84482998

> <GCUT_SLOGP_1>
-0.28308925

> <GCUT_SLOGP_2>
0.08741089

> <GCUT_SLOGP_3>
2.7547894

> <GCUT_SMR_0>
-0.49169308

> <GCUT_SMR_1>
-0.16898562

> <GCUT_SMR_2>
0.16642764

> <GCUT_SMR_3>
2.9460831

> <Kier1>
21.301775

> <Kier2>
9.2739229

> <Kier3>
4.4659748

> <KierA1>
15.942019

> <KierA2>
6.8503089

> <KierA3>
3.2665734

> <KierFlex>
4.3683105

> <lip_acc>
8

> <lip_don>
1

> <lip_druglike>
1

> <lip_violation>
0

> <logP(o/w)>
2.49

> <logS>
-3.9298201

> <mr>
8.9360209

> <mutagenic>
1

> <nmol>
1

> <opr_brigid>
13

> <opr_leadlike>
1

> <opr_nring>
2

> <opr_nrot>
4

> <opr_violation>
0

> <PC+>
0

> <PC->
0

> <PEOE_PC+>
2.2262857

> <PEOE_PC->
-2.2262857

> <PEOE_RPC+>
0.13123892

> <PEOE_RPC->
0.15280157

> <PEOE_VSA+0>
109.9241

> <PEOE_VSA+1>
48.890434

> <PEOE_VSA+2>
0.0

> <PEOE_VSA+3>
14.708499

> <PEOE_VSA+4>
10.324173

> <PEOE_VSA+5>
21.408051

> <PEOE_VSA+6>
0.0

> <PEOE_VSA-0>
37.495354

> <PEOE_VSA-1>
36.764713

> <PEOE_VSA-2>
0.0

> <PEOE_VSA-3>
0.0

> <PEOE_VSA-4>
0.0

> <PEOE_VSA-5>
53.180546

> <PEOE_VSA-6>
12.775052

> <PEOE_VSA_FHYD>
0.71723288

> <PEOE_VSA_FNEG>
0.4058682

> <PEOE_VSA_FPNEG>
0.19091505

> <PEOE_VSA_FPOL>
0.28276712

> <PEOE_VSA_FPOS>
0.59413177

> <PEOE_VSA_FPPOS>
0.091852084

> <PEOE_VSA_HYD>
247.7831

> <PEOE_VSA_NEG>
140.21567

> <PEOE_VSA_PNEG>
65.955597

> <PEOE_VSA_POL>
97.68782

> <PEOE_VSA_POS>
205.25526

> <PEOE_VSA_PPOS>
31.732224

> <petitjean>
0.5

> <petitjeanSC>
1.0

> <Q_PC+>
0

> <Q_PC->
0

> <Q_RPC+>
0

> <Q_RPC->
0

> <Q_VSA_FHYD>
1

> <Q_VSA_FNEG>
0

> <Q_VSA_FPNEG>
0

> <Q_VSA_FPOL>
0

> <Q_VSA_FPOS>
1

> <Q_VSA_FPPOS>
0

> <Q_VSA_HYD>
345.47092

> <Q_VSA_NEG>
0

> <Q_VSA_PNEG>
0

> <Q_VSA_POL>
0

> <Q_VSA_POS>
345.47092

> <Q_VSA_PPOS>
0

> <radius>
4

> <reactive>
1

> <rings>
2

> <RPC+>
0

> <RPC->
0

> <rsynth>
1.0

> <SlogP>
3.0158999

> <SlogP_VSA0>
0.0

> <SlogP_VSA1>
17.587828

> <SlogP_VSA2>
45.861992

> <SlogP_VSA3>
76.320236

> <SlogP_VSA4>
3.185575

> <SlogP_VSA5>
103.98244

> <SlogP_VSA6>
4.4107962

> <SlogP_VSA7>
70.572739

> <SlogP_VSA8>
0.0

> <SlogP_VSA9>
69.408775

> <SMR>
9.0326204

> <SMR_VSA0>
52.947609

> <SMR_VSA1>
16.78553

> <SMR_VSA2>
76.320236

> <SMR_VSA3>
24.025549

> <SMR_VSA4>
2.7567475

> <SMR_VSA5>
70.572739

> <SMR_VSA6>
10.502212

> <SMR_VSA7>
137.41977

> <TPSA>
113.94

> <VAdjEq>
0.41335541

> <VAdjMa>
5.7004399

> <VDistEq>
2.865324

> <VDistMa>
9.0749369

> <vdw_area>
345.47092

> <vdw_vol>
436.26917

> <vsa_acc>
21.753254

> <vsa_acid>
0

> <vsa_base>
0

> <vsa_don>
0.0

> <vsa_hyd>
219.62903

> <vsa_other>
72.551353

> <vsa_pol>
35.320175

> <Weight>
346.33899

> <weinerPath>
1280

> <weinerPol>
45

> <zagreb>
126

$$$$
Row1667
 OpenBabel06061811532D

 21 22  0  0  0  0  0  0  0  0999 V2000
    0.0000    0.0000    0.0000 S   0  0  0  0  0  0  0  0  0  0  0  0
    0.0000    0.0000    0.0000 O   0  0  0  0  0  0  0  0  0  0  0  0
    0.0000    0.0000    0.0000 O   0  0  0  0  0  0  0  0  0  0  0  0
    0.0000    0.0000    0.0000 N   0  0  0  0  0  0  0  0  0  0  0  0
    0.0000    0.0000    0.0000 C   0  0  0  0  0  0  0  0  0  0  0  0
    0.0000    0.0000    0.0000 C   0  0  0  0  0  0  0  0  0  0  0  0
    0.0000    0.0000    0.0000 C   0  0  0  0  0  0  0  0  0  0  0  0
    0.0000    0.0000    0.0000 C   0  0  0  0  0  0  0  0  0  0  0  0
    0.0000    0.0000    0.0000 N   0  3  0  0  0  0  0  0  0  0  0  0
    0.0000    0.0000    0.0000 O   0  0  0  0  0  0  0  0  0  0  0  0
    0.0000    0.0000    0.0000 O   0  5  0  0  0  0  0  0  0  0  0  0
    0.0000    0.0000    0.0000 C   0  0  0  0  0  0  0  0  0  0  0  0
    0.0000    0.0000    0.0000 C   0  0  0  0  0  0  0  0  0  0  0  0
    0.0000    0.0000    0.0000 O   0  0  0  0  0  0  0  0  0  0  0  0
    0.0000    0.0000    0.0000 C   0  0  0  0  0  0  0  0  0  0  0  0
    0.0000    0.0000    0.0000 C   0  0  0  0  0  0  0  0  0  0  0  0
    0.0000    0.0000    0.0000 C   0  0  0  0  0  0  0  0  0  0  0  0
    0.0000    0.0000    0.0000 C   0  0  0  0  0  0  0  0  0  0  0  0
    0.0000    0.0000    0.0000 C   0  0  0  0  0  0  0  0  0  0  0  0
    0.0000    0.0000    0.0000 C   0  0  0  0  0  0  0  0  0  0  0  0
    0.0000    0.0000    0.0000 C   0  0  0  0  0  0  0  0  0  0  0  0
  1  2  2  0  0  0  0
  1  3  2  0  0  0  0
  1  4  1  0  0  0  0
  1 21  1  0  0  0  0
  4  5  1  0  0  0  0
  5 13  1  0  0  0  0
  5  6  2  0  0  0  0
  6  7  1  0  0  0  0
  7  8  2  0  0  0  0
  8  9  1  0  0  0  0
  8 12  1  0  0  0  0
  9 10  2  0  0  0  0
  9 11  1  0  0  0  0
 12 13  2  0  0  0  0
 13 14  1  0  0  0  0
 14 15  1  0  0  0  0
 15 20  1  0  0  0  0
 15 16  2  0  0  0  0
 16 17  1  0  0  0  0
 17 18  2  0  0  0  0
 18 19  1  0  0  0  0
 19 20  2  0  0  0  0
M  CHG  2   9   1  11  -1
M  END
> <Index>
1668

> <ID>
HT1495

> <class>
1

> <apol>
39.991516

> <ast_fraglike>
0

> <ast_fraglike_ext>
0

> <ast_violation>
1

> <ast_violation_ext>
2

> <a_acc>
2

> <a_acid>
0

> <a_aro>
12

> <a_base>
0

> <a_count>
33

> <a_don>
1

> <a_donacc>
3

> <a_heavy>
21

> <a_hyd>
14

> <a_IC>
61.730099

> <a_ICM>
1.870609

> <a_nB>
0

> <a_nBr>
0

> <a_nC>
13

> <a_nCl>
0

> <a_nF>
0

> <a_nH>
12

> <a_nI>
0

> <a_nN>
2

> <a_nO>
5

> <a_nP>
0

> <a_nS>
1

> <balabanJ>
1.9771427

> <BCUT_PEOE_0>
-2.428194

> <BCUT_PEOE_1>
-0.66843456

> <BCUT_PEOE_2>
0.70665658

> <BCUT_PEOE_3>
2.4472682

> <BCUT_SLOGP_0>
-2.5422471

> <BCUT_SLOGP_1>
-0.57048631

> <BCUT_SLOGP_2>
0.77072883

> <BCUT_SLOGP_3>
2.478888

> <BCUT_SMR_0>
-2.0650899

> <BCUT_SMR_1>
-0.51320297

> <BCUT_SMR_2>
0.87364459

> <BCUT_SMR_3>
2.8205159

> <bpol>
23.426483

> <b_1rotN>
5

> <b_1rotR>
0.22727273

> <b_ar>
12

> <b_count>
34

> <b_double>
1

> <b_heavy>
22

> <b_max1len>
4

> <b_rotN>
5

> <b_rotR>
0.22727273

> <b_single>
21

> <b_triple>
0

> <chi0>
15.457819

> <chi0v>
11.832002

> <chi0v_C>
7.6188021

> <chi0_C>
8.9662552

> <chi1>
9.8491554

> <chi1v>
7.7328382

> <chi1v_C>
3.6487174

> <chi1_C>
5.2828231

> <chiral>
0

> <chiral_u>
0

> <density>
0.86175305

> <diameter>
9

> <FCharge>
0

> <GCUT_PEOE_0>
-0.78333801

> <GCUT_PEOE_1>
-0.42959324

> <GCUT_PEOE_2>
0.069245629

> <GCUT_PEOE_3>
2.3776133

> <GCUT_SLOGP_0>
-0.94641596

> <GCUT_SLOGP_1>
-0.33528775

> <GCUT_SLOGP_2>
0.15031359

> <GCUT_SLOGP_3>
2.5302167

> <GCUT_SMR_0>
-0.4912034

> <GCUT_SMR_1>
-0.19527228

> <GCUT_SMR_2>
0.20068926

> <GCUT_SMR_3>
2.6782568

> <Kier1>
17.355371

> <Kier2>
7.5130072

> <Kier3>
5.6055365

> <KierA1>
13.635721

> <KierA2>
5.8263521

> <KierA3>
4.3037062

> <KierFlex>
3.7831671

> <lip_acc>
7

> <lip_don>
1

> <lip_druglike>
1

> <lip_violation>
0

> <logP(o/w)>
2.5810001

> <logS>
-3.7958

> <mr>
7.6455498

> <mutagenic>
1

> <nmol>
1

> <opr_brigid>
12

> <opr_leadlike>
1

> <opr_nring>
2

> <opr_nrot>
4

> <opr_violation>
0

> <PC+>
0

> <PC->
0

> <PEOE_PC+>
1.7653699

> <PEOE_PC->
-1.7653699

> <PEOE_RPC+>
0.15496427

> <PEOE_RPC->
0.17525148

> <PEOE_VSA+0>
41.314968

> <PEOE_VSA+1>
63.687176

> <PEOE_VSA+2>
12.796158

> <PEOE_VSA+3>
20.72374

> <PEOE_VSA+4>
0.0

> <PEOE_VSA+5>
6.6995511

> <PEOE_VSA+6>
0.0

> <PEOE_VSA-0>
24.509808

> <PEOE_VSA-1>
49.019615

> <PEOE_VSA-2>
0.0

> <PEOE_VSA-3>
2.5295215

> <PEOE_VSA-4>
32.016521

> <PEOE_VSA-5>
33.931049

> <PEOE_VSA-6>
2.503756

> <PEOE_VSA_FHYD>
0.74061918

> <PEOE_VSA_FNEG>
0.49877244

> <PEOE_VSA_FPNEG>
0.23625751

> <PEOE_VSA_FPOL>
0.25938079

> <PEOE_VSA_FPOS>
0.50122756

> <PEOE_VSA_FPPOS>
0.023123281

> <PEOE_VSA_HYD>
214.58098

> <PEOE_VSA_NEG>
144.51027

> <PEOE_VSA_PNEG>
68.451324

> <PEOE_VSA_POL>
75.150879

> <PEOE_VSA_POS>
145.22159

> <PEOE_VSA_PPOS>
6.6995511

> <petitjean>
0.44444445

> <petitjeanSC>
0.80000001

> <Q_PC+>
0

> <Q_PC->
0

> <Q_RPC+>
0

> <Q_RPC->
0

> <Q_VSA_FHYD>
1

> <Q_VSA_FNEG>
0

> <Q_VSA_FPNEG>
0

> <Q_VSA_FPOL>
0

> <Q_VSA_FPOS>
1

> <Q_VSA_FPPOS>
0

> <Q_VSA_HYD>
289.73187

> <Q_VSA_NEG>
0

> <Q_VSA_PNEG>
0

> <Q_VSA_POL>
0

> <Q_VSA_POS>
289.73187

> <Q_VSA_PPOS>
0

> <radius>
5

> <reactive>
1

> <rings>
2

> <RPC+>
0

> <RPC->
0

> <rsynth>
1.0

> <SlogP>
2.7586

> <SlogP_VSA0>
10.999887

> <SlogP_VSA1>
71.6623

> <SlogP_VSA2>
6.6407428

> <SlogP_VSA3>
50.935009

> <SlogP_VSA4>
0.0

> <SlogP_VSA5>
31.691174

> <SlogP_VSA6>
0.0

> <SlogP_VSA7>
141.14548

> <SlogP_VSA8>
0.0

> <SlogP_VSA9>
16.000351

> <SMR>
7.8078899

> <SMR_VSA0>
55.257305

> <SMR_VSA1>
10.999887

> <SMR_VSA2>
50.935009

> <SMR_VSA3>
10.486856

> <SMR_VSA4>
21.918493

> <SMR_VSA5>
141.14548

> <SMR_VSA6>
0.0

> <SMR_VSA7>
38.331917

> <TPSA>
101.22

> <VAdjEq>
0.46827638

> <VAdjMa>
5.4594316

> <VDistEq>
3.0760899

> <VDistMa>
8.5136948

> <vdw_area>
289.73187

> <vdw_vol>
357.77536

> <vsa_acc>
32.016521

> <vsa_acid>
0

> <vsa_base>
0

> <vsa_don>
8.0752068

> <vsa_hyd>
192.19664

> <vsa_other>
46.540413

> <vsa_pol>
40.091728

> <Weight>
308.314

> <weinerPath>
936

> <weinerPol>
28

> <zagreb>
106

$$$$
Row1668
 OpenBabel06061811532D

 17 18  0  0  0  0  0  0  0  0999 V2000
    0.0000    0.0000    0.0000 O   0  0  0  0  0  0  0  0  0  0  0  0
    0.0000    0.0000    0.0000 C   0  0  0  0  0  0  0  0  0  0  0  0
    0.0000    0.0000    0.0000 C   0  0  0  0  0  0  0  0  0  0  0  0
    0.0000    0.0000    0.0000 C   0  0  0  0  0  0  0  0  0  0  0  0
    0.0000    0.0000    0.0000 C   0  0  0  0  0  0  0  0  0  0  0  0
    0.0000    0.0000    0.0000 N   0  3  0  0  0  0  0  0  0  0  0  0
    0.0000    0.0000    0.0000 O   0  0  0  0  0  0  0  0  0  0  0  0
    0.0000    0.0000    0.0000 O   0  5  0  0  0  0  0  0  0  0  0  0
    0.0000    0.0000    0.0000 C   0  0  0  0  0  0  0  0  0  0  0  0
    0.0000    0.0000    0.0000 N   0  0  0  0  0  0  0  0  0  0  0  0
    0.0000    0.0000    0.0000 N   0  0  0  0  0  0  0  0  0  0  0  0
    0.0000    0.0000    0.0000 C   0  0  0  0  0  0  0  0  0  0  0  0
    0.0000    0.0000    0.0000 C   0  0  0  0  0  0  0  0  0  0  0  0
    0.0000    0.0000    0.0000 O   0  0  0  0  0  0  0  0  0  0  0  0
    0.0000    0.0000    0.0000 N   0  0  0  0  0  0  0  0  0  0  0  0
    0.0000    0.0000    0.0000 C   0  0  0  0  0  0  0  0  0  0  0  0
    0.0000    0.0000    0.0000 O   0  0  0  0  0  0  0  0  0  0  0  0
  1  5  1  0  0  0  0
  1  2  1  0  0  0  0
  2  3  2  0  0  0  0
  2  9  1  0  0  0  0
  3  4  1  0  0  0  0
  4  5  2  0  0  0  0
  5  6  1  0  0  0  0
  6  7  2  0  0  0  0
  6  8  1  0  0  0  0
  9 10  2  3  0  0  0
 10 11  1  0  0  0  0
 11 16  1  0  0  0  0
 11 12  1  0  0  0  0
 12 13  1  0  0  0  0
 13 14  2  0  0  0  0
 13 15  1  0  0  0  0
 15 16  1  0  0  0  0
 16 17  2  0  0  0  0
M  CHG  2   6   1   8  -1
M  END
> <Index>
1669

> <ID>
HT1507

> <class>
1

> <apol>
26.490759

> <ast_fraglike>
1

> <ast_fraglike_ext>
1

> <ast_violation>
0

> <ast_violation_ext>
0

> <a_acc>
3

> <a_acid>
0

> <a_aro>
5

> <a_base>
0

> <a_count>
23

> <a_don>
1

> <a_donacc>
4

> <a_heavy>
17

> <a_hyd>
4

> <a_IC>
44.922508

> <a_ICM>
1.9531525

> <a_nB>
0

> <a_nBr>
0

> <a_nC>
8

> <a_nCl>
0

> <a_nF>
0

> <a_nH>
6

> <a_nI>
0

> <a_nN>
4

> <a_nO>
5

> <a_nP>
0

> <a_nS>
0

> <balabanJ>
1.702039

> <BCUT_PEOE_0>
-2.2202516

> <BCUT_PEOE_1>
-0.59392488

> <BCUT_PEOE_2>
0.56629699

> <BCUT_PEOE_3>
2.4971802

> <BCUT_SLOGP_0>
-2.4317009

> <BCUT_SLOGP_1>
-0.55919415

> <BCUT_SLOGP_2>
0.72595739

> <BCUT_SLOGP_3>
2.2880433

> <BCUT_SMR_0>
-1.9834102

> <BCUT_SMR_1>
-0.38195252

> <BCUT_SMR_2>
0.81024164

> <BCUT_SMR_3>
2.7451103

> <bpol>
14.287242

> <b_1rotN>
3

> <b_1rotR>
0.16666667

> <b_ar>
5

> <b_count>
24

> <b_double>
4

> <b_heavy>
18

> <b_max1len>
2

> <b_rotN>
3

> <b_rotR>
0.16666667

> <b_single>
15

> <b_triple>
0

> <chi0>
12.413849

> <chi0v>
8.3220396

> <chi0v_C>
4.4391575

> <chi0_C>
5.1378284

> <chi1>
8.0585508

> <chi1v>
4.4561973

> <chi1v_C>
1.5529121

> <chi1_C>
2.1329932

> <chiral>
0

> <chiral_u>
0

> <density>
0.95460296

> <diameter>
10

> <FCharge>
0

> <GCUT_PEOE_0>
-0.77950418

> <GCUT_PEOE_1>
-0.4950569

> <GCUT_PEOE_2>
0.09673816

> <GCUT_PEOE_3>
2.1899557

> <GCUT_SLOGP_0>
-1.1766242

> <GCUT_SLOGP_1>
-0.38112402

> <GCUT_SLOGP_2>
0.20311861

> <GCUT_SLOGP_3>
2.1417439

> <GCUT_SMR_0>
-0.49477077

> <GCUT_SMR_1>
-0.21997525

> <GCUT_SMR_2>
0.27883777

> <GCUT_SMR_3>
2.418484

> <Kier1>
13.432098

> <Kier2>
5.7600002

> <Kier3>
3.4844444

> <KierA1>
8.8852749

> <KierA2>
3.7009585

> <KierA3>
2.1870878

> <KierFlex>
1.9343548

> <lip_acc>
9

> <lip_don>
1

> <lip_druglike>
1

> <lip_violation>
0

> <logP(o/w)>
0.233

> <logS>
-2.89469

> <mr>
5.1944313

> <mutagenic>
1

> <nmol>
1

> <opr_brigid>
11

> <opr_leadlike>
1

> <opr_nring>
2

> <opr_nrot>
3

> <opr_violation>
1

> <PC+>
0

> <PC->
0

> <PEOE_PC+>
2.1692004

> <PEOE_PC->
-2.1692004

> <PEOE_RPC+>
0.20472626

> <PEOE_RPC->
0.16440573

> <PEOE_VSA+0>
12.254904

> <PEOE_VSA+1>
33.581833

> <PEOE_VSA+2>
29.93824

> <PEOE_VSA+3>
8.6190128

> <PEOE_VSA+4>
0.0

> <PEOE_VSA+5>
21.408051

> <PEOE_VSA+6>
30.390074

> <PEOE_VSA-0>
4.0280342

> <PEOE_VSA-1>
0.0

> <PEOE_VSA-2>
0.0

> <PEOE_VSA-3>
9.4210396

> <PEOE_VSA-4>
13.566921

> <PEOE_VSA-5>
16.207567

> <PEOE_VSA-6>
33.931049

> <PEOE_VSA_FHYD>
0.45861056

> <PEOE_VSA_FNEG>
0.36163953

> <PEOE_VSA_FPNEG>
0.29860097

> <PEOE_VSA_FPOL>
0.54138941

> <PEOE_VSA_FPOS>
0.63836044

> <PEOE_VSA_FPPOS>
0.24278846

> <PEOE_VSA_HYD>
97.843063

> <PEOE_VSA_NEG>
77.15461

> <PEOE_VSA_PNEG>
63.705536

> <PEOE_VSA_POL>
115.50366

> <PEOE_VSA_POS>
136.19211

> <PEOE_VSA_PPOS>
51.798122

> <petitjean>
0.5

> <petitjeanSC>
1.0

> <Q_PC+>
0

> <Q_PC->
0

> <Q_RPC+>
0

> <Q_RPC->
0

> <Q_VSA_FHYD>
1

> <Q_VSA_FNEG>
0

> <Q_VSA_FPNEG>
0

> <Q_VSA_FPOL>
0

> <Q_VSA_FPOS>
1

> <Q_VSA_FPPOS>
0

> <Q_VSA_HYD>
213.34673

> <Q_VSA_NEG>
0

> <Q_VSA_PNEG>
0

> <Q_VSA_POL>
0

> <Q_VSA_POS>
213.34673

> <Q_VSA_PPOS>
0

> <radius>
5

> <reactive>
1

> <rings>
2

> <RPC+>
0

> <RPC->
0

> <rsynth>
1.0

> <SlogP>
0.0735

> <SlogP_VSA0>
18.01075

> <SlogP_VSA1>
20.176147

> <SlogP_VSA2>
41.076572

> <SlogP_VSA3>
69.374588

> <SlogP_VSA4>
5.4488211

> <SlogP_VSA5>
26.170353

> <SlogP_VSA6>
0.0

> <SlogP_VSA7>
35.286369

> <SlogP_VSA8>
0.0

> <SlogP_VSA9>
28.88221

> <SMR>
5.3201098

> <SMR_VSA0>
64.317398

> <SMR_VSA1>
19.664799

> <SMR_VSA2>
68.945755

> <SMR_VSA3>
5.4488211

> <SMR_VSA4>
5.0199933

> <SMR_VSA5>
35.286369

> <SMR_VSA6>
28.528318

> <SMR_VSA7>
17.214357

> <TPSA>
120.73

> <VAdjEq>
0.54234898

> <VAdjMa>
5.1699252

> <VDistEq>
3.1447961

> <VDistMa>
7.836596

> <vdw_area>
213.34673

> <vdw_vol>
249.48486

> <vsa_acc>
36.554882

> <vsa_acid>
0

> <vsa_base>
0

> <vsa_don>
5.6825762

> <vsa_hyd>
55.94453

> <vsa_other>
108.53243

> <vsa_pol>
42.237457

> <Weight>
238.159

> <weinerPath>
580

> <weinerPol>
20

> <zagreb>
86

$$$$
Row1669
 OpenBabel06061811532D

 24 27  0  0  0  0  0  0  0  0999 V2000
    0.0000    0.0000    0.0000 F   0  0  0  0  0  0  0  0  0  0  0  0
    0.0000    0.0000    0.0000 C   0  0  0  0  0  0  0  0  0  0  0  0
    0.0000    0.0000    0.0000 C   0  0  0  0  0  0  0  0  0  0  0  0
    0.0000    0.0000    0.0000 C   0  0  0  0  0  0  0  0  0  0  0  0
    0.0000    0.0000    0.0000 C   0  0  0  0  0  0  0  0  0  0  0  0
    0.0000    0.0000    0.0000 C   0  0  0  0  0  0  0  0  0  0  0  0
    0.0000    0.0000    0.0000 C   0  0  0  0  0  0  0  0  0  0  0  0
    0.0000    0.0000    0.0000 C   0  0  0  0  0  0  0  0  0  0  0  0
    0.0000    0.0000    0.0000 N   0  0  0  0  0  0  0  0  0  0  0  0
    0.0000    0.0000    0.0000 C   0  0  0  0  0  0  0  0  0  0  0  0
    0.0000    0.0000    0.0000 C   0  0  0  0  0  0  0  0  0  0  0  0
    0.0000    0.0000    0.0000 N   0  0  0  0  0  0  0  0  0  0  0  0
    0.0000    0.0000    0.0000 C   0  0  0  0  0  0  0  0  0  0  0  0
    0.0000    0.0000    0.0000 N   0  0  0  0  0  0  0  0  0  0  0  0
    0.0000    0.0000    0.0000 C   0  0  0  0  0  0  0  0  0  0  0  0
    0.0000    0.0000    0.0000 C   0  0  0  0  0  0  0  0  0  0  0  0
    0.0000    0.0000    0.0000 C   0  0  0  0  0  0  0  0  0  0  0  0
    0.0000    0.0000    0.0000 N   0  0  0  0  0  0  0  0  0  0  0  0
    0.0000    0.0000    0.0000 C   0  0  0  0  0  0  0  0  0  0  0  0
    0.0000    0.0000    0.0000 C   0  0  0  0  0  0  0  0  0  0  0  0
    0.0000    0.0000    0.0000 C   0  0  0  0  0  0  0  0  0  0  0  0
    0.0000    0.0000    0.0000 C   0  0  0  0  0  0  0  0  0  0  0  0
    0.0000    0.0000    0.0000 C   0  0  0  0  0  0  0  0  0  0  0  0
    0.0000    0.0000    0.0000 C   0  0  0  0  0  0  0  0  0  0  0  0
  1  2  1  0  0  0  0
  2  7  1  0  0  0  0
  2  3  2  0  0  0  0
  3  4  1  0  0  0  0
  4  5  2  0  0  0  0
  5  6  1  0  0  0  0
  5  8  1  0  0  0  0
  6  7  2  0  0  0  0
  8  9  1  0  0  0  0
  9 13  1  0  0  0  0
  9 10  1  0  0  0  0
 10 24  1  0  0  0  0
 10 11  2  0  0  0  0
 11 12  1  0  0  0  0
 11 21  1  0  0  0  0
 12 13  2  0  0  0  0
 13 14  1  0  0  0  0
 14 15  1  0  0  0  0
 15 20  1  0  0  0  0
 15 16  1  0  0  0  0
 16 17  1  0  0  0  0
 17 18  1  0  0  0  0
 18 19  1  0  0  0  0
 19 20  1  0  0  0  0
 21 22  2  0  0  0  0
 22 23  1  0  0  0  0
 23 24  2  0  0  0  0
M  END
> <Index>
1670

> <ID>
HT1518

> <class>
1

> <apol>
52.399654

> <ast_fraglike>
0

> <ast_fraglike_ext>
0

> <ast_violation>
2

> <ast_violation_ext>
3

> <a_acc>
2

> <a_acid>
0

> <a_aro>
15

> <a_base>
0

> <a_count>
45

> <a_don>
2

> <a_donacc>
4

> <a_heavy>
24

> <a_hyd>
19

> <a_IC>
66.184097

> <a_ICM>
1.4707578

> <a_nB>
0

> <a_nBr>
0

> <a_nC>
19

> <a_nCl>
0

> <a_nF>
1

> <a_nH>
21

> <a_nI>
0

> <a_nN>
4

> <a_nO>
0

> <a_nP>
0

> <a_nS>
0

> <balabanJ>
1.3986709

> <BCUT_PEOE_0>
-2.7566185

> <BCUT_PEOE_1>
-0.63254833

> <BCUT_PEOE_2>
0.63307035

> <BCUT_PEOE_3>
2.6903729

> <BCUT_SLOGP_0>
-2.8513215

> <BCUT_SLOGP_1>
-0.53682977

> <BCUT_SLOGP_2>
0.73383862

> <BCUT_SLOGP_3>
2.6568353

> <BCUT_SMR_0>
-2.4852376

> <BCUT_SMR_1>
-0.44797647

> <BCUT_SMR_2>
0.79405189

> <BCUT_SMR_3>
2.9576769

> <bpol>
28.780348

> <b_1rotN>
4

> <b_1rotR>
0.14814815

> <b_ar>
16

> <b_count>
48

> <b_double>
0

> <b_heavy>
27

> <b_max1len>
3

> <b_rotN>
4

> <b_rotR>
0.14814815

> <b_single>
32

> <b_triple>
0

> <chi0>
16.35516

> <chi0v>
13.504078

> <chi0v_C>
11.231687

> <chi0_C>
12.656489

> <chi1>
11.792827

> <chi1v>
8.4641867

> <chi1v_C>
5.8187675

> <chi1_C>
7.5075679

> <chiral>
0

> <chiral_u>
0

> <density>
0.72069186

> <diameter>
12

> <FCharge>
0

> <GCUT_PEOE_0>
-0.84974474

> <GCUT_PEOE_1>
-0.41850773

> <GCUT_PEOE_2>
0.073536947

> <GCUT_PEOE_3>
2.7022305

> <GCUT_SLOGP_0>
-1.1541047

> <GCUT_SLOGP_1>
-0.31495979

> <GCUT_SLOGP_2>
0.17360172

> <GCUT_SLOGP_3>
2.7783093

> <GCUT_SMR_0>
-0.5158208

> <GCUT_SMR_1>
-0.2101371

> <GCUT_SMR_2>
0.18590802

> <GCUT_SMR_3>
2.983021

> <Kier1>
17.415638

> <Kier2>
8.1314831

> <Kier3>
4.2332363

> <KierA1>
12.829871

> <KierA2>
5.9044032

> <KierA3>
3.0419407

> <KierFlex>
3.1563637

> <lip_acc>
4

> <lip_don>
2

> <lip_druglike>
1

> <lip_violation>
0

> <logP(o/w)>
3.895

> <logS>
-4.4789901

> <mr>
9.3651571

> <mutagenic>
0

> <nmol>
1

> <opr_brigid>
22

> <opr_leadlike>
1

> <opr_nring>
4

> <opr_nrot>
6

> <opr_violation>
0

> <PC+>
0

> <PC->
0

> <PEOE_PC+>
1.735538

> <PEOE_PC->
-1.735538

> <PEOE_RPC+>
0.10576803

> <PEOE_RPC->
0.18200061

> <PEOE_VSA+0>
41.534435

> <PEOE_VSA+1>
69.245285

> <PEOE_VSA+2>
26.258871

> <PEOE_VSA+3>
15.681574

> <PEOE_VSA+4>
0.0

> <PEOE_VSA+5>
0.0

> <PEOE_VSA+6>
0.0

> <PEOE_VSA-0>
95.015434

> <PEOE_VSA-1>
49.019615

> <PEOE_VSA-2>
0.0

> <PEOE_VSA-3>
0.0

> <PEOE_VSA-4>
17.591211

> <PEOE_VSA-5>
0.13689101

> <PEOE_VSA-6>
0.13689101

> <PEOE_VSA_FHYD>
0.94321728

> <PEOE_VSA_FNEG>
0.51458883

> <PEOE_VSA_FPNEG>
0.056782726

> <PEOE_VSA_FPOL>
0.056782726

> <PEOE_VSA_FPOS>
0.4854112

> <PEOE_VSA_FPPOS>
0.0

> <PEOE_VSA_HYD>
296.75522

> <PEOE_VSA_NEG>
161.90004

> <PEOE_VSA_PNEG>
17.864994

> <PEOE_VSA_POL>
17.864994

> <PEOE_VSA_POS>
152.72017

> <PEOE_VSA_PPOS>
0.0

> <petitjean>
0.5

> <petitjeanSC>
1.0

> <Q_PC+>
0

> <Q_PC->
0

> <Q_RPC+>
0

> <Q_RPC->
0

> <Q_VSA_FHYD>
1

> <Q_VSA_FNEG>
0

> <Q_VSA_FPNEG>
0

> <Q_VSA_FPOL>
0

> <Q_VSA_FPOS>
1

> <Q_VSA_FPPOS>
0

> <Q_VSA_HYD>
314.62021

> <Q_VSA_NEG>
0

> <Q_VSA_PNEG>
0

> <Q_VSA_POL>
0

> <Q_VSA_POS>
314.62021

> <Q_VSA_PPOS>
0

> <radius>
6

> <reactive>
0

> <rings>
4

> <RPC+>
0

> <RPC->
0

> <rsynth>
1.0

> <SlogP>
3.654

> <SlogP_VSA0>
18.01075

> <SlogP_VSA1>
36.695374

> <SlogP_VSA2>
13.102986

> <SlogP_VSA3>
36.879158

> <SlogP_VSA4>
3.185575

> <SlogP_VSA5>
0.0

> <SlogP_VSA6>
0.0

> <SlogP_VSA7>
145.43375

> <SlogP_VSA8>
37.736813

> <SlogP_VSA9>
35.298782

> <SMR>
9.4954395

> <SMR_VSA0>
0.0

> <SMR_VSA1>
33.644737

> <SMR_VSA2>
27.131769

> <SMR_VSA3>
7.1675434

> <SMR_VSA4>
24.198118

> <SMR_VSA5>
197.32187

> <SMR_VSA6>
36.879158

> <SMR_VSA7>
0.0

> <TPSA>
41.880001

> <VAdjEq>
0.44886449

> <VAdjMa>
5.7548876

> <VDistEq>
3.2946453

> <VDistMa>
8.8913879

> <vdw_area>
314.62021

> <vdw_vol>
450.1272

> <vsa_acc>
5.6825762

> <vsa_acid>
0

> <vsa_base>
0

> <vsa_don>
5.6825762

> <vsa_hyd>
262.22015

> <vsa_other>
15.681574

> <vsa_pol>
17.047728

> <Weight>
324.40298

> <weinerPath>
1345

> <weinerPol>
35

> <zagreb>
128

$$$$
Row1670
 OpenBabel06061811532D

 23 25  0  0  0  0  0  0  0  0999 V2000
    0.0000    0.0000    0.0000 F   0  0  0  0  0  0  0  0  0  0  0  0
    0.0000    0.0000    0.0000 C   0  0  0  0  0  0  0  0  0  0  0  0
    0.0000    0.0000    0.0000 C   0  0  0  0  0  0  0  0  0  0  0  0
    0.0000    0.0000    0.0000 C   0  0  0  0  0  0  0  0  0  0  0  0
    0.0000    0.0000    0.0000 C   0  0  0  0  0  0  0  0  0  0  0  0
    0.0000    0.0000    0.0000 N   0  0  0  0  0  0  0  0  0  0  0  0
    0.0000    0.0000    0.0000 C   0  0  0  0  0  0  0  0  0  0  0  0
    0.0000    0.0000    0.0000 C   0  0  0  0  0  0  0  0  0  0  0  0
    0.0000    0.0000    0.0000 C   0  0  0  0  0  0  0  0  0  0  0  0
    0.0000    0.0000    0.0000 O   0  0  0  0  0  0  0  0  0  0  0  0
    0.0000    0.0000    0.0000 O   0  0  0  0  0  0  0  0  0  0  0  0
    0.0000    0.0000    0.0000 C   0  0  0  0  0  0  0  0  0  0  0  0
    0.0000    0.0000    0.0000 O   0  0  0  0  0  0  0  0  0  0  0  0
    0.0000    0.0000    0.0000 C   0  0  0  0  0  0  0  0  0  0  0  0
    0.0000    0.0000    0.0000 C   0  0  0  0  0  0  0  0  0  0  0  0
    0.0000    0.0000    0.0000 C   0  0  0  0  0  0  0  0  0  0  0  0
    0.0000    0.0000    0.0000 C   0  0  0  0  0  0  0  0  0  0  0  0
    0.0000    0.0000    0.0000 N   0  0  0  0  0  0  0  0  0  0  0  0
    0.0000    0.0000    0.0000 C   0  0  0  0  0  0  0  0  0  0  0  0
    0.0000    0.0000    0.0000 C   0  0  0  0  0  0  0  0  0  0  0  0
    0.0000    0.0000    0.0000 N   0  0  0  0  0  0  0  0  0  0  0  0
    0.0000    0.0000    0.0000 C   0  0  0  0  0  0  0  0  0  0  0  0
    0.0000    0.0000    0.0000 C   0  0  0  0  0  0  0  0  0  0  0  0
  1  2  1  0  0  0  0
  2 17  1  0  0  0  0
  2  3  2  0  0  0  0
  3  4  1  0  0  0  0
  4 12  1  0  0  0  0
  4  5  2  0  0  0  0
  5  6  1  0  0  0  0
  5 16  1  0  0  0  0
  6  7  1  0  0  0  0
  6 14  1  0  0  0  0
  7  8  2  0  0  0  0
  8  9  1  0  0  0  0
  8 12  1  0  0  0  0
  9 10  1  0  0  0  0
  9 11  2  0  0  0  0
 12 13  2  0  0  0  0
 14 15  1  0  0  0  0
 16 17  2  0  0  0  0
 17 18  1  0  0  0  0
 18 23  1  0  0  0  0
 18 19  1  0  0  0  0
 19 20  1  0  0  0  0
 20 21  1  0  0  0  0
 21 22  1  0  0  0  0
 22 23  1  0  0  0  0
M  END
> <Index>
1671

> <ID>
HT1525

> <class>
1

> <apol>
46.425274

> <ast_fraglike>
0

> <ast_fraglike_ext>
0

> <ast_violation>
2

> <ast_violation_ext>
3

> <a_acc>
4

> <a_acid>
0

> <a_aro>
6

> <a_base>
0

> <a_count>
41

> <a_don>
3

> <a_donacc>
7

> <a_heavy>
23

> <a_hyd>
15

> <a_IC>
71.091209

> <a_ICM>
1.7339319

> <a_nB>
0

> <a_nBr>
0

> <a_nC>
16

> <a_nCl>
0

> <a_nF>
1

> <a_nH>
18

> <a_nI>
0

> <a_nN>
3

> <a_nO>
3

> <a_nP>
0

> <a_nS>
0

> <balabanJ>
1.7566913

> <BCUT_PEOE_0>
-2.7117779

> <BCUT_PEOE_1>
-0.60581964

> <BCUT_PEOE_2>
0.60329217

> <BCUT_PEOE_3>
2.6170702

> <BCUT_SLOGP_0>
-2.8882546

> <BCUT_SLOGP_1>
-0.52639931

> <BCUT_SLOGP_2>
0.65133613

> <BCUT_SLOGP_3>
2.5307124

> <BCUT_SMR_0>
-2.4147577

> <BCUT_SMR_1>
-0.39247489

> <BCUT_SMR_2>
0.76564211

> <BCUT_SMR_3>
2.9091895

> <bpol>
27.416725

> <b_1rotN>
3

> <b_1rotR>
0.12

> <b_ar>
6

> <b_count>
43

> <b_double>
3

> <b_heavy>
25

> <b_max1len>
3

> <b_rotN>
3

> <b_rotR>
0.12

> <b_single>
34

> <b_triple>
0

> <chi0>
16.560114

> <chi0v>
12.803686

> <chi0v_C>
9.7675848

> <chi0_C>
10.698306

> <chi1>
11.024076

> <chi1v>
7.5825224

> <chi1v_C>
4.4004827

> <chi1_C>
5.4150147

> <chiral>
0

> <chiral_u>
0

> <density>
0.78735077

> <diameter>
11

> <FCharge>
0

> <GCUT_PEOE_0>
-0.8437053

> <GCUT_PEOE_1>
-0.45257831

> <GCUT_PEOE_2>
0.082223162

> <GCUT_PEOE_3>
2.6695392

> <GCUT_SLOGP_0>
-1.1544342

> <GCUT_SLOGP_1>
-0.40049192

> <GCUT_SLOGP_2>
0.16936722

> <GCUT_SLOGP_3>
2.7020478

> <GCUT_SMR_0>
-0.50768256

> <GCUT_SMR_1>
-0.22475778

> <GCUT_SMR_2>
0.18515715

> <GCUT_SMR_3>
2.9507172

> <Kier1>
17.811199

> <Kier2>
7.4861112

> <Kier3>
3.52

> <KierA1>
13.363121

> <KierA2>
5.5374737

> <KierA3>
2.5758209

> <KierFlex>
3.2173014

> <lip_acc>
6

> <lip_don>
2

> <lip_druglike>
1

> <lip_violation>
0

> <logP(o/w)>
0.72500002

> <logS>
-2.5094199

> <mr>
8.2837343

> <mutagenic>
0

> <nmol>
1

> <opr_brigid>
17

> <opr_leadlike>
1

> <opr_nring>
3

> <opr_nrot>
5

> <opr_violation>
0

> <PC+>
0

> <PC->
0

> <PEOE_PC+>
1.9952674

> <PEOE_PC->
-1.9952674

> <PEOE_RPC+>
0.14831544

> <PEOE_RPC->
0.16407537

> <PEOE_VSA+0>
147.06564

> <PEOE_VSA+1>
19.495708

> <PEOE_VSA+2>
19.848398

> <PEOE_VSA+3>
0.0

> <PEOE_VSA+4>
18.782692

> <PEOE_VSA+5>
14.708499

> <PEOE_VSA+6>
0.0

> <PEOE_VSA-0>
24.509808

> <PEOE_VSA-1>
18.747677

> <PEOE_VSA-2>
0.0

> <PEOE_VSA-3>
0.0

> <PEOE_VSA-4>
11.908636

> <PEOE_VSA-5>
27.133842

> <PEOE_VSA-6>
7.9044313

> <PEOE_VSA_FHYD>
0.74061042

> <PEOE_VSA_FNEG>
0.29088306

> <PEOE_VSA_FPNEG>
0.15139019

> <PEOE_VSA_FPOL>
0.25938961

> <PEOE_VSA_FPOS>
0.70911694

> <PEOE_VSA_FPPOS>
0.1079994

> <PEOE_VSA_HYD>
229.66724

> <PEOE_VSA_NEG>
90.204391

> <PEOE_VSA_PNEG>
46.946907

> <PEOE_VSA_POL>
80.438103

> <PEOE_VSA_POS>
219.90094

> <PEOE_VSA_PPOS>
33.491192

> <petitjean>
0.45454547

> <petitjeanSC>
0.83333331

> <Q_PC+>
0

> <Q_PC->
0

> <Q_RPC+>
0

> <Q_RPC->
0

> <Q_VSA_FHYD>
1

> <Q_VSA_FNEG>
0

> <Q_VSA_FPNEG>
0

> <Q_VSA_FPOL>
0

> <Q_VSA_FPOS>
1

> <Q_VSA_FPPOS>
0

> <Q_VSA_HYD>
310.10535

> <Q_VSA_NEG>
0

> <Q_VSA_PNEG>
0

> <Q_VSA_POL>
0

> <Q_VSA_POS>
310.10535

> <Q_VSA_PPOS>
0

> <radius>
6

> <reactive>
0

> <rings>
3

> <RPC+>
0

> <RPC->
0

> <rsynth>
1.0

> <SlogP>
1.2264

> <SlogP_VSA0>
24.259378

> <SlogP_VSA1>
13.433075

> <SlogP_VSA2>
32.983234

> <SlogP_VSA3>
117.58311

> <SlogP_VSA4>
27.047791

> <SlogP_VSA5>
3.185575

> <SlogP_VSA6>
0.0

> <SlogP_VSA7>
52.500725

> <SlogP_VSA8>
0.0

> <SlogP_VSA9>
53.799622

> <SMR>
8.4552002

> <SMR_VSA0>
47.724434

> <SMR_VSA1>
14.960114

> <SMR_VSA2>
58.765621

> <SMR_VSA3>
6.37115

> <SMR_VSA4>
5.513495

> <SMR_VSA5>
52.500725

> <SMR_VSA6>
105.63097

> <SMR_VSA7>
33.326015

> <TPSA>
72.879997

> <VAdjEq>
0.45137304

> <VAdjMa>
5.643856

> <VDistEq>
3.1655307

> <VDistMa>
8.773262

> <vdw_area>
310.10535

> <vdw_vol>
405.58289

> <vsa_acc>
13.566921

> <vsa_acid>
0

> <vsa_base>
0

> <vsa_don>
0.0

> <vsa_hyd>
221.56815

> <vsa_other>
23.167019

> <vsa_pol>
46.383339

> <Weight>
319.336

> <weinerPath>
1116

> <weinerPol>
41

> <zagreb>
122

$$$$
Row1671
 OpenBabel06061811532D

 20 22  0  0  0  0  0  0  0  0999 V2000
    0.0000    0.0000    0.0000 N   0  0  0  0  0  0  0  0  0  0  0  0
    0.0000    0.0000    0.0000 C   0  0  0  0  0  0  0  0  0  0  0  0
    0.0000    0.0000    0.0000 C   0  0  0  0  0  0  0  0  0  0  0  0
    0.0000    0.0000    0.0000 C   0  0  0  0  0  0  0  0  0  0  0  0
    0.0000    0.0000    0.0000 C   0  0  0  0  0  0  0  0  0  0  0  0
    0.0000    0.0000    0.0000 C   0  0  0  0  0  0  0  0  0  0  0  0
    0.0000    0.0000    0.0000 C   0  0  0  0  0  0  0  0  0  0  0  0
    0.0000    0.0000    0.0000 C   0  0  0  0  0  0  0  0  0  0  0  0
    0.0000    0.0000    0.0000 C   0  0  0  0  0  0  0  0  0  0  0  0
    0.0000    0.0000    0.0000 C   0  0  0  0  0  0  0  0  0  0  0  0
    0.0000    0.0000    0.0000 C   0  0  0  0  0  0  0  0  0  0  0  0
    0.0000    0.0000    0.0000 C   0  0  0  0  0  0  0  0  0  0  0  0
    0.0000    0.0000    0.0000 C   0  0  0  0  0  0  0  0  0  0  0  0
    0.0000    0.0000    0.0000 C   0  0  0  0  0  0  0  0  0  0  0  0
    0.0000    0.0000    0.0000 C   0  0  0  0  0  0  0  0  0  0  0  0
    0.0000    0.0000    0.0000 C   0  0  0  0  0  0  0  0  0  0  0  0
    0.0000    0.0000    0.0000 C   0  0  0  0  0  0  0  0  0  0  0  0
    0.0000    0.0000    0.0000 C   0  0  0  0  0  0  0  0  0  0  0  0
    0.0000    0.0000    0.0000 C   0  0  0  0  0  0  0  0  0  0  0  0
    0.0000    0.0000    0.0000 C   0  0  0  0  0  0  0  0  0  0  0  0
  1  2  1  0  0  0  0
  1 20  1  0  0  0  0
  2  3  1  0  0  0  0
  3  4  1  0  0  0  0
  4  5  2  3  0  0  0
  5 11  1  0  0  0  0
  5  6  1  0  0  0  0
  6 19  1  0  0  0  0
  6  7  2  0  0  0  0
  7  8  1  0  0  0  0
  7 16  1  0  0  0  0
  8  9  1  0  0  0  0
  9 10  1  0  0  0  0
 10 15  1  0  0  0  0
 10 11  2  0  0  0  0
 11 12  1  0  0  0  0
 12 13  2  0  0  0  0
 13 14  1  0  0  0  0
 14 15  2  0  0  0  0
 16 17  2  0  0  0  0
 17 18  1  0  0  0  0
 18 19  2  0  0  0  0
M  END
> <Index>
1672

> <ID>
HT1527

> <class>
1

> <apol>
48.542652

> <ast_fraglike>
0

> <ast_fraglike_ext>
0

> <ast_violation>
1

> <ast_violation_ext>
1

> <a_acc>
1

> <a_acid>
0

> <a_aro>
12

> <a_base>
0

> <a_count>
41

> <a_don>
1

> <a_donacc>
2

> <a_heavy>
20

> <a_hyd>
19

> <a_IC>
46.710342

> <a_ICM>
1.1392766

> <a_nB>
0

> <a_nBr>
0

> <a_nC>
19

> <a_nCl>
0

> <a_nF>
0

> <a_nH>
21

> <a_nI>
0

> <a_nN>
1

> <a_nO>
0

> <a_nP>
0

> <a_nS>
0

> <balabanJ>
1.7374048

> <BCUT_PEOE_0>
-2.5398369

> <BCUT_PEOE_1>
-0.58211827

> <BCUT_PEOE_2>
0.63033336

> <BCUT_PEOE_3>
2.4835269

> <BCUT_SLOGP_0>
-2.6640272

> <BCUT_SLOGP_1>
-0.48049867

> <BCUT_SLOGP_2>
0.69249713

> <BCUT_SLOGP_3>
2.5653088

> <BCUT_SMR_0>
-2.2573869

> <BCUT_SMR_1>
-0.43662229

> <BCUT_SMR_2>
0.76621485

> <BCUT_SMR_3>
2.778734

> <bpol>
23.617348

> <b_1rotN>
3

> <b_1rotR>
0.13636364

> <b_ar>
12

> <b_count>
43

> <b_double>
1

> <b_heavy>
22

> <b_max1len>
6

> <b_rotN>
3

> <b_rotR>
0.13636364

> <b_single>
30

> <b_triple>
0

> <chi0>
13.786246

> <chi0v>
12.02458

> <chi0v_C>
11.52458

> <chi0_C>
13.07914

> <chi1>
9.8981781

> <chi1v>
7.4122839

> <chi1v_C>
6.5587306

> <chi1_C>
8.6910715

> <chiral>
0

> <chiral_u>
0

> <density>
0.6403113

> <diameter>
9

> <FCharge>
0

> <GCUT_PEOE_0>
-0.85352397

> <GCUT_PEOE_1>
-0.3685807

> <GCUT_PEOE_2>
0.062050425

> <GCUT_PEOE_3>
2.6773841

> <GCUT_SLOGP_0>
-1.1524667

> <GCUT_SLOGP_1>
-0.24879871

> <GCUT_SLOGP_2>
0.14264926

> <GCUT_SLOGP_3>
2.7948995

> <GCUT_SMR_0>
-0.51053184

> <GCUT_SMR_1>
-0.19003506

> <GCUT_SMR_2>
0.17291731

> <GCUT_SMR_3>
2.9716074

> <Kier1>
14.917356

> <Kier2>
7.3198571

> <Kier3>
3.4425001

> <KierA1>
11.08651

> <KierA2>
5.3479114

> <KierA3>
2.4837554

> <KierFlex>
2.9644835

> <lip_acc>
1

> <lip_don>
1

> <lip_druglike>
1

> <lip_violation>
0

> <logP(o/w)>
4.289

> <logS>
-4.1364102

> <mr>
8.5193081

> <mutagenic>
0

> <nmol>
1

> <opr_brigid>
18

> <opr_leadlike>
1

> <opr_nring>
3

> <opr_nrot>
3

> <opr_violation>
0

> <PC+>
0

> <PC->
0

> <PEOE_PC+>
1.0677999

> <PEOE_PC->
-1.0677999

> <PEOE_RPC+>
0.11391975

> <PEOE_RPC->
0.29844666

> <PEOE_VSA+0>
46.919247

> <PEOE_VSA+1>
38.388474

> <PEOE_VSA+2>
8.6190128

> <PEOE_VSA+3>
0.0

> <PEOE_VSA+4>
0.0

> <PEOE_VSA+5>
0.0

> <PEOE_VSA+6>
0.0

> <PEOE_VSA-0>
73.577652

> <PEOE_VSA-1>
110.29414

> <PEOE_VSA-2>
0.0

> <PEOE_VSA-3>
0.0

> <PEOE_VSA-4>
0.0

> <PEOE_VSA-5>
0.0

> <PEOE_VSA-6>
0.13689101

> <PEOE_VSA_FHYD>
0.99950749

> <PEOE_VSA_FNEG>
0.66205555

> <PEOE_VSA_FPNEG>
4.9252808E-4

> <PEOE_VSA_FPOL>
4.9252808E-4

> <PEOE_VSA_FPOS>
0.33794445

> <PEOE_VSA_FPPOS>
0.0

> <PEOE_VSA_HYD>
277.79852

> <PEOE_VSA_NEG>
184.00868

> <PEOE_VSA_PNEG>
0.13689101

> <PEOE_VSA_POL>
0.13689101

> <PEOE_VSA_POS>
93.926735

> <PEOE_VSA_PPOS>
0.0

> <petitjean>
0.44444445

> <petitjeanSC>
0.80000001

> <Q_PC+>
0

> <Q_PC->
0

> <Q_RPC+>
0

> <Q_RPC->
0

> <Q_VSA_FHYD>
1

> <Q_VSA_FNEG>
0

> <Q_VSA_FPNEG>
0

> <Q_VSA_FPOL>
0

> <Q_VSA_FPOS>
1

> <Q_VSA_FPPOS>
0

> <Q_VSA_HYD>
277.93542

> <Q_VSA_NEG>
0

> <Q_VSA_PNEG>
0

> <Q_VSA_POL>
0

> <Q_VSA_POS>
277.93542

> <Q_VSA_PPOS>
0

> <radius>
5

> <reactive>
0

> <rings>
3

> <RPC+>
0

> <RPC->
0

> <rsynth>
1.0

> <SlogP>
3.64363

> <SlogP_VSA0>
18.01075

> <SlogP_VSA1>
0.0

> <SlogP_VSA2>
0.0

> <SlogP_VSA3>
21.625153

> <SlogP_VSA4>
12.7423

> <SlogP_VSA5>
70.633995

> <SlogP_VSA6>
0.0

> <SlogP_VSA7>
158.78867

> <SlogP_VSA8>
18.868406

> <SlogP_VSA9>
0.0

> <SMR>
8.4852695

> <SMR_VSA0>
0.0

> <SMR_VSA1>
0.0

> <SMR_VSA2>
21.196325

> <SMR_VSA3>
12.7423

> <SMR_VSA4>
0.0

> <SMR_VSA5>
215.39388

> <SMR_VSA6>
18.439579

> <SMR_VSA7>
32.897186

> <TPSA>
12.03

> <VAdjEq>
0.49991596

> <VAdjMa>
5.4594316

> <VDistEq>
2.9541149

> <VDistMa>
8.3778744

> <vdw_area>
277.93542

> <vdw_vol>
411.3374

> <vsa_acc>
0.0

> <vsa_acid>
0

> <vsa_base>
0

> <vsa_don>
0.0

> <vsa_hyd>
254.9436

> <vsa_other>
0.0

> <vsa_pol>
5.6825762

> <Weight>
263.384

> <weinerPath>
759

> <weinerPol>
34

> <zagreb>
102

$$$$
Row1672
 OpenBabel06061811532D

 22 24  0  0  0  0  0  0  0  0999 V2000
    0.0000    0.0000    0.0000 O   0  0  0  0  0  0  0  0  0  0  0  0
    0.0000    0.0000    0.0000 N   0  0  0  0  0  0  0  0  0  0  0  0
    0.0000    0.0000    0.0000 C   0  0  0  0  0  0  0  0  0  0  0  0
    0.0000    0.0000    0.0000 C   0  0  0  0  0  0  0  0  0  0  0  0
    0.0000    0.0000    0.0000 C   0  0  0  0  0  0  0  0  0  0  0  0
    0.0000    0.0000    0.0000 C   0  0  0  0  0  0  0  0  0  0  0  0
    0.0000    0.0000    0.0000 C   0  0  0  0  0  0  0  0  0  0  0  0
    0.0000    0.0000    0.0000 C   0  0  0  0  0  0  0  0  0  0  0  0
    0.0000    0.0000    0.0000 C   0  0  0  0  0  0  0  0  0  0  0  0
    0.0000    0.0000    0.0000 C   0  0  0  0  0  0  0  0  0  0  0  0
    0.0000    0.0000    0.0000 C   0  0  0  0  0  0  0  0  0  0  0  0
    0.0000    0.0000    0.0000 C   0  0  0  0  0  0  0  0  0  0  0  0
    0.0000    0.0000    0.0000 C   0  0  0  0  0  0  0  0  0  0  0  0
    0.0000    0.0000    0.0000 C   0  0  0  0  0  0  0  0  0  0  0  0
    0.0000    0.0000    0.0000 C   0  0  0  0  0  0  0  0  0  0  0  0
    0.0000    0.0000    0.0000 C   0  0  0  0  0  0  0  0  0  0  0  0
    0.0000    0.0000    0.0000 C   0  0  0  0  0  0  0  0  0  0  0  0
    0.0000    0.0000    0.0000 C   0  0  0  0  0  0  0  0  0  0  0  0
    0.0000    0.0000    0.0000 C   0  0  0  0  0  0  0  0  0  0  0  0
    0.0000    0.0000    0.0000 N   0  0  0  0  0  0  0  0  0  0  0  0
    0.0000    0.0000    0.0000 C   0  0  0  0  0  0  0  0  0  0  0  0
    0.0000    0.0000    0.0000 C   0  0  0  0  0  0  0  0  0  0  0  0
  1  2  1  0  0  0  0
  1 18  1  0  0  0  0
  2  3  2  3  0  0  0
  3  9  1  0  0  0  0
  3  4  1  0  0  0  0
  4 17  1  0  0  0  0
  4  5  2  0  0  0  0
  5  6  1  0  0  0  0
  5 14  1  0  0  0  0
  6  7  1  0  0  0  0
  7  8  1  0  0  0  0
  8 13  1  0  0  0  0
  8  9  2  0  0  0  0
  9 10  1  0  0  0  0
 10 11  2  0  0  0  0
 11 12  1  0  0  0  0
 12 13  2  0  0  0  0
 14 15  2  0  0  0  0
 15 16  1  0  0  0  0
 16 17  2  0  0  0  0
 18 19  1  0  0  0  0
 19 20  1  0  0  0  0
 20 21  1  0  0  0  0
 20 22  1  0  0  0  0
M  END
> <Index>
1673

> <ID>
HT1530

> <class>
1

> <apol>
51.111446

> <ast_fraglike>
0

> <ast_fraglike_ext>
0

> <ast_violation>
1

> <ast_violation_ext>
2

> <a_acc>
2

> <a_acid>
0

> <a_aro>
12

> <a_base>
0

> <a_count>
44

> <a_don>
0

> <a_donacc>
2

> <a_heavy>
22

> <a_hyd>
18

> <a_IC>
59.396873

> <a_ICM>
1.349929

> <a_nB>
0

> <a_nBr>
0

> <a_nC>
19

> <a_nCl>
0

> <a_nF>
0

> <a_nH>
22

> <a_nI>
0

> <a_nN>
2

> <a_nO>
1

> <a_nP>
0

> <a_nS>
0

> <balabanJ>
1.6534979

> <BCUT_PEOE_0>
-2.5871189

> <BCUT_PEOE_1>
-0.52562886

> <BCUT_PEOE_2>
0.58072805

> <BCUT_PEOE_3>
2.5019467

> <BCUT_SLOGP_0>
-2.6936314

> <BCUT_SLOGP_1>
-0.42654088

> <BCUT_SLOGP_2>
0.68353236

> <BCUT_SLOGP_3>
2.5336223

> <BCUT_SMR_0>
-2.3172865

> <BCUT_SMR_1>
-0.39389616

> <BCUT_SMR_2>
0.72523838

> <BCUT_SMR_3>
2.773442

> <bpol>
27.946554

> <b_1rotN>
4

> <b_1rotR>
0.16666667

> <b_ar>
12

> <b_count>
46

> <b_double>
1

> <b_heavy>
24

> <b_max1len>
5

> <b_rotN>
4

> <b_rotR>
0.16666667

> <b_single>
33

> <b_triple>
0

> <chi0>
15.363597

> <chi0v>
13.249905

> <chi0v_C>
11.947229

> <chi0_C>
13.372033

> <chi1>
10.75402

> <chi1v>
7.7673182

> <chi1v_C>
5.8618073

> <chi1_C>
7.7828231

> <chiral>
0

> <chiral_u>
0

> <density>
0.6723901

> <diameter>
10

> <FCharge>
0

> <GCUT_PEOE_0>
-0.85835481

> <GCUT_PEOE_1>
-0.33945626

> <GCUT_PEOE_2>
0.024676191

> <GCUT_PEOE_3>
2.634598

> <GCUT_SLOGP_0>
-0.9588809

> <GCUT_SLOGP_1>
-0.28517237

> <GCUT_SLOGP_2>
0.11933966

> <GCUT_SLOGP_3>
2.7169075

> <GCUT_SMR_0>
-0.5175001

> <GCUT_SMR_1>
-0.18231109

> <GCUT_SMR_2>
0.15789278

> <GCUT_SMR_3>
2.9289715

> <Kier1>
16.84375

> <Kier2>
8.203125

> <Kier3>
4.3083901

> <KierA1>
12.809166

> <KierA2>
6.1505866

> <KierA3>
3.1973252

> <KierFlex>
3.5810857

> <lip_acc>
3

> <lip_don>
0

> <lip_druglike>
1

> <lip_violation>
0

> <logP(o/w)>
4.151

> <logS>
-4.4289298

> <mr>
9.0367842

> <mutagenic>
0

> <nmol>
1

> <opr_brigid>
18

> <opr_leadlike>
1

> <opr_nring>
3

> <opr_nrot>
4

> <opr_violation>
0

> <PC+>
0

> <PC->
0

> <PEOE_PC+>
1.2998453

> <PEOE_PC->
-1.2998453

> <PEOE_RPC+>
0.081331745

> <PEOE_RPC->
0.2354822

> <PEOE_VSA+0>
68.794037

> <PEOE_VSA+1>
57.605152

> <PEOE_VSA+2>
6.6995511

> <PEOE_VSA+3>
0.0

> <PEOE_VSA+4>
0.0

> <PEOE_VSA+5>
0.0

> <PEOE_VSA+6>
0.0

> <PEOE_VSA-0>
68.297081

> <PEOE_VSA-1>
98.03923

> <PEOE_VSA-2>
10.885262

> <PEOE_VSA-3>
0.0

> <PEOE_VSA-4>
5.9023595

> <PEOE_VSA-5>
0.0

> <PEOE_VSA-6>
0.0

> <PEOE_VSA_FHYD>
0.98133481

> <PEOE_VSA_FNEG>
0.57909805

> <PEOE_VSA_FPNEG>
0.0186652

> <PEOE_VSA_FPOL>
0.0186652

> <PEOE_VSA_FPOS>
0.42090195

> <PEOE_VSA_FPPOS>
0.0

> <PEOE_VSA_HYD>
310.32031

> <PEOE_VSA_NEG>
183.12393

> <PEOE_VSA_PNEG>
5.9023595

> <PEOE_VSA_POL>
5.9023595

> <PEOE_VSA_POS>
133.09874

> <PEOE_VSA_PPOS>
0.0

> <petitjean>
0.5

> <petitjeanSC>
1.0

> <Q_PC+>
0

> <Q_PC->
0

> <Q_RPC+>
0

> <Q_RPC->
0

> <Q_VSA_FHYD>
1

> <Q_VSA_FNEG>
0

> <Q_VSA_FPNEG>
0

> <Q_VSA_FPOL>
0

> <Q_VSA_FPOS>
1

> <Q_VSA_FPPOS>
0

> <Q_VSA_HYD>
316.22269

> <Q_VSA_NEG>
0

> <Q_VSA_PNEG>
0

> <Q_VSA_POL>
0

> <Q_VSA_POS>
316.22269

> <Q_VSA_PPOS>
0

> <radius>
5

> <reactive>
1

> <rings>
3

> <RPC+>
0

> <RPC->
0

> <rsynth>
1.0

> <SlogP>
3.1157401

> <SlogP_VSA0>
0.0

> <SlogP_VSA1>
5.8810616

> <SlogP_VSA2>
11.218763

> <SlogP_VSA3>
39.365837

> <SlogP_VSA4>
12.7423

> <SlogP_VSA5>
122.93105

> <SlogP_VSA6>
0.0

> <SlogP_VSA7>
141.14548

> <SlogP_VSA8>
0.0

> <SlogP_VSA9>
0.0

> <SMR>
9.0437002

> <SMR_VSA0>
11.218763

> <SMR_VSA1>
22.524176

> <SMR_VSA2>
0.0

> <SMR_VSA3>
12.7423

> <SMR_VSA4>
0.0

> <SMR_VSA5>
178.88228

> <SMR_VSA6>
42.122585

> <SMR_VSA7>
65.794373

> <TPSA>
24.83

> <VAdjEq>
0.46637034

> <VAdjMa>
5.5849624

> <VDistEq>
3.176928

> <VDistMa>
8.6354828

> <vdw_area>
316.22269

> <vdw_vol>
437.83807

> <vsa_acc>
10.885262

> <vsa_acid>
0

> <vsa_base>
0

> <vsa_don>
0.0

> <vsa_hyd>
277.07602

> <vsa_other>
12.601911

> <vsa_pol>
10.885262

> <Weight>
294.39798

> <weinerPath>
1043

> <weinerPol>
36

> <zagreb>
112

$$$$
Row1673
 OpenBabel06061811532D

 82 86  0  0  1  0  0  0  0  0999 V2000
    0.0000    0.0000    0.0000 S   0  0  0  0  0  0  0  0  0  0  0  0
    0.0000    0.0000    0.0000 S   0  0  0  0  0  0  0  0  0  0  0  0
    0.0000    0.0000    0.0000 C   0  0  0  0  0  0  0  0  0  0  0  0
    0.0000    0.0000    0.0000 C   0  0  2  0  0  0  0  0  0  0  0  0
    0.0000    0.0000    0.0000 H   0  0  0  0  0  0  0  0  0  0  0  0
    0.0000    0.0000    0.0000 N   0  0  0  0  0  0  0  0  0  0  0  0
    0.0000    0.0000    0.0000 C   0  0  0  0  0  0  0  0  0  0  0  0
    0.0000    0.0000    0.0000 O   0  0  0  0  0  0  0  0  0  0  0  0
    0.0000    0.0000    0.0000 C   0  0  1  0  0  0  0  0  0  0  0  0
    0.0000    0.0000    0.0000 H   0  0  0  0  0  0  0  0  0  0  0  0
    0.0000    0.0000    0.0000 N   0  0  0  0  0  0  0  0  0  0  0  0
    0.0000    0.0000    0.0000 C   0  0  0  0  0  0  0  0  0  0  0  0
    0.0000    0.0000    0.0000 O   0  0  0  0  0  0  0  0  0  0  0  0
    0.0000    0.0000    0.0000 C   0  0  1  0  0  0  0  0  0  0  0  0
    0.0000    0.0000    0.0000 H   0  0  0  0  0  0  0  0  0  0  0  0
    0.0000    0.0000    0.0000 N   0  0  0  0  0  0  0  0  0  0  0  0
    0.0000    0.0000    0.0000 C   0  0  0  0  0  0  0  0  0  0  0  0
    0.0000    0.0000    0.0000 O   0  0  0  0  0  0  0  0  0  0  0  0
    0.0000    0.0000    0.0000 C   0  0  2  0  0  0  0  0  0  0  0  0
    0.0000    0.0000    0.0000 H   0  0  0  0  0  0  0  0  0  0  0  0
    0.0000    0.0000    0.0000 N   0  0  0  0  0  0  0  0  0  0  0  0
    0.0000    0.0000    0.0000 C   0  0  0  0  0  0  0  0  0  0  0  0
    0.0000    0.0000    0.0000 O   0  0  0  0  0  0  0  0  0  0  0  0
    0.0000    0.0000    0.0000 C   0  0  1  0  0  0  0  0  0  0  0  0
    0.0000    0.0000    0.0000 H   0  0  0  0  0  0  0  0  0  0  0  0
    0.0000    0.0000    0.0000 N   0  0  0  0  0  0  0  0  0  0  0  0
    0.0000    0.0000    0.0000 C   0  0  0  0  0  0  0  0  0  0  0  0
    0.0000    0.0000    0.0000 O   0  0  0  0  0  0  0  0  0  0  0  0
    0.0000    0.0000    0.0000 C   0  0  1  0  0  0  0  0  0  0  0  0
    0.0000    0.0000    0.0000 H   0  0  0  0  0  0  0  0  0  0  0  0
    0.0000    0.0000    0.0000 N   0  0  0  0  0  0  0  0  0  0  0  0
    0.0000    0.0000    0.0000 C   0  0  0  0  0  0  0  0  0  0  0  0
    0.0000    0.0000    0.0000 O   0  0  0  0  0  0  0  0  0  0  0  0
    0.0000    0.0000    0.0000 C   0  0  2  0  0  0  0  0  0  0  0  0
    0.0000    0.0000    0.0000 H   0  0  0  0  0  0  0  0  0  0  0  0
    0.0000    0.0000    0.0000 N   0  0  0  0  0  0  0  0  0  0  0  0
    0.0000    0.0000    0.0000 C   0  0  0  0  0  0  0  0  0  0  0  0
    0.0000    0.0000    0.0000 C   0  0  0  0  0  0  0  0  0  0  0  0
    0.0000    0.0000    0.0000 C   0  0  0  0  0  0  0  0  0  0  0  0
    0.0000    0.0000    0.0000 C   0  0  0  0  0  0  0  0  0  0  0  0
    0.0000    0.0000    0.0000 C   0  0  0  0  0  0  0  0  0  0  0  0
    0.0000    0.0000    0.0000 C   0  0  0  0  0  0  0  0  0  0  0  0
    0.0000    0.0000    0.0000 C   0  0  0  0  0  0  0  0  0  0  0  0
    0.0000    0.0000    0.0000 C   0  0  0  0  0  0  0  0  0  0  0  0
    0.0000    0.0000    0.0000 C   0  0  0  0  0  0  0  0  0  0  0  0
    0.0000    0.0000    0.0000 C   0  0  0  0  0  0  0  0  0  0  0  0
    0.0000    0.0000    0.0000 C   0  0  0  0  0  0  0  0  0  0  0  0
    0.0000    0.0000    0.0000 C   0  0  0  0  0  0  0  0  0  0  0  0
    0.0000    0.0000    0.0000 C   0  0  0  0  0  0  0  0  0  0  0  0
    0.0000    0.0000    0.0000 C   0  0  0  0  0  0  0  0  0  0  0  0
    0.0000    0.0000    0.0000 C   0  0  0  0  0  0  0  0  0  0  0  0
    0.0000    0.0000    0.0000 C   0  0  0  0  0  0  0  0  0  0  0  0
    0.0000    0.0000    0.0000 C   0  0  0  0  0  0  0  0  0  0  0  0
    0.0000    0.0000    0.0000 C   0  0  0  0  0  0  0  0  0  0  0  0
    0.0000    0.0000    0.0000 C   0  0  0  0  0  0  0  0  0  0  0  0
    0.0000    0.0000    0.0000 N   0  0  0  0  0  0  0  0  0  0  0  0
    0.0000    0.0000    0.0000 H   0  0  0  0  0  0  0  0  0  0  0  0
    0.0000    0.0000    0.0000 C   0  0  0  0  0  0  0  0  0  0  0  0
    0.0000    0.0000    0.0000 C   0  0  0  0  0  0  0  0  0  0  0  0
    0.0000    0.0000    0.0000 C   0  0  0  0  0  0  0  0  0  0  0  0
    0.0000    0.0000    0.0000 C   0  0  0  0  0  0  0  0  0  0  0  0
    0.0000    0.0000    0.0000 C   0  0  0  0  0  0  0  0  0  0  0  0
    0.0000    0.0000    0.0000 C   0  0  0  0  0  0  0  0  0  0  0  0
    0.0000    0.0000    0.0000 C   0  0  0  0  0  0  0  0  0  0  0  0
    0.0000    0.0000    0.0000 C   0  0  0  0  0  0  0  0  0  0  0  0
    0.0000    0.0000    0.0000 C   0  0  0  0  0  0  0  0  0  0  0  0
    0.0000    0.0000    0.0000 N   0  0  0  0  0  0  0  0  0  0  0  0
    0.0000    0.0000    0.0000 C   0  0  2  0  0  0  0  0  0  0  0  0
    0.0000    0.0000    0.0000 H   0  0  0  0  0  0  0  0  0  0  0  0
    0.0000    0.0000    0.0000 O   0  0  0  0  0  0  0  0  0  0  0  0
    0.0000    0.0000    0.0000 C   0  0  0  0  0  0  0  0  0  0  0  0
    0.0000    0.0000    0.0000 C   0  0  0  0  0  0  0  0  0  0  0  0
    0.0000    0.0000    0.0000 O   0  0  0  0  0  0  0  0  0  0  0  0
    0.0000    0.0000    0.0000 N   0  0  0  0  0  0  0  0  0  0  0  0
    0.0000    0.0000    0.0000 C   0  0  1  0  0  0  0  0  0  0  0  0
    0.0000    0.0000    0.0000 H   0  0  0  0  0  0  0  0  0  0  0  0
    0.0000    0.0000    0.0000 C   0  0  2  0  0  0  0  0  0  0  0  0
    0.0000    0.0000    0.0000 H   0  0  0  0  0  0  0  0  0  0  0  0
    0.0000    0.0000    0.0000 O   0  0  0  0  0  0  0  0  0  0  0  0
    0.0000    0.0000    0.0000 C   0  0  0  0  0  0  0  0  0  0  0  0
    0.0000    0.0000    0.0000 C   0  0  0  0  0  0  0  0  0  0  0  0
    0.0000    0.0000    0.0000 O   0  0  0  0  0  0  0  0  0  0  0  0
  1 44  1  0  0  0  0
  1  2  1  0  0  0  0
  2  3  1  0  0  0  0
  3  4  1  0  0  0  0
  4  5  1  0  0  0  0
  4  6  1  0  0  0  0
  4 72  1  0  0  0  0
  6  7  1  0  0  0  0
  7  8  2  0  0  0  0
  7  9  1  0  0  0  0
  9 10  1  0  0  0  0
  9 11  1  0  0  0  0
  9 68  1  0  0  0  0
 11 12  1  0  0  0  0
 12 13  2  0  0  0  0
 12 14  1  0  0  0  0
 14 15  1  0  0  0  0
 14 16  1  0  0  0  0
 14 63  1  0  0  0  0
 16 17  1  0  0  0  0
 17 18  2  0  0  0  0
 17 19  1  0  0  0  0
 19 20  1  0  0  0  0
 19 21  1  0  0  0  0
 19 52  1  0  0  0  0
 21 22  1  0  0  0  0
 22 23  2  0  0  0  0
 22 24  1  0  0  0  0
 24 25  1  0  0  0  0
 24 26  1  0  0  0  0
 24 45  1  0  0  0  0
 26 27  1  0  0  0  0
 27 28  2  0  0  0  0
 27 29  1  0  0  0  0
 29 30  1  0  0  0  0
 29 31  1  0  0  0  0
 29 44  1  0  0  0  0
 31 32  1  0  0  0  0
 32 33  2  0  0  0  0
 32 34  1  0  0  0  0
 34 35  1  0  0  0  0
 34 36  1  0  0  0  0
 34 37  1  0  0  0  0
 37 38  1  0  0  0  0
 38 43  1  0  0  0  0
 38 39  2  0  0  0  0
 39 40  1  0  0  0  0
 40 41  2  0  0  0  0
 41 42  1  0  0  0  0
 42 43  2  0  0  0  0
 45 46  1  0  0  0  0
 46 51  1  0  0  0  0
 46 47  2  0  0  0  0
 47 48  1  0  0  0  0
 48 49  2  0  0  0  0
 49 50  1  0  0  0  0
 50 51  2  0  0  0  0
 52 53  1  0  0  0  0
 53 58  2  0  0  0  0
 53 54  1  0  0  0  0
 54 62  1  0  0  0  0
 54 55  2  0  0  0  0
 55 56  1  0  0  0  0
 55 59  1  0  0  0  0
 56 57  1  0  0  0  0
 56 58  1  0  0  0  0
 59 60  2  0  0  0  0
 60 61  1  0  0  0  0
 61 62  2  0  0  0  0
 63 64  1  0  0  0  0
 64 65  1  0  0  0  0
 65 66  1  0  0  0  0
 66 67  1  0  0  0  0
 68 69  1  0  0  0  0
 68 70  1  0  0  0  0
 68 71  1  0  0  0  0
 72 73  2  0  0  0  0
 72 74  1  0  0  0  0
 74 75  1  0  0  0  0
 75 76  1  0  0  0  0
 75 77  1  0  0  0  0
 75 81  1  0  0  0  0
 77 78  1  0  0  0  0
 77 79  1  0  0  0  0
 77 80  1  0  0  0  0
 81 82  1  0  0  0  0
M  END
> <Index>
1674

> <ID>
HT1533

> <class>
1

> <apol>
155.06834

> <ast_fraglike>
0

> <ast_fraglike_ext>
0

> <ast_violation>
3

> <ast_violation_ext>
5

> <a_acc>
12

> <a_acid>
0

> <a_aro>
21

> <a_base>
0

> <a_count>
137

> <a_don>
13

> <a_donacc>
25

> <a_heavy>
71

> <a_hyd>
44

> <a_IC>
229.94104

> <a_ICM>
1.6784017

> <a_nB>
0

> <a_nBr>
0

> <a_nC>
49

> <a_nCl>
0

> <a_nF>
0

> <a_nH>
66

> <a_nI>
0

> <a_nN>
10

> <a_nO>
10

> <a_nP>
0

> <a_nS>
2

> <balabanJ>
1.5024607

> <BCUT_PEOE_0>
-2.6711318

> <BCUT_PEOE_1>
-0.57452506

> <BCUT_PEOE_2>
0.60494822

> <BCUT_PEOE_3>
2.6786795

> <BCUT_SLOGP_0>
-2.8985088

> <BCUT_SLOGP_1>
-0.52964425

> <BCUT_SLOGP_2>
0.6692701

> <BCUT_SLOGP_3>
2.6697476

> <BCUT_SMR_0>
-2.418658

> <BCUT_SMR_1>
-0.40568548

> <BCUT_SMR_2>
0.75815302

> <BCUT_SMR_3>
2.9342959

> <bpol>
85.097664

> <b_1rotN>
17

> <b_1rotR>
0.22666667

> <b_ar>
22

> <b_count>
141

> <b_double>
7

> <b_heavy>
75

> <b_max1len>
7

> <b_rotN>
19

> <b_rotR>
0.25333333

> <b_single>
112

> <b_triple>
0

> <chi0>
51.450443

> <chi0v>
41.308395

> <chi0v_C>
29.504824

> <chi0_C>
32.379375

> <chi1>
34.073029

> <chi1v>
25.992413

> <chi1v_C>
15.447884

> <chi1_C>
18.761589

> <chiral>
10

> <chiral_u>
0

> <density>
0.77189946

> <diameter>
22

> <FCharge>
0

> <GCUT_PEOE_0>
-0.86279202

> <GCUT_PEOE_1>
-0.39001167

> <GCUT_PEOE_2>
0.076360062

> <GCUT_PEOE_3>
3.2362394

> <GCUT_SLOGP_0>
-1.3636525

> <GCUT_SLOGP_1>
-0.40343481

> <GCUT_SLOGP_2>
0.13822752

> <GCUT_SLOGP_3>
3.1614659

> <GCUT_SMR_0>
-0.52864462

> <GCUT_SMR_1>
-0.22258842

> <GCUT_SMR_2>
0.19129492

> <GCUT_SMR_3>
3.4894323

> <Kier1>
61.848888

> <Kier2>
32.670326

> <Kier3>
20.388006

> <KierA1>
49.436871

> <KierA2>
26.026442

> <KierA3>
16.20409

> <KierFlex>
18.122055

> <lip_acc>
20

> <lip_don>
15

> <lip_druglike>
0

> <lip_violation>
3

> <logP(o/w)>
0.63099998

> <logS>
-8.8558903

> <mr>
27.387518

> <mutagenic>
0

> <nmol>
1

> <opr_brigid>
42

> <opr_leadlike>
0

> <opr_nring>
4

> <opr_nrot>
32

> <opr_violation>
4

> <PC+>
0

> <PC->
0

> <PEOE_PC+>
7.7834582

> <PEOE_PC->
-7.7834582

> <PEOE_RPC+>
0.031675238

> <PEOE_RPC->
0.050478779

> <PEOE_VSA+0>
166.78064

> <PEOE_VSA+1>
146.21849

> <PEOE_VSA+2>
53.351814

> <PEOE_VSA+3>
68.952103

> <PEOE_VSA+4>
121.61923

> <PEOE_VSA+5>
0.0

> <PEOE_VSA+6>
0.0

> <PEOE_VSA-0>
104.37346

> <PEOE_VSA-1>
202.78711

> <PEOE_VSA-2>
0.0

> <PEOE_VSA-3>
0.0

> <PEOE_VSA-4>
0.0

> <PEOE_VSA-5>
94.968445

> <PEOE_VSA-6>
37.699989

> <PEOE_VSA_FHYD>
0.74488354

> <PEOE_VSA_FNEG>
0.44126254

> <PEOE_VSA_FPNEG>
0.13310084

> <PEOE_VSA_FPOL>
0.25511646

> <PEOE_VSA_FPOS>
0.55873746

> <PEOE_VSA_FPPOS>
0.12201563

> <PEOE_VSA_HYD>
742.46362

> <PEOE_VSA_NEG>
439.82901

> <PEOE_VSA_PNEG>
132.66843

> <PEOE_VSA_POL>
254.28767

> <PEOE_VSA_POS>
556.9223

> <PEOE_VSA_PPOS>
121.61923

> <petitjean>
0.45454547

> <petitjeanSC>
0.83333331

> <Q_PC+>
0

> <Q_PC->
0

> <Q_RPC+>
0

> <Q_RPC->
0

> <Q_VSA_FHYD>
1

> <Q_VSA_FNEG>
0

> <Q_VSA_FPNEG>
0

> <Q_VSA_FPOL>
0

> <Q_VSA_FPOS>
1

> <Q_VSA_FPPOS>
0

> <Q_VSA_HYD>
996.75128

> <Q_VSA_NEG>
0

> <Q_VSA_PNEG>
0

> <Q_VSA_POL>
0

> <Q_VSA_POS>
996.75128

> <Q_VSA_PPOS>
0

> <radius>
12

> <reactive>
1

> <rings>
5

> <RPC+>
0

> <RPC->
0

> <rsynth>
1.0

> <SlogP>
-0.80549002

> <SlogP_VSA0>
268.0253

> <SlogP_VSA1>
36.811485

> <SlogP_VSA2>
228.61409

> <SlogP_VSA3>
73.832962

> <SlogP_VSA4>
9.5567245

> <SlogP_VSA5>
56.605217

> <SlogP_VSA6>
0.0

> <SlogP_VSA7>
268.93604

> <SlogP_VSA8>
56.605217

> <SlogP_VSA9>
127.01553

> <SMR>
27.20558

> <SMR_VSA0>
167.03551

> <SMR_VSA1>
76.155678

> <SMR_VSA2>
142.86078

> <SMR_VSA3>
54.349773

> <SMR_VSA4>
70.511475

> <SMR_VSA5>
377.42938

> <SMR_VSA6>
110.64445

> <SMR_VSA7>
127.01553

> <TPSA>
332.22

> <VAdjEq>
0.19316673

> <VAdjMa>
7.2288189

> <VDistEq>
4.1355429

> <VDistMa>
12.099571

> <vdw_area>
996.75128

> <vdw_vol>
1320.4557

> <vsa_acc>
94.968445

> <vsa_acid>
0

> <vsa_base>
0

> <vsa_don>
45.460609

> <vsa_hyd>
602.73389

> <vsa_other>
90.646713

> <vsa_pol>
216.61479

> <Weight>
1019.259

> <weinerPath>
23347

> <weinerPol>
112

> <zagreb>
352

$$$$
Row1674
 OpenBabel06061811532D

 22 25  0  0  0  0  0  0  0  0999 V2000
    0.0000    0.0000    0.0000 S   0  0  0  0  0  0  0  0  0  0  0  0
    0.0000    0.0000    0.0000 C   0  0  0  0  0  0  0  0  0  0  0  0
    0.0000    0.0000    0.0000 N   0  0  0  0  0  0  0  0  0  0  0  0
    0.0000    0.0000    0.0000 C   0  0  0  0  0  0  0  0  0  0  0  0
    0.0000    0.0000    0.0000 C   0  0  0  0  0  0  0  0  0  0  0  0
    0.0000    0.0000    0.0000 N   0  0  0  0  0  0  0  0  0  0  0  0
    0.0000    0.0000    0.0000 C   0  0  0  0  0  0  0  0  0  0  0  0
    0.0000    0.0000    0.0000 N   0  0  0  0  0  0  0  0  0  0  0  0
    0.0000    0.0000    0.0000 C   0  0  0  0  0  0  0  0  0  0  0  0
    0.0000    0.0000    0.0000 C   0  0  0  0  0  0  0  0  0  0  0  0
    0.0000    0.0000    0.0000 N   0  0  0  0  0  0  0  0  0  0  0  0
    0.0000    0.0000    0.0000 C   0  0  0  0  0  0  0  0  0  0  0  0
    0.0000    0.0000    0.0000 C   0  0  0  0  0  0  0  0  0  0  0  0
    0.0000    0.0000    0.0000 C   0  0  0  0  0  0  0  0  0  0  0  0
    0.0000    0.0000    0.0000 C   0  0  0  0  0  0  0  0  0  0  0  0
    0.0000    0.0000    0.0000 C   0  0  0  0  0  0  0  0  0  0  0  0
    0.0000    0.0000    0.0000 C   0  0  0  0  0  0  0  0  0  0  0  0
    0.0000    0.0000    0.0000 C   0  0  0  0  0  0  0  0  0  0  0  0
    0.0000    0.0000    0.0000 C   0  0  0  0  0  0  0  0  0  0  0  0
    0.0000    0.0000    0.0000 C   0  0  0  0  0  0  0  0  0  0  0  0
    0.0000    0.0000    0.0000 C   0  0  0  0  0  0  0  0  0  0  0  0
    0.0000    0.0000    0.0000 C   0  0  0  0  0  0  0  0  0  0  0  0
  1 17  1  0  0  0  0
  1  2  1  0  0  0  0
  2 15  2  0  0  0  0
  2  3  1  0  0  0  0
  3  4  1  0  0  0  0
  4 22  1  0  0  0  0
  4  5  2  0  0  0  0
  5  6  1  0  0  0  0
  5 19  1  0  0  0  0
  6  7  2  0  0  0  0
  7  8  1  0  0  0  0
  7 15  1  0  0  0  0
  8 13  1  0  0  0  0
  8  9  1  0  0  0  0
  9 10  1  0  0  0  0
 10 11  1  0  0  0  0
 11 12  1  0  0  0  0
 11 14  1  0  0  0  0
 12 13  1  0  0  0  0
 15 16  1  0  0  0  0
 16 17  2  0  0  0  0
 17 18  1  0  0  0  0
 19 20  2  0  0  0  0
 20 21  1  0  0  0  0
 21 22  2  0  0  0  0
M  END
> <Index>
1675

> <ID>
HT1535

> <class>
1

> <apol>
50.555859

> <ast_fraglike>
0

> <ast_fraglike_ext>
0

> <ast_violation>
2

> <ast_violation_ext>
2

> <a_acc>
2

> <a_acid>
0

> <a_aro>
11

> <a_base>
0

> <a_count>
42

> <a_don>
1

> <a_donacc>
3

> <a_heavy>
22

> <a_hyd>
17

> <a_IC>
62.551903

> <a_ICM>
1.489331

> <a_nB>
0

> <a_nBr>
0

> <a_nC>
17

> <a_nCl>
0

> <a_nF>
0

> <a_nH>
20

> <a_nI>
0

> <a_nN>
4

> <a_nO>
0

> <a_nP>
0

> <a_nS>
1

> <balabanJ>
1.5433159

> <BCUT_PEOE_0>
-2.7492204

> <BCUT_PEOE_1>
-0.52699894

> <BCUT_PEOE_2>
0.59977275

> <BCUT_PEOE_3>
2.6450336

> <BCUT_SLOGP_0>
-2.870975

> <BCUT_SLOGP_1>
-0.40616632

> <BCUT_SLOGP_2>
0.72220951

> <BCUT_SLOGP_3>
2.5483577

> <BCUT_SMR_0>
-2.4584394

> <BCUT_SMR_1>
-0.34198204

> <BCUT_SMR_2>
0.76710898

> <BCUT_SMR_3>
2.9290671

> <bpol>
30.084141

> <b_1rotN>
1

> <b_1rotR>
0.039999999

> <b_ar>
11

> <b_count>
45

> <b_double>
1

> <b_heavy>
25

> <b_max1len>
2

> <b_rotN>
1

> <b_rotR>
0.039999999

> <b_single>
33

> <b_triple>
0

> <chi0>
15.104083

> <chi0v>
13.781564

> <chi0v_C>
10.715178

> <chi0_C>
11.828063

> <chi1>
10.70351

> <chi1v>
8.5123901

> <chi1v_C>
4.4047008

> <chi1_C>
5.7103434

> <chiral>
0

> <chiral_u>
0

> <density>
0.72995633

> <diameter>
10

> <FCharge>
0

> <GCUT_PEOE_0>
-0.86642677

> <GCUT_PEOE_1>
-0.35880724

> <GCUT_PEOE_2>
0.031338297

> <GCUT_PEOE_3>
2.6922414

> <GCUT_SLOGP_0>
-0.96672869

> <GCUT_SLOGP_1>
-0.26995292

> <GCUT_SLOGP_2>
0.14997865

> <GCUT_SLOGP_3>
2.7774367

> <GCUT_SMR_0>
-0.51366037

> <GCUT_SMR_1>
-0.16035703

> <GCUT_SMR_2>
0.17357631

> <GCUT_SMR_3>
3.0007107

> <Kier1>
15.5232

> <Kier2>
6.4814816

> <Kier3>
3.1653478

> <KierA1>
12.585799

> <KierA2>
5.1989999

> <KierA3>
2.5193489

> <KierFlex>
2.9742529

> <lip_acc>
4

> <lip_don>
1

> <lip_druglike>
1

> <lip_violation>
0

> <logP(o/w)>
2.523

> <logS>
-3.6436

> <mr>
9.0496454

> <mutagenic>
0

> <nmol>
1

> <opr_brigid>
22

> <opr_leadlike>
1

> <opr_nring>
4

> <opr_nrot>
3

> <opr_violation>
0

> <PC+>
0

> <PC->
0

> <PEOE_PC+>
1.5836954

> <PEOE_PC->
-1.5836954

> <PEOE_RPC+>
0.10954163

> <PEOE_RPC->
0.22286402

> <PEOE_VSA+0>
104.33125

> <PEOE_VSA+1>
45.088024

> <PEOE_VSA+2>
19.809576

> <PEOE_VSA+3>
19.760618

> <PEOE_VSA+4>
0.0

> <PEOE_VSA+5>
0.0

> <PEOE_VSA+6>
0.0

> <PEOE_VSA-0>
75.171791

> <PEOE_VSA-1>
40.949314

> <PEOE_VSA-2>
0.0

> <PEOE_VSA-3>
0.0

> <PEOE_VSA-4>
5.6825762

> <PEOE_VSA-5>
0.13689101

> <PEOE_VSA-6>
0.0

> <PEOE_VSA_FHYD>
0.98128366

> <PEOE_VSA_FNEG>
0.39218009

> <PEOE_VSA_FPNEG>
0.018716324

> <PEOE_VSA_FPOL>
0.018716324

> <PEOE_VSA_FPOS>
0.60781991

> <PEOE_VSA_FPPOS>
0.0

> <PEOE_VSA_HYD>
305.11057

> <PEOE_VSA_NEG>
121.94057

> <PEOE_VSA_PNEG>
5.8194671

> <PEOE_VSA_POL>
5.8194671

> <PEOE_VSA_POS>
188.98947

> <PEOE_VSA_PPOS>
0.0

> <petitjean>
0.5

> <petitjeanSC>
1.0

> <Q_PC+>
0

> <Q_PC->
0

> <Q_RPC+>
0

> <Q_RPC->
0

> <Q_VSA_FHYD>
1

> <Q_VSA_FNEG>
0

> <Q_VSA_FPNEG>
0

> <Q_VSA_FPOL>
0

> <Q_VSA_FPOS>
1

> <Q_VSA_FPPOS>
0

> <Q_VSA_HYD>
310.93002

> <Q_VSA_NEG>
0

> <Q_VSA_PNEG>
0

> <Q_VSA_POL>
0

> <Q_VSA_POS>
310.93002

> <Q_VSA_PPOS>
0

> <radius>
5

> <reactive>
0

> <rings>
4

> <RPC+>
0

> <RPC->
0

> <rsynth>
1.0

> <SlogP>
3.43922

> <SlogP_VSA0>
0.0

> <SlogP_VSA1>
26.587299

> <SlogP_VSA2>
0.0

> <SlogP_VSA3>
73.758316

> <SlogP_VSA4>
4.5439763

> <SlogP_VSA5>
49.682716

> <SlogP_VSA6>
0.0

> <SlogP_VSA7>
88.215919

> <SlogP_VSA8>
0.0

> <SlogP_VSA9>
71.046768

> <SMR>
9.4047699

> <SMR_VSA0>
0.0

> <SMR_VSA1>
23.034157

> <SMR_VSA2>
0.0

> <SMR_VSA3>
4.5439763

> <SMR_VSA4>
24.453819

> <SMR_VSA5>
88.215919

> <SMR_VSA6>
76.086235

> <SMR_VSA7>
97.500893

> <TPSA>
30.870001

> <VAdjEq>
0.47938794

> <VAdjMa>
5.643856

> <VDistEq>
3.0239213

> <VDistMa>
8.6555395

> <vdw_area>
310.93002

> <vdw_vol>
428.02695

> <vsa_acc>
5.6825762

> <vsa_acid>
0

> <vsa_base>
0

> <vsa_don>
5.6825762

> <vsa_hyd>
271.77689

> <vsa_other>
11.190562

> <vsa_pol>
11.365152

> <Weight>
312.44101

> <weinerPath>
958

> <weinerPol>
38

> <zagreb>
122

$$$$
Row1675
 OpenBabel06061811532D

 39 39  0  0  1  0  0  0  0  0999 V2000
    0.0000    0.0000    0.0000 O   0  0  0  0  0  0  0  0  0  0  0  0
    0.0000    0.0000    0.0000 C   0  0  1  0  0  0  0  0  0  0  0  0
    0.0000    0.0000    0.0000 H   0  0  0  0  0  0  0  0  0  0  0  0
    0.0000    0.0000    0.0000 C   0  0  0  0  0  0  0  0  0  0  0  0
    0.0000    0.0000    0.0000 C   0  0  1  0  0  0  0  0  0  0  0  0
    0.0000    0.0000    0.0000 H   0  0  0  0  0  0  0  0  0  0  0  0
    0.0000    0.0000    0.0000 O   0  0  0  0  0  0  0  0  0  0  0  0
    0.0000    0.0000    0.0000 C   0  0  0  0  0  0  0  0  0  0  0  0
    0.0000    0.0000    0.0000 O   0  0  0  0  0  0  0  0  0  0  0  0
    0.0000    0.0000    0.0000 C   0  0  1  0  0  0  0  0  0  0  0  0
    0.0000    0.0000    0.0000 H   0  0  0  0  0  0  0  0  0  0  0  0
    0.0000    0.0000    0.0000 N   0  0  0  0  0  0  0  0  0  0  0  0
    0.0000    0.0000    0.0000 C   0  0  0  0  0  0  0  0  0  0  0  0
    0.0000    0.0000    0.0000 O   0  0  0  0  0  0  0  0  0  0  0  0
    0.0000    0.0000    0.0000 C   0  0  0  0  0  0  0  0  0  0  0  0
    0.0000    0.0000    0.0000 C   0  0  0  0  0  0  0  0  0  0  0  0
    0.0000    0.0000    0.0000 C   0  0  0  0  0  0  0  0  0  0  0  0
    0.0000    0.0000    0.0000 C   0  0  0  0  0  0  0  0  0  0  0  0
    0.0000    0.0000    0.0000 C   0  0  0  0  0  0  0  0  0  0  0  0
    0.0000    0.0000    0.0000 C   0  0  0  0  0  0  0  0  0  0  0  0
    0.0000    0.0000    0.0000 C   0  0  0  0  0  0  0  0  0  0  0  0
    0.0000    0.0000    0.0000 C   0  0  0  0  0  0  0  0  0  0  0  0
    0.0000    0.0000    0.0000 C   0  0  0  0  0  0  0  0  0  0  0  0
    0.0000    0.0000    0.0000 C   0  0  0  0  0  0  0  0  0  0  0  0
    0.0000    0.0000    0.0000 C   0  0  0  0  0  0  0  0  0  0  0  0
    0.0000    0.0000    0.0000 C   0  0  0  0  0  0  0  0  0  0  0  0
    0.0000    0.0000    0.0000 C   0  0  0  0  0  0  0  0  0  0  0  0
    0.0000    0.0000    0.0000 C   0  0  0  0  0  0  0  0  0  0  0  0
    0.0000    0.0000    0.0000 C   0  0  0  0  0  0  0  0  0  0  0  0
    0.0000    0.0000    0.0000 C   0  0  2  0  0  0  0  0  0  0  0  0
    0.0000    0.0000    0.0000 H   0  0  0  0  0  0  0  0  0  0  0  0
    0.0000    0.0000    0.0000 C   0  0  0  0  0  0  0  0  0  0  0  0
    0.0000    0.0000    0.0000 C   0  0  0  0  0  0  0  0  0  0  0  0
    0.0000    0.0000    0.0000 C   0  0  0  0  0  0  0  0  0  0  0  0
    0.0000    0.0000    0.0000 C   0  0  0  0  0  0  0  0  0  0  0  0
    0.0000    0.0000    0.0000 C   0  0  0  0  0  0  0  0  0  0  0  0
    0.0000    0.0000    0.0000 C   0  0  0  0  0  0  0  0  0  0  0  0
    0.0000    0.0000    0.0000 C   0  0  0  0  0  0  0  0  0  0  0  0
    0.0000    0.0000    0.0000 O   0  0  0  0  0  0  0  0  0  0  0  0
  1 38  1  0  0  0  0
  1  2  1  0  0  0  0
  2  3  1  0  0  0  0
  2  4  1  0  0  0  0
  2 30  1  0  0  0  0
  4  5  1  0  0  0  0
  5  6  1  0  0  0  0
  5  7  1  0  0  0  0
  5 19  1  0  0  0  0
  7  8  1  0  0  0  0
  8  9  2  0  0  0  0
  8 10  1  0  0  0  0
 10 11  1  0  0  0  0
 10 12  1  0  0  0  0
 10 15  1  0  0  0  0
 12 13  1  0  0  0  0
 13 14  2  0  0  0  0
 15 16  1  0  0  0  0
 16 17  1  0  0  0  0
 16 18  1  0  0  0  0
 19 20  1  0  0  0  0
 20 21  1  0  0  0  0
 21 22  1  0  0  0  0
 22 23  1  0  0  0  0
 23 24  1  0  0  0  0
 24 25  1  0  0  0  0
 25 26  1  0  0  0  0
 26 27  1  0  0  0  0
 27 28  1  0  0  0  0
 28 29  1  0  0  0  0
 30 31  1  0  0  0  0
 30 32  1  0  0  0  0
 30 38  1  0  0  0  0
 32 33  1  0  0  0  0
 33 34  1  0  0  0  0
 34 35  1  0  0  0  0
 35 36  1  0  0  0  0
 36 37  1  0  0  0  0
 38 39  2  0  0  0  0
M  END
> <Index>
1676

> <ID>
HT1543

> <class>
1

> <apol>
91.490028

> <ast_fraglike>
0

> <ast_fraglike_ext>
0

> <ast_violation>
2

> <ast_violation_ext>
3

> <a_acc>
3

> <a_acid>
0

> <a_aro>
0

> <a_base>
0

> <a_count>
88

> <a_don>
1

> <a_donacc>
4

> <a_heavy>
35

> <a_hyd>
26

> <a_IC>
112.35911

> <a_ICM>
1.276808

> <a_nB>
0

> <a_nBr>
0

> <a_nC>
29

> <a_nCl>
0

> <a_nF>
0

> <a_nH>
53

> <a_nI>
0

> <a_nN>
1

> <a_nO>
5

> <a_nP>
0

> <a_nS>
0

> <balabanJ>
2.5549126

> <BCUT_PEOE_0>
-2.767487

> <BCUT_PEOE_1>
-0.4415189

> <BCUT_PEOE_2>
0.5038355

> <BCUT_PEOE_3>
2.7908156

> <BCUT_SLOGP_0>
-2.7941501

> <BCUT_SLOGP_1>
-0.43000793

> <BCUT_SLOGP_2>
0.49762604

> <BCUT_SLOGP_3>
2.8377249

> <BCUT_SMR_0>
-2.5376472

> <BCUT_SMR_1>
-0.33085784

> <BCUT_SMR_2>
0.588934

> <BCUT_SMR_3>
3.0116801

> <bpol>
65.305969

> <b_1rotN>
22

> <b_1rotR>
0.62857145

> <b_ar>
0

> <b_count>
88

> <b_double>
3

> <b_heavy>
35

> <b_max1len>
15

> <b_rotN>
24

> <b_rotR>
0.6857143

> <b_single>
85

> <b_triple>
0

> <chi0>
25.890694

> <chi0v>
23.026159

> <chi0v_C>
20.484917

> <chi0_C>
20.769375

> <chi1>
16.921453

> <chi1v>
14.530041

> <chi1v_C>
12.429088

> <chi1_C>
12.518404

> <chiral>
4

> <chiral_u>
0

> <density>
0.66135263

> <diameter>
20

> <FCharge>
0

> <GCUT_PEOE_0>
-0.81856513

> <GCUT_PEOE_1>
-0.34089881

> <GCUT_PEOE_2>
0.057343159

> <GCUT_PEOE_3>
2.9890697

> <GCUT_SLOGP_0>
-1.1625131

> <GCUT_SLOGP_1>
-0.27744561

> <GCUT_SLOGP_2>
0.066143878

> <GCUT_SLOGP_3>
3.04775

> <GCUT_SMR_0>
-0.55129367

> <GCUT_SMR_1>
-0.20032698

> <GCUT_SMR_2>
0.12520199

> <GCUT_SMR_3>
3.1972024

> <Kier1>
33.028572

> <Kier2>
20.989796

> <Kier3>
15.111111

> <KierA1>
30.035248

> <KierA2>
19.032288

> <KierA3>
13.673166

> <KierFlex>
16.332556

> <lip_acc>
6

> <lip_don>
1

> <lip_druglike>
1

> <lip_violation>
1

> <logP(o/w)>
8.8669996

> <logS>
-10.21151

> <mr>
14.455365

> <mutagenic>
1

> <nmol>
1

> <opr_brigid>
4

> <opr_leadlike>
0

> <opr_nring>
1

> <opr_nrot>
22

> <opr_violation>
3

> <PC+>
0

> <PC->
0

> <PEOE_PC+>
2.8501995

> <PEOE_PC->
-2.8501995

> <PEOE_RPC+>
0.099993922

> <PEOE_RPC->
0.12160805

> <PEOE_VSA+0>
213.43983

> <PEOE_VSA+1>
22.606016

> <PEOE_VSA+2>
7.4113464

> <PEOE_VSA+3>
8.6190128

> <PEOE_VSA+4>
22.995895

> <PEOE_VSA+5>
29.416998

> <PEOE_VSA+6>
0.0

> <PEOE_VSA-0>
26.103939

> <PEOE_VSA-1>
188.10779

> <PEOE_VSA-2>
0.0

> <PEOE_VSA-3>
0.0

> <PEOE_VSA-4>
0.0

> <PEOE_VSA-5>
40.700764

> <PEOE_VSA-6>
5.1444035

> <PEOE_VSA_FHYD>
0.82595205

> <PEOE_VSA_FNEG>
0.46064782

> <PEOE_VSA_FPNEG>
0.081207141

> <PEOE_VSA_FPOL>
0.17404793

> <PEOE_VSA_FPOS>
0.53935218

> <PEOE_VSA_FPPOS>
0.092840783

> <PEOE_VSA_HYD>
466.28793

> <PEOE_VSA_NEG>
260.05688

> <PEOE_VSA_PNEG>
45.845165

> <PEOE_VSA_POL>
98.258057

> <PEOE_VSA_POS>
304.48911

> <PEOE_VSA_PPOS>
52.412895

> <petitjean>
0.5

> <petitjeanSC>
1.0

> <Q_PC+>
0

> <Q_PC->
0

> <Q_RPC+>
0

> <Q_RPC->
0

> <Q_VSA_FHYD>
1

> <Q_VSA_FNEG>
0

> <Q_VSA_FPNEG>
0

> <Q_VSA_FPOL>
0

> <Q_VSA_FPOS>
1

> <Q_VSA_FPPOS>
0

> <Q_VSA_HYD>
564.54602

> <Q_VSA_NEG>
0

> <Q_VSA_PNEG>
0

> <Q_VSA_POL>
0

> <Q_VSA_POS>
564.54602

> <Q_VSA_PPOS>
0

> <radius>
10

> <reactive>
1

> <rings>
1

> <RPC+>
0

> <RPC->
0

> <rsynth>
0.2857143

> <SlogP>
6.8818998

> <SlogP_VSA0>
18.01075

> <SlogP_VSA1>
15.490929

> <SlogP_VSA2>
130.22209

> <SlogP_VSA3>
0.0

> <SlogP_VSA4>
8.8215923

> <SlogP_VSA5>
0.0

> <SlogP_VSA6>
0.0

> <SlogP_VSA7>
0.0

> <SlogP_VSA8>
320.76288

> <SlogP_VSA9>
133.30406

> <SMR>
14.09127

> <SMR_VSA0>
93.586426

> <SMR_VSA1>
0.0

> <SMR_VSA2>
26.832342

> <SMR_VSA3>
16.919268

> <SMR_VSA4>
0.0

> <SMR_VSA5>
320.76288

> <SMR_VSA6>
15.490929

> <SMR_VSA7>
153.02045

> <TPSA>
81.699997

> <VAdjEq>
0.31599712

> <VAdjMa>
6.129283

> <VDistEq>
4.029717

> <VDistMa>
9.9786997

> <vdw_area>
564.54602

> <vdw_vol>
749.59253

> <vsa_acc>
40.700764

> <vsa_acid>
0

> <vsa_base>
0

> <vsa_don>
5.6825762

> <vsa_hyd>
414.41187

> <vsa_other>
60.973995

> <vsa_pol>
46.383339

> <Weight>
495.745

> <weinerPath>
4600

> <weinerPol>
41

> <zagreb>
154

$$$$
Row1676
 OpenBabel06061811532D

 14 14  0  0  1  0  0  0  0  0999 V2000
    0.0000    0.0000    0.0000 Cl  0  0  0  0  0  0  0  0  0  0  0  0
    0.0000    0.0000    0.0000 C   0  0  0  0  0  0  0  0  0  0  0  0
    0.0000    0.0000    0.0000 C   0  0  3  0  0  0  0  0  0  0  0  0
    0.0000    0.0000    0.0000 O   0  0  0  0  0  0  0  0  0  0  0  0
    0.0000    0.0000    0.0000 C   0  0  0  0  0  0  0  0  0  0  0  0
    0.0000    0.0000    0.0000 N   0  0  0  0  0  0  0  0  0  0  0  0
    0.0000    0.0000    0.0000 C   0  0  0  0  0  0  0  0  0  0  0  0
    0.0000    0.0000    0.0000 N   0  0  0  0  0  0  0  0  0  0  0  0
    0.0000    0.0000    0.0000 C   0  0  0  0  0  0  0  0  0  0  0  0
    0.0000    0.0000    0.0000 C   0  0  0  0  0  0  0  0  0  0  0  0
    0.0000    0.0000    0.0000 N   0  3  0  0  0  0  0  0  0  0  0  0
    0.0000    0.0000    0.0000 O   0  0  0  0  0  0  0  0  0  0  0  0
    0.0000    0.0000    0.0000 O   0  5  0  0  0  0  0  0  0  0  0  0
    0.0000    0.0000    0.0000 C   0  0  0  0  0  0  0  0  0  0  0  0
  1  2  1  0  0  0  0
  2  3  1  0  0  0  0
  3  4  1  0  0  0  0
  3  5  1  0  0  0  0
  5  6  1  0  0  0  0
  6 10  1  0  0  0  0
  6  7  1  0  0  0  0
  7  8  2  0  0  0  0
  7 14  1  0  0  0  0
  8  9  1  0  0  0  0
  9 10  2  0  0  0  0
 10 11  1  0  0  0  0
 11 12  2  0  0  0  0
 11 13  1  0  0  0  0
M  CHG  2  11   1  13  -1
M  END
> <Index>
1677

> <ID>
HT1544

> <class>
1

> <apol>
26.87393

> <ast_fraglike>
1

> <ast_fraglike_ext>
0

> <ast_violation>
0

> <ast_violation_ext>
1

> <a_acc>
2

> <a_acid>
0

> <a_aro>
5

> <a_base>
0

> <a_count>
24

> <a_don>
1

> <a_donacc>
3

> <a_heavy>
14

> <a_hyd>
7

> <a_IC>
47.658558

> <a_ICM>
1.9857733

> <a_nB>
0

> <a_nBr>
0

> <a_nC>
7

> <a_nCl>
1

> <a_nF>
0

> <a_nH>
10

> <a_nI>
0

> <a_nN>
3

> <a_nO>
3

> <a_nP>
0

> <a_nS>
0

> <balabanJ>
2.5476799

> <BCUT_PEOE_0>
-2.4876058

> <BCUT_PEOE_1>
-0.42279494

> <BCUT_PEOE_2>
0.41489467

> <BCUT_PEOE_3>
2.5643873

> <BCUT_SLOGP_0>
-2.5751534

> <BCUT_SLOGP_1>
-0.32957882

> <BCUT_SLOGP_2>
0.47345531

> <BCUT_SLOGP_3>
2.5184057

> <BCUT_SMR_0>
-2.2773452

> <BCUT_SMR_1>
-0.14246716

> <BCUT_SMR_2>
0.65999782

> <BCUT_SMR_3>
2.7680786

> <bpol>
15.90807

> <b_1rotN>
4

> <b_1rotR>
0.2857143

> <b_ar>
5

> <b_count>
24

> <b_double>
1

> <b_heavy>
14

> <b_max1len>
4

> <b_rotN>
4

> <b_rotR>
0.2857143

> <b_single>
18

> <b_triple>
0

> <chi0>
10.715178

> <chi0v>
8.3081589

> <chi0v_C>
4.5689139

> <chi0_C>
4.8533711

> <chi1>
6.5577493

> <chi1v>
4.4991565

> <chi1v_C>
1.6051717

> <chi1_C>
1.8020952

> <chiral>
1

> <chiral_u>
1

> <density>
0.91193432

> <diameter>
7

> <FCharge>
0

> <GCUT_PEOE_0>
-0.80667168

> <GCUT_PEOE_1>
-0.38396353

> <GCUT_PEOE_2>
-0.0068770954

> <GCUT_PEOE_3>
2.338788

> <GCUT_SLOGP_0>
-0.90097123

> <GCUT_SLOGP_1>
-0.29548484

> <GCUT_SLOGP_2>
0.089870282

> <GCUT_SLOGP_3>
2.3366537

> <GCUT_SMR_0>
-0.51534343

> <GCUT_SMR_1>
-0.14235702

> <GCUT_SMR_2>
0.23082286

> <GCUT_SMR_3>
2.5403755

> <Kier1>
12.071428

> <Kier2>
5.1855955

> <Kier3>
2.994329

> <KierA1>
10.47719

> <KierA2>
4.4478807

> <KierA3>
2.5451953

> <KierFlex>
3.3286638

> <lip_acc>
6

> <lip_don>
1

> <lip_druglike>
1

> <lip_violation>
0

> <logP(o/w)>
0.68400002

> <logS>
-1.5396301

> <mr>
5.0429225

> <mutagenic>
1

> <nmol>
1

> <opr_brigid>
5

> <opr_leadlike>
1

> <opr_nring>
1

> <opr_nrot>
4

> <opr_violation>
0

> <PC+>
0

> <PC->
0

> <PEOE_PC+>
1.7061116

> <PEOE_PC->
-1.7061116

> <PEOE_RPC+>
0.17647596

> <PEOE_RPC->
0.22982197

> <PEOE_VSA+0>
40.074608

> <PEOE_VSA+1>
41.905933

> <PEOE_VSA+2>
4.2653861

> <PEOE_VSA+3>
16.745916

> <PEOE_VSA+4>
21.514736

> <PEOE_VSA+5>
0.0

> <PEOE_VSA+6>
11.190562

> <PEOE_VSA-0>
0.0

> <PEOE_VSA-1>
4.0280342

> <PEOE_VSA-2>
35.264523

> <PEOE_VSA-3>
0.0

> <PEOE_VSA-4>
0.0

> <PEOE_VSA-5>
0.0

> <PEOE_VSA-6>
41.698589

> <PEOE_VSA_FHYD>
0.65663171

> <PEOE_VSA_FNEG>
0.373768

> <PEOE_VSA_FPNEG>
0.19243583

> <PEOE_VSA_FPOL>
0.34336829

> <PEOE_VSA_FPOS>
0.62623203

> <PEOE_VSA_FPPOS>
0.15093248

> <PEOE_VSA_HYD>
142.28439

> <PEOE_VSA_NEG>
80.991142

> <PEOE_VSA_PNEG>
41.698589

> <PEOE_VSA_POL>
74.403885

> <PEOE_VSA_POS>
135.69714

> <PEOE_VSA_PPOS>
32.705299

> <petitjean>
0.42857143

> <petitjeanSC>
0.75

> <Q_PC+>
0

> <Q_PC->
0

> <Q_RPC+>
0

> <Q_RPC->
0

> <Q_VSA_FHYD>
1

> <Q_VSA_FNEG>
0

> <Q_VSA_FPNEG>
0

> <Q_VSA_FPOL>
0

> <Q_VSA_FPOS>
1

> <Q_VSA_FPPOS>
0

> <Q_VSA_HYD>
216.68828

> <Q_VSA_NEG>
0

> <Q_VSA_PNEG>
0

> <Q_VSA_POL>
0

> <Q_VSA_POS>
216.68828

> <Q_VSA_PPOS>
0

> <radius>
4

> <reactive>
1

> <rings>
1

> <RPC+>
0

> <RPC->
0

> <rsynth>
1.0

> <SlogP>
0.96582001

> <SlogP_VSA0>
25.385227

> <SlogP_VSA1>
25.770239

> <SlogP_VSA2>
6.4686494

> <SlogP_VSA3>
70.118446

> <SlogP_VSA4>
2.3279202

> <SlogP_VSA5>
0.0

> <SlogP_VSA6>
0.0

> <SlogP_VSA7>
17.214357

> <SlogP_VSA8>
0.0

> <SlogP_VSA9>
93.242157

> <SMR>
5.0550199

> <SMR_VSA0>
7.0856161

> <SMR_VSA1>
44.069847

> <SMR_VSA2>
50.935009

> <SMR_VSA3>
8.7965698

> <SMR_VSA4>
2.3279202

> <SMR_VSA5>
35.653934

> <SMR_VSA6>
19.183437

> <SMR_VSA7>
72.474655

> <TPSA>
83.870003

> <VAdjEq>
0.59167278

> <VAdjMa>
4.8073549

> <VDistEq>
2.6355395

> <VDistMa>
7.3261395

> <vdw_area>
216.68828

> <vdw_vol>
240.83752

> <vsa_acc>
5.6825762

> <vsa_acid>
0

> <vsa_base>
0

> <vsa_don>
0.0

> <vsa_hyd>
130.19566

> <vsa_other>
56.312172

> <vsa_pol>
19.249496

> <Weight>
219.62799

> <weinerPath>
302

> <weinerPol>
18

> <zagreb>
66

$$$$
Row1677
 OpenBabel06061811532D

 31 34  0  0  1  0  0  0  0  0999 V2000
    0.0000    0.0000    0.0000 S   0  0  0  0  0  0  0  0  0  0  0  0
    0.0000    0.0000    0.0000 C   0  0  1  0  0  0  0  0  0  0  0  0
    0.0000    0.0000    0.0000 H   0  0  0  0  0  0  0  0  0  0  0  0
    0.0000    0.0000    0.0000 N   0  0  0  0  0  0  0  0  0  0  0  0
    0.0000    0.0000    0.0000 C   0  0  1  0  0  0  0  0  0  0  0  0
    0.0000    0.0000    0.0000 H   0  0  0  0  0  0  0  0  0  0  0  0
    0.0000    0.0000    0.0000 C   0  0  0  0  0  0  0  0  0  0  0  0
    0.0000    0.0000    0.0000 O   0  0  0  0  0  0  0  0  0  0  0  0
    0.0000    0.0000    0.0000 O   0  0  0  0  0  0  0  0  0  0  0  0
    0.0000    0.0000    0.0000 C   0  0  0  0  0  0  0  0  0  0  0  0
    0.0000    0.0000    0.0000 C   0  0  0  0  0  0  0  0  0  0  0  0
    0.0000    0.0000    0.0000 C   0  0  0  0  0  0  0  0  0  0  0  0
    0.0000    0.0000    0.0000 C   0  0  0  0  0  0  0  0  0  0  0  0
    0.0000    0.0000    0.0000 O   0  0  0  0  0  0  0  0  0  0  0  0
    0.0000    0.0000    0.0000 C   0  0  1  0  0  0  0  0  0  0  0  0
    0.0000    0.0000    0.0000 H   0  0  0  0  0  0  0  0  0  0  0  0
    0.0000    0.0000    0.0000 N   0  0  0  0  0  0  0  0  0  0  0  0
    0.0000    0.0000    0.0000 C   0  0  0  0  0  0  0  0  0  0  0  0
    0.0000    0.0000    0.0000 O   0  0  0  0  0  0  0  0  0  0  0  0
    0.0000    0.0000    0.0000 C   0  0  0  0  0  0  0  0  0  0  0  0
    0.0000    0.0000    0.0000 C   0  0  0  0  0  0  0  0  0  0  0  0
    0.0000    0.0000    0.0000 N   0  0  0  0  0  0  0  0  0  0  0  0
    0.0000    0.0000    0.0000 O   0  0  0  0  0  0  0  0  0  0  0  0
    0.0000    0.0000    0.0000 C   0  0  0  0  0  0  0  0  0  0  0  0
    0.0000    0.0000    0.0000 C   0  0  0  0  0  0  0  0  0  0  0  0
    0.0000    0.0000    0.0000 C   0  0  0  0  0  0  0  0  0  0  0  0
    0.0000    0.0000    0.0000 C   0  0  0  0  0  0  0  0  0  0  0  0
    0.0000    0.0000    0.0000 C   0  0  0  0  0  0  0  0  0  0  0  0
    0.0000    0.0000    0.0000 C   0  0  0  0  0  0  0  0  0  0  0  0
    0.0000    0.0000    0.0000 C   0  0  0  0  0  0  0  0  0  0  0  0
    0.0000    0.0000    0.0000 C   0  0  0  0  0  0  0  0  0  0  0  0
  1 10  1  0  0  0  0
  1  2  1  0  0  0  0
  2  3  1  0  0  0  0
  2 15  1  0  0  0  0
  2  4  1  0  0  0  0
  4  5  1  0  0  0  0
  4 13  1  0  0  0  0
  5  6  1  0  0  0  0
  5  7  1  0  0  0  0
  5 10  1  0  0  0  0
  7  8  1  0  0  0  0
  7  9  2  0  0  0  0
 10 11  1  0  0  0  0
 10 12  1  0  0  0  0
 13 14  2  0  0  0  0
 13 15  1  0  0  0  0
 15 16  1  0  0  0  0
 15 17  1  0  0  0  0
 17 18  1  0  0  0  0
 18 19  2  0  0  0  0
 18 20  1  0  0  0  0
 20 24  2  0  0  0  0
 20 21  1  0  0  0  0
 21 22  2  0  0  0  0
 21 26  1  0  0  0  0
 22 23  1  0  0  0  0
 23 24  1  0  0  0  0
 24 25  1  0  0  0  0
 26 31  1  0  0  0  0
 26 27  2  0  0  0  0
 27 28  1  0  0  0  0
 28 29  2  0  0  0  0
 29 30  1  0  0  0  0
 30 31  2  0  0  0  0
M  END
> <Index>
1678

> <ID>
HT1549

> <class>
1

> <apol>
56.319065

> <ast_fraglike>
0

> <ast_fraglike_ext>
0

> <ast_violation>
2

> <ast_violation_ext>
4

> <a_acc>
5

> <a_acid>
0

> <a_aro>
11

> <a_base>
0

> <a_count>
47

> <a_don>
3

> <a_donacc>
8

> <a_heavy>
28

> <a_hyd>
16

> <a_IC>
83.2799

> <a_ICM>
1.7719128

> <a_nB>
0

> <a_nBr>
0

> <a_nC>
19

> <a_nCl>
0

> <a_nF>
0

> <a_nH>
19

> <a_nI>
0

> <a_nN>
3

> <a_nO>
5

> <a_nP>
0

> <a_nS>
1

> <balabanJ>
1.429294

> <BCUT_PEOE_0>
-2.6399999

> <BCUT_PEOE_1>
-0.54112047

> <BCUT_PEOE_2>
0.55676085

> <BCUT_PEOE_3>
2.8493941

> <BCUT_SLOGP_0>
-2.89501

> <BCUT_SLOGP_1>
-0.49885616

> <BCUT_SLOGP_2>
0.62515217

> <BCUT_SLOGP_3>
2.7542486

> <BCUT_SMR_0>
-2.3874607

> <BCUT_SMR_1>
-0.36760634

> <BCUT_SMR_2>
0.75477052

> <BCUT_SMR_3>
3.1303563

> <bpol>
30.480932

> <b_1rotN>
4

> <b_1rotR>
0.12903225

> <b_ar>
11

> <b_count>
50

> <b_double>
3

> <b_heavy>
31

> <b_max1len>
4

> <b_rotN>
5

> <b_rotR>
0.16129032

> <b_single>
36

> <b_triple>
0

> <chi0>
20.214813

> <chi0v>
16.31818

> <chi0v_C>
11.618802

> <chi0_C>
12.809036

> <chi1>
13.220051

> <chi1v>
9.6544857

> <chi1v_C>
5.6100426

> <chi1_C>
7.0158553

> <chiral>
3

> <chiral_u>
0

> <density>
0.82520938

> <diameter>
13

> <FCharge>
0

> <GCUT_PEOE_0>
-0.83720326

> <GCUT_PEOE_1>
-0.39394969

> <GCUT_PEOE_2>
0.062964782

> <GCUT_PEOE_3>
2.7307556

> <GCUT_SLOGP_0>
-1.1640183

> <GCUT_SLOGP_1>
-0.37752271

> <GCUT_SLOGP_2>
0.14036624

> <GCUT_SLOGP_3>
2.7015927

> <GCUT_SMR_0>
-0.53652018

> <GCUT_SMR_1>
-0.21356797

> <GCUT_SMR_2>
0.20271412

> <GCUT_SMR_3>
2.9975905

> <Kier1>
21.240376

> <Kier2>
7.921875

> <Kier3>
3.6548443

> <KierA1>
17.090391

> <KierA2>
6.3196321

> <KierA3>
2.8978753

> <KierFlex>
3.8573208

> <lip_acc>
8

> <lip_don>
2

> <lip_druglike>
1

> <lip_violation>
0

> <logP(o/w)>
1.96

> <logS>
-4.7730598

> <mr>
10.337147

> <mutagenic>
0

> <nmol>
1

> <opr_brigid>
19

> <opr_leadlike>
1

> <opr_nring>
4

> <opr_nrot>
4

> <opr_violation>
0

> <PC+>
0

> <PC->
0

> <PEOE_PC+>
2.7299259

> <PEOE_PC->
-2.7299259

> <PEOE_RPC+>
0.10395027

> <PEOE_RPC->
0.13134059

> <PEOE_VSA+0>
40.597015

> <PEOE_VSA+1>
34.123089

> <PEOE_VSA+2>
28.780554

> <PEOE_VSA+3>
8.6190128

> <PEOE_VSA+4>
10.324173

> <PEOE_VSA+5>
40.607563

> <PEOE_VSA+6>
0.0

> <PEOE_VSA-0>
56.243034

> <PEOE_VSA-1>
72.159782

> <PEOE_VSA-2>
19.760618

> <PEOE_VSA-3>
0.0

> <PEOE_VSA-4>
0.0

> <PEOE_VSA-5>
40.700764

> <PEOE_VSA-6>
13.80679

> <PEOE_VSA_FHYD>
0.71169585

> <PEOE_VSA_FNEG>
0.5541662

> <PEOE_VSA_FPNEG>
0.14904079

> <PEOE_VSA_FPOL>
0.28830415

> <PEOE_VSA_FPOS>
0.4458338

> <PEOE_VSA_FPPOS>
0.13926338

> <PEOE_VSA_HYD>
260.28311

> <PEOE_VSA_NEG>
202.67099

> <PEOE_VSA_PNEG>
54.507553

> <PEOE_VSA_POL>
105.43929

> <PEOE_VSA_POS>
163.05141

> <PEOE_VSA_PPOS>
50.931732

> <petitjean>
0.46153846

> <petitjeanSC>
0.85714287

> <Q_PC+>
0

> <Q_PC->
0

> <Q_RPC+>
0

> <Q_RPC->
0

> <Q_VSA_FHYD>
1

> <Q_VSA_FNEG>
0

> <Q_VSA_FPNEG>
0

> <Q_VSA_FPOL>
0

> <Q_VSA_FPOS>
1

> <Q_VSA_FPPOS>
0

> <Q_VSA_HYD>
365.72238

> <Q_VSA_NEG>
0

> <Q_VSA_PNEG>
0

> <Q_VSA_POL>
0

> <Q_VSA_POS>
365.72238

> <Q_VSA_PPOS>
0

> <radius>
7

> <reactive>
0

> <rings>
4

> <RPC+>
0

> <RPC->
0

> <rsynth>
1.0

> <SlogP>
1.8953201

> <SlogP_VSA0>
18.01075

> <SlogP_VSA1>
40.98394

> <SlogP_VSA2>
58.035496

> <SlogP_VSA3>
25.385227

> <SlogP_VSA4>
32.496613

> <SlogP_VSA5>
9.7341213

> <SlogP_VSA6>
0.0

> <SlogP_VSA7>
94.158241

> <SlogP_VSA8>
0.0

> <SlogP_VSA9>
132.19759

> <SMR>
10.1659

> <SMR_VSA0>
81.32077

> <SMR_VSA1>
22.720911

> <SMR_VSA2>
43.395977

> <SMR_VSA3>
18.945461

> <SMR_VSA4>
5.9423227

> <SMR_VSA5>
88.215919

> <SMR_VSA6>
18.263031

> <SMR_VSA7>
132.19759

> <TPSA>
112.74

> <VAdjEq>
0.39893496

> <VAdjMa>
5.9541965

> <VDistEq>
3.4780707

> <VDistMa>
9.3277025

> <vdw_area>
365.72238

> <vdw_vol>
486.47409

> <vsa_acc>
38.019104

> <vsa_acid>
0

> <vsa_base>
0

> <vsa_don>
5.6825762

> <vsa_hyd>
220.21979

> <vsa_other>
54.968441

> <vsa_pol>
70.835518

> <Weight>
401.44299

> <weinerPath>
2026

> <weinerPol>
47

> <zagreb>
158

$$$$
Row1678
 OpenBabel06061811532D

 26 29  0  0  1  0  0  0  0  0999 V2000
    0.0000    0.0000    0.0000 O   0  0  0  0  0  0  0  0  0  0  0  0
    0.0000    0.0000    0.0000 C   0  0  0  0  0  0  0  0  0  0  0  0
    0.0000    0.0000    0.0000 C   0  0  1  0  0  0  0  0  0  0  0  0
    0.0000    0.0000    0.0000 C   0  0  2  0  0  0  0  0  0  0  0  0
    0.0000    0.0000    0.0000 H   0  0  0  0  0  0  0  0  0  0  0  0
    0.0000    0.0000    0.0000 C   0  0  0  0  0  0  0  0  0  0  0  0
    0.0000    0.0000    0.0000 C   0  0  0  0  0  0  0  0  0  0  0  0
    0.0000    0.0000    0.0000 O   0  0  0  0  0  0  0  0  0  0  0  0
    0.0000    0.0000    0.0000 C   0  0  0  0  0  0  0  0  0  0  0  0
    0.0000    0.0000    0.0000 C   0  0  0  0  0  0  0  0  0  0  0  0
    0.0000    0.0000    0.0000 C   0  0  1  0  0  0  0  0  0  0  0  0
    0.0000    0.0000    0.0000 H   0  0  0  0  0  0  0  0  0  0  0  0
    0.0000    0.0000    0.0000 C   0  0  2  0  0  0  0  0  0  0  0  0
    0.0000    0.0000    0.0000 H   0  0  0  0  0  0  0  0  0  0  0  0
    0.0000    0.0000    0.0000 C   0  0  0  0  0  0  0  0  0  0  0  0
    0.0000    0.0000    0.0000 C   0  0  0  0  0  0  0  0  0  0  0  0
    0.0000    0.0000    0.0000 C   0  0  1  0  0  0  0  0  0  0  0  0
    0.0000    0.0000    0.0000 O   0  0  0  0  0  0  0  0  0  0  0  0
    0.0000    0.0000    0.0000 C   0  0  0  0  0  0  0  0  0  0  0  0
    0.0000    0.0000    0.0000 C   0  0  1  0  0  0  0  0  0  0  0  0
    0.0000    0.0000    0.0000 C   0  0  0  0  0  0  0  0  0  0  0  0
    0.0000    0.0000    0.0000 C   0  0  0  0  0  0  0  0  0  0  0  0
    0.0000    0.0000    0.0000 C   0  0  2  0  0  0  0  0  0  0  0  0
    0.0000    0.0000    0.0000 H   0  0  0  0  0  0  0  0  0  0  0  0
    0.0000    0.0000    0.0000 C   0  0  0  0  0  0  0  0  0  0  0  0
    0.0000    0.0000    0.0000 C   0  0  0  0  0  0  0  0  0  0  0  0
  1  7  1  0  0  0  0
  1  2  1  0  0  0  0
  2  3  1  0  0  0  0
  3 23  1  0  0  0  0
  3  4  1  0  0  0  0
  3 26  1  0  0  0  0
  4  5  1  0  0  0  0
  4  6  1  0  0  0  0
  4  9  1  0  0  0  0
  6  7  1  0  0  0  0
  7  8  2  0  0  0  0
  9 10  1  0  0  0  0
 10 11  1  0  0  0  0
 11 12  1  0  0  0  0
 11 23  1  0  0  0  0
 11 13  1  0  0  0  0
 13 14  1  0  0  0  0
 13 20  1  0  0  0  0
 13 15  1  0  0  0  0
 15 16  1  0  0  0  0
 16 17  1  0  0  0  0
 17 18  1  0  0  0  0
 17 19  1  0  0  0  0
 17 20  1  0  0  0  0
 20 21  1  0  0  0  0
 20 25  1  0  0  0  0
 21 22  1  0  0  0  0
 22 23  1  0  0  0  0
 23 24  1  0  0  0  0
M  END
> <Index>
1679

> <ID>
HT1553

> <class>
1

> <apol>
55.849789

> <ast_fraglike>
0

> <ast_fraglike_ext>
0

> <ast_violation>
2

> <ast_violation_ext>
2

> <a_acc>
2

> <a_acid>
0

> <a_aro>
0

> <a_base>
0

> <a_count>
52

> <a_don>
1

> <a_donacc>
3

> <a_heavy>
22

> <a_hyd>
18

> <a_IC>
63.750637

> <a_ICM>
1.2259738

> <a_nB>
0

> <a_nBr>
0

> <a_nC>
19

> <a_nCl>
0

> <a_nF>
0

> <a_nH>
30

> <a_nI>
0

> <a_nN>
0

> <a_nO>
3

> <a_nP>
0

> <a_nS>
0

> <balabanJ>
1.6365592

> <BCUT_PEOE_0>
-2.9725442

> <BCUT_PEOE_1>
-0.27697176

> <BCUT_PEOE_2>
0.36924973

> <BCUT_PEOE_3>
2.9838138

> <BCUT_SLOGP_0>
-2.9166718

> <BCUT_SLOGP_1>
-0.32170168

> <BCUT_SLOGP_2>
0.30246115

> <BCUT_SLOGP_3>
3.0483334

> <BCUT_SMR_0>
-2.7239404

> <BCUT_SMR_1>
-0.16496411

> <BCUT_SMR_2>
0.46678028

> <BCUT_SMR_3>
3.2325296

> <bpol>
35.670212

> <b_1rotN>
0

> <b_1rotR>
0.0

> <b_ar>
0

> <b_count>
55

> <b_double>
1

> <b_heavy>
25

> <b_max1len>
4

> <b_rotN>
0

> <b_rotR>
0.0

> <b_single>
54

> <b_triple>
0

> <chi0>
15.750712

> <chi0v>
14.229965

> <chi0v_C>
12.966255

> <chi0_C>
13.043606

> <chi1>
10.27844

> <chi1v>
9.1586771

> <chi1v_C>
8.2381468

> <chi1_C>
8.2928419

> <chiral>
7

> <chiral_u>
0

> <density>
0.69201952

> <diameter>
10

> <FCharge>
0

> <GCUT_PEOE_0>
-0.8048287

> <GCUT_PEOE_1>
-0.38620374

> <GCUT_PEOE_2>
-0.048570089

> <GCUT_PEOE_3>
3.3383865

> <GCUT_SLOGP_0>
-0.88377202

> <GCUT_SLOGP_1>
-0.29547352

> <GCUT_SLOGP_2>
-0.037

> <GCUT_SLOGP_3>
3.4074192

> <GCUT_SMR_0>
-0.54160661

> <GCUT_SMR_1>
-0.17456019

> <GCUT_SMR_2>
0.059700873

> <GCUT_SMR_3>
3.5549526

> <Kier1>
15.5232

> <Kier2>
4.7619047

> <Kier3>
1.9771072

> <KierA1>
14.877172

> <KierA2>
4.5541172

> <KierA3>
1.8879508

> <KierFlex>
3.0796542

> <lip_acc>
3

> <lip_don>
1

> <lip_druglike>
1

> <lip_violation>
0

> <logP(o/w)>
3.7449999

> <logS>
-3.9266

> <mr>
8.4977913

> <mutagenic>
0

> <nmol>
1

> <opr_brigid>
20

> <opr_leadlike>
1

> <opr_nring>
4

> <opr_nrot>
0

> <opr_violation>
0

> <PC+>
0

> <PC->
0

> <PEOE_PC+>
1.4994543

> <PEOE_PC->
-1.4994543

> <PEOE_RPC+>
0.17503744

> <PEOE_RPC->
0.25895947

> <PEOE_VSA+0>
123.86674

> <PEOE_VSA+1>
23.482065

> <PEOE_VSA+2>
0.0

> <PEOE_VSA+3>
0.0

> <PEOE_VSA+4>
10.324173

> <PEOE_VSA+5>
14.708499

> <PEOE_VSA+6>
0.0

> <PEOE_VSA-0>
70.955559

> <PEOE_VSA-1>
37.495354

> <PEOE_VSA-2>
0.0

> <PEOE_VSA-3>
0.0

> <PEOE_VSA-4>
0.0

> <PEOE_VSA-5>
13.566921

> <PEOE_VSA-6>
10.271297

> <PEOE_VSA_FHYD>
0.83959436

> <PEOE_VSA_FNEG>
0.43420377

> <PEOE_VSA_FPNEG>
0.078242593

> <PEOE_VSA_FPOL>
0.16040567

> <PEOE_VSA_FPOS>
0.5657962

> <PEOE_VSA_FPPOS>
0.082163073

> <PEOE_VSA_HYD>
255.79971

> <PEOE_VSA_NEG>
132.28912

> <PEOE_VSA_PNEG>
23.838217

> <PEOE_VSA_POL>
48.870888

> <PEOE_VSA_POS>
172.38147

> <PEOE_VSA_PPOS>
25.032671

> <petitjean>
0.5

> <petitjeanSC>
1.0

> <Q_PC+>
0

> <Q_PC->
0

> <Q_RPC+>
0

> <Q_RPC->
0

> <Q_VSA_FHYD>
1

> <Q_VSA_FNEG>
0

> <Q_VSA_FPNEG>
0

> <Q_VSA_FPOL>
0

> <Q_VSA_FPOS>
1

> <Q_VSA_FPPOS>
0

> <Q_VSA_HYD>
304.67059

> <Q_VSA_NEG>
0

> <Q_VSA_PNEG>
0

> <Q_VSA_POL>
0

> <Q_VSA_POS>
304.67059

> <Q_VSA_PPOS>
0

> <radius>
5

> <reactive>
1

> <rings>
4

> <RPC+>
0

> <RPC->
0

> <rsynth>
0.0

> <SlogP>
3.5431001

> <SlogP_VSA0>
25.385227

> <SlogP_VSA1>
7.7454643

> <SlogP_VSA2>
34.862103

> <SlogP_VSA3>
20.926258

> <SlogP_VSA4>
17.643185

> <SlogP_VSA5>
0.0

> <SlogP_VSA6>
0.0

> <SlogP_VSA7>
0.0

> <SlogP_VSA8>
132.07884

> <SlogP_VSA9>
99.978043

> <SMR>
8.4075804

> <SMR_VSA0>
34.862103

> <SMR_VSA1>
25.385227

> <SMR_VSA2>
17.643185

> <SMR_VSA3>
0.0

> <SMR_VSA4>
0.0

> <SMR_VSA5>
132.07884

> <SMR_VSA6>
28.671722

> <SMR_VSA7>
99.978043

> <TPSA>
46.529999

> <VAdjEq>
0.47938794

> <VAdjMa>
5.643856

> <VDistEq>
2.9879878

> <VDistMa>
8.6431408

> <vdw_area>
304.67059

> <vdw_vol>
442.82855

> <vsa_acc>
13.566921

> <vsa_acid>
0

> <vsa_base>
0

> <vsa_don>
0.0

> <vsa_hyd>
229.77745

> <vsa_other>
17.212255

> <vsa_pol>
27.133842

> <Weight>
306.44598

> <weinerPath>
907

> <weinerPol>
48

> <zagreb>
134

$$$$
Row1679
 OpenBabel06061811532D

 32 36  0  0  1  0  0  0  0  0999 V2000
    0.0000    0.0000    0.0000 O   0  0  0  0  0  0  0  0  0  0  0  0
    0.0000    0.0000    0.0000 C   0  0  0  0  0  0  0  0  0  0  0  0
    0.0000    0.0000    0.0000 N   0  0  0  0  0  0  0  0  0  0  0  0
    0.0000    0.0000    0.0000 C   0  0  0  0  0  0  0  0  0  0  0  0
    0.0000    0.0000    0.0000 C   0  0  0  0  0  0  0  0  0  0  0  0
    0.0000    0.0000    0.0000 N   0  0  0  0  0  0  0  0  0  0  0  0
    0.0000    0.0000    0.0000 C   0  0  0  0  0  0  0  0  0  0  0  0
    0.0000    0.0000    0.0000 C   0  0  0  0  0  0  0  0  0  0  0  0
    0.0000    0.0000    0.0000 C   0  0  0  0  0  0  0  0  0  0  0  0
    0.0000    0.0000    0.0000 N   0  0  0  0  0  0  0  0  0  0  0  0
    0.0000    0.0000    0.0000 C   0  0  0  0  0  0  0  0  0  0  0  0
    0.0000    0.0000    0.0000 C   0  0  0  0  0  0  0  0  0  0  0  0
    0.0000    0.0000    0.0000 N   0  0  0  0  0  0  0  0  0  0  0  0
    0.0000    0.0000    0.0000 C   0  0  0  0  0  0  0  0  0  0  0  0
    0.0000    0.0000    0.0000 C   0  0  0  0  0  0  0  0  0  0  0  0
    0.0000    0.0000    0.0000 C   0  0  3  0  0  0  0  0  0  0  0  0
    0.0000    0.0000    0.0000 C   0  0  0  0  0  0  0  0  0  0  0  0
    0.0000    0.0000    0.0000 C   0  0  0  0  0  0  0  0  0  0  0  0
    0.0000    0.0000    0.0000 C   0  0  0  0  0  0  0  0  0  0  0  0
    0.0000    0.0000    0.0000 C   0  0  0  0  0  0  0  0  0  0  0  0
    0.0000    0.0000    0.0000 C   0  0  0  0  0  0  0  0  0  0  0  0
    0.0000    0.0000    0.0000 C   0  0  0  0  0  0  0  0  0  0  0  0
    0.0000    0.0000    0.0000 C   0  0  0  0  0  0  0  0  0  0  0  0
    0.0000    0.0000    0.0000 C   0  0  0  0  0  0  0  0  0  0  0  0
    0.0000    0.0000    0.0000 C   0  0  0  0  0  0  0  0  0  0  0  0
    0.0000    0.0000    0.0000 C   0  0  0  0  0  0  0  0  0  0  0  0
    0.0000    0.0000    0.0000 C   0  0  0  0  0  0  0  0  0  0  0  0
    0.0000    0.0000    0.0000 C   0  0  0  0  0  0  0  0  0  0  0  0
    0.0000    0.0000    0.0000 C   0  0  0  0  0  0  0  0  0  0  0  0
    0.0000    0.0000    0.0000 C   0  0  0  0  0  0  0  0  0  0  0  0
    0.0000    0.0000    0.0000 C   0  0  0  0  0  0  0  0  0  0  0  0
    0.0000    0.0000    0.0000 C   0  0  0  0  0  0  0  0  0  0  0  0
  1  2  2  0  0  0  0
  2  6  1  0  0  0  0
  2  3  1  0  0  0  0
  3  4  1  0  0  0  0
  4 32  1  0  0  0  0
  4  5  2  0  0  0  0
  5  6  1  0  0  0  0
  5 29  1  0  0  0  0
  6  7  1  0  0  0  0
  7  8  1  0  0  0  0
  8  9  1  0  0  0  0
  9 10  1  0  0  0  0
 10 15  1  0  0  0  0
 10 11  1  0  0  0  0
 11 12  1  0  0  0  0
 12 13  1  0  0  0  0
 13 14  1  0  0  0  0
 13 16  1  0  0  0  0
 14 15  1  0  0  0  0
 16 17  1  0  0  0  0
 16 23  1  0  0  0  0
 17 22  1  0  0  0  0
 17 18  2  0  0  0  0
 18 19  1  0  0  0  0
 19 20  2  0  0  0  0
 20 21  1  0  0  0  0
 21 22  2  0  0  0  0
 23 28  1  0  0  0  0
 23 24  2  0  0  0  0
 24 25  1  0  0  0  0
 25 26  2  0  0  0  0
 26 27  1  0  0  0  0
 27 28  2  0  0  0  0
 29 30  2  0  0  0  0
 30 31  1  0  0  0  0
 31 32  2  0  0  0  0
M  END
> <Index>
1680

> <ID>
HT1555

> <class>
1

> <apol>
72.725792

> <ast_fraglike>
0

> <ast_fraglike_ext>
0

> <ast_violation>
2

> <ast_violation_ext>
3

> <a_acc>
3

> <a_acid>
0

> <a_aro>
18

> <a_base>
0

> <a_count>
62

> <a_don>
1

> <a_donacc>
4

> <a_heavy>
32

> <a_hyd>
26

> <a_IC>
85.571487

> <a_ICM>
1.3801854

> <a_nB>
0

> <a_nBr>
0

> <a_nC>
27

> <a_nCl>
0

> <a_nF>
0

> <a_nH>
30

> <a_nI>
0

> <a_nN>
4

> <a_nO>
1

> <a_nP>
0

> <a_nS>
0

> <balabanJ>
1.0880172

> <BCUT_PEOE_0>
-2.7944667

> <BCUT_PEOE_1>
-0.61229277

> <BCUT_PEOE_2>
0.66103727

> <BCUT_PEOE_3>
2.6951728

> <BCUT_SLOGP_0>
-2.8896086

> <BCUT_SLOGP_1>
-0.50223339

> <BCUT_SLOGP_2>
0.77744496

> <BCUT_SLOGP_3>
2.6440499

> <BCUT_SMR_0>
-2.508836

> <BCUT_SMR_1>
-0.46817285

> <BCUT_SMR_2>
0.81296504

> <BCUT_SMR_3>
2.9743128

> <bpol>
40.35421

> <b_1rotN>
7

> <b_1rotR>
0.19444445

> <b_ar>
18

> <b_count>
66

> <b_double>
1

> <b_heavy>
36

> <b_max1len>
4

> <b_rotN>
7

> <b_rotR>
0.19444445

> <b_single>
47

> <b_triple>
0

> <chi0>
21.752502

> <chi0v>
18.35989

> <chi0v_C>
16.110001

> <chi0_C>
18.313345

> <chi1>
15.792827

> <chi1v>
11.532971

> <chi1v_C>
8.2260675

> <chi1_C>
10.94949

> <chiral>
0

> <chiral_u>
0

> <density>
0.68572503

> <diameter>
16

> <FCharge>
0

> <GCUT_PEOE_0>
-0.85572183

> <GCUT_PEOE_1>
-0.38958189

> <GCUT_PEOE_2>
0.073732272

> <GCUT_PEOE_3>
2.8982041

> <GCUT_SLOGP_0>
-1.0385562

> <GCUT_SLOGP_1>
-0.27773827

> <GCUT_SLOGP_2>
0.15900841

> <GCUT_SLOGP_3>
2.9425838

> <GCUT_SMR_0>
-0.51906091

> <GCUT_SMR_1>
-0.20508878

> <GCUT_SMR_2>
0.18382868

> <GCUT_SMR_3>
3.1654263

> <Kier1>
23.728395

> <Kier2>
11.620158

> <Kier3>
5.8142123

> <KierA1>
17.580397

> <KierA2>
8.5201387

> <KierA3>
4.2318316

> <KierFlex>
4.6808567

> <lip_acc>
5

> <lip_don>
1

> <lip_druglike>
1

> <lip_violation>
0

> <logP(o/w)>
4.263

> <logS>
-5.1827502

> <mr>
12.836567

> <mutagenic>
0

> <nmol>
1

> <opr_brigid>
28

> <opr_leadlike>
0

> <opr_nring>
5

> <opr_nrot>
9

> <opr_violation>
2

> <PC+>
0

> <PC->
0

> <PEOE_PC+>
2.2952344

> <PEOE_PC->
-2.2952344

> <PEOE_RPC+>
0.14272004

> <PEOE_RPC->
0.13329911

> <PEOE_VSA+0>
138.86935

> <PEOE_VSA+1>
80.525856

> <PEOE_VSA+2>
0.0

> <PEOE_VSA+3>
8.6190128

> <PEOE_VSA+4>
0.0

> <PEOE_VSA+5>
0.0

> <PEOE_VSA+6>
17.440542

> <PEOE_VSA-0>
37.628201

> <PEOE_VSA-1>
147.05885

> <PEOE_VSA-2>
0.0

> <PEOE_VSA-3>
0.0

> <PEOE_VSA-4>
13.566921

> <PEOE_VSA-5>
0.0

> <PEOE_VSA-6>
0.13689101

> <PEOE_VSA_FHYD>
0.92983067

> <PEOE_VSA_FNEG>
0.44698167

> <PEOE_VSA_FPNEG>
0.030875176

> <PEOE_VSA_FPOL>
0.070169337

> <PEOE_VSA_FPOS>
0.55301833

> <PEOE_VSA_FPPOS>
0.039294165

> <PEOE_VSA_HYD>
412.70126

> <PEOE_VSA_NEG>
198.39085

> <PEOE_VSA_PNEG>
13.703812

> <PEOE_VSA_POL>
31.144354

> <PEOE_VSA_POS>
245.45476

> <PEOE_VSA_PPOS>
17.440542

> <petitjean>
0.5

> <petitjeanSC>
1.0

> <Q_PC+>
0

> <Q_PC->
0

> <Q_RPC+>
0

> <Q_RPC->
0

> <Q_VSA_FHYD>
1

> <Q_VSA_FNEG>
0

> <Q_VSA_FPNEG>
0

> <Q_VSA_FPOL>
0

> <Q_VSA_FPOS>
1

> <Q_VSA_FPPOS>
0

> <Q_VSA_HYD>
443.84561

> <Q_VSA_NEG>
0

> <Q_VSA_PNEG>
0

> <Q_VSA_POL>
0

> <Q_VSA_POS>
443.84561

> <Q_VSA_PPOS>
0

> <radius>
8

> <reactive>
0

> <rings>
5

> <RPC+>
0

> <RPC->
0

> <rsynth>
1.0

> <SlogP>
4.9313002

> <SlogP_VSA0>
3.1243138

> <SlogP_VSA1>
29.089334

> <SlogP_VSA2>
0.0

> <SlogP_VSA3>
110.63747

> <SlogP_VSA4>
6.37115

> <SlogP_VSA5>
0.0

> <SlogP_VSA6>
0.0

> <SlogP_VSA7>
247.00458

> <SlogP_VSA8>
22.850374

> <SlogP_VSA9>
29.375711

> <SMR>
13.02747

> <SMR_VSA0>
23.862217

> <SMR_VSA1>
6.2486277

> <SMR_VSA2>
3.1243138

> <SMR_VSA3>
10.353119

> <SMR_VSA4>
23.524246

> <SMR_VSA5>
265.87299

> <SMR_VSA6>
115.46742

> <SMR_VSA7>
0.0

> <TPSA>
38.82

> <VAdjEq>
0.36708876

> <VAdjMa>
6.1699252

> <VDistEq>
3.8269854

> <VDistMa>
9.6798925

> <vdw_area>
443.84561

> <vdw_vol>
622.06274

> <vsa_acc>
13.566921

> <vsa_acid>
0

> <vsa_base>
0

> <vsa_don>
5.6825762

> <vsa_hyd>
383.44019

> <vsa_other>
17.440542

> <vsa_pol>
19.249496

> <Weight>
426.564

> <weinerPath>
3335

> <weinerPol>
50

> <zagreb>
170

$$$$
Row1680
 OpenBabel06061811532D

 25 29  0  0  1  0  0  0  0  0999 V2000
    0.0000    0.0000    0.0000 O   0  0  0  0  0  0  0  0  0  0  0  0
    0.0000    0.0000    0.0000 C   0  0  2  0  0  0  0  0  0  0  0  0
    0.0000    0.0000    0.0000 H   0  0  0  0  0  0  0  0  0  0  0  0
    0.0000    0.0000    0.0000 C   0  0  2  0  0  0  0  0  0  0  0  0
    0.0000    0.0000    0.0000 C   0  0  0  0  0  0  0  0  0  0  0  0
    0.0000    0.0000    0.0000 C   0  0  0  0  0  0  0  0  0  0  0  0
    0.0000    0.0000    0.0000 N   0  0  0  0  0  0  0  0  0  0  0  0
    0.0000    0.0000    0.0000 C   0  0  2  0  0  0  0  0  0  0  0  0
    0.0000    0.0000    0.0000 H   0  0  0  0  0  0  0  0  0  0  0  0
    0.0000    0.0000    0.0000 C   0  0  0  0  0  0  0  0  0  0  0  0
    0.0000    0.0000    0.0000 C   0  0  0  0  0  0  0  0  0  0  0  0
    0.0000    0.0000    0.0000 C   0  0  0  0  0  0  0  0  0  0  0  0
    0.0000    0.0000    0.0000 C   0  0  0  0  0  0  0  0  0  0  0  0
    0.0000    0.0000    0.0000 C   0  0  0  0  0  0  0  0  0  0  0  0
    0.0000    0.0000    0.0000 O   0  0  0  0  0  0  0  0  0  0  0  0
    0.0000    0.0000    0.0000 C   0  0  0  0  0  0  0  0  0  0  0  0
    0.0000    0.0000    0.0000 C   0  0  0  0  0  0  0  0  0  0  0  0
    0.0000    0.0000    0.0000 C   0  0  0  0  0  0  0  0  0  0  0  0
    0.0000    0.0000    0.0000 C   0  0  1  0  0  0  0  0  0  0  0  0
    0.0000    0.0000    0.0000 O   0  0  0  0  0  0  0  0  0  0  0  0
    0.0000    0.0000    0.0000 C   0  0  0  0  0  0  0  0  0  0  0  0
    0.0000    0.0000    0.0000 C   0  0  0  0  0  0  0  0  0  0  0  0
    0.0000    0.0000    0.0000 C   0  0  0  0  0  0  0  0  0  0  0  0
    0.0000    0.0000    0.0000 O   0  0  0  0  0  0  0  0  0  0  0  0
    0.0000    0.0000    0.0000 C   0  0  0  0  0  0  0  0  0  0  0  0
  1 13  1  0  0  0  0
  1  2  1  0  0  0  0
  2  3  1  0  0  0  0
  2 23  1  0  0  0  0
  2  4  1  0  0  0  0
  4 12  1  0  0  0  0
  4 19  1  0  0  0  0
  4  5  1  0  0  0  0
  5  6  1  0  0  0  0
  6  7  1  0  0  0  0
  7  8  1  0  0  0  0
  7 25  1  0  0  0  0
  8  9  1  0  0  0  0
  8 10  1  0  0  0  0
  8 19  1  0  0  0  0
 10 11  1  0  0  0  0
 11 18  1  0  0  0  0
 11 12  2  0  0  0  0
 12 13  1  0  0  0  0
 13 14  2  0  0  0  0
 14 15  1  0  0  0  0
 14 17  1  0  0  0  0
 15 16  1  0  0  0  0
 17 18  2  0  0  0  0
 19 20  1  0  0  0  0
 19 21  1  0  0  0  0
 21 22  1  0  0  0  0
 22 23  1  0  0  0  0
 23 24  2  0  0  0  0
M  END
> <Index>
1681

> <ID>
HT1566

> <class>
1

> <apol>
49.990654

> <ast_fraglike>
0

> <ast_fraglike_ext>
0

> <ast_violation>
2

> <ast_violation_ext>
2

> <a_acc>
5

> <a_acid>
0

> <a_aro>
6

> <a_base>
0

> <a_count>
44

> <a_don>
1

> <a_donacc>
6

> <a_heavy>
23

> <a_hyd>
17

> <a_IC>
64.917679

> <a_ICM>
1.4754018

> <a_nB>
0

> <a_nBr>
0

> <a_nC>
18

> <a_nCl>
0

> <a_nF>
0

> <a_nH>
21

> <a_nI>
0

> <a_nN>
1

> <a_nO>
4

> <a_nP>
0

> <a_nS>
0

> <balabanJ>
1.6796846

> <BCUT_PEOE_0>
-2.8864448

> <BCUT_PEOE_1>
-0.50404721

> <BCUT_PEOE_2>
0.41877177

> <BCUT_PEOE_3>
2.9324799

> <BCUT_SLOGP_0>
-2.9906743

> <BCUT_SLOGP_1>
-0.45522839

> <BCUT_SLOGP_2>
0.44883314

> <BCUT_SLOGP_3>
2.8616328

> <BCUT_SMR_0>
-2.6431296

> <BCUT_SMR_1>
-0.29630765

> <BCUT_SMR_2>
0.66184747

> <BCUT_SMR_3>
3.1694734

> <bpol>
29.727346

> <b_1rotN>
1

> <b_1rotR>
0.037037037

> <b_ar>
6

> <b_count>
48

> <b_double>
1

> <b_heavy>
27

> <b_max1len>
2

> <b_rotN>
1

> <b_rotR>
0.037037037

> <b_single>
41

> <b_triple>
0

> <chi0>
15.982763

> <chi0v>
13.464108

> <chi0v_C>
11.344935

> <chi0_C>
11.991199

> <chi1>
11.025841

> <chi1v>
8.3507404

> <chi1v_C>
5.8491707

> <chi1_C>
6.6977072

> <chiral>
4

> <chiral_u>
0

> <density>
0.75926214

> <diameter>
9

> <FCharge>
0

> <GCUT_PEOE_0>
-0.85216951

> <GCUT_PEOE_1>
-0.4064793

> <GCUT_PEOE_2>
-0.019796554

> <GCUT_PEOE_3>
3.1418266

> <GCUT_SLOGP_0>
-0.9635694

> <GCUT_SLOGP_1>
-0.37440521

> <GCUT_SLOGP_2>
0.010047689

> <GCUT_SLOGP_3>
3.1402807

> <GCUT_SMR_0>
-0.52123368

> <GCUT_SMR_1>
-0.19308698

> <GCUT_SMR_2>
0.14083685

> <GCUT_SMR_3>
3.380399

> <Kier1>
15.270233

> <Kier2>
4.791111

> <Kier3>
1.6070124

> <KierA1>
13.159409

> <KierA2>
4.0993528

> <KierA3>
1.3675414

> <KierFlex>
2.3454375

> <lip_acc>
5

> <lip_don>
1

> <lip_druglike>
1

> <lip_violation>
0

> <logP(o/w)>
0.76300001

> <logS>
-2.2123401

> <mr>
8.3358603

> <mutagenic>
0

> <nmol>
1

> <opr_brigid>
22

> <opr_leadlike>
1

> <opr_nring>
5

> <opr_nrot>
1

> <opr_violation>
1

> <PC+>
0

> <PC->
0

> <PEOE_PC+>
1.8402625

> <PEOE_PC->
-1.8402625

> <PEOE_RPC+>
0.11425903

> <PEOE_RPC->
0.20976385

> <PEOE_VSA+0>
98.768875

> <PEOE_VSA+1>
25.592316

> <PEOE_VSA+2>
21.821968

> <PEOE_VSA+3>
8.458519

> <PEOE_VSA+4>
10.324173

> <PEOE_VSA+5>
0.0

> <PEOE_VSA+6>
0.0

> <PEOE_VSA-0>
76.998398

> <PEOE_VSA-1>
12.254904

> <PEOE_VSA-2>
0.0

> <PEOE_VSA-3>
0.0

> <PEOE_VSA-4>
0.0

> <PEOE_VSA-5>
13.566921

> <PEOE_VSA-6>
12.775052

> <PEOE_VSA_FHYD>
0.86931139

> <PEOE_VSA_FNEG>
0.41201457

> <PEOE_VSA_FPNEG>
0.093890317

> <PEOE_VSA_FPOL>
0.13068862

> <PEOE_VSA_FPOS>
0.5879854

> <PEOE_VSA_FPPOS>
0.036798302

> <PEOE_VSA_HYD>
243.89497

> <PEOE_VSA_NEG>
115.59528

> <PEOE_VSA_PNEG>
26.341974

> <PEOE_VSA_POL>
36.666145

> <PEOE_VSA_POS>
164.96585

> <PEOE_VSA_PPOS>
10.324173

> <petitjean>
0.44444445

> <petitjeanSC>
0.80000001

> <Q_PC+>
0

> <Q_PC->
0

> <Q_RPC+>
0

> <Q_RPC->
0

> <Q_VSA_FHYD>
1

> <Q_VSA_FNEG>
0

> <Q_VSA_FPNEG>
0

> <Q_VSA_FPOL>
0

> <Q_VSA_FPOS>
1

> <Q_VSA_FPPOS>
0

> <Q_VSA_HYD>
280.56113

> <Q_VSA_NEG>
0

> <Q_VSA_PNEG>
0

> <Q_VSA_POL>
0

> <Q_VSA_POS>
280.56113

> <Q_VSA_PPOS>
0

> <radius>
5

> <reactive>
1

> <rings>
5

> <RPC+>
0

> <RPC->
0

> <rsynth>
0.043478262

> <SlogP>
1.04817

> <SlogP_VSA0>
47.385002

> <SlogP_VSA1>
8.8119249

> <SlogP_VSA2>
34.312836

> <SlogP_VSA3>
18.439579

> <SlogP_VSA4>
6.37115

> <SlogP_VSA5>
87.14946

> <SlogP_VSA6>
0.0

> <SlogP_VSA7>
35.286369

> <SlogP_VSA8>
56.605217

> <SlogP_VSA9>
10.486856

> <SMR>
8.3017797

> <SMR_VSA0>
23.862217

> <SMR_VSA1>
50.509315

> <SMR_VSA2>
0.0

> <SMR_VSA3>
27.308624

> <SMR_VSA4>
0.0

> <SMR_VSA5>
110.75999

> <SMR_VSA6>
24.12719

> <SMR_VSA7>
68.281059

> <TPSA>
59.0

> <VAdjEq>
0.47555268

> <VAdjMa>
5.7548876

> <VDistEq>
2.7195027

> <VDistMa>
8.8216581

> <vdw_area>
280.56113

> <vdw_vol>
415.36246

> <vsa_acc>
18.574432

> <vsa_acid>
0

> <vsa_base>
0

> <vsa_don>
0.0

> <vsa_hyd>
221.20055

> <vsa_other>
8.458519

> <vsa_pol>
32.141354

> <Weight>
315.36899

> <weinerPath>
907

> <weinerPol>
57

> <zagreb>
144

$$$$
Row1681
 OpenBabel06061811532D

 28 31  0  0  1  0  0  0  0  0999 V2000
    0.0000    0.0000    0.0000 O   0  0  0  0  0  0  0  0  0  0  0  0
    0.0000    0.0000    0.0000 C   0  0  0  0  0  0  0  0  0  0  0  0
    0.0000    0.0000    0.0000 C   0  0  0  0  0  0  0  0  0  0  0  0
    0.0000    0.0000    0.0000 C   0  0  2  0  0  0  0  0  0  0  0  0
    0.0000    0.0000    0.0000 H   0  0  0  0  0  0  0  0  0  0  0  0
    0.0000    0.0000    0.0000 C   0  0  0  0  0  0  0  0  0  0  0  0
    0.0000    0.0000    0.0000 C   0  0  0  0  0  0  0  0  0  0  0  0
    0.0000    0.0000    0.0000 C   0  0  1  0  0  0  0  0  0  0  0  0
    0.0000    0.0000    0.0000 H   0  0  0  0  0  0  0  0  0  0  0  0
    0.0000    0.0000    0.0000 C   0  0  2  0  0  0  0  0  0  0  0  0
    0.0000    0.0000    0.0000 H   0  0  0  0  0  0  0  0  0  0  0  0
    0.0000    0.0000    0.0000 C   0  0  0  0  0  0  0  0  0  0  0  0
    0.0000    0.0000    0.0000 C   0  0  0  0  0  0  0  0  0  0  0  0
    0.0000    0.0000    0.0000 C   0  0  2  0  0  0  0  0  0  0  0  0
    0.0000    0.0000    0.0000 O   0  0  0  0  0  0  0  0  0  0  0  0
    0.0000    0.0000    0.0000 C   0  0  0  0  0  0  0  0  0  0  0  0
    0.0000    0.0000    0.0000 C   0  0  2  0  0  0  0  0  0  0  0  0
    0.0000    0.0000    0.0000 C   0  0  0  0  0  0  0  0  0  0  0  0
    0.0000    0.0000    0.0000 C   0  0  0  0  0  0  0  0  0  0  0  0
    0.0000    0.0000    0.0000 C   0  0  2  0  0  0  0  0  0  0  0  0
    0.0000    0.0000    0.0000 H   0  0  0  0  0  0  0  0  0  0  0  0
    0.0000    0.0000    0.0000 C   0  0  2  0  0  0  0  0  0  0  0  0
    0.0000    0.0000    0.0000 C   0  0  0  0  0  0  0  0  0  0  0  0
    0.0000    0.0000    0.0000 C   0  0  0  0  0  0  0  0  0  0  0  0
    0.0000    0.0000    0.0000 C   0  0  0  0  0  0  0  0  0  0  0  0
    0.0000    0.0000    0.0000 O   0  0  0  0  0  0  0  0  0  0  0  0
    0.0000    0.0000    0.0000 C   0  0  0  0  0  0  0  0  0  0  0  0
    0.0000    0.0000    0.0000 C   0  0  0  0  0  0  0  0  0  0  0  0
  1  2  1  0  0  0  0
  2 24  2  0  0  0  0
  2  3  1  0  0  0  0
  3  4  1  0  0  0  0
  4  5  1  0  0  0  0
  4 22  1  0  0  0  0
  4  6  1  0  0  0  0
  6  7  1  0  0  0  0
  7  8  1  0  0  0  0
  8  9  1  0  0  0  0
  8 20  1  0  0  0  0
  8 10  1  0  0  0  0
 10 11  1  0  0  0  0
 10 17  1  0  0  0  0
 10 12  1  0  0  0  0
 12 13  1  0  0  0  0
 13 14  1  0  0  0  0
 14 15  1  0  0  0  0
 14 16  1  0  0  0  0
 14 17  1  0  0  0  0
 17 18  1  0  0  0  0
 17 28  1  0  0  0  0
 18 19  1  0  0  0  0
 19 20  1  0  0  0  0
 20 21  1  0  0  0  0
 20 22  1  0  0  0  0
 22 23  1  0  0  0  0
 22 27  1  0  0  0  0
 23 24  1  0  0  0  0
 24 25  1  0  0  0  0
 25 26  2  0  0  0  0
M  END
> <Index>
1682

> <ID>
HT1569

> <class>
1

> <apol>
60.703377

> <ast_fraglike>
0

> <ast_fraglike_ext>
0

> <ast_violation>
2

> <ast_violation_ext>
2

> <a_acc>
3

> <a_acid>
0

> <a_aro>
0

> <a_base>
0

> <a_count>
56

> <a_don>
3

> <a_donacc>
6

> <a_heavy>
24

> <a_hyd>
20

> <a_IC>
68.218323

> <a_ICM>
1.2181844

> <a_nB>
0

> <a_nBr>
0

> <a_nC>
21

> <a_nCl>
0

> <a_nF>
0

> <a_nH>
32

> <a_nI>
0

> <a_nN>
0

> <a_nO>
3

> <a_nP>
0

> <a_nS>
0

> <balabanJ>
1.6356723

> <BCUT_PEOE_0>
-2.977798

> <BCUT_PEOE_1>
-0.2908504

> <BCUT_PEOE_2>
0.36829782

> <BCUT_PEOE_3>
2.9806378

> <BCUT_SLOGP_0>
-2.8985281

> <BCUT_SLOGP_1>
-0.27387017

> <BCUT_SLOGP_2>
0.39964724

> <BCUT_SLOGP_3>
3.056854

> <BCUT_SMR_0>
-2.723968

> <BCUT_SMR_1>
-0.13764486

> <BCUT_SMR_2>
0.4934541

> <BCUT_SMR_3>
3.2329066

> <bpol>
35.940624

> <b_1rotN>
1

> <b_1rotR>
0.037037037

> <b_ar>
0

> <b_count>
59

> <b_double>
2

> <b_heavy>
27

> <b_max1len>
4

> <b_rotN>
1

> <b_rotR>
0.037037037

> <b_single>
57

> <b_triple>
0

> <chi0>
17.328062

> <chi0v>
15.346281

> <chi0v_C>
14.043606

> <chi0_C>
14.328063

> <chi1>
11.227129

> <chi1v>
9.8132915

> <chi1v_C>
9.1303759

> <chi1_C>
9.4426718

> <chiral>
7

> <chiral_u>
0

> <density>
0.68745315

> <diameter>
10

> <FCharge>
0

> <GCUT_PEOE_0>
-0.80560243

> <GCUT_PEOE_1>
-0.36015084

> <GCUT_PEOE_2>
-0.020031683

> <GCUT_PEOE_3>
3.3801911

> <GCUT_SLOGP_0>
-0.88373458

> <GCUT_SLOGP_1>
-0.28432941

> <GCUT_SLOGP_2>
0.042815894

> <GCUT_SLOGP_3>
3.4652407

> <GCUT_SMR_0>
-0.54211336

> <GCUT_SMR_1>
-0.16634588

> <GCUT_SMR_2>
0.10405922

> <GCUT_SMR_3>
3.6024389

> <Kier1>
17.415638

> <Kier2>
5.4972839

> <Kier3>
2.2642014

> <KierA1>
16.191078

> <KierA2>
5.0938644

> <KierA3>
2.093056

> <KierFlex>
3.436465

> <lip_acc>
3

> <lip_don>
2

> <lip_druglike>
1

> <lip_violation>
0

> <logP(o/w)>
4.217

> <logS>
-4.5627398

> <mr>
9.3536282

> <mutagenic>
1

> <nmol>
1

> <opr_brigid>
20

> <opr_leadlike>
1

> <opr_nring>
4

> <opr_nrot>
1

> <opr_violation>
0

> <PC+>
0

> <PC->
0

> <PEOE_PC+>
1.627568

> <PEOE_PC->
-1.627568

> <PEOE_RPC+>
0.13326146

> <PEOE_RPC->
0.23857552

> <PEOE_VSA+0>
125.90473

> <PEOE_VSA+1>
8.458519

> <PEOE_VSA+2>
22.770269

> <PEOE_VSA+3>
0.0

> <PEOE_VSA+4>
20.648346

> <PEOE_VSA+5>
0.0

> <PEOE_VSA+6>
0.0

> <PEOE_VSA-0>
88.358185

> <PEOE_VSA-1>
37.495354

> <PEOE_VSA-2>
0.0

> <PEOE_VSA-3>
0.0

> <PEOE_VSA-4>
0.0

> <PEOE_VSA-5>
13.566921

> <PEOE_VSA-6>
15.535081

> <PEOE_VSA_FHYD>
0.85048163

> <PEOE_VSA_FNEG>
0.4656992

> <PEOE_VSA_FPNEG>
0.087462366

> <PEOE_VSA_FPOL>
0.14951834

> <PEOE_VSA_FPOS>
0.5343008

> <PEOE_VSA_FPPOS>
0.062055979

> <PEOE_VSA_HYD>
282.98706

> <PEOE_VSA_NEG>
154.95554

> <PEOE_VSA_PNEG>
29.102001

> <PEOE_VSA_POL>
49.750347

> <PEOE_VSA_POS>
177.78188

> <PEOE_VSA_PPOS>
20.648346

> <petitjean>
0.5

> <petitjeanSC>
1.0

> <Q_PC+>
0

> <Q_PC->
0

> <Q_RPC+>
0

> <Q_RPC->
0

> <Q_VSA_FHYD>
1

> <Q_VSA_FNEG>
0

> <Q_VSA_FPNEG>
0

> <Q_VSA_FPOL>
0

> <Q_VSA_FPOS>
1

> <Q_VSA_FPPOS>
0

> <Q_VSA_HYD>
332.7374

> <Q_VSA_NEG>
0

> <Q_VSA_PNEG>
0

> <Q_VSA_POL>
0

> <Q_VSA_POS>
332.7374

> <Q_VSA_PPOS>
0

> <radius>
5

> <reactive>
1

> <rings>
4

> <RPC+>
0

> <RPC->
0

> <rsynth>
0.125

> <SlogP>
4.401

> <SlogP_VSA0>
25.385227

> <SlogP_VSA1>
0.0

> <SlogP_VSA2>
44.007435

> <SlogP_VSA3>
25.385227

> <SlogP_VSA4>
17.643185

> <SlogP_VSA5>
8.4290028

> <SlogP_VSA6>
0.0

> <SlogP_VSA7>
0.0

> <SlogP_VSA8>
150.94725

> <SlogP_VSA9>
99.978043

> <SMR>
9.3452597

> <SMR_VSA0>
23.862217

> <SMR_VSA1>
25.385227

> <SMR_VSA2>
43.028412

> <SMR_VSA3>
8.4290028

> <SMR_VSA4>
0.0

> <SMR_VSA5>
150.94725

> <SMR_VSA6>
0.0

> <SMR_VSA7>
120.12327

> <TPSA>
57.529999

> <VAdjEq>
0.44886449

> <VAdjMa>
5.7548876

> <VDistEq>
3.0825088

> <VDistMa>
8.8982344

> <vdw_area>
332.7374

> <vdw_vol>
483.64603

> <vsa_acc>
0.0

> <vsa_acid>
0

> <vsa_base>
0

> <vsa_don>
0.0

> <vsa_hyd>
234.19452

> <vsa_other>
22.058474

> <vsa_pol>
40.700764

> <Weight>
332.48398

> <weinerPath>
1160

> <weinerPol>
53

> <zagreb>
144

$$$$
Row1682
 OpenBabel06061811532D

 27 29  0  0  0  0  0  0  0  0999 V2000
    0.0000    0.0000    0.0000 S   0  0  3  0  0  0  0  0  0  0  0  0
    0.0000    0.0000    0.0000 O   0  0  0  0  0  0  0  0  0  0  0  0
    0.0000    0.0000    0.0000 C   0  0  0  0  0  0  0  0  0  0  0  0
    0.0000    0.0000    0.0000 C   0  0  0  0  0  0  0  0  0  0  0  0
    0.0000    0.0000    0.0000 N   0  0  0  0  0  0  0  0  0  0  0  0
    0.0000    0.0000    0.0000 C   0  0  0  0  0  0  0  0  0  0  0  0
    0.0000    0.0000    0.0000 C   0  0  0  0  0  0  0  0  0  0  0  0
    0.0000    0.0000    0.0000 C   0  0  0  0  0  0  0  0  0  0  0  0
    0.0000    0.0000    0.0000 O   0  0  0  0  0  0  0  0  0  0  0  0
    0.0000    0.0000    0.0000 C   0  0  0  0  0  0  0  0  0  0  0  0
    0.0000    0.0000    0.0000 C   0  0  0  0  0  0  0  0  0  0  0  0
    0.0000    0.0000    0.0000 O   0  0  0  0  0  0  0  0  0  0  0  0
    0.0000    0.0000    0.0000 C   0  0  0  0  0  0  0  0  0  0  0  0
    0.0000    0.0000    0.0000 C   0  0  0  0  0  0  0  0  0  0  0  0
    0.0000    0.0000    0.0000 N   0  0  0  0  0  0  0  0  0  0  0  0
    0.0000    0.0000    0.0000 H   0  0  0  0  0  0  0  0  0  0  0  0
    0.0000    0.0000    0.0000 C   0  0  0  0  0  0  0  0  0  0  0  0
    0.0000    0.0000    0.0000 C   0  0  0  0  0  0  0  0  0  0  0  0
    0.0000    0.0000    0.0000 N   0  0  0  0  0  0  0  0  0  0  0  0
    0.0000    0.0000    0.0000 C   0  0  0  0  0  0  0  0  0  0  0  0
    0.0000    0.0000    0.0000 C   0  0  0  0  0  0  0  0  0  0  0  0
    0.0000    0.0000    0.0000 O   0  0  0  0  0  0  0  0  0  0  0  0
    0.0000    0.0000    0.0000 C   0  0  0  0  0  0  0  0  0  0  0  0
    0.0000    0.0000    0.0000 F   0  0  0  0  0  0  0  0  0  0  0  0
    0.0000    0.0000    0.0000 F   0  0  0  0  0  0  0  0  0  0  0  0
    0.0000    0.0000    0.0000 C   0  0  0  0  0  0  0  0  0  0  0  0
    0.0000    0.0000    0.0000 C   0  0  0  0  0  0  0  0  0  0  0  0
  1  2  2  0  0  0  0
  1  3  1  0  0  0  0
  1 14  1  0  0  0  0
  3  4  1  0  0  0  0
  4 11  1  0  0  0  0
  4  5  2  0  0  0  0
  5  6  1  0  0  0  0
  6  7  2  0  0  0  0
  7  8  1  0  0  0  0
  8  9  1  0  0  0  0
  8 11  2  0  0  0  0
  9 10  1  0  0  0  0
 11 12  1  0  0  0  0
 12 13  1  0  0  0  0
 14 19  2  0  0  0  0
 14 15  1  0  0  0  0
 15 16  1  0  0  0  0
 15 17  1  0  0  0  0
 17 27  1  0  0  0  0
 17 18  2  0  0  0  0
 18 19  1  0  0  0  0
 18 20  1  0  0  0  0
 20 21  2  0  0  0  0
 21 22  1  0  0  0  0
 21 26  1  0  0  0  0
 22 23  1  0  0  0  0
 23 24  1  0  0  0  0
 23 25  1  0  0  0  0
 26 27  2  0  0  0  0
M  END
> <Index>
1683

> <ID>
HT1586

> <class>
1

> <apol>
48.683895

> <ast_fraglike>
0

> <ast_fraglike_ext>
0

> <ast_violation>
3

> <ast_violation_ext>
4

> <a_acc>
7

> <a_acid>
0

> <a_aro>
15

> <a_base>
0

> <a_count>
41

> <a_don>
2

> <a_donacc>
9

> <a_heavy>
26

> <a_hyd>
17

> <a_IC>
82.301384

> <a_ICM>
2.0073509

> <a_nB>
0

> <a_nBr>
0

> <a_nC>
16

> <a_nCl>
0

> <a_nF>
2

> <a_nH>
15

> <a_nI>
0

> <a_nN>
3

> <a_nO>
4

> <a_nP>
0

> <a_nS>
1

> <balabanJ>
1.5231729

> <BCUT_PEOE_0>
-2.32775

> <BCUT_PEOE_1>
-0.57608694

> <BCUT_PEOE_2>
0.47849691

> <BCUT_PEOE_3>
2.4365849

> <BCUT_SLOGP_0>
-2.3081236

> <BCUT_SLOGP_1>
-0.53509396

> <BCUT_SLOGP_2>
0.58238548

> <BCUT_SLOGP_3>
2.5057166

> <BCUT_SMR_0>
-2.0569096

> <BCUT_SMR_1>
-0.33114839

> <BCUT_SMR_2>
0.67060035

> <BCUT_SMR_3>
2.7188683

> <bpol>
32.230106

> <b_1rotN>
7

> <b_1rotR>
0.25

> <b_ar>
16

> <b_count>
43

> <b_double>
0

> <b_heavy>
28

> <b_max1len>
3

> <b_rotN>
7

> <b_rotR>
0.25

> <b_single>
27

> <b_triple>
0

> <chi0>
18.681435

> <chi0v>
14.679302

> <chi0v_C>
9.6712084

> <chi0_C>
10.861443

> <chi1>
12.51157

> <chi1v>
8.7220201

> <chi1v_C>
3.2135956

> <chi1_C>
4.4494896

> <chiral>
0

> <chiral_u>
0

> <density>
0.87576056

> <diameter>
14

> <FCharge>
0

> <GCUT_PEOE_0>
-0.84822208

> <GCUT_PEOE_1>
-0.45640928

> <GCUT_PEOE_2>
-0.029244281

> <GCUT_PEOE_3>
2.4765885

> <GCUT_SLOGP_0>
-0.8900907

> <GCUT_SLOGP_1>
-0.37940288

> <GCUT_SLOGP_2>
0.1210122

> <GCUT_SLOGP_3>
2.5752339

> <GCUT_SMR_0>
-0.48484457

> <GCUT_SMR_1>
-0.18529955

> <GCUT_SMR_2>
0.12004901

> <GCUT_SMR_3>
2.7564797

> <Kier1>
20.727041

> <Kier2>
9.4674559

> <Kier3>
5.0934258

> <KierA1>
16.85323

> <KierA2>
7.6304059

> <KierA3>
4.0792637

> <KierFlex>
4.9460378

> <lip_acc>
7

> <lip_don>
1

> <lip_druglike>
1

> <lip_violation>
0

> <logP(o/w)>
1.04366

> <logS>
-3.5941801

> <mr>
9.3706417

> <mutagenic>
0

> <nmol>
1

> <opr_brigid>
16

> <opr_leadlike>
1

> <opr_nring>
3

> <opr_nrot>
7

> <opr_violation>
0

> <PC+>
0

> <PC->
0

> <PEOE_PC+>
2.7513375

> <PEOE_PC->
-2.7513375

> <PEOE_RPC+>
0.12763669

> <PEOE_RPC->
0.22194405

> <PEOE_VSA+0>
79.877937

> <PEOE_VSA+1>
77.30764

> <PEOE_VSA+2>
27.881975

> <PEOE_VSA+3>
19.296389

> <PEOE_VSA+4>
0.0

> <PEOE_VSA+5>
0.0

> <PEOE_VSA+6>
31.696165

> <PEOE_VSA-0>
49.019615

> <PEOE_VSA-1>
0.0

> <PEOE_VSA-2>
0.0

> <PEOE_VSA-3>
29.499847

> <PEOE_VSA-4>
0.0

> <PEOE_VSA-5>
8.3232231

> <PEOE_VSA-6>
21.015774

> <PEOE_VSA_FHYD>
0.82253021

> <PEOE_VSA_FNEG>
0.31361628

> <PEOE_VSA_FPNEG>
0.085307978

> <PEOE_VSA_FPOL>
0.1774698

> <PEOE_VSA_FPOS>
0.68638372

> <PEOE_VSA_FPPOS>
0.092161827

> <PEOE_VSA_HYD>
282.88339

> <PEOE_VSA_NEG>
107.85846

> <PEOE_VSA_PNEG>
29.338997

> <PEOE_VSA_POL>
61.03516

> <PEOE_VSA_POS>
236.0601

> <PEOE_VSA_PPOS>
31.696165

> <petitjean>
0.5

> <petitjeanSC>
1.0

> <Q_PC+>
0

> <Q_PC->
0

> <Q_RPC+>
0

> <Q_RPC->
0

> <Q_VSA_FHYD>
1

> <Q_VSA_FNEG>
0

> <Q_VSA_FPNEG>
0

> <Q_VSA_FPOL>
0

> <Q_VSA_FPOS>
1

> <Q_VSA_FPPOS>
0

> <Q_VSA_HYD>
343.91858

> <Q_VSA_NEG>
0

> <Q_VSA_PNEG>
0

> <Q_VSA_POL>
0

> <Q_VSA_POS>
343.91858

> <Q_VSA_PPOS>
0

> <radius>
7

> <reactive>
0

> <rings>
3

> <RPC+>
0

> <RPC->
0

> <rsynth>
1.0

> <SlogP>
3.1507001

> <SlogP_VSA0>
32.999664

> <SlogP_VSA1>
57.656902

> <SlogP_VSA2>
54.674469

> <SlogP_VSA3>
0.0

> <SlogP_VSA4>
2.7567475

> <SlogP_VSA5>
71.460815

> <SlogP_VSA6>
0.0

> <SlogP_VSA7>
92.075371

> <SlogP_VSA8>
0.0

> <SlogP_VSA9>
62.884075

> <SMR>
9.0384102

> <SMR_VSA0>
24.085844

> <SMR_VSA1>
96.490952

> <SMR_VSA2>
17.478609

> <SMR_VSA3>
36.826569

> <SMR_VSA4>
4.2882738

> <SMR_VSA5>
105.02066

> <SMR_VSA6>
0.0

> <SMR_VSA7>
90.317139

> <TPSA>
105.54

> <VAdjEq>
0.41210872

> <VAdjMa>
5.8073549

> <VDistEq>
3.5816407

> <VDistMa>
9.088356

> <vdw_area>
343.91858

> <vdw_vol>
437.76236

> <vsa_acc>
29.202106

> <vsa_acid>
0

> <vsa_base>
0

> <vsa_don>
0.0

> <vsa_hyd>
264.00952

> <vsa_other>
26.303333

> <vsa_pol>
40.567257

> <Weight>
383.375

> <weinerPath>
1806

> <weinerPol>
40

> <zagreb>
134

$$$$
Row1683
 OpenBabel06061811532D

 25 27  0  0  1  0  0  0  0  0999 V2000
    0.0000    0.0000    0.0000 Cl  0  0  0  0  0  0  0  0  0  0  0  0
    0.0000    0.0000    0.0000 C   0  0  0  0  0  0  0  0  0  0  0  0
    0.0000    0.0000    0.0000 C   0  0  0  0  0  0  0  0  0  0  0  0
    0.0000    0.0000    0.0000 C   0  0  0  0  0  0  0  0  0  0  0  0
    0.0000    0.0000    0.0000 N   0  0  0  0  0  0  0  0  0  0  0  0
    0.0000    0.0000    0.0000 C   0  0  3  0  0  0  0  0  0  0  0  0
    0.0000    0.0000    0.0000 N   0  0  0  0  0  0  0  0  0  0  0  0
    0.0000    0.0000    0.0000 S   0  0  0  0  0  0  0  0  0  0  0  0
    0.0000    0.0000    0.0000 O   0  0  0  0  0  0  0  0  0  0  0  0
    0.0000    0.0000    0.0000 O   0  0  0  0  0  0  0  0  0  0  0  0
    0.0000    0.0000    0.0000 C   0  0  0  0  0  0  0  0  0  0  0  0
    0.0000    0.0000    0.0000 C   0  0  0  0  0  0  0  0  0  0  0  0
    0.0000    0.0000    0.0000 C   0  0  0  0  0  0  0  0  0  0  0  0
    0.0000    0.0000    0.0000 S   0  0  0  0  0  0  0  0  0  0  0  0
    0.0000    0.0000    0.0000 O   0  0  0  0  0  0  0  0  0  0  0  0
    0.0000    0.0000    0.0000 O   0  0  0  0  0  0  0  0  0  0  0  0
    0.0000    0.0000    0.0000 N   0  0  0  0  0  0  0  0  0  0  0  0
    0.0000    0.0000    0.0000 C   0  0  0  0  0  0  0  0  0  0  0  0
    0.0000    0.0000    0.0000 C   0  0  0  0  0  0  0  0  0  0  0  0
    0.0000    0.0000    0.0000 C   0  0  0  0  0  0  0  0  0  0  0  0
    0.0000    0.0000    0.0000 C   0  0  0  0  0  0  0  0  0  0  0  0
    0.0000    0.0000    0.0000 C   0  0  0  0  0  0  0  0  0  0  0  0
    0.0000    0.0000    0.0000 F   0  0  0  0  0  0  0  0  0  0  0  0
    0.0000    0.0000    0.0000 C   0  0  0  0  0  0  0  0  0  0  0  0
    0.0000    0.0000    0.0000 C   0  0  0  0  0  0  0  0  0  0  0  0
  1  2  1  0  0  0  0
  2 13  1  0  0  0  0
  2  3  2  0  0  0  0
  3  4  1  0  0  0  0
  4 11  2  0  0  0  0
  4  5  1  0  0  0  0
  5  6  1  0  0  0  0
  6  7  1  0  0  0  0
  6 18  1  0  0  0  0
  7  8  1  0  0  0  0
  8  9  2  0  0  0  0
  8 10  2  0  0  0  0
  8 11  1  0  0  0  0
 11 12  1  0  0  0  0
 12 13  2  0  0  0  0
 13 14  1  0  0  0  0
 14 15  2  0  0  0  0
 14 16  2  0  0  0  0
 14 17  1  0  0  0  0
 18 19  1  0  0  0  0
 19 25  1  0  0  0  0
 19 20  2  0  0  0  0
 20 21  1  0  0  0  0
 21 22  2  0  0  0  0
 22 23  1  0  0  0  0
 22 24  1  0  0  0  0
 24 25  2  0  0  0  0
M  END
> <Index>
1684

> <ID>
HT1589

> <class>
1

> <apol>
48.35331

> <ast_fraglike>
0

> <ast_fraglike_ext>
0

> <ast_violation>
2

> <ast_violation_ext>
3

> <a_acc>
4

> <a_acid>
0

> <a_aro>
12

> <a_base>
0

> <a_count>
38

> <a_don>
3

> <a_donacc>
7

> <a_heavy>
25

> <a_hyd>
15

> <a_IC>
83.257675

> <a_ICM>
2.1909914

> <a_nB>
0

> <a_nBr>
0

> <a_nC>
14

> <a_nCl>
1

> <a_nF>
1

> <a_nH>
13

> <a_nI>
0

> <a_nN>
3

> <a_nO>
4

> <a_nP>
0

> <a_nS>
2

> <balabanJ>
1.6491296

> <BCUT_PEOE_0>
-2.6315095

> <BCUT_PEOE_1>
-0.62500554

> <BCUT_PEOE_2>
0.64763528

> <BCUT_PEOE_3>
2.6019728

> <BCUT_SLOGP_0>
-2.7915838

> <BCUT_SLOGP_1>
-0.51324147

> <BCUT_SLOGP_2>
0.79327476

> <BCUT_SLOGP_3>
2.5385437

> <BCUT_SMR_0>
-2.3103085

> <BCUT_SMR_1>
-0.46060795

> <BCUT_SMR_2>
0.80888271

> <BCUT_SMR_3>
2.9219427

> <bpol>
29.446692

> <b_1rotN>
3

> <b_1rotR>
0.11111111

> <b_ar>
12

> <b_count>
40

> <b_double>
0

> <b_heavy>
27

> <b_max1len>
3

> <b_rotN>
3

> <b_rotR>
0.11111111

> <b_single>
28

> <b_triple>
0

> <chi0>
18.405413

> <chi0v>
14.92025

> <chi0v_C>
7.7485585

> <chi0_C>
8.9911995

> <chi1>
11.559499

> <chi1v>
10.365373

> <chi1v_C>
4.2378693

> <chi1_C>
5.7491498

> <chiral>
1

> <chiral_u>
1

> <density>
0.96071643

> <diameter>
13

> <FCharge>
0

> <GCUT_PEOE_0>
-0.88745886

> <GCUT_PEOE_1>
-0.41345963

> <GCUT_PEOE_2>
0.066475466

> <GCUT_PEOE_3>
2.6371758

> <GCUT_SLOGP_0>
-1.3482859

> <GCUT_SLOGP_1>
-0.43853506

> <GCUT_SLOGP_2>
0.18670174

> <GCUT_SLOGP_3>
2.654424

> <GCUT_SMR_0>
-0.50189227

> <GCUT_SMR_1>
-0.18503991

> <GCUT_SMR_2>
0.18180041

> <GCUT_SMR_3>
2.9190819

> <Kier1>
19.753086

> <Kier2>
7.197279

> <Kier3>
4.4659748

> <KierA1>
18.95302

> <KierA2>
6.8934407

> <KierA3>
4.2717304

> <KierFlex>
5.2260609

> <lip_acc>
7

> <lip_don>
4

> <lip_druglike>
1

> <lip_violation>
0

> <logP(o/w)>
1.613

> <logS>
-4.13414

> <mr>
9.3058214

> <mutagenic>
0

> <nmol>
1

> <opr_brigid>
17

> <opr_leadlike>
1

> <opr_nring>
3

> <opr_nrot>
3

> <opr_violation>
0

> <PC+>
0

> <PC->
0

> <PEOE_PC+>
1.9614941

> <PEOE_PC->
-1.9614941

> <PEOE_RPC+>
0.15791446

> <PEOE_RPC->
0.19521667

> <PEOE_VSA+0>
54.476315

> <PEOE_VSA+1>
34.21133

> <PEOE_VSA+2>
35.901104

> <PEOE_VSA+3>
0.0

> <PEOE_VSA+4>
0.0

> <PEOE_VSA+5>
0.0

> <PEOE_VSA+6>
8.3692026

> <PEOE_VSA-0>
56.293579

> <PEOE_VSA-1>
54.091755

> <PEOE_VSA-2>
34.546043

> <PEOE_VSA-3>
9.0437498

> <PEOE_VSA-4>
43.925159

> <PEOE_VSA-5>
0.0

> <PEOE_VSA-6>
0.13689101

> <PEOE_VSA_FHYD>
0.84159511

> <PEOE_VSA_FNEG>
0.59830844

> <PEOE_VSA_FPNEG>
0.13311994

> <PEOE_VSA_FPOL>
0.1584049

> <PEOE_VSA_FPOS>
0.40169156

> <PEOE_VSA_FPPOS>
0.025284972

> <PEOE_VSA_HYD>
278.56387

> <PEOE_VSA_NEG>
198.03717

> <PEOE_VSA_PNEG>
44.06205

> <PEOE_VSA_POL>
52.431252

> <PEOE_VSA_POS>
132.95795

> <PEOE_VSA_PPOS>
8.3692026

> <petitjean>
0.46153846

> <petitjeanSC>
0.85714287

> <Q_PC+>
0

> <Q_PC->
0

> <Q_RPC+>
0

> <Q_RPC->
0

> <Q_VSA_FHYD>
1

> <Q_VSA_FNEG>
0

> <Q_VSA_FPNEG>
0

> <Q_VSA_FPOL>
0

> <Q_VSA_FPOS>
1

> <Q_VSA_FPPOS>
0

> <Q_VSA_HYD>
330.99512

> <Q_VSA_NEG>
0

> <Q_VSA_PNEG>
0

> <Q_VSA_POL>
0

> <Q_VSA_POS>
330.99512

> <Q_VSA_PPOS>
0

> <radius>
7

> <reactive>
0

> <rings>
3

> <RPC+>
0

> <RPC->
0

> <rsynth>
1.0

> <SlogP>
1.39907

> <SlogP_VSA0>
47.69643

> <SlogP_VSA1>
114.35413

> <SlogP_VSA2>
25.955645

> <SlogP_VSA3>
0.0

> <SlogP_VSA4>
3.185575

> <SlogP_VSA5>
21.969873

> <SlogP_VSA6>
3.5006065

> <SlogP_VSA7>
105.85911

> <SlogP_VSA8>
0.0

> <SlogP_VSA9>
56.865505

> <SMR>
9.0661402

> <SMR_VSA0>
96.343376

> <SMR_VSA1>
14.960114

> <SMR_VSA2>
28.627483

> <SMR_VSA3>
10.239323

> <SMR_VSA4>
52.058933

> <SMR_VSA5>
124.72751

> <SMR_VSA6>
0.0

> <SMR_VSA7>
52.43013

> <TPSA>
118.36

> <VAdjEq>
0.42433795

> <VAdjMa>
5.7548876

> <VDistEq>
3.4186003

> <VDistMa>
8.9828691

> <vdw_area>
330.99512

> <vdw_vol>
422.45349

> <vsa_acc>
64.033043

> <vsa_acid>
0

> <vsa_base>
0

> <vsa_don>
33.892902

> <vsa_hyd>
182.96793

> <vsa_other>
31.401779

> <vsa_pol>
97.925949

> <Weight>
405.858

> <weinerPath>
1502

> <weinerPol>
42

> <zagreb>
138

$$$$
Row1684
 OpenBabel06061811532D

 26 29  0  0  1  0  0  0  0  0999 V2000
    0.0000    0.0000    0.0000 F   0  0  0  0  0  0  0  0  0  0  0  0
    0.0000    0.0000    0.0000 C   0  0  0  0  0  0  0  0  0  0  0  0
    0.0000    0.0000    0.0000 C   0  0  0  0  0  0  0  0  0  0  0  0
    0.0000    0.0000    0.0000 C   0  0  0  0  0  0  0  0  0  0  0  0
    0.0000    0.0000    0.0000 C   0  0  0  0  0  0  0  0  0  0  0  0
    0.0000    0.0000    0.0000 C   0  0  0  0  0  0  0  0  0  0  0  0
    0.0000    0.0000    0.0000 C   0  0  0  0  0  0  0  0  0  0  0  0
    0.0000    0.0000    0.0000 C   0  0  2  0  0  0  0  0  0  0  0  0
    0.0000    0.0000    0.0000 H   0  0  0  0  0  0  0  0  0  0  0  0
    0.0000    0.0000    0.0000 C   0  0  0  0  0  0  0  0  0  0  0  0
    0.0000    0.0000    0.0000 C   0  0  0  0  0  0  0  0  0  0  0  0
    0.0000    0.0000    0.0000 N   0  0  0  0  0  0  0  0  0  0  0  0
    0.0000    0.0000    0.0000 C   0  0  0  0  0  0  0  0  0  0  0  0
    0.0000    0.0000    0.0000 C   0  0  1  0  0  0  0  0  0  0  0  0
    0.0000    0.0000    0.0000 H   0  0  0  0  0  0  0  0  0  0  0  0
    0.0000    0.0000    0.0000 C   0  0  0  0  0  0  0  0  0  0  0  0
    0.0000    0.0000    0.0000 O   0  0  0  0  0  0  0  0  0  0  0  0
    0.0000    0.0000    0.0000 C   0  0  0  0  0  0  0  0  0  0  0  0
    0.0000    0.0000    0.0000 C   0  0  0  0  0  0  0  0  0  0  0  0
    0.0000    0.0000    0.0000 C   0  0  0  0  0  0  0  0  0  0  0  0
    0.0000    0.0000    0.0000 O   0  0  0  0  0  0  0  0  0  0  0  0
    0.0000    0.0000    0.0000 C   0  0  0  0  0  0  0  0  0  0  0  0
    0.0000    0.0000    0.0000 O   0  0  0  0  0  0  0  0  0  0  0  0
    0.0000    0.0000    0.0000 C   0  0  0  0  0  0  0  0  0  0  0  0
    0.0000    0.0000    0.0000 C   0  0  0  0  0  0  0  0  0  0  0  0
    0.0000    0.0000    0.0000 C   0  0  0  0  0  0  0  0  0  0  0  0
  1  2  1  0  0  0  0
  2  7  1  0  0  0  0
  2  3  2  0  0  0  0
  3  4  1  0  0  0  0
  4  5  2  0  0  0  0
  5  6  1  0  0  0  0
  5  8  1  0  0  0  0
  6  7  2  0  0  0  0
  8  9  1  0  0  0  0
  8 14  1  0  0  0  0
  8 10  1  0  0  0  0
 10 11  1  0  0  0  0
 11 12  1  0  0  0  0
 12 13  1  0  0  0  0
 13 14  1  0  0  0  0
 14 15  1  0  0  0  0
 14 16  1  0  0  0  0
 16 17  1  0  0  0  0
 17 18  1  0  0  0  0
 18 26  1  0  0  0  0
 18 19  2  0  0  0  0
 19 20  1  0  0  0  0
 20 24  2  0  0  0  0
 20 21  1  0  0  0  0
 21 22  1  0  0  0  0
 22 23  1  0  0  0  0
 23 24  1  0  0  0  0
 24 25  1  0  0  0  0
 25 26  2  0  0  0  0
M  END
> <Index>
1685

> <ID>
HT1598

> <class>
1

> <apol>
50.83886

> <ast_fraglike>
0

> <ast_fraglike_ext>
0

> <ast_violation>
3

> <ast_violation_ext>
4

> <a_acc>
4

> <a_acid>
0

> <a_aro>
12

> <a_base>
0

> <a_count>
44

> <a_don>
1

> <a_donacc>
5

> <a_heavy>
24

> <a_hyd>
19

> <a_IC>
68.310921

> <a_ICM>
1.5525209

> <a_nB>
0

> <a_nBr>
0

> <a_nC>
19

> <a_nCl>
0

> <a_nF>
1

> <a_nH>
20

> <a_nI>
0

> <a_nN>
1

> <a_nO>
3

> <a_nP>
0

> <a_nS>
0

> <balabanJ>
1.2756878

> <BCUT_PEOE_0>
-2.7815652

> <BCUT_PEOE_1>
-0.62880915

> <BCUT_PEOE_2>
0.6227119

> <BCUT_PEOE_3>
2.7356136

> <BCUT_SLOGP_0>
-2.8505082

> <BCUT_SLOGP_1>
-0.53315085

> <BCUT_SLOGP_2>
0.74485523

> <BCUT_SLOGP_3>
2.7462492

> <BCUT_SMR_0>
-2.5206366

> <BCUT_SMR_1>
-0.46814585

> <BCUT_SMR_2>
0.81022263

> <BCUT_SMR_3>
2.9921746

> <bpol>
29.47514

> <b_1rotN>
4

> <b_1rotR>
0.14814815

> <b_ar>
12

> <b_count>
47

> <b_double>
0

> <b_heavy>
27

> <b_max1len>
3

> <b_rotN>
4

> <b_rotR>
0.14814815

> <b_single>
35

> <b_triple>
0

> <chi0>
16.35516

> <chi0v>
13.334395

> <chi0v_C>
11.231687

> <chi0_C>
12.526733

> <chi1>
11.792827

> <chi1v>
8.2806416

> <chi1v_C>
5.9061546

> <chi1_C>
7.4907312

> <chiral>
2

> <chiral_u>
0

> <density>
0.75118345

> <diameter>
13

> <FCharge>
0

> <GCUT_PEOE_0>
-0.8487103

> <GCUT_PEOE_1>
-0.41307551

> <GCUT_PEOE_2>
0.048336636

> <GCUT_PEOE_3>
2.7423725

> <GCUT_SLOGP_0>
-1.1533765

> <GCUT_SLOGP_1>
-0.34798974

> <GCUT_SLOGP_2>
0.16226229

> <GCUT_SLOGP_3>
2.811532

> <GCUT_SMR_0>
-0.52029204

> <GCUT_SMR_1>
-0.21406545

> <GCUT_SMR_2>
0.16785277

> <GCUT_SMR_3>
2.9918139

> <Kier1>
17.415638

> <Kier2>
8.1314831

> <Kier3>
4.2332363

> <KierA1>
14.035199

> <KierA2>
6.4876385

> <KierA3>
3.3530998

> <KierFlex>
3.7939708

> <lip_acc>
4

> <lip_don>
1

> <lip_druglike>
1

> <lip_violation>
0

> <logP(o/w)>
3.4389999

> <logS>
-3.5831499

> <mr>
9.0266733

> <mutagenic>
0

> <nmol>
1

> <opr_brigid>
22

> <opr_leadlike>
1

> <opr_nring>
4

> <opr_nrot>
6

> <opr_violation>
0

> <PC+>
0

> <PC->
0

> <PEOE_PC+>
1.80366

> <PEOE_PC->
-1.80366

> <PEOE_RPC+>
0.088726334

> <PEOE_RPC->
0.19087493

> <PEOE_VSA+0>
59.570316

> <PEOE_VSA+1>
70.329056

> <PEOE_VSA+2>
34.556896

> <PEOE_VSA+3>
21.201273

> <PEOE_VSA+4>
0.0

> <PEOE_VSA+5>
0.0

> <PEOE_VSA+6>
0.0

> <PEOE_VSA-0>
73.121796

> <PEOE_VSA-1>
24.509808

> <PEOE_VSA-2>
0.0

> <PEOE_VSA-3>
0.0

> <PEOE_VSA-4>
11.908636

> <PEOE_VSA-5>
0.0

> <PEOE_VSA-6>
7.6481595

> <PEOE_VSA_FHYD>
0.93542331

> <PEOE_VSA_FNEG>
0.38695714

> <PEOE_VSA_FPNEG>
0.064576708

> <PEOE_VSA_FPOL>
0.064576708

> <PEOE_VSA_FPOS>
0.61304289

> <PEOE_VSA_FPPOS>
0.0

> <PEOE_VSA_HYD>
283.28915

> <PEOE_VSA_NEG>
117.18839

> <PEOE_VSA_PNEG>
19.556795

> <PEOE_VSA_POL>
19.556795

> <PEOE_VSA_POS>
185.65755

> <PEOE_VSA_PPOS>
0.0

> <petitjean>
0.46153846

> <petitjeanSC>
0.85714287

> <Q_PC+>
0

> <Q_PC->
0

> <Q_RPC+>
0

> <Q_RPC->
0

> <Q_VSA_FHYD>
1

> <Q_VSA_FNEG>
0

> <Q_VSA_FPNEG>
0

> <Q_VSA_FPOL>
0

> <Q_VSA_FPOS>
1

> <Q_VSA_FPPOS>
0

> <Q_VSA_HYD>
302.84595

> <Q_VSA_NEG>
0

> <Q_VSA_PNEG>
0

> <Q_VSA_POL>
0

> <Q_VSA_POS>
302.84595

> <Q_VSA_PPOS>
0

> <radius>
7

> <reactive>
0

> <rings>
4

> <RPC+>
0

> <RPC->
0

> <rsynth>
1.0

> <SlogP>
3.3264999

> <SlogP_VSA0>
51.010414

> <SlogP_VSA1>
0.0

> <SlogP_VSA2>
9.1210184

> <SlogP_VSA3>
80.789528

> <SlogP_VSA4>
7.5963712

> <SlogP_VSA5>
0.0

> <SlogP_VSA6>
4.4107962

> <SlogP_VSA7>
123.50229

> <SlogP_VSA8>
18.868406

> <SlogP_VSA9>
30.690397

> <SMR>
8.81777

> <SMR_VSA0>
0.0

> <SMR_VSA1>
47.959778

> <SMR_VSA2>
31.542564

> <SMR_VSA3>
23.326654

> <SMR_VSA4>
0.0

> <SMR_VSA5>
142.3707

> <SMR_VSA6>
80.789528

> <SMR_VSA7>
0.0

> <TPSA>
39.720001

> <VAdjEq>
0.44886449

> <VAdjMa>
5.7548876

> <VDistEq>
3.4698164

> <VDistMa>
8.8586054

> <vdw_area>
302.84595

> <vdw_vol>
438.46945

> <vsa_acc>
7.5112681

> <vsa_acid>
0

> <vsa_base>
0

> <vsa_don>
0.0

> <vsa_hyd>
242.05611

> <vsa_other>
28.308455

> <vsa_pol>
13.193845

> <Weight>
329.371

> <weinerPath>
1445

> <weinerPol>
35

> <zagreb>
128

$$$$
Row1685
 OpenBabel06061811532D

 25 26  0  0  1  0  0  0  0  0999 V2000
    0.0000    0.0000    0.0000 S   0  0  0  0  0  0  0  0  0  0  0  0
    0.0000    0.0000    0.0000 O   0  0  0  0  0  0  0  0  0  0  0  0
    0.0000    0.0000    0.0000 O   0  0  0  0  0  0  0  0  0  0  0  0
    0.0000    0.0000    0.0000 N   0  0  0  0  0  0  0  0  0  0  0  0
    0.0000    0.0000    0.0000 C   0  0  0  0  0  0  0  0  0  0  0  0
    0.0000    0.0000    0.0000 C   0  0  0  0  0  0  0  0  0  0  0  0
    0.0000    0.0000    0.0000 C   0  0  0  0  0  0  0  0  0  0  0  0
    0.0000    0.0000    0.0000 S   0  0  0  0  0  0  0  0  0  0  0  0
    0.0000    0.0000    0.0000 O   0  0  0  0  0  0  0  0  0  0  0  0
    0.0000    0.0000    0.0000 O   0  0  0  0  0  0  0  0  0  0  0  0
    0.0000    0.0000    0.0000 N   0  0  0  0  0  0  0  0  0  0  0  0
    0.0000    0.0000    0.0000 C   0  0  3  0  0  0  0  0  0  0  0  0
    0.0000    0.0000    0.0000 N   0  0  0  0  0  0  0  0  0  0  0  0
    0.0000    0.0000    0.0000 C   0  0  0  0  0  0  0  0  0  0  0  0
    0.0000    0.0000    0.0000 C   0  0  0  0  0  0  0  0  0  0  0  0
    0.0000    0.0000    0.0000 C   0  0  0  0  0  0  0  0  0  0  0  0
    0.0000    0.0000    0.0000 C   0  0  0  0  0  0  0  0  0  0  0  0
    0.0000    0.0000    0.0000 F   0  0  0  0  0  0  0  0  0  0  0  0
    0.0000    0.0000    0.0000 F   0  0  0  0  0  0  0  0  0  0  0  0
    0.0000    0.0000    0.0000 F   0  0  0  0  0  0  0  0  0  0  0  0
    0.0000    0.0000    0.0000 C   0  0  0  0  0  0  0  0  0  0  0  0
    0.0000    0.0000    0.0000 C   0  0  0  0  0  0  0  0  0  0  0  0
    0.0000    0.0000    0.0000 C   0  0  0  0  0  0  0  0  0  0  0  0
    0.0000    0.0000    0.0000 C   0  0  0  0  0  0  0  0  0  0  0  0
    0.0000    0.0000    0.0000 C   0  0  0  0  0  0  0  0  0  0  0  0
  1  2  2  0  0  0  0
  1  3  2  0  0  0  0
  1  4  1  0  0  0  0
  1  5  1  0  0  0  0
  5 16  1  0  0  0  0
  5  6  2  0  0  0  0
  6  7  1  0  0  0  0
  7 14  2  0  0  0  0
  7  8  1  0  0  0  0
  8  9  2  0  0  0  0
  8 10  2  0  0  0  0
  8 11  1  0  0  0  0
 11 12  1  0  0  0  0
 12 13  1  0  0  0  0
 12 21  1  0  0  0  0
 13 14  1  0  0  0  0
 14 15  1  0  0  0  0
 15 16  2  0  0  0  0
 16 17  1  0  0  0  0
 17 18  1  0  0  0  0
 17 19  1  0  0  0  0
 17 20  1  0  0  0  0
 21 22  1  0  0  0  0
 22 23  1  0  0  0  0
 23 24  1  0  0  0  0
 24 25  1  0  0  0  0
M  END
> <Index>
1686

> <ID>
HT1613

> <class>
1

> <apol>
48.861275

> <ast_fraglike>
0

> <ast_fraglike_ext>
0

> <ast_violation>
2

> <ast_violation_ext>
4

> <a_acc>
4

> <a_acid>
0

> <a_aro>
6

> <a_base>
0

> <a_count>
43

> <a_don>
3

> <a_donacc>
7

> <a_heavy>
25

> <a_hyd>
15

> <a_IC>
90.655243

> <a_ICM>
2.1082616

> <a_nB>
0

> <a_nBr>
0

> <a_nC>
13

> <a_nCl>
0

> <a_nF>
3

> <a_nH>
18

> <a_nI>
0

> <a_nN>
3

> <a_nO>
4

> <a_nP>
0

> <a_nS>
2

> <balabanJ>
2.194886

> <BCUT_PEOE_0>
-2.7147865

> <BCUT_PEOE_1>
-0.4056516

> <BCUT_PEOE_2>
0.4842667

> <BCUT_PEOE_3>
2.6552458

> <BCUT_SLOGP_0>
-2.7904043

> <BCUT_SLOGP_1>
-0.36492643

> <BCUT_SLOGP_2>
0.5513773

> <BCUT_SLOGP_3>
2.7467055

> <BCUT_SMR_0>
-2.4342246

> <BCUT_SMR_1>
-0.25381684

> <BCUT_SMR_2>
0.61603785

> <BCUT_SMR_3>
2.9527781

> <bpol>
36.898727

> <b_1rotN>
5

> <b_1rotR>
0.1923077

> <b_ar>
6

> <b_count>
44

> <b_double>
0

> <b_heavy>
26

> <b_max1len>
7

> <b_rotN>
6

> <b_rotR>
0.23076923

> <b_single>
38

> <b_triple>
0

> <chi0>
19.043606

> <chi0v>
14.854204

> <chi0v_C>
8.0604782

> <chi0_C>
8.6293917

> <chi1>
11.359339

> <chi1v>
10.458576

> <chi1v_C>
4.5200558

> <chi1_C>
5.2036901

> <chiral>
1

> <chiral_u>
1

> <density>
0.9558903

> <diameter>
12

> <FCharge>
0

> <GCUT_PEOE_0>
-0.88875872

> <GCUT_PEOE_1>
-0.37042594

> <GCUT_PEOE_2>
-0.0028964535

> <GCUT_PEOE_3>
2.7318769

> <GCUT_SLOGP_0>
-1.3483032

> <GCUT_SLOGP_1>
-0.35870889

> <GCUT_SLOGP_2>
0.19804871

> <GCUT_SLOGP_3>
2.760287

> <GCUT_SMR_0>
-0.53123236

> <GCUT_SMR_1>
-0.175152

> <GCUT_SMR_2>
0.12310926

> <GCUT_SMR_3>
2.9807703

> <Kier1>
21.301775

> <Kier2>
7.5526471

> <Kier3>
5.0416665

> <KierA1>
20.971233

> <KierA2>
7.4304528

> <KierA3>
4.9576044

> <KierFlex>
6.2330303

> <lip_acc>
7

> <lip_don>
4

> <lip_druglike>
1

> <lip_violation>
0

> <logP(o/w)>
2.2077601

> <logS>
-4.4066901

> <mr>
8.706501

> <mutagenic>
0

> <nmol>
1

> <opr_brigid>
11

> <opr_leadlike>
1

> <opr_nring>
2

> <opr_nrot>
5

> <opr_violation>
0

> <PC+>
0

> <PC->
0

> <PEOE_PC+>
2.2284875

> <PEOE_PC->
-2.2284875

> <PEOE_RPC+>
0.19145294

> <PEOE_RPC->
0.17195301

> <PEOE_VSA+0>
92.864792

> <PEOE_VSA+1>
17.149784

> <PEOE_VSA+2>
22.360512

> <PEOE_VSA+3>
2.2085397

> <PEOE_VSA+4>
0.0

> <PEOE_VSA+5>
0.0

> <PEOE_VSA+6>
17.414705

> <PEOE_VSA-0>
20.873917

> <PEOE_VSA-1>
53.552929

> <PEOE_VSA-2>
34.546043

> <PEOE_VSA-3>
44.769657

> <PEOE_VSA-4>
32.016521

> <PEOE_VSA-5>
0.0

> <PEOE_VSA-6>
0.13689101

> <PEOE_VSA_FHYD>
0.8533029

> <PEOE_VSA_FNEG>
0.55016011

> <PEOE_VSA_FPNEG>
0.095158204

> <PEOE_VSA_FPOL>
0.14669712

> <PEOE_VSA_FPOS>
0.44983989

> <PEOE_VSA_FPPOS>
0.051538914

> <PEOE_VSA_HYD>
288.32617

> <PEOE_VSA_NEG>
185.89597

> <PEOE_VSA_PNEG>
32.153416

> <PEOE_VSA_POL>
49.568119

> <PEOE_VSA_POS>
151.99834

> <PEOE_VSA_PPOS>
17.414705

> <petitjean>
0.5

> <petitjeanSC>
1.0

> <Q_PC+>
0

> <Q_PC->
0

> <Q_RPC+>
0

> <Q_RPC->
0

> <Q_VSA_FHYD>
1

> <Q_VSA_FNEG>
0

> <Q_VSA_FPNEG>
0

> <Q_VSA_FPOL>
0

> <Q_VSA_FPOS>
1

> <Q_VSA_FPPOS>
0

> <Q_VSA_HYD>
337.89429

> <Q_VSA_NEG>
0

> <Q_VSA_PNEG>
0

> <Q_VSA_POL>
0

> <Q_VSA_POS>
337.89429

> <Q_VSA_PPOS>
0

> <radius>
6

> <reactive>
0

> <rings>
2

> <RPC+>
0

> <RPC->
0

> <rsynth>
1.0

> <SlogP>
2.2744999

> <SlogP_VSA0>
47.69643

> <SlogP_VSA1>
114.35413

> <SlogP_VSA2>
16.834627

> <SlogP_VSA3>
0.0

> <SlogP_VSA4>
3.185575

> <SlogP_VSA5>
3.1014678

> <SlogP_VSA6>
7.7595162

> <SlogP_VSA7>
35.286369

> <SlogP_VSA8>
75.473625

> <SlogP_VSA9>
80.963104

> <SMR>
8.4808397

> <SMR_VSA0>
96.343376

> <SMR_VSA1>
44.880341

> <SMR_VSA2>
27.265982

> <SMR_VSA3>
6.7387161

> <SMR_VSA4>
52.058933

> <SMR_VSA5>
110.75999

> <SMR_VSA6>
0.0

> <SMR_VSA7>
46.607502

> <TPSA>
118.36

> <VAdjEq>
0.41335541

> <VAdjMa>
5.7004399

> <VDistEq>
3.2960896

> <VDistMa>
9.0093241

> <vdw_area>
337.89429

> <vdw_vol>
419.95404

> <vsa_acc>
64.033043

> <vsa_acid>
0

> <vsa_base>
0

> <vsa_don>
33.892902

> <vsa_hyd>
186.30812

> <vsa_other>
31.401779

> <vsa_pol>
97.925949

> <Weight>
401.42999

> <weinerPath>
1428

> <weinerPol>
42

> <zagreb>
134

$$$$
Row1686
 OpenBabel06061811532D

 10  9  0  0  1  0  0  0  0  0999 V2000
    0.0000    0.0000    0.0000 S   0  0  0  0  0  0  0  0  0  0  0  0
    0.0000    0.0000    0.0000 C   0  0  0  0  0  0  0  0  0  0  0  0
    0.0000    0.0000    0.0000 C   0  0  1  0  0  0  0  0  0  0  0  0
    0.0000    0.0000    0.0000 H   0  0  0  0  0  0  0  0  0  0  0  0
    0.0000    0.0000    0.0000 N   0  0  0  0  0  0  0  0  0  0  0  0
    0.0000    0.0000    0.0000 C   0  0  0  0  0  0  0  0  0  0  0  0
    0.0000    0.0000    0.0000 O   0  0  0  0  0  0  0  0  0  0  0  0
    0.0000    0.0000    0.0000 O   0  0  0  0  0  0  0  0  0  0  0  0
    0.0000    0.0000    0.0000 C   0  0  0  0  0  0  0  0  0  0  0  0
    0.0000    0.0000    0.0000 C   0  0  0  0  0  0  0  0  0  0  0  0
  1  2  1  0  0  0  0
  2  3  1  0  0  0  0
  2  9  1  0  0  0  0
  2 10  1  0  0  0  0
  3  4  1  0  0  0  0
  3  5  1  0  0  0  0
  3  6  1  0  0  0  0
  6  7  1  0  0  0  0
  6  8  2  0  0  0  0
M  END
> <Index>
1687

> <ID>
HT1614

> <class>
1

> <apol>
21.738724

> <ast_fraglike>
1

> <ast_fraglike_ext>
1

> <ast_violation>
0

> <ast_violation_ext>
0

> <a_acc>
3

> <a_acid>
0

> <a_aro>
0

> <a_base>
0

> <a_count>
20

> <a_don>
3

> <a_donacc>
6

> <a_heavy>
9

> <a_hyd>
4

> <a_IC>
34.775173

> <a_ICM>
1.7387587

> <a_nB>
0

> <a_nBr>
0

> <a_nC>
5

> <a_nCl>
0

> <a_nF>
0

> <a_nH>
11

> <a_nI>
0

> <a_nN>
1

> <a_nO>
2

> <a_nP>
0

> <a_nS>
1

> <balabanJ>
3.9045081

> <BCUT_PEOE_0>
-2.624413

> <BCUT_PEOE_1>
-0.31776142

> <BCUT_PEOE_2>
0.3258521

> <BCUT_PEOE_3>
2.637022

> <BCUT_SLOGP_0>
-2.7978075

> <BCUT_SLOGP_1>
-0.33773839

> <BCUT_SLOGP_2>
0.31711423

> <BCUT_SLOGP_3>
2.6123507

> <BCUT_SMR_0>
-2.3607152

> <BCUT_SMR_1>
-0.15747911

> <BCUT_SMR_2>
0.42630163

> <BCUT_SMR_3>
2.9084935

> <bpol>
14.603277

> <b_1rotN>
2

> <b_1rotR>
0.25

> <b_ar>
0

> <b_count>
19

> <b_double>
1

> <b_heavy>
8

> <b_max1len>
5

> <b_rotN>
2

> <b_rotR>
0.25

> <b_single>
18

> <b_triple>
0

> <chi0>
7.6547008

> <chi0v>
6.3518033

> <chi0v_C>
3.5773504

> <chi0_C>
3.6547005

> <chi1>
3.8540592

> <chi1v>
3.0092349

> <chi1v_C>
1.5773503

> <chi1_C>
1.6220084

> <chiral>
1

> <chiral_u>
0

> <density>
0.82105052

> <diameter>
4

> <FCharge>
0

> <GCUT_PEOE_0>
-0.80810642

> <GCUT_PEOE_1>
-0.3490631

> <GCUT_PEOE_2>
0.032042854

> <GCUT_PEOE_3>
2.2343442

> <GCUT_SLOGP_0>
-1.3637375

> <GCUT_SLOGP_1>
-0.39332286

> <GCUT_SLOGP_2>
0.044537317

> <GCUT_SLOGP_3>
2.2222073

> <GCUT_SMR_0>
-0.50722432

> <GCUT_SMR_1>
-0.11677657

> <GCUT_SMR_2>
0.1041016

> <GCUT_SMR_3>
2.4898484

> <Kier1>
9.0

> <Kier2>
2.7222223

> <Kier3>
2.8800001

> <KierA1>
9.6657495

> <KierA2>
2.9519999

> <KierA3>
3.1520798

> <KierFlex>
3.1703658

> <lip_acc>
3

> <lip_don>
3

> <lip_druglike>
1

> <lip_violation>
0

> <logP(o/w)>
-1.73473

> <logS>
-0.92062002

> <mr>
3.7622645

> <mutagenic>
0

> <nmol>
1

> <opr_brigid>
0

> <opr_leadlike>
1

> <opr_nring>
0

> <opr_nrot>
2

> <opr_violation>
0

> <PC+>
0

> <PC->
0

> <PEOE_PC+>
1.1796792

> <PEOE_PC->
-1.1796792

> <PEOE_RPC+>
0.23555338

> <PEOE_RPC->
0.27979016

> <PEOE_VSA+0>
25.592316

> <PEOE_VSA+1>
4.2653861

> <PEOE_VSA+2>
28.165083

> <PEOE_VSA+3>
0.0

> <PEOE_VSA+4>
10.324173

> <PEOE_VSA+5>
14.708499

> <PEOE_VSA+6>
0.0

> <PEOE_VSA-0>
37.495354

> <PEOE_VSA-1>
0.0

> <PEOE_VSA-2>
0.0

> <PEOE_VSA-3>
26.362989

> <PEOE_VSA-4>
0.0

> <PEOE_VSA-5>
13.566921

> <PEOE_VSA-6>
14.418659

> <PEOE_VSA_FHYD>
0.69686425

> <PEOE_VSA_FNEG>
0.52512437

> <PEOE_VSA_FPNEG>
0.16000961

> <PEOE_VSA_FPOL>
0.30313572

> <PEOE_VSA_FPOS>
0.47487566

> <PEOE_VSA_FPPOS>
0.14312613

> <PEOE_VSA_HYD>
121.88113

> <PEOE_VSA_NEG>
91.843925

> <PEOE_VSA_PNEG>
27.98558

> <PEOE_VSA_POL>
53.018253

> <PEOE_VSA_POS>
83.055458

> <PEOE_VSA_PPOS>
25.032671

> <petitjean>
0.5

> <petitjeanSC>
1.0

> <Q_PC+>
0

> <Q_PC->
0

> <Q_RPC+>
0

> <Q_RPC->
0

> <Q_VSA_FHYD>
1

> <Q_VSA_FNEG>
0

> <Q_VSA_FPNEG>
0

> <Q_VSA_FPOL>
0

> <Q_VSA_FPOS>
1

> <Q_VSA_FPPOS>
0

> <Q_VSA_HYD>
174.89938

> <Q_VSA_NEG>
0

> <Q_VSA_PNEG>
0

> <Q_VSA_POL>
0

> <Q_VSA_POS>
174.89938

> <Q_VSA_PPOS>
0

> <radius>
2

> <reactive>
1

> <rings>
0

> <RPC+>
0

> <RPC->
0

> <rsynth>
1.0

> <SlogP>
0.1067

> <SlogP_VSA0>
32.897186

> <SlogP_VSA1>
7.7454643

> <SlogP_VSA2>
27.844185

> <SlogP_VSA3>
25.385227

> <SlogP_VSA4>
0.0

> <SlogP_VSA5>
0.0

> <SlogP_VSA6>
0.0

> <SlogP_VSA7>
0.0

> <SlogP_VSA8>
46.107109

> <SlogP_VSA9>
66.652031

> <SMR>
3.8677199

> <SMR_VSA0>
23.862217

> <SMR_VSA1>
0.0

> <SMR_VSA2>
25.385227

> <SMR_VSA3>
3.9819686

> <SMR_VSA4>
32.897186

> <SMR_VSA5>
0.0

> <SMR_VSA6>
7.7454643

> <SMR_VSA7>
112.75914

> <TPSA>
102.12

> <VAdjEq>
0.71696228

> <VAdjMa>
4.0

> <VDistEq>
1.9546859

> <VDistMa>
6.0361614

> <vdw_area>
174.89938

> <vdw_vol>
181.73547

> <vsa_acc>
0.0

> <vsa_acid>
0

> <vsa_base>
0

> <vsa_don>
0.0

> <vsa_hyd>
65.516449

> <vsa_other>
46.09301

> <vsa_pol>
44.876331

> <Weight>
149.214

> <weinerPath>
86

> <weinerPol>
10

> <zagreb>
40

$$$$
Row1687
 OpenBabel06061811532D

 27 29  0  0  1  0  0  0  0  0999 V2000
    0.0000    0.0000    0.0000 S   0  0  0  0  0  0  0  0  0  0  0  0
    0.0000    0.0000    0.0000 C   0  0  1  0  0  0  0  0  0  0  0  0
    0.0000    0.0000    0.0000 H   0  0  0  0  0  0  0  0  0  0  0  0
    0.0000    0.0000    0.0000 N   0  0  0  0  0  0  0  0  0  0  0  0
    0.0000    0.0000    0.0000 C   0  0  1  0  0  0  0  0  0  0  0  0
    0.0000    0.0000    0.0000 H   0  0  0  0  0  0  0  0  0  0  0  0
    0.0000    0.0000    0.0000 C   0  0  0  0  0  0  0  0  0  0  0  0
    0.0000    0.0000    0.0000 O   0  0  0  0  0  0  0  0  0  0  0  0
    0.0000    0.0000    0.0000 O   0  0  0  0  0  0  0  0  0  0  0  0
    0.0000    0.0000    0.0000 C   0  0  0  0  0  0  0  0  0  0  0  0
    0.0000    0.0000    0.0000 C   0  0  0  0  0  0  0  0  0  0  0  0
    0.0000    0.0000    0.0000 C   0  0  0  0  0  0  0  0  0  0  0  0
    0.0000    0.0000    0.0000 C   0  0  0  0  0  0  0  0  0  0  0  0
    0.0000    0.0000    0.0000 O   0  0  0  0  0  0  0  0  0  0  0  0
    0.0000    0.0000    0.0000 C   0  0  1  0  0  0  0  0  0  0  0  0
    0.0000    0.0000    0.0000 H   0  0  0  0  0  0  0  0  0  0  0  0
    0.0000    0.0000    0.0000 N   0  0  0  0  0  0  0  0  0  0  0  0
    0.0000    0.0000    0.0000 C   0  0  0  0  0  0  0  0  0  0  0  0
    0.0000    0.0000    0.0000 O   0  0  0  0  0  0  0  0  0  0  0  0
    0.0000    0.0000    0.0000 C   0  0  0  0  0  0  0  0  0  0  0  0
    0.0000    0.0000    0.0000 O   0  0  0  0  0  0  0  0  0  0  0  0
    0.0000    0.0000    0.0000 C   0  0  0  0  0  0  0  0  0  0  0  0
    0.0000    0.0000    0.0000 C   0  0  0  0  0  0  0  0  0  0  0  0
    0.0000    0.0000    0.0000 C   0  0  0  0  0  0  0  0  0  0  0  0
    0.0000    0.0000    0.0000 C   0  0  0  0  0  0  0  0  0  0  0  0
    0.0000    0.0000    0.0000 C   0  0  0  0  0  0  0  0  0  0  0  0
    0.0000    0.0000    0.0000 C   0  0  0  0  0  0  0  0  0  0  0  0
  1 10  1  0  0  0  0
  1  2  1  0  0  0  0
  2  3  1  0  0  0  0
  2 15  1  0  0  0  0
  2  4  1  0  0  0  0
  4  5  1  0  0  0  0
  4 13  1  0  0  0  0
  5  6  1  0  0  0  0
  5  7  1  0  0  0  0
  5 10  1  0  0  0  0
  7  8  1  0  0  0  0
  7  9  2  0  0  0  0
 10 11  1  0  0  0  0
 10 12  1  0  0  0  0
 13 14  2  0  0  0  0
 13 15  1  0  0  0  0
 15 16  1  0  0  0  0
 15 17  1  0  0  0  0
 17 18  1  0  0  0  0
 18 19  2  0  0  0  0
 18 20  1  0  0  0  0
 20 21  1  0  0  0  0
 21 22  1  0  0  0  0
 22 27  1  0  0  0  0
 22 23  2  0  0  0  0
 23 24  1  0  0  0  0
 24 25  2  0  0  0  0
 25 26  1  0  0  0  0
 26 27  2  0  0  0  0
M  END
> <Index>
1688

> <ID>
HT1615

> <class>
1

> <apol>
49.272274

> <ast_fraglike>
0

> <ast_fraglike_ext>
0

> <ast_violation>
2

> <ast_violation_ext>
4

> <a_acc>
5

> <a_acid>
0

> <a_aro>
6

> <a_base>
0

> <a_count>
42

> <a_don>
3

> <a_donacc>
8

> <a_heavy>
24

> <a_hyd>
14

> <a_IC>
73.809044

> <a_ICM>
1.7573581

> <a_nB>
0

> <a_nBr>
0

> <a_nC>
16

> <a_nCl>
0

> <a_nF>
0

> <a_nH>
18

> <a_nI>
0

> <a_nN>
2

> <a_nO>
5

> <a_nP>
0

> <a_nS>
1

> <balabanJ>
1.499467

> <BCUT_PEOE_0>
-2.6438482

> <BCUT_PEOE_1>
-0.56516862

> <BCUT_PEOE_2>
0.55705512

> <BCUT_PEOE_3>
2.8500392

> <BCUT_SLOGP_0>
-2.9030209

> <BCUT_SLOGP_1>
-0.52633989

> <BCUT_SLOGP_2>
0.5705595

> <BCUT_SLOGP_3>
2.7542188

> <BCUT_SMR_0>
-2.3903692

> <BCUT_SMR_1>
-0.35679653

> <BCUT_SMR_2>
0.77620828

> <BCUT_SMR_3>
3.1308334

> <bpol>
29.387726

> <b_1rotN>
5

> <b_1rotR>
0.1923077

> <b_ar>
6

> <b_count>
44

> <b_double>
3

> <b_heavy>
26

> <b_max1len>
4

> <b_rotN>
6

> <b_rotR>
0.23076923

> <b_single>
35

> <b_triple>
0

> <chi0>
17.482763

> <chi0v>
14.078074

> <chi0v_C>
9.8259087

> <chi0_C>
10.784093

> <chi1>
11.309367

> <chi1v>
8.3905334

> <chi1v_C>
4.4635959

> <chi1_C>
5.5134201

> <chiral>
3

> <chiral_u>
0

> <density>
0.82511395

> <diameter>
13

> <FCharge>
0

> <GCUT_PEOE_0>
-0.83746415

> <GCUT_PEOE_1>
-0.40264198

> <GCUT_PEOE_2>
0.068377458

> <GCUT_PEOE_3>
2.6686285

> <GCUT_SLOGP_0>
-1.1654931

> <GCUT_SLOGP_1>
-0.40922949

> <GCUT_SLOGP_2>
0.11747658

> <GCUT_SLOGP_3>
2.6129377

> <GCUT_SMR_0>
-0.53665566

> <GCUT_SMR_1>
-0.2160821

> <GCUT_SMR_2>
0.19288003

> <GCUT_SMR_3>
2.9310961

> <Kier1>
18.781065

> <Kier2>
7.3188691

> <Kier3>
3.7588758

> <KierA1>
15.704977

> <KierA2>
6.0697222

> <KierA3>
3.0988173

> <KierFlex>
3.9718685

> <lip_acc>
7

> <lip_don>
2

> <lip_druglike>
1

> <lip_violation>
0

> <logP(o/w)>
1.321

> <logS>
-3.4949601

> <mr>
8.8970613

> <mutagenic>
0

> <nmol>
1

> <opr_brigid>
14

> <opr_leadlike>
1

> <opr_nring>
3

> <opr_nrot>
5

> <opr_violation>
0

> <PC+>
0

> <PC->
0

> <PEOE_PC+>
2.5867052

> <PEOE_PC->
-2.5867052

> <PEOE_RPC+>
0.10970578

> <PEOE_RPC->
0.13154374

> <PEOE_VSA+0>
25.592316

> <PEOE_VSA+1>
51.112381

> <PEOE_VSA+2>
26.365236

> <PEOE_VSA+3>
8.6190128

> <PEOE_VSA+4>
23.273705

> <PEOE_VSA+5>
27.65803

> <PEOE_VSA+6>
0.0

> <PEOE_VSA-0>
62.005161

> <PEOE_VSA-1>
36.764713

> <PEOE_VSA-2>
19.760618

> <PEOE_VSA-3>
0.0

> <PEOE_VSA-4>
0.0

> <PEOE_VSA-5>
40.700764

> <PEOE_VSA-6>
10.408187

> <PEOE_VSA_FHYD>
0.69288915

> <PEOE_VSA_FNEG>
0.51056218

> <PEOE_VSA_FPNEG>
0.15382209

> <PEOE_VSA_FPOL>
0.30711085

> <PEOE_VSA_FPOS>
0.48943785

> <PEOE_VSA_FPPOS>
0.15328874

> <PEOE_VSA_HYD>
230.21944

> <PEOE_VSA_NEG>
169.63945

> <PEOE_VSA_PNEG>
51.108952

> <PEOE_VSA_POL>
102.04069

> <PEOE_VSA_POS>
162.62068

> <PEOE_VSA_PPOS>
50.931732

> <petitjean>
0.46153846

> <petitjeanSC>
0.85714287

> <Q_PC+>
0

> <Q_PC->
0

> <Q_RPC+>
0

> <Q_RPC->
0

> <Q_VSA_FHYD>
1

> <Q_VSA_FNEG>
0

> <Q_VSA_FPNEG>
0

> <Q_VSA_FPOL>
0

> <Q_VSA_FPOS>
1

> <Q_VSA_FPPOS>
0

> <Q_VSA_HYD>
332.26013

> <Q_VSA_NEG>
0

> <Q_VSA_PNEG>
0

> <Q_VSA_POL>
0

> <Q_VSA_POS>
332.26013

> <Q_VSA_PPOS>
0

> <radius>
7

> <reactive>
0

> <rings>
3

> <RPC+>
0

> <RPC->
0

> <rsynth>
1.0

> <SlogP>
0.69709998

> <SlogP_VSA0>
29.010639

> <SlogP_VSA1>
21.387344

> <SlogP_VSA2>
81.897713

> <SlogP_VSA3>
46.311485

> <SlogP_VSA4>
0.0

> <SlogP_VSA5>
0.0

> <SlogP_VSA6>
0.0

> <SlogP_VSA7>
88.215919

> <SlogP_VSA8>
0.0

> <SlogP_VSA9>
104.115

> <SMR>
8.7596502

> <SMR_VSA0>
71.586647

> <SMR_VSA1>
14.124202

> <SMR_VSA2>
43.395977

> <SMR_VSA3>
15.554493

> <SMR_VSA4>
0.0

> <SMR_VSA5>
88.215919

> <SMR_VSA6>
39.189289

> <SMR_VSA7>
98.871574

> <TPSA>
95.940002

> <VAdjEq>
0.43739632

> <VAdjMa>
5.7004399

> <VDistEq>
3.4974284

> <VDistMa>
8.8472347

> <vdw_area>
332.26013

> <vdw_vol>
424.66254

> <vsa_acc>
29.637598

> <vsa_acid>
0

> <vsa_base>
0

> <vsa_don>
5.6825762

> <vsa_hyd>
210.2117

> <vsa_other>
40.607563

> <vsa_pol>
62.454014

> <Weight>
350.39499

> <weinerPath>
1461

> <weinerPol>
36

> <zagreb>
130

$$$$
Row1688
 OpenBabel06061811532D

 31 32  0  0  1  0  0  0  0  0999 V2000
    0.0000    0.0000    0.0000 O   0  0  0  0  0  0  0  0  0  0  0  0
    0.0000    0.0000    0.0000 C   0  0  0  0  0  0  0  0  0  0  0  0
    0.0000    0.0000    0.0000 C   0  0  0  0  0  0  0  0  0  0  0  0
    0.0000    0.0000    0.0000 C   0  0  0  0  0  0  0  0  0  0  0  0
    0.0000    0.0000    0.0000 O   0  0  0  0  0  0  0  0  0  0  0  0
    0.0000    0.0000    0.0000 C   0  0  1  0  0  0  0  0  0  0  0  0
    0.0000    0.0000    0.0000 H   0  0  0  0  0  0  0  0  0  0  0  0
    0.0000    0.0000    0.0000 N   0  0  0  0  0  0  0  0  0  0  0  0
    0.0000    0.0000    0.0000 C   0  0  2  0  0  0  0  0  0  0  0  0
    0.0000    0.0000    0.0000 H   0  0  0  0  0  0  0  0  0  0  0  0
    0.0000    0.0000    0.0000 C   0  0  0  0  0  0  0  0  0  0  0  0
    0.0000    0.0000    0.0000 O   0  0  0  0  0  0  0  0  0  0  0  0
    0.0000    0.0000    0.0000 N   0  0  0  0  0  0  0  0  0  0  0  0
    0.0000    0.0000    0.0000 C   0  0  2  0  0  0  0  0  0  0  0  0
    0.0000    0.0000    0.0000 H   0  0  0  0  0  0  0  0  0  0  0  0
    0.0000    0.0000    0.0000 C   0  0  2  0  0  0  0  0  0  0  0  0
    0.0000    0.0000    0.0000 H   0  0  0  0  0  0  0  0  0  0  0  0
    0.0000    0.0000    0.0000 C   0  0  0  0  0  0  0  0  0  0  0  0
    0.0000    0.0000    0.0000 C   0  0  1  0  0  0  0  0  0  0  0  0
    0.0000    0.0000    0.0000 H   0  0  0  0  0  0  0  0  0  0  0  0
    0.0000    0.0000    0.0000 C   0  0  0  0  0  0  0  0  0  0  0  0
    0.0000    0.0000    0.0000 O   0  0  0  0  0  0  0  0  0  0  0  0
    0.0000    0.0000    0.0000 O   0  0  0  0  0  0  0  0  0  0  0  0
    0.0000    0.0000    0.0000 C   0  0  0  0  0  0  0  0  0  0  0  0
    0.0000    0.0000    0.0000 C   0  0  0  0  0  0  0  0  0  0  0  0
    0.0000    0.0000    0.0000 C   0  0  0  0  0  0  0  0  0  0  0  0
    0.0000    0.0000    0.0000 C   0  0  0  0  0  0  0  0  0  0  0  0
    0.0000    0.0000    0.0000 C   0  0  0  0  0  0  0  0  0  0  0  0
    0.0000    0.0000    0.0000 C   0  0  0  0  0  0  0  0  0  0  0  0
    0.0000    0.0000    0.0000 C   0  0  0  0  0  0  0  0  0  0  0  0
    0.0000    0.0000    0.0000 C   0  0  0  0  0  0  0  0  0  0  0  0
  1  2  1  0  0  0  0
  1  4  1  0  0  0  0
  2  3  1  0  0  0  0
  4  5  2  0  0  0  0
  4  6  1  0  0  0  0
  6  7  1  0  0  0  0
  6  8  1  0  0  0  0
  6 29  1  0  0  0  0
  8  9  1  0  0  0  0
  9 10  1  0  0  0  0
  9 11  1  0  0  0  0
  9 28  1  0  0  0  0
 11 12  2  0  0  0  0
 11 13  1  0  0  0  0
 13 19  1  0  0  0  0
 13 14  1  0  0  0  0
 14 15  1  0  0  0  0
 14 27  1  0  0  0  0
 14 16  1  0  0  0  0
 16 17  1  0  0  0  0
 16 18  1  0  0  0  0
 16 24  1  0  0  0  0
 18 19  1  0  0  0  0
 19 20  1  0  0  0  0
 19 21  1  0  0  0  0
 21 22  1  0  0  0  0
 21 23  2  0  0  0  0
 24 25  1  0  0  0  0
 25 26  1  0  0  0  0
 26 27  1  0  0  0  0
 29 30  1  0  0  0  0
 30 31  1  0  0  0  0
M  END
> <Index>
1689

> <ID>
HT1637

> <class>
1

> <apol>
60.987377

> <ast_fraglike>
0

> <ast_fraglike_ext>
0

> <ast_violation>
2

> <ast_violation_ext>
3

> <a_acc>
5

> <a_acid>
0

> <a_aro>
0

> <a_base>
0

> <a_count>
58

> <a_don>
3

> <a_donacc>
8

> <a_heavy>
26

> <a_hyd>
16

> <a_IC>
85.442635

> <a_ICM>
1.4731488

> <a_nB>
0

> <a_nBr>
0

> <a_nC>
19

> <a_nCl>
0

> <a_nF>
0

> <a_nH>
32

> <a_nI>
0

> <a_nN>
2

> <a_nO>
5

> <a_nP>
0

> <a_nS>
0

> <balabanJ>
2.0671573

> <BCUT_PEOE_0>
-2.7866743

> <BCUT_PEOE_1>
-0.48160702

> <BCUT_PEOE_2>
0.47223666

> <BCUT_PEOE_3>
2.8589725

> <BCUT_SLOGP_0>
-2.8299878

> <BCUT_SLOGP_1>
-0.44725421

> <BCUT_SLOGP_2>
0.47546515

> <BCUT_SLOGP_3>
2.89217

> <BCUT_SMR_0>
-2.5370631

> <BCUT_SMR_1>
-0.31283572

> <BCUT_SMR_2>
0.56780517

> <BCUT_SMR_3>
3.1095545

> <bpol>
42.412624

> <b_1rotN>
9

> <b_1rotR>
0.33333334

> <b_ar>
0

> <b_count>
59

> <b_double>
3

> <b_heavy>
27

> <b_max1len>
8

> <b_rotN>
10

> <b_rotR>
0.37037036

> <b_single>
56

> <b_triple>
0

> <chi0>
19.26722

> <chi0v>
16.071026

> <chi0v_C>
13.043606

> <chi0_C>
13.275657

> <chi1>
12.400285

> <chi1v>
9.8782978

> <chi1v_C>
7.2321639

> <chi1_C>
7.3661385

> <chiral>
5

> <chiral_u>
0

> <density>
0.72653186

> <diameter>
12

> <FCharge>
0

> <GCUT_PEOE_0>
-0.83484411

> <GCUT_PEOE_1>
-0.38497248

> <GCUT_PEOE_2>
0.041548297

> <GCUT_PEOE_3>
2.9843237

> <GCUT_SLOGP_0>
-1.1549829

> <GCUT_SLOGP_1>
-0.32282159

> <GCUT_SLOGP_2>
0.048683446

> <GCUT_SLOGP_3>
2.969347

> <GCUT_SMR_0>
-0.53075629

> <GCUT_SMR_1>
-0.22234376

> <GCUT_SMR_2>
0.12415292

> <GCUT_SMR_3>
3.2071698

> <Kier1>
22.29081

> <Kier2>
10.518627

> <Kier3>
5.5177011

> <KierA1>
19.583042

> <KierA2>
9.1906738

> <KierA3>
4.8023586

> <KierFlex>
6.9223595

> <lip_acc>
7

> <lip_don>
2

> <lip_druglike>
1

> <lip_violation>
0

> <logP(o/w)>
2.8529999

> <logS>
-3.223

> <mr>
9.8800392

> <mutagenic>
0

> <nmol>
1

> <opr_brigid>
10

> <opr_leadlike>
1

> <opr_nring>
2

> <opr_nrot>
9

> <opr_violation>
0

> <PC+>
0

> <PC->
0

> <PEOE_PC+>
2.5117919

> <PEOE_PC->
-2.5117919

> <PEOE_RPC+>
0.11243308

> <PEOE_RPC->
0.13126722

> <PEOE_VSA+0>
105.51523

> <PEOE_VSA+1>
46.835529

> <PEOE_VSA+2>
11.764974

> <PEOE_VSA+3>
0.0

> <PEOE_VSA+4>
23.273705

> <PEOE_VSA+5>
29.416998

> <PEOE_VSA+6>
0.0

> <PEOE_VSA-0>
72.300606

> <PEOE_VSA-1>
44.851616

> <PEOE_VSA-2>
0.0

> <PEOE_VSA-3>
0.0

> <PEOE_VSA-4>
0.0

> <PEOE_VSA-5>
40.837654

> <PEOE_VSA-6>
10.271297

> <PEOE_VSA_FHYD>
0.73043787

> <PEOE_VSA_FNEG>
0.43696529

> <PEOE_VSA_FPNEG>
0.13272721

> <PEOE_VSA_FPOL>
0.26956216

> <PEOE_VSA_FPOS>
0.56303471

> <PEOE_VSA_FPPOS>
0.13683493

> <PEOE_VSA_HYD>
281.26794

> <PEOE_VSA_NEG>
168.26117

> <PEOE_VSA_PNEG>
51.108952

> <PEOE_VSA_POL>
103.79965

> <PEOE_VSA_POS>
216.80643

> <PEOE_VSA_PPOS>
52.690701

> <petitjean>
0.5

> <petitjeanSC>
1.0

> <Q_PC+>
0

> <Q_PC->
0

> <Q_RPC+>
0

> <Q_RPC->
0

> <Q_VSA_FHYD>
1

> <Q_VSA_FNEG>
0

> <Q_VSA_FPNEG>
0

> <Q_VSA_FPOL>
0

> <Q_VSA_FPOS>
1

> <Q_VSA_FPPOS>
0

> <Q_VSA_HYD>
385.0676

> <Q_VSA_NEG>
0

> <Q_VSA_PNEG>
0

> <Q_VSA_POL>
0

> <Q_VSA_POS>
385.0676

> <Q_VSA_PPOS>
0

> <radius>
6

> <reactive>
0

> <rings>
2

> <RPC+>
0

> <RPC->
0

> <rsynth>
0.57692307

> <SlogP>
1.9406

> <SlogP_VSA0>
18.01075

> <SlogP_VSA1>
23.874025

> <SlogP_VSA2>
98.514412

> <SlogP_VSA3>
46.311485

> <SlogP_VSA4>
4.4107962

> <SlogP_VSA5>
0.0

> <SlogP_VSA6>
0.0

> <SlogP_VSA7>
0.0

> <SlogP_VSA8>
132.07884

> <SlogP_VSA9>
99.978043

> <SMR>
9.6559496

> <SMR_VSA0>
82.58654

> <SMR_VSA1>
3.1243138

> <SMR_VSA2>
47.806774

> <SMR_VSA3>
15.927875

> <SMR_VSA4>
0.0

> <SMR_VSA5>
132.07884

> <SMR_VSA6>
41.675972

> <SMR_VSA7>
99.978043

> <TPSA>
95.940002

> <VAdjEq>
0.40176207

> <VAdjMa>
5.7548876

> <VDistEq>
3.3564832

> <VDistMa>
9.1329441

> <vdw_area>
385.0676

> <vdw_vol>
507.16837

> <vsa_acc>
27.133842

> <vsa_acid>
0

> <vsa_base>
0

> <vsa_don>
0.0

> <vsa_hyd>
249.95003

> <vsa_other>
44.870285

> <vsa_pol>
59.95026

> <Weight>
368.474

> <weinerPath>
1665

> <weinerPol>
41

> <zagreb>
128

$$$$
Row1689
 OpenBabel06061811532D

 20 23  0  0  1  0  0  0  0  0999 V2000
    0.0000    0.0000    0.0000 N   0  0  0  0  0  0  0  0  0  0  0  0
    0.0000    0.0000    0.0000 C   0  0  0  0  0  0  0  0  0  0  0  0
    0.0000    0.0000    0.0000 C   0  0  0  0  0  0  0  0  0  0  0  0
    0.0000    0.0000    0.0000 C   0  0  0  0  0  0  0  0  0  0  0  0
    0.0000    0.0000    0.0000 C   0  0  0  0  0  0  0  0  0  0  0  0
    0.0000    0.0000    0.0000 C   0  0  0  0  0  0  0  0  0  0  0  0
    0.0000    0.0000    0.0000 C   0  0  0  0  0  0  0  0  0  0  0  0
    0.0000    0.0000    0.0000 C   0  0  0  0  0  0  0  0  0  0  0  0
    0.0000    0.0000    0.0000 C   0  0  0  0  0  0  0  0  0  0  0  0
    0.0000    0.0000    0.0000 C   0  0  0  0  0  0  0  0  0  0  0  0
    0.0000    0.0000    0.0000 C   0  0  0  0  0  0  0  0  0  0  0  0
    0.0000    0.0000    0.0000 C   0  0  0  0  0  0  0  0  0  0  0  0
    0.0000    0.0000    0.0000 C   0  0  3  0  0  0  0  0  0  0  0  0
    0.0000    0.0000    0.0000 C   0  0  0  0  0  0  0  0  0  0  0  0
    0.0000    0.0000    0.0000 C   0  0  0  0  0  0  0  0  0  0  0  0
    0.0000    0.0000    0.0000 C   0  0  0  0  0  0  0  0  0  0  0  0
    0.0000    0.0000    0.0000 C   0  0  0  0  0  0  0  0  0  0  0  0
    0.0000    0.0000    0.0000 C   0  0  0  0  0  0  0  0  0  0  0  0
    0.0000    0.0000    0.0000 C   0  0  0  0  0  0  0  0  0  0  0  0
    0.0000    0.0000    0.0000 C   0  0  0  0  0  0  0  0  0  0  0  0
  1  6  1  0  0  0  0
  1  2  1  0  0  0  0
  1 20  1  0  0  0  0
  2  3  1  0  0  0  0
  3 13  1  0  0  0  0
  3  4  2  0  0  0  0
  4  5  1  0  0  0  0
  4  7  1  0  0  0  0
  5  6  1  0  0  0  0
  7 12  1  0  0  0  0
  7  8  2  0  0  0  0
  8  9  1  0  0  0  0
  8 13  1  0  0  0  0
  9 10  2  0  0  0  0
 10 11  1  0  0  0  0
 11 12  2  0  0  0  0
 13 14  1  0  0  0  0
 14 19  1  0  0  0  0
 14 15  2  0  0  0  0
 15 16  1  0  0  0  0
 16 17  2  0  0  0  0
 17 18  1  0  0  0  0
 18 19  2  0  0  0  0
M  END
> <Index>
1690

> <ID>
HT1647

> <class>
1

> <apol>
47.209068

> <ast_fraglike>
0

> <ast_fraglike_ext>
0

> <ast_violation>
1

> <ast_violation_ext>
1

> <a_acc>
1

> <a_acid>
0

> <a_aro>
12

> <a_base>
0

> <a_count>
39

> <a_don>
0

> <a_donacc>
1

> <a_heavy>
20

> <a_hyd>
19

> <a_IC>
44.709442

> <a_ICM>
1.1463959

> <a_nB>
0

> <a_nBr>
0

> <a_nC>
19

> <a_nCl>
0

> <a_nF>
0

> <a_nH>
19

> <a_nI>
0

> <a_nN>
1

> <a_nO>
0

> <a_nP>
0

> <a_nS>
0

> <balabanJ>
1.6021496

> <BCUT_PEOE_0>
-2.6667099

> <BCUT_PEOE_1>
-0.56242299

> <BCUT_PEOE_2>
0.61142766

> <BCUT_PEOE_3>
2.6282687

> <BCUT_SLOGP_0>
-2.7031109

> <BCUT_SLOGP_1>
-0.45180312

> <BCUT_SLOGP_2>
0.72073132

> <BCUT_SLOGP_3>
2.7051668

> <BCUT_SMR_0>
-2.3730774

> <BCUT_SMR_1>
-0.41037831

> <BCUT_SMR_2>
0.76851964

> <BCUT_SMR_3>
2.9332335

> <bpol>
22.750933

> <b_1rotN>
1

> <b_1rotR>
0.043478262

> <b_ar>
12

> <b_count>
42

> <b_double>
1

> <b_heavy>
23

> <b_max1len>
2

> <b_rotN>
1

> <b_rotR>
0.043478262

> <b_single>
29

> <b_triple>
0

> <chi0>
13.526733

> <chi0v>
11.842036

> <chi0v_C>
11.394823

> <chi0_C>
12.949383

> <chi1>
9.8433371

> <chi1v>
7.3908353

> <chi1v_C>
6.3111663

> <chi1_C>
8.4494896

> <chiral>
1

> <chiral_u>
1

> <density>
0.65496391

> <diameter>
8

> <FCharge>
0

> <GCUT_PEOE_0>
-0.8541218

> <GCUT_PEOE_1>
-0.36268654

> <GCUT_PEOE_2>
0.060039744

> <GCUT_PEOE_3>
2.7629955

> <GCUT_SLOGP_0>
-0.95211804

> <GCUT_SLOGP_1>
-0.26884615

> <GCUT_SLOGP_2>
0.14598413

> <GCUT_SLOGP_3>
2.8787165

> <GCUT_SMR_0>
-0.51154166

> <GCUT_SMR_1>
-0.18977024

> <GCUT_SMR_2>
0.17050478

> <GCUT_SMR_3>
3.0589592

> <Kier1>
13.648394

> <Kier2>
5.6528926

> <Kier3>
2.390625

> <KierA1>
10.143423

> <KierA2>
4.1300216

> <KierA3>
1.7248302

> <KierFlex>
2.0946276

> <lip_acc>
1

> <lip_don>
0

> <lip_druglike>
1

> <lip_violation>
0

> <logP(o/w)>
3.852

> <logS>
-3.6384201

> <mr>
8.2835159

> <mutagenic>
0

> <nmol>
1

> <opr_brigid>
21

> <opr_leadlike>
1

> <opr_nring>
4

> <opr_nrot>
1

> <opr_violation>
0

> <PC+>
0

> <PC->
0

> <PEOE_PC+>
1.0212299

> <PEOE_PC->
-1.0212299

> <PEOE_RPC+>
0.061064526

> <PEOE_RPC->
0.29485837

> <PEOE_VSA+0>
69.038513

> <PEOE_VSA+1>
38.388474

> <PEOE_VSA+2>
0.0

> <PEOE_VSA+3>
0.0

> <PEOE_VSA+4>
0.0

> <PEOE_VSA+5>
0.0

> <PEOE_VSA+6>
0.0

> <PEOE_VSA-0>
42.9827

> <PEOE_VSA-1>
110.29414

> <PEOE_VSA-2>
0.0

> <PEOE_VSA-3>
0.0

> <PEOE_VSA-4>
0.0

> <PEOE_VSA-5>
0.0

> <PEOE_VSA-6>
0.0

> <PEOE_VSA_FHYD>
1.0

> <PEOE_VSA_FNEG>
0.58793473

> <PEOE_VSA_FPNEG>
0.0

> <PEOE_VSA_FPOL>
0.0

> <PEOE_VSA_FPOS>
0.41206524

> <PEOE_VSA_FPPOS>
0.0

> <PEOE_VSA_HYD>
260.70383

> <PEOE_VSA_NEG>
153.27684

> <PEOE_VSA_PNEG>
0.0

> <PEOE_VSA_POL>
0.0

> <PEOE_VSA_POS>
107.42699

> <PEOE_VSA_PPOS>
0.0

> <petitjean>
0.5

> <petitjeanSC>
1.0

> <Q_PC+>
0

> <Q_PC->
0

> <Q_RPC+>
0

> <Q_RPC->
0

> <Q_VSA_FHYD>
1

> <Q_VSA_FNEG>
0

> <Q_VSA_FPNEG>
0

> <Q_VSA_FPOL>
0

> <Q_VSA_FPOS>
1

> <Q_VSA_FPPOS>
0

> <Q_VSA_HYD>
260.70383

> <Q_VSA_NEG>
0

> <Q_VSA_PNEG>
0

> <Q_VSA_POL>
0

> <Q_VSA_POS>
260.70383

> <Q_VSA_PPOS>
0

> <radius>
4

> <reactive>
0

> <rings>
4

> <RPC+>
0

> <RPC->
0

> <rsynth>
0.30000001

> <SlogP>
3.9212

> <SlogP_VSA0>
0.0

> <SlogP_VSA1>
3.1243138

> <SlogP_VSA2>
0.0

> <SlogP_VSA3>
36.879158

> <SlogP_VSA4>
9.5567245

> <SlogP_VSA5>
36.082764

> <SlogP_VSA6>
4.4107962

> <SlogP_VSA7>
161.97423

> <SlogP_VSA8>
18.868406

> <SlogP_VSA9>
0.0

> <SMR>
8.3760996

> <SMR_VSA0>
0.0

> <SMR_VSA1>
3.1243138

> <SMR_VSA2>
0.0

> <SMR_VSA3>
17.153095

> <SMR_VSA4>
3.185575

> <SMR_VSA5>
177.65706

> <SMR_VSA6>
36.879158

> <SMR_VSA7>
32.897186

> <TPSA>
3.24

> <VAdjEq>
0.51481563

> <VAdjMa>
5.523562

> <VDistEq>
2.8198359

> <VDistMa>
8.3887949

> <vdw_area>
260.70383

> <vdw_vol>
399.0571

> <vsa_acc>
0.0

> <vsa_acid>
0

> <vsa_base>
0

> <vsa_don>
0.0

> <vsa_hyd>
245.83466

> <vsa_other>
0.0

> <vsa_pol>
0.0

> <Weight>
261.36798

> <weinerPath>
715

> <weinerPol>
34

> <zagreb>
112

$$$$
Row1690
 OpenBabel06061811532D

 23 25  0  0  1  0  0  0  0  0999 V2000
    0.0000    0.0000    0.0000 O   0  0  0  0  0  0  0  0  0  0  0  0
    0.0000    0.0000    0.0000 C   0  0  0  0  0  0  0  0  0  0  0  0
    0.0000    0.0000    0.0000 N   0  0  0  0  0  0  0  0  0  0  0  0
    0.0000    0.0000    0.0000 N   0  0  0  0  0  0  0  0  0  0  0  0
    0.0000    0.0000    0.0000 C   0  0  0  0  0  0  0  0  0  0  0  0
    0.0000    0.0000    0.0000 O   0  0  0  0  0  0  0  0  0  0  0  0
    0.0000    0.0000    0.0000 C   0  0  3  0  0  0  0  0  0  0  0  0
    0.0000    0.0000    0.0000 C   0  0  0  0  0  0  0  0  0  0  0  0
    0.0000    0.0000    0.0000 C   0  0  0  0  0  0  0  0  0  0  0  0
    0.0000    0.0000    0.0000 C   0  0  0  0  0  0  0  0  0  0  0  0
    0.0000    0.0000    0.0000 C   0  0  0  0  0  0  0  0  0  0  0  0
    0.0000    0.0000    0.0000 C   0  0  0  0  0  0  0  0  0  0  0  0
    0.0000    0.0000    0.0000 C   0  0  0  0  0  0  0  0  0  0  0  0
    0.0000    0.0000    0.0000 C   0  0  0  0  0  0  0  0  0  0  0  0
    0.0000    0.0000    0.0000 C   0  0  0  0  0  0  0  0  0  0  0  0
    0.0000    0.0000    0.0000 C   0  0  0  0  0  0  0  0  0  0  0  0
    0.0000    0.0000    0.0000 C   0  0  0  0  0  0  0  0  0  0  0  0
    0.0000    0.0000    0.0000 C   0  0  0  0  0  0  0  0  0  0  0  0
    0.0000    0.0000    0.0000 C   0  0  0  0  0  0  0  0  0  0  0  0
    0.0000    0.0000    0.0000 C   0  0  0  0  0  0  0  0  0  0  0  0
    0.0000    0.0000    0.0000 C   0  0  0  0  0  0  0  0  0  0  0  0
    0.0000    0.0000    0.0000 C   0  0  0  0  0  0  0  0  0  0  0  0
    0.0000    0.0000    0.0000 C   0  0  0  0  0  0  0  0  0  0  0  0
  1  2  2  0  0  0  0
  2  7  1  0  0  0  0
  2  3  1  0  0  0  0
  3  4  1  0  0  0  0
  3 18  1  0  0  0  0
  4  5  1  0  0  0  0
  4 12  1  0  0  0  0
  5  6  2  0  0  0  0
  5  7  1  0  0  0  0
  7  8  1  0  0  0  0
  8  9  1  0  0  0  0
  9 10  1  0  0  0  0
 10 11  1  0  0  0  0
 12 17  1  0  0  0  0
 12 13  2  0  0  0  0
 13 14  1  0  0  0  0
 14 15  2  0  0  0  0
 15 16  1  0  0  0  0
 16 17  2  0  0  0  0
 18 23  1  0  0  0  0
 18 19  2  0  0  0  0
 19 20  1  0  0  0  0
 20 21  2  0  0  0  0
 21 22  1  0  0  0  0
 22 23  2  0  0  0  0
M  END
> <Index>
1691

> <ID>
HT1660

> <class>
1

> <apol>
50.579861

> <ast_fraglike>
0

> <ast_fraglike_ext>
0

> <ast_violation>
2

> <ast_violation_ext>
3

> <a_acc>
2

> <a_acid>
0

> <a_aro>
12

> <a_base>
0

> <a_count>
43

> <a_don>
0

> <a_donacc>
2

> <a_heavy>
23

> <a_hyd>
17

> <a_IC>
62.180199

> <a_ICM>
1.4460511

> <a_nB>
0

> <a_nBr>
0

> <a_nC>
19

> <a_nCl>
0

> <a_nF>
0

> <a_nH>
20

> <a_nI>
0

> <a_nN>
2

> <a_nO>
2

> <a_nP>
0

> <a_nS>
0

> <balabanJ>
1.7853974

> <BCUT_PEOE_0>
-2.6090014

> <BCUT_PEOE_1>
-0.59685707

> <BCUT_PEOE_2>
0.70141345

> <BCUT_PEOE_3>
2.6794879

> <BCUT_SLOGP_0>
-2.5323577

> <BCUT_SLOGP_1>
-0.53807992

> <BCUT_SLOGP_2>
0.80591482

> <BCUT_SLOGP_3>
2.723053

> <BCUT_SMR_0>
-2.3750508

> <BCUT_SMR_1>
-0.41891032

> <BCUT_SMR_2>
0.85431087

> <BCUT_SMR_3>
2.9333394

> <bpol>
26.420139

> <b_1rotN>
5

> <b_1rotR>
0.2

> <b_ar>
12

> <b_count>
45

> <b_double>
2

> <b_heavy>
25

> <b_max1len>
6

> <b_rotN>
5

> <b_rotR>
0.2

> <b_single>
31

> <b_triple>
0

> <chi0>
16.233841

> <chi0v>
13.183097

> <chi0v_C>
11.472174

> <chi0_C>
13.07914

> <chi1>
11.236382

> <chi1v>
8.0167484

> <chi1v_C>
6.5140724

> <chi1_C>
8.4150152

> <chiral>
0

> <chiral_u>
0

> <density>
0.70357889

> <diameter>
10

> <FCharge>
0

> <GCUT_PEOE_0>
-0.83111167

> <GCUT_PEOE_1>
-0.38441512

> <GCUT_PEOE_2>
0.081635259

> <GCUT_PEOE_3>
2.6732504

> <GCUT_SLOGP_0>
-1.067979

> <GCUT_SLOGP_1>
-0.30171204

> <GCUT_SLOGP_2>
0.16445385

> <GCUT_SLOGP_3>
2.725378

> <GCUT_SMR_0>
-0.53018636

> <GCUT_SMR_1>
-0.21605732

> <GCUT_SMR_2>
0.19305076

> <GCUT_SMR_3>
2.9499304

> <Kier1>
17.811199

> <Kier2>
8.3927336

> <Kier3>
3.8194444

> <KierA1>
12.4722

> <KierA2>
5.7732482

> <KierA3>
2.5919597

> <KierFlex>
3.1306567

> <lip_acc>
4

> <lip_don>
0

> <lip_druglike>
1

> <lip_violation>
0

> <logP(o/w)>
4.0760002

> <logS>
-5.2615299

> <mr>
9.1251526

> <mutagenic>
0

> <nmol>
1

> <opr_brigid>
17

> <opr_leadlike>
1

> <opr_nring>
3

> <opr_nrot>
5

> <opr_violation>
0

> <PC+>
0

> <PC->
0

> <PEOE_PC+>
1.6790174

> <PEOE_PC->
-1.6790174

> <PEOE_RPC+>
0.15425462

> <PEOE_RPC->
0.16084176

> <PEOE_VSA+0>
42.653858

> <PEOE_VSA+1>
56.052963

> <PEOE_VSA+2>
0.0

> <PEOE_VSA+3>
0.0

> <PEOE_VSA+4>
0.0

> <PEOE_VSA+5>
25.899061

> <PEOE_VSA+6>
0.0

> <PEOE_VSA-0>
57.720928

> <PEOE_VSA-1>
109.67973

> <PEOE_VSA-2>
0.0

> <PEOE_VSA-3>
0.0

> <PEOE_VSA-4>
0.0

> <PEOE_VSA-5>
27.133842

> <PEOE_VSA-6>
0.0

> <PEOE_VSA_FHYD>
0.83382577

> <PEOE_VSA_FNEG>
0.60955775

> <PEOE_VSA_FPNEG>
0.085021652

> <PEOE_VSA_FPOL>
0.16617422

> <PEOE_VSA_FPOS>
0.39044222

> <PEOE_VSA_FPPOS>
0.081152566

> <PEOE_VSA_HYD>
266.10748

> <PEOE_VSA_NEG>
194.5345

> <PEOE_VSA_PNEG>
27.133842

> <PEOE_VSA_POL>
53.032902

> <PEOE_VSA_POS>
124.60588

> <PEOE_VSA_PPOS>
25.899061

> <petitjean>
0.40000001

> <petitjeanSC>
0.66666669

> <Q_PC+>
0

> <Q_PC->
0

> <Q_RPC+>
0

> <Q_RPC->
0

> <Q_VSA_FHYD>
1

> <Q_VSA_FNEG>
0

> <Q_VSA_FPNEG>
0

> <Q_VSA_FPOL>
0

> <Q_VSA_FPOS>
1

> <Q_VSA_FPPOS>
0

> <Q_VSA_HYD>
319.14038

> <Q_VSA_NEG>
0

> <Q_VSA_PNEG>
0

> <Q_VSA_POL>
0

> <Q_VSA_POS>
319.14038

> <Q_VSA_PPOS>
0

> <radius>
6

> <reactive>
0

> <rings>
3

> <RPC+>
0

> <RPC->
0

> <rsynth>
1.0

> <SlogP>
3.7878001

> <SlogP_VSA0>
6.0035834

> <SlogP_VSA1>
10.517568

> <SlogP_VSA2>
47.724434

> <SlogP_VSA3>
0.0

> <SlogP_VSA4>
4.4107962

> <SlogP_VSA5>
0.0

> <SlogP_VSA6>
0.0

> <SlogP_VSA7>
176.43184

> <SlogP_VSA8>
56.605217

> <SlogP_VSA9>
38.839512

> <SMR>
9.0871

> <SMR_VSA0>
47.724434

> <SMR_VSA1>
0.0

> <SMR_VSA2>
10.41438

> <SMR_VSA3>
0.0

> <SMR_VSA4>
5.513495

> <SMR_VSA5>
233.03706

> <SMR_VSA6>
10.517568

> <SMR_VSA7>
33.326015

> <TPSA>
40.619999

> <VAdjEq>
0.45137304

> <VAdjMa>
5.643856

> <VDistEq>
3.0811992

> <VDistMa>
8.7939205

> <vdw_area>
319.14038

> <vdw_vol>
438.30338

> <vsa_acc>
27.133842

> <vsa_acid>
0

> <vsa_base>
0

> <vsa_don>
0.0

> <vsa_hyd>
250.52652

> <vsa_other>
25.899061

> <vsa_pol>
27.133842

> <Weight>
308.38098

> <weinerPath>
1109

> <weinerPol>
37

> <zagreb>
118

$$$$
Row1691
 OpenBabel06061811532D

 25 27  0  0  1  0  0  0  0  0999 V2000
    0.0000    0.0000    0.0000 S   0  0  0  0  0  0  0  0  0  0  0  0
    0.0000    0.0000    0.0000 C   0  0  3  0  0  0  0  0  0  0  0  0
    0.0000    0.0000    0.0000 C   0  0  0  0  0  0  0  0  0  0  0  0
    0.0000    0.0000    0.0000 C   0  0  0  0  0  0  0  0  0  0  0  0
    0.0000    0.0000    0.0000 C   0  0  0  0  0  0  0  0  0  0  0  0
    0.0000    0.0000    0.0000 C   0  0  0  0  0  0  0  0  0  0  0  0
    0.0000    0.0000    0.0000 C   0  0  0  0  0  0  0  0  0  0  0  0
    0.0000    0.0000    0.0000 O   0  0  0  0  0  0  0  0  0  0  0  0
    0.0000    0.0000    0.0000 C   0  0  0  0  0  0  0  0  0  0  0  0
    0.0000    0.0000    0.0000 C   0  0  0  0  0  0  0  0  0  0  0  0
    0.0000    0.0000    0.0000 C   0  0  0  0  0  0  0  0  0  0  0  0
    0.0000    0.0000    0.0000 N   0  0  0  0  0  0  0  0  0  0  0  0
    0.0000    0.0000    0.0000 C   0  0  0  0  0  0  0  0  0  0  0  0
    0.0000    0.0000    0.0000 C   0  0  0  0  0  0  0  0  0  0  0  0
    0.0000    0.0000    0.0000 C   0  0  0  0  0  0  0  0  0  0  0  0
    0.0000    0.0000    0.0000 C   0  0  0  0  0  0  0  0  0  0  0  0
    0.0000    0.0000    0.0000 C   0  0  0  0  0  0  0  0  0  0  0  0
    0.0000    0.0000    0.0000 C   0  0  0  0  0  0  0  0  0  0  0  0
    0.0000    0.0000    0.0000 C   0  0  0  0  0  0  0  0  0  0  0  0
    0.0000    0.0000    0.0000 C   0  0  0  0  0  0  0  0  0  0  0  0
    0.0000    0.0000    0.0000 C   0  0  0  0  0  0  0  0  0  0  0  0
    0.0000    0.0000    0.0000 O   0  0  0  0  0  0  0  0  0  0  0  0
    0.0000    0.0000    0.0000 N   0  0  0  0  0  0  0  0  0  0  0  0
    0.0000    0.0000    0.0000 C   0  0  0  0  0  0  0  0  0  0  0  0
    0.0000    0.0000    0.0000 O   0  0  0  0  0  0  0  0  0  0  0  0
  1 24  1  0  0  0  0
  1  2  1  0  0  0  0
  2  3  1  0  0  0  0
  2 21  1  0  0  0  0
  3  4  1  0  0  0  0
  4 20  1  0  0  0  0
  4  5  2  0  0  0  0
  5  6  1  0  0  0  0
  6  7  2  0  0  0  0
  7  8  1  0  0  0  0
  7 19  1  0  0  0  0
  8  9  1  0  0  0  0
  9 10  1  0  0  0  0
 10 11  1  0  0  0  0
 11 16  1  0  0  0  0
 11 12  2  0  0  0  0
 12 13  1  0  0  0  0
 13 14  2  0  0  0  0
 14 15  1  0  0  0  0
 14 17  1  0  0  0  0
 15 16  2  0  0  0  0
 17 18  1  0  0  0  0
 19 20  2  0  0  0  0
 21 22  2  0  0  0  0
 21 23  1  0  0  0  0
 23 24  1  0  0  0  0
 24 25  2  0  0  0  0
M  END
> <Index>
1692

> <ID>
HT1677

> <class>
1

> <apol>
54.28186

> <ast_fraglike>
0

> <ast_fraglike_ext>
0

> <ast_violation>
3

> <ast_violation_ext>
4

> <a_acc>
4

> <a_acid>
0

> <a_aro>
12

> <a_base>
0

> <a_count>
45

> <a_don>
1

> <a_donacc>
5

> <a_heavy>
25

> <a_hyd>
18

> <a_IC>
73.229317

> <a_ICM>
1.6273181

> <a_nB>
0

> <a_nBr>
0

> <a_nC>
19

> <a_nCl>
0

> <a_nF>
0

> <a_nH>
20

> <a_nI>
0

> <a_nN>
2

> <a_nO>
3

> <a_nP>
0

> <a_nS>
1

> <balabanJ>
1.2598614

> <BCUT_PEOE_0>
-2.4523716

> <BCUT_PEOE_1>
-0.55276859

> <BCUT_PEOE_2>
0.52582431

> <BCUT_PEOE_3>
2.5670238

> <BCUT_SLOGP_0>
-2.5248406

> <BCUT_SLOGP_1>
-0.50617623

> <BCUT_SLOGP_2>
0.642506

> <BCUT_SLOGP_3>
2.5149839

> <BCUT_SMR_0>
-2.1980155

> <BCUT_SMR_1>
-0.33861125

> <BCUT_SMR_2>
0.71167821

> <BCUT_SMR_3>
2.8713324

> <bpol>
29.956141

> <b_1rotN>
7

> <b_1rotR>
0.25925925

> <b_ar>
12

> <b_count>
47

> <b_double>
2

> <b_heavy>
27

> <b_max1len>
3

> <b_rotN>
7

> <b_rotR>
0.25925925

> <b_single>
33

> <b_triple>
0

> <chi0>
17.648054

> <chi0v>
14.843932

> <chi0v_C>
11.447229

> <chi0_C>
12.819627

> <chi1>
12.135362

> <chi1v>
9.1877489

> <chi1v_C>
5.9854164

> <chi1_C>
7.5311713

> <chiral>
1

> <chiral_u>
1

> <density>
0.76164544

> <diameter>
17

> <FCharge>
0

> <GCUT_PEOE_0>
-0.78728658

> <GCUT_PEOE_1>
-0.42597246

> <GCUT_PEOE_2>
0.051604953

> <GCUT_PEOE_3>
2.4955559

> <GCUT_SLOGP_0>
-1.1742924

> <GCUT_SLOGP_1>
-0.37071022

> <GCUT_SLOGP_2>
0.16912751

> <GCUT_SLOGP_3>
2.5750849

> <GCUT_SMR_0>
-0.51385838

> <GCUT_SMR_1>
-0.21487316

> <GCUT_SMR_2>
0.14940003

> <GCUT_SMR_3>
2.7753751

> <Kier1>
19.753086

> <Kier2>
9.7962961

> <Kier3>
6.0

> <KierA1>
15.538566

> <KierA2>
7.6238685

> <KierA3>
4.6319475

> <KierFlex>
4.7385592

> <lip_acc>
5

> <lip_don>
1

> <lip_druglike>
1

> <lip_violation>
0

> <logP(o/w)>
3.2939999

> <logS>
-4.6266899

> <mr>
10.042962

> <mutagenic>
0

> <nmol>
1

> <opr_brigid>
17

> <opr_leadlike>
1

> <opr_nring>
3

> <opr_nrot>
7

> <opr_violation>
0

> <PC+>
0

> <PC->
0

> <PEOE_PC+>
1.9166383

> <PEOE_PC->
-1.9166383

> <PEOE_RPC+>
0.14974093

> <PEOE_RPC->
0.1796484

> <PEOE_VSA+0>
70.535255

> <PEOE_VSA+1>
66.694687

> <PEOE_VSA+2>
0.0

> <PEOE_VSA+3>
8.6190128

> <PEOE_VSA+4>
12.949531

> <PEOE_VSA+5>
14.925592

> <PEOE_VSA+6>
0.0

> <PEOE_VSA-0>
58.584419

> <PEOE_VSA-1>
75.27301

> <PEOE_VSA-2>
0.0

> <PEOE_VSA-3>
0.0

> <PEOE_VSA-4>
0.0

> <PEOE_VSA-5>
32.953308

> <PEOE_VSA-6>
2.503756

> <PEOE_VSA_FHYD>
0.81537879

> <PEOE_VSA_FNEG>
0.49357277

> <PEOE_VSA_FPNEG>
0.10336175

> <PEOE_VSA_FPOL>
0.18462119

> <PEOE_VSA_FPOS>
0.50642723

> <PEOE_VSA_FPPOS>
0.081259444

> <PEOE_VSA_HYD>
279.70636

> <PEOE_VSA_NEG>
169.31448

> <PEOE_VSA_PNEG>
35.457066

> <PEOE_VSA_POL>
63.332188

> <PEOE_VSA_POS>
173.72408

> <PEOE_VSA_PPOS>
27.875124

> <petitjean>
0.47058824

> <petitjeanSC>
0.8888889

> <Q_PC+>
0

> <Q_PC->
0

> <Q_RPC+>
0

> <Q_RPC->
0

> <Q_VSA_FHYD>
1

> <Q_VSA_FNEG>
0

> <Q_VSA_FPNEG>
0

> <Q_VSA_FPOL>
0

> <Q_VSA_FPOS>
1

> <Q_VSA_FPPOS>
0

> <Q_VSA_HYD>
343.03857

> <Q_VSA_NEG>
0

> <Q_VSA_PNEG>
0

> <Q_VSA_POL>
0

> <Q_VSA_POS>
343.03857

> <Q_VSA_PPOS>
0

> <radius>
9

> <reactive>
0

> <rings>
3

> <RPC+>
0

> <RPC->
0

> <rsynth>
1.0

> <SlogP>
3.1595099

> <SlogP_VSA0>
29.010639

> <SlogP_VSA1>
25.668255

> <SlogP_VSA2>
26.638172

> <SlogP_VSA3>
20.926258

> <SlogP_VSA4>
9.1278973

> <SlogP_VSA5>
56.605217

> <SlogP_VSA6>
0.0

> <SlogP_VSA7>
123.07346

> <SlogP_VSA8>
0.0

> <SlogP_VSA9>
94.651199

> <SMR>
9.7878704

> <SMR_VSA0>
47.724434

> <SMR_VSA1>
27.785418

> <SMR_VSA2>
18.01075

> <SMR_VSA3>
17.14728

> <SMR_VSA4>
0.0

> <SMR_VSA5>
179.67868

> <SMR_VSA6>
29.808985

> <SMR_VSA7>
65.545555

> <TPSA>
68.290001

> <VAdjEq>
0.42433795

> <VAdjMa>
5.7548876

> <VDistEq>
3.8409948

> <VDistMa>
8.9235954

> <vdw_area>
343.03857

> <vdw_vol>
467.99463

> <vsa_acc>
35.320175

> <vsa_acid>
0

> <vsa_base>
0

> <vsa_don>
5.6825762

> <vsa_hyd>
257.56326

> <vsa_other>
27.875124

> <vsa_pol>
41.00275

> <Weight>
356.44598

> <weinerPath>
1917

> <weinerPol>
33

> <zagreb>
126

$$$$
Row1692
 OpenBabel06061811532D

 40 43  0  0  1  0  0  0  0  0999 V2000
    0.0000    0.0000    0.0000 S   0  0  0  0  0  0  0  0  0  0  0  0
    0.0000    0.0000    0.0000 C   0  0  1  0  0  0  0  0  0  0  0  0
    0.0000    0.0000    0.0000 H   0  0  0  0  0  0  0  0  0  0  0  0
    0.0000    0.0000    0.0000 N   0  0  0  0  0  0  0  0  0  0  0  0
    0.0000    0.0000    0.0000 C   0  0  1  0  0  0  0  0  0  0  0  0
    0.0000    0.0000    0.0000 H   0  0  0  0  0  0  0  0  0  0  0  0
    0.0000    0.0000    0.0000 C   0  0  0  0  0  0  0  0  0  0  0  0
    0.0000    0.0000    0.0000 O   0  0  0  0  0  0  0  0  0  0  0  0
    0.0000    0.0000    0.0000 O   0  0  0  0  0  0  0  0  0  0  0  0
    0.0000    0.0000    0.0000 C   0  0  0  0  0  0  0  0  0  0  0  0
    0.0000    0.0000    0.0000 C   0  0  0  0  0  0  0  0  0  0  0  0
    0.0000    0.0000    0.0000 C   0  0  0  0  0  0  0  0  0  0  0  0
    0.0000    0.0000    0.0000 C   0  0  0  0  0  0  0  0  0  0  0  0
    0.0000    0.0000    0.0000 O   0  0  0  0  0  0  0  0  0  0  0  0
    0.0000    0.0000    0.0000 C   0  0  1  0  0  0  0  0  0  0  0  0
    0.0000    0.0000    0.0000 H   0  0  0  0  0  0  0  0  0  0  0  0
    0.0000    0.0000    0.0000 N   0  0  0  0  0  0  0  0  0  0  0  0
    0.0000    0.0000    0.0000 C   0  0  0  0  0  0  0  0  0  0  0  0
    0.0000    0.0000    0.0000 O   0  0  0  0  0  0  0  0  0  0  0  0
    0.0000    0.0000    0.0000 C   0  0  2  0  0  0  0  0  0  0  0  0
    0.0000    0.0000    0.0000 H   0  0  0  0  0  0  0  0  0  0  0  0
    0.0000    0.0000    0.0000 N   0  0  0  0  0  0  0  0  0  0  0  0
    0.0000    0.0000    0.0000 C   0  0  0  0  0  0  0  0  0  0  0  0
    0.0000    0.0000    0.0000 O   0  0  0  0  0  0  0  0  0  0  0  0
    0.0000    0.0000    0.0000 N   0  0  0  0  0  0  0  0  0  0  0  0
    0.0000    0.0000    0.0000 C   0  0  0  0  0  0  0  0  0  0  0  0
    0.0000    0.0000    0.0000 C   0  0  0  0  0  0  0  0  0  0  0  0
    0.0000    0.0000    0.0000 N   0  0  0  0  0  0  0  0  0  0  0  0
    0.0000    0.0000    0.0000 C   0  0  0  0  0  0  0  0  0  0  0  0
    0.0000    0.0000    0.0000 C   0  0  0  0  0  0  0  0  0  0  0  0
    0.0000    0.0000    0.0000 C   0  0  0  0  0  0  0  0  0  0  0  0
    0.0000    0.0000    0.0000 O   0  0  0  0  0  0  0  0  0  0  0  0
    0.0000    0.0000    0.0000 C   0  0  0  0  0  0  0  0  0  0  0  0
    0.0000    0.0000    0.0000 O   0  0  0  0  0  0  0  0  0  0  0  0
    0.0000    0.0000    0.0000 C   0  0  0  0  0  0  0  0  0  0  0  0
    0.0000    0.0000    0.0000 C   0  0  0  0  0  0  0  0  0  0  0  0
    0.0000    0.0000    0.0000 C   0  0  0  0  0  0  0  0  0  0  0  0
    0.0000    0.0000    0.0000 C   0  0  0  0  0  0  0  0  0  0  0  0
    0.0000    0.0000    0.0000 C   0  0  0  0  0  0  0  0  0  0  0  0
    0.0000    0.0000    0.0000 C   0  0  0  0  0  0  0  0  0  0  0  0
  1 10  1  0  0  0  0
  1  2  1  0  0  0  0
  2  3  1  0  0  0  0
  2 15  1  0  0  0  0
  2  4  1  0  0  0  0
  4  5  1  0  0  0  0
  4 13  1  0  0  0  0
  5  6  1  0  0  0  0
  5  7  1  0  0  0  0
  5 10  1  0  0  0  0
  7  8  1  0  0  0  0
  7  9  2  0  0  0  0
 10 11  1  0  0  0  0
 10 12  1  0  0  0  0
 13 14  2  0  0  0  0
 13 15  1  0  0  0  0
 15 16  1  0  0  0  0
 15 17  1  0  0  0  0
 17 18  1  0  0  0  0
 18 19  2  0  0  0  0
 18 20  1  0  0  0  0
 20 21  1  0  0  0  0
 20 22  1  0  0  0  0
 20 35  1  0  0  0  0
 22 23  1  0  0  0  0
 23 24  2  0  0  0  0
 23 25  1  0  0  0  0
 25 33  1  0  0  0  0
 25 26  1  0  0  0  0
 26 27  1  0  0  0  0
 27 28  1  0  0  0  0
 28 29  1  0  0  0  0
 28 31  1  0  0  0  0
 29 30  1  0  0  0  0
 31 32  2  0  0  0  0
 31 33  1  0  0  0  0
 33 34  2  0  0  0  0
 35 40  1  0  0  0  0
 35 36  2  0  0  0  0
 36 37  1  0  0  0  0
 37 38  2  0  0  0  0
 38 39  1  0  0  0  0
 39 40  2  0  0  0  0
M  END
> <Index>
1693

> <ID>
HT1682

> <class>
1

> <apol>
72.497414

> <ast_fraglike>
0

> <ast_fraglike_ext>
0

> <ast_violation>
3

> <ast_violation_ext>
5

> <a_acc>
7

> <a_acid>
0

> <a_aro>
6

> <a_base>
0

> <a_count>
63

> <a_don>
4

> <a_donacc>
11

> <a_heavy>
36

> <a_hyd>
18

> <a_IC>
112.88362

> <a_ICM>
1.7918035

> <a_nB>
0

> <a_nBr>
0

> <a_nC>
23

> <a_nCl>
0

> <a_nF>
0

> <a_nH>
27

> <a_nI>
0

> <a_nN>
5

> <a_nO>
7

> <a_nP>
0

> <a_nS>
1

> <balabanJ>
1.4427253

> <BCUT_PEOE_0>
-2.6510794

> <BCUT_PEOE_1>
-0.54527158

> <BCUT_PEOE_2>
0.54172027

> <BCUT_PEOE_3>
2.8505356

> <BCUT_SLOGP_0>
-2.9029088

> <BCUT_SLOGP_1>
-0.51830703

> <BCUT_SLOGP_2>
0.5592882

> <BCUT_SLOGP_3>
2.7546284

> <BCUT_SMR_0>
-2.3929963

> <BCUT_SMR_1>
-0.34815297

> <BCUT_SMR_2>
0.72779161

> <BCUT_SMR_3>
3.1313672

> <bpol>
44.804588

> <b_1rotN>
7

> <b_1rotR>
0.17948718

> <b_ar>
6

> <b_count>
66

> <b_double>
6

> <b_heavy>
39

> <b_max1len>
4

> <b_rotN>
9

> <b_rotR>
0.23076923

> <b_single>
54

> <b_triple>
0

> <chi0>
26.361078

> <chi0v>
20.780561

> <chi0v_C>
14.317472

> <chi0_C>
15.507708

> <chi1>
16.97327

> <chi1v>
12.349189

> <chi1v_C>
6.1444993

> <chi1_C>
7.3122783

> <chiral>
4

> <chiral_u>
0

> <density>
0.82580346

> <diameter>
16

> <FCharge>
0

> <GCUT_PEOE_0>
-0.84246141

> <GCUT_PEOE_1>
-0.40644881

> <GCUT_PEOE_2>
0.067459866

> <GCUT_PEOE_3>
2.8518455

> <GCUT_SLOGP_0>
-1.1656165

> <GCUT_SLOGP_1>
-0.37771371

> <GCUT_SLOGP_2>
0.093689732

> <GCUT_SLOGP_3>
2.7854123

> <GCUT_SMR_0>
-0.5366776

> <GCUT_SMR_1>
-0.22142634

> <GCUT_SMR_2>
0.19431172

> <GCUT_SMR_3>
3.110733

> <Kier1>
28.994083

> <Kier2>
11.623096

> <Kier3>
5.6734085

> <KierA1>
22.715477

> <KierA2>
9.0388479

> <KierA3>
4.3891068

> <KierFlex>
5.7033815

> <lip_acc>
12

> <lip_don>
3

> <lip_druglike>
0

> <lip_violation>
2

> <logP(o/w)>
-0.083999999

> <logS>
-4.2558799

> <mr>
12.957481

> <mutagenic>
0

> <nmol>
1

> <opr_brigid>
20

> <opr_leadlike>
0

> <opr_nring>
4

> <opr_nrot>
6

> <opr_violation>
2

> <PC+>
0

> <PC->
0

> <PEOE_PC+>
4.0490227

> <PEOE_PC->
-4.0490227

> <PEOE_RPC+>
0.080625355

> <PEOE_RPC->
0.084018759

> <PEOE_VSA+0>
86.496223

> <PEOE_VSA+1>
55.45002

> <PEOE_VSA+2>
14.559904

> <PEOE_VSA+3>
17.238026

> <PEOE_VSA+4>
23.273705

> <PEOE_VSA+5>
27.65803

> <PEOE_VSA+6>
43.339603

> <PEOE_VSA-0>
58.451572

> <PEOE_VSA-1>
61.274521

> <PEOE_VSA-2>
19.760618

> <PEOE_VSA-3>
0.0

> <PEOE_VSA-4>
13.566921

> <PEOE_VSA-5>
67.834602

> <PEOE_VSA-6>
8.0413227

> <PEOE_VSA_FHYD>
0.63031286

> <PEOE_VSA_FNEG>
0.46067378

> <PEOE_VSA_FPNEG>
0.17998539

> <PEOE_VSA_FPOL>
0.36968711

> <PEOE_VSA_FPOS>
0.53932625

> <PEOE_VSA_FPPOS>
0.18970174

> <PEOE_VSA_HYD>
313.23087

> <PEOE_VSA_NEG>
228.92955

> <PEOE_VSA_PNEG>
89.442848

> <PEOE_VSA_POL>
183.71419

> <PEOE_VSA_POS>
268.0155

> <PEOE_VSA_PPOS>
94.271339

> <petitjean>
0.5

> <petitjeanSC>
1.0

> <Q_PC+>
0

> <Q_PC->
0

> <Q_RPC+>
0

> <Q_RPC->
0

> <Q_VSA_FHYD>
1

> <Q_VSA_FNEG>
0

> <Q_VSA_FPNEG>
0

> <Q_VSA_FPOL>
0

> <Q_VSA_FPOS>
1

> <Q_VSA_FPPOS>
0

> <Q_VSA_HYD>
496.94507

> <Q_VSA_NEG>
0

> <Q_VSA_PNEG>
0

> <Q_VSA_POL>
0

> <Q_VSA_POS>
496.94507

> <Q_VSA_PPOS>
0

> <radius>
8

> <reactive>
0

> <rings>
4

> <RPC+>
0

> <RPC->
0

> <rsynth>
1.0

> <SlogP>
-0.14480001

> <SlogP_VSA0>
36.0215

> <SlogP_VSA1>
42.983498

> <SlogP_VSA2>
129.62215

> <SlogP_VSA3>
80.703964

> <SlogP_VSA4>
3.185575

> <SlogP_VSA5>
0.0

> <SlogP_VSA6>
0.0

> <SlogP_VSA7>
88.215919

> <SlogP_VSA8>
3.9819686

> <SlogP_VSA9>
156.0598

> <SMR>
12.74522

> <SMR_VSA0>
143.17329

> <SMR_VSA1>
9.372942

> <SMR_VSA2>
61.406727

> <SMR_VSA3>
17.478609

> <SMR_VSA4>
0.0

> <SMR_VSA5>
88.215919

> <SMR_VSA6>
88.929291

> <SMR_VSA7>
132.19759

> <TPSA>
156.42999

> <VAdjEq>
0.3281796

> <VAdjMa>
6.2854023

> <VDistEq>
3.7434754

> <VDistMa>
10.070228

> <vdw_area>
496.94507

> <vdw_vol>
626.73871

> <vsa_acc>
67.834602

> <vsa_acid>
0

> <vsa_base>
0

> <vsa_don>
11.365152

> <vsa_hyd>
278.90976

> <vsa_other>
83.947166

> <vsa_pol>
106.3336

> <Weight>
517.56299

> <weinerPath>
4075

> <weinerPol>
63

> <zagreb>
196

$$$$
Row1693
 OpenBabel06061811532D

 33 36  0  0  1  0  0  0  0  0999 V2000
    0.0000    0.0000    0.0000 F   0  0  0  0  0  0  0  0  0  0  0  0
    0.0000    0.0000    0.0000 C   0  0  0  0  0  0  0  0  0  0  0  0
    0.0000    0.0000    0.0000 C   0  0  0  0  0  0  0  0  0  0  0  0
    0.0000    0.0000    0.0000 C   0  0  0  0  0  0  0  0  0  0  0  0
    0.0000    0.0000    0.0000 C   0  0  0  0  0  0  0  0  0  0  0  0
    0.0000    0.0000    0.0000 C   0  0  0  0  0  0  0  0  0  0  0  0
    0.0000    0.0000    0.0000 C   0  0  0  0  0  0  0  0  0  0  0  0
    0.0000    0.0000    0.0000 C   0  0  0  0  0  0  0  0  0  0  0  0
    0.0000    0.0000    0.0000 C   0  0  0  0  0  0  0  0  0  0  0  0
    0.0000    0.0000    0.0000 C   0  0  0  0  0  0  0  0  0  0  0  0
    0.0000    0.0000    0.0000 N   0  0  0  0  0  0  0  0  0  0  0  0
    0.0000    0.0000    0.0000 C   0  0  0  0  0  0  0  0  0  0  0  0
    0.0000    0.0000    0.0000 C   0  0  0  0  0  0  0  0  0  0  0  0
    0.0000    0.0000    0.0000 C   0  0  0  0  0  0  0  0  0  0  0  0
    0.0000    0.0000    0.0000 C   0  0  0  0  0  0  0  0  0  0  0  0
    0.0000    0.0000    0.0000 C   0  0  0  0  0  0  0  0  0  0  0  0
    0.0000    0.0000    0.0000 C   0  0  0  0  0  0  0  0  0  0  0  0
    0.0000    0.0000    0.0000 C   0  0  0  0  0  0  0  0  0  0  0  0
    0.0000    0.0000    0.0000 C   0  0  1  0  0  0  0  0  0  0  0  0
    0.0000    0.0000    0.0000 H   0  0  0  0  0  0  0  0  0  0  0  0
    0.0000    0.0000    0.0000 O   0  0  0  0  0  0  0  0  0  0  0  0
    0.0000    0.0000    0.0000 C   0  0  0  0  0  0  0  0  0  0  0  0
    0.0000    0.0000    0.0000 C   0  0  1  0  0  0  0  0  0  0  0  0
    0.0000    0.0000    0.0000 H   0  0  0  0  0  0  0  0  0  0  0  0
    0.0000    0.0000    0.0000 O   0  0  0  0  0  0  0  0  0  0  0  0
    0.0000    0.0000    0.0000 C   0  0  0  0  0  0  0  0  0  0  0  0
    0.0000    0.0000    0.0000 C   0  0  0  0  0  0  0  0  0  0  0  0
    0.0000    0.0000    0.0000 O   0  0  0  0  0  0  0  0  0  0  0  0
    0.0000    0.0000    0.0000 O   0  0  0  0  0  0  0  0  0  0  0  0
    0.0000    0.0000    0.0000 C   0  0  0  0  0  0  0  0  0  0  0  0
    0.0000    0.0000    0.0000 C   0  0  0  0  0  0  0  0  0  0  0  0
    0.0000    0.0000    0.0000 C   0  0  0  0  0  0  0  0  0  0  0  0
    0.0000    0.0000    0.0000 C   0  0  0  0  0  0  0  0  0  0  0  0
  1  2  1  0  0  0  0
  2  7  1  0  0  0  0
  2  3  2  0  0  0  0
  3  4  1  0  0  0  0
  4  5  2  0  0  0  0
  5  6  1  0  0  0  0
  5  8  1  0  0  0  0
  6  7  2  0  0  0  0
  8 16  1  0  0  0  0
  8  9  2  0  0  0  0
  9 33  1  0  0  0  0
  9 10  1  0  0  0  0
 10 11  2  0  0  0  0
 10 30  1  0  0  0  0
 11 12  1  0  0  0  0
 12 13  1  0  0  0  0
 12 16  2  0  0  0  0
 13 15  1  0  0  0  0
 13 14  1  0  0  0  0
 14 15  1  0  0  0  0
 16 17  1  0  0  0  0
 17 18  2  3  0  0  0
 18 19  1  0  0  0  0
 19 20  1  0  0  0  0
 19 21  1  0  0  0  0
 19 22  1  0  0  0  0
 22 23  1  0  0  0  0
 23 24  1  0  0  0  0
 23 25  1  0  0  0  0
 23 26  1  0  0  0  0
 26 27  1  0  0  0  0
 27 28  1  0  0  0  0
 27 29  2  0  0  0  0
 30 31  2  0  0  0  0
 31 32  1  0  0  0  0
 32 33  2  0  0  0  0
M  END
> <Index>
1694

> <ID>
HT1698

> <class>
1

> <apol>
64.868034

> <ast_fraglike>
0

> <ast_fraglike_ext>
0

> <ast_violation>
4

> <ast_violation_ext>
5

> <a_acc>
5

> <a_acid>
0

> <a_aro>
16

> <a_base>
0

> <a_count>
55

> <a_don>
4

> <a_donacc>
9

> <a_heavy>
31

> <a_hyd>
25

> <a_IC>
83.839279

> <a_ICM>
1.5243505

> <a_nB>
0

> <a_nBr>
0

> <a_nC>
25

> <a_nCl>
0

> <a_nF>
1

> <a_nH>
24

> <a_nI>
0

> <a_nN>
1

> <a_nO>
4

> <a_nP>
0

> <a_nS>
0

> <balabanJ>
1.4559528

> <BCUT_PEOE_0>
-2.5839064

> <BCUT_PEOE_1>
-0.60505593

> <BCUT_PEOE_2>
0.65008152

> <BCUT_PEOE_3>
2.7463334

> <BCUT_SLOGP_0>
-2.64013

> <BCUT_SLOGP_1>
-0.53807992

> <BCUT_SLOGP_2>
0.75831795

> <BCUT_SLOGP_3>
2.8927338

> <BCUT_SMR_0>
-2.3626616

> <BCUT_SMR_1>
-0.43927282

> <BCUT_SMR_2>
0.84924805

> <BCUT_SMR_3>
3.0001206

> <bpol>
29.717968

> <b_1rotN>
8

> <b_1rotR>
0.23529412

> <b_ar>
17

> <b_count>
58

> <b_double>
2

> <b_heavy>
34

> <b_max1len>
6

> <b_rotN>
8

> <b_rotR>
0.23529412

> <b_single>
39

> <b_triple>
0

> <chi0>
21.957455

> <chi0v>
16.909048

> <chi0v_C>
14.333981

> <chi0_C>
16.250347

> <chi1>
14.918724

> <chi1v>
10.367854

> <chi1v_C>
8.787529

> <chi1_C>
11.215476

> <chiral>
2

> <chiral_u>
0

> <density>
0.75105602

> <diameter>
14

> <FCharge>
0

> <GCUT_PEOE_0>
-0.7931127

> <GCUT_PEOE_1>
-0.42595899

> <GCUT_PEOE_2>
0.083469868

> <GCUT_PEOE_3>
2.7645631

> <GCUT_SLOGP_0>
-0.87814623

> <GCUT_SLOGP_1>
-0.32817683

> <GCUT_SLOGP_2>
0.16445385

> <GCUT_SLOGP_3>
2.8974259

> <GCUT_SMR_0>
-0.5246743

> <GCUT_SMR_1>
-0.22757693

> <GCUT_SMR_2>
0.2154963

> <GCUT_SMR_3>
3.0594115

> <Kier1>
24.134949

> <Kier2>
10.950521

> <Kier3>
5.9259257

> <KierA1>
18.168606

> <KierA2>
8.1600056

> <KierA3>
4.3829918

> <KierFlex>
4.7824492

> <lip_acc>
5

> <lip_don>
3

> <lip_druglike>
1

> <lip_violation>
0

> <logP(o/w)>
4.5300002

> <logS>
-5.4635

> <mr>
11.716016

> <mutagenic>
0

> <nmol>
1

> <opr_brigid>
21

> <opr_leadlike>
1

> <opr_nring>
4

> <opr_nrot>
8

> <opr_violation>
1

> <PC+>
0

> <PC->
0

> <PEOE_PC+>
2.4078834

> <PEOE_PC->
-2.4078834

> <PEOE_RPC+>
0.10883577

> <PEOE_RPC->
0.16246226

> <PEOE_VSA+0>
53.715405

> <PEOE_VSA+1>
83.094902

> <PEOE_VSA+2>
9.0208454

> <PEOE_VSA+3>
0.0

> <PEOE_VSA+4>
30.972517

> <PEOE_VSA+5>
14.708499

> <PEOE_VSA+6>
0.0

> <PEOE_VSA-0>
56.375877

> <PEOE_VSA-1>
85.784325

> <PEOE_VSA-2>
0.0

> <PEOE_VSA-3>
0.0

> <PEOE_VSA-4>
11.908636

> <PEOE_VSA-5>
19.249496

> <PEOE_VSA-6>
23.30262

> <PEOE_VSA_FHYD>
0.74199116

> <PEOE_VSA_FNEG>
0.50658125

> <PEOE_VSA_FPNEG>
0.14031462

> <PEOE_VSA_FPOL>
0.25800881

> <PEOE_VSA_FPOS>
0.49341878

> <PEOE_VSA_FPPOS>
0.1176942

> <PEOE_VSA_HYD>
287.99136

> <PEOE_VSA_NEG>
196.62096

> <PEOE_VSA_PNEG>
54.460754

> <PEOE_VSA_POL>
100.14177

> <PEOE_VSA_POS>
191.51218

> <PEOE_VSA_PPOS>
45.681019

> <petitjean>
0.5

> <petitjeanSC>
1.0

> <Q_PC+>
0

> <Q_PC->
0

> <Q_RPC+>
0

> <Q_RPC->
0

> <Q_VSA_FHYD>
1

> <Q_VSA_FNEG>
0

> <Q_VSA_FPNEG>
0

> <Q_VSA_FPOL>
0

> <Q_VSA_FPOS>
1

> <Q_VSA_FPPOS>
0

> <Q_VSA_HYD>
388.13312

> <Q_VSA_NEG>
0

> <Q_VSA_PNEG>
0

> <Q_VSA_POL>
0

> <Q_VSA_POS>
388.13312

> <Q_VSA_PPOS>
0

> <radius>
7

> <reactive>
0

> <rings>
4

> <RPC+>
0

> <RPC->
0

> <rsynth>
0.61290324

> <SlogP>
4.5180998

> <SlogP_VSA0>
50.770454

> <SlogP_VSA1>
24.530994

> <SlogP_VSA2>
45.920532

> <SlogP_VSA3>
25.385227

> <SlogP_VSA4>
5.9423227

> <SlogP_VSA5>
0.0

> <SlogP_VSA6>
4.4107962

> <SlogP_VSA7>
169.87691

> <SlogP_VSA8>
93.116806

> <SlogP_VSA9>
14.960114

> <SMR>
11.70294

> <SMR_VSA0>
23.862217

> <SMR_VSA1>
82.516098

> <SMR_VSA2>
34.506245

> <SMR_VSA3>
23.290417

> <SMR_VSA4>
11.088251

> <SMR_VSA5>
234.26228

> <SMR_VSA6>
25.388649

> <SMR_VSA7>
0.0

> <TPSA>
90.650002

> <VAdjEq>
0.36875206

> <VAdjMa>
6.0874629

> <VDistEq>
3.5640109

> <VDistMa>
9.6419039

> <vdw_area>
388.13312

> <vdw_vol>
561.16718

> <vsa_acc>
5.6825762

> <vsa_acid>
0

> <vsa_base>
0

> <vsa_don>
0.0

> <vsa_hyd>
283.60724

> <vsa_other>
14.708499

> <vsa_pol>
59.95026

> <Weight>
421.46799

> <weinerPath>
2681

> <weinerPol>
49

> <zagreb>
164

$$$$
Row1694
 OpenBabel06061811532D

 21 24  0  0  0  0  0  0  0  0999 V2000
    0.0000    0.0000    0.0000 S   0  0  0  0  0  0  0  0  0  0  0  0
    0.0000    0.0000    0.0000 C   0  0  0  0  0  0  0  0  0  0  0  0
    0.0000    0.0000    0.0000 C   0  0  0  0  0  0  0  0  0  0  0  0
    0.0000    0.0000    0.0000 C   0  0  0  0  0  0  0  0  0  0  0  0
    0.0000    0.0000    0.0000 C   0  0  0  0  0  0  0  0  0  0  0  0
    0.0000    0.0000    0.0000 C   0  0  0  0  0  0  0  0  0  0  0  0
    0.0000    0.0000    0.0000 C   0  0  0  0  0  0  0  0  0  0  0  0
    0.0000    0.0000    0.0000 C   0  0  0  0  0  0  0  0  0  0  0  0
    0.0000    0.0000    0.0000 C   0  0  0  0  0  0  0  0  0  0  0  0
    0.0000    0.0000    0.0000 C   0  0  0  0  0  0  0  0  0  0  0  0
    0.0000    0.0000    0.0000 C   0  0  0  0  0  0  0  0  0  0  0  0
    0.0000    0.0000    0.0000 C   0  0  0  0  0  0  0  0  0  0  0  0
    0.0000    0.0000    0.0000 C   0  0  0  0  0  0  0  0  0  0  0  0
    0.0000    0.0000    0.0000 C   0  0  0  0  0  0  0  0  0  0  0  0
    0.0000    0.0000    0.0000 C   0  0  0  0  0  0  0  0  0  0  0  0
    0.0000    0.0000    0.0000 C   0  0  0  0  0  0  0  0  0  0  0  0
    0.0000    0.0000    0.0000 C   0  0  0  0  0  0  0  0  0  0  0  0
    0.0000    0.0000    0.0000 N   0  0  0  0  0  0  0  0  0  0  0  0
    0.0000    0.0000    0.0000 C   0  0  0  0  0  0  0  0  0  0  0  0
    0.0000    0.0000    0.0000 C   0  0  0  0  0  0  0  0  0  0  0  0
    0.0000    0.0000    0.0000 C   0  0  0  0  0  0  0  0  0  0  0  0
  1  5  1  0  0  0  0
  1  2  1  0  0  0  0
  2 10  1  0  0  0  0
  2  3  2  0  0  0  0
  3  4  1  0  0  0  0
  3  6  1  0  0  0  0
  4  5  2  0  0  0  0
  6  7  1  0  0  0  0
  6 15  2  0  0  0  0
  7 14  1  0  0  0  0
  7  8  2  0  0  0  0
  8  9  1  0  0  0  0
  8 11  1  0  0  0  0
  9 10  1  0  0  0  0
 11 12  2  0  0  0  0
 12 13  1  0  0  0  0
 13 14  2  0  0  0  0
 15 20  1  0  0  0  0
 15 16  1  0  0  0  0
 16 17  1  0  0  0  0
 17 18  1  0  0  0  0
 18 19  1  0  0  0  0
 18 21  1  0  0  0  0
 19 20  1  0  0  0  0
M  END
> <Index>
1695

> <ID>
HT1702

> <class>
1

> <apol>
51.442654

> <ast_fraglike>
0

> <ast_fraglike_ext>
0

> <ast_violation>
1

> <ast_violation_ext>
1

> <a_acc>
1

> <a_acid>
0

> <a_aro>
11

> <a_base>
0

> <a_count>
42

> <a_don>
0

> <a_donacc>
1

> <a_heavy>
21

> <a_hyd>
20

> <a_IC>
53.528042

> <a_ICM>
1.2744772

> <a_nB>
0

> <a_nBr>
0

> <a_nC>
19

> <a_nCl>
0

> <a_nF>
0

> <a_nH>
21

> <a_nI>
0

> <a_nN>
1

> <a_nO>
0

> <a_nP>
0

> <a_nS>
1

> <balabanJ>
1.5862978

> <BCUT_PEOE_0>
-2.719254

> <BCUT_PEOE_1>
-0.50411916

> <BCUT_PEOE_2>
0.57855743

> <BCUT_PEOE_3>
2.6306837

> <BCUT_SLOGP_0>
-2.7418616

> <BCUT_SLOGP_1>
-0.37821314

> <BCUT_SLOGP_2>
0.69950068

> <BCUT_SLOGP_3>
2.6721992

> <BCUT_SMR_0>
-2.4354987

> <BCUT_SMR_1>
-0.31992885

> <BCUT_SMR_2>
0.75261688

> <BCUT_SMR_3>
2.9125659

> <bpol>
27.217346

> <b_1rotN>
0

> <b_1rotR>
0.0

> <b_ar>
11

> <b_count>
45

> <b_double>
1

> <b_heavy>
24

> <b_max1len>
2

> <b_rotN>
0

> <b_rotR>
0.0

> <b_single>
33

> <b_triple>
0

> <chi0>
14.23384

> <chi0v>
13.378701

> <chi0v_C>
11.706742

> <chi0_C>
12.949383

> <chi1>
10.3265

> <chi1v>
8.7627211

> <chi1v_C>
6.3635721

> <chi1_C>
8.0244045

> <chiral>
0

> <chiral_u>
0

> <density>
0.69136715

> <diameter>
9

> <FCharge>
0

> <GCUT_PEOE_0>
-0.85857582

> <GCUT_PEOE_1>
-0.35342535

> <GCUT_PEOE_2>
0.037050162

> <GCUT_PEOE_3>
2.7851994

> <GCUT_SLOGP_0>
-0.95211911

> <GCUT_SLOGP_1>
-0.25920501

> <GCUT_SLOGP_2>
0.14403488

> <GCUT_SLOGP_3>
2.8994384

> <GCUT_SMR_0>
-0.51363564

> <GCUT_SMR_1>
-0.16824524

> <GCUT_SMR_2>
0.17836903

> <GCUT_SMR_3>
3.0783467

> <Kier1>
14.583333

> <Kier2>
6.2456746

> <Kier3>
2.8125

> <KierA1>
12.418313

> <KierA2>
5.2731123

> <KierA3>
2.3589802

> <KierFlex>
3.1182458

> <lip_acc>
1

> <lip_don>
0

> <lip_druglike>
1

> <lip_violation>
0

> <logP(o/w)>
3.8710001

> <logS>
-3.4874799

> <mr>
9.0913754

> <mutagenic>
0

> <nmol>
1

> <opr_brigid>
23

> <opr_leadlike>
1

> <opr_nring>
4

> <opr_nrot>
2

> <opr_violation>
0

> <PC+>
0

> <PC->
0

> <PEOE_PC+>
1.0628365

> <PEOE_PC->
-1.0628365

> <PEOE_RPC+>
0.14754708

> <PEOE_RPC->
0.28671518

> <PEOE_VSA+0>
94.630829

> <PEOE_VSA+1>
21.326929

> <PEOE_VSA+2>
0.0

> <PEOE_VSA+3>
19.760618

> <PEOE_VSA+4>
0.0

> <PEOE_VSA+5>
0.0

> <PEOE_VSA+6>
0.0

> <PEOE_VSA-0>
66.878098

> <PEOE_VSA-1>
67.667664

> <PEOE_VSA-2>
14.230966

> <PEOE_VSA-3>
0.0

> <PEOE_VSA-4>
0.0

> <PEOE_VSA-5>
0.0

> <PEOE_VSA-6>
0.0

> <PEOE_VSA_FHYD>
1.0

> <PEOE_VSA_FNEG>
0.52295005

> <PEOE_VSA_FPNEG>
0.0

> <PEOE_VSA_FPOL>
0.0

> <PEOE_VSA_FPOS>
0.47704995

> <PEOE_VSA_FPPOS>
0.0

> <PEOE_VSA_HYD>
284.49509

> <PEOE_VSA_NEG>
148.77673

> <PEOE_VSA_PNEG>
0.0

> <PEOE_VSA_POL>
0.0

> <PEOE_VSA_POS>
135.71837

> <PEOE_VSA_PPOS>
0.0

> <petitjean>
0.44444445

> <petitjeanSC>
0.80000001

> <Q_PC+>
0

> <Q_PC->
0

> <Q_RPC+>
0

> <Q_RPC->
0

> <Q_VSA_FHYD>
1

> <Q_VSA_FNEG>
0

> <Q_VSA_FPNEG>
0

> <Q_VSA_FPOL>
0

> <Q_VSA_FPOS>
1

> <Q_VSA_FPPOS>
0

> <Q_VSA_HYD>
284.49509

> <Q_VSA_NEG>
0

> <Q_VSA_PNEG>
0

> <Q_VSA_POL>
0

> <Q_VSA_POS>
284.49509

> <Q_VSA_PPOS>
0

> <radius>
5

> <reactive>
0

> <rings>
4

> <RPC+>
0

> <RPC->
0

> <rsynth>
0.047619049

> <SlogP>
4.1914301

> <SlogP_VSA0>
0.0

> <SlogP_VSA1>
3.1243138

> <SlogP_VSA2>
0.0

> <SlogP_VSA3>
40.064732

> <SlogP_VSA4>
10.915126

> <SlogP_VSA5>
73.819572

> <SlogP_VSA6>
0.0

> <SlogP_VSA7>
104.03193

> <SlogP_VSA8>
37.736813

> <SlogP_VSA9>
31.277687

> <SMR>
8.9860001

> <SMR_VSA0>
0.0

> <SMR_VSA1>
3.1243138

> <SMR_VSA2>
3.185575

> <SMR_VSA3>
14.100701

> <SMR_VSA4>
0.0

> <SMR_VSA5>
179.50555

> <SMR_VSA6>
36.879158

> <SMR_VSA7>
64.174873

> <TPSA>
3.24

> <VAdjEq>
0.49641782

> <VAdjMa>
5.5849624

> <VDistEq>
2.8946509

> <VDistMa>
8.5307093

> <vdw_area>
284.49509

> <vdw_vol>
427.34171

> <vsa_acc>
0.0

> <vsa_acid>
0

> <vsa_base>
0

> <vsa_don>
0.0

> <vsa_hyd>
269.54739

> <vsa_other>
0.0

> <vsa_pol>
0.0

> <Weight>
295.44998

> <weinerPath>
819

> <weinerPol>
37

> <zagreb>
116

$$$$
Row1695
 OpenBabel06061811532D

 25 26  0  0  1  0  0  0  0  0999 V2000
    0.0000    0.0000    0.0000 Cl  0  0  0  0  0  0  0  0  0  0  0  0
    0.0000    0.0000    0.0000 C   0  0  0  0  0  0  0  0  0  0  0  0
    0.0000    0.0000    0.0000 C   0  0  0  0  0  0  0  0  0  0  0  0
    0.0000    0.0000    0.0000 C   0  0  0  0  0  0  0  0  0  0  0  0
    0.0000    0.0000    0.0000 N   0  0  0  0  0  0  0  0  0  0  0  0
    0.0000    0.0000    0.0000 C   0  0  3  0  0  0  0  0  0  0  0  0
    0.0000    0.0000    0.0000 N   0  0  0  0  0  0  0  0  0  0  0  0
    0.0000    0.0000    0.0000 S   0  0  0  0  0  0  0  0  0  0  0  0
    0.0000    0.0000    0.0000 O   0  0  0  0  0  0  0  0  0  0  0  0
    0.0000    0.0000    0.0000 O   0  0  0  0  0  0  0  0  0  0  0  0
    0.0000    0.0000    0.0000 C   0  0  0  0  0  0  0  0  0  0  0  0
    0.0000    0.0000    0.0000 C   0  0  0  0  0  0  0  0  0  0  0  0
    0.0000    0.0000    0.0000 C   0  0  0  0  0  0  0  0  0  0  0  0
    0.0000    0.0000    0.0000 S   0  0  0  0  0  0  0  0  0  0  0  0
    0.0000    0.0000    0.0000 O   0  0  0  0  0  0  0  0  0  0  0  0
    0.0000    0.0000    0.0000 O   0  0  0  0  0  0  0  0  0  0  0  0
    0.0000    0.0000    0.0000 N   0  0  0  0  0  0  0  0  0  0  0  0
    0.0000    0.0000    0.0000 C   0  0  0  0  0  0  0  0  0  0  0  0
    0.0000    0.0000    0.0000 C   0  0  0  0  0  0  0  0  0  0  0  0
    0.0000    0.0000    0.0000 S   0  0  0  0  0  0  0  0  0  0  0  0
    0.0000    0.0000    0.0000 C   0  0  0  0  0  0  0  0  0  0  0  0
    0.0000    0.0000    0.0000 C   0  0  0  0  0  0  0  0  0  0  0  0
    0.0000    0.0000    0.0000 F   0  0  0  0  0  0  0  0  0  0  0  0
    0.0000    0.0000    0.0000 F   0  0  0  0  0  0  0  0  0  0  0  0
    0.0000    0.0000    0.0000 F   0  0  0  0  0  0  0  0  0  0  0  0
  1  2  1  0  0  0  0
  2 13  1  0  0  0  0
  2  3  2  0  0  0  0
  3  4  1  0  0  0  0
  4 11  2  0  0  0  0
  4  5  1  0  0  0  0
  5  6  1  0  0  0  0
  6  7  1  0  0  0  0
  6 19  1  0  0  0  0
  7  8  1  0  0  0  0
  7 18  1  0  0  0  0
  8  9  2  0  0  0  0
  8 10  2  0  0  0  0
  8 11  1  0  0  0  0
 11 12  1  0  0  0  0
 12 13  2  0  0  0  0
 13 14  1  0  0  0  0
 14 15  2  0  0  0  0
 14 16  2  0  0  0  0
 14 17  1  0  0  0  0
 19 20  1  0  0  0  0
 20 21  1  0  0  0  0
 21 22  1  0  0  0  0
 22 23  1  0  0  0  0
 22 24  1  0  0  0  0
 22 25  1  0  0  0  0
M  END
> <Index>
1696

> <ID>
HT1708

> <class>
1

> <apol>
47.087311

> <ast_fraglike>
0

> <ast_fraglike_ext>
0

> <ast_violation>
2

> <ast_violation_ext>
4

> <a_acc>
4

> <a_acid>
0

> <a_aro>
6

> <a_base>
0

> <a_count>
38

> <a_don>
2

> <a_donacc>
6

> <a_heavy>
25

> <a_hyd>
15

> <a_IC>
90.997116

> <a_ICM>
2.3946609

> <a_nB>
0

> <a_nBr>
0

> <a_nC>
11

> <a_nCl>
1

> <a_nF>
3

> <a_nH>
13

> <a_nI>
0

> <a_nN>
3

> <a_nO>
4

> <a_nP>
0

> <a_nS>
3

> <balabanJ>
2.0970788

> <BCUT_PEOE_0>
-2.6668706

> <BCUT_PEOE_1>
-0.24766694

> <BCUT_PEOE_2>
0.27372965

> <BCUT_PEOE_3>
2.6487429

> <BCUT_SLOGP_0>
-2.7850661

> <BCUT_SLOGP_1>
-0.3339

> <BCUT_SLOGP_2>
0.460621

> <BCUT_SLOGP_3>
2.5875826

> <BCUT_SMR_0>
-2.3481848

> <BCUT_SMR_1>
-0.056510188

> <BCUT_SMR_2>
0.49218705

> <BCUT_SMR_3>
2.9680531

> <bpol>
35.45269

> <b_1rotN>
4

> <b_1rotR>
0.15384616

> <b_ar>
6

> <b_count>
39

> <b_double>
0

> <b_heavy>
26

> <b_max1len>
6

> <b_rotN>
5

> <b_rotR>
0.1923077

> <b_single>
33

> <b_triple>
0

> <chi0>
19.206743

> <chi0v>
15.745843

> <chi0v_C>
6.6462646

> <chi0_C>
7.2151785

> <chi1>
11.232018

> <chi1v>
11.006108

> <chi1v_C>
2.4165022

> <chi1_C>
3.0614614

> <chiral>
1

> <chiral_u>
1

> <density>
1.0701537

> <diameter>
12

> <FCharge>
0

> <GCUT_PEOE_0>
-0.88568264

> <GCUT_PEOE_1>
-0.37444565

> <GCUT_PEOE_2>
-0.055644751

> <GCUT_PEOE_3>
2.6623631

> <GCUT_SLOGP_0>
-1.3482822

> <GCUT_SLOGP_1>
-0.4252938

> <GCUT_SLOGP_2>
0.24147694

> <GCUT_SLOGP_3>
2.6669462

> <GCUT_SMR_0>
-0.50268692

> <GCUT_SMR_1>
-0.11113491

> <GCUT_SMR_2>
0.19065481

> <GCUT_SMR_3>
2.9430687

> <Kier1>
21.301775

> <Kier2>
7.197279

> <Kier3>
4.8379841

> <KierA1>
23.555952

> <KierA2>
7.9927177

> <KierA3>
5.389689

> <KierFlex>
7.5310431

> <lip_acc>
7

> <lip_don>
3

> <lip_druglike>
1

> <lip_violation>
0

> <logP(o/w)>
0.55176002

> <logS>
-4.1602402

> <mr>
8.9332962

> <mutagenic>
0

> <nmol>
1

> <opr_brigid>
11

> <opr_leadlike>
1

> <opr_nring>
2

> <opr_nrot>
4

> <opr_violation>
0

> <PC+>
0

> <PC->
0

> <PEOE_PC+>
2.1754093

> <PEOE_PC->
-2.1754093

> <PEOE_RPC+>
0.18332817

> <PEOE_RPC->
0.17575203

> <PEOE_VSA+0>
99.041931

> <PEOE_VSA+1>
19.208147

> <PEOE_VSA+2>
16.774651

> <PEOE_VSA+3>
10.105608

> <PEOE_VSA+4>
0.0

> <PEOE_VSA+5>
0.0

> <PEOE_VSA+6>
17.414705

> <PEOE_VSA-0>
31.551292

> <PEOE_VSA-1>
29.581947

> <PEOE_VSA-2>
32.016521

> <PEOE_VSA-3>
64.530273

> <PEOE_VSA-4>
32.016521

> <PEOE_VSA-5>
0.0

> <PEOE_VSA-6>
0.13689101

> <PEOE_VSA_FHYD>
0.85933274

> <PEOE_VSA_FNEG>
0.53872031

> <PEOE_VSA_FPNEG>
0.091246814

> <PEOE_VSA_FPOL>
0.14066726

> <PEOE_VSA_FPOS>
0.46127969

> <PEOE_VSA_FPPOS>
0.049420454

> <PEOE_VSA_HYD>
302.81036

> <PEOE_VSA_NEG>
189.83345

> <PEOE_VSA_PNEG>
32.153416

> <PEOE_VSA_POL>
49.568119

> <PEOE_VSA_POS>
162.54504

> <PEOE_VSA_PPOS>
17.414705

> <petitjean>
0.5

> <petitjeanSC>
1.0

> <Q_PC+>
0

> <Q_PC->
0

> <Q_RPC+>
0

> <Q_RPC->
0

> <Q_VSA_FHYD>
1

> <Q_VSA_FNEG>
0

> <Q_VSA_FPNEG>
0

> <Q_VSA_FPOL>
0

> <Q_VSA_FPOS>
1

> <Q_VSA_FPPOS>
0

> <Q_VSA_HYD>
352.37851

> <Q_VSA_NEG>
0

> <Q_VSA_PNEG>
0

> <Q_VSA_POL>
0

> <Q_VSA_POS>
352.37851

> <Q_VSA_PPOS>
0

> <radius>
6

> <reactive>
0

> <rings>
2

> <RPC+>
0

> <RPC->
0

> <rsynth>
1.0

> <SlogP>
1.655

> <SlogP_VSA0>
31.291433

> <SlogP_VSA1>
123.6322

> <SlogP_VSA2>
16.834627

> <SlogP_VSA3>
34.467129

> <SlogP_VSA4>
0.0

> <SlogP_VSA5>
35.998657

> <SlogP_VSA6>
3.5006065

> <SlogP_VSA7>
35.286369

> <SlogP_VSA8>
0.0

> <SlogP_VSA9>
119.00527

> <SMR>
8.8565702

> <SMR_VSA0>
96.343376

> <SMR_VSA1>
46.398899

> <SMR_VSA2>
10.860984

> <SMR_VSA3>
7.0537477

> <SMR_VSA4>
52.058933

> <SMR_VSA5>
35.286369

> <SMR_VSA6>
34.467129

> <SMR_VSA7>
117.54686

> <TPSA>
109.57

> <VAdjEq>
0.41335541

> <VAdjMa>
5.7004399

> <VDistEq>
3.3713751

> <VDistMa>
8.9906902

> <vdw_area>
352.37851

> <vdw_vol>
411.05029

> <vsa_acc>
64.033043

> <vsa_acid>
0

> <vsa_base>
0

> <vsa_don>
25.817696

> <vsa_hyd>
214.78804

> <vsa_other>
31.401779

> <vsa_pol>
89.850746

> <Weight>
439.88699

> <weinerPath>
1486

> <weinerPol>
43

> <zagreb>
136

$$$$
Row1696
 OpenBabel06061811532D

 54 60  0  0  1  0  0  0  0  0999 V2000
    0.0000    0.0000    0.0000 F   0  0  0  0  0  0  0  0  0  0  0  0
    0.0000    0.0000    0.0000 C   0  0  0  0  0  0  0  0  0  0  0  0
    0.0000    0.0000    0.0000 C   0  0  0  0  0  0  0  0  0  0  0  0
    0.0000    0.0000    0.0000 C   0  0  0  0  0  0  0  0  0  0  0  0
    0.0000    0.0000    0.0000 F   0  0  0  0  0  0  0  0  0  0  0  0
    0.0000    0.0000    0.0000 C   0  0  0  0  0  0  0  0  0  0  0  0
    0.0000    0.0000    0.0000 C   0  0  0  0  0  0  0  0  0  0  0  0
    0.0000    0.0000    0.0000 C   0  0  0  0  0  0  0  0  0  0  0  0
    0.0000    0.0000    0.0000 C   0  0  2  0  0  0  0  0  0  0  0  0
    0.0000    0.0000    0.0000 O   0  0  0  0  0  0  0  0  0  0  0  0
    0.0000    0.0000    0.0000 C   0  0  0  0  0  0  0  0  0  0  0  0
    0.0000    0.0000    0.0000 C   0  0  2  0  0  0  0  0  0  0  0  0
    0.0000    0.0000    0.0000 H   0  0  0  0  0  0  0  0  0  0  0  0
    0.0000    0.0000    0.0000 C   0  0  0  0  0  0  0  0  0  0  0  0
    0.0000    0.0000    0.0000 C   0  0  0  0  0  0  0  0  0  0  0  0
    0.0000    0.0000    0.0000 O   0  0  0  0  0  0  0  0  0  0  0  0
    0.0000    0.0000    0.0000 C   0  0  0  0  0  0  0  0  0  0  0  0
    0.0000    0.0000    0.0000 C   0  0  0  0  0  0  0  0  0  0  0  0
    0.0000    0.0000    0.0000 C   0  0  0  0  0  0  0  0  0  0  0  0
    0.0000    0.0000    0.0000 C   0  0  0  0  0  0  0  0  0  0  0  0
    0.0000    0.0000    0.0000 N   0  0  0  0  0  0  0  0  0  0  0  0
    0.0000    0.0000    0.0000 C   0  0  0  0  0  0  0  0  0  0  0  0
    0.0000    0.0000    0.0000 C   0  0  0  0  0  0  0  0  0  0  0  0
    0.0000    0.0000    0.0000 N   0  0  0  0  0  0  0  0  0  0  0  0
    0.0000    0.0000    0.0000 C   0  0  0  0  0  0  0  0  0  0  0  0
    0.0000    0.0000    0.0000 C   0  0  0  0  0  0  0  0  0  0  0  0
    0.0000    0.0000    0.0000 C   0  0  0  0  0  0  0  0  0  0  0  0
    0.0000    0.0000    0.0000 C   0  0  0  0  0  0  0  0  0  0  0  0
    0.0000    0.0000    0.0000 C   0  0  0  0  0  0  0  0  0  0  0  0
    0.0000    0.0000    0.0000 C   0  0  0  0  0  0  0  0  0  0  0  0
    0.0000    0.0000    0.0000 N   0  0  0  0  0  0  0  0  0  0  0  0
    0.0000    0.0000    0.0000 C   0  0  0  0  0  0  0  0  0  0  0  0
    0.0000    0.0000    0.0000 N   0  0  0  0  0  0  0  0  0  0  0  0
    0.0000    0.0000    0.0000 N   0  0  0  0  0  0  0  0  0  0  0  0
    0.0000    0.0000    0.0000 C   0  0  2  0  0  0  0  0  0  0  0  0
    0.0000    0.0000    0.0000 H   0  0  0  0  0  0  0  0  0  0  0  0
    0.0000    0.0000    0.0000 C   0  0  1  0  0  0  0  0  0  0  0  0
    0.0000    0.0000    0.0000 H   0  0  0  0  0  0  0  0  0  0  0  0
    0.0000    0.0000    0.0000 O   0  0  0  0  0  0  0  0  0  0  0  0
    0.0000    0.0000    0.0000 C   0  0  0  0  0  0  0  0  0  0  0  0
    0.0000    0.0000    0.0000 C   0  0  0  0  0  0  0  0  0  0  0  0
    0.0000    0.0000    0.0000 C   0  0  0  0  0  0  0  0  0  0  0  0
    0.0000    0.0000    0.0000 C   0  0  0  0  0  0  0  0  0  0  0  0
    0.0000    0.0000    0.0000 O   0  0  0  0  0  0  0  0  0  0  0  0
    0.0000    0.0000    0.0000 C   0  0  0  0  0  0  0  0  0  0  0  0
    0.0000    0.0000    0.0000 C   0  0  0  0  0  0  0  0  0  0  0  0
    0.0000    0.0000    0.0000 C   0  0  0  0  0  0  0  0  0  0  0  0
    0.0000    0.0000    0.0000 C   0  0  0  0  0  0  0  0  0  0  0  0
    0.0000    0.0000    0.0000 C   0  0  0  0  0  0  0  0  0  0  0  0
    0.0000    0.0000    0.0000 N   0  0  0  0  0  0  0  0  0  0  0  0
    0.0000    0.0000    0.0000 N   0  0  0  0  0  0  0  0  0  0  0  0
    0.0000    0.0000    0.0000 C   0  0  0  0  0  0  0  0  0  0  0  0
    0.0000    0.0000    0.0000 N   0  0  0  0  0  0  0  0  0  0  0  0
    0.0000    0.0000    0.0000 C   0  0  0  0  0  0  0  0  0  0  0  0
  1  2  1  0  0  0  0
  2  8  1  0  0  0  0
  2  3  2  0  0  0  0
  3  4  1  0  0  0  0
  4  5  1  0  0  0  0
  4  6  2  0  0  0  0
  6  7  1  0  0  0  0
  7  8  2  0  0  0  0
  8  9  1  0  0  0  0
  9 14  1  0  0  0  0
  9 10  1  0  0  0  0
  9 49  1  0  0  0  0
 10 11  1  0  0  0  0
 11 12  1  0  0  0  0
 12 13  1  0  0  0  0
 12 14  1  0  0  0  0
 12 15  1  0  0  0  0
 15 16  1  0  0  0  0
 16 17  1  0  0  0  0
 17 48  1  0  0  0  0
 17 18  2  0  0  0  0
 18 19  1  0  0  0  0
 19 20  2  0  0  0  0
 20 21  1  0  0  0  0
 20 47  1  0  0  0  0
 21 26  1  0  0  0  0
 21 22  1  0  0  0  0
 22 23  1  0  0  0  0
 23 24  1  0  0  0  0
 24 25  1  0  0  0  0
 24 27  1  0  0  0  0
 25 26  1  0  0  0  0
 27 46  1  0  0  0  0
 27 28  2  0  0  0  0
 28 29  1  0  0  0  0
 29 30  2  0  0  0  0
 30 31  1  0  0  0  0
 30 45  1  0  0  0  0
 31 43  1  0  0  0  0
 31 32  1  0  0  0  0
 32 33  2  0  0  0  0
 33 34  1  0  0  0  0
 34 35  1  0  0  0  0
 34 43  1  0  0  0  0
 35 36  1  0  0  0  0
 35 37  1  0  0  0  0
 35 41  1  0  0  0  0
 37 38  1  0  0  0  0
 37 39  1  0  0  0  0
 37 40  1  0  0  0  0
 41 42  1  0  0  0  0
 43 44  2  0  0  0  0
 45 46  2  0  0  0  0
 47 48  2  0  0  0  0
 49 50  1  0  0  0  0
 50 54  1  0  0  0  0
 50 51  1  0  0  0  0
 51 52  2  0  0  0  0
 52 53  1  0  0  0  0
 53 54  2  0  0  0  0
M  END
> <Index>
1697

> <ID>
HT1713

> <class>
1

> <apol>
106.24731

> <ast_fraglike>
0

> <ast_fraglike_ext>
0

> <ast_violation>
3

> <ast_violation_ext>
4

> <a_acc>
7

> <a_acid>
0

> <a_aro>
23

> <a_base>
0

> <a_count>
93

> <a_don>
1

> <a_donacc>
8

> <a_heavy>
51

> <a_hyd>
35

> <a_IC>
154.91466

> <a_ICM>
1.6657491

> <a_nB>
0

> <a_nBr>
0

> <a_nC>
37

> <a_nCl>
0

> <a_nF>
2

> <a_nH>
42

> <a_nI>
0

> <a_nN>
8

> <a_nO>
4

> <a_nP>
0

> <a_nS>
0

> <balabanJ>
0.80424327

> <BCUT_PEOE_0>
-2.7236185

> <BCUT_PEOE_1>
-0.59180701

> <BCUT_PEOE_2>
0.61465985

> <BCUT_PEOE_3>
2.7741082

> <BCUT_SLOGP_0>
-2.8536103

> <BCUT_SLOGP_1>
-0.51732117

> <BCUT_SLOGP_2>
0.69564408

> <BCUT_SLOGP_3>
2.8289065

> <BCUT_SMR_0>
-2.4150679

> <BCUT_SMR_1>
-0.42369059

> <BCUT_SMR_2>
0.80123514

> <BCUT_SMR_3>
2.9976499

> <bpol>
64.330696

> <b_1rotN>
12

> <b_1rotR>
0.21052632

> <b_ar>
23

> <b_count>
99

> <b_double>
2

> <b_heavy>
57

> <b_max1len>
6

> <b_rotN>
12

> <b_rotR>
0.21052632

> <b_single>
74

> <b_triple>
0

> <chi0>
35.536594

> <chi0v>
28.684511

> <chi0v_C>
22.678915

> <chi0_C>
25.114309

> <chi1>
24.724316

> <chi1v>
17.32111

> <chi1v_C>
10.588658

> <chi1_C>
12.978878

> <chiral>
4

> <chiral_u>
0

> <density>
0.76095009

> <diameter>
27

> <FCharge>
0

> <GCUT_PEOE_0>
-0.8361401

> <GCUT_PEOE_1>
-0.41080016

> <GCUT_PEOE_2>
0.024420949

> <GCUT_PEOE_3>
2.9499462

> <GCUT_SLOGP_0>
-1.0171026

> <GCUT_SLOGP_1>
-0.3165257

> <GCUT_SLOGP_2>
0.13302611

> <GCUT_SLOGP_3>
3.0131724

> <GCUT_SMR_0>
-0.52888173

> <GCUT_SMR_1>
-0.21587457

> <GCUT_SMR_2>
0.18731943

> <GCUT_SMR_3>
3.20945

> <Kier1>
39.242844

> <Kier2>
17.853956

> <Kier3>
9.1836739

> <KierA1>
29.614786

> <KierA2>
13.39311

> <KierA3>
6.860064

> <KierFlex>
7.7771392

> <lip_acc>
12

> <lip_don>
1

> <lip_druglike>
0

> <lip_violation>
3

> <logP(o/w)>
4.7690001

> <logS>
-7.57165

> <mr>
18.841782

> <mutagenic>
0

> <nmol>
1

> <opr_brigid>
39

> <opr_leadlike>
0

> <opr_nring>
7

> <opr_nrot>
15

> <opr_violation>
5

> <PC+>
0

> <PC->
0

> <PEOE_PC+>
4.0595207

> <PEOE_PC->
-4.0595207

> <PEOE_RPC+>
0.086556032

> <PEOE_RPC->
0.096059777

> <PEOE_VSA+0>
161.67418

> <PEOE_VSA+1>
147.34621

> <PEOE_VSA+2>
94.54863

> <PEOE_VSA+3>
0.0

> <PEOE_VSA+4>
10.324173

> <PEOE_VSA+5>
0.0

> <PEOE_VSA+6>
17.440542

> <PEOE_VSA-0>
146.44444

> <PEOE_VSA-1>
31.002581

> <PEOE_VSA-2>
0.0

> <PEOE_VSA-3>
18.842079

> <PEOE_VSA-4>
43.066769

> <PEOE_VSA-5>
0.0

> <PEOE_VSA-6>
12.775052

> <PEOE_VSA_FHYD>
0.87767249

> <PEOE_VSA_FNEG>
0.36890119

> <PEOE_VSA_FPNEG>
0.081704035

> <PEOE_VSA_FPOL>
0.12232752

> <PEOE_VSA_FPOS>
0.63109881

> <PEOE_VSA_FPPOS>
0.040623482

> <PEOE_VSA_HYD>
599.85809

> <PEOE_VSA_NEG>
252.13092

> <PEOE_VSA_PNEG>
55.84182

> <PEOE_VSA_POL>
83.606537

> <PEOE_VSA_POS>
431.33374

> <PEOE_VSA_PPOS>
27.764715

> <petitjean>
0.48148149

> <petitjeanSC>
0.9285714

> <Q_PC+>
0

> <Q_PC->
0

> <Q_RPC+>
0

> <Q_RPC->
0

> <Q_VSA_FHYD>
1

> <Q_VSA_FNEG>
0

> <Q_VSA_FPNEG>
0

> <Q_VSA_FPOL>
0

> <Q_VSA_FPOS>
1

> <Q_VSA_FPPOS>
0

> <Q_VSA_HYD>
683.46466

> <Q_VSA_NEG>
0

> <Q_VSA_PNEG>
0

> <Q_VSA_POL>
0

> <Q_VSA_POS>
683.46466

> <Q_VSA_PPOS>
0

> <radius>
14

> <reactive>
0

> <rings>
7

> <RPC+>
0

> <RPC->
0

> <rsynth>
0.60784316

> <SlogP>
5.8165002

> <SlogP_VSA0>
45.758057

> <SlogP_VSA1>
43.056854

> <SlogP_VSA2>
56.478073

> <SlogP_VSA3>
115.61083

> <SlogP_VSA4>
7.5963712

> <SlogP_VSA5>
16.663008

> <SlogP_VSA6>
0.0

> <SlogP_VSA7>
227.64609

> <SlogP_VSA8>
37.736813

> <SlogP_VSA9>
152.38773

> <SMR>
18.92098

> <SMR_VSA0>
34.862103

> <SMR_VSA1>
121.19525

> <SMR_VSA2>
32.025772

> <SMR_VSA3>
18.879622

> <SMR_VSA4>
8.2702427

> <SMR_VSA5>
283.82248

> <SMR_VSA6>
120.44079

> <SMR_VSA7>
83.437561

> <TPSA>
111.79

> <VAdjEq>
0.25958195

> <VAdjMa>
6.83289

> <VDistEq>
4.5890093

> <VDistMa>
10.993138

> <vdw_area>
683.46466

> <vdw_vol>
920.94214

> <vsa_acc>
43.099087

> <vsa_acid>
0

> <vsa_base>
0

> <vsa_don>
0.0

> <vsa_hyd>
499.93311

> <vsa_other>
91.812096

> <vsa_pol>
56.666008

> <Weight>
700.79095

> <weinerPath>
13566

> <weinerPol>
85

> <zagreb>
278

$$$$
Row1697
 OpenBabel06061811532D

 38 39  0  0  1  0  0  0  0  0999 V2000
    0.0000    0.0000    0.0000 O   0  0  0  0  0  0  0  0  0  0  0  0
    0.0000    0.0000    0.0000 C   0  0  0  0  0  0  0  0  0  0  0  0
    0.0000    0.0000    0.0000 O   0  0  0  0  0  0  0  0  0  0  0  0
    0.0000    0.0000    0.0000 C   0  0  2  0  0  0  0  0  0  0  0  0
    0.0000    0.0000    0.0000 H   0  0  0  0  0  0  0  0  0  0  0  0
    0.0000    0.0000    0.0000 C   0  0  0  0  0  0  0  0  0  0  0  0
    0.0000    0.0000    0.0000 C   0  0  0  0  0  0  0  0  0  0  0  0
    0.0000    0.0000    0.0000 C   0  0  0  0  0  0  0  0  0  0  0  0
    0.0000    0.0000    0.0000 C   0  0  2  0  0  0  0  0  0  0  0  0
    0.0000    0.0000    0.0000 H   0  0  0  0  0  0  0  0  0  0  0  0
    0.0000    0.0000    0.0000 C   0  0  1  0  0  0  0  0  0  0  0  0
    0.0000    0.0000    0.0000 H   0  0  0  0  0  0  0  0  0  0  0  0
    0.0000    0.0000    0.0000 C   0  0  0  0  0  0  0  0  0  0  0  0
    0.0000    0.0000    0.0000 C   0  0  0  0  0  0  0  0  0  0  0  0
    0.0000    0.0000    0.0000 C   0  0  1  0  0  0  0  0  0  0  0  0
    0.0000    0.0000    0.0000 H   0  0  0  0  0  0  0  0  0  0  0  0
    0.0000    0.0000    0.0000 O   0  0  0  0  0  0  0  0  0  0  0  0
    0.0000    0.0000    0.0000 C   0  0  0  0  0  0  0  0  0  0  0  0
    0.0000    0.0000    0.0000 C   0  0  0  0  0  0  0  0  0  0  0  0
    0.0000    0.0000    0.0000 C   0  0  0  0  0  0  0  0  0  0  0  0
    0.0000    0.0000    0.0000 C   0  0  2  0  0  0  0  0  0  0  0  0
    0.0000    0.0000    0.0000 H   0  0  0  0  0  0  0  0  0  0  0  0
    0.0000    0.0000    0.0000 C   0  0  0  0  0  0  0  0  0  0  0  0
    0.0000    0.0000    0.0000 C   0  0  2  0  0  0  0  0  0  0  0  0
    0.0000    0.0000    0.0000 H   0  0  0  0  0  0  0  0  0  0  0  0
    0.0000    0.0000    0.0000 C   0  0  0  0  0  0  0  0  0  0  0  0
    0.0000    0.0000    0.0000 C   0  0  0  0  0  0  0  0  0  0  0  0
    0.0000    0.0000    0.0000 C   0  0  1  0  0  0  0  0  0  0  0  0
    0.0000    0.0000    0.0000 H   0  0  0  0  0  0  0  0  0  0  0  0
    0.0000    0.0000    0.0000 O   0  0  0  0  0  0  0  0  0  0  0  0
    0.0000    0.0000    0.0000 C   0  0  0  0  0  0  0  0  0  0  0  0
    0.0000    0.0000    0.0000 C   0  0  1  0  0  0  0  0  0  0  0  0
    0.0000    0.0000    0.0000 H   0  0  0  0  0  0  0  0  0  0  0  0
    0.0000    0.0000    0.0000 O   0  0  0  0  0  0  0  0  0  0  0  0
    0.0000    0.0000    0.0000 C   0  0  0  0  0  0  0  0  0  0  0  0
    0.0000    0.0000    0.0000 C   0  0  0  0  0  0  0  0  0  0  0  0
    0.0000    0.0000    0.0000 O   0  0  0  0  0  0  0  0  0  0  0  0
    0.0000    0.0000    0.0000 O   0  0  0  0  0  0  0  0  0  0  0  0
  1  2  1  0  0  0  0
  1  9  1  0  0  0  0
  2  3  2  0  0  0  0
  2  4  1  0  0  0  0
  4  5  1  0  0  0  0
  4  6  1  0  0  0  0
  4  8  1  0  0  0  0
  6  7  1  0  0  0  0
  9 10  1  0  0  0  0
  9 18  1  0  0  0  0
  9 11  1  0  0  0  0
 11 12  1  0  0  0  0
 11 24  1  0  0  0  0
 11 13  1  0  0  0  0
 13 14  2  0  0  0  0
 13 19  1  0  0  0  0
 14 15  1  0  0  0  0
 15 16  1  0  0  0  0
 15 17  1  0  0  0  0
 15 18  1  0  0  0  0
 19 20  2  0  0  0  0
 20 21  1  0  0  0  0
 21 22  1  0  0  0  0
 21 23  1  0  0  0  0
 21 24  1  0  0  0  0
 24 25  1  0  0  0  0
 24 26  1  0  0  0  0
 26 27  1  0  0  0  0
 27 28  1  0  0  0  0
 28 29  1  0  0  0  0
 28 30  1  0  0  0  0
 28 31  1  0  0  0  0
 31 32  1  0  0  0  0
 32 33  1  0  0  0  0
 32 34  1  0  0  0  0
 32 35  1  0  0  0  0
 35 36  1  0  0  0  0
 36 37  1  0  0  0  0
 36 38  2  0  0  0  0
M  END
> <Index>
1698

> <ID>
HT1725

> <class>
1

> <apol>
70.098549

> <ast_fraglike>
0

> <ast_fraglike_ext>
0

> <ast_violation>
3

> <ast_violation_ext>
5

> <a_acc>
6

> <a_acid>
0

> <a_aro>
0

> <a_base>
0

> <a_count>
66

> <a_don>
5

> <a_donacc>
11

> <a_heavy>
30

> <a_hyd>
21

> <a_IC>
89.119301

> <a_ICM>
1.3502924

> <a_nB>
0

> <a_nBr>
0

> <a_nC>
23

> <a_nCl>
0

> <a_nF>
0

> <a_nH>
36

> <a_nI>
0

> <a_nN>
0

> <a_nO>
7

> <a_nP>
0

> <a_nS>
0

> <balabanJ>
2.0272918

> <BCUT_PEOE_0>
-2.8123527

> <BCUT_PEOE_1>
-0.5044778

> <BCUT_PEOE_2>
0.57045209

> <BCUT_PEOE_3>
2.7971015

> <BCUT_SLOGP_0>
-2.7886941

> <BCUT_SLOGP_1>
-0.49274439

> <BCUT_SLOGP_2>
0.50136971

> <BCUT_SLOGP_3>
2.8411405

> <BCUT_SMR_0>
-2.5655258

> <BCUT_SMR_1>
-0.37418911

> <BCUT_SMR_2>
0.64911854

> <BCUT_SMR_3>
3.0439956

> <bpol>
43.18745

> <b_1rotN>
10

> <b_1rotR>
0.32258064

> <b_ar>
0

> <b_count>
67

> <b_double>
4

> <b_heavy>
31

> <b_max1len>
8

> <b_rotN>
11

> <b_rotR>
0.3548387

> <b_single>
63

> <b_triple>
0

> <chi0>
22.421921

> <chi0v>
18.107094

> <chi0v_C>
15.093493

> <chi0_C>
15.714814

> <chi1>
14.1163

> <chi1v>
10.982326

> <chi1v_C>
9.1360474

> <chi1_C>
9.8357019

> <chiral>
8

> <chiral_u>
0

> <density>
0.72783977

> <diameter>
15

> <FCharge>
0

> <GCUT_PEOE_0>
-0.80119032

> <GCUT_PEOE_1>
-0.37126336

> <GCUT_PEOE_2>
0.077567019

> <GCUT_PEOE_3>
3.0681729

> <GCUT_SLOGP_0>
-0.87859064

> <GCUT_SLOGP_1>
-0.32501093

> <GCUT_SLOGP_2>
0.047571465

> <GCUT_SLOGP_3>
3.1146152

> <GCUT_SMR_0>
-0.53408223

> <GCUT_SMR_1>
-0.22453214

> <GCUT_SMR_2>
0.15219538

> <GCUT_SMR_3>
3.2935486

> <Kier1>
26.253902

> <Kier2>
12.296376

> <Kier3>
7.8284025

> <KierA1>
23.359274

> <KierA2>
10.894678

> <KierA3>
6.915381

> <KierFlex>
8.4830589

> <lip_acc>
7

> <lip_don>
4

> <lip_druglike>
1

> <lip_violation>
0

> <logP(o/w)>
2.427

> <logS>
-2.8643601

> <mr>
11.272814

> <mutagenic>
0

> <nmol>
1

> <opr_brigid>
11

> <opr_leadlike>
1

> <opr_nring>
2

> <opr_nrot>
10

> <opr_violation>
0

> <PC+>
0

> <PC->
0

> <PEOE_PC+>
2.9229133

> <PEOE_PC->
-2.9229133

> <PEOE_RPC+>
0.090755977

> <PEOE_RPC->
0.13401021

> <PEOE_VSA+0>
115.33596

> <PEOE_VSA+1>
58.17873

> <PEOE_VSA+2>
0.0

> <PEOE_VSA+3>
0.0

> <PEOE_VSA+4>
41.296692

> <PEOE_VSA+5>
29.416998

> <PEOE_VSA+6>
0.0

> <PEOE_VSA-0>
37.013794

> <PEOE_VSA-1>
93.007744

> <PEOE_VSA-2>
0.0

> <PEOE_VSA-3>
0.0

> <PEOE_VSA-4>
0.0

> <PEOE_VSA-5>
27.133842

> <PEOE_VSA-6>
33.573917

> <PEOE_VSA_FHYD>
0.69785231

> <PEOE_VSA_FNEG>
0.43850082

> <PEOE_VSA_FPNEG>
0.13957165

> <PEOE_VSA_FPOL>
0.30214766

> <PEOE_VSA_FPOS>
0.56149918

> <PEOE_VSA_FPPOS>
0.16257602

> <PEOE_VSA_HYD>
303.53622

> <PEOE_VSA_NEG>
190.72929

> <PEOE_VSA_PNEG>
60.70776

> <PEOE_VSA_POL>
131.42145

> <PEOE_VSA_POS>
244.22838

> <PEOE_VSA_PPOS>
70.713692

> <petitjean>
0.46666667

> <petitjeanSC>
0.875

> <Q_PC+>
0

> <Q_PC->
0

> <Q_RPC+>
0

> <Q_RPC->
0

> <Q_VSA_FHYD>
1

> <Q_VSA_FNEG>
0

> <Q_VSA_FPNEG>
0

> <Q_VSA_FPOL>
0

> <Q_VSA_FPOS>
1

> <Q_VSA_FPPOS>
0

> <Q_VSA_HYD>
434.95767

> <Q_VSA_NEG>
0

> <Q_VSA_PNEG>
0

> <Q_VSA_POL>
0

> <Q_VSA_POS>
434.95767

> <Q_VSA_PPOS>
0

> <radius>
8

> <reactive>
0

> <rings>
2

> <RPC+>
0

> <RPC->
0

> <rsynth>
0.46666667

> <SlogP>
2.4403999

> <SlogP_VSA0>
76.155678

> <SlogP_VSA1>
15.490929

> <SlogP_VSA2>
84.598915

> <SlogP_VSA3>
25.385227

> <SlogP_VSA4>
17.643185

> <SlogP_VSA5>
3.185575

> <SlogP_VSA6>
0.0

> <SlogP_VSA7>
52.929554

> <SlogP_VSA8>
113.21043

> <SlogP_VSA9>
99.978043

> <SMR>
11.14432

> <SMR_VSA0>
58.724319

> <SMR_VSA1>
76.155678

> <SMR_VSA2>
43.028412

> <SMR_VSA3>
29.060171

> <SMR_VSA4>
0.0

> <SMR_VSA5>
166.13998

> <SMR_VSA6>
15.490929

> <SMR_VSA7>
99.978043

> <TPSA>
124.29

> <VAdjEq>
0.36176345

> <VAdjMa>
5.9541965

> <VDistEq>
3.6544888

> <VDistMa>
9.53158

> <vdw_area>
434.95767

> <vdw_vol>
583.27948

> <vsa_acc>
13.566921

> <vsa_acid>
0

> <vsa_base>
0

> <vsa_don>
0.0

> <vsa_hyd>
275.37857

> <vsa_other>
31.920755

> <vsa_pol>
81.401527

> <Weight>
424.534

> <weinerPath>
2600

> <weinerPol>
46

> <zagreb>
148

$$$$
Row1698
 OpenBabel06061811532D

 12 11  0  0  1  0  0  0  0  0999 V2000
    0.0000    0.0000    0.0000 O   0  0  0  0  0  0  0  0  0  0  0  0
    0.0000    0.0000    0.0000 C   0  0  0  0  0  0  0  0  0  0  0  0
    0.0000    0.0000    0.0000 O   0  0  0  0  0  0  0  0  0  0  0  0
    0.0000    0.0000    0.0000 C   0  0  0  0  0  0  0  0  0  0  0  0
    0.0000    0.0000    0.0000 C   0  0  2  0  0  0  0  0  0  0  0  0
    0.0000    0.0000    0.0000 H   0  0  0  0  0  0  0  0  0  0  0  0
    0.0000    0.0000    0.0000 C   0  0  0  0  0  0  0  0  0  0  0  0
    0.0000    0.0000    0.0000 C   0  0  0  0  0  0  0  0  0  0  0  0
    0.0000    0.0000    0.0000 C   0  0  0  0  0  0  0  0  0  0  0  0
    0.0000    0.0000    0.0000 C   0  0  0  0  0  0  0  0  0  0  0  0
    0.0000    0.0000    0.0000 C   0  0  0  0  0  0  0  0  0  0  0  0
    0.0000    0.0000    0.0000 N   0  0  0  0  0  0  0  0  0  0  0  0
  1  2  1  0  0  0  0
  2  3  2  0  0  0  0
  2  4  1  0  0  0  0
  4  5  1  0  0  0  0
  5  6  1  0  0  0  0
  5  7  1  0  0  0  0
  5 11  1  0  0  0  0
  7  8  1  0  0  0  0
  8  9  1  0  0  0  0
  8 10  1  0  0  0  0
 11 12  1  0  0  0  0
M  END
> <Index>
1699

> <ID>
HT1735

> <class>
1

> <apol>
28.11948

> <ast_fraglike>
1

> <ast_fraglike_ext>
0

> <ast_violation>
0

> <ast_violation_ext>
1

> <a_acc>
3

> <a_acid>
0

> <a_aro>
0

> <a_base>
0

> <a_count>
28

> <a_don>
3

> <a_donacc>
6

> <a_heavy>
11

> <a_hyd>
7

> <a_IC>
39.119068

> <a_ICM>
1.3971096

> <a_nB>
0

> <a_nBr>
0

> <a_nC>
8

> <a_nCl>
0

> <a_nF>
0

> <a_nH>
17

> <a_nI>
0

> <a_nN>
1

> <a_nO>
2

> <a_nP>
0

> <a_nS>
0

> <balabanJ>
3.5875888

> <BCUT_PEOE_0>
-2.7248845

> <BCUT_PEOE_1>
-0.49671191

> <BCUT_PEOE_2>
0.44155261

> <BCUT_PEOE_3>
2.6854601

> <BCUT_SLOGP_0>
-2.7511256

> <BCUT_SLOGP_1>
-0.43133673

> <BCUT_SLOGP_2>
0.39234358

> <BCUT_SLOGP_3>
2.7558873

> <BCUT_SMR_0>
-2.4776752

> <BCUT_SMR_1>
-0.30051509

> <BCUT_SMR_2>
0.57241631

> <BCUT_SMR_3>
2.9301648

> <bpol>
18.882519

> <b_1rotN>
5

> <b_1rotR>
0.5

> <b_ar>
0

> <b_count>
27

> <b_double>
1

> <b_heavy>
10

> <b_max1len>
7

> <b_rotN>
5

> <b_rotR>
0.5

> <b_single>
26

> <b_triple>
0

> <chi0>
8.8533716

> <chi0v>
7.2088332

> <chi0v_C>
5.776021

> <chi0_C>
5.8533711

> <chi1>
5.0577493

> <chi1v>
3.9772263

> <chi1v_C>
3.141247

> <chi1_C>
3.1959419

> <chiral>
1

> <chiral_u>
0

> <density>
0.68133384

> <diameter>
6

> <FCharge>
0

> <GCUT_PEOE_0>
-0.8398062

> <GCUT_PEOE_1>
-0.35183495

> <GCUT_PEOE_2>
0.04942511

> <GCUT_PEOE_3>
2.4647722

> <GCUT_SLOGP_0>
-1.3634577

> <GCUT_SLOGP_1>
-0.26831025

> <GCUT_SLOGP_2>
0.054200001

> <GCUT_SLOGP_3>
2.5136747

> <GCUT_SMR_0>
-0.53366315

> <GCUT_SMR_1>
-0.20505336

> <GCUT_SMR_2>
0.15005709

> <GCUT_SMR_3>
2.6782756

> <Kier1>
11.0

> <Kier2>
5.625

> <Kier3>
6.4000001

> <KierA1>
10.06763

> <KierA2>
5.0985627

> <KierA3>
5.7511301

> <KierFlex>
4.6664038

> <lip_acc>
3

> <lip_don>
3

> <lip_druglike>
1

> <lip_violation>
0

> <logP(o/w)>
1.0089999

> <logS>
-1.10886

> <mr>
4.4764237

> <mutagenic>
0

> <nmol>
1

> <opr_brigid>
0

> <opr_leadlike>
1

> <opr_nring>
0

> <opr_nrot>
5

> <opr_violation>
0

> <PC+>
0

> <PC->
0

> <PEOE_PC+>
1.167207

> <PEOE_PC->
-1.167207

> <PEOE_RPC+>
0.222664

> <PEOE_RPC->
0.28380585

> <PEOE_VSA+0>
68.416718

> <PEOE_VSA+1>
0.0

> <PEOE_VSA+2>
17.238026

> <PEOE_VSA+3>
0.0

> <PEOE_VSA+4>
10.324173

> <PEOE_VSA+5>
14.708499

> <PEOE_VSA+6>
0.0

> <PEOE_VSA-0>
21.893639

> <PEOE_VSA-1>
37.495354

> <PEOE_VSA-2>
0.0

> <PEOE_VSA-3>
0.0

> <PEOE_VSA-4>
0.0

> <PEOE_VSA-5>
13.566921

> <PEOE_VSA-6>
14.418659

> <PEOE_VSA_FHYD>
0.73231483

> <PEOE_VSA_FNEG>
0.44114763

> <PEOE_VSA_FPNEG>
0.14129707

> <PEOE_VSA_FPOL>
0.26768515

> <PEOE_VSA_FPOS>
0.55885237

> <PEOE_VSA_FPPOS>
0.12638807

> <PEOE_VSA_HYD>
145.04373

> <PEOE_VSA_NEG>
87.374573

> <PEOE_VSA_PNEG>
27.98558

> <PEOE_VSA_POL>
53.018253

> <PEOE_VSA_POS>
110.68742

> <PEOE_VSA_PPOS>
25.032671

> <petitjean>
0.5

> <petitjeanSC>
1.0

> <Q_PC+>
0

> <Q_PC->
0

> <Q_RPC+>
0

> <Q_RPC->
0

> <Q_VSA_FHYD>
1

> <Q_VSA_FNEG>
0

> <Q_VSA_FPNEG>
0

> <Q_VSA_FPOL>
0

> <Q_VSA_FPOS>
1

> <Q_VSA_FPPOS>
0

> <Q_VSA_HYD>
198.062

> <Q_VSA_NEG>
0

> <Q_VSA_PNEG>
0

> <Q_VSA_POL>
0

> <Q_VSA_POS>
198.062

> <Q_VSA_PPOS>
0

> <radius>
3

> <reactive>
0

> <rings>
0

> <RPC+>
0

> <RPC->
0

> <rsynth>
0.0

> <SlogP>
1.0821

> <SlogP_VSA0>
32.897186

> <SlogP_VSA1>
7.7454643

> <SlogP_VSA2>
23.862217

> <SlogP_VSA3>
43.824806

> <SlogP_VSA4>
8.8215923

> <SlogP_VSA5>
0.0

> <SlogP_VSA6>
0.0

> <SlogP_VSA7>
0.0

> <SlogP_VSA8>
37.736813

> <SlogP_VSA9>
66.652031

> <SMR>
4.42522

> <SMR_VSA0>
23.862217

> <SMR_VSA1>
0.0

> <SMR_VSA2>
34.206818

> <SMR_VSA3>
0.0

> <SMR_VSA4>
32.897186

> <SMR_VSA5>
37.736813

> <SMR_VSA6>
26.185041

> <SMR_VSA7>
66.652031

> <TPSA>
63.32

> <VAdjEq>
0.64681429

> <VAdjMa>
4.321928

> <VDistEq>
2.5175078

> <VDistMa>
6.5979791

> <vdw_area>
198.062

> <vdw_vol>
233.70189

> <vsa_acc>
0.0

> <vsa_acid>
0

> <vsa_base>
0

> <vsa_don>
0.0

> <vsa_hyd>
115.15047

> <vsa_other>
14.708499

> <vsa_pol>
44.876331

> <Weight>
159.229

> <weinerPath>
172

> <weinerPol>
10

> <zagreb>
44

$$$$
Row1699
 OpenBabel06061811532D

 17 17  0  0  0  0  0  0  0  0999 V2000
    0.0000    0.0000    0.0000 O   0  0  0  0  0  0  0  0  0  0  0  0
    0.0000    0.0000    0.0000 C   0  0  0  0  0  0  0  0  0  0  0  0
    0.0000    0.0000    0.0000 N   0  0  0  0  0  0  0  0  0  0  0  0
    0.0000    0.0000    0.0000 C   0  0  0  0  0  0  0  0  0  0  0  0
    0.0000    0.0000    0.0000 C   0  0  0  0  0  0  0  0  0  0  0  0
    0.0000    0.0000    0.0000 N   0  0  0  0  0  0  0  0  0  0  0  0
    0.0000    0.0000    0.0000 C   0  0  0  0  0  0  0  0  0  0  0  0
    0.0000    0.0000    0.0000 C   0  0  0  0  0  0  0  0  0  0  0  0
    0.0000    0.0000    0.0000 C   0  0  0  0  0  0  0  0  0  0  0  0
    0.0000    0.0000    0.0000 C   0  0  0  0  0  0  0  0  0  0  0  0
    0.0000    0.0000    0.0000 C   0  0  0  0  0  0  0  0  0  0  0  0
    0.0000    0.0000    0.0000 C   0  0  0  0  0  0  0  0  0  0  0  0
    0.0000    0.0000    0.0000 C   0  0  0  0  0  0  0  0  0  0  0  0
    0.0000    0.0000    0.0000 C   0  0  0  0  0  0  0  0  0  0  0  0
    0.0000    0.0000    0.0000 N   0  0  0  0  0  0  0  0  0  0  0  0
    0.0000    0.0000    0.0000 C   0  0  0  0  0  0  0  0  0  0  0  0
    0.0000    0.0000    0.0000 C   0  0  0  0  0  0  0  0  0  0  0  0
  1  2  2  0  0  0  0
  2  3  1  0  0  0  0
  2 11  1  0  0  0  0
  3  4  1  0  0  0  0
  4  5  1  0  0  0  0
  5  6  1  0  0  0  0
  6  7  1  0  0  0  0
  6  9  1  0  0  0  0
  7  8  1  0  0  0  0
  9 10  1  0  0  0  0
 11 17  1  0  0  0  0
 11 12  2  0  0  0  0
 12 13  1  0  0  0  0
 13 14  2  0  0  0  0
 14 15  1  0  0  0  0
 14 16  1  0  0  0  0
 16 17  2  0  0  0  0
M  END
> <Index>
1700

> <ID>
HT1743

> <class>
1

> <apol>
40.984653

> <ast_fraglike>
1

> <ast_fraglike_ext>
0

> <ast_violation>
0

> <ast_violation_ext>
1

> <a_acc>
2

> <a_acid>
0

> <a_aro>
6

> <a_base>
0

> <a_count>
38

> <a_don>
2

> <a_donacc>
4

> <a_heavy>
17

> <a_hyd>
12

> <a_IC>
54.321976

> <a_ICM>
1.4295257

> <a_nB>
0

> <a_nBr>
0

> <a_nC>
13

> <a_nCl>
0

> <a_nF>
0

> <a_nH>
21

> <a_nI>
0

> <a_nN>
3

> <a_nO>
1

> <a_nP>
0

> <a_nS>
0

> <balabanJ>
2.1465437

> <BCUT_PEOE_0>
-2.6817992

> <BCUT_PEOE_1>
-0.40610373

> <BCUT_PEOE_2>
0.42364374

> <BCUT_PEOE_3>
2.5743592

> <BCUT_SLOGP_0>
-2.7912099

> <BCUT_SLOGP_1>
-0.36462581

> <BCUT_SLOGP_2>
0.47903585

> <BCUT_SLOGP_3>
2.5195312

> <BCUT_SMR_0>
-2.3993087

> <BCUT_SMR_1>
-0.22343829

> <BCUT_SMR_2>
0.53341007

> <BCUT_SMR_3>
2.8483789

> <bpol>
25.895348

> <b_1rotN>
6

> <b_1rotR>
0.35294119

> <b_ar>
6

> <b_count>
38

> <b_double>
1

> <b_heavy>
17

> <b_max1len>
7

> <b_rotN>
7

> <b_rotR>
0.41176471

> <b_single>
31

> <b_triple>
0

> <chi0>
12.673362

> <chi0v>
10.570641

> <chi0v_C>
8.6378279

> <chi0_C>
9.3889055

> <chi1>
8.1682339

> <chi1v>
6.0306168

> <chi1v_C>
3.9855807

> <chi1_C>
4.8805399

> <chiral>
0

> <chiral_u>
0

> <density>
0.67253882

> <diameter>
11

> <FCharge>
0

> <GCUT_PEOE_0>
-0.85719353

> <GCUT_PEOE_1>
-0.35522172

> <GCUT_PEOE_2>
0.042663749

> <GCUT_PEOE_3>
2.4527864

> <GCUT_SLOGP_0>
-1.3342881

> <GCUT_SLOGP_1>
-0.28060645

> <GCUT_SLOGP_2>
0.12770256

> <GCUT_SLOGP_3>
2.4496102

> <GCUT_SMR_0>
-0.52159607

> <GCUT_SMR_1>
-0.17173162

> <GCUT_SMR_2>
0.12152483

> <GCUT_SMR_3>
2.7079611

> <Kier1>
15.058824

> <Kier2>
8.1632652

> <Kier3>
5.4444447

> <KierA1>
11.460001

> <KierA2>
6.0970321

> <KierA3>
4.0058651

> <KierFlex>
4.1101174

> <lip_acc>
4

> <lip_don>
3

> <lip_druglike>
1

> <lip_violation>
0

> <logP(o/w)>
1.092

> <logS>
-1.8042001

> <mr>
6.9914727

> <mutagenic>
1

> <nmol>
1

> <opr_brigid>
6

> <opr_leadlike>
1

> <opr_nring>
1

> <opr_nrot>
6

> <opr_violation>
0

> <PC+>
0

> <PC->
0

> <PEOE_PC+>
1.5170298

> <PEOE_PC->
-1.5170298

> <PEOE_RPC+>
0.16617122

> <PEOE_RPC->
0.23121721

> <PEOE_VSA+0>
95.008148

> <PEOE_VSA+1>
17.061544

> <PEOE_VSA+2>
17.238026

> <PEOE_VSA+3>
8.6190128

> <PEOE_VSA+4>
0.0

> <PEOE_VSA+5>
12.949531

> <PEOE_VSA+6>
0.0

> <PEOE_VSA-0>
75.404266

> <PEOE_VSA-1>
37.495354

> <PEOE_VSA-2>
0.0

> <PEOE_VSA-3>
0.0

> <PEOE_VSA-4>
0.0

> <PEOE_VSA-5>
13.566921

> <PEOE_VSA-6>
6.7880106

> <PEOE_VSA_FHYD>
0.88278478

> <PEOE_VSA_FNEG>
0.46899015

> <PEOE_VSA_FPNEG>
0.071639299

> <PEOE_VSA_FPOL>
0.11721525

> <PEOE_VSA_FPOS>
0.53100985

> <PEOE_VSA_FPPOS>
0.045575947

> <PEOE_VSA_HYD>
250.82635

> <PEOE_VSA_NEG>
133.25455

> <PEOE_VSA_PNEG>
20.354931

> <PEOE_VSA_POL>
33.304462

> <PEOE_VSA_POS>
150.87625

> <PEOE_VSA_PPOS>
12.949531

> <petitjean>
0.45454547

> <petitjeanSC>
0.83333331

> <Q_PC+>
0

> <Q_PC->
0

> <Q_RPC+>
0

> <Q_RPC->
0

> <Q_VSA_FHYD>
1

> <Q_VSA_FNEG>
0

> <Q_VSA_FPNEG>
0

> <Q_VSA_FPOL>
0

> <Q_VSA_FPOS>
1

> <Q_VSA_FPPOS>
0

> <Q_VSA_HYD>
284.1308

> <Q_VSA_NEG>
0

> <Q_VSA_PNEG>
0

> <Q_VSA_POL>
0

> <Q_VSA_POS>
284.1308

> <Q_VSA_PPOS>
0

> <radius>
6

> <reactive>
0

> <rings>
1

> <RPC+>
0

> <RPC->
0

> <rsynth>
1.0

> <SlogP>
1.3404

> <SlogP_VSA0>
50.90794

> <SlogP_VSA1>
8.3830976

> <SlogP_VSA2>
0.0

> <SlogP_VSA3>
73.758316

> <SlogP_VSA4>
27.047791

> <SlogP_VSA5>
0.0

> <SlogP_VSA6>
0.0

> <SlogP_VSA7>
70.572739

> <SlogP_VSA8>
0.0

> <SlogP_VSA9>
69.408775

> <SMR>
7.0975599

> <SMR_VSA0>
23.862217

> <SMR_VSA1>
3.1243138

> <SMR_VSA2>
18.01075

> <SMR_VSA3>
3.185575

> <SMR_VSA4>
2.7567475

> <SMR_VSA5>
103.46992

> <SMR_VSA6>
79.017097

> <SMR_VSA7>
66.652031

> <TPSA>
58.360001

> <VAdjEq>
0.52255934

> <VAdjMa>
5.0874629

> <VDistEq>
3.2634485

> <VDistMa>
7.8330927

> <vdw_area>
284.1308

> <vdw_vol>
349.91437

> <vsa_acc>
13.566921

> <vsa_acid>
0

> <vsa_base>
0

> <vsa_don>
23.425066

> <vsa_hyd>
212.157

> <vsa_other>
12.949531

> <vsa_pol>
36.991985

> <Weight>
235.33099

> <weinerPath>
618

> <weinerPol>
21

> <zagreb>
76

$$$$
Row1700
 OpenBabel06061811532D

 25 28  0  0  0  0  0  0  0  0999 V2000
    0.0000    0.0000    0.0000 Cl  0  0  0  0  0  0  0  0  0  0  0  0
    0.0000    0.0000    0.0000 C   0  0  0  0  0  0  0  0  0  0  0  0
    0.0000    0.0000    0.0000 C   0  0  0  0  0  0  0  0  0  0  0  0
    0.0000    0.0000    0.0000 C   0  0  0  0  0  0  0  0  0  0  0  0
    0.0000    0.0000    0.0000 N   0  0  0  0  0  0  0  0  0  0  0  0
    0.0000    0.0000    0.0000 C   0  0  0  0  0  0  0  0  0  0  0  0
    0.0000    0.0000    0.0000 C   0  0  0  0  0  0  0  0  0  0  0  0
    0.0000    0.0000    0.0000 S   0  0  0  0  0  0  0  0  0  0  0  0
    0.0000    0.0000    0.0000 C   0  0  0  0  0  0  0  0  0  0  0  0
    0.0000    0.0000    0.0000 C   0  0  0  0  0  0  0  0  0  0  0  0
    0.0000    0.0000    0.0000 C   0  0  0  0  0  0  0  0  0  0  0  0
    0.0000    0.0000    0.0000 C   0  0  0  0  0  0  0  0  0  0  0  0
    0.0000    0.0000    0.0000 C   0  0  0  0  0  0  0  0  0  0  0  0
    0.0000    0.0000    0.0000 C   0  0  0  0  0  0  0  0  0  0  0  0
    0.0000    0.0000    0.0000 C   0  0  0  0  0  0  0  0  0  0  0  0
    0.0000    0.0000    0.0000 C   0  0  0  0  0  0  0  0  0  0  0  0
    0.0000    0.0000    0.0000 C   0  0  0  0  0  0  0  0  0  0  0  0
    0.0000    0.0000    0.0000 C   0  0  0  0  0  0  0  0  0  0  0  0
    0.0000    0.0000    0.0000 N   0  0  0  0  0  0  0  0  0  0  0  0
    0.0000    0.0000    0.0000 C   0  0  0  0  0  0  0  0  0  0  0  0
    0.0000    0.0000    0.0000 C   0  0  0  0  0  0  0  0  0  0  0  0
    0.0000    0.0000    0.0000 N   0  0  0  0  0  0  0  0  0  0  0  0
    0.0000    0.0000    0.0000 C   0  0  0  0  0  0  0  0  0  0  0  0
    0.0000    0.0000    0.0000 C   0  0  0  0  0  0  0  0  0  0  0  0
    0.0000    0.0000    0.0000 C   0  0  0  0  0  0  0  0  0  0  0  0
  1  2  1  0  0  0  0
  2 11  1  0  0  0  0
  2  3  2  0  0  0  0
  3  4  1  0  0  0  0
  4  9  2  0  0  0  0
  4  5  1  0  0  0  0
  5  6  1  0  0  0  0
  5 16  1  0  0  0  0
  6 15  1  0  0  0  0
  6  7  2  0  0  0  0
  7  8  1  0  0  0  0
  7 12  1  0  0  0  0
  8  9  1  0  0  0  0
  9 10  1  0  0  0  0
 10 11  2  0  0  0  0
 12 13  2  0  0  0  0
 13 14  1  0  0  0  0
 14 15  2  0  0  0  0
 16 17  1  0  0  0  0
 17 18  1  0  0  0  0
 18 19  1  0  0  0  0
 19 24  1  0  0  0  0
 19 20  1  0  0  0  0
 20 21  1  0  0  0  0
 21 22  1  0  0  0  0
 22 23  1  0  0  0  0
 22 25  1  0  0  0  0
 23 24  1  0  0  0  0
M  END
> <Index>
1701

> <ID>
HT1747

> <class>
1

> <apol>
59.583031

> <ast_fraglike>
0

> <ast_fraglike_ext>
0

> <ast_violation>
2

> <ast_violation_ext>
3

> <a_acc>
2

> <a_acid>
0

> <a_aro>
12

> <a_base>
0

> <a_count>
49

> <a_don>
0

> <a_donacc>
2

> <a_heavy>
25

> <a_hyd>
22

> <a_IC>
73.888229

> <a_ICM>
1.5079231

> <a_nB>
0

> <a_nBr>
0

> <a_nC>
20

> <a_nCl>
1

> <a_nF>
0

> <a_nH>
24

> <a_nI>
0

> <a_nN>
3

> <a_nO>
0

> <a_nP>
0

> <a_nS>
1

> <balabanJ>
1.3565066

> <BCUT_PEOE_0>
-2.7903285

> <BCUT_PEOE_1>
-0.55194277

> <BCUT_PEOE_2>
0.5852322

> <BCUT_PEOE_3>
2.6804869

> <BCUT_SLOGP_0>
-2.8981581

> <BCUT_SLOGP_1>
-0.4010343

> <BCUT_SLOGP_2>
0.7920565

> <BCUT_SLOGP_3>
2.6246023

> <BCUT_SMR_0>
-2.5038564

> <BCUT_SMR_1>
-0.3468467

> <BCUT_SMR_2>
0.8462823

> <BCUT_SMR_3>
2.9587381

> <bpol>
34.876968

> <b_1rotN>
4

> <b_1rotR>
0.14285715

> <b_ar>
12

> <b_count>
52

> <b_double>
0

> <b_heavy>
28

> <b_max1len>
4

> <b_rotN>
4

> <b_rotR>
0.14285715

> <b_single>
40

> <b_triple>
0

> <chi0>
17.225405

> <chi0v>
16.191479

> <chi0v_C>
12.491199

> <chi0_C>
13.786246

> <chi1>
12.20351

> <chi1v>
10.14887

> <chi1v_C>
5.5653839

> <chi1_C>
7.1161566

> <chiral>
0

> <chiral_u>
0

> <density>
0.74265701

> <diameter>
12

> <FCharge>
0

> <GCUT_PEOE_0>
-0.86207992

> <GCUT_PEOE_1>
-0.36365804

> <GCUT_PEOE_2>
0.02415614

> <GCUT_PEOE_3>
2.7582927

> <GCUT_SLOGP_0>
-0.96427536

> <GCUT_SLOGP_1>
-0.2745952

> <GCUT_SLOGP_2>
0.15812014

> <GCUT_SLOGP_3>
2.8478224

> <GCUT_SMR_0>
-0.51970208

> <GCUT_SMR_1>
-0.16280332

> <GCUT_SMR_2>
0.20151639

> <GCUT_SMR_3>
3.0423853

> <Kier1>
18.367348

> <Kier2>
8.3471403

> <Kier3>
4.2958579

> <KierA1>
16.66894

> <KierA2>
7.543294

> <KierA3>
3.8698759

> <KierFlex>
5.0295486

> <lip_acc>
3

> <lip_don>
0

> <lip_druglike>
1

> <lip_violation>
0

> <logP(o/w)>
4.1490002

> <logS>
-4.6208801

> <mr>
10.681784

> <mutagenic>
0

> <nmol>
1

> <opr_brigid>
22

> <opr_leadlike>
1

> <opr_nring>
4

> <opr_nrot>
6

> <opr_violation>
1

> <PC+>
0

> <PC->
0

> <PEOE_PC+>
1.3749952

> <PEOE_PC->
-1.3749952

> <PEOE_RPC+>
0.04714283

> <PEOE_RPC->
0.22030436

> <PEOE_VSA+0>
177.95357

> <PEOE_VSA+1>
29.857702

> <PEOE_VSA+2>
0.0

> <PEOE_VSA+3>
0.0

> <PEOE_VSA+4>
0.0

> <PEOE_VSA+5>
0.0

> <PEOE_VSA+6>
0.0

> <PEOE_VSA-0>
93.214523

> <PEOE_VSA-1>
73.852371

> <PEOE_VSA-2>
0.0

> <PEOE_VSA-3>
0.0

> <PEOE_VSA-4>
0.0

> <PEOE_VSA-5>
0.0

> <PEOE_VSA-6>
0.0

> <PEOE_VSA_FHYD>
1.0

> <PEOE_VSA_FNEG>
0.44565651

> <PEOE_VSA_FPNEG>
0.0

> <PEOE_VSA_FPOL>
0.0

> <PEOE_VSA_FPOS>
0.55434346

> <PEOE_VSA_FPPOS>
0.0

> <PEOE_VSA_HYD>
374.87817

> <PEOE_VSA_NEG>
167.06689

> <PEOE_VSA_PNEG>
0.0

> <PEOE_VSA_POL>
0.0

> <PEOE_VSA_POS>
207.81126

> <PEOE_VSA_PPOS>
0.0

> <petitjean>
0.5

> <petitjeanSC>
1.0

> <Q_PC+>
0

> <Q_PC->
0

> <Q_RPC+>
0

> <Q_RPC->
0

> <Q_VSA_FHYD>
1

> <Q_VSA_FNEG>
0

> <Q_VSA_FPNEG>
0

> <Q_VSA_FPOL>
0

> <Q_VSA_FPOS>
1

> <Q_VSA_FPPOS>
0

> <Q_VSA_HYD>
374.87817

> <Q_VSA_NEG>
0

> <Q_VSA_PNEG>
0

> <Q_VSA_POL>
0

> <Q_VSA_POS>
374.87817

> <Q_VSA_PPOS>
0

> <radius>
6

> <reactive>
0

> <rings>
4

> <RPC+>
0

> <RPC->
0

> <rsynth>
1.0

> <SlogP>
4.5802002

> <SlogP_VSA0>
3.1243138

> <SlogP_VSA1>
6.2486277

> <SlogP_VSA2>
0.0

> <SlogP_VSA3>
110.63747

> <SlogP_VSA4>
0.0

> <SlogP_VSA5>
35.998657

> <SlogP_VSA6>
3.5006065

> <SlogP_VSA7>
123.50229

> <SlogP_VSA8>
18.868406

> <SlogP_VSA9>
76.881683

> <SMR>
10.7578

> <SMR_VSA0>
0.0

> <SMR_VSA1>
6.2486277

> <SMR_VSA2>
6.2257819

> <SMR_VSA3>
3.5006065

> <SMR_VSA4>
5.513495

> <SMR_VSA5>
142.3707

> <SMR_VSA6>
110.63747

> <SMR_VSA7>
104.26537

> <TPSA>
9.7200003

> <VAdjEq>
0.43513325

> <VAdjMa>
5.8073549

> <VDistEq>
3.412262

> <VDistMa>
8.9912014

> <vdw_area>
374.87817

> <vdw_vol>
503.53259

> <vsa_acc>
0.0

> <vsa_acid>
0

> <vsa_base>
0

> <vsa_don>
0.0

> <vsa_hyd>
357.79507

> <vsa_other>
0.0

> <vsa_pol>
0.0

> <Weight>
373.952

> <weinerPath>
1544

> <weinerPol>
40

> <zagreb>
134

$$$$
Row1701
 OpenBabel06061811532D

 27 30  0  0  1  0  0  0  0  0999 V2000
    0.0000    0.0000    0.0000 O   0  0  0  0  0  0  0  0  0  0  0  0
    0.0000    0.0000    0.0000 C   0  0  0  0  0  0  0  0  0  0  0  0
    0.0000    0.0000    0.0000 C   0  0  0  0  0  0  0  0  0  0  0  0
    0.0000    0.0000    0.0000 C   0  0  0  0  0  0  0  0  0  0  0  0
    0.0000    0.0000    0.0000 C   0  0  2  0  0  0  0  0  0  0  0  0
    0.0000    0.0000    0.0000 C   0  0  2  0  0  0  0  0  0  0  0  0
    0.0000    0.0000    0.0000 H   0  0  0  0  0  0  0  0  0  0  0  0
    0.0000    0.0000    0.0000 C   0  0  2  0  0  0  0  0  0  0  0  0
    0.0000    0.0000    0.0000 H   0  0  0  0  0  0  0  0  0  0  0  0
    0.0000    0.0000    0.0000 C   0  0  2  0  0  0  0  0  0  0  0  0
    0.0000    0.0000    0.0000 H   0  0  0  0  0  0  0  0  0  0  0  0
    0.0000    0.0000    0.0000 C   0  0  0  0  0  0  0  0  0  0  0  0
    0.0000    0.0000    0.0000 C   0  0  0  0  0  0  0  0  0  0  0  0
    0.0000    0.0000    0.0000 C   0  0  2  0  0  0  0  0  0  0  0  0
    0.0000    0.0000    0.0000 H   0  0  0  0  0  0  0  0  0  0  0  0
    0.0000    0.0000    0.0000 C   0  0  0  0  0  0  0  0  0  0  0  0
    0.0000    0.0000    0.0000 O   0  0  0  0  0  0  0  0  0  0  0  0
    0.0000    0.0000    0.0000 C   0  0  0  0  0  0  0  0  0  0  0  0
    0.0000    0.0000    0.0000 C   0  0  1  0  0  0  0  0  0  0  0  0
    0.0000    0.0000    0.0000 C   0  0  0  0  0  0  0  0  0  0  0  0
    0.0000    0.0000    0.0000 C   0  0  0  0  0  0  0  0  0  0  0  0
    0.0000    0.0000    0.0000 C   0  0  0  0  0  0  0  0  0  0  0  0
    0.0000    0.0000    0.0000 C   0  0  0  0  0  0  0  0  0  0  0  0
    0.0000    0.0000    0.0000 C   0  0  0  0  0  0  0  0  0  0  0  0
    0.0000    0.0000    0.0000 C   0  0  0  0  0  0  0  0  0  0  0  0
    0.0000    0.0000    0.0000 C   0  0  0  0  0  0  0  0  0  0  0  0
    0.0000    0.0000    0.0000 C   0  0  0  0  0  0  0  0  0  0  0  0
  1  2  2  0  0  0  0
  2 26  1  0  0  0  0
  2  3  1  0  0  0  0
  3  4  1  0  0  0  0
  4  5  1  0  0  0  0
  5 25  1  0  0  0  0
  5  6  1  0  0  0  0
  5 27  1  0  0  0  0
  6  7  1  0  0  0  0
  6 21  1  0  0  0  0
  6  8  1  0  0  0  0
  8  9  1  0  0  0  0
  8 10  1  0  0  0  0
  8 23  1  0  0  0  0
 10 11  1  0  0  0  0
 10 19  1  0  0  0  0
 10 12  1  0  0  0  0
 12 13  1  0  0  0  0
 13 14  1  0  0  0  0
 14 15  1  0  0  0  0
 14 16  1  0  0  0  0
 14 19  1  0  0  0  0
 16 17  2  0  0  0  0
 16 18  1  0  0  0  0
 19 20  1  0  0  0  0
 19 22  1  0  0  0  0
 20 21  1  0  0  0  0
 23 24  1  0  0  0  0
 24 25  1  0  0  0  0
 25 26  2  0  0  0  0
M  END
> <Index>
1702

> <ID>
HT1751

> <class>
1

> <apol>
58.567791

> <ast_fraglike>
0

> <ast_fraglike_ext>
0

> <ast_violation>
2

> <ast_violation_ext>
2

> <a_acc>
2

> <a_acid>
0

> <a_aro>
0

> <a_base>
0

> <a_count>
53

> <a_don>
0

> <a_donacc>
2

> <a_heavy>
23

> <a_hyd>
19

> <a_IC>
62.134399

> <a_ICM>
1.1723472

> <a_nB>
0

> <a_nBr>
0

> <a_nC>
21

> <a_nCl>
0

> <a_nF>
0

> <a_nH>
30

> <a_nI>
0

> <a_nN>
0

> <a_nO>
2

> <a_nP>
0

> <a_nS>
0

> <balabanJ>
1.6046898

> <BCUT_PEOE_0>
-2.9464083

> <BCUT_PEOE_1>
-0.45681959

> <BCUT_PEOE_2>
0.37370405

> <BCUT_PEOE_3>
2.9574139

> <BCUT_SLOGP_0>
-2.859689

> <BCUT_SLOGP_1>
-0.3686547

> <BCUT_SLOGP_2>
0.36378917

> <BCUT_SLOGP_3>
3.044574

> <BCUT_SMR_0>
-2.6887047

> <BCUT_SMR_1>
-0.27974507

> <BCUT_SMR_2>
0.56023306

> <BCUT_SMR_3>
3.2145581

> <bpol>
34.712212

> <b_1rotN>
1

> <b_1rotR>
0.03846154

> <b_ar>
0

> <b_count>
56

> <b_double>
3

> <b_heavy>
26

> <b_max1len>
4

> <b_rotN>
1

> <b_rotR>
0.03846154

> <b_single>
53

> <b_triple>
0

> <chi0>
16.405413

> <chi0v>
14.860102

> <chi0v_C>
14.043606

> <chi0_C>
14.405413

> <chi1>
10.859844

> <chi1v>
9.6041727

> <chi1v_C>
9.1959238

> <chi1_C>
9.7051439

> <chiral>
6

> <chiral_u>
0

> <density>
0.67225772

> <diameter>
11

> <FCharge>
0

> <GCUT_PEOE_0>
-0.80097115

> <GCUT_PEOE_1>
-0.36913443

> <GCUT_PEOE_2>
-0.032959275

> <GCUT_PEOE_3>
3.3076453

> <GCUT_SLOGP_0>
-0.83317399

> <GCUT_SLOGP_1>
-0.27639511

> <GCUT_SLOGP_2>
-0.0082893409

> <GCUT_SLOGP_3>
3.3987746

> <GCUT_SMR_0>
-0.53930503

> <GCUT_SMR_1>
-0.20398594

> <GCUT_SMR_2>
0.10744331

> <GCUT_SMR_3>
3.5366108

> <Kier1>
16.467455

> <Kier2>
5.5

> <Kier3>
2.2892821

> <KierA1>
14.636623

> <KierA2>
4.8609967

> <KierA3>
2.0146773

> <KierFlex>
3.0934165

> <lip_acc>
2

> <lip_don>
0

> <lip_druglike>
1

> <lip_violation>
0

> <logP(o/w)>
3.3010001

> <logS>
-6.0156002

> <mr>
9.1784983

> <mutagenic>
0

> <nmol>
1

> <opr_brigid>
20

> <opr_leadlike>
1

> <opr_nring>
4

> <opr_nrot>
1

> <opr_violation>
1

> <PC+>
0

> <PC->
0

> <PEOE_PC+>
1.2104207

> <PEOE_PC->
-1.2104207

> <PEOE_RPC+>
0.12896219

> <PEOE_RPC->
0.2456916

> <PEOE_VSA+0>
132.39751

> <PEOE_VSA+1>
4.2653861

> <PEOE_VSA+2>
8.458519

> <PEOE_VSA+3>
8.458519

> <PEOE_VSA+4>
0.0

> <PEOE_VSA+5>
0.0

> <PEOE_VSA+6>
0.0

> <PEOE_VSA-0>
91.911774

> <PEOE_VSA-1>
39.703896

> <PEOE_VSA-2>
0.0

> <PEOE_VSA-3>
0.0

> <PEOE_VSA-4>
0.0

> <PEOE_VSA-5>
27.133842

> <PEOE_VSA-6>
0.0

> <PEOE_VSA_FHYD>
0.91312426

> <PEOE_VSA_FNEG>
0.50827587

> <PEOE_VSA_FPNEG>
0.086875707

> <PEOE_VSA_FPOL>
0.086875707

> <PEOE_VSA_FPOS>
0.49172416

> <PEOE_VSA_FPPOS>
0.0

> <PEOE_VSA_HYD>
285.19559

> <PEOE_VSA_NEG>
158.74951

> <PEOE_VSA_PNEG>
27.133842

> <PEOE_VSA_POL>
27.133842

> <PEOE_VSA_POS>
153.57993

> <PEOE_VSA_PPOS>
0.0

> <petitjean>
0.45454547

> <petitjeanSC>
0.83333331

> <Q_PC+>
0

> <Q_PC->
0

> <Q_RPC+>
0

> <Q_RPC->
0

> <Q_VSA_FHYD>
1

> <Q_VSA_FNEG>
0

> <Q_VSA_FPNEG>
0

> <Q_VSA_FPOL>
0

> <Q_VSA_FPOS>
1

> <Q_VSA_FPPOS>
0

> <Q_VSA_HYD>
312.32944

> <Q_VSA_NEG>
0

> <Q_VSA_PNEG>
0

> <Q_VSA_POL>
0

> <Q_VSA_POS>
312.32944

> <Q_VSA_PPOS>
0

> <radius>
6

> <reactive>
1

> <rings>
4

> <RPC+>
0

> <RPC->
0

> <rsynth>
0.0

> <SlogP>
4.7234998

> <SlogP_VSA0>
0.0

> <SlogP_VSA1>
11.375222

> <SlogP_VSA2>
47.724434

> <SlogP_VSA3>
0.0

> <SlogP_VSA4>
17.643185

> <SlogP_VSA5>
3.185575

> <SlogP_VSA6>
0.0

> <SlogP_VSA7>
17.643185

> <SlogP_VSA8>
150.94725

> <SlogP_VSA9>
99.978043

> <SMR>
9.0881004

> <SMR_VSA0>
47.724434

> <SMR_VSA1>
0.0

> <SMR_VSA2>
17.643185

> <SMR_VSA3>
3.185575

> <SMR_VSA4>
0.0

> <SMR_VSA5>
168.59042

> <SMR_VSA6>
11.375222

> <SMR_VSA7>
99.978043

> <TPSA>
34.139999

> <VAdjEq>
0.46357921

> <VAdjMa>
5.7004399

> <VDistEq>
3.095582

> <VDistMa>
8.7654266

> <vdw_area>
312.32944

> <vdw_vol>
467.78043

> <vsa_acc>
27.133842

> <vsa_acid>
0

> <vsa_base>
0

> <vsa_don>
0.0

> <vsa_hyd>
241.54449

> <vsa_other>
16.917038

> <vsa_pol>
27.133842

> <Weight>
314.46899

> <weinerPath>
1052

> <weinerPol>
48

> <zagreb>
136

$$$$
Row1702
 OpenBabel06061811532D

 17 17  0  0  0  0  0  0  0  0999 V2000
    0.0000    0.0000    0.0000 Cl  0  0  0  0  0  0  0  0  0  0  0  0
    0.0000    0.0000    0.0000 C   0  0  0  0  0  0  0  0  0  0  0  0
    0.0000    0.0000    0.0000 C   0  0  0  0  0  0  0  0  0  0  0  0
    0.0000    0.0000    0.0000 C   0  0  0  0  0  0  0  0  0  0  0  0
    0.0000    0.0000    0.0000 C   0  0  0  0  0  0  0  0  0  0  0  0
    0.0000    0.0000    0.0000 N   0  0  0  0  0  0  0  0  0  0  0  0
    0.0000    0.0000    0.0000 C   0  0  0  0  0  0  0  0  0  0  0  0
    0.0000    0.0000    0.0000 N   0  0  0  0  0  0  0  0  0  0  0  0
    0.0000    0.0000    0.0000 C   0  0  0  0  0  0  0  0  0  0  0  0
    0.0000    0.0000    0.0000 N   0  0  0  0  0  0  0  0  0  0  0  0
    0.0000    0.0000    0.0000 C   0  0  0  0  0  0  0  0  0  0  0  0
    0.0000    0.0000    0.0000 C   0  0  0  0  0  0  0  0  0  0  0  0
    0.0000    0.0000    0.0000 C   0  0  0  0  0  0  0  0  0  0  0  0
    0.0000    0.0000    0.0000 N   0  0  0  0  0  0  0  0  0  0  0  0
    0.0000    0.0000    0.0000 N   0  0  0  0  0  0  0  0  0  0  0  0
    0.0000    0.0000    0.0000 C   0  0  0  0  0  0  0  0  0  0  0  0
    0.0000    0.0000    0.0000 C   0  0  0  0  0  0  0  0  0  0  0  0
  1  2  1  0  0  0  0
  2 17  1  0  0  0  0
  2  3  2  0  0  0  0
  3  4  1  0  0  0  0
  4  5  2  0  0  0  0
  5  6  1  0  0  0  0
  5 16  1  0  0  0  0
  6  7  1  0  0  0  0
  7  8  2  3  0  0  0
  7 15  1  0  0  0  0
  8  9  1  0  0  0  0
  9 10  2  3  0  0  0
  9 14  1  0  0  0  0
 10 11  1  0  0  0  0
 11 12  1  0  0  0  0
 11 13  1  0  0  0  0
 16 17  2  0  0  0  0
M  END
> <Index>
1703

> <ID>
HT1753

> <class>
1

> <apol>
37.708687

> <ast_fraglike>
1

> <ast_fraglike_ext>
0

> <ast_violation>
0

> <ast_violation_ext>
1

> <a_acc>
2

> <a_acid>
0

> <a_aro>
6

> <a_base>
0

> <a_count>
33

> <a_don>
3

> <a_donacc>
5

> <a_heavy>
17

> <a_hyd>
10

> <a_IC>
52.801617

> <a_ICM>
1.600049

> <a_nB>
0

> <a_nBr>
0

> <a_nC>
11

> <a_nCl>
1

> <a_nF>
0

> <a_nH>
16

> <a_nI>
0

> <a_nN>
5

> <a_nO>
0

> <a_nP>
0

> <a_nS>
0

> <balabanJ>
2.1879215

> <BCUT_PEOE_0>
-2.4831605

> <BCUT_PEOE_1>
-0.57759124

> <BCUT_PEOE_2>
0.60145003

> <BCUT_PEOE_3>
2.463043

> <BCUT_SLOGP_0>
-2.5800335

> <BCUT_SLOGP_1>
-0.33735645

> <BCUT_SLOGP_2>
0.80674833

> <BCUT_SLOGP_3>
2.5077236

> <BCUT_SMR_0>
-2.2464445

> <BCUT_SMR_1>
-0.32560048

> <BCUT_SMR_2>
0.85779816

> <BCUT_SMR_3>
2.7020493

> <bpol>
19.891312

> <b_1rotN>
3

> <b_1rotR>
0.17647059

> <b_ar>
6

> <b_count>
33

> <b_double>
2

> <b_heavy>
17

> <b_max1len>
4

> <b_rotN>
4

> <b_rotR>
0.23529412

> <b_single>
25

> <b_triple>
0

> <chi0>
12.836499

> <chi0v>
10.569773

> <chi0v_C>
6.8867512

> <chi0_C>
7.7151785

> <chi1>
7.9692345

> <chi1v>
5.5493841

> <chi1v_C>
2.9760678

> <chi1_C>
3.7876937

> <chiral>
0

> <chiral_u>
0

> <density>
0.76540834

> <diameter>
11

> <FCharge>
0

> <GCUT_PEOE_0>
-0.83476192

> <GCUT_PEOE_1>
-0.37054673

> <GCUT_PEOE_2>
0.039678231

> <GCUT_PEOE_3>
2.2461343

> <GCUT_SLOGP_0>
-1.3768283

> <GCUT_SLOGP_1>
-0.29940134

> <GCUT_SLOGP_2>
0.17700326

> <GCUT_SLOGP_3>
2.317066

> <GCUT_SMR_0>
-0.51610088

> <GCUT_SMR_1>
-0.13100222

> <GCUT_SMR_2>
0.22530997

> <GCUT_SMR_3>
2.5500188

> <Kier1>
15.058824

> <Kier2>
7.4380164

> <Kier3>
6.4793386

> <KierA1>
11.427454

> <KierA2>
5.5384407

> <KierA3>
4.7520108

> <KierFlex>
3.7229576

> <lip_acc>
5

> <lip_don>
5

> <lip_druglike>
1

> <lip_violation>
0

> <logP(o/w)>
2.401

> <logS>
-3.44695

> <mr>
6.8434095

> <mutagenic>
0

> <nmol>
1

> <opr_brigid>
8

> <opr_leadlike>
1

> <opr_nring>
1

> <opr_nrot>
4

> <opr_violation>
0

> <PC+>
0

> <PC->
0

> <PEOE_PC+>
1.8164896

> <PEOE_PC->
-1.8164896

> <PEOE_RPC+>
0.12113439

> <PEOE_RPC->
0.20332371

> <PEOE_VSA+0>
39.957573

> <PEOE_VSA+1>
21.326929

> <PEOE_VSA+2>
0.0

> <PEOE_VSA+3>
43.095066

> <PEOE_VSA+4>
31.363148

> <PEOE_VSA+5>
0.0

> <PEOE_VSA+6>
0.0

> <PEOE_VSA-0>
86.514969

> <PEOE_VSA-1>
29.581947

> <PEOE_VSA-2>
0.0

> <PEOE_VSA-3>
5.6825762

> <PEOE_VSA-4>
5.6825762

> <PEOE_VSA-5>
0.0

> <PEOE_VSA-6>
13.43913

> <PEOE_VSA_FHYD>
0.81750959

> <PEOE_VSA_FNEG>
0.5093233

> <PEOE_VSA_FPNEG>
0.06912028

> <PEOE_VSA_FPOL>
0.18249038

> <PEOE_VSA_FPOS>
0.49067667

> <PEOE_VSA_FPPOS>
0.1133701

> <PEOE_VSA_HYD>
226.15906

> <PEOE_VSA_NEG>
140.9012

> <PEOE_VSA_PNEG>
19.121706

> <PEOE_VSA_POL>
50.484856

> <PEOE_VSA_POS>
135.74272

> <PEOE_VSA_PPOS>
31.363148

> <petitjean>
0.45454547

> <petitjeanSC>
0.83333331

> <Q_PC+>
0

> <Q_PC->
0

> <Q_RPC+>
0

> <Q_RPC->
0

> <Q_VSA_FHYD>
1

> <Q_VSA_FNEG>
0

> <Q_VSA_FPNEG>
0

> <Q_VSA_FPOL>
0

> <Q_VSA_FPOS>
1

> <Q_VSA_FPPOS>
0

> <Q_VSA_HYD>
276.64392

> <Q_VSA_NEG>
0

> <Q_VSA_PNEG>
0

> <Q_VSA_POL>
0

> <Q_VSA_POS>
276.64392

> <Q_VSA_PPOS>
0

> <radius>
6

> <reactive>
0

> <rings>
1

> <RPC+>
0

> <RPC->
0

> <rsynth>
1.0

> <SlogP>
1.7897

> <SlogP_VSA0>
65.794373

> <SlogP_VSA1>
21.808937

> <SlogP_VSA2>
3.9819686

> <SlogP_VSA3>
0.0

> <SlogP_VSA4>
0.0

> <SlogP_VSA5>
33.57106

> <SlogP_VSA6>
3.5006065

> <SlogP_VSA7>
70.572739

> <SlogP_VSA8>
0.0

> <SlogP_VSA9>
108.55742

> <SMR>
7.3455501

> <SMR_VSA0>
0.0

> <SMR_VSA1>
33.57106

> <SMR_VSA2>
0.0

> <SMR_VSA3>
7.4825754

> <SMR_VSA4>
86.561874

> <SMR_VSA5>
70.572739

> <SMR_VSA6>
3.7981856

> <SMR_VSA7>
105.80067

> <TPSA>
88.790001

> <VAdjEq>
0.52255934

> <VAdjMa>
5.0874629

> <VDistEq>
3.2421758

> <VDistMa>
7.8373165

> <vdw_area>
276.64392

> <vdw_vol>
331.5054

> <vsa_acc>
11.365152

> <vsa_acid>
0

> <vsa_base>
0

> <vsa_don>
41.167557

> <vsa_hyd>
169.55167

> <vsa_other>
31.363148

> <vsa_pol>
52.532707

> <Weight>
253.737

> <weinerPath>
608

> <weinerPol>
19

> <zagreb>
78

$$$$
Row1703
 OpenBabel06061811532D

 20 22  0  0  1  0  0  0  0  0999 V2000
    0.0000    0.0000    0.0000 S   0  0  0  0  0  0  0  0  0  0  0  0
    0.0000    0.0000    0.0000 C   0  0  0  0  0  0  0  0  0  0  0  0
    0.0000    0.0000    0.0000 C   0  0  0  0  0  0  0  0  0  0  0  0
    0.0000    0.0000    0.0000 N   0  0  0  0  0  0  0  0  0  0  0  0
    0.0000    0.0000    0.0000 C   0  0  0  0  0  0  0  0  0  0  0  0
    0.0000    0.0000    0.0000 C   0  0  0  0  0  0  0  0  0  0  0  0
    0.0000    0.0000    0.0000 C   0  0  0  0  0  0  0  0  0  0  0  0
    0.0000    0.0000    0.0000 C   0  0  0  0  0  0  0  0  0  0  0  0
    0.0000    0.0000    0.0000 C   0  0  0  0  0  0  0  0  0  0  0  0
    0.0000    0.0000    0.0000 C   0  0  0  0  0  0  0  0  0  0  0  0
    0.0000    0.0000    0.0000 C   0  0  0  0  0  0  0  0  0  0  0  0
    0.0000    0.0000    0.0000 C   0  0  3  0  0  0  0  0  0  0  0  0
    0.0000    0.0000    0.0000 N   0  0  0  0  0  0  0  0  0  0  0  0
    0.0000    0.0000    0.0000 C   0  0  0  0  0  0  0  0  0  0  0  0
    0.0000    0.0000    0.0000 C   0  0  0  0  0  0  0  0  0  0  0  0
    0.0000    0.0000    0.0000 C   0  0  0  0  0  0  0  0  0  0  0  0
    0.0000    0.0000    0.0000 C   0  0  0  0  0  0  0  0  0  0  0  0
    0.0000    0.0000    0.0000 C   0  0  0  0  0  0  0  0  0  0  0  0
    0.0000    0.0000    0.0000 C   0  0  0  0  0  0  0  0  0  0  0  0
    0.0000    0.0000    0.0000 C   0  0  0  0  0  0  0  0  0  0  0  0
  1  6  1  0  0  0  0
  1  2  1  0  0  0  0
  2 20  1  0  0  0  0
  2  3  2  0  0  0  0
  3  4  1  0  0  0  0
  3 17  1  0  0  0  0
  4  5  1  0  0  0  0
  4 11  1  0  0  0  0
  5 10  1  0  0  0  0
  5  6  2  0  0  0  0
  6  7  1  0  0  0  0
  7  8  2  0  0  0  0
  8  9  1  0  0  0  0
  9 10  2  0  0  0  0
 11 12  1  0  0  0  0
 12 13  1  0  0  0  0
 12 16  1  0  0  0  0
 13 14  1  0  0  0  0
 13 15  1  0  0  0  0
 17 18  2  0  0  0  0
 18 19  1  0  0  0  0
 19 20  2  0  0  0  0
M  END
> <Index>
1704

> <ID>
HT1755

> <class>
1

> <apol>
48.355862

> <ast_fraglike>
0

> <ast_fraglike_ext>
0

> <ast_violation>
1

> <ast_violation_ext>
1

> <a_acc>
1

> <a_acid>
0

> <a_aro>
12

> <a_base>
0

> <a_count>
40

> <a_don>
0

> <a_donacc>
1

> <a_heavy>
20

> <a_hyd>
18

> <a_IC>
54.951694

> <a_ICM>
1.3737923

> <a_nB>
0

> <a_nBr>
0

> <a_nC>
17

> <a_nCl>
0

> <a_nF>
0

> <a_nH>
20

> <a_nI>
0

> <a_nN>
2

> <a_nO>
0

> <a_nP>
0

> <a_nS>
1

> <balabanJ>
1.7679567

> <BCUT_PEOE_0>
-2.6862128

> <BCUT_PEOE_1>
-0.53157628

> <BCUT_PEOE_2>
0.59804189

> <BCUT_PEOE_3>
2.5949688

> <BCUT_SLOGP_0>
-2.7696633

> <BCUT_SLOGP_1>
-0.43001875

> <BCUT_SLOGP_2>
0.69996953

> <BCUT_SLOGP_3>
2.5997937

> <BCUT_SMR_0>
-2.3999827

> <BCUT_SMR_1>
-0.40451306

> <BCUT_SMR_2>
0.73281717

> <BCUT_SMR_3>
2.8822553

> <bpol>
28.104139

> <b_1rotN>
3

> <b_1rotR>
0.13636364

> <b_ar>
12

> <b_count>
42

> <b_double>
0

> <b_heavy>
22

> <b_max1len>
5

> <b_rotN>
3

> <b_rotR>
0.13636364

> <b_single>
30

> <b_triple>
0

> <chi0>
14.112519

> <chi0v>
13.022431

> <chi0v_C>
10.903259

> <chi0_C>
12.250712

> <chi1>
9.6647034

> <chi1v>
7.7811112

> <chi1v_C>
4.6402993

> <chi1_C>
6.2852583

> <chiral>
1

> <chiral_u>
1

> <density>
0.69324702

> <diameter>
8

> <FCharge>
0

> <GCUT_PEOE_0>
-0.85931975

> <GCUT_PEOE_1>
-0.33833826

> <GCUT_PEOE_2>
0.061294779

> <GCUT_PEOE_3>
2.649699

> <GCUT_SLOGP_0>
-0.96653098

> <GCUT_SLOGP_1>
-0.22943836

> <GCUT_SLOGP_2>
0.14225852

> <GCUT_SLOGP_3>
2.7763662

> <GCUT_SMR_0>
-0.52090937

> <GCUT_SMR_1>
-0.18488009

> <GCUT_SMR_2>
0.1608282

> <GCUT_SMR_3>
2.953511

> <Kier1>
14.917356

> <Kier2>
6.405827

> <Kier3>
3.1224489

> <KierA1>
12.245986

> <KierA2>
5.2003212

> <KierA3>
2.5141966

> <KierFlex>
3.1841531

> <lip_acc>
2

> <lip_don>
0

> <lip_druglike>
1

> <lip_violation>
0

> <logP(o/w)>
4.0149999

> <logS>
-3.9653001

> <mr>
8.6485395

> <mutagenic>
0

> <nmol>
1

> <opr_brigid>
16

> <opr_leadlike>
1

> <opr_nring>
3

> <opr_nrot>
3

> <opr_violation>
0

> <PC+>
0

> <PC->
0

> <PEOE_PC+>
1.1245155

> <PEOE_PC->
-1.1245155

> <PEOE_RPC+>
0.056349367

> <PEOE_RPC->
0.27072945

> <PEOE_VSA+0>
89.291222

> <PEOE_VSA+1>
34.123089

> <PEOE_VSA+2>
0.0

> <PEOE_VSA+3>
0.0

> <PEOE_VSA+4>
0.0

> <PEOE_VSA+5>
0.0

> <PEOE_VSA+6>
0.0

> <PEOE_VSA-0>
114.24467

> <PEOE_VSA-1>
68.780235

> <PEOE_VSA-2>
0.0

> <PEOE_VSA-3>
0.0

> <PEOE_VSA-4>
0.0

> <PEOE_VSA-5>
0.0

> <PEOE_VSA-6>
0.0

> <PEOE_VSA_FHYD>
1.0

> <PEOE_VSA_FNEG>
0.59726334

> <PEOE_VSA_FPNEG>
0.0

> <PEOE_VSA_FPOL>
0.0

> <PEOE_VSA_FPOS>
0.40273666

> <PEOE_VSA_FPPOS>
0.0

> <PEOE_VSA_HYD>
306.43921

> <PEOE_VSA_NEG>
183.0249

> <PEOE_VSA_PNEG>
0.0

> <PEOE_VSA_POL>
0.0

> <PEOE_VSA_POS>
123.41431

> <PEOE_VSA_PPOS>
0.0

> <petitjean>
0.5

> <petitjeanSC>
1.0

> <Q_PC+>
0

> <Q_PC->
0

> <Q_RPC+>
0

> <Q_RPC->
0

> <Q_VSA_FHYD>
1

> <Q_VSA_FNEG>
0

> <Q_VSA_FPNEG>
0

> <Q_VSA_FPOL>
0

> <Q_VSA_FPOS>
1

> <Q_VSA_FPPOS>
0

> <Q_VSA_HYD>
306.43921

> <Q_VSA_NEG>
0

> <Q_VSA_PNEG>
0

> <Q_VSA_POL>
0

> <Q_VSA_POS>
306.43921

> <Q_VSA_PPOS>
0

> <radius>
4

> <reactive>
0

> <rings>
3

> <RPC+>
0

> <RPC->
0

> <rsynth>
1.0

> <SlogP>
4.2393999

> <SlogP_VSA0>
3.1243138

> <SlogP_VSA1>
3.1243138

> <SlogP_VSA2>
3.9819686

> <SlogP_VSA3>
18.439579

> <SlogP_VSA4>
0.0

> <SlogP_VSA5>
68.895844

> <SlogP_VSA6>
0.0

> <SlogP_VSA7>
141.14548

> <SlogP_VSA8>
0.0

> <SlogP_VSA9>
71.059052

> <SMR>
8.7163

> <SMR_VSA0>
0.0

> <SMR_VSA1>
3.1243138

> <SMR_VSA2>
6.2257819

> <SMR_VSA3>
3.9819686

> <SMR_VSA4>
5.513495

> <SMR_VSA5>
141.14548

> <SMR_VSA6>
18.439579

> <SMR_VSA7>
131.33994

> <TPSA>
6.48

> <VAdjEq>
0.49991596

> <VAdjMa>
5.4594316

> <VDistEq>
2.8639245

> <VDistMa>
8.3869162

> <vdw_area>
306.43921

> <vdw_vol>
410.28232

> <vsa_acc>
0.0

> <vsa_acid>
0

> <vsa_base>
0

> <vsa_don>
0.0

> <vsa_hyd>
292.20331

> <vsa_other>
0.0

> <vsa_pol>
0.0

> <Weight>
284.427

> <weinerPath>
744

> <weinerPol>
33

> <zagreb>
106

$$$$
Row1704
 OpenBabel06061811532D

 25 26  0  0  1  0  0  0  0  0999 V2000
    0.0000    0.0000    0.0000 O   0  0  0  0  0  0  0  0  0  0  0  0
    0.0000    0.0000    0.0000 C   0  0  0  0  0  0  0  0  0  0  0  0
    0.0000    0.0000    0.0000 C   0  0  3  0  0  0  0  0  0  0  0  0
    0.0000    0.0000    0.0000 O   0  0  0  0  0  0  0  0  0  0  0  0
    0.0000    0.0000    0.0000 C   0  0  0  0  0  0  0  0  0  0  0  0
    0.0000    0.0000    0.0000 N   0  0  0  0  0  0  0  0  0  0  0  0
    0.0000    0.0000    0.0000 C   0  0  0  0  0  0  0  0  0  0  0  0
    0.0000    0.0000    0.0000 C   0  0  0  0  0  0  0  0  0  0  0  0
    0.0000    0.0000    0.0000 C   0  0  0  0  0  0  0  0  0  0  0  0
    0.0000    0.0000    0.0000 C   0  0  0  0  0  0  0  0  0  0  0  0
    0.0000    0.0000    0.0000 C   0  0  0  0  0  0  0  0  0  0  0  0
    0.0000    0.0000    0.0000 C   0  0  0  0  0  0  0  0  0  0  0  0
    0.0000    0.0000    0.0000 C   0  0  0  0  0  0  0  0  0  0  0  0
    0.0000    0.0000    0.0000 C   0  0  0  0  0  0  0  0  0  0  0  0
    0.0000    0.0000    0.0000 C   0  0  0  0  0  0  0  0  0  0  0  0
    0.0000    0.0000    0.0000 C   0  0  0  0  0  0  0  0  0  0  0  0
    0.0000    0.0000    0.0000 O   0  0  0  0  0  0  0  0  0  0  0  0
    0.0000    0.0000    0.0000 C   0  0  0  0  0  0  0  0  0  0  0  0
    0.0000    0.0000    0.0000 C   0  0  0  0  0  0  0  0  0  0  0  0
    0.0000    0.0000    0.0000 C   0  0  0  0  0  0  0  0  0  0  0  0
    0.0000    0.0000    0.0000 C   0  0  0  0  0  0  0  0  0  0  0  0
    0.0000    0.0000    0.0000 C   0  0  0  0  0  0  0  0  0  0  0  0
    0.0000    0.0000    0.0000 C   0  0  0  0  0  0  0  0  0  0  0  0
    0.0000    0.0000    0.0000 C   0  0  0  0  0  0  0  0  0  0  0  0
    0.0000    0.0000    0.0000 C   0  0  0  0  0  0  0  0  0  0  0  0
  1  2  1  0  0  0  0
  1 10  1  0  0  0  0
  2  3  1  0  0  0  0
  3  4  1  0  0  0  0
  3  5  1  0  0  0  0
  5  6  1  0  0  0  0
  6  7  1  0  0  0  0
  7  8  1  0  0  0  0
  8  9  1  0  0  0  0
 10 15  1  0  0  0  0
 10 11  2  0  0  0  0
 11 12  1  0  0  0  0
 12 13  2  0  0  0  0
 13 14  1  0  0  0  0
 14 15  2  0  0  0  0
 15 16  1  0  0  0  0
 16 17  2  0  0  0  0
 16 18  1  0  0  0  0
 18 19  1  0  0  0  0
 19 20  1  0  0  0  0
 20 25  1  0  0  0  0
 20 21  2  0  0  0  0
 21 22  1  0  0  0  0
 22 23  2  0  0  0  0
 23 24  1  0  0  0  0
 24 25  2  0  0  0  0
M  END
> <Index>
1705

> <ID>
HT1756

> <class>
1

> <apol>
58.46941

> <ast_fraglike>
0

> <ast_fraglike_ext>
0

> <ast_violation>
3

> <ast_violation_ext>
4

> <a_acc>
4

> <a_acid>
0

> <a_aro>
12

> <a_base>
0

> <a_count>
52

> <a_don>
2

> <a_donacc>
6

> <a_heavy>
25

> <a_hyd>
20

> <a_IC>
71.047348

> <a_ICM>
1.3662952

> <a_nB>
0

> <a_nBr>
0

> <a_nC>
21

> <a_nCl>
0

> <a_nF>
0

> <a_nH>
27

> <a_nI>
0

> <a_nN>
1

> <a_nO>
3

> <a_nP>
0

> <a_nS>
0

> <balabanJ>
1.7045739

> <BCUT_PEOE_0>
-2.6363702

> <BCUT_PEOE_1>
-0.63076788

> <BCUT_PEOE_2>
0.63489199

> <BCUT_PEOE_3>
2.5857437

> <BCUT_SLOGP_0>
-2.8016388

> <BCUT_SLOGP_1>
-0.53807992

> <BCUT_SLOGP_2>
0.67750871

> <BCUT_SLOGP_3>
2.5449069

> <BCUT_SMR_0>
-2.378613

> <BCUT_SMR_1>
-0.45611182

> <BCUT_SMR_2>
0.79206473

> <BCUT_SMR_3>
2.8280821

> <bpol>
33.050591

> <b_1rotN>
11

> <b_1rotR>
0.42307693

> <b_ar>
12

> <b_count>
53

> <b_double>
1

> <b_heavy>
26

> <b_max1len>
8

> <b_rotN>
11

> <b_rotR>
0.42307693

> <b_single>
40

> <b_triple>
0

> <chi0>
17.907566

> <chi0v>
14.779854

> <chi0v_C>
13.016144

> <chi0_C>
14.493353

> <chi1>
12.202708

> <chi1v>
8.8809729

> <chi1v_C>
7.2187438

> <chi1_C>
9.13976

> <chiral>
1

> <chiral_u>
1

> <density>
0.68241614

> <diameter>
16

> <FCharge>
0

> <GCUT_PEOE_0>
-0.84580672

> <GCUT_PEOE_1>
-0.3900249

> <GCUT_PEOE_2>
0.079273805

> <GCUT_PEOE_3>
2.5838232

> <GCUT_SLOGP_0>
-1.1534145

> <GCUT_SLOGP_1>
-0.33893999

> <GCUT_SLOGP_2>
0.15456104

> <GCUT_SLOGP_3>
2.6409988

> <GCUT_SMR_0>
-0.52430725

> <GCUT_SMR_1>
-0.21605732

> <GCUT_SMR_2>
0.17216511

> <GCUT_SMR_3>
2.8405576

> <Kier1>
21.301775

> <Kier2>
12.398438

> <Kier3>
8.0443211

> <KierA1>
16.779224

> <KierA2>
9.6624584

> <KierA3>
6.2191262

> <KierFlex>
6.4851422

> <lip_acc>
4

> <lip_don>
2

> <lip_druglike>
1

> <lip_violation>
0

> <logP(o/w)>
3.5420001

> <logS>
-3.5448401

> <mr>
10.199699

> <mutagenic>
0

> <nmol>
1

> <opr_brigid>
12

> <opr_leadlike>
1

> <opr_nring>
2

> <opr_nrot>
11

> <opr_violation>
1

> <PC+>
0

> <PC->
0

> <PEOE_PC+>
2.0162182

> <PEOE_PC->
-2.0162182

> <PEOE_RPC+>
0.10412143

> <PEOE_RPC->
0.19255739

> <PEOE_VSA+0>
79.552193

> <PEOE_VSA+1>
79.499374

> <PEOE_VSA+2>
8.6190128

> <PEOE_VSA+3>
8.458519

> <PEOE_VSA+4>
10.324173

> <PEOE_VSA+5>
0.0

> <PEOE_VSA+6>
0.0

> <PEOE_VSA-0>
57.313297

> <PEOE_VSA-1>
104.53201

> <PEOE_VSA-2>
0.0

> <PEOE_VSA-3>
0.0

> <PEOE_VSA-4>
0.0

> <PEOE_VSA-5>
13.566921

> <PEOE_VSA-6>
10.408187

> <PEOE_VSA_FHYD>
0.90786541

> <PEOE_VSA_FNEG>
0.49915001

> <PEOE_VSA_FPNEG>
0.064401835

> <PEOE_VSA_FPOL>
0.09213458

> <PEOE_VSA_FPOS>
0.50085002

> <PEOE_VSA_FPPOS>
0.027732749

> <PEOE_VSA_HYD>
337.9744

> <PEOE_VSA_NEG>
185.82042

> <PEOE_VSA_PNEG>
23.975109

> <PEOE_VSA_POL>
34.299282

> <PEOE_VSA_POS>
186.45328

> <PEOE_VSA_PPOS>
10.324173

> <petitjean>
0.5

> <petitjeanSC>
1.0

> <Q_PC+>
0

> <Q_PC->
0

> <Q_RPC+>
0

> <Q_RPC->
0

> <Q_VSA_FHYD>
1

> <Q_VSA_FNEG>
0

> <Q_VSA_FPNEG>
0

> <Q_VSA_FPOL>
0

> <Q_VSA_FPOS>
1

> <Q_VSA_FPPOS>
0

> <Q_VSA_HYD>
372.27368

> <Q_VSA_NEG>
0

> <Q_VSA_PNEG>
0

> <Q_VSA_POL>
0

> <Q_VSA_POS>
372.27368

> <Q_VSA_PPOS>
0

> <radius>
8

> <reactive>
1

> <rings>
2

> <RPC+>
0

> <RPC->
0

> <rsynth>
1.0

> <SlogP>
3.24137

> <SlogP_VSA0>
54.395866

> <SlogP_VSA1>
5.6876111

> <SlogP_VSA2>
6.4686494

> <SlogP_VSA3>
57.805416

> <SlogP_VSA4>
30.233366

> <SlogP_VSA5>
18.868406

> <SlogP_VSA6>
0.0

> <SlogP_VSA7>
158.78867

> <SlogP_VSA8>
37.736813

> <SlogP_VSA9>
38.569443

> <SMR>
10.0198

> <SMR_VSA0>
23.862217

> <SMR_VSA1>
36.385113

> <SMR_VSA2>
18.01075

> <SMR_VSA3>
18.083227

> <SMR_VSA4>
0.0

> <SMR_VSA5>
215.39388

> <SMR_VSA6>
63.493027

> <SMR_VSA7>
33.326015

> <TPSA>
58.560001

> <VAdjEq>
0.41335541

> <VAdjMa>
5.7004399

> <VDistEq>
3.6993747

> <VDistMa>
8.970088

> <vdw_area>
372.27368

> <vdw_vol>
500.35596

> <vsa_acc>
16.070677

> <vsa_acid>
0

> <vsa_base>
0

> <vsa_don>
0.0

> <vsa_hyd>
303.10199

> <vsa_other>
8.458519

> <vsa_pol>
35.320175

> <Weight>
341.45099

> <weinerPath>
1786

> <weinerPol>
32

> <zagreb>
116

$$$$
Row1705
 OpenBabel06061811532D

 11 11  0  0  0  0  0  0  0  0999 V2000
    0.0000    0.0000    0.0000 S   0  0  0  0  0  0  0  0  0  0  0  0
    0.0000    0.0000    0.0000 C   0  0  0  0  0  0  0  0  0  0  0  0
    0.0000    0.0000    0.0000 N   0  0  0  0  0  0  0  0  0  0  0  0
    0.0000    0.0000    0.0000 C   0  0  0  0  0  0  0  0  0  0  0  0
    0.0000    0.0000    0.0000 O   0  0  0  0  0  0  0  0  0  0  0  0
    0.0000    0.0000    0.0000 C   0  0  0  0  0  0  0  0  0  0  0  0
    0.0000    0.0000    0.0000 C   0  0  0  0  0  0  0  0  0  0  0  0
    0.0000    0.0000    0.0000 N   0  0  0  0  0  0  0  0  0  0  0  0
    0.0000    0.0000    0.0000 C   0  0  0  0  0  0  0  0  0  0  0  0
    0.0000    0.0000    0.0000 C   0  0  0  0  0  0  0  0  0  0  0  0
    0.0000    0.0000    0.0000 C   0  0  0  0  0  0  0  0  0  0  0  0
  1  2  1  0  0  0  0
  2  8  2  0  0  0  0
  2  3  1  0  0  0  0
  3  4  1  0  0  0  0
  4  5  2  0  0  0  0
  4  6  1  0  0  0  0
  6  7  2  0  0  0  0
  7  8  1  0  0  0  0
  7  9  1  0  0  0  0
  9 10  1  0  0  0  0
 10 11  1  0  0  0  0
M  END
> <Index>
1706

> <ID>
HT1768

> <class>
1

> <apol>
24.889931

> <ast_fraglike>
1

> <ast_fraglike_ext>
1

> <ast_violation>
0

> <ast_violation_ext>
0

> <a_acc>
2

> <a_acid>
0

> <a_aro>
0

> <a_base>
0

> <a_count>
21

> <a_don>
1

> <a_donacc>
3

> <a_heavy>
11

> <a_hyd>
5

> <a_IC>
37.367901

> <a_ICM>
1.7794238

> <a_nB>
0

> <a_nBr>
0

> <a_nC>
7

> <a_nCl>
0

> <a_nF>
0

> <a_nH>
10

> <a_nI>
0

> <a_nN>
2

> <a_nO>
1

> <a_nP>
0

> <a_nS>
1

> <balabanJ>
2.3358579

> <BCUT_PEOE_0>
-2.5152726

> <BCUT_PEOE_1>
-0.59169161

> <BCUT_PEOE_2>
0.50007653

> <BCUT_PEOE_3>
2.4813437

> <BCUT_SLOGP_0>
-2.4804299

> <BCUT_SLOGP_1>
-0.51158363

> <BCUT_SLOGP_2>
0.52868325

> <BCUT_SLOGP_3>
2.6297441

> <BCUT_SMR_0>
-2.2694068

> <BCUT_SMR_1>
-0.35272786

> <BCUT_SMR_2>
0.67985022

> <BCUT_SMR_3>
2.7413762

> <bpol>
16.15007

> <b_1rotN>
2

> <b_1rotR>
0.18181819

> <b_ar>
0

> <b_count>
21

> <b_double>
3

> <b_heavy>
11

> <b_max1len>
4

> <b_rotN>
2

> <b_rotR>
0.18181819

> <b_single>
18

> <b_triple>
0

> <chi0>
8.2675848

> <chi0v>
7.1886663

> <chi0v_C>
4.4915638

> <chi0_C>
4.8533711

> <chi1>
5.2195454

> <chi1v>
3.9601686

> <chi1v_C>
2.1380105

> <chi1_C>
2.4318516

> <chiral>
0

> <chiral_u>
0

> <density>
0.79795069

> <diameter>
6

> <FCharge>
0

> <GCUT_PEOE_0>
-0.78282553

> <GCUT_PEOE_1>
-0.47240967

> <GCUT_PEOE_2>
0.073016092

> <GCUT_PEOE_3>
2.1640158

> <GCUT_SLOGP_0>
-1.1688561

> <GCUT_SLOGP_1>
-0.37418878

> <GCUT_SLOGP_2>
0.091229863

> <GCUT_SLOGP_3>
2.2453032

> <GCUT_SMR_0>
-0.52399534

> <GCUT_SMR_1>
-0.13688913

> <GCUT_SMR_2>
0.19729692

> <GCUT_SMR_3>
2.4441116

> <Kier1>
9.090909

> <Kier2>
4.1326532

> <Kier3>
2.8444445

> <KierA1>
7.7599916

> <KierA2>
3.4662566

> <KierA3>
2.3485978

> <KierFlex>
2.4452839

> <lip_acc>
3

> <lip_don>
1

> <lip_druglike>
1

> <lip_violation>
0

> <logP(o/w)>
1.716

> <logS>
-2.73417

> <mr>
4.6450634

> <mutagenic>
0

> <nmol>
1

> <opr_brigid>
6

> <opr_leadlike>
1

> <opr_nring>
1

> <opr_nrot>
2

> <opr_violation>
0

> <PC+>
0

> <PC->
0

> <PEOE_PC+>
1.0293959

> <PEOE_PC->
-1.0293959

> <PEOE_RPC+>
0.24509932

> <PEOE_RPC->
0.29352218

> <PEOE_VSA+0>
48.812157

> <PEOE_VSA+1>
4.2653861

> <PEOE_VSA+2>
7.7810974

> <PEOE_VSA+3>
21.785637

> <PEOE_VSA+4>
0.0

> <PEOE_VSA+5>
12.949531

> <PEOE_VSA+6>
0.0

> <PEOE_VSA-0>
8.701313

> <PEOE_VSA-1>
27.44899

> <PEOE_VSA-2>
26.362989

> <PEOE_VSA-3>
0.0

> <PEOE_VSA-4>
5.6825762

> <PEOE_VSA-5>
13.566921

> <PEOE_VSA-6>
0.13689101

> <PEOE_VSA_FHYD>
0.81781912

> <PEOE_VSA_FNEG>
0.46142358

> <PEOE_VSA_FPNEG>
0.10922309

> <PEOE_VSA_FPOL>
0.18218087

> <PEOE_VSA_FPOS>
0.53857642

> <PEOE_VSA_FPPOS>
0.072957776

> <PEOE_VSA_HYD>
145.15758

> <PEOE_VSA_NEG>
81.899681

> <PEOE_VSA_PNEG>
19.386389

> <PEOE_VSA_POL>
32.335918

> <PEOE_VSA_POS>
95.593811

> <PEOE_VSA_PPOS>
12.949531

> <petitjean>
0.5

> <petitjeanSC>
1.0

> <Q_PC+>
0

> <Q_PC->
0

> <Q_RPC+>
0

> <Q_RPC->
0

> <Q_VSA_FHYD>
1

> <Q_VSA_FNEG>
0

> <Q_VSA_FPNEG>
0

> <Q_VSA_FPOL>
0

> <Q_VSA_FPOS>
1

> <Q_VSA_FPPOS>
0

> <Q_VSA_HYD>
177.49348

> <Q_VSA_NEG>
0

> <Q_VSA_PNEG>
0

> <Q_VSA_POL>
0

> <Q_VSA_POS>
177.49348

> <Q_VSA_PPOS>
0

> <radius>
3

> <reactive>
1

> <rings>
1

> <RPC+>
0

> <RPC->
0

> <rsynth>
1.0

> <SlogP>
1.086

> <SlogP_VSA0>
18.01075

> <SlogP_VSA1>
5.9518628

> <SlogP_VSA2>
23.862217

> <SlogP_VSA3>
0.0

> <SlogP_VSA4>
0.0

> <SlogP_VSA5>
19.542276

> <SlogP_VSA6>
0.0

> <SlogP_VSA7>
17.643185

> <SlogP_VSA8>
83.843925

> <SlogP_VSA9>
33.326015

> <SMR>
4.7555699

> <SMR_VSA0>
23.862217

> <SMR_VSA1>
16.78553

> <SMR_VSA2>
18.01075

> <SMR_VSA3>
2.7567475

> <SMR_VSA4>
0.0

> <SMR_VSA5>
55.379993

> <SMR_VSA6>
5.9518628

> <SMR_VSA7>
79.433128

> <TPSA>
80.260002

> <VAdjEq>
0.68403846

> <VAdjMa>
4.4594316

> <VDistEq>
2.436631

> <VDistMa>
6.5972228

> <vdw_area>
177.49348

> <vdw_vol>
213.34151

> <vsa_acc>
19.249496

> <vsa_acid>
0

> <vsa_base>
0

> <vsa_don>
5.6825762

> <vsa_hyd>
83.533485

> <vsa_other>
57.500668

> <vsa_pol>
24.932074

> <Weight>
170.23599

> <weinerPath>
158

> <weinerPol>
12

> <zagreb>
50

$$$$
Row1706
 OpenBabel06061811532D

 20 22  0  0  1  0  0  0  0  0999 V2000
    0.0000    0.0000    0.0000 N   0  0  0  0  0  0  0  0  0  0  0  0
    0.0000    0.0000    0.0000 C   0  0  0  0  0  0  0  0  0  0  0  0
    0.0000    0.0000    0.0000 C   0  0  0  0  0  0  0  0  0  0  0  0
    0.0000    0.0000    0.0000 C   0  0  0  0  0  0  0  0  0  0  0  0
    0.0000    0.0000    0.0000 C   0  0  3  0  0  0  0  0  0  0  0  0
    0.0000    0.0000    0.0000 C   0  0  0  0  0  0  0  0  0  0  0  0
    0.0000    0.0000    0.0000 C   0  0  0  0  0  0  0  0  0  0  0  0
    0.0000    0.0000    0.0000 C   0  0  0  0  0  0  0  0  0  0  0  0
    0.0000    0.0000    0.0000 C   0  0  0  0  0  0  0  0  0  0  0  0
    0.0000    0.0000    0.0000 C   0  0  0  0  0  0  0  0  0  0  0  0
    0.0000    0.0000    0.0000 C   0  0  0  0  0  0  0  0  0  0  0  0
    0.0000    0.0000    0.0000 C   0  0  0  0  0  0  0  0  0  0  0  0
    0.0000    0.0000    0.0000 C   0  0  0  0  0  0  0  0  0  0  0  0
    0.0000    0.0000    0.0000 C   0  0  0  0  0  0  0  0  0  0  0  0
    0.0000    0.0000    0.0000 C   0  0  0  0  0  0  0  0  0  0  0  0
    0.0000    0.0000    0.0000 C   0  0  0  0  0  0  0  0  0  0  0  0
    0.0000    0.0000    0.0000 C   0  0  0  0  0  0  0  0  0  0  0  0
    0.0000    0.0000    0.0000 C   0  0  0  0  0  0  0  0  0  0  0  0
    0.0000    0.0000    0.0000 C   0  0  0  0  0  0  0  0  0  0  0  0
    0.0000    0.0000    0.0000 C   0  0  0  0  0  0  0  0  0  0  0  0
  1  2  1  0  0  0  0
  1 20  1  0  0  0  0
  2  3  1  0  0  0  0
  3  4  1  0  0  0  0
  4  5  1  0  0  0  0
  5 11  1  0  0  0  0
  5  6  1  0  0  0  0
  6 19  1  0  0  0  0
  6  7  2  0  0  0  0
  7  8  1  0  0  0  0
  7 16  1  0  0  0  0
  8  9  2  0  0  0  0
  9 10  1  0  0  0  0
 10 15  1  0  0  0  0
 10 11  2  0  0  0  0
 11 12  1  0  0  0  0
 12 13  2  0  0  0  0
 13 14  1  0  0  0  0
 14 15  2  0  0  0  0
 16 17  2  0  0  0  0
 17 18  1  0  0  0  0
 18 19  2  0  0  0  0
M  END
> <Index>
1707

> <ID>
HT1770

> <class>
1

> <apol>
48.542652

> <ast_fraglike>
0

> <ast_fraglike_ext>
0

> <ast_violation>
1

> <ast_violation_ext>
2

> <a_acc>
1

> <a_acid>
0

> <a_aro>
12

> <a_base>
0

> <a_count>
41

> <a_don>
1

> <a_donacc>
2

> <a_heavy>
20

> <a_hyd>
19

> <a_IC>
46.710342

> <a_ICM>
1.1392766

> <a_nB>
0

> <a_nBr>
0

> <a_nC>
19

> <a_nCl>
0

> <a_nF>
0

> <a_nH>
21

> <a_nI>
0

> <a_nN>
1

> <a_nO>
0

> <a_nP>
0

> <a_nS>
0

> <balabanJ>
1.7363107

> <BCUT_PEOE_0>
-2.6436162

> <BCUT_PEOE_1>
-0.62175775

> <BCUT_PEOE_2>
0.65236437

> <BCUT_PEOE_3>
2.5919516

> <BCUT_SLOGP_0>
-2.6874874

> <BCUT_SLOGP_1>
-0.55119032

> <BCUT_SLOGP_2>
0.69317085

> <BCUT_SLOGP_3>
2.7085445

> <BCUT_SMR_0>
-2.377121

> <BCUT_SMR_1>
-0.49073729

> <BCUT_SMR_2>
0.77872211

> <BCUT_SMR_3>
2.8659408

> <bpol>
23.617348

> <b_1rotN>
4

> <b_1rotR>
0.18181819

> <b_ar>
12

> <b_count>
43

> <b_double>
1

> <b_heavy>
22

> <b_max1len>
7

> <b_rotN>
4

> <b_rotR>
0.18181819

> <b_single>
30

> <b_triple>
0

> <chi0>
13.786246

> <chi0v>
11.972174

> <chi0v_C>
11.472174

> <chi0_C>
13.07914

> <chi1>
9.8981781

> <chi1v>
7.4045362

> <chi1v_C>
6.5509825

> <chi1_C>
8.6910715

> <chiral>
0

> <chiral_u>
0

> <density>
0.6403113

> <diameter>
9

> <FCharge>
0

> <GCUT_PEOE_0>
-0.85466909

> <GCUT_PEOE_1>
-0.39148951

> <GCUT_PEOE_2>
0.095584117

> <GCUT_PEOE_3>
2.714283

> <GCUT_SLOGP_0>
-1.1525089

> <GCUT_SLOGP_1>
-0.25775149

> <GCUT_SLOGP_2>
0.17887267

> <GCUT_SLOGP_3>
2.858412

> <GCUT_SMR_0>
-0.52337503

> <GCUT_SMR_1>
-0.20286371

> <GCUT_SMR_2>
0.1906067

> <GCUT_SMR_3>
3.008791

> <Kier1>
14.917356

> <Kier2>
7.3198571

> <Kier3>
3.4425001

> <KierA1>
11.08651

> <KierA2>
5.3479114

> <KierA3>
2.4837554

> <KierFlex>
2.9644835

> <lip_acc>
1

> <lip_don>
1

> <lip_druglike>
1

> <lip_violation>
0

> <logP(o/w)>
4.9359999

> <logS>
-4.1480799

> <mr>
8.5159101

> <mutagenic>
0

> <nmol>
1

> <opr_brigid>
17

> <opr_leadlike>
1

> <opr_nring>
3

> <opr_nrot>
4

> <opr_violation>
0

> <PC+>
0

> <PC->
0

> <PEOE_PC+>
1.1041079

> <PEOE_PC->
-1.1041079

> <PEOE_RPC+>
0.11016416

> <PEOE_RPC->
0.28889462

> <PEOE_VSA+0>
42.653858

> <PEOE_VSA+1>
42.653858

> <PEOE_VSA+2>
8.6190128

> <PEOE_VSA+3>
0.0

> <PEOE_VSA+4>
0.0

> <PEOE_VSA+5>
0.0

> <PEOE_VSA+6>
0.0

> <PEOE_VSA-0>
62.667797

> <PEOE_VSA-1>
122.54904

> <PEOE_VSA-2>
0.0

> <PEOE_VSA-3>
0.0

> <PEOE_VSA-4>
0.0

> <PEOE_VSA-5>
0.0

> <PEOE_VSA-6>
0.13689101

> <PEOE_VSA_FHYD>
0.99950987

> <PEOE_VSA_FNEG>
0.66368312

> <PEOE_VSA_FPNEG>
4.90156E-4

> <PEOE_VSA_FPOL>
4.90156E-4

> <PEOE_VSA_FPOS>
0.33631688

> <PEOE_VSA_FPPOS>
0.0

> <PEOE_VSA_HYD>
279.14359

> <PEOE_VSA_NEG>
185.35373

> <PEOE_VSA_PNEG>
0.13689101

> <PEOE_VSA_POL>
0.13689101

> <PEOE_VSA_POS>
93.926735

> <PEOE_VSA_PPOS>
0.0

> <petitjean>
0.44444445

> <petitjeanSC>
0.80000001

> <Q_PC+>
0

> <Q_PC->
0

> <Q_RPC+>
0

> <Q_RPC->
0

> <Q_VSA_FHYD>
1

> <Q_VSA_FNEG>
0

> <Q_VSA_FPNEG>
0

> <Q_VSA_FPOL>
0

> <Q_VSA_FPOS>
1

> <Q_VSA_FPPOS>
0

> <Q_VSA_HYD>
279.28046

> <Q_VSA_NEG>
0

> <Q_VSA_PNEG>
0

> <Q_VSA_POL>
0

> <Q_VSA_POS>
279.28046

> <Q_VSA_PPOS>
0

> <radius>
5

> <reactive>
0

> <rings>
3

> <RPC+>
0

> <RPC->
0

> <rsynth>
0.0

> <SlogP>
4.3018999

> <SlogP_VSA0>
18.01075

> <SlogP_VSA1>
0.0

> <SlogP_VSA2>
0.0

> <SlogP_VSA3>
18.439579

> <SlogP_VSA4>
12.7423

> <SlogP_VSA5>
32.897186

> <SlogP_VSA6>
4.4107962

> <SlogP_VSA7>
141.14548

> <SlogP_VSA8>
73.023178

> <SlogP_VSA9>
0.0

> <SMR>
8.6815701

> <SMR_VSA0>
0.0

> <SMR_VSA1>
0.0

> <SMR_VSA2>
18.01075

> <SMR_VSA3>
17.153095

> <SMR_VSA4>
0.0

> <SMR_VSA5>
178.88228

> <SMR_VSA6>
53.725948

> <SMR_VSA7>
32.897186

> <TPSA>
12.03

> <VAdjEq>
0.49991596

> <VAdjMa>
5.4594316

> <VDistEq>
2.9541149

> <VDistMa>
8.3778744

> <vdw_area>
279.28046

> <vdw_vol>
411.3374

> <vsa_acc>
0.0

> <vsa_acid>
0

> <vsa_base>
0

> <vsa_don>
0.0

> <vsa_hyd>
254.9436

> <vsa_other>
0.0

> <vsa_pol>
5.6825762

> <Weight>
263.384

> <weinerPath>
759

> <weinerPol>
34

> <zagreb>
102

$$$$
Row1707
 OpenBabel06061811532D

 30 34  0  0  1  0  0  0  0  0999 V2000
    0.0000    0.0000    0.0000 O   0  0  0  0  0  0  0  0  0  0  0  0
    0.0000    0.0000    0.0000 C   0  0  0  0  0  0  0  0  0  0  0  0
    0.0000    0.0000    0.0000 C   0  0  0  0  0  0  0  0  0  0  0  0
    0.0000    0.0000    0.0000 C   0  0  0  0  0  0  0  0  0  0  0  0
    0.0000    0.0000    0.0000 C   0  0  0  0  0  0  0  0  0  0  0  0
    0.0000    0.0000    0.0000 C   0  0  0  0  0  0  0  0  0  0  0  0
    0.0000    0.0000    0.0000 C   0  0  0  0  0  0  0  0  0  0  0  0
    0.0000    0.0000    0.0000 C   0  0  0  0  0  0  0  0  0  0  0  0
    0.0000    0.0000    0.0000 C   0  0  0  0  0  0  0  0  0  0  0  0
    0.0000    0.0000    0.0000 C   0  0  0  0  0  0  0  0  0  0  0  0
    0.0000    0.0000    0.0000 C   0  0  0  0  0  0  0  0  0  0  0  0
    0.0000    0.0000    0.0000 C   0  0  1  0  0  0  0  0  0  0  0  0
    0.0000    0.0000    0.0000 H   0  0  0  0  0  0  0  0  0  0  0  0
    0.0000    0.0000    0.0000 C   0  0  2  0  0  0  0  0  0  0  0  0
    0.0000    0.0000    0.0000 H   0  0  0  0  0  0  0  0  0  0  0  0
    0.0000    0.0000    0.0000 C   0  0  0  0  0  0  0  0  0  0  0  0
    0.0000    0.0000    0.0000 C   0  0  0  0  0  0  0  0  0  0  0  0
    0.0000    0.0000    0.0000 C   0  0  1  0  0  0  0  0  0  0  0  0
    0.0000    0.0000    0.0000 O   0  0  0  0  0  0  0  0  0  0  0  0
    0.0000    0.0000    0.0000 C   0  0  0  0  0  0  0  0  0  0  0  0
    0.0000    0.0000    0.0000 C   0  0  0  0  0  0  0  0  0  0  0  0
    0.0000    0.0000    0.0000 C   0  0  1  0  0  0  0  0  0  0  0  0
    0.0000    0.0000    0.0000 C   0  0  0  0  0  0  0  0  0  0  0  0
    0.0000    0.0000    0.0000 C   0  0  0  0  0  0  0  0  0  0  0  0
    0.0000    0.0000    0.0000 C   0  0  2  0  0  0  0  0  0  0  0  0
    0.0000    0.0000    0.0000 H   0  0  0  0  0  0  0  0  0  0  0  0
    0.0000    0.0000    0.0000 C   0  0  0  0  0  0  0  0  0  0  0  0
    0.0000    0.0000    0.0000 C   0  0  0  0  0  0  0  0  0  0  0  0
    0.0000    0.0000    0.0000 C   0  0  0  0  0  0  0  0  0  0  0  0
    0.0000    0.0000    0.0000 C   0  0  0  0  0  0  0  0  0  0  0  0
  1  2  1  0  0  0  0
  1  7  1  0  0  0  0
  2  6  1  0  0  0  0
  2  3  1  0  0  0  0
  3  4  1  0  0  0  0
  4  5  1  0  0  0  0
  5  6  1  0  0  0  0
  7 29  1  0  0  0  0
  7  8  2  0  0  0  0
  8  9  1  0  0  0  0
  9 27  2  0  0  0  0
  9 10  1  0  0  0  0
 10 11  1  0  0  0  0
 11 12  1  0  0  0  0
 12 13  1  0  0  0  0
 12 25  1  0  0  0  0
 12 14  1  0  0  0  0
 14 15  1  0  0  0  0
 14 22  1  0  0  0  0
 14 16  1  0  0  0  0
 16 17  1  0  0  0  0
 17 18  1  0  0  0  0
 18 19  1  0  0  0  0
 18 20  1  0  0  0  0
 18 22  1  0  0  0  0
 20 21  3  0  0  0  0
 22 23  1  0  0  0  0
 22 30  1  0  0  0  0
 23 24  1  0  0  0  0
 24 25  1  0  0  0  0
 25 26  1  0  0  0  0
 25 27  1  0  0  0  0
 27 28  1  0  0  0  0
 28 29  2  0  0  0  0
M  END
> <Index>
1708

> <ID>
HT1788

> <class>
1

> <apol>
66.941376

> <ast_fraglike>
0

> <ast_fraglike_ext>
0

> <ast_violation>
2

> <ast_violation_ext>
3

> <a_acc>
2

> <a_acid>
0

> <a_aro>
6

> <a_base>
0

> <a_count>
59

> <a_don>
1

> <a_donacc>
3

> <a_heavy>
27

> <a_hyd>
25

> <a_IC>
68.979538

> <a_ICM>
1.1691446

> <a_nB>
0

> <a_nBr>
0

> <a_nC>
25

> <a_nCl>
0

> <a_nF>
0

> <a_nH>
32

> <a_nI>
0

> <a_nN>
0

> <a_nO>
2

> <a_nP>
0

> <a_nS>
0

> <balabanJ>
1.2626331

> <BCUT_PEOE_0>
-2.8824642

> <BCUT_PEOE_1>
-0.5437445

> <BCUT_PEOE_2>
0.59734142

> <BCUT_PEOE_3>
2.9363878

> <BCUT_SLOGP_0>
-2.8058302

> <BCUT_SLOGP_1>
-0.54250145

> <BCUT_SLOGP_2>
0.60886961

> <BCUT_SLOGP_3>
3.0056543

> <BCUT_SMR_0>
-2.6298289

> <BCUT_SMR_1>
-0.39859393

> <BCUT_SMR_2>
0.73590094

> <BCUT_SMR_3>
3.1829071

> <bpol>
36.898624

> <b_1rotN>
2

> <b_1rotR>
0.064516127

> <b_ar>
6

> <b_count>
63

> <b_double>
0

> <b_heavy>
31

> <b_max1len>
3

> <b_rotN>
3

> <b_rotR>
0.096774191

> <b_single>
56

> <b_triple>
1

> <chi0>
18.648054

> <chi0v>
16.545332

> <chi0v_C>
15.68987

> <chi0_C>
16.940947

> <chi1>
13.038754

> <chi1v>
11.03606

> <chi1v_C>
10.372627

> <chi1_C>
11.722259

> <chiral>
5

> <chiral_u>
0

> <density>
0.66908127

> <diameter>
14

> <FCharge>
0

> <GCUT_PEOE_0>
-0.79592961

> <GCUT_PEOE_1>
-0.37968573

> <GCUT_PEOE_2>
0.045250822

> <GCUT_PEOE_3>
3.1937001

> <GCUT_SLOGP_0>
-0.88999188

> <GCUT_SLOGP_1>
-0.30642736

> <GCUT_SLOGP_2>
0.11085233

> <GCUT_SLOGP_3>
3.2882276

> <GCUT_SMR_0>
-0.53547466

> <GCUT_SMR_1>
-0.21679907

> <GCUT_SMR_2>
0.16281281

> <GCUT_SMR_3>
3.4315495

> <Kier1>
18.992716

> <Kier2>
7.0529513

> <Kier3>
2.970839

> <KierA1>
16.472599

> <KierA2>
6.0819454

> <KierA3>
2.5508919

> <KierFlex>
3.7105722

> <lip_acc>
2

> <lip_don>
1

> <lip_druglike>
1

> <lip_violation>
1

> <logP(o/w)>
6.0240002

> <logS>
-6.50529

> <mr>
10.782357

> <mutagenic>
0

> <nmol>
1

> <opr_brigid>
26

> <opr_leadlike>
0

> <opr_nring>
5

> <opr_nrot>
4

> <opr_violation>
2

> <PC+>
0

> <PC->
0

> <PEOE_PC+>
1.6008984

> <PEOE_PC->
-1.6008984

> <PEOE_RPC+>
0.13205512

> <PEOE_RPC->
0.23486045

> <PEOE_VSA+0>
110.90004

> <PEOE_VSA+1>
30.424992

> <PEOE_VSA+2>
4.2653861

> <PEOE_VSA+3>
0.0

> <PEOE_VSA+4>
10.324173

> <PEOE_VSA+5>
0.0

> <PEOE_VSA+6>
0.0

> <PEOE_VSA-0>
98.537392

> <PEOE_VSA-1>
64.213699

> <PEOE_VSA-2>
25.854858

> <PEOE_VSA-3>
0.0

> <PEOE_VSA-4>
0.0

> <PEOE_VSA-5>
0.0

> <PEOE_VSA-6>
10.271297

> <PEOE_VSA_FHYD>
0.94195056

> <PEOE_VSA_FNEG>
0.56054628

> <PEOE_VSA_FPNEG>
0.028950205

> <PEOE_VSA_FPOL>
0.058049444

> <PEOE_VSA_FPOS>
0.43945369

> <PEOE_VSA_FPPOS>
0.029099239

> <PEOE_VSA_HYD>
334.19638

> <PEOE_VSA_NEG>
198.87726

> <PEOE_VSA_PNEG>
10.271297

> <PEOE_VSA_POL>
20.595469

> <PEOE_VSA_POS>
155.91458

> <PEOE_VSA_PPOS>
10.324173

> <petitjean>
0.5

> <petitjeanSC>
1.0

> <Q_PC+>
0

> <Q_PC->
0

> <Q_RPC+>
0

> <Q_RPC->
0

> <Q_VSA_FHYD>
1

> <Q_VSA_FNEG>
0

> <Q_VSA_FPNEG>
0

> <Q_VSA_FPOL>
0

> <Q_VSA_FPOS>
1

> <Q_VSA_FPPOS>
0

> <Q_VSA_HYD>
354.79184

> <Q_VSA_NEG>
0

> <Q_VSA_PNEG>
0

> <Q_VSA_POL>
0

> <Q_VSA_POS>
354.79184

> <Q_VSA_PPOS>
0

> <radius>
7

> <reactive>
0

> <rings>
5

> <RPC+>
0

> <RPC->
0

> <rsynth>
0.18518518

> <SlogP>
5.2283778

> <SlogP_VSA0>
36.385113

> <SlogP_VSA1>
0.0

> <SlogP_VSA2>
6.4686494

> <SlogP_VSA3>
17.030573

> <SlogP_VSA4>
46.680923

> <SlogP_VSA5>
18.868406

> <SlogP_VSA6>
4.4107962

> <SlogP_VSA7>
52.929554

> <SlogP_VSA8>
169.81564

> <SlogP_VSA9>
38.569443

> <SMR>
10.77258

> <SMR_VSA0>
0.0

> <SMR_VSA1>
36.385113

> <SMR_VSA2>
8.8215923

> <SMR_VSA3>
39.524597

> <SMR_VSA4>
0.0

> <SMR_VSA5>
241.6136

> <SMR_VSA6>
31.488184

> <SMR_VSA7>
33.326015

> <TPSA>
29.459999

> <VAdjEq>
0.41972107

> <VAdjMa>
5.9541965

> <VDistEq>
3.5193462

> <VDistMa>
9.1855202

> <vdw_area>
354.79184

> <vdw_vol>
544.82019

> <vsa_acc>
2.503756

> <vsa_acid>
0

> <vsa_base>
0

> <vsa_don>
0.0

> <vsa_hyd>
308.09555

> <vsa_other>
0.0

> <vsa_pol>
16.070677

> <Weight>
364.52899

> <weinerPath>
1843

> <weinerPol>
52

> <zagreb>
158

$$$$
Row1708
 OpenBabel06061811532D

 18 19  0  0  1  0  0  0  0  0999 V2000
    0.0000    0.0000    0.0000 Cl  0  0  0  0  0  0  0  0  0  0  0  0
    0.0000    0.0000    0.0000 C   0  0  0  0  0  0  0  0  0  0  0  0
    0.0000    0.0000    0.0000 C   0  0  0  0  0  0  0  0  0  0  0  0
    0.0000    0.0000    0.0000 C   0  0  0  0  0  0  0  0  0  0  0  0
    0.0000    0.0000    0.0000 N   0  0  0  0  0  0  0  0  0  0  0  0
    0.0000    0.0000    0.0000 C   0  0  3  0  0  0  0  0  0  0  0  0
    0.0000    0.0000    0.0000 N   0  0  0  0  0  0  0  0  0  0  0  0
    0.0000    0.0000    0.0000 C   0  0  0  0  0  0  0  0  0  0  0  0
    0.0000    0.0000    0.0000 O   0  0  0  0  0  0  0  0  0  0  0  0
    0.0000    0.0000    0.0000 C   0  0  0  0  0  0  0  0  0  0  0  0
    0.0000    0.0000    0.0000 C   0  0  0  0  0  0  0  0  0  0  0  0
    0.0000    0.0000    0.0000 C   0  0  0  0  0  0  0  0  0  0  0  0
    0.0000    0.0000    0.0000 S   0  0  0  0  0  0  0  0  0  0  0  0
    0.0000    0.0000    0.0000 O   0  0  0  0  0  0  0  0  0  0  0  0
    0.0000    0.0000    0.0000 O   0  0  0  0  0  0  0  0  0  0  0  0
    0.0000    0.0000    0.0000 N   0  0  0  0  0  0  0  0  0  0  0  0
    0.0000    0.0000    0.0000 C   0  0  0  0  0  0  0  0  0  0  0  0
    0.0000    0.0000    0.0000 C   0  0  0  0  0  0  0  0  0  0  0  0
  1  2  1  0  0  0  0
  2 12  1  0  0  0  0
  2  3  2  0  0  0  0
  3  4  1  0  0  0  0
  4 10  2  0  0  0  0
  4  5  1  0  0  0  0
  5  6  1  0  0  0  0
  6  7  1  0  0  0  0
  6 17  1  0  0  0  0
  7  8  1  0  0  0  0
  8  9  2  0  0  0  0
  8 10  1  0  0  0  0
 10 11  1  0  0  0  0
 11 12  2  0  0  0  0
 12 13  1  0  0  0  0
 13 14  2  0  0  0  0
 13 15  2  0  0  0  0
 13 16  1  0  0  0  0
 17 18  1  0  0  0  0
M  END
> <Index>
1709

> <ID>
HT1789

> <class>
1

> <apol>
36.387516

> <ast_fraglike>
1

> <ast_fraglike_ext>
0

> <ast_violation>
0

> <ast_violation_ext>
1

> <a_acc>
3

> <a_acid>
0

> <a_aro>
6

> <a_base>
0

> <a_count>
30

> <a_don>
3

> <a_donacc>
6

> <a_heavy>
18

> <a_hyd>
9

> <a_IC>
61.458111

> <a_ICM>
2.0486038

> <a_nB>
0

> <a_nBr>
0

> <a_nC>
10

> <a_nCl>
1

> <a_nF>
0

> <a_nH>
12

> <a_nI>
0

> <a_nN>
3

> <a_nO>
3

> <a_nP>
0

> <a_nS>
1

> <balabanJ>
2.1050277

> <BCUT_PEOE_0>
-2.6168537

> <BCUT_PEOE_1>
-0.51473188

> <BCUT_PEOE_2>
0.59616417

> <BCUT_PEOE_3>
2.5690553

> <BCUT_SLOGP_0>
-2.7509515

> <BCUT_SLOGP_1>
-0.44945571

> <BCUT_SLOGP_2>
0.64621991

> <BCUT_SLOGP_3>
2.5686824

> <BCUT_SMR_0>
-2.3369095

> <BCUT_SMR_1>
-0.36578879

> <BCUT_SMR_2>
0.722184

> <BCUT_SMR_3>
2.8529141

> <bpol>
21.632484

> <b_1rotN>
2

> <b_1rotR>
0.10526316

> <b_ar>
6

> <b_count>
31

> <b_double>
1

> <b_heavy>
19

> <b_max1len>
4

> <b_rotN>
2

> <b_rotR>
0.10526316

> <b_single>
24

> <b_triple>
0

> <chi0>
13.499636

> <chi0v>
11.099891

> <chi0v_C>
5.9391575

> <chi0_C>
6.585422

> <chi1>
8.3247175

> <chi1v>
7.1879559

> <chi1v_C>
3.0200555

> <chi1_C>
3.7483482

> <chiral>
1

> <chiral_u>
1

> <density>
0.91771346

> <diameter>
9

> <FCharge>
0

> <GCUT_PEOE_0>
-0.82314074

> <GCUT_PEOE_1>
-0.42019448

> <GCUT_PEOE_2>
0.092553116

> <GCUT_PEOE_3>
2.4918349

> <GCUT_SLOGP_0>
-1.3482763

> <GCUT_SLOGP_1>
-0.37041652

> <GCUT_SLOGP_2>
0.15285181

> <GCUT_SLOGP_3>
2.5170858

> <GCUT_SMR_0>
-0.5211302

> <GCUT_SMR_1>
-0.18682766

> <GCUT_SMR_2>
0.19018418

> <GCUT_SMR_3>
2.7684052

> <Kier1>
14.409972

> <Kier2>
5.1747918

> <Kier3>
2.9629629

> <KierA1>
13.282357

> <KierA2>
4.7457323

> <KierA3>
2.7071245

> <KierFlex>
3.5019174

> <lip_acc>
6

> <lip_don>
4

> <lip_druglike>
1

> <lip_violation>
0

> <logP(o/w)>
0.74299997

> <logS>
-2.84692

> <mr>
6.8131185

> <mutagenic>
0

> <nmol>
1

> <opr_brigid>
11

> <opr_leadlike>
1

> <opr_nring>
2

> <opr_nrot>
2

> <opr_violation>
0

> <PC+>
0

> <PC->
0

> <PEOE_PC+>
1.7073392

> <PEOE_PC->
-1.7073392

> <PEOE_RPC+>
0.17621611

> <PEOE_RPC->
0.19705836

> <PEOE_VSA+0>
55.370117

> <PEOE_VSA+1>
34.896572

> <PEOE_VSA+2>
13.13876

> <PEOE_VSA+3>
8.6190128

> <PEOE_VSA+4>
0.0

> <PEOE_VSA+5>
12.949531

> <PEOE_VSA+6>
4.1846013

> <PEOE_VSA-0>
20.956217

> <PEOE_VSA-1>
48.329624

> <PEOE_VSA-2>
0.0

> <PEOE_VSA-3>
9.0437498

> <PEOE_VSA-4>
32.016521

> <PEOE_VSA-5>
13.703812

> <PEOE_VSA-6>
0.13689101

> <PEOE_VSA_FHYD>
0.75136173

> <PEOE_VSA_FNEG>
0.49018776

> <PEOE_VSA_FPNEG>
0.18100673

> <PEOE_VSA_FPOL>
0.24863824

> <PEOE_VSA_FPOS>
0.50981224

> <PEOE_VSA_FPPOS>
0.067631505

> <PEOE_VSA_HYD>
190.35405

> <PEOE_VSA_NEG>
124.18682

> <PEOE_VSA_PNEG>
45.857227

> <PEOE_VSA_POL>
62.99136

> <PEOE_VSA_POS>
129.1586

> <PEOE_VSA_PPOS>
17.134132

> <petitjean>
0.44444445

> <petitjeanSC>
0.80000001

> <Q_PC+>
0

> <Q_PC->
0

> <Q_RPC+>
0

> <Q_RPC->
0

> <Q_VSA_FHYD>
1

> <Q_VSA_FNEG>
0

> <Q_VSA_FPNEG>
0

> <Q_VSA_FPOL>
0

> <Q_VSA_FPOS>
1

> <Q_VSA_FPPOS>
0

> <Q_VSA_HYD>
253.34541

> <Q_VSA_NEG>
0

> <Q_VSA_PNEG>
0

> <Q_VSA_POL>
0

> <Q_VSA_POS>
253.34541

> <Q_VSA_PPOS>
0

> <radius>
5

> <reactive>
0

> <rings>
2

> <RPC+>
0

> <RPC->
0

> <rsynth>
1.0

> <SlogP>
0.87879997

> <SlogP_VSA0>
49.302185

> <SlogP_VSA1>
71.441223

> <SlogP_VSA2>
10.193884

> <SlogP_VSA3>
0.0

> <SlogP_VSA4>
27.047791

> <SlogP_VSA5>
1.5507339

> <SlogP_VSA6>
3.5006065

> <SlogP_VSA7>
35.286369

> <SlogP_VSA8>
18.868406

> <SlogP_VSA9>
75.231407

> <SMR>
6.7993102

> <SMR_VSA0>
72.033905

> <SMR_VSA1>
0.0

> <SMR_VSA2>
19.561485

> <SMR_VSA3>
10.239323

> <SMR_VSA4>
52.058933

> <SMR_VSA5>
54.154774

> <SMR_VSA6>
5.2587838

> <SMR_VSA7>
79.115402

> <TPSA>
101.29

> <VAdjEq>
0.52150291

> <VAdjMa>
5.2479277

> <VDistEq>
2.8772831

> <VDistMa>
8.0574636

> <vdw_area>
253.34541

> <vdw_vol>
315.72272

> <vsa_acc>
45.583443

> <vsa_acid>
0

> <vsa_base>
0

> <vsa_don>
31.500273

> <vsa_hyd>
124.02832

> <vsa_other>
34.245701

> <vsa_pol>
77.083717

> <Weight>
289.74301

> <weinerPath>
567

> <weinerPol>
30

> <zagreb>
96

$$$$
Row1709
 OpenBabel06061811532D

 28 31  0  0  1  0  0  0  0  0999 V2000
    0.0000    0.0000    0.0000 O   0  0  0  0  0  0  0  0  0  0  0  0
    0.0000    0.0000    0.0000 C   0  0  0  0  0  0  0  0  0  0  0  0
    0.0000    0.0000    0.0000 C   0  0  0  0  0  0  0  0  0  0  0  0
    0.0000    0.0000    0.0000 C   0  0  0  0  0  0  0  0  0  0  0  0
    0.0000    0.0000    0.0000 C   0  0  0  0  0  0  0  0  0  0  0  0
    0.0000    0.0000    0.0000 C   0  0  0  0  0  0  0  0  0  0  0  0
    0.0000    0.0000    0.0000 N   0  0  0  0  0  0  0  0  0  0  0  0
    0.0000    0.0000    0.0000 C   0  0  0  0  0  0  0  0  0  0  0  0
    0.0000    0.0000    0.0000 C   0  0  0  0  0  0  0  0  0  0  0  0
    0.0000    0.0000    0.0000 C   0  0  0  0  0  0  0  0  0  0  0  0
    0.0000    0.0000    0.0000 C   0  0  1  0  0  0  0  0  0  0  0  0
    0.0000    0.0000    0.0000 H   0  0  0  0  0  0  0  0  0  0  0  0
    0.0000    0.0000    0.0000 O   0  0  0  0  0  0  0  0  0  0  0  0
    0.0000    0.0000    0.0000 C   0  0  1  0  0  0  0  0  0  0  0  0
    0.0000    0.0000    0.0000 H   0  0  0  0  0  0  0  0  0  0  0  0
    0.0000    0.0000    0.0000 N   0  0  3  0  0  0  0  0  0  0  0  0
    0.0000    0.0000    0.0000 C   0  0  0  0  0  0  0  0  0  0  0  0
    0.0000    0.0000    0.0000 C   0  0  1  0  0  0  0  0  0  0  0  0
    0.0000    0.0000    0.0000 H   0  0  0  0  0  0  0  0  0  0  0  0
    0.0000    0.0000    0.0000 C   0  0  2  0  0  0  0  0  0  0  0  0
    0.0000    0.0000    0.0000 H   0  0  0  0  0  0  0  0  0  0  0  0
    0.0000    0.0000    0.0000 C   0  0  0  0  0  0  0  0  0  0  0  0
    0.0000    0.0000    0.0000 C   0  0  0  0  0  0  0  0  0  0  0  0
    0.0000    0.0000    0.0000 C   0  0  0  0  0  0  0  0  0  0  0  0
    0.0000    0.0000    0.0000 C   0  0  0  0  0  0  0  0  0  0  0  0
    0.0000    0.0000    0.0000 C   0  0  0  0  0  0  0  0  0  0  0  0
    0.0000    0.0000    0.0000 C   0  0  0  0  0  0  0  0  0  0  0  0
    0.0000    0.0000    0.0000 C   0  0  0  0  0  0  0  0  0  0  0  0
  1  2  1  0  0  0  0
  1  3  1  0  0  0  0
  3 28  1  0  0  0  0
  3  4  2  0  0  0  0
  4  5  1  0  0  0  0
  5 10  1  0  0  0  0
  5  6  2  0  0  0  0
  6  7  1  0  0  0  0
  6 27  1  0  0  0  0
  7  8  2  0  0  0  0
  8  9  1  0  0  0  0
  9 10  2  0  0  0  0
 10 11  1  0  0  0  0
 11 12  1  0  0  0  0
 11 13  1  0  0  0  0
 11 14  1  0  0  0  0
 14 15  1  0  0  0  0
 14 22  1  0  0  0  0
 14 16  1  0  0  0  0
 16 24  1  0  0  0  0
 16 17  1  0  0  0  0
 17 18  1  0  0  0  0
 18 19  1  0  0  0  0
 18 20  1  0  0  0  0
 18 25  1  0  0  0  0
 20 21  1  0  0  0  0
 20 22  1  0  0  0  0
 20 23  1  0  0  0  0
 23 24  1  0  0  0  0
 25 26  2  0  0  0  0
 27 28  2  0  0  0  0
M  END
> <Index>
1710

> <ID>
HT1790

> <class>
1

> <apol>
55.00703

> <ast_fraglike>
0

> <ast_fraglike_ext>
0

> <ast_violation>
3

> <ast_violation_ext>
4

> <a_acc>
4

> <a_acid>
0

> <a_aro>
10

> <a_base>
0

> <a_count>
48

> <a_don>
1

> <a_donacc>
5

> <a_heavy>
24

> <a_hyd>
20

> <a_IC>
67.60054

> <a_ICM>
1.4083445

> <a_nB>
0

> <a_nBr>
0

> <a_nC>
20

> <a_nCl>
0

> <a_nF>
0

> <a_nH>
24

> <a_nI>
0

> <a_nN>
2

> <a_nO>
2

> <a_nP>
0

> <a_nS>
0

> <balabanJ>
1.4634196

> <BCUT_PEOE_0>
-2.907095

> <BCUT_PEOE_1>
-0.59050947

> <BCUT_PEOE_2>
0.60681129

> <BCUT_PEOE_3>
2.8452537

> <BCUT_SLOGP_0>
-2.9229503

> <BCUT_SLOGP_1>
-0.53782898

> <BCUT_SLOGP_2>
0.64400125

> <BCUT_SLOGP_3>
2.8598366

> <BCUT_SMR_0>
-2.6418777

> <BCUT_SMR_1>
-0.39043638

> <BCUT_SMR_2>
0.74600792

> <BCUT_SMR_3>
3.1059954

> <bpol>
31.452969

> <b_1rotN>
4

> <b_1rotR>
0.14814815

> <b_ar>
11

> <b_count>
51

> <b_double>
1

> <b_heavy>
27

> <b_max1len>
4

> <b_rotN>
4

> <b_rotR>
0.14814815

> <b_single>
39

> <b_triple>
0

> <chi0>
16.681435

> <chi0v>
14.058926

> <chi0v_C>
12.309036

> <chi0_C>
13.68987

> <chi1>
11.70704

> <chi1v>
8.6829901

> <chi1v_C>
6.439959

> <chi1_C>
7.9562564

> <chiral>
4

> <chiral_u>
0

> <density>
0.69930238

> <diameter>
12

> <FCharge>
0

> <GCUT_PEOE_0>
-0.8489871

> <GCUT_PEOE_1>
-0.41208896

> <GCUT_PEOE_2>
0.051889453

> <GCUT_PEOE_3>
2.9162807

> <GCUT_SLOGP_0>
-0.9527958

> <GCUT_SLOGP_1>
-0.32904956

> <GCUT_SLOGP_2>
0.11949125

> <GCUT_SLOGP_3>
2.978549

> <GCUT_SMR_0>
-0.52269238

> <GCUT_SMR_1>
-0.20971419

> <GCUT_SMR_2>
0.16281939

> <GCUT_SMR_3>
3.1685472

> <Kier1>
17.415638

> <Kier2>
7.3188691

> <Kier3>
3.2410715

> <KierA1>
14.071748

> <KierA2>
5.8552427

> <KierA3>
2.5744591

> <KierFlex>
3.4330623

> <lip_acc>
4

> <lip_don>
1

> <lip_druglike>
1

> <lip_violation>
0

> <logP(o/w)>
2.77

> <logS>
-3.0364201

> <mr>
9.48242

> <mutagenic>
0

> <nmol>
1

> <opr_brigid>
21

> <opr_leadlike>
1

> <opr_nring>
4

> <opr_nrot>
8

> <opr_violation>
0

> <PC+>
0

> <PC->
0

> <PEOE_PC+>
1.7095057

> <PEOE_PC->
-1.7095057

> <PEOE_RPC+>
0.12301793

> <PEOE_RPC->
0.22556403

> <PEOE_VSA+0>
107.20964

> <PEOE_VSA+1>
71.247635

> <PEOE_VSA+2>
0.0

> <PEOE_VSA+3>
0.0

> <PEOE_VSA+4>
10.324173

> <PEOE_VSA+5>
0.0

> <PEOE_VSA+6>
0.0

> <PEOE_VSA-0>
81.823105

> <PEOE_VSA-1>
12.254904

> <PEOE_VSA-2>
22.301268

> <PEOE_VSA-3>
0.0

> <PEOE_VSA-4>
0.0

> <PEOE_VSA-5>
5.6825762

> <PEOE_VSA-6>
10.271297

> <PEOE_VSA_FHYD>
0.91816616

> <PEOE_VSA_FNEG>
0.41210568

> <PEOE_VSA_FPNEG>
0.0496828

> <PEOE_VSA_FPOL>
0.081833854

> <PEOE_VSA_FPOS>
0.58789432

> <PEOE_VSA_FPPOS>
0.032151055

> <PEOE_VSA_HYD>
294.83655

> <PEOE_VSA_NEG>
132.33315

> <PEOE_VSA_PNEG>
15.953873

> <PEOE_VSA_POL>
26.278046

> <PEOE_VSA_POS>
188.78145

> <PEOE_VSA_PPOS>
10.324173

> <petitjean>
0.5

> <petitjeanSC>
1.0

> <Q_PC+>
0

> <Q_PC->
0

> <Q_RPC+>
0

> <Q_RPC->
0

> <Q_VSA_FHYD>
1

> <Q_VSA_FNEG>
0

> <Q_VSA_FPNEG>
0

> <Q_VSA_FPOL>
0

> <Q_VSA_FPOS>
1

> <Q_VSA_FPPOS>
0

> <Q_VSA_HYD>
321.11459

> <Q_VSA_NEG>
0

> <Q_VSA_PNEG>
0

> <Q_VSA_POL>
0

> <Q_VSA_POS>
321.11459

> <Q_VSA_PPOS>
0

> <radius>
6

> <reactive>
0

> <rings>
4

> <RPC+>
0

> <RPC->
0

> <rsynth>
0.58333331

> <SlogP>
3.2686999

> <SlogP_VSA0>
36.385113

> <SlogP_VSA1>
19.909843

> <SlogP_VSA2>
3.9819686

> <SlogP_VSA3>
36.879158

> <SlogP_VSA4>
12.007167

> <SlogP_VSA5>
35.383869

> <SlogP_VSA6>
0.0

> <SlogP_VSA7>
110.14738

> <SlogP_VSA8>
44.20546

> <SlogP_VSA9>
37.344223

> <SMR>
9.5137796

> <SMR_VSA0>
0.0

> <SMR_VSA1>
56.294956

> <SMR_VSA2>
8.8215923

> <SMR_VSA3>
18.879622

> <SMR_VSA4>
4.7171016

> <SMR_VSA5>
143.16708

> <SMR_VSA6>
36.879158

> <SMR_VSA7>
67.484665

> <TPSA>
45.59

> <VAdjEq>
0.44886449

> <VAdjMa>
5.7548876

> <VDistEq>
3.2671726

> <VDistMa>
8.8857107

> <vdw_area>
321.11459

> <vdw_vol>
463.9252

> <vsa_acc>
8.1863317

> <vsa_acid>
0

> <vsa_base>
0

> <vsa_don>
0.0

> <vsa_hyd>
275.77515

> <vsa_other>
0.0

> <vsa_pol>
21.753254

> <Weight>
324.42398

> <weinerPath>
1286

> <weinerPol>
42

> <zagreb>
132

$$$$
Row1710
 OpenBabel06061811532D

 35 37  0  0  1  0  0  0  0  0999 V2000
    0.0000    0.0000    0.0000 O   0  0  0  0  0  0  0  0  0  0  0  0
    0.0000    0.0000    0.0000 C   0  0  0  0  0  0  0  0  0  0  0  0
    0.0000    0.0000    0.0000 C   0  0  0  0  0  0  0  0  0  0  0  0
    0.0000    0.0000    0.0000 C   0  0  0  0  0  0  0  0  0  0  0  0
    0.0000    0.0000    0.0000 O   0  0  0  0  0  0  0  0  0  0  0  0
    0.0000    0.0000    0.0000 C   0  0  1  0  0  0  0  0  0  0  0  0
    0.0000    0.0000    0.0000 H   0  0  0  0  0  0  0  0  0  0  0  0
    0.0000    0.0000    0.0000 N   0  0  0  0  0  0  0  0  0  0  0  0
    0.0000    0.0000    0.0000 C   0  0  2  0  0  0  0  0  0  0  0  0
    0.0000    0.0000    0.0000 H   0  0  0  0  0  0  0  0  0  0  0  0
    0.0000    0.0000    0.0000 C   0  0  0  0  0  0  0  0  0  0  0  0
    0.0000    0.0000    0.0000 O   0  0  0  0  0  0  0  0  0  0  0  0
    0.0000    0.0000    0.0000 N   0  0  0  0  0  0  0  0  0  0  0  0
    0.0000    0.0000    0.0000 C   0  0  2  0  0  0  0  0  0  0  0  0
    0.0000    0.0000    0.0000 H   0  0  0  0  0  0  0  0  0  0  0  0
    0.0000    0.0000    0.0000 C   0  0  2  0  0  0  0  0  0  0  0  0
    0.0000    0.0000    0.0000 H   0  0  0  0  0  0  0  0  0  0  0  0
    0.0000    0.0000    0.0000 C   0  0  0  0  0  0  0  0  0  0  0  0
    0.0000    0.0000    0.0000 C   0  0  1  0  0  0  0  0  0  0  0  0
    0.0000    0.0000    0.0000 H   0  0  0  0  0  0  0  0  0  0  0  0
    0.0000    0.0000    0.0000 C   0  0  0  0  0  0  0  0  0  0  0  0
    0.0000    0.0000    0.0000 O   0  0  0  0  0  0  0  0  0  0  0  0
    0.0000    0.0000    0.0000 O   0  0  0  0  0  0  0  0  0  0  0  0
    0.0000    0.0000    0.0000 C   0  0  0  0  0  0  0  0  0  0  0  0
    0.0000    0.0000    0.0000 C   0  0  0  0  0  0  0  0  0  0  0  0
    0.0000    0.0000    0.0000 C   0  0  0  0  0  0  0  0  0  0  0  0
    0.0000    0.0000    0.0000 C   0  0  0  0  0  0  0  0  0  0  0  0
    0.0000    0.0000    0.0000 C   0  0  0  0  0  0  0  0  0  0  0  0
    0.0000    0.0000    0.0000 C   0  0  0  0  0  0  0  0  0  0  0  0
    0.0000    0.0000    0.0000 C   0  0  0  0  0  0  0  0  0  0  0  0
    0.0000    0.0000    0.0000 C   0  0  0  0  0  0  0  0  0  0  0  0
    0.0000    0.0000    0.0000 C   0  0  0  0  0  0  0  0  0  0  0  0
    0.0000    0.0000    0.0000 C   0  0  0  0  0  0  0  0  0  0  0  0
    0.0000    0.0000    0.0000 C   0  0  0  0  0  0  0  0  0  0  0  0
    0.0000    0.0000    0.0000 C   0  0  0  0  0  0  0  0  0  0  0  0
  1  2  1  0  0  0  0
  1  4  1  0  0  0  0
  2  3  1  0  0  0  0
  4  5  2  0  0  0  0
  4  6  1  0  0  0  0
  6  7  1  0  0  0  0
  6  8  1  0  0  0  0
  6 28  1  0  0  0  0
  8  9  1  0  0  0  0
  9 10  1  0  0  0  0
  9 11  1  0  0  0  0
  9 27  1  0  0  0  0
 11 12  2  0  0  0  0
 11 13  1  0  0  0  0
 13 19  1  0  0  0  0
 13 14  1  0  0  0  0
 14 15  1  0  0  0  0
 14 26  1  0  0  0  0
 14 16  1  0  0  0  0
 16 17  1  0  0  0  0
 16 18  1  0  0  0  0
 16 24  1  0  0  0  0
 18 19  1  0  0  0  0
 19 20  1  0  0  0  0
 19 21  1  0  0  0  0
 21 22  1  0  0  0  0
 21 23  2  0  0  0  0
 24 25  1  0  0  0  0
 25 26  1  0  0  0  0
 28 29  1  0  0  0  0
 29 30  1  0  0  0  0
 30 35  1  0  0  0  0
 30 31  2  0  0  0  0
 31 32  1  0  0  0  0
 32 33  2  0  0  0  0
 33 34  1  0  0  0  0
 34 35  2  0  0  0  0
M  END
> <Index>
1711

> <ID>
HT1798

> <class>
1

> <apol>
68.027374

> <ast_fraglike>
0

> <ast_fraglike_ext>
0

> <ast_violation>
2

> <ast_violation_ext>
3

> <a_acc>
5

> <a_acid>
0

> <a_aro>
6

> <a_base>
0

> <a_count>
62

> <a_don>
3

> <a_donacc>
8

> <a_heavy>
30

> <a_hyd>
20

> <a_IC>
91.508606

> <a_ICM>
1.4759452

> <a_nB>
0

> <a_nBr>
0

> <a_nC>
23

> <a_nCl>
0

> <a_nF>
0

> <a_nH>
32

> <a_nI>
0

> <a_nN>
2

> <a_nO>
5

> <a_nP>
0

> <a_nS>
0

> <balabanJ>
1.6142496

> <BCUT_PEOE_0>
-2.6426816

> <BCUT_PEOE_1>
-0.51664025

> <BCUT_PEOE_2>
0.56701136

> <BCUT_PEOE_3>
2.871866

> <BCUT_SLOGP_0>
-2.824156

> <BCUT_SLOGP_1>
-0.46329769

> <BCUT_SLOGP_2>
0.60462731

> <BCUT_SLOGP_3>
2.8950982

> <BCUT_SMR_0>
-2.3862631

> <BCUT_SMR_1>
-0.38618591

> <BCUT_SMR_2>
0.69447047

> <BCUT_SMR_3>
3.1220441

> <bpol>
42.412624

> <b_1rotN>
10

> <b_1rotR>
0.3125

> <b_ar>
6

> <b_count>
64

> <b_double>
3

> <b_heavy>
32

> <b_max1len>
7

> <b_rotN>
11

> <b_rotR>
0.34375

> <b_single>
55

> <b_triple>
0

> <chi0>
21.672998

> <chi0v>
17.750671

> <chi0v_C>
14.72325

> <chi0_C>
15.681434

> <chi1>
14.417923

> <chi1v>
10.935428

> <chi1v_C>
8.2892942

> <chi1_C>
9.3837767

> <chiral>
5

> <chiral_u>
0

> <density>
0.72654754

> <diameter>
13

> <FCharge>
0

> <GCUT_PEOE_0>
-0.83630353

> <GCUT_PEOE_1>
-0.38761577

> <GCUT_PEOE_2>
0.061583024

> <GCUT_PEOE_3>
2.9684207

> <GCUT_SLOGP_0>
-1.1550131

> <GCUT_SLOGP_1>
-0.33783969

> <GCUT_SLOGP_2>
0.10409941

> <GCUT_SLOGP_3>
2.9458413

> <GCUT_SMR_0>
-0.53625131

> <GCUT_SMR_1>
-0.21948355

> <GCUT_SMR_2>
0.16624223

> <GCUT_SMR_3>
3.1970472

> <Kier1>
24.638672

> <Kier2>
11.743802

> <Kier3>
6.2925091

> <KierA1>
20.26367

> <KierA2>
9.5897627

> <KierA3>
5.1124067

> <KierFlex>
6.4774599

> <lip_acc>
7

> <lip_don>
2

> <lip_druglike>
1

> <lip_violation>
0

> <logP(o/w)>
3.332

> <logS>
-3.69472

> <mr>
11.466311

> <mutagenic>
0

> <nmol>
1

> <opr_brigid>
15

> <opr_leadlike>
1

> <opr_nring>
3

> <opr_nrot>
9

> <opr_violation>
0

> <PC+>
0

> <PC->
0

> <PEOE_PC+>
2.7102258

> <PEOE_PC->
-2.7102258

> <PEOE_RPC+>
0.10420109

> <PEOE_RPC->
0.12165625

> <PEOE_VSA+0>
84.188293

> <PEOE_VSA+1>
68.16246

> <PEOE_VSA+2>
11.764974

> <PEOE_VSA+3>
0.0

> <PEOE_VSA+4>
23.273705

> <PEOE_VSA+5>
29.416998

> <PEOE_VSA+6>
0.0

> <PEOE_VSA-0>
83.210464

> <PEOE_VSA-1>
69.97583

> <PEOE_VSA-2>
0.0

> <PEOE_VSA-3>
0.0

> <PEOE_VSA-4>
0.0

> <PEOE_VSA-5>
40.837654

> <PEOE_VSA-6>
10.271297

> <PEOE_VSA_FHYD>
0.75350451

> <PEOE_VSA_FNEG>
0.4851447

> <PEOE_VSA_FPNEG>
0.12136962

> <PEOE_VSA_FPOL>
0.24649546

> <PEOE_VSA_FPOS>
0.51485533

> <PEOE_VSA_FPPOS>
0.12512584

> <PEOE_VSA_HYD>
317.30203

> <PEOE_VSA_NEG>
204.29524

> <PEOE_VSA_PNEG>
51.108952

> <PEOE_VSA_POL>
103.79965

> <PEOE_VSA_POS>
216.80643

> <PEOE_VSA_PPOS>
52.690701

> <petitjean>
0.46153846

> <petitjeanSC>
0.85714287

> <Q_PC+>
0

> <Q_PC->
0

> <Q_RPC+>
0

> <Q_RPC->
0

> <Q_VSA_FHYD>
1

> <Q_VSA_FNEG>
0

> <Q_VSA_FPNEG>
0

> <Q_VSA_FPOL>
0

> <Q_VSA_FPOS>
1

> <Q_VSA_FPPOS>
0

> <Q_VSA_HYD>
421.10168

> <Q_VSA_NEG>
0

> <Q_VSA_PNEG>
0

> <Q_VSA_POL>
0

> <Q_VSA_POS>
421.10168

> <Q_VSA_PPOS>
0

> <radius>
7

> <reactive>
0

> <rings>
3

> <RPC+>
0

> <RPC->
0

> <rsynth>
0.63333333

> <SlogP>
2.3831699

> <SlogP_VSA0>
18.01075

> <SlogP_VSA1>
23.874025

> <SlogP_VSA2>
98.514412

> <SlogP_VSA3>
46.311485

> <SlogP_VSA4>
7.5963712

> <SlogP_VSA5>
18.868406

> <SlogP_VSA6>
0.0

> <SlogP_VSA7>
88.215919

> <SlogP_VSA8>
94.342026

> <SlogP_VSA9>
66.652031

> <SMR>
11.17975

> <SMR_VSA0>
82.58654

> <SMR_VSA1>
3.1243138

> <SMR_VSA2>
47.806774

> <SMR_VSA3>
19.113449

> <SMR_VSA4>
0.0

> <SMR_VSA5>
201.42636

> <SMR_VSA6>
41.675972

> <SMR_VSA7>
66.652031

> <TPSA>
95.940002

> <VAdjEq>
0.37005648

> <VAdjMa>
6.0

> <VDistEq>
3.5583222

> <VDistMa>
9.5446815

> <vdw_area>
421.10168

> <vdw_vol>
573.28387

> <vsa_acc>
27.133842

> <vsa_acid>
0

> <vsa_base>
0

> <vsa_don>
0.0

> <vsa_hyd>
285.9841

> <vsa_other>
44.870285

> <vsa_pol>
59.95026

> <Weight>
416.51801

> <weinerPath>
2546

> <weinerPol>
45

> <zagreb>
152

$$$$
Row1711
 OpenBabel06061811532D

 21 21  0  0  0  0  0  0  0  0999 V2000
    0.0000    0.0000    0.0000 S   0  0  0  0  0  0  0  0  0  0  0  0
    0.0000    0.0000    0.0000 C   0  0  0  0  0  0  0  0  0  0  0  0
    0.0000    0.0000    0.0000 C   0  0  0  0  0  0  0  0  0  0  0  0
    0.0000    0.0000    0.0000 O   0  0  0  0  0  0  0  0  0  0  0  0
    0.0000    0.0000    0.0000 C   0  0  0  0  0  0  0  0  0  0  0  0
    0.0000    0.0000    0.0000 C   0  0  0  0  0  0  0  0  0  0  0  0
    0.0000    0.0000    0.0000 C   0  0  0  0  0  0  0  0  0  0  0  0
    0.0000    0.0000    0.0000 C   0  0  0  0  0  0  0  0  0  0  0  0
    0.0000    0.0000    0.0000 N   0  0  0  0  0  0  0  0  0  0  0  0
    0.0000    0.0000    0.0000 C   0  0  0  0  0  0  0  0  0  0  0  0
    0.0000    0.0000    0.0000 C   0  0  0  0  0  0  0  0  0  0  0  0
    0.0000    0.0000    0.0000 C   0  0  0  0  0  0  0  0  0  0  0  0
    0.0000    0.0000    0.0000 C   0  0  0  0  0  0  0  0  0  0  0  0
    0.0000    0.0000    0.0000 N   0  0  0  0  0  0  0  0  0  0  0  0
    0.0000    0.0000    0.0000 C   0  0  0  0  0  0  0  0  0  0  0  0
    0.0000    0.0000    0.0000 N   0  0  0  0  0  0  0  0  0  0  0  0
    0.0000    0.0000    0.0000 C   0  0  0  0  0  0  0  0  0  0  0  0
    0.0000    0.0000    0.0000 C   0  0  0  0  0  0  0  0  0  0  0  0
    0.0000    0.0000    0.0000 N   0  3  0  0  0  0  0  0  0  0  0  0
    0.0000    0.0000    0.0000 O   0  0  0  0  0  0  0  0  0  0  0  0
    0.0000    0.0000    0.0000 O   0  5  0  0  0  0  0  0  0  0  0  0
  1  2  1  0  0  0  0
  1 12  1  0  0  0  0
  2  3  1  0  0  0  0
  3  7  2  0  0  0  0
  3  4  1  0  0  0  0
  4  5  1  0  0  0  0
  5  6  2  0  0  0  0
  5  8  1  0  0  0  0
  6  7  1  0  0  0  0
  8  9  1  0  0  0  0
  9 10  1  0  0  0  0
  9 11  1  0  0  0  0
 12 13  1  0  0  0  0
 13 14  1  0  0  0  0
 14 15  1  0  0  0  0
 15 16  1  0  0  0  0
 15 18  2  3  0  0  0
 16 17  1  0  0  0  0
 18 19  1  0  0  0  0
 19 20  2  0  0  0  0
 19 21  1  0  0  0  0
M  CHG  2  19   1  21  -1
M  END
> <Index>
1712

> <ID>
HT1800

> <class>
1

> <apol>
47.255447

> <ast_fraglike>
0

> <ast_fraglike_ext>
0

> <ast_violation>
1

> <ast_violation_ext>
2

> <a_acc>
1

> <a_acid>
0

> <a_aro>
5

> <a_base>
0

> <a_count>
43

> <a_don>
2

> <a_donacc>
3

> <a_heavy>
21

> <a_hyd>
12

> <a_IC>
74.361282

> <a_ICM>
1.7293322

> <a_nB>
0

> <a_nBr>
0

> <a_nC>
13

> <a_nCl>
0

> <a_nF>
0

> <a_nH>
22

> <a_nI>
0

> <a_nN>
4

> <a_nO>
3

> <a_nP>
0

> <a_nS>
1

> <balabanJ>
2.0208743

> <BCUT_PEOE_0>
-2.5379612

> <BCUT_PEOE_1>
-0.25877064

> <BCUT_PEOE_2>
0.13149194

> <BCUT_PEOE_3>
2.4781742

> <BCUT_SLOGP_0>
-2.6809812

> <BCUT_SLOGP_1>
-0.085288294

> <BCUT_SLOGP_2>
0.3837195

> <BCUT_SLOGP_3>
2.5728772

> <BCUT_SMR_0>
-2.257225

> <BCUT_SMR_1>
0.1057

> <BCUT_SMR_2>
0.43652222

> <BCUT_SMR_3>
2.7888095

> <bpol>
32.802555

> <b_1rotN>
10

> <b_1rotR>
0.47619048

> <b_ar>
5

> <b_count>
43

> <b_double>
2

> <b_heavy>
21

> <b_max1len>
6

> <b_rotN>
10

> <b_rotR>
0.47619048

> <b_single>
36

> <b_triple>
0

> <chi0>
15.664926

> <chi0v>
13.404395

> <chi0v_C>
9.0604782

> <chi0_C>
9.681798

> <chi1>
10.007239

> <chi1v>
7.7343202

> <chi1v_C>
2.4064655

> <chi1_C>
3.0412414

> <chiral>
0

> <chiral_u>
0

> <density>
0.7719416

> <diameter>
14

> <FCharge>
0

> <GCUT_PEOE_0>
-0.85210836

> <GCUT_PEOE_1>
-0.35158676

> <GCUT_PEOE_2>
-0.073774964

> <GCUT_PEOE_3>
2.4227839

> <GCUT_SLOGP_0>
-1.1267847

> <GCUT_SLOGP_1>
-0.23462692

> <GCUT_SLOGP_2>
0.17337948

> <GCUT_SLOGP_3>
2.5017188

> <GCUT_SMR_0>
-0.51207328

> <GCUT_SMR_1>
-0.089428514

> <GCUT_SMR_2>
0.21701896

> <GCUT_SMR_3>
2.6894515

> <Kier1>
19.047619

> <Kier2>
10.680473

> <Kier3>
8.8888893

> <KierA1>
16.47377

> <KierA2>
9.1662836

> <KierA3>
7.5836554

> <KierFlex>
7.1906314

> <lip_acc>
7

> <lip_don>
2

> <lip_druglike>
1

> <lip_violation>
0

> <logP(o/w)>
0.93000001

> <logS>
-2.81493

> <mr>
8.3889532

> <mutagenic>
1

> <nmol>
1

> <opr_brigid>
6

> <opr_leadlike>
1

> <opr_nring>
1

> <opr_nrot>
10

> <opr_violation>
0

> <PC+>
0

> <PC->
0

> <PEOE_PC+>
2.0571764

> <PEOE_PC->
-2.0571764

> <PEOE_RPC+>
0.12864432

> <PEOE_RPC->
0.22479658

> <PEOE_VSA+0>
87.850487

> <PEOE_VSA+1>
44.959278

> <PEOE_VSA+2>
49.611015

> <PEOE_VSA+3>
0.0

> <PEOE_VSA+4>
0.0

> <PEOE_VSA+5>
16.745916

> <PEOE_VSA+6>
0.0

> <PEOE_VSA-0>
94.225876

> <PEOE_VSA-1>
0.0

> <PEOE_VSA-2>
0.0

> <PEOE_VSA-3>
19.760618

> <PEOE_VSA-4>
0.0

> <PEOE_VSA-5>
34.20483

> <PEOE_VSA-6>
2.503756

> <PEOE_VSA_FHYD>
0.84721249

> <PEOE_VSA_FNEG>
0.43072748

> <PEOE_VSA_FPNEG>
0.10492311

> <PEOE_VSA_FPOL>
0.15278749

> <PEOE_VSA_FPOS>
0.56927252

> <PEOE_VSA_FPPOS>
0.047864377

> <PEOE_VSA_HYD>
296.40729

> <PEOE_VSA_NEG>
150.69508

> <PEOE_VSA_PNEG>
36.708588

> <PEOE_VSA_POL>
53.454502

> <PEOE_VSA_POS>
199.1667

> <PEOE_VSA_PPOS>
16.745916

> <petitjean>
0.5

> <petitjeanSC>
1.0

> <Q_PC+>
0

> <Q_PC->
0

> <Q_RPC+>
0

> <Q_RPC->
0

> <Q_VSA_FHYD>
1

> <Q_VSA_FNEG>
0

> <Q_VSA_FPNEG>
0

> <Q_VSA_FPOL>
0

> <Q_VSA_FPOS>
1

> <Q_VSA_FPPOS>
0

> <Q_VSA_HYD>
349.86179

> <Q_VSA_NEG>
0

> <Q_VSA_PNEG>
0

> <Q_VSA_POL>
0

> <Q_VSA_POS>
349.86179

> <Q_VSA_PPOS>
0

> <radius>
7

> <reactive>
1

> <rings>
1

> <RPC+>
0

> <RPC->
0

> <rsynth>
1.0

> <SlogP>
1.9918

> <SlogP_VSA0>
36.0215

> <SlogP_VSA1>
10.20993

> <SlogP_VSA2>
0.0

> <SlogP_VSA3>
86.608147

> <SlogP_VSA4>
10.897642

> <SlogP_VSA5>
110.52683

> <SlogP_VSA6>
0.0

> <SlogP_VSA7>
52.500725

> <SlogP_VSA8>
0.0

> <SlogP_VSA9>
67.892685

> <SMR>
8.4811802

> <SMR_VSA0>
16.592962

> <SMR_VSA1>
3.1243138

> <SMR_VSA2>
86.956512

> <SMR_VSA3>
13.225562

> <SMR_VSA4>
0.0

> <SMR_VSA5>
88.173866

> <SMR_VSA6>
35.673141

> <SMR_VSA7>
130.9111

> <TPSA>
86.260002

> <VAdjEq>
0.45371634

> <VAdjMa>
5.3923173

> <VDistEq>
3.6647925

> <VDistMa>
8.4293232

> <vdw_area>
349.86179

> <vdw_vol>
407.29764

> <vsa_acc>
0.0

> <vsa_acid>
0

> <vsa_base>
0

> <vsa_don>
11.365152

> <vsa_hyd>
253.57166

> <vsa_other>
64.542404

> <vsa_pol>
11.365152

> <Weight>
314.41

> <weinerPath>
1227

> <weinerPol>
22

> <zagreb>
94

$$$$
Row1712
 OpenBabel06061811532D

 67 71  0  0  1  0  0  0  0  0999 V2000
    0.0000    0.0000    0.0000 O   0  0  0  0  0  0  0  0  0  0  0  0
    0.0000    0.0000    0.0000 C   0  0  0  0  0  0  0  0  0  0  0  0
    0.0000    0.0000    0.0000 C   0  0  0  0  0  0  0  0  0  0  0  0
    0.0000    0.0000    0.0000 C   0  0  0  0  0  0  0  0  0  0  0  0
    0.0000    0.0000    0.0000 C   0  0  0  0  0  0  0  0  0  0  0  0
    0.0000    0.0000    0.0000 C   0  0  0  0  0  0  0  0  0  0  0  0
    0.0000    0.0000    0.0000 O   0  0  0  0  0  0  0  0  0  0  0  0
    0.0000    0.0000    0.0000 C   0  0  0  0  0  0  0  0  0  0  0  0
    0.0000    0.0000    0.0000 C   0  0  0  0  0  0  0  0  0  0  0  0
    0.0000    0.0000    0.0000 C   0  0  0  0  0  0  0  0  0  0  0  0
    0.0000    0.0000    0.0000 O   0  0  0  0  0  0  0  0  0  0  0  0
    0.0000    0.0000    0.0000 C   0  0  0  0  0  0  0  0  0  0  0  0
    0.0000    0.0000    0.0000 N   0  0  0  0  0  0  0  0  0  0  0  0
    0.0000    0.0000    0.0000 C   0  0  0  0  0  0  0  0  0  0  0  0
    0.0000    0.0000    0.0000 O   0  0  0  0  0  0  0  0  0  0  0  0
    0.0000    0.0000    0.0000 C   0  0  0  0  0  0  0  0  0  0  0  0
    0.0000    0.0000    0.0000 C   0  0  0  0  0  0  0  0  0  0  0  0
    0.0000    0.0000    0.0000 C   0  0  0  0  0  0  0  0  0  0  0  0
    0.0000    0.0000    0.0000 C   0  0  0  0  0  0  0  0  0  0  0  0
    0.0000    0.0000    0.0000 C   0  0  2  0  0  0  0  0  0  0  0  0
    0.0000    0.0000    0.0000 H   0  0  0  0  0  0  0  0  0  0  0  0
    0.0000    0.0000    0.0000 C   0  0  0  0  0  0  0  0  0  0  0  0
    0.0000    0.0000    0.0000 C   0  0  2  0  0  0  0  0  0  0  0  0
    0.0000    0.0000    0.0000 H   0  0  0  0  0  0  0  0  0  0  0  0
    0.0000    0.0000    0.0000 O   0  0  0  0  0  0  0  0  0  0  0  0
    0.0000    0.0000    0.0000 C   0  0  1  0  0  0  0  0  0  0  0  0
    0.0000    0.0000    0.0000 H   0  0  0  0  0  0  0  0  0  0  0  0
    0.0000    0.0000    0.0000 C   0  0  0  0  0  0  0  0  0  0  0  0
    0.0000    0.0000    0.0000 C   0  0  1  0  0  0  0  0  0  0  0  0
    0.0000    0.0000    0.0000 H   0  0  0  0  0  0  0  0  0  0  0  0
    0.0000    0.0000    0.0000 O   0  0  0  0  0  0  0  0  0  0  0  0
    0.0000    0.0000    0.0000 C   0  0  1  0  0  0  0  0  0  0  0  0
    0.0000    0.0000    0.0000 H   0  0  0  0  0  0  0  0  0  0  0  0
    0.0000    0.0000    0.0000 C   0  0  0  0  0  0  0  0  0  0  0  0
    0.0000    0.0000    0.0000 C   0  0  2  0  0  0  0  0  0  0  0  0
    0.0000    0.0000    0.0000 H   0  0  0  0  0  0  0  0  0  0  0  0
    0.0000    0.0000    0.0000 O   0  0  0  0  0  0  0  0  0  0  0  0
    0.0000    0.0000    0.0000 C   0  0  0  0  0  0  0  0  0  0  0  0
    0.0000    0.0000    0.0000 O   0  0  0  0  0  0  0  0  0  0  0  0
    0.0000    0.0000    0.0000 C   0  0  0  0  0  0  0  0  0  0  0  0
    0.0000    0.0000    0.0000 C   0  0  2  0  0  0  0  0  0  0  0  0
    0.0000    0.0000    0.0000 H   0  0  0  0  0  0  0  0  0  0  0  0
    0.0000    0.0000    0.0000 C   0  0  0  0  0  0  0  0  0  0  0  0
    0.0000    0.0000    0.0000 C   0  0  1  0  0  0  0  0  0  0  0  0
    0.0000    0.0000    0.0000 H   0  0  0  0  0  0  0  0  0  0  0  0
    0.0000    0.0000    0.0000 O   0  0  0  0  0  0  0  0  0  0  0  0
    0.0000    0.0000    0.0000 C   0  0  0  0  0  0  0  0  0  0  0  0
    0.0000    0.0000    0.0000 C   0  0  0  0  0  0  0  0  0  0  0  0
    0.0000    0.0000    0.0000 C   0  0  0  0  0  0  0  0  0  0  0  0
    0.0000    0.0000    0.0000 O   0  0  0  0  0  0  0  0  0  0  0  0
    0.0000    0.0000    0.0000 C   0  0  1  0  0  0  0  0  0  0  0  0
    0.0000    0.0000    0.0000 C   0  0  0  0  0  0  0  0  0  0  0  0
    0.0000    0.0000    0.0000 C   0  0  0  0  0  0  0  0  0  0  0  0
    0.0000    0.0000    0.0000 O   0  0  0  0  0  0  0  0  0  0  0  0
    0.0000    0.0000    0.0000 C   0  0  0  0  0  0  0  0  0  0  0  0
    0.0000    0.0000    0.0000 C   0  0  0  0  0  0  0  0  0  0  0  0
    0.0000    0.0000    0.0000 C   0  0  0  0  0  0  0  0  0  0  0  0
    0.0000    0.0000    0.0000 N   0  0  0  0  0  0  0  0  0  0  0  0
    0.0000    0.0000    0.0000 N   0  0  0  0  0  0  0  0  0  0  0  0
    0.0000    0.0000    0.0000 C   0  0  0  0  0  0  0  0  0  0  0  0
    0.0000    0.0000    0.0000 C   0  0  0  0  0  0  0  0  0  0  0  0
    0.0000    0.0000    0.0000 N   0  0  0  0  0  0  0  0  0  0  0  0
    0.0000    0.0000    0.0000 C   0  0  0  0  0  0  0  0  0  0  0  0
    0.0000    0.0000    0.0000 C   0  0  0  0  0  0  0  0  0  0  0  0
    0.0000    0.0000    0.0000 C   0  0  0  0  0  0  0  0  0  0  0  0
    0.0000    0.0000    0.0000 C   0  0  0  0  0  0  0  0  0  0  0  0
    0.0000    0.0000    0.0000 O   0  0  0  0  0  0  0  0  0  0  0  0
  1 51  1  0  0  0  0
  1  2  1  0  0  0  0
  2  8  1  0  0  0  0
  2  3  2  0  0  0  0
  3 53  1  0  0  0  0
  3  4  1  0  0  0  0
  4 66  1  0  0  0  0
  4  5  2  0  0  0  0
  5  6  1  0  0  0  0
  5 10  1  0  0  0  0
  6  7  1  0  0  0  0
  6  8  2  0  0  0  0
  8  9  1  0  0  0  0
 10 11  1  0  0  0  0
 10 12  2  0  0  0  0
 12 13  1  0  0  0  0
 12 56  1  0  0  0  0
 13 14  1  0  0  0  0
 14 15  2  0  0  0  0
 14 16  1  0  0  0  0
 16 17  2  3  0  0  0
 16 55  1  0  0  0  0
 17 18  1  0  0  0  0
 18 19  2  3  0  0  0
 19 20  1  0  0  0  0
 20 21  1  0  0  0  0
 20 22  1  0  0  0  0
 20 23  1  0  0  0  0
 23 24  1  0  0  0  0
 23 25  1  0  0  0  0
 23 26  1  0  0  0  0
 26 27  1  0  0  0  0
 26 28  1  0  0  0  0
 26 29  1  0  0  0  0
 29 30  1  0  0  0  0
 29 31  1  0  0  0  0
 29 32  1  0  0  0  0
 32 33  1  0  0  0  0
 32 34  1  0  0  0  0
 32 35  1  0  0  0  0
 35 36  1  0  0  0  0
 35 37  1  0  0  0  0
 35 41  1  0  0  0  0
 37 38  1  0  0  0  0
 38 39  2  0  0  0  0
 38 40  1  0  0  0  0
 41 42  1  0  0  0  0
 41 43  1  0  0  0  0
 41 44  1  0  0  0  0
 44 45  1  0  0  0  0
 44 46  1  0  0  0  0
 44 48  1  0  0  0  0
 46 47  1  0  0  0  0
 48 49  2  3  0  0  0
 49 50  1  0  0  0  0
 50 51  1  0  0  0  0
 51 52  1  0  0  0  0
 51 53  1  0  0  0  0
 53 54  2  0  0  0  0
 56 57  1  0  0  0  0
 56 66  2  0  0  0  0
 57 58  2  3  0  0  0
 58 59  1  0  0  0  0
 59 64  1  0  0  0  0
 59 60  1  0  0  0  0
 60 61  1  0  0  0  0
 61 62  1  0  0  0  0
 62 63  1  0  0  0  0
 62 65  1  0  0  0  0
 63 64  1  0  0  0  0
 66 67  1  0  0  0  0
M  END
> <Index>
1713

> <ID>
HT1821

> <class>
1

> <apol>
128.37799

> <ast_fraglike>
0

> <ast_fraglike_ext>
0

> <ast_violation>
4

> <ast_violation_ext>
6

> <a_acc>
13

> <a_acid>
0

> <a_aro>
10

> <a_base>
0

> <a_count>
117

> <a_don>
6

> <a_donacc>
19

> <a_heavy>
59

> <a_hyd>
38

> <a_IC>
179.72084

> <a_ICM>
1.5360756

> <a_nB>
0

> <a_nBr>
0

> <a_nC>
43

> <a_nCl>
0

> <a_nF>
0

> <a_nH>
58

> <a_nI>
0

> <a_nN>
4

> <a_nO>
12

> <a_nP>
0

> <a_nS>
0

> <balabanJ>
1.4801073

> <BCUT_PEOE_0>
-2.7796512

> <BCUT_PEOE_1>
-0.47244185

> <BCUT_PEOE_2>
0.51739305

> <BCUT_PEOE_3>
2.7886617

> <BCUT_SLOGP_0>
-2.8551557

> <BCUT_SLOGP_1>
-0.40825117

> <BCUT_SLOGP_2>
0.52055597

> <BCUT_SLOGP_3>
2.7514131

> <BCUT_SMR_0>
-2.5531604

> <BCUT_SMR_1>
-0.33340481

> <BCUT_SMR_2>
0.68026674

> <BCUT_SMR_3>
3.0112808

> <bpol>
78.564003

> <b_1rotN>
4

> <b_1rotR>
0.063492067

> <b_ar>
11

> <b_count>
121

> <b_double>
7

> <b_heavy>
63

> <b_max1len>
4

> <b_rotN>
5

> <b_rotR>
0.079365082

> <b_single>
103

> <b_triple>
0

> <chi0>
43.670116

> <chi0v>
35.346779

> <chi0v_C>
28.411331

> <chi0_C>
30.272774

> <chi1>
27.730885

> <chi1v>
19.788517

> <chi1v_C>
13.386751

> <chi1_C>
15.629786

> <chiral>
9

> <chiral_u>
0

> <density>
0.7500602

> <diameter>
21

> <FCharge>
0

> <GCUT_PEOE_0>
-0.85567832

> <GCUT_PEOE_1>
-0.40211815

> <GCUT_PEOE_2>
0.040046491

> <GCUT_PEOE_3>
3.2419894

> <GCUT_SLOGP_0>
-0.99771661

> <GCUT_SLOGP_1>
-0.30323383

> <GCUT_SLOGP_2>
0.019119566

> <GCUT_SLOGP_3>
3.2884116

> <GCUT_SMR_0>
-0.53389114

> <GCUT_SMR_1>
-0.19237731

> <GCUT_SMR_2>
0.14832626

> <GCUT_SMR_3>
3.4843521

> <Kier1>
50.00655

> <Kier2>
21.326618

> <Kier3>
10.930113

> <KierA1>
41.261997

> <KierA2>
17.536407

> <KierA3>
8.9658356

> <KierFlex>
12.264191

> <lip_acc>
16

> <lip_don>
6

> <lip_druglike>
0

> <lip_violation>
3

> <logP(o/w)>
4.5560002

> <logS>
-6.2655101

> <mr>
21.707123

> <mutagenic>
1

> <nmol>
1

> <opr_brigid>
40

> <opr_leadlike>
0

> <opr_nring>
4

> <opr_nrot>
20

> <opr_violation>
4

> <PC+>
0

> <PC->
0

> <PEOE_PC+>
5.5469351

> <PEOE_PC->
-5.5469351

> <PEOE_RPC+>
0.04674913

> <PEOE_RPC->
0.070504695

> <PEOE_VSA+0>
290.20374

> <PEOE_VSA+1>
128.30783

> <PEOE_VSA+2>
8.458519

> <PEOE_VSA+3>
8.6190128

> <PEOE_VSA+4>
61.187927

> <PEOE_VSA+5>
27.65803

> <PEOE_VSA+6>
0.0

> <PEOE_VSA-0>
91.736626

> <PEOE_VSA-1>
111.75542

> <PEOE_VSA-2>
0.0

> <PEOE_VSA-3>
0.0

> <PEOE_VSA-4>
9.4210396

> <PEOE_VSA-5>
40.700764

> <PEOE_VSA-6>
48.989616

> <PEOE_VSA_FHYD>
0.77273446

> <PEOE_VSA_FNEG>
0.365888

> <PEOE_VSA_FPNEG>
0.11983894

> <PEOE_VSA_FPOL>
0.22726557

> <PEOE_VSA_FPOS>
0.634112

> <PEOE_VSA_FPPOS>
0.10742663

> <PEOE_VSA_HYD>
639.08118

> <PEOE_VSA_NEG>
302.60345

> <PEOE_VSA_PNEG>
99.11142

> <PEOE_VSA_POL>
187.95738

> <PEOE_VSA_POS>
524.43506

> <PEOE_VSA_PPOS>
88.845955

> <petitjean>
0.42857143

> <petitjeanSC>
0.75

> <Q_PC+>
0

> <Q_PC->
0

> <Q_RPC+>
0

> <Q_RPC->
0

> <Q_VSA_FHYD>
1

> <Q_VSA_FNEG>
0

> <Q_VSA_FPNEG>
0

> <Q_VSA_FPOL>
0

> <Q_VSA_FPOS>
1

> <Q_VSA_FPPOS>
0

> <Q_VSA_HYD>
827.03851

> <Q_VSA_NEG>
0

> <Q_VSA_PNEG>
0

> <Q_VSA_POL>
0

> <Q_VSA_POS>
827.03851

> <Q_VSA_PPOS>
0

> <radius>
12

> <reactive>
1

> <rings>
5

> <RPC+>
0

> <RPC->
0

> <rsynth>
0.55932206

> <SlogP>
4.3354201

> <SlogP_VSA0>
137.92603

> <SlogP_VSA1>
42.828716

> <SlogP_VSA2>
123.81305

> <SlogP_VSA3>
73.758316

> <SlogP_VSA4>
51.062126

> <SlogP_VSA5>
88.129639

> <SlogP_VSA6>
0.0

> <SlogP_VSA7>
95.419701

> <SlogP_VSA8>
0.0

> <SlogP_VSA9>
290.33859

> <SMR>
22.04792

> <SMR_VSA0>
104.58631

> <SMR_VSA1>
160.71513

> <SMR_VSA2>
17.643185

> <SMR_VSA3>
59.590611

> <SMR_VSA4>
25.913427

> <SMR_VSA5>
90.273773

> <SMR_VSA6>
92.450172

> <SMR_VSA7>
352.10355

> <TPSA>
220.14999

> <VAdjEq>
0.22457284

> <VAdjMa>
6.9772801

> <VDistEq>
4.0230184

> <VDistMa>
11.536993

> <vdw_area>
827.03851

> <vdw_vol>
1097.1825

> <vsa_acc>
57.633072

> <vsa_acid>
0

> <vsa_base>
0

> <vsa_don>
5.6825762

> <vsa_hyd>
567.76904

> <vsa_other>
60.028355

> <vsa_pol>
131.15025

> <Weight>
822.953

> <weinerPath>
13890

> <weinerPol>
115

> <zagreb>
314

$$$$
Row1713
 OpenBabel06061811532D

 15 16  0  0  0  0  0  0  0  0999 V2000
    0.0000    0.0000    0.0000 S   0  0  0  0  0  0  0  0  0  0  0  0
    0.0000    0.0000    0.0000 C   0  0  0  0  0  0  0  0  0  0  0  0
    0.0000    0.0000    0.0000 C   0  0  0  0  0  0  0  0  0  0  0  0
    0.0000    0.0000    0.0000 C   0  0  0  0  0  0  0  0  0  0  0  0
    0.0000    0.0000    0.0000 O   0  0  0  0  0  0  0  0  0  0  0  0
    0.0000    0.0000    0.0000 C   0  0  0  0  0  0  0  0  0  0  0  0
    0.0000    0.0000    0.0000 F   0  0  0  0  0  0  0  0  0  0  0  0
    0.0000    0.0000    0.0000 F   0  0  0  0  0  0  0  0  0  0  0  0
    0.0000    0.0000    0.0000 F   0  0  0  0  0  0  0  0  0  0  0  0
    0.0000    0.0000    0.0000 C   0  0  0  0  0  0  0  0  0  0  0  0
    0.0000    0.0000    0.0000 C   0  0  0  0  0  0  0  0  0  0  0  0
    0.0000    0.0000    0.0000 C   0  0  0  0  0  0  0  0  0  0  0  0
    0.0000    0.0000    0.0000 N   0  0  0  0  0  0  0  0  0  0  0  0
    0.0000    0.0000    0.0000 C   0  0  0  0  0  0  0  0  0  0  0  0
    0.0000    0.0000    0.0000 N   0  0  0  0  0  0  0  0  0  0  0  0
  1 14  1  0  0  0  0
  1  2  1  0  0  0  0
  2 12  1  0  0  0  0
  2  3  2  0  0  0  0
  3  4  1  0  0  0  0
  4  5  1  0  0  0  0
  4 10  2  0  0  0  0
  5  6  1  0  0  0  0
  6  7  1  0  0  0  0
  6  8  1  0  0  0  0
  6  9  1  0  0  0  0
 10 11  1  0  0  0  0
 11 12  2  0  0  0  0
 12 13  1  0  0  0  0
 13 14  2  0  0  0  0
 14 15  1  0  0  0  0
M  END
> <Index>
1714

> <ID>
HT1825

> <class>
1

> <apol>
24.986965

> <ast_fraglike>
1

> <ast_fraglike_ext>
1

> <ast_violation>
0

> <ast_violation_ext>
0

> <a_acc>
2

> <a_acid>
0

> <a_aro>
9

> <a_base>
0

> <a_count>
20

> <a_don>
1

> <a_donacc>
3

> <a_heavy>
15

> <a_hyd>
11

> <a_IC>
44.074036

> <a_ICM>
2.2037017

> <a_nB>
0

> <a_nBr>
0

> <a_nC>
8

> <a_nCl>
0

> <a_nF>
3

> <a_nH>
5

> <a_nI>
0

> <a_nN>
2

> <a_nO>
1

> <a_nP>
0

> <a_nS>
1

> <balabanJ>
1.8855749

> <BCUT_PEOE_0>
-2.1553924

> <BCUT_PEOE_1>
-0.59297293

> <BCUT_PEOE_2>
0.48274833

> <BCUT_PEOE_3>
2.3165262

> <BCUT_SLOGP_0>
-2.2947965

> <BCUT_SLOGP_1>
-0.46491364

> <BCUT_SLOGP_2>
0.64333248

> <BCUT_SLOGP_3>
2.3999407

> <BCUT_SMR_0>
-1.9507966

> <BCUT_SMR_1>
-0.3783296

> <BCUT_SMR_2>
0.79245067

> <BCUT_SMR_3>
2.5377676

> <bpol>
13.931035

> <b_1rotN>
1

> <b_1rotR>
0.0625

> <b_ar>
10

> <b_count>
21

> <b_double>
0

> <b_heavy>
16

> <b_max1len>
2

> <b_rotN>
2

> <b_rotR>
0.125

> <b_single>
11

> <b_triple>
0

> <chi0>
11.052042

> <chi0v>
8.0235014

> <chi0v_C>
4.2320509

> <chi0_C>
4.9307213

> <chi1>
6.9384718

> <chi1v>
4.6738625

> <chi1v_C>
1.7380339

> <chi1_C>
2.4663265

> <chiral>
0

> <chiral_u>
0

> <density>
1.0163805

> <diameter>
8

> <FCharge>
0

> <GCUT_PEOE_0>
-0.80431378

> <GCUT_PEOE_1>
-0.40504211

> <GCUT_PEOE_2>
-0.025550688

> <GCUT_PEOE_3>
2.1316078

> <GCUT_SLOGP_0>
-1.334499

> <GCUT_SLOGP_1>
-0.27256629

> <GCUT_SLOGP_2>
0.26019999

> <GCUT_SLOGP_3>
2.3280578

> <GCUT_SMR_0>
-0.48308617

> <GCUT_SMR_1>
-0.17297578

> <GCUT_SMR_2>
0.23301056

> <GCUT_SMR_3>
2.4581058

> <Kier1>
11.484375

> <Kier2>
4.1076388

> <Kier3>
2.9822485

> <KierA1>
9.3961239

> <KierA2>
3.3085587

> <KierA3>
2.3714736

> <KierFlex>
2.0725086

> <lip_acc>
3

> <lip_don>
2

> <lip_druglike>
1

> <lip_violation>
0

> <logP(o/w)>
3.2967601

> <logS>
-3.5819399

> <mr>
5.0423265

> <mutagenic>
1

> <nmol>
1

> <opr_brigid>
10

> <opr_leadlike>
1

> <opr_nring>
2

> <opr_nrot>
1

> <opr_violation>
0

> <PC+>
0

> <PC->
0

> <PEOE_PC+>
1.3705096

> <PEOE_PC->
-1.3705096

> <PEOE_RPC+>
0.38618031

> <PEOE_RPC->
0.21586542

> <PEOE_VSA+0>
0.0

> <PEOE_VSA+1>
41.120853

> <PEOE_VSA+2>
17.238026

> <PEOE_VSA+3>
19.760618

> <PEOE_VSA+4>
0.0

> <PEOE_VSA+5>
0.0

> <PEOE_VSA+6>
15.295482

> <PEOE_VSA-0>
40.949314

> <PEOE_VSA-1>
0.0

> <PEOE_VSA-2>
35.725906

> <PEOE_VSA-3>
0.0

> <PEOE_VSA-4>
5.6825762

> <PEOE_VSA-5>
9.1548758

> <PEOE_VSA-6>
0.0

> <PEOE_VSA_FHYD>
0.83705556

> <PEOE_VSA_FNEG>
0.49485663

> <PEOE_VSA_FPNEG>
0.08023382

> <PEOE_VSA_FPOL>
0.16294445

> <PEOE_VSA_FPOS>
0.5051434

> <PEOE_VSA_FPPOS>
0.082710624

> <PEOE_VSA_HYD>
154.79472

> <PEOE_VSA_NEG>
91.512672

> <PEOE_VSA_PNEG>
14.837452

> <PEOE_VSA_POL>
30.132933

> <PEOE_VSA_POS>
93.414978

> <PEOE_VSA_PPOS>
15.295482

> <petitjean>
0.5

> <petitjeanSC>
1.0

> <Q_PC+>
0

> <Q_PC->
0

> <Q_RPC+>
0

> <Q_RPC->
0

> <Q_VSA_FHYD>
1

> <Q_VSA_FNEG>
0

> <Q_VSA_FPNEG>
0

> <Q_VSA_FPOL>
0

> <Q_VSA_FPOS>
1

> <Q_VSA_FPPOS>
0

> <Q_VSA_HYD>
184.92764

> <Q_VSA_NEG>
0

> <Q_VSA_PNEG>
0

> <Q_VSA_POL>
0

> <Q_VSA_POS>
184.92764

> <Q_VSA_PPOS>
0

> <radius>
4

> <reactive>
0

> <rings>
2

> <RPC+>
0

> <RPC->
0

> <rsynth>
1.0

> <SlogP>
2.7771001

> <SlogP_VSA0>
43.897076

> <SlogP_VSA1>
26.6029

> <SlogP_VSA2>
0.0

> <SlogP_VSA3>
0.0

> <SlogP_VSA4>
0.0

> <SlogP_VSA5>
0.0

> <SlogP_VSA6>
0.0

> <SlogP_VSA7>
55.819481

> <SlogP_VSA8>
0.0

> <SlogP_VSA9>
81.902199

> <SMR>
5.0715399

> <SMR_VSA0>
0.0

> <SMR_VSA1>
72.665756

> <SMR_VSA2>
9.8173695

> <SMR_VSA3>
5.2434282

> <SMR_VSA4>
3.3906741

> <SMR_VSA5>
85.826744

> <SMR_VSA6>
0.0

> <SMR_VSA7>
31.277687

> <TPSA>
48.139999

> <VAdjEq>
0.59002918

> <VAdjMa>
5.0

> <VDistEq>
2.8185027

> <VDistMa>
7.4948158

> <vdw_area>
184.92764

> <vdw_vol>
230.4265

> <vsa_acc>
8.1863317

> <vsa_acid>
0

> <vsa_base>
0

> <vsa_don>
17.742489

> <vsa_hyd>
137.55016

> <vsa_other>
13.166624

> <vsa_pol>
25.928822

> <Weight>
234.201

> <weinerPath>
369

> <weinerPol>
18

> <zagreb>
80

$$$$
Row1714
 OpenBabel06061811532D

 30 34  0  0  1  0  0  0  0  0999 V2000
    0.0000    0.0000    0.0000 F   0  0  0  0  0  0  0  0  0  0  0  0
    0.0000    0.0000    0.0000 C   0  0  0  0  0  0  0  0  0  0  0  0
    0.0000    0.0000    0.0000 C   0  0  0  0  0  0  0  0  0  0  0  0
    0.0000    0.0000    0.0000 C   0  0  0  0  0  0  0  0  0  0  0  0
    0.0000    0.0000    0.0000 O   0  0  0  0  0  0  0  0  0  0  0  0
    0.0000    0.0000    0.0000 N   0  0  0  0  0  0  0  0  0  0  0  0
    0.0000    0.0000    0.0000 C   0  0  0  0  0  0  0  0  0  0  0  0
    0.0000    0.0000    0.0000 C   0  0  0  0  0  0  0  0  0  0  0  0
    0.0000    0.0000    0.0000 C   0  0  0  0  0  0  0  0  0  0  0  0
    0.0000    0.0000    0.0000 C   0  0  0  0  0  0  0  0  0  0  0  0
    0.0000    0.0000    0.0000 C   0  0  3  0  0  0  0  0  0  0  0  0
    0.0000    0.0000    0.0000 C   0  0  0  0  0  0  0  0  0  0  0  0
    0.0000    0.0000    0.0000 C   0  0  0  0  0  0  0  0  0  0  0  0
    0.0000    0.0000    0.0000 N   0  0  0  0  0  0  0  0  0  0  0  0
    0.0000    0.0000    0.0000 C   0  0  0  0  0  0  0  0  0  0  0  0
    0.0000    0.0000    0.0000 C   0  0  0  0  0  0  0  0  0  0  0  0
    0.0000    0.0000    0.0000 C   0  0  0  0  0  0  0  0  0  0  0  0
    0.0000    0.0000    0.0000 C   0  0  0  0  0  0  0  0  0  0  0  0
    0.0000    0.0000    0.0000 C   0  0  0  0  0  0  0  0  0  0  0  0
    0.0000    0.0000    0.0000 C   0  0  0  0  0  0  0  0  0  0  0  0
    0.0000    0.0000    0.0000 O   0  0  0  0  0  0  0  0  0  0  0  0
    0.0000    0.0000    0.0000 N   0  0  0  0  0  0  0  0  0  0  0  0
    0.0000    0.0000    0.0000 C   0  0  0  0  0  0  0  0  0  0  0  0
    0.0000    0.0000    0.0000 N   0  0  0  0  0  0  0  0  0  0  0  0
    0.0000    0.0000    0.0000 C   0  0  0  0  0  0  0  0  0  0  0  0
    0.0000    0.0000    0.0000 C   0  0  0  0  0  0  0  0  0  0  0  0
    0.0000    0.0000    0.0000 C   0  0  0  0  0  0  0  0  0  0  0  0
    0.0000    0.0000    0.0000 C   0  0  0  0  0  0  0  0  0  0  0  0
    0.0000    0.0000    0.0000 C   0  0  0  0  0  0  0  0  0  0  0  0
    0.0000    0.0000    0.0000 C   0  0  0  0  0  0  0  0  0  0  0  0
  1  2  1  0  0  0  0
  2 10  1  0  0  0  0
  2  3  2  0  0  0  0
  3  4  1  0  0  0  0
  4  8  2  0  0  0  0
  4  5  1  0  0  0  0
  5  6  1  0  0  0  0
  6  7  2  0  0  0  0
  7  8  1  0  0  0  0
  7 11  1  0  0  0  0
  8  9  1  0  0  0  0
  9 10  2  0  0  0  0
 11 16  1  0  0  0  0
 11 12  1  0  0  0  0
 12 13  1  0  0  0  0
 13 14  1  0  0  0  0
 14 15  1  0  0  0  0
 14 17  1  0  0  0  0
 15 16  1  0  0  0  0
 17 18  1  0  0  0  0
 18 19  1  0  0  0  0
 19 25  2  0  0  0  0
 19 20  1  0  0  0  0
 20 21  2  0  0  0  0
 20 22  1  0  0  0  0
 22 30  1  0  0  0  0
 22 23  1  0  0  0  0
 23 24  2  0  0  0  0
 23 27  1  0  0  0  0
 24 25  1  0  0  0  0
 25 26  1  0  0  0  0
 27 28  1  0  0  0  0
 28 29  1  0  0  0  0
 29 30  1  0  0  0  0
M  END
> <Index>
1715

> <ID>
HT1831

> <class>
1

> <apol>
65.044411

> <ast_fraglike>
0

> <ast_fraglike_ext>
0

> <ast_violation>
3

> <ast_violation_ext>
4

> <a_acc>
4

> <a_acid>
0

> <a_aro>
9

> <a_base>
0

> <a_count>
57

> <a_don>
0

> <a_donacc>
4

> <a_heavy>
30

> <a_hyd>
21

> <a_IC>
90.050842

> <a_ICM>
1.5798393

> <a_nB>
0

> <a_nBr>
0

> <a_nC>
23

> <a_nCl>
0

> <a_nF>
1

> <a_nH>
27

> <a_nI>
0

> <a_nN>
4

> <a_nO>
2

> <a_nP>
0

> <a_nS>
0

> <balabanJ>
1.0860281

> <BCUT_PEOE_0>
-2.784384

> <BCUT_PEOE_1>
-0.57028472

> <BCUT_PEOE_2>
0.55567503

> <BCUT_PEOE_3>
2.7225466

> <BCUT_SLOGP_0>
-2.7979002

> <BCUT_SLOGP_1>
-0.45499358

> <BCUT_SLOGP_2>
0.6145215

> <BCUT_SLOGP_3>
2.7649739

> <BCUT_SMR_0>
-2.5165627

> <BCUT_SMR_1>
-0.3664746

> <BCUT_SMR_2>
0.75792557

> <BCUT_SMR_3>
2.9850593

> <bpol>
38.873589

> <b_1rotN>
4

> <b_1rotR>
0.11764706

> <b_ar>
10

> <b_count>
61

> <b_double>
3

> <b_heavy>
34

> <b_max1len>
3

> <b_rotN>
4

> <b_rotR>
0.11764706

> <b_single>
48

> <b_triple>
0

> <chi0>
20.664562

> <chi0v>
17.363785

> <chi0v_C>
14.380469

> <chi0_C>
15.38854

> <chi1>
14.597357

> <chi1v>
10.963062

> <chi1v_C>
7.8003125

> <chi1_C>
9.0100031

> <chiral>
0

> <chiral_u>
0

> <density>
0.74466944

> <diameter>
17

> <FCharge>
0

> <GCUT_PEOE_0>
-0.85671043

> <GCUT_PEOE_1>
-0.42057166

> <GCUT_PEOE_2>
-0.0077810748

> <GCUT_PEOE_3>
2.8782761

> <GCUT_SLOGP_0>
-0.96731454

> <GCUT_SLOGP_1>
-0.30229867

> <GCUT_SLOGP_2>
0.11505965

> <GCUT_SLOGP_3>
2.9244335

> <GCUT_SMR_0>
-0.52175909

> <GCUT_SMR_1>
-0.19398676

> <GCUT_SMR_2>
0.17997947

> <GCUT_SMR_3>
3.1277974

> <Kier1>
21.82526

> <Kier2>
9.469388

> <Kier3>
4.5778546

> <KierA1>
17.332178

> <KierA2>
7.4565153

> <KierA3>
3.5831735

> <KierFlex>
4.3079219

> <lip_acc>
6

> <lip_don>
0

> <lip_druglike>
1

> <lip_violation>
0

> <logP(o/w)>
2.796

> <logS>
-4.2877102

> <mr>
11.336307

> <mutagenic>
0

> <nmol>
1

> <opr_brigid>
27

> <opr_leadlike>
1

> <opr_nring>
5

> <opr_nrot>
7

> <opr_violation>
1

> <PC+>
0

> <PC->
0

> <PEOE_PC+>
1.9910747

> <PEOE_PC->
-1.9910747

> <PEOE_RPC+>
0.1293276

> <PEOE_RPC->
0.17794092

> <PEOE_VSA+0>
160.82677

> <PEOE_VSA+1>
19.495708

> <PEOE_VSA+2>
20.211409

> <PEOE_VSA+3>
8.458519

> <PEOE_VSA+4>
0.0

> <PEOE_VSA+5>
12.949531

> <PEOE_VSA+6>
0.0

> <PEOE_VSA-0>
113.1487

> <PEOE_VSA-1>
10.885262

> <PEOE_VSA-2>
0.0

> <PEOE_VSA-3>
0.0

> <PEOE_VSA-4>
17.591211

> <PEOE_VSA-5>
13.566921

> <PEOE_VSA-6>
5.9023595

> <PEOE_VSA_FHYD>
0.86943793

> <PEOE_VSA_FNEG>
0.42057219

> <PEOE_VSA_FPNEG>
0.096754491

> <PEOE_VSA_FPOL>
0.13056207

> <PEOE_VSA_FPOS>
0.57942778

> <PEOE_VSA_FPPOS>
0.033807576

> <PEOE_VSA_HYD>
333.02637

> <PEOE_VSA_NEG>
161.09445

> <PEOE_VSA_PNEG>
37.060493

> <PEOE_VSA_POL>
50.010021

> <PEOE_VSA_POS>
221.94193

> <PEOE_VSA_PPOS>
12.949531

> <petitjean>
0.47058824

> <petitjeanSC>
0.8888889

> <Q_PC+>
0

> <Q_PC->
0

> <Q_RPC+>
0

> <Q_RPC->
0

> <Q_VSA_FHYD>
1

> <Q_VSA_FNEG>
0

> <Q_VSA_FPNEG>
0

> <Q_VSA_FPOL>
0

> <Q_VSA_FPOS>
1

> <Q_VSA_FPPOS>
0

> <Q_VSA_HYD>
383.03638

> <Q_VSA_NEG>
0

> <Q_VSA_PNEG>
0

> <Q_VSA_POL>
0

> <Q_VSA_POS>
383.03638

> <Q_VSA_PPOS>
0

> <radius>
9

> <reactive>
0

> <rings>
5

> <RPC+>
0

> <RPC->
0

> <rsynth>
1.0

> <SlogP>
4.2350001

> <SlogP_VSA0>
0.0

> <SlogP_VSA1>
33.431927

> <SlogP_VSA2>
32.983234

> <SlogP_VSA3>
73.758316

> <SlogP_VSA4>
2.7567475

> <SlogP_VSA5>
32.461971

> <SlogP_VSA6>
4.4107962

> <SlogP_VSA7>
60.338726

> <SlogP_VSA8>
113.21043

> <SlogP_VSA9>
48.286129

> <SMR>
11.2698

> <SMR_VSA0>
33.596336

> <SMR_VSA1>
57.590866

> <SMR_VSA2>
9.1210184

> <SMR_VSA3>
13.109866

> <SMR_VSA4>
7.4091749

> <SMR_VSA5>
166.13998

> <SMR_VSA6>
81.345016

> <SMR_VSA7>
33.326015

> <TPSA>
61.939999

> <VAdjEq>
0.38632196

> <VAdjMa>
6.0874629

> <VDistEq>
3.8167973

> <VDistMa>
9.4759521

> <vdw_area>
383.03638

> <vdw_vol>
551.24188

> <vsa_acc>
30.134758

> <vsa_acid>
0

> <vsa_base>
0

> <vsa_don>
0.0

> <vsa_hyd>
293.83713

> <vsa_other>
38.500973

> <vsa_pol>
30.134758

> <Weight>
410.49298

> <weinerPath>
2793

> <weinerPol>
51

> <zagreb>
166

$$$$
Row1715
 OpenBabel06061811532D

 54 57  0  0  1  0  0  0  0  0999 V2000
    0.0000    0.0000    0.0000 S   0  0  0  0  0  0  0  0  0  0  0  0
    0.0000    0.0000    0.0000 C   0  0  0  0  0  0  0  0  0  0  0  0
    0.0000    0.0000    0.0000 N   0  0  0  0  0  0  0  0  0  0  0  0
    0.0000    0.0000    0.0000 C   0  0  0  0  0  0  0  0  0  0  0  0
    0.0000    0.0000    0.0000 C   0  0  0  0  0  0  0  0  0  0  0  0
    0.0000    0.0000    0.0000 C   0  0  0  0  0  0  0  0  0  0  0  0
    0.0000    0.0000    0.0000 O   0  0  0  0  0  0  0  0  0  0  0  0
    0.0000    0.0000    0.0000 C   0  0  0  0  0  0  0  0  0  0  0  0
    0.0000    0.0000    0.0000 O   0  0  0  0  0  0  0  0  0  0  0  0
    0.0000    0.0000    0.0000 N   0  0  0  0  0  0  0  0  0  0  0  0
    0.0000    0.0000    0.0000 C   0  0  2  0  0  0  0  0  0  0  0  0
    0.0000    0.0000    0.0000 H   0  0  0  0  0  0  0  0  0  0  0  0
    0.0000    0.0000    0.0000 C   0  0  1  0  0  0  0  0  0  0  0  0
    0.0000    0.0000    0.0000 H   0  0  0  0  0  0  0  0  0  0  0  0
    0.0000    0.0000    0.0000 O   0  0  0  0  0  0  0  0  0  0  0  0
    0.0000    0.0000    0.0000 C   0  0  0  0  0  0  0  0  0  0  0  0
    0.0000    0.0000    0.0000 C   0  0  1  0  0  0  0  0  0  0  0  0
    0.0000    0.0000    0.0000 H   0  0  0  0  0  0  0  0  0  0  0  0
    0.0000    0.0000    0.0000 N   0  0  0  0  0  0  0  0  0  0  0  0
    0.0000    0.0000    0.0000 C   0  0  0  0  0  0  0  0  0  0  0  0
    0.0000    0.0000    0.0000 O   0  0  0  0  0  0  0  0  0  0  0  0
    0.0000    0.0000    0.0000 C   0  0  1  0  0  0  0  0  0  0  0  0
    0.0000    0.0000    0.0000 H   0  0  0  0  0  0  0  0  0  0  0  0
    0.0000    0.0000    0.0000 N   0  0  0  0  0  0  0  0  0  0  0  0
    0.0000    0.0000    0.0000 C   0  0  0  0  0  0  0  0  0  0  0  0
    0.0000    0.0000    0.0000 O   0  0  0  0  0  0  0  0  0  0  0  0
    0.0000    0.0000    0.0000 N   0  0  0  0  0  0  0  0  0  0  0  0
    0.0000    0.0000    0.0000 C   0  0  0  0  0  0  0  0  0  0  0  0
    0.0000    0.0000    0.0000 C   0  0  0  0  0  0  0  0  0  0  0  0
    0.0000    0.0000    0.0000 N   0  0  0  0  0  0  0  0  0  0  0  0
    0.0000    0.0000    0.0000 C   0  0  0  0  0  0  0  0  0  0  0  0
    0.0000    0.0000    0.0000 S   0  0  0  0  0  0  0  0  0  0  0  0
    0.0000    0.0000    0.0000 C   0  0  0  0  0  0  0  0  0  0  0  0
    0.0000    0.0000    0.0000 C   0  0  0  0  0  0  0  0  0  0  0  0
    0.0000    0.0000    0.0000 C   0  0  0  0  0  0  0  0  0  0  0  0
    0.0000    0.0000    0.0000 C   0  0  0  0  0  0  0  0  0  0  0  0
    0.0000    0.0000    0.0000 C   0  0  0  0  0  0  0  0  0  0  0  0
    0.0000    0.0000    0.0000 C   0  0  0  0  0  0  0  0  0  0  0  0
    0.0000    0.0000    0.0000 C   0  0  0  0  0  0  0  0  0  0  0  0
    0.0000    0.0000    0.0000 C   0  0  0  0  0  0  0  0  0  0  0  0
    0.0000    0.0000    0.0000 C   0  0  0  0  0  0  0  0  0  0  0  0
    0.0000    0.0000    0.0000 C   0  0  0  0  0  0  0  0  0  0  0  0
    0.0000    0.0000    0.0000 C   0  0  0  0  0  0  0  0  0  0  0  0
    0.0000    0.0000    0.0000 C   0  0  0  0  0  0  0  0  0  0  0  0
    0.0000    0.0000    0.0000 C   0  0  0  0  0  0  0  0  0  0  0  0
    0.0000    0.0000    0.0000 C   0  0  0  0  0  0  0  0  0  0  0  0
    0.0000    0.0000    0.0000 C   0  0  0  0  0  0  0  0  0  0  0  0
    0.0000    0.0000    0.0000 C   0  0  0  0  0  0  0  0  0  0  0  0
    0.0000    0.0000    0.0000 C   0  0  0  0  0  0  0  0  0  0  0  0
    0.0000    0.0000    0.0000 C   0  0  0  0  0  0  0  0  0  0  0  0
    0.0000    0.0000    0.0000 C   0  0  0  0  0  0  0  0  0  0  0  0
    0.0000    0.0000    0.0000 C   0  0  0  0  0  0  0  0  0  0  0  0
    0.0000    0.0000    0.0000 C   0  0  0  0  0  0  0  0  0  0  0  0
    0.0000    0.0000    0.0000 C   0  0  0  0  0  0  0  0  0  0  0  0
  1  5  1  0  0  0  0
  1  2  1  0  0  0  0
  2  3  2  0  0  0  0
  3  4  1  0  0  0  0
  4  5  2  0  0  0  0
  5  6  1  0  0  0  0
  6  7  1  0  0  0  0
  7  8  1  0  0  0  0
  8  9  2  0  0  0  0
  8 10  1  0  0  0  0
 10 11  1  0  0  0  0
 11 12  1  0  0  0  0
 11 13  1  0  0  0  0
 11 48  1  0  0  0  0
 13 14  1  0  0  0  0
 13 15  1  0  0  0  0
 13 16  1  0  0  0  0
 16 17  1  0  0  0  0
 17 18  1  0  0  0  0
 17 19  1  0  0  0  0
 17 41  1  0  0  0  0
 19 20  1  0  0  0  0
 20 21  2  0  0  0  0
 20 22  1  0  0  0  0
 22 23  1  0  0  0  0
 22 24  1  0  0  0  0
 22 38  1  0  0  0  0
 24 25  1  0  0  0  0
 25 26  2  0  0  0  0
 25 27  1  0  0  0  0
 27 28  1  0  0  0  0
 27 37  1  0  0  0  0
 28 29  1  0  0  0  0
 29 33  2  0  0  0  0
 29 30  1  0  0  0  0
 30 31  2  0  0  0  0
 31 32  1  0  0  0  0
 31 34  1  0  0  0  0
 32 33  1  0  0  0  0
 34 35  1  0  0  0  0
 34 36  1  0  0  0  0
 38 39  1  0  0  0  0
 38 40  1  0  0  0  0
 41 42  1  0  0  0  0
 42 47  1  0  0  0  0
 42 43  2  0  0  0  0
 43 44  1  0  0  0  0
 44 45  2  0  0  0  0
 45 46  1  0  0  0  0
 46 47  2  0  0  0  0
 48 49  1  0  0  0  0
 49 54  1  0  0  0  0
 49 50  2  0  0  0  0
 50 51  1  0  0  0  0
 51 52  2  0  0  0  0
 52 53  1  0  0  0  0
 53 54  2  0  0  0  0
M  END
> <Index>
1716

> <ID>
HT1833

> <class>
1

> <apol>
113.53606

> <ast_fraglike>
0

> <ast_fraglike_ext>
0

> <ast_violation>
4

> <ast_violation_ext>
6

> <a_acc>
6

> <a_acid>
0

> <a_aro>
22

> <a_base>
0

> <a_count>
98

> <a_don>
4

> <a_donacc>
10

> <a_heavy>
50

> <a_hyd>
36

> <a_IC>
158.29417

> <a_ICM>
1.6152467

> <a_nB>
0

> <a_nBr>
0

> <a_nC>
37

> <a_nCl>
0

> <a_nF>
0

> <a_nH>
48

> <a_nI>
0

> <a_nN>
6

> <a_nO>
5

> <a_nP>
0

> <a_nS>
2

> <balabanJ>
1.3874168

> <BCUT_PEOE_0>
-2.7144141

> <BCUT_PEOE_1>
-0.51930356

> <BCUT_PEOE_2>
0.5806976

> <BCUT_PEOE_3>
2.707427

> <BCUT_SLOGP_0>
-2.8710985

> <BCUT_SLOGP_1>
-0.46021175

> <BCUT_SLOGP_2>
0.67699885

> <BCUT_SLOGP_3>
2.636477

> <BCUT_SMR_0>
-2.4653656

> <BCUT_SMR_1>
-0.39122003

> <BCUT_SMR_2>
0.73829281

> <BCUT_SMR_3>
2.9509759

> <bpol>
68.423935

> <b_1rotN>
18

> <b_1rotR>
0.33962265

> <b_ar>
22

> <b_count>
101

> <b_double>
3

> <b_heavy>
53

> <b_max1len>
7

> <b_rotN>
22

> <b_rotR>
0.41509435

> <b_single>
76

> <b_triple>
0

> <chi0>
36.045029

> <chi0v>
30.876526

> <chi0v_C>
23.50519

> <chi0_C>
25.810825

> <chi1>
23.977274

> <chi1v>
18.568356

> <chi1v_C>
10.999342

> <chi1_C>
13.358211

> <chiral>
4

> <chiral_u>
0

> <density>
0.74469215

> <diameter>
22

> <FCharge>
0

> <GCUT_PEOE_0>
-0.83729672

> <GCUT_PEOE_1>
-0.38844505

> <GCUT_PEOE_2>
0.062127329

> <GCUT_PEOE_3>
3.0360904

> <GCUT_SLOGP_0>
-1.1654736

> <GCUT_SLOGP_1>
-0.29156563

> <GCUT_SLOGP_2>
0.13883604

> <GCUT_SLOGP_3>
3.0260117

> <GCUT_SMR_0>
-0.53113741

> <GCUT_SMR_1>
-0.20909584

> <GCUT_SMR_2>
0.19305076

> <GCUT_SMR_3>
3.2793894

> <Kier1>
42.737629

> <Kier2>
22.395555

> <Kier3>
14.987959

> <KierA1>
34.812023

> <KierA2>
18.162325

> <KierA3>
12.118054

> <KierFlex>
12.645346

> <lip_acc>
11

> <lip_don>
4

> <lip_druglike>
0

> <lip_violation>
3

> <logP(o/w)>
5.0040002

> <logS>
-6.2857499

> <mr>
20.322235

> <mutagenic>
0

> <nmol>
1

> <opr_brigid>
22

> <opr_leadlike>
0

> <opr_nring>
4

> <opr_nrot>
17

> <opr_violation>
4

> <PC+>
0

> <PC->
0

> <PEOE_PC+>
4.4528098

> <PEOE_PC->
-4.4528098

> <PEOE_RPC+>
0.081129946

> <PEOE_RPC->
0.087513678

> <PEOE_VSA+0>
147.93399

> <PEOE_VSA+1>
125.76762

> <PEOE_VSA+2>
3.1459606

> <PEOE_VSA+3>
65.378273

> <PEOE_VSA+4>
23.273705

> <PEOE_VSA+5>
0.0

> <PEOE_VSA+6>
36.640053

> <PEOE_VSA-0>
57.91861

> <PEOE_VSA-1>
215.95532

> <PEOE_VSA-2>
0.0

> <PEOE_VSA-3>
0.0

> <PEOE_VSA-4>
27.133842

> <PEOE_VSA-5>
27.435829

> <PEOE_VSA-6>
8.1782131

> <PEOE_VSA_FHYD>
0.8339631

> <PEOE_VSA_FNEG>
0.45565701

> <PEOE_VSA_FPNEG>
0.084936604

> <PEOE_VSA_FPOL>
0.16603689

> <PEOE_VSA_FPOS>
0.54434299

> <PEOE_VSA_FPPOS>
0.081100278

> <PEOE_VSA_HYD>
616.09979

> <PEOE_VSA_NEG>
336.6218

> <PEOE_VSA_PNEG>
62.747883

> <PEOE_VSA_POL>
122.66164

> <PEOE_VSA_POS>
402.13959

> <PEOE_VSA_PPOS>
59.913757

> <petitjean>
0.5

> <petitjeanSC>
1.0

> <Q_PC+>
0

> <Q_PC->
0

> <Q_RPC+>
0

> <Q_RPC->
0

> <Q_VSA_FHYD>
1

> <Q_VSA_FNEG>
0

> <Q_VSA_FPNEG>
0

> <Q_VSA_FPOL>
0

> <Q_VSA_FPOS>
1

> <Q_VSA_FPPOS>
0

> <Q_VSA_HYD>
738.76141

> <Q_VSA_NEG>
0

> <Q_VSA_PNEG>
0

> <Q_VSA_POL>
0

> <Q_VSA_POS>
738.76141

> <Q_VSA_PPOS>
0

> <radius>
11

> <reactive>
0

> <rings>
4

> <RPC+>
0

> <RPC->
0

> <rsynth>
1.0

> <SlogP>
6.4379401

> <SlogP_VSA0>
79.41748

> <SlogP_VSA1>
54.10075

> <SlogP_VSA2>
53.276661

> <SlogP_VSA3>
0.0

> <SlogP_VSA4>
15.826669

> <SlogP_VSA5>
70.633995

> <SlogP_VSA6>
4.4107962

> <SlogP_VSA7>
224.8494

> <SlogP_VSA8>
18.868406

> <SlogP_VSA9>
282.94971

> <SMR>
19.73069

> <SMR_VSA0>
82.58654

> <SMR_VSA1>
62.080601

> <SMR_VSA2>
58.443047

> <SMR_VSA3>
34.241222

> <SMR_VSA4>
0.0

> <SMR_VSA5>
320.82043

> <SMR_VSA6>
17.405376

> <SMR_VSA7>
228.75662

> <TPSA>
145.78

> <VAdjEq>
0.25318992

> <VAdjMa>
6.7279205

> <VDistEq>
4.202127

> <VDistMa>
11.0307

> <vdw_area>
738.76141

> <vdw_vol>
968.13159

> <vsa_acc>
52.065914

> <vsa_acid>
0

> <vsa_base>
0

> <vsa_don>
17.047728

> <vsa_hyd>
556.23364

> <vsa_other>
52.093342

> <vsa_pol>
82.680565

> <Weight>
720.95996

> <weinerPath>
10769

> <weinerPol>
69

> <zagreb>
248

$$$$
Row1716
 OpenBabel06061811532D

 30 33  0  0  1  0  0  0  0  0999 V2000
    0.0000    0.0000    0.0000 Cl  0  0  0  0  0  0  0  0  0  0  0  0
    0.0000    0.0000    0.0000 C   0  0  0  0  0  0  0  0  0  0  0  0
    0.0000    0.0000    0.0000 S   0  0  0  0  0  0  0  0  0  0  0  0
    0.0000    0.0000    0.0000 C   0  0  0  0  0  0  0  0  0  0  0  0
    0.0000    0.0000    0.0000 C   0  0  0  0  0  0  0  0  0  0  0  0
    0.0000    0.0000    0.0000 C   0  0  0  0  0  0  0  0  0  0  0  0
    0.0000    0.0000    0.0000 C   0  0  0  0  0  0  0  0  0  0  0  0
    0.0000    0.0000    0.0000 O   0  0  0  0  0  0  0  0  0  0  0  0
    0.0000    0.0000    0.0000 N   0  0  0  0  0  0  0  0  0  0  0  0
    0.0000    0.0000    0.0000 C   0  0  0  0  0  0  0  0  0  0  0  0
    0.0000    0.0000    0.0000 C   0  0  2  0  0  0  0  0  0  0  0  0
    0.0000    0.0000    0.0000 H   0  0  0  0  0  0  0  0  0  0  0  0
    0.0000    0.0000    0.0000 O   0  0  0  0  0  0  0  0  0  0  0  0
    0.0000    0.0000    0.0000 C   0  0  0  0  0  0  0  0  0  0  0  0
    0.0000    0.0000    0.0000 O   0  0  0  0  0  0  0  0  0  0  0  0
    0.0000    0.0000    0.0000 N   0  0  0  0  0  0  0  0  0  0  0  0
    0.0000    0.0000    0.0000 C   0  0  0  0  0  0  0  0  0  0  0  0
    0.0000    0.0000    0.0000 C   0  0  0  0  0  0  0  0  0  0  0  0
    0.0000    0.0000    0.0000 C   0  0  0  0  0  0  0  0  0  0  0  0
    0.0000    0.0000    0.0000 C   0  0  0  0  0  0  0  0  0  0  0  0
    0.0000    0.0000    0.0000 C   0  0  0  0  0  0  0  0  0  0  0  0
    0.0000    0.0000    0.0000 N   0  0  0  0  0  0  0  0  0  0  0  0
    0.0000    0.0000    0.0000 C   0  0  0  0  0  0  0  0  0  0  0  0
    0.0000    0.0000    0.0000 C   0  0  0  0  0  0  0  0  0  0  0  0
    0.0000    0.0000    0.0000 O   0  0  0  0  0  0  0  0  0  0  0  0
    0.0000    0.0000    0.0000 C   0  0  0  0  0  0  0  0  0  0  0  0
    0.0000    0.0000    0.0000 C   0  0  0  0  0  0  0  0  0  0  0  0
    0.0000    0.0000    0.0000 O   0  0  0  0  0  0  0  0  0  0  0  0
    0.0000    0.0000    0.0000 C   0  0  0  0  0  0  0  0  0  0  0  0
    0.0000    0.0000    0.0000 C   0  0  0  0  0  0  0  0  0  0  0  0
  1  2  1  0  0  0  0
  2  6  2  0  0  0  0
  2  3  1  0  0  0  0
  3  4  1  0  0  0  0
  4  5  2  0  0  0  0
  4  7  1  0  0  0  0
  5  6  1  0  0  0  0
  7  8  2  0  0  0  0
  7  9  1  0  0  0  0
  9 10  1  0  0  0  0
 10 11  1  0  0  0  0
 11 12  1  0  0  0  0
 11 17  1  0  0  0  0
 11 13  1  0  0  0  0
 13 14  1  0  0  0  0
 14 15  2  0  0  0  0
 14 16  1  0  0  0  0
 16 17  1  0  0  0  0
 16 18  1  0  0  0  0
 18 30  1  0  0  0  0
 18 19  2  0  0  0  0
 19 20  1  0  0  0  0
 20 21  2  0  0  0  0
 21 22  1  0  0  0  0
 21 29  1  0  0  0  0
 22 27  1  0  0  0  0
 22 23  1  0  0  0  0
 23 24  1  0  0  0  0
 24 25  1  0  0  0  0
 25 26  1  0  0  0  0
 26 27  1  0  0  0  0
 27 28  2  0  0  0  0
 29 30  2  0  0  0  0
M  END
> <Index>
1717

> <ID>
HT1834

> <class>
1

> <apol>
57.832275

> <ast_fraglike>
0

> <ast_fraglike_ext>
0

> <ast_violation>
2

> <ast_violation_ext>
3

> <a_acc>
4

> <a_acid>
0

> <a_aro>
11

> <a_base>
0

> <a_count>
47

> <a_don>
1

> <a_donacc>
5

> <a_heavy>
29

> <a_hyd>
18

> <a_IC>
88.931877

> <a_ICM>
1.8921676

> <a_nB>
0

> <a_nBr>
0

> <a_nC>
19

> <a_nCl>
1

> <a_nF>
0

> <a_nH>
18

> <a_nI>
0

> <a_nN>
3

> <a_nO>
5

> <a_nP>
0

> <a_nS>
1

> <balabanJ>
1.2016723

> <BCUT_PEOE_0>
-2.5775592

> <BCUT_PEOE_1>
-0.61097699

> <BCUT_PEOE_2>
0.6573835

> <BCUT_PEOE_3>
2.6421652

> <BCUT_SLOGP_0>
-2.7356489

> <BCUT_SLOGP_1>
-0.49771142

> <BCUT_SLOGP_2>
0.74905109

> <BCUT_SLOGP_3>
2.5055678

> <BCUT_SMR_0>
-2.3024807

> <BCUT_SMR_1>
-0.40775761

> <BCUT_SMR_2>
0.82340801

> <BCUT_SMR_3>
2.8922091

> <bpol>
33.703728

> <b_1rotN>
5

> <b_1rotR>
0.15625

> <b_ar>
11

> <b_count>
50

> <b_double>
3

> <b_heavy>
32

> <b_max1len>
4

> <b_rotN>
6

> <b_rotR>
0.1875

> <b_single>
36

> <b_triple>
0

> <chi0>
20.380104

> <chi0v>
16.871292

> <chi0v_C>
11.076985

> <chi0_C>
12.396976

> <chi1>
14.00804

> <chi1v>
10.203777

> <chi1v_C>
4.6521006

> <chi1_C>
6.0075679

> <chiral>
1

> <chiral_u>
0

> <density>
0.85762757

> <diameter>
17

> <FCharge>
0

> <GCUT_PEOE_0>
-0.82965761

> <GCUT_PEOE_1>
-0.43265316

> <GCUT_PEOE_2>
0.086088747

> <GCUT_PEOE_3>
2.6168795

> <GCUT_SLOGP_0>
-1.1614279

> <GCUT_SLOGP_1>
-0.35023156

> <GCUT_SLOGP_2>
0.16309789

> <GCUT_SLOGP_3>
2.6338186

> <GCUT_SMR_0>
-0.51394719

> <GCUT_SMR_1>
-0.19708437

> <GCUT_SMR_2>
0.25479713

> <GCUT_SMR_3>
2.8932674

> <Kier1>
22.203125

> <Kier2>
10.08

> <Kier3>
5.4375181

> <KierA1>
18.328346

> <KierA2>
8.2607079

> <KierA3>
4.4323406

> <KierFlex>
5.2208657

> <lip_acc>
8

> <lip_don>
1

> <lip_druglike>
1

> <lip_violation>
0

> <logP(o/w)>
1.626

> <logS>
-4.88691

> <mr>
10.978176

> <mutagenic>
0

> <nmol>
1

> <opr_brigid>
22

> <opr_leadlike>
1

> <opr_nring>
4

> <opr_nrot>
6

> <opr_violation>
0

> <PC+>
0

> <PC->
0

> <PEOE_PC+>
2.7507968

> <PEOE_PC->
-2.7507968

> <PEOE_RPC+>
0.13381629

> <PEOE_RPC->
0.13399744

> <PEOE_VSA+0>
39.783752

> <PEOE_VSA+1>
100.65518

> <PEOE_VSA+2>
19.856222

> <PEOE_VSA+3>
28.379631

> <PEOE_VSA+4>
12.949531

> <PEOE_VSA+5>
12.949531

> <PEOE_VSA+6>
19.199511

> <PEOE_VSA-0>
59.700024

> <PEOE_VSA-1>
54.091755

> <PEOE_VSA-2>
0.0

> <PEOE_VSA-3>
0.0

> <PEOE_VSA-4>
13.566921

> <PEOE_VSA-5>
29.637598

> <PEOE_VSA-6>
2.6406472

> <PEOE_VSA_FHYD>
0.76883233

> <PEOE_VSA_FNEG>
0.40577725

> <PEOE_VSA_FPNEG>
0.11653271

> <PEOE_VSA_FPOL>
0.23116766

> <PEOE_VSA_FPOS>
0.59422278

> <PEOE_VSA_FPPOS>
0.11463495

> <PEOE_VSA_HYD>
302.46655

> <PEOE_VSA_NEG>
159.63695

> <PEOE_VSA_PNEG>
45.845165

> <PEOE_VSA_POL>
90.943741

> <PEOE_VSA_POS>
233.77336

> <PEOE_VSA_PPOS>
45.098572

> <petitjean>
0.47058824

> <petitjeanSC>
0.8888889

> <Q_PC+>
0

> <Q_PC->
0

> <Q_RPC+>
0

> <Q_RPC->
0

> <Q_VSA_FHYD>
1

> <Q_VSA_FNEG>
0

> <Q_VSA_FPNEG>
0

> <Q_VSA_FPOL>
0

> <Q_VSA_FPOS>
1

> <Q_VSA_FPPOS>
0

> <Q_VSA_HYD>
393.41031

> <Q_VSA_NEG>
0

> <Q_VSA_PNEG>
0

> <Q_VSA_POL>
0

> <Q_VSA_POS>
393.41031

> <Q_VSA_PPOS>
0

> <radius>
9

> <reactive>
0

> <rings>
4

> <RPC+>
0

> <RPC->
0

> <rsynth>
1.0

> <SlogP>
2.5199001

> <SlogP_VSA0>
24.259378

> <SlogP_VSA1>
17.834204

> <SlogP_VSA2>
52.330643

> <SlogP_VSA3>
97.171249

> <SlogP_VSA4>
25.220617

> <SlogP_VSA5>
0.0

> <SlogP_VSA6>
1.6734328

> <SlogP_VSA7>
105.85911

> <SlogP_VSA8>
0.0

> <SlogP_VSA9>
99.80204

> <SMR>
10.88912

> <SMR_VSA0>
93.586426

> <SMR_VSA1>
0.0

> <SMR_VSA2>
24.259378

> <SMR_VSA3>
9.5004835

> <SMR_VSA4>
5.513495

> <SMR_VSA5>
105.85911

> <SMR_VSA6>
115.00546

> <SMR_VSA7>
70.426331

> <TPSA>
88.18

> <VAdjEq>
0.38828552

> <VAdjMa>
6.0

> <VDistEq>
3.8423753

> <VDistMa>
9.3793917

> <vdw_area>
393.41031

> <vdw_vol>
508.2486

> <vsa_acc>
43.204517

> <vsa_acid>
0

> <vsa_base>
0

> <vsa_don>
5.6825762

> <vsa_hyd>
281.74704

> <vsa_other>
47.602329

> <vsa_pol>
48.887096

> <Weight>
435.888

> <weinerPath>
2633

> <weinerPol>
43

> <zagreb>
154

$$$$
Row1717
 OpenBabel06061811532D

 19 19  0  0  1  0  0  0  0  0999 V2000
    0.0000    0.0000    0.0000 O   0  0  0  0  0  0  0  0  0  0  0  0
    0.0000    0.0000    0.0000 C   0  0  0  0  0  0  0  0  0  0  0  0
    0.0000    0.0000    0.0000 O   0  0  0  0  0  0  0  0  0  0  0  0
    0.0000    0.0000    0.0000 N   0  0  0  0  0  0  0  0  0  0  0  0
    0.0000    0.0000    0.0000 C   0  0  0  0  0  0  0  0  0  0  0  0
    0.0000    0.0000    0.0000 C   0  0  0  0  0  0  0  0  0  0  0  0
    0.0000    0.0000    0.0000 C   0  0  0  0  0  0  0  0  0  0  0  0
    0.0000    0.0000    0.0000 C   0  0  0  0  0  0  0  0  0  0  0  0
    0.0000    0.0000    0.0000 C   0  0  0  0  0  0  0  0  0  0  0  0
    0.0000    0.0000    0.0000 C   0  0  0  0  0  0  0  0  0  0  0  0
    0.0000    0.0000    0.0000 C   0  0  0  0  0  0  0  0  0  0  0  0
    0.0000    0.0000    0.0000 C   0  0  0  0  0  0  0  0  0  0  0  0
    0.0000    0.0000    0.0000 C   0  0  0  0  0  0  0  0  0  0  0  0
    0.0000    0.0000    0.0000 C   0  0  1  0  0  0  0  0  0  0  0  0
    0.0000    0.0000    0.0000 H   0  0  0  0  0  0  0  0  0  0  0  0
    0.0000    0.0000    0.0000 N   0  0  0  0  0  0  0  0  0  0  0  0
    0.0000    0.0000    0.0000 C   0  0  0  0  0  0  0  0  0  0  0  0
    0.0000    0.0000    0.0000 C   0  0  0  0  0  0  0  0  0  0  0  0
    0.0000    0.0000    0.0000 C   0  0  0  0  0  0  0  0  0  0  0  0
  1  2  1  0  0  0  0
  1  8  1  0  0  0  0
  2  3  2  0  0  0  0
  2  4  1  0  0  0  0
  4  5  1  0  0  0  0
  4  7  1  0  0  0  0
  5  6  1  0  0  0  0
  8 13  1  0  0  0  0
  8  9  2  0  0  0  0
  9 10  1  0  0  0  0
 10 11  2  0  0  0  0
 10 14  1  0  0  0  0
 11 12  1  0  0  0  0
 12 13  2  0  0  0  0
 14 15  1  0  0  0  0
 14 16  1  0  0  0  0
 14 19  1  0  0  0  0
 16 17  1  0  0  0  0
 16 18  1  0  0  0  0
M  END
> <Index>
1718

> <ID>
HT1835

> <class>
1

> <apol>
43.113445

> <ast_fraglike>
1

> <ast_fraglike_ext>
0

> <ast_violation>
0

> <ast_violation_ext>
1

> <a_acc>
2

> <a_acid>
0

> <a_aro>
6

> <a_base>
0

> <a_count>
40

> <a_don>
0

> <a_donacc>
2

> <a_heavy>
18

> <a_hyd>
13

> <a_IC>
57.46666

> <a_ICM>
1.4366665

> <a_nB>
0

> <a_nBr>
0

> <a_nC>
14

> <a_nCl>
0

> <a_nF>
0

> <a_nH>
22

> <a_nI>
0

> <a_nN>
2

> <a_nO>
2

> <a_nP>
0

> <a_nS>
0

> <balabanJ>
2.4471495

> <BCUT_PEOE_0>
-2.6188278

> <BCUT_PEOE_1>
-0.19417283

> <BCUT_PEOE_2>
0.048630945

> <BCUT_PEOE_3>
2.5165031

> <BCUT_SLOGP_0>
-2.6177731

> <BCUT_SLOGP_1>
-0.060780153

> <BCUT_SLOGP_2>
0.17816648

> <BCUT_SLOGP_3>
2.6176746

> <BCUT_SMR_0>
-2.331969

> <BCUT_SMR_1>
0.093307897

> <BCUT_SMR_2>
0.19440341

> <BCUT_SMR_3>
2.7980087

> <bpol>
30.884554

> <b_1rotN>
5

> <b_1rotR>
0.27777779

> <b_ar>
6

> <b_count>
40

> <b_double>
1

> <b_heavy>
18

> <b_max1len>
5

> <b_rotN>
6

> <b_rotR>
0.33333334

> <b_single>
33

> <b_triple>
0

> <chi0>
13.706742

> <chi0v>
11.804782

> <chi0v_C>
10.093858

> <chi0_C>
10.844935

> <chi1>
8.4515963

> <chi1v>
6.1465459

> <chi1v_C>
3.3944993

> <chi1_C>
4.2507834

> <chiral>
1

> <chiral_u>
0

> <density>
0.67305398

> <diameter>
10

> <FCharge>
0

> <GCUT_PEOE_0>
-0.85653561

> <GCUT_PEOE_1>
-0.36108065

> <GCUT_PEOE_2>
-0.11136905

> <GCUT_PEOE_3>
2.4884543

> <GCUT_SLOGP_0>
-0.97280329

> <GCUT_SLOGP_1>
-0.23289485

> <GCUT_SLOGP_2>
-0.037

> <GCUT_SLOGP_3>
2.5856228

> <GCUT_SMR_0>
-0.51793653

> <GCUT_SMR_1>
-0.10190118

> <GCUT_SMR_2>
-0.024247833

> <GCUT_SMR_3>
2.7508073

> <Kier1>
16.055555

> <Kier2>
7.5555553

> <Kier3>
4.8979592

> <KierA1>
12.824219

> <KierA2>
5.9489746

> <KierA3>
3.8156688

> <KierFlex>
4.2383862

> <lip_acc>
4

> <lip_don>
0

> <lip_druglike>
1

> <lip_violation>
0

> <logP(o/w)>
2.569

> <logS>
-1.9921401

> <mr>
7.3253007

> <mutagenic>
0

> <nmol>
1

> <opr_brigid>
6

> <opr_leadlike>
1

> <opr_nring>
1

> <opr_nrot>
4

> <opr_violation>
0

> <PC+>
0

> <PC->
0

> <PEOE_PC+>
1.4405264

> <PEOE_PC->
-1.4405264

> <PEOE_RPC+>
0.25548753

> <PEOE_RPC->
0.22309075

> <PEOE_VSA+0>
112.08854

> <PEOE_VSA+1>
29.78545

> <PEOE_VSA+2>
0.0

> <PEOE_VSA+3>
0.0

> <PEOE_VSA+4>
0.0

> <PEOE_VSA+5>
0.0

> <PEOE_VSA+6>
19.199511

> <PEOE_VSA-0>
110.69108

> <PEOE_VSA-1>
24.509808

> <PEOE_VSA-2>
0.0

> <PEOE_VSA-3>
0.0

> <PEOE_VSA-4>
13.566921

> <PEOE_VSA-5>
2.503756

> <PEOE_VSA-6>
0.0

> <PEOE_VSA_FHYD>
0.88707942

> <PEOE_VSA_FNEG>
0.48430914

> <PEOE_VSA_FPNEG>
0.051451676

> <PEOE_VSA_FPOL>
0.11292059

> <PEOE_VSA_FPOS>
0.51569086

> <PEOE_VSA_FPPOS>
0.06146891

> <PEOE_VSA_HYD>
277.07486

> <PEOE_VSA_NEG>
151.27156

> <PEOE_VSA_PNEG>
16.070677

> <PEOE_VSA_POL>
35.270187

> <PEOE_VSA_POS>
161.0735

> <PEOE_VSA_PPOS>
19.199511

> <petitjean>
0.5

> <petitjeanSC>
1.0

> <Q_PC+>
0

> <Q_PC->
0

> <Q_RPC+>
0

> <Q_RPC->
0

> <Q_VSA_FHYD>
1

> <Q_VSA_FNEG>
0

> <Q_VSA_FPNEG>
0

> <Q_VSA_FPOL>
0

> <Q_VSA_FPOS>
1

> <Q_VSA_FPPOS>
0

> <Q_VSA_HYD>
312.34506

> <Q_VSA_NEG>
0

> <Q_VSA_PNEG>
0

> <Q_VSA_POL>
0

> <Q_VSA_POS>
312.34506

> <Q_VSA_PPOS>
0

> <radius>
5

> <reactive>
0

> <rings>
1

> <RPC+>
0

> <RPC->
0

> <rsynth>
1.0

> <SlogP>
2.8552001

> <SlogP_VSA0>
10.999887

> <SlogP_VSA1>
13.565265

> <SlogP_VSA2>
0.0

> <SlogP_VSA3>
18.439579

> <SlogP_VSA4>
3.185575

> <SlogP_VSA5>
98.691559

> <SlogP_VSA6>
0.0

> <SlogP_VSA7>
70.572739

> <SlogP_VSA8>
3.9819686

> <SlogP_VSA9>
95.757675

> <SMR>
7.2982998

> <SMR_VSA0>
23.862217

> <SMR_VSA1>
17.248516

> <SMR_VSA2>
0.0

> <SMR_VSA3>
12.410972

> <SMR_VSA4>
0.0

> <SMR_VSA5>
70.572739

> <SMR_VSA6>
25.756214

> <SMR_VSA7>
165.3436

> <TPSA>
32.779999

> <VAdjEq>
0.50325835

> <VAdjMa>
5.1699252

> <VDistEq>
3.1273744

> <VDistMa>
8.0335073

> <vdw_area>
312.34506

> <vdw_vol>
371.94937

> <vsa_acc>
13.566921

> <vsa_acid>
0

> <vsa_base>
0

> <vsa_don>
0.0

> <vsa_hyd>
261.41537

> <vsa_other>
21.703266

> <vsa_pol>
13.566921

> <Weight>
250.342

> <weinerPath>
654

> <weinerPol>
25

> <zagreb>
84

$$$$
Row1718
 OpenBabel06061811532D

 70 72  0  0  1  0  0  0  0  0999 V2000
    0.0000    0.0000    0.0000 O   0  0  0  0  0  0  0  0  0  0  0  0
    0.0000    0.0000    0.0000 C   0  0  1  0  0  0  0  0  0  0  0  0
    0.0000    0.0000    0.0000 H   0  0  0  0  0  0  0  0  0  0  0  0
    0.0000    0.0000    0.0000 C   0  0  0  0  0  0  0  0  0  0  0  0
    0.0000    0.0000    0.0000 C   0  0  3  0  0  0  0  0  0  0  0  0
    0.0000    0.0000    0.0000 O   0  0  0  0  0  0  0  0  0  0  0  0
    0.0000    0.0000    0.0000 C   0  0  3  0  0  0  0  0  0  0  0  0
    0.0000    0.0000    0.0000 O   0  0  0  0  0  0  0  0  0  0  0  0
    0.0000    0.0000    0.0000 C   0  0  1  0  0  0  0  0  0  0  0  0
    0.0000    0.0000    0.0000 H   0  0  0  0  0  0  0  0  0  0  0  0
    0.0000    0.0000    0.0000 C   0  0  0  0  0  0  0  0  0  0  0  0
    0.0000    0.0000    0.0000 C   0  0  2  0  0  0  0  0  0  0  0  0
    0.0000    0.0000    0.0000 H   0  0  0  0  0  0  0  0  0  0  0  0
    0.0000    0.0000    0.0000 O   0  0  0  0  0  0  0  0  0  0  0  0
    0.0000    0.0000    0.0000 C   0  0  0  0  0  0  0  0  0  0  0  0
    0.0000    0.0000    0.0000 O   0  0  0  0  0  0  0  0  0  0  0  0
    0.0000    0.0000    0.0000 C   0  0  0  0  0  0  0  0  0  0  0  0
    0.0000    0.0000    0.0000 C   0  0  0  0  0  0  0  0  0  0  0  0
    0.0000    0.0000    0.0000 C   0  0  0  0  0  0  0  0  0  0  0  0
    0.0000    0.0000    0.0000 C   0  0  2  0  0  0  0  0  0  0  0  0
    0.0000    0.0000    0.0000 O   0  0  0  0  0  0  0  0  0  0  0  0
    0.0000    0.0000    0.0000 C   0  0  0  0  0  0  0  0  0  0  0  0
    0.0000    0.0000    0.0000 O   0  0  0  0  0  0  0  0  0  0  0  0
    0.0000    0.0000    0.0000 C   0  0  0  0  0  0  0  0  0  0  0  0
    0.0000    0.0000    0.0000 C   0  0  0  0  0  0  0  0  0  0  0  0
    0.0000    0.0000    0.0000 C   0  0  0  0  0  0  0  0  0  0  0  0
    0.0000    0.0000    0.0000 C   0  0  0  0  0  0  0  0  0  0  0  0
    0.0000    0.0000    0.0000 C   0  0  1  0  0  0  0  0  0  0  0  0
    0.0000    0.0000    0.0000 H   0  0  0  0  0  0  0  0  0  0  0  0
    0.0000    0.0000    0.0000 N   0  0  0  0  0  0  0  0  0  0  0  0
    0.0000    0.0000    0.0000 C   0  0  0  0  0  0  0  0  0  0  0  0
    0.0000    0.0000    0.0000 C   0  0  0  0  0  0  0  0  0  0  0  0
    0.0000    0.0000    0.0000 C   0  0  2  0  0  0  0  0  0  0  0  0
    0.0000    0.0000    0.0000 H   0  0  0  0  0  0  0  0  0  0  0  0
    0.0000    0.0000    0.0000 O   0  0  0  0  0  0  0  0  0  0  0  0
    0.0000    0.0000    0.0000 C   0  0  3  0  0  0  0  0  0  0  0  0
    0.0000    0.0000    0.0000 O   0  0  0  0  0  0  0  0  0  0  0  0
    0.0000    0.0000    0.0000 C   0  0  2  0  0  0  0  0  0  0  0  0
    0.0000    0.0000    0.0000 H   0  0  0  0  0  0  0  0  0  0  0  0
    0.0000    0.0000    0.0000 C   0  0  2  0  0  0  0  0  0  0  0  0
    0.0000    0.0000    0.0000 H   0  0  0  0  0  0  0  0  0  0  0  0
    0.0000    0.0000    0.0000 O   0  0  0  0  0  0  0  0  0  0  0  0
    0.0000    0.0000    0.0000 C   0  0  0  0  0  0  0  0  0  0  0  0
    0.0000    0.0000    0.0000 C   0  0  2  0  0  0  0  0  0  0  0  0
    0.0000    0.0000    0.0000 H   0  0  0  0  0  0  0  0  0  0  0  0
    0.0000    0.0000    0.0000 O   0  0  0  0  0  0  0  0  0  0  0  0
    0.0000    0.0000    0.0000 C   0  0  0  0  0  0  0  0  0  0  0  0
    0.0000    0.0000    0.0000 C   0  0  0  0  0  0  0  0  0  0  0  0
    0.0000    0.0000    0.0000 O   0  0  0  0  0  0  0  0  0  0  0  0
    0.0000    0.0000    0.0000 C   0  0  1  0  0  0  0  0  0  0  0  0
    0.0000    0.0000    0.0000 H   0  0  0  0  0  0  0  0  0  0  0  0
    0.0000    0.0000    0.0000 C   0  0  0  0  0  0  0  0  0  0  0  0
    0.0000    0.0000    0.0000 C   0  0  0  0  0  0  0  0  0  0  0  0
    0.0000    0.0000    0.0000 C   0  0  0  0  0  0  0  0  0  0  0  0
    0.0000    0.0000    0.0000 C   0  0  0  0  0  0  0  0  0  0  0  0
    0.0000    0.0000    0.0000 C   0  0  0  0  0  0  0  0  0  0  0  0
    0.0000    0.0000    0.0000 C   0  0  2  0  0  0  0  0  0  0  0  0
    0.0000    0.0000    0.0000 H   0  0  0  0  0  0  0  0  0  0  0  0
    0.0000    0.0000    0.0000 O   0  0  0  0  0  0  0  0  0  0  0  0
    0.0000    0.0000    0.0000 C   0  0  1  0  0  0  0  0  0  0  0  0
    0.0000    0.0000    0.0000 H   0  0  0  0  0  0  0  0  0  0  0  0
    0.0000    0.0000    0.0000 C   0  0  0  0  0  0  0  0  0  0  0  0
    0.0000    0.0000    0.0000 C   0  0  2  0  0  0  0  0  0  0  0  0
    0.0000    0.0000    0.0000 H   0  0  0  0  0  0  0  0  0  0  0  0
    0.0000    0.0000    0.0000 C   0  0  0  0  0  0  0  0  0  0  0  0
    0.0000    0.0000    0.0000 C   0  0  0  0  0  0  0  0  0  0  0  0
    0.0000    0.0000    0.0000 O   0  0  0  0  0  0  0  0  0  0  0  0
    0.0000    0.0000    0.0000 C   0  0  0  0  0  0  0  0  0  0  0  0
    0.0000    0.0000    0.0000 C   0  0  0  0  0  0  0  0  0  0  0  0
    0.0000    0.0000    0.0000 O   0  0  0  0  0  0  0  0  0  0  0  0
  1 36  1  0  0  0  0
  1  2  1  0  0  0  0
  2  3  1  0  0  0  0
  2  4  1  0  0  0  0
  2  5  1  0  0  0  0
  5  6  1  0  0  0  0
  5 28  1  0  0  0  0
  6  7  1  0  0  0  0
  7 26  1  0  0  0  0
  7  8  1  0  0  0  0
  8  9  1  0  0  0  0
  9 10  1  0  0  0  0
  9 11  1  0  0  0  0
  9 12  1  0  0  0  0
 12 13  1  0  0  0  0
 12 14  1  0  0  0  0
 12 20  1  0  0  0  0
 14 15  1  0  0  0  0
 15 16  2  0  0  0  0
 15 17  1  0  0  0  0
 17 18  1  0  0  0  0
 18 19  1  0  0  0  0
 20 21  1  0  0  0  0
 20 26  1  0  0  0  0
 20 27  1  0  0  0  0
 21 22  1  0  0  0  0
 22 23  2  0  0  0  0
 22 24  1  0  0  0  0
 24 25  1  0  0  0  0
 28 29  1  0  0  0  0
 28 30  1  0  0  0  0
 28 33  1  0  0  0  0
 30 31  1  0  0  0  0
 30 32  1  0  0  0  0
 33 34  1  0  0  0  0
 33 35  1  0  0  0  0
 33 36  1  0  0  0  0
 36 37  1  0  0  0  0
 37 38  1  0  0  0  0
 38 39  1  0  0  0  0
 38 63  1  0  0  0  0
 38 40  1  0  0  0  0
 40 41  1  0  0  0  0
 40 42  1  0  0  0  0
 40 44  1  0  0  0  0
 42 43  1  0  0  0  0
 44 45  1  0  0  0  0
 44 46  1  0  0  0  0
 44 47  1  0  0  0  0
 47 48  1  0  0  0  0
 48 49  1  0  0  0  0
 48 70  2  0  0  0  0
 49 50  1  0  0  0  0
 50 51  1  0  0  0  0
 50 52  1  0  0  0  0
 50 69  1  0  0  0  0
 52 53  1  0  0  0  0
 53 54  2  3  0  0  0
 54 55  1  0  0  0  0
 55 56  2  3  0  0  0
 56 57  1  0  0  0  0
 57 58  1  0  0  0  0
 57 59  1  0  0  0  0
 57 60  1  0  0  0  0
 60 61  1  0  0  0  0
 60 62  1  0  0  0  0
 60 68  1  0  0  0  0
 62 63  1  0  0  0  0
 63 64  1  0  0  0  0
 63 65  1  0  0  0  0
 65 66  1  0  0  0  0
 66 67  2  0  0  0  0
M  END
> <Index>
1719

> <ID>
HT1840

> <class>
1

> <apol>
133.05872

> <ast_fraglike>
0

> <ast_fraglike_ext>
0

> <ast_violation>
3

> <ast_violation_ext>
5

> <a_acc>
13

> <a_acid>
0

> <a_aro>
0

> <a_base>
0

> <a_count>
127

> <a_don>
3

> <a_donacc>
16

> <a_heavy>
58

> <a_hyd>
36

> <a_IC>
180.99408

> <a_ICM>
1.4251502

> <a_nB>
0

> <a_nBr>
0

> <a_nC>
42

> <a_nCl>
0

> <a_nF>
0

> <a_nH>
69

> <a_nI>
0

> <a_nN>
1

> <a_nO>
15

> <a_nP>
0

> <a_nS>
0

> <balabanJ>
1.9267951

> <BCUT_PEOE_0>
-2.8115423

> <BCUT_PEOE_1>
-0.44894481

> <BCUT_PEOE_2>
0.54116458

> <BCUT_PEOE_3>
2.8403759

> <BCUT_SLOGP_0>
-2.9521043

> <BCUT_SLOGP_1>
-0.41270894

> <BCUT_SLOGP_2>
0.46657467

> <BCUT_SLOGP_3>
2.7677391

> <BCUT_SMR_0>
-2.5903051

> <BCUT_SMR_1>
-0.35735518

> <BCUT_SMR_2>
0.62639624

> <BCUT_SMR_3>
3.0464931

> <bpol>
96.571281

> <b_1rotN>
13

> <b_1rotR>
0.21666667

> <b_ar>
0

> <b_count>
129

> <b_double>
6

> <b_heavy>
60

> <b_max1len>
4

> <b_rotN>
15

> <b_rotR>
0.25

> <b_single>
123

> <b_triple>
0

> <chi0>
43.318897

> <chi0v>
35.891693

> <chi0v_C>
29.203859

> <chi0_C>
30.084694

> <chi1>
27.383705

> <chi1v>
20.618589

> <chi1v_C>
14.025823

> <chi1_C>
14.948326

> <chiral>
16

> <chiral_u>
3

> <density>
0.73935324

> <diameter>
23

> <FCharge>
0

> <GCUT_PEOE_0>
-0.85206729

> <GCUT_PEOE_1>
-0.37819132

> <GCUT_PEOE_2>
0.04873094

> <GCUT_PEOE_3>
3.4126272

> <GCUT_SLOGP_0>
-0.96996987

> <GCUT_SLOGP_1>
-0.28910249

> <GCUT_SLOGP_2>
-0.0089015346

> <GCUT_SLOGP_3>
3.3747585

> <GCUT_SMR_0>
-0.53353328

> <GCUT_SMR_1>
-0.21133189

> <GCUT_SMR_2>
0.12519252

> <GCUT_SMR_3>
3.6144783

> <Kier1>
52.345001

> <Kier2>
25.333334

> <Kier3>
15.350658

> <KierA1>
47.773567

> <KierA2>
23.082834

> <KierA3>
13.97115

> <KierFlex>
19.012918

> <lip_acc>
16

> <lip_don>
3

> <lip_druglike>
0

> <lip_violation>
2

> <logP(o/w)>
3.6294799

> <logS>
-4.8421798

> <mr>
21.39781

> <mutagenic>
0

> <nmol>
1

> <opr_brigid>
28

> <opr_leadlike>
0

> <opr_nring>
2

> <opr_nrot>
30

> <opr_violation>
3

> <PC+>
0

> <PC->
0

> <PEOE_PC+>
5.9625578

> <PEOE_PC->
-5.9625578

> <PEOE_RPC+>
0.044440668

> <PEOE_RPC->
0.065179564

> <PEOE_VSA+0>
251.74529

> <PEOE_VSA+1>
126.58456

> <PEOE_VSA+2>
42.389984

> <PEOE_VSA+3>
22.309816

> <PEOE_VSA+4>
30.972517

> <PEOE_VSA+5>
44.125496

> <PEOE_VSA+6>
0.0

> <PEOE_VSA-0>
147.57202

> <PEOE_VSA-1>
105.26265

> <PEOE_VSA-2>
0.0

> <PEOE_VSA-3>
0.0

> <PEOE_VSA-4>
0.0

> <PEOE_VSA-5>
40.700764

> <PEOE_VSA-6>
56.89959

> <PEOE_VSA_FHYD>
0.80116767

> <PEOE_VSA_FNEG>
0.40346545

> <PEOE_VSA_FPNEG>
0.11236995

> <PEOE_VSA_FPOL>
0.19883236

> <PEOE_VSA_FPOS>
0.59653455

> <PEOE_VSA_FPPOS>
0.086462401

> <PEOE_VSA_HYD>
695.86432

> <PEOE_VSA_NEG>
350.43503

> <PEOE_VSA_PNEG>
97.600349

> <PEOE_VSA_POL>
172.69836

> <PEOE_VSA_POS>
518.12769

> <PEOE_VSA_PPOS>
75.098015

> <petitjean>
0.47826087

> <petitjeanSC>
0.91666669

> <Q_PC+>
0

> <Q_PC->
0

> <Q_RPC+>
0

> <Q_RPC->
0

> <Q_VSA_FHYD>
1

> <Q_VSA_FNEG>
0

> <Q_VSA_FPNEG>
0

> <Q_VSA_FPOL>
0

> <Q_VSA_FPOS>
1

> <Q_VSA_FPPOS>
0

> <Q_VSA_HYD>
868.56268

> <Q_VSA_NEG>
0

> <Q_VSA_PNEG>
0

> <Q_VSA_POL>
0

> <Q_VSA_POS>
868.56268

> <Q_VSA_PPOS>
0

> <radius>
12

> <reactive>
1

> <rings>
3

> <RPC+>
0

> <RPC->
0

> <rsynth>
0.63793105

> <SlogP>
3.1575

> <SlogP_VSA0>
76.155678

> <SlogP_VSA1>
26.360706

> <SlogP_VSA2>
289.31467

> <SlogP_VSA3>
0.0

> <SlogP_VSA4>
8.8215923

> <SlogP_VSA5>
101.17825

> <SlogP_VSA6>
0.0

> <SlogP_VSA7>
70.572739

> <SlogP_VSA8>
150.94725

> <SlogP_VSA9>
233.2821

> <SMR>
20.99214

> <SMR_VSA0>
183.44797

> <SMR_VSA1>
79.279991

> <SMR_VSA2>
8.8215923

> <SMR_VSA3>
85.721466

> <SMR_VSA4>
0.0

> <SMR_VSA5>
221.51997

> <SMR_VSA6>
23.236393

> <SMR_VSA7>
354.60556

> <TPSA>
206.05

> <VAdjEq>
0.22208287

> <VAdjMa>
6.9068904

> <VDistEq>
4.2200456

> <VDistMa>
11.455734

> <vdw_area>
868.56268

> <vdw_vol>
1119.9059

> <vsa_acc>
66.786461

> <vsa_acid>
0

> <vsa_base>
0

> <vsa_don>
0.0

> <vsa_hyd>
594.72028

> <vsa_other>
103.11224

> <vsa_pol>
107.48723

> <Weight>
828.00598

> <weinerPath>
14551

> <weinerPol>
100

> <zagreb>
288

$$$$
Row1719
 OpenBabel06061811532D

 22 24  0  0  1  0  0  0  0  0999 V2000
    0.0000    0.0000    0.0000 S   0  0  0  0  0  0  0  0  0  0  0  0
    0.0000    0.0000    0.0000 C   0  0  0  0  0  0  0  0  0  0  0  0
    0.0000    0.0000    0.0000 C   0  0  0  0  0  0  0  0  0  0  0  0
    0.0000    0.0000    0.0000 C   0  0  0  0  0  0  0  0  0  0  0  0
    0.0000    0.0000    0.0000 C   0  0  0  0  0  0  0  0  0  0  0  0
    0.0000    0.0000    0.0000 C   0  0  0  0  0  0  0  0  0  0  0  0
    0.0000    0.0000    0.0000 C   0  0  0  0  0  0  0  0  0  0  0  0
    0.0000    0.0000    0.0000 N   0  0  0  0  0  0  0  0  0  0  0  0
    0.0000    0.0000    0.0000 C   0  0  0  0  0  0  0  0  0  0  0  0
    0.0000    0.0000    0.0000 C   0  0  0  0  0  0  0  0  0  0  0  0
    0.0000    0.0000    0.0000 C   0  0  0  0  0  0  0  0  0  0  0  0
    0.0000    0.0000    0.0000 C   0  0  3  0  0  0  0  0  0  0  0  0
    0.0000    0.0000    0.0000 C   0  0  0  0  0  0  0  0  0  0  0  0
    0.0000    0.0000    0.0000 C   0  0  0  0  0  0  0  0  0  0  0  0
    0.0000    0.0000    0.0000 C   0  0  0  0  0  0  0  0  0  0  0  0
    0.0000    0.0000    0.0000 C   0  0  0  0  0  0  0  0  0  0  0  0
    0.0000    0.0000    0.0000 C   0  0  0  0  0  0  0  0  0  0  0  0
    0.0000    0.0000    0.0000 C   0  0  0  0  0  0  0  0  0  0  0  0
    0.0000    0.0000    0.0000 C   0  0  0  0  0  0  0  0  0  0  0  0
    0.0000    0.0000    0.0000 C   0  0  0  0  0  0  0  0  0  0  0  0
    0.0000    0.0000    0.0000 C   0  0  0  0  0  0  0  0  0  0  0  0
    0.0000    0.0000    0.0000 O   0  0  0  0  0  0  0  0  0  0  0  0
  1  5  1  0  0  0  0
  1  2  1  0  0  0  0
  2  3  2  0  0  0  0
  3  4  1  0  0  0  0
  4  5  2  0  0  0  0
  5  6  1  0  0  0  0
  6  7  1  0  0  0  0
  7  8  1  0  0  0  0
  8  9  1  0  0  0  0
  8 12  1  0  0  0  0
  9 10  1  0  0  0  0
 10 11  1  0  0  0  0
 12 17  1  0  0  0  0
 12 13  1  0  0  0  0
 13 14  1  0  0  0  0
 14 15  1  0  0  0  0
 15 21  1  0  0  0  0
 15 16  2  0  0  0  0
 16 17  1  0  0  0  0
 16 18  1  0  0  0  0
 18 19  2  0  0  0  0
 19 20  1  0  0  0  0
 20 21  2  0  0  0  0
 21 22  1  0  0  0  0
M  END
> <Index>
1720

> <ID>
HT1851

> <class>
1

> <apol>
54.911823

> <ast_fraglike>
0

> <ast_fraglike_ext>
0

> <ast_violation>
2

> <ast_violation_ext>
3

> <a_acc>
2

> <a_acid>
0

> <a_aro>
11

> <a_base>
0

> <a_count>
47

> <a_don>
1

> <a_donacc>
3

> <a_heavy>
22

> <a_hyd>
20

> <a_IC>
64.258652

> <a_ICM>
1.3672053

> <a_nB>
0

> <a_nBr>
0

> <a_nC>
19

> <a_nCl>
0

> <a_nF>
0

> <a_nH>
25

> <a_nI>
0

> <a_nN>
1

> <a_nO>
1

> <a_nP>
0

> <a_nS>
1

> <balabanJ>
1.5232106

> <BCUT_PEOE_0>
-2.7729216

> <BCUT_PEOE_1>
-0.55461198

> <BCUT_PEOE_2>
0.65722322

> <BCUT_PEOE_3>
2.6945546

> <BCUT_SLOGP_0>
-2.8098035

> <BCUT_SLOGP_1>
-0.44298714

> <BCUT_SLOGP_2>
0.68594885

> <BCUT_SLOGP_3>
2.707494

> <BCUT_SMR_0>
-2.4956956

> <BCUT_SMR_1>
-0.39793023

> <BCUT_SMR_2>
0.81006616

> <BCUT_SMR_3>
2.9679611

> <bpol>
31.590176

> <b_1rotN>
6

> <b_1rotR>
0.25

> <b_ar>
11

> <b_count>
49

> <b_double>
0

> <b_heavy>
24

> <b_max1len>
7

> <b_rotN>
6

> <b_rotR>
0.25

> <b_single>
38

> <b_triple>
0

> <chi0>
15.363597

> <chi0v>
14.110372

> <chi0v_C>
11.991199

> <chi0_C>
13.07914

> <chi1>
10.775188

> <chi1v>
9.2173624

> <chi1v_C>
6.7836223

> <chi1_C>
8.13976

> <chiral>
1

> <chiral_u>
1

> <density>
0.69235796

> <diameter>
11

> <FCharge>
0

> <GCUT_PEOE_0>
-0.85611069

> <GCUT_PEOE_1>
-0.36915168

> <GCUT_PEOE_2>
0.081100181

> <GCUT_PEOE_3>
2.8184819

> <GCUT_SLOGP_0>
-0.95704216

> <GCUT_SLOGP_1>
-0.24817006

> <GCUT_SLOGP_2>
0.13762157

> <GCUT_SLOGP_3>
2.8871872

> <GCUT_SMR_0>
-0.52406818

> <GCUT_SMR_1>
-0.18770717

> <GCUT_SMR_2>
0.19810519

> <GCUT_SMR_3>
3.0773628

> <Kier1>
16.84375

> <Kier2>
8.203125

> <Kier3>
4.3083901

> <KierA1>
15.018139

> <KierA2>
7.2719998

> <KierA3>
3.8034286

> <KierFlex>
4.9641776

> <lip_acc>
2

> <lip_don>
1

> <lip_druglike>
1

> <lip_violation>
0

> <logP(o/w)>
4.5630002

> <logS>
-3.50651

> <mr>
9.5475225

> <mutagenic>
0

> <nmol>
1

> <opr_brigid>
16

> <opr_leadlike>
1

> <opr_nring>
3

> <opr_nrot>
7

> <opr_violation>
0

> <PC+>
0

> <PC->
0

> <PEOE_PC+>
1.4164008

> <PEOE_PC->
-1.4164008

> <PEOE_RPC+>
0.15343454

> <PEOE_RPC->
0.25384948

> <PEOE_VSA+0>
97.380623

> <PEOE_VSA+1>
29.78545

> <PEOE_VSA+2>
0.0

> <PEOE_VSA+3>
19.760618

> <PEOE_VSA+4>
10.324173

> <PEOE_VSA+5>
0.0

> <PEOE_VSA+6>
0.0

> <PEOE_VSA-0>
73.370872

> <PEOE_VSA-1>
71.951897

> <PEOE_VSA-2>
14.230966

> <PEOE_VSA-3>
0.0

> <PEOE_VSA-4>
0.0

> <PEOE_VSA-5>
0.0

> <PEOE_VSA-6>
7.7675405

> <PEOE_VSA_FHYD>
0.94425982

> <PEOE_VSA_FNEG>
0.51551336

> <PEOE_VSA_FPNEG>
0.02393163

> <PEOE_VSA_FPOL>
0.055740193

> <PEOE_VSA_FPOS>
0.48448664

> <PEOE_VSA_FPPOS>
0.031808563

> <PEOE_VSA_HYD>
306.48041

> <PEOE_VSA_NEG>
167.32127

> <PEOE_VSA_PNEG>
7.7675405

> <PEOE_VSA_POL>
18.091713

> <PEOE_VSA_POS>
157.25085

> <PEOE_VSA_PPOS>
10.324173

> <petitjean>
0.45454547

> <petitjeanSC>
0.83333331

> <Q_PC+>
0

> <Q_PC->
0

> <Q_RPC+>
0

> <Q_RPC->
0

> <Q_VSA_FHYD>
1

> <Q_VSA_FNEG>
0

> <Q_VSA_FPNEG>
0

> <Q_VSA_FPOL>
0

> <Q_VSA_FPOS>
1

> <Q_VSA_FPPOS>
0

> <Q_VSA_HYD>
324.57214

> <Q_VSA_NEG>
0

> <Q_VSA_PNEG>
0

> <Q_VSA_POL>
0

> <Q_VSA_POS>
324.57214

> <Q_VSA_PPOS>
0

> <radius>
6

> <reactive>
0

> <rings>
3

> <RPC+>
0

> <RPC->
0

> <rsynth>
1.0

> <SlogP>
4.2656102

> <SlogP_VSA0>
25.385227

> <SlogP_VSA1>
3.1243138

> <SlogP_VSA2>
3.9819686

> <SlogP_VSA3>
36.879158

> <SlogP_VSA4>
7.7295513

> <SlogP_VSA5>
56.605217

> <SlogP_VSA6>
0.0

> <SlogP_VSA7>
104.03193

> <SlogP_VSA8>
37.736813

> <SlogP_VSA9>
69.84713

> <SMR>
9.3806801

> <SMR_VSA0>
0.0

> <SMR_VSA1>
28.509541

> <SMR_VSA2>
0.0

> <SMR_VSA3>
16.954948

> <SMR_VSA4>
0.0

> <SMR_VSA5>
198.37396

> <SMR_VSA6>
36.879158

> <SMR_VSA7>
64.603706

> <TPSA>
23.469999

> <VAdjEq>
0.46637034

> <VAdjMa>
5.5849624

> <VDistEq>
3.3039775

> <VDistMa>
8.6213303

> <vdw_area>
324.57214

> <vdw_vol>
455.66168

> <vsa_acc>
0.0

> <vsa_acid>
0

> <vsa_base>
0

> <vsa_don>
0.0

> <vsa_hyd>
289.39734

> <vsa_other>
0.0

> <vsa_pol>
13.566921

> <Weight>
315.48099

> <weinerPath>
1112

> <weinerPol>
31

> <zagreb>
112

$$$$
Row1720
 OpenBabel06061811532D

 73 75  0  0  1  0  0  0  0  0999 V2000
    0.0000    0.0000    0.0000 O   0  0  0  0  0  0  0  0  0  0  0  0
    0.0000    0.0000    0.0000 C   0  0  2  0  0  0  0  0  0  0  0  0
    0.0000    0.0000    0.0000 H   0  0  0  0  0  0  0  0  0  0  0  0
    0.0000    0.0000    0.0000 C   0  0  0  0  0  0  0  0  0  0  0  0
    0.0000    0.0000    0.0000 C   0  0  0  0  0  0  0  0  0  0  0  0
    0.0000    0.0000    0.0000 C   0  0  2  0  0  0  0  0  0  0  0  0
    0.0000    0.0000    0.0000 O   0  0  0  0  0  0  0  0  0  0  0  0
    0.0000    0.0000    0.0000 C   0  0  0  0  0  0  0  0  0  0  0  0
    0.0000    0.0000    0.0000 C   0  0  2  0  0  0  0  0  0  0  0  0
    0.0000    0.0000    0.0000 H   0  0  0  0  0  0  0  0  0  0  0  0
    0.0000    0.0000    0.0000 O   0  0  0  0  0  0  0  0  0  0  0  0
    0.0000    0.0000    0.0000 C   0  0  1  0  0  0  0  0  0  0  0  0
    0.0000    0.0000    0.0000 H   0  0  0  0  0  0  0  0  0  0  0  0
    0.0000    0.0000    0.0000 C   0  0  0  0  0  0  0  0  0  0  0  0
    0.0000    0.0000    0.0000 C   0  0  0  0  0  0  0  0  0  0  0  0
    0.0000    0.0000    0.0000 N   0  0  0  0  0  0  0  0  0  0  0  0
    0.0000    0.0000    0.0000 O   0  0  0  0  0  0  0  0  0  0  0  0
    0.0000    0.0000    0.0000 C   0  0  0  0  0  0  0  0  0  0  0  0
    0.0000    0.0000    0.0000 O   0  0  0  0  0  0  0  0  0  0  0  0
    0.0000    0.0000    0.0000 C   0  0  0  0  0  0  0  0  0  0  0  0
    0.0000    0.0000    0.0000 C   0  0  0  0  0  0  0  0  0  0  0  0
    0.0000    0.0000    0.0000 O   0  0  0  0  0  0  0  0  0  0  0  0
    0.0000    0.0000    0.0000 C   0  0  0  0  0  0  0  0  0  0  0  0
    0.0000    0.0000    0.0000 C   0  0  1  0  0  0  0  0  0  0  0  0
    0.0000    0.0000    0.0000 H   0  0  0  0  0  0  0  0  0  0  0  0
    0.0000    0.0000    0.0000 C   0  0  0  0  0  0  0  0  0  0  0  0
    0.0000    0.0000    0.0000 C   0  0  2  0  0  0  0  0  0  0  0  0
    0.0000    0.0000    0.0000 O   0  0  0  0  0  0  0  0  0  0  0  0
    0.0000    0.0000    0.0000 C   0  0  0  0  0  0  0  0  0  0  0  0
    0.0000    0.0000    0.0000 C   0  0  1  0  0  0  0  0  0  0  0  0
    0.0000    0.0000    0.0000 H   0  0  0  0  0  0  0  0  0  0  0  0
    0.0000    0.0000    0.0000 O   0  0  0  0  0  0  0  0  0  0  0  0
    0.0000    0.0000    0.0000 C   0  0  2  0  0  0  0  0  0  0  0  0
    0.0000    0.0000    0.0000 H   0  0  0  0  0  0  0  0  0  0  0  0
    0.0000    0.0000    0.0000 O   0  0  0  0  0  0  0  0  0  0  0  0
    0.0000    0.0000    0.0000 C   0  0  1  0  0  0  0  0  0  0  0  0
    0.0000    0.0000    0.0000 H   0  0  0  0  0  0  0  0  0  0  0  0
    0.0000    0.0000    0.0000 C   0  0  0  0  0  0  0  0  0  0  0  0
    0.0000    0.0000    0.0000 C   0  0  2  0  0  0  0  0  0  0  0  0
    0.0000    0.0000    0.0000 H   0  0  0  0  0  0  0  0  0  0  0  0
    0.0000    0.0000    0.0000 N   0  0  0  0  0  0  0  0  0  0  0  0
    0.0000    0.0000    0.0000 C   0  0  0  0  0  0  0  0  0  0  0  0
    0.0000    0.0000    0.0000 C   0  0  0  0  0  0  0  0  0  0  0  0
    0.0000    0.0000    0.0000 C   0  0  1  0  0  0  0  0  0  0  0  0
    0.0000    0.0000    0.0000 H   0  0  0  0  0  0  0  0  0  0  0  0
    0.0000    0.0000    0.0000 O   0  0  0  0  0  0  0  0  0  0  0  0
    0.0000    0.0000    0.0000 C   0  0  0  0  0  0  0  0  0  0  0  0
    0.0000    0.0000    0.0000 C   0  0  1  0  0  0  0  0  0  0  0  0
    0.0000    0.0000    0.0000 H   0  0  0  0  0  0  0  0  0  0  0  0
    0.0000    0.0000    0.0000 C   0  0  0  0  0  0  0  0  0  0  0  0
    0.0000    0.0000    0.0000 C   0  0  2  0  0  0  0  0  0  0  0  0
    0.0000    0.0000    0.0000 H   0  0  0  0  0  0  0  0  0  0  0  0
    0.0000    0.0000    0.0000 O   0  0  0  0  0  0  0  0  0  0  0  0
    0.0000    0.0000    0.0000 C   0  0  2  0  0  0  0  0  0  0  0  0
    0.0000    0.0000    0.0000 H   0  0  0  0  0  0  0  0  0  0  0  0
    0.0000    0.0000    0.0000 O   0  0  0  0  0  0  0  0  0  0  0  0
    0.0000    0.0000    0.0000 C   0  0  1  0  0  0  0  0  0  0  0  0
    0.0000    0.0000    0.0000 H   0  0  0  0  0  0  0  0  0  0  0  0
    0.0000    0.0000    0.0000 C   0  0  0  0  0  0  0  0  0  0  0  0
    0.0000    0.0000    0.0000 C   0  0  2  0  0  0  0  0  0  0  0  0
    0.0000    0.0000    0.0000 H   0  0  0  0  0  0  0  0  0  0  0  0
    0.0000    0.0000    0.0000 O   0  0  0  0  0  0  0  0  0  0  0  0
    0.0000    0.0000    0.0000 C   0  0  2  0  0  0  0  0  0  0  0  0
    0.0000    0.0000    0.0000 O   0  0  0  0  0  0  0  0  0  0  0  0
    0.0000    0.0000    0.0000 C   0  0  0  0  0  0  0  0  0  0  0  0
    0.0000    0.0000    0.0000 C   0  0  0  0  0  0  0  0  0  0  0  0
    0.0000    0.0000    0.0000 C   0  0  0  0  0  0  0  0  0  0  0  0
    0.0000    0.0000    0.0000 C   0  0  1  0  0  0  0  0  0  0  0  0
    0.0000    0.0000    0.0000 H   0  0  0  0  0  0  0  0  0  0  0  0
    0.0000    0.0000    0.0000 C   0  0  0  0  0  0  0  0  0  0  0  0
    0.0000    0.0000    0.0000 C   0  0  0  0  0  0  0  0  0  0  0  0
    0.0000    0.0000    0.0000 O   0  0  0  0  0  0  0  0  0  0  0  0
    0.0000    0.0000    0.0000 C   0  0  0  0  0  0  0  0  0  0  0  0
  1 71  1  0  0  0  0
  1  2  1  0  0  0  0
  2  3  1  0  0  0  0
  2  4  1  0  0  0  0
  2  6  1  0  0  0  0
  4  5  1  0  0  0  0
  6  7  1  0  0  0  0
  6  8  1  0  0  0  0
  6  9  1  0  0  0  0
  9 10  1  0  0  0  0
  9 11  1  0  0  0  0
  9 12  1  0  0  0  0
 12 13  1  0  0  0  0
 12 14  1  0  0  0  0
 12 15  1  0  0  0  0
 15 16  2  3  0  0  0
 15 24  1  0  0  0  0
 16 17  1  0  0  0  0
 17 18  1  0  0  0  0
 18 19  1  0  0  0  0
 19 20  1  0  0  0  0
 20 21  1  0  0  0  0
 21 22  1  0  0  0  0
 22 23  1  0  0  0  0
 24 25  1  0  0  0  0
 24 26  1  0  0  0  0
 24 73  1  0  0  0  0
 26 27  1  0  0  0  0
 27 28  1  0  0  0  0
 27 29  1  0  0  0  0
 27 30  1  0  0  0  0
 30 31  1  0  0  0  0
 30 32  1  0  0  0  0
 30 48  1  0  0  0  0
 32 33  1  0  0  0  0
 33 34  1  0  0  0  0
 33 44  1  0  0  0  0
 33 35  1  0  0  0  0
 35 36  1  0  0  0  0
 36 37  1  0  0  0  0
 36 38  1  0  0  0  0
 36 47  1  0  0  0  0
 38 39  1  0  0  0  0
 39 40  1  0  0  0  0
 39 41  1  0  0  0  0
 39 44  1  0  0  0  0
 41 42  1  0  0  0  0
 41 43  1  0  0  0  0
 44 45  1  0  0  0  0
 44 46  1  0  0  0  0
 48 49  1  0  0  0  0
 48 50  1  0  0  0  0
 48 51  1  0  0  0  0
 51 52  1  0  0  0  0
 51 53  1  0  0  0  0
 51 68  1  0  0  0  0
 53 54  1  0  0  0  0
 54 55  1  0  0  0  0
 54 66  1  0  0  0  0
 54 56  1  0  0  0  0
 56 57  1  0  0  0  0
 57 58  1  0  0  0  0
 57 59  1  0  0  0  0
 57 60  1  0  0  0  0
 60 61  1  0  0  0  0
 60 62  1  0  0  0  0
 60 63  1  0  0  0  0
 63 64  1  0  0  0  0
 63 66  1  0  0  0  0
 63 67  1  0  0  0  0
 64 65  1  0  0  0  0
 68 69  1  0  0  0  0
 68 70  1  0  0  0  0
 68 71  1  0  0  0  0
 71 72  2  0  0  0  0
M  END
> <Index>
1721

> <ID>
HT1853

> <class>
1

> <apol>
137.06627

> <ast_fraglike>
0

> <ast_fraglike_ext>
0

> <ast_violation>
3

> <ast_violation_ext>
5

> <a_acc>
15

> <a_acid>
0

> <a_aro>
0

> <a_base>
0

> <a_count>
134

> <a_don>
5

> <a_donacc>
20

> <a_heavy>
58

> <a_hyd>
36

> <a_IC>
191.75047

> <a_ICM>
1.4309736

> <a_nB>
0

> <a_nBr>
0

> <a_nC>
41

> <a_nCl>
0

> <a_nF>
0

> <a_nH>
76

> <a_nI>
0

> <a_nN>
2

> <a_nO>
15

> <a_nP>
0

> <a_nS>
0

> <balabanJ>
2.1843517

> <BCUT_PEOE_0>
-2.8179498

> <BCUT_PEOE_1>
-0.19213846

> <BCUT_PEOE_2>
0.10376363

> <BCUT_PEOE_3>
2.839926

> <BCUT_SLOGP_0>
-2.9130707

> <BCUT_SLOGP_1>
-0.10682286

> <BCUT_SLOGP_2>
0.123

> <BCUT_SLOGP_3>
2.7740457

> <BCUT_SMR_0>
-2.593281

> <BCUT_SMR_1>
0.070863694

> <BCUT_SMR_2>
0.19666384

> <BCUT_SMR_3>
3.0560701

> <bpol>
103.26573

> <b_1rotN>
13

> <b_1rotR>
0.21666667

> <b_ar>
0

> <b_count>
136

> <b_double>
2

> <b_heavy>
60

> <b_max1len>
7

> <b_rotN>
13

> <b_rotR>
0.21666667

> <b_single>
134

> <b_triple>
0

> <chi0>
43.91312

> <chi0v>
37.322979

> <chi0v_C>
30.110001

> <chi0_C>
30.264702

> <chi1>
26.963524

> <chi1v>
20.759123

> <chi1v_C>
13.273616

> <chi1_C>
13.407591

> <chiral>
18

> <chiral_u>
0

> <density>
0.7344088

> <diameter>
20

> <FCharge>
0

> <GCUT_PEOE_0>
-0.85631597

> <GCUT_PEOE_1>
-0.32714596

> <GCUT_PEOE_2>
-0.086221561

> <GCUT_PEOE_3>
3.5859625

> <GCUT_SLOGP_0>
-0.96319848

> <GCUT_SLOGP_1>
-0.31648406

> <GCUT_SLOGP_2>
-0.037

> <GCUT_SLOGP_3>
3.5602949

> <GCUT_SMR_0>
-0.53529656

> <GCUT_SMR_1>
-0.12097306

> <GCUT_SMR_2>
-0.016870238

> <GCUT_SMR_3>
3.7888746

> <Kier1>
52.345001

> <Kier2>
22.566847

> <Kier3>
13.041966

> <KierA1>
50.718639

> <KierA2>
21.85338

> <KierA3>
12.624749

> <KierFlex>
19.109892

> <lip_acc>
17

> <lip_don>
5

> <lip_druglike>
0

> <lip_violation>
2

> <logP(o/w)>
3.1477399

> <logS>
-3.7797101

> <mr>
21.352156

> <mutagenic>
0

> <nmol>
1

> <opr_brigid>
27

> <opr_leadlike>
0

> <opr_nring>
2

> <opr_nrot>
30

> <opr_violation>
3

> <PC+>
0

> <PC->
0

> <PEOE_PC+>
6.1812572

> <PEOE_PC->
-6.1812572

> <PEOE_RPC+>
0.043332689

> <PEOE_RPC->
0.062808558

> <PEOE_VSA+0>
270.8465

> <PEOE_VSA+1>
159.87021

> <PEOE_VSA+2>
9.8098574

> <PEOE_VSA+3>
43.511089

> <PEOE_VSA+4>
51.620865

> <PEOE_VSA+5>
14.708499

> <PEOE_VSA+6>
0.0

> <PEOE_VSA-0>
166.3197

> <PEOE_VSA-1>
93.738388

> <PEOE_VSA-2>
10.885262

> <PEOE_VSA-3>
0.0

> <PEOE_VSA-4>
5.9023595

> <PEOE_VSA-5>
13.566921

> <PEOE_VSA-6>
58.867752

> <PEOE_VSA_FHYD>
0.83919656

> <PEOE_VSA_FNEG>
0.38824141

> <PEOE_VSA_FPNEG>
0.087075256

> <PEOE_VSA_FPOL>
0.16080344

> <PEOE_VSA_FPOS>
0.61175859

> <PEOE_VSA_FPPOS>
0.073728174

> <PEOE_VSA_HYD>
754.98102

> <PEOE_VSA_NEG>
349.2804

> <PEOE_VSA_PNEG>
78.337029

> <PEOE_VSA_POL>
144.6664

> <PEOE_VSA_POS>
550.367

> <PEOE_VSA_PPOS>
66.329361

> <petitjean>
0.5

> <petitjeanSC>
1.0

> <Q_PC+>
0

> <Q_PC->
0

> <Q_RPC+>
0

> <Q_RPC->
0

> <Q_VSA_FHYD>
1

> <Q_VSA_FNEG>
0

> <Q_VSA_FPNEG>
0

> <Q_VSA_FPOL>
0

> <Q_VSA_FPOS>
1

> <Q_VSA_FPPOS>
0

> <Q_VSA_HYD>
899.6474

> <Q_VSA_NEG>
0

> <Q_VSA_PNEG>
0

> <Q_VSA_POL>
0

> <Q_VSA_POS>
899.6474

> <Q_VSA_PPOS>
0

> <radius>
10

> <reactive>
1

> <rings>
3

> <RPC+>
0

> <RPC->
0

> <rsynth>
0.70689654

> <SlogP>
2.2096

> <SlogP_VSA0>
126.92613

> <SlogP_VSA1>
13.626526

> <SlogP_VSA2>
195.86426

> <SlogP_VSA3>
64.836632

> <SlogP_VSA4>
17.643185

> <SlogP_VSA5>
155.96198

> <SlogP_VSA6>
0.0

> <SlogP_VSA7>
0.0

> <SlogP_VSA8>
75.473625

> <SlogP_VSA9>
333.26016

> <SMR>
21.246599

> <SMR_VSA0>
123.08009

> <SMR_VSA1>
149.4503

> <SMR_VSA2>
17.643185

> <SMR_VSA3>
72.784164

> <SMR_VSA4>
0.0

> <SMR_VSA5>
75.473625

> <SMR_VSA6>
75.338844

> <SMR_VSA7>
469.82227

> <TPSA>
216.89

> <VAdjEq>
0.22208287

> <VAdjMa>
6.9068904

> <VDistEq>
3.9399326

> <VDistMa>
11.49924

> <vdw_area>
899.6474

> <vdw_vol>
1139.7712

> <vsa_acc>
41.978474

> <vsa_acid>
0

> <vsa_base>
0

> <vsa_don>
0.0

> <vsa_hyd>
623.75305

> <vsa_other>
87.539619

> <vsa_pol>
109.81308

> <Weight>
837.05798

> <weinerPath>
12923

> <weinerPol>
109

> <zagreb>
298

$$$$
Row1721
 OpenBabel06061811532D

 55 59  0  0  1  0  0  0  0  0999 V2000
    0.0000    0.0000    0.0000 O   0  0  0  0  0  0  0  0  0  0  0  0
    0.0000    0.0000    0.0000 C   0  0  0  0  0  0  0  0  0  0  0  0
    0.0000    0.0000    0.0000 N   0  0  0  0  0  0  0  0  0  0  0  0
    0.0000    0.0000    0.0000 C   0  0  1  0  0  0  0  0  0  0  0  0
    0.0000    0.0000    0.0000 H   0  0  0  0  0  0  0  0  0  0  0  0
    0.0000    0.0000    0.0000 C   0  0  0  0  0  0  0  0  0  0  0  0
    0.0000    0.0000    0.0000 C   0  0  0  0  0  0  0  0  0  0  0  0
    0.0000    0.0000    0.0000 O   0  0  0  0  0  0  0  0  0  0  0  0
    0.0000    0.0000    0.0000 N   0  0  0  0  0  0  0  0  0  0  0  0
    0.0000    0.0000    0.0000 C   0  0  0  0  0  0  0  0  0  0  0  0
    0.0000    0.0000    0.0000 O   0  0  0  0  0  0  0  0  0  0  0  0
    0.0000    0.0000    0.0000 N   0  0  0  0  0  0  0  0  0  0  0  0
    0.0000    0.0000    0.0000 C   0  0  2  0  0  0  0  0  0  0  0  0
    0.0000    0.0000    0.0000 H   0  0  0  0  0  0  0  0  0  0  0  0
    0.0000    0.0000    0.0000 C   0  0  2  0  0  0  0  0  0  0  0  0
    0.0000    0.0000    0.0000 H   0  0  0  0  0  0  0  0  0  0  0  0
    0.0000    0.0000    0.0000 O   0  0  0  0  0  0  0  0  0  0  0  0
    0.0000    0.0000    0.0000 C   0  0  0  0  0  0  0  0  0  0  0  0
    0.0000    0.0000    0.0000 N   0  0  0  0  0  0  0  0  0  0  0  0
    0.0000    0.0000    0.0000 C   0  0  0  0  0  0  0  0  0  0  0  0
    0.0000    0.0000    0.0000 C   0  0  2  0  0  0  0  0  0  0  0  0
    0.0000    0.0000    0.0000 H   0  0  0  0  0  0  0  0  0  0  0  0
    0.0000    0.0000    0.0000 C   0  0  2  0  0  0  0  0  0  0  0  0
    0.0000    0.0000    0.0000 H   0  0  0  0  0  0  0  0  0  0  0  0
    0.0000    0.0000    0.0000 C   0  0  0  0  0  0  0  0  0  0  0  0
    0.0000    0.0000    0.0000 C   0  0  1  0  0  0  0  0  0  0  0  0
    0.0000    0.0000    0.0000 H   0  0  0  0  0  0  0  0  0  0  0  0
    0.0000    0.0000    0.0000 C   0  0  0  0  0  0  0  0  0  0  0  0
    0.0000    0.0000    0.0000 O   0  0  0  0  0  0  0  0  0  0  0  0
    0.0000    0.0000    0.0000 N   0  0  0  0  0  0  0  0  0  0  0  0
    0.0000    0.0000    0.0000 C   0  0  0  0  0  0  0  0  0  0  0  0
    0.0000    0.0000    0.0000 C   0  0  0  0  0  0  0  0  0  0  0  0
    0.0000    0.0000    0.0000 C   0  0  0  0  0  0  0  0  0  0  0  0
    0.0000    0.0000    0.0000 C   0  0  0  0  0  0  0  0  0  0  0  0
    0.0000    0.0000    0.0000 C   0  0  0  0  0  0  0  0  0  0  0  0
    0.0000    0.0000    0.0000 C   0  0  0  0  0  0  0  0  0  0  0  0
    0.0000    0.0000    0.0000 C   0  0  0  0  0  0  0  0  0  0  0  0
    0.0000    0.0000    0.0000 C   0  0  0  0  0  0  0  0  0  0  0  0
    0.0000    0.0000    0.0000 C   0  0  0  0  0  0  0  0  0  0  0  0
    0.0000    0.0000    0.0000 C   0  0  0  0  0  0  0  0  0  0  0  0
    0.0000    0.0000    0.0000 C   0  0  0  0  0  0  0  0  0  0  0  0
    0.0000    0.0000    0.0000 C   0  0  0  0  0  0  0  0  0  0  0  0
    0.0000    0.0000    0.0000 C   0  0  0  0  0  0  0  0  0  0  0  0
    0.0000    0.0000    0.0000 C   0  0  0  0  0  0  0  0  0  0  0  0
    0.0000    0.0000    0.0000 C   0  0  0  0  0  0  0  0  0  0  0  0
    0.0000    0.0000    0.0000 C   0  0  0  0  0  0  0  0  0  0  0  0
    0.0000    0.0000    0.0000 N   0  0  0  0  0  0  0  0  0  0  0  0
    0.0000    0.0000    0.0000 C   0  0  0  0  0  0  0  0  0  0  0  0
    0.0000    0.0000    0.0000 C   0  0  0  0  0  0  0  0  0  0  0  0
    0.0000    0.0000    0.0000 C   0  0  0  0  0  0  0  0  0  0  0  0
    0.0000    0.0000    0.0000 C   0  0  0  0  0  0  0  0  0  0  0  0
    0.0000    0.0000    0.0000 C   0  0  0  0  0  0  0  0  0  0  0  0
    0.0000    0.0000    0.0000 C   0  0  0  0  0  0  0  0  0  0  0  0
    0.0000    0.0000    0.0000 C   0  0  0  0  0  0  0  0  0  0  0  0
    0.0000    0.0000    0.0000 C   0  0  0  0  0  0  0  0  0  0  0  0
  1  2  2  0  0  0  0
  2  3  1  0  0  0  0
  2 46  1  0  0  0  0
  3  4  1  0  0  0  0
  4  5  1  0  0  0  0
  4  6  1  0  0  0  0
  4 10  1  0  0  0  0
  6  7  1  0  0  0  0
  7  8  2  0  0  0  0
  7  9  1  0  0  0  0
 10 11  2  0  0  0  0
 10 12  1  0  0  0  0
 12 13  1  0  0  0  0
 13 14  1  0  0  0  0
 13 15  1  0  0  0  0
 13 39  1  0  0  0  0
 15 16  1  0  0  0  0
 15 17  1  0  0  0  0
 15 18  1  0  0  0  0
 18 19  1  0  0  0  0
 19 26  1  0  0  0  0
 19 20  1  0  0  0  0
 20 21  1  0  0  0  0
 21 22  1  0  0  0  0
 21 38  1  0  0  0  0
 21 23  1  0  0  0  0
 23 24  1  0  0  0  0
 23 25  1  0  0  0  0
 23 35  1  0  0  0  0
 25 26  1  0  0  0  0
 26 27  1  0  0  0  0
 26 28  1  0  0  0  0
 28 29  2  0  0  0  0
 28 30  1  0  0  0  0
 30 31  1  0  0  0  0
 31 32  1  0  0  0  0
 31 33  1  0  0  0  0
 31 34  1  0  0  0  0
 35 36  1  0  0  0  0
 36 37  1  0  0  0  0
 37 38  1  0  0  0  0
 39 40  1  0  0  0  0
 40 45  1  0  0  0  0
 40 41  2  0  0  0  0
 41 42  1  0  0  0  0
 42 43  2  0  0  0  0
 43 44  1  0  0  0  0
 44 45  2  0  0  0  0
 46 51  1  0  0  0  0
 46 47  2  0  0  0  0
 47 48  1  0  0  0  0
 48 55  1  0  0  0  0
 48 49  2  0  0  0  0
 49 50  1  0  0  0  0
 49 52  1  0  0  0  0
 50 51  2  0  0  0  0
 52 53  2  0  0  0  0
 53 54  1  0  0  0  0
 54 55  2  0  0  0  0
M  END
> <Index>
1722

> <ID>
HT1868

> <class>
1

> <apol>
110.82965

> <ast_fraglike>
0

> <ast_fraglike_ext>
0

> <ast_violation>
4

> <ast_violation_ext>
6

> <a_acc>
7

> <a_acid>
0

> <a_aro>
16

> <a_base>
0

> <a_count>
99

> <a_don>
5

> <a_donacc>
12

> <a_heavy>
49

> <a_hyd>
34

> <a_IC>
147.57283

> <a_ICM>
1.4906347

> <a_nB>
0

> <a_nBr>
0

> <a_nC>
38

> <a_nCl>
0

> <a_nF>
0

> <a_nH>
50

> <a_nI>
0

> <a_nN>
6

> <a_nO>
5

> <a_nP>
0

> <a_nS>
0

> <balabanJ>
1.2777454

> <BCUT_PEOE_0>
-2.902535

> <BCUT_PEOE_1>
-0.54855043

> <BCUT_PEOE_2>
0.56111223

> <BCUT_PEOE_3>
2.8517125

> <BCUT_SLOGP_0>
-2.9443665

> <BCUT_SLOGP_1>
-0.53351599

> <BCUT_SLOGP_2>
0.61530745

> <BCUT_SLOGP_3>
2.9129362

> <BCUT_SMR_0>
-2.6450782

> <BCUT_SMR_1>
-0.3748619

> <BCUT_SMR_2>
0.69440514

> <BCUT_SMR_3>
3.1071103

> <bpol>
63.11235

> <b_1rotN>
12

> <b_1rotR>
0.2264151

> <b_ar>
17

> <b_count>
103

> <b_double>
4

> <b_heavy>
53

> <b_max1len>
5

> <b_rotN>
16

> <b_rotR>
0.3018868

> <b_single>
82

> <b_triple>
0

> <chi0>
35.130817

> <chi0v>
28.7309

> <chi0v_C>
23.678915

> <chi0_C>
25.725039

> <chi1>
23.357195

> <chi1v>
17.394417

> <chi1v_C>
13.115828

> <chi1_C>
15.531973

> <chiral>
6

> <chiral_u>
0

> <density>
0.71707976

> <diameter>
19

> <FCharge>
0

> <GCUT_PEOE_0>
-0.84349316

> <GCUT_PEOE_1>
-0.39911753

> <GCUT_PEOE_2>
0.063834496

> <GCUT_PEOE_3>
3.2362459

> <GCUT_SLOGP_0>
-1.3705666

> <GCUT_SLOGP_1>
-0.34899345

> <GCUT_SLOGP_2>
0.12826544

> <GCUT_SLOGP_3>
3.2201207

> <GCUT_SMR_0>
-0.53235161

> <GCUT_SMR_1>
-0.21539177

> <GCUT_SMR_2>
0.1709206

> <GCUT_SMR_3>
3.4677958

> <Kier1>
40.190815

> <Kier2>
18.850134

> <Kier3>
12.0

> <KierA1>
31.014595

> <KierA2>
14.463289

> <KierA3>
9.1701326

> <KierFlex>
9.1545525

> <lip_acc>
11

> <lip_don>
6

> <lip_druglike>
0

> <lip_violation>
3

> <logP(o/w)>
3.3139999

> <logS>
-7.68398

> <mr>
18.963694

> <mutagenic>
0

> <nmol>
1

> <opr_brigid>
28

> <opr_leadlike>
0

> <opr_nring>
5

> <opr_nrot>
15

> <opr_violation>
5

> <PC+>
0

> <PC->
0

> <PEOE_PC+>
4.466989

> <PEOE_PC->
-4.466989

> <PEOE_RPC+>
0.060662445

> <PEOE_RPC->
0.086967021

> <PEOE_VSA+0>
152.28938

> <PEOE_VSA+1>
90.578506

> <PEOE_VSA+2>
9.8455114

> <PEOE_VSA+3>
43.095066

> <PEOE_VSA+4>
49.172764

> <PEOE_VSA+5>
12.949531

> <PEOE_VSA+6>
0.0

> <PEOE_VSA-0>
117.76663

> <PEOE_VSA-1>
127.69676

> <PEOE_VSA-2>
0.0

> <PEOE_VSA-3>
0.0

> <PEOE_VSA-4>
5.6825762

> <PEOE_VSA-5>
54.267685

> <PEOE_VSA-6>
14.829332

> <PEOE_VSA_FHYD>
0.79813153

> <PEOE_VSA_FNEG>
0.47221377

> <PEOE_VSA_FPNEG>
0.11026613

> <PEOE_VSA_FPOL>
0.20186846

> <PEOE_VSA_FPOS>
0.5277862

> <PEOE_VSA_FPPOS>
0.091602333

> <PEOE_VSA_HYD>
541.27185

> <PEOE_VSA_NEG>
320.24298

> <PEOE_VSA_PNEG>
74.779594

> <PEOE_VSA_POL>
136.90189

> <PEOE_VSA_POS>
357.93076

> <PEOE_VSA_PPOS>
62.122295

> <petitjean>
0.47368422

> <petitjeanSC>
0.89999998

> <Q_PC+>
0

> <Q_PC->
0

> <Q_RPC+>
0

> <Q_RPC->
0

> <Q_VSA_FHYD>
1

> <Q_VSA_FNEG>
0

> <Q_VSA_FPNEG>
0

> <Q_VSA_FPOL>
0

> <Q_VSA_FPOS>
1

> <Q_VSA_FPPOS>
0

> <Q_VSA_HYD>
678.17377

> <Q_VSA_NEG>
0

> <Q_VSA_PNEG>
0

> <Q_VSA_POL>
0

> <Q_VSA_POS>
678.17377

> <Q_VSA_PPOS>
0

> <radius>
10

> <reactive>
0

> <rings>
5

> <RPC+>
0

> <RPC->
0

> <rsynth>
1.0

> <SlogP>
3.09237

> <SlogP_VSA0>
112.31467

> <SlogP_VSA1>
40.944977

> <SlogP_VSA2>
90.001205

> <SlogP_VSA3>
36.879158

> <SlogP_VSA4>
38.626129

> <SlogP_VSA5>
18.868406

> <SlogP_VSA6>
0.0

> <SlogP_VSA7>
198.79213

> <SlogP_VSA8>
113.21043

> <SlogP_VSA9>
99.978043

> <SMR>
18.821381

> <SMR_VSA0>
95.448868

> <SMR_VSA1>
45.295071

> <SMR_VSA2>
62.853844

> <SMR_VSA3>
24.356878

> <SMR_VSA4>
37.614288

> <SMR_VSA5>
326.15387

> <SMR_VSA6>
57.914291

> <SMR_VSA7>
99.978043

> <TPSA>
166.75

> <VAdjEq>
0.26099879

> <VAdjMa>
6.7279205

> <VDistEq>
4.0437107

> <VDistMa>
10.981407

> <vdw_area>
678.17377

> <vdw_vol>
935.53748

> <vsa_acc>
59.95026

> <vsa_acid>
0

> <vsa_base>
0

> <vsa_don>
34.790218

> <vsa_hyd>
464.16769

> <vsa_other>
51.798122

> <vsa_pol>
108.3074

> <Weight>
670.85498

> <weinerPath>
9512

> <weinerPol>
77

> <zagreb>
256

$$$$
Row1722
 OpenBabel06061811532D

 19 20  0  0  1  0  0  0  0  0999 V2000
    0.0000    0.0000    0.0000 Cl  0  0  0  0  0  0  0  0  0  0  0  0
    0.0000    0.0000    0.0000 C   0  0  0  0  0  0  0  0  0  0  0  0
    0.0000    0.0000    0.0000 C   0  0  0  0  0  0  0  0  0  0  0  0
    0.0000    0.0000    0.0000 C   0  0  0  0  0  0  0  0  0  0  0  0
    0.0000    0.0000    0.0000 C   0  0  0  0  0  0  0  0  0  0  0  0
    0.0000    0.0000    0.0000 C   0  0  0  0  0  0  0  0  0  0  0  0
    0.0000    0.0000    0.0000 C   0  0  0  0  0  0  0  0  0  0  0  0
    0.0000    0.0000    0.0000 C   0  0  0  0  0  0  0  0  0  0  0  0
    0.0000    0.0000    0.0000 C   0  0  0  0  0  0  0  0  0  0  0  0
    0.0000    0.0000    0.0000 C   0  0  0  0  0  0  0  0  0  0  0  0
    0.0000    0.0000    0.0000 C   0  0  0  0  0  0  0  0  0  0  0  0
    0.0000    0.0000    0.0000 C   0  0  3  0  0  0  0  0  0  0  0  0
    0.0000    0.0000    0.0000 N   0  0  0  0  0  0  0  0  0  0  0  0
    0.0000    0.0000    0.0000 C   0  0  0  0  0  0  0  0  0  0  0  0
    0.0000    0.0000    0.0000 C   0  0  0  0  0  0  0  0  0  0  0  0
    0.0000    0.0000    0.0000 C   0  0  0  0  0  0  0  0  0  0  0  0
    0.0000    0.0000    0.0000 C   0  0  0  0  0  0  0  0  0  0  0  0
    0.0000    0.0000    0.0000 C   0  0  0  0  0  0  0  0  0  0  0  0
    0.0000    0.0000    0.0000 C   0  0  0  0  0  0  0  0  0  0  0  0
  1  2  1  0  0  0  0
  2  7  1  0  0  0  0
  2  3  2  0  0  0  0
  3  4  1  0  0  0  0
  4  5  2  0  0  0  0
  5  6  1  0  0  0  0
  5  8  1  0  0  0  0
  6  7  2  0  0  0  0
  8 11  1  0  0  0  0
  8  9  1  0  0  0  0
  8 12  1  0  0  0  0
  9 10  1  0  0  0  0
 10 11  1  0  0  0  0
 12 13  1  0  0  0  0
 12 16  1  0  0  0  0
 13 14  1  0  0  0  0
 13 15  1  0  0  0  0
 16 17  1  0  0  0  0
 17 18  1  0  0  0  0
 17 19  1  0  0  0  0
M  END
> <Index>
1723

> <ID>
HT1884

> <class>
1

> <apol>
50.536617

> <ast_fraglike>
0

> <ast_fraglike_ext>
0

> <ast_violation>
1

> <ast_violation_ext>
2

> <a_acc>
1

> <a_acid>
0

> <a_aro>
6

> <a_base>
0

> <a_count>
45

> <a_don>
0

> <a_donacc>
1

> <a_heavy>
19

> <a_hyd>
18

> <a_IC>
55.435089

> <a_ICM>
1.2318908

> <a_nB>
0

> <a_nBr>
0

> <a_nC>
17

> <a_nCl>
1

> <a_nF>
0

> <a_nH>
26

> <a_nI>
0

> <a_nN>
1

> <a_nO>
0

> <a_nP>
0

> <a_nS>
0

> <balabanJ>
2.1088128

> <BCUT_PEOE_0>
-2.8882565

> <BCUT_PEOE_1>
-0.42196965

> <BCUT_PEOE_2>
0.43891165

> <BCUT_PEOE_3>
2.8368025

> <BCUT_SLOGP_0>
-2.8653493

> <BCUT_SLOGP_1>
-0.25219807

> <BCUT_SLOGP_2>
0.54129553

> <BCUT_SLOGP_3>
2.9059484

> <BCUT_SMR_0>
-2.6245706

> <BCUT_SMR_1>
-0.20217025

> <BCUT_SMR_2>
0.61403406

> <BCUT_SMR_3>
3.1000469

> <bpol>
30.823381

> <b_1rotN>
5

> <b_1rotR>
0.25

> <b_ar>
6

> <b_count>
46

> <b_double>
0

> <b_heavy>
20

> <b_max1len>
7

> <b_rotN>
5

> <b_rotR>
0.25

> <b_single>
40

> <b_triple>
0

> <chi0>
14.043606

> <chi0v>
13.373635

> <chi0v_C>
11.792529

> <chi0_C>
12.466255

> <chi1>
8.9540319

> <chi1v>
7.7579188

> <chi1v_C>
6.0383463

> <chi1_C>
6.8886476

> <chiral>
1

> <chiral_u>
1

> <density>
0.67022526

> <diameter>
9

> <FCharge>
0

> <GCUT_PEOE_0>
-0.86000216

> <GCUT_PEOE_1>
-0.3576664

> <GCUT_PEOE_2>
-0.048475984

> <GCUT_PEOE_3>
2.8871276

> <GCUT_SLOGP_0>
-0.95604146

> <GCUT_SLOGP_1>
-0.2345264

> <GCUT_SLOGP_2>
0.04764973

> <GCUT_SLOGP_3>
2.9652066

> <GCUT_SMR_0>
-0.58233452

> <GCUT_SMR_1>
-0.10906976

> <GCUT_SMR_2>
0.10349238

> <GCUT_SMR_3>
3.1335404

> <Kier1>
15.39

> <Kier2>
6.1854935

> <Kier3>
3.1911356

> <KierA1>
14.587584

> <KierA2>
5.844707

> <KierA3>
3.0080004

> <KierFlex>
4.4873762

> <lip_acc>
1

> <lip_don>
0

> <lip_druglike>
1

> <lip_violation>
0

> <logP(o/w)>
5.1849999

> <logS>
-4.4282298

> <mr>
8.3470612

> <mutagenic>
0

> <nmol>
1

> <opr_brigid>
10

> <opr_leadlike>
1

> <opr_nring>
2

> <opr_nrot>
5

> <opr_violation>
1

> <PC+>
0

> <PC->
0

> <PEOE_PC+>
0.99252254

> <PEOE_PC->
-0.99252254

> <PEOE_RPC+>
0.06369146

> <PEOE_RPC->
0.30686095

> <PEOE_VSA+0>
101.5042

> <PEOE_VSA+1>
17.061544

> <PEOE_VSA+2>
0.0

> <PEOE_VSA+3>
0.0

> <PEOE_VSA+4>
0.0

> <PEOE_VSA+5>
0.0

> <PEOE_VSA+6>
0.0

> <PEOE_VSA-0>
99.299667

> <PEOE_VSA-1>
100.28842

> <PEOE_VSA-2>
0.0

> <PEOE_VSA-3>
0.0

> <PEOE_VSA-4>
0.0

> <PEOE_VSA-5>
0.0

> <PEOE_VSA-6>
0.0

> <PEOE_VSA_FHYD>
1.0

> <PEOE_VSA_FNEG>
0.62733203

> <PEOE_VSA_FPNEG>
0.0

> <PEOE_VSA_FPOL>
0.0

> <PEOE_VSA_FPOS>
0.37266797

> <PEOE_VSA_FPPOS>
0.0

> <PEOE_VSA_HYD>
318.15384

> <PEOE_VSA_NEG>
199.58809

> <PEOE_VSA_PNEG>
0.0

> <PEOE_VSA_POL>
0.0

> <PEOE_VSA_POS>
118.56574

> <PEOE_VSA_PPOS>
0.0

> <petitjean>
0.44444445

> <petitjeanSC>
0.80000001

> <Q_PC+>
0

> <Q_PC->
0

> <Q_RPC+>
0

> <Q_RPC->
0

> <Q_VSA_FHYD>
1

> <Q_VSA_FNEG>
0

> <Q_VSA_FPNEG>
0

> <Q_VSA_FPOL>
0

> <Q_VSA_FPOS>
1

> <Q_VSA_FPPOS>
0

> <Q_VSA_HYD>
318.15384

> <Q_VSA_NEG>
0

> <Q_VSA_PNEG>
0

> <Q_VSA_POL>
0

> <Q_VSA_POS>
318.15384

> <Q_VSA_PPOS>
0

> <radius>
5

> <reactive>
0

> <rings>
2

> <RPC+>
0

> <RPC->
0

> <rsynth>
0.0

> <SlogP>
4.7379999

> <SlogP_VSA0>
0.0

> <SlogP_VSA1>
3.1243138

> <SlogP_VSA2>
3.9819686

> <SlogP_VSA3>
0.0

> <SlogP_VSA4>
7.5963712

> <SlogP_VSA5>
65.794373

> <SlogP_VSA6>
3.5006065

> <SlogP_VSA7>
70.572739

> <SlogP_VSA8>
75.473625

> <SlogP_VSA9>
105.80067

> <SMR>
8.3910999

> <SMR_VSA0>
0.0

> <SMR_VSA1>
3.1243138

> <SMR_VSA2>
4.4107962

> <SMR_VSA3>
10.66815

> <SMR_VSA4>
0.0

> <SMR_VSA5>
146.04636

> <SMR_VSA6>
0.0

> <SMR_VSA7>
171.59505

> <TPSA>
3.24

> <VAdjEq>
0.5023343

> <VAdjMa>
5.321928

> <VDistEq>
2.9029338

> <VDistMa>
8.2332516

> <vdw_area>
318.15384

> <vdw_vol>
417.55365

> <vsa_acc>
0.0

> <vsa_acid>
0

> <vsa_base>
0

> <vsa_don>
0.0

> <vsa_hyd>
298.30209

> <vsa_other>
0.0

> <vsa_pol>
0.0

> <Weight>
279.85498

> <weinerPath>
666

> <weinerPol>
29

> <zagreb>
98

$$$$
Row1723
 OpenBabel06061811532D

 37 39  0  0  1  0  0  0  0  0999 V2000
    0.0000    0.0000    0.0000 O   0  0  0  0  0  0  0  0  0  0  0  0
    0.0000    0.0000    0.0000 C   0  0  1  0  0  0  0  0  0  0  0  0
    0.0000    0.0000    0.0000 H   0  0  0  0  0  0  0  0  0  0  0  0
    0.0000    0.0000    0.0000 C   0  0  0  0  0  0  0  0  0  0  0  0
    0.0000    0.0000    0.0000 C   0  0  1  0  0  0  0  0  0  0  0  0
    0.0000    0.0000    0.0000 H   0  0  0  0  0  0  0  0  0  0  0  0
    0.0000    0.0000    0.0000 O   0  0  0  0  0  0  0  0  0  0  0  0
    0.0000    0.0000    0.0000 C   0  0  0  0  0  0  0  0  0  0  0  0
    0.0000    0.0000    0.0000 C   0  0  0  0  0  0  0  0  0  0  0  0
    0.0000    0.0000    0.0000 O   0  0  0  0  0  0  0  0  0  0  0  0
    0.0000    0.0000    0.0000 C   0  0  0  0  0  0  0  0  0  0  0  0
    0.0000    0.0000    0.0000 C   0  0  0  0  0  0  0  0  0  0  0  0
    0.0000    0.0000    0.0000 C   0  0  2  0  0  0  0  0  0  0  0  0
    0.0000    0.0000    0.0000 H   0  0  0  0  0  0  0  0  0  0  0  0
    0.0000    0.0000    0.0000 C   0  0  2  0  0  0  0  0  0  0  0  0
    0.0000    0.0000    0.0000 H   0  0  0  0  0  0  0  0  0  0  0  0
    0.0000    0.0000    0.0000 C   0  0  0  0  0  0  0  0  0  0  0  0
    0.0000    0.0000    0.0000 C   0  0  0  0  0  0  0  0  0  0  0  0
    0.0000    0.0000    0.0000 C   0  0  1  0  0  0  0  0  0  0  0  0
    0.0000    0.0000    0.0000 H   0  0  0  0  0  0  0  0  0  0  0  0
    0.0000    0.0000    0.0000 C   0  0  0  0  0  0  0  0  0  0  0  0
    0.0000    0.0000    0.0000 C   0  0  2  0  0  0  0  0  0  0  0  0
    0.0000    0.0000    0.0000 H   0  0  0  0  0  0  0  0  0  0  0  0
    0.0000    0.0000    0.0000 O   0  0  0  0  0  0  0  0  0  0  0  0
    0.0000    0.0000    0.0000 C   0  0  0  0  0  0  0  0  0  0  0  0
    0.0000    0.0000    0.0000 O   0  0  0  0  0  0  0  0  0  0  0  0
    0.0000    0.0000    0.0000 C   0  0  0  0  0  0  0  0  0  0  0  0
    0.0000    0.0000    0.0000 C   0  0  0  0  0  0  0  0  0  0  0  0
    0.0000    0.0000    0.0000 C   0  0  0  0  0  0  0  0  0  0  0  0
    0.0000    0.0000    0.0000 C   0  0  0  0  0  0  0  0  0  0  0  0
    0.0000    0.0000    0.0000 C   0  0  0  0  0  0  0  0  0  0  0  0
    0.0000    0.0000    0.0000 C   0  0  0  0  0  0  0  0  0  0  0  0
    0.0000    0.0000    0.0000 C   0  0  0  0  0  0  0  0  0  0  0  0
    0.0000    0.0000    0.0000 C   0  0  0  0  0  0  0  0  0  0  0  0
    0.0000    0.0000    0.0000 C   0  0  2  0  0  0  0  0  0  0  0  0
    0.0000    0.0000    0.0000 H   0  0  0  0  0  0  0  0  0  0  0  0
    0.0000    0.0000    0.0000 C   0  0  0  0  0  0  0  0  0  0  0  0
  1  9  1  0  0  0  0
  1  2  1  0  0  0  0
  2  3  1  0  0  0  0
  2  4  1  0  0  0  0
  2 11  1  0  0  0  0
  4  5  1  0  0  0  0
  5  6  1  0  0  0  0
  5  7  1  0  0  0  0
  5  8  1  0  0  0  0
  8  9  1  0  0  0  0
  9 10  2  0  0  0  0
 11 12  1  0  0  0  0
 12 13  1  0  0  0  0
 13 14  1  0  0  0  0
 13 35  1  0  0  0  0
 13 15  1  0  0  0  0
 15 16  1  0  0  0  0
 15 22  1  0  0  0  0
 15 17  1  0  0  0  0
 17 18  2  0  0  0  0
 17 33  1  0  0  0  0
 18 19  1  0  0  0  0
 19 20  1  0  0  0  0
 19 21  1  0  0  0  0
 19 32  1  0  0  0  0
 21 22  1  0  0  0  0
 22 23  1  0  0  0  0
 22 24  1  0  0  0  0
 24 25  1  0  0  0  0
 25 26  2  0  0  0  0
 25 27  1  0  0  0  0
 27 28  1  0  0  0  0
 27 30  1  0  0  0  0
 27 31  1  0  0  0  0
 28 29  1  0  0  0  0
 33 34  2  0  0  0  0
 34 35  1  0  0  0  0
 35 36  1  0  0  0  0
 35 37  1  0  0  0  0
M  END
> <Index>
1724

> <ID>
HT1889

> <class>
1

> <apol>
73.348137

> <ast_fraglike>
0

> <ast_fraglike_ext>
0

> <ast_violation>
2

> <ast_violation_ext>
3

> <a_acc>
3

> <a_acid>
0

> <a_aro>
0

> <a_base>
0

> <a_count>
68

> <a_don>
1

> <a_donacc>
4

> <a_heavy>
30

> <a_hyd>
23

> <a_IC>
86.820183

> <a_ICM>
1.2767674

> <a_nB>
0

> <a_nBr>
0

> <a_nC>
25

> <a_nCl>
0

> <a_nF>
0

> <a_nH>
38

> <a_nI>
0

> <a_nN>
0

> <a_nO>
5

> <a_nP>
0

> <a_nS>
0

> <balabanJ>
1.7068959

> <BCUT_PEOE_0>
-2.8238933

> <BCUT_PEOE_1>
-0.46233815

> <BCUT_PEOE_2>
0.54714477

> <BCUT_PEOE_3>
2.8053854

> <BCUT_SLOGP_0>
-2.7887516

> <BCUT_SLOGP_1>
-0.41763112

> <BCUT_SLOGP_2>
0.5361324

> <BCUT_SLOGP_3>
2.8572726

> <BCUT_SMR_0>
-2.5752842

> <BCUT_SMR_1>
-0.37008491

> <BCUT_SMR_2>
0.63818198

> <BCUT_SMR_3>
3.0542758

> <bpol>
47.289867

> <b_1rotN>
6

> <b_1rotR>
0.1875

> <b_ar>
0

> <b_count>
70

> <b_double>
4

> <b_heavy>
32

> <b_max1len>
5

> <b_rotN>
7

> <b_rotR>
0.21875

> <b_single>
66

> <b_triple>
0

> <chi0>
22.051678

> <chi0v>
19.09635

> <chi0v_C>
17.016144

> <chi0_C>
17.637465

> <chi1>
14.101393

> <chi1v>
11.588778

> <chi1v_C>
10.042678

> <chi1_C>
10.736349

> <chiral>
7

> <chiral_u>
0

> <density>
0.6937654

> <diameter>
13

> <FCharge>
0

> <GCUT_PEOE_0>
-0.7955026

> <GCUT_PEOE_1>
-0.33322459

> <GCUT_PEOE_2>
0.039567653

> <GCUT_PEOE_3>
3.135808

> <GCUT_SLOGP_0>
-0.87573683

> <GCUT_SLOGP_1>
-0.27061674

> <GCUT_SLOGP_2>
0.052338317

> <GCUT_SLOGP_3>
3.1980629

> <GCUT_SMR_0>
-0.53543341

> <GCUT_SMR_1>
-0.20116997

> <GCUT_SMR_2>
0.13809083

> <GCUT_SMR_3>
3.3634071

> <Kier1>
24.638672

> <Kier2>
10.29244

> <Kier3>
6.0810113

> <KierA1>
21.922131

> <KierA2>
9.1191759

> <KierA3>
5.3717871

> <KierFlex>
6.6637254

> <lip_acc>
5

> <lip_don>
1

> <lip_druglike>
1

> <lip_violation>
0

> <logP(o/w)>
4.4200001

> <logS>
-4.4295201

> <mr>
11.688961

> <mutagenic>
0

> <nmol>
1

> <opr_brigid>
17

> <opr_leadlike>
1

> <opr_nring>
3

> <opr_nrot>
7

> <opr_violation>
1

> <PC+>
0

> <PC->
0

> <PEOE_PC+>
2.2961459

> <PEOE_PC->
-2.2961459

> <PEOE_RPC+>
0.11676531

> <PEOE_RPC->
0.17037265

> <PEOE_VSA+0>
140.92828

> <PEOE_VSA+1>
49.008415

> <PEOE_VSA+2>
0.0

> <PEOE_VSA+3>
0.0

> <PEOE_VSA+4>
10.324173

> <PEOE_VSA+5>
29.416998

> <PEOE_VSA+6>
0.0

> <PEOE_VSA-0>
37.013794

> <PEOE_VSA-1>
130.5031

> <PEOE_VSA-2>
0.0

> <PEOE_VSA-3>
0.0

> <PEOE_VSA-4>
0.0

> <PEOE_VSA-5>
27.133842

> <PEOE_VSA-6>
12.775052

> <PEOE_VSA_FHYD>
0.81777763

> <PEOE_VSA_FNEG>
0.47454599

> <PEOE_VSA_FPNEG>
0.091303043

> <PEOE_VSA_FPOL>
0.18222238

> <PEOE_VSA_FPOS>
0.52545398

> <PEOE_VSA_FPPOS>
0.090919331

> <PEOE_VSA_HYD>
357.45358

> <PEOE_VSA_NEG>
207.42578

> <PEOE_VSA_PNEG>
39.908894

> <PEOE_VSA_POL>
79.650063

> <PEOE_VSA_POS>
229.67787

> <PEOE_VSA_PPOS>
39.741173

> <petitjean>
0.46153846

> <petitjeanSC>
0.85714287

> <Q_PC+>
0

> <Q_PC->
0

> <Q_RPC+>
0

> <Q_RPC->
0

> <Q_VSA_FHYD>
1

> <Q_VSA_FNEG>
0

> <Q_VSA_FPNEG>
0

> <Q_VSA_FPOL>
0

> <Q_VSA_FPOS>
1

> <Q_VSA_FPPOS>
0

> <Q_VSA_HYD>
437.10364

> <Q_VSA_NEG>
0

> <Q_VSA_PNEG>
0

> <Q_VSA_POL>
0

> <Q_VSA_POS>
437.10364

> <Q_VSA_PPOS>
0

> <radius>
7

> <reactive>
1

> <rings>
3

> <RPC+>
0

> <RPC->
0

> <rsynth>
1.0

> <SlogP>
4.5855999

> <SlogP_VSA0>
25.385227

> <SlogP_VSA1>
15.490929

> <SlogP_VSA2>
89.130157

> <SlogP_VSA3>
0.0

> <SlogP_VSA4>
17.643185

> <SlogP_VSA5>
3.185575

> <SlogP_VSA6>
0.0

> <SlogP_VSA7>
52.929554

> <SlogP_VSA8>
113.21043

> <SlogP_VSA9>
166.63008

> <SMR>
11.54548

> <SMR_VSA0>
69.724205

> <SMR_VSA1>
25.385227

> <SMR_VSA2>
17.643185

> <SMR_VSA3>
22.591522

> <SMR_VSA4>
0.0

> <SMR_VSA5>
166.13998

> <SMR_VSA6>
15.490929

> <SMR_VSA7>
166.63008

> <TPSA>
72.830002

> <VAdjEq>
0.37005648

> <VAdjMa>
6.0

> <VDistEq>
3.5049002

> <VDistMa>
9.5475283

> <vdw_area>
437.10364

> <vdw_vol>
603.33649

> <vsa_acc>
27.133842

> <vsa_acid>
0

> <vsa_base>
0

> <vsa_don>
0.0

> <vsa_hyd>
325.73697

> <vsa_other>
34.424511

> <vsa_pol>
40.700764

> <Weight>
418.57401

> <weinerPath>
2440

> <weinerPol>
50

> <zagreb>
158

$$$$
Row1724
 OpenBabel06061811532D

 74 77  0  0  1  0  0  0  0  0999 V2000
    0.0000    0.0000    0.0000 O   0  0  0  0  0  0  0  0  0  0  0  0
    0.0000    0.0000    0.0000 C   0  0  3  0  0  0  0  0  0  0  0  0
    0.0000    0.0000    0.0000 C   0  0  0  0  0  0  0  0  0  0  0  0
    0.0000    0.0000    0.0000 C   0  0  0  0  0  0  0  0  0  0  0  0
    0.0000    0.0000    0.0000 C   0  0  0  0  0  0  0  0  0  0  0  0
    0.0000    0.0000    0.0000 C   0  0  0  0  0  0  0  0  0  0  0  0
    0.0000    0.0000    0.0000 C   0  0  0  0  0  0  0  0  0  0  0  0
    0.0000    0.0000    0.0000 C   0  0  2  0  0  0  0  0  0  0  0  0
    0.0000    0.0000    0.0000 H   0  0  0  0  0  0  0  0  0  0  0  0
    0.0000    0.0000    0.0000 O   0  0  0  0  0  0  0  0  0  0  0  0
    0.0000    0.0000    0.0000 C   0  0  2  0  0  0  0  0  0  0  0  0
    0.0000    0.0000    0.0000 H   0  0  0  0  0  0  0  0  0  0  0  0
    0.0000    0.0000    0.0000 O   0  0  0  0  0  0  0  0  0  0  0  0
    0.0000    0.0000    0.0000 C   0  0  1  0  0  0  0  0  0  0  0  0
    0.0000    0.0000    0.0000 H   0  0  0  0  0  0  0  0  0  0  0  0
    0.0000    0.0000    0.0000 C   0  0  0  0  0  0  0  0  0  0  0  0
    0.0000    0.0000    0.0000 C   0  0  1  0  0  0  0  0  0  0  0  0
    0.0000    0.0000    0.0000 H   0  0  0  0  0  0  0  0  0  0  0  0
    0.0000    0.0000    0.0000 N   0  0  0  0  0  0  0  0  0  0  0  0
    0.0000    0.0000    0.0000 C   0  0  0  0  0  0  0  0  0  0  0  0
    0.0000    0.0000    0.0000 C   0  0  0  0  0  0  0  0  0  0  0  0
    0.0000    0.0000    0.0000 C   0  0  0  0  0  0  0  0  0  0  0  0
    0.0000    0.0000    0.0000 C   0  0  0  0  0  0  0  0  0  0  0  0
    0.0000    0.0000    0.0000 C   0  0  1  0  0  0  0  0  0  0  0  0
    0.0000    0.0000    0.0000 H   0  0  0  0  0  0  0  0  0  0  0  0
    0.0000    0.0000    0.0000 C   0  0  0  0  0  0  0  0  0  0  0  0
    0.0000    0.0000    0.0000 C   0  0  2  0  0  0  0  0  0  0  0  0
    0.0000    0.0000    0.0000 H   0  0  0  0  0  0  0  0  0  0  0  0
    0.0000    0.0000    0.0000 C   0  0  0  0  0  0  0  0  0  0  0  0
    0.0000    0.0000    0.0000 C   0  0  0  0  0  0  0  0  0  0  0  0
    0.0000    0.0000    0.0000 O   0  0  0  0  0  0  0  0  0  0  0  0
    0.0000    0.0000    0.0000 C   0  0  2  0  0  0  0  0  0  0  0  0
    0.0000    0.0000    0.0000 H   0  0  0  0  0  0  0  0  0  0  0  0
    0.0000    0.0000    0.0000 O   0  0  0  0  0  0  0  0  0  0  0  0
    0.0000    0.0000    0.0000 C   0  0  2  0  0  0  0  0  0  0  0  0
    0.0000    0.0000    0.0000 H   0  0  0  0  0  0  0  0  0  0  0  0
    0.0000    0.0000    0.0000 O   0  0  0  0  0  0  0  0  0  0  0  0
    0.0000    0.0000    0.0000 C   0  0  2  0  0  0  0  0  0  0  0  0
    0.0000    0.0000    0.0000 H   0  0  0  0  0  0  0  0  0  0  0  0
    0.0000    0.0000    0.0000 C   0  0  0  0  0  0  0  0  0  0  0  0
    0.0000    0.0000    0.0000 C   0  0  1  0  0  0  0  0  0  0  0  0
    0.0000    0.0000    0.0000 H   0  0  0  0  0  0  0  0  0  0  0  0
    0.0000    0.0000    0.0000 O   0  0  0  0  0  0  0  0  0  0  0  0
    0.0000    0.0000    0.0000 C   0  0  1  0  0  0  0  0  0  0  0  0
    0.0000    0.0000    0.0000 H   0  0  0  0  0  0  0  0  0  0  0  0
    0.0000    0.0000    0.0000 O   0  0  0  0  0  0  0  0  0  0  0  0
    0.0000    0.0000    0.0000 C   0  0  2  0  0  0  0  0  0  0  0  0
    0.0000    0.0000    0.0000 H   0  0  0  0  0  0  0  0  0  0  0  0
    0.0000    0.0000    0.0000 C   0  0  0  0  0  0  0  0  0  0  0  0
    0.0000    0.0000    0.0000 C   0  0  1  0  0  0  0  0  0  0  0  0
    0.0000    0.0000    0.0000 H   0  0  0  0  0  0  0  0  0  0  0  0
    0.0000    0.0000    0.0000 O   0  0  0  0  0  0  0  0  0  0  0  0
    0.0000    0.0000    0.0000 C   0  0  1  0  0  0  0  0  0  0  0  0
    0.0000    0.0000    0.0000 O   0  0  0  0  0  0  0  0  0  0  0  0
    0.0000    0.0000    0.0000 C   0  0  0  0  0  0  0  0  0  0  0  0
    0.0000    0.0000    0.0000 C   0  0  0  0  0  0  0  0  0  0  0  0
    0.0000    0.0000    0.0000 C   0  0  2  0  0  0  0  0  0  0  0  0
    0.0000    0.0000    0.0000 H   0  0  0  0  0  0  0  0  0  0  0  0
    0.0000    0.0000    0.0000 N   0  0  0  0  0  0  0  0  0  0  0  0
    0.0000    0.0000    0.0000 C   0  0  0  0  0  0  0  0  0  0  0  0
    0.0000    0.0000    0.0000 C   0  0  0  0  0  0  0  0  0  0  0  0
    0.0000    0.0000    0.0000 C   0  0  1  0  0  0  0  0  0  0  0  0
    0.0000    0.0000    0.0000 H   0  0  0  0  0  0  0  0  0  0  0  0
    0.0000    0.0000    0.0000 O   0  0  0  0  0  0  0  0  0  0  0  0
    0.0000    0.0000    0.0000 C   0  0  3  0  0  0  0  0  0  0  0  0
    0.0000    0.0000    0.0000 O   0  0  0  0  0  0  0  0  0  0  0  0
    0.0000    0.0000    0.0000 C   0  0  0  0  0  0  0  0  0  0  0  0
    0.0000    0.0000    0.0000 C   0  0  3  0  0  0  0  0  0  0  0  0
    0.0000    0.0000    0.0000 O   0  0  0  0  0  0  0  0  0  0  0  0
    0.0000    0.0000    0.0000 C   0  0  0  0  0  0  0  0  0  0  0  0
    0.0000    0.0000    0.0000 C   0  0  0  0  0  0  0  0  0  0  0  0
    0.0000    0.0000    0.0000 O   0  0  0  0  0  0  0  0  0  0  0  0
    0.0000    0.0000    0.0000 C   0  0  0  0  0  0  0  0  0  0  0  0
    0.0000    0.0000    0.0000 C   0  0  0  0  0  0  0  0  0  0  0  0
  1 71  1  0  0  0  0
  1  2  1  0  0  0  0
  2  3  1  0  0  0  0
  2 74  1  0  0  0  0
  3  4  1  0  0  0  0
  4  5  2  3  0  0  0
  5  6  1  0  0  0  0
  6  7  2  3  0  0  0
  7  8  1  0  0  0  0
  8  9  1  0  0  0  0
  8 10  1  0  0  0  0
  8 24  1  0  0  0  0
 10 11  1  0  0  0  0
 11 12  1  0  0  0  0
 11 23  1  0  0  0  0
 11 13  1  0  0  0  0
 13 14  1  0  0  0  0
 14 15  1  0  0  0  0
 14 16  1  0  0  0  0
 14 17  1  0  0  0  0
 17 18  1  0  0  0  0
 17 19  1  0  0  0  0
 17 22  1  0  0  0  0
 19 20  1  0  0  0  0
 19 21  1  0  0  0  0
 22 23  1  0  0  0  0
 24 25  1  0  0  0  0
 24 26  1  0  0  0  0
 24 73  1  0  0  0  0
 26 27  1  0  0  0  0
 27 28  1  0  0  0  0
 27 29  1  0  0  0  0
 27 32  1  0  0  0  0
 29 30  1  0  0  0  0
 30 31  2  0  0  0  0
 32 33  1  0  0  0  0
 32 34  1  0  0  0  0
 32 65  1  0  0  0  0
 34 35  1  0  0  0  0
 35 36  1  0  0  0  0
 35 62  1  0  0  0  0
 35 37  1  0  0  0  0
 37 38  1  0  0  0  0
 38 39  1  0  0  0  0
 38 40  1  0  0  0  0
 38 41  1  0  0  0  0
 41 42  1  0  0  0  0
 41 43  1  0  0  0  0
 41 57  1  0  0  0  0
 43 44  1  0  0  0  0
 44 45  1  0  0  0  0
 44 55  1  0  0  0  0
 44 46  1  0  0  0  0
 46 47  1  0  0  0  0
 47 48  1  0  0  0  0
 47 49  1  0  0  0  0
 47 50  1  0  0  0  0
 50 51  1  0  0  0  0
 50 52  1  0  0  0  0
 50 53  1  0  0  0  0
 53 54  1  0  0  0  0
 53 55  1  0  0  0  0
 53 56  1  0  0  0  0
 57 58  1  0  0  0  0
 57 59  1  0  0  0  0
 57 62  1  0  0  0  0
 59 60  1  0  0  0  0
 59 61  1  0  0  0  0
 62 63  1  0  0  0  0
 62 64  1  0  0  0  0
 65 66  1  0  0  0  0
 65 68  1  0  0  0  0
 66 67  1  0  0  0  0
 68 69  1  0  0  0  0
 68 70  1  0  0  0  0
 70 71  1  0  0  0  0
 71 72  2  0  0  0  0
M  END
> <Index>
1725

> <ID>
HT1911

> <class>
1

> <apol>
138.45068

> <ast_fraglike>
0

> <ast_fraglike_ext>
0

> <ast_violation>
3

> <ast_violation_ext>
5

> <a_acc>
15

> <a_acid>
0

> <a_aro>
0

> <a_base>
0

> <a_count>
133

> <a_don>
4

> <a_donacc>
19

> <a_heavy>
59

> <a_hyd>
38

> <a_IC>
190.22066

> <a_ICM>
1.4302305

> <a_nB>
0

> <a_nBr>
0

> <a_nC>
43

> <a_nCl>
0

> <a_nF>
0

> <a_nH>
74

> <a_nI>
0

> <a_nN>
2

> <a_nO>
14

> <a_nP>
0

> <a_nS>
0

> <balabanJ>
1.63589

> <BCUT_PEOE_0>
-2.8139219

> <BCUT_PEOE_1>
-0.46741664

> <BCUT_PEOE_2>
0.54185992

> <BCUT_PEOE_3>
2.8356152

> <BCUT_SLOGP_0>
-2.9526014

> <BCUT_SLOGP_1>
-0.42761344

> <BCUT_SLOGP_2>
0.47125888

> <BCUT_SLOGP_3>
2.7776618

> <BCUT_SMR_0>
-2.5903203

> <BCUT_SMR_1>
-0.35737711

> <BCUT_SMR_2>
0.64398926

> <BCUT_SMR_3>
3.0441904

> <bpol>
102.10132

> <b_1rotN>
11

> <b_1rotR>
0.17741935

> <b_ar>
0

> <b_count>
136

> <b_double>
4

> <b_heavy>
62

> <b_max1len>
4

> <b_rotN>
11

> <b_rotR>
0.17741935

> <b_single>
132

> <b_triple>
0

> <chi0>
43.766491

> <chi0v>
36.994568

> <chi0v_C>
30.228804

> <chi0_C>
30.954937

> <chi1>
27.768204

> <chi1v>
21.287169

> <chi1v_C>
13.631682

> <chi1_C>
14.444797

> <chiral>
19

> <chiral_u>
3

> <density>
0.7302385

> <diameter>
22

> <FCharge>
0

> <GCUT_PEOE_0>
-0.85645473

> <GCUT_PEOE_1>
-0.33706754

> <GCUT_PEOE_2>
0.049020585

> <GCUT_PEOE_3>
3.4560089

> <GCUT_SLOGP_0>
-0.97005761

> <GCUT_SLOGP_1>
-0.28926733

> <GCUT_SLOGP_2>
-0.0086159669

> <GCUT_SLOGP_3>
3.4313524

> <GCUT_SMR_0>
-0.53434902

> <GCUT_SMR_1>
-0.20521075

> <GCUT_SMR_2>
0.1329219

> <GCUT_SMR_3>
3.6606185

> <Kier1>
51.632675

> <Kier2>
23.790178

> <Kier3>
14.244498

> <KierA1>
48.715179

> <KierA2>
22.42293

> <KierA3>
13.416243

> <KierFlex>
18.514189

> <lip_acc>
16

> <lip_don>
4

> <lip_druglike>
0

> <lip_violation>
2

> <logP(o/w)>
3.02774

> <logS>
-3.8333099

> <mr>
21.89809

> <mutagenic>
0

> <nmol>
1

> <opr_brigid>
34

> <opr_leadlike>
0

> <opr_nring>
3

> <opr_nrot>
30

> <opr_violation>
3

> <PC+>
0

> <PC->
0

> <PEOE_PC+>
6.12396

> <PEOE_PC->
-6.12396

> <PEOE_RPC+>
0.043269396

> <PEOE_RPC->
0.063461699

> <PEOE_VSA+0>
246.01939

> <PEOE_VSA+1>
140.02026

> <PEOE_VSA+2>
42.389984

> <PEOE_VSA+3>
33.464725

> <PEOE_VSA+4>
41.296692

> <PEOE_VSA+5>
14.708499

> <PEOE_VSA+6>
0.0

> <PEOE_VSA-0>
221.4984

> <PEOE_VSA-1>
67.767296

> <PEOE_VSA-2>
0.0

> <PEOE_VSA-3>
0.0

> <PEOE_VSA-4>
0.0

> <PEOE_VSA-5>
13.566921

> <PEOE_VSA-6>
64.66713

> <PEOE_VSA_FHYD>
0.84838563

> <PEOE_VSA_FNEG>
0.41506669

> <PEOE_VSA_FPNEG>
0.08836019

> <PEOE_VSA_FPOL>
0.15161435

> <PEOE_VSA_FPOS>
0.58493334

> <PEOE_VSA_FPPOS>
0.063254163

> <PEOE_VSA_HYD>
751.16003

> <PEOE_VSA_NEG>
367.49976

> <PEOE_VSA_PNEG>
78.234055

> <PEOE_VSA_POL>
134.23924

> <PEOE_VSA_POS>
517.89954

> <PEOE_VSA_PPOS>
56.005188

> <petitjean>
0.5

> <petitjeanSC>
1.0

> <Q_PC+>
0

> <Q_PC->
0

> <Q_RPC+>
0

> <Q_RPC->
0

> <Q_VSA_FHYD>
1

> <Q_VSA_FNEG>
0

> <Q_VSA_FPNEG>
0

> <Q_VSA_FPOL>
0

> <Q_VSA_FPOS>
1

> <Q_VSA_FPPOS>
0

> <Q_VSA_HYD>
885.39929

> <Q_VSA_NEG>
0

> <Q_VSA_PNEG>
0

> <Q_VSA_POL>
0

> <Q_VSA_POS>
885.39929

> <Q_VSA_PPOS>
0

> <radius>
11

> <reactive>
1

> <rings>
4

> <RPC+>
0

> <RPC->
0

> <rsynth>
0.54237288

> <SlogP>
2.3250999

> <SlogP_VSA0>
101.54091

> <SlogP_VSA1>
13.994092

> <SlogP_VSA2>
260.56735

> <SlogP_VSA3>
0.0

> <SlogP_VSA4>
8.8215923

> <SlogP_VSA5>
166.97261

> <SlogP_VSA6>
0.0

> <SlogP_VSA7>
70.572739

> <SlogP_VSA8>
132.07884

> <SlogP_VSA9>
199.95609

> <SMR>
21.68862

> <SMR_VSA0>
135.72354

> <SMR_VSA1>
107.78954

> <SMR_VSA2>
8.8215923

> <SMR_VSA3>
104.69859

> <SMR_VSA4>
0.0

> <SMR_VSA5>
202.65158

> <SMR_VSA6>
7.7454643

> <SMR_VSA7>
387.07391

> <TPSA>
195.38

> <VAdjEq>
0.2218456

> <VAdjMa>
6.9541965

> <VDistEq>
4.163322

> <VDistMa>
11.522773

> <vdw_area>
885.39929

> <vdw_vol>
1154.5063

> <vsa_acc>
44.660133

> <vsa_acid>
0

> <vsa_base>
0

> <vsa_don>
0.0

> <vsa_hyd>
632.46033

> <vsa_other>
83.396225

> <vsa_pol>
98.927818

> <Weight>
843.065

> <weinerPath>
14822

> <weinerPol>
104

> <zagreb>
302

$$$$
Row1725
 OpenBabel06061811532D

 33 37  0  0  1  0  0  0  0  0999 V2000
    0.0000    0.0000    0.0000 S   0  0  0  0  0  0  0  0  0  0  0  0
    0.0000    0.0000    0.0000 C   0  0  0  0  0  0  0  0  0  0  0  0
    0.0000    0.0000    0.0000 O   0  0  0  0  0  0  0  0  0  0  0  0
    0.0000    0.0000    0.0000 C   0  0  0  0  0  0  0  0  0  0  0  0
    0.0000    0.0000    0.0000 C   0  0  1  0  0  0  0  0  0  0  0  0
    0.0000    0.0000    0.0000 H   0  0  0  0  0  0  0  0  0  0  0  0
    0.0000    0.0000    0.0000 C   0  0  1  0  0  0  0  0  0  0  0  0
    0.0000    0.0000    0.0000 H   0  0  0  0  0  0  0  0  0  0  0  0
    0.0000    0.0000    0.0000 C   0  0  2  0  0  0  0  0  0  0  0  0
    0.0000    0.0000    0.0000 H   0  0  0  0  0  0  0  0  0  0  0  0
    0.0000    0.0000    0.0000 C   0  0  0  0  0  0  0  0  0  0  0  0
    0.0000    0.0000    0.0000 C   0  0  0  0  0  0  0  0  0  0  0  0
    0.0000    0.0000    0.0000 C   0  0  1  0  0  0  0  0  0  0  0  0
    0.0000    0.0000    0.0000 O   0  0  0  0  0  0  0  0  0  0  0  0
    0.0000    0.0000    0.0000 C   0  0  0  0  0  0  0  0  0  0  0  0
    0.0000    0.0000    0.0000 O   0  0  0  0  0  0  0  0  0  0  0  0
    0.0000    0.0000    0.0000 C   0  0  0  0  0  0  0  0  0  0  0  0
    0.0000    0.0000    0.0000 C   0  0  0  0  0  0  0  0  0  0  0  0
    0.0000    0.0000    0.0000 C   0  0  1  0  0  0  0  0  0  0  0  0
    0.0000    0.0000    0.0000 C   0  0  0  0  0  0  0  0  0  0  0  0
    0.0000    0.0000    0.0000 C   0  0  0  0  0  0  0  0  0  0  0  0
    0.0000    0.0000    0.0000 C   0  0  2  0  0  0  0  0  0  0  0  0
    0.0000    0.0000    0.0000 H   0  0  0  0  0  0  0  0  0  0  0  0
    0.0000    0.0000    0.0000 C   0  0  2  0  0  0  0  0  0  0  0  0
    0.0000    0.0000    0.0000 C   0  0  0  0  0  0  0  0  0  0  0  0
    0.0000    0.0000    0.0000 C   0  0  0  0  0  0  0  0  0  0  0  0
    0.0000    0.0000    0.0000 C   0  0  0  0  0  0  0  0  0  0  0  0
    0.0000    0.0000    0.0000 O   0  0  0  0  0  0  0  0  0  0  0  0
    0.0000    0.0000    0.0000 C   0  0  0  0  0  0  0  0  0  0  0  0
    0.0000    0.0000    0.0000 C   0  0  0  0  0  0  0  0  0  0  0  0
    0.0000    0.0000    0.0000 C   0  0  0  0  0  0  0  0  0  0  0  0
    0.0000    0.0000    0.0000 C   0  0  0  0  0  0  0  0  0  0  0  0
    0.0000    0.0000    0.0000 C   0  0  0  0  0  0  0  0  0  0  0  0
  1  2  1  0  0  0  0
  1  5  1  0  0  0  0
  2  3  2  0  0  0  0
  2  4  1  0  0  0  0
  5  6  1  0  0  0  0
  5 31  1  0  0  0  0
  5  7  1  0  0  0  0
  7  8  1  0  0  0  0
  7 22  1  0  0  0  0
  7  9  1  0  0  0  0
  9 10  1  0  0  0  0
  9 19  1  0  0  0  0
  9 11  1  0  0  0  0
 11 12  1  0  0  0  0
 12 13  1  0  0  0  0
 13 18  1  0  0  0  0
 13 14  1  0  0  0  0
 13 19  1  0  0  0  0
 14 15  1  0  0  0  0
 15 16  2  0  0  0  0
 15 17  1  0  0  0  0
 17 18  1  0  0  0  0
 19 20  1  0  0  0  0
 19 33  1  0  0  0  0
 20 21  1  0  0  0  0
 21 22  1  0  0  0  0
 22 23  1  0  0  0  0
 22 24  1  0  0  0  0
 24 30  1  0  0  0  0
 24 25  1  0  0  0  0
 24 32  1  0  0  0  0
 25 26  2  0  0  0  0
 25 31  1  0  0  0  0
 26 27  1  0  0  0  0
 27 28  2  0  0  0  0
 27 29  1  0  0  0  0
 29 30  1  0  0  0  0
M  END
> <Index>
1726

> <ID>
HT1913

> <class>
1

> <apol>
69.685379

> <ast_fraglike>
0

> <ast_fraglike_ext>
0

> <ast_violation>
2

> <ast_violation_ext>
2

> <a_acc>
3

> <a_acid>
0

> <a_aro>
0

> <a_base>
0

> <a_count>
61

> <a_don>
0

> <a_donacc>
3

> <a_heavy>
29

> <a_hyd>
22

> <a_IC>
83.735878

> <a_ICM>
1.3727193

> <a_nB>
0

> <a_nBr>
0

> <a_nC>
24

> <a_nCl>
0

> <a_nF>
0

> <a_nH>
32

> <a_nI>
0

> <a_nN>
0

> <a_nO>
4

> <a_nP>
0

> <a_nS>
1

> <balabanJ>
1.5043033

> <BCUT_PEOE_0>
-2.9445248

> <BCUT_PEOE_1>
-0.48016131

> <BCUT_PEOE_2>
0.41167247

> <BCUT_PEOE_3>
2.9879901

> <BCUT_SLOGP_0>
-2.8869994

> <BCUT_SLOGP_1>
-0.40543211

> <BCUT_SLOGP_2>
0.41038668

> <BCUT_SLOGP_3>
3.0433693

> <BCUT_SMR_0>
-2.688365

> <BCUT_SMR_1>
-0.30326509

> <BCUT_SMR_2>
0.55929601

> <BCUT_SMR_3>
3.2397187

> <bpol>
42.052624

> <b_1rotN>
1

> <b_1rotR>
0.030303031

> <b_ar>
0

> <b_count>
65

> <b_double>
4

> <b_heavy>
33

> <b_max1len>
2

> <b_rotN>
2

> <b_rotR>
0.060606062

> <b_single>
61

> <b_triple>
0

> <chi0>
20.604084

> <chi0v>
18.60845

> <chi0v_C>
15.750712

> <chi0_C>
16.189871

> <chi1>
13.683925

> <chi1v>
12.194419

> <chi1v_C>
9.8543196

> <chi1_C>
10.373575

> <chiral>
7

> <chiral_u>
0

> <density>
0.74204797

> <diameter>
12

> <FCharge>
0

> <GCUT_PEOE_0>
-0.79427898

> <GCUT_PEOE_1>
-0.41666064

> <GCUT_PEOE_2>
-0.033141796

> <GCUT_PEOE_3>
3.4232674

> <GCUT_SLOGP_0>
-0.86093724

> <GCUT_SLOGP_1>
-0.31014708

> <GCUT_SLOGP_2>
-0.012408319

> <GCUT_SLOGP_3>
3.4977348

> <GCUT_SMR_0>
-0.53906256

> <GCUT_SMR_1>
-0.21368673

> <GCUT_SMR_2>
0.11613683

> <GCUT_SMR_3>
3.6583586

> <Kier1>
20.877869

> <Kier2>
7.0

> <Kier3>
2.9575

> <KierA1>
19.452211

> <KierA2>
6.5049286

> <KierA3>
2.7430375

> <KierFlex>
4.3632846

> <lip_acc>
4

> <lip_don>
0

> <lip_druglike>
1

> <lip_violation>
0

> <logP(o/w)>
4.0190001

> <logS>
-5.2382898

> <mr>
11.377474

> <mutagenic>
0

> <nmol>
1

> <opr_brigid>
25

> <opr_leadlike>
0

> <opr_nring>
5

> <opr_nrot>
2

> <opr_violation>
2

> <PC+>
0

> <PC->
0

> <PEOE_PC+>
1.7418914

> <PEOE_PC->
-1.7418914

> <PEOE_RPC+>
0.15085982

> <PEOE_RPC->
0.17681743

> <PEOE_VSA+0>
169.00829

> <PEOE_VSA+1>
4.2653861

> <PEOE_VSA+2>
0.0

> <PEOE_VSA+3>
18.893101

> <PEOE_VSA+4>
0.0

> <PEOE_VSA+5>
14.708499

> <PEOE_VSA+6>
0.0

> <PEOE_VSA-0>
73.164093

> <PEOE_VSA-1>
59.464512

> <PEOE_VSA-2>
0.0

> <PEOE_VSA-3>
0.0

> <PEOE_VSA-4>
0.0

> <PEOE_VSA-5>
40.700764

> <PEOE_VSA-6>
2.503756

> <PEOE_VSA_FHYD>
0.84867585

> <PEOE_VSA_FNEG>
0.45944414

> <PEOE_VSA_FPNEG>
0.11289149

> <PEOE_VSA_FPOL>
0.15132414

> <PEOE_VSA_FPOS>
0.54055583

> <PEOE_VSA_FPPOS>
0.038432654

> <PEOE_VSA_HYD>
324.79538

> <PEOE_VSA_NEG>
175.83313

> <PEOE_VSA_PNEG>
43.204517

> <PEOE_VSA_POL>
57.913017

> <PEOE_VSA_POS>
206.87526

> <PEOE_VSA_PPOS>
14.708499

> <petitjean>
0.5

> <petitjeanSC>
1.0

> <Q_PC+>
0

> <Q_PC->
0

> <Q_RPC+>
0

> <Q_RPC->
0

> <Q_VSA_FHYD>
1

> <Q_VSA_FNEG>
0

> <Q_VSA_FPNEG>
0

> <Q_VSA_FPOL>
0

> <Q_VSA_FPOS>
1

> <Q_VSA_FPPOS>
0

> <Q_VSA_HYD>
382.7084

> <Q_VSA_NEG>
0

> <Q_VSA_PNEG>
0

> <Q_VSA_POL>
0

> <Q_VSA_POS>
382.7084

> <Q_VSA_PPOS>
0

> <radius>
6

> <reactive>
1

> <rings>
5

> <RPC+>
0

> <RPC->
0

> <rsynth>
1.0

> <SlogP>
4.8523002

> <SlogP_VSA0>
0.0

> <SlogP_VSA1>
17.485846

> <SlogP_VSA2>
85.362495

> <SlogP_VSA3>
0.0

> <SlogP_VSA4>
13.232388

> <SlogP_VSA5>
3.185575

> <SlogP_VSA6>
0.0

> <SlogP_VSA7>
17.643185

> <SlogP_VSA8>
169.81564

> <SlogP_VSA9>
132.19759

> <SMR>
11.2211

> <SMR_VSA0>
82.58654

> <SMR_VSA1>
0.0

> <SMR_VSA2>
13.232388

> <SMR_VSA3>
5.9615302

> <SMR_VSA4>
0.0

> <SMR_VSA5>
187.45883

> <SMR_VSA6>
17.485846

> <SMR_VSA7>
132.19759

> <TPSA>
60.439999

> <VAdjEq>
0.39679351

> <VAdjMa>
6.044394

> <VDistEq>
3.2226024

> <VDistMa>
9.4666386

> <vdw_area>
382.7084

> <vdw_vol>
561.39496

> <vsa_acc>
40.700764

> <vsa_acid>
0

> <vsa_base>
0

> <vsa_don>
0.0

> <vsa_hyd>
279.08966

> <vsa_other>
36.105354

> <vsa_pol>
40.700764

> <Weight>
416.582

> <weinerPath>
1905

> <weinerPol>
61

> <zagreb>
174

$$$$
Row1726
 OpenBabel06061811532D

 29 33  0  0  1  0  0  0  0  0999 V2000
    0.0000    0.0000    0.0000 O   0  0  0  0  0  0  0  0  0  0  0  0
    0.0000    0.0000    0.0000 C   0  0  1  0  0  0  0  0  0  0  0  0
    0.0000    0.0000    0.0000 C   0  0  0  0  0  0  0  0  0  0  0  0
    0.0000    0.0000    0.0000 C   0  0  0  0  0  0  0  0  0  0  0  0
    0.0000    0.0000    0.0000 C   0  0  1  0  0  0  0  0  0  0  0  0
    0.0000    0.0000    0.0000 H   0  0  0  0  0  0  0  0  0  0  0  0
    0.0000    0.0000    0.0000 C   0  0  1  0  0  0  0  0  0  0  0  0
    0.0000    0.0000    0.0000 H   0  0  0  0  0  0  0  0  0  0  0  0
    0.0000    0.0000    0.0000 C   0  0  2  0  0  0  0  0  0  0  0  0
    0.0000    0.0000    0.0000 H   0  0  0  0  0  0  0  0  0  0  0  0
    0.0000    0.0000    0.0000 C   0  0  0  0  0  0  0  0  0  0  0  0
    0.0000    0.0000    0.0000 C   0  0  0  0  0  0  0  0  0  0  0  0
    0.0000    0.0000    0.0000 C   0  0  2  0  0  0  0  0  0  0  0  0
    0.0000    0.0000    0.0000 C   0  0  0  0  0  0  0  0  0  0  0  0
    0.0000    0.0000    0.0000 C   0  0  2  0  0  0  0  0  0  0  0  0
    0.0000    0.0000    0.0000 C   0  0  2  0  0  0  0  0  0  0  0  0
    0.0000    0.0000    0.0000 H   0  0  0  0  0  0  0  0  0  0  0  0
    0.0000    0.0000    0.0000 C   0  0  0  0  0  0  0  0  0  0  0  0
    0.0000    0.0000    0.0000 C   0  0  0  0  0  0  0  0  0  0  0  0
    0.0000    0.0000    0.0000 N   0  0  0  0  0  0  0  0  0  0  0  0
    0.0000    0.0000    0.0000 H   0  0  0  0  0  0  0  0  0  0  0  0
    0.0000    0.0000    0.0000 N   0  0  0  0  0  0  0  0  0  0  0  0
    0.0000    0.0000    0.0000 C   0  0  0  0  0  0  0  0  0  0  0  0
    0.0000    0.0000    0.0000 C   0  0  0  0  0  0  0  0  0  0  0  0
    0.0000    0.0000    0.0000 C   0  0  0  0  0  0  0  0  0  0  0  0
    0.0000    0.0000    0.0000 C   0  0  0  0  0  0  0  0  0  0  0  0
    0.0000    0.0000    0.0000 C   0  0  0  0  0  0  0  0  0  0  0  0
    0.0000    0.0000    0.0000 C   0  0  0  0  0  0  0  0  0  0  0  0
    0.0000    0.0000    0.0000 C   0  0  0  0  0  0  0  0  0  0  0  0
  1  2  1  0  0  0  0
  2 13  1  0  0  0  0
  2  3  1  0  0  0  0
  2 29  1  0  0  0  0
  3  4  1  0  0  0  0
  4  5  1  0  0  0  0
  5  6  1  0  0  0  0
  5 13  1  0  0  0  0
  5  7  1  0  0  0  0
  7  8  1  0  0  0  0
  7 27  1  0  0  0  0
  7  9  1  0  0  0  0
  9 10  1  0  0  0  0
  9 11  1  0  0  0  0
  9 15  1  0  0  0  0
 11 12  1  0  0  0  0
 12 13  1  0  0  0  0
 13 14  1  0  0  0  0
 15 25  1  0  0  0  0
 15 16  1  0  0  0  0
 15 28  1  0  0  0  0
 16 17  1  0  0  0  0
 16 18  1  0  0  0  0
 16 26  1  0  0  0  0
 18 19  1  0  0  0  0
 19 24  2  0  0  0  0
 19 20  1  0  0  0  0
 20 21  1  0  0  0  0
 20 22  1  0  0  0  0
 22 23  2  0  0  0  0
 23 24  1  0  0  0  0
 24 25  1  0  0  0  0
 26 27  1  0  0  0  0
M  END
> <Index>
1727

> <ID>
HT1914

> <class>
1

> <apol>
61.299377

> <ast_fraglike>
0

> <ast_fraglike_ext>
0

> <ast_violation>
2

> <ast_violation_ext>
2

> <a_acc>
3

> <a_acid>
0

> <a_aro>
5

> <a_base>
0

> <a_count>
56

> <a_don>
3

> <a_donacc>
6

> <a_heavy>
24

> <a_hyd>
21

> <a_IC>
70.973213

> <a_ICM>
1.2673787

> <a_nB>
0

> <a_nBr>
0

> <a_nC>
21

> <a_nCl>
0

> <a_nF>
0

> <a_nH>
32

> <a_nI>
0

> <a_nN>
2

> <a_nO>
1

> <a_nP>
0

> <a_nS>
0

> <balabanJ>
1.4556612

> <BCUT_PEOE_0>
-2.9777961

> <BCUT_PEOE_1>
-0.29527181

> <BCUT_PEOE_2>
0.4215818

> <BCUT_PEOE_3>
2.9804296

> <BCUT_SLOGP_0>
-2.9086568

> <BCUT_SLOGP_1>
-0.28922465

> <BCUT_SLOGP_2>
0.45329431

> <BCUT_SLOGP_3>
3.0504727

> <BCUT_SMR_0>
-2.7236786

> <BCUT_SMR_1>
-0.1591931

> <BCUT_SMR_2>
0.59097975

> <BCUT_SMR_3>
3.2329526

> <bpol>
35.642624

> <b_1rotN>
0

> <b_1rotR>
0.0

> <b_ar>
5

> <b_count>
60

> <b_double>
0

> <b_heavy>
28

> <b_max1len>
4

> <b_rotN>
0

> <b_rotR>
0.0

> <b_single>
55

> <b_triple>
0

> <chi0>
16.742277

> <chi0v>
15.438033

> <chi0v_C>
14.043606

> <chi0_C>
14.328063

> <chi1>
11.35092

> <chi1v>
10.085788

> <chi1v_C>
9.1303759

> <chi1_C>
9.4426718

> <chiral>
7

> <chiral_u>
0

> <density>
0.67735326

> <diameter>
10

> <FCharge>
0

> <GCUT_PEOE_0>
-0.84395903

> <GCUT_PEOE_1>
-0.31654218

> <GCUT_PEOE_2>
-0.02763582

> <GCUT_PEOE_3>
3.3893211

> <GCUT_SLOGP_0>
-0.89657462

> <GCUT_SLOGP_1>
-0.28071463

> <GCUT_SLOGP_2>
0.032552294

> <GCUT_SLOGP_3>
3.4666102

> <GCUT_SMR_0>
-0.54214454

> <GCUT_SMR_1>
-0.16359095

> <GCUT_SMR_2>
0.10487521

> <GCUT_SMR_3>
3.6135199

> <Kier1>
16.193878

> <Kier2>
5.0393844

> <Kier3>
2.0162666

> <KierA1>
14.720439

> <KierA2>
4.5609937

> <KierA3>
1.8191648

> <KierFlex>
2.797493

> <lip_acc>
3

> <lip_don>
2

> <lip_druglike>
1

> <lip_violation>
0

> <logP(o/w)>
4.5780001

> <logS>
-5.03022

> <mr>
9.5444002

> <mutagenic>
0

> <nmol>
1

> <opr_brigid>
24

> <opr_leadlike>
1

> <opr_nring>
5

> <opr_nrot>
0

> <opr_violation>
1

> <PC+>
0

> <PC->
0

> <PEOE_PC+>
1.4447044

> <PEOE_PC->
-1.4447044

> <PEOE_RPC+>
0.14547659

> <PEOE_RPC->
0.26877323

> <PEOE_VSA+0>
130.39575

> <PEOE_VSA+1>
21.011301

> <PEOE_VSA+2>
0.0

> <PEOE_VSA+3>
8.6190128

> <PEOE_VSA+4>
10.324173

> <PEOE_VSA+5>
0.0

> <PEOE_VSA+6>
0.0

> <PEOE_VSA-0>
90.566727

> <PEOE_VSA-1>
37.495354

> <PEOE_VSA-2>
0.0

> <PEOE_VSA-3>
9.4210396

> <PEOE_VSA-4>
0.0

> <PEOE_VSA-5>
3.8753545

> <PEOE_VSA-6>
7.7675405

> <PEOE_VSA_FHYD>
0.93124038

> <PEOE_VSA_FNEG>
0.46678278

> <PEOE_VSA_FPNEG>
0.036443695

> <PEOE_VSA_FPOL>
0.068759628

> <PEOE_VSA_FPOS>
0.53321719

> <PEOE_VSA_FPPOS>
0.032315932

> <PEOE_VSA_HYD>
297.50919

> <PEOE_VSA_NEG>
149.12601

> <PEOE_VSA_PNEG>
11.642895

> <PEOE_VSA_POL>
21.967068

> <PEOE_VSA_POS>
170.35023

> <PEOE_VSA_PPOS>
10.324173

> <petitjean>
0.5

> <petitjeanSC>
1.0

> <Q_PC+>
0

> <Q_PC->
0

> <Q_RPC+>
0

> <Q_RPC->
0

> <Q_VSA_FHYD>
1

> <Q_VSA_FNEG>
0

> <Q_VSA_FPNEG>
0

> <Q_VSA_FPOL>
0

> <Q_VSA_FPOS>
1

> <Q_VSA_FPPOS>
0

> <Q_VSA_HYD>
319.47626

> <Q_VSA_NEG>
0

> <Q_VSA_PNEG>
0

> <Q_VSA_POL>
0

> <Q_VSA_POS>
319.47626

> <Q_VSA_PPOS>
0

> <radius>
5

> <reactive>
0

> <rings>
5

> <RPC+>
0

> <RPC->
0

> <rsynth>
0.16666667

> <SlogP>
4.1180401

> <SlogP_VSA0>
25.385227

> <SlogP_VSA1>
16.663008

> <SlogP_VSA2>
16.663008

> <SlogP_VSA3>
0.0

> <SlogP_VSA4>
23.585506

> <SlogP_VSA5>
37.736813

> <SlogP_VSA6>
0.0

> <SlogP_VSA7>
17.214357

> <SlogP_VSA8>
113.21043

> <SlogP_VSA9>
99.978043

> <SMR>
9.4495497

> <SMR_VSA0>
0.0

> <SMR_VSA1>
42.048233

> <SMR_VSA2>
34.30619

> <SMR_VSA3>
5.9423227

> <SMR_VSA4>
0.0

> <SMR_VSA5>
168.16161

> <SMR_VSA6>
0.0

> <SMR_VSA7>
99.978043

> <TPSA>
48.91

> <VAdjEq>
0.46012789

> <VAdjMa>
5.8073549

> <VDistEq>
3.0811262

> <VDistMa>
8.893836

> <vdw_area>
319.47626

> <vdw_vol>
484.97589

> <vsa_acc>
0.0

> <vsa_acid>
0

> <vsa_base>
0

> <vsa_don>
0.0

> <vsa_hyd>
252.73506

> <vsa_other>
0.0

> <vsa_pol>
32.409

> <Weight>
328.5

> <weinerPath>
1151

> <weinerPol>
52

> <zagreb>
150

$$$$
Row1727
 OpenBabel06061811532D

 28 30  0  0  0  0  0  0  0  0999 V2000
    0.0000    0.0000    0.0000 S   0  0  0  0  0  0  0  0  0  0  0  0
    0.0000    0.0000    0.0000 O   0  0  0  0  0  0  0  0  0  0  0  0
    0.0000    0.0000    0.0000 O   0  0  0  0  0  0  0  0  0  0  0  0
    0.0000    0.0000    0.0000 N   0  0  0  0  0  0  0  0  0  0  0  0
    0.0000    0.0000    0.0000 C   0  0  0  0  0  0  0  0  0  0  0  0
    0.0000    0.0000    0.0000 N   0  0  0  0  0  0  0  0  0  0  0  0
    0.0000    0.0000    0.0000 C   0  0  0  0  0  0  0  0  0  0  0  0
    0.0000    0.0000    0.0000 C   0  0  0  0  0  0  0  0  0  0  0  0
    0.0000    0.0000    0.0000 C   0  0  0  0  0  0  0  0  0  0  0  0
    0.0000    0.0000    0.0000 C   0  0  0  0  0  0  0  0  0  0  0  0
    0.0000    0.0000    0.0000 C   0  0  0  0  0  0  0  0  0  0  0  0
    0.0000    0.0000    0.0000 C   0  0  0  0  0  0  0  0  0  0  0  0
    0.0000    0.0000    0.0000 C   0  0  0  0  0  0  0  0  0  0  0  0
    0.0000    0.0000    0.0000 C   0  0  0  0  0  0  0  0  0  0  0  0
    0.0000    0.0000    0.0000 N   0  0  0  0  0  0  0  0  0  0  0  0
    0.0000    0.0000    0.0000 N   0  0  0  0  0  0  0  0  0  0  0  0
    0.0000    0.0000    0.0000 C   0  0  0  0  0  0  0  0  0  0  0  0
    0.0000    0.0000    0.0000 C   0  0  0  0  0  0  0  0  0  0  0  0
    0.0000    0.0000    0.0000 C   0  0  0  0  0  0  0  0  0  0  0  0
    0.0000    0.0000    0.0000 C   0  0  0  0  0  0  0  0  0  0  0  0
    0.0000    0.0000    0.0000 O   0  0  0  0  0  0  0  0  0  0  0  0
    0.0000    0.0000    0.0000 O   0  0  0  0  0  0  0  0  0  0  0  0
    0.0000    0.0000    0.0000 C   0  0  0  0  0  0  0  0  0  0  0  0
    0.0000    0.0000    0.0000 O   0  0  0  0  0  0  0  0  0  0  0  0
    0.0000    0.0000    0.0000 C   0  0  0  0  0  0  0  0  0  0  0  0
    0.0000    0.0000    0.0000 C   0  0  0  0  0  0  0  0  0  0  0  0
    0.0000    0.0000    0.0000 C   0  0  0  0  0  0  0  0  0  0  0  0
    0.0000    0.0000    0.0000 C   0  0  0  0  0  0  0  0  0  0  0  0
  1  2  2  0  0  0  0
  1  3  2  0  0  0  0
  1  4  1  0  0  0  0
  1 11  1  0  0  0  0
  4  5  1  0  0  0  0
  5 10  1  0  0  0  0
  5  6  2  0  0  0  0
  6  7  1  0  0  0  0
  7  8  2  0  0  0  0
  8  9  1  0  0  0  0
  9 10  2  0  0  0  0
 11 28  1  0  0  0  0
 11 12  2  0  0  0  0
 12 13  1  0  0  0  0
 13 14  2  0  0  0  0
 14 15  1  0  0  0  0
 14 27  1  0  0  0  0
 15 16  2  3  0  0  0
 16 17  1  0  0  0  0
 17 26  1  0  0  0  0
 17 18  2  0  0  0  0
 18 19  1  0  0  0  0
 19 20  1  0  0  0  0
 19 23  2  0  0  0  0
 20 21  1  0  0  0  0
 20 22  2  0  0  0  0
 23 24  1  0  0  0  0
 23 25  1  0  0  0  0
 25 26  2  0  0  0  0
 27 28  2  0  0  0  0
M  END
> <Index>
1728

> <ID>
HT1952

> <class>
1

> <apol>
52.325104

> <ast_fraglike>
0

> <ast_fraglike_ext>
0

> <ast_violation>
4

> <ast_violation_ext>
6

> <a_acc>
8

> <a_acid>
0

> <a_aro>
18

> <a_base>
0

> <a_count>
42

> <a_don>
4

> <a_donacc>
12

> <a_heavy>
28

> <a_hyd>
16

> <a_IC>
78.506073

> <a_ICM>
1.8691922

> <a_nB>
0

> <a_nBr>
0

> <a_nC>
18

> <a_nCl>
0

> <a_nF>
0

> <a_nH>
14

> <a_nI>
0

> <a_nN>
4

> <a_nO>
5

> <a_nP>
0

> <a_nS>
1

> <balabanJ>
1.38028

> <BCUT_PEOE_0>
-2.3266885

> <BCUT_PEOE_1>
-0.66464531

> <BCUT_PEOE_2>
0.72716302

> <BCUT_PEOE_3>
2.4248669

> <BCUT_SLOGP_0>
-2.4304619

> <BCUT_SLOGP_1>
-0.57329291

> <BCUT_SLOGP_2>
0.80645877

> <BCUT_SLOGP_3>
2.4200699

> <BCUT_SMR_0>
-1.9834197

> <BCUT_SMR_1>
-0.51473147

> <BCUT_SMR_2>
0.8814683

> <BCUT_SMR_3>
2.7662632

> <bpol>
26.038898

> <b_1rotN>
6

> <b_1rotR>
0.2

> <b_ar>
18

> <b_count>
44

> <b_double>
2

> <b_heavy>
30

> <b_max1len>
3

> <b_rotN>
6

> <b_rotR>
0.2

> <b_single>
24

> <b_triple>
0

> <chi0>
20.148054

> <chi0v>
15.03641

> <chi0v_C>
9.850853

> <chi0_C>
11.819627

> <chi1>
13.348174

> <chi1v>
9.353178

> <chi1v_C>
5.0980763

> <chi1_C>
7.3409014

> <chiral>
0

> <chiral_u>
0

> <density>
0.84527099

> <diameter>
16

> <FCharge>
0

> <GCUT_PEOE_0>
-0.87271923

> <GCUT_PEOE_1>
-0.47345036

> <GCUT_PEOE_2>
0.12726136

> <GCUT_PEOE_3>
2.4072735

> <GCUT_SLOGP_0>
-0.94338423

> <GCUT_SLOGP_1>
-0.37291819

> <GCUT_SLOGP_2>
0.16959108

> <GCUT_SLOGP_3>
2.5258727

> <GCUT_SMR_0>
-0.4279649

> <GCUT_SMR_1>
-0.22231689

> <GCUT_SMR_2>
0.26852313

> <GCUT_SMR_3>
2.6998067

> <Kier1>
22.68

> <Kier2>
10.346939

> <Kier3>
6.4975009

> <KierA1>
16.61956

> <KierA2>
7.4880877

> <KierA3>
4.6606207

> <KierFlex>
4.4445977

> <lip_acc>
9

> <lip_don>
3

> <lip_druglike>
1

> <lip_violation>
0

> <logP(o/w)>
3.2379999

> <logS>
-3.60009

> <mr>
10.241264

> <mutagenic>
1

> <nmol>
1

> <opr_brigid>
19

> <opr_leadlike>
1

> <opr_nring>
3

> <opr_nrot>
5

> <opr_violation>
1

> <PC+>
0

> <PC->
0

> <PEOE_PC+>
2.4226878

> <PEOE_PC->
-2.4226878

> <PEOE_RPC+>
0.12364715

> <PEOE_RPC->
0.18160787

> <PEOE_VSA+0>
35.700371

> <PEOE_VSA+1>
79.604424

> <PEOE_VSA+2>
0.0

> <PEOE_VSA+3>
10.105608

> <PEOE_VSA+4>
20.648346

> <PEOE_VSA+5>
18.893101

> <PEOE_VSA+6>
0.0

> <PEOE_VSA-0>
61.274521

> <PEOE_VSA-1>
53.510628

> <PEOE_VSA-2>
53.388123

> <PEOE_VSA-3>
0.0

> <PEOE_VSA-4>
0.0

> <PEOE_VSA-5>
13.566921

> <PEOE_VSA-6>
21.217657

> <PEOE_VSA_FHYD>
0.79797751

> <PEOE_VSA_FNEG>
0.55165124

> <PEOE_VSA_FPNEG>
0.094546512

> <PEOE_VSA_FPOL>
0.20202246

> <PEOE_VSA_FPOS>
0.44834873

> <PEOE_VSA_FPPOS>
0.10747596

> <PEOE_VSA_HYD>
293.58368

> <PEOE_VSA_NEG>
202.95786

> <PEOE_VSA_PNEG>
34.784576

> <PEOE_VSA_POL>
74.326027

> <PEOE_VSA_POS>
164.95184

> <PEOE_VSA_PPOS>
39.541447

> <petitjean>
0.5

> <petitjeanSC>
1.0

> <Q_PC+>
0

> <Q_PC->
0

> <Q_RPC+>
0

> <Q_RPC->
0

> <Q_VSA_FHYD>
1

> <Q_VSA_FNEG>
0

> <Q_VSA_FPNEG>
0

> <Q_VSA_FPOL>
0

> <Q_VSA_FPOS>
1

> <Q_VSA_FPPOS>
0

> <Q_VSA_HYD>
367.9097

> <Q_VSA_NEG>
0

> <Q_VSA_PNEG>
0

> <Q_VSA_POL>
0

> <Q_VSA_POS>
367.9097

> <Q_VSA_PPOS>
0

> <radius>
8

> <reactive>
1

> <rings>
3

> <RPC+>
0

> <RPC->
0

> <rsynth>
1.0

> <SlogP>
3.7016001

> <SlogP_VSA0>
25.385227

> <SlogP_VSA1>
89.107681

> <SlogP_VSA2>
6.6407428

> <SlogP_VSA3>
25.385227

> <SlogP_VSA4>
27.047791

> <SlogP_VSA5>
34.876747

> <SlogP_VSA6>
0.0

> <SlogP_VSA7>
193.64619

> <SlogP_VSA8>
0.0

> <SlogP_VSA9>
13.084844

> <SMR>
10.07296

> <SMR_VSA0>
72.033905

> <SMR_VSA1>
75.496773

> <SMR_VSA2>
26.935961

> <SMR_VSA3>
8.4290028

> <SMR_VSA4>
24.246412

> <SMR_VSA5>
193.64619

> <SMR_VSA6>
7.7454643

> <SMR_VSA7>
6.6407428

> <TPSA>
141.31

> <VAdjEq>
0.38983503

> <VAdjMa>
5.9068904

> <VDistEq>
3.8178589

> <VDistMa>
9.2752714

> <vdw_area>
367.9097

> <vdw_vol>
471.32693

> <vsa_acc>
56.54118

> <vsa_acid>
0

> <vsa_base>
0

> <vsa_don>
8.0752068

> <vsa_hyd>
206.63521

> <vsa_other>
36.004669

> <vsa_pol>
105.31715

> <Weight>
398.39899

> <weinerPath>
2428

> <weinerPol>
42

> <zagreb>
144

$$$$
Row1728
 OpenBabel06061811532D

 25 27  0  0  0  0  0  0  0  0999 V2000
    0.0000    0.0000    0.0000 S   0  0  3  0  0  0  0  0  0  0  0  0
    0.0000    0.0000    0.0000 O   0  0  0  0  0  0  0  0  0  0  0  0
    0.0000    0.0000    0.0000 C   0  0  0  0  0  0  0  0  0  0  0  0
    0.0000    0.0000    0.0000 C   0  0  0  0  0  0  0  0  0  0  0  0
    0.0000    0.0000    0.0000 C   0  0  0  0  0  0  0  0  0  0  0  0
    0.0000    0.0000    0.0000 C   0  0  0  0  0  0  0  0  0  0  0  0
    0.0000    0.0000    0.0000 C   0  0  0  0  0  0  0  0  0  0  0  0
    0.0000    0.0000    0.0000 C   0  0  0  0  0  0  0  0  0  0  0  0
    0.0000    0.0000    0.0000 C   0  0  0  0  0  0  0  0  0  0  0  0
    0.0000    0.0000    0.0000 C   0  0  0  0  0  0  0  0  0  0  0  0
    0.0000    0.0000    0.0000 C   0  0  0  0  0  0  0  0  0  0  0  0
    0.0000    0.0000    0.0000 C   0  0  0  0  0  0  0  0  0  0  0  0
    0.0000    0.0000    0.0000 C   0  0  0  0  0  0  0  0  0  0  0  0
    0.0000    0.0000    0.0000 C   0  0  0  0  0  0  0  0  0  0  0  0
    0.0000    0.0000    0.0000 C   0  0  0  0  0  0  0  0  0  0  0  0
    0.0000    0.0000    0.0000 F   0  0  0  0  0  0  0  0  0  0  0  0
    0.0000    0.0000    0.0000 C   0  0  0  0  0  0  0  0  0  0  0  0
    0.0000    0.0000    0.0000 C   0  0  0  0  0  0  0  0  0  0  0  0
    0.0000    0.0000    0.0000 C   0  0  0  0  0  0  0  0  0  0  0  0
    0.0000    0.0000    0.0000 C   0  0  0  0  0  0  0  0  0  0  0  0
    0.0000    0.0000    0.0000 C   0  0  0  0  0  0  0  0  0  0  0  0
    0.0000    0.0000    0.0000 O   0  0  0  0  0  0  0  0  0  0  0  0
    0.0000    0.0000    0.0000 O   0  0  0  0  0  0  0  0  0  0  0  0
    0.0000    0.0000    0.0000 C   0  0  0  0  0  0  0  0  0  0  0  0
    0.0000    0.0000    0.0000 C   0  0  0  0  0  0  0  0  0  0  0  0
  1  2  2  0  0  0  0
  1  3  1  0  0  0  0
  1  4  1  0  0  0  0
  4  9  1  0  0  0  0
  4  5  2  0  0  0  0
  5  6  1  0  0  0  0
  6  7  2  0  0  0  0
  7  8  1  0  0  0  0
  7 10  1  0  0  0  0
  8  9  2  0  0  0  0
 10 11  2  3  0  0  0
 11 24  1  0  0  0  0
 11 12  1  0  0  0  0
 12 18  1  0  0  0  0
 12 13  2  0  0  0  0
 13 14  1  0  0  0  0
 13 19  1  0  0  0  0
 14 15  2  0  0  0  0
 15 16  1  0  0  0  0
 15 17  1  0  0  0  0
 17 18  2  0  0  0  0
 19 20  1  0  0  0  0
 19 24  2  0  0  0  0
 20 21  1  0  0  0  0
 21 22  1  0  0  0  0
 21 23  2  0  0  0  0
 24 25  1  0  0  0  0
M  END
> <Index>
1729

> <ID>
HT1960

> <class>
1

> <apol>
52.398479

> <ast_fraglike>
0

> <ast_fraglike_ext>
0

> <ast_violation>
2

> <ast_violation_ext>
3

> <a_acc>
3

> <a_acid>
0

> <a_aro>
12

> <a_base>
0

> <a_count>
42

> <a_don>
2

> <a_donacc>
5

> <a_heavy>
25

> <a_hyd>
20

> <a_IC>
65.797012

> <a_ICM>
1.5665956

> <a_nB>
0

> <a_nBr>
0

> <a_nC>
20

> <a_nCl>
0

> <a_nF>
1

> <a_nH>
17

> <a_nI>
0

> <a_nN>
0

> <a_nO>
3

> <a_nP>
0

> <a_nS>
1

> <balabanJ>
1.6451968

> <BCUT_PEOE_0>
-2.3215072

> <BCUT_PEOE_1>
-0.63454574

> <BCUT_PEOE_2>
0.63816911

> <BCUT_PEOE_3>
2.4442432

> <BCUT_SLOGP_0>
-2.2978144

> <BCUT_SLOGP_1>
-0.52130526

> <BCUT_SLOGP_2>
0.80308008

> <BCUT_SLOGP_3>
2.5969219

> <BCUT_SMR_0>
-2.0376923

> <BCUT_SMR_1>
-0.45565376

> <BCUT_SMR_2>
0.84914166

> <BCUT_SMR_3>
2.7706077

> <bpol>
25.12352

> <b_1rotN>
4

> <b_1rotR>
0.14814815

> <b_ar>
12

> <b_count>
44

> <b_double>
3

> <b_heavy>
27

> <b_max1len>
3

> <b_rotN>
4

> <b_rotR>
0.14814815

> <b_single>
29

> <b_triple>
0

> <chi0>
18.137465

> <chi0v>
14.692328

> <chi0v_C>
11.825909

> <chi0_C>
13.560114

> <chi1>
11.863081

> <chi1v>
9.2976885

> <chi1v_C>
6.3438582

> <chi1_C>
8.6429968

> <chiral>
0

> <chiral_u>
0

> <density>
0.77963698

> <diameter>
12

> <FCharge>
0

> <GCUT_PEOE_0>
-0.86485541

> <GCUT_PEOE_1>
-0.44748348

> <GCUT_PEOE_2>
0.065606244

> <GCUT_PEOE_3>
2.6067877

> <GCUT_SLOGP_0>
-0.87251592

> <GCUT_SLOGP_1>
-0.28231773

> <GCUT_SLOGP_2>
0.13841945

> <GCUT_SLOGP_3>
2.7534993

> <GCUT_SMR_0>
-0.47598627

> <GCUT_SMR_1>
-0.19713652

> <GCUT_SMR_2>
0.20311292

> <GCUT_SMR_3>
2.9211569

> <Kier1>
19.753086

> <Kier2>
8.3471403

> <Kier3>
4.4659748

> <KierA1>
15.396119

> <KierA2>
6.4337578

> <KierA3>
3.4135094

> <KierFlex>
3.9621961

> <lip_acc>
3

> <lip_don>
1

> <lip_druglike>
1

> <lip_violation>
0

> <logP(o/w)>
3.3699999

> <logS>
-5.3863201

> <mr>
9.7718754

> <mutagenic>
0

> <nmol>
1

> <opr_brigid>
17

> <opr_leadlike>
1

> <opr_nring>
3

> <opr_nrot>
4

> <opr_violation>
0

> <PC+>
0

> <PC->
0

> <PEOE_PC+>
1.8466655

> <PEOE_PC->
-1.8466655

> <PEOE_RPC+>
0.14294463

> <PEOE_RPC->
0.33215329

> <PEOE_VSA+0>
21.326929

> <PEOE_VSA+1>
55.62056

> <PEOE_VSA+2>
29.744585

> <PEOE_VSA+3>
4.1846013

> <PEOE_VSA+4>
10.324173

> <PEOE_VSA+5>
14.708499

> <PEOE_VSA+6>
0.0

> <PEOE_VSA-0>
130.91995

> <PEOE_VSA-1>
12.254904

> <PEOE_VSA-2>
0.0

> <PEOE_VSA-3>
0.0

> <PEOE_VSA-4>
11.908636

> <PEOE_VSA-5>
13.566921

> <PEOE_VSA-6>
23.775803

> <PEOE_VSA_FHYD>
0.77375573

> <PEOE_VSA_FNEG>
0.58606571

> <PEOE_VSA_FPNEG>
0.15000312

> <PEOE_VSA_FPOL>
0.22624424

> <PEOE_VSA_FPOS>
0.41393429

> <PEOE_VSA_FPPOS>
0.076241121

> <PEOE_VSA_HYD>
254.05153

> <PEOE_VSA_NEG>
192.42621

> <PEOE_VSA_PNEG>
49.251358

> <PEOE_VSA_POL>
74.284027

> <PEOE_VSA_POS>
135.90935

> <PEOE_VSA_PPOS>
25.032671

> <petitjean>
0.5

> <petitjeanSC>
1.0

> <Q_PC+>
0

> <Q_PC->
0

> <Q_RPC+>
0

> <Q_RPC->
0

> <Q_VSA_FHYD>
1

> <Q_VSA_FNEG>
0

> <Q_VSA_FPNEG>
0

> <Q_VSA_FPOL>
0

> <Q_VSA_FPOS>
1

> <Q_VSA_FPPOS>
0

> <Q_VSA_HYD>
328.33557

> <Q_VSA_NEG>
0

> <Q_VSA_PNEG>
0

> <Q_VSA_POL>
0

> <Q_VSA_POS>
328.33557

> <Q_VSA_PPOS>
0

> <radius>
6

> <reactive>
0

> <rings>
3

> <RPC+>
0

> <RPC->
0

> <rsynth>
0.12

> <SlogP>
4.3655

> <SlogP_VSA0>
0.0

> <SlogP_VSA1>
31.831308

> <SlogP_VSA2>
52.532639

> <SlogP_VSA3>
25.385227

> <SlogP_VSA4>
9.5567245

> <SlogP_VSA5>
36.427483

> <SlogP_VSA6>
0.0

> <SlogP_VSA7>
129.87344

> <SlogP_VSA8>
36.511589

> <SlogP_VSA9>
48.286129

> <SMR>
9.7892199

> <SMR_VSA0>
47.948059

> <SMR_VSA1>
14.960114

> <SMR_VSA2>
36.05698

> <SMR_VSA3>
12.7423

> <SMR_VSA4>
6.37115

> <SMR_VSA5>
142.3707

> <SMR_VSA6>
25.388649

> <SMR_VSA7>
84.566589

> <TPSA>
73.580002

> <VAdjEq>
0.42433795

> <VAdjMa>
5.7548876

> <VDistEq>
3.3997183

> <VDistMa>
8.9949522

> <vdw_area>
328.33557

> <vdw_vol>
457.15765

> <vsa_acc>
16.008261

> <vsa_acid>
0

> <vsa_base>
0

> <vsa_don>
0.0

> <vsa_hyd>
241.43474

> <vsa_other>
27.845207

> <vsa_pol>
43.142105

> <Weight>
356.41699

> <weinerPath>
1517

> <weinerPol>
40

> <zagreb>
132

$$$$
Row1729
 OpenBabel06061811532D

 15 17  0  0  0  0  0  0  0  0999 V2000
    0.0000    0.0000    0.0000 N   0  0  0  0  0  0  0  0  0  0  0  0
    0.0000    0.0000    0.0000 C   0  0  0  0  0  0  0  0  0  0  0  0
    0.0000    0.0000    0.0000 C   0  0  0  0  0  0  0  0  0  0  0  0
    0.0000    0.0000    0.0000 C   0  0  0  0  0  0  0  0  0  0  0  0
    0.0000    0.0000    0.0000 C   0  0  0  0  0  0  0  0  0  0  0  0
    0.0000    0.0000    0.0000 C   0  0  0  0  0  0  0  0  0  0  0  0
    0.0000    0.0000    0.0000 C   0  0  0  0  0  0  0  0  0  0  0  0
    0.0000    0.0000    0.0000 C   0  0  0  0  0  0  0  0  0  0  0  0
    0.0000    0.0000    0.0000 N   0  0  0  0  0  0  0  0  0  0  0  0
    0.0000    0.0000    0.0000 C   0  0  0  0  0  0  0  0  0  0  0  0
    0.0000    0.0000    0.0000 C   0  0  0  0  0  0  0  0  0  0  0  0
    0.0000    0.0000    0.0000 C   0  0  0  0  0  0  0  0  0  0  0  0
    0.0000    0.0000    0.0000 C   0  0  0  0  0  0  0  0  0  0  0  0
    0.0000    0.0000    0.0000 C   0  0  0  0  0  0  0  0  0  0  0  0
    0.0000    0.0000    0.0000 C   0  0  0  0  0  0  0  0  0  0  0  0
  1 11  1  0  0  0  0
  1  2  2  0  0  0  0
  2  7  1  0  0  0  0
  2  3  1  0  0  0  0
  3  4  1  0  0  0  0
  3  8  2  0  0  0  0
  4  5  1  0  0  0  0
  5  6  1  0  0  0  0
  6  7  1  0  0  0  0
  8  9  1  0  0  0  0
  8 10  1  0  0  0  0
 10 15  1  0  0  0  0
 10 11  2  0  0  0  0
 11 12  1  0  0  0  0
 12 13  2  0  0  0  0
 13 14  1  0  0  0  0
 14 15  2  0  0  0  0
M  END
> <Index>
1730

> <ID>
HT1970

> <class>
1

> <apol>
34.4151

> <ast_fraglike>
1

> <ast_fraglike_ext>
1

> <ast_violation>
0

> <ast_violation_ext>
0

> <a_acc>
1

> <a_acid>
0

> <a_aro>
10

> <a_base>
0

> <a_count>
29

> <a_don>
1

> <a_donacc>
2

> <a_heavy>
15

> <a_hyd>
13

> <a_IC>
37.472763

> <a_ICM>
1.2921642

> <a_nB>
0

> <a_nBr>
0

> <a_nC>
13

> <a_nCl>
0

> <a_nF>
0

> <a_nH>
14

> <a_nI>
0

> <a_nN>
2

> <a_nO>
0

> <a_nP>
0

> <a_nS>
0

> <balabanJ>
1.778096

> <BCUT_PEOE_0>
-2.6393843

> <BCUT_PEOE_1>
-0.58502841

> <BCUT_PEOE_2>
0.59993923

> <BCUT_PEOE_3>
2.6042936

> <BCUT_SLOGP_0>
-2.5500865

> <BCUT_SLOGP_1>
-0.46015286

> <BCUT_SLOGP_2>
0.711649

> <BCUT_SLOGP_3>
2.7096522

> <BCUT_SMR_0>
-2.3851342

> <BCUT_SMR_1>
-0.38255352

> <BCUT_SMR_2>
0.80871958

> <BCUT_SMR_3>
2.8660018

> <bpol>
15.964898

> <b_1rotN>
0

> <b_1rotR>
0.0

> <b_ar>
11

> <b_count>
31

> <b_double>
0

> <b_heavy>
17

> <b_max1len>
2

> <b_rotN>
0

> <b_rotR>
0.0

> <b_single>
20

> <b_triple>
0

> <chi0>
10.250712

> <chi0v>
8.6623917

> <chi0v_C>
7.6378284

> <chi0_C>
8.5436058

> <chi1>
7.3601732

> <chi1v>
5.5203457

> <chi1v_C>
4.7844572

> <chi1_C>
5.9663267

> <chiral>
0

> <chiral_u>
0

> <density>
0.68297124

> <diameter>
7

> <FCharge>
0

> <GCUT_PEOE_0>
-0.80916327

> <GCUT_PEOE_1>
-0.41988534

> <GCUT_PEOE_2>
0.044248618

> <GCUT_PEOE_3>
2.5268776

> <GCUT_SLOGP_0>
-1.3345171

> <GCUT_SLOGP_1>
-0.28637826

> <GCUT_SLOGP_2>
0.15034877

> <GCUT_SLOGP_3>
2.6550434

> <GCUT_SMR_0>
-0.52265352

> <GCUT_SMR_1>
-0.19184518

> <GCUT_SMR_2>
0.22830662

> <GCUT_SMR_3>
2.8186338

> <Kier1>
10.173011

> <Kier2>
4.1076388

> <Kier3>
1.7439446

> <KierA1>
7.2818041

> <KierA2>
2.8627274

> <KierA3>
1.1889281

> <KierFlex>
1.3897214

> <lip_acc>
2

> <lip_don>
2

> <lip_druglike>
1

> <lip_violation>
0

> <logP(o/w)>
2.4430001

> <logS>
-2.7831099

> <mr>
6.1108861

> <mutagenic>
1

> <nmol>
1

> <opr_brigid>
16

> <opr_leadlike>
1

> <opr_nring>
3

> <opr_nrot>
1

> <opr_violation>
0

> <PC+>
0

> <PC->
0

> <PEOE_PC+>
0.89856797

> <PEOE_PC->
-0.89856797

> <PEOE_RPC+>
0.13793764

> <PEOE_RPC->
0.33549169

> <PEOE_VSA+0>
49.730728

> <PEOE_VSA+1>
23.761095

> <PEOE_VSA+2>
17.238026

> <PEOE_VSA+3>
0.0

> <PEOE_VSA+4>
0.0

> <PEOE_VSA+5>
0.0

> <PEOE_VSA+6>
0.0

> <PEOE_VSA-0>
49.268696

> <PEOE_VSA-1>
36.764713

> <PEOE_VSA-2>
0.0

> <PEOE_VSA-3>
0.0

> <PEOE_VSA-4>
0.0

> <PEOE_VSA-5>
5.6825762

> <PEOE_VSA-6>
6.6511192

> <PEOE_VSA_FHYD>
0.93477583

> <PEOE_VSA_FNEG>
0.52019399

> <PEOE_VSA_FPNEG>
0.065224186

> <PEOE_VSA_FPOL>
0.065224186

> <PEOE_VSA_FPOS>
0.47980598

> <PEOE_VSA_FPPOS>
0.0

> <PEOE_VSA_HYD>
176.76326

> <PEOE_VSA_NEG>
98.367104

> <PEOE_VSA_PNEG>
12.333695

> <PEOE_VSA_POL>
12.333695

> <PEOE_VSA_POS>
90.729851

> <PEOE_VSA_PPOS>
0.0

> <petitjean>
0.42857143

> <petitjeanSC>
0.75

> <Q_PC+>
0

> <Q_PC->
0

> <Q_RPC+>
0

> <Q_RPC->
0

> <Q_VSA_FHYD>
1

> <Q_VSA_FNEG>
0

> <Q_VSA_FPNEG>
0

> <Q_VSA_FPOL>
0

> <Q_VSA_FPOS>
1

> <Q_VSA_FPPOS>
0

> <Q_VSA_HYD>
189.09695

> <Q_VSA_NEG>
0

> <Q_VSA_PNEG>
0

> <Q_VSA_POL>
0

> <Q_VSA_POS>
189.09695

> <Q_VSA_PPOS>
0

> <radius>
4

> <reactive>
0

> <rings>
3

> <RPC+>
0

> <RPC->
0

> <rsynth>
1.0

> <SlogP>
2.69574

> <SlogP_VSA0>
32.897186

> <SlogP_VSA1>
16.78553

> <SlogP_VSA2>
0.0

> <SlogP_VSA3>
0.0

> <SlogP_VSA4>
5.9423227

> <SlogP_VSA5>
37.736813

> <SlogP_VSA6>
0.0

> <SlogP_VSA7>
75.289841

> <SlogP_VSA8>
37.736813

> <SlogP_VSA9>
2.7567475

> <SMR>
6.2797399

> <SMR_VSA0>
0.0

> <SMR_VSA1>
16.78553

> <SMR_VSA2>
0.0

> <SMR_VSA3>
5.9423227

> <SMR_VSA4>
7.4738488

> <SMR_VSA5>
178.94354

> <SMR_VSA6>
0.0

> <SMR_VSA7>
0.0

> <TPSA>
38.91

> <VAdjEq>
0.61261392

> <VAdjMa>
5.0874629

> <VDistEq>
2.553652

> <VDistMa>
7.5372267

> <vdw_area>
189.09695

> <vdw_vol>
290.30359

> <vsa_acc>
5.6825762

> <vsa_acid>
0

> <vsa_base>
0

> <vsa_don>
17.742489

> <vsa_hyd>
150.98369

> <vsa_other>
0.0

> <vsa_pol>
23.425066

> <Weight>
198.269

> <weinerPath>
326

> <weinerPol>
25

> <zagreb>
82

$$$$
Row1730
 OpenBabel06061811532D

 70 73  0  0  1  0  0  0  0  0999 V2000
    0.0000    0.0000    0.0000 O   0  0  0  0  0  0  0  0  0  0  0  0
    0.0000    0.0000    0.0000 C   0  0  2  0  0  0  0  0  0  0  0  0
    0.0000    0.0000    0.0000 H   0  0  0  0  0  0  0  0  0  0  0  0
    0.0000    0.0000    0.0000 C   0  0  0  0  0  0  0  0  0  0  0  0
    0.0000    0.0000    0.0000 C   0  0  0  0  0  0  0  0  0  0  0  0
    0.0000    0.0000    0.0000 C   0  0  1  0  0  0  0  0  0  0  0  0
    0.0000    0.0000    0.0000 H   0  0  0  0  0  0  0  0  0  0  0  0
    0.0000    0.0000    0.0000 C   0  0  0  0  0  0  0  0  0  0  0  0
    0.0000    0.0000    0.0000 C   0  0  1  0  0  0  0  0  0  0  0  0
    0.0000    0.0000    0.0000 H   0  0  0  0  0  0  0  0  0  0  0  0
    0.0000    0.0000    0.0000 O   0  0  0  0  0  0  0  0  0  0  0  0
    0.0000    0.0000    0.0000 C   0  0  0  0  0  0  0  0  0  0  0  0
    0.0000    0.0000    0.0000 C   0  0  2  0  0  0  0  0  0  0  0  0
    0.0000    0.0000    0.0000 H   0  0  0  0  0  0  0  0  0  0  0  0
    0.0000    0.0000    0.0000 O   0  0  0  0  0  0  0  0  0  0  0  0
    0.0000    0.0000    0.0000 C   0  0  0  0  0  0  0  0  0  0  0  0
    0.0000    0.0000    0.0000 C   0  0  0  0  0  0  0  0  0  0  0  0
    0.0000    0.0000    0.0000 C   0  0  0  0  0  0  0  0  0  0  0  0
    0.0000    0.0000    0.0000 C   0  0  2  0  0  0  0  0  0  0  0  0
    0.0000    0.0000    0.0000 H   0  0  0  0  0  0  0  0  0  0  0  0
    0.0000    0.0000    0.0000 C   0  0  0  0  0  0  0  0  0  0  0  0
    0.0000    0.0000    0.0000 C   0  0  1  0  0  0  0  0  0  0  0  0
    0.0000    0.0000    0.0000 H   0  0  0  0  0  0  0  0  0  0  0  0
    0.0000    0.0000    0.0000 O   0  0  0  0  0  0  0  0  0  0  0  0
    0.0000    0.0000    0.0000 C   0  0  0  0  0  0  0  0  0  0  0  0
    0.0000    0.0000    0.0000 C   0  0  0  0  0  0  0  0  0  0  0  0
    0.0000    0.0000    0.0000 O   0  0  0  0  0  0  0  0  0  0  0  0
    0.0000    0.0000    0.0000 C   0  0  2  0  0  0  0  0  0  0  0  0
    0.0000    0.0000    0.0000 H   0  0  0  0  0  0  0  0  0  0  0  0
    0.0000    0.0000    0.0000 C   0  0  0  0  0  0  0  0  0  0  0  0
    0.0000    0.0000    0.0000 C   0  0  0  0  0  0  0  0  0  0  0  0
    0.0000    0.0000    0.0000 C   0  0  0  0  0  0  0  0  0  0  0  0
    0.0000    0.0000    0.0000 C   0  0  1  0  0  0  0  0  0  0  0  0
    0.0000    0.0000    0.0000 H   0  0  0  0  0  0  0  0  0  0  0  0
    0.0000    0.0000    0.0000 C   0  0  0  0  0  0  0  0  0  0  0  0
    0.0000    0.0000    0.0000 C   0  0  2  0  0  0  0  0  0  0  0  0
    0.0000    0.0000    0.0000 H   0  0  0  0  0  0  0  0  0  0  0  0
    0.0000    0.0000    0.0000 O   0  0  0  0  0  0  0  0  0  0  0  0
    0.0000    0.0000    0.0000 C   0  0  0  0  0  0  0  0  0  0  0  0
    0.0000    0.0000    0.0000 C   0  0  1  0  0  0  0  0  0  0  0  0
    0.0000    0.0000    0.0000 H   0  0  0  0  0  0  0  0  0  0  0  0
    0.0000    0.0000    0.0000 O   0  0  0  0  0  0  0  0  0  0  0  0
    0.0000    0.0000    0.0000 C   0  0  2  0  0  0  0  0  0  0  0  0
    0.0000    0.0000    0.0000 O   0  0  0  0  0  0  0  0  0  0  0  0
    0.0000    0.0000    0.0000 C   0  0  1  0  0  0  0  0  0  0  0  0
    0.0000    0.0000    0.0000 H   0  0  0  0  0  0  0  0  0  0  0  0
    0.0000    0.0000    0.0000 C   0  0  0  0  0  0  0  0  0  0  0  0
    0.0000    0.0000    0.0000 C   0  0  2  0  0  0  0  0  0  0  0  0
    0.0000    0.0000    0.0000 H   0  0  0  0  0  0  0  0  0  0  0  0
    0.0000    0.0000    0.0000 O   0  0  0  0  0  0  0  0  0  0  0  0
    0.0000    0.0000    0.0000 C   0  0  0  0  0  0  0  0  0  0  0  0
    0.0000    0.0000    0.0000 C   0  0  0  0  0  0  0  0  0  0  0  0
    0.0000    0.0000    0.0000 C   0  0  0  0  0  0  0  0  0  0  0  0
    0.0000    0.0000    0.0000 O   0  0  0  0  0  0  0  0  0  0  0  0
    0.0000    0.0000    0.0000 C   0  0  0  0  0  0  0  0  0  0  0  0
    0.0000    0.0000    0.0000 O   0  0  0  0  0  0  0  0  0  0  0  0
    0.0000    0.0000    0.0000 N   0  0  0  0  0  0  0  0  0  0  0  0
    0.0000    0.0000    0.0000 C   0  0  1  0  0  0  0  0  0  0  0  0
    0.0000    0.0000    0.0000 H   0  0  0  0  0  0  0  0  0  0  0  0
    0.0000    0.0000    0.0000 C   0  0  0  0  0  0  0  0  0  0  0  0
    0.0000    0.0000    0.0000 C   0  0  0  0  0  0  0  0  0  0  0  0
    0.0000    0.0000    0.0000 C   0  0  0  0  0  0  0  0  0  0  0  0
    0.0000    0.0000    0.0000 C   0  0  0  0  0  0  0  0  0  0  0  0
    0.0000    0.0000    0.0000 C   0  0  0  0  0  0  0  0  0  0  0  0
    0.0000    0.0000    0.0000 O   0  0  0  0  0  0  0  0  0  0  0  0
    0.0000    0.0000    0.0000 C   0  0  0  0  0  0  0  0  0  0  0  0
    0.0000    0.0000    0.0000 C   0  0  0  0  0  0  0  0  0  0  0  0
    0.0000    0.0000    0.0000 C   0  0  0  0  0  0  0  0  0  0  0  0
    0.0000    0.0000    0.0000 C   0  0  0  0  0  0  0  0  0  0  0  0
    0.0000    0.0000    0.0000 C   0  0  0  0  0  0  0  0  0  0  0  0
  1 64  1  0  0  0  0
  1  2  1  0  0  0  0
  2  3  1  0  0  0  0
  2  4  1  0  0  0  0
  2 19  1  0  0  0  0
  4  5  2  0  0  0  0
  4 18  1  0  0  0  0
  5  6  1  0  0  0  0
  6  7  1  0  0  0  0
  6 17  1  0  0  0  0
  6  8  1  0  0  0  0
  8  9  1  0  0  0  0
  9 10  1  0  0  0  0
  9 11  1  0  0  0  0
  9 13  1  0  0  0  0
 11 12  1  0  0  0  0
 13 14  1  0  0  0  0
 13 15  1  0  0  0  0
 13 16  1  0  0  0  0
 16 17  1  0  0  0  0
 19 20  1  0  0  0  0
 19 21  1  0  0  0  0
 19 22  1  0  0  0  0
 22 23  1  0  0  0  0
 22 24  1  0  0  0  0
 22 25  1  0  0  0  0
 25 26  1  0  0  0  0
 26 27  2  0  0  0  0
 26 28  1  0  0  0  0
 28 29  1  0  0  0  0
 28 30  1  0  0  0  0
 28 68  1  0  0  0  0
 30 31  2  3  0  0  0
 31 32  1  0  0  0  0
 31 67  1  0  0  0  0
 32 33  1  0  0  0  0
 33 34  1  0  0  0  0
 33 35  1  0  0  0  0
 33 66  1  0  0  0  0
 35 36  1  0  0  0  0
 36 37  1  0  0  0  0
 36 38  1  0  0  0  0
 36 40  1  0  0  0  0
 38 39  1  0  0  0  0
 40 41  1  0  0  0  0
 40 48  1  0  0  0  0
 40 42  1  0  0  0  0
 42 43  1  0  0  0  0
 43 44  1  0  0  0  0
 43 45  1  0  0  0  0
 43 53  1  0  0  0  0
 45 46  1  0  0  0  0
 45 47  1  0  0  0  0
 45 52  1  0  0  0  0
 47 48  1  0  0  0  0
 48 49  1  0  0  0  0
 48 50  1  0  0  0  0
 50 51  1  0  0  0  0
 53 54  2  0  0  0  0
 53 55  1  0  0  0  0
 55 56  2  0  0  0  0
 55 57  1  0  0  0  0
 57 63  1  0  0  0  0
 57 58  1  0  0  0  0
 58 59  1  0  0  0  0
 58 60  1  0  0  0  0
 58 64  1  0  0  0  0
 60 61  1  0  0  0  0
 61 62  1  0  0  0  0
 62 63  1  0  0  0  0
 64 65  2  0  0  0  0
 68 69  1  0  0  0  0
 69 70  2  0  0  0  0
M  END
> <Index>
1731

> <ID>
HT1971

> <class>
1

> <apol>
134.17271

> <ast_fraglike>
0

> <ast_fraglike_ext>
0

> <ast_violation>
3

> <ast_violation_ext>
5

> <a_acc>
11

> <a_acid>
0

> <a_aro>
0

> <a_base>
0

> <a_count>
126

> <a_don>
3

> <a_donacc>
14

> <a_heavy>
57

> <a_hyd>
39

> <a_IC>
174.41454

> <a_ICM>
1.3842424

> <a_nB>
0

> <a_nBr>
0

> <a_nC>
44

> <a_nCl>
0

> <a_nF>
0

> <a_nH>
69

> <a_nI>
0

> <a_nN>
1

> <a_nO>
12

> <a_nP>
0

> <a_nS>
0

> <balabanJ>
1.7103463

> <BCUT_PEOE_0>
-2.7902093

> <BCUT_PEOE_1>
-0.47550935

> <BCUT_PEOE_2>
0.51924145

> <BCUT_PEOE_3>
2.8292644

> <BCUT_SLOGP_0>
-2.8811934

> <BCUT_SLOGP_1>
-0.42368194

> <BCUT_SLOGP_2>
0.42893934

> <BCUT_SLOGP_3>
2.8028491

> <BCUT_SMR_0>
-2.5703771

> <BCUT_SMR_1>
-0.34521177

> <BCUT_SMR_2>
0.6147964

> <BCUT_SMR_3>
3.0377088

> <bpol>
90.82328

> <b_1rotN>
7

> <b_1rotR>
0.11666667

> <b_ar>
0

> <b_count>
129

> <b_double>
7

> <b_heavy>
60

> <b_max1len>
4

> <b_rotN>
7

> <b_rotR>
0.11666667

> <b_single>
122

> <b_triple>
0

> <chi0>
42.18914

> <chi0v>
35.393082

> <chi0v_C>
29.929993

> <chi0_C>
31.076258

> <chi1>
26.983057

> <chi1v>
20.886057

> <chi1v_C>
15.720017

> <chi1_C>
17.019678

> <chiral>
14

> <chiral_u>
0

> <density>
0.71982431

> <diameter>
19

> <FCharge>
0

> <GCUT_PEOE_0>
-0.82371378

> <GCUT_PEOE_1>
-0.37677863

> <GCUT_PEOE_2>
0.048212972

> <GCUT_PEOE_3>
3.4193258

> <GCUT_SLOGP_0>
-0.98279423

> <GCUT_SLOGP_1>
-0.30315867

> <GCUT_SLOGP_2>
-0.008580978

> <GCUT_SLOGP_3>
3.420964

> <GCUT_SMR_0>
-0.53534335

> <GCUT_SMR_1>
-0.20596427

> <GCUT_SMR_2>
0.13635814

> <GCUT_SMR_3>
3.6353018

> <Kier1>
49.653332

> <Kier2>
22.904272

> <Kier3>
12.565097

> <KierA1>
44.182018

> <KierA2>
20.33662

> <KierA3>
11.139701

> <KierFlex>
15.763385

> <lip_acc>
13

> <lip_don>
3

> <lip_druglike>
0

> <lip_violation>
2

> <logP(o/w)>
4.572

> <logS>
-6.4347701

> <mr>
21.577118

> <mutagenic>
0

> <nmol>
1

> <opr_brigid>
38

> <opr_leadlike>
0

> <opr_nring>
3

> <opr_nrot>
25

> <opr_violation>
4

> <PC+>
0

> <PC->
0

> <PEOE_PC+>
5.407846

> <PEOE_PC->
-5.407846

> <PEOE_RPC+>
0.054771904

> <PEOE_RPC->
0.072303794

> <PEOE_VSA+0>
284.5636

> <PEOE_VSA+1>
123.26807

> <PEOE_VSA+2>
16.509409

> <PEOE_VSA+3>
0.0

> <PEOE_VSA+4>
32.081062

> <PEOE_VSA+5>
36.11655

> <PEOE_VSA+6>
0.0

> <PEOE_VSA-0>
126.71703

> <PEOE_VSA-1>
95.216286

> <PEOE_VSA-2>
22.301268

> <PEOE_VSA-3>
0.0

> <PEOE_VSA-4>
0.0

> <PEOE_VSA-5>
54.267685

> <PEOE_VSA-6>
35.8214

> <PEOE_VSA_FHYD>
0.80856949

> <PEOE_VSA_FNEG>
0.40432808

> <PEOE_VSA_FPNEG>
0.10895294

> <PEOE_VSA_FPOL>
0.19143052

> <PEOE_VSA_FPOS>
0.59567189

> <PEOE_VSA_FPPOS>
0.082477584

> <PEOE_VSA_HYD>
668.57562

> <PEOE_VSA_NEG>
334.32367

> <PEOE_VSA_PNEG>
90.089088

> <PEOE_VSA_POL>
158.2867

> <PEOE_VSA_POS>
492.53867

> <PEOE_VSA_PPOS>
68.197609

> <petitjean>
0.42105263

> <petitjeanSC>
0.72727275

> <Q_PC+>
0

> <Q_PC->
0

> <Q_RPC+>
0

> <Q_RPC->
0

> <Q_VSA_FHYD>
1

> <Q_VSA_FNEG>
0

> <Q_VSA_FPNEG>
0

> <Q_VSA_FPOL>
0

> <Q_VSA_FPOS>
1

> <Q_VSA_FPPOS>
0

> <Q_VSA_HYD>
826.86237

> <Q_VSA_NEG>
0

> <Q_VSA_PNEG>
0

> <Q_VSA_POL>
0

> <Q_VSA_POS>
826.86237

> <Q_VSA_PPOS>
0

> <radius>
11

> <reactive>
1

> <rings>
4

> <RPC+>
0

> <RPC->
0

> <rsynth>
0.47368422

> <SlogP>
4.6389999

> <SlogP_VSA0>
76.155678

> <SlogP_VSA1>
27.503784

> <SlogP_VSA2>
199.71082

> <SlogP_VSA3>
18.439579

> <SlogP_VSA4>
22.05398

> <SlogP_VSA5>
112.52275

> <SlogP_VSA6>
0.0

> <SlogP_VSA7>
52.929554

> <SlogP_VSA8>
207.55246

> <SlogP_VSA9>
198.73087

> <SMR>
21.259239

> <SMR_VSA0>
150.4483

> <SMR_VSA1>
79.279991

> <SMR_VSA2>
22.05398

> <SMR_VSA3>
55.633663

> <SMR_VSA4>
0.0

> <SMR_VSA5>
260.48203

> <SMR_VSA6>
42.819046

> <SMR_VSA7>
304.88248

> <TPSA>
178.36

> <VAdjEq>
0.22805569

> <VAdjMa>
6.9068904

> <VDistEq>
3.9525137

> <VDistMa>
11.446915

> <vdw_area>
826.86237

> <vdw_vol>
1116.9822

> <vsa_acc>
64.282707

> <vsa_acid>
0

> <vsa_base>
0

> <vsa_don>
0.0

> <vsa_hyd>
606.41339

> <vsa_other>
48.18737

> <vsa_pol>
104.98347

> <Weight>
804.03101

> <weinerPath>
12629

> <weinerPol>
105

> <zagreb>
292

$$$$
Row1731
 OpenBabel06061811532D

 28 30  0  0  0  0  0  0  0  0999 V2000
    0.0000    0.0000    0.0000 O   0  0  0  0  0  0  0  0  0  0  0  0
    0.0000    0.0000    0.0000 C   0  0  0  0  0  0  0  0  0  0  0  0
    0.0000    0.0000    0.0000 C   0  0  0  0  0  0  0  0  0  0  0  0
    0.0000    0.0000    0.0000 N   0  0  0  0  0  0  0  0  0  0  0  0
    0.0000    0.0000    0.0000 C   0  0  0  0  0  0  0  0  0  0  0  0
    0.0000    0.0000    0.0000 C   0  0  0  0  0  0  0  0  0  0  0  0
    0.0000    0.0000    0.0000 C   0  0  0  0  0  0  0  0  0  0  0  0
    0.0000    0.0000    0.0000 C   0  0  0  0  0  0  0  0  0  0  0  0
    0.0000    0.0000    0.0000 C   0  0  0  0  0  0  0  0  0  0  0  0
    0.0000    0.0000    0.0000 C   0  0  0  0  0  0  0  0  0  0  0  0
    0.0000    0.0000    0.0000 C   0  0  0  0  0  0  0  0  0  0  0  0
    0.0000    0.0000    0.0000 C   0  0  0  0  0  0  0  0  0  0  0  0
    0.0000    0.0000    0.0000 C   0  0  0  0  0  0  0  0  0  0  0  0
    0.0000    0.0000    0.0000 C   0  0  0  0  0  0  0  0  0  0  0  0
    0.0000    0.0000    0.0000 C   0  0  0  0  0  0  0  0  0  0  0  0
    0.0000    0.0000    0.0000 C   0  0  0  0  0  0  0  0  0  0  0  0
    0.0000    0.0000    0.0000 C   0  0  0  0  0  0  0  0  0  0  0  0
    0.0000    0.0000    0.0000 C   0  0  0  0  0  0  0  0  0  0  0  0
    0.0000    0.0000    0.0000 C   0  0  0  0  0  0  0  0  0  0  0  0
    0.0000    0.0000    0.0000 C   0  0  0  0  0  0  0  0  0  0  0  0
    0.0000    0.0000    0.0000 C   0  0  0  0  0  0  0  0  0  0  0  0
    0.0000    0.0000    0.0000 C   0  0  0  0  0  0  0  0  0  0  0  0
    0.0000    0.0000    0.0000 C   0  0  0  0  0  0  0  0  0  0  0  0
    0.0000    0.0000    0.0000 C   0  0  0  0  0  0  0  0  0  0  0  0
    0.0000    0.0000    0.0000 C   0  0  0  0  0  0  0  0  0  0  0  0
    0.0000    0.0000    0.0000 C   0  0  0  0  0  0  0  0  0  0  0  0
    0.0000    0.0000    0.0000 C   0  0  0  0  0  0  0  0  0  0  0  0
    0.0000    0.0000    0.0000 C   0  0  0  0  0  0  0  0  0  0  0  0
  1  2  1  0  0  0  0
  1  7  1  0  0  0  0
  2  3  1  0  0  0  0
  3  4  1  0  0  0  0
  4  5  1  0  0  0  0
  4  6  1  0  0  0  0
  7 12  1  0  0  0  0
  7  8  2  0  0  0  0
  8  9  1  0  0  0  0
  9 10  2  0  0  0  0
 10 11  1  0  0  0  0
 10 13  1  0  0  0  0
 11 12  2  0  0  0  0
 13 14  2  3  0  0  0
 13 23  1  0  0  0  0
 14 15  1  0  0  0  0
 14 17  1  0  0  0  0
 15 16  1  0  0  0  0
 17 22  1  0  0  0  0
 17 18  2  0  0  0  0
 18 19  1  0  0  0  0
 19 20  2  0  0  0  0
 20 21  1  0  0  0  0
 21 22  2  0  0  0  0
 23 28  1  0  0  0  0
 23 24  2  0  0  0  0
 24 25  1  0  0  0  0
 25 26  2  0  0  0  0
 26 27  1  0  0  0  0
 27 28  2  0  0  0  0
M  END
> <Index>
1732

> <ID>
HT1978

> <class>
1

> <apol>
66.999001

> <ast_fraglike>
0

> <ast_fraglike_ext>
0

> <ast_violation>
2

> <ast_violation_ext>
3

> <a_acc>
2

> <a_acid>
0

> <a_aro>
18

> <a_base>
0

> <a_count>
57

> <a_don>
0

> <a_donacc>
2

> <a_heavy>
28

> <a_hyd>
26

> <a_IC>
69.381851

> <a_ICM>
1.2172254

> <a_nB>
0

> <a_nBr>
0

> <a_nC>
26

> <a_nCl>
0

> <a_nF>
0

> <a_nH>
29

> <a_nI>
0

> <a_nN>
1

> <a_nO>
1

> <a_nP>
0

> <a_nS>
0

> <balabanJ>
1.6070825

> <BCUT_PEOE_0>
-2.5950856

> <BCUT_PEOE_1>
-0.59359735

> <BCUT_PEOE_2>
0.64228922

> <BCUT_PEOE_3>
2.4974806

> <BCUT_SLOGP_0>
-2.7039783

> <BCUT_SLOGP_1>
-0.49128035

> <BCUT_SLOGP_2>
0.75208807

> <BCUT_SLOGP_3>
2.578306

> <BCUT_SMR_0>
-2.3192675

> <BCUT_SMR_1>
-0.44184619

> <BCUT_SMR_2>
0.80989122

> <BCUT_SMR_3>
2.7593744

> <bpol>
35.599003

> <b_1rotN>
8

> <b_1rotR>
0.26666668

> <b_ar>
18

> <b_count>
59

> <b_double>
1

> <b_heavy>
30

> <b_max1len>
5

> <b_rotN>
8

> <b_rotR>
0.26666668

> <b_single>
40

> <b_triple>
0

> <chi0>
19.769375

> <chi0v>
17.059687

> <chi0v_C>
16.204224

> <chi0_C>
18.484917

> <chi1>
13.685872

> <chi1v>
9.9068489

> <chi1v_C>
8.2033949

> <chi1_C>
11.214675

> <chiral>
0

> <chiral_u>
0

> <density>
0.64398539

> <diameter>
14

> <FCharge>
0

> <GCUT_PEOE_0>
-0.8587603

> <GCUT_PEOE_1>
-0.38339546

> <GCUT_PEOE_2>
0.066538081

> <GCUT_PEOE_3>
2.6915967

> <GCUT_SLOGP_0>
-0.96180791

> <GCUT_SLOGP_1>
-0.26386139

> <GCUT_SLOGP_2>
0.14830479

> <GCUT_SLOGP_3>
2.8437617

> <GCUT_SMR_0>
-0.5169329

> <GCUT_SMR_1>
-0.19680193

> <GCUT_SMR_2>
0.17418523

> <GCUT_SMR_3>
2.9938288

> <Kier1>
22.68

> <Kier2>
12.0

> <Kier3>
6.7600002

> <KierA1>
16.802382

> <KierA2>
8.7840004

> <KierA3>
4.9061375

> <KierFlex>
5.2711473

> <lip_acc>
2

> <lip_don>
0

> <lip_druglike>
1

> <lip_violation>
1

> <logP(o/w)>
6.698

> <logS>
-6.83044

> <mr>
11.874652

> <mutagenic>
0

> <nmol>
1

> <opr_brigid>
19

> <opr_leadlike>
1

> <opr_nring>
3

> <opr_nrot>
8

> <opr_violation>
1

> <PC+>
0

> <PC->
0

> <PEOE_PC+>
1.6107378

> <PEOE_PC->
-1.6107378

> <PEOE_RPC+>
0.047348086

> <PEOE_RPC->
0.21321435

> <PEOE_VSA+0>
68.642342

> <PEOE_VSA+1>
91.655991

> <PEOE_VSA+2>
0.0

> <PEOE_VSA+3>
0.0

> <PEOE_VSA+4>
0.0

> <PEOE_VSA+5>
0.0

> <PEOE_VSA+6>
0.0

> <PEOE_VSA-0>
90.731201

> <PEOE_VSA-1>
165.80652

> <PEOE_VSA-2>
0.0

> <PEOE_VSA-3>
0.0

> <PEOE_VSA-4>
0.0

> <PEOE_VSA-5>
0.0

> <PEOE_VSA-6>
2.503756

> <PEOE_VSA_FHYD>
0.99402928

> <PEOE_VSA_FNEG>
0.61773646

> <PEOE_VSA_FPNEG>
0.0059707095

> <PEOE_VSA_FPOL>
0.0059707095

> <PEOE_VSA_FPOS>
0.38226357

> <PEOE_VSA_FPPOS>
0.0

> <PEOE_VSA_HYD>
416.83606

> <PEOE_VSA_NEG>
259.04147

> <PEOE_VSA_PNEG>
2.503756

> <PEOE_VSA_POL>
2.503756

> <PEOE_VSA_POS>
160.29832

> <PEOE_VSA_PPOS>
0.0

> <petitjean>
0.5

> <petitjeanSC>
1.0

> <Q_PC+>
0

> <Q_PC->
0

> <Q_RPC+>
0

> <Q_RPC->
0

> <Q_VSA_FHYD>
1

> <Q_VSA_FNEG>
0

> <Q_VSA_FPNEG>
0

> <Q_VSA_FPOL>
0

> <Q_VSA_FPOS>
1

> <Q_VSA_FPPOS>
0

> <Q_VSA_HYD>
419.33981

> <Q_VSA_NEG>
0

> <Q_VSA_PNEG>
0

> <Q_VSA_POL>
0

> <Q_VSA_POS>
419.33981

> <Q_VSA_PPOS>
0

> <radius>
7

> <reactive>
0

> <rings>
3

> <RPC+>
0

> <RPC->
0

> <rsynth>
1.0

> <SlogP>
5.8133898

> <SlogP_VSA0>
10.999887

> <SlogP_VSA1>
3.1243138

> <SlogP_VSA2>
0.0

> <SlogP_VSA3>
42.551411

> <SlogP_VSA4>
9.5567245

> <SlogP_VSA5>
65.794373

> <SlogP_VSA6>
0.0

> <SlogP_VSA7>
250.19016

> <SlogP_VSA8>
18.868406

> <SlogP_VSA9>
38.569443

> <SMR>
11.852

> <SMR_VSA0>
0.0

> <SMR_VSA1>
14.124202

> <SMR_VSA2>
3.185575

> <SMR_VSA3>
14.800153

> <SMR_VSA4>
3.185575

> <SMR_VSA5>
265.87299

> <SMR_VSA6>
39.365837

> <SMR_VSA7>
99.120392

> <TPSA>
12.47

> <VAdjEq>
0.38983503

> <VAdjMa>
5.9068904

> <VDistEq>
3.568749

> <VDistMa>
9.3255863

> <vdw_area>
419.33981

> <vdw_vol>
576.9137

> <vsa_acc>
2.503756

> <vsa_acid>
0

> <vsa_base>
0

> <vsa_don>
0.0

> <vsa_hyd>
396.194

> <vsa_other>
0.0

> <vsa_pol>
2.503756

> <Weight>
371.52399

> <weinerPath>
2141

> <weinerPol>
41

> <zagreb>
138

$$$$
Row1732
 OpenBabel06061811532D

 21 22  0  0  1  0  0  0  0  0999 V2000
    0.0000    0.0000    0.0000 Cl  0  0  0  0  0  0  0  0  0  0  0  0
    0.0000    0.0000    0.0000 C   0  0  0  0  0  0  0  0  0  0  0  0
    0.0000    0.0000    0.0000 C   0  0  0  0  0  0  0  0  0  0  0  0
    0.0000    0.0000    0.0000 C   0  0  0  0  0  0  0  0  0  0  0  0
    0.0000    0.0000    0.0000 N   0  0  0  0  0  0  0  0  0  0  0  0
    0.0000    0.0000    0.0000 C   0  0  3  0  0  0  0  0  0  0  0  0
    0.0000    0.0000    0.0000 N   0  0  0  0  0  0  0  0  0  0  0  0
    0.0000    0.0000    0.0000 S   0  0  0  0  0  0  0  0  0  0  0  0
    0.0000    0.0000    0.0000 O   0  0  0  0  0  0  0  0  0  0  0  0
    0.0000    0.0000    0.0000 O   0  0  0  0  0  0  0  0  0  0  0  0
    0.0000    0.0000    0.0000 C   0  0  0  0  0  0  0  0  0  0  0  0
    0.0000    0.0000    0.0000 C   0  0  0  0  0  0  0  0  0  0  0  0
    0.0000    0.0000    0.0000 C   0  0  0  0  0  0  0  0  0  0  0  0
    0.0000    0.0000    0.0000 S   0  0  0  0  0  0  0  0  0  0  0  0
    0.0000    0.0000    0.0000 O   0  0  0  0  0  0  0  0  0  0  0  0
    0.0000    0.0000    0.0000 O   0  0  0  0  0  0  0  0  0  0  0  0
    0.0000    0.0000    0.0000 N   0  0  0  0  0  0  0  0  0  0  0  0
    0.0000    0.0000    0.0000 C   0  0  0  0  0  0  0  0  0  0  0  0
    0.0000    0.0000    0.0000 Cl  0  0  0  0  0  0  0  0  0  0  0  0
    0.0000    0.0000    0.0000 Cl  0  0  0  0  0  0  0  0  0  0  0  0
    0.0000    0.0000    0.0000 Cl  0  0  0  0  0  0  0  0  0  0  0  0
  1  2  1  0  0  0  0
  2 13  1  0  0  0  0
  2  3  2  0  0  0  0
  3  4  1  0  0  0  0
  4 11  2  0  0  0  0
  4  5  1  0  0  0  0
  5  6  1  0  0  0  0
  6  7  1  0  0  0  0
  6 18  1  0  0  0  0
  7  8  1  0  0  0  0
  8  9  2  0  0  0  0
  8 10  2  0  0  0  0
  8 11  1  0  0  0  0
 11 12  1  0  0  0  0
 12 13  2  0  0  0  0
 13 14  1  0  0  0  0
 14 15  2  0  0  0  0
 14 16  2  0  0  0  0
 14 17  1  0  0  0  0
 18 19  1  0  0  0  0
 18 20  1  0  0  0  0
 18 21  1  0  0  0  0
M  END
> <Index>
1733

> <ID>
HT1988

> <class>
1

> <apol>
39.775551

> <ast_fraglike>
0

> <ast_fraglike_ext>
0

> <ast_violation>
2

> <ast_violation_ext>
3

> <a_acc>
4

> <a_acid>
0

> <a_aro>
6

> <a_base>
0

> <a_count>
28

> <a_don>
3

> <a_donacc>
7

> <a_heavy>
21

> <a_hyd>
10

> <a_IC>
68.199562

> <a_ICM>
2.4356987

> <a_nB>
0

> <a_nBr>
0

> <a_nC>
8

> <a_nCl>
4

> <a_nF>
0

> <a_nH>
7

> <a_nI>
0

> <a_nN>
3

> <a_nO>
4

> <a_nP>
0

> <a_nS>
2

> <balabanJ>
2.2277362

> <BCUT_PEOE_0>
-2.5820389

> <BCUT_PEOE_1>
-0.48863548

> <BCUT_PEOE_2>
0.53114963

> <BCUT_PEOE_3>
2.6140008

> <BCUT_SLOGP_0>
-2.7827678

> <BCUT_SLOGP_1>
-0.44427645

> <BCUT_SLOGP_2>
0.68949997

> <BCUT_SLOGP_3>
2.5357289

> <BCUT_SMR_0>
-2.2632055

> <BCUT_SMR_1>
-0.35107821

> <BCUT_SMR_2>
0.669649

> <BCUT_SMR_3>
2.9265332

> <bpol>
22.944448

> <b_1rotN>
1

> <b_1rotR>
0.045454547

> <b_ar>
6

> <b_count>
29

> <b_double>
0

> <b_heavy>
22

> <b_max1len>
3

> <b_rotN>
2

> <b_rotR>
0.090909094

> <b_single>
23

> <b_triple>
0

> <chi0>
16.215178

> <chi0v>
14.427458

> <chi0v_C>
4.2320509

> <chi0_C>
4.8009648

> <chi1>
9.3213339

> <chi1v>
9.582737

> <chi1v_C>
1.9433757

> <chi1_C>
2.588335

> <chiral>
1

> <chiral_u>
1

> <density>
1.1785886

> <diameter>
9

> <FCharge>
0

> <GCUT_PEOE_0>
-0.87788504

> <GCUT_PEOE_1>
-0.39675659

> <GCUT_PEOE_2>
0.036648095

> <GCUT_PEOE_3>
2.5145226

> <GCUT_SLOGP_0>
-1.3482838

> <GCUT_SLOGP_1>
-0.45820129

> <GCUT_SLOGP_2>
0.34140223

> <GCUT_SLOGP_3>
2.5259316

> <GCUT_SMR_0>
-0.47769767

> <GCUT_SMR_1>
-0.16963436

> <GCUT_SMR_2>
0.4253

> <GCUT_SMR_3>
2.8020642

> <Kier1>
17.355371

> <Kier2>
5.2739224

> <Kier3>
3.5045972

> <KierA1>
22.611301

> <KierA2>
6.9615698

> <KierA3>
4.6723132

> <KierFlex>
7.4957213

> <lip_acc>
7

> <lip_don>
4

> <lip_druglike>
1

> <lip_violation>
0

> <logP(o/w)>
1.09208

> <logS>
-4.4175501

> <mr>
8.0025311

> <mutagenic>
1

> <nmol>
1

> <opr_brigid>
11

> <opr_leadlike>
1

> <opr_nring>
2

> <opr_nrot>
1

> <opr_violation>
0

> <PC+>
0

> <PC->
0

> <PEOE_PC+>
1.7629929

> <PEOE_PC->
-1.7629929

> <PEOE_RPC+>
0.17569457

> <PEOE_RPC->
0.21548112

> <PEOE_VSA+0>
38.308571

> <PEOE_VSA+1>
24.786757

> <PEOE_VSA+2>
26.880259

> <PEOE_VSA+3>
0.0

> <PEOE_VSA+4>
0.0

> <PEOE_VSA+5>
0.0

> <PEOE_VSA+6>
8.3692026

> <PEOE_VSA-0>
20.873917

> <PEOE_VSA-1>
118.32779

> <PEOE_VSA-2>
34.546043

> <PEOE_VSA-3>
9.0437498

> <PEOE_VSA-4>
32.016521

> <PEOE_VSA-5>
0.0

> <PEOE_VSA-6>
0.13689101

> <PEOE_VSA_FHYD>
0.87065446

> <PEOE_VSA_FNEG>
0.68608993

> <PEOE_VSA_FPNEG>
0.10263157

> <PEOE_VSA_FPOL>
0.12934551

> <PEOE_VSA_FPOS>
0.31391007

> <PEOE_VSA_FPPOS>
0.026713941

> <PEOE_VSA_HYD>
272.76709

> <PEOE_VSA_NEG>
214.94492

> <PEOE_VSA_PNEG>
32.153416

> <PEOE_VSA_POL>
40.522617

> <PEOE_VSA_POS>
98.344788

> <PEOE_VSA_PPOS>
8.3692026

> <petitjean>
0.44444445

> <petitjeanSC>
0.80000001

> <Q_PC+>
0

> <Q_PC->
0

> <Q_RPC+>
0

> <Q_RPC->
0

> <Q_VSA_FHYD>
1

> <Q_VSA_FNEG>
0

> <Q_VSA_FPNEG>
0

> <Q_VSA_FPOL>
0

> <Q_VSA_FPOS>
1

> <Q_VSA_FPPOS>
0

> <Q_VSA_HYD>
313.2897

> <Q_VSA_NEG>
0

> <Q_VSA_PNEG>
0

> <Q_VSA_POL>
0

> <Q_VSA_POS>
313.2897

> <Q_VSA_PPOS>
0

> <radius>
5

> <reactive>
1

> <rings>
2

> <RPC+>
0

> <RPC->
0

> <rsynth>
1.0

> <SlogP>
1.3875

> <SlogP_VSA0>
47.69643

> <SlogP_VSA1>
114.35413

> <SlogP_VSA2>
16.834627

> <SlogP_VSA3>
0.0

> <SlogP_VSA4>
0.0

> <SlogP_VSA5>
3.1014678

> <SlogP_VSA6>
3.5006065

> <SlogP_VSA7>
35.286369

> <SlogP_VSA8>
0.0

> <SlogP_VSA9>
159.35132

> <SMR>
8.0847397

> <SMR_VSA0>
96.343376

> <SMR_VSA1>
0.0

> <SMR_VSA2>
19.506466

> <SMR_VSA3>
7.0537477

> <SMR_VSA4>
52.058933

> <SMR_VSA5>
35.286369

> <SMR_VSA6>
0.0

> <SMR_VSA7>
169.87607

> <TPSA>
118.36

> <VAdjEq>
0.46827638

> <VAdjMa>
5.4594316

> <VDistEq>
2.9635973

> <VDistMa>
8.5145626

> <vdw_area>
313.2897

> <vdw_vol>
352.20517

> <vsa_acc>
64.033043

> <vsa_acid>
0

> <vsa_base>
0

> <vsa_don>
33.892902

> <vsa_hyd>
169.53328

> <vsa_other>
31.401779

> <vsa_pol>
97.925949

> <Weight>
415.10501

> <weinerPath>
840

> <weinerPol>
37

> <zagreb>
118

$$$$
Row1733
 OpenBabel06061811532D

 69 73  0  0  1  0  0  0  0  0999 V2000
    0.0000    0.0000    0.0000 O   0  0  0  0  0  0  0  0  0  0  0  0
    0.0000    0.0000    0.0000 C   0  0  1  0  0  0  0  0  0  0  0  0
    0.0000    0.0000    0.0000 H   0  0  0  0  0  0  0  0  0  0  0  0
    0.0000    0.0000    0.0000 C   0  0  0  0  0  0  0  0  0  0  0  0
    0.0000    0.0000    0.0000 C   0  0  0  0  0  0  0  0  0  0  0  0
    0.0000    0.0000    0.0000 C   0  0  1  0  0  0  0  0  0  0  0  0
    0.0000    0.0000    0.0000 O   0  0  0  0  0  0  0  0  0  0  0  0
    0.0000    0.0000    0.0000 C   0  0  0  0  0  0  0  0  0  0  0  0
    0.0000    0.0000    0.0000 O   0  0  0  0  0  0  0  0  0  0  0  0
    0.0000    0.0000    0.0000 N   0  0  0  0  0  0  0  0  0  0  0  0
    0.0000    0.0000    0.0000 C   0  0  2  0  0  0  0  0  0  0  0  0
    0.0000    0.0000    0.0000 H   0  0  0  0  0  0  0  0  0  0  0  0
    0.0000    0.0000    0.0000 C   0  0  1  0  0  0  0  0  0  0  0  0
    0.0000    0.0000    0.0000 H   0  0  0  0  0  0  0  0  0  0  0  0
    0.0000    0.0000    0.0000 C   0  0  0  0  0  0  0  0  0  0  0  0
    0.0000    0.0000    0.0000 C   0  0  0  0  0  0  0  0  0  0  0  0
    0.0000    0.0000    0.0000 O   0  0  0  0  0  0  0  0  0  0  0  0
    0.0000    0.0000    0.0000 C   0  0  1  0  0  0  0  0  0  0  0  0
    0.0000    0.0000    0.0000 H   0  0  0  0  0  0  0  0  0  0  0  0
    0.0000    0.0000    0.0000 C   0  0  0  0  0  0  0  0  0  0  0  0
    0.0000    0.0000    0.0000 C   0  0  2  0  0  0  0  0  0  0  0  0
    0.0000    0.0000    0.0000 O   0  0  0  0  0  0  0  0  0  0  0  0
    0.0000    0.0000    0.0000 C   0  0  0  0  0  0  0  0  0  0  0  0
    0.0000    0.0000    0.0000 C   0  0  0  0  0  0  0  0  0  0  0  0
    0.0000    0.0000    0.0000 C   0  0  1  0  0  0  0  0  0  0  0  0
    0.0000    0.0000    0.0000 H   0  0  0  0  0  0  0  0  0  0  0  0
    0.0000    0.0000    0.0000 O   0  0  0  0  0  0  0  0  0  0  0  0
    0.0000    0.0000    0.0000 C   0  0  2  0  0  0  0  0  0  0  0  0
    0.0000    0.0000    0.0000 H   0  0  0  0  0  0  0  0  0  0  0  0
    0.0000    0.0000    0.0000 O   0  0  0  0  0  0  0  0  0  0  0  0
    0.0000    0.0000    0.0000 C   0  0  1  0  0  0  0  0  0  0  0  0
    0.0000    0.0000    0.0000 H   0  0  0  0  0  0  0  0  0  0  0  0
    0.0000    0.0000    0.0000 C   0  0  0  0  0  0  0  0  0  0  0  0
    0.0000    0.0000    0.0000 C   0  0  2  0  0  0  0  0  0  0  0  0
    0.0000    0.0000    0.0000 H   0  0  0  0  0  0  0  0  0  0  0  0
    0.0000    0.0000    0.0000 N   0  0  0  0  0  0  0  0  0  0  0  0
    0.0000    0.0000    0.0000 C   0  0  0  0  0  0  0  0  0  0  0  0
    0.0000    0.0000    0.0000 C   0  0  0  0  0  0  0  0  0  0  0  0
    0.0000    0.0000    0.0000 C   0  0  1  0  0  0  0  0  0  0  0  0
    0.0000    0.0000    0.0000 H   0  0  0  0  0  0  0  0  0  0  0  0
    0.0000    0.0000    0.0000 O   0  0  0  0  0  0  0  0  0  0  0  0
    0.0000    0.0000    0.0000 C   0  0  0  0  0  0  0  0  0  0  0  0
    0.0000    0.0000    0.0000 C   0  0  1  0  0  0  0  0  0  0  0  0
    0.0000    0.0000    0.0000 H   0  0  0  0  0  0  0  0  0  0  0  0
    0.0000    0.0000    0.0000 C   0  0  0  0  0  0  0  0  0  0  0  0
    0.0000    0.0000    0.0000 C   0  0  0  0  0  0  0  0  0  0  0  0
    0.0000    0.0000    0.0000 O   0  0  0  0  0  0  0  0  0  0  0  0
    0.0000    0.0000    0.0000 C   0  0  1  0  0  0  0  0  0  0  0  0
    0.0000    0.0000    0.0000 H   0  0  0  0  0  0  0  0  0  0  0  0
    0.0000    0.0000    0.0000 C   0  0  0  0  0  0  0  0  0  0  0  0
    0.0000    0.0000    0.0000 C   0  0  0  0  0  0  0  0  0  0  0  0
    0.0000    0.0000    0.0000 O   0  0  0  0  0  0  0  0  0  0  0  0
    0.0000    0.0000    0.0000 C   0  0  0  0  0  0  0  0  0  0  0  0
    0.0000    0.0000    0.0000 C   0  0  0  0  0  0  0  0  0  0  0  0
    0.0000    0.0000    0.0000 C   0  0  0  0  0  0  0  0  0  0  0  0
    0.0000    0.0000    0.0000 C   0  0  0  0  0  0  0  0  0  0  0  0
    0.0000    0.0000    0.0000 C   0  0  0  0  0  0  0  0  0  0  0  0
    0.0000    0.0000    0.0000 N   0  0  0  0  0  0  0  0  0  0  0  0
    0.0000    0.0000    0.0000 C   0  0  0  0  0  0  0  0  0  0  0  0
    0.0000    0.0000    0.0000 C   0  0  0  0  0  0  0  0  0  0  0  0
    0.0000    0.0000    0.0000 N   0  0  0  0  0  0  0  0  0  0  0  0
    0.0000    0.0000    0.0000 C   0  0  0  0  0  0  0  0  0  0  0  0
    0.0000    0.0000    0.0000 C   0  0  0  0  0  0  0  0  0  0  0  0
    0.0000    0.0000    0.0000 C   0  0  0  0  0  0  0  0  0  0  0  0
    0.0000    0.0000    0.0000 C   0  0  0  0  0  0  0  0  0  0  0  0
    0.0000    0.0000    0.0000 C   0  0  0  0  0  0  0  0  0  0  0  0
    0.0000    0.0000    0.0000 N   0  0  0  0  0  0  0  0  0  0  0  0
    0.0000    0.0000    0.0000 C   0  0  0  0  0  0  0  0  0  0  0  0
    0.0000    0.0000    0.0000 C   0  0  0  0  0  0  0  0  0  0  0  0
  1 51  1  0  0  0  0
  1  2  1  0  0  0  0
  2  3  1  0  0  0  0
  2  4  1  0  0  0  0
  2  6  1  0  0  0  0
  4  5  1  0  0  0  0
  6 11  1  0  0  0  0
  6  7  1  0  0  0  0
  6 69  1  0  0  0  0
  7  8  1  0  0  0  0
  8  9  2  0  0  0  0
  8 10  1  0  0  0  0
 10 11  1  0  0  0  0
 10 54  1  0  0  0  0
 11 12  1  0  0  0  0
 11 13  1  0  0  0  0
 13 14  1  0  0  0  0
 13 15  1  0  0  0  0
 13 16  1  0  0  0  0
 16 17  2  0  0  0  0
 16 18  1  0  0  0  0
 18 19  1  0  0  0  0
 18 20  1  0  0  0  0
 18 53  1  0  0  0  0
 20 21  1  0  0  0  0
 21 22  1  0  0  0  0
 21 24  1  0  0  0  0
 21 25  1  0  0  0  0
 22 23  1  0  0  0  0
 25 26  1  0  0  0  0
 25 27  1  0  0  0  0
 25 43  1  0  0  0  0
 27 28  1  0  0  0  0
 28 29  1  0  0  0  0
 28 39  1  0  0  0  0
 28 30  1  0  0  0  0
 30 31  1  0  0  0  0
 31 32  1  0  0  0  0
 31 33  1  0  0  0  0
 31 42  1  0  0  0  0
 33 34  1  0  0  0  0
 34 35  1  0  0  0  0
 34 36  1  0  0  0  0
 34 39  1  0  0  0  0
 36 37  1  0  0  0  0
 36 38  1  0  0  0  0
 39 40  1  0  0  0  0
 39 41  1  0  0  0  0
 43 44  1  0  0  0  0
 43 45  1  0  0  0  0
 43 46  1  0  0  0  0
 46 47  2  0  0  0  0
 46 48  1  0  0  0  0
 48 49  1  0  0  0  0
 48 50  1  0  0  0  0
 48 51  1  0  0  0  0
 51 52  2  0  0  0  0
 54 55  1  0  0  0  0
 55 56  1  0  0  0  0
 56 57  1  0  0  0  0
 57 58  1  0  0  0  0
 58 62  1  0  0  0  0
 58 59  1  0  0  0  0
 59 60  2  0  0  0  0
 60 61  1  0  0  0  0
 60 63  1  0  0  0  0
 61 62  2  0  0  0  0
 63 68  1  0  0  0  0
 63 64  2  0  0  0  0
 64 65  1  0  0  0  0
 65 66  2  0  0  0  0
 66 67  1  0  0  0  0
 67 68  2  0  0  0  0
M  END
> <Index>
1734

> <ID>
HT1994

> <class>
1

> <apol>
132.54155

> <ast_fraglike>
0

> <ast_fraglike_ext>
0

> <ast_violation>
3

> <ast_violation_ext>
5

> <a_acc>
11

> <a_acid>
0

> <a_aro>
11

> <a_base>
0

> <a_count>
123

> <a_don>
1

> <a_donacc>
12

> <a_heavy>
58

> <a_hyd>
37

> <a_IC>
184.31708

> <a_ICM>
1.4985127

> <a_nB>
0

> <a_nBr>
0

> <a_nC>
43

> <a_nCl>
0

> <a_nF>
0

> <a_nH>
65

> <a_nI>
0

> <a_nN>
5

> <a_nO>
10

> <a_nP>
0

> <a_nS>
0

> <balabanJ>
1.3848861

> <BCUT_PEOE_0>
-2.7985461

> <BCUT_PEOE_1>
-0.45565209

> <BCUT_PEOE_2>
0.3396036

> <BCUT_PEOE_3>
2.8477018

> <BCUT_SLOGP_0>
-2.9015496

> <BCUT_SLOGP_1>
-0.39489967

> <BCUT_SLOGP_2>
0.37055182

> <BCUT_SLOGP_3>
2.7690725

> <BCUT_SMR_0>
-2.5685315

> <BCUT_SMR_1>
-0.26394475

> <BCUT_SMR_2>
0.52599198

> <BCUT_SMR_3>
3.0716941

> <bpol>
93.050453

> <b_1rotN>
11

> <b_1rotR>
0.17741935

> <b_ar>
11

> <b_count>
127

> <b_double>
4

> <b_heavy>
62

> <b_max1len>
5

> <b_rotN>
11

> <b_rotR>
0.17741935

> <b_single>
112

> <b_triple>
0

> <chi0>
42.68914

> <chi0v>
36.122219

> <chi0v_C>
29.764702

> <chi0_C>
31.007343

> <chi1>
27.359154

> <chi1v>
20.765272

> <chi1v_C>
13.505831

> <chi1_C>
14.504508

> <chiral>
13

> <chiral_u>
0

> <density>
0.72740471

> <diameter>
24

> <FCharge>
0

> <GCUT_PEOE_0>
-0.85737401

> <GCUT_PEOE_1>
-0.34969071

> <GCUT_PEOE_2>
-0.061209247

> <GCUT_PEOE_3>
3.5018082

> <GCUT_SLOGP_0>
-0.97335792

> <GCUT_SLOGP_1>
-0.30023327

> <GCUT_SLOGP_2>
-0.011824756

> <GCUT_SLOGP_3>
3.4779046

> <GCUT_SMR_0>
-0.53309613

> <GCUT_SMR_1>
-0.19848204

> <GCUT_SMR_2>
0.096000351

> <GCUT_SMR_3>
3.7111921

> <Kier1>
49.022373

> <Kier2>
21.119093

> <Kier3>
11.03872

> <KierA1>
41.906742

> <KierA2>
18.002087

> <KierA3>
9.3910198

> <KierFlex>
13.00705

> <lip_acc>
15

> <lip_don>
1

> <lip_druglike>
0

> <lip_violation>
3

> <logP(o/w)>
3.8427401

> <logS>
-5.3373899

> <mr>
21.881191

> <mutagenic>
0

> <nmol>
1

> <opr_brigid>
35

> <opr_leadlike>
0

> <opr_nring>
4

> <opr_nrot>
25

> <opr_violation>
4

> <PC+>
0

> <PC->
0

> <PEOE_PC+>
5.1931467

> <PEOE_PC->
-5.1931467

> <PEOE_RPC+>
0.070142664

> <PEOE_RPC->
0.074177511

> <PEOE_VSA+0>
315.97845

> <PEOE_VSA+1>
105.51263

> <PEOE_VSA+2>
17.628834

> <PEOE_VSA+3>
19.613428

> <PEOE_VSA+4>
10.324173

> <PEOE_VSA+5>
14.708499

> <PEOE_VSA+6>
19.199511

> <PEOE_VSA-0>
189.48447

> <PEOE_VSA-1>
74.990707

> <PEOE_VSA-2>
0.0

> <PEOE_VSA-3>
0.0

> <PEOE_VSA-4>
19.249496

> <PEOE_VSA-5>
48.887096

> <PEOE_VSA-6>
17.782564

> <PEOE_VSA_FHYD>
0.84748363

> <PEOE_VSA_FNEG>
0.41060558

> <PEOE_VSA_FPNEG>
0.10068338

> <PEOE_VSA_FPOL>
0.15251635

> <PEOE_VSA_FPOS>
0.58939439

> <PEOE_VSA_FPPOS>
0.051832978

> <PEOE_VSA_HYD>
723.20856

> <PEOE_VSA_NEG>
350.39432

> <PEOE_VSA_PNEG>
85.919159

> <PEOE_VSA_POL>
130.15134

> <PEOE_VSA_POS>
502.96555

> <PEOE_VSA_PPOS>
44.232182

> <petitjean>
0.5

> <petitjeanSC>
1.0

> <Q_PC+>
0

> <Q_PC->
0

> <Q_RPC+>
0

> <Q_RPC->
0

> <Q_VSA_FHYD>
1

> <Q_VSA_FNEG>
0

> <Q_VSA_FPNEG>
0

> <Q_VSA_FPOL>
0

> <Q_VSA_FPOS>
1

> <Q_VSA_FPPOS>
0

> <Q_VSA_HYD>
853.35986

> <Q_VSA_NEG>
0

> <Q_VSA_PNEG>
0

> <Q_VSA_POL>
0

> <Q_VSA_POS>
853.35986

> <Q_VSA_PPOS>
0

> <radius>
12

> <reactive>
1

> <rings>
5

> <RPC+>
0

> <RPC->
0

> <rsynth>
0.63793105

> <SlogP>
5.1956

> <SlogP_VSA0>
25.385227

> <SlogP_VSA1>
68.156105

> <SlogP_VSA2>
168.95113

> <SlogP_VSA3>
18.439579

> <SlogP_VSA4>
17.643185

> <SlogP_VSA5>
101.17825

> <SlogP_VSA6>
0.0

> <SlogP_VSA7>
109.6573

> <SlogP_VSA8>
94.342026

> <SlogP_VSA9>
308.90991

> <SMR>
21.44558

> <SMR_VSA0>
150.4483

> <SMR_VSA1>
67.104004

> <SMR_VSA2>
17.643185

> <SMR_VSA3>
42.365036

> <SMR_VSA4>
5.9423227

> <SMR_VSA5>
216.49658

> <SMR_VSA6>
44.8769

> <SMR_VSA7>
367.78638

> <TPSA>
171.85001

> <VAdjEq>
0.2277095

> <VAdjMa>
6.9541965

> <VDistEq>
4.2529845

> <VDistMa>
11.439185

> <vdw_area>
853.35986

> <vdw_vol>
1116.3221

> <vsa_acc>
73.144104

> <vsa_acid>
0

> <vsa_base>
0

> <vsa_don>
0.0

> <vsa_hyd>
615.85736

> <vsa_other>
95.331581

> <vsa_pol>
86.711021

> <Weight>
812.01801

> <weinerPath>
14388

> <weinerPol>
109

> <zagreb>
308

$$$$
Row1734
 OpenBabel06061811532D

 14 15  0  0  0  0  0  0  0  0999 V2000
    0.0000    0.0000    0.0000 O   0  0  0  0  0  0  0  0  0  0  0  0
    0.0000    0.0000    0.0000 C   0  0  0  0  0  0  0  0  0  0  0  0
    0.0000    0.0000    0.0000 N   0  0  0  0  0  0  0  0  0  0  0  0
    0.0000    0.0000    0.0000 C   0  0  0  0  0  0  0  0  0  0  0  0
    0.0000    0.0000    0.0000 N   0  0  0  0  0  0  0  0  0  0  0  0
    0.0000    0.0000    0.0000 N   0  0  0  0  0  0  0  0  0  0  0  0
    0.0000    0.0000    0.0000 N   0  0  0  0  0  0  0  0  0  0  0  0
    0.0000    0.0000    0.0000 C   0  0  0  0  0  0  0  0  0  0  0  0
    0.0000    0.0000    0.0000 C   0  0  0  0  0  0  0  0  0  0  0  0
    0.0000    0.0000    0.0000 N   0  0  0  0  0  0  0  0  0  0  0  0
    0.0000    0.0000    0.0000 C   0  0  0  0  0  0  0  0  0  0  0  0
    0.0000    0.0000    0.0000 C   0  0  0  0  0  0  0  0  0  0  0  0
    0.0000    0.0000    0.0000 O   0  0  0  0  0  0  0  0  0  0  0  0
    0.0000    0.0000    0.0000 N   0  0  0  0  0  0  0  0  0  0  0  0
  1  2  2  0  0  0  0
  2  7  1  0  0  0  0
  2  3  1  0  0  0  0
  3 11  1  0  0  0  0
  3  4  1  0  0  0  0
  4  5  1  0  0  0  0
  4  9  2  0  0  0  0
  5  6  2  0  0  0  0
  6  7  1  0  0  0  0
  7  8  1  0  0  0  0
  9 10  1  0  0  0  0
  9 12  1  0  0  0  0
 10 11  2  0  0  0  0
 12 13  2  0  0  0  0
 12 14  1  0  0  0  0
M  END
> <Index>
1735

> <ID>
HT1999

> <class>
1

> <apol>
22.764757

> <ast_fraglike>
0

> <ast_fraglike_ext>
0

> <ast_violation>
1

> <ast_violation_ext>
2

> <a_acc>
5

> <a_acid>
0

> <a_aro>
5

> <a_base>
0

> <a_count>
20

> <a_don>
1

> <a_donacc>
6

> <a_heavy>
14

> <a_hyd>
2

> <a_IC>
37.909237

> <a_ICM>
1.8954618

> <a_nB>
0

> <a_nBr>
0

> <a_nC>
6

> <a_nCl>
0

> <a_nF>
0

> <a_nH>
6

> <a_nI>
0

> <a_nN>
6

> <a_nO>
2

> <a_nP>
0

> <a_nS>
0

> <balabanJ>
2.0964444

> <BCUT_PEOE_0>
-2.3117256

> <BCUT_PEOE_1>
-0.57917488

> <BCUT_PEOE_2>
0.53802127

> <BCUT_PEOE_3>
2.3490908

> <BCUT_SLOGP_0>
-2.4648359

> <BCUT_SLOGP_1>
-0.5487482

> <BCUT_SLOGP_2>
0.6135903

> <BCUT_SLOGP_3>
2.2837815

> <BCUT_SMR_0>
-2.0518866

> <BCUT_SMR_1>
-0.33945331

> <BCUT_SMR_2>
0.81510592

> <BCUT_SMR_3>
2.6129463

> <bpol>
13.095242

> <b_1rotN>
1

> <b_1rotR>
0.06666667

> <b_ar>
5

> <b_count>
21

> <b_double>
3

> <b_heavy>
15

> <b_max1len>
2

> <b_rotN>
1

> <b_rotR>
0.06666667

> <b_single>
13

> <b_triple>
0

> <chi0>
10.292529

> <chi0v>
7.2072649

> <chi0v_C>
3.5773504

> <chi0_C>
4.0165076

> <chi1>
6.6090608

> <chi1v>
3.6785688

> <chi1v_C>
0.5

> <chi1_C>
0.66666669

> <chiral>
0

> <chiral_u>
0

> <density>
0.91476196

> <diameter>
7

> <FCharge>
0

> <GCUT_PEOE_0>
-0.81360424

> <GCUT_PEOE_1>
-0.48484185

> <GCUT_PEOE_2>
0.04582046

> <GCUT_PEOE_3>
2.1574302

> <GCUT_SLOGP_0>
-1.3702914

> <GCUT_SLOGP_1>
-0.37046179

> <GCUT_SLOGP_2>
0.15226129

> <GCUT_SLOGP_3>
2.1368628

> <GCUT_SMR_0>
-0.48815021

> <GCUT_SMR_1>
-0.21639703

> <GCUT_SMR_2>
0.24842151

> <GCUT_SMR_3>
2.4171011

> <Kier1>
10.515555

> <Kier2>
3.8677685

> <Kier3>
1.76

> <KierA1>
6.4362373

> <KierA2>
2.2661221

> <KierA3>
0.99689209

> <KierFlex>
1.0418072

> <lip_acc>
8

> <lip_don>
2

> <lip_druglike>
1

> <lip_violation>
0

> <logP(o/w)>
-2.72

> <logS>
-1.05165

> <mr>
4.3889751

> <mutagenic>
1

> <nmol>
1

> <opr_brigid>
10

> <opr_leadlike>
1

> <opr_nring>
2

> <opr_nrot>
1

> <opr_violation>
0

> <PC+>
0

> <PC->
0

> <PEOE_PC+>
1.7034591

> <PEOE_PC->
-1.7034591

> <PEOE_RPC+>
0.2073575

> <PEOE_RPC->
0.21397753

> <PEOE_VSA+0>
36.034847

> <PEOE_VSA+1>
0.0

> <PEOE_VSA+2>
25.502314

> <PEOE_VSA+3>
35.128139

> <PEOE_VSA+4>
0.0

> <PEOE_VSA+5>
12.949531

> <PEOE_VSA+6>
17.440542

> <PEOE_VSA-0>
0.0

> <PEOE_VSA-1>
13.159503

> <PEOE_VSA-2>
9.4210396

> <PEOE_VSA-3>
0.0

> <PEOE_VSA-4>
19.249496

> <PEOE_VSA-5>
13.566921

> <PEOE_VSA-6>
6.6511192

> <PEOE_VSA_FHYD>
0.63058519

> <PEOE_VSA_FNEG>
0.3281171

> <PEOE_VSA_FPNEG>
0.2087087

> <PEOE_VSA_FPOL>
0.36941478

> <PEOE_VSA_FPOS>
0.67188287

> <PEOE_VSA_FPPOS>
0.16070607

> <PEOE_VSA_HYD>
119.24584

> <PEOE_VSA_NEG>
62.04808

> <PEOE_VSA_PNEG>
39.467537

> <PEOE_VSA_POL>
69.857613

> <PEOE_VSA_POS>
127.05537

> <PEOE_VSA_PPOS>
30.390074

> <petitjean>
0.42857143

> <petitjeanSC>
0.75

> <Q_PC+>
0

> <Q_PC->
0

> <Q_RPC+>
0

> <Q_RPC->
0

> <Q_VSA_FHYD>
1

> <Q_VSA_FNEG>
0

> <Q_VSA_FPNEG>
0

> <Q_VSA_FPOL>
0

> <Q_VSA_FPOS>
1

> <Q_VSA_FPPOS>
0

> <Q_VSA_HYD>
189.10345

> <Q_VSA_NEG>
0

> <Q_VSA_PNEG>
0

> <Q_VSA_POL>
0

> <Q_VSA_POS>
189.10345

> <Q_VSA_PPOS>
0

> <radius>
4

> <reactive>
0

> <rings>
2

> <RPC+>
0

> <RPC->
0

> <rsynth>
1.0

> <SlogP>
-0.1058

> <SlogP_VSA0>
32.897186

> <SlogP_VSA1>
31.775154

> <SlogP_VSA2>
0.0

> <SlogP_VSA3>
0.0

> <SlogP_VSA4>
26.618963

> <SlogP_VSA5>
66.100677

> <SlogP_VSA6>
0.0

> <SlogP_VSA7>
16.78553

> <SlogP_VSA8>
0.0

> <SlogP_VSA9>
26.190136

> <SMR>
4.3817902

> <SMR_VSA0>
47.724434

> <SMR_VSA1>
54.889908

> <SMR_VSA2>
0.0

> <SMR_VSA3>
2.7567475

> <SMR_VSA4>
35.225109

> <SMR_VSA5>
16.78553

> <SMR_VSA6>
10.088739

> <SMR_VSA7>
32.897186

> <TPSA>
105.94

> <VAdjEq>
0.61744827

> <VAdjMa>
4.9068904

> <VDistEq>
2.5307083

> <VDistMa>
7.329134

> <vdw_area>
189.10345

> <vdw_vol>
212.24538

> <vsa_acc>
55.396961

> <vsa_acid>
0

> <vsa_base>
0

> <vsa_don>
17.742489

> <vsa_hyd>
40.59901

> <vsa_other>
66.371155

> <vsa_pol>
73.13945

> <Weight>
194.15399

> <weinerPath>
277

> <weinerPol>
22

> <zagreb>
74

$$$$
Row1735
 OpenBabel06061811532D

 22 23  0  0  0  0  0  0  0  0999 V2000
    0.0000    0.0000    0.0000 N   0  0  0  0  0  0  0  0  0  0  0  0
    0.0000    0.0000    0.0000 C   0  0  0  0  0  0  0  0  0  0  0  0
    0.0000    0.0000    0.0000 C   0  0  0  0  0  0  0  0  0  0  0  0
    0.0000    0.0000    0.0000 C   0  0  0  0  0  0  0  0  0  0  0  0
    0.0000    0.0000    0.0000 C   0  0  0  0  0  0  0  0  0  0  0  0
    0.0000    0.0000    0.0000 C   0  0  0  0  0  0  0  0  0  0  0  0
    0.0000    0.0000    0.0000 C   0  0  0  0  0  0  0  0  0  0  0  0
    0.0000    0.0000    0.0000 C   0  0  0  0  0  0  0  0  0  0  0  0
    0.0000    0.0000    0.0000 C   0  0  0  0  0  0  0  0  0  0  0  0
    0.0000    0.0000    0.0000 C   0  0  0  0  0  0  0  0  0  0  0  0
    0.0000    0.0000    0.0000 C   0  0  0  0  0  0  0  0  0  0  0  0
    0.0000    0.0000    0.0000 C   0  0  0  0  0  0  0  0  0  0  0  0
    0.0000    0.0000    0.0000 C   0  0  0  0  0  0  0  0  0  0  0  0
    0.0000    0.0000    0.0000 C   0  0  0  0  0  0  0  0  0  0  0  0
    0.0000    0.0000    0.0000 C   0  0  0  0  0  0  0  0  0  0  0  0
    0.0000    0.0000    0.0000 C   0  0  0  0  0  0  0  0  0  0  0  0
    0.0000    0.0000    0.0000 C   0  0  0  0  0  0  0  0  0  0  0  0
    0.0000    0.0000    0.0000 C   0  0  0  0  0  0  0  0  0  0  0  0
    0.0000    0.0000    0.0000 C   0  0  0  0  0  0  0  0  0  0  0  0
    0.0000    0.0000    0.0000 C   0  0  0  0  0  0  0  0  0  0  0  0
    0.0000    0.0000    0.0000 C   0  0  0  0  0  0  0  0  0  0  0  0
    0.0000    0.0000    0.0000 C   0  0  0  0  0  0  0  0  0  0  0  0
  1  2  1  0  0  0  0
  1 13  1  0  0  0  0
  1 22  1  0  0  0  0
  2  3  1  0  0  0  0
  3  8  1  0  0  0  0
  3  4  2  0  0  0  0
  4 12  1  0  0  0  0
  4  5  1  0  0  0  0
  5  6  2  0  0  0  0
  5  9  1  0  0  0  0
  6  7  1  0  0  0  0
  7  8  2  0  0  0  0
  9 10  2  0  0  0  0
 10 11  1  0  0  0  0
 11 12  2  0  0  0  0
 13 14  1  0  0  0  0
 14 15  2  3  0  0  0
 15 16  1  0  0  0  0
 16 17  3  0  0  0  0
 17 18  1  0  0  0  0
 18 19  1  0  0  0  0
 18 20  1  0  0  0  0
 18 21  1  0  0  0  0
M  END
> <Index>
1736

> <ID>
HT2008

> <class>
1

> <apol>
54.729824

> <ast_fraglike>
0

> <ast_fraglike_ext>
0

> <ast_violation>
1

> <ast_violation_ext>
2

> <a_acc>
1

> <a_acid>
0

> <a_aro>
10

> <a_base>
0

> <a_count>
47

> <a_don>
0

> <a_donacc>
1

> <a_heavy>
22

> <a_hyd>
21

> <a_IC>
52.730606

> <a_ICM>
1.1219277

> <a_nB>
0

> <a_nBr>
0

> <a_nC>
21

> <a_nCl>
0

> <a_nF>
0

> <a_nH>
25

> <a_nI>
0

> <a_nN>
1

> <a_nO>
0

> <a_nP>
0

> <a_nS>
0

> <balabanJ>
1.6287897

> <BCUT_PEOE_0>
-2.5827093

> <BCUT_PEOE_1>
-0.50112957

> <BCUT_PEOE_2>
0.56208348

> <BCUT_PEOE_3>
2.5509012

> <BCUT_SLOGP_0>
-2.5866084

> <BCUT_SLOGP_1>
-0.3896814

> <BCUT_SLOGP_2>
0.67188048

> <BCUT_SLOGP_3>
2.6573012

> <BCUT_SMR_0>
-2.3413632

> <BCUT_SMR_1>
-0.35460404

> <BCUT_SMR_2>
0.71233416

> <BCUT_SMR_3>
2.7948077

> <bpol>
29.310175

> <b_1rotN>
5

> <b_1rotR>
0.2173913

> <b_ar>
11

> <b_count>
48

> <b_double>
1

> <b_heavy>
23

> <b_max1len>
5

> <b_rotN>
6

> <b_rotR>
0.26086956

> <b_single>
35

> <b_triple>
1

> <chi0>
16.001789

> <chi0v>
14.05758

> <chi0v_C>
13.610366

> <chi0_C>
15.424439

> <chi1>
10.455308

> <chi1v>
7.7848463

> <chi1v_C>
6.7051773

> <chi1_C>
9.0614614

> <chiral>
0

> <chiral_u>
0

> <density>
0.62033701

> <diameter>
13

> <FCharge>
0

> <GCUT_PEOE_0>
-0.85121781

> <GCUT_PEOE_1>
-0.33782595

> <GCUT_PEOE_2>
0.039845008

> <GCUT_PEOE_3>
2.5436339

> <GCUT_SLOGP_0>
-0.92403489

> <GCUT_SLOGP_1>
-0.24159634

> <GCUT_SLOGP_2>
0.12855914

> <GCUT_SLOGP_3>
2.6759422

> <GCUT_SMR_0>
-0.52495325

> <GCUT_SMR_1>
-0.16900341

> <GCUT_SMR_2>
0.15448223

> <GCUT_SMR_3>
2.8387513

> <Kier1>
18.340265

> <Kier2>
8.7408953

> <Kier3>
6.5743942

> <KierA1>
13.648394

> <KierA2>
6.405827

> <KierA3>
4.7647057

> <KierFlex>
3.9740567

> <lip_acc>
1

> <lip_don>
0

> <lip_druglike>
1

> <lip_violation>
1

> <logP(o/w)>
5.8920002

> <logS>
-6.4347401

> <mr>
9.4921532

> <mutagenic>
0

> <nmol>
1

> <opr_brigid>
13

> <opr_leadlike>
1

> <opr_nring>
2

> <opr_nrot>
6

> <opr_violation>
1

> <PC+>
0

> <PC->
0

> <PEOE_PC+>
1.1570259

> <PEOE_PC->
-1.1570259

> <PEOE_RPC+>
0.06129564

> <PEOE_RPC->
0.25714356

> <PEOE_VSA+0>
94.630829

> <PEOE_VSA+1>
38.388474

> <PEOE_VSA+2>
0.0

> <PEOE_VSA+3>
0.0

> <PEOE_VSA+4>
0.0

> <PEOE_VSA+5>
0.0

> <PEOE_VSA+6>
0.0

> <PEOE_VSA-0>
98.362244

> <PEOE_VSA-1>
129.65622

> <PEOE_VSA-2>
0.0

> <PEOE_VSA-3>
0.0

> <PEOE_VSA-4>
0.0

> <PEOE_VSA-5>
0.0

> <PEOE_VSA-6>
0.0

> <PEOE_VSA_FHYD>
1.0

> <PEOE_VSA_FNEG>
0.63156402

> <PEOE_VSA_FPNEG>
0.0

> <PEOE_VSA_FPOL>
0.0

> <PEOE_VSA_FPOS>
0.36843598

> <PEOE_VSA_FPPOS>
0.0

> <PEOE_VSA_HYD>
361.03775

> <PEOE_VSA_NEG>
228.01846

> <PEOE_VSA_PNEG>
0.0

> <PEOE_VSA_POL>
0.0

> <PEOE_VSA_POS>
133.0193

> <PEOE_VSA_PPOS>
0.0

> <petitjean>
0.46153846

> <petitjeanSC>
0.85714287

> <Q_PC+>
0

> <Q_PC->
0

> <Q_RPC+>
0

> <Q_RPC->
0

> <Q_VSA_FHYD>
1

> <Q_VSA_FNEG>
0

> <Q_VSA_FPNEG>
0

> <Q_VSA_FPOL>
0

> <Q_VSA_FPOS>
1

> <Q_VSA_FPPOS>
0

> <Q_VSA_HYD>
361.03775

> <Q_VSA_NEG>
0

> <Q_VSA_PNEG>
0

> <Q_VSA_POL>
0

> <Q_VSA_POS>
361.03775

> <Q_VSA_PPOS>
0

> <radius>
7

> <reactive>
0

> <rings>
2

> <RPC+>
0

> <RPC->
0

> <rsynth>
0.5

> <SlogP>
5.1437082

> <SlogP_VSA0>
0.0

> <SlogP_VSA1>
3.1243138

> <SlogP_VSA2>
0.0

> <SlogP_VSA3>
52.500725

> <SlogP_VSA4>
3.185575

> <SlogP_VSA5>
32.897186

> <SlogP_VSA6>
0.0

> <SlogP_VSA7>
163.93459

> <SlogP_VSA8>
0.0

> <SlogP_VSA9>
118.41763

> <SMR>
9.6857996

> <SMR_VSA0>
0.0

> <SMR_VSA1>
3.1243138

> <SMR_VSA2>
0.0

> <SMR_VSA3>
37.246723

> <SMR_VSA4>
5.1459289

> <SMR_VSA5>
177.22824

> <SMR_VSA6>
18.439579

> <SMR_VSA7>
132.87523

> <TPSA>
3.24

> <VAdjEq>
0.4530769

> <VAdjMa>
5.523562

> <VDistEq>
3.555872

> <VDistMa>
8.5747614

> <vdw_area>
361.03775

> <vdw_vol>
469.80591

> <vsa_acc>
0.0

> <vsa_acid>
0

> <vsa_base>
0

> <vsa_don>
0.0

> <vsa_hyd>
343.24289

> <vsa_other>
0.0

> <vsa_pol>
0.0

> <Weight>
291.43799

> <weinerPath>
1273

> <weinerPol>
28

> <zagreb>
108

$$$$
Row1736
 OpenBabel06061811532D

 35 38  0  0  1  0  0  0  0  0999 V2000
    0.0000    0.0000    0.0000 O   0  0  0  0  0  0  0  0  0  0  0  0
    0.0000    0.0000    0.0000 C   0  0  3  0  0  0  0  0  0  0  0  0
    0.0000    0.0000    0.0000 C   0  0  3  0  0  0  0  0  0  0  0  0
    0.0000    0.0000    0.0000 C   0  0  0  0  0  0  0  0  0  0  0  0
    0.0000    0.0000    0.0000 C   0  0  0  0  0  0  0  0  0  0  0  0
    0.0000    0.0000    0.0000 N   0  0  0  0  0  0  0  0  0  0  0  0
    0.0000    0.0000    0.0000 C   0  0  0  0  0  0  0  0  0  0  0  0
    0.0000    0.0000    0.0000 C   0  0  0  0  0  0  0  0  0  0  0  0
    0.0000    0.0000    0.0000 C   0  0  0  0  0  0  0  0  0  0  0  0
    0.0000    0.0000    0.0000 C   0  0  0  0  0  0  0  0  0  0  0  0
    0.0000    0.0000    0.0000 C   0  0  0  0  0  0  0  0  0  0  0  0
    0.0000    0.0000    0.0000 C   0  0  3  0  0  0  0  0  0  0  0  0
    0.0000    0.0000    0.0000 O   0  0  0  0  0  0  0  0  0  0  0  0
    0.0000    0.0000    0.0000 C   0  0  0  0  0  0  0  0  0  0  0  0
    0.0000    0.0000    0.0000 C   0  0  0  0  0  0  0  0  0  0  0  0
    0.0000    0.0000    0.0000 C   0  0  0  0  0  0  0  0  0  0  0  0
    0.0000    0.0000    0.0000 C   0  0  0  0  0  0  0  0  0  0  0  0
    0.0000    0.0000    0.0000 C   0  0  0  0  0  0  0  0  0  0  0  0
    0.0000    0.0000    0.0000 C   0  0  0  0  0  0  0  0  0  0  0  0
    0.0000    0.0000    0.0000 C   0  0  0  0  0  0  0  0  0  0  0  0
    0.0000    0.0000    0.0000 C   0  0  0  0  0  0  0  0  0  0  0  0
    0.0000    0.0000    0.0000 C   0  0  0  0  0  0  0  0  0  0  0  0
    0.0000    0.0000    0.0000 C   0  0  0  0  0  0  0  0  0  0  0  0
    0.0000    0.0000    0.0000 C   0  0  0  0  0  0  0  0  0  0  0  0
    0.0000    0.0000    0.0000 C   0  0  0  0  0  0  0  0  0  0  0  0
    0.0000    0.0000    0.0000 C   0  0  0  0  0  0  0  0  0  0  0  0
    0.0000    0.0000    0.0000 C   0  0  0  0  0  0  0  0  0  0  0  0
    0.0000    0.0000    0.0000 C   0  0  0  0  0  0  0  0  0  0  0  0
    0.0000    0.0000    0.0000 C   0  0  0  0  0  0  0  0  0  0  0  0
    0.0000    0.0000    0.0000 C   0  0  0  0  0  0  0  0  0  0  0  0
    0.0000    0.0000    0.0000 C   0  0  0  0  0  0  0  0  0  0  0  0
    0.0000    0.0000    0.0000 C   0  0  0  0  0  0  0  0  0  0  0  0
    0.0000    0.0000    0.0000 C   0  0  0  0  0  0  0  0  0  0  0  0
    0.0000    0.0000    0.0000 C   0  0  0  0  0  0  0  0  0  0  0  0
    0.0000    0.0000    0.0000 C   0  0  0  0  0  0  0  0  0  0  0  0
  1  2  1  0  0  0  0
  2  3  1  0  0  0  0
  2 24  1  0  0  0  0
  2 30  1  0  0  0  0
  3  8  1  0  0  0  0
  3  4  1  0  0  0  0
  4  5  1  0  0  0  0
  5  6  1  0  0  0  0
  6  7  1  0  0  0  0
  6  9  1  0  0  0  0
  7  8  1  0  0  0  0
  9 10  1  0  0  0  0
 10 11  1  0  0  0  0
 11 12  1  0  0  0  0
 12 13  1  0  0  0  0
 12 14  1  0  0  0  0
 14 19  1  0  0  0  0
 14 15  2  0  0  0  0
 15 16  1  0  0  0  0
 16 17  2  0  0  0  0
 17 18  1  0  0  0  0
 17 20  1  0  0  0  0
 18 19  2  0  0  0  0
 20 21  1  0  0  0  0
 20 22  1  0  0  0  0
 20 23  1  0  0  0  0
 24 29  1  0  0  0  0
 24 25  2  0  0  0  0
 25 26  1  0  0  0  0
 26 27  2  0  0  0  0
 27 28  1  0  0  0  0
 28 29  2  0  0  0  0
 30 35  1  0  0  0  0
 30 31  2  0  0  0  0
 31 32  1  0  0  0  0
 32 33  2  0  0  0  0
 33 34  1  0  0  0  0
 34 35  2  0  0  0  0
M  END
> <Index>
1737

> <ID>
HT2011

> <class>
1

> <apol>
86.362511

> <ast_fraglike>
0

> <ast_fraglike_ext>
0

> <ast_violation>
2

> <ast_violation_ext>
3

> <a_acc>
3

> <a_acid>
0

> <a_aro>
18

> <a_base>
0

> <a_count>
76

> <a_don>
2

> <a_donacc>
5

> <a_heavy>
35

> <a_hyd>
32

> <a_IC>
93.182861

> <a_ICM>
1.2260902

> <a_nB>
0

> <a_nBr>
0

> <a_nC>
32

> <a_nCl>
0

> <a_nF>
0

> <a_nH>
41

> <a_nI>
0

> <a_nN>
1

> <a_nO>
2

> <a_nP>
0

> <a_nS>
0

> <balabanJ>
1.2119783

> <BCUT_PEOE_0>
-2.820482

> <BCUT_PEOE_1>
-0.59363723

> <BCUT_PEOE_2>
0.67953497

> <BCUT_PEOE_3>
2.7650664

> <BCUT_SLOGP_0>
-2.8225222

> <BCUT_SLOGP_1>
-0.53807992

> <BCUT_SLOGP_2>
0.68898416

> <BCUT_SLOGP_3>
2.8135087

> <BCUT_SMR_0>
-2.5578883

> <BCUT_SMR_1>
-0.47783536

> <BCUT_SMR_2>
0.77868146

> <BCUT_SMR_3>
3.0207274

> <bpol>
46.801487

> <b_1rotN>
8

> <b_1rotR>
0.21052632

> <b_ar>
18

> <b_count>
79

> <b_double>
0

> <b_heavy>
38

> <b_max1len>
6

> <b_rotN>
9

> <b_rotR>
0.23684211

> <b_single>
61

> <b_triple>
0

> <chi0>
24.890694

> <chi0v>
21.528992

> <chi0v_C>
20.187351

> <chi0_C>
22.313345

> <chi1>
16.780861

> <chi1v>
13.125319

> <chi1v_C>
11.69483

> <chi1_C>
14.478765

> <chiral>
1

> <chiral_u>
1

> <density>
0.65341425

> <diameter>
18

> <FCharge>
0

> <GCUT_PEOE_0>
-0.858226

> <GCUT_PEOE_1>
-0.38845897

> <GCUT_PEOE_2>
0.079518102

> <GCUT_PEOE_3>
3.0230205

> <GCUT_SLOGP_0>
-0.95248961

> <GCUT_SLOGP_1>
-0.26386139

> <GCUT_SLOGP_2>
0.13851997

> <GCUT_SLOGP_3>
3.10993

> <GCUT_SMR_0>
-0.53071481

> <GCUT_SMR_1>
-0.21605732

> <GCUT_SMR_2>
0.19305076

> <GCUT_SMR_3>
3.2715821

> <Kier1>
28.01939

> <Kier2>
12.697531

> <Kier3>
7.1053061

> <KierA1>
22.671007

> <KierA2>
10.206285

> <KierA3>
5.6840401

> <KierFlex>
6.6110501

> <lip_acc>
3

> <lip_don>
2

> <lip_druglike>
1

> <lip_violation>
1

> <logP(o/w)>
7.6529999

> <logS>
-7.43888

> <mr>
14.533075

> <mutagenic>
0

> <nmol>
1

> <opr_brigid>
24

> <opr_leadlike>
0

> <opr_nring>
4

> <opr_nrot>
11

> <opr_violation>
3

> <PC+>
0

> <PC->
0

> <PEOE_PC+>
2.2827954

> <PEOE_PC->
-2.2827954

> <PEOE_RPC+>
0.09247008

> <PEOE_RPC->
0.16960853

> <PEOE_VSA+0>
102.36926

> <PEOE_VSA+1>
68.885719

> <PEOE_VSA+2>
0.0

> <PEOE_VSA+3>
0.0

> <PEOE_VSA+4>
20.648346

> <PEOE_VSA+5>
0.0

> <PEOE_VSA+6>
0.0

> <PEOE_VSA-0>
83.216385

> <PEOE_VSA-1>
227.81169

> <PEOE_VSA-2>
0.0

> <PEOE_VSA-3>
0.0

> <PEOE_VSA-4>
0.0

> <PEOE_VSA-5>
0.0

> <PEOE_VSA-6>
15.535081

> <PEOE_VSA_FHYD>
0.93021065

> <PEOE_VSA_FNEG>
0.62986356

> <PEOE_VSA_FPNEG>
0.029963519

> <PEOE_VSA_FPOL>
0.069789328

> <PEOE_VSA_FPOS>
0.37013641

> <PEOE_VSA_FPPOS>
0.039825805

> <PEOE_VSA_HYD>
482.28305

> <PEOE_VSA_NEG>
326.56314

> <PEOE_VSA_PNEG>
15.535081

> <PEOE_VSA_POL>
36.183426

> <PEOE_VSA_POS>
191.90334

> <PEOE_VSA_PPOS>
20.648346

> <petitjean>
0.5

> <petitjeanSC>
1.0

> <Q_PC+>
0

> <Q_PC->
0

> <Q_RPC+>
0

> <Q_RPC->
0

> <Q_VSA_FHYD>
1

> <Q_VSA_FNEG>
0

> <Q_VSA_FPNEG>
0

> <Q_VSA_FPOL>
0

> <Q_VSA_FPOS>
1

> <Q_VSA_FPPOS>
0

> <Q_VSA_HYD>
518.46649

> <Q_VSA_NEG>
0

> <Q_VSA_PNEG>
0

> <Q_VSA_POL>
0

> <Q_VSA_POS>
518.46649

> <Q_VSA_PPOS>
0

> <radius>
9

> <reactive>
0

> <rings>
4

> <RPC+>
0

> <RPC->
0

> <rsynth>
1.0

> <SlogP>
6.8527999

> <SlogP_VSA0>
50.770454

> <SlogP_VSA1>
3.1243138

> <SlogP_VSA2>
0.0

> <SlogP_VSA3>
55.318733

> <SlogP_VSA4>
17.153095

> <SlogP_VSA5>
0.0

> <SlogP_VSA6>
0.0

> <SlogP_VSA7>
247.00458

> <SlogP_VSA8>
81.942268

> <SlogP_VSA9>
99.978043

> <SMR>
14.46106

> <SMR_VSA0>
0.0

> <SMR_VSA1>
53.894768

> <SMR_VSA2>
4.4107962

> <SMR_VSA3>
19.210949

> <SMR_VSA4>
0.0

> <SMR_VSA5>
322.47821

> <SMR_VSA6>
55.318733

> <SMR_VSA7>
99.978043

> <TPSA>
43.700001

> <VAdjEq>
0.33549348

> <VAdjMa>
6.2479277

> <VDistEq>
4.0224085

> <VDistMa>
9.9237289

> <vdw_area>
518.46649

> <vdw_vol>
721.87744

> <vsa_acc>
0.0

> <vsa_acid>
0

> <vsa_base>
0

> <vsa_don>
0.0

> <vsa_hyd>
453.17798

> <vsa_other>
0.0

> <vsa_pol>
27.133842

> <Weight>
471.685

> <weinerPath>
4424

> <weinerPol>
58

> <zagreb>
184

$$$$
Row1737
 OpenBabel06061811532D

 25 28  0  0  1  0  0  0  0  0999 V2000
    0.0000    0.0000    0.0000 O   0  0  0  0  0  0  0  0  0  0  0  0
    0.0000    0.0000    0.0000 C   0  0  0  0  0  0  0  0  0  0  0  0
    0.0000    0.0000    0.0000 C   0  0  0  0  0  0  0  0  0  0  0  0
    0.0000    0.0000    0.0000 C   0  0  0  0  0  0  0  0  0  0  0  0
    0.0000    0.0000    0.0000 C   0  0  2  0  0  0  0  0  0  0  0  0
    0.0000    0.0000    0.0000 C   0  0  2  0  0  0  0  0  0  0  0  0
    0.0000    0.0000    0.0000 H   0  0  0  0  0  0  0  0  0  0  0  0
    0.0000    0.0000    0.0000 C   0  0  2  0  0  0  0  0  0  0  0  0
    0.0000    0.0000    0.0000 H   0  0  0  0  0  0  0  0  0  0  0  0
    0.0000    0.0000    0.0000 C   0  0  2  0  0  0  0  0  0  0  0  0
    0.0000    0.0000    0.0000 H   0  0  0  0  0  0  0  0  0  0  0  0
    0.0000    0.0000    0.0000 C   0  0  0  0  0  0  0  0  0  0  0  0
    0.0000    0.0000    0.0000 C   0  0  0  0  0  0  0  0  0  0  0  0
    0.0000    0.0000    0.0000 C   0  0  2  0  0  0  0  0  0  0  0  0
    0.0000    0.0000    0.0000 H   0  0  0  0  0  0  0  0  0  0  0  0
    0.0000    0.0000    0.0000 O   0  0  0  0  0  0  0  0  0  0  0  0
    0.0000    0.0000    0.0000 C   0  0  1  0  0  0  0  0  0  0  0  0
    0.0000    0.0000    0.0000 C   0  0  0  0  0  0  0  0  0  0  0  0
    0.0000    0.0000    0.0000 C   0  0  0  0  0  0  0  0  0  0  0  0
    0.0000    0.0000    0.0000 C   0  0  0  0  0  0  0  0  0  0  0  0
    0.0000    0.0000    0.0000 C   0  0  0  0  0  0  0  0  0  0  0  0
    0.0000    0.0000    0.0000 C   0  0  0  0  0  0  0  0  0  0  0  0
    0.0000    0.0000    0.0000 C   0  0  0  0  0  0  0  0  0  0  0  0
    0.0000    0.0000    0.0000 C   0  0  0  0  0  0  0  0  0  0  0  0
    0.0000    0.0000    0.0000 C   0  0  0  0  0  0  0  0  0  0  0  0
  1  2  2  0  0  0  0
  2 24  1  0  0  0  0
  2  3  1  0  0  0  0
  3  4  1  0  0  0  0
  4  5  1  0  0  0  0
  5 23  1  0  0  0  0
  5  6  1  0  0  0  0
  5 25  1  0  0  0  0
  6  7  1  0  0  0  0
  6 19  1  0  0  0  0
  6  8  1  0  0  0  0
  8  9  1  0  0  0  0
  8 10  1  0  0  0  0
  8 21  1  0  0  0  0
 10 11  1  0  0  0  0
 10 17  1  0  0  0  0
 10 12  1  0  0  0  0
 12 13  1  0  0  0  0
 13 14  1  0  0  0  0
 14 15  1  0  0  0  0
 14 16  1  0  0  0  0
 14 17  1  0  0  0  0
 17 18  1  0  0  0  0
 17 20  1  0  0  0  0
 18 19  1  0  0  0  0
 21 22  1  0  0  0  0
 22 23  1  0  0  0  0
 23 24  2  0  0  0  0
M  END
> <Index>
1738

> <ID>
HT2017

> <class>
1

> <apol>
53.714203

> <ast_fraglike>
0

> <ast_fraglike_ext>
0

> <ast_violation>
1

> <ast_violation_ext>
1

> <a_acc>
2

> <a_acid>
0

> <a_aro>
0

> <a_base>
0

> <a_count>
49

> <a_don>
1

> <a_donacc>
3

> <a_heavy>
21

> <a_hyd>
18

> <a_IC>
57.804222

> <a_ICM>
1.179678

> <a_nB>
0

> <a_nBr>
0

> <a_nC>
19

> <a_nCl>
0

> <a_nF>
0

> <a_nH>
28

> <a_nI>
0

> <a_nN>
0

> <a_nO>
2

> <a_nP>
0

> <a_nS>
0

> <balabanJ>
1.6248019

> <BCUT_PEOE_0>
-2.9446707

> <BCUT_PEOE_1>
-0.50304943

> <BCUT_PEOE_2>
0.4300794

> <BCUT_PEOE_3>
2.9549

> <BCUT_SLOGP_0>
-2.8633175

> <BCUT_SLOGP_1>
-0.4351674

> <BCUT_SLOGP_2>
0.49570382

> <BCUT_SLOGP_3>
3.0334787

> <BCUT_SMR_0>
-2.6883721

> <BCUT_SMR_1>
-0.32993549

> <BCUT_SMR_2>
0.61834627

> <BCUT_SMR_3>
3.2088025

> <bpol>
31.567797

> <b_1rotN>
0

> <b_1rotR>
0.0

> <b_ar>
0

> <b_count>
52

> <b_double>
2

> <b_heavy>
24

> <b_max1len>
3

> <b_rotN>
0

> <b_rotR>
0.0

> <b_single>
50

> <b_triple>
0

> <chi0>
14.828063

> <chi0v>
13.399068

> <chi0v_C>
12.543606

> <chi0_C>
12.828063

> <chi1>
9.9491606

> <chi1v>
8.8695717

> <chi1v_C>
8.4072495

> <chi1_C>
8.7944603

> <chiral>
6

> <chiral_u>
0

> <density>
0.67664641

> <diameter>
10

> <FCharge>
0

> <GCUT_PEOE_0>
-0.80398434

> <GCUT_PEOE_1>
-0.3770704

> <GCUT_PEOE_2>
0.010118846

> <GCUT_PEOE_3>
3.2596712

> <GCUT_SLOGP_0>
-0.88367218

> <GCUT_SLOGP_1>
-0.29868373

> <GCUT_SLOGP_2>
-0.0070103933

> <GCUT_SLOGP_3>
3.3473959

> <GCUT_SMR_0>
-0.53926247

> <GCUT_SMR_1>
-0.22427599

> <GCUT_SMR_2>
0.12877046

> <GCUT_SMR_3>
3.4866769

> <Kier1>
14.583333

> <Kier2>
4.7468772

> <Kier3>
1.9262782

> <KierA1>
13.410684

> <KierA2>
4.3459916

> <KierA3>
1.7576534

> <KierFlex>
2.7753675

> <lip_acc>
2

> <lip_don>
1

> <lip_druglike>
1

> <lip_violation>
0

> <logP(o/w)>
3.102

> <logS>
-4.4640698

> <mr>
8.313427

> <mutagenic>
0

> <nmol>
1

> <opr_brigid>
20

> <opr_leadlike>
1

> <opr_nring>
4

> <opr_nrot>
0

> <opr_violation>
0

> <PC+>
0

> <PC->
0

> <PEOE_PC+>
1.2582747

> <PEOE_PC->
-1.2582747

> <PEOE_RPC+>
0.16673627

> <PEOE_RPC->
0.31093264

> <PEOE_VSA+0>
115.33596

> <PEOE_VSA+1>
13.4357

> <PEOE_VSA+2>
0.0

> <PEOE_VSA+3>
8.458519

> <PEOE_VSA+4>
10.324173

> <PEOE_VSA+5>
0.0

> <PEOE_VSA+6>
0.0

> <PEOE_VSA-0>
73.164093

> <PEOE_VSA-1>
39.703896

> <PEOE_VSA-2>
0.0

> <PEOE_VSA-3>
0.0

> <PEOE_VSA-4>
0.0

> <PEOE_VSA-5>
13.566921

> <PEOE_VSA-6>
7.7675405

> <PEOE_VSA_FHYD>
0.88763845

> <PEOE_VSA_FNEG>
0.47630599

> <PEOE_VSA_FPNEG>
0.075719416

> <PEOE_VSA_FPOL>
0.11236156

> <PEOE_VSA_FPOS>
0.52369404

> <PEOE_VSA_FPPOS>
0.036642142

> <PEOE_VSA_HYD>
250.09818

> <PEOE_VSA_NEG>
134.20245

> <PEOE_VSA_PNEG>
21.334461

> <PEOE_VSA_POL>
31.658634

> <PEOE_VSA_POS>
147.55435

> <PEOE_VSA_PPOS>
10.324173

> <petitjean>
0.5

> <petitjeanSC>
1.0

> <Q_PC+>
0

> <Q_PC->
0

> <Q_RPC+>
0

> <Q_RPC->
0

> <Q_VSA_FHYD>
1

> <Q_VSA_FNEG>
0

> <Q_VSA_FPNEG>
0

> <Q_VSA_FPOL>
0

> <Q_VSA_FPOS>
1

> <Q_VSA_FPPOS>
0

> <Q_VSA_HYD>
281.75681

> <Q_VSA_NEG>
0

> <Q_VSA_PNEG>
0

> <Q_VSA_POL>
0

> <Q_VSA_POS>
281.75681

> <Q_VSA_PPOS>
0

> <radius>
5

> <reactive>
1

> <rings>
4

> <RPC+>
0

> <RPC->
0

> <rsynth>
0.0

> <SlogP>
3.8792

> <SlogP_VSA0>
25.385227

> <SlogP_VSA1>
5.6876111

> <SlogP_VSA2>
30.330866

> <SlogP_VSA3>
0.0

> <SlogP_VSA4>
13.232388

> <SlogP_VSA5>
3.185575

> <SlogP_VSA6>
0.0

> <SlogP_VSA7>
17.643185

> <SlogP_VSA8>
150.94725

> <SlogP_VSA9>
66.652031

> <SMR>
8.2716799

> <SMR_VSA0>
23.862217

> <SMR_VSA1>
25.385227

> <SMR_VSA2>
13.232388

> <SMR_VSA3>
9.6542244

> <SMR_VSA4>
0.0

> <SMR_VSA5>
168.59042

> <SMR_VSA6>
5.6876111

> <SMR_VSA7>
66.652031

> <TPSA>
37.299999

> <VAdjEq>
0.49641782

> <VAdjMa>
5.5849624

> <VDistEq>
2.9431849

> <VDistMa>
8.50912

> <vdw_area>
281.75681

> <vdw_vol>
426.26547

> <vsa_acc>
13.566921

> <vsa_acid>
0

> <vsa_base>
0

> <vsa_don>
0.0

> <vsa_hyd>
218.38603

> <vsa_other>
8.458519

> <vsa_pol>
27.133842

> <Weight>
288.431

> <weinerPath>
802

> <weinerPol>
44

> <zagreb>
126

$$$$
Row1738
 OpenBabel06061811532D

 19 21  0  0  1  0  0  0  0  0999 V2000
    0.0000    0.0000    0.0000 O   0  0  0  0  0  0  0  0  0  0  0  0
    0.0000    0.0000    0.0000 C   0  0  0  0  0  0  0  0  0  0  0  0
    0.0000    0.0000    0.0000 N   0  0  0  0  0  0  0  0  0  0  0  0
    0.0000    0.0000    0.0000 C   0  0  0  0  0  0  0  0  0  0  0  0
    0.0000    0.0000    0.0000 O   0  0  0  0  0  0  0  0  0  0  0  0
    0.0000    0.0000    0.0000 C   0  0  0  0  0  0  0  0  0  0  0  0
    0.0000    0.0000    0.0000 C   0  0  0  0  0  0  0  0  0  0  0  0
    0.0000    0.0000    0.0000 C   0  0  3  0  0  0  0  0  0  0  0  0
    0.0000    0.0000    0.0000 N   0  0  0  0  0  0  0  0  0  0  0  0
    0.0000    0.0000    0.0000 C   0  0  0  0  0  0  0  0  0  0  0  0
    0.0000    0.0000    0.0000 O   0  0  0  0  0  0  0  0  0  0  0  0
    0.0000    0.0000    0.0000 C   0  0  0  0  0  0  0  0  0  0  0  0
    0.0000    0.0000    0.0000 C   0  0  0  0  0  0  0  0  0  0  0  0
    0.0000    0.0000    0.0000 C   0  0  0  0  0  0  0  0  0  0  0  0
    0.0000    0.0000    0.0000 C   0  0  0  0  0  0  0  0  0  0  0  0
    0.0000    0.0000    0.0000 C   0  0  0  0  0  0  0  0  0  0  0  0
    0.0000    0.0000    0.0000 C   0  0  0  0  0  0  0  0  0  0  0  0
    0.0000    0.0000    0.0000 C   0  0  0  0  0  0  0  0  0  0  0  0
    0.0000    0.0000    0.0000 O   0  0  0  0  0  0  0  0  0  0  0  0
  1  2  2  0  0  0  0
  2  8  1  0  0  0  0
  2  3  1  0  0  0  0
  3  4  1  0  0  0  0
  4  5  2  0  0  0  0
  4  6  1  0  0  0  0
  6  7  1  0  0  0  0
  7  8  1  0  0  0  0
  8  9  1  0  0  0  0
  9 18  1  0  0  0  0
  9 10  1  0  0  0  0
 10 11  2  0  0  0  0
 10 12  1  0  0  0  0
 12 17  1  0  0  0  0
 12 13  2  0  0  0  0
 13 14  1  0  0  0  0
 13 18  1  0  0  0  0
 14 15  2  0  0  0  0
 15 16  1  0  0  0  0
 16 17  2  0  0  0  0
 18 19  2  0  0  0  0
M  END
> <Index>
1739

> <ID>
HT2032

> <class>
1

> <apol>
34.955929

> <ast_fraglike>
0

> <ast_fraglike_ext>
0

> <ast_violation>
1

> <ast_violation_ext>
1

> <a_acc>
4

> <a_acid>
0

> <a_aro>
6

> <a_base>
0

> <a_count>
29

> <a_don>
1

> <a_donacc>
5

> <a_heavy>
19

> <a_hyd>
9

> <a_IC>
49.55645

> <a_ICM>
1.7088431

> <a_nB>
0

> <a_nBr>
0

> <a_nC>
13

> <a_nCl>
0

> <a_nF>
0

> <a_nH>
10

> <a_nI>
0

> <a_nN>
2

> <a_nO>
4

> <a_nP>
0

> <a_nS>
0

> <balabanJ>
1.771106

> <BCUT_PEOE_0>
-2.5872607

> <BCUT_PEOE_1>
-0.58569288

> <BCUT_PEOE_2>
0.56424803

> <BCUT_PEOE_3>
2.674722

> <BCUT_SLOGP_0>
-2.7639561

> <BCUT_SLOGP_1>
-0.57259613

> <BCUT_SLOGP_2>
0.59189141

> <BCUT_SLOGP_3>
2.5887368

> <BCUT_SMR_0>
-2.3524947

> <BCUT_SMR_1>
-0.39612481

> <BCUT_SMR_2>
0.72965157

> <BCUT_SMR_3>
2.9171107

> <bpol>
17.40407

> <b_1rotN>
1

> <b_1rotR>
0.047619049

> <b_ar>
6

> <b_count>
31

> <b_double>
4

> <b_heavy>
21

> <b_max1len>
2

> <b_rotN>
1

> <b_rotR>
0.047619049

> <b_single>
21

> <b_triple>
0

> <chi0>
13.568549

> <chi0v>
9.8811712

> <chi0v_C>
7.3009648

> <chi0_C>
8.2840929

> <chi1>
9.0922241

> <chi1v>
5.8997359

> <chi1v_C>
3.8778272

> <chi1_C>
4.9663267

> <chiral>
1

> <chiral_u>
1

> <density>
0.830365

> <diameter>
9

> <FCharge>
0

> <GCUT_PEOE_0>
-0.76919621

> <GCUT_PEOE_1>
-0.49387941

> <GCUT_PEOE_2>
0.062819786

> <GCUT_PEOE_3>
2.5326152

> <GCUT_SLOGP_0>
-1.1707928

> <GCUT_SLOGP_1>
-0.39621431

> <GCUT_SLOGP_2>
0.10390528

> <GCUT_SLOGP_3>
2.474566

> <GCUT_SMR_0>
-0.51118076

> <GCUT_SMR_1>
-0.24518788

> <GCUT_SMR_2>
0.19424941

> <GCUT_SMR_3>
2.7889202

> <Kier1>
13.959184

> <Kier2>
5.4131112

> <Kier3>
2.3801653

> <KierA1>
9.2992849

> <KierA2>
3.5162098

> <KierA3>
1.5156988

> <KierFlex>
1.7209599

> <lip_acc>
6

> <lip_don>
1

> <lip_druglike>
1

> <lip_violation>
0

> <logP(o/w)>
0.34799999

> <logS>
-2.7271399

> <mr>
6.5591936

> <mutagenic>
0

> <nmol>
1

> <opr_brigid>
16

> <opr_leadlike>
1

> <opr_nring>
3

> <opr_nrot>
1

> <opr_violation>
0

> <PC+>
0

> <PC->
0

> <PEOE_PC+>
1.869122

> <PEOE_PC->
-1.869122

> <PEOE_RPC+>
0.14049929

> <PEOE_RPC->
0.15800245

> <PEOE_VSA+0>
25.762857

> <PEOE_VSA+1>
25.744009

> <PEOE_VSA+2>
3.1459606

> <PEOE_VSA+3>
8.6190128

> <PEOE_VSA+4>
12.949531

> <PEOE_VSA+5>
38.848595

> <PEOE_VSA+6>
0.0

> <PEOE_VSA-0>
33.211121

> <PEOE_VSA-1>
24.509808

> <PEOE_VSA-2>
0.0

> <PEOE_VSA-3>
0.0

> <PEOE_VSA-4>
0.0

> <PEOE_VSA-5>
54.404575

> <PEOE_VSA-6>
0.0

> <PEOE_VSA_FHYD>
0.5325492

> <PEOE_VSA_FNEG>
0.49351999

> <PEOE_VSA_FPNEG>
0.23946153

> <PEOE_VSA_FPOL>
0.46745077

> <PEOE_VSA_FPOS>
0.50648004

> <PEOE_VSA_FPPOS>
0.22798924

> <PEOE_VSA_HYD>
120.99277

> <PEOE_VSA_NEG>
112.1255

> <PEOE_VSA_PNEG>
54.404575

> <PEOE_VSA_POL>
106.2027

> <PEOE_VSA_POS>
115.06996

> <PEOE_VSA_PPOS>
51.798122

> <petitjean>
0.44444445

> <petitjeanSC>
0.80000001

> <Q_PC+>
0

> <Q_PC->
0

> <Q_RPC+>
0

> <Q_RPC->
0

> <Q_VSA_FHYD>
1

> <Q_VSA_FNEG>
0

> <Q_VSA_FPNEG>
0

> <Q_VSA_FPOL>
0

> <Q_VSA_FPOS>
1

> <Q_VSA_FPPOS>
0

> <Q_VSA_HYD>
227.19547

> <Q_VSA_NEG>
0

> <Q_VSA_PNEG>
0

> <Q_VSA_POL>
0

> <Q_VSA_POS>
227.19547

> <Q_VSA_PPOS>
0

> <radius>
5

> <reactive>
0

> <rings>
3

> <RPC+>
0

> <RPC->
0

> <rsynth>
1.0

> <SlogP>
0.087800004

> <SlogP_VSA0>
18.01075

> <SlogP_VSA1>
24.159449

> <SlogP_VSA2>
51.706402

> <SlogP_VSA3>
0.0

> <SlogP_VSA4>
54.095581

> <SlogP_VSA5>
0.0

> <SlogP_VSA6>
0.0

> <SlogP_VSA7>
70.572739

> <SlogP_VSA8>
37.736813

> <SlogP_VSA9>
0.0

> <SMR>
6.3113699

> <SMR_VSA0>
95.448868

> <SMR_VSA1>
3.1243138

> <SMR_VSA2>
18.01075

> <SMR_VSA3>
10.353119

> <SMR_VSA4>
0.0

> <SMR_VSA5>
108.30955

> <SMR_VSA6>
21.035135

> <SMR_VSA7>
0.0

> <TPSA>
83.550003

> <VAdjEq>
0.51875818

> <VAdjMa>
5.3923173

> <VDistEq>
2.8902111

> <VDistMa>
8.2214184

> <vdw_area>
227.19547

> <vdw_vol>
310.98734

> <vsa_acc>
54.267685

> <vsa_acid>
0

> <vsa_base>
0

> <vsa_don>
5.6825762

> <vsa_hyd>
105.9676

> <vsa_other>
51.798122

> <vsa_pol>
59.95026

> <Weight>
258.233

> <weinerPath>
643

> <weinerPol>
33

> <zagreb>
104

$$$$
Row1739
 OpenBabel06061811532D

 15 17  0  0  0  0  0  0  0  0999 V2000
    0.0000    0.0000    0.0000 S   0  0  0  0  0  0  0  0  0  0  0  0
    0.0000    0.0000    0.0000 C   0  0  0  0  0  0  0  0  0  0  0  0
    0.0000    0.0000    0.0000 C   0  0  0  0  0  0  0  0  0  0  0  0
    0.0000    0.0000    0.0000 N   0  0  0  0  0  0  0  0  0  0  0  0
    0.0000    0.0000    0.0000 C   0  0  0  0  0  0  0  0  0  0  0  0
    0.0000    0.0000    0.0000 C   0  0  0  0  0  0  0  0  0  0  0  0
    0.0000    0.0000    0.0000 N   0  0  0  0  0  0  0  0  0  0  0  0
    0.0000    0.0000    0.0000 H   0  0  0  0  0  0  0  0  0  0  0  0
    0.0000    0.0000    0.0000 C   0  0  0  0  0  0  0  0  0  0  0  0
    0.0000    0.0000    0.0000 C   0  0  0  0  0  0  0  0  0  0  0  0
    0.0000    0.0000    0.0000 N   0  0  0  0  0  0  0  0  0  0  0  0
    0.0000    0.0000    0.0000 C   0  0  0  0  0  0  0  0  0  0  0  0
    0.0000    0.0000    0.0000 C   0  0  0  0  0  0  0  0  0  0  0  0
    0.0000    0.0000    0.0000 C   0  0  0  0  0  0  0  0  0  0  0  0
    0.0000    0.0000    0.0000 C   0  0  0  0  0  0  0  0  0  0  0  0
  1  5  1  0  0  0  0
  1  2  1  0  0  0  0
  2  3  2  0  0  0  0
  3  4  1  0  0  0  0
  3  6  1  0  0  0  0
  4  5  2  0  0  0  0
  6 11  2  0  0  0  0
  6  7  1  0  0  0  0
  7  8  1  0  0  0  0
  7  9  1  0  0  0  0
  9 15  1  0  0  0  0
  9 10  2  0  0  0  0
 10 11  1  0  0  0  0
 10 12  1  0  0  0  0
 12 13  2  0  0  0  0
 13 14  1  0  0  0  0
 14 15  2  0  0  0  0
M  END
> <Index>
1740

> <ID>
HT2034

> <class>
1

> <apol>
28.46755

> <ast_fraglike>
1

> <ast_fraglike_ext>
1

> <ast_violation>
0

> <ast_violation_ext>
0

> <a_acc>
3

> <a_acid>
0

> <a_aro>
14

> <a_base>
0

> <a_count>
21

> <a_don>
2

> <a_donacc>
5

> <a_heavy>
14

> <a_hyd>
10

> <a_IC>
34.613014

> <a_ICM>
1.6482387

> <a_nB>
0

> <a_nBr>
0

> <a_nC>
10

> <a_nCl>
0

> <a_nF>
0

> <a_nH>
7

> <a_nI>
0

> <a_nN>
3

> <a_nO>
0

> <a_nP>
0

> <a_nS>
1

> <balabanJ>
1.6332153

> <BCUT_PEOE_0>
-2.1057973

> <BCUT_PEOE_1>
-0.61922735

> <BCUT_PEOE_2>
0.71257299

> <BCUT_PEOE_3>
2.1786013

> <BCUT_SLOGP_0>
-1.9491365

> <BCUT_SLOGP_1>
-0.53146791

> <BCUT_SLOGP_2>
0.80763149

> <BCUT_SLOGP_3>
2.3347681

> <BCUT_SMR_0>
-1.7703822

> <BCUT_SMR_1>
-0.45683599

> <BCUT_SMR_2>
0.96069425

> <BCUT_SMR_3>
2.5249133

> <bpol>
13.232449

> <b_1rotN>
1

> <b_1rotR>
0.0625

> <b_ar>
15

> <b_count>
23

> <b_double>
0

> <b_heavy>
16

> <b_max1len>
1

> <b_rotN>
1

> <b_rotR>
0.0625

> <b_single>
8

> <b_triple>
0

> <chi0>
9.3804693

> <chi0v>
8.0832739

> <chi0v_C>
5.4641018

> <chi0_C>
6.5520415

> <chi1>
6.932653

> <chi1v>
5.2092581

> <chi1v_C>
2.3660254

> <chi1_C>
3.3914115

> <chiral>
0

> <chiral_u>
0

> <density>
0.80351228

> <diameter>
7

> <FCharge>
0

> <GCUT_PEOE_0>
-0.826105

> <GCUT_PEOE_1>
-0.42186159

> <GCUT_PEOE_2>
0.10836491

> <GCUT_PEOE_3>
2.1829083

> <GCUT_SLOGP_0>
-0.77721721

> <GCUT_SLOGP_1>
-0.30738351

> <GCUT_SLOGP_2>
0.20123096

> <GCUT_SLOGP_3>
2.334163

> <GCUT_SMR_0>
-0.4191024

> <GCUT_SMR_1>
-0.20084983

> <GCUT_SMR_2>
0.31949422

> <GCUT_SMR_3>
2.5172088

> <Kier1>
9.2421875

> <Kier2>
3.8677685

> <Kier3>
1.76

> <KierA1>
6.7740855

> <KierA2>
2.7600982

> <KierA3>
1.2303727

> <KierFlex>
1.3355101

> <lip_acc>
3

> <lip_don>
1

> <lip_druglike>
1

> <lip_violation>
0

> <logP(o/w)>
2.0850599

> <logS>
-3.32867

> <mr>
5.7811561

> <mutagenic>
0

> <nmol>
1

> <opr_brigid>
15

> <opr_leadlike>
1

> <opr_nring>
3

> <opr_nrot>
1

> <opr_violation>
0

> <PC+>
0

> <PC->
0

> <PEOE_PC+>
1.1196216

> <PEOE_PC->
-1.1196216

> <PEOE_RPC+>
0.15363103

> <PEOE_RPC->
0.30071124

> <PEOE_VSA+0>
0.0

> <PEOE_VSA+1>
45.690971

> <PEOE_VSA+2>
0.0

> <PEOE_VSA+3>
39.570194

> <PEOE_VSA+4>
0.0

> <PEOE_VSA+5>
0.0

> <PEOE_VSA+6>
0.0

> <PEOE_VSA-0>
43.231785

> <PEOE_VSA-1>
38.740772

> <PEOE_VSA-2>
0.0

> <PEOE_VSA-3>
0.0

> <PEOE_VSA-4>
5.6825762

> <PEOE_VSA-5>
5.6825762

> <PEOE_VSA-6>
0.13689101

> <PEOE_VSA_FHYD>
0.93564779

> <PEOE_VSA_FNEG>
0.52297646

> <PEOE_VSA_FPNEG>
0.064352222

> <PEOE_VSA_FPOL>
0.064352222

> <PEOE_VSA_FPOS>
0.47702351

> <PEOE_VSA_FPPOS>
0.0

> <PEOE_VSA_HYD>
167.23372

> <PEOE_VSA_NEG>
93.474602

> <PEOE_VSA_PNEG>
11.502043

> <PEOE_VSA_POL>
11.502043

> <PEOE_VSA_POS>
85.261162

> <PEOE_VSA_PPOS>
0.0

> <petitjean>
0.42857143

> <petitjeanSC>
0.75

> <Q_PC+>
0

> <Q_PC->
0

> <Q_RPC+>
0

> <Q_RPC->
0

> <Q_VSA_FHYD>
1

> <Q_VSA_FNEG>
0

> <Q_VSA_FPNEG>
0

> <Q_VSA_FPOL>
0

> <Q_VSA_FPOS>
1

> <Q_VSA_FPPOS>
0

> <Q_VSA_HYD>
178.73576

> <Q_VSA_NEG>
0

> <Q_VSA_PNEG>
0

> <Q_VSA_POL>
0

> <Q_VSA_POS>
178.73576

> <Q_VSA_PPOS>
0

> <radius>
4

> <reactive>
0

> <rings>
3

> <RPC+>
0

> <RPC->
0

> <rsynth>
1.0

> <SlogP>
2.6863999

> <SlogP_VSA0>
0.0

> <SlogP_VSA1>
33.57106

> <SlogP_VSA2>
16.78553

> <SlogP_VSA3>
0.0

> <SlogP_VSA4>
0.0

> <SlogP_VSA5>
0.0

> <SlogP_VSA6>
0.0

> <SlogP_VSA7>
111.14887

> <SlogP_VSA8>
0.0

> <SlogP_VSA9>
31.277687

> <SMR>
5.72017

> <SMR_VSA0>
0.0

> <SMR_VSA1>
33.57106

> <SMR_VSA2>
16.78553

> <SMR_VSA3>
0.0

> <SMR_VSA4>
9.372942

> <SMR_VSA5>
101.77593

> <SMR_VSA6>
0.0

> <SMR_VSA7>
31.277687

> <TPSA>
41.57

> <VAdjEq>
0.64206427

> <VAdjMa>
5.0

> <VDistEq>
2.6603594

> <VDistMa>
7.2984648

> <vdw_area>
178.73576

> <vdw_vol>
250.46663

> <vsa_acc>
5.6825762

> <vsa_acid>
0

> <vsa_base>
0

> <vsa_don>
0.0

> <vsa_hyd>
143.15338

> <vsa_other>
11.190562

> <vsa_pol>
17.047728

> <Weight>
201.25301

> <weinerPath>
293

> <weinerPol>
17

> <zagreb>
76

$$$$
Row1740
 OpenBabel06061811532D

 27 30  0  0  0  0  0  0  0  0999 V2000
    0.0000    0.0000    0.0000 S   0  0  0  0  0  0  0  0  0  0  0  0
    0.0000    0.0000    0.0000 C   0  0  0  0  0  0  0  0  0  0  0  0
    0.0000    0.0000    0.0000 C   0  0  0  0  0  0  0  0  0  0  0  0
    0.0000    0.0000    0.0000 N   0  0  0  0  0  0  0  0  0  0  0  0
    0.0000    0.0000    0.0000 C   0  0  0  0  0  0  0  0  0  0  0  0
    0.0000    0.0000    0.0000 C   0  0  0  0  0  0  0  0  0  0  0  0
    0.0000    0.0000    0.0000 C   0  0  0  0  0  0  0  0  0  0  0  0
    0.0000    0.0000    0.0000 C   0  0  0  0  0  0  0  0  0  0  0  0
    0.0000    0.0000    0.0000 C   0  0  0  0  0  0  0  0  0  0  0  0
    0.0000    0.0000    0.0000 C   0  0  0  0  0  0  0  0  0  0  0  0
    0.0000    0.0000    0.0000 C   0  0  0  0  0  0  0  0  0  0  0  0
    0.0000    0.0000    0.0000 C   0  0  0  0  0  0  0  0  0  0  0  0
    0.0000    0.0000    0.0000 C   0  0  0  0  0  0  0  0  0  0  0  0
    0.0000    0.0000    0.0000 N   0  0  0  0  0  0  0  0  0  0  0  0
    0.0000    0.0000    0.0000 C   0  0  0  0  0  0  0  0  0  0  0  0
    0.0000    0.0000    0.0000 C   0  0  0  0  0  0  0  0  0  0  0  0
    0.0000    0.0000    0.0000 N   0  0  0  0  0  0  0  0  0  0  0  0
    0.0000    0.0000    0.0000 C   0  0  0  0  0  0  0  0  0  0  0  0
    0.0000    0.0000    0.0000 C   0  0  0  0  0  0  0  0  0  0  0  0
    0.0000    0.0000    0.0000 C   0  0  0  0  0  0  0  0  0  0  0  0
    0.0000    0.0000    0.0000 C   0  0  0  0  0  0  0  0  0  0  0  0
    0.0000    0.0000    0.0000 C   0  0  0  0  0  0  0  0  0  0  0  0
    0.0000    0.0000    0.0000 S   0  0  0  0  0  0  0  0  0  0  0  0
    0.0000    0.0000    0.0000 C   0  0  0  0  0  0  0  0  0  0  0  0
    0.0000    0.0000    0.0000 C   0  0  0  0  0  0  0  0  0  0  0  0
    0.0000    0.0000    0.0000 C   0  0  0  0  0  0  0  0  0  0  0  0
    0.0000    0.0000    0.0000 C   0  0  0  0  0  0  0  0  0  0  0  0
  1  6  1  0  0  0  0
  1  2  1  0  0  0  0
  2 27  1  0  0  0  0
  2  3  2  0  0  0  0
  3  4  1  0  0  0  0
  3 21  1  0  0  0  0
  4  5  1  0  0  0  0
  4 11  1  0  0  0  0
  5 10  1  0  0  0  0
  5  6  2  0  0  0  0
  6  7  1  0  0  0  0
  7  8  2  0  0  0  0
  8  9  1  0  0  0  0
  9 10  2  0  0  0  0
 11 12  1  0  0  0  0
 12 13  1  0  0  0  0
 13 14  1  0  0  0  0
 14 19  1  0  0  0  0
 14 15  1  0  0  0  0
 15 16  1  0  0  0  0
 16 17  1  0  0  0  0
 17 18  1  0  0  0  0
 17 20  1  0  0  0  0
 18 19  1  0  0  0  0
 21 22  2  0  0  0  0
 22 23  1  0  0  0  0
 22 26  1  0  0  0  0
 23 24  1  0  0  0  0
 24 25  1  0  0  0  0
 26 27  2  0  0  0  0
M  END
> <Index>
1741

> <ID>
HT2040

> <class>
1

> <apol>
67.156998

> <ast_fraglike>
0

> <ast_fraglike_ext>
0

> <ast_violation>
2

> <ast_violation_ext>
3

> <a_acc>
2

> <a_acid>
0

> <a_aro>
12

> <a_base>
0

> <a_count>
56

> <a_don>
0

> <a_donacc>
2

> <a_heavy>
27

> <a_hyd>
24

> <a_IC>
79.46804

> <a_ICM>
1.4190722

> <a_nB>
0

> <a_nBr>
0

> <a_nC>
22

> <a_nCl>
0

> <a_nF>
0

> <a_nH>
29

> <a_nI>
0

> <a_nN>
3

> <a_nO>
0

> <a_nP>
0

> <a_nS>
2

> <balabanJ>
1.3637854

> <BCUT_PEOE_0>
-2.7903397

> <BCUT_PEOE_1>
-0.49733296

> <BCUT_PEOE_2>
0.53733236

> <BCUT_PEOE_3>
2.6804943

> <BCUT_SLOGP_0>
-2.8981588

> <BCUT_SLOGP_1>
-0.34765801

> <BCUT_SLOGP_2>
0.69523394

> <BCUT_SLOGP_3>
2.6279194

> <BCUT_SMR_0>
-2.5038617

> <BCUT_SMR_1>
-0.30017769

> <BCUT_SMR_2>
0.74995857

> <BCUT_SMR_3>
2.9587862

> <bpol>
42.203003

> <b_1rotN>
6

> <b_1rotR>
0.2

> <b_ar>
12

> <b_count>
59

> <b_double>
0

> <b_heavy>
30

> <b_max1len>
4

> <b_rotN>
6

> <b_rotR>
0.2

> <b_single>
47

> <b_triple>
0

> <chi0>
18.639618

> <chi0v>
17.989437

> <chi0v_C>
14.198306

> <chi0_C>
15.493353

> <chi1>
13.241515

> <chi1v>
11.767427

> <chi1v_C>
6.272491

> <chi1_C>
7.8232632

> <chiral>
0

> <chiral_u>
0

> <density>
0.7151292

> <diameter>
14

> <FCharge>
0

> <GCUT_PEOE_0>
-0.86208165

> <GCUT_PEOE_1>
-0.35870883

> <GCUT_PEOE_2>
-0.027462631

> <GCUT_PEOE_3>
2.7990084

> <GCUT_SLOGP_0>
-0.96427566

> <GCUT_SLOGP_1>
-0.25869995

> <GCUT_SLOGP_2>
0.15126225

> <GCUT_SLOGP_3>
2.8998778

> <GCUT_SMR_0>
-0.51972866

> <GCUT_SMR_1>
-0.14925791

> <GCUT_SMR_2>
0.18700656

> <GCUT_SMR_3>
3.0884755

> <Kier1>
20.280001

> <Kier2>
9.6668653

> <Kier3>
4.9507437

> <KierA1>
18.639233

> <KierA2>
8.8547659

> <KierA3>
4.5234795

> <KierFlex>
6.1128163

> <lip_acc>
3

> <lip_don>
0

> <lip_druglike>
1

> <lip_violation>
1

> <logP(o/w)>
4.6620002

> <logS>
-5.2351999

> <mr>
11.807259

> <mutagenic>
0

> <nmol>
1

> <opr_brigid>
22

> <opr_leadlike>
1

> <opr_nring>
4

> <opr_nrot>
8

> <opr_violation>
1

> <PC+>
0

> <PC->
0

> <PEOE_PC+>
1.4875072

> <PEOE_PC->
-1.4875072

> <PEOE_RPC+>
0.043337345

> <PEOE_RPC->
0.20364098

> <PEOE_VSA+0>
198.94534

> <PEOE_VSA+1>
29.857702

> <PEOE_VSA+2>
0.0

> <PEOE_VSA+3>
0.0

> <PEOE_VSA+4>
0.0

> <PEOE_VSA+5>
0.0

> <PEOE_VSA+6>
0.0

> <PEOE_VSA-0>
103.8919

> <PEOE_VSA-1>
63.018105

> <PEOE_VSA-2>
19.760618

> <PEOE_VSA-3>
0.0

> <PEOE_VSA-4>
0.0

> <PEOE_VSA-5>
0.0

> <PEOE_VSA-6>
0.0

> <PEOE_VSA_FHYD>
1.0

> <PEOE_VSA_FNEG>
0.44929591

> <PEOE_VSA_FPNEG>
0.0

> <PEOE_VSA_FPOL>
0.0

> <PEOE_VSA_FPOS>
0.55070412

> <PEOE_VSA_FPPOS>
0.0

> <PEOE_VSA_HYD>
415.47366

> <PEOE_VSA_NEG>
186.67062

> <PEOE_VSA_PNEG>
0.0

> <PEOE_VSA_POL>
0.0

> <PEOE_VSA_POS>
228.80305

> <PEOE_VSA_PPOS>
0.0

> <petitjean>
0.5

> <petitjeanSC>
1.0

> <Q_PC+>
0

> <Q_PC->
0

> <Q_RPC+>
0

> <Q_RPC->
0

> <Q_VSA_FHYD>
1

> <Q_VSA_FNEG>
0

> <Q_VSA_FPNEG>
0

> <Q_VSA_FPOL>
0

> <Q_VSA_FPOS>
1

> <Q_VSA_FPPOS>
0

> <Q_VSA_HYD>
415.47366

> <Q_VSA_NEG>
0

> <Q_VSA_PNEG>
0

> <Q_VSA_POL>
0

> <Q_VSA_POS>
415.47366

> <Q_VSA_PPOS>
0

> <radius>
7

> <reactive>
0

> <rings>
4

> <RPC+>
0

> <RPC->
0

> <rsynth>
1.0

> <SlogP>
5.0387998

> <SlogP_VSA0>
3.1243138

> <SlogP_VSA1>
6.2486277

> <SlogP_VSA2>
0.0

> <SlogP_VSA3>
127.87103

> <SlogP_VSA4>
0.0

> <SlogP_VSA5>
37.549389

> <SlogP_VSA6>
0.0

> <SlogP_VSA7>
123.50229

> <SlogP_VSA8>
18.868406

> <SlogP_VSA9>
103.27859

> <SMR>
11.8967

> <SMR_VSA0>
0.0

> <SMR_VSA1>
6.2486277

> <SMR_VSA2>
7.776516

> <SMR_VSA3>
0.0

> <SMR_VSA4>
5.513495

> <SMR_VSA5>
142.3707

> <SMR_VSA6>
127.87103

> <SMR_VSA7>
130.66228

> <TPSA>
9.7200003

> <VAdjEq>
0.41024774

> <VAdjMa>
5.9068904

> <VDistEq>
3.5111639

> <VDistMa>
9.2200089

> <vdw_area>
415.47366

> <vdw_vol>
558.81793

> <vsa_acc>
0.0

> <vsa_acid>
0

> <vsa_base>
0

> <vsa_don>
0.0

> <vsa_hyd>
394.8316

> <vsa_other>
0.0

> <vsa_pol>
0.0

> <Weight>
399.62698

> <weinerPath>
1920

> <weinerPol>
43

> <zagreb>
142

$$$$
Row1741
 OpenBabel06061811532D

 25 28  0  0  1  0  0  0  0  0999 V2000
    0.0000    0.0000    0.0000 S   0  0  0  0  0  0  0  0  0  0  0  0
    0.0000    0.0000    0.0000 C   0  0  0  0  0  0  0  0  0  0  0  0
    0.0000    0.0000    0.0000 C   0  0  0  0  0  0  0  0  0  0  0  0
    0.0000    0.0000    0.0000 N   0  0  0  0  0  0  0  0  0  0  0  0
    0.0000    0.0000    0.0000 C   0  0  0  0  0  0  0  0  0  0  0  0
    0.0000    0.0000    0.0000 C   0  0  0  0  0  0  0  0  0  0  0  0
    0.0000    0.0000    0.0000 C   0  0  0  0  0  0  0  0  0  0  0  0
    0.0000    0.0000    0.0000 C   0  0  0  0  0  0  0  0  0  0  0  0
    0.0000    0.0000    0.0000 C   0  0  0  0  0  0  0  0  0  0  0  0
    0.0000    0.0000    0.0000 C   0  0  0  0  0  0  0  0  0  0  0  0
    0.0000    0.0000    0.0000 C   0  0  0  0  0  0  0  0  0  0  0  0
    0.0000    0.0000    0.0000 C   0  0  0  0  0  0  0  0  0  0  0  0
    0.0000    0.0000    0.0000 C   0  0  3  0  0  0  0  0  0  0  0  0
    0.0000    0.0000    0.0000 N   0  0  0  0  0  0  0  0  0  0  0  0
    0.0000    0.0000    0.0000 C   0  0  0  0  0  0  0  0  0  0  0  0
    0.0000    0.0000    0.0000 C   0  0  0  0  0  0  0  0  0  0  0  0
    0.0000    0.0000    0.0000 C   0  0  0  0  0  0  0  0  0  0  0  0
    0.0000    0.0000    0.0000 C   0  0  0  0  0  0  0  0  0  0  0  0
    0.0000    0.0000    0.0000 C   0  0  0  0  0  0  0  0  0  0  0  0
    0.0000    0.0000    0.0000 C   0  0  0  0  0  0  0  0  0  0  0  0
    0.0000    0.0000    0.0000 C   0  0  0  0  0  0  0  0  0  0  0  0
    0.0000    0.0000    0.0000 S   0  0  0  0  0  0  0  0  0  0  0  0
    0.0000    0.0000    0.0000 C   0  0  0  0  0  0  0  0  0  0  0  0
    0.0000    0.0000    0.0000 C   0  0  0  0  0  0  0  0  0  0  0  0
    0.0000    0.0000    0.0000 C   0  0  0  0  0  0  0  0  0  0  0  0
  1  6  1  0  0  0  0
  1  2  1  0  0  0  0
  2 25  1  0  0  0  0
  2  3  2  0  0  0  0
  3  4  1  0  0  0  0
  3 20  1  0  0  0  0
  4  5  1  0  0  0  0
  4 11  1  0  0  0  0
  5 10  1  0  0  0  0
  5  6  2  0  0  0  0
  6  7  1  0  0  0  0
  7  8  2  0  0  0  0
  8  9  1  0  0  0  0
  9 10  2  0  0  0  0
 11 12  1  0  0  0  0
 12 13  1  0  0  0  0
 13 18  1  0  0  0  0
 13 14  1  0  0  0  0
 14 15  1  0  0  0  0
 14 19  1  0  0  0  0
 15 16  1  0  0  0  0
 16 17  1  0  0  0  0
 17 18  1  0  0  0  0
 20 21  2  0  0  0  0
 21 22  1  0  0  0  0
 21 24  1  0  0  0  0
 22 23  1  0  0  0  0
 24 25  2  0  0  0  0
M  END
> <Index>
1742

> <ID>
HT2046

> <class>
1

> <apol>
62.296619

> <ast_fraglike>
0

> <ast_fraglike_ext>
0

> <ast_violation>
2

> <ast_violation_ext>
3

> <a_acc>
1

> <a_acid>
0

> <a_aro>
12

> <a_base>
0

> <a_count>
51

> <a_don>
0

> <a_donacc>
1

> <a_heavy>
25

> <a_hyd>
23

> <a_IC>
70.843597

> <a_ICM>
1.3890901

> <a_nB>
0

> <a_nBr>
0

> <a_nC>
21

> <a_nCl>
0

> <a_nF>
0

> <a_nH>
26

> <a_nI>
0

> <a_nN>
2

> <a_nO>
0

> <a_nP>
0

> <a_nS>
2

> <balabanJ>
1.4580986

> <BCUT_PEOE_0>
-2.817729

> <BCUT_PEOE_1>
-0.57144034

> <BCUT_PEOE_2>
0.60735327

> <BCUT_PEOE_3>
2.7348669

> <BCUT_SLOGP_0>
-2.8245835

> <BCUT_SLOGP_1>
-0.44216442

> <BCUT_SLOGP_2>
0.75965971

> <BCUT_SLOGP_3>
2.7789536

> <BCUT_SMR_0>
-2.5459476

> <BCUT_SMR_1>
-0.38163167

> <BCUT_SMR_2>
0.83013433

> <BCUT_SMR_3>
3.0026686

> <bpol>
36.943382

> <b_1rotN>
4

> <b_1rotR>
0.14285715

> <b_ar>
12

> <b_count>
54

> <b_double>
0

> <b_heavy>
28

> <b_max1len>
4

> <b_rotN>
4

> <b_rotR>
0.14285715

> <b_single>
42

> <b_triple>
0

> <chi0>
17.225405

> <chi0v>
16.70536

> <chi0v_C>
13.361443

> <chi0_C>
14.656489

> <chi1>
12.258351

> <chi1v>
11.228825

> <chi1v_C>
6.3818808

> <chi1_C>
7.932653

> <chiral>
1

> <chiral_u>
1

> <density>
0.71751243

> <diameter>
11

> <FCharge>
0

> <GCUT_PEOE_0>
-0.85779893

> <GCUT_PEOE_1>
-0.39647457

> <GCUT_PEOE_2>
0.0057510408

> <GCUT_PEOE_3>
2.8294153

> <GCUT_SLOGP_0>
-0.95360464

> <GCUT_SLOGP_1>
-0.23222423

> <GCUT_SLOGP_2>
0.15912257

> <GCUT_SLOGP_3>
2.9469891

> <GCUT_SMR_0>
-0.52366561

> <GCUT_SMR_1>
-0.17046806

> <GCUT_SMR_2>
0.20491262

> <GCUT_SMR_3>
3.1128306

> <Kier1>
18.367348

> <Kier2>
8.3471403

> <Kier3>
3.9835391

> <KierA1>
16.762796

> <KierA2>
7.5876555

> <KierA3>
3.6103046

> <KierFlex>
5.0876131

> <lip_acc>
2

> <lip_don>
0

> <lip_druglike>
1

> <lip_violation>
1

> <logP(o/w)>
5.7189999

> <logS>
-5.6154099

> <mr>
11.017037

> <mutagenic>
0

> <nmol>
1

> <opr_brigid>
22

> <opr_leadlike>
1

> <opr_nring>
4

> <opr_nrot>
6

> <opr_violation>
1

> <PC+>
0

> <PC->
0

> <PEOE_PC+>
1.2692744

> <PEOE_PC->
-1.2692744

> <PEOE_RPC+>
0.050788473

> <PEOE_RPC->
0.23821183

> <PEOE_VSA+0>
123.33353

> <PEOE_VSA+1>
29.857702

> <PEOE_VSA+2>
0.0

> <PEOE_VSA+3>
0.0

> <PEOE_VSA+4>
0.0

> <PEOE_VSA+5>
0.0

> <PEOE_VSA+6>
0.0

> <PEOE_VSA-0>
144.53322

> <PEOE_VSA-1>
52.971741

> <PEOE_VSA-2>
19.760618

> <PEOE_VSA-3>
0.0

> <PEOE_VSA-4>
0.0

> <PEOE_VSA-5>
0.0

> <PEOE_VSA-6>
0.0

> <PEOE_VSA_FHYD>
1.0

> <PEOE_VSA_FNEG>
0.5864802

> <PEOE_VSA_FPNEG>
0.0

> <PEOE_VSA_FPOL>
0.0

> <PEOE_VSA_FPOS>
0.41351983

> <PEOE_VSA_FPPOS>
0.0

> <PEOE_VSA_HYD>
370.45679

> <PEOE_VSA_NEG>
217.26556

> <PEOE_VSA_PNEG>
0.0

> <PEOE_VSA_POL>
0.0

> <PEOE_VSA_POS>
153.19122

> <PEOE_VSA_PPOS>
0.0

> <petitjean>
0.45454547

> <petitjeanSC>
0.83333331

> <Q_PC+>
0

> <Q_PC->
0

> <Q_RPC+>
0

> <Q_RPC->
0

> <Q_VSA_FHYD>
1

> <Q_VSA_FNEG>
0

> <Q_VSA_FPNEG>
0

> <Q_VSA_FPOL>
0

> <Q_VSA_FPOS>
1

> <Q_VSA_FPPOS>
0

> <Q_VSA_HYD>
370.45679

> <Q_VSA_NEG>
0

> <Q_VSA_PNEG>
0

> <Q_VSA_POL>
0

> <Q_VSA_POS>
370.45679

> <Q_VSA_PPOS>
0

> <radius>
6

> <reactive>
0

> <rings>
4

> <RPC+>
0

> <RPC->
0

> <rsynth>
1.0

> <SlogP>
5.8856001

> <SlogP_VSA0>
3.1243138

> <SlogP_VSA1>
3.1243138

> <SlogP_VSA2>
3.9819686

> <SlogP_VSA3>
36.879158

> <SlogP_VSA4>
0.0

> <SlogP_VSA5>
69.240562

> <SlogP_VSA6>
0.0

> <SlogP_VSA7>
123.50229

> <SlogP_VSA8>
75.473625

> <SlogP_VSA9>
69.952576

> <SMR>
11.0682

> <SMR_VSA0>
0.0

> <SMR_VSA1>
3.1243138

> <SMR_VSA2>
7.776516

> <SMR_VSA3>
3.9819686

> <SMR_VSA4>
5.513495

> <SMR_VSA5>
198.97591

> <SMR_VSA6>
36.879158

> <SMR_VSA7>
129.02745

> <TPSA>
6.48

> <VAdjEq>
0.43513325

> <VAdjMa>
5.8073549

> <VDistEq>
3.2350502

> <VDistMa>
9.0205889

> <vdw_area>
370.45679

> <vdw_vol>
516.48584

> <vsa_acc>
0.0

> <vsa_acid>
0

> <vsa_base>
0

> <vsa_don>
0.0

> <vsa_hyd>
351.9501

> <vsa_other>
0.0

> <vsa_pol>
0.0

> <Weight>
370.58499

> <weinerPath>
1444

> <weinerPol>
42

> <zagreb>
134

$$$$
Row1742
 OpenBabel06061811532D

 29 31  0  0  1  0  0  0  0  0999 V2000
    0.0000    0.0000    0.0000 S   0  0  0  0  0  0  0  0  0  0  0  0
    0.0000    0.0000    0.0000 C   0  0  1  0  0  0  0  0  0  0  0  0
    0.0000    0.0000    0.0000 H   0  0  0  0  0  0  0  0  0  0  0  0
    0.0000    0.0000    0.0000 N   0  0  0  0  0  0  0  0  0  0  0  0
    0.0000    0.0000    0.0000 C   0  0  1  0  0  0  0  0  0  0  0  0
    0.0000    0.0000    0.0000 H   0  0  0  0  0  0  0  0  0  0  0  0
    0.0000    0.0000    0.0000 C   0  0  0  0  0  0  0  0  0  0  0  0
    0.0000    0.0000    0.0000 O   0  0  0  0  0  0  0  0  0  0  0  0
    0.0000    0.0000    0.0000 O   0  0  0  0  0  0  0  0  0  0  0  0
    0.0000    0.0000    0.0000 C   0  0  0  0  0  0  0  0  0  0  0  0
    0.0000    0.0000    0.0000 C   0  0  0  0  0  0  0  0  0  0  0  0
    0.0000    0.0000    0.0000 C   0  0  0  0  0  0  0  0  0  0  0  0
    0.0000    0.0000    0.0000 C   0  0  0  0  0  0  0  0  0  0  0  0
    0.0000    0.0000    0.0000 O   0  0  0  0  0  0  0  0  0  0  0  0
    0.0000    0.0000    0.0000 C   0  0  1  0  0  0  0  0  0  0  0  0
    0.0000    0.0000    0.0000 H   0  0  0  0  0  0  0  0  0  0  0  0
    0.0000    0.0000    0.0000 N   0  0  0  0  0  0  0  0  0  0  0  0
    0.0000    0.0000    0.0000 C   0  0  0  0  0  0  0  0  0  0  0  0
    0.0000    0.0000    0.0000 O   0  0  0  0  0  0  0  0  0  0  0  0
    0.0000    0.0000    0.0000 C   0  0  2  0  0  0  0  0  0  0  0  0
    0.0000    0.0000    0.0000 H   0  0  0  0  0  0  0  0  0  0  0  0
    0.0000    0.0000    0.0000 C   0  0  0  0  0  0  0  0  0  0  0  0
    0.0000    0.0000    0.0000 O   0  0  0  0  0  0  0  0  0  0  0  0
    0.0000    0.0000    0.0000 O   0  0  0  0  0  0  0  0  0  0  0  0
    0.0000    0.0000    0.0000 C   0  0  0  0  0  0  0  0  0  0  0  0
    0.0000    0.0000    0.0000 C   0  0  0  0  0  0  0  0  0  0  0  0
    0.0000    0.0000    0.0000 C   0  0  0  0  0  0  0  0  0  0  0  0
    0.0000    0.0000    0.0000 S   0  0  0  0  0  0  0  0  0  0  0  0
    0.0000    0.0000    0.0000 C   0  0  0  0  0  0  0  0  0  0  0  0
  1 10  1  0  0  0  0
  1  2  1  0  0  0  0
  2  3  1  0  0  0  0
  2 15  1  0  0  0  0
  2  4  1  0  0  0  0
  4  5  1  0  0  0  0
  4 13  1  0  0  0  0
  5  6  1  0  0  0  0
  5  7  1  0  0  0  0
  5 10  1  0  0  0  0
  7  8  1  0  0  0  0
  7  9  2  0  0  0  0
 10 11  1  0  0  0  0
 10 12  1  0  0  0  0
 13 14  2  0  0  0  0
 13 15  1  0  0  0  0
 15 16  1  0  0  0  0
 15 17  1  0  0  0  0
 17 18  1  0  0  0  0
 18 19  2  0  0  0  0
 18 20  1  0  0  0  0
 20 21  1  0  0  0  0
 20 22  1  0  0  0  0
 20 25  1  0  0  0  0
 22 23  1  0  0  0  0
 22 24  2  0  0  0  0
 25 29  2  0  0  0  0
 25 26  1  0  0  0  0
 26 27  2  0  0  0  0
 27 28  1  0  0  0  0
 28 29  1  0  0  0  0
M  END
> <Index>
1743

> <ID>
HT2057

> <class>
1

> <apol>
49.880688

> <ast_fraglike>
0

> <ast_fraglike_ext>
0

> <ast_violation>
3

> <ast_violation_ext>
5

> <a_acc>
6

> <a_acid>
0

> <a_aro>
5

> <a_base>
0

> <a_count>
41

> <a_don>
5

> <a_donacc>
11

> <a_heavy>
25

> <a_hyd>
13

> <a_IC>
77.546501

> <a_ICM>
1.891378

> <a_nB>
0

> <a_nBr>
0

> <a_nC>
15

> <a_nCl>
0

> <a_nF>
0

> <a_nH>
16

> <a_nI>
0

> <a_nN>
2

> <a_nO>
6

> <a_nP>
0

> <a_nS>
2

> <balabanJ>
1.6767601

> <BCUT_PEOE_0>
-2.6444781

> <BCUT_PEOE_1>
-0.53627914

> <BCUT_PEOE_2>
0.51151603

> <BCUT_PEOE_3>
2.8506017

> <BCUT_SLOGP_0>
-2.9002113

> <BCUT_SLOGP_1>
-0.51716048

> <BCUT_SLOGP_2>
0.49606919

> <BCUT_SLOGP_3>
2.7545574

> <BCUT_SMR_0>
-2.3907645

> <BCUT_SMR_1>
-0.32042426

> <BCUT_SMR_2>
0.72304142

> <BCUT_SMR_3>
3.1313157

> <bpol>
28.523312

> <b_1rotN>
5

> <b_1rotR>
0.18518518

> <b_ar>
5

> <b_count>
43

> <b_double>
4

> <b_heavy>
27

> <b_max1len>
4

> <b_rotN>
6

> <b_rotR>
0.22222222

> <b_single>
34

> <b_triple>
0

> <chi0>
18.516144

> <chi0v>
14.965575

> <chi0v_C>
9.0414515

> <chi0_C>
9.8174725

> <chi1>
11.647572

> <chi1v>
9.2521505

> <chi1v_C>
3.9760678

> <chi1_C>
4.6051717

> <chiral>
4

> <chiral_u>
0

> <density>
0.89913732

> <diameter>
11

> <FCharge>
0

> <GCUT_PEOE_0>
-0.83763987

> <GCUT_PEOE_1>
-0.45535183

> <GCUT_PEOE_2>
0.091896921

> <GCUT_PEOE_3>
2.7076058

> <GCUT_SLOGP_0>
-1.1647617

> <GCUT_SLOGP_1>
-0.42570022

> <GCUT_SLOGP_2>
0.091213793

> <GCUT_SLOGP_3>
2.6516953

> <GCUT_SMR_0>
-0.53657353

> <GCUT_SMR_1>
-0.23238148

> <GCUT_SMR_2>
0.24365383

> <GCUT_SMR_3>
2.9727447

> <Kier1>
19.753086

> <Kier2>
7.197279

> <Kier3>
3.453032

> <KierA1>
17.663208

> <KierA2>
6.4044061

> <KierA3>
3.0614023

> <KierFlex>
4.5248938

> <lip_acc>
8

> <lip_don>
3

> <lip_druglike>
1

> <lip_violation>
0

> <logP(o/w)>
0.63700002

> <logS>
-3.0037601

> <mr>
9.2287474

> <mutagenic>
0

> <nmol>
1

> <opr_brigid>
13

> <opr_leadlike>
1

> <opr_nring>
3

> <opr_nrot>
5

> <opr_violation>
0

> <PC+>
0

> <PC->
0

> <PEOE_PC+>
2.9327819

> <PEOE_PC->
-2.9327819

> <PEOE_RPC+>
0.096760184

> <PEOE_RPC->
0.11636017

> <PEOE_VSA+0>
34.123089

> <PEOE_VSA+1>
21.326929

> <PEOE_VSA+2>
11.413943

> <PEOE_VSA+3>
28.379631

> <PEOE_VSA+4>
33.597878

> <PEOE_VSA+5>
42.366531

> <PEOE_VSA+6>
0.0

> <PEOE_VSA-0>
39.703896

> <PEOE_VSA-1>
12.254904

> <PEOE_VSA-2>
48.222549

> <PEOE_VSA-3>
0.0

> <PEOE_VSA-4>
0.0

> <PEOE_VSA-5>
54.267685

> <PEOE_VSA-6>
15.671971

> <PEOE_VSA_FHYD>
0.5725413

> <PEOE_VSA_FNEG>
0.49840769

> <PEOE_VSA_FPNEG>
0.20490393

> <PEOE_VSA_FPOL>
0.42745873

> <PEOE_VSA_FPOS>
0.50159228

> <PEOE_VSA_FPPOS>
0.22255479

> <PEOE_VSA_HYD>
195.42494

> <PEOE_VSA_NEG>
170.121

> <PEOE_VSA_PNEG>
69.939651

> <PEOE_VSA_POL>
145.90407

> <PEOE_VSA_POS>
171.20799

> <PEOE_VSA_PPOS>
75.964409

> <petitjean>
0.45454547

> <petitjeanSC>
0.83333331

> <Q_PC+>
0

> <Q_PC->
0

> <Q_RPC+>
0

> <Q_RPC->
0

> <Q_VSA_FHYD>
1

> <Q_VSA_FNEG>
0

> <Q_VSA_FPNEG>
0

> <Q_VSA_FPOL>
0

> <Q_VSA_FPOS>
1

> <Q_VSA_FPPOS>
0

> <Q_VSA_HYD>
341.32901

> <Q_VSA_NEG>
0

> <Q_VSA_PNEG>
0

> <Q_VSA_POL>
0

> <Q_VSA_POS>
341.32901

> <Q_VSA_PPOS>
0

> <radius>
6

> <reactive>
0

> <rings>
3

> <RPC+>
0

> <RPC->
0

> <rsynth>
1.0

> <SlogP>
0.54799998

> <SlogP_VSA0>
18.01075

> <SlogP_VSA1>
29.132809

> <SlogP_VSA2>
105.75993

> <SlogP_VSA3>
50.770454

> <SlogP_VSA4>
3.185575

> <SlogP_VSA5>
0.0

> <SlogP_VSA6>
4.4107962

> <SlogP_VSA7>
49.275204

> <SlogP_VSA8>
0.0

> <SlogP_VSA9>
130.14926

> <SMR>
9.0355301

> <SMR_VSA0>
95.448868

> <SMR_VSA1>
3.1243138

> <SMR_VSA2>
68.781204

> <SMR_VSA3>
17.907436

> <SMR_VSA4>
0.0

> <SMR_VSA5>
49.275204

> <SMR_VSA6>
26.008495

> <SMR_VSA7>
130.14926

> <TPSA>
124.01

> <VAdjEq>
0.42433795

> <VAdjMa>
5.7548876

> <VDistEq>
3.3080933

> <VDistMa>
9.0050516

> <vdw_area>
341.32901

> <vdw_vol>
427.55762

> <vsa_acc>
27.133842

> <vsa_acid>
0

> <vsa_base>
0

> <vsa_don>
5.6825762

> <vsa_hyd>
176.20753

> <vsa_other>
55.316059

> <vsa_pol>
87.084099

> <Weight>
384.43298

> <weinerPath>
1474

> <weinerPol>
40

> <zagreb>
138

$$$$
Row1743
 OpenBabel06061811532D

 17 19  0  0  0  0  0  0  0  0999 V2000
    0.0000    0.0000    0.0000 Cl  0  0  0  0  0  0  0  0  0  0  0  0
    0.0000    0.0000    0.0000 C   0  0  0  0  0  0  0  0  0  0  0  0
    0.0000    0.0000    0.0000 C   0  0  0  0  0  0  0  0  0  0  0  0
    0.0000    0.0000    0.0000 C   0  0  0  0  0  0  0  0  0  0  0  0
    0.0000    0.0000    0.0000 C   0  0  0  0  0  0  0  0  0  0  0  0
    0.0000    0.0000    0.0000 C   0  0  0  0  0  0  0  0  0  0  0  0
    0.0000    0.0000    0.0000 C   0  0  0  0  0  0  0  0  0  0  0  0
    0.0000    0.0000    0.0000 C   0  0  0  0  0  0  0  0  0  0  0  0
    0.0000    0.0000    0.0000 N   0  0  0  0  0  0  0  0  0  0  0  0
    0.0000    0.0000    0.0000 C   0  0  0  0  0  0  0  0  0  0  0  0
    0.0000    0.0000    0.0000 C   0  0  0  0  0  0  0  0  0  0  0  0
    0.0000    0.0000    0.0000 C   0  0  0  0  0  0  0  0  0  0  0  0
    0.0000    0.0000    0.0000 S   0  0  0  0  0  0  0  0  0  0  0  0
    0.0000    0.0000    0.0000 C   0  0  0  0  0  0  0  0  0  0  0  0
    0.0000    0.0000    0.0000 C   0  0  0  0  0  0  0  0  0  0  0  0
    0.0000    0.0000    0.0000 C   0  0  0  0  0  0  0  0  0  0  0  0
    0.0000    0.0000    0.0000 C   0  0  0  0  0  0  0  0  0  0  0  0
  1  2  1  0  0  0  0
  2  7  1  0  0  0  0
  2  3  2  0  0  0  0
  3  4  1  0  0  0  0
  4  5  2  0  0  0  0
  5  6  1  0  0  0  0
  6  7  2  0  0  0  0
  7  8  1  0  0  0  0
  8  9  1  0  0  0  0
  9 17  1  0  0  0  0
  9 10  1  0  0  0  0
 10 11  1  0  0  0  0
 11 12  1  0  0  0  0
 12 16  2  0  0  0  0
 12 13  1  0  0  0  0
 13 14  1  0  0  0  0
 14 15  2  0  0  0  0
 15 16  1  0  0  0  0
 16 17  1  0  0  0  0
M  END
> <Index>
1744

> <ID>
HT2058

> <class>
1

> <apol>
40.155102

> <ast_fraglike>
0

> <ast_fraglike_ext>
0

> <ast_violation>
1

> <ast_violation_ext>
1

> <a_acc>
1

> <a_acid>
0

> <a_aro>
11

> <a_base>
0

> <a_count>
31

> <a_don>
0

> <a_donacc>
1

> <a_heavy>
17

> <a_hyd>
16

> <a_IC>
46.974148

> <a_ICM>
1.5152951

> <a_nB>
0

> <a_nBr>
0

> <a_nC>
14

> <a_nCl>
1

> <a_nF>
0

> <a_nH>
14

> <a_nI>
0

> <a_nN>
1

> <a_nO>
0

> <a_nP>
0

> <a_nS>
1

> <balabanJ>
1.5186994

> <BCUT_PEOE_0>
-2.6631465

> <BCUT_PEOE_1>
-0.51791877

> <BCUT_PEOE_2>
0.64161664

> <BCUT_PEOE_3>
2.5768454

> <BCUT_SLOGP_0>
-2.6379321

> <BCUT_SLOGP_1>
-0.39797586

> <BCUT_SLOGP_2>
0.80034631

> <BCUT_SLOGP_3>
2.6552796

> <BCUT_SMR_0>
-2.3702598

> <BCUT_SMR_1>
-0.37014404

> <BCUT_SMR_2>
0.88381082

> <BCUT_SMR_3>
2.8731666

> <bpol>
19.984898

> <b_1rotN>
2

> <b_1rotR>
0.10526316

> <b_ar>
11

> <b_count>
33

> <b_double>
0

> <b_heavy>
19

> <b_max1len>
2

> <b_rotN>
2

> <b_rotR>
0.10526316

> <b_single>
22

> <b_triple>
0

> <chi0>
11.664926

> <chi0v>
11.098381

> <chi0v_C>
8.2925291

> <chi0_C>
9.3804693

> <chi1>
8.3264999

> <chi1v>
7.0951281

> <chi1v_C>
4.2600188

> <chi1_C>
5.6161566

> <chiral>
0

> <chiral_u>
0

> <density>
0.77369809

> <diameter>
9

> <FCharge>
0

> <GCUT_PEOE_0>
-0.84480697

> <GCUT_PEOE_1>
-0.38143203

> <GCUT_PEOE_2>
0.058946203

> <GCUT_PEOE_3>
2.5125806

> <GCUT_SLOGP_0>
-0.89272189

> <GCUT_SLOGP_1>
-0.23507671

> <GCUT_SLOGP_2>
0.20074154

> <GCUT_SLOGP_3>
2.6499169

> <GCUT_SMR_0>
-0.51113296

> <GCUT_SMR_1>
-0.16541727

> <GCUT_SMR_2>
0.25626639

> <GCUT_SMR_3>
2.8077185

> <Kier1>
12.055402

> <Kier2>
5.3254437

> <Kier3>
2.7128029

> <KierA1>
11.308774

> <KierA2>
4.9745612

> <KierA3>
2.525569

> <KierFlex>
3.3091877

> <lip_acc>
1

> <lip_don>
0

> <lip_druglike>
1

> <lip_violation>
0

> <logP(o/w)>
3.7690001

> <logS>
-3.7490599

> <mr>
7.5536971

> <mutagenic>
0

> <nmol>
1

> <opr_brigid>
16

> <opr_leadlike>
1

> <opr_nring>
3

> <opr_nrot>
3

> <opr_violation>
0

> <PC+>
0

> <PC->
0

> <PEOE_PC+>
0.95299929

> <PEOE_PC->
-0.95299929

> <PEOE_RPC+>
0.16431434

> <PEOE_RPC->
0.30817273

> <PEOE_VSA+0>
82.485191

> <PEOE_VSA+1>
21.326929

> <PEOE_VSA+2>
0.0

> <PEOE_VSA+3>
19.760618

> <PEOE_VSA+4>
0.0

> <PEOE_VSA+5>
0.0

> <PEOE_VSA+6>
0.0

> <PEOE_VSA-0>
25.373297

> <PEOE_VSA-1>
82.786163

> <PEOE_VSA-2>
14.230966

> <PEOE_VSA-3>
0.0

> <PEOE_VSA-4>
0.0

> <PEOE_VSA-5>
0.0

> <PEOE_VSA-6>
0.0

> <PEOE_VSA_FHYD>
1.0

> <PEOE_VSA_FNEG>
0.49759656

> <PEOE_VSA_FPNEG>
0.0

> <PEOE_VSA_FPOL>
0.0

> <PEOE_VSA_FPOS>
0.50240344

> <PEOE_VSA_FPPOS>
0.0

> <PEOE_VSA_HYD>
245.96317

> <PEOE_VSA_NEG>
122.39043

> <PEOE_VSA_PNEG>
0.0

> <PEOE_VSA_POL>
0.0

> <PEOE_VSA_POS>
123.57275

> <PEOE_VSA_PPOS>
0.0

> <petitjean>
0.44444445

> <petitjeanSC>
0.80000001

> <Q_PC+>
0

> <Q_PC->
0

> <Q_RPC+>
0

> <Q_RPC->
0

> <Q_VSA_FHYD>
1

> <Q_VSA_FNEG>
0

> <Q_VSA_FPNEG>
0

> <Q_VSA_FPOL>
0

> <Q_VSA_FPOS>
1

> <Q_VSA_FPPOS>
0

> <Q_VSA_HYD>
245.96317

> <Q_VSA_NEG>
0

> <Q_VSA_PNEG>
0

> <Q_VSA_POL>
0

> <Q_VSA_POS>
245.96317

> <Q_VSA_PPOS>
0

> <radius>
5

> <reactive>
0

> <rings>
3

> <RPC+>
0

> <RPC->
0

> <rsynth>
1.0

> <SlogP>
4.4925699

> <SlogP_VSA0>
0.0

> <SlogP_VSA1>
3.1243138

> <SlogP_VSA2>
0.0

> <SlogP_VSA3>
18.439579

> <SlogP_VSA4>
7.7295513

> <SlogP_VSA5>
18.868406

> <SlogP_VSA6>
3.5006065

> <SlogP_VSA7>
104.03193

> <SlogP_VSA8>
0.0

> <SlogP_VSA9>
107.30549

> <SMR>
7.3999

> <SMR_VSA0>
0.0

> <SMR_VSA1>
3.1243138

> <SMR_VSA2>
0.0

> <SMR_VSA3>
11.230158

> <SMR_VSA4>
0.0

> <SMR_VSA5>
159.7795

> <SMR_VSA6>
18.439579

> <SMR_VSA7>
70.426331

> <TPSA>
3.24

> <VAdjEq>
0.56150466

> <VAdjMa>
5.2479277

> <VDistEq>
2.9891045

> <VDistMa>
7.8562651

> <vdw_area>
245.96317

> <vdw_vol>
340.94952

> <vsa_acc>
0.0

> <vsa_acid>
0

> <vsa_base>
0

> <vsa_don>
0.0

> <vsa_hyd>
235.99803

> <vsa_other>
0.0

> <vsa_pol>
0.0

> <Weight>
263.79199

> <weinerPath>
533

> <weinerPol>
23

> <zagreb>
90

$$$$
Row1744
 OpenBabel06061811532D

 45 48  0  0  1  0  0  0  0  0999 V2000
    0.0000    0.0000    0.0000 O   0  0  0  0  0  0  0  0  0  0  0  0
    0.0000    0.0000    0.0000 C   0  0  0  0  0  0  0  0  0  0  0  0
    0.0000    0.0000    0.0000 C   0  0  2  0  0  0  0  0  0  0  0  0
    0.0000    0.0000    0.0000 O   0  0  0  0  0  0  0  0  0  0  0  0
    0.0000    0.0000    0.0000 C   0  0  1  0  0  0  0  0  0  0  0  0
    0.0000    0.0000    0.0000 H   0  0  0  0  0  0  0  0  0  0  0  0
    0.0000    0.0000    0.0000 C   0  0  0  0  0  0  0  0  0  0  0  0
    0.0000    0.0000    0.0000 C   0  0  1  0  0  0  0  0  0  0  0  0
    0.0000    0.0000    0.0000 H   0  0  0  0  0  0  0  0  0  0  0  0
    0.0000    0.0000    0.0000 C   0  0  0  0  0  0  0  0  0  0  0  0
    0.0000    0.0000    0.0000 C   0  0  0  0  0  0  0  0  0  0  0  0
    0.0000    0.0000    0.0000 O   0  0  0  0  0  0  0  0  0  0  0  0
    0.0000    0.0000    0.0000 C   0  0  0  0  0  0  0  0  0  0  0  0
    0.0000    0.0000    0.0000 O   0  0  0  0  0  0  0  0  0  0  0  0
    0.0000    0.0000    0.0000 C   0  0  0  0  0  0  0  0  0  0  0  0
    0.0000    0.0000    0.0000 C   0  0  0  0  0  0  0  0  0  0  0  0
    0.0000    0.0000    0.0000 C   0  0  0  0  0  0  0  0  0  0  0  0
    0.0000    0.0000    0.0000 C   0  0  0  0  0  0  0  0  0  0  0  0
    0.0000    0.0000    0.0000 N   0  0  0  0  0  0  0  0  0  0  0  0
    0.0000    0.0000    0.0000 C   0  0  0  0  0  0  0  0  0  0  0  0
    0.0000    0.0000    0.0000 C   0  0  0  0  0  0  0  0  0  0  0  0
    0.0000    0.0000    0.0000 C   0  0  0  0  0  0  0  0  0  0  0  0
    0.0000    0.0000    0.0000 C   0  0  0  0  0  0  0  0  0  0  0  0
    0.0000    0.0000    0.0000 N   0  0  0  0  0  0  0  0  0  0  0  0
    0.0000    0.0000    0.0000 C   0  0  0  0  0  0  0  0  0  0  0  0
    0.0000    0.0000    0.0000 O   0  0  0  0  0  0  0  0  0  0  0  0
    0.0000    0.0000    0.0000 C   0  0  0  0  0  0  0  0  0  0  0  0
    0.0000    0.0000    0.0000 N   0  0  0  0  0  0  0  0  0  0  0  0
    0.0000    0.0000    0.0000 C   0  0  0  0  0  0  0  0  0  0  0  0
    0.0000    0.0000    0.0000 C   0  0  0  0  0  0  0  0  0  0  0  0
    0.0000    0.0000    0.0000 C   0  0  0  0  0  0  0  0  0  0  0  0
    0.0000    0.0000    0.0000 C   0  0  0  0  0  0  0  0  0  0  0  0
    0.0000    0.0000    0.0000 C   0  0  0  0  0  0  0  0  0  0  0  0
    0.0000    0.0000    0.0000 O   0  0  0  0  0  0  0  0  0  0  0  0
    0.0000    0.0000    0.0000 C   0  0  2  0  0  0  0  0  0  0  0  0
    0.0000    0.0000    0.0000 H   0  0  0  0  0  0  0  0  0  0  0  0
    0.0000    0.0000    0.0000 N   0  0  0  0  0  0  0  0  0  0  0  0
    0.0000    0.0000    0.0000 C   0  0  0  0  0  0  0  0  0  0  0  0
    0.0000    0.0000    0.0000 C   0  0  0  0  0  0  0  0  0  0  0  0
    0.0000    0.0000    0.0000 C   0  0  0  0  0  0  0  0  0  0  0  0
    0.0000    0.0000    0.0000 O   0  0  0  0  0  0  0  0  0  0  0  0
    0.0000    0.0000    0.0000 C   0  0  0  0  0  0  0  0  0  0  0  0
    0.0000    0.0000    0.0000 C   0  0  0  0  0  0  0  0  0  0  0  0
    0.0000    0.0000    0.0000 O   0  0  0  0  0  0  0  0  0  0  0  0
    0.0000    0.0000    0.0000 N   0  0  0  0  0  0  0  0  0  0  0  0
  1  2  1  0  0  0  0
  2 42  2  0  0  0  0
  2  3  1  0  0  0  0
  3 11  1  0  0  0  0
  3  4  1  0  0  0  0
  3  5  1  0  0  0  0
  5  6  1  0  0  0  0
  5  7  1  0  0  0  0
  5 35  1  0  0  0  0
  7  8  1  0  0  0  0
  8  9  1  0  0  0  0
  8 17  1  0  0  0  0
  8 10  1  0  0  0  0
 10 11  1  0  0  0  0
 10 13  2  0  0  0  0
 11 12  2  0  0  0  0
 13 14  1  0  0  0  0
 13 15  1  0  0  0  0
 15 33  1  0  0  0  0
 15 16  2  0  0  0  0
 16 17  1  0  0  0  0
 16 18  1  0  0  0  0
 18 19  1  0  0  0  0
 18 22  2  0  0  0  0
 19 20  1  0  0  0  0
 19 21  1  0  0  0  0
 22 23  1  0  0  0  0
 23 24  1  0  0  0  0
 23 33  2  0  0  0  0
 24 25  1  0  0  0  0
 25 26  2  0  0  0  0
 25 27  1  0  0  0  0
 27 28  1  0  0  0  0
 28 29  1  0  0  0  0
 29 30  1  0  0  0  0
 29 31  1  0  0  0  0
 29 32  1  0  0  0  0
 33 34  1  0  0  0  0
 35 36  1  0  0  0  0
 35 37  1  0  0  0  0
 35 40  1  0  0  0  0
 37 38  1  0  0  0  0
 37 39  1  0  0  0  0
 40 41  2  0  0  0  0
 40 42  1  0  0  0  0
 42 43  1  0  0  0  0
 43 44  2  0  0  0  0
 43 45  1  0  0  0  0
M  END
> <Index>
1745

> <ID>
HT2060

> <class>
1

> <apol>
88.96093

> <ast_fraglike>
0

> <ast_fraglike_ext>
0

> <ast_violation>
3

> <ast_violation_ext>
5

> <a_acc>
10

> <a_acid>
0

> <a_aro>
6

> <a_base>
0

> <a_count>
81

> <a_don>
9

> <a_donacc>
19

> <a_heavy>
42

> <a_hyd>
25

> <a_IC>
130.90607

> <a_ICM>
1.6161244

> <a_nB>
0

> <a_nBr>
0

> <a_nC>
29

> <a_nCl>
0

> <a_nF>
0

> <a_nH>
39

> <a_nI>
0

> <a_nN>
5

> <a_nO>
8

> <a_nP>
0

> <a_nS>
0

> <balabanJ>
1.6576322

> <BCUT_PEOE_0>
-2.7736037

> <BCUT_PEOE_1>
-0.42799616

> <BCUT_PEOE_2>
0.44042191

> <BCUT_PEOE_3>
2.830868

> <BCUT_SLOGP_0>
-2.8690126

> <BCUT_SLOGP_1>
-0.40389106

> <BCUT_SLOGP_2>
0.40137365

> <BCUT_SLOGP_3>
2.7835186

> <BCUT_SMR_0>
-2.5365407

> <BCUT_SMR_1>
-0.23380056

> <BCUT_SMR_2>
0.5817185

> <BCUT_SMR_3>
3.0631778

> <bpol>
51.087074

> <b_1rotN>
6

> <b_1rotR>
0.13333334

> <b_ar>
6

> <b_count>
84

> <b_double>
6

> <b_heavy>
45

> <b_max1len>
5

> <b_rotN>
8

> <b_rotR>
0.17777778

> <b_single>
72

> <b_triple>
0

> <chi0>
31.634945

> <chi0v>
24.824347

> <chi0v_C>
18.930721

> <chi0_C>
20.066031

> <chi1>
19.322016

> <chi1v>
13.582373

> <chi1v_C>
8.2085609

> <chi1_C>
9.5570965

> <chiral>
4

> <chiral_u>
0

> <density>
0.77151126

> <diameter>
16

> <FCharge>
0

> <GCUT_PEOE_0>
-0.84918076

> <GCUT_PEOE_1>
-0.42895851

> <GCUT_PEOE_2>
0.022157777

> <GCUT_PEOE_3>
3.1840348

> <GCUT_SLOGP_0>
-1.3705214

> <GCUT_SLOGP_1>
-0.37942848

> <GCUT_SLOGP_2>
0.028429454

> <GCUT_SLOGP_3>
3.1888151

> <GCUT_SMR_0>
-0.52352995

> <GCUT_SMR_1>
-0.19174221

> <GCUT_SMR_2>
0.14684387

> <GCUT_SMR_3>
3.4364076

> <Kier1>
34.865185

> <Kier2>
12.654321

> <Kier3>
6.2399998

> <KierA1>
27.788609

> <KierA2>
10.027045

> <KierA3>
4.9243679

> <KierFlex>
6.6342292

> <lip_acc>
13

> <lip_don>
8

> <lip_druglike>
0

> <lip_violation>
3

> <logP(o/w)>
-0.25600001

> <logS>
-3.40628

> <mr>
15.031704

> <mutagenic>
0

> <nmol>
1

> <opr_brigid>
21

> <opr_leadlike>
0

> <opr_nring>
4

> <opr_nrot>
7

> <opr_violation>
3

> <PC+>
0

> <PC->
0

> <PEOE_PC+>
4.4166307

> <PEOE_PC->
-4.4166307

> <PEOE_RPC+>
0.057787456

> <PEOE_RPC->
0.084662244

> <PEOE_VSA+0>
126.28205

> <PEOE_VSA+1>
48.557899

> <PEOE_VSA+2>
27.744591

> <PEOE_VSA+3>
34.315559

> <PEOE_VSA+4>
62.704742

> <PEOE_VSA+5>
12.949531

> <PEOE_VSA+6>
0.0

> <PEOE_VSA-0>
181.06386

> <PEOE_VSA-1>
0.0

> <PEOE_VSA-2>
0.0

> <PEOE_VSA-3>
0.0

> <PEOE_VSA-4>
0.0

> <PEOE_VSA-5>
54.267685

> <PEOE_VSA-6>
37.995064

> <PEOE_VSA_FHYD>
0.71339399

> <PEOE_VSA_FNEG>
0.4665224

> <PEOE_VSA_FPNEG>
0.15747695

> <PEOE_VSA_FPOL>
0.28660601

> <PEOE_VSA_FPOS>
0.5334776

> <PEOE_VSA_FPPOS>
0.12912908

> <PEOE_VSA_HYD>
417.96396

> <PEOE_VSA_NEG>
273.3266

> <PEOE_VSA_PNEG>
92.262749

> <PEOE_VSA_POL>
167.91702

> <PEOE_VSA_POS>
312.55438

> <PEOE_VSA_PPOS>
75.654274

> <petitjean>
0.5

> <petitjeanSC>
1.0

> <Q_PC+>
0

> <Q_PC->
0

> <Q_RPC+>
0

> <Q_RPC->
0

> <Q_VSA_FHYD>
1

> <Q_VSA_FNEG>
0

> <Q_VSA_FPNEG>
0

> <Q_VSA_FPOL>
0

> <Q_VSA_FPOS>
1

> <Q_VSA_FPPOS>
0

> <Q_VSA_HYD>
585.88098

> <Q_VSA_NEG>
0

> <Q_VSA_PNEG>
0

> <Q_VSA_POL>
0

> <Q_VSA_POS>
585.88098

> <Q_VSA_PPOS>
0

> <radius>
8

> <reactive>
0

> <rings>
4

> <RPC+>
0

> <RPC->
0

> <rsynth>
0.42857143

> <SlogP>
0.35657001

> <SlogP_VSA0>
104.8027

> <SlogP_VSA1>
43.027855

> <SlogP_VSA2>
99.430832

> <SlogP_VSA3>
69.21003

> <SlogP_VSA4>
15.192742

> <SlogP_VSA5>
162.07173

> <SlogP_VSA6>
0.0

> <SlogP_VSA7>
22.886612

> <SlogP_VSA8>
18.868406

> <SlogP_VSA9>
110.73497

> <SMR>
15.4957

> <SMR_VSA0>
95.448868

> <SMR_VSA1>
53.894768

> <SMR_VSA2>
80.727112

> <SMR_VSA3>
27.211124

> <SMR_VSA4>
61.66486

> <SMR_VSA5>
55.379993

> <SMR_VSA6>
40.332367

> <SMR_VSA7>
231.56679

> <TPSA>
205.75999

> <VAdjEq>
0.29071587

> <VAdjMa>
6.4918532

> <VDistEq>
3.7879663

> <VDistMa>
10.514056

> <vdw_area>
585.88098

> <vdw_vol>
759.10492

> <vsa_acc>
27.133842

> <vsa_acid>
0

> <vsa_base>
0

> <vsa_don>
23.425066

> <vsa_hyd>
350.27362

> <vsa_other>
42.816101

> <vsa_pol>
137.64301

> <Weight>
585.65796

> <weinerPath>
5641

> <weinerPol>
88

> <zagreb>
234

$$$$
Row1745
 OpenBabel06061811532D

 16 16  0  0  0  0  0  0  0  0999 V2000
    0.0000    0.0000    0.0000 S   0  0  0  0  0  0  0  0  0  0  0  0
    0.0000    0.0000    0.0000 O   0  0  0  0  0  0  0  0  0  0  0  0
    0.0000    0.0000    0.0000 O   0  0  0  0  0  0  0  0  0  0  0  0
    0.0000    0.0000    0.0000 C   0  0  0  0  0  0  0  0  0  0  0  0
    0.0000    0.0000    0.0000 C   0  0  0  0  0  0  0  0  0  0  0  0
    0.0000    0.0000    0.0000 N   0  0  0  0  0  0  0  0  0  0  0  0
    0.0000    0.0000    0.0000 C   0  0  0  0  0  0  0  0  0  0  0  0
    0.0000    0.0000    0.0000 N   0  0  0  0  0  0  0  0  0  0  0  0
    0.0000    0.0000    0.0000 C   0  0  0  0  0  0  0  0  0  0  0  0
    0.0000    0.0000    0.0000 C   0  0  0  0  0  0  0  0  0  0  0  0
    0.0000    0.0000    0.0000 N   0  3  0  0  0  0  0  0  0  0  0  0
    0.0000    0.0000    0.0000 O   0  0  0  0  0  0  0  0  0  0  0  0
    0.0000    0.0000    0.0000 O   0  5  0  0  0  0  0  0  0  0  0  0
    0.0000    0.0000    0.0000 C   0  0  0  0  0  0  0  0  0  0  0  0
    0.0000    0.0000    0.0000 C   0  0  0  0  0  0  0  0  0  0  0  0
    0.0000    0.0000    0.0000 C   0  0  0  0  0  0  0  0  0  0  0  0
  1  2  2  0  0  0  0
  1  3  2  0  0  0  0
  1  4  1  0  0  0  0
  1 15  1  0  0  0  0
  4  5  1  0  0  0  0
  5  6  1  0  0  0  0
  6 10  1  0  0  0  0
  6  7  1  0  0  0  0
  7  8  2  0  0  0  0
  7 14  1  0  0  0  0
  8  9  1  0  0  0  0
  9 10  2  0  0  0  0
 10 11  1  0  0  0  0
 11 12  2  0  0  0  0
 11 13  1  0  0  0  0
 15 16  1  0  0  0  0
M  CHG  2  11   1  13  -1
M  END
> <Index>
1746

> <ID>
HT2065

> <class>
1

> <apol>
32.156307

> <ast_fraglike>
1

> <ast_fraglike_ext>
0

> <ast_violation>
0

> <ast_violation_ext>
1

> <a_acc>
3

> <a_acid>
0

> <a_aro>
5

> <a_base>
0

> <a_count>
29

> <a_don>
0

> <a_donacc>
3

> <a_heavy>
16

> <a_hyd>
7

> <a_IC>
56.020844

> <a_ICM>
1.9317533

> <a_nB>
0

> <a_nBr>
0

> <a_nC>
8

> <a_nCl>
0

> <a_nF>
0

> <a_nH>
13

> <a_nI>
0

> <a_nN>
3

> <a_nO>
4

> <a_nP>
0

> <a_nS>
1

> <balabanJ>
2.5147586

> <BCUT_PEOE_0>
-2.5910928

> <BCUT_PEOE_1>
-0.44975778

> <BCUT_PEOE_2>
0.25602657

> <BCUT_PEOE_3>
2.656076

> <BCUT_SLOGP_0>
-2.6536443

> <BCUT_SLOGP_1>
-0.29414722

> <BCUT_SLOGP_2>
0.32079303

> <BCUT_SLOGP_3>
2.5800066

> <BCUT_SMR_0>
-2.2929273

> <BCUT_SMR_1>
0.017017962

> <BCUT_SMR_2>
0.54303515

> <BCUT_SMR_3>
2.9482722

> <bpol>
25.24369

> <b_1rotN>
5

> <b_1rotR>
0.3125

> <b_ar>
5

> <b_count>
29

> <b_double>
1

> <b_heavy>
16

> <b_max1len>
6

> <b_rotN>
5

> <b_rotR>
0.3125

> <b_single>
23

> <b_triple>
0

> <chi0>
12.344935

> <chi0v>
9.8980494

> <chi0v_C>
5.6986704

> <chi0_C>
5.9831276

> <chi1>
7.3710093

> <chi1v>
6.5618348

> <chi1v_C>
1.9957819

> <chi1_C>
2.1927054

> <chiral>
0

> <chiral_u>
0

> <density>
0.88350719

> <diameter>
8

> <FCharge>
0

> <GCUT_PEOE_0>
-0.91040397

> <GCUT_PEOE_1>
-0.41017851

> <GCUT_PEOE_2>
-0.019270357

> <GCUT_PEOE_3>
2.4571109

> <GCUT_SLOGP_0>
-0.85329145

> <GCUT_SLOGP_1>
-0.33816314

> <GCUT_SLOGP_2>
0.029610481

> <GCUT_SLOGP_3>
2.4308023

> <GCUT_SMR_0>
-0.50548857

> <GCUT_SMR_1>
-0.097585112

> <GCUT_SMR_2>
0.19586383

> <GCUT_SMR_3>
2.678952

> <Kier1>
14.0625

> <Kier2>
5.5576558

> <Kier3>
3.7692308

> <KierA1>
12.55043

> <KierA2>
4.9199724

> <KierA3>
3.316473

> <KierFlex>
3.8592358

> <lip_acc>
7

> <lip_don>
0

> <lip_druglike>
1

> <lip_violation>
0

> <logP(o/w)>
0.37599999

> <logS>
-1.41527

> <mr>
5.7973876

> <mutagenic>
1

> <nmol>
1

> <opr_brigid>
5

> <opr_leadlike>
1

> <opr_nring>
1

> <opr_nrot>
5

> <opr_violation>
0

> <PC+>
0

> <PC->
0

> <PEOE_PC+>
2.3063607

> <PEOE_PC->
-2.3063607

> <PEOE_RPC+>
0.1306503

> <PEOE_RPC->
0.20750687

> <PEOE_VSA+0>
63.087669

> <PEOE_VSA+1>
8.5307722

> <PEOE_VSA+2>
21.326929

> <PEOE_VSA+3>
51.292992

> <PEOE_VSA+4>
11.190562

> <PEOE_VSA+5>
0.0

> <PEOE_VSA+6>
11.190562

> <PEOE_VSA-0>
0.0

> <PEOE_VSA-1>
4.0280342

> <PEOE_VSA-2>
5.6825762

> <PEOE_VSA-3>
6.5127993

> <PEOE_VSA-4>
0.0

> <PEOE_VSA-5>
0.0

> <PEOE_VSA-6>
65.947571

> <PEOE_VSA_FHYD>
0.6449675

> <PEOE_VSA_FNEG>
0.33028185

> <PEOE_VSA_FPNEG>
0.26507273

> <PEOE_VSA_FPOL>
0.35503247

> <PEOE_VSA_FPOS>
0.66971815

> <PEOE_VSA_FPPOS>
0.089959741

> <PEOE_VSA_HYD>
160.46178

> <PEOE_VSA_NEG>
82.170982

> <PEOE_VSA_PNEG>
65.947571

> <PEOE_VSA_POL>
88.328697

> <PEOE_VSA_POS>
166.61949

> <PEOE_VSA_PPOS>
22.381124

> <petitjean>
0.5

> <petitjeanSC>
1.0

> <Q_PC+>
0

> <Q_PC->
0

> <Q_RPC+>
0

> <Q_RPC->
0

> <Q_VSA_FHYD>
1

> <Q_VSA_FNEG>
0

> <Q_VSA_FPNEG>
0

> <Q_VSA_FPOL>
0

> <Q_VSA_FPOS>
1

> <Q_VSA_FPPOS>
0

> <Q_VSA_HYD>
248.79047

> <Q_VSA_NEG>
0

> <Q_VSA_PNEG>
0

> <Q_VSA_POL>
0

> <Q_VSA_POS>
248.79047

> <Q_VSA_PPOS>
0

> <radius>
4

> <reactive>
1

> <rings>
1

> <RPC+>
0

> <RPC->
0

> <rsynth>
1.0

> <SlogP>
0.80081999

> <SlogP_VSA0>
0.0

> <SlogP_VSA1>
73.941925

> <SlogP_VSA2>
6.8792672

> <SlogP_VSA3>
85.402138

> <SlogP_VSA4>
2.3279202

> <SlogP_VSA5>
0.0

> <SlogP_VSA6>
0.0

> <SlogP_VSA7>
17.214357

> <SlogP_VSA8>
0.0

> <SlogP_VSA9>
87.419525

> <SMR>
5.8151202

> <SMR_VSA0>
55.257305

> <SMR_VSA1>
18.684622

> <SMR_VSA2>
50.935009

> <SMR_VSA3>
2.3279202

> <SMR_VSA4>
2.3279202

> <SMR_VSA5>
35.653934

> <SMR_VSA6>
34.467129

> <SMR_VSA7>
73.531296

> <TPSA>
97.779999

> <VAdjEq>
0.54356444

> <VAdjMa>
5.0

> <VDistEq>
2.8436399

> <VDistMa>
7.7056289

> <vdw_area>
248.79047

> <vdw_vol>
279.87888

> <vsa_acc>
37.6991

> <vsa_acid>
0

> <vsa_base>
0

> <vsa_don>
0.0

> <vsa_hyd>
139.01306

> <vsa_other>
62.824974

> <vsa_pol>
37.6991

> <Weight>
247.27499

> <weinerPath>
450

> <weinerPol>
21

> <zagreb>
78

$$$$
Row1746
 OpenBabel06061811532D

 10  9  0  0  1  0  0  0  0  0999 V2000
    0.0000    0.0000    0.0000 S   0  0  0  0  0  0  0  0  0  0  0  0
    0.0000    0.0000    0.0000 C   0  0  3  0  0  0  0  0  0  0  0  0
    0.0000    0.0000    0.0000 C   0  0  0  0  0  0  0  0  0  0  0  0
    0.0000    0.0000    0.0000 O   0  0  0  0  0  0  0  0  0  0  0  0
    0.0000    0.0000    0.0000 N   0  0  0  0  0  0  0  0  0  0  0  0
    0.0000    0.0000    0.0000 C   0  0  0  0  0  0  0  0  0  0  0  0
    0.0000    0.0000    0.0000 C   0  0  0  0  0  0  0  0  0  0  0  0
    0.0000    0.0000    0.0000 O   0  0  0  0  0  0  0  0  0  0  0  0
    0.0000    0.0000    0.0000 O   0  0  0  0  0  0  0  0  0  0  0  0
    0.0000    0.0000    0.0000 C   0  0  0  0  0  0  0  0  0  0  0  0
  1  2  1  0  0  0  0
  2  3  1  0  0  0  0
  2 10  1  0  0  0  0
  3  4  2  0  0  0  0
  3  5  1  0  0  0  0
  5  6  1  0  0  0  0
  6  7  1  0  0  0  0
  7  8  1  0  0  0  0
  7  9  2  0  0  0  0
M  END
> <Index>
1747

> <ID>
HT2067

> <class>
1

> <apol>
21.207136

> <ast_fraglike>
1

> <ast_fraglike_ext>
1

> <ast_violation>
0

> <ast_violation_ext>
0

> <a_acc>
3

> <a_acid>
0

> <a_aro>
0

> <a_base>
0

> <a_count>
19

> <a_don>
3

> <a_donacc>
6

> <a_heavy>
10

> <a_hyd>
3

> <a_IC>
35.816769

> <a_ICM>
1.8850931

> <a_nB>
0

> <a_nBr>
0

> <a_nC>
5

> <a_nCl>
0

> <a_nF>
0

> <a_nH>
9

> <a_nI>
0

> <a_nN>
1

> <a_nO>
3

> <a_nP>
0

> <a_nS>
1

> <balabanJ>
3.33255

> <BCUT_PEOE_0>
-2.4445486

> <BCUT_PEOE_1>
-0.50716114

> <BCUT_PEOE_2>
0.4580768

> <BCUT_PEOE_3>
2.4785366

> <BCUT_SLOGP_0>
-2.6661837

> <BCUT_SLOGP_1>
-0.49031138

> <BCUT_SLOGP_2>
0.39181513

> <BCUT_SLOGP_3>
2.4363699

> <BCUT_SMR_0>
-2.1715407

> <BCUT_SMR_1>
-0.30409038

> <BCUT_SMR_2>
0.58493263

> <BCUT_SMR_3>
2.7612586

> <bpol>
14.694863

> <b_1rotN>
3

> <b_1rotR>
0.33333334

> <b_ar>
0

> <b_count>
18

> <b_double>
2

> <b_heavy>
9

> <b_max1len>
4

> <b_rotN>
4

> <b_rotR>
0.44444445

> <b_single>
16

> <b_triple>
0

> <chi0>
8.1462641

> <chi0v>
6.3898082

> <chi0v_C>
3.284457

> <chi0_C>
3.4391575

> <chi1>
4.536581

> <chi1v>
3.229584

> <chi1v_C>
1.2195787

> <chi1_C>
1.3189319

> <chiral>
1

> <chiral_u>
1

> <density>
0.88439244

> <diameter>
6

> <FCharge>
0

> <GCUT_PEOE_0>
-0.81606197

> <GCUT_PEOE_1>
-0.43545324

> <GCUT_PEOE_2>
0.10140596

> <GCUT_PEOE_3>
2.0494955

> <GCUT_SLOGP_0>
-1.163349

> <GCUT_SLOGP_1>
-0.46081209

> <GCUT_SLOGP_2>
0.03709016

> <GCUT_SLOGP_3>
1.9785734

> <GCUT_SMR_0>
-0.49377435

> <GCUT_SMR_1>
-0.21898718

> <GCUT_SMR_2>
0.19586377

> <GCUT_SMR_3>
2.3118591

> <Kier1>
10.0

> <Kier2>
4.7603307

> <Kier3>
5.5308642

> <KierA1>
9.1549568

> <KierA2>
4.3110976

> <KierA3>
4.9646544

> <KierFlex>
3.9467912

> <lip_acc>
4

> <lip_don>
2

> <lip_druglike>
1

> <lip_violation>
0

> <logP(o/w)>
0.0070000002

> <logS>
-1.07462

> <mr>
3.9264419

> <mutagenic>
0

> <nmol>
1

> <opr_brigid>
0

> <opr_leadlike>
1

> <opr_nring>
0

> <opr_nrot>
3

> <opr_violation>
0

> <PC+>
0

> <PC->
0

> <PEOE_PC+>
1.4215156

> <PEOE_PC->
-1.4215156

> <PEOE_RPC+>
0.19626383

> <PEOE_RPC->
0.24327923

> <PEOE_VSA+0>
12.796158

> <PEOE_VSA+1>
13.427169

> <PEOE_VSA+2>
20.973423

> <PEOE_VSA+3>
8.6190128

> <PEOE_VSA+4>
23.273705

> <PEOE_VSA+5>
14.708499

> <PEOE_VSA+6>
0.0

> <PEOE_VSA-0>
18.747677

> <PEOE_VSA-1>
0.0

> <PEOE_VSA-2>
0.0

> <PEOE_VSA-3>
26.362989

> <PEOE_VSA-4>
0.0

> <PEOE_VSA-5>
27.133842

> <PEOE_VSA-6>
7.9044313

> <PEOE_VSA_FHYD>
0.58021402

> <PEOE_VSA_FNEG>
0.4607667

> <PEOE_VSA_FPNEG>
0.20143086

> <PEOE_VSA_FPOL>
0.41978601

> <PEOE_VSA_FPOS>
0.53923333

> <PEOE_VSA_FPPOS>
0.21835515

> <PEOE_VSA_HYD>
100.92643

> <PEOE_VSA_NEG>
80.148941

> <PEOE_VSA_PNEG>
35.038273

> <PEOE_VSA_POL>
73.020477

> <PEOE_VSA_POS>
93.797966

> <PEOE_VSA_PPOS>
37.982204

> <petitjean>
0.5

> <petitjeanSC>
1.0

> <Q_PC+>
0

> <Q_PC->
0

> <Q_RPC+>
0

> <Q_RPC->
0

> <Q_VSA_FHYD>
1

> <Q_VSA_FNEG>
0

> <Q_VSA_FPNEG>
0

> <Q_VSA_FPOL>
0

> <Q_VSA_FPOS>
1

> <Q_VSA_FPPOS>
0

> <Q_VSA_HYD>
173.9469

> <Q_VSA_NEG>
0

> <Q_VSA_PNEG>
0

> <Q_VSA_POL>
0

> <Q_VSA_POS>
173.9469

> <Q_VSA_PPOS>
0

> <radius>
3

> <reactive>
1

> <rings>
0

> <RPC+>
0

> <RPC->
0

> <rsynth>
1.0

> <SlogP>
-0.49450001

> <SlogP_VSA0>
18.01075

> <SlogP_VSA1>
13.004248

> <SlogP_VSA2>
50.500389

> <SlogP_VSA3>
43.824806

> <SlogP_VSA4>
0.0

> <SlogP_VSA5>
0.0

> <SlogP_VSA6>
0.0

> <SlogP_VSA7>
0.0

> <SlogP_VSA8>
46.107109

> <SlogP_VSA9>
33.326015

> <SMR>
3.9094501

> <SMR_VSA0>
47.724434

> <SMR_VSA1>
0.0

> <SMR_VSA2>
43.395977

> <SMR_VSA3>
2.7759552

> <SMR_VSA4>
0.0

> <SMR_VSA5>
0.0

> <SMR_VSA6>
31.443827

> <SMR_VSA7>
79.433128

> <TPSA>
105.2

> <VAdjEq>
0.68007702

> <VAdjMa>
4.1699252

> <VDistEq>
2.5111432

> <VDistMa>
6.2897353

> <vdw_area>
173.9469

> <vdw_vol>
184.53008

> <vsa_acc>
13.566921

> <vsa_acid>
0

> <vsa_base>
0

> <vsa_don>
5.6825762

> <vsa_hyd>
53.892555

> <vsa_other>
59.042542

> <vsa_pol>
46.383339

> <Weight>
163.19701

> <weinerPath>
136

> <weinerPol>
9

> <zagreb>
40

$$$$
Row1747
 OpenBabel06061811532D

 17 19  0  0  0  0  0  0  0  0999 V2000
    0.0000    0.0000    0.0000 Cl  0  0  0  0  0  0  0  0  0  0  0  0
    0.0000    0.0000    0.0000 C   0  0  0  0  0  0  0  0  0  0  0  0
    0.0000    0.0000    0.0000 C   0  0  0  0  0  0  0  0  0  0  0  0
    0.0000    0.0000    0.0000 C   0  0  0  0  0  0  0  0  0  0  0  0
    0.0000    0.0000    0.0000 C   0  0  0  0  0  0  0  0  0  0  0  0
    0.0000    0.0000    0.0000 N   0  0  0  0  0  0  0  0  0  0  0  0
    0.0000    0.0000    0.0000 S   0  0  0  0  0  0  0  0  0  0  0  0
    0.0000    0.0000    0.0000 N   0  0  0  0  0  0  0  0  0  0  0  0
    0.0000    0.0000    0.0000 C   0  0  0  0  0  0  0  0  0  0  0  0
    0.0000    0.0000    0.0000 C   0  0  0  0  0  0  0  0  0  0  0  0
    0.0000    0.0000    0.0000 N   0  0  0  0  0  0  0  0  0  0  0  0
    0.0000    0.0000    0.0000 C   0  0  0  0  0  0  0  0  0  0  0  0
    0.0000    0.0000    0.0000 N   0  0  0  0  0  0  0  0  0  0  0  0
    0.0000    0.0000    0.0000 H   0  0  0  0  0  0  0  0  0  0  0  0
    0.0000    0.0000    0.0000 C   0  0  0  0  0  0  0  0  0  0  0  0
    0.0000    0.0000    0.0000 C   0  0  0  0  0  0  0  0  0  0  0  0
    0.0000    0.0000    0.0000 N   0  0  0  0  0  0  0  0  0  0  0  0
  1  2  1  0  0  0  0
  2 10  1  0  0  0  0
  2  3  2  0  0  0  0
  3  4  1  0  0  0  0
  4  5  2  0  0  0  0
  5  9  1  0  0  0  0
  5  6  1  0  0  0  0
  6  7  1  0  0  0  0
  7  8  1  0  0  0  0
  8  9  1  0  0  0  0
  9 10  2  0  0  0  0
 10 11  1  0  0  0  0
 11 12  1  0  0  0  0
 12 17  2  0  0  0  0
 12 13  1  0  0  0  0
 13 14  1  0  0  0  0
 13 15  1  0  0  0  0
 15 16  2  0  0  0  0
 16 17  1  0  0  0  0
M  END
> <Index>
1748

> <ID>
HT2072

> <class>
1

> <apol>
31.754345

> <ast_fraglike>
0

> <ast_fraglike_ext>
0

> <ast_violation>
2

> <ast_violation_ext>
2

> <a_acc>
2

> <a_acid>
0

> <a_aro>
11

> <a_base>
0

> <a_count>
24

> <a_don>
5

> <a_donacc>
7

> <a_heavy>
16

> <a_hyd>
9

> <a_IC>
45.900135

> <a_ICM>
1.9125056

> <a_nB>
0

> <a_nBr>
0

> <a_nC>
9

> <a_nCl>
1

> <a_nF>
0

> <a_nH>
8

> <a_nI>
0

> <a_nN>
5

> <a_nO>
0

> <a_nP>
0

> <a_nS>
1

> <balabanJ>
1.6590889

> <BCUT_PEOE_0>
-2.2481084

> <BCUT_PEOE_1>
-0.61001021

> <BCUT_PEOE_2>
0.79723883

> <BCUT_PEOE_3>
2.323132

> <BCUT_SLOGP_0>
-2.1699612

> <BCUT_SLOGP_1>
-0.51552957

> <BCUT_SLOGP_2>
0.94029099

> <BCUT_SLOGP_3>
2.5371439

> <BCUT_SMR_0>
-1.8865733

> <BCUT_SMR_1>
-0.4578594

> <BCUT_SMR_2>
1.0498962

> <BCUT_SMR_3>
2.7344308

> <bpol>
15.405656

> <b_1rotN>
2

> <b_1rotR>
0.11111111

> <b_ar>
11

> <b_count>
26

> <b_double>
0

> <b_heavy>
18

> <b_max1len>
1

> <b_rotN>
2

> <b_rotR>
0.11111111

> <b_single>
15

> <b_triple>
0

> <chi0>
10.957819

> <chi0v>
9.6152525

> <chi0v_C>
4.809401

> <chi0_C>
5.7151785

> <chi1>
7.8433366

> <chi1v>
5.8061895

> <chi1v_C>
1.9940169

> <chi1_C>
2.8164966

> <chiral>
0

> <chiral_u>
0

> <density>
0.90443373

> <diameter>
7

> <FCharge>
0

> <GCUT_PEOE_0>
-0.82978761

> <GCUT_PEOE_1>
-0.4159759

> <GCUT_PEOE_2>
0.16523927

> <GCUT_PEOE_3>
2.2545838

> <GCUT_SLOGP_0>
-0.89756703

> <GCUT_SLOGP_1>
-0.26872674

> <GCUT_SLOGP_2>
0.32759175

> <GCUT_SLOGP_3>
2.4588864

> <GCUT_SMR_0>
-0.43791941

> <GCUT_SMR_1>
-0.20216195

> <GCUT_SMR_2>
0.39487556

> <GCUT_SMR_3>
2.610678

> <Kier1>
11.111111

> <Kier2>
4.704

> <Kier3>
2.2041523

> <KierA1>
8.9527159

> <KierA2>
3.7311831

> <KierA3>
1.7277814

> <KierFlex>
2.087764

> <lip_acc>
5

> <lip_don>
4

> <lip_druglike>
1

> <lip_violation>
0

> <logP(o/w)>
2.049

> <logS>
-3.5397899

> <mr>
6.3522506

> <mutagenic>
0

> <nmol>
1

> <opr_brigid>
15

> <opr_leadlike>
1

> <opr_nring>
3

> <opr_nrot>
2

> <opr_violation>
0

> <PC+>
0

> <PC->
0

> <PEOE_PC+>
1.3832263

> <PEOE_PC->
-1.3832263

> <PEOE_RPC+>
0.1328831

> <PEOE_RPC->
0.24234755

> <PEOE_VSA+0>
67.137619

> <PEOE_VSA+1>
34.980392

> <PEOE_VSA+2>
25.857038

> <PEOE_VSA+3>
24.300587

> <PEOE_VSA+4>
0.0

> <PEOE_VSA+5>
0.0

> <PEOE_VSA+6>
0.0

> <PEOE_VSA-0>
24.509808

> <PEOE_VSA-1>
29.581947

> <PEOE_VSA-2>
0.0

> <PEOE_VSA-3>
0.0

> <PEOE_VSA-4>
10.87851

> <PEOE_VSA-5>
0.0

> <PEOE_VSA-6>
0.13689101

> <PEOE_VSA_FHYD>
0.94932717

> <PEOE_VSA_FNEG>
0.29950464

> <PEOE_VSA_FPNEG>
0.050672829

> <PEOE_VSA_FPOL>
0.050672829

> <PEOE_VSA_FPOS>
0.70049536

> <PEOE_VSA_FPPOS>
0.0

> <PEOE_VSA_HYD>
206.36739

> <PEOE_VSA_NEG>
65.107155

> <PEOE_VSA_PNEG>
11.015401

> <PEOE_VSA_POL>
11.015401

> <PEOE_VSA_POS>
152.27563

> <PEOE_VSA_PPOS>
0.0

> <petitjean>
0.42857143

> <petitjeanSC>
0.75

> <Q_PC+>
0

> <Q_PC->
0

> <Q_RPC+>
0

> <Q_RPC->
0

> <Q_VSA_FHYD>
1

> <Q_VSA_FNEG>
0

> <Q_VSA_FPNEG>
0

> <Q_VSA_FPOL>
0

> <Q_VSA_FPOS>
1

> <Q_VSA_FPPOS>
0

> <Q_VSA_HYD>
217.3828

> <Q_VSA_NEG>
0

> <Q_VSA_PNEG>
0

> <Q_VSA_POL>
0

> <Q_VSA_POS>
217.3828

> <Q_VSA_PPOS>
0

> <radius>
4

> <reactive>
0

> <rings>
3

> <RPC+>
0

> <RPC->
0

> <rsynth>
1.0

> <SlogP>
3.2072999

> <SlogP_VSA0>
0.0

> <SlogP_VSA1>
67.606277

> <SlogP_VSA2>
16.78553

> <SlogP_VSA3>
0.0

> <SlogP_VSA4>
0.0

> <SlogP_VSA5>
0.0

> <SlogP_VSA6>
3.5006065

> <SlogP_VSA7>
69.71508

> <SlogP_VSA8>
0.0

> <SlogP_VSA9>
81.060471

> <SMR>
6.81598

> <SMR_VSA0>
0.0

> <SMR_VSA1>
16.78553

> <SMR_VSA2>
16.78553

> <SMR_VSA3>
3.5006065

> <SMR_VSA4>
60.990082

> <SMR_VSA5>
69.71508

> <SMR_VSA6>
0.0

> <SMR_VSA7>
70.891136

> <TPSA>
64.769997

> <VAdjEq>
0.58587331

> <VAdjMa>
5.1699252

> <VDistEq>
2.720191

> <VDistMa>
7.7115164

> <vdw_area>
217.3828

> <vdw_vol>
280.52582

> <vsa_acc>
0.0

> <vsa_acid>
0

> <vsa_base>
0

> <vsa_don>
21.832989

> <vsa_hyd>
126.41635

> <vsa_other>
42.627811

> <vsa_pol>
33.198143

> <Weight>
253.717

> <weinerPath>
418

> <weinerPol>
21

> <zagreb>
86

$$$$
Row1748
 OpenBabel06061811532D

 21 22  0  0  0  0  0  0  0  0999 V2000
    0.0000    0.0000    0.0000 S   0  0  0  0  0  0  0  0  0  0  0  0
    0.0000    0.0000    0.0000 O   0  0  0  0  0  0  0  0  0  0  0  0
    0.0000    0.0000    0.0000 O   0  0  0  0  0  0  0  0  0  0  0  0
    0.0000    0.0000    0.0000 N   0  0  0  0  0  0  0  0  0  0  0  0
    0.0000    0.0000    0.0000 C   0  0  0  0  0  0  0  0  0  0  0  0
    0.0000    0.0000    0.0000 O   0  0  0  0  0  0  0  0  0  0  0  0
    0.0000    0.0000    0.0000 N   0  0  0  0  0  0  0  0  0  0  0  0
    0.0000    0.0000    0.0000 N   0  0  0  0  0  0  0  0  0  0  0  0
    0.0000    0.0000    0.0000 C   0  0  0  0  0  0  0  0  0  0  0  0
    0.0000    0.0000    0.0000 C   0  0  0  0  0  0  0  0  0  0  0  0
    0.0000    0.0000    0.0000 C   0  0  0  0  0  0  0  0  0  0  0  0
    0.0000    0.0000    0.0000 C   0  0  0  0  0  0  0  0  0  0  0  0
    0.0000    0.0000    0.0000 C   0  0  0  0  0  0  0  0  0  0  0  0
    0.0000    0.0000    0.0000 C   0  0  0  0  0  0  0  0  0  0  0  0
    0.0000    0.0000    0.0000 C   0  0  0  0  0  0  0  0  0  0  0  0
    0.0000    0.0000    0.0000 C   0  0  0  0  0  0  0  0  0  0  0  0
    0.0000    0.0000    0.0000 C   0  0  0  0  0  0  0  0  0  0  0  0
    0.0000    0.0000    0.0000 C   0  0  0  0  0  0  0  0  0  0  0  0
    0.0000    0.0000    0.0000 C   0  0  0  0  0  0  0  0  0  0  0  0
    0.0000    0.0000    0.0000 C   0  0  0  0  0  0  0  0  0  0  0  0
    0.0000    0.0000    0.0000 C   0  0  0  0  0  0  0  0  0  0  0  0
  1  2  2  0  0  0  0
  1  3  2  0  0  0  0
  1  4  1  0  0  0  0
  1 15  1  0  0  0  0
  4  5  1  0  0  0  0
  5  6  2  0  0  0  0
  5  7  1  0  0  0  0
  7  8  1  0  0  0  0
  8 14  1  0  0  0  0
  8  9  1  0  0  0  0
  9 10  1  0  0  0  0
 10 11  1  0  0  0  0
 11 12  1  0  0  0  0
 12 13  1  0  0  0  0
 13 14  1  0  0  0  0
 15 20  1  0  0  0  0
 15 16  2  0  0  0  0
 16 17  1  0  0  0  0
 17 18  2  0  0  0  0
 18 19  1  0  0  0  0
 18 21  1  0  0  0  0
 19 20  2  0  0  0  0
M  END
> <Index>
1749

> <ID>
HT2079

> <class>
1

> <apol>
47.248653

> <ast_fraglike>
0

> <ast_fraglike_ext>
0

> <ast_violation>
2

> <ast_violation_ext>
4

> <a_acc>
4

> <a_acid>
0

> <a_aro>
6

> <a_base>
0

> <a_count>
42

> <a_don>
2

> <a_donacc>
6

> <a_heavy>
21

> <a_hyd>
13

> <a_IC>
71.425919

> <a_ICM>
1.7006172

> <a_nB>
0

> <a_nBr>
0

> <a_nC>
14

> <a_nCl>
0

> <a_nF>
0

> <a_nH>
21

> <a_nI>
0

> <a_nN>
3

> <a_nO>
3

> <a_nP>
0

> <a_nS>
1

> <balabanJ>
1.7820674

> <BCUT_PEOE_0>
-2.639282

> <BCUT_PEOE_1>
-0.62774813

> <BCUT_PEOE_2>
0.45642582

> <BCUT_PEOE_3>
2.6694503

> <BCUT_SLOGP_0>
-2.7730176

> <BCUT_SLOGP_1>
-0.40195996

> <BCUT_SLOGP_2>
0.6915549

> <BCUT_SLOGP_3>
2.75771

> <BCUT_SMR_0>
-2.3600838

> <BCUT_SMR_1>
-0.35131848

> <BCUT_SMR_2>
0.65203756

> <BCUT_SMR_3>
2.938735

> <bpol>
32.371346

> <b_1rotN>
3

> <b_1rotR>
0.13636364

> <b_ar>
6

> <b_count>
43

> <b_double>
1

> <b_heavy>
22

> <b_max1len>
3

> <b_rotN>
5

> <b_rotR>
0.22727273

> <b_single>
36

> <b_triple>
0

> <chi0>
15.294683

> <chi0v>
12.948745

> <chi0v_C>
9.052042

> <chi0_C>
9.8031187

> <chi1>
9.9711637

> <chi1v>
8.6062984

> <chi1v_C>
4.8213673

> <chi1_C>
5.7103434

> <chiral>
0

> <chiral_u>
0

> <density>
0.77870381

> <diameter>
12

> <FCharge>
0

> <GCUT_PEOE_0>
-0.940786

> <GCUT_PEOE_1>
-0.38353553

> <GCUT_PEOE_2>
0.02635676

> <GCUT_PEOE_3>
2.5905433

> <GCUT_SLOGP_0>
-1.1900157

> <GCUT_SLOGP_1>
-0.33904964

> <GCUT_SLOGP_2>
0.16418894

> <GCUT_SLOGP_3>
2.6126757

> <GCUT_SMR_0>
-0.53036267

> <GCUT_SMR_1>
-0.19957933

> <GCUT_SMR_2>
0.17083067

> <GCUT_SMR_3>
2.8462164

> <Kier1>
17.355371

> <Kier2>
8.0222225

> <Kier3>
5.6055365

> <KierA1>
15.103413

> <KierA2>
6.9299917

> <KierA3>
4.8149996

> <KierFlex>
4.9841199

> <lip_acc>
6

> <lip_don>
2

> <lip_druglike>
1

> <lip_violation>
0

> <logP(o/w)>
1.661

> <logS>
-2.8539901

> <mr>
8.2596798

> <mutagenic>
0

> <nmol>
1

> <opr_brigid>
13

> <opr_leadlike>
1

> <opr_nring>
2

> <opr_nrot>
5

> <opr_violation>
0

> <PC+>
0

> <PC->
0

> <PEOE_PC+>
1.7607954

> <PEOE_PC->
-1.7607954

> <PEOE_RPC+>
0.17977495

> <PEOE_RPC->
0.28000006

> <PEOE_VSA+0>
114.87524

> <PEOE_VSA+1>
25.680557

> <PEOE_VSA+2>
17.440542

> <PEOE_VSA+3>
8.6190128

> <PEOE_VSA+4>
10.105608

> <PEOE_VSA+5>
0.0

> <PEOE_VSA+6>
4.1846013

> <PEOE_VSA-0>
94.885178

> <PEOE_VSA-1>
17.402626

> <PEOE_VSA-2>
0.0

> <PEOE_VSA-3>
2.5295215

> <PEOE_VSA-4>
0.0

> <PEOE_VSA-5>
0.0

> <PEOE_VSA-6>
17.442276

> <PEOE_VSA_FHYD>
0.89867175

> <PEOE_VSA_FNEG>
0.42233175

> <PEOE_VSA_FPNEG>
0.05569673

> <PEOE_VSA_FPOL>
0.10132827

> <PEOE_VSA_FPOS>
0.57766825

> <PEOE_VSA_FPPOS>
0.045631543

> <PEOE_VSA_HYD>
281.43268

> <PEOE_VSA_NEG>
132.2596

> <PEOE_VSA_PNEG>
17.442276

> <PEOE_VSA_POL>
31.732485

> <PEOE_VSA_POS>
180.90556

> <PEOE_VSA_PPOS>
14.29021

> <petitjean>
0.5

> <petitjeanSC>
1.0

> <Q_PC+>
0

> <Q_PC->
0

> <Q_RPC+>
0

> <Q_RPC->
0

> <Q_VSA_FHYD>
1

> <Q_VSA_FNEG>
0

> <Q_VSA_FPNEG>
0

> <Q_VSA_FPOL>
0

> <Q_VSA_FPOS>
1

> <Q_VSA_FPPOS>
0

> <Q_VSA_HYD>
313.16516

> <Q_VSA_NEG>
0

> <Q_VSA_PNEG>
0

> <Q_VSA_POL>
0

> <Q_VSA_POS>
313.16516

> <Q_VSA_PPOS>
0

> <radius>
6

> <reactive>
1

> <rings>
2

> <RPC+>
0

> <RPC->
0

> <rsynth>
1.0

> <SlogP>
1.7739201

> <SlogP_VSA0>
34.293224

> <SlogP_VSA1>
56.003437

> <SlogP_VSA2>
6.6407428

> <SlogP_VSA3>
36.879158

> <SlogP_VSA4>
3.185575

> <SlogP_VSA5>
1.5507339

> <SlogP_VSA6>
0.0

> <SlogP_VSA7>
70.572739

> <SlogP_VSA8>
75.473625

> <SlogP_VSA9>
57.188232

> <SMR>
8.0073204

> <SMR_VSA0>
72.033905

> <SMR_VSA1>
3.0017917

> <SMR_VSA2>
35.84396

> <SMR_VSA3>
3.185575

> <SMR_VSA4>
0.0

> <SMR_VSA5>
146.04636

> <SMR_VSA6>
41.709114

> <SMR_VSA7>
39.966759

> <TPSA>
78.510002

> <VAdjEq>
0.46827638

> <VAdjMa>
5.4594316

> <VDistEq>
3.3506057

> <VDistMa>
8.4687557

> <vdw_area>
313.16516

> <vdw_vol>
399.90302

> <vsa_acc>
45.583443

> <vsa_acid>
0

> <vsa_base>
0

> <vsa_don>
17.496246

> <vsa_hyd>
202.86856

> <vsa_other>
27.54615

> <vsa_pol>
63.079689

> <Weight>
311.40601

> <weinerPath>
1014

> <weinerPol>
31

> <zagreb>
104

$$$$
Row1749
 OpenBabel06061811532D

 20 21  0  0  1  0  0  0  0  0999 V2000
    0.0000    0.0000    0.0000 O   0  0  0  0  0  0  0  0  0  0  0  0
    0.0000    0.0000    0.0000 C   0  0  0  0  0  0  0  0  0  0  0  0
    0.0000    0.0000    0.0000 C   0  0  0  0  0  0  0  0  0  0  0  0
    0.0000    0.0000    0.0000 C   0  0  0  0  0  0  0  0  0  0  0  0
    0.0000    0.0000    0.0000 C   0  0  0  0  0  0  0  0  0  0  0  0
    0.0000    0.0000    0.0000 C   0  0  0  0  0  0  0  0  0  0  0  0
    0.0000    0.0000    0.0000 C   0  0  0  0  0  0  0  0  0  0  0  0
    0.0000    0.0000    0.0000 C   0  0  0  0  0  0  0  0  0  0  0  0
    0.0000    0.0000    0.0000 C   0  0  2  0  0  0  0  0  0  0  0  0
    0.0000    0.0000    0.0000 O   0  0  0  0  0  0  0  0  0  0  0  0
    0.0000    0.0000    0.0000 C   0  0  0  0  0  0  0  0  0  0  0  0
    0.0000    0.0000    0.0000 C   0  0  0  0  0  0  0  0  0  0  0  0
    0.0000    0.0000    0.0000 C   0  0  0  0  0  0  0  0  0  0  0  0
    0.0000    0.0000    0.0000 C   0  0  0  0  0  0  0  0  0  0  0  0
    0.0000    0.0000    0.0000 C   0  0  1  0  0  0  0  0  0  0  0  0
    0.0000    0.0000    0.0000 H   0  0  0  0  0  0  0  0  0  0  0  0
    0.0000    0.0000    0.0000 C   0  0  0  0  0  0  0  0  0  0  0  0
    0.0000    0.0000    0.0000 N   0  0  0  0  0  0  0  0  0  0  0  0
    0.0000    0.0000    0.0000 C   0  0  0  0  0  0  0  0  0  0  0  0
    0.0000    0.0000    0.0000 C   0  0  0  0  0  0  0  0  0  0  0  0
  1  2  1  0  0  0  0
  1  3  1  0  0  0  0
  3  8  1  0  0  0  0
  3  4  2  0  0  0  0
  4  5  1  0  0  0  0
  5  6  2  0  0  0  0
  5  9  1  0  0  0  0
  6  7  1  0  0  0  0
  7  8  2  0  0  0  0
  9 15  1  0  0  0  0
  9 10  1  0  0  0  0
  9 11  1  0  0  0  0
 11 12  1  0  0  0  0
 12 13  1  0  0  0  0
 13 14  1  0  0  0  0
 14 15  1  0  0  0  0
 15 16  1  0  0  0  0
 15 17  1  0  0  0  0
 17 18  1  0  0  0  0
 18 19  1  0  0  0  0
 18 20  1  0  0  0  0
M  END
> <Index>
1750

> <ID>
HT2095

> <class>
1

> <apol>
47.533825

> <ast_fraglike>
1

> <ast_fraglike_ext>
0

> <ast_violation>
0

> <ast_violation_ext>
1

> <a_acc>
3

> <a_acid>
0

> <a_aro>
6

> <a_base>
0

> <a_count>
44

> <a_don>
1

> <a_donacc>
4

> <a_heavy>
19

> <a_hyd>
16

> <a_IC>
58.118587

> <a_ICM>
1.320877

> <a_nB>
0

> <a_nBr>
0

> <a_nC>
16

> <a_nCl>
0

> <a_nF>
0

> <a_nH>
25

> <a_nI>
0

> <a_nN>
1

> <a_nO>
2

> <a_nP>
0

> <a_nS>
0

> <balabanJ>
2.0790799

> <BCUT_PEOE_0>
-2.8225174

> <BCUT_PEOE_1>
-0.45643783

> <BCUT_PEOE_2>
0.44975436

> <BCUT_PEOE_3>
2.7923439

> <BCUT_SLOGP_0>
-2.7723312

> <BCUT_SLOGP_1>
-0.38949579

> <BCUT_SLOGP_2>
0.52831459

> <BCUT_SLOGP_3>
2.899123

> <BCUT_SMR_0>
-2.5747361

> <BCUT_SMR_1>
-0.2814132

> <BCUT_SMR_2>
0.6299572

> <BCUT_SMR_3>
3.0371554

> <bpol>
31.226175

> <b_1rotN>
4

> <b_1rotR>
0.2

> <b_ar>
6

> <b_count>
45

> <b_double>
0

> <b_heavy>
20

> <b_max1len>
5

> <b_rotN>
4

> <b_rotR>
0.2

> <b_single>
39

> <b_triple>
0

> <chi0>
13.880469

> <chi0v>
12.22496

> <chi0v_C>
10.922285

> <chi0_C>
11.596012

> <chi1>
9.0586977

> <chi1v>
7.0767264

> <chi1v_C>
5.0300922

> <chi1_C>
5.8803935

> <chiral>
2

> <chiral_u>
0

> <density>
0.66451257

> <diameter>
9

> <FCharge>
0

> <GCUT_PEOE_0>
-0.86332679

> <GCUT_PEOE_1>
-0.3533805

> <GCUT_PEOE_2>
-0.051929321

> <GCUT_PEOE_3>
2.8446999

> <GCUT_SLOGP_0>
-0.95449537

> <GCUT_SLOGP_1>
-0.29687047

> <GCUT_SLOGP_2>
0.061854515

> <GCUT_SLOGP_3>
2.9392762

> <GCUT_SMR_0>
-0.52791935

> <GCUT_SMR_1>
-0.17350405

> <GCUT_SMR_2>
0.10442575

> <GCUT_SMR_3>
3.0816934

> <Kier1>
15.39

> <Kier2>
6.6352043

> <Kier3>
3.5555556

> <KierA1>
13.506868

> <KierA2>
5.7785487

> <KierA3>
3.0779209

> <KierFlex>
4.1079001

> <lip_acc>
3

> <lip_don>
1

> <lip_druglike>
1

> <lip_violation>
0

> <logP(o/w)>
3.1440001

> <logS>
-2.4498701

> <mr>
7.7881174

> <mutagenic>
0

> <nmol>
1

> <opr_brigid>
12

> <opr_leadlike>
1

> <opr_nring>
2

> <opr_nrot>
6

> <opr_violation>
0

> <PC+>
0

> <PC->
0

> <PEOE_PC+>
1.4194058

> <PEOE_PC->
-1.4194058

> <PEOE_RPC+>
0.14839225

> <PEOE_RPC->
0.27027878

> <PEOE_VSA+0>
110.70155

> <PEOE_VSA+1>
38.316223

> <PEOE_VSA+2>
0.0

> <PEOE_VSA+3>
0.0

> <PEOE_VSA+4>
10.324173

> <PEOE_VSA+5>
0.0

> <PEOE_VSA+6>
0.0

> <PEOE_VSA-0>
90.598351

> <PEOE_VSA-1>
41.912434

> <PEOE_VSA-2>
0.0

> <PEOE_VSA-3>
0.0

> <PEOE_VSA-4>
0.0

> <PEOE_VSA-5>
0.0

> <PEOE_VSA-6>
10.271297

> <PEOE_VSA_FHYD>
0.93183106

> <PEOE_VSA_FNEG>
0.47259426

> <PEOE_VSA_FPNEG>
0.033996955

> <PEOE_VSA_FPOL>
0.068168923

> <PEOE_VSA_FPOS>
0.52740574

> <PEOE_VSA_FPPOS>
0.034171969

> <PEOE_VSA_HYD>
281.52856

> <PEOE_VSA_NEG>
142.78209

> <PEOE_VSA_PNEG>
10.271297

> <PEOE_VSA_POL>
20.595469

> <PEOE_VSA_POS>
159.34193

> <PEOE_VSA_PPOS>
10.324173

> <petitjean>
0.44444445

> <petitjeanSC>
0.80000001

> <Q_PC+>
0

> <Q_PC->
0

> <Q_RPC+>
0

> <Q_RPC->
0

> <Q_VSA_FHYD>
1

> <Q_VSA_FNEG>
0

> <Q_VSA_FPNEG>
0

> <Q_VSA_FPOL>
0

> <Q_VSA_FPOS>
1

> <Q_VSA_FPPOS>
0

> <Q_VSA_HYD>
302.12402

> <Q_VSA_NEG>
0

> <Q_VSA_PNEG>
0

> <Q_VSA_POL>
0

> <Q_VSA_POS>
302.12402

> <Q_VSA_PPOS>
0

> <radius>
5

> <reactive>
0

> <rings>
2

> <RPC+>
0

> <RPC->
0

> <rsynth>
0.10526316

> <SlogP>
2.9461

> <SlogP_VSA0>
36.385113

> <SlogP_VSA1>
3.1243138

> <SlogP_VSA2>
0.0

> <SlogP_VSA3>
18.439579

> <SlogP_VSA4>
7.5963712

> <SlogP_VSA5>
101.17825

> <SlogP_VSA6>
0.0

> <SlogP_VSA7>
70.572739

> <SlogP_VSA8>
75.473625

> <SlogP_VSA9>
5.2434282

> <SMR>
7.7519798

> <SMR_VSA0>
0.0

> <SMR_VSA1>
39.50943

> <SMR_VSA2>
4.4107962

> <SMR_VSA3>
8.4290028

> <SMR_VSA4>
0.0

> <SMR_VSA5>
146.04636

> <SMR_VSA6>
18.439579

> <SMR_VSA7>
101.17825

> <TPSA>
32.700001

> <VAdjEq>
0.5023343

> <VAdjMa>
5.321928

> <VDistEq>
2.9294708

> <VDistMa>
8.2267971

> <vdw_area>
302.12402

> <vdw_vol>
396.35214

> <vsa_acc>
2.503756

> <vsa_acid>
0

> <vsa_base>
0

> <vsa_don>
0.0

> <vsa_hyd>
263.1004

> <vsa_other>
0.0

> <vsa_pol>
16.070677

> <Weight>
263.38098

> <weinerPath>
670

> <weinerPol>
30

> <zagreb>
96

$$$$
Row1750
 OpenBabel06061811532D

 26 29  0  0  0  0  0  0  0  0999 V2000
    0.0000    0.0000    0.0000 Cl  0  0  0  0  0  0  0  0  0  0  0  0
    0.0000    0.0000    0.0000 C   0  0  0  0  0  0  0  0  0  0  0  0
    0.0000    0.0000    0.0000 C   0  0  0  0  0  0  0  0  0  0  0  0
    0.0000    0.0000    0.0000 C   0  0  0  0  0  0  0  0  0  0  0  0
    0.0000    0.0000    0.0000 N   0  0  0  0  0  0  0  0  0  0  0  0
    0.0000    0.0000    0.0000 C   0  0  0  0  0  0  0  0  0  0  0  0
    0.0000    0.0000    0.0000 C   0  0  0  0  0  0  0  0  0  0  0  0
    0.0000    0.0000    0.0000 N   0  0  0  0  0  0  0  0  0  0  0  0
    0.0000    0.0000    0.0000 C   0  0  0  0  0  0  0  0  0  0  0  0
    0.0000    0.0000    0.0000 C   0  0  0  0  0  0  0  0  0  0  0  0
    0.0000    0.0000    0.0000 C   0  0  0  0  0  0  0  0  0  0  0  0
    0.0000    0.0000    0.0000 C   0  0  0  0  0  0  0  0  0  0  0  0
    0.0000    0.0000    0.0000 C   0  0  0  0  0  0  0  0  0  0  0  0
    0.0000    0.0000    0.0000 N   0  0  0  0  0  0  0  0  0  0  0  0
    0.0000    0.0000    0.0000 N   0  0  0  0  0  0  0  0  0  0  0  0
    0.0000    0.0000    0.0000 C   0  0  0  0  0  0  0  0  0  0  0  0
    0.0000    0.0000    0.0000 N   0  0  0  0  0  0  0  0  0  0  0  0
    0.0000    0.0000    0.0000 C   0  0  0  0  0  0  0  0  0  0  0  0
    0.0000    0.0000    0.0000 C   0  0  0  0  0  0  0  0  0  0  0  0
    0.0000    0.0000    0.0000 C   0  0  0  0  0  0  0  0  0  0  0  0
    0.0000    0.0000    0.0000 C   0  0  0  0  0  0  0  0  0  0  0  0
    0.0000    0.0000    0.0000 C   0  0  0  0  0  0  0  0  0  0  0  0
    0.0000    0.0000    0.0000 O   0  0  0  0  0  0  0  0  0  0  0  0
    0.0000    0.0000    0.0000 C   0  0  0  0  0  0  0  0  0  0  0  0
    0.0000    0.0000    0.0000 C   0  0  0  0  0  0  0  0  0  0  0  0
    0.0000    0.0000    0.0000 C   0  0  0  0  0  0  0  0  0  0  0  0
  1  2  1  0  0  0  0
  2 26  1  0  0  0  0
  2  3  2  0  0  0  0
  3  4  1  0  0  0  0
  4  5  1  0  0  0  0
  4 24  2  0  0  0  0
  5 10  1  0  0  0  0
  5  6  1  0  0  0  0
  6  7  1  0  0  0  0
  7  8  1  0  0  0  0
  8  9  1  0  0  0  0
  8 11  1  0  0  0  0
  9 10  1  0  0  0  0
 11 12  1  0  0  0  0
 12 13  1  0  0  0  0
 13 14  1  0  0  0  0
 14 22  1  0  0  0  0
 14 15  1  0  0  0  0
 15 16  2  0  0  0  0
 16 21  1  0  0  0  0
 16 17  1  0  0  0  0
 17 18  1  0  0  0  0
 17 22  1  0  0  0  0
 18 19  2  0  0  0  0
 19 20  1  0  0  0  0
 20 21  2  0  0  0  0
 22 23  2  0  0  0  0
 24 25  1  0  0  0  0
 25 26  2  0  0  0  0
M  END
> <Index>
1751

> <ID>
HT2102

> <class>
1

> <apol>
56.591446

> <ast_fraglike>
0

> <ast_fraglike_ext>
0

> <ast_violation>
1

> <ast_violation_ext>
2

> <a_acc>
3

> <a_acid>
0

> <a_aro>
6

> <a_base>
0

> <a_count>
48

> <a_don>
0

> <a_donacc>
3

> <a_heavy>
26

> <a_hyd>
18

> <a_IC>
77.650444

> <a_ICM>
1.6177175

> <a_nB>
0

> <a_nBr>
0

> <a_nC>
19

> <a_nCl>
1

> <a_nF>
0

> <a_nH>
22

> <a_nI>
0

> <a_nN>
5

> <a_nO>
1

> <a_nP>
0

> <a_nS>
0

> <balabanJ>
1.1434498

> <BCUT_PEOE_0>
-2.7715662

> <BCUT_PEOE_1>
-0.61011809

> <BCUT_PEOE_2>
0.61006296

> <BCUT_PEOE_3>
2.6769917

> <BCUT_SLOGP_0>
-2.8863266

> <BCUT_SLOGP_1>
-0.45333531

> <BCUT_SLOGP_2>
0.76509494

> <BCUT_SLOGP_3>
2.5952871

> <BCUT_SMR_0>
-2.4819071

> <BCUT_SMR_1>
-0.41473544

> <BCUT_SMR_2>
0.8291477

> <BCUT_SMR_3>
2.9597182

> <bpol>
33.348553

> <b_1rotN>
5

> <b_1rotR>
0.1724138

> <b_ar>
6

> <b_count>
51

> <b_double>
4

> <b_heavy>
29

> <b_max1len>
4

> <b_rotN>
5

> <b_rotR>
0.1724138

> <b_single>
41

> <b_triple>
0

> <chi0>
17.93251

> <chi0v>
15.346759

> <chi0v_C>
11.568549

> <chi0_C>
12.916003

> <chi1>
12.70351

> <chi1v>
9.3547125

> <chi1v_C>
5.1100426

> <chi1_C>
6.5412416

> <chiral>
0

> <chiral_u>
0

> <density>
0.75839031

> <diameter>
15

> <FCharge>
0

> <GCUT_PEOE_0>
-0.85440868

> <GCUT_PEOE_1>
-0.40253663

> <GCUT_PEOE_2>
0.060155094

> <GCUT_PEOE_3>
2.712363

> <GCUT_SLOGP_0>
-0.98692673

> <GCUT_SLOGP_1>
-0.30390209

> <GCUT_SLOGP_2>
0.16782585

> <GCUT_SLOGP_3>
2.7146308

> <GCUT_SMR_0>
-0.51989961

> <GCUT_SMR_1>
-0.18776284

> <GCUT_SMR_2>
0.20683835

> <GCUT_SMR_3>
2.976193

> <Kier1>
19.322235

> <Kier2>
9.0

> <Kier3>
4.716269

> <KierA1>
15.18558

> <KierA2>
7.0004883

> <KierA3>
3.6414165

> <KierFlex>
4.0887108

> <lip_acc>
6

> <lip_don>
0

> <lip_druglike>
1

> <lip_violation>
0

> <logP(o/w)>
2.668

> <logS>
-3.7669599

> <mr>
10.16061

> <mutagenic>
0

> <nmol>
1

> <opr_brigid>
22

> <opr_leadlike>
1

> <opr_nring>
4

> <opr_nrot>
7

> <opr_violation>
0

> <PC+>
0

> <PC->
0

> <PEOE_PC+>
1.8214496

> <PEOE_PC->
-1.8214496

> <PEOE_RPC+>
0.19271991

> <PEOE_RPC->
0.16460595

> <PEOE_VSA+0>
158.30379

> <PEOE_VSA+1>
42.653858

> <PEOE_VSA+2>
0.0

> <PEOE_VSA+3>
11.190562

> <PEOE_VSA+4>
0.0

> <PEOE_VSA+5>
0.0

> <PEOE_VSA+6>
17.440542

> <PEOE_VSA-0>
69.97583

> <PEOE_VSA-1>
54.091755

> <PEOE_VSA-2>
9.4210396

> <PEOE_VSA-3>
0.0

> <PEOE_VSA-4>
13.566921

> <PEOE_VSA-5>
0.0

> <PEOE_VSA-6>
0.0

> <PEOE_VSA_FHYD>
0.91767442

> <PEOE_VSA_FNEG>
0.39043614

> <PEOE_VSA_FPNEG>
0.036020514

> <PEOE_VSA_FPOL>
0.082325585

> <PEOE_VSA_FPOS>
0.60956389

> <PEOE_VSA_FPPOS>
0.046305075

> <PEOE_VSA_HYD>
345.63684

> <PEOE_VSA_NEG>
147.05554

> <PEOE_VSA_PNEG>
13.566921

> <PEOE_VSA_POL>
31.007463

> <PEOE_VSA_POS>
229.58876

> <PEOE_VSA_PPOS>
17.440542

> <petitjean>
0.46666667

> <petitjeanSC>
0.875

> <Q_PC+>
0

> <Q_PC->
0

> <Q_RPC+>
0

> <Q_RPC->
0

> <Q_VSA_FHYD>
1

> <Q_VSA_FNEG>
0

> <Q_VSA_FPNEG>
0

> <Q_VSA_FPOL>
0

> <Q_VSA_FPOS>
1

> <Q_VSA_FPPOS>
0

> <Q_VSA_HYD>
376.64432

> <Q_VSA_NEG>
0

> <Q_VSA_PNEG>
0

> <Q_VSA_POL>
0

> <Q_VSA_POS>
376.64432

> <Q_VSA_PPOS>
0

> <radius>
8

> <reactive>
0

> <rings>
4

> <RPC+>
0

> <RPC->
0

> <rsynth>
0.61538464

> <SlogP>
2.9867001

> <SlogP_VSA0>
3.1243138

> <SlogP_VSA1>
16.408297

> <SlogP_VSA2>
0.0

> <SlogP_VSA3>
110.63747

> <SlogP_VSA4>
0.0

> <SlogP_VSA5>
16.663008

> <SlogP_VSA6>
3.5006065

> <SlogP_VSA7>
140.71664

> <SlogP_VSA8>
18.868406

> <SlogP_VSA9>
65.767609

> <SMR>
10.4378

> <SMR_VSA0>
23.862217

> <SMR_VSA1>
25.913427

> <SMR_VSA2>
3.1243138

> <SMR_VSA3>
3.5006065

> <SMR_VSA4>
2.7567475

> <SMR_VSA5>
159.58505

> <SMR_VSA6>
117.79534

> <SMR_VSA7>
39.148643

> <TPSA>
42.389999

> <VAdjEq>
0.42228913

> <VAdjMa>
5.8579812

> <VDistEq>
3.748698

> <VDistMa>
9.0490131

> <vdw_area>
376.64432

> <vdw_vol>
490.34381

> <vsa_acc>
22.987961

> <vsa_acid>
0

> <vsa_base>
0

> <vsa_don>
0.0

> <vsa_hyd>
309.36575

> <vsa_other>
28.631105

> <vsa_pol>
22.987961

> <Weight>
371.87198

> <weinerPath>
2003

> <weinerPol>
39

> <zagreb>
138

$$$$
Row1751
 OpenBabel06061811532D

 23 26  0  0  0  0  0  0  0  0999 V2000
    0.0000    0.0000    0.0000 Cl  0  0  0  0  0  0  0  0  0  0  0  0
    0.0000    0.0000    0.0000 C   0  0  0  0  0  0  0  0  0  0  0  0
    0.0000    0.0000    0.0000 C   0  0  0  0  0  0  0  0  0  0  0  0
    0.0000    0.0000    0.0000 C   0  0  0  0  0  0  0  0  0  0  0  0
    0.0000    0.0000    0.0000 C   0  0  0  0  0  0  0  0  0  0  0  0
    0.0000    0.0000    0.0000 C   0  0  0  0  0  0  0  0  0  0  0  0
    0.0000    0.0000    0.0000 C   0  0  0  0  0  0  0  0  0  0  0  0
    0.0000    0.0000    0.0000 C   0  0  0  0  0  0  0  0  0  0  0  0
    0.0000    0.0000    0.0000 N   0  0  0  0  0  0  0  0  0  0  0  0
    0.0000    0.0000    0.0000 C   0  0  0  0  0  0  0  0  0  0  0  0
    0.0000    0.0000    0.0000 C   0  0  0  0  0  0  0  0  0  0  0  0
    0.0000    0.0000    0.0000 N   0  0  0  0  0  0  0  0  0  0  0  0
    0.0000    0.0000    0.0000 C   0  0  0  0  0  0  0  0  0  0  0  0
    0.0000    0.0000    0.0000 C   0  0  0  0  0  0  0  0  0  0  0  0
    0.0000    0.0000    0.0000 C   0  0  0  0  0  0  0  0  0  0  0  0
    0.0000    0.0000    0.0000 C   0  0  0  0  0  0  0  0  0  0  0  0
    0.0000    0.0000    0.0000 Cl  0  0  0  0  0  0  0  0  0  0  0  0
    0.0000    0.0000    0.0000 C   0  0  0  0  0  0  0  0  0  0  0  0
    0.0000    0.0000    0.0000 C   0  0  0  0  0  0  0  0  0  0  0  0
    0.0000    0.0000    0.0000 C   0  0  0  0  0  0  0  0  0  0  0  0
    0.0000    0.0000    0.0000 N   0  0  0  0  0  0  0  0  0  0  0  0
    0.0000    0.0000    0.0000 N   0  0  0  0  0  0  0  0  0  0  0  0
    0.0000    0.0000    0.0000 C   0  0  0  0  0  0  0  0  0  0  0  0
  1  2  1  0  0  0  0
  2  7  1  0  0  0  0
  2  3  2  0  0  0  0
  3  4  1  0  0  0  0
  4  5  2  0  0  0  0
  5  6  1  0  0  0  0
  6  7  2  0  0  0  0
  7  8  1  0  0  0  0
  8 14  1  0  0  0  0
  8  9  2  0  0  0  0
  9 10  1  0  0  0  0
 10 11  1  0  0  0  0
 11 22  2  0  0  0  0
 11 12  1  0  0  0  0
 12 13  1  0  0  0  0
 12 20  1  0  0  0  0
 13 19  1  0  0  0  0
 13 14  2  0  0  0  0
 14 15  1  0  0  0  0
 15 16  2  0  0  0  0
 16 17  1  0  0  0  0
 16 18  1  0  0  0  0
 18 19  2  0  0  0  0
 20 21  2  0  0  0  0
 20 23  1  0  0  0  0
 21 22  1  0  0  0  0
M  END
> <Index>
1752

> <ID>
HT2110

> <class>
1

> <apol>
46.681515

> <ast_fraglike>
0

> <ast_fraglike_ext>
0

> <ast_violation>
2

> <ast_violation_ext>
2

> <a_acc>
3

> <a_acid>
0

> <a_aro>
17

> <a_base>
0

> <a_count>
35

> <a_don>
0

> <a_donacc>
3

> <a_heavy>
23

> <a_hyd>
16

> <a_IC>
57.018486

> <a_ICM>
1.6290996

> <a_nB>
0

> <a_nBr>
0

> <a_nC>
17

> <a_nCl>
2

> <a_nF>
0

> <a_nH>
12

> <a_nI>
0

> <a_nN>
4

> <a_nO>
0

> <a_nP>
0

> <a_nS>
0

> <balabanJ>
1.6202495

> <BCUT_PEOE_0>
-2.2608087

> <BCUT_PEOE_1>
-0.62879068

> <BCUT_PEOE_2>
0.62751716

> <BCUT_PEOE_3>
2.3740153

> <BCUT_SLOGP_0>
-2.1925066

> <BCUT_SLOGP_1>
-0.43563876

> <BCUT_SLOGP_2>
0.80701679

> <BCUT_SLOGP_3>
2.4576211

> <BCUT_SMR_0>
-1.9802767

> <BCUT_SMR_1>
-0.40537199

> <BCUT_SMR_2>
0.8950057

> <BCUT_SMR_3>
2.6775477

> <bpol>
18.578484

> <b_1rotN>
1

> <b_1rotR>
0.03846154

> <b_ar>
17

> <b_count>
38

> <b_double>
1

> <b_heavy>
26

> <b_max1len>
2

> <b_rotN>
1

> <b_rotR>
0.03846154

> <b_single>
20

> <b_triple>
0

> <chi0>
15.974327

> <chi0v>
13.8052

> <chi0v_C>
9.748559

> <chi0_C>
11.275657

> <chi1>
11.147867

> <chi1v>
7.9106994

> <chi1v_C>
4.9189377

> <chi1_C>
6.7684216

> <chiral>
0

> <chiral_u>
0

> <density>
0.82592243

> <diameter>
9

> <FCharge>
0

> <GCUT_PEOE_0>
-0.79803926

> <GCUT_PEOE_1>
-0.39293855

> <GCUT_PEOE_2>
0.039875474

> <GCUT_PEOE_3>
2.563458

> <GCUT_SLOGP_0>
-0.86626226

> <GCUT_SLOGP_1>
-0.26646185

> <GCUT_SLOGP_2>
0.16623263

> <GCUT_SLOGP_3>
2.6760964

> <GCUT_SMR_0>
-0.48244074

> <GCUT_SMR_1>
-0.17361616

> <GCUT_SMR_2>
0.28283337

> <GCUT_SMR_3>
2.8773537

> <Kier1>
16.467455

> <Kier2>
6.7188368

> <Kier3>
3.0178328

> <KierA1>
12.950079

> <KierA2>
5.2219429

> <KierA3>
2.3246334

> <KierFlex>
2.9401987

> <lip_acc>
4

> <lip_don>
0

> <lip_druglike>
1

> <lip_violation>
0

> <logP(o/w)>
4.5900002

> <logS>
-5.2839198

> <mr>
9.1839905

> <mutagenic>
0

> <nmol>
1

> <opr_brigid>
22

> <opr_leadlike>
1

> <opr_nring>
4

> <opr_nrot>
1

> <opr_violation>
0

> <PC+>
0

> <PC->
0

> <PEOE_PC+>
1.3173277

> <PEOE_PC->
-1.3173277

> <PEOE_RPC+>
0.1210442

> <PEOE_RPC->
0.21337134

> <PEOE_VSA+0>
21.732985

> <PEOE_VSA+1>
56.307323

> <PEOE_VSA+2>
24.382887

> <PEOE_VSA+3>
11.190562

> <PEOE_VSA+4>
0.0

> <PEOE_VSA+5>
0.0

> <PEOE_VSA+6>
0.0

> <PEOE_VSA-0>
67.767296

> <PEOE_VSA-1>
95.928604

> <PEOE_VSA-2>
18.842079

> <PEOE_VSA-3>
0.0

> <PEOE_VSA-4>
0.0

> <PEOE_VSA-5>
5.6825762

> <PEOE_VSA-6>
0.0

> <PEOE_VSA_FHYD>
0.98117322

> <PEOE_VSA_FNEG>
0.62358898

> <PEOE_VSA_FPNEG>
0.018826807

> <PEOE_VSA_FPOL>
0.018826807

> <PEOE_VSA_FPOS>
0.37641102

> <PEOE_VSA_FPPOS>
0.0

> <PEOE_VSA_HYD>
296.15173

> <PEOE_VSA_NEG>
188.22055

> <PEOE_VSA_PNEG>
5.6825762

> <PEOE_VSA_POL>
5.6825762

> <PEOE_VSA_POS>
113.61375

> <PEOE_VSA_PPOS>
0.0

> <petitjean>
0.44444445

> <petitjeanSC>
0.80000001

> <Q_PC+>
0

> <Q_PC->
0

> <Q_RPC+>
0

> <Q_RPC->
0

> <Q_VSA_FHYD>
1

> <Q_VSA_FNEG>
0

> <Q_VSA_FPNEG>
0

> <Q_VSA_FPOL>
0

> <Q_VSA_FPOS>
1

> <Q_VSA_FPPOS>
0

> <Q_VSA_HYD>
301.83432

> <Q_VSA_NEG>
0

> <Q_VSA_PNEG>
0

> <Q_VSA_POL>
0

> <Q_VSA_POS>
301.83432

> <Q_VSA_PPOS>
0

> <radius>
5

> <reactive>
0

> <rings>
4

> <RPC+>
0

> <RPC->
0

> <rsynth>
1.0

> <SlogP>
4.4999199

> <SlogP_VSA0>
0.0

> <SlogP_VSA1>
37.981853

> <SlogP_VSA2>
0.0

> <SlogP_VSA3>
0.0

> <SlogP_VSA4>
11.02699

> <SlogP_VSA5>
16.78553

> <SlogP_VSA6>
7.0012131

> <SlogP_VSA7>
126.25904

> <SlogP_VSA8>
0.0

> <SlogP_VSA9>
130.06288

> <SMR>
9.2105999

> <SMR_VSA0>
0.0

> <SMR_VSA1>
52.010635

> <SMR_VSA2>
0.0

> <SMR_VSA3>
18.028204

> <SMR_VSA4>
2.7567475

> <SMR_VSA5>
141.94186

> <SMR_VSA6>
2.7567475

> <SMR_VSA7>
111.62331

> <TPSA>
43.07

> <VAdjEq>
0.46357921

> <VAdjMa>
5.7004399

> <VDistEq>
2.9490266

> <VDistMa>
8.8018093

> <vdw_area>
301.83432

> <vdw_vol>
415.55597

> <vsa_acc>
24.524654

> <vsa_acid>
0

> <vsa_base>
0

> <vsa_don>
0.0

> <vsa_hyd>
239.68744

> <vsa_other>
29.080677

> <vsa_pol>
24.524654

> <Weight>
343.21698

> <weinerPath>
1035

> <weinerPol>
43

> <zagreb>
128

$$$$
Row1752
 OpenBabel06061811532D

 20 21  0  0  1  0  0  0  0  0999 V2000
    0.0000    0.0000    0.0000 Cl  0  0  0  0  0  0  0  0  0  0  0  0
    0.0000    0.0000    0.0000 C   0  0  0  0  0  0  0  0  0  0  0  0
    0.0000    0.0000    0.0000 C   0  0  0  0  0  0  0  0  0  0  0  0
    0.0000    0.0000    0.0000 C   0  0  0  0  0  0  0  0  0  0  0  0
    0.0000    0.0000    0.0000 N   0  0  0  0  0  0  0  0  0  0  0  0
    0.0000    0.0000    0.0000 C   0  0  3  0  0  0  0  0  0  0  0  0
    0.0000    0.0000    0.0000 N   0  0  0  0  0  0  0  0  0  0  0  0
    0.0000    0.0000    0.0000 S   0  0  0  0  0  0  0  0  0  0  0  0
    0.0000    0.0000    0.0000 O   0  0  0  0  0  0  0  0  0  0  0  0
    0.0000    0.0000    0.0000 O   0  0  0  0  0  0  0  0  0  0  0  0
    0.0000    0.0000    0.0000 C   0  0  0  0  0  0  0  0  0  0  0  0
    0.0000    0.0000    0.0000 C   0  0  0  0  0  0  0  0  0  0  0  0
    0.0000    0.0000    0.0000 C   0  0  0  0  0  0  0  0  0  0  0  0
    0.0000    0.0000    0.0000 S   0  0  0  0  0  0  0  0  0  0  0  0
    0.0000    0.0000    0.0000 O   0  0  0  0  0  0  0  0  0  0  0  0
    0.0000    0.0000    0.0000 O   0  0  0  0  0  0  0  0  0  0  0  0
    0.0000    0.0000    0.0000 N   0  0  0  0  0  0  0  0  0  0  0  0
    0.0000    0.0000    0.0000 C   0  0  0  0  0  0  0  0  0  0  0  0
    0.0000    0.0000    0.0000 Cl  0  0  0  0  0  0  0  0  0  0  0  0
    0.0000    0.0000    0.0000 Cl  0  0  0  0  0  0  0  0  0  0  0  0
  1  2  1  0  0  0  0
  2 13  1  0  0  0  0
  2  3  2  0  0  0  0
  3  4  1  0  0  0  0
  4 11  2  0  0  0  0
  4  5  1  0  0  0  0
  5  6  1  0  0  0  0
  6  7  1  0  0  0  0
  6 18  1  0  0  0  0
  7  8  1  0  0  0  0
  8  9  2  0  0  0  0
  8 10  2  0  0  0  0
  8 11  1  0  0  0  0
 11 12  1  0  0  0  0
 12 13  2  0  0  0  0
 13 14  1  0  0  0  0
 14 15  2  0  0  0  0
 14 16  2  0  0  0  0
 14 17  1  0  0  0  0
 18 19  1  0  0  0  0
 18 20  1  0  0  0  0
M  END
> <Index>
1753

> <ID>
HT2112

> <class>
1

> <apol>
38.262344

> <ast_fraglike>
0

> <ast_fraglike_ext>
0

> <ast_violation>
2

> <ast_violation_ext>
3

> <a_acc>
4

> <a_acid>
0

> <a_aro>
6

> <a_base>
0

> <a_count>
28

> <a_don>
3

> <a_donacc>
7

> <a_heavy>
20

> <a_hyd>
9

> <a_IC>
67.096161

> <a_ICM>
2.3962915

> <a_nB>
0

> <a_nBr>
0

> <a_nC>
8

> <a_nCl>
3

> <a_nF>
0

> <a_nH>
8

> <a_nI>
0

> <a_nN>
3

> <a_nO>
4

> <a_nP>
0

> <a_nS>
2

> <balabanJ>
2.2014415

> <BCUT_PEOE_0>
-2.5928929

> <BCUT_PEOE_1>
-0.4903785

> <BCUT_PEOE_2>
0.53034163

> <BCUT_PEOE_3>
2.6042149

> <BCUT_SLOGP_0>
-2.7877016

> <BCUT_SLOGP_1>
-0.45785487

> <BCUT_SLOGP_2>
0.68949997

> <BCUT_SLOGP_3>
2.5256371

> <BCUT_SMR_0>
-2.2715194

> <BCUT_SMR_1>
-0.36090314

> <BCUT_SMR_2>
0.6686337

> <BCUT_SMR_3>
2.9204907

> <bpol>
23.617657

> <b_1rotN>
2

> <b_1rotR>
0.095238097

> <b_ar>
6

> <b_count>
29

> <b_double>
0

> <b_heavy>
21

> <b_max1len>
3

> <b_rotN>
2

> <b_rotR>
0.095238097

> <b_single>
23

> <b_triple>
0

> <chi0>
15.292529

> <chi0v>
13.370914

> <chi0v_C>
4.309401

> <chi0_C>
4.878315

> <chi1>
9.0206928

> <chi1v>
9.2358627

> <chi1v_C>
1.9880339

> <chi1_C>
2.6329932

> <chiral>
1

> <chiral_u>
1

> <density>
1.132077

> <diameter>
9

> <FCharge>
0

> <GCUT_PEOE_0>
-0.88124049

> <GCUT_PEOE_1>
-0.39675659

> <GCUT_PEOE_2>
0.03661523

> <GCUT_PEOE_3>
2.5111799

> <GCUT_SLOGP_0>
-1.3482839

> <GCUT_SLOGP_1>
-0.4585219

> <GCUT_SLOGP_2>
0.20676108

> <GCUT_SLOGP_3>
2.5158002

> <GCUT_SMR_0>
-0.48292997

> <GCUT_SMR_1>
-0.18081675

> <GCUT_SMR_2>
0.35587767

> <GCUT_SMR_3>
2.7953615

> <Kier1>
16.371881

> <Kier2>
5.3252597

> <Kier3>
3.2766211

> <KierA1>
20.246248

> <KierA2>
6.6594915

> <KierA3>
4.131042

> <KierFlex>
6.7414856

> <lip_acc>
7

> <lip_don>
4

> <lip_druglike>
1

> <lip_violation>
0

> <logP(o/w)>
0.68636

> <logS>
-3.4210801

> <mr>
7.5915408

> <mutagenic>
1

> <nmol>
1

> <opr_brigid>
11

> <opr_leadlike>
1

> <opr_nring>
2

> <opr_nrot>
2

> <opr_violation>
0

> <PC+>
0

> <PC->
0

> <PEOE_PC+>
1.7244501

> <PEOE_PC->
-1.7244501

> <PEOE_RPC+>
0.17962147

> <PEOE_RPC->
0.22099574

> <PEOE_VSA+0>
45.945545

> <PEOE_VSA+1>
21.415171

> <PEOE_VSA+2>
30.157621

> <PEOE_VSA+3>
0.0

> <PEOE_VSA+4>
0.0

> <PEOE_VSA+5>
0.0

> <PEOE_VSA+6>
8.3692026

> <PEOE_VSA-0>
20.873917

> <PEOE_VSA-1>
29.581947

> <PEOE_VSA-2>
93.709938

> <PEOE_VSA-3>
9.0437498

> <PEOE_VSA-4>
32.016521

> <PEOE_VSA-5>
0.0

> <PEOE_VSA-6>
0.13689101

> <PEOE_VSA_FHYD>
0.86086679

> <PEOE_VSA_FNEG>
0.63643825

> <PEOE_VSA_FPNEG>
0.1103978

> <PEOE_VSA_FPOL>
0.1391332

> <PEOE_VSA_FPOS>
0.36356172

> <PEOE_VSA_FPPOS>
0.02873541

> <PEOE_VSA_HYD>
250.72789

> <PEOE_VSA_NEG>
185.36296

> <PEOE_VSA_PNEG>
32.153416

> <PEOE_VSA_POL>
40.522617

> <PEOE_VSA_POS>
105.88754

> <PEOE_VSA_PPOS>
8.3692026

> <petitjean>
0.44444445

> <petitjeanSC>
0.80000001

> <Q_PC+>
0

> <Q_PC->
0

> <Q_RPC+>
0

> <Q_RPC->
0

> <Q_VSA_FHYD>
1

> <Q_VSA_FNEG>
0

> <Q_VSA_FPNEG>
0

> <Q_VSA_FPOL>
0

> <Q_VSA_FPOS>
1

> <Q_VSA_FPPOS>
0

> <Q_VSA_HYD>
291.25052

> <Q_VSA_NEG>
0

> <Q_VSA_PNEG>
0

> <Q_VSA_POL>
0

> <Q_VSA_POS>
291.25052

> <Q_VSA_PPOS>
0

> <radius>
5

> <reactive>
1

> <rings>
2

> <RPC+>
0

> <RPC->
0

> <rsynth>
1.0

> <SlogP>
0.82099998

> <SlogP_VSA0>
47.69643

> <SlogP_VSA1>
114.35413

> <SlogP_VSA2>
21.875486

> <SlogP_VSA3>
0.0

> <SlogP_VSA4>
0.0

> <SlogP_VSA5>
3.1014678

> <SlogP_VSA6>
3.5006065

> <SlogP_VSA7>
35.286369

> <SlogP_VSA8>
0.0

> <SlogP_VSA9>
120.20268

> <SMR>
7.6051402

> <SMR_VSA0>
96.343376

> <SMR_VSA1>
0.0

> <SMR_VSA2>
19.506466

> <SMR_VSA3>
12.094607

> <SMR_VSA4>
52.058933

> <SMR_VSA5>
35.286369

> <SMR_VSA6>
0.0

> <SMR_VSA7>
130.72742

> <TPSA>
118.36

> <VAdjEq>
0.48464775

> <VAdjMa>
5.3923173

> <VDistEq>
2.9243784

> <VDistMa>
8.3731756

> <vdw_area>
291.25052

> <vdw_vol>
336.24924

> <vsa_acc>
64.033043

> <vsa_acid>
0

> <vsa_base>
0

> <vsa_don>
33.892902

> <vsa_hyd>
139.95132

> <vsa_other>
38.232735

> <vsa_pol>
97.925949

> <Weight>
380.66

> <weinerPath>
738

> <weinerPol>
35

> <zagreb>
110

$$$$
Row1753
 OpenBabel06061811532D

 28 31  0  0  0  0  0  0  0  0999 V2000
    0.0000    0.0000    0.0000 S   0  0  0  0  0  0  0  0  0  0  0  0
    0.0000    0.0000    0.0000 C   0  0  0  0  0  0  0  0  0  0  0  0
    0.0000    0.0000    0.0000 C   0  0  0  0  0  0  0  0  0  0  0  0
    0.0000    0.0000    0.0000 N   0  0  0  0  0  0  0  0  0  0  0  0
    0.0000    0.0000    0.0000 C   0  0  0  0  0  0  0  0  0  0  0  0
    0.0000    0.0000    0.0000 C   0  0  0  0  0  0  0  0  0  0  0  0
    0.0000    0.0000    0.0000 C   0  0  0  0  0  0  0  0  0  0  0  0
    0.0000    0.0000    0.0000 C   0  0  0  0  0  0  0  0  0  0  0  0
    0.0000    0.0000    0.0000 C   0  0  0  0  0  0  0  0  0  0  0  0
    0.0000    0.0000    0.0000 C   0  0  0  0  0  0  0  0  0  0  0  0
    0.0000    0.0000    0.0000 C   0  0  0  0  0  0  0  0  0  0  0  0
    0.0000    0.0000    0.0000 C   0  0  0  0  0  0  0  0  0  0  0  0
    0.0000    0.0000    0.0000 C   0  0  0  0  0  0  0  0  0  0  0  0
    0.0000    0.0000    0.0000 N   0  0  0  0  0  0  0  0  0  0  0  0
    0.0000    0.0000    0.0000 C   0  0  0  0  0  0  0  0  0  0  0  0
    0.0000    0.0000    0.0000 C   0  0  0  0  0  0  0  0  0  0  0  0
    0.0000    0.0000    0.0000 N   0  0  0  0  0  0  0  0  0  0  0  0
    0.0000    0.0000    0.0000 C   0  0  0  0  0  0  0  0  0  0  0  0
    0.0000    0.0000    0.0000 C   0  0  0  0  0  0  0  0  0  0  0  0
    0.0000    0.0000    0.0000 C   0  0  0  0  0  0  0  0  0  0  0  0
    0.0000    0.0000    0.0000 C   0  0  0  0  0  0  0  0  0  0  0  0
    0.0000    0.0000    0.0000 C   0  0  0  0  0  0  0  0  0  0  0  0
    0.0000    0.0000    0.0000 C   0  0  0  0  0  0  0  0  0  0  0  0
    0.0000    0.0000    0.0000 C   0  0  0  0  0  0  0  0  0  0  0  0
    0.0000    0.0000    0.0000 C   0  0  0  0  0  0  0  0  0  0  0  0
    0.0000    0.0000    0.0000 F   0  0  0  0  0  0  0  0  0  0  0  0
    0.0000    0.0000    0.0000 F   0  0  0  0  0  0  0  0  0  0  0  0
    0.0000    0.0000    0.0000 F   0  0  0  0  0  0  0  0  0  0  0  0
  1  6  1  0  0  0  0
  1  2  1  0  0  0  0
  2 24  1  0  0  0  0
  2  3  2  0  0  0  0
  3  4  1  0  0  0  0
  3 21  1  0  0  0  0
  4  5  1  0  0  0  0
  4 11  1  0  0  0  0
  5 10  1  0  0  0  0
  5  6  2  0  0  0  0
  6  7  1  0  0  0  0
  7  8  2  0  0  0  0
  8  9  1  0  0  0  0
  9 10  2  0  0  0  0
 11 12  1  0  0  0  0
 12 13  1  0  0  0  0
 13 14  1  0  0  0  0
 14 19  1  0  0  0  0
 14 15  1  0  0  0  0
 15 16  1  0  0  0  0
 16 17  1  0  0  0  0
 17 18  1  0  0  0  0
 17 20  1  0  0  0  0
 18 19  1  0  0  0  0
 21 22  2  0  0  0  0
 22 23  1  0  0  0  0
 22 25  1  0  0  0  0
 23 24  2  0  0  0  0
 25 26  1  0  0  0  0
 25 27  1  0  0  0  0
 25 28  1  0  0  0  0
M  END
> <Index>
1754

> <ID>
HT2118

> <class>
1

> <apol>
60.83403

> <ast_fraglike>
0

> <ast_fraglike_ext>
0

> <ast_violation>
2

> <ast_violation_ext>
3

> <a_acc>
2

> <a_acid>
0

> <a_aro>
12

> <a_base>
0

> <a_count>
52

> <a_don>
0

> <a_donacc>
2

> <a_heavy>
28

> <a_hyd>
25

> <a_IC>
84.635323

> <a_ICM>
1.6276023

> <a_nB>
0

> <a_nBr>
0

> <a_nC>
21

> <a_nCl>
0

> <a_nF>
3

> <a_nH>
24

> <a_nI>
0

> <a_nN>
3

> <a_nO>
0

> <a_nP>
0

> <a_nS>
1

> <balabanJ>
1.3973571

> <BCUT_PEOE_0>
-2.7903376

> <BCUT_PEOE_1>
-0.50582588

> <BCUT_PEOE_2>
0.55573082

> <BCUT_PEOE_3>
2.6805542

> <BCUT_SLOGP_0>
-2.89816

> <BCUT_SLOGP_1>
-0.3969194

> <BCUT_SLOGP_2>
0.67206961

> <BCUT_SLOGP_3>
2.6287849

> <BCUT_SMR_0>
-2.5038671

> <BCUT_SMR_1>
-0.32947645

> <BCUT_SMR_2>
0.71008945

> <BCUT_SMR_3>
2.9587917

> <bpol>
38.065968

> <b_1rotN>
4

> <b_1rotR>
0.12903225

> <b_ar>
12

> <b_count>
55

> <b_double>
0

> <b_heavy>
31

> <b_max1len>
4

> <b_rotN>
5

> <b_rotR>
0.16129032

> <b_single>
43

> <b_triple>
0

> <chi0>
19.725405

> <chi0v>
16.691479

> <chi0v_C>
12.991199

> <chi0_C>
14.286246

> <chi1>
13.414835

> <chi1v>
10.39887

> <chi1v_C>
5.8153839

> <chi1_C>
7.4048314

> <chiral>
0

> <chiral_u>
0

> <density>
0.78150851

> <diameter>
13

> <FCharge>
0

> <GCUT_PEOE_0>
-0.86208081

> <GCUT_PEOE_1>
-0.3358596

> <GCUT_PEOE_2>
-0.027877739

> <GCUT_PEOE_3>
2.7935376

> <GCUT_SLOGP_0>
-0.96427548

> <GCUT_SLOGP_1>
-0.27461189

> <GCUT_SLOGP_2>
0.25461337

> <GCUT_SLOGP_3>
2.8861327

> <GCUT_SMR_0>
-0.5197289

> <GCUT_SMR_1>
-0.16272594

> <GCUT_SMR_2>
0.1582291

> <GCUT_SMR_3>
3.0710523

> <Kier1>
21.240376

> <Kier2>
9.0133333

> <Kier3>
5.0237813

> <KierA1>
18.126457

> <KierA2>
7.6444607

> <KierA3>
4.2420778

> <KierFlex>
4.9488215

> <lip_acc>
3

> <lip_don>
0

> <lip_druglike>
1

> <lip_violation>
1

> <logP(o/w)>
4.4917598

> <logS>
-4.94314

> <mr>
10.777625

> <mutagenic>
0

> <nmol>
1

> <opr_brigid>
22

> <opr_leadlike>
1

> <opr_nring>
4

> <opr_nrot>
6

> <opr_violation>
1

> <PC+>
0

> <PC->
0

> <PEOE_PC+>
1.8035371

> <PEOE_PC->
-1.8035371

> <PEOE_RPC+>
0.23147313

> <PEOE_RPC->
0.16795741

> <PEOE_VSA+0>
173.43382

> <PEOE_VSA+1>
32.066242

> <PEOE_VSA+2>
0.0

> <PEOE_VSA+3>
0.0

> <PEOE_VSA+4>
0.0

> <PEOE_VSA+5>
0.0

> <PEOE_VSA+6>
9.0455017

> <PEOE_VSA-0>
93.214523

> <PEOE_VSA-1>
44.270424

> <PEOE_VSA-2>
0.0

> <PEOE_VSA-3>
35.725906

> <PEOE_VSA-4>
0.0

> <PEOE_VSA-5>
0.0

> <PEOE_VSA-6>
0.0

> <PEOE_VSA_FHYD>
0.97667223

> <PEOE_VSA_FNEG>
0.44670016

> <PEOE_VSA_FPNEG>
0.0

> <PEOE_VSA_FPOL>
0.023327794

> <PEOE_VSA_FPOS>
0.55329984

> <PEOE_VSA_FPPOS>
0.023327794

> <PEOE_VSA_HYD>
378.71091

> <PEOE_VSA_NEG>
173.21086

> <PEOE_VSA_PNEG>
0.0

> <PEOE_VSA_POL>
9.0455017

> <PEOE_VSA_POS>
214.54556

> <PEOE_VSA_PPOS>
9.0455017

> <petitjean>
0.46153846

> <petitjeanSC>
0.85714287

> <Q_PC+>
0

> <Q_PC->
0

> <Q_RPC+>
0

> <Q_RPC->
0

> <Q_VSA_FHYD>
1

> <Q_VSA_FNEG>
0

> <Q_VSA_FPNEG>
0

> <Q_VSA_FPOL>
0

> <Q_VSA_FPOS>
1

> <Q_VSA_FPPOS>
0

> <Q_VSA_HYD>
387.75641

> <Q_VSA_NEG>
0

> <Q_VSA_PNEG>
0

> <Q_VSA_POL>
0

> <Q_VSA_POS>
387.75641

> <Q_VSA_PPOS>
0

> <radius>
7

> <reactive>
0

> <rings>
4

> <RPC+>
0

> <RPC->
0

> <rsynth>
1.0

> <SlogP>
5.2571001

> <SlogP_VSA0>
3.1243138

> <SlogP_VSA1>
6.2486277

> <SlogP_VSA2>
0.0

> <SlogP_VSA3>
110.63747

> <SlogP_VSA4>
3.185575

> <SlogP_VSA5>
35.998657

> <SlogP_VSA6>
7.7595162

> <SlogP_VSA7>
123.50229

> <SlogP_VSA8>
18.868406

> <SlogP_VSA9>
82.613373

> <SMR>
10.7687

> <SMR_VSA0>
0.0

> <SMR_VSA1>
51.128967

> <SMR_VSA2>
13.985298

> <SMR_VSA3>
3.185575

> <SMR_VSA4>
5.513495

> <SMR_VSA5>
142.3707

> <SMR_VSA6>
110.63747

> <SMR_VSA7>
65.11673

> <TPSA>
9.7200003

> <VAdjEq>
0.39893496

> <VAdjMa>
5.9541965

> <VDistEq>
3.5020404

> <VDistMa>
9.3301401

> <vdw_area>
387.75641

> <vdw_vol>
521.43256

> <vsa_acc>
0.0

> <vsa_acid>
0

> <vsa_base>
0

> <vsa_don>
0.0

> <vsa_hyd>
370.67334

> <vsa_other>
0.0

> <vsa_pol>
0.0

> <Weight>
407.504

> <weinerPath>
2075

> <weinerPol>
46

> <zagreb>
152

$$$$
Row1754
 OpenBabel06061811532D

 24 26  0  0  0  0  0  0  0  0999 V2000
    0.0000    0.0000    0.0000 S   0  0  0  0  0  0  0  0  0  0  0  0
    0.0000    0.0000    0.0000 C   0  0  0  0  0  0  0  0  0  0  0  0
    0.0000    0.0000    0.0000 C   0  0  0  0  0  0  0  0  0  0  0  0
    0.0000    0.0000    0.0000 N   0  0  0  0  0  0  0  0  0  0  0  0
    0.0000    0.0000    0.0000 C   0  0  0  0  0  0  0  0  0  0  0  0
    0.0000    0.0000    0.0000 C   0  0  0  0  0  0  0  0  0  0  0  0
    0.0000    0.0000    0.0000 C   0  0  0  0  0  0  0  0  0  0  0  0
    0.0000    0.0000    0.0000 C   0  0  0  0  0  0  0  0  0  0  0  0
    0.0000    0.0000    0.0000 C   0  0  0  0  0  0  0  0  0  0  0  0
    0.0000    0.0000    0.0000 C   0  0  0  0  0  0  0  0  0  0  0  0
    0.0000    0.0000    0.0000 C   0  0  0  0  0  0  0  0  0  0  0  0
    0.0000    0.0000    0.0000 C   0  0  0  0  0  0  0  0  0  0  0  0
    0.0000    0.0000    0.0000 C   0  0  0  0  0  0  0  0  0  0  0  0
    0.0000    0.0000    0.0000 N   0  0  0  0  0  0  0  0  0  0  0  0
    0.0000    0.0000    0.0000 C   0  0  0  0  0  0  0  0  0  0  0  0
    0.0000    0.0000    0.0000 C   0  0  0  0  0  0  0  0  0  0  0  0
    0.0000    0.0000    0.0000 C   0  0  0  0  0  0  0  0  0  0  0  0
    0.0000    0.0000    0.0000 C   0  0  0  0  0  0  0  0  0  0  0  0
    0.0000    0.0000    0.0000 C   0  0  0  0  0  0  0  0  0  0  0  0
    0.0000    0.0000    0.0000 C   0  0  0  0  0  0  0  0  0  0  0  0
    0.0000    0.0000    0.0000 C   0  0  0  0  0  0  0  0  0  0  0  0
    0.0000    0.0000    0.0000 F   0  0  0  0  0  0  0  0  0  0  0  0
    0.0000    0.0000    0.0000 F   0  0  0  0  0  0  0  0  0  0  0  0
    0.0000    0.0000    0.0000 F   0  0  0  0  0  0  0  0  0  0  0  0
  1  6  1  0  0  0  0
  1  2  1  0  0  0  0
  2 20  1  0  0  0  0
  2  3  2  0  0  0  0
  3  4  1  0  0  0  0
  3 17  1  0  0  0  0
  4  5  1  0  0  0  0
  4 11  1  0  0  0  0
  5 10  1  0  0  0  0
  5  6  2  0  0  0  0
  6  7  1  0  0  0  0
  7  8  2  0  0  0  0
  8  9  1  0  0  0  0
  9 10  2  0  0  0  0
 11 12  1  0  0  0  0
 12 13  1  0  0  0  0
 13 14  1  0  0  0  0
 14 15  1  0  0  0  0
 14 16  1  0  0  0  0
 17 18  2  0  0  0  0
 18 19  1  0  0  0  0
 18 21  1  0  0  0  0
 19 20  2  0  0  0  0
 21 22  1  0  0  0  0
 21 23  1  0  0  0  0
 21 24  1  0  0  0  0
M  END
> <Index>
1755

> <ID>
HT2119

> <class>
1

> <apol>
51.120068

> <ast_fraglike>
0

> <ast_fraglike_ext>
0

> <ast_violation>
2

> <ast_violation_ext>
3

> <a_acc>
1

> <a_acid>
0

> <a_aro>
12

> <a_base>
0

> <a_count>
43

> <a_don>
0

> <a_donacc>
1

> <a_heavy>
24

> <a_hyd>
22

> <a_IC>
70.805222

> <a_ICM>
1.6466331

> <a_nB>
0

> <a_nBr>
0

> <a_nC>
18

> <a_nCl>
0

> <a_nF>
3

> <a_nH>
19

> <a_nI>
0

> <a_nN>
2

> <a_nO>
0

> <a_nP>
0

> <a_nS>
1

> <balabanJ>
1.7303056

> <BCUT_PEOE_0>
-2.6571684

> <BCUT_PEOE_1>
-0.50583178

> <BCUT_PEOE_2>
0.55573511

> <BCUT_PEOE_3>
2.567111

> <BCUT_SLOGP_0>
-2.7073479

> <BCUT_SLOGP_1>
-0.39692479

> <BCUT_SLOGP_2>
0.67207313

> <BCUT_SLOGP_3>
2.6160476

> <BCUT_SMR_0>
-2.3741691

> <BCUT_SMR_1>
-0.32948107

> <BCUT_SMR_2>
0.71009362

> <BCUT_SMR_3>
2.8538775

> <bpol>
30.619932

> <b_1rotN>
4

> <b_1rotR>
0.15384616

> <b_ar>
12

> <b_count>
45

> <b_double>
0

> <b_heavy>
26

> <b_max1len>
6

> <b_rotN>
5

> <b_rotR>
0.1923077

> <b_single>
33

> <b_triple>
0

> <chi0>
17.319626

> <chi0v>
14.415837

> <chi0v_C>
11.162772

> <chi0_C>
12.457819

> <chi1>
11.359192

> <chi1v>
8.581172

> <chi1v_C>
4.8153839

> <chi1_C>
6.4048314

> <chiral>
0

> <chiral_u>
0

> <density>
0.79350072

> <diameter>
10

> <FCharge>
0

> <GCUT_PEOE_0>
-0.86394054

> <GCUT_PEOE_1>
-0.33585855

> <GCUT_PEOE_2>
-0.027877744

> <GCUT_PEOE_3>
2.6601393

> <GCUT_SLOGP_0>
-0.9543187

> <GCUT_SLOGP_1>
-0.2268406

> <GCUT_SLOGP_2>
0.26019999

> <GCUT_SLOGP_3>
2.8059402

> <GCUT_SMR_0>
-0.51969552

> <GCUT_SMR_1>
-0.16272549

> <GCUT_SMR_2>
0.15822873

> <GCUT_SMR_3>
2.9564831

> <Kier1>
18.781065

> <Kier2>
7.7091413

> <Kier3>
4.4114585

> <KierA1>
15.584205

> <KierA2>
6.3418798

> <KierA3>
3.6065483

> <KierFlex>
4.1180477

> <lip_acc>
2

> <lip_don>
0

> <lip_druglike>
1

> <lip_violation>
1

> <logP(o/w)>
4.9667602

> <logS>
-4.89641

> <mr>
9.2636137

> <mutagenic>
0

> <nmol>
1

> <opr_brigid>
16

> <opr_leadlike>
1

> <opr_nring>
3

> <opr_nrot>
4

> <opr_violation>
1

> <PC+>
0

> <PC->
0

> <PEOE_PC+>
1.523017

> <PEOE_PC->
-1.523017

> <PEOE_RPC+>
0.27410749

> <PEOE_RPC->
0.20242754

> <PEOE_VSA+0>
86.145264

> <PEOE_VSA+1>
32.066242

> <PEOE_VSA+2>
0.0

> <PEOE_VSA+3>
0.0

> <PEOE_VSA+4>
0.0

> <PEOE_VSA+5>
0.0

> <PEOE_VSA+6>
9.0455017

> <PEOE_VSA-0>
129.64554

> <PEOE_VSA-1>
44.270424

> <PEOE_VSA-2>
0.0

> <PEOE_VSA-3>
35.725906

> <PEOE_VSA-4>
0.0

> <PEOE_VSA-5>
0.0

> <PEOE_VSA-6>
0.0

> <PEOE_VSA_FHYD>
0.97315067

> <PEOE_VSA_FNEG>
0.62226945

> <PEOE_VSA_FPNEG>
0.0

> <PEOE_VSA_FPOL>
0.026849309

> <PEOE_VSA_FPOS>
0.37773058

> <PEOE_VSA_FPPOS>
0.026849309

> <PEOE_VSA_HYD>
327.85336

> <PEOE_VSA_NEG>
209.64186

> <PEOE_VSA_PNEG>
0.0

> <PEOE_VSA_POL>
9.0455017

> <PEOE_VSA_POS>
127.257

> <PEOE_VSA_PPOS>
9.0455017

> <petitjean>
0.5

> <petitjeanSC>
1.0

> <Q_PC+>
0

> <Q_PC->
0

> <Q_RPC+>
0

> <Q_RPC->
0

> <Q_VSA_FHYD>
1

> <Q_VSA_FNEG>
0

> <Q_VSA_FPNEG>
0

> <Q_VSA_FPOL>
0

> <Q_VSA_FPOS>
1

> <Q_VSA_FPPOS>
0

> <Q_VSA_HYD>
336.89886

> <Q_VSA_NEG>
0

> <Q_VSA_PNEG>
0

> <Q_VSA_POL>
0

> <Q_VSA_POS>
336.89886

> <Q_VSA_PPOS>
0

> <radius>
5

> <reactive>
0

> <rings>
3

> <RPC+>
0

> <RPC->
0

> <rsynth>
1.0

> <SlogP>
5.5713

> <SlogP_VSA0>
3.1243138

> <SlogP_VSA1>
3.1243138

> <SlogP_VSA2>
0.0

> <SlogP_VSA3>
36.879158

> <SlogP_VSA4>
3.185575

> <SlogP_VSA5>
68.895844

> <SlogP_VSA6>
7.7595162

> <SlogP_VSA7>
123.50229

> <SlogP_VSA8>
18.868406

> <SlogP_VSA9>
82.613373

> <SMR>
9.2304001

> <SMR_VSA0>
0.0

> <SMR_VSA1>
48.004654

> <SMR_VSA2>
13.985298

> <SMR_VSA3>
3.185575

> <SMR_VSA4>
5.513495

> <SMR_VSA5>
142.3707

> <SMR_VSA6>
36.879158

> <SMR_VSA7>
98.013916

> <TPSA>
6.48

> <VAdjEq>
0.43739632

> <VAdjMa>
5.7004399

> <VDistEq>
3.1926835

> <VDistMa>
8.9028959

> <vdw_area>
336.89886

> <vdw_vol>
444.13821

> <vsa_acc>
0.0

> <vsa_acid>
0

> <vsa_base>
0

> <vsa_don>
0.0

> <vsa_hyd>
323.37476

> <vsa_other>
0.0

> <vsa_pol>
0.0

> <Weight>
352.42398

> <weinerPath>
1286

> <weinerPol>
39

> <zagreb>
128

$$$$
Row1755
 OpenBabel06061811532D

 21 22  0  0  0  0  0  0  0  0999 V2000
    0.0000    0.0000    0.0000 O   0  0  0  0  0  0  0  0  0  0  0  0
    0.0000    0.0000    0.0000 C   0  0  0  0  0  0  0  0  0  0  0  0
    0.0000    0.0000    0.0000 C   0  0  0  0  0  0  0  0  0  0  0  0
    0.0000    0.0000    0.0000 C   0  0  0  0  0  0  0  0  0  0  0  0
    0.0000    0.0000    0.0000 O   0  0  0  0  0  0  0  0  0  0  0  0
    0.0000    0.0000    0.0000 C   0  0  0  0  0  0  0  0  0  0  0  0
    0.0000    0.0000    0.0000 C   0  0  0  0  0  0  0  0  0  0  0  0
    0.0000    0.0000    0.0000 C   0  0  0  0  0  0  0  0  0  0  0  0
    0.0000    0.0000    0.0000 C   0  0  0  0  0  0  0  0  0  0  0  0
    0.0000    0.0000    0.0000 C   0  0  0  0  0  0  0  0  0  0  0  0
    0.0000    0.0000    0.0000 O   0  0  0  0  0  0  0  0  0  0  0  0
    0.0000    0.0000    0.0000 C   0  0  0  0  0  0  0  0  0  0  0  0
    0.0000    0.0000    0.0000 C   0  0  0  0  0  0  0  0  0  0  0  0
    0.0000    0.0000    0.0000 C   0  0  0  0  0  0  0  0  0  0  0  0
    0.0000    0.0000    0.0000 C   0  0  0  0  0  0  0  0  0  0  0  0
    0.0000    0.0000    0.0000 N   0  0  0  0  0  0  0  0  0  0  0  0
    0.0000    0.0000    0.0000 C   0  0  0  0  0  0  0  0  0  0  0  0
    0.0000    0.0000    0.0000 N   0  0  0  0  0  0  0  0  0  0  0  0
    0.0000    0.0000    0.0000 C   0  0  0  0  0  0  0  0  0  0  0  0
    0.0000    0.0000    0.0000 N   0  0  0  0  0  0  0  0  0  0  0  0
    0.0000    0.0000    0.0000 N   0  0  0  0  0  0  0  0  0  0  0  0
  1  2  1  0  0  0  0
  1  3  1  0  0  0  0
  3 10  1  0  0  0  0
  3  4  2  0  0  0  0
  4  5  1  0  0  0  0
  4  7  1  0  0  0  0
  5  6  1  0  0  0  0
  7  8  2  0  0  0  0
  8  9  1  0  0  0  0
  8 13  1  0  0  0  0
  9 10  2  0  0  0  0
 10 11  1  0  0  0  0
 11 12  1  0  0  0  0
 13 14  1  0  0  0  0
 14 19  1  0  0  0  0
 14 15  2  0  0  0  0
 15 16  1  0  0  0  0
 16 17  2  0  0  0  0
 17 18  1  0  0  0  0
 17 21  1  0  0  0  0
 18 19  2  0  0  0  0
 19 20  1  0  0  0  0
M  END
> <Index>
1756

> <ID>
HT2128

> <class>
1

> <apol>
43.448273

> <ast_fraglike>
0

> <ast_fraglike_ext>
0

> <ast_violation>
1

> <ast_violation_ext>
2

> <a_acc>
5

> <a_acid>
0

> <a_aro>
12

> <a_base>
0

> <a_count>
39

> <a_don>
2

> <a_donacc>
7

> <a_heavy>
21

> <a_hyd>
12

> <a_IC>
65.014183

> <a_ICM>
1.6670302

> <a_nB>
0

> <a_nBr>
0

> <a_nC>
14

> <a_nCl>
0

> <a_nF>
0

> <a_nH>
18

> <a_nI>
0

> <a_nN>
4

> <a_nO>
3

> <a_nP>
0

> <a_nS>
0

> <balabanJ>
1.9477328

> <BCUT_PEOE_0>
-2.3765316

> <BCUT_PEOE_1>
-0.57924652

> <BCUT_PEOE_2>
0.38482615

> <BCUT_PEOE_3>
2.3629572

> <BCUT_SLOGP_0>
-2.40395

> <BCUT_SLOGP_1>
-0.53631026

> <BCUT_SLOGP_2>
0.50869751

> <BCUT_SLOGP_3>
2.5171902

> <BCUT_SMR_0>
-2.0887363

> <BCUT_SMR_1>
-0.28701171

> <BCUT_SMR_2>
0.67510277

> <BCUT_SMR_3>
2.6536424

> <bpol>
26.745726

> <b_1rotN>
5

> <b_1rotR>
0.22727273

> <b_ar>
12

> <b_count>
40

> <b_double>
0

> <b_heavy>
22

> <b_max1len>
2

> <b_rotN>
5

> <b_rotR>
0.22727273

> <b_single>
28

> <b_triple>
0

> <chi0>
15.405413

> <chi0v>
12.21303

> <chi0v_C>
8.9391575

> <chi0_C>
9.8698788

> <chi1>
10.083249

> <chi1v>
6.2439694

> <chi1v_C>
2.9004824

> <chi1_C>
3.857738

> <chiral>
0

> <chiral_u>
0

> <density>
0.75460261

> <diameter>
11

> <FCharge>
0

> <GCUT_PEOE_0>
-0.78695428

> <GCUT_PEOE_1>
-0.47053322

> <GCUT_PEOE_2>
-0.034174353

> <GCUT_PEOE_3>
2.4648204

> <GCUT_SLOGP_0>
-1.3404098

> <GCUT_SLOGP_1>
-0.38418952

> <GCUT_SLOGP_2>
0.081185825

> <GCUT_SLOGP_3>
2.5996902

> <GCUT_SMR_0>
-0.4870806

> <GCUT_SMR_1>
-0.20261551

> <GCUT_SMR_2>
0.087153055

> <GCUT_SMR_3>
2.7431853

> <Kier1>
17.355371

> <Kier2>
8.0222225

> <Kier3>
4.260355

> <KierA1>
12.760707

> <KierA2>
5.8000455

> <KierA3>
3.040539

> <KierFlex>
3.5244131

> <lip_acc>
7

> <lip_don>
4

> <lip_druglike>
1

> <lip_violation>
0

> <logP(o/w)>
0.44448

> <logS>
-2.59657

> <mr>
7.8715377

> <mutagenic>
1

> <nmol>
1

> <opr_brigid>
12

> <opr_leadlike>
1

> <opr_nring>
2

> <opr_nrot>
5

> <opr_violation>
0

> <PC+>
0

> <PC->
0

> <PEOE_PC+>
2.1110055

> <PEOE_PC->
-2.1110055

> <PEOE_RPC+>
0.094837278

> <PEOE_RPC->
0.16354547

> <PEOE_VSA+0>
111.17951

> <PEOE_VSA+1>
51.184631

> <PEOE_VSA+2>
71.042175

> <PEOE_VSA+3>
0.0

> <PEOE_VSA+4>
15.681574

> <PEOE_VSA+5>
0.0

> <PEOE_VSA+6>
0.0

> <PEOE_VSA-0>
26.718348

> <PEOE_VSA-1>
0.0

> <PEOE_VSA-2>
0.0

> <PEOE_VSA-3>
0.0

> <PEOE_VSA-4>
11.365152

> <PEOE_VSA-5>
13.302238

> <PEOE_VSA-6>
7.5112681

> <PEOE_VSA_FHYD>
0.84460199

> <PEOE_VSA_FNEG>
0.19123343

> <PEOE_VSA_FPNEG>
0.10448129

> <PEOE_VSA_FPOL>
0.15539798

> <PEOE_VSA_FPOS>
0.8087666

> <PEOE_VSA_FPPOS>
0.050916698

> <PEOE_VSA_HYD>
260.12466

> <PEOE_VSA_NEG>
58.897007

> <PEOE_VSA_PNEG>
32.178658

> <PEOE_VSA_POL>
47.860233

> <PEOE_VSA_POS>
249.08789

> <PEOE_VSA_PPOS>
15.681574

> <petitjean>
0.45454547

> <petitjeanSC>
0.83333331

> <Q_PC+>
0

> <Q_PC->
0

> <Q_RPC+>
0

> <Q_RPC->
0

> <Q_VSA_FHYD>
1

> <Q_VSA_FNEG>
0

> <Q_VSA_FPNEG>
0

> <Q_VSA_FPOL>
0

> <Q_VSA_FPOS>
1

> <Q_VSA_FPPOS>
0

> <Q_VSA_HYD>
307.98489

> <Q_VSA_NEG>
0

> <Q_VSA_PNEG>
0

> <Q_VSA_POL>
0

> <Q_VSA_POS>
307.98489

> <Q_VSA_PPOS>
0

> <radius>
6

> <reactive>
0

> <rings>
2

> <RPC+>
0

> <RPC->
0

> <rsynth>
1.0

> <SlogP>
1.25757

> <SlogP_VSA0>
98.794037

> <SlogP_VSA1>
33.57106

> <SlogP_VSA2>
0.0

> <SlogP_VSA3>
0.0

> <SlogP_VSA4>
6.37115

> <SlogP_VSA5>
125.02001

> <SlogP_VSA6>
0.0

> <SlogP_VSA7>
52.500725

> <SlogP_VSA8>
0.0

> <SlogP_VSA9>
19.957296

> <SMR>
7.9760799

> <SMR_VSA0>
0.0

> <SMR_VSA1>
66.570724

> <SMR_VSA2>
0.0

> <SMR_VSA3>
22.101435

> <SMR_VSA4>
4.2270131

> <SMR_VSA5>
137.16351

> <SMR_VSA6>
0.0

> <SMR_VSA7>
106.1516

> <TPSA>
105.51

> <VAdjEq>
0.46827638

> <VAdjMa>
5.4594316

> <VDistEq>
3.1976323

> <VDistMa>
8.4944992

> <vdw_area>
307.98489

> <vdw_vol>
384.73627

> <vsa_acc>
18.876421

> <vsa_acid>
0

> <vsa_base>
0

> <vsa_don>
35.484978

> <vsa_hyd>
204.49292

> <vsa_other>
26.872137

> <vsa_pol>
54.361401

> <Weight>
290.323

> <weinerPath>
946

> <weinerPol>
33

> <zagreb>
104

$$$$
Row1756
 OpenBabel06061811532D

 22 24  0  0  1  0  0  0  0  0999 V2000
    0.0000    0.0000    0.0000 N   0  0  0  0  0  0  0  0  0  0  0  0
    0.0000    0.0000    0.0000 C   0  0  0  0  0  0  0  0  0  0  0  0
    0.0000    0.0000    0.0000 C   0  0  3  0  0  0  0  0  0  0  0  0
    0.0000    0.0000    0.0000 C   0  0  0  0  0  0  0  0  0  0  0  0
    0.0000    0.0000    0.0000 N   0  0  0  0  0  0  0  0  0  0  0  0
    0.0000    0.0000    0.0000 C   0  0  0  0  0  0  0  0  0  0  0  0
    0.0000    0.0000    0.0000 C   0  0  0  0  0  0  0  0  0  0  0  0
    0.0000    0.0000    0.0000 C   0  0  0  0  0  0  0  0  0  0  0  0
    0.0000    0.0000    0.0000 C   0  0  0  0  0  0  0  0  0  0  0  0
    0.0000    0.0000    0.0000 C   0  0  0  0  0  0  0  0  0  0  0  0
    0.0000    0.0000    0.0000 C   0  0  0  0  0  0  0  0  0  0  0  0
    0.0000    0.0000    0.0000 C   0  0  0  0  0  0  0  0  0  0  0  0
    0.0000    0.0000    0.0000 C   0  0  0  0  0  0  0  0  0  0  0  0
    0.0000    0.0000    0.0000 C   0  0  0  0  0  0  0  0  0  0  0  0
    0.0000    0.0000    0.0000 C   0  0  0  0  0  0  0  0  0  0  0  0
    0.0000    0.0000    0.0000 C   0  0  0  0  0  0  0  0  0  0  0  0
    0.0000    0.0000    0.0000 C   0  0  0  0  0  0  0  0  0  0  0  0
    0.0000    0.0000    0.0000 C   0  0  0  0  0  0  0  0  0  0  0  0
    0.0000    0.0000    0.0000 C   0  0  0  0  0  0  0  0  0  0  0  0
    0.0000    0.0000    0.0000 C   0  0  0  0  0  0  0  0  0  0  0  0
    0.0000    0.0000    0.0000 C   0  0  0  0  0  0  0  0  0  0  0  0
    0.0000    0.0000    0.0000 C   0  0  0  0  0  0  0  0  0  0  0  0
  1  2  1  0  0  0  0
  1 21  1  0  0  0  0
  1 22  1  0  0  0  0
  2  3  1  0  0  0  0
  3  4  1  0  0  0  0
  3 20  1  0  0  0  0
  4  5  1  0  0  0  0
  5 11  1  0  0  0  0
  5  6  1  0  0  0  0
  6 19  1  0  0  0  0
  6  7  2  0  0  0  0
  7  8  1  0  0  0  0
  7 16  1  0  0  0  0
  8  9  1  0  0  0  0
  9 10  1  0  0  0  0
 10 15  1  0  0  0  0
 10 11  2  0  0  0  0
 11 12  1  0  0  0  0
 12 13  2  0  0  0  0
 13 14  1  0  0  0  0
 14 15  2  0  0  0  0
 16 17  2  0  0  0  0
 17 18  1  0  0  0  0
 18 19  2  0  0  0  0
M  END
> <Index>
1757

> <ID>
HT2130

> <class>
1

> <apol>
54.736618

> <ast_fraglike>
0

> <ast_fraglike_ext>
0

> <ast_violation>
1

> <ast_violation_ext>
2

> <a_acc>
1

> <a_acid>
0

> <a_aro>
12

> <a_base>
0

> <a_count>
48

> <a_don>
0

> <a_donacc>
1

> <a_heavy>
22

> <a_hyd>
20

> <a_IC>
57.428204

> <a_ICM>
1.1964209

> <a_nB>
0

> <a_nBr>
0

> <a_nC>
20

> <a_nCl>
0

> <a_nF>
0

> <a_nH>
26

> <a_nI>
0

> <a_nN>
2

> <a_nO>
0

> <a_nP>
0

> <a_nS>
0

> <balabanJ>
1.7567483

> <BCUT_PEOE_0>
-2.7030079

> <BCUT_PEOE_1>
-0.52029419

> <BCUT_PEOE_2>
0.58581072

> <BCUT_PEOE_3>
2.6308236

> <BCUT_SLOGP_0>
-2.7555196

> <BCUT_SLOGP_1>
-0.42246449

> <BCUT_SLOGP_2>
0.68366611

> <BCUT_SLOGP_3>
2.6436377

> <BCUT_SMR_0>
-2.4292042

> <BCUT_SMR_1>
-0.3922593

> <BCUT_SMR_2>
0.7213136

> <BCUT_SMR_3>
2.9083216

> <bpol>
32.383381

> <b_1rotN>
4

> <b_1rotR>
0.16666667

> <b_ar>
12

> <b_count>
50

> <b_double>
0

> <b_heavy>
24

> <b_max1len>
6

> <b_rotN>
4

> <b_rotR>
0.16666667

> <b_single>
38

> <b_triple>
0

> <chi0>
15.526733

> <chi0v>
13.919006

> <chi0v_C>
13.02458

> <chi0_C>
14.372033

> <chi1>
10.647867

> <chi1v>
8.2297506

> <chi1v_C>
6.2556543

> <chi1_C>
8.0100031

> <chiral>
1

> <chiral_u>
1

> <density>
0.63844389

> <diameter>
9

> <FCharge>
0

> <GCUT_PEOE_0>
-0.86353076

> <GCUT_PEOE_1>
-0.33609334

> <GCUT_PEOE_2>
0.044801284

> <GCUT_PEOE_3>
2.8229451

> <GCUT_SLOGP_0>
-0.95485902

> <GCUT_SLOGP_1>
-0.24677467

> <GCUT_SLOGP_2>
0.13816564

> <GCUT_SLOGP_3>
2.9241877

> <GCUT_SMR_0>
-0.52540147

> <GCUT_SMR_1>
-0.18152328

> <GCUT_SMR_2>
0.1592079

> <GCUT_SMR_3>
3.1070154

> <Kier1>
16.84375

> <Kier2>
7.7134986

> <Kier3>
4.1103301

> <KierA1>
13.067566

> <KierA2>
5.9065099

> <KierA3>
3.117687

> <KierFlex>
3.5083501

> <lip_acc>
2

> <lip_don>
0

> <lip_druglike>
1

> <lip_violation>
0

> <logP(o/w)>
4.4619999

> <logS>
-3.6564801

> <mr>
9.2882671

> <mutagenic>
0

> <nmol>
1

> <opr_brigid>
17

> <opr_leadlike>
1

> <opr_nring>
3

> <opr_nrot>
4

> <opr_violation>
0

> <PC+>
0

> <PC->
0

> <PEOE_PC+>
1.2006909

> <PEOE_PC->
-1.2006909

> <PEOE_RPC+>
0.052752942

> <PEOE_RPC->
0.25655946

> <PEOE_VSA+0>
116.5607

> <PEOE_VSA+1>
34.123089

> <PEOE_VSA+2>
0.0

> <PEOE_VSA+3>
0.0

> <PEOE_VSA+4>
0.0

> <PEOE_VSA+5>
0.0

> <PEOE_VSA+6>
0.0

> <PEOE_VSA-0>
92.806892

> <PEOE_VSA-1>
92.2771

> <PEOE_VSA-2>
0.0

> <PEOE_VSA-3>
0.0

> <PEOE_VSA-4>
0.0

> <PEOE_VSA-5>
0.0

> <PEOE_VSA-6>
0.0

> <PEOE_VSA_FHYD>
1.0

> <PEOE_VSA_FNEG>
0.5512262

> <PEOE_VSA_FPNEG>
0.0

> <PEOE_VSA_FPOL>
0.0

> <PEOE_VSA_FPOS>
0.4487738

> <PEOE_VSA_FPPOS>
0.0

> <PEOE_VSA_HYD>
335.76779

> <PEOE_VSA_NEG>
185.084

> <PEOE_VSA_PNEG>
0.0

> <PEOE_VSA_POL>
0.0

> <PEOE_VSA_POS>
150.68379

> <PEOE_VSA_PPOS>
0.0

> <petitjean>
0.44444445

> <petitjeanSC>
0.80000001

> <Q_PC+>
0

> <Q_PC->
0

> <Q_RPC+>
0

> <Q_RPC->
0

> <Q_VSA_FHYD>
1

> <Q_VSA_FNEG>
0

> <Q_VSA_FPNEG>
0

> <Q_VSA_FPOL>
0

> <Q_VSA_FPOS>
1

> <Q_VSA_FPPOS>
0

> <Q_VSA_HYD>
335.76779

> <Q_VSA_NEG>
0

> <Q_VSA_PNEG>
0

> <Q_VSA_POL>
0

> <Q_VSA_POS>
335.76779

> <Q_VSA_PPOS>
0

> <radius>
5

> <reactive>
0

> <rings>
3

> <RPC+>
0

> <RPC->
0

> <rsynth>
1.0

> <SlogP>
4.1209402

> <SlogP_VSA0>
3.1243138

> <SlogP_VSA1>
3.1243138

> <SlogP_VSA2>
0.0

> <SlogP_VSA3>
36.879158

> <SlogP_VSA4>
10.781946

> <SlogP_VSA5>
103.53119

> <SlogP_VSA6>
0.0

> <SlogP_VSA7>
141.14548

> <SlogP_VSA8>
0.0

> <SlogP_VSA9>
38.839512

> <SMR>
9.5016003

> <SMR_VSA0>
0.0

> <SMR_VSA1>
3.1243138

> <SMR_VSA2>
7.53511

> <SMR_VSA3>
6.37115

> <SMR_VSA4>
5.513495

> <SMR_VSA5>
178.88228

> <SMR_VSA6>
36.879158

> <SMR_VSA7>
99.120392

> <TPSA>
6.48

> <VAdjEq>
0.46637034

> <VAdjMa>
5.5849624

> <VDistEq>
3.0194578

> <VDistMa>
8.6617937

> <vdw_area>
335.76779

> <vdw_vol>
461.18695

> <vsa_acc>
0.0

> <vsa_acid>
0

> <vsa_base>
0

> <vsa_don>
0.0

> <vsa_hyd>
315.91605

> <vsa_other>
0.0

> <vsa_pol>
0.0

> <Weight>
294.44199

> <weinerPath>
979

> <weinerPol>
37

> <zagreb>
114

$$$$
Row1757
 OpenBabel06061811532D

 74 77  0  0  1  0  0  0  0  0999 V2000
    0.0000    0.0000    0.0000 O   0  0  0  0  0  0  0  0  0  0  0  0
    0.0000    0.0000    0.0000 C   0  0  2  0  0  0  0  0  0  0  0  0
    0.0000    0.0000    0.0000 H   0  0  0  0  0  0  0  0  0  0  0  0
    0.0000    0.0000    0.0000 C   0  0  0  0  0  0  0  0  0  0  0  0
    0.0000    0.0000    0.0000 C   0  0  2  0  0  0  0  0  0  0  0  0
    0.0000    0.0000    0.0000 H   0  0  0  0  0  0  0  0  0  0  0  0
    0.0000    0.0000    0.0000 C   0  0  0  0  0  0  0  0  0  0  0  0
    0.0000    0.0000    0.0000 C   0  0  2  0  0  0  0  0  0  0  0  0
    0.0000    0.0000    0.0000 H   0  0  0  0  0  0  0  0  0  0  0  0
    0.0000    0.0000    0.0000 O   0  0  0  0  0  0  0  0  0  0  0  0
    0.0000    0.0000    0.0000 C   0  0  0  0  0  0  0  0  0  0  0  0
    0.0000    0.0000    0.0000 O   0  0  0  0  0  0  0  0  0  0  0  0
    0.0000    0.0000    0.0000 C   0  0  0  0  0  0  0  0  0  0  0  0
    0.0000    0.0000    0.0000 C   0  0  1  0  0  0  0  0  0  0  0  0
    0.0000    0.0000    0.0000 H   0  0  0  0  0  0  0  0  0  0  0  0
    0.0000    0.0000    0.0000 C   0  0  0  0  0  0  0  0  0  0  0  0
    0.0000    0.0000    0.0000 C   0  0  0  0  0  0  0  0  0  0  0  0
    0.0000    0.0000    0.0000 O   0  0  0  0  0  0  0  0  0  0  0  0
    0.0000    0.0000    0.0000 C   0  0  2  0  0  0  0  0  0  0  0  0
    0.0000    0.0000    0.0000 O   0  0  0  0  0  0  0  0  0  0  0  0
    0.0000    0.0000    0.0000 C   0  0  0  0  0  0  0  0  0  0  0  0
    0.0000    0.0000    0.0000 C   0  0  0  0  0  0  0  0  0  0  0  0
    0.0000    0.0000    0.0000 C   0  0  2  0  0  0  0  0  0  0  0  0
    0.0000    0.0000    0.0000 H   0  0  0  0  0  0  0  0  0  0  0  0
    0.0000    0.0000    0.0000 C   0  0  0  0  0  0  0  0  0  0  0  0
    0.0000    0.0000    0.0000 C   0  0  2  0  0  0  0  0  0  0  0  0
    0.0000    0.0000    0.0000 H   0  0  0  0  0  0  0  0  0  0  0  0
    0.0000    0.0000    0.0000 O   0  0  0  0  0  0  0  0  0  0  0  0
    0.0000    0.0000    0.0000 C   0  0  2  0  0  0  0  0  0  0  0  0
    0.0000    0.0000    0.0000 H   0  0  0  0  0  0  0  0  0  0  0  0
    0.0000    0.0000    0.0000 O   0  0  0  0  0  0  0  0  0  0  0  0
    0.0000    0.0000    0.0000 C   0  0  1  0  0  0  0  0  0  0  0  0
    0.0000    0.0000    0.0000 H   0  0  0  0  0  0  0  0  0  0  0  0
    0.0000    0.0000    0.0000 C   0  0  0  0  0  0  0  0  0  0  0  0
    0.0000    0.0000    0.0000 C   0  0  2  0  0  0  0  0  0  0  0  0
    0.0000    0.0000    0.0000 H   0  0  0  0  0  0  0  0  0  0  0  0
    0.0000    0.0000    0.0000 N   0  0  0  0  0  0  0  0  0  0  0  0
    0.0000    0.0000    0.0000 C   0  0  0  0  0  0  0  0  0  0  0  0
    0.0000    0.0000    0.0000 C   0  0  0  0  0  0  0  0  0  0  0  0
    0.0000    0.0000    0.0000 C   0  0  1  0  0  0  0  0  0  0  0  0
    0.0000    0.0000    0.0000 H   0  0  0  0  0  0  0  0  0  0  0  0
    0.0000    0.0000    0.0000 O   0  0  0  0  0  0  0  0  0  0  0  0
    0.0000    0.0000    0.0000 C   0  0  0  0  0  0  0  0  0  0  0  0
    0.0000    0.0000    0.0000 O   0  0  0  0  0  0  0  0  0  0  0  0
    0.0000    0.0000    0.0000 C   0  0  0  0  0  0  0  0  0  0  0  0
    0.0000    0.0000    0.0000 C   0  0  0  0  0  0  0  0  0  0  0  0
    0.0000    0.0000    0.0000 C   0  0  1  0  0  0  0  0  0  0  0  0
    0.0000    0.0000    0.0000 H   0  0  0  0  0  0  0  0  0  0  0  0
    0.0000    0.0000    0.0000 C   0  0  0  0  0  0  0  0  0  0  0  0
    0.0000    0.0000    0.0000 C   0  0  2  0  0  0  0  0  0  0  0  0
    0.0000    0.0000    0.0000 H   0  0  0  0  0  0  0  0  0  0  0  0
    0.0000    0.0000    0.0000 O   0  0  0  0  0  0  0  0  0  0  0  0
    0.0000    0.0000    0.0000 C   0  0  2  0  0  0  0  0  0  0  0  0
    0.0000    0.0000    0.0000 H   0  0  0  0  0  0  0  0  0  0  0  0
    0.0000    0.0000    0.0000 O   0  0  0  0  0  0  0  0  0  0  0  0
    0.0000    0.0000    0.0000 C   0  0  1  0  0  0  0  0  0  0  0  0
    0.0000    0.0000    0.0000 H   0  0  0  0  0  0  0  0  0  0  0  0
    0.0000    0.0000    0.0000 C   0  0  0  0  0  0  0  0  0  0  0  0
    0.0000    0.0000    0.0000 C   0  0  2  0  0  0  0  0  0  0  0  0
    0.0000    0.0000    0.0000 H   0  0  0  0  0  0  0  0  0  0  0  0
    0.0000    0.0000    0.0000 O   0  0  0  0  0  0  0  0  0  0  0  0
    0.0000    0.0000    0.0000 C   0  0  0  0  0  0  0  0  0  0  0  0
    0.0000    0.0000    0.0000 O   0  0  0  0  0  0  0  0  0  0  0  0
    0.0000    0.0000    0.0000 C   0  0  0  0  0  0  0  0  0  0  0  0
    0.0000    0.0000    0.0000 C   0  0  1  0  0  0  0  0  0  0  0  0
    0.0000    0.0000    0.0000 H   0  0  0  0  0  0  0  0  0  0  0  0
    0.0000    0.0000    0.0000 O   0  0  0  0  0  0  0  0  0  0  0  0
    0.0000    0.0000    0.0000 C   0  0  0  0  0  0  0  0  0  0  0  0
    0.0000    0.0000    0.0000 C   0  0  0  0  0  0  0  0  0  0  0  0
    0.0000    0.0000    0.0000 C   0  0  2  0  0  0  0  0  0  0  0  0
    0.0000    0.0000    0.0000 H   0  0  0  0  0  0  0  0  0  0  0  0
    0.0000    0.0000    0.0000 C   0  0  0  0  0  0  0  0  0  0  0  0
    0.0000    0.0000    0.0000 C   0  0  0  0  0  0  0  0  0  0  0  0
    0.0000    0.0000    0.0000 O   0  0  0  0  0  0  0  0  0  0  0  0
  1 73  1  0  0  0  0
  1  2  1  0  0  0  0
  2  3  1  0  0  0  0
  2  4  1  0  0  0  0
  2  5  1  0  0  0  0
  5  6  1  0  0  0  0
  5  7  1  0  0  0  0
  5  8  1  0  0  0  0
  8  9  1  0  0  0  0
  8 10  1  0  0  0  0
  8 14  1  0  0  0  0
 10 11  1  0  0  0  0
 11 12  2  0  0  0  0
 11 13  1  0  0  0  0
 14 15  1  0  0  0  0
 14 16  1  0  0  0  0
 14 17  1  0  0  0  0
 17 18  2  0  0  0  0
 17 19  1  0  0  0  0
 19 21  1  0  0  0  0
 19 20  1  0  0  0  0
 19 22  1  0  0  0  0
 20 21  1  0  0  0  0
 22 23  1  0  0  0  0
 23 24  1  0  0  0  0
 23 25  1  0  0  0  0
 23 26  1  0  0  0  0
 26 27  1  0  0  0  0
 26 28  1  0  0  0  0
 26 47  1  0  0  0  0
 28 29  1  0  0  0  0
 29 30  1  0  0  0  0
 29 40  1  0  0  0  0
 29 31  1  0  0  0  0
 31 32  1  0  0  0  0
 32 33  1  0  0  0  0
 32 34  1  0  0  0  0
 32 46  1  0  0  0  0
 34 35  1  0  0  0  0
 35 36  1  0  0  0  0
 35 37  1  0  0  0  0
 35 40  1  0  0  0  0
 37 38  1  0  0  0  0
 37 39  1  0  0  0  0
 40 41  1  0  0  0  0
 40 42  1  0  0  0  0
 42 43  1  0  0  0  0
 43 44  2  0  0  0  0
 43 45  1  0  0  0  0
 47 48  1  0  0  0  0
 47 49  1  0  0  0  0
 47 50  1  0  0  0  0
 50 51  1  0  0  0  0
 50 52  1  0  0  0  0
 50 70  1  0  0  0  0
 52 53  1  0  0  0  0
 53 54  1  0  0  0  0
 53 69  1  0  0  0  0
 53 55  1  0  0  0  0
 55 56  1  0  0  0  0
 56 57  1  0  0  0  0
 56 58  1  0  0  0  0
 56 59  1  0  0  0  0
 59 60  1  0  0  0  0
 59 61  1  0  0  0  0
 59 65  1  0  0  0  0
 61 62  1  0  0  0  0
 62 63  2  0  0  0  0
 62 64  1  0  0  0  0
 65 66  1  0  0  0  0
 65 67  1  0  0  0  0
 65 69  1  0  0  0  0
 67 68  1  0  0  0  0
 70 71  1  0  0  0  0
 70 72  1  0  0  0  0
 70 73  1  0  0  0  0
 73 74  2  0  0  0  0
M  END
> <Index>
1758

> <ID>
HT2137

> <class>
1

> <apol>
129.96513

> <ast_fraglike>
0

> <ast_fraglike_ext>
0

> <ast_violation>
3

> <ast_violation_ext>
5

> <a_acc>
12

> <a_acid>
0

> <a_aro>
0

> <a_base>
0

> <a_count>
124

> <a_don>
0

> <a_donacc>
12

> <a_heavy>
57

> <a_hyd>
34

> <a_IC>
177.62938

> <a_ICM>
1.432495

> <a_nB>
0

> <a_nBr>
0

> <a_nC>
41

> <a_nCl>
0

> <a_nF>
0

> <a_nH>
67

> <a_nI>
0

> <a_nN>
1

> <a_nO>
15

> <a_nP>
0

> <a_nS>
0

> <balabanJ>
1.8001374

> <BCUT_PEOE_0>
-2.8084669

> <BCUT_PEOE_1>
-0.18901595

> <BCUT_PEOE_2>
0.059330042

> <BCUT_PEOE_3>
2.8629346

> <BCUT_SLOGP_0>
-2.8977084

> <BCUT_SLOGP_1>
-0.067434564

> <BCUT_SLOGP_2>
0.123

> <BCUT_SLOGP_3>
2.8001554

> <BCUT_SMR_0>
-2.5814817

> <BCUT_SMR_1>
0.055066735

> <BCUT_SMR_2>
0.13506633

> <BCUT_SMR_3>
3.0809755

> <bpol>
99.174866

> <b_1rotN>
9

> <b_1rotR>
0.15000001

> <b_ar>
0

> <b_count>
127

> <b_double>
5

> <b_heavy>
60

> <b_max1len>
4

> <b_rotN>
12

> <b_rotR>
0.2

> <b_single>
122

> <b_triple>
0

> <chi0>
42.678551

> <chi0v>
36.214321

> <chi0v_C>
29.643381

> <chi0_C>
30.030132

> <chi1>
26.596876

> <chi1v>
20.316088

> <chi1v_C>
13.361167

> <chi1_C>
13.72121

> <chiral>
18

> <chiral_u>
0

> <density>
0.74655128

> <diameter>
17

> <FCharge>
0

> <GCUT_PEOE_0>
-0.8562457

> <GCUT_PEOE_1>
-0.33308208

> <GCUT_PEOE_2>
-0.10763723

> <GCUT_PEOE_3>
3.5246325

> <GCUT_SLOGP_0>
-0.96093965

> <GCUT_SLOGP_1>
-0.28851256

> <GCUT_SLOGP_2>
-0.037

> <GCUT_SLOGP_3>
3.5007305

> <GCUT_SMR_0>
-0.53645128

> <GCUT_SMR_1>
-0.12017988

> <GCUT_SMR_2>
-0.054299999

> <GCUT_SMR_3>
3.7260458

> <Kier1>
49.653332

> <Kier2>
21.386189

> <Kier3>
12.135553

> <KierA1>
45.791355

> <KierA2>
19.693552

> <KierA3>
11.163468

> <KierFlex>
15.820954

> <lip_acc>
16

> <lip_don>
0

> <lip_druglike>
0

> <lip_violation>
2

> <logP(o/w)>
4.2374802

> <logS>
-5.6521401

> <mr>
20.718853

> <mutagenic>
1

> <nmol>
1

> <opr_brigid>
29

> <opr_leadlike>
0

> <opr_nring>
3

> <opr_nrot>
26

> <opr_violation>
3

> <PC+>
0

> <PC->
0

> <PEOE_PC+>
5.4612451

> <PEOE_PC->
-5.4612451

> <PEOE_RPC+>
0.049029768

> <PEOE_RPC->
0.069019929

> <PEOE_VSA+0>
310.62265

> <PEOE_VSA+1>
117.53197

> <PEOE_VSA+2>
9.8098574

> <PEOE_VSA+3>
30.768337

> <PEOE_VSA+4>
0.0

> <PEOE_VSA+5>
58.833996

> <PEOE_VSA+6>
0.0

> <PEOE_VSA-0>
120.12304

> <PEOE_VSA-1>
93.738388

> <PEOE_VSA-2>
0.0

> <PEOE_VSA-3>
0.0

> <PEOE_VSA-4>
0.0

> <PEOE_VSA-5>
67.834602

> <PEOE_VSA-6>
25.037561

> <PEOE_VSA_FHYD>
0.81816363

> <PEOE_VSA_FNEG>
0.36765364

> <PEOE_VSA_FPNEG>
0.11131742

> <PEOE_VSA_FPOL>
0.18183638

> <PEOE_VSA_FPOS>
0.63234633

> <PEOE_VSA_FPPOS>
0.070518963

> <PEOE_VSA_HYD>
682.59424

> <PEOE_VSA_NEG>
306.73358

> <PEOE_VSA_PNEG>
92.872162

> <PEOE_VSA_POL>
151.70616

> <PEOE_VSA_POS>
527.56683

> <PEOE_VSA_PPOS>
58.833996

> <petitjean>
0.47058824

> <petitjeanSC>
0.8888889

> <Q_PC+>
0

> <Q_PC->
0

> <Q_RPC+>
0

> <Q_RPC->
0

> <Q_VSA_FHYD>
1

> <Q_VSA_FNEG>
0

> <Q_VSA_FPNEG>
0

> <Q_VSA_FPOL>
0

> <Q_VSA_FPOS>
1

> <Q_VSA_FPPOS>
0

> <Q_VSA_HYD>
834.30042

> <Q_VSA_NEG>
0

> <Q_VSA_PNEG>
0

> <Q_VSA_POL>
0

> <Q_VSA_POS>
834.30042

> <Q_VSA_PPOS>
0

> <radius>
9

> <reactive>
1

> <rings>
4

> <RPC+>
0

> <RPC->
0

> <rsynth>
0.80701756

> <SlogP>
3.6208999

> <SlogP_VSA0>
0.0

> <SlogP_VSA1>
39.793781

> <SlogP_VSA2>
308.56277

> <SlogP_VSA3>
20.926258

> <SlogP_VSA4>
22.05398

> <SlogP_VSA5>
101.17825

> <SlogP_VSA6>
0.0

> <SlogP_VSA7>
0.0

> <SlogP_VSA8>
56.605217

> <SlogP_VSA9>
366.58615

> <SMR>
20.2265

> <SMR_VSA0>
229.30997

> <SMR_VSA1>
3.1243138

> <SMR_VSA2>
22.05398

> <SMR_VSA3>
79.252815

> <SMR_VSA4>
0.0

> <SMR_VSA5>
56.605217

> <SMR_VSA6>
57.595726

> <SMR_VSA7>
467.7644

> <TPSA>
184.19

> <VAdjEq>
0.22805569

> <VAdjMa>
6.9068904

> <VDistEq>
3.8759975

> <VDistMa>
11.45348

> <vdw_area>
834.30042

> <vdw_vol>
1090.319

> <vsa_acc>
82.85714

> <vsa_acid>
0

> <vsa_base>
0

> <vsa_don>
0.0

> <vsa_hyd>
590.30316

> <vsa_other>
106.72454

> <vsa_pol>
82.85714

> <Weight>
813.979

> <weinerPath>
12271

> <weinerPol>
103

> <zagreb>
298

$$$$
Row1758
 OpenBabel06061811532D

 34 37  0  0  0  0  0  0  0  0999 V2000
    0.0000    0.0000    0.0000 Cl  0  0  0  0  0  0  0  0  0  0  0  0
    0.0000    0.0000    0.0000 C   0  0  0  0  0  0  0  0  0  0  0  0
    0.0000    0.0000    0.0000 C   0  0  0  0  0  0  0  0  0  0  0  0
    0.0000    0.0000    0.0000 C   0  0  0  0  0  0  0  0  0  0  0  0
    0.0000    0.0000    0.0000 C   0  0  0  0  0  0  0  0  0  0  0  0
    0.0000    0.0000    0.0000 C   0  0  0  0  0  0  0  0  0  0  0  0
    0.0000    0.0000    0.0000 C   0  0  0  0  0  0  0  0  0  0  0  0
    0.0000    0.0000    0.0000 C   0  0  0  0  0  0  0  0  0  0  0  0
    0.0000    0.0000    0.0000 C   0  0  0  0  0  0  0  0  0  0  0  0
    0.0000    0.0000    0.0000 C   0  0  0  0  0  0  0  0  0  0  0  0
    0.0000    0.0000    0.0000 C   0  0  0  0  0  0  0  0  0  0  0  0
    0.0000    0.0000    0.0000 N   0  0  0  0  0  0  0  0  0  0  0  0
    0.0000    0.0000    0.0000 H   0  0  0  0  0  0  0  0  0  0  0  0
    0.0000    0.0000    0.0000 C   0  0  0  0  0  0  0  0  0  0  0  0
    0.0000    0.0000    0.0000 C   0  0  0  0  0  0  0  0  0  0  0  0
    0.0000    0.0000    0.0000 C   0  0  0  0  0  0  0  0  0  0  0  0
    0.0000    0.0000    0.0000 O   0  0  0  0  0  0  0  0  0  0  0  0
    0.0000    0.0000    0.0000 C   0  0  0  0  0  0  0  0  0  0  0  0
    0.0000    0.0000    0.0000 C   0  0  0  0  0  0  0  0  0  0  0  0
    0.0000    0.0000    0.0000 F   0  0  0  0  0  0  0  0  0  0  0  0
    0.0000    0.0000    0.0000 C   0  0  0  0  0  0  0  0  0  0  0  0
    0.0000    0.0000    0.0000 N   0  0  0  0  0  0  0  0  0  0  0  0
    0.0000    0.0000    0.0000 S   0  0  0  0  0  0  0  0  0  0  0  0
    0.0000    0.0000    0.0000 O   0  0  0  0  0  0  0  0  0  0  0  0
    0.0000    0.0000    0.0000 O   0  0  0  0  0  0  0  0  0  0  0  0
    0.0000    0.0000    0.0000 C   0  0  0  0  0  0  0  0  0  0  0  0
    0.0000    0.0000    0.0000 C   0  0  0  0  0  0  0  0  0  0  0  0
    0.0000    0.0000    0.0000 C   0  0  0  0  0  0  0  0  0  0  0  0
    0.0000    0.0000    0.0000 C   0  0  0  0  0  0  0  0  0  0  0  0
    0.0000    0.0000    0.0000 C   0  0  0  0  0  0  0  0  0  0  0  0
    0.0000    0.0000    0.0000 C   0  0  0  0  0  0  0  0  0  0  0  0
    0.0000    0.0000    0.0000 F   0  0  0  0  0  0  0  0  0  0  0  0
    0.0000    0.0000    0.0000 N   0  0  0  0  0  0  0  0  0  0  0  0
    0.0000    0.0000    0.0000 C   0  0  0  0  0  0  0  0  0  0  0  0
  1  2  1  0  0  0  0
  2  7  1  0  0  0  0
  2  3  2  0  0  0  0
  3  4  1  0  0  0  0
  4  5  2  0  0  0  0
  5  6  1  0  0  0  0
  5  8  1  0  0  0  0
  6  7  2  0  0  0  0
  8 34  1  0  0  0  0
  8  9  2  0  0  0  0
  9 10  1  0  0  0  0
 10 15  1  0  0  0  0
 10 11  2  0  0  0  0
 11 12  1  0  0  0  0
 11 33  1  0  0  0  0
 12 13  1  0  0  0  0
 12 14  1  0  0  0  0
 14 15  2  0  0  0  0
 15 16  1  0  0  0  0
 16 17  2  0  0  0  0
 16 18  1  0  0  0  0
 18 31  1  0  0  0  0
 18 19  2  0  0  0  0
 19 20  1  0  0  0  0
 19 21  1  0  0  0  0
 21 22  1  0  0  0  0
 21 29  2  0  0  0  0
 22 23  1  0  0  0  0
 23 24  2  0  0  0  0
 23 25  2  0  0  0  0
 23 26  1  0  0  0  0
 26 27  1  0  0  0  0
 27 28  1  0  0  0  0
 29 30  1  0  0  0  0
 30 31  2  0  0  0  0
 31 32  1  0  0  0  0
 33 34  2  0  0  0  0
M  END
> <Index>
1759

> <ID>
HT2171

> <class>
1

> <apol>
64.382271

> <ast_fraglike>
0

> <ast_fraglike_ext>
0

> <ast_violation>
3

> <ast_violation_ext>
5

> <a_acc>
5

> <a_acid>
0

> <a_aro>
21

> <a_base>
0

> <a_count>
51

> <a_don>
3

> <a_donacc>
8

> <a_heavy>
33

> <a_hyd>
24

> <a_IC>
98.683342

> <a_ICM>
1.9349675

> <a_nB>
0

> <a_nBr>
0

> <a_nC>
23

> <a_nCl>
1

> <a_nF>
2

> <a_nH>
18

> <a_nI>
0

> <a_nN>
3

> <a_nO>
3

> <a_nP>
0

> <a_nS>
1

> <balabanJ>
1.4191475

> <BCUT_PEOE_0>
-2.5394218

> <BCUT_PEOE_1>
-0.63489103

> <BCUT_PEOE_2>
0.70230037

> <BCUT_PEOE_3>
2.6132252

> <BCUT_SLOGP_0>
-2.6239653

> <BCUT_SLOGP_1>
-0.52627516

> <BCUT_SLOGP_2>
0.81275111

> <BCUT_SLOGP_3>
2.5823781

> <BCUT_SMR_0>
-2.285692

> <BCUT_SMR_1>
-0.45919597

> <BCUT_SMR_2>
0.89440215

> <BCUT_SMR_3>
2.9062986

> <bpol>
32.577724

> <b_1rotN>
7

> <b_1rotR>
0.19444445

> <b_ar>
22

> <b_count>
54

> <b_double>
1

> <b_heavy>
36

> <b_max1len>
6

> <b_rotN>
7

> <b_rotR>
0.19444445

> <b_single>
31

> <b_triple>
0

> <chi0>
23.750347

> <chi0v>
18.896893

> <chi0v_C>
13.110366

> <chi0_C>
15.129027

> <chi1>
15.697509

> <chi1v>
11.991772

> <chi1v_C>
7.0938582

> <chi1_C>
9.4562559

> <chiral>
0

> <chiral_u>
0

> <density>
0.8577736

> <diameter>
17

> <FCharge>
0

> <GCUT_PEOE_0>
-0.84085405

> <GCUT_PEOE_1>
-0.40525013

> <GCUT_PEOE_2>
0.072586171

> <GCUT_PEOE_3>
2.6138716

> <GCUT_SLOGP_0>
-0.94667596

> <GCUT_SLOGP_1>
-0.34453383

> <GCUT_SLOGP_2>
0.22232024

> <GCUT_SLOGP_3>
2.7128229

> <GCUT_SMR_0>
-0.51912552

> <GCUT_SMR_1>
-0.19483569

> <GCUT_SMR_2>
0.26970616

> <GCUT_SMR_3>
2.9199429

> <Kier1>
26.074074

> <Kier2>
10.947668

> <Kier3>
5.8775511

> <KierA1>
20.600618

> <KierA2>
8.5820198

> <KierA3>
4.5812631

> <KierFlex>
5.3574214

> <lip_acc>
6

> <lip_don>
2

> <lip_druglike>
1

> <lip_violation>
1

> <logP(o/w)>
5.7049999

> <logS>
-8.3166599

> <mr>
12.505892

> <mutagenic>
0

> <nmol>
1

> <opr_brigid>
22

> <opr_leadlike>
0

> <opr_nring>
4

> <opr_nrot>
6

> <opr_violation>
2

> <PC+>
0

> <PC->
0

> <PEOE_PC+>
2.3911738

> <PEOE_PC->
-2.3911738

> <PEOE_RPC+>
0.083934329

> <PEOE_RPC->
0.14433801

> <PEOE_VSA+0>
91.470596

> <PEOE_VSA+1>
49.216026

> <PEOE_VSA+2>
37.763027

> <PEOE_VSA+3>
19.296389

> <PEOE_VSA+4>
8.458519

> <PEOE_VSA+5>
0.0

> <PEOE_VSA+6>
0.0

> <PEOE_VSA-0>
51.228157

> <PEOE_VSA-1>
85.094337

> <PEOE_VSA-2>
0.0

> <PEOE_VSA-3>
2.5295215

> <PEOE_VSA-4>
61.516369

> <PEOE_VSA-5>
13.566921

> <PEOE_VSA-6>
0.13689101

> <PEOE_VSA_FHYD>
0.80089617

> <PEOE_VSA_FNEG>
0.50936007

> <PEOE_VSA_FPNEG>
0.17897774

> <PEOE_VSA_FPOL>
0.1991038

> <PEOE_VSA_FPOS>
0.49063993

> <PEOE_VSA_FPPOS>
0.020126071

> <PEOE_VSA_HYD>
336.59805

> <PEOE_VSA_NEG>
214.07219

> <PEOE_VSA_PNEG>
75.220184

> <PEOE_VSA_POL>
83.678703

> <PEOE_VSA_POS>
206.20456

> <PEOE_VSA_PPOS>
8.458519

> <petitjean>
0.47058824

> <petitjeanSC>
0.8888889

> <Q_PC+>
0

> <Q_PC->
0

> <Q_RPC+>
0

> <Q_RPC->
0

> <Q_VSA_FHYD>
1

> <Q_VSA_FNEG>
0

> <Q_VSA_FPNEG>
0

> <Q_VSA_FPOL>
0

> <Q_VSA_FPOS>
1

> <Q_VSA_FPPOS>
0

> <Q_VSA_HYD>
420.27676

> <Q_VSA_NEG>
0

> <Q_VSA_PNEG>
0

> <Q_VSA_POL>
0

> <Q_VSA_POS>
420.27676

> <Q_VSA_PPOS>
0

> <radius>
9

> <reactive>
1

> <rings>
4

> <RPC+>
0

> <RPC->
0

> <rsynth>
1.0

> <SlogP>
5.5441999

> <SlogP_VSA0>
0.0

> <SlogP_VSA1>
87.049828

> <SlogP_VSA2>
41.668308

> <SlogP_VSA3>
17.233564

> <SlogP_VSA4>
30.233366

> <SlogP_VSA5>
0.0

> <SlogP_VSA6>
3.5006065

> <SlogP_VSA7>
168.59042

> <SlogP_VSA8>
18.868406

> <SlogP_VSA9>
105.15163

> <SMR>
12.40307

> <SMR_VSA0>
72.033905

> <SMR_VSA1>
46.705757

> <SMR_VSA2>
35.027565

> <SMR_VSA3>
9.8717566

> <SMR_VSA4>
29.821169

> <SMR_VSA5>
176.79941

> <SMR_VSA6>
22.921175

> <SMR_VSA7>
79.115402

> <TPSA>
91.919998

> <VAdjEq>
0.3512581

> <VAdjMa>
6.1699252

> <VDistEq>
3.737035

> <VDistMa>
9.7987051

> <vdw_area>
420.27676

> <vdw_vol>
571.16473

> <vsa_acc>
45.583443

> <vsa_acid>
0

> <vsa_base>
0

> <vsa_don>
8.0752068

> <vsa_hyd>
307.96289

> <vsa_other>
29.75469

> <vsa_pol>
65.023804

> <Weight>
489.92999

> <weinerPath>
3262

> <weinerPol>
56

> <zagreb>
178

$$$$
Row1759
 OpenBabel06061811532D

  9  8  0  0  1  0  0  0  0  0999 V2000
    0.0000    0.0000    0.0000 O   0  0  0  0  0  0  0  0  0  0  0  0
    0.0000    0.0000    0.0000 C   0  0  0  0  0  0  0  0  0  0  0  0
    0.0000    0.0000    0.0000 O   0  0  0  0  0  0  0  0  0  0  0  0
    0.0000    0.0000    0.0000 C   0  0  0  0  0  0  0  0  0  0  0  0
    0.0000    0.0000    0.0000 C   0  0  0  0  0  0  0  0  0  0  0  0
    0.0000    0.0000    0.0000 C   0  0  3  0  0  0  0  0  0  0  0  0
    0.0000    0.0000    0.0000 N   0  0  0  0  0  0  0  0  0  0  0  0
    0.0000    0.0000    0.0000 C   0  0  0  0  0  0  0  0  0  0  0  0
    0.0000    0.0000    0.0000 C   0  0  0  0  0  0  0  0  0  0  0  0
  1  2  1  0  0  0  0
  2  3  2  0  0  0  0
  2  4  1  0  0  0  0
  4  5  1  0  0  0  0
  5  6  1  0  0  0  0
  6  7  1  0  0  0  0
  6  8  1  0  0  0  0
  8  9  2  0  0  0  0
M  END
> <Index>
1760

> <ID>
HT2177

> <class>
1

> <apol>
20.598722

> <ast_fraglike>
1

> <ast_fraglike_ext>
0

> <ast_violation>
0

> <ast_violation_ext>
1

> <a_acc>
3

> <a_acid>
0

> <a_aro>
0

> <a_base>
0

> <a_count>
20

> <a_don>
3

> <a_donacc>
6

> <a_heavy>
9

> <a_hyd>
5

> <a_IC>
30.875038

> <a_ICM>
1.543752

> <a_nB>
0

> <a_nBr>
0

> <a_nC>
6

> <a_nCl>
0

> <a_nF>
0

> <a_nH>
11

> <a_nI>
0

> <a_nN>
1

> <a_nO>
2

> <a_nP>
0

> <a_nS>
0

> <balabanJ>
3.087137

> <BCUT_PEOE_0>
-2.5618594

> <BCUT_PEOE_1>
-0.5050925

> <BCUT_PEOE_2>
0.52207851

> <BCUT_PEOE_3>
2.5471184

> <BCUT_SLOGP_0>
-2.6926701

> <BCUT_SLOGP_1>
-0.4643603

> <BCUT_SLOGP_2>
0.53583217

> <BCUT_SLOGP_3>
2.5581999

> <BCUT_SMR_0>
-2.3085477

> <BCUT_SMR_1>
-0.35332164

> <BCUT_SMR_2>
0.63604158

> <BCUT_SMR_3>
2.7921886

> <bpol>
12.323277

> <b_1rotN>
4

> <b_1rotR>
0.5

> <b_ar>
0

> <b_count>
19

> <b_double>
2

> <b_heavy>
8

> <b_max1len>
5

> <b_rotN>
4

> <b_rotR>
0.5

> <b_single>
17

> <b_triple>
0

> <chi0>
7.276021

> <chi0v>
5.2088332

> <chi0v_C>
3.7760208

> <chi0_C>
4.276021

> <chi1>
4.1639023

> <chi1v>
2.7644477

> <chi1v_C>
2.0033834

> <chi1_C>
2.4318516

> <chiral>
1

> <chiral_u>
1

> <density>
0.72179323

> <diameter>
6

> <FCharge>
0

> <GCUT_PEOE_0>
-0.83288229

> <GCUT_PEOE_1>
-0.41896501

> <GCUT_PEOE_2>
0.079979189

> <GCUT_PEOE_3>
2.1415274

> <GCUT_SLOGP_0>
-1.3635085

> <GCUT_SLOGP_1>
-0.32089534

> <GCUT_SLOGP_2>
0.09917669

> <GCUT_SLOGP_3>
2.1535516

> <GCUT_SMR_0>
-0.51425904

> <GCUT_SMR_1>
-0.22066791

> <GCUT_SMR_2>
0.18635921

> <GCUT_SMR_3>
2.372787

> <Kier1>
9.0

> <Kier2>
4.8395061

> <Kier3>
5.8775511

> <KierA1>
7.2997561

> <KierA2>
3.809427

> <KierA3>
4.4933958

> <KierFlex>
3.0897653

> <lip_acc>
3

> <lip_don>
3

> <lip_druglike>
1

> <lip_violation>
0

> <logP(o/w)>
0.192

> <logS>
0.14234

> <mr>
3.516854

> <mutagenic>
0

> <nmol>
1

> <opr_brigid>
1

> <opr_leadlike>
1

> <opr_nring>
0

> <opr_nrot>
4

> <opr_violation>
0

> <PC+>
0

> <PC->
0

> <PEOE_PC+>
1.1213527

> <PEOE_PC->
-1.1213527

> <PEOE_RPC+>
0.23154943

> <PEOE_RPC->
0.29541716

> <PEOE_VSA+0>
28.908817

> <PEOE_VSA+1>
17.061544

> <PEOE_VSA+2>
17.238026

> <PEOE_VSA+3>
0.0

> <PEOE_VSA+4>
10.324173

> <PEOE_VSA+5>
14.708499

> <PEOE_VSA+6>
0.0

> <PEOE_VSA-0>
8.701313

> <PEOE_VSA-1>
12.254904

> <PEOE_VSA-2>
22.301268

> <PEOE_VSA-3>
0.0

> <PEOE_VSA-4>
0.0

> <PEOE_VSA-5>
13.566921

> <PEOE_VSA-6>
14.418659

> <PEOE_VSA_FHYD>
0.66756409

> <PEOE_VSA_FNEG>
0.44670945

> <PEOE_VSA_FPNEG>
0.17547564

> <PEOE_VSA_FPOL>
0.33243594

> <PEOE_VSA_FPOS>
0.55329055

> <PEOE_VSA_FPPOS>
0.15696028

> <PEOE_VSA_HYD>
106.46587

> <PEOE_VSA_NEG>
71.243065

> <PEOE_VSA_PNEG>
27.98558

> <PEOE_VSA_POL>
53.018253

> <PEOE_VSA_POS>
88.241058

> <PEOE_VSA_PPOS>
25.032671

> <petitjean>
0.5

> <petitjeanSC>
1.0

> <Q_PC+>
0

> <Q_PC->
0

> <Q_RPC+>
0

> <Q_RPC->
0

> <Q_VSA_FHYD>
1

> <Q_VSA_FNEG>
0

> <Q_VSA_FPNEG>
0

> <Q_VSA_FPOL>
0

> <Q_VSA_FPOS>
1

> <Q_VSA_FPPOS>
0

> <Q_VSA_HYD>
159.48413

> <Q_VSA_NEG>
0

> <Q_VSA_PNEG>
0

> <Q_VSA_POL>
0

> <Q_VSA_POS>
159.48413

> <Q_VSA_PPOS>
0

> <radius>
3

> <reactive>
0

> <rings>
0

> <RPC+>
0

> <RPC->
0

> <rsynth>
0.0

> <SlogP>
0.36449999

> <SlogP_VSA0>
32.897186

> <SlogP_VSA1>
7.7454643

> <SlogP_VSA2>
27.844185

> <SlogP_VSA3>
25.385227

> <SlogP_VSA4>
0.0

> <SlogP_VSA5>
0.0

> <SlogP_VSA6>
0.0

> <SlogP_VSA7>
17.643185

> <SlogP_VSA8>
37.736813

> <SlogP_VSA9>
32.100792

> <SMR>
3.50422

> <SMR_VSA0>
23.862217

> <SMR_VSA1>
0.0

> <SMR_VSA2>
25.385227

> <SMR_VSA3>
3.9819686

> <SMR_VSA4>
32.897186

> <SMR_VSA5>
55.379993

> <SMR_VSA6>
7.7454643

> <SMR_VSA7>
32.100792

> <TPSA>
63.32

> <VAdjEq>
0.71696228

> <VAdjMa>
4.0

> <VDistEq>
2.4643669

> <VDistMa>
5.9662862

> <vdw_area>
159.48413

> <vdw_vol>
178.94182

> <vsa_acc>
0.0

> <vsa_acid>
0

> <vsa_base>
0

> <vsa_don>
0.0

> <vsa_hyd>
83.533485

> <vsa_other>
14.708499

> <vsa_pol>
44.876331

> <Weight>
129.159

> <weinerPath>
104

> <weinerPol>
7

> <zagreb>
34

$$$$
Row1760
 OpenBabel06061811532D

 27 29  0  0  0  0  0  0  0  0999 V2000
    0.0000    0.0000    0.0000 Cl  0  0  0  0  0  0  0  0  0  0  0  0
    0.0000    0.0000    0.0000 C   0  0  0  0  0  0  0  0  0  0  0  0
    0.0000    0.0000    0.0000 C   0  0  0  0  0  0  0  0  0  0  0  0
    0.0000    0.0000    0.0000 C   0  0  0  0  0  0  0  0  0  0  0  0
    0.0000    0.0000    0.0000 C   0  0  0  0  0  0  0  0  0  0  0  0
    0.0000    0.0000    0.0000 N   0  0  0  0  0  0  0  0  0  0  0  0
    0.0000    0.0000    0.0000 C   0  0  0  0  0  0  0  0  0  0  0  0
    0.0000    0.0000    0.0000 O   0  0  0  0  0  0  0  0  0  0  0  0
    0.0000    0.0000    0.0000 C   0  0  0  0  0  0  0  0  0  0  0  0
    0.0000    0.0000    0.0000 C   0  0  0  0  0  0  0  0  0  0  0  0
    0.0000    0.0000    0.0000 C   0  0  0  0  0  0  0  0  0  0  0  0
    0.0000    0.0000    0.0000 C   0  0  0  0  0  0  0  0  0  0  0  0
    0.0000    0.0000    0.0000 S   0  0  0  0  0  0  0  0  0  0  0  0
    0.0000    0.0000    0.0000 O   0  0  0  0  0  0  0  0  0  0  0  0
    0.0000    0.0000    0.0000 O   0  0  0  0  0  0  0  0  0  0  0  0
    0.0000    0.0000    0.0000 C   0  0  0  0  0  0  0  0  0  0  0  0
    0.0000    0.0000    0.0000 C   0  0  0  0  0  0  0  0  0  0  0  0
    0.0000    0.0000    0.0000 C   0  0  0  0  0  0  0  0  0  0  0  0
    0.0000    0.0000    0.0000 Cl  0  0  0  0  0  0  0  0  0  0  0  0
    0.0000    0.0000    0.0000 C   0  0  0  0  0  0  0  0  0  0  0  0
    0.0000    0.0000    0.0000 C   0  0  0  0  0  0  0  0  0  0  0  0
    0.0000    0.0000    0.0000 C   0  0  0  0  0  0  0  0  0  0  0  0
    0.0000    0.0000    0.0000 N   0  0  0  0  0  0  0  0  0  0  0  0
    0.0000    0.0000    0.0000 C   0  0  0  0  0  0  0  0  0  0  0  0
    0.0000    0.0000    0.0000 C   0  0  0  0  0  0  0  0  0  0  0  0
    0.0000    0.0000    0.0000 C   0  0  0  0  0  0  0  0  0  0  0  0
    0.0000    0.0000    0.0000 C   0  0  0  0  0  0  0  0  0  0  0  0
  1  2  1  0  0  0  0
  2 21  1  0  0  0  0
  2  3  2  0  0  0  0
  3  4  1  0  0  0  0
  4  5  2  0  0  0  0
  5  6  1  0  0  0  0
  5 20  1  0  0  0  0
  6  7  1  0  0  0  0
  7  8  2  0  0  0  0
  7  9  1  0  0  0  0
  9 18  1  0  0  0  0
  9 10  2  0  0  0  0
 10 11  1  0  0  0  0
 11 12  2  0  0  0  0
 12 13  1  0  0  0  0
 12 17  1  0  0  0  0
 13 14  2  0  0  0  0
 13 15  2  0  0  0  0
 13 16  1  0  0  0  0
 17 18  2  0  0  0  0
 18 19  1  0  0  0  0
 20 21  2  0  0  0  0
 21 22  1  0  0  0  0
 22 27  1  0  0  0  0
 22 23  2  0  0  0  0
 23 24  1  0  0  0  0
 24 25  2  0  0  0  0
 25 26  1  0  0  0  0
 26 27  2  0  0  0  0
M  END
> <Index>
1761

> <ID>
HT2187

> <class>
1

> <apol>
54.641102

> <ast_fraglike>
0

> <ast_fraglike_ext>
0

> <ast_violation>
3

> <ast_violation_ext>
4

> <a_acc>
4

> <a_acid>
0

> <a_aro>
18

> <a_base>
0

> <a_count>
41

> <a_don>
1

> <a_donacc>
5

> <a_heavy>
27

> <a_hyd>
20

> <a_IC>
76.891151

> <a_ICM>
1.875394

> <a_nB>
0

> <a_nBr>
0

> <a_nC>
19

> <a_nCl>
2

> <a_nF>
0

> <a_nH>
14

> <a_nI>
0

> <a_nN>
2

> <a_nO>
3

> <a_nP>
0

> <a_nS>
1

> <balabanJ>
1.5232581

> <BCUT_PEOE_0>
-2.4166961

> <BCUT_PEOE_1>
-0.62486434

> <BCUT_PEOE_2>
0.65961385

> <BCUT_PEOE_3>
2.429666

> <BCUT_SLOGP_0>
-2.4355919

> <BCUT_SLOGP_1>
-0.46417767

> <BCUT_SLOGP_2>
0.81854737

> <BCUT_SLOGP_3>
2.4375119

> <BCUT_SMR_0>
-2.0438585

> <BCUT_SMR_1>
-0.42459083

> <BCUT_SMR_2>
0.86952144

> <BCUT_SMR_3>
2.7901139

> <bpol>
25.558899

> <b_1rotN>
4

> <b_1rotR>
0.13793103

> <b_ar>
18

> <b_count>
43

> <b_double>
1

> <b_heavy>
29

> <b_max1len>
3

> <b_rotN>
5

> <b_rotR>
0.1724138

> <b_single>
24

> <b_triple>
0

> <chi0>
19.604084

> <chi0v>
16.437992

> <chi0v_C>
10.773502

> <chi0_C>
12.68987

> <chi1>
12.753038

> <chi1v>
10.421683

> <chi1v_C>
5.2647429

> <chi1_C>
7.5075679

> <chiral>
0

> <chiral_u>
0

> <density>
0.86497873

> <diameter>
14

> <FCharge>
0

> <GCUT_PEOE_0>
-0.88731474

> <GCUT_PEOE_1>
-0.45674476

> <GCUT_PEOE_2>
0.067613043

> <GCUT_PEOE_3>
2.4622164

> <GCUT_SLOGP_0>
-0.99304849

> <GCUT_SLOGP_1>
-0.32718614

> <GCUT_SLOGP_2>
0.19559692

> <GCUT_SLOGP_3>
2.5880425

> <GCUT_SMR_0>
-0.44516382

> <GCUT_SMR_1>
-0.18593046

> <GCUT_SMR_2>
0.28444615

> <GCUT_SMR_3>
2.7757103

> <Kier1>
21.702734

> <Kier2>
9.212018

> <Kier3>
5.5384617

> <KierA1>
18.336395

> <KierA2>
7.7299485

> <KierA3>
4.6237998

> <KierFlex>
5.2496071

> <lip_acc>
5

> <lip_don>
1

> <lip_druglike>
1

> <lip_violation>
0

> <logP(o/w)>
4.0

> <logS>
-6.1011801

> <mr>
10.831861

> <mutagenic>
0

> <nmol>
1

> <opr_brigid>
18

> <opr_leadlike>
1

> <opr_nring>
3

> <opr_nrot>
4

> <opr_violation>
1

> <PC+>
0

> <PC->
0

> <PEOE_PC+>
2.3595366

> <PEOE_PC->
-2.3595366

> <PEOE_RPC+>
0.10923281

> <PEOE_RPC->
0.20034818

> <PEOE_VSA+0>
37.908909

> <PEOE_VSA+1>
72.856346

> <PEOE_VSA+2>
12.796158

> <PEOE_VSA+3>
29.342752

> <PEOE_VSA+4>
0.0

> <PEOE_VSA+5>
17.134132

> <PEOE_VSA+6>
0.0

> <PEOE_VSA-0>
73.529427

> <PEOE_VSA-1>
71.4188

> <PEOE_VSA-2>
6.5127993

> <PEOE_VSA-3>
0.0

> <PEOE_VSA-4>
0.0

> <PEOE_VSA-5>
19.249496

> <PEOE_VSA-6>
32.153416

> <PEOE_VSA_FHYD>
0.8162064

> <PEOE_VSA_FNEG>
0.54401374

> <PEOE_VSA_FPNEG>
0.13784555

> <PEOE_VSA_FPOL>
0.1837936

> <PEOE_VSA_FPOS>
0.45598629

> <PEOE_VSA_FPPOS>
0.045948055

> <PEOE_VSA_HYD>
304.3652

> <PEOE_VSA_NEG>
202.86394

> <PEOE_VSA_PNEG>
51.402912

> <PEOE_VSA_POL>
68.537041

> <PEOE_VSA_POS>
170.0383

> <PEOE_VSA_PPOS>
17.134132

> <petitjean>
0.5

> <petitjeanSC>
1.0

> <Q_PC+>
0

> <Q_PC->
0

> <Q_RPC+>
0

> <Q_RPC->
0

> <Q_VSA_FHYD>
1

> <Q_VSA_FNEG>
0

> <Q_VSA_FPNEG>
0

> <Q_VSA_FPOL>
0

> <Q_VSA_FPOS>
1

> <Q_VSA_FPPOS>
0

> <Q_VSA_HYD>
372.90222

> <Q_VSA_NEG>
0

> <Q_VSA_PNEG>
0

> <Q_VSA_POL>
0

> <Q_VSA_POS>
372.90222

> <Q_VSA_PPOS>
0

> <radius>
7

> <reactive>
0

> <rings>
3

> <RPC+>
0

> <RPC->
0

> <rsynth>
1.0

> <SlogP>
4.7112002

> <SlogP_VSA0>
0.0

> <SlogP_VSA1>
88.226753

> <SlogP_VSA2>
6.8792672

> <SlogP_VSA3>
0.0

> <SlogP_VSA4>
27.047791

> <SlogP_VSA5>
33.241909

> <SlogP_VSA6>
7.0012131

> <SlogP_VSA7>
181.94534

> <SlogP_VSA8>
0.0

> <SlogP_VSA9>
81.054039

> <SMR>
10.7198

> <SMR_VSA0>
72.033905

> <SMR_VSA1>
16.78553

> <SMR_VSA2>
1.5507339

> <SMR_VSA3>
10.186788

> <SMR_VSA4>
26.70982

> <SMR_VSA5>
176.00302

> <SMR_VSA6>
5.2587838

> <SMR_VSA7>
116.86773

> <TPSA>
76.129997

> <VAdjEq>
0.40063059

> <VAdjMa>
5.8579812

> <VDistEq>
3.6063046

> <VDistMa>
9.1991529

> <vdw_area>
372.90222

> <vdw_vol>
487.0686

> <vsa_acc>
51.266022

> <vsa_acid>
0

> <vsa_base>
0

> <vsa_don>
5.6825762

> <vsa_hyd>
284.16464

> <vsa_other>
19.46233

> <vsa_pol>
56.948597

> <Weight>
421.30399

> <weinerPath>
1994

> <weinerPol>
43

> <zagreb>
142

$$$$
Row1761
 OpenBabel06061811532D

 22 22  0  0  1  0  0  0  0  0999 V2000
    0.0000    0.0000    0.0000 O   0  0  0  0  0  0  0  0  0  0  0  0
    0.0000    0.0000    0.0000 C   0  0  1  0  0  0  0  0  0  0  0  0
    0.0000    0.0000    0.0000 H   0  0  0  0  0  0  0  0  0  0  0  0
    0.0000    0.0000    0.0000 C   0  0  2  0  0  0  0  0  0  0  0  0
    0.0000    0.0000    0.0000 H   0  0  0  0  0  0  0  0  0  0  0  0
    0.0000    0.0000    0.0000 O   0  0  0  0  0  0  0  0  0  0  0  0
    0.0000    0.0000    0.0000 C   0  0  1  0  0  0  0  0  0  0  0  0
    0.0000    0.0000    0.0000 O   0  0  0  0  0  0  0  0  0  0  0  0
    0.0000    0.0000    0.0000 C   0  0  0  0  0  0  0  0  0  0  0  0
    0.0000    0.0000    0.0000 C   0  0  2  0  0  0  0  0  0  0  0  0
    0.0000    0.0000    0.0000 H   0  0  0  0  0  0  0  0  0  0  0  0
    0.0000    0.0000    0.0000 N   0  0  0  0  0  0  0  0  0  0  0  0
    0.0000    0.0000    0.0000 C   0  0  0  0  0  0  0  0  0  0  0  0
    0.0000    0.0000    0.0000 C   0  0  0  0  0  0  0  0  0  0  0  0
    0.0000    0.0000    0.0000 O   0  0  0  0  0  0  0  0  0  0  0  0
    0.0000    0.0000    0.0000 C   0  0  0  0  0  0  0  0  0  0  0  0
    0.0000    0.0000    0.0000 O   0  0  0  0  0  0  0  0  0  0  0  0
    0.0000    0.0000    0.0000 C   0  0  2  0  0  0  0  0  0  0  0  0
    0.0000    0.0000    0.0000 H   0  0  0  0  0  0  0  0  0  0  0  0
    0.0000    0.0000    0.0000 O   0  0  0  0  0  0  0  0  0  0  0  0
    0.0000    0.0000    0.0000 C   0  0  0  0  0  0  0  0  0  0  0  0
    0.0000    0.0000    0.0000 O   0  0  0  0  0  0  0  0  0  0  0  0
  1  2  1  0  0  0  0
  2  3  1  0  0  0  0
  2 18  1  0  0  0  0
  2  4  1  0  0  0  0
  4  5  1  0  0  0  0
  4  6  1  0  0  0  0
  4  7  1  0  0  0  0
  7  8  1  0  0  0  0
  7  9  1  0  0  0  0
  7 21  1  0  0  0  0
  9 10  1  0  0  0  0
 10 11  1  0  0  0  0
 10 12  1  0  0  0  0
 10 18  1  0  0  0  0
 12 13  1  0  0  0  0
 13 14  1  0  0  0  0
 13 16  1  0  0  0  0
 14 15  1  0  0  0  0
 16 17  1  0  0  0  0
 18 19  1  0  0  0  0
 18 20  1  0  0  0  0
 21 22  1  0  0  0  0
M  END
> <Index>
1762

> <ID>
HT2193

> <class>
1

> <apol>
38.316654

> <ast_fraglike>
0

> <ast_fraglike_ext>
0

> <ast_violation>
2

> <ast_violation_ext>
4

> <a_acc>
8

> <a_acid>
0

> <a_aro>
0

> <a_base>
0

> <a_count>
39

> <a_don>
8

> <a_donacc>
16

> <a_heavy>
18

> <a_hyd>
10

> <a_IC>
61.021255

> <a_ICM>
1.5646476

> <a_nB>
0

> <a_nBr>
0

> <a_nC>
10

> <a_nCl>
0

> <a_nF>
0

> <a_nH>
21

> <a_nI>
0

> <a_nN>
1

> <a_nO>
7

> <a_nP>
0

> <a_nS>
0

> <balabanJ>
2.7894979

> <BCUT_PEOE_0>
-2.8104711

> <BCUT_PEOE_1>
-0.72870874

> <BCUT_PEOE_2>
0.77427554

> <BCUT_PEOE_3>
2.8541865

> <BCUT_SLOGP_0>
-3.0029755

> <BCUT_SLOGP_1>
-0.8905524

> <BCUT_SLOGP_2>
0.57195103

> <BCUT_SLOGP_3>
2.6836848

> <BCUT_SMR_0>
-2.5919673

> <BCUT_SMR_1>
-0.60204828

> <BCUT_SMR_2>
0.86651021

> <BCUT_SMR_3>
3.0588553

> <bpol>
23.617348

> <b_1rotN>
5

> <b_1rotR>
0.27777779

> <b_ar>
0

> <b_count>
39

> <b_double>
0

> <b_heavy>
18

> <b_max1len>
6

> <b_rotN>
5

> <b_rotR>
0.27777779

> <b_single>
39

> <b_triple>
0

> <chi0>
13.922285

> <chi0v>
9.8456736

> <chi0v_C>
6.2151785

> <chi0_C>
6.2151785

> <chi1>
8.3903942

> <chi1v>
5.7447639

> <chi1v_C>
3.2205267

> <chi1_C>
3.2205267

> <chiral>
5

> <chiral_u>
0

> <density>
0.8346324

> <diameter>
8

> <FCharge>
0

> <GCUT_PEOE_0>
-0.8291285

> <GCUT_PEOE_1>
-0.448908

> <GCUT_PEOE_2>
0.21048808

> <GCUT_PEOE_3>
2.8118908

> <GCUT_SLOGP_0>
-1.1556233

> <GCUT_SLOGP_1>
-0.60163504

> <GCUT_SLOGP_2>
-0.0016977483

> <GCUT_SLOGP_3>
2.673573

> <GCUT_SMR_0>
-0.52739388

> <GCUT_SMR_1>
-0.29138646

> <GCUT_SMR_2>
0.2501142

> <GCUT_SMR_3>
3.0080843

> <Kier1>
16.055555

> <Kier2>
6.43787

> <Kier3>
3.3217993

> <KierA1>
16.055555

> <KierA2>
6.43787

> <KierA3>
3.3217993

> <KierFlex>
5.7424212

> <lip_acc>
8

> <lip_don>
8

> <lip_druglike>
1

> <lip_violation>
1

> <logP(o/w)>
-4.0770001

> <logS>
1.70969

> <mr>
5.950973

> <mutagenic>
0

> <nmol>
1

> <opr_brigid>
6

> <opr_leadlike>
0

> <opr_nring>
1

> <opr_nrot>
7

> <opr_violation>
2

> <PC+>
0

> <PC->
0

> <PEOE_PC+>
3.0280182

> <PEOE_PC->
-3.0280182

> <PEOE_RPC+>
0.069475658

> <PEOE_RPC->
0.12991838

> <PEOE_VSA+0>
15.942119

> <PEOE_VSA+1>
95.558632

> <PEOE_VSA+2>
18.428871

> <PEOE_VSA+3>
0.0

> <PEOE_VSA+4>
72.269211

> <PEOE_VSA+5>
0.0

> <PEOE_VSA+6>
0.0

> <PEOE_VSA-0>
8.701313

> <PEOE_VSA-1>
0.0

> <PEOE_VSA-2>
0.0

> <PEOE_VSA-3>
0.0

> <PEOE_VSA-4>
0.0

> <PEOE_VSA-5>
0.0

> <PEOE_VSA-6>
54.509674

> <PEOE_VSA_FHYD>
0.52232784

> <PEOE_VSA_FNEG>
0.23816371

> <PEOE_VSA_FPNEG>
0.20537926

> <PEOE_VSA_FPOL>
0.47767216

> <PEOE_VSA_FPOS>
0.76183629

> <PEOE_VSA_FPPOS>
0.27229291

> <PEOE_VSA_HYD>
138.63094

> <PEOE_VSA_NEG>
63.210987

> <PEOE_VSA_PNEG>
54.509674

> <PEOE_VSA_POL>
126.77888

> <PEOE_VSA_POS>
202.19882

> <PEOE_VSA_PPOS>
72.269211

> <petitjean>
0.5

> <petitjeanSC>
1.0

> <Q_PC+>
0

> <Q_PC->
0

> <Q_RPC+>
0

> <Q_RPC->
0

> <Q_VSA_FHYD>
1

> <Q_VSA_FNEG>
0

> <Q_VSA_FPNEG>
0

> <Q_VSA_FPOL>
0

> <Q_VSA_FPOS>
1

> <Q_VSA_FPPOS>
0

> <Q_VSA_HYD>
265.40982

> <Q_VSA_NEG>
0

> <Q_VSA_PNEG>
0

> <Q_VSA_POL>
0

> <Q_VSA_POS>
265.40982

> <Q_VSA_PPOS>
0

> <radius>
4

> <reactive>
0

> <rings>
1

> <RPC+>
0

> <RPC->
0

> <rsynth>
0.27777779

> <SlogP>
-4.4924002

> <SlogP_VSA0>
195.70734

> <SlogP_VSA1>
0.0

> <SlogP_VSA2>
27.369884

> <SlogP_VSA3>
62.778774

> <SlogP_VSA4>
0.0

> <SlogP_VSA5>
0.0

> <SlogP_VSA6>
0.0

> <SlogP_VSA7>
0.0

> <SlogP_VSA8>
18.868406

> <SlogP_VSA9>
0.0

> <SMR>
5.9556298

> <SMR_VSA0>
0.0

> <SMR_VSA1>
177.69658

> <SMR_VSA2>
18.01075

> <SMR_VSA3>
27.369884

> <SMR_VSA4>
0.0

> <SMR_VSA5>
18.868406

> <SMR_VSA6>
62.778774

> <SMR_VSA7>
0.0

> <TPSA>
153.64

> <VAdjEq>
0.50325835

> <VAdjMa>
5.1699252

> <VDistEq>
2.8528678

> <VDistMa>
8.0703831

> <vdw_area>
265.40982

> <vdw_vol>
320.23441

> <vsa_acc>
0.0

> <vsa_acid>
0

> <vsa_base>
0

> <vsa_don>
0.0

> <vsa_hyd>
120.75858

> <vsa_other>
0.0

> <vsa_pol>
100.65102

> <Weight>
267.27798

> <weinerPath>
581

> <weinerPol>
31

> <zagreb>
88

$$$$
Row1762
 OpenBabel06061811532D

 26 28  0  0  1  0  0  0  0  0999 V2000
    0.0000    0.0000    0.0000 F   0  0  0  0  0  0  0  0  0  0  0  0
    0.0000    0.0000    0.0000 C   0  0  0  0  0  0  0  0  0  0  0  0
    0.0000    0.0000    0.0000 C   0  0  0  0  0  0  0  0  0  0  0  0
    0.0000    0.0000    0.0000 C   0  0  0  0  0  0  0  0  0  0  0  0
    0.0000    0.0000    0.0000 F   0  0  0  0  0  0  0  0  0  0  0  0
    0.0000    0.0000    0.0000 C   0  0  0  0  0  0  0  0  0  0  0  0
    0.0000    0.0000    0.0000 C   0  0  0  0  0  0  0  0  0  0  0  0
    0.0000    0.0000    0.0000 C   0  0  0  0  0  0  0  0  0  0  0  0
    0.0000    0.0000    0.0000 C   0  0  2  0  0  0  0  0  0  0  0  0
    0.0000    0.0000    0.0000 O   0  0  0  0  0  0  0  0  0  0  0  0
    0.0000    0.0000    0.0000 C   0  0  1  0  0  0  0  0  0  0  0  0
    0.0000    0.0000    0.0000 H   0  0  0  0  0  0  0  0  0  0  0  0
    0.0000    0.0000    0.0000 C   0  0  0  0  0  0  0  0  0  0  0  0
    0.0000    0.0000    0.0000 C   0  0  0  0  0  0  0  0  0  0  0  0
    0.0000    0.0000    0.0000 N   0  0  0  0  0  0  0  0  0  0  0  0
    0.0000    0.0000    0.0000 C   0  0  0  0  0  0  0  0  0  0  0  0
    0.0000    0.0000    0.0000 N   0  0  0  0  0  0  0  0  0  0  0  0
    0.0000    0.0000    0.0000 C   0  0  0  0  0  0  0  0  0  0  0  0
    0.0000    0.0000    0.0000 C   0  0  0  0  0  0  0  0  0  0  0  0
    0.0000    0.0000    0.0000 F   0  0  0  0  0  0  0  0  0  0  0  0
    0.0000    0.0000    0.0000 C   0  0  0  0  0  0  0  0  0  0  0  0
    0.0000    0.0000    0.0000 N   0  0  0  0  0  0  0  0  0  0  0  0
    0.0000    0.0000    0.0000 N   0  0  0  0  0  0  0  0  0  0  0  0
    0.0000    0.0000    0.0000 C   0  0  0  0  0  0  0  0  0  0  0  0
    0.0000    0.0000    0.0000 N   0  0  0  0  0  0  0  0  0  0  0  0
    0.0000    0.0000    0.0000 C   0  0  0  0  0  0  0  0  0  0  0  0
  1  2  1  0  0  0  0
  2  8  1  0  0  0  0
  2  3  2  0  0  0  0
  3  4  1  0  0  0  0
  4  5  1  0  0  0  0
  4  6  2  0  0  0  0
  6  7  1  0  0  0  0
  7  8  2  0  0  0  0
  8  9  1  0  0  0  0
  9 10  1  0  0  0  0
  9 11  1  0  0  0  0
  9 21  1  0  0  0  0
 11 12  1  0  0  0  0
 11 13  1  0  0  0  0
 11 14  1  0  0  0  0
 14 19  1  0  0  0  0
 14 15  2  0  0  0  0
 15 16  1  0  0  0  0
 16 17  2  0  0  0  0
 17 18  1  0  0  0  0
 18 19  2  0  0  0  0
 19 20  1  0  0  0  0
 21 22  1  0  0  0  0
 22 26  1  0  0  0  0
 22 23  1  0  0  0  0
 23 24  2  0  0  0  0
 24 25  1  0  0  0  0
 25 26  2  0  0  0  0
M  END
> <Index>
1763

> <ID>
HT2194

> <class>
1

> <apol>
45.468102

> <ast_fraglike>
0

> <ast_fraglike_ext>
0

> <ast_violation>
2

> <ast_violation_ext>
3

> <a_acc>
5

> <a_acid>
0

> <a_aro>
17

> <a_base>
0

> <a_count>
39

> <a_don>
1

> <a_donacc>
6

> <a_heavy>
25

> <a_hyd>
16

> <a_IC>
72.463188

> <a_ICM>
1.8580306

> <a_nB>
0

> <a_nBr>
0

> <a_nC>
16

> <a_nCl>
0

> <a_nF>
3

> <a_nH>
14

> <a_nI>
0

> <a_nN>
5

> <a_nO>
1

> <a_nP>
0

> <a_nS>
0

> <balabanJ>
1.8218489

> <BCUT_PEOE_0>
-2.6085682

> <BCUT_PEOE_1>
-0.63358366

> <BCUT_PEOE_2>
0.60004336

> <BCUT_PEOE_3>
2.6619623

> <BCUT_SLOGP_0>
-2.523747

> <BCUT_SLOGP_1>
-0.46893993

> <BCUT_SLOGP_2>
0.80512571

> <BCUT_SLOGP_3>
2.7556477

> <BCUT_SMR_0>
-2.3837361

> <BCUT_SMR_1>
-0.43659574

> <BCUT_SMR_2>
0.79087287

> <BCUT_SMR_3>
2.8827329

> <bpol>
24.853897

> <b_1rotN>
5

> <b_1rotR>
0.18518518

> <b_ar>
17

> <b_count>
41

> <b_double>
0

> <b_heavy>
27

> <b_max1len>
5

> <b_rotN>
5

> <b_rotR>
0.18518518

> <b_single>
24

> <b_triple>
0

> <chi0>
18.026733

> <chi0v>
13.143084

> <chi0v_C>
9.3259087

> <chi0_C>
10.620955

> <chi1>
11.914539

> <chi1v>
7.3727431

> <chi1v_C>
4.0349631

> <chi1_C>
5.0494952

> <chiral>
2

> <chiral_u>
0

> <density>
0.84720606

> <diameter>
10

> <FCharge>
0

> <GCUT_PEOE_0>
-0.8217721

> <GCUT_PEOE_1>
-0.42574117

> <GCUT_PEOE_2>
0.021586427

> <GCUT_PEOE_3>
2.693007

> <GCUT_SLOGP_0>
-0.89613664

> <GCUT_SLOGP_1>
-0.29874057

> <GCUT_SLOGP_2>
0.21270221

> <GCUT_SLOGP_3>
2.7678206

> <GCUT_SMR_0>
-0.51785904

> <GCUT_SMR_1>
-0.19804306

> <GCUT_SMR_2>
0.19140869

> <GCUT_SMR_3>
2.9278283

> <Kier1>
19.753086

> <Kier2>
8.3471403

> <Kier3>
4.2958579

> <KierA1>
14.098056

> <KierA2>
5.8667183

> <KierA3>
2.9846303

> <KierFlex>
3.3083727

> <lip_acc>
6

> <lip_don>
1

> <lip_druglike>
1

> <lip_violation>
0

> <logP(o/w)>
0.375

> <logS>
-3.4146099

> <mr>
8.6264944

> <mutagenic>
0

> <nmol>
1

> <opr_brigid>
17

> <opr_leadlike>
1

> <opr_nring>
3

> <opr_nrot>
5

> <opr_violation>
0

> <PC+>
0

> <PC->
0

> <PEOE_PC+>
2.2318666

> <PEOE_PC->
-2.2318666

> <PEOE_RPC+>
0.094415717

> <PEOE_RPC->
0.17087589

> <PEOE_VSA+0>
31.524988

> <PEOE_VSA+1>
62.230106

> <PEOE_VSA+2>
94.54863

> <PEOE_VSA+3>
9.0208454

> <PEOE_VSA+4>
10.324173

> <PEOE_VSA+5>
0.0

> <PEOE_VSA+6>
0.0

> <PEOE_VSA-0>
12.254904

> <PEOE_VSA-1>
31.002581

> <PEOE_VSA-2>
0.0

> <PEOE_VSA-3>
9.4210396

> <PEOE_VSA-4>
52.773636

> <PEOE_VSA-5>
0.0

> <PEOE_VSA-6>
7.7675405

> <PEOE_VSA_FHYD>
0.77914518

> <PEOE_VSA_FNEG>
0.35285395

> <PEOE_VSA_FPNEG>
0.18867911

> <PEOE_VSA_FPOL>
0.22085483

> <PEOE_VSA_FPOS>
0.64714605

> <PEOE_VSA_FPPOS>
0.03217572

> <PEOE_VSA_HYD>
250.0031

> <PEOE_VSA_NEG>
113.2197

> <PEOE_VSA_PNEG>
60.541176

> <PEOE_VSA_POL>
70.865349

> <PEOE_VSA_POS>
207.64874

> <PEOE_VSA_PPOS>
10.324173

> <petitjean>
0.5

> <petitjeanSC>
1.0

> <Q_PC+>
0

> <Q_PC->
0

> <Q_RPC+>
0

> <Q_RPC->
0

> <Q_VSA_FHYD>
1

> <Q_VSA_FNEG>
0

> <Q_VSA_FPNEG>
0

> <Q_VSA_FPOL>
0

> <Q_VSA_FPOS>
1

> <Q_VSA_FPPOS>
0

> <Q_VSA_HYD>
320.86844

> <Q_VSA_NEG>
0

> <Q_VSA_PNEG>
0

> <Q_VSA_POL>
0

> <Q_VSA_POS>
320.86844

> <Q_VSA_PPOS>
0

> <radius>
5

> <reactive>
0

> <rings>
3

> <RPC+>
0

> <RPC->
0

> <rsynth>
1.0

> <SlogP>
2.7548001

> <SlogP_VSA0>
25.385227

> <SlogP_VSA1>
68.796165

> <SlogP_VSA2>
27.363054

> <SlogP_VSA3>
0.0

> <SlogP_VSA4>
5.9423227

> <SlogP_VSA5>
0.0

> <SlogP_VSA6>
4.4107962

> <SlogP_VSA7>
120.5005

> <SlogP_VSA8>
0.0

> <SlogP_VSA9>
96.645935

> <SMR>
8.1003799

> <SMR_VSA0>
0.0

> <SMR_VSA1>
139.06174

> <SMR_VSA2>
27.363054

> <SMR_VSA3>
10.353119

> <SMR_VSA4>
0.0

> <SMR_VSA5>
138.94008

> <SMR_VSA6>
0.0

> <SMR_VSA7>
33.326015

> <TPSA>
76.720001

> <VAdjEq>
0.42433795

> <VAdjMa>
5.7548876

> <VDistEq>
3.0816271

> <VDistMa>
9.0474463

> <vdw_area>
320.86844

> <vdw_vol>
412.31528

> <vsa_acc>
26.468767

> <vsa_acid>
0

> <vsa_base>
0

> <vsa_don>
0.0

> <vsa_hyd>
191.33801

> <vsa_other>
74.371552

> <vsa_pol>
40.03569

> <Weight>
349.31598

> <weinerPath>
1359

> <weinerPol>
41

> <zagreb>
132

$$$$
Row1763
 OpenBabel06061811532D

 23 25  0  0  1  0  0  0  0  0999 V2000
    0.0000    0.0000    0.0000 O   0  0  0  0  0  0  0  0  0  0  0  0
    0.0000    0.0000    0.0000 C   0  0  0  0  0  0  0  0  0  0  0  0
    0.0000    0.0000    0.0000 C   0  0  0  0  0  0  0  0  0  0  0  0
    0.0000    0.0000    0.0000 C   0  0  0  0  0  0  0  0  0  0  0  0
    0.0000    0.0000    0.0000 C   0  0  0  0  0  0  0  0  0  0  0  0
    0.0000    0.0000    0.0000 C   0  0  0  0  0  0  0  0  0  0  0  0
    0.0000    0.0000    0.0000 C   0  0  0  0  0  0  0  0  0  0  0  0
    0.0000    0.0000    0.0000 C   0  0  0  0  0  0  0  0  0  0  0  0
    0.0000    0.0000    0.0000 O   0  0  0  0  0  0  0  0  0  0  0  0
    0.0000    0.0000    0.0000 C   0  0  0  0  0  0  0  0  0  0  0  0
    0.0000    0.0000    0.0000 C   0  0  3  0  0  0  0  0  0  0  0  0
    0.0000    0.0000    0.0000 C   0  0  0  0  0  0  0  0  0  0  0  0
    0.0000    0.0000    0.0000 C   0  0  0  0  0  0  0  0  0  0  0  0
    0.0000    0.0000    0.0000 O   0  0  0  0  0  0  0  0  0  0  0  0
    0.0000    0.0000    0.0000 C   0  0  0  0  0  0  0  0  0  0  0  0
    0.0000    0.0000    0.0000 C   0  0  0  0  0  0  0  0  0  0  0  0
    0.0000    0.0000    0.0000 C   0  0  0  0  0  0  0  0  0  0  0  0
    0.0000    0.0000    0.0000 C   0  0  0  0  0  0  0  0  0  0  0  0
    0.0000    0.0000    0.0000 C   0  0  0  0  0  0  0  0  0  0  0  0
    0.0000    0.0000    0.0000 C   0  0  0  0  0  0  0  0  0  0  0  0
    0.0000    0.0000    0.0000 C   0  0  0  0  0  0  0  0  0  0  0  0
    0.0000    0.0000    0.0000 C   0  0  0  0  0  0  0  0  0  0  0  0
    0.0000    0.0000    0.0000 O   0  0  0  0  0  0  0  0  0  0  0  0
  1 22  1  0  0  0  0
  1  2  1  0  0  0  0
  2  7  1  0  0  0  0
  2  3  2  0  0  0  0
  3  4  1  0  0  0  0
  3  8  1  0  0  0  0
  4  5  2  0  0  0  0
  5  6  1  0  0  0  0
  6  7  2  0  0  0  0
  8  9  2  0  0  0  0
  8 10  1  0  0  0  0
 10 11  1  0  0  0  0
 10 22  2  0  0  0  0
 11 12  1  0  0  0  0
 11 16  1  0  0  0  0
 12 13  1  0  0  0  0
 13 14  2  0  0  0  0
 13 15  1  0  0  0  0
 16 21  1  0  0  0  0
 16 17  2  0  0  0  0
 17 18  1  0  0  0  0
 18 19  2  0  0  0  0
 19 20  1  0  0  0  0
 20 21  2  0  0  0  0
 22 23  1  0  0  0  0
M  END
> <Index>
1764

> <ID>
HT2196

> <class>
1

> <apol>
47.316689

> <ast_fraglike>
0

> <ast_fraglike_ext>
0

> <ast_violation>
2

> <ast_violation_ext>
3

> <a_acc>
3

> <a_acid>
0

> <a_aro>
12

> <a_base>
0

> <a_count>
39

> <a_don>
2

> <a_donacc>
5

> <a_heavy>
23

> <a_hyd>
16

> <a_IC>
53.420063

> <a_ICM>
1.3697453

> <a_nB>
0

> <a_nBr>
0

> <a_nC>
19

> <a_nCl>
0

> <a_nF>
0

> <a_nH>
16

> <a_nI>
0

> <a_nN>
0

> <a_nO>
4

> <a_nP>
0

> <a_nS>
0

> <balabanJ>
1.7864592

> <BCUT_PEOE_0>
-2.4982777

> <BCUT_PEOE_1>
-0.63418722

> <BCUT_PEOE_2>
0.62112945

> <BCUT_PEOE_3>
2.5555649

> <BCUT_SLOGP_0>
-2.4525921

> <BCUT_SLOGP_1>
-0.5497247

> <BCUT_SLOGP_2>
0.72180504

> <BCUT_SLOGP_3>
2.6183708

> <BCUT_SMR_0>
-2.2453334

> <BCUT_SMR_1>
-0.42813641

> <BCUT_SMR_2>
0.76472932

> <BCUT_SMR_3>
2.8149302

> <bpol>
21.323313

> <b_1rotN>
4

> <b_1rotR>
0.16

> <b_ar>
12

> <b_count>
41

> <b_double>
3

> <b_heavy>
25

> <b_max1len>
5

> <b_rotN>
4

> <b_rotR>
0.16

> <b_single>
26

> <b_triple>
0

> <chi0>
16.396976

> <chi0v>
12.652568

> <chi0v_C>
10.98061

> <chi0_C>
12.68987

> <chi1>
11.075387

> <chi1v>
7.3672891

> <chi1v_C>
6.3271856

> <chi1_C>
8.5268402

> <chiral>
1

> <chiral_u>
1

> <density>
0.74013263

> <diameter>
10

> <FCharge>
0

> <GCUT_PEOE_0>
-0.75859743

> <GCUT_PEOE_1>
-0.42356417

> <GCUT_PEOE_2>
0.067217395

> <GCUT_PEOE_3>
2.6151218

> <GCUT_SLOGP_0>
-0.81143409

> <GCUT_SLOGP_1>
-0.29420912

> <GCUT_SLOGP_2>
0.14827563

> <GCUT_SLOGP_3>
2.7067177

> <GCUT_SMR_0>
-0.49105513

> <GCUT_SMR_1>
-0.22624484

> <GCUT_SMR_2>
0.20321637

> <GCUT_SMR_3>
2.8879726

> <Kier1>
17.811199

> <Kier2>
7.9200001

> <Kier3>
3.9837031

> <KierA1>
12.623818

> <KierA2>
5.5178261

> <KierA3>
2.7393954

> <KierFlex>
3.0285232

> <lip_acc>
4

> <lip_don>
1

> <lip_druglike>
1

> <lip_violation>
0

> <logP(o/w)>
2.9360001

> <logS>
-4.37923

> <mr>
8.7128038

> <mutagenic>
0

> <nmol>
1

> <opr_brigid>
17

> <opr_leadlike>
1

> <opr_nring>
3

> <opr_nrot>
4

> <opr_violation>
0

> <PC+>
0

> <PC->
0

> <PEOE_PC+>
1.7552406

> <PEOE_PC->
-1.7552406

> <PEOE_RPC+>
0.12498929

> <PEOE_RPC->
0.19363153

> <PEOE_VSA+0>
34.293629

> <PEOE_VSA+1>
51.264072

> <PEOE_VSA+2>
8.458519

> <PEOE_VSA+3>
23.167019

> <PEOE_VSA+4>
10.324173

> <PEOE_VSA+5>
0.0

> <PEOE_VSA+6>
0.0

> <PEOE_VSA-0>
45.466026

> <PEOE_VSA-1>
85.784325

> <PEOE_VSA-2>
0.0

> <PEOE_VSA-3>
0.0

> <PEOE_VSA-4>
0.0

> <PEOE_VSA-5>
29.637598

> <PEOE_VSA-6>
7.7675405

> <PEOE_VSA_FHYD>
0.83884102

> <PEOE_VSA_FNEG>
0.56946868

> <PEOE_VSA_FPNEG>
0.1262992

> <PEOE_VSA_FPOL>
0.16115898

> <PEOE_VSA_FPOS>
0.43053135

> <PEOE_VSA_FPPOS>
0.034859776

> <PEOE_VSA_HYD>
248.43359

> <PEOE_VSA_NEG>
168.65549

> <PEOE_VSA_PNEG>
37.40514

> <PEOE_VSA_POL>
47.729309

> <PEOE_VSA_POS>
127.50742

> <PEOE_VSA_PPOS>
10.324173

> <petitjean>
0.5

> <petitjeanSC>
1.0

> <Q_PC+>
0

> <Q_PC->
0

> <Q_RPC+>
0

> <Q_RPC->
0

> <Q_VSA_FHYD>
1

> <Q_VSA_FNEG>
0

> <Q_VSA_FPNEG>
0

> <Q_VSA_FPOL>
0

> <Q_VSA_FPOS>
1

> <Q_VSA_FPPOS>
0

> <Q_VSA_HYD>
296.1629

> <Q_VSA_NEG>
0

> <Q_VSA_PNEG>
0

> <Q_VSA_POL>
0

> <Q_VSA_POS>
296.1629

> <Q_VSA_PPOS>
0

> <radius>
5

> <reactive>
1

> <rings>
3

> <RPC+>
0

> <RPC->
0

> <rsynth>
1.0

> <SlogP>
3.7941999

> <SlogP_VSA0>
10.999887

> <SlogP_VSA1>
11.375222

> <SlogP_VSA2>
23.862217

> <SlogP_VSA3>
25.385227

> <SlogP_VSA4>
30.233366

> <SlogP_VSA5>
10.486856

> <SlogP_VSA6>
4.4107962

> <SlogP_VSA7>
158.78867

> <SlogP_VSA8>
18.868406

> <SlogP_VSA9>
38.569443

> <SMR>
8.5536299

> <SMR_VSA0>
47.724434

> <SMR_VSA1>
10.999887

> <SMR_VSA2>
25.385227

> <SMR_VSA3>
26.51223

> <SMR_VSA4>
0.0

> <SMR_VSA5>
177.65706

> <SMR_VSA6>
11.375222

> <SMR_VSA7>
33.326015

> <TPSA>
63.599998

> <VAdjEq>
0.45137304

> <VAdjMa>
5.643856

> <VDistEq>
3.0480061

> <VDistMa>
8.7969408

> <vdw_area>
296.1629

> <vdw_vol>
416.59152

> <vsa_acc>
13.566921

> <vsa_acid>
0

> <vsa_base>
0

> <vsa_don>
0.0

> <vsa_hyd>
204.78607

> <vsa_other>
34.129295

> <vsa_pol>
40.700764

> <Weight>
308.33298

> <weinerPath>
1092

> <weinerPol>
38

> <zagreb>
120

$$$$
Row1764
 OpenBabel06061811532D

 29 33  0  0  0  0  0  0  0  0999 V2000
    0.0000    0.0000    0.0000 Cl  0  0  0  0  0  0  0  0  0  0  0  0
    0.0000    0.0000    0.0000 C   0  0  0  0  0  0  0  0  0  0  0  0
    0.0000    0.0000    0.0000 C   0  0  0  0  0  0  0  0  0  0  0  0
    0.0000    0.0000    0.0000 C   0  0  0  0  0  0  0  0  0  0  0  0
    0.0000    0.0000    0.0000 N   0  0  0  0  0  0  0  0  0  0  0  0
    0.0000    0.0000    0.0000 H   0  0  0  0  0  0  0  0  0  0  0  0
    0.0000    0.0000    0.0000 C   0  0  0  0  0  0  0  0  0  0  0  0
    0.0000    0.0000    0.0000 O   0  0  0  0  0  0  0  0  0  0  0  0
    0.0000    0.0000    0.0000 C   0  0  0  0  0  0  0  0  0  0  0  0
    0.0000    0.0000    0.0000 C   0  0  0  0  0  0  0  0  0  0  0  0
    0.0000    0.0000    0.0000 C   0  0  0  0  0  0  0  0  0  0  0  0
    0.0000    0.0000    0.0000 C   0  0  0  0  0  0  0  0  0  0  0  0
    0.0000    0.0000    0.0000 C   0  0  0  0  0  0  0  0  0  0  0  0
    0.0000    0.0000    0.0000 C   0  0  0  0  0  0  0  0  0  0  0  0
    0.0000    0.0000    0.0000 N   0  0  0  0  0  0  0  0  0  0  0  0
    0.0000    0.0000    0.0000 C   0  0  0  0  0  0  0  0  0  0  0  0
    0.0000    0.0000    0.0000 C   0  0  0  0  0  0  0  0  0  0  0  0
    0.0000    0.0000    0.0000 N   0  0  0  0  0  0  0  0  0  0  0  0
    0.0000    0.0000    0.0000 C   0  0  0  0  0  0  0  0  0  0  0  0
    0.0000    0.0000    0.0000 C   0  0  0  0  0  0  0  0  0  0  0  0
    0.0000    0.0000    0.0000 C   0  0  0  0  0  0  0  0  0  0  0  0
    0.0000    0.0000    0.0000 N   0  0  0  0  0  0  0  0  0  0  0  0
    0.0000    0.0000    0.0000 S   0  0  0  0  0  0  0  0  0  0  0  0
    0.0000    0.0000    0.0000 C   0  0  0  0  0  0  0  0  0  0  0  0
    0.0000    0.0000    0.0000 C   0  0  0  0  0  0  0  0  0  0  0  0
    0.0000    0.0000    0.0000 C   0  0  0  0  0  0  0  0  0  0  0  0
    0.0000    0.0000    0.0000 C   0  0  0  0  0  0  0  0  0  0  0  0
    0.0000    0.0000    0.0000 C   0  0  0  0  0  0  0  0  0  0  0  0
    0.0000    0.0000    0.0000 C   0  0  0  0  0  0  0  0  0  0  0  0
  1  2  1  0  0  0  0
  2 12  1  0  0  0  0
  2  3  2  0  0  0  0
  3  4  1  0  0  0  0
  4 10  2  0  0  0  0
  4  5  1  0  0  0  0
  5  6  1  0  0  0  0
  5  7  1  0  0  0  0
  7  8  1  0  0  0  0
  7  9  2  0  0  0  0
  9 10  1  0  0  0  0
 10 11  1  0  0  0  0
 11 12  2  0  0  0  0
 12 13  1  0  0  0  0
 13 14  1  0  0  0  0
 14 15  1  0  0  0  0
 15 20  1  0  0  0  0
 15 16  1  0  0  0  0
 16 17  1  0  0  0  0
 17 18  1  0  0  0  0
 18 19  1  0  0  0  0
 18 21  1  0  0  0  0
 19 20  1  0  0  0  0
 21 25  1  0  0  0  0
 21 22  2  0  0  0  0
 22 23  1  0  0  0  0
 23 24  1  0  0  0  0
 24 29  1  0  0  0  0
 24 25  2  0  0  0  0
 25 26  1  0  0  0  0
 26 27  2  0  0  0  0
 27 28  1  0  0  0  0
 28 29  2  0  0  0  0
M  END
> <Index>
1765

> <ID>
HT2216

> <class>
1

> <apol>
61.244652

> <ast_fraglike>
0

> <ast_fraglike_ext>
0

> <ast_violation>
2

> <ast_violation_ext>
3

> <a_acc>
3

> <a_acid>
0

> <a_aro>
18

> <a_base>
0

> <a_count>
49

> <a_don>
2

> <a_donacc>
5

> <a_heavy>
28

> <a_hyd>
20

> <a_IC>
82.643448

> <a_ICM>
1.686601

> <a_nB>
0

> <a_nBr>
0

> <a_nC>
21

> <a_nCl>
1

> <a_nF>
0

> <a_nH>
21

> <a_nI>
0

> <a_nN>
4

> <a_nO>
1

> <a_nP>
0

> <a_nS>
1

> <balabanJ>
1.0667907

> <BCUT_PEOE_0>
-2.7594645

> <BCUT_PEOE_1>
-0.64084679

> <BCUT_PEOE_2>
0.76157916

> <BCUT_PEOE_3>
2.6651094

> <BCUT_SLOGP_0>
-2.883595

> <BCUT_SLOGP_1>
-0.51358616

> <BCUT_SLOGP_2>
0.93194699

> <BCUT_SLOGP_3>
2.5743408

> <BCUT_SMR_0>
-2.4690735

> <BCUT_SMR_1>
-0.42795497

> <BCUT_SMR_2>
1.0587808

> <BCUT_SMR_3>
2.9509122

> <bpol>
31.597347

> <b_1rotN>
4

> <b_1rotR>
0.125

> <b_ar>
20

> <b_count>
53

> <b_double>
0

> <b_heavy>
32

> <b_max1len>
3

> <b_rotN>
4

> <b_rotR>
0.125

> <b_single>
33

> <b_triple>
0

> <chi0>
19.087212

> <chi0v>
16.931585

> <chi0v_C>
12.284093

> <chi0_C>
13.811191

> <chi1>
13.669836

> <chi1v>
10.641955

> <chi1v_C>
6.1629543

> <chi1_C>
8.0075684

> <chiral>
0

> <chiral_u>
0

> <density>
0.78793693

> <diameter>
16

> <FCharge>
0

> <GCUT_PEOE_0>
-0.85264647

> <GCUT_PEOE_1>
-0.41613835

> <GCUT_PEOE_2>
0.11196075

> <GCUT_PEOE_3>
2.7314889

> <GCUT_SLOGP_0>
-0.98684579

> <GCUT_SLOGP_1>
-0.29441285

> <GCUT_SLOGP_2>
0.25461337

> <GCUT_SLOGP_3>
2.7968056

> <GCUT_SMR_0>
-0.51507533

> <GCUT_SMR_1>
-0.18168105

> <GCUT_SMR_2>
0.32898617

> <GCUT_SMR_3>
3.021131

> <Kier1>
19.933594

> <Kier2>
8.6257086

> <Kier3>
4.2579994

> <KierA1>
16.81971

> <KierA2>
7.2300377

> <KierA3>
3.5521953

> <KierFlex>
4.343112

> <lip_acc>
5

> <lip_don>
2

> <lip_druglike>
1

> <lip_violation>
0

> <logP(o/w)>
5.3699999

> <logS>
-5.0212798

> <mr>
11.484219

> <mutagenic>
0

> <nmol>
1

> <opr_brigid>
26

> <opr_leadlike>
0

> <opr_nring>
5

> <opr_nrot>
6

> <opr_violation>
2

> <PC+>
0

> <PC->
0

> <PEOE_PC+>
2.0063434

> <PEOE_PC->
-2.0063434

> <PEOE_RPC+>
0.12588355

> <PEOE_RPC->
0.17225027

> <PEOE_VSA+0>
132.78264

> <PEOE_VSA+1>
29.857702

> <PEOE_VSA+2>
24.140093

> <PEOE_VSA+3>
8.6190128

> <PEOE_VSA+4>
10.324173

> <PEOE_VSA+5>
23.353428

> <PEOE_VSA+6>
0.0

> <PEOE_VSA-0>
51.859165

> <PEOE_VSA-1>
78.601562

> <PEOE_VSA-2>
0.0

> <PEOE_VSA-3>
0.0

> <PEOE_VSA-4>
0.0

> <PEOE_VSA-5>
8.0752068

> <PEOE_VSA-6>
7.9044313

> <PEOE_VSA_FHYD>
0.86776316

> <PEOE_VSA_FNEG>
0.38996959

> <PEOE_VSA_FPNEG>
0.042553652

> <PEOE_VSA_FPOL>
0.13223685

> <PEOE_VSA_FPOS>
0.61003041

> <PEOE_VSA_FPPOS>
0.08968319

> <PEOE_VSA_HYD>
325.86017

> <PEOE_VSA_NEG>
146.44037

> <PEOE_VSA_PNEG>
15.979638

> <PEOE_VSA_POL>
49.657238

> <PEOE_VSA_POS>
229.07704

> <PEOE_VSA_PPOS>
33.677601

> <petitjean>
0.5

> <petitjeanSC>
1.0

> <Q_PC+>
0

> <Q_PC->
0

> <Q_RPC+>
0

> <Q_RPC->
0

> <Q_VSA_FHYD>
1

> <Q_VSA_FNEG>
0

> <Q_VSA_FPNEG>
0

> <Q_VSA_FPOL>
0

> <Q_VSA_FPOS>
1

> <Q_VSA_FPPOS>
0

> <Q_VSA_HYD>
375.5174

> <Q_VSA_NEG>
0

> <Q_VSA_PNEG>
0

> <Q_VSA_POL>
0

> <Q_VSA_POS>
375.5174

> <Q_VSA_PPOS>
0

> <radius>
8

> <reactive>
0

> <rings>
5

> <RPC+>
0

> <RPC->
0

> <rsynth>
1.0

> <SlogP>
4.5012698

> <SlogP_VSA0>
28.509541

> <SlogP_VSA1>
18.100336

> <SlogP_VSA2>
16.78553

> <SlogP_VSA3>
92.197891

> <SlogP_VSA4>
3.185575

> <SlogP_VSA5>
18.868406

> <SlogP_VSA6>
3.5006065

> <SlogP_VSA7>
131.53815

> <SlogP_VSA8>
0.0

> <SlogP_VSA9>
77.343124

> <SMR>
11.69505

> <SMR_VSA0>
0.0

> <SMR_VSA1>
43.485561

> <SMR_VSA2>
19.909843

> <SMR_VSA3>
11.500782

> <SMR_VSA4>
10.363776

> <SMR_VSA5>
142.3707

> <SMR_VSA6>
92.197891

> <SMR_VSA7>
70.200607

> <TPSA>
55.389999

> <VAdjEq>
0.40790597

> <VAdjMa>
6.0

> <VDistEq>
3.7614665

> <VDistMa>
9.2720861

> <vdw_area>
375.5174

> <vdw_vol>
524.0838

> <vsa_acc>
8.0752068

> <vsa_acid>
0

> <vsa_base>
0

> <vsa_don>
5.6825762

> <vsa_hyd>
279.57697

> <vsa_other>
47.493523

> <vsa_pol>
27.324703

> <Weight>
412.94501

> <weinerPath>
2344

> <weinerPol>
44

> <zagreb>
156

$$$$
Row1765
 OpenBabel06061811532D

 14 15  0  0  0  0  0  0  0  0999 V2000
    0.0000    0.0000    0.0000 S   0  0  0  0  0  0  0  0  0  0  0  0
    0.0000    0.0000    0.0000 O   0  0  0  0  0  0  0  0  0  0  0  0
    0.0000    0.0000    0.0000 O   0  0  0  0  0  0  0  0  0  0  0  0
    0.0000    0.0000    0.0000 N   0  0  0  0  0  0  0  0  0  0  0  0
    0.0000    0.0000    0.0000 C   0  0  0  0  0  0  0  0  0  0  0  0
    0.0000    0.0000    0.0000 C   0  0  0  0  0  0  0  0  0  0  0  0
    0.0000    0.0000    0.0000 N   0  0  0  0  0  0  0  0  0  0  0  0
    0.0000    0.0000    0.0000 O   0  0  0  0  0  0  0  0  0  0  0  0
    0.0000    0.0000    0.0000 C   0  0  0  0  0  0  0  0  0  0  0  0
    0.0000    0.0000    0.0000 C   0  0  0  0  0  0  0  0  0  0  0  0
    0.0000    0.0000    0.0000 C   0  0  0  0  0  0  0  0  0  0  0  0
    0.0000    0.0000    0.0000 C   0  0  0  0  0  0  0  0  0  0  0  0
    0.0000    0.0000    0.0000 C   0  0  0  0  0  0  0  0  0  0  0  0
    0.0000    0.0000    0.0000 C   0  0  0  0  0  0  0  0  0  0  0  0
  1  2  2  0  0  0  0
  1  3  2  0  0  0  0
  1  4  1  0  0  0  0
  1  5  1  0  0  0  0
  5  6  1  0  0  0  0
  6 10  1  0  0  0  0
  6  7  2  0  0  0  0
  7  8  1  0  0  0  0
  8  9  1  0  0  0  0
  9 14  1  0  0  0  0
  9 10  2  0  0  0  0
 10 11  1  0  0  0  0
 11 12  2  0  0  0  0
 12 13  1  0  0  0  0
 13 14  2  0  0  0  0
M  END
> <Index>
1766

> <ID>
HT2222

> <class>
1

> <apol>
26.920343

> <ast_fraglike>
1

> <ast_fraglike_ext>
0

> <ast_violation>
0

> <ast_violation_ext>
1

> <a_acc>
3

> <a_acid>
0

> <a_aro>
9

> <a_base>
0

> <a_count>
22

> <a_don>
1

> <a_donacc>
4

> <a_heavy>
14

> <a_hyd>
7

> <a_IC>
43.352608

> <a_ICM>
1.9705731

> <a_nB>
0

> <a_nBr>
0

> <a_nC>
8

> <a_nCl>
0

> <a_nF>
0

> <a_nH>
8

> <a_nI>
0

> <a_nN>
2

> <a_nO>
3

> <a_nP>
0

> <a_nS>
1

> <balabanJ>
1.9560457

> <BCUT_PEOE_0>
-2.3994274

> <BCUT_PEOE_1>
-0.56260717

> <BCUT_PEOE_2>
0.62226361

> <BCUT_PEOE_3>
2.5110972

> <BCUT_SLOGP_0>
-2.615118

> <BCUT_SLOGP_1>
-0.46116051

> <BCUT_SLOGP_2>
0.72101772

> <BCUT_SLOGP_3>
2.4816604

> <BCUT_SMR_0>
-2.0786958

> <BCUT_SMR_1>
-0.40825862

> <BCUT_SMR_2>
0.78073692

> <BCUT_SMR_3>
2.8184779

> <bpol>
16.477655

> <b_1rotN>
2

> <b_1rotR>
0.13333334

> <b_ar>
10

> <b_count>
23

> <b_double>
0

> <b_heavy>
15

> <b_max1len>
4

> <b_rotN>
2

> <b_rotR>
0.13333334

> <b_single>
13

> <b_triple>
0

> <chi0>
10.181798

> <chi0v>
7.9905615

> <chi0v_C>
4.5165076

> <chi0_C>
5.2675848

> <chi1>
6.5614614

> <chi1v>
5.6143408

> <chi1v_C>
2.4309037

> <chi1_C>
3.3914115

> <chiral>
0

> <chiral_u>
0

> <density>
0.89874768

> <diameter>
7

> <FCharge>
0

> <GCUT_PEOE_0>
-0.79384822

> <GCUT_PEOE_1>
-0.40356398

> <GCUT_PEOE_2>
0.064376093

> <GCUT_PEOE_3>
2.2692676

> <GCUT_SLOGP_0>
-1.3482031

> <GCUT_SLOGP_1>
-0.4185276

> <GCUT_SLOGP_2>
0.13086356

> <GCUT_SLOGP_3>
2.3469839

> <GCUT_SMR_0>
-0.44499999

> <GCUT_SMR_1>
-0.18424489

> <GCUT_SMR_2>
0.18356973

> <GCUT_SMR_3>
2.5505879

> <Kier1>
10.515555

> <Kier2>
3.8677685

> <Kier3>
2.5344

> <KierA1>
9.2005367

> <KierA2>
3.3466356

> <KierA3>
2.1743021

> <KierFlex>
2.1993461

> <lip_acc>
5

> <lip_don>
2

> <lip_druglike>
1

> <lip_violation>
0

> <logP(o/w)>
0.19

> <logS>
-2.2014799

> <mr>
5.1868472

> <mutagenic>
0

> <nmol>
1

> <opr_brigid>
10

> <opr_leadlike>
1

> <opr_nring>
2

> <opr_nrot>
2

> <opr_violation>
0

> <PC+>
0

> <PC->
0

> <PEOE_PC+>
1.2938179

> <PEOE_PC->
-1.2938179

> <PEOE_RPC+>
0.18511176

> <PEOE_RPC->
0.27365991

> <PEOE_VSA+0>
27.343634

> <PEOE_VSA+1>
19.270084

> <PEOE_VSA+2>
8.5307722

> <PEOE_VSA+3>
15.158071

> <PEOE_VSA+4>
10.677375

> <PEOE_VSA+5>
0.0

> <PEOE_VSA+6>
0.0

> <PEOE_VSA-0>
24.509808

> <PEOE_VSA-1>
35.395069

> <PEOE_VSA-2>
0.0

> <PEOE_VSA-3>
9.0437498

> <PEOE_VSA-4>
32.016521

> <PEOE_VSA-5>
0.0

> <PEOE_VSA-6>
5.9023595

> <PEOE_VSA_FHYD>
0.74129933

> <PEOE_VSA_FNEG>
0.56890583

> <PEOE_VSA_FPNEG>
0.20185998

> <PEOE_VSA_FPOL>
0.25870067

> <PEOE_VSA_FPOS>
0.43109414

> <PEOE_VSA_FPPOS>
0.056840673

> <PEOE_VSA_HYD>
139.25119

> <PEOE_VSA_NEG>
106.86751

> <PEOE_VSA_PNEG>
37.918884

> <PEOE_VSA_POL>
48.596256

> <PEOE_VSA_POS>
80.979935

> <PEOE_VSA_PPOS>
10.677375

> <petitjean>
0.42857143

> <petitjeanSC>
0.75

> <Q_PC+>
0

> <Q_PC->
0

> <Q_RPC+>
0

> <Q_RPC->
0

> <Q_VSA_FHYD>
1

> <Q_VSA_FNEG>
0

> <Q_VSA_FPNEG>
0

> <Q_VSA_FPOL>
0

> <Q_VSA_FPOS>
1

> <Q_VSA_FPPOS>
0

> <Q_VSA_HYD>
187.84744

> <Q_VSA_NEG>
0

> <Q_VSA_PNEG>
0

> <Q_VSA_POL>
0

> <Q_VSA_POS>
187.84744

> <Q_VSA_PPOS>
0

> <radius>
4

> <reactive>
0

> <rings>
2

> <RPC+>
0

> <RPC->
0

> <rsynth>
1.0

> <SlogP>
0.88270003

> <SlogP_VSA0>
31.291433

> <SlogP_VSA1>
67.768288

> <SlogP_VSA2>
6.6407428

> <SlogP_VSA3>
0.0

> <SlogP_VSA4>
2.7567475

> <SlogP_VSA5>
9.7341213

> <SlogP_VSA6>
0.0

> <SlogP_VSA7>
77.981911

> <SlogP_VSA8>
0.0

> <SlogP_VSA9>
17.233564

> <SMR>
5.10252

> <SMR_VSA0>
57.905807

> <SMR_VSA1>
19.596598

> <SMR_VSA2>
0.0

> <SMR_VSA3>
2.7567475

> <SMR_VSA4>
38.700607

> <SMR_VSA5>
87.806305

> <SMR_VSA6>
0.0

> <SMR_VSA7>
6.6407428

> <TPSA>
86.190002

> <VAdjEq>
0.61744827

> <VAdjMa>
4.9068904

> <VDistEq>
2.6371682

> <VDistMa>
7.3119183

> <vdw_area>
187.84744

> <vdw_vol>
236.13857

> <vsa_acc>
42.901787

> <vsa_acid>
0

> <vsa_base>
0

> <vsa_don>
20.13512

> <vsa_hyd>
89.926628

> <vsa_other>
24.466488

> <vsa_pol>
63.036903

> <Weight>
212.229

> <weinerPath>
293

> <weinerPol>
17

> <zagreb>
74

$$$$
