O(C)c1c(OC)cc(cc1OC)Cc1cnc(nc1N)N
  MOE2013           2D

 21 22  0  0  0  0  0  0  0  0999 V2000
    0.0000    0.0000    0.0000 O   0  0  0  0  0  0  0  0  0  0  0  0
   -1.2960   -0.7550    0.0000 C   0  0  0  0  0  0  0  0  0  0  0  0
    1.3020   -0.7450    0.0000 C   0  0  0  0  0  0  0  0  0  0  0  0
    1.3070   -2.2450    0.0000 C   0  0  0  0  0  0  0  0  0  0  0  0
    0.0110   -3.0000    0.0000 O   0  0  0  0  0  0  0  0  0  0  0  0
    0.0160   -4.5000    0.0000 C   0  0  0  0  0  0  0  0  0  0  0  0
    2.6090   -2.9910    0.0000 C   0  0  0  0  0  0  0  0  0  0  0  0
    3.9050   -2.2360    0.0000 C   0  0  0  0  0  0  0  0  0  0  0  0
    3.9000   -0.7360    0.0000 C   0  0  0  0  0  0  0  0  0  0  0  0
    2.5980    0.0090    0.0000 C   0  0  0  0  0  0  0  0  0  0  0  0
    2.5930    1.5090    0.0000 O   0  0  0  0  0  0  0  0  0  0  0  0
    3.8890    2.2640    0.0000 C   0  0  0  0  0  0  0  0  0  0  0  0
    5.2070   -2.9810    0.0000 C   0  0  0  0  0  0  0  0  0  0  0  0
    6.5030   -2.2270    0.0000 C   0  0  0  0  0  0  0  0  0  0  0  0
    6.4980   -0.7270    0.0000 C   0  0  0  0  0  0  0  0  0  0  0  0
    7.7940    0.0280    0.0000 N   0  0  0  0  0  0  0  0  0  0  0  0
    9.0960   -0.7170    0.0000 C   0  0  0  0  0  0  0  0  0  0  0  0
    9.1010   -2.2170    0.0000 N   0  0  0  0  0  0  0  0  0  0  0  0
    7.8050   -2.9720    0.0000 C   0  0  0  0  0  0  0  0  0  0  0  0
    7.8100   -4.4720    0.0000 N   0  0  0  0  0  0  0  0  0  0  0  0
   10.3920    0.0370    0.0000 N   0  0  0  0  0  0  0  0  0  0  0  0
  1  2  1  0  0  0  0
  1  3  1  0  0  0  0
  3  4  1  0  0  0  0
  3 10  2  0  0  0  0
  4  5  1  0  0  0  0
  4  7  2  0  0  0  0
  5  6  1  0  0  0  0
  7  8  1  0  0  0  0
  8  9  2  0  0  0  0
  8 13  1  0  0  0  0
  9 10  1  0  0  0  0
 10 11  1  0  0  0  0
 11 12  1  0  0  0  0
 13 14  1  0  0  0  0
 14 15  1  0  0  0  0
 14 19  2  0  0  0  0
 15 16  2  0  0  0  0
 16 17  1  0  0  0  0
 17 18  2  0  0  0  0
 17 21  1  0  0  0  0
 18 19  1  0  0  0  0
 19 20  1  0  0  0  0
M  END
>  <Index>
1756

>  <ID>
HT2128

>  <class>
1

>  <apol>
43.448273

>  <ast_fraglike>
0

>  <ast_fraglike_ext>
0

>  <ast_violation>
1

>  <ast_violation_ext>
2

>  <a_acc>
5

>  <a_acid>
0

>  <a_aro>
12

>  <a_base>
0

>  <a_count>
39

>  <a_don>
2

>  <a_donacc>
7

>  <a_heavy>
21

>  <a_hyd>
12

>  <a_IC>
65.014183

>  <a_ICM>
1.6670302

>  <a_nB>
0

>  <a_nBr>
0

>  <a_nC>
14

>  <a_nCl>
0

>  <a_nF>
0

>  <a_nH>
18

>  <a_nI>
0

>  <a_nN>
4

>  <a_nO>
3

>  <a_nP>
0

>  <a_nS>
0

>  <balabanJ>
1.9477328

>  <BCUT_PEOE_0>
-2.3765316

>  <BCUT_PEOE_1>
-0.57924652

>  <BCUT_PEOE_2>
0.38482615

>  <BCUT_PEOE_3>
2.3629572

>  <BCUT_SLOGP_0>
-2.40395

>  <BCUT_SLOGP_1>
-0.53631026

>  <BCUT_SLOGP_2>
0.50869751

>  <BCUT_SLOGP_3>
2.5171902

>  <BCUT_SMR_0>
-2.0887363

>  <BCUT_SMR_1>
-0.28701171

>  <BCUT_SMR_2>
0.67510277

>  <BCUT_SMR_3>
2.6536424

>  <bpol>
26.745726

>  <b_1rotN>
5

>  <b_1rotR>
0.22727273

>  <b_ar>
12

>  <b_count>
40

>  <b_double>
0

>  <b_heavy>
22

>  <b_max1len>
2

>  <b_rotN>
5

>  <b_rotR>
0.22727273

>  <b_single>
28

>  <b_triple>
0

>  <chi0>
15.405413

>  <chi0v>
12.21303

>  <chi0v_C>
8.9391575

>  <chi0_C>
9.8698788

>  <chi1>
10.083249

>  <chi1v>
6.2439694

>  <chi1v_C>
2.9004824

>  <chi1_C>
3.857738

>  <chiral>
0

>  <chiral_u>
0

>  <density>
0.75460261

>  <diameter>
11

>  <FCharge>
0

>  <GCUT_PEOE_0>
-0.78695428

>  <GCUT_PEOE_1>
-0.47053322

>  <GCUT_PEOE_2>
-0.034174353

>  <GCUT_PEOE_3>
2.4648204

>  <GCUT_SLOGP_0>
-1.3404098

>  <GCUT_SLOGP_1>
-0.38418952

>  <GCUT_SLOGP_2>
0.081185825

>  <GCUT_SLOGP_3>
2.5996902

>  <GCUT_SMR_0>
-0.4870806

>  <GCUT_SMR_1>
-0.20261551

>  <GCUT_SMR_2>
0.087153055

>  <GCUT_SMR_3>
2.7431853

>  <Kier1>
17.355371

>  <Kier2>
8.0222225

>  <Kier3>
4.260355

>  <KierA1>
12.760707

>  <KierA2>
5.8000455

>  <KierA3>
3.040539

>  <KierFlex>
3.5244131

>  <lip_acc>
7

>  <lip_don>
4

>  <lip_druglike>
1

>  <lip_violation>
0

>  <logP(o/w)>
0.44448

>  <logS>
-2.59657

>  <mr>
7.8715377

>  <mutagenic>
1

>  <nmol>
1

>  <opr_brigid>
12

>  <opr_leadlike>
1

>  <opr_nring>
2

>  <opr_nrot>
5

>  <opr_violation>
0

>  <PC+>
0

>  <PC->
0

>  <PEOE_PC+>
2.1110055

>  <PEOE_PC->
-2.1110055

>  <PEOE_RPC+>
0.094837278

>  <PEOE_RPC->
0.16354547

>  <PEOE_VSA+0>
111.17951

>  <PEOE_VSA+1>
51.184631

>  <PEOE_VSA+2>
71.042175

>  <PEOE_VSA+3>
0

>  <PEOE_VSA+4>
15.681574

>  <PEOE_VSA+5>
0

>  <PEOE_VSA+6>
0

>  <PEOE_VSA-0>
26.718348

>  <PEOE_VSA-1>
0

>  <PEOE_VSA-2>
0

>  <PEOE_VSA-3>
0

>  <PEOE_VSA-4>
11.365152

>  <PEOE_VSA-5>
13.302238

>  <PEOE_VSA-6>
7.5112681

>  <PEOE_VSA_FHYD>
0.84460199

>  <PEOE_VSA_FNEG>
0.19123343

>  <PEOE_VSA_FPNEG>
0.10448129

>  <PEOE_VSA_FPOL>
0.15539798

>  <PEOE_VSA_FPOS>
0.8087666

>  <PEOE_VSA_FPPOS>
0.050916698

>  <PEOE_VSA_HYD>
260.12466

>  <PEOE_VSA_NEG>
58.897007

>  <PEOE_VSA_PNEG>
32.178658

>  <PEOE_VSA_POL>
47.860233

>  <PEOE_VSA_POS>
249.08789

>  <PEOE_VSA_PPOS>
15.681574

>  <petitjean>
0.45454547

>  <petitjeanSC>
0.83333331

>  <Q_PC+>
0

>  <Q_PC->
0

>  <Q_RPC+>
0

>  <Q_RPC->
0

>  <Q_VSA_FHYD>
1

>  <Q_VSA_FNEG>
0

>  <Q_VSA_FPNEG>
0

>  <Q_VSA_FPOL>
0

>  <Q_VSA_FPOS>
1

>  <Q_VSA_FPPOS>
0

>  <Q_VSA_HYD>
307.98489

>  <Q_VSA_NEG>
0

>  <Q_VSA_PNEG>
0

>  <Q_VSA_POL>
0

>  <Q_VSA_POS>
307.98489

>  <Q_VSA_PPOS>
0

>  <radius>
6

>  <reactive>
0

>  <rings>
2

>  <RPC+>
0

>  <RPC->
0

>  <rsynth>
1

>  <SlogP>
1.25757

>  <SlogP_VSA0>
98.794037

>  <SlogP_VSA1>
33.57106

>  <SlogP_VSA2>
0

>  <SlogP_VSA3>
0

>  <SlogP_VSA4>
6.37115

>  <SlogP_VSA5>
125.02001

>  <SlogP_VSA6>
0

>  <SlogP_VSA7>
52.500725

>  <SlogP_VSA8>
0

>  <SlogP_VSA9>
19.957296

>  <SMR>
7.9760799

>  <SMR_VSA0>
0

>  <SMR_VSA1>
66.570724

>  <SMR_VSA2>
0

>  <SMR_VSA3>
22.101435

>  <SMR_VSA4>
4.2270131

>  <SMR_VSA5>
137.16351

>  <SMR_VSA6>
0

>  <SMR_VSA7>
106.1516

>  <TPSA>
105.51

>  <VAdjEq>
0.46827638

>  <VAdjMa>
5.4594316

>  <VDistEq>
3.1976323

>  <VDistMa>
8.4944992

>  <vdw_area>
307.98489

>  <vdw_vol>
384.73627

>  <vsa_acc>
18.876421

>  <vsa_acid>
0

>  <vsa_base>
0

>  <vsa_don>
35.484978

>  <vsa_hyd>
204.49292

>  <vsa_other>
26.872137

>  <vsa_pol>
54.361401

>  <Weight>
290.323

>  <weinerPath>
946

>  <weinerPol>
33

>  <zagreb>
104

$$$$