S(Oc1cc2CC[C@H]3[C@@H]4CCC(=O)[C@]4(CC[C@@H]3c2cc1)C)(O)(=O)=O
  MOE2013           2D

 24 27  0  0  1  0  0  0  0  0999 V2000
    0.0000    0.0000    0.0000 S   0  0  0  0  0  0  0  0  0  0  0  0
   -0.7540    1.2970    0.0000 O   0  0  0  0  0  0  0  0  0  0  0  0
   -2.2540    1.2920    0.0000 C   0  0  0  0  0  0  0  0  0  0  0  0
   -3.0080    2.5880    0.0000 C   0  0  0  0  0  0  0  0  0  0  0  0
   -4.5080    2.5830    0.0000 C   0  0  0  0  0  0  0  0  0  0  0  0
   -5.2630    3.8800    0.0000 C   0  0  0  0  0  0  0  0  0  0  0  0
   -6.7630    3.8750    0.0000 C   0  0  0  0  0  0  0  0  0  0  0  0
   -7.5080    2.5740    0.0000 C   0  0  1  0  0  0  0  0  0  0  0  0
   -9.0080    2.5690    0.0000 C   0  0  2  0  0  0  0  0  0  0  0  0
  -10.0160    3.6800    0.0000 C   0  0  0  0  0  0  0  0  0  0  0  0
  -11.3840    3.0660    0.0000 C   0  0  0  0  0  0  0  0  0  0  0  0
  -11.2220    1.5740    0.0000 C   0  0  0  0  0  0  0  0  0  0  0  0
  -12.3340    0.5670    0.0000 O   0  0  0  0  0  0  0  0  0  0  0  0
   -9.7540    1.2670    0.0000 C   0  0  1  0  0  0  0  0  0  0  0  0
   -9.0000   -0.0290    0.0000 C   0  0  0  0  0  0  0  0  0  0  0  0
   -7.5000   -0.0240    0.0000 C   0  0  0  0  0  0  0  0  0  0  0  0
   -6.7540    1.2770    0.0000 C   0  0  2  0  0  0  0  0  0  0  0  0
   -5.2540    1.2820    0.0000 C   0  0  0  0  0  0  0  0  0  0  0  0
   -4.5000   -0.0150    0.0000 C   0  0  0  0  0  0  0  0  0  0  0  0
   -3.0000   -0.0100    0.0000 C   0  0  0  0  0  0  0  0  0  0  0  0
  -10.6320    0.0510    0.0000 C   0  0  0  0  0  0  0  0  0  0  0  0
    0.7540   -1.2970    0.0000 O   0  0  0  0  0  0  0  0  0  0  0  0
   -1.2970   -0.7540    0.0000 O   0  0  0  0  0  0  0  0  0  0  0  0
    1.2970    0.7540    0.0000 O   0  0  0  0  0  0  0  0  0  0  0  0
  1  2  1  0  0  0  0
  1 22  1  0  0  0  0
  1 23  2  0  0  0  0
  1 24  2  0  0  0  0
  2  3  1  0  0  0  0
  3  4  1  0  0  0  0
  3 20  2  0  0  0  0
  4  5  2  0  0  0  0
  5  6  1  0  0  0  0
  5 18  1  0  0  0  0
  6  7  1  0  0  0  0
  8  7  1  6  0  0  0
  8  9  1  0  0  0  0
  8 17  1  0  0  0  0
  9 10  1  1  0  0  0
  9 14  1  0  0  0  0
 10 11  1  0  0  0  0
 11 12  1  0  0  0  0
 12 13  2  0  0  0  0
 12 14  1  0  0  0  0
 14 15  1  0  0  0  0
 14 21  1  1  0  0  0
 15 16  1  0  0  0  0
 17 16  1  1  0  0  0
 17 18  1  0  0  0  0
 18 19  2  0  0  0  0
 19 20  1  0  0  0  0
M  END
>  <Index>
1558

>  <ID>
HT0799

>  <class>
1

>  <apol>
53.259445

>  <ast_fraglike>
0

>  <ast_fraglike_ext>
0

>  <ast_violation>
3

>  <ast_violation_ext>
4

>  <a_acc>
5

>  <a_acid>
0

>  <a_aro>
6

>  <a_base>
0

>  <a_count>
46

>  <a_don>
3

>  <a_donacc>
8

>  <a_heavy>
24

>  <a_hyd>
17

>  <a_IC>
69.308067

>  <a_ICM>
1.5066971

>  <a_nB>
0

>  <a_nBr>
0

>  <a_nC>
18

>  <a_nCl>
0

>  <a_nF>
0

>  <a_nH>
22

>  <a_nI>
0

>  <a_nN>
0

>  <a_nO>
5

>  <a_nP>
0

>  <a_nS>
1

>  <balabanJ>
1.4524968

>  <BCUT_PEOE_0>
-2.8701236

>  <BCUT_PEOE_1>
-0.51285183

>  <BCUT_PEOE_2>
0.50429767

>  <BCUT_PEOE_3>
2.9055245

>  <BCUT_SLOGP_0>
-2.7837822

>  <BCUT_SLOGP_1>
-0.54104793

>  <BCUT_SLOGP_2>
0.55335826

>  <BCUT_SLOGP_3>
2.9821777

>  <BCUT_SMR_0>
-2.6172237

>  <BCUT_SMR_1>
-0.37271675

>  <BCUT_SMR_2>
0.65298897

>  <BCUT_SMR_3>
3.1597247

>  <bpol>
33.400555

>  <b_1rotN>
2

>  <b_1rotR>
0.074074075

>  <b_ar>
6

>  <b_count>
49

>  <b_double>
1

>  <b_heavy>
27

>  <b_max1len>
3

>  <b_rotN>
2

>  <b_rotR>
0.074074075

>  <b_single>
42

>  <b_triple>
0

>  <chi0>
17.11252

>  <chi0v>
14.511694

>  <chi0v_C>
11.206742

>  <chi0_C>
11.905413

>  <chi1>
11.277623

>  <chi1v>
9.9734268

>  <chi1v_C>
7.5174561

>  <chi1_C>
8.4384718

>  <chiral>
4

>  <chiral_u>
0

>  <density>
0.79921216

>  <diameter>
12

>  <FCharge>
0

>  <GCUT_PEOE_0>
-0.78728443

>  <GCUT_PEOE_1>
-0.38732448

>  <GCUT_PEOE_2>
0.024081325

>  <GCUT_PEOE_3>
3.0745702

>  <GCUT_SLOGP_0>
-0.85356784

>  <GCUT_SLOGP_1>
-0.35996783

>  <GCUT_SLOGP_2>
0.095000856

>  <GCUT_SLOGP_3>
3.1699913

>  <GCUT_SMR_0>
-0.53521234

>  <GCUT_SMR_1>
-0.21714476

>  <GCUT_SMR_2>
0.13190934

>  <GCUT_SMR_3>
3.3170879

>  <Kier1>
17.415638

>  <Kier2>
6.0205517

>  <Kier3>
3.0214031

>  <KierA1>
16.148439

>  <KierA2>
5.5633659

>  <KierA3>
2.7850864

>  <KierFlex>
3.74332

>  <lip_acc>
5

>  <lip_don>
1

>  <lip_druglike>
1

>  <lip_violation>
0

>  <logP(o/w)>
2.5869999

>  <logS>
-4.6573801

>  <mr>
8.9983196

>  <mutagenic>
0

>  <nmol>
1

>  <opr_brigid>
20

>  <opr_leadlike>
1

>  <opr_nring>
4

>  <opr_nrot>
2

>  <opr_violation>
0

>  <PC+>
0

>  <PC->
0

>  <PEOE_PC+>
1.3599116

>  <PEOE_PC->
-1.3599116

>  <PEOE_RPC+>
0.20012665

>  <PEOE_RPC->
0.2182643

>  <PEOE_VSA+0>
85.478264

>  <PEOE_VSA+1>
21.254677

>  <PEOE_VSA+2>
18.782692

>  <PEOE_VSA+3>
0

>  <PEOE_VSA+4>
0

>  <PEOE_VSA+5>
16.512768

>  <PEOE_VSA+6>
0

>  <PEOE_VSA-0>
72.433456

>  <PEOE_VSA-1>
63.019104

>  <PEOE_VSA-2>
0

>  <PEOE_VSA-3>
4.945097

>  <PEOE_VSA-4>
10.208881

>  <PEOE_VSA-5>
13.566921

>  <PEOE_VSA-6>
0

>  <PEOE_VSA_FHYD>
0.86842483

>  <PEOE_VSA_FNEG>
0.53616089

>  <PEOE_VSA_FPNEG>
0.077647477

>  <PEOE_VSA_FPOL>
0.1315752

>  <PEOE_VSA_FPOS>
0.46383911

>  <PEOE_VSA_FPPOS>
0.053927716

>  <PEOE_VSA_HYD>
265.9133

>  <PEOE_VSA_NEG>
164.17346

>  <PEOE_VSA_PNEG>
23.775803

>  <PEOE_VSA_POL>
40.28857

>  <PEOE_VSA_POS>
142.0284

>  <PEOE_VSA_PPOS>
16.512768

>  <petitjean>
0.5

>  <petitjeanSC>
1

>  <Q_PC+>
0

>  <Q_PC->
0

>  <Q_RPC+>
0

>  <Q_RPC->
0

>  <Q_VSA_FHYD>
1

>  <Q_VSA_FNEG>
0

>  <Q_VSA_FPNEG>
0

>  <Q_VSA_FPOL>
0

>  <Q_VSA_FPOS>
1

>  <Q_VSA_FPPOS>
0

>  <Q_VSA_HYD>
306.20184

>  <Q_VSA_NEG>
0

>  <Q_VSA_PNEG>
0

>  <Q_VSA_POL>
0

>  <Q_VSA_POS>
306.20184

>  <Q_VSA_PPOS>
0

>  <radius>
6

>  <reactive>
1

>  <rings>
4

>  <RPC+>
0

>  <RPC->
0

>  <rsynth>
1

>  <SlogP>
2.72767

>  <SlogP_VSA0>
31.476166

>  <SlogP_VSA1>
53.859299

>  <SlogP_VSA2>
34.149246

>  <SlogP_VSA3>
0

>  <SlogP_VSA4>
15.192742

>  <SlogP_VSA5>
18.868406

>  <SlogP_VSA6>
4.4107962

>  <SlogP_VSA7>
52.929554

>  <SlogP_VSA8>
94.342026

>  <SlogP_VSA9>
38.569443

>  <SMR>
8.7832603

>  <SMR_VSA0>
72.033905

>  <SMR_VSA1>
31.476166

>  <SMR_VSA2>
8.8215923

>  <SMR_VSA3>
16.025373

>  <SMR_VSA4>
0

>  <SMR_VSA5>
166.13998

>  <SMR_VSA6>
5.6876111

>  <SMR_VSA7>
43.613045

>  <TPSA>
80.669998

>  <VAdjEq>
0.44886449

>  <VAdjMa>
5.7548876

>  <VDistEq>
3.3337116

>  <VDistMa>
8.8541183

>  <vdw_area>
306.20184

>  <vdw_vol>
438.47556

>  <vsa_acc>
18.512018

>  <vsa_acid>
0

>  <vsa_base>
0

>  <vsa_don>
0

>  <vsa_hyd>
191.18611

>  <vsa_other>
24.971287

>  <vsa_pol>
66.536804

>  <Weight>
350.435

>  <weinerPath>
1305

>  <weinerPol>
44

>  <zagreb>
140

$$$$