Clc1cc2NC(NC(=O)c2cc1S(=O)(=O)N)CC
  MOE2013           2D

 18 19  0  0  1  0  0  0  0  0999 V2000
    0.0000    0.0000    0.0000 Cl  0  0  0  0  0  0  0  0  0  0  0  0
    1.3020    0.7440    0.0000 C   0  0  0  0  0  0  0  0  0  0  0  0
    2.5980   -0.0110    0.0000 C   0  0  0  0  0  0  0  0  0  0  0  0
    3.9000    0.7330    0.0000 C   0  0  0  0  0  0  0  0  0  0  0  0
    5.1960   -0.0220    0.0000 N   0  0  0  0  0  0  0  0  0  0  0  0
    6.4980    0.7220    0.0000 C   0  0  3  0  0  0  0  0  0  0  0  0
    6.5050    2.2220    0.0000 N   0  0  0  0  0  0  0  0  0  0  0  0
    5.2090    2.9780    0.0000 C   0  0  0  0  0  0  0  0  0  0  0  0
    5.2150    4.4780    0.0000 O   0  0  0  0  0  0  0  0  0  0  0  0
    3.9070    2.2330    0.0000 C   0  0  0  0  0  0  0  0  0  0  0  0
    2.6110    2.9890    0.0000 C   0  0  0  0  0  0  0  0  0  0  0  0
    1.3090    2.2440    0.0000 C   0  0  0  0  0  0  0  0  0  0  0  0
    0.0130    3.0000    0.0000 S   0  0  0  0  0  0  0  0  0  0  0  0
    0.7680    4.2960    0.0000 O   0  0  0  0  0  0  0  0  0  0  0  0
   -0.7430    1.7040    0.0000 O   0  0  0  0  0  0  0  0  0  0  0  0
   -1.2830    3.7560    0.0000 N   0  0  0  0  0  0  0  0  0  0  0  0
    7.7940   -0.0340    0.0000 C   0  0  0  0  0  0  0  0  0  0  0  0
    9.0960    0.7110    0.0000 C   0  0  0  0  0  0  0  0  0  0  0  0
  1  2  1  0  0  0  0
  2  3  1  0  0  0  0
  2 12  2  0  0  0  0
  3  4  2  0  0  0  0
  4  5  1  0  0  0  0
  4 10  1  0  0  0  0
  5  6  1  0  0  0  0
  6  7  1  0  0  0  0
  6 17  1  0  0  0  0
  7  8  1  0  0  0  0
  8  9  2  0  0  0  0
  8 10  1  0  0  0  0
 10 11  2  0  0  0  0
 11 12  1  0  0  0  0
 12 13  1  0  0  0  0
 13 14  2  0  0  0  0
 13 15  2  0  0  0  0
 13 16  1  0  0  0  0
 17 18  1  0  0  0  0
M  END
>  <Index>
1709

>  <ID>
HT1789

>  <class>
1

>  <apol>
36.387516

>  <ast_fraglike>
1

>  <ast_fraglike_ext>
0

>  <ast_violation>
0

>  <ast_violation_ext>
1

>  <a_acc>
3

>  <a_acid>
0

>  <a_aro>
6

>  <a_base>
0

>  <a_count>
30

>  <a_don>
3

>  <a_donacc>
6

>  <a_heavy>
18

>  <a_hyd>
9

>  <a_IC>
61.458111

>  <a_ICM>
2.0486038

>  <a_nB>
0

>  <a_nBr>
0

>  <a_nC>
10

>  <a_nCl>
1

>  <a_nF>
0

>  <a_nH>
12

>  <a_nI>
0

>  <a_nN>
3

>  <a_nO>
3

>  <a_nP>
0

>  <a_nS>
1

>  <balabanJ>
2.1050277

>  <BCUT_PEOE_0>
-2.6168537

>  <BCUT_PEOE_1>
-0.51473188

>  <BCUT_PEOE_2>
0.59616417

>  <BCUT_PEOE_3>
2.5690553

>  <BCUT_SLOGP_0>
-2.7509515

>  <BCUT_SLOGP_1>
-0.44945571

>  <BCUT_SLOGP_2>
0.64621991

>  <BCUT_SLOGP_3>
2.5686824

>  <BCUT_SMR_0>
-2.3369095

>  <BCUT_SMR_1>
-0.36578879

>  <BCUT_SMR_2>
0.722184

>  <BCUT_SMR_3>
2.8529141

>  <bpol>
21.632484

>  <b_1rotN>
2

>  <b_1rotR>
0.10526316

>  <b_ar>
6

>  <b_count>
31

>  <b_double>
1

>  <b_heavy>
19

>  <b_max1len>
4

>  <b_rotN>
2

>  <b_rotR>
0.10526316

>  <b_single>
24

>  <b_triple>
0

>  <chi0>
13.499636

>  <chi0v>
11.099891

>  <chi0v_C>
5.9391575

>  <chi0_C>
6.585422

>  <chi1>
8.3247175

>  <chi1v>
7.1879559

>  <chi1v_C>
3.0200555

>  <chi1_C>
3.7483482

>  <chiral>
1

>  <chiral_u>
1

>  <density>
0.91771346

>  <diameter>
9

>  <FCharge>
0

>  <GCUT_PEOE_0>
-0.82314074

>  <GCUT_PEOE_1>
-0.42019448

>  <GCUT_PEOE_2>
0.092553116

>  <GCUT_PEOE_3>
2.4918349

>  <GCUT_SLOGP_0>
-1.3482763

>  <GCUT_SLOGP_1>
-0.37041652

>  <GCUT_SLOGP_2>
0.15285181

>  <GCUT_SLOGP_3>
2.5170858

>  <GCUT_SMR_0>
-0.5211302

>  <GCUT_SMR_1>
-0.18682766

>  <GCUT_SMR_2>
0.19018418

>  <GCUT_SMR_3>
2.7684052

>  <Kier1>
14.409972

>  <Kier2>
5.1747918

>  <Kier3>
2.9629629

>  <KierA1>
13.282357

>  <KierA2>
4.7457323

>  <KierA3>
2.7071245

>  <KierFlex>
3.5019174

>  <lip_acc>
6

>  <lip_don>
4

>  <lip_druglike>
1

>  <lip_violation>
0

>  <logP(o/w)>
0.74299997

>  <logS>
-2.84692

>  <mr>
6.8131185

>  <mutagenic>
0

>  <nmol>
1

>  <opr_brigid>
11

>  <opr_leadlike>
1

>  <opr_nring>
2

>  <opr_nrot>
2

>  <opr_violation>
0

>  <PC+>
0

>  <PC->
0

>  <PEOE_PC+>
1.7073392

>  <PEOE_PC->
-1.7073392

>  <PEOE_RPC+>
0.17621611

>  <PEOE_RPC->
0.19705836

>  <PEOE_VSA+0>
55.370117

>  <PEOE_VSA+1>
34.896572

>  <PEOE_VSA+2>
13.13876

>  <PEOE_VSA+3>
8.6190128

>  <PEOE_VSA+4>
0

>  <PEOE_VSA+5>
12.949531

>  <PEOE_VSA+6>
4.1846013

>  <PEOE_VSA-0>
20.956217

>  <PEOE_VSA-1>
48.329624

>  <PEOE_VSA-2>
0

>  <PEOE_VSA-3>
9.0437498

>  <PEOE_VSA-4>
32.016521

>  <PEOE_VSA-5>
13.703812

>  <PEOE_VSA-6>
0.13689101

>  <PEOE_VSA_FHYD>
0.75136173

>  <PEOE_VSA_FNEG>
0.49018776

>  <PEOE_VSA_FPNEG>
0.18100673

>  <PEOE_VSA_FPOL>
0.24863824

>  <PEOE_VSA_FPOS>
0.50981224

>  <PEOE_VSA_FPPOS>
0.067631505

>  <PEOE_VSA_HYD>
190.35405

>  <PEOE_VSA_NEG>
124.18682

>  <PEOE_VSA_PNEG>
45.857227

>  <PEOE_VSA_POL>
62.99136

>  <PEOE_VSA_POS>
129.1586

>  <PEOE_VSA_PPOS>
17.134132

>  <petitjean>
0.44444445

>  <petitjeanSC>
0.80000001

>  <Q_PC+>
0

>  <Q_PC->
0

>  <Q_RPC+>
0

>  <Q_RPC->
0

>  <Q_VSA_FHYD>
1

>  <Q_VSA_FNEG>
0

>  <Q_VSA_FPNEG>
0

>  <Q_VSA_FPOL>
0

>  <Q_VSA_FPOS>
1

>  <Q_VSA_FPPOS>
0

>  <Q_VSA_HYD>
253.34541

>  <Q_VSA_NEG>
0

>  <Q_VSA_PNEG>
0

>  <Q_VSA_POL>
0

>  <Q_VSA_POS>
253.34541

>  <Q_VSA_PPOS>
0

>  <radius>
5

>  <reactive>
0

>  <rings>
2

>  <RPC+>
0

>  <RPC->
0

>  <rsynth>
1

>  <SlogP>
0.87879997

>  <SlogP_VSA0>
49.302185

>  <SlogP_VSA1>
71.441223

>  <SlogP_VSA2>
10.193884

>  <SlogP_VSA3>
0

>  <SlogP_VSA4>
27.047791

>  <SlogP_VSA5>
1.5507339

>  <SlogP_VSA6>
3.5006065

>  <SlogP_VSA7>
35.286369

>  <SlogP_VSA8>
18.868406

>  <SlogP_VSA9>
75.231407

>  <SMR>
6.7993102

>  <SMR_VSA0>
72.033905

>  <SMR_VSA1>
0

>  <SMR_VSA2>
19.561485

>  <SMR_VSA3>
10.239323

>  <SMR_VSA4>
52.058933

>  <SMR_VSA5>
54.154774

>  <SMR_VSA6>
5.2587838

>  <SMR_VSA7>
79.115402

>  <TPSA>
101.29

>  <VAdjEq>
0.52150291

>  <VAdjMa>
5.2479277

>  <VDistEq>
2.8772831

>  <VDistMa>
8.0574636

>  <vdw_area>
253.34541

>  <vdw_vol>
315.72272

>  <vsa_acc>
45.583443

>  <vsa_acid>
0

>  <vsa_base>
0

>  <vsa_don>
31.500273

>  <vsa_hyd>
124.02832

>  <vsa_other>
34.245701

>  <vsa_pol>
77.083717

>  <Weight>
289.74301

>  <weinerPath>
567

>  <weinerPol>
30

>  <zagreb>
96

$$$$