s1c(nnc1S(=O)(=O)N)NC(=O)C
  MOE2013           2D

 13 13  0  0  0  0  0  0  0  0999 V2000
    0.0000    0.0000    0.0000 S   0  0  0  0  0  0  0  0  0  0  0  0
    1.3350    0.6840    0.0000 C   0  0  0  0  0  0  0  0  0  0  0  0
    1.0970    2.1650    0.0000 N   0  0  0  0  0  0  0  0  0  0  0  0
   -0.3850    2.3960    0.0000 N   0  0  0  0  0  0  0  0  0  0  0  0
   -1.0630    1.0580    0.0000 C   0  0  0  0  0  0  0  0  0  0  0  0
   -2.5440    0.8200    0.0000 S   0  0  0  0  0  0  0  0  0  0  0  0
   -2.7820    2.3010    0.0000 O   0  0  0  0  0  0  0  0  0  0  0  0
   -2.3060   -0.6610    0.0000 O   0  0  0  0  0  0  0  0  0  0  0  0
   -4.0250    0.5820    0.0000 N   0  0  0  0  0  0  0  0  0  0  0  0
    2.6730    0.0060    0.0000 N   0  0  0  0  0  0  0  0  0  0  0  0
    3.9290    0.8260    0.0000 C   0  0  0  0  0  0  0  0  0  0  0  0
    5.2670    0.1480    0.0000 O   0  0  0  0  0  0  0  0  0  0  0  0
    3.8470    2.3230    0.0000 C   0  0  0  0  0  0  0  0  0  0  0  0
  1  2  1  0  0  0  0
  1  5  1  0  0  0  0
  2  3  2  0  0  0  0
  2 10  1  0  0  0  0
  3  4  1  0  0  0  0
  4  5  2  0  0  0  0
  5  6  1  0  0  0  0
  6  7  2  0  0  0  0
  6  8  2  0  0  0  0
  6  9  1  0  0  0  0
 10 11  1  0  0  0  0
 11 12  2  0  0  0  0
 11 13  1  0  0  0  0
M  END
>  <Index>
1422

>  <ID>
HT0054

>  <class>
1

>  <apol>
23.646757

>  <ast_fraglike>
0

>  <ast_fraglike_ext>
0

>  <ast_violation>
1

>  <ast_violation_ext>
2

>  <a_acc>
5

>  <a_acid>
0

>  <a_aro>
5

>  <a_base>
0

>  <a_count>
19

>  <a_don>
2

>  <a_donacc>
7

>  <a_heavy>
13

>  <a_hyd>
3

>  <a_IC>
42.445961

>  <a_ICM>
2.2339978

>  <a_nB>
0

>  <a_nBr>
0

>  <a_nC>
4

>  <a_nCl>
0

>  <a_nF>
0

>  <a_nH>
6

>  <a_nI>
0

>  <a_nN>
4

>  <a_nO>
3

>  <a_nP>
0

>  <a_nS>
2

>  <balabanJ>
2.3835132

>  <BCUT_PEOE_0>
-2.2652922

>  <BCUT_PEOE_1>
-0.52656114

>  <BCUT_PEOE_2>
0.51866746

>  <BCUT_PEOE_3>
2.3460736

>  <BCUT_SLOGP_0>
-2.5647182

>  <BCUT_SLOGP_1>
-0.51776671

>  <BCUT_SLOGP_2>
0.46244836

>  <BCUT_SLOGP_3>
2.2971613

>  <BCUT_SMR_0>
-1.9508547

>  <BCUT_SMR_1>
-0.30995604

>  <BCUT_SMR_2>
0.74647355

>  <BCUT_SMR_3>
2.7062695

>  <bpol>
17.593243

>  <b_1rotN>
2

>  <b_1rotR>
0.15384616

>  <b_ar>
5

>  <b_count>
19

>  <b_double>
1

>  <b_heavy>
13

>  <b_max1len>
3

>  <b_rotN>
3

>  <b_rotR>
0.23076923

>  <b_single>
13

>  <b_triple>
0

>  <chi0>
10.060478

>  <chi0v>
8.1460123

>  <chi0v_C>
2.5

>  <chi0_C>
2.7320509

>  <chi1>
5.8928652

>  <chi1v>
5.3955617

>  <chi1v_C>
0.5

>  <chi1_C>
0.57735026

>  <chiral>
0

>  <chiral_u>
0

>  <density>
1.0634918

>  <diameter>
7

>  <FCharge>
0

>  <GCUT_PEOE_0>
-0.79506665

>  <GCUT_PEOE_1>
-0.39605787

>  <GCUT_PEOE_2>
0.080812745

>  <GCUT_PEOE_3>
2.0337887

>  <GCUT_SLOGP_0>
-1.3481762

>  <GCUT_SLOGP_1>
-0.47098297

>  <GCUT_SLOGP_2>
0.054200001

>  <GCUT_SLOGP_3>
2.019762

>  <GCUT_SMR_0>
-0.46796748

>  <GCUT_SMR_1>
-0.16934715

>  <GCUT_SMR_2>
0.27110729

>  <GCUT_SMR_3>
2.329648

>  <Kier1>
11.076923

>  <Kier2>
4.0221605

>  <Kier3>
3.3240998

>  <KierA1>
10.889118

>  <KierA2>
3.9479673

>  <KierA3>
3.258605

>  <KierFlex>
3.3069141

>  <lip_acc>
7

>  <lip_don>
3

>  <lip_druglike>
1

>  <lip_violation>
0

>  <logP(o/w)>
-0.93000001

>  <logS>
-2.3608899

>  <mr>
4.6927123

>  <mutagenic>
0

>  <nmol>
1

>  <opr_brigid>
5

>  <opr_leadlike>
1

>  <opr_nring>
1

>  <opr_nrot>
2

>  <opr_violation>
0

>  <PC+>
0

>  <PC->
0

>  <PEOE_PC+>
1.4514192

>  <PEOE_PC->
-1.4514192

>  <PEOE_RPC+>
0.25409409

>  <PEOE_RPC->
0.2193011

>  <PEOE_VSA+0>
48.78186

>  <PEOE_VSA+1>
10.105608

>  <PEOE_VSA+2>
13.166624

>  <PEOE_VSA+3>
8.6190128

>  <PEOE_VSA+4>
12.949531

>  <PEOE_VSA+5>
0

>  <PEOE_VSA+6>
30.412292

>  <PEOE_VSA-0>
0

>  <PEOE_VSA-1>
9.4210396

>  <PEOE_VSA-2>
9.4210396

>  <PEOE_VSA-3>
9.0437498

>  <PEOE_VSA-4>
32.016521

>  <PEOE_VSA-5>
13.566921

>  <PEOE_VSA-6>
0.13689101

>  <PEOE_VSA_FHYD>
0.54927307

>  <PEOE_VSA_FNEG>
0.37242338

>  <PEOE_VSA_FPNEG>
0.23133011

>  <PEOE_VSA_FPOL>
0.4507269

>  <PEOE_VSA_FPOS>
0.62757665

>  <PEOE_VSA_FPPOS>
0.2193968

>  <PEOE_VSA_HYD>
108.55894

>  <PEOE_VSA_NEG>
73.606163

>  <PEOE_VSA_PNEG>
45.720337

>  <PEOE_VSA_POL>
89.082161

>  <PEOE_VSA_POS>
124.03493

>  <PEOE_VSA_PPOS>
43.361824

>  <petitjean>
0.42857143

>  <petitjeanSC>
0.75

>  <Q_PC+>
0

>  <Q_PC->
0

>  <Q_RPC+>
0

>  <Q_RPC->
0

>  <Q_VSA_FHYD>
1

>  <Q_VSA_FNEG>
0

>  <Q_VSA_FPNEG>
0

>  <Q_VSA_FPOL>
0

>  <Q_VSA_FPOS>
1

>  <Q_VSA_FPPOS>
0

>  <Q_VSA_HYD>
197.6411

>  <Q_VSA_NEG>
0

>  <Q_VSA_PNEG>
0

>  <Q_VSA_POL>
0

>  <Q_VSA_POS>
197.6411

>  <Q_VSA_PPOS>
0

>  <radius>
4

>  <reactive>
0

>  <rings>
1

>  <RPC+>
0

>  <RPC->
0

>  <rsynth>
1

>  <SlogP>
-0.85610002

>  <SlogP_VSA0>
31.291433

>  <SlogP_VSA1>
104.76723

>  <SlogP_VSA2>
30.502958

>  <SlogP_VSA3>
0

>  <SlogP_VSA4>
0

>  <SlogP_VSA5>
0

>  <SlogP_VSA6>
0

>  <SlogP_VSA7>
0

>  <SlogP_VSA8>
0

>  <SlogP_VSA9>
65.104446

>  <SMR>
4.5585899

>  <SMR_VSA0>
72.033905

>  <SMR_VSA1>
33.326015

>  <SMR_VSA2>
0

>  <SMR_VSA3>
0

>  <SMR_VSA4>
49.802933

>  <SMR_VSA5>
0

>  <SMR_VSA6>
5.2587838

>  <SMR_VSA7>
71.244446

>  <TPSA>
115.04

>  <VAdjEq>
0.6193822

>  <VAdjMa>
4.7004399

>  <VDistEq>
2.6784222

>  <VDistMa>
7.0721483

>  <vdw_area>
197.6411

>  <vdw_vol>
208.98045

>  <vsa_acc>
64.425522

>  <vsa_acid>
0

>  <vsa_base>
0

>  <vsa_don>
25.817696

>  <vsa_hyd>
59.820744

>  <vsa_other>
36.221764

>  <vsa_pol>
90.243217

>  <Weight>
222.24901

>  <weinerPath>
257

>  <weinerPol>
14

>  <zagreb>
64

$$$$