S1[C@H]2N([C@@H](C(O)=O)C1(C)C)C(=O)[C@H]2NC(=O)[C@H](NC(=O)N1CCNC1=O)c1ccccc1
  MOE2013           2D

 32 35  0  0  1  0  0  0  0  0999 V2000
    0.0000    0.0000    0.0000 S   0  0  0  0  0  0  0  0  0  0  0  0
   -0.8470    1.2380    0.0000 C   0  0  1  0  0  0  0  0  0  0  0  0
    0.0680    2.4260    0.0000 N   0  0  0  0  0  0  0  0  0  0  0  0
    1.4810    1.9230    0.0000 C   0  0  1  0  0  0  0  0  0  0  0  0
    2.7190    2.7700    0.0000 C   0  0  0  0  0  0  0  0  0  0  0  0
    4.0710    2.1220    0.0000 O   0  0  0  0  0  0  0  0  0  0  0  0
    2.6040    4.2660    0.0000 O   0  0  0  0  0  0  0  0  0  0  0  0
    1.4390    0.4230    0.0000 C   0  0  0  0  0  0  0  0  0  0  0  0
    1.9740   -0.9780    0.0000 C   0  0  0  0  0  0  0  0  0  0  0  0
    2.9310    0.2640    0.0000 C   0  0  0  0  0  0  0  0  0  0  0  0
   -1.1200    3.3410    0.0000 C   0  0  0  0  0  0  0  0  0  0  0  0
   -1.3130    4.8290    0.0000 O   0  0  0  0  0  0  0  0  0  0  0  0
   -2.0360    2.1530    0.0000 C   0  0  1  0  0  0  0  0  0  0  0  0
   -3.5230    1.9600    0.0000 N   0  0  0  0  0  0  0  0  0  0  0  0
   -4.4340    3.1520    0.0000 C   0  0  0  0  0  0  0  0  0  0  0  0
   -3.8580    4.5370    0.0000 O   0  0  0  0  0  0  0  0  0  0  0  0
   -5.9220    2.9590    0.0000 C   0  0  2  0  0  0  0  0  0  0  0  0
   -6.4980    1.5740    0.0000 N   0  0  0  0  0  0  0  0  0  0  0  0
   -7.9860    1.3810    0.0000 C   0  0  0  0  0  0  0  0  0  0  0  0
   -8.8970    2.5730    0.0000 O   0  0  0  0  0  0  0  0  0  0  0  0
   -8.5620   -0.0040    0.0000 N   0  0  0  0  0  0  0  0  0  0  0  0
   -7.7810   -1.2840    0.0000 C   0  0  0  0  0  0  0  0  0  0  0  0
   -8.7570   -2.4230    0.0000 C   0  0  0  0  0  0  0  0  0  0  0  0
  -10.1420   -1.8470    0.0000 N   0  0  0  0  0  0  0  0  0  0  0  0
  -10.0220   -0.3510    0.0000 C   0  0  0  0  0  0  0  0  0  0  0  0
  -11.1600    0.6250    0.0000 O   0  0  0  0  0  0  0  0  0  0  0  0
   -6.8330    4.1500    0.0000 C   0  0  0  0  0  0  0  0  0  0  0  0
   -8.3200    3.9570    0.0000 C   0  0  0  0  0  0  0  0  0  0  0  0
   -9.2310    5.1490    0.0000 C   0  0  0  0  0  0  0  0  0  0  0  0
   -8.6550    6.5340    0.0000 C   0  0  0  0  0  0  0  0  0  0  0  0
   -7.1670    6.7270    0.0000 C   0  0  0  0  0  0  0  0  0  0  0  0
   -6.2560    5.5350    0.0000 C   0  0  0  0  0  0  0  0  0  0  0  0
  1  8  1  0  0  0  0
  2  1  1  6  0  0  0
  2  3  1  0  0  0  0
  2 13  1  0  0  0  0
  3  4  1  0  0  0  0
  3 11  1  0  0  0  0
  4  5  1  1  0  0  0
  4  8  1  0  0  0  0
  5  6  1  0  0  0  0
  5  7  2  0  0  0  0
  8  9  1  0  0  0  0
  8 10  1  0  0  0  0
 11 12  2  0  0  0  0
 11 13  1  0  0  0  0
 13 14  1  6  0  0  0
 14 15  1  0  0  0  0
 15 16  2  0  0  0  0
 17 15  1  6  0  0  0
 17 18  1  0  0  0  0
 17 27  1  0  0  0  0
 18 19  1  0  0  0  0
 19 20  2  0  0  0  0
 19 21  1  0  0  0  0
 21 22  1  0  0  0  0
 21 25  1  0  0  0  0
 22 23  1  0  0  0  0
 23 24  1  0  0  0  0
 24 25  1  0  0  0  0
 25 26  2  0  0  0  0
 27 28  1  0  0  0  0
 27 32  2  0  0  0  0
 28 29  2  0  0  0  0
 29 30  1  0  0  0  0
 30 31  2  0  0  0  0
 31 32  1  0  0  0  0
M  END
>  <Index>
1445

>  <ID>
HT0219

>  <class>
1

>  <apol>
63.748238

>  <ast_fraglike>
0

>  <ast_fraglike_ext>
0

>  <ast_violation>
3

>  <ast_violation_ext>
5

>  <a_acc>
6

>  <a_acid>
0

>  <a_aro>
6

>  <a_base>
0

>  <a_count>
55

>  <a_don>
5

>  <a_donacc>
11

>  <a_heavy>
32

>  <a_hyd>
16

>  <a_IC>
100.37489

>  <a_ICM>
1.8249979

>  <a_nB>
0

>  <a_nBr>
0

>  <a_nC>
20

>  <a_nCl>
0

>  <a_nF>
0

>  <a_nH>
23

>  <a_nI>
0

>  <a_nN>
5

>  <a_nO>
6

>  <a_nP>
0

>  <a_nS>
1

>  <balabanJ>
1.4390101

>  <BCUT_PEOE_0>
-2.6473722

>  <BCUT_PEOE_1>
-0.54790366

>  <BCUT_PEOE_2>
0.57474518

>  <BCUT_PEOE_3>
2.8505378

>  <BCUT_SLOGP_0>
-2.902184

>  <BCUT_SLOGP_1>
-0.52073056

>  <BCUT_SLOGP_2>
0.6574561

>  <BCUT_SLOGP_3>
2.7546287

>  <BCUT_SMR_0>
-2.3920782

>  <BCUT_SMR_1>
-0.3857851

>  <BCUT_SMR_2>
0.7513569

>  <BCUT_SMR_3>
3.1313696

>  <bpol>
38.153763

>  <b_1rotN>
6

>  <b_1rotR>
0.17142858

>  <b_ar>
6

>  <b_count>
58

>  <b_double>
5

>  <b_heavy>
35

>  <b_max1len>
4

>  <b_rotN>
8

>  <b_rotR>
0.22857143

>  <b_single>
47

>  <b_triple>
0

>  <chi0>
23.206377

>  <chi0v>
18.217993

>  <chi0v_C>
12.110366

>  <chi0_C>
13.22325

>  <chi1>
15.113898

>  <chi1v>
10.935449

>  <chi1v_C>
5.1873927

>  <chi1_C>
6.2718382

>  <chiral>
4

>  <chiral_u>
0

>  <density>
0.83808863

>  <diameter>
13

>  <FCharge>
0

>  <GCUT_PEOE_0>
-0.83768159

>  <GCUT_PEOE_1>
-0.41475239

>  <GCUT_PEOE_2>
0.079466581

>  <GCUT_PEOE_3>
2.8069868

>  <GCUT_SLOGP_0>
-1.1679392

>  <GCUT_SLOGP_1>
-0.44855648

>  <GCUT_SLOGP_2>
0.1458836

>  <GCUT_SLOGP_3>
2.7488303

>  <GCUT_SMR_0>
-0.53667754

>  <GCUT_SMR_1>
-0.22351468

>  <GCUT_SMR_2>
0.19305076

>  <GCUT_SMR_3>
3.069375

>  <Kier1>
25.103674

>  <Kier2>
9.9323606

>  <Kier3>
4.8977294

>  <KierA1>
19.641848

>  <KierA2>
7.7060194

>  <KierA3>
3.7773137

>  <KierFlex>
4.7300143

>  <lip_acc>
11

>  <lip_don>
4

>  <lip_druglike>
1

>  <lip_violation>
1

>  <logP(o/w)>
0.021

>  <logS>
-3.70331

>  <mr>
11.460505

>  <mutagenic>
0

>  <nmol>
1

>  <opr_brigid>
19

>  <opr_leadlike>
0

>  <opr_nring>
4

>  <opr_nrot>
5

>  <opr_violation>
2

>  <PC+>
0

>  <PC->
0

>  <PEOE_PC+>
3.7176323

>  <PEOE_PC->
-3.7176323

>  <PEOE_RPC+>
0.088077411

>  <PEOE_RPC->
0.091508202

>  <PEOE_VSA+0>
51.976967

>  <PEOE_VSA+1>
55.45002

>  <PEOE_VSA+2>
14.559904

>  <PEOE_VSA+3>
25.857038

>  <PEOE_VSA+4>
23.273705

>  <PEOE_VSA+5>
27.65803

>  <PEOE_VSA+6>
34.881084

>  <PEOE_VSA-0>
39.703896

>  <PEOE_VSA-1>
61.274521

>  <PEOE_VSA-2>
19.760618

>  <PEOE_VSA-3>
0

>  <PEOE_VSA-4>
27.133842

>  <PEOE_VSA-5>
40.700764

>  <PEOE_VSA-6>
8.1782131

>  <PEOE_VSA_FHYD>
0.62401855

>  <PEOE_VSA_FNEG>
0.45712808

>  <PEOE_VSA_FPNEG>
0.17660618

>  <PEOE_VSA_FPOL>
0.37598142

>  <PEOE_VSA_FPOS>
0.54287195

>  <PEOE_VSA_FPPOS>
0.19937524

>  <PEOE_VSA_HYD>
268.58295

>  <PEOE_VSA_NEG>
196.75185

>  <PEOE_VSA_PNEG>
76.012817

>  <PEOE_VSA_POL>
161.82564

>  <PEOE_VSA_POS>
233.65674

>  <PEOE_VSA_PPOS>
85.81282

>  <petitjean>
0.46153846

>  <petitjeanSC>
0.85714287

>  <Q_PC+>
0

>  <Q_PC->
0

>  <Q_RPC+>
0

>  <Q_RPC->
0

>  <Q_VSA_FHYD>
1

>  <Q_VSA_FNEG>
0

>  <Q_VSA_FPNEG>
0

>  <Q_VSA_FPOL>
0

>  <Q_VSA_FPOS>
1

>  <Q_VSA_FPPOS>
0

>  <Q_VSA_HYD>
430.4086

>  <Q_VSA_NEG>
0

>  <Q_VSA_PNEG>
0

>  <Q_VSA_POL>
0

>  <Q_VSA_POS>
430.4086

>  <Q_VSA_PPOS>
0

>  <radius>
7

>  <reactive>
0

>  <rings>
4

>  <RPC+>
0

>  <RPC->
0

>  <rsynth>
1

>  <SlogP>
0.18970001

>  <SlogP_VSA0>
54.032253

>  <SlogP_VSA1>
34.17157

>  <SlogP_VSA2>
81.897713

>  <SlogP_VSA3>
62.264381

>  <SlogP_VSA4>
3.185575

>  <SlogP_VSA5>
0

>  <SlogP_VSA6>
0

>  <SlogP_VSA7>
88.215919

>  <SlogP_VSA8>
3.9819686

>  <SlogP_VSA9>
146.59601

>  <SMR>
11.35899

>  <SMR_VSA0>
119.31108

>  <SMR_VSA1>
6.2486277

>  <SMR_VSA2>
79.41748

>  <SMR_VSA3>
17.478609

>  <SMR_VSA4>
0

>  <SMR_VSA5>
88.215919

>  <SMR_VSA6>
64.802101

>  <SMR_VSA7>
98.871574

>  <TPSA>
148.14999

>  <VAdjEq>
0.3597711

>  <VAdjMa>
6.129283

>  <VDistEq>
3.5686481

>  <VDistMa>
9.7334881

>  <vdw_area>
430.4086

>  <vdw_vol>
550.65656

>  <vsa_acc>
54.267685

>  <vsa_acid>
0

>  <vsa_base>
0

>  <vsa_don>
17.047728

>  <vsa_hyd>
229.20181

>  <vsa_other>
75.488647

>  <vsa_pol>
98.449257

>  <Weight>
461.49899

>  <weinerPath>
2922

>  <weinerPol>
52

>  <zagreb>
176

$$$$