OC(=O)CCCCCCNC1c2c(CCc3c1cccc3)cccc2
  MOE2013           2D

 25 27  0  0  0  0  0  0  0  0999 V2000
    0.0000    0.0000    0.0000 O   0  0  0  0  0  0  0  0  0  0  0  0
   -1.2980   -0.7520    0.0000 C   0  0  0  0  0  0  0  0  0  0  0  0
   -1.2960   -2.2520    0.0000 O   0  0  0  0  0  0  0  0  0  0  0  0
   -2.5980   -0.0040    0.0000 C   0  0  0  0  0  0  0  0  0  0  0  0
   -3.8960   -0.7560    0.0000 C   0  0  0  0  0  0  0  0  0  0  0  0
   -5.1960   -0.0080    0.0000 C   0  0  0  0  0  0  0  0  0  0  0  0
   -6.4940   -0.7600    0.0000 C   0  0  0  0  0  0  0  0  0  0  0  0
   -7.7940   -0.0120    0.0000 C   0  0  0  0  0  0  0  0  0  0  0  0
   -9.0920   -0.7640    0.0000 C   0  0  0  0  0  0  0  0  0  0  0  0
  -10.3920   -0.0160    0.0000 N   0  0  0  0  0  0  0  0  0  0  0  0
  -11.6900   -0.7680    0.0000 C   0  0  0  0  0  0  0  0  0  0  0  0
  -12.9310    0.0750    0.0000 C   0  0  0  0  0  0  0  0  0  0  0  0
  -14.3640   -0.3700    0.0000 C   0  0  0  0  0  0  0  0  0  0  0  0
  -14.9100   -1.7670    0.0000 C   0  0  0  0  0  0  0  0  0  0  0  0
  -14.1600   -3.0650    0.0000 C   0  0  0  0  0  0  0  0  0  0  0  0
  -12.6750   -3.2850    0.0000 C   0  0  0  0  0  0  0  0  0  0  0  0
  -11.5770   -2.2630    0.0000 C   0  0  0  0  0  0  0  0  0  0  0  0
  -10.1430   -2.7030    0.0000 C   0  0  0  0  0  0  0  0  0  0  0  0
   -9.8070   -4.1650    0.0000 C   0  0  0  0  0  0  0  0  0  0  0  0
  -10.9050   -5.1870    0.0000 C   0  0  0  0  0  0  0  0  0  0  0  0
  -12.3390   -4.7470    0.0000 C   0  0  0  0  0  0  0  0  0  0  0  0
  -15.4650    0.6490    0.0000 C   0  0  0  0  0  0  0  0  0  0  0  0
  -15.1340    2.1120    0.0000 C   0  0  0  0  0  0  0  0  0  0  0  0
  -13.7010    2.5560    0.0000 C   0  0  0  0  0  0  0  0  0  0  0  0
  -12.6000    1.5380    0.0000 C   0  0  0  0  0  0  0  0  0  0  0  0
  1  2  1  0  0  0  0
  2  3  2  0  0  0  0
  2  4  1  0  0  0  0
  4  5  1  0  0  0  0
  5  6  1  0  0  0  0
  6  7  1  0  0  0  0
  7  8  1  0  0  0  0
  8  9  1  0  0  0  0
  9 10  1  0  0  0  0
 10 11  1  0  0  0  0
 11 12  1  0  0  0  0
 11 17  1  0  0  0  0
 12 13  1  0  0  0  0
 12 25  2  0  0  0  0
 13 14  1  0  0  0  0
 13 22  2  0  0  0  0
 14 15  1  0  0  0  0
 15 16  1  0  0  0  0
 16 17  1  0  0  0  0
 16 21  2  0  0  0  0
 17 18  2  0  0  0  0
 18 19  1  0  0  0  0
 19 20  2  0  0  0  0
 20 21  1  0  0  0  0
 22 23  1  0  0  0  0
 23 24  2  0  0  0  0
 24 25  1  0  0  0  0
M  END
>  <Index>
1429

>  <ID>
HT0132

>  <class>
1

>  <apol>
59.42741

>  <ast_fraglike>
0

>  <ast_fraglike_ext>
0

>  <ast_violation>
2

>  <ast_violation_ext>
3

>  <a_acc>
3

>  <a_acid>
0

>  <a_aro>
12

>  <a_base>
0

>  <a_count>
52

>  <a_don>
3

>  <a_donacc>
6

>  <a_heavy>
25

>  <a_hyd>
21

>  <a_IC>
67.933411

>  <a_ICM>
1.3064116

>  <a_nB>
0

>  <a_nBr>
0

>  <a_nC>
22

>  <a_nCl>
0

>  <a_nF>
0

>  <a_nH>
27

>  <a_nI>
0

>  <a_nN>
1

>  <a_nO>
2

>  <a_nP>
0

>  <a_nS>
0

>  <balabanJ>
1.4855348

>  <BCUT_PEOE_0>
-2.6796231

>  <BCUT_PEOE_1>
-0.53203541

>  <BCUT_PEOE_2>
0.59414881

>  <BCUT_PEOE_3>
2.6285596

>  <BCUT_SLOGP_0>
-2.6665289

>  <BCUT_SLOGP_1>
-0.47653392

>  <BCUT_SLOGP_2>
0.69274372

>  <BCUT_SLOGP_3>
2.7456946

>  <BCUT_SMR_0>
-2.4242368

>  <BCUT_SMR_1>
-0.40325043

>  <BCUT_SMR_2>
0.7296555

>  <BCUT_SMR_3>
2.88855

>  <bpol>
31.134588

>  <b_1rotN>
8

>  <b_1rotR>
0.2962963

>  <b_ar>
12

>  <b_count>
54

>  <b_double>
1

>  <b_heavy>
27

>  <b_max1len>
9

>  <b_rotN>
8

>  <b_rotR>
0.2962963

>  <b_single>
41

>  <b_triple>
0

>  <chi0>
17.484917

>  <chi0v>
14.708468

>  <chi0v_C>
13.353006

>  <chi0_C>
14.77781

>  <chi1>
12.25402

>  <chi1v>
9.3626709

>  <chi1v_C>
8.2927113

>  <chi1_C>
10.191072

>  <chiral>
0

>  <chiral_u>
0

>  <density>
0.67461878

>  <diameter>
13

>  <FCharge>
0

>  <GCUT_PEOE_0>
-0.83829021

>  <GCUT_PEOE_1>
-0.40456921

>  <GCUT_PEOE_2>
0.087401763

>  <GCUT_PEOE_3>
2.8201311

>  <GCUT_SLOGP_0>
-1.1207359

>  <GCUT_SLOGP_1>
-0.29827884

>  <GCUT_SLOGP_2>
0.14073548

>  <GCUT_SLOGP_3>
2.9236908

>  <GCUT_SMR_0>
-0.53020966

>  <GCUT_SMR_1>
-0.22986859

>  <GCUT_SMR_2>
0.18837325

>  <GCUT_SMR_3>
3.0919552

>  <Kier1>
19.753086

>  <Kier2>
10.364081

>  <Kier3>
5.7362962

>  <KierA1>
15.559336

>  <KierA2>
8.0770264

>  <KierA3>
4.4347744

>  <KierFlex>
5.0269265

>  <lip_acc>
3

>  <lip_don>
2

>  <lip_druglike>
1

>  <lip_violation>
0

>  <logP(o/w)>
5.1209998

>  <logS>
-4.73737

>  <mr>
10.262325

>  <mutagenic>
0

>  <nmol>
1

>  <opr_brigid>
17

>  <opr_leadlike>
1

>  <opr_nring>
3

>  <opr_nrot>
8

>  <opr_violation>
1

>  <PC+>
0

>  <PC->
0

>  <PEOE_PC+>
1.7462796

>  <PEOE_PC->
-1.7462796

>  <PEOE_RPC+>
0.14865181

>  <PEOE_RPC->
0.18969895

>  <PEOE_VSA+0>
76.947487

>  <PEOE_VSA+1>
41.534435

>  <PEOE_VSA+2>
8.6190128

>  <PEOE_VSA+3>
0

>  <PEOE_VSA+4>
10.324173

>  <PEOE_VSA+5>
14.708499

>  <PEOE_VSA+6>
0

>  <PEOE_VSA-0>
56.831738

>  <PEOE_VSA-1>
115.44186

>  <PEOE_VSA-2>
0

>  <PEOE_VSA-3>
0

>  <PEOE_VSA-4>
0

>  <PEOE_VSA-5>
13.566921

>  <PEOE_VSA-6>
7.9044313

>  <PEOE_VSA_FHYD>
0.86554813

>  <PEOE_VSA_FNEG>
0.56015313

>  <PEOE_VSA_FPNEG>
0.06207772

>  <PEOE_VSA_FPOL>
0.13445188

>  <PEOE_VSA_FPOS>
0.4398469

>  <PEOE_VSA_FPPOS>
0.072374165

>  <PEOE_VSA_HYD>
299.37454

>  <PEOE_VSA_NEG>
193.74495

>  <PEOE_VSA_PNEG>
21.471352

>  <PEOE_VSA_POL>
46.504025

>  <PEOE_VSA_POS>
152.13361

>  <PEOE_VSA_PPOS>
25.032671

>  <petitjean>
0.46153846

>  <petitjeanSC>
0.85714287

>  <Q_PC+>
0

>  <Q_PC->
0

>  <Q_RPC+>
0

>  <Q_RPC->
0

>  <Q_VSA_FHYD>
1

>  <Q_VSA_FNEG>
0

>  <Q_VSA_FPNEG>
0

>  <Q_VSA_FPOL>
0

>  <Q_VSA_FPOS>
1

>  <Q_VSA_FPPOS>
0

>  <Q_VSA_HYD>
345.87854

>  <Q_VSA_NEG>
0

>  <Q_VSA_PNEG>
0

>  <Q_VSA_POL>
0

>  <Q_VSA_POS>
345.87854

>  <Q_VSA_PPOS>
0

>  <radius>
7

>  <reactive>
0

>  <rings>
3

>  <RPC+>
0

>  <RPC->
0

>  <rsynth>
1

>  <SlogP>
4.5947399

>  <SlogP_VSA0>
18.01075

>  <SlogP_VSA1>
7.7454643

>  <SlogP_VSA2>
23.862217

>  <SlogP_VSA3>
43.824806

>  <SlogP_VSA4>
12.7423

>  <SlogP_VSA5>
37.736813

>  <SlogP_VSA6>
0

>  <SlogP_VSA7>
141.14548

>  <SlogP_VSA8>
98.323997

>  <SlogP_VSA9>
0

>  <SMR>
10.09695

>  <SMR_VSA0>
23.862217

>  <SMR_VSA1>
0

>  <SMR_VSA2>
43.395977

>  <SMR_VSA3>
16.724268

>  <SMR_VSA4>
0

>  <SMR_VSA5>
273.2243

>  <SMR_VSA6>
26.185041

>  <SMR_VSA7>
0

>  <TPSA>
49.330002

>  <VAdjEq>
0.42433795

>  <VAdjMa>
5.7548876

>  <VDistEq>
3.5492861

>  <VDistMa>
8.9658356

>  <vdw_area>
345.87854

>  <vdw_vol>
500.22766

>  <vsa_acc>
0

>  <vsa_acid>
0

>  <vsa_base>
0

>  <vsa_don>
0

>  <vsa_hyd>
272.96063

>  <vsa_other>
14.708499

>  <vsa_pol>
32.816418

>  <Weight>
337.46298

>  <weinerPath>
1662

>  <weinerPol>
39

>  <zagreb>
124

$$$$