SC=1NC(=O)C=C(N=1)CCC
  MOE2013           2D

 11 11  0  0  0  0  0  0  0  0999 V2000
    0.0000    0.0000    0.0000 S   0  0  0  0  0  0  0  0  0  0  0  0
    1.2940   -0.7580    0.0000 C   0  0  0  0  0  0  0  0  0  0  0  0
    1.2850   -2.2580    0.0000 N   0  0  0  0  0  0  0  0  0  0  0  0
    2.5790   -3.0160    0.0000 C   0  0  0  0  0  0  0  0  0  0  0  0
    2.5690   -4.5160    0.0000 O   0  0  0  0  0  0  0  0  0  0  0  0
    3.8830   -2.2750    0.0000 C   0  0  0  0  0  0  0  0  0  0  0  0
    3.8920   -0.7750    0.0000 C   0  0  0  0  0  0  0  0  0  0  0  0
    2.5980   -0.0170    0.0000 N   0  0  0  0  0  0  0  0  0  0  0  0
    5.1960   -0.0330    0.0000 C   0  0  0  0  0  0  0  0  0  0  0  0
    6.4900   -0.7910    0.0000 C   0  0  0  0  0  0  0  0  0  0  0  0
    7.7940   -0.0500    0.0000 C   0  0  0  0  0  0  0  0  0  0  0  0
  1  2  1  0  0  0  0
  2  3  1  0  0  0  0
  2  8  2  0  0  0  0
  3  4  1  0  0  0  0
  4  5  2  0  0  0  0
  4  6  1  0  0  0  0
  6  7  2  0  0  0  0
  7  8  1  0  0  0  0
  7  9  1  0  0  0  0
  9 10  1  0  0  0  0
 10 11  1  0  0  0  0
M  END
>  <Index>
1706

>  <ID>
HT1768

>  <class>
1

>  <apol>
24.889931

>  <ast_fraglike>
1

>  <ast_fraglike_ext>
1

>  <ast_violation>
0

>  <ast_violation_ext>
0

>  <a_acc>
2

>  <a_acid>
0

>  <a_aro>
0

>  <a_base>
0

>  <a_count>
21

>  <a_don>
1

>  <a_donacc>
3

>  <a_heavy>
11

>  <a_hyd>
5

>  <a_IC>
37.367901

>  <a_ICM>
1.7794238

>  <a_nB>
0

>  <a_nBr>
0

>  <a_nC>
7

>  <a_nCl>
0

>  <a_nF>
0

>  <a_nH>
10

>  <a_nI>
0

>  <a_nN>
2

>  <a_nO>
1

>  <a_nP>
0

>  <a_nS>
1

>  <balabanJ>
2.3358579

>  <BCUT_PEOE_0>
-2.5152726

>  <BCUT_PEOE_1>
-0.59169161

>  <BCUT_PEOE_2>
0.50007653

>  <BCUT_PEOE_3>
2.4813437

>  <BCUT_SLOGP_0>
-2.4804299

>  <BCUT_SLOGP_1>
-0.51158363

>  <BCUT_SLOGP_2>
0.52868325

>  <BCUT_SLOGP_3>
2.6297441

>  <BCUT_SMR_0>
-2.2694068

>  <BCUT_SMR_1>
-0.35272786

>  <BCUT_SMR_2>
0.67985022

>  <BCUT_SMR_3>
2.7413762

>  <bpol>
16.15007

>  <b_1rotN>
2

>  <b_1rotR>
0.18181819

>  <b_ar>
0

>  <b_count>
21

>  <b_double>
3

>  <b_heavy>
11

>  <b_max1len>
4

>  <b_rotN>
2

>  <b_rotR>
0.18181819

>  <b_single>
18

>  <b_triple>
0

>  <chi0>
8.2675848

>  <chi0v>
7.1886663

>  <chi0v_C>
4.4915638

>  <chi0_C>
4.8533711

>  <chi1>
5.2195454

>  <chi1v>
3.9601686

>  <chi1v_C>
2.1380105

>  <chi1_C>
2.4318516

>  <chiral>
0

>  <chiral_u>
0

>  <density>
0.79795069

>  <diameter>
6

>  <FCharge>
0

>  <GCUT_PEOE_0>
-0.78282553

>  <GCUT_PEOE_1>
-0.47240967

>  <GCUT_PEOE_2>
0.073016092

>  <GCUT_PEOE_3>
2.1640158

>  <GCUT_SLOGP_0>
-1.1688561

>  <GCUT_SLOGP_1>
-0.37418878

>  <GCUT_SLOGP_2>
0.091229863

>  <GCUT_SLOGP_3>
2.2453032

>  <GCUT_SMR_0>
-0.52399534

>  <GCUT_SMR_1>
-0.13688913

>  <GCUT_SMR_2>
0.19729692

>  <GCUT_SMR_3>
2.4441116

>  <Kier1>
9.090909

>  <Kier2>
4.1326532

>  <Kier3>
2.8444445

>  <KierA1>
7.7599916

>  <KierA2>
3.4662566

>  <KierA3>
2.3485978

>  <KierFlex>
2.4452839

>  <lip_acc>
3

>  <lip_don>
1

>  <lip_druglike>
1

>  <lip_violation>
0

>  <logP(o/w)>
1.716

>  <logS>
-2.73417

>  <mr>
4.6450634

>  <mutagenic>
0

>  <nmol>
1

>  <opr_brigid>
6

>  <opr_leadlike>
1

>  <opr_nring>
1

>  <opr_nrot>
2

>  <opr_violation>
0

>  <PC+>
0

>  <PC->
0

>  <PEOE_PC+>
1.0293959

>  <PEOE_PC->
-1.0293959

>  <PEOE_RPC+>
0.24509932

>  <PEOE_RPC->
0.29352218

>  <PEOE_VSA+0>
48.812157

>  <PEOE_VSA+1>
4.2653861

>  <PEOE_VSA+2>
7.7810974

>  <PEOE_VSA+3>
21.785637

>  <PEOE_VSA+4>
0

>  <PEOE_VSA+5>
12.949531

>  <PEOE_VSA+6>
0

>  <PEOE_VSA-0>
8.701313

>  <PEOE_VSA-1>
27.44899

>  <PEOE_VSA-2>
26.362989

>  <PEOE_VSA-3>
0

>  <PEOE_VSA-4>
5.6825762

>  <PEOE_VSA-5>
13.566921

>  <PEOE_VSA-6>
0.13689101

>  <PEOE_VSA_FHYD>
0.81781912

>  <PEOE_VSA_FNEG>
0.46142358

>  <PEOE_VSA_FPNEG>
0.10922309

>  <PEOE_VSA_FPOL>
0.18218087

>  <PEOE_VSA_FPOS>
0.53857642

>  <PEOE_VSA_FPPOS>
0.072957776

>  <PEOE_VSA_HYD>
145.15758

>  <PEOE_VSA_NEG>
81.899681

>  <PEOE_VSA_PNEG>
19.386389

>  <PEOE_VSA_POL>
32.335918

>  <PEOE_VSA_POS>
95.593811

>  <PEOE_VSA_PPOS>
12.949531

>  <petitjean>
0.5

>  <petitjeanSC>
1

>  <Q_PC+>
0

>  <Q_PC->
0

>  <Q_RPC+>
0

>  <Q_RPC->
0

>  <Q_VSA_FHYD>
1

>  <Q_VSA_FNEG>
0

>  <Q_VSA_FPNEG>
0

>  <Q_VSA_FPOL>
0

>  <Q_VSA_FPOS>
1

>  <Q_VSA_FPPOS>
0

>  <Q_VSA_HYD>
177.49348

>  <Q_VSA_NEG>
0

>  <Q_VSA_PNEG>
0

>  <Q_VSA_POL>
0

>  <Q_VSA_POS>
177.49348

>  <Q_VSA_PPOS>
0

>  <radius>
3

>  <reactive>
1

>  <rings>
1

>  <RPC+>
0

>  <RPC->
0

>  <rsynth>
1

>  <SlogP>
1.086

>  <SlogP_VSA0>
18.01075

>  <SlogP_VSA1>
5.9518628

>  <SlogP_VSA2>
23.862217

>  <SlogP_VSA3>
0

>  <SlogP_VSA4>
0

>  <SlogP_VSA5>
19.542276

>  <SlogP_VSA6>
0

>  <SlogP_VSA7>
17.643185

>  <SlogP_VSA8>
83.843925

>  <SlogP_VSA9>
33.326015

>  <SMR>
4.7555699

>  <SMR_VSA0>
23.862217

>  <SMR_VSA1>
16.78553

>  <SMR_VSA2>
18.01075

>  <SMR_VSA3>
2.7567475

>  <SMR_VSA4>
0

>  <SMR_VSA5>
55.379993

>  <SMR_VSA6>
5.9518628

>  <SMR_VSA7>
79.433128

>  <TPSA>
80.260002

>  <VAdjEq>
0.68403846

>  <VAdjMa>
4.4594316

>  <VDistEq>
2.436631

>  <VDistMa>
6.5972228

>  <vdw_area>
177.49348

>  <vdw_vol>
213.34151

>  <vsa_acc>
19.249496

>  <vsa_acid>
0

>  <vsa_base>
0

>  <vsa_don>
5.6825762

>  <vsa_hyd>
83.533485

>  <vsa_other>
57.500668

>  <vsa_pol>
24.932074

>  <Weight>
170.23599

>  <weinerPath>
158

>  <weinerPol>
12

>  <zagreb>
50

$$$$