s1c2c(cc1)C(c1c(CC2=O)cccc1)=C1/CCN(CC/1)C
  MOE2013           2D

 22 25  0  0  0  0  0  0  0  0999 V2000
    0.0000    0.0000    0.0000 S   0  0  0  0  0  0  0  0  0  0  0  0
   -0.2730    1.4750    0.0000 C   0  0  0  0  0  0  0  0  0  0  0  0
    1.0450    2.1900    0.0000 C   0  0  0  0  0  0  0  0  0  0  0  0
    2.1330    1.1580    0.0000 C   0  0  0  0  0  0  0  0  0  0  0  0
    1.4870   -0.1960    0.0000 C   0  0  0  0  0  0  0  0  0  0  0  0
    1.3090    3.6670    0.0000 C   0  0  0  0  0  0  0  0  0  0  0  0
    0.3170    4.7920    0.0000 C   0  0  0  0  0  0  0  0  0  0  0  0
   -1.1810    4.7200    0.0000 C   0  0  0  0  0  0  0  0  0  0  0  0
   -2.0600    3.5030    0.0000 C   0  0  0  0  0  0  0  0  0  0  0  0
   -1.6550    2.0590    0.0000 C   0  0  0  0  0  0  0  0  0  0  0  0
   -2.7800    1.0670    0.0000 O   0  0  0  0  0  0  0  0  0  0  0  0
   -1.9930    5.9810    0.0000 C   0  0  0  0  0  0  0  0  0  0  0  0
   -1.3070    7.3150    0.0000 C   0  0  0  0  0  0  0  0  0  0  0  0
    0.1910    7.3870    0.0000 C   0  0  0  0  0  0  0  0  0  0  0  0
    1.0030    6.1260    0.0000 C   0  0  0  0  0  0  0  0  0  0  0  0
    2.7530    4.0710    0.0000 C   0  0  0  0  0  0  0  0  0  0  0  0
    3.8260    3.0220    0.0000 C   0  0  0  0  0  0  0  0  0  0  0  0
    5.2700    3.4270    0.0000 C   0  0  0  0  0  0  0  0  0  0  0  0
    5.6420    4.8800    0.0000 N   0  0  0  0  0  0  0  0  0  0  0  0
    4.5700    5.9290    0.0000 C   0  0  0  0  0  0  0  0  0  0  0  0
    3.1260    5.5240    0.0000 C   0  0  0  0  0  0  0  0  0  0  0  0
    7.0870    5.2840    0.0000 C   0  0  0  0  0  0  0  0  0  0  0  0
  1  2  1  0  0  0  0
  1  5  1  0  0  0  0
  2  3  2  0  0  0  0
  2 10  1  0  0  0  0
  3  4  1  0  0  0  0
  3  6  1  0  0  0  0
  4  5  2  0  0  0  0
  6  7  1  0  0  0  0
  6 16  2  3  0  0  0
  7  8  1  0  0  0  0
  7 15  2  0  0  0  0
  8  9  1  0  0  0  0
  8 12  2  0  0  0  0
  9 10  1  0  0  0  0
 10 11  2  0  0  0  0
 12 13  1  0  0  0  0
 13 14  2  0  0  0  0
 14 15  1  0  0  0  0
 16 17  1  0  0  0  0
 16 21  1  0  0  0  0
 17 18  1  0  0  0  0
 18 19  1  0  0  0  0
 19 20  1  0  0  0  0
 19 22  1  0  0  0  0
 20 21  1  0  0  0  0
M  END
>  <Index>
1616

>  <ID>
HT1162

>  <class>
1

>  <apol>
50.911068

>  <ast_fraglike>
0

>  <ast_fraglike_ext>
0

>  <ast_violation>
2

>  <ast_violation_ext>
2

>  <a_acc>
2

>  <a_acid>
0

>  <a_aro>
11

>  <a_base>
0

>  <a_count>
41

>  <a_don>
0

>  <a_donacc>
2

>  <a_heavy>
22

>  <a_hyd>
19

>  <a_IC>
58.238388

>  <a_ICM>
1.4204484

>  <a_nB>
0

>  <a_nBr>
0

>  <a_nC>
19

>  <a_nCl>
0

>  <a_nF>
0

>  <a_nH>
19

>  <a_nI>
0

>  <a_nN>
1

>  <a_nO>
1

>  <a_nP>
0

>  <a_nS>
1

>  <balabanJ>
1.6171029

>  <BCUT_PEOE_0>
-2.7191765

>  <BCUT_PEOE_1>
-0.50270641

>  <BCUT_PEOE_2>
0.50963324

>  <BCUT_PEOE_3>
2.6300442

>  <BCUT_SLOGP_0>
-2.7418594

>  <BCUT_SLOGP_1>
-0.37665698

>  <BCUT_SLOGP_2>
0.62953067

>  <BCUT_SLOGP_3>
2.6669681

>  <BCUT_SMR_0>
-2.4354918

>  <BCUT_SMR_1>
-0.33353934

>  <BCUT_SMR_2>
0.69465268

>  <BCUT_SMR_3>
2.9111195

>  <bpol>
25.988934

>  <b_1rotN>
0

>  <b_1rotR>
0

>  <b_ar>
11

>  <b_count>
44

>  <b_double>
2

>  <b_heavy>
25

>  <b_max1len>
2

>  <b_rotN>
0

>  <b_rotR>
0

>  <b_single>
31

>  <b_triple>
0

>  <chi0>
15.104083

>  <chi0v>
13.579843

>  <chi0v_C>
11.499636

>  <chi0_C>
12.819627

>  <chi1>
10.737184

>  <chi1v>
8.7168446

>  <chi1v_C>
6.1135721

>  <chi1_C>
7.857738

>  <chiral>
0

>  <chiral_u>
0

>  <density>
0.72209609

>  <diameter>
9

>  <FCharge>
0

>  <GCUT_PEOE_0>
-0.85854566

>  <GCUT_PEOE_1>
-0.38049778

>  <GCUT_PEOE_2>
0.030198121

>  <GCUT_PEOE_3>
2.7593668

>  <GCUT_SLOGP_0>
-0.95211917

>  <GCUT_SLOGP_1>
-0.27603817

>  <GCUT_SLOGP_2>
0.14251888

>  <GCUT_SLOGP_3>
2.8577116

>  <GCUT_SMR_0>
-0.51361728

>  <GCUT_SMR_1>
-0.17626213

>  <GCUT_SMR_2>
0.18936756

>  <GCUT_SMR_3>
3.0533137

>  <Kier1>
15.5232

>  <Kier2>
6.4814816

>  <Kier3>
2.9219532

>  <KierA1>
12.738335

>  <KierA2>
5.2653627

>  <KierA3>
2.3564055

>  <KierFlex>
3.0487251

>  <lip_acc>
2

>  <lip_don>
0

>  <lip_druglike>
1

>  <lip_violation>
0

>  <logP(o/w)>
3.3380001

>  <logS>
-3.75736

>  <mr>
9.2297039

>  <mutagenic>
0

>  <nmol>
1

>  <opr_brigid>
23

>  <opr_leadlike>
1

>  <opr_nring>
4

>  <opr_nrot>
2

>  <opr_violation>
0

>  <PC+>
0

>  <PC->
0

>  <PEOE_PC+>
1.2161642

>  <PEOE_PC->
-1.2161642

>  <PEOE_RPC+>
0.13439053

>  <PEOE_RPC->
0.25056762

>  <PEOE_VSA+0>
94.801369

>  <PEOE_VSA+1>
21.326929

>  <PEOE_VSA+2>
0

>  <PEOE_VSA+3>
28.219137

>  <PEOE_VSA+4>
0

>  <PEOE_VSA+5>
0

>  <PEOE_VSA+6>
0

>  <PEOE_VSA-0>
53.660076

>  <PEOE_VSA-1>
63.483059

>  <PEOE_VSA-2>
14.230966

>  <PEOE_VSA-3>
0

>  <PEOE_VSA-4>
0

>  <PEOE_VSA-5>
13.566921

>  <PEOE_VSA-6>
0

>  <PEOE_VSA_FHYD>
0.95310247

>  <PEOE_VSA_FNEG>
0.50102592

>  <PEOE_VSA_FPNEG>
0.046897553

>  <PEOE_VSA_FPOL>
0.046897553

>  <PEOE_VSA_FPOS>
0.49897406

>  <PEOE_VSA_FPPOS>
0

>  <PEOE_VSA_HYD>
275.72153

>  <PEOE_VSA_NEG>
144.94102

>  <PEOE_VSA_PNEG>
13.566921

>  <PEOE_VSA_POL>
13.566921

>  <PEOE_VSA_POS>
144.34743

>  <PEOE_VSA_PPOS>
0

>  <petitjean>
0.44444445

>  <petitjeanSC>
0.80000001

>  <Q_PC+>
0

>  <Q_PC->
0

>  <Q_RPC+>
0

>  <Q_RPC->
0

>  <Q_VSA_FHYD>
1

>  <Q_VSA_FNEG>
0

>  <Q_VSA_FPNEG>
0

>  <Q_VSA_FPOL>
0

>  <Q_VSA_FPOS>
1

>  <Q_VSA_FPPOS>
0

>  <Q_VSA_HYD>
289.28845

>  <Q_VSA_NEG>
0

>  <Q_VSA_PNEG>
0

>  <Q_VSA_POL>
0

>  <Q_VSA_POS>
289.28845

>  <Q_VSA_PPOS>
0

>  <radius>
5

>  <reactive>
1

>  <rings>
4

>  <RPC+>
0

>  <RPC->
0

>  <rsynth>
1

>  <SlogP>
3.83166

>  <SlogP_VSA0>
0

>  <SlogP_VSA1>
8.8119249

>  <SlogP_VSA2>
0

>  <SlogP_VSA3>
40.064732

>  <SlogP_VSA4>
34.777344

>  <SlogP_VSA5>
54.951168

>  <SlogP_VSA6>
0

>  <SlogP_VSA7>
104.03193

>  <SlogP_VSA8>
37.736813

>  <SlogP_VSA9>
31.277687

>  <SMR>
9.0486498

>  <SMR_VSA0>
23.862217

>  <SMR_VSA1>
3.1243138

>  <SMR_VSA2>
3.185575

>  <SMR_VSA3>
14.100701

>  <SMR_VSA4>
0

>  <SMR_VSA5>
160.63715

>  <SMR_VSA6>
42.566769

>  <SMR_VSA7>
64.174873

>  <TPSA>
20.309999

>  <VAdjEq>
0.47938794

>  <VAdjMa>
5.643856

>  <VDistEq>
2.9170001

>  <VDistMa>
8.6708145

>  <vdw_area>
289.28845

>  <vdw_vol>
428.52051

>  <vsa_acc>
13.566921

>  <vsa_acid>
0

>  <vsa_base>
0

>  <vsa_don>
0

>  <vsa_hyd>
253.73891

>  <vsa_other>
8.458519

>  <vsa_pol>
13.566921

>  <Weight>
309.43298

>  <weinerPath>
917

>  <weinerPol>
40

>  <zagreb>
122

$$$$