Clc1cc2[nH]c(O)cc2cc1CCN1CCN(CC1)c1nsc2c1cccc2
  MOE2013           2D

 28 32  0  0  0  0  0  0  0  0999 V2000
    0.0000    0.0000    0.0000 Cl  0  0  0  0  0  0  0  0  0  0  0  0
    0.0120   -1.5000    0.0000 C   0  0  0  0  0  0  0  0  0  0  0  0
    1.3180   -2.2390    0.0000 C   0  0  0  0  0  0  0  0  0  0  0  0
    1.3300   -3.7390    0.0000 C   0  0  0  0  0  0  0  0  0  0  0  0
    2.4530   -4.7340    0.0000 N   0  0  0  0  0  0  0  0  0  0  0  0
    1.8540   -6.1090    0.0000 C   0  0  0  0  0  0  0  0  0  0  0  0
    2.6150   -7.4020    0.0000 O   0  0  0  0  0  0  0  0  0  0  0  0
    0.3610   -5.9640    0.0000 C   0  0  0  0  0  0  0  0  0  0  0  0
    0.0370   -4.5000    0.0000 C   0  0  0  0  0  0  0  0  0  0  0  0
   -1.2680   -3.7610    0.0000 C   0  0  0  0  0  0  0  0  0  0  0  0
   -1.2800   -2.2610    0.0000 C   0  0  0  0  0  0  0  0  0  0  0  0
   -2.5860   -1.5220    0.0000 C   0  0  0  0  0  0  0  0  0  0  0  0
   -3.8780   -2.2820    0.0000 C   0  0  0  0  0  0  0  0  0  0  0  0
   -5.1840   -1.5430    0.0000 N   0  0  0  0  0  0  0  0  0  0  0  0
   -6.4760   -2.3040    0.0000 C   0  0  0  0  0  0  0  0  0  0  0  0
   -7.7820   -1.5650    0.0000 C   0  0  0  0  0  0  0  0  0  0  0  0
   -7.7940   -0.0650    0.0000 N   0  0  0  0  0  0  0  0  0  0  0  0
   -6.5010    0.6960    0.0000 C   0  0  0  0  0  0  0  0  0  0  0  0
   -5.1960   -0.0430    0.0000 C   0  0  0  0  0  0  0  0  0  0  0  0
   -9.0990    0.6750    0.0000 C   0  0  0  0  0  0  0  0  0  0  0  0
   -9.2680    2.1650    0.0000 N   0  0  0  0  0  0  0  0  0  0  0  0
  -10.7380    2.4650    0.0000 S   0  0  0  0  0  0  0  0  0  0  0  0
  -11.4770    1.1590    0.0000 C   0  0  0  0  0  0  0  0  0  0  0  0
  -10.4640    0.0530    0.0000 C   0  0  0  0  0  0  0  0  0  0  0  0
  -10.9160   -1.3770    0.0000 C   0  0  0  0  0  0  0  0  0  0  0  0
  -12.3810   -1.7010    0.0000 C   0  0  0  0  0  0  0  0  0  0  0  0
  -13.3940   -0.5950    0.0000 C   0  0  0  0  0  0  0  0  0  0  0  0
  -12.9420    0.8350    0.0000 C   0  0  0  0  0  0  0  0  0  0  0  0
  1  2  1  0  0  0  0
  2  3  1  0  0  0  0
  2 11  2  0  0  0  0
  3  4  2  0  0  0  0
  4  5  1  0  0  0  0
  4  9  1  0  0  0  0
  5  6  1  0  0  0  0
  6  7  1  0  0  0  0
  6  8  2  0  0  0  0
  8  9  1  0  0  0  0
  9 10  2  0  0  0  0
 10 11  1  0  0  0  0
 11 12  1  0  0  0  0
 12 13  1  0  0  0  0
 13 14  1  0  0  0  0
 14 15  1  0  0  0  0
 14 19  1  0  0  0  0
 15 16  1  0  0  0  0
 16 17  1  0  0  0  0
 17 18  1  0  0  0  0
 17 20  1  0  0  0  0
 18 19  1  0  0  0  0
 20 21  2  0  0  0  0
 20 24  1  0  0  0  0
 21 22  1  0  0  0  0
 22 23  1  0  0  0  0
 23 24  1  0  0  0  0
 23 28  2  0  0  0  0
 24 25  2  0  0  0  0
 25 26  1  0  0  0  0
 26 27  2  0  0  0  0
 27 28  1  0  0  0  0
M  END
>  <Index>
1765

>  <ID>
HT2216

>  <class>
1

>  <apol>
61.244652

>  <ast_fraglike>
0

>  <ast_fraglike_ext>
0

>  <ast_violation>
2

>  <ast_violation_ext>
3

>  <a_acc>
3

>  <a_acid>
0

>  <a_aro>
18

>  <a_base>
0

>  <a_count>
49

>  <a_don>
2

>  <a_donacc>
5

>  <a_heavy>
28

>  <a_hyd>
20

>  <a_IC>
82.643448

>  <a_ICM>
1.686601

>  <a_nB>
0

>  <a_nBr>
0

>  <a_nC>
21

>  <a_nCl>
1

>  <a_nF>
0

>  <a_nH>
21

>  <a_nI>
0

>  <a_nN>
4

>  <a_nO>
1

>  <a_nP>
0

>  <a_nS>
1

>  <balabanJ>
1.0667907

>  <BCUT_PEOE_0>
-2.7594645

>  <BCUT_PEOE_1>
-0.64084679

>  <BCUT_PEOE_2>
0.76157916

>  <BCUT_PEOE_3>
2.6651094

>  <BCUT_SLOGP_0>
-2.883595

>  <BCUT_SLOGP_1>
-0.51358616

>  <BCUT_SLOGP_2>
0.93194699

>  <BCUT_SLOGP_3>
2.5743408

>  <BCUT_SMR_0>
-2.4690735

>  <BCUT_SMR_1>
-0.42795497

>  <BCUT_SMR_2>
1.0587808

>  <BCUT_SMR_3>
2.9509122

>  <bpol>
31.597347

>  <b_1rotN>
4

>  <b_1rotR>
0.125

>  <b_ar>
20

>  <b_count>
53

>  <b_double>
0

>  <b_heavy>
32

>  <b_max1len>
3

>  <b_rotN>
4

>  <b_rotR>
0.125

>  <b_single>
33

>  <b_triple>
0

>  <chi0>
19.087212

>  <chi0v>
16.931585

>  <chi0v_C>
12.284093

>  <chi0_C>
13.811191

>  <chi1>
13.669836

>  <chi1v>
10.641955

>  <chi1v_C>
6.1629543

>  <chi1_C>
8.0075684

>  <chiral>
0

>  <chiral_u>
0

>  <density>
0.78793693

>  <diameter>
16

>  <FCharge>
0

>  <GCUT_PEOE_0>
-0.85264647

>  <GCUT_PEOE_1>
-0.41613835

>  <GCUT_PEOE_2>
0.11196075

>  <GCUT_PEOE_3>
2.7314889

>  <GCUT_SLOGP_0>
-0.98684579

>  <GCUT_SLOGP_1>
-0.29441285

>  <GCUT_SLOGP_2>
0.25461337

>  <GCUT_SLOGP_3>
2.7968056

>  <GCUT_SMR_0>
-0.51507533

>  <GCUT_SMR_1>
-0.18168105

>  <GCUT_SMR_2>
0.32898617

>  <GCUT_SMR_3>
3.021131

>  <Kier1>
19.933594

>  <Kier2>
8.6257086

>  <Kier3>
4.2579994

>  <KierA1>
16.81971

>  <KierA2>
7.2300377

>  <KierA3>
3.5521953

>  <KierFlex>
4.343112

>  <lip_acc>
5

>  <lip_don>
2

>  <lip_druglike>
1

>  <lip_violation>
0

>  <logP(o/w)>
5.3699999

>  <logS>
-5.0212798

>  <mr>
11.484219

>  <mutagenic>
0

>  <nmol>
1

>  <opr_brigid>
26

>  <opr_leadlike>
0

>  <opr_nring>
5

>  <opr_nrot>
6

>  <opr_violation>
2

>  <PC+>
0

>  <PC->
0

>  <PEOE_PC+>
2.0063434

>  <PEOE_PC->
-2.0063434

>  <PEOE_RPC+>
0.12588355

>  <PEOE_RPC->
0.17225027

>  <PEOE_VSA+0>
132.78264

>  <PEOE_VSA+1>
29.857702

>  <PEOE_VSA+2>
24.140093

>  <PEOE_VSA+3>
8.6190128

>  <PEOE_VSA+4>
10.324173

>  <PEOE_VSA+5>
23.353428

>  <PEOE_VSA+6>
0

>  <PEOE_VSA-0>
51.859165

>  <PEOE_VSA-1>
78.601562

>  <PEOE_VSA-2>
0

>  <PEOE_VSA-3>
0

>  <PEOE_VSA-4>
0

>  <PEOE_VSA-5>
8.0752068

>  <PEOE_VSA-6>
7.9044313

>  <PEOE_VSA_FHYD>
0.86776316

>  <PEOE_VSA_FNEG>
0.38996959

>  <PEOE_VSA_FPNEG>
0.042553652

>  <PEOE_VSA_FPOL>
0.13223685

>  <PEOE_VSA_FPOS>
0.61003041

>  <PEOE_VSA_FPPOS>
0.08968319

>  <PEOE_VSA_HYD>
325.86017

>  <PEOE_VSA_NEG>
146.44037

>  <PEOE_VSA_PNEG>
15.979638

>  <PEOE_VSA_POL>
49.657238

>  <PEOE_VSA_POS>
229.07704

>  <PEOE_VSA_PPOS>
33.677601

>  <petitjean>
0.5

>  <petitjeanSC>
1

>  <Q_PC+>
0

>  <Q_PC->
0

>  <Q_RPC+>
0

>  <Q_RPC->
0

>  <Q_VSA_FHYD>
1

>  <Q_VSA_FNEG>
0

>  <Q_VSA_FPNEG>
0

>  <Q_VSA_FPOL>
0

>  <Q_VSA_FPOS>
1

>  <Q_VSA_FPPOS>
0

>  <Q_VSA_HYD>
375.5174

>  <Q_VSA_NEG>
0

>  <Q_VSA_PNEG>
0

>  <Q_VSA_POL>
0

>  <Q_VSA_POS>
375.5174

>  <Q_VSA_PPOS>
0

>  <radius>
8

>  <reactive>
0

>  <rings>
5

>  <RPC+>
0

>  <RPC->
0

>  <rsynth>
1

>  <SlogP>
4.5012698

>  <SlogP_VSA0>
28.509541

>  <SlogP_VSA1>
18.100336

>  <SlogP_VSA2>
16.78553

>  <SlogP_VSA3>
92.197891

>  <SlogP_VSA4>
3.185575

>  <SlogP_VSA5>
18.868406

>  <SlogP_VSA6>
3.5006065

>  <SlogP_VSA7>
131.53815

>  <SlogP_VSA8>
0

>  <SlogP_VSA9>
77.343124

>  <SMR>
11.69505

>  <SMR_VSA0>
0

>  <SMR_VSA1>
43.485561

>  <SMR_VSA2>
19.909843

>  <SMR_VSA3>
11.500782

>  <SMR_VSA4>
10.363776

>  <SMR_VSA5>
142.3707

>  <SMR_VSA6>
92.197891

>  <SMR_VSA7>
70.200607

>  <TPSA>
55.389999

>  <VAdjEq>
0.40790597

>  <VAdjMa>
6

>  <VDistEq>
3.7614665

>  <VDistMa>
9.2720861

>  <vdw_area>
375.5174

>  <vdw_vol>
524.0838

>  <vsa_acc>
8.0752068

>  <vsa_acid>
0

>  <vsa_base>
0

>  <vsa_don>
5.6825762

>  <vsa_hyd>
279.57697

>  <vsa_other>
47.493523

>  <vsa_pol>
27.324703

>  <Weight>
412.94501

>  <weinerPath>
2344

>  <weinerPol>
44

>  <zagreb>
156

$$$$