O(C)c1cc(ccc1)[C@]1(O)CCCC[C@H]1CN(C)C
  MOE2013           2D

 19 20  0  0  1  0  0  0  0  0999 V2000
    0.0000    0.0000    0.0000 O   0  0  0  0  0  0  0  0  0  0  0  0
    1.2940   -0.7590    0.0000 C   0  0  0  0  0  0  0  0  0  0  0  0
   -1.3040   -0.7410    0.0000 C   0  0  0  0  0  0  0  0  0  0  0  0
   -2.5980    0.0180    0.0000 C   0  0  0  0  0  0  0  0  0  0  0  0
   -3.9020   -0.7220    0.0000 C   0  0  0  0  0  0  0  0  0  0  0  0
   -3.9130   -2.2220    0.0000 C   0  0  0  0  0  0  0  0  0  0  0  0
   -2.6190   -2.9820    0.0000 C   0  0  0  0  0  0  0  0  0  0  0  0
   -1.3150   -2.2410    0.0000 C   0  0  0  0  0  0  0  0  0  0  0  0
   -5.1960    0.0370    0.0000 C   0  0  2  0  0  0  0  0  0  0  0  0
   -5.2070   -1.4630    0.0000 O   0  0  0  0  0  0  0  0  0  0  0  0
   -4.4370    1.3300    0.0000 C   0  0  0  0  0  0  0  0  0  0  0  0
   -5.1780    2.6350    0.0000 C   0  0  0  0  0  0  0  0  0  0  0  0
   -6.6780    2.6450    0.0000 C   0  0  0  0  0  0  0  0  0  0  0  0
   -7.4370    1.3520    0.0000 C   0  0  0  0  0  0  0  0  0  0  0  0
   -6.6960    0.0470    0.0000 C   0  0  1  0  0  0  0  0  0  0  0  0
   -7.4550   -1.2460    0.0000 C   0  0  0  0  0  0  0  0  0  0  0  0
   -8.9550   -1.2360    0.0000 N   0  0  0  0  0  0  0  0  0  0  0  0
   -9.7140   -2.5290    0.0000 C   0  0  0  0  0  0  0  0  0  0  0  0
   -9.6960    0.0690    0.0000 C   0  0  0  0  0  0  0  0  0  0  0  0
  1  2  1  0  0  0  0
  1  3  1  0  0  0  0
  3  4  2  0  0  0  0
  3  8  1  0  0  0  0
  4  5  1  0  0  0  0
  5  6  2  0  0  0  0
  6  7  1  0  0  0  0
  7  8  2  0  0  0  0
  9  5  1  1  0  0  0
  9 10  1  6  0  0  0
  9 11  1  0  0  0  0
  9 15  1  0  0  0  0
 11 12  1  0  0  0  0
 12 13  1  0  0  0  0
 13 14  1  0  0  0  0
 14 15  1  0  0  0  0
 15 16  1  6  0  0  0
 16 17  1  0  0  0  0
 17 18  1  0  0  0  0
 17 19  1  0  0  0  0
M  END
>  <Index>
1750

>  <ID>
HT2095

>  <class>
1

>  <apol>
47.533825

>  <ast_fraglike>
1

>  <ast_fraglike_ext>
0

>  <ast_violation>
0

>  <ast_violation_ext>
1

>  <a_acc>
3

>  <a_acid>
0

>  <a_aro>
6

>  <a_base>
0

>  <a_count>
44

>  <a_don>
1

>  <a_donacc>
4

>  <a_heavy>
19

>  <a_hyd>
16

>  <a_IC>
58.118587

>  <a_ICM>
1.320877

>  <a_nB>
0

>  <a_nBr>
0

>  <a_nC>
16

>  <a_nCl>
0

>  <a_nF>
0

>  <a_nH>
25

>  <a_nI>
0

>  <a_nN>
1

>  <a_nO>
2

>  <a_nP>
0

>  <a_nS>
0

>  <balabanJ>
2.0790799

>  <BCUT_PEOE_0>
-2.8225174

>  <BCUT_PEOE_1>
-0.45643783

>  <BCUT_PEOE_2>
0.44975436

>  <BCUT_PEOE_3>
2.7923439

>  <BCUT_SLOGP_0>
-2.7723312

>  <BCUT_SLOGP_1>
-0.38949579

>  <BCUT_SLOGP_2>
0.52831459

>  <BCUT_SLOGP_3>
2.899123

>  <BCUT_SMR_0>
-2.5747361

>  <BCUT_SMR_1>
-0.2814132

>  <BCUT_SMR_2>
0.6299572

>  <BCUT_SMR_3>
3.0371554

>  <bpol>
31.226175

>  <b_1rotN>
4

>  <b_1rotR>
0.2

>  <b_ar>
6

>  <b_count>
45

>  <b_double>
0

>  <b_heavy>
20

>  <b_max1len>
5

>  <b_rotN>
4

>  <b_rotR>
0.2

>  <b_single>
39

>  <b_triple>
0

>  <chi0>
13.880469

>  <chi0v>
12.22496

>  <chi0v_C>
10.922285

>  <chi0_C>
11.596012

>  <chi1>
9.0586977

>  <chi1v>
7.0767264

>  <chi1v_C>
5.0300922

>  <chi1_C>
5.8803935

>  <chiral>
2

>  <chiral_u>
0

>  <density>
0.66451257

>  <diameter>
9

>  <FCharge>
0

>  <GCUT_PEOE_0>
-0.86332679

>  <GCUT_PEOE_1>
-0.3533805

>  <GCUT_PEOE_2>
-0.051929321

>  <GCUT_PEOE_3>
2.8446999

>  <GCUT_SLOGP_0>
-0.95449537

>  <GCUT_SLOGP_1>
-0.29687047

>  <GCUT_SLOGP_2>
0.061854515

>  <GCUT_SLOGP_3>
2.9392762

>  <GCUT_SMR_0>
-0.52791935

>  <GCUT_SMR_1>
-0.17350405

>  <GCUT_SMR_2>
0.10442575

>  <GCUT_SMR_3>
3.0816934

>  <Kier1>
15.39

>  <Kier2>
6.6352043

>  <Kier3>
3.5555556

>  <KierA1>
13.506868

>  <KierA2>
5.7785487

>  <KierA3>
3.0779209

>  <KierFlex>
4.1079001

>  <lip_acc>
3

>  <lip_don>
1

>  <lip_druglike>
1

>  <lip_violation>
0

>  <logP(o/w)>
3.1440001

>  <logS>
-2.4498701

>  <mr>
7.7881174

>  <mutagenic>
0

>  <nmol>
1

>  <opr_brigid>
12

>  <opr_leadlike>
1

>  <opr_nring>
2

>  <opr_nrot>
6

>  <opr_violation>
0

>  <PC+>
0

>  <PC->
0

>  <PEOE_PC+>
1.4194058

>  <PEOE_PC->
-1.4194058

>  <PEOE_RPC+>
0.14839225

>  <PEOE_RPC->
0.27027878

>  <PEOE_VSA+0>
110.70155

>  <PEOE_VSA+1>
38.316223

>  <PEOE_VSA+2>
0

>  <PEOE_VSA+3>
0

>  <PEOE_VSA+4>
10.324173

>  <PEOE_VSA+5>
0

>  <PEOE_VSA+6>
0

>  <PEOE_VSA-0>
90.598351

>  <PEOE_VSA-1>
41.912434

>  <PEOE_VSA-2>
0

>  <PEOE_VSA-3>
0

>  <PEOE_VSA-4>
0

>  <PEOE_VSA-5>
0

>  <PEOE_VSA-6>
10.271297

>  <PEOE_VSA_FHYD>
0.93183106

>  <PEOE_VSA_FNEG>
0.47259426

>  <PEOE_VSA_FPNEG>
0.033996955

>  <PEOE_VSA_FPOL>
0.068168923

>  <PEOE_VSA_FPOS>
0.52740574

>  <PEOE_VSA_FPPOS>
0.034171969

>  <PEOE_VSA_HYD>
281.52856

>  <PEOE_VSA_NEG>
142.78209

>  <PEOE_VSA_PNEG>
10.271297

>  <PEOE_VSA_POL>
20.595469

>  <PEOE_VSA_POS>
159.34193

>  <PEOE_VSA_PPOS>
10.324173

>  <petitjean>
0.44444445

>  <petitjeanSC>
0.80000001

>  <Q_PC+>
0

>  <Q_PC->
0

>  <Q_RPC+>
0

>  <Q_RPC->
0

>  <Q_VSA_FHYD>
1

>  <Q_VSA_FNEG>
0

>  <Q_VSA_FPNEG>
0

>  <Q_VSA_FPOL>
0

>  <Q_VSA_FPOS>
1

>  <Q_VSA_FPPOS>
0

>  <Q_VSA_HYD>
302.12402

>  <Q_VSA_NEG>
0

>  <Q_VSA_PNEG>
0

>  <Q_VSA_POL>
0

>  <Q_VSA_POS>
302.12402

>  <Q_VSA_PPOS>
0

>  <radius>
5

>  <reactive>
0

>  <rings>
2

>  <RPC+>
0

>  <RPC->
0

>  <rsynth>
0.10526316

>  <SlogP>
2.9461

>  <SlogP_VSA0>
36.385113

>  <SlogP_VSA1>
3.1243138

>  <SlogP_VSA2>
0

>  <SlogP_VSA3>
18.439579

>  <SlogP_VSA4>
7.5963712

>  <SlogP_VSA5>
101.17825

>  <SlogP_VSA6>
0

>  <SlogP_VSA7>
70.572739

>  <SlogP_VSA8>
75.473625

>  <SlogP_VSA9>
5.2434282

>  <SMR>
7.7519798

>  <SMR_VSA0>
0

>  <SMR_VSA1>
39.50943

>  <SMR_VSA2>
4.4107962

>  <SMR_VSA3>
8.4290028

>  <SMR_VSA4>
0

>  <SMR_VSA5>
146.04636

>  <SMR_VSA6>
18.439579

>  <SMR_VSA7>
101.17825

>  <TPSA>
32.700001

>  <VAdjEq>
0.5023343

>  <VAdjMa>
5.321928

>  <VDistEq>
2.9294708

>  <VDistMa>
8.2267971

>  <vdw_area>
302.12402

>  <vdw_vol>
396.35214

>  <vsa_acc>
2.503756

>  <vsa_acid>
0

>  <vsa_base>
0

>  <vsa_don>
0

>  <vsa_hyd>
263.1004

>  <vsa_other>
0

>  <vsa_pol>
16.070677

>  <Weight>
263.38098

>  <weinerPath>
670

>  <weinerPol>
30

>  <zagreb>
96

$$$$