Oc1c([N+](=O)[O-])cc(cc1O)C=C(C(=O)N(CC)CC)/C#N
  MOE2013           2D

 22 22  0  0  0  0  0  0  0  0999 V2000
    0.0000    0.0000    0.0000 O   0  0  0  0  0  0  0  0  0  0  0  0
    1.5000   -0.0120    0.0000 C   0  0  0  0  0  0  0  0  0  0  0  0
    2.2400   -1.3170    0.0000 C   0  0  0  0  0  0  0  0  0  0  0  0
    1.4790   -2.6100    0.0000 N   0  3  0  0  0  0  0  0  0  0  0  0
    2.2190   -3.9150    0.0000 O   0  0  0  0  0  0  0  0  0  0  0  0
   -0.0210   -2.5980    0.0000 O   0  5  0  0  0  0  0  0  0  0  0  0
    3.7400   -1.3290    0.0000 C   0  0  0  0  0  0  0  0  0  0  0  0
    4.5000   -0.0360    0.0000 C   0  0  0  0  0  0  0  0  0  0  0  0
    3.7600    1.2690    0.0000 C   0  0  0  0  0  0  0  0  0  0  0  0
    2.2600    1.2810    0.0000 C   0  0  0  0  0  0  0  0  0  0  0  0
    1.5210    2.5860    0.0000 O   0  0  0  0  0  0  0  0  0  0  0  0
    6.0000   -0.0480    0.0000 C   0  0  0  0  0  0  0  0  0  0  0  0
    6.7600    1.2450    0.0000 C   0  0  0  0  0  0  0  0  0  0  0  0
    8.2600    1.2330    0.0000 C   0  0  0  0  0  0  0  0  0  0  0  0
    9.0000   -0.0720    0.0000 O   0  0  0  0  0  0  0  0  0  0  0  0
    9.0200    2.5260    0.0000 N   0  0  0  0  0  0  0  0  0  0  0  0
    8.2810    3.8310    0.0000 C   0  0  0  0  0  0  0  0  0  0  0  0
    9.0410    5.1240    0.0000 C   0  0  0  0  0  0  0  0  0  0  0  0
   10.5200    2.5140    0.0000 C   0  0  0  0  0  0  0  0  0  0  0  0
   11.2810    3.8070    0.0000 C   0  0  0  0  0  0  0  0  0  0  0  0
    6.0200    2.5500    0.0000 C   0  0  0  0  0  0  0  0  0  0  0  0
    5.2810    3.8550    0.0000 N   0  0  0  0  0  0  0  0  0  0  0  0
  1  2  1  0  0  0  0
  2  3  1  0  0  0  0
  2 10  2  0  0  0  0
  3  4  1  0  0  0  0
  3  7  2  0  0  0  0
  4  5  2  0  0  0  0
  4  6  1  0  0  0  0
  7  8  1  0  0  0  0
  8  9  2  0  0  0  0
  8 12  1  0  0  0  0
  9 10  1  0  0  0  0
 10 11  1  0  0  0  0
 12 13  2  3  0  0  0
 13 14  1  0  0  0  0
 13 21  1  0  0  0  0
 14 15  2  0  0  0  0
 14 16  1  0  0  0  0
 16 17  1  0  0  0  0
 16 19  1  0  0  0  0
 17 18  1  0  0  0  0
 19 20  1  0  0  0  0
 21 22  3  0  0  0  0
M  CHG  1   4   1
M  CHG  1   6  -1
M  END
>  <Index>
1548

>  <ID>
HT0763

>  <class>
1

>  <apol>
41.951897

>  <ast_fraglike>
0

>  <ast_fraglike_ext>
0

>  <ast_violation>
2

>  <ast_violation_ext>
3

>  <a_acc>
4

>  <a_acid>
0

>  <a_aro>
6

>  <a_base>
0

>  <a_count>
37

>  <a_don>
2

>  <a_donacc>
6

>  <a_heavy>
22

>  <a_hyd>
13

>  <a_IC>
64.47892

>  <a_ICM>
1.7426735

>  <a_nB>
0

>  <a_nBr>
0

>  <a_nC>
14

>  <a_nCl>
0

>  <a_nF>
0

>  <a_nH>
15

>  <a_nI>
0

>  <a_nN>
3

>  <a_nO>
5

>  <a_nP>
0

>  <a_nS>
0

>  <balabanJ>
2.7105737

>  <BCUT_PEOE_0>
-2.5853021

>  <BCUT_PEOE_1>
-0.38786542

>  <BCUT_PEOE_2>
0.58893764

>  <BCUT_PEOE_3>
2.5059659

>  <BCUT_SLOGP_0>
-2.6513965

>  <BCUT_SLOGP_1>
-0.37049004

>  <BCUT_SLOGP_2>
0.46788529

>  <BCUT_SLOGP_3>
2.4833877

>  <BCUT_SMR_0>
-2.3076046

>  <BCUT_SMR_1>
-0.24170323

>  <BCUT_SMR_2>
0.70952606

>  <BCUT_SMR_3>
2.7783306

>  <bpol>
21.252106

>  <b_1rotN>
6

>  <b_1rotR>
0.27272728

>  <b_ar>
6

>  <b_count>
37

>  <b_double>
3

>  <b_heavy>
22

>  <b_max1len>
6

>  <b_rotN>
7

>  <b_rotR>
0.31818181

>  <b_single>
27

>  <b_triple>
1

>  <chi0>
16.861443

>  <chi0v>
12.107078

>  <chi0v_C>
8.6462641

>  <chi0_C>
9.7067423

>  <chi1>
10.348973

>  <chi1v>
6.4660263

>  <chi1v_C>
4.1462646

>  <chi1_C>
5.2719517

>  <chiral>
0

>  <chiral_u>
0

>  <density>
0.8046

>  <diameter>
10

>  <FCharge>
0

>  <GCUT_PEOE_0>
-0.85045522

>  <GCUT_PEOE_1>
-0.41825923

>  <GCUT_PEOE_2>
0.14226671

>  <GCUT_PEOE_3>
2.4318223

>  <GCUT_SLOGP_0>
-0.96250021

>  <GCUT_SLOGP_1>
-0.33207718

>  <GCUT_SLOGP_2>
0.044072244

>  <GCUT_SLOGP_3>
2.5060337

>  <GCUT_SMR_0>
-0.51657993

>  <GCUT_SMR_1>
-0.16350573

>  <GCUT_SMR_2>
0.23959793

>  <GCUT_SMR_3>
2.6877432

>  <Kier1>
20.045454

>  <Kier2>
9.333333

>  <Kier3>
5.2631578

>  <KierA1>
14.166013

>  <KierA2>
6.477015

>  <KierA3>
3.6044707

>  <KierFlex>
4.1706128

>  <lip_acc>
8

>  <lip_don>
2

>  <lip_druglike>
1

>  <lip_violation>
0

>  <logP(o/w)>
1.523

>  <logS>
-3.0385499

>  <mr>
7.7851639

>  <mutagenic>
1

>  <nmol>
1

>  <opr_brigid>
7

>  <opr_leadlike>
1

>  <opr_nring>
1

>  <opr_nrot>
6

>  <opr_violation>
0

>  <PC+>
0

>  <PC->
0

>  <PEOE_PC+>
2.1844127

>  <PEOE_PC->
-2.1844127

>  <PEOE_RPC+>
0.13897549

>  <PEOE_RPC->
0.16347657

>  <PEOE_VSA+0>
81.293411

>  <PEOE_VSA+1>
16.824192

>  <PEOE_VSA+2>
30.966566

>  <PEOE_VSA+3>
8.458519

>  <PEOE_VSA+4>
20.648346

>  <PEOE_VSA+5>
12.949531

>  <PEOE_VSA+6>
6.6995511

>  <PEOE_VSA-0>
64.213699

>  <PEOE_VSA-1>
0

>  <PEOE_VSA-2>
0

>  <PEOE_VSA-3>
17.742489

>  <PEOE_VSA-4>
0

>  <PEOE_VSA-5>
47.497971

>  <PEOE_VSA-6>
15.535081

>  <PEOE_VSA_FHYD>
0.67992228

>  <PEOE_VSA_FNEG>
0.44912037

>  <PEOE_VSA_FPNEG>
0.19525191

>  <PEOE_VSA_FPOL>
0.32007769

>  <PEOE_VSA_FPOS>
0.55087966

>  <PEOE_VSA_FPPOS>
0.12482578

>  <PEOE_VSA_HYD>
219.49889

>  <PEOE_VSA_NEG>
144.98924

>  <PEOE_VSA_PNEG>
63.033051

>  <PEOE_VSA_POL>
103.33047

>  <PEOE_VSA_POS>
177.84012

>  <PEOE_VSA_PPOS>
40.297428

>  <petitjean>
0.5

>  <petitjeanSC>
1

>  <Q_PC+>
0

>  <Q_PC->
0

>  <Q_RPC+>
0

>  <Q_RPC->
0

>  <Q_VSA_FHYD>
1

>  <Q_VSA_FNEG>
0

>  <Q_VSA_FPNEG>
0

>  <Q_VSA_FPOL>
0

>  <Q_VSA_FPOS>
1

>  <Q_VSA_FPPOS>
0

>  <Q_VSA_HYD>
322.82935

>  <Q_VSA_NEG>
0

>  <Q_VSA_PNEG>
0

>  <Q_VSA_POL>
0

>  <Q_VSA_POS>
322.82935

>  <Q_VSA_PPOS>
0

>  <radius>
5

>  <reactive>
1

>  <rings>
1

>  <RPC+>
0

>  <RPC->
0

>  <rsynth>
1

>  <SlogP>
1.781384

>  <SlogP_VSA0>
50.770454

>  <SlogP_VSA1>
15.468714

>  <SlogP_VSA2>
23.862217

>  <SlogP_VSA3>
135.47527

>  <SlogP_VSA4>
3.185575

>  <SlogP_VSA5>
3.185575

>  <SlogP_VSA6>
0

>  <SlogP_VSA7>
35.286369

>  <SlogP_VSA8>
17.643185

>  <SlogP_VSA9>
79.89563

>  <SMR>
7.7944002

>  <SMR_VSA0>
30.947832

>  <SMR_VSA1>
84.954124

>  <SMR_VSA2>
50.935009

>  <SMR_VSA3>
33.459751

>  <SMR_VSA4>
2.7567475

>  <SMR_VSA5>
35.286369

>  <SMR_VSA6>
59.781124

>  <SMR_VSA7>
66.652031

>  <TPSA>
130.38

>  <VAdjEq>
0.43949699

>  <VAdjMa>
5.4594316

>  <VDistEq>
3.2057149

>  <VDistMa>
8.6419821

>  <vdw_area>
322.82935

>  <vdw_vol>
379.43076

>  <vsa_acc>
31.30941

>  <vsa_acid>
0

>  <vsa_base>
0

>  <vsa_don>
0

>  <vsa_hyd>
178.90309

>  <vsa_other>
67.180084

>  <vsa_pol>
58.443253

>  <Weight>
305.29001

>  <weinerPath>
1078

>  <weinerPol>
35

>  <zagreb>
104

$$$$