Oc1cc2CC[C@H]3[C@@H]4CC[C@@](O)(C#C)[C@]4(CC[C@@H]3c2cc1)C
  MOE2013           2D

 22 25  0  0  1  0  0  0  0  0999 V2000
    0.0000    0.0000    0.0000 O   0  0  0  0  0  0  0  0  0  0  0  0
   -1.5000    0.0040    0.0000 C   0  0  0  0  0  0  0  0  0  0  0  0
   -2.2460    1.3060    0.0000 C   0  0  0  0  0  0  0  0  0  0  0  0
   -3.7460    1.3100    0.0000 C   0  0  0  0  0  0  0  0  0  0  0  0
   -4.4920    2.6110    0.0000 C   0  0  0  0  0  0  0  0  0  0  0  0
   -5.9920    2.6160    0.0000 C   0  0  0  0  0  0  0  0  0  0  0  0
   -6.7460    1.3190    0.0000 C   0  0  1  0  0  0  0  0  0  0  0  0
   -8.2460    1.3230    0.0000 C   0  0  2  0  0  0  0  0  0  0  0  0
   -9.2470    2.4410    0.0000 C   0  0  0  0  0  0  0  0  0  0  0  0
  -10.6190    1.8350    0.0000 C   0  0  0  0  0  0  0  0  0  0  0  0
  -10.4660    0.3420    0.0000 C   0  0  1  0  0  0  0  0  0  0  0  0
  -10.8590   -1.1050    0.0000 O   0  0  0  0  0  0  0  0  0  0  0  0
  -11.9290    0.0090    0.0000 C   0  0  0  0  0  0  0  0  0  0  0  0
  -13.3910   -0.3240    0.0000 C   0  0  0  0  0  0  0  0  0  0  0  0
   -9.0000    0.0260    0.0000 C   0  0  1  0  0  0  0  0  0  0  0  0
   -8.2540   -1.2750    0.0000 C   0  0  0  0  0  0  0  0  0  0  0  0
   -6.7540   -1.2790    0.0000 C   0  0  0  0  0  0  0  0  0  0  0  0
   -6.0000    0.0180    0.0000 C   0  0  2  0  0  0  0  0  0  0  0  0
   -4.5000    0.0130    0.0000 C   0  0  0  0  0  0  0  0  0  0  0  0
   -3.7540   -1.2880    0.0000 C   0  0  0  0  0  0  0  0  0  0  0  0
   -2.2540   -1.2920    0.0000 C   0  0  0  0  0  0  0  0  0  0  0  0
   -9.8850   -1.1850    0.0000 C   0  0  0  0  0  0  0  0  0  0  0  0
  1  2  1  0  0  0  0
  2  3  1  0  0  0  0
  2 21  2  0  0  0  0
  3  4  2  0  0  0  0
  4  5  1  0  0  0  0
  4 19  1  0  0  0  0
  5  6  1  0  0  0  0
  7  6  1  6  0  0  0
  7  8  1  0  0  0  0
  7 18  1  0  0  0  0
  8  9  1  1  0  0  0
  8 15  1  0  0  0  0
  9 10  1  0  0  0  0
 10 11  1  0  0  0  0
 11 12  1  1  0  0  0
 11 13  1  6  0  0  0
 11 15  1  0  0  0  0
 13 14  3  0  0  0  0
 15 16  1  0  0  0  0
 15 22  1  1  0  0  0
 16 17  1  0  0  0  0
 18 17  1  1  0  0  0
 18 19  1  0  0  0  0
 19 20  2  0  0  0  0
 20 21  1  0  0  0  0
M  END
>  <Index>
1560

>  <ID>
HT0808

>  <class>
1

>  <apol>
52.807034

>  <ast_fraglike>
0

>  <ast_fraglike_ext>
0

>  <ast_violation>
1

>  <ast_violation_ext>
1

>  <a_acc>
2

>  <a_acid>
0

>  <a_aro>
6

>  <a_base>
0

>  <a_count>
46

>  <a_don>
2

>  <a_donacc>
4

>  <a_heavy>
22

>  <a_hyd>
20

>  <a_IC>
55.60619

>  <a_ICM>
1.2088301

>  <a_nB>
0

>  <a_nBr>
0

>  <a_nC>
20

>  <a_nCl>
0

>  <a_nF>
0

>  <a_nH>
24

>  <a_nI>
0

>  <a_nN>
0

>  <a_nO>
2

>  <a_nP>
0

>  <a_nS>
0

>  <balabanJ>
1.5814986

>  <BCUT_PEOE_0>
-2.8824177

>  <BCUT_PEOE_1>
-0.57627642

>  <BCUT_PEOE_2>
0.63652807

>  <BCUT_PEOE_3>
2.9363711

>  <BCUT_SLOGP_0>
-2.8057826

>  <BCUT_SLOGP_1>
-0.61267513

>  <BCUT_SLOGP_2>
0.64595401

>  <BCUT_SLOGP_3>
3.0056298

>  <BCUT_SMR_0>
-2.6298041

>  <BCUT_SMR_1>
-0.43044993

>  <BCUT_SMR_2>
0.77529645

>  <BCUT_SMR_3>
3.1828749

>  <bpol>
26.236967

>  <b_1rotN>
0

>  <b_1rotR>
0

>  <b_ar>
6

>  <b_count>
49

>  <b_double>
0

>  <b_heavy>
25

>  <b_max1len>
3

>  <b_rotN>
1

>  <b_rotR>
0.039999999

>  <b_single>
42

>  <b_triple>
1

>  <chi0>
15.53517

>  <chi0v>
13.17852

>  <chi0v_C>
12.284093

>  <chi0_C>
13.53517

>  <chi1>
10.483112

>  <chi1v>
8.5033445

>  <chi1v_C>
8.0561314

>  <chi1_C>
9.4057617

>  <chiral>
5

>  <chiral_u>
0

>  <density>
0.68229443

>  <diameter>
11

>  <FCharge>
0

>  <GCUT_PEOE_0>
-0.79152739

>  <GCUT_PEOE_1>
-0.3964678

>  <GCUT_PEOE_2>
0.05747506

>  <GCUT_PEOE_3>
3.1384826

>  <GCUT_SLOGP_0>
-0.88819593

>  <GCUT_SLOGP_1>
-0.32358333

>  <GCUT_SLOGP_2>
0.11626016

>  <GCUT_SLOGP_3>
3.2301691

>  <GCUT_SMR_0>
-0.53540993

>  <GCUT_SMR_1>
-0.2291801

>  <GCUT_SMR_2>
0.17923997

>  <GCUT_SMR_3>
3.3753328

>  <Kier1>
15.5232

>  <Kier2>
5.25

>  <Kier3>
2.1111112

>  <KierA1>
13.008226

>  <KierA2>
4.3601103

>  <KierA3>
1.7418888

>  <KierFlex>
2.5780592

>  <lip_acc>
2

>  <lip_don>
2

>  <lip_druglike>
1

>  <lip_violation>
0

>  <logP(o/w)>
4.223

>  <logS>
-5.1370401

>  <mr>
8.6531601

>  <mutagenic>
0

>  <nmol>
1

>  <opr_brigid>
21

>  <opr_leadlike>
1

>  <opr_nring>
4

>  <opr_nrot>
1

>  <opr_violation>
0

>  <PC+>
0

>  <PC->
0

>  <PEOE_PC+>
1.4663695

>  <PEOE_PC->
-1.4663695

>  <PEOE_RPC+>
0.14819826

>  <PEOE_RPC->
0.25640723

>  <PEOE_VSA+0>
76.776947

>  <PEOE_VSA+1>
21.254677

>  <PEOE_VSA+2>
4.2653861

>  <PEOE_VSA+3>
0

>  <PEOE_VSA+4>
20.648346

>  <PEOE_VSA+5>
0

>  <PEOE_VSA+6>
0

>  <PEOE_VSA-0>
81.134766

>  <PEOE_VSA-1>
46.811077

>  <PEOE_VSA-2>
25.854858

>  <PEOE_VSA-3>
0

>  <PEOE_VSA-4>
0

>  <PEOE_VSA-5>
0

>  <PEOE_VSA-6>
15.535081

>  <PEOE_VSA_FHYD>
0.87620336

>  <PEOE_VSA_FNEG>
0.57935923

>  <PEOE_VSA_FPNEG>
0.053151157

>  <PEOE_VSA_FPOL>
0.12379665

>  <PEOE_VSA_FPOS>
0.42064074

>  <PEOE_VSA_FPPOS>
0.070645496

>  <PEOE_VSA_HYD>
256.09772

>  <PEOE_VSA_NEG>
169.33578

>  <PEOE_VSA_PNEG>
15.535081

>  <PEOE_VSA_POL>
36.183426

>  <PEOE_VSA_POS>
122.94536

>  <PEOE_VSA_PPOS>
20.648346

>  <petitjean>
0.45454547

>  <petitjeanSC>
0.83333331

>  <Q_PC+>
0

>  <Q_PC->
0

>  <Q_RPC+>
0

>  <Q_RPC->
0

>  <Q_VSA_FHYD>
1

>  <Q_VSA_FNEG>
0

>  <Q_VSA_FPNEG>
0

>  <Q_VSA_FPOL>
0

>  <Q_VSA_FPOS>
1

>  <Q_VSA_FPPOS>
0

>  <Q_VSA_HYD>
292.28113

>  <Q_VSA_NEG>
0

>  <Q_VSA_PNEG>
0

>  <Q_VSA_POL>
0

>  <Q_VSA_POS>
292.28113

>  <Q_VSA_PPOS>
0

>  <radius>
6

>  <reactive>
0

>  <rings>
4

>  <RPC+>
0

>  <RPC->
0

>  <rsynth>
0.31818181

>  <SlogP>
3.6125779

>  <SlogP_VSA0>
50.770454

>  <SlogP_VSA1>
0

>  <SlogP_VSA2>
0

>  <SlogP_VSA3>
17.030573

>  <SlogP_VSA4>
46.680923

>  <SlogP_VSA5>
18.868406

>  <SlogP_VSA6>
4.4107962

>  <SlogP_VSA7>
52.929554

>  <SlogP_VSA8>
94.342026

>  <SlogP_VSA9>
38.569443

>  <SMR>
8.6506596

>  <SMR_VSA0>
0

>  <SMR_VSA1>
50.770454

>  <SMR_VSA2>
8.8215923

>  <SMR_VSA3>
33.055946

>  <SMR_VSA4>
0

>  <SMR_VSA5>
166.13998

>  <SMR_VSA6>
31.488184

>  <SMR_VSA7>
33.326015

>  <TPSA>
40.459999

>  <VAdjEq>
0.47938794

>  <VAdjMa>
5.643856

>  <VDistEq>
3.0712955

>  <VDistMa>
8.6308546

>  <vdw_area>
292.28113

>  <vdw_vol>
434.43121

>  <vsa_acc>
0

>  <vsa_acid>
0

>  <vsa_base>
0

>  <vsa_don>
0

>  <vsa_hyd>
236.40306

>  <vsa_other>
0

>  <vsa_pol>
27.133842

>  <Weight>
296.41

>  <weinerPath>
941

>  <weinerPol>
46

>  <zagreb>
130

$$$$