S(=O)(=O)(Nc1ccc([N+](=O)[O-])cc1Oc1ccccc1)C
  MOE2013           2D

 21 22  0  0  0  0  0  0  0  0999 V2000
    0.0000    0.0000    0.0000 S   0  0  0  0  0  0  0  0  0  0  0  0
   -0.0120    1.5000    0.0000 O   0  0  0  0  0  0  0  0  0  0  0  0
    0.0120   -1.5000    0.0000 O   0  0  0  0  0  0  0  0  0  0  0  0
   -1.5000   -0.0120    0.0000 N   0  0  0  0  0  0  0  0  0  0  0  0
   -2.2600    1.2810    0.0000 C   0  0  0  0  0  0  0  0  0  0  0  0
   -1.5200    2.5860    0.0000 C   0  0  0  0  0  0  0  0  0  0  0  0
   -2.2810    3.8790    0.0000 C   0  0  0  0  0  0  0  0  0  0  0  0
   -3.7810    3.8680    0.0000 C   0  0  0  0  0  0  0  0  0  0  0  0
   -4.5410    5.1610    0.0000 N   0  3  0  0  0  0  0  0  0  0  0  0
   -3.8010    6.4660    0.0000 O   0  0  0  0  0  0  0  0  0  0  0  0
   -6.0410    5.1490    0.0000 O   0  5  0  0  0  0  0  0  0  0  0  0
   -4.5200    2.5630    0.0000 C   0  0  0  0  0  0  0  0  0  0  0  0
   -3.7600    1.2700    0.0000 C   0  0  0  0  0  0  0  0  0  0  0  0
   -4.5000   -0.0350    0.0000 O   0  0  0  0  0  0  0  0  0  0  0  0
   -6.0000   -0.0470    0.0000 C   0  0  0  0  0  0  0  0  0  0  0  0
   -6.7400   -1.3520    0.0000 C   0  0  0  0  0  0  0  0  0  0  0  0
   -8.2400   -1.3640    0.0000 C   0  0  0  0  0  0  0  0  0  0  0  0
   -9.0000   -0.0710    0.0000 C   0  0  0  0  0  0  0  0  0  0  0  0
   -8.2600    1.2340    0.0000 C   0  0  0  0  0  0  0  0  0  0  0  0
   -6.7600    1.2460    0.0000 C   0  0  0  0  0  0  0  0  0  0  0  0
    1.5000    0.0120    0.0000 C   0  0  0  0  0  0  0  0  0  0  0  0
  1  2  2  0  0  0  0
  1  3  2  0  0  0  0
  1  4  1  0  0  0  0
  1 21  1  0  0  0  0
  4  5  1  0  0  0  0
  5  6  1  0  0  0  0
  5 13  2  0  0  0  0
  6  7  2  0  0  0  0
  7  8  1  0  0  0  0
  8  9  1  0  0  0  0
  8 12  2  0  0  0  0
  9 10  2  0  0  0  0
  9 11  1  0  0  0  0
 12 13  1  0  0  0  0
 13 14  1  0  0  0  0
 14 15  1  0  0  0  0
 15 16  1  0  0  0  0
 15 20  2  0  0  0  0
 16 17  2  0  0  0  0
 17 18  1  0  0  0  0
 18 19  2  0  0  0  0
 19 20  1  0  0  0  0
M  CHG  1   9   1
M  CHG  1  11  -1
M  END
>  <Index>
1668

>  <ID>
HT1495

>  <class>
1

>  <apol>
39.991516

>  <ast_fraglike>
0

>  <ast_fraglike_ext>
0

>  <ast_violation>
1

>  <ast_violation_ext>
2

>  <a_acc>
2

>  <a_acid>
0

>  <a_aro>
12

>  <a_base>
0

>  <a_count>
33

>  <a_don>
1

>  <a_donacc>
3

>  <a_heavy>
21

>  <a_hyd>
14

>  <a_IC>
61.730099

>  <a_ICM>
1.870609

>  <a_nB>
0

>  <a_nBr>
0

>  <a_nC>
13

>  <a_nCl>
0

>  <a_nF>
0

>  <a_nH>
12

>  <a_nI>
0

>  <a_nN>
2

>  <a_nO>
5

>  <a_nP>
0

>  <a_nS>
1

>  <balabanJ>
1.9771427

>  <BCUT_PEOE_0>
-2.428194

>  <BCUT_PEOE_1>
-0.66843456

>  <BCUT_PEOE_2>
0.70665658

>  <BCUT_PEOE_3>
2.4472682

>  <BCUT_SLOGP_0>
-2.5422471

>  <BCUT_SLOGP_1>
-0.57048631

>  <BCUT_SLOGP_2>
0.77072883

>  <BCUT_SLOGP_3>
2.478888

>  <BCUT_SMR_0>
-2.0650899

>  <BCUT_SMR_1>
-0.51320297

>  <BCUT_SMR_2>
0.87364459

>  <BCUT_SMR_3>
2.8205159

>  <bpol>
23.426483

>  <b_1rotN>
5

>  <b_1rotR>
0.22727273

>  <b_ar>
12

>  <b_count>
34

>  <b_double>
1

>  <b_heavy>
22

>  <b_max1len>
4

>  <b_rotN>
5

>  <b_rotR>
0.22727273

>  <b_single>
21

>  <b_triple>
0

>  <chi0>
15.457819

>  <chi0v>
11.832002

>  <chi0v_C>
7.6188021

>  <chi0_C>
8.9662552

>  <chi1>
9.8491554

>  <chi1v>
7.7328382

>  <chi1v_C>
3.6487174

>  <chi1_C>
5.2828231

>  <chiral>
0

>  <chiral_u>
0

>  <density>
0.86175305

>  <diameter>
9

>  <FCharge>
0

>  <GCUT_PEOE_0>
-0.78333801

>  <GCUT_PEOE_1>
-0.42959324

>  <GCUT_PEOE_2>
0.069245629

>  <GCUT_PEOE_3>
2.3776133

>  <GCUT_SLOGP_0>
-0.94641596

>  <GCUT_SLOGP_1>
-0.33528775

>  <GCUT_SLOGP_2>
0.15031359

>  <GCUT_SLOGP_3>
2.5302167

>  <GCUT_SMR_0>
-0.4912034

>  <GCUT_SMR_1>
-0.19527228

>  <GCUT_SMR_2>
0.20068926

>  <GCUT_SMR_3>
2.6782568

>  <Kier1>
17.355371

>  <Kier2>
7.5130072

>  <Kier3>
5.6055365

>  <KierA1>
13.635721

>  <KierA2>
5.8263521

>  <KierA3>
4.3037062

>  <KierFlex>
3.7831671

>  <lip_acc>
7

>  <lip_don>
1

>  <lip_druglike>
1

>  <lip_violation>
0

>  <logP(o/w)>
2.5810001

>  <logS>
-3.7958

>  <mr>
7.6455498

>  <mutagenic>
1

>  <nmol>
1

>  <opr_brigid>
12

>  <opr_leadlike>
1

>  <opr_nring>
2

>  <opr_nrot>
4

>  <opr_violation>
0

>  <PC+>
0

>  <PC->
0

>  <PEOE_PC+>
1.7653699

>  <PEOE_PC->
-1.7653699

>  <PEOE_RPC+>
0.15496427

>  <PEOE_RPC->
0.17525148

>  <PEOE_VSA+0>
41.314968

>  <PEOE_VSA+1>
63.687176

>  <PEOE_VSA+2>
12.796158

>  <PEOE_VSA+3>
20.72374

>  <PEOE_VSA+4>
0

>  <PEOE_VSA+5>
6.6995511

>  <PEOE_VSA+6>
0

>  <PEOE_VSA-0>
24.509808

>  <PEOE_VSA-1>
49.019615

>  <PEOE_VSA-2>
0

>  <PEOE_VSA-3>
2.5295215

>  <PEOE_VSA-4>
32.016521

>  <PEOE_VSA-5>
33.931049

>  <PEOE_VSA-6>
2.503756

>  <PEOE_VSA_FHYD>
0.74061918

>  <PEOE_VSA_FNEG>
0.49877244

>  <PEOE_VSA_FPNEG>
0.23625751

>  <PEOE_VSA_FPOL>
0.25938079

>  <PEOE_VSA_FPOS>
0.50122756

>  <PEOE_VSA_FPPOS>
0.023123281

>  <PEOE_VSA_HYD>
214.58098

>  <PEOE_VSA_NEG>
144.51027

>  <PEOE_VSA_PNEG>
68.451324

>  <PEOE_VSA_POL>
75.150879

>  <PEOE_VSA_POS>
145.22159

>  <PEOE_VSA_PPOS>
6.6995511

>  <petitjean>
0.44444445

>  <petitjeanSC>
0.80000001

>  <Q_PC+>
0

>  <Q_PC->
0

>  <Q_RPC+>
0

>  <Q_RPC->
0

>  <Q_VSA_FHYD>
1

>  <Q_VSA_FNEG>
0

>  <Q_VSA_FPNEG>
0

>  <Q_VSA_FPOL>
0

>  <Q_VSA_FPOS>
1

>  <Q_VSA_FPPOS>
0

>  <Q_VSA_HYD>
289.73187

>  <Q_VSA_NEG>
0

>  <Q_VSA_PNEG>
0

>  <Q_VSA_POL>
0

>  <Q_VSA_POS>
289.73187

>  <Q_VSA_PPOS>
0

>  <radius>
5

>  <reactive>
1

>  <rings>
2

>  <RPC+>
0

>  <RPC->
0

>  <rsynth>
1

>  <SlogP>
2.7586

>  <SlogP_VSA0>
10.999887

>  <SlogP_VSA1>
71.6623

>  <SlogP_VSA2>
6.6407428

>  <SlogP_VSA3>
50.935009

>  <SlogP_VSA4>
0

>  <SlogP_VSA5>
31.691174

>  <SlogP_VSA6>
0

>  <SlogP_VSA7>
141.14548

>  <SlogP_VSA8>
0

>  <SlogP_VSA9>
16.000351

>  <SMR>
7.8078899

>  <SMR_VSA0>
55.257305

>  <SMR_VSA1>
10.999887

>  <SMR_VSA2>
50.935009

>  <SMR_VSA3>
10.486856

>  <SMR_VSA4>
21.918493

>  <SMR_VSA5>
141.14548

>  <SMR_VSA6>
0

>  <SMR_VSA7>
38.331917

>  <TPSA>
101.22

>  <VAdjEq>
0.46827638

>  <VAdjMa>
5.4594316

>  <VDistEq>
3.0760899

>  <VDistMa>
8.5136948

>  <vdw_area>
289.73187

>  <vdw_vol>
357.77536

>  <vsa_acc>
32.016521

>  <vsa_acid>
0

>  <vsa_base>
0

>  <vsa_don>
8.0752068

>  <vsa_hyd>
192.19664

>  <vsa_other>
46.540413

>  <vsa_pol>
40.091728

>  <Weight>
308.314

>  <weinerPath>
936

>  <weinerPol>
28

>  <zagreb>
106

$$$$