S(Cc1[nH]cnc1C)CCNC(=N/C)NC#N
  MOE2013           2D

 17 17  0  0  0  0  0  0  0  0999 V2000
    0.0000    0.0000    0.0000 S   0  0  0  0  0  0  0  0  0  0  0  0
   -1.3030   -0.7430    0.0000 C   0  0  0  0  0  0  0  0  0  0  0  0
   -2.5980    0.0140    0.0000 C   0  0  0  0  0  0  0  0  0  0  0  0
   -2.7470    1.5060    0.0000 N   0  0  0  0  0  0  0  0  0  0  0  0
   -4.2130    1.8260    0.0000 C   0  0  0  0  0  0  0  0  0  0  0  0
   -4.9690    0.5300    0.0000 N   0  0  0  0  0  0  0  0  0  0  0  0
   -3.9720   -0.5890    0.0000 C   0  0  0  0  0  0  0  0  0  0  0  0
   -4.2910   -2.0550    0.0000 C   0  0  0  0  0  0  0  0  0  0  0  0
    1.2950   -0.7570    0.0000 C   0  0  0  0  0  0  0  0  0  0  0  0
    2.5980   -0.0140    0.0000 C   0  0  0  0  0  0  0  0  0  0  0  0
    3.8930   -0.7700    0.0000 N   0  0  0  0  0  0  0  0  0  0  0  0
    5.1960   -0.0270    0.0000 C   0  0  0  0  0  0  0  0  0  0  0  0
    6.4910   -0.7840    0.0000 N   0  0  0  0  0  0  0  0  0  0  0  0
    6.4830   -2.2840    0.0000 C   0  0  0  0  0  0  0  0  0  0  0  0
    5.2040    1.4730    0.0000 N   0  0  0  0  0  0  0  0  0  0  0  0
    6.5070    2.2160    0.0000 C   0  0  0  0  0  0  0  0  0  0  0  0
    7.8100    2.9590    0.0000 N   0  0  0  0  0  0  0  0  0  0  0  0
  1  2  1  0  0  0  0
  1  9  1  0  0  0  0
  2  3  1  0  0  0  0
  3  4  1  0  0  0  0
  3  7  2  0  0  0  0
  4  5  1  0  0  0  0
  5  6  2  0  0  0  0
  6  7  1  0  0  0  0
  7  8  1  0  0  0  0
  9 10  1  0  0  0  0
 10 11  1  0  0  0  0
 11 12  1  0  0  0  0
 12 13  2  3  0  0  0
 12 15  1  0  0  0  0
 13 14  1  0  0  0  0
 15 16  1  0  0  0  0
 16 17  3  0  0  0  0
M  END
>  <Index>
1495

>  <ID>
HT0486

>  <class>
1

>  <apol>
37.768688

>  <ast_fraglike>
0

>  <ast_fraglike_ext>
0

>  <ast_violation>
2

>  <ast_violation_ext>
3

>  <a_acc>
4

>  <a_acid>
0

>  <a_aro>
5

>  <a_base>
0

>  <a_count>
33

>  <a_don>
4

>  <a_donacc>
8

>  <a_heavy>
17

>  <a_hyd>
8

>  <a_IC>
53.73595

>  <a_ICM>
1.6283622

>  <a_nB>
0

>  <a_nBr>
0

>  <a_nC>
10

>  <a_nCl>
0

>  <a_nF>
0

>  <a_nH>
16

>  <a_nI>
0

>  <a_nN>
6

>  <a_nO>
0

>  <a_nP>
0

>  <a_nS>
1

>  <balabanJ>
1.9673568

>  <BCUT_PEOE_0>
-2.5121536

>  <BCUT_PEOE_1>
-0.39268234

>  <BCUT_PEOE_2>
0.40251124

>  <BCUT_PEOE_3>
2.463845

>  <BCUT_SLOGP_0>
-2.6966035

>  <BCUT_SLOGP_1>
-0.30274978

>  <BCUT_SLOGP_2>
0.44335371

>  <BCUT_SLOGP_3>
2.5597219

>  <BCUT_SMR_0>
-2.2019892

>  <BCUT_SMR_1>
-0.15337421

>  <BCUT_SMR_2>
0.55755782

>  <BCUT_SMR_3>
2.7910933

>  <bpol>
25.051311

>  <b_1rotN>
5

>  <b_1rotR>
0.29411766

>  <b_ar>
5

>  <b_count>
33

>  <b_double>
1

>  <b_heavy>
17

>  <b_max1len>
6

>  <b_rotN>
8

>  <b_rotR>
0.47058824

>  <b_single>
26

>  <b_triple>
1

>  <chi0>
12.510225

>  <chi0v>
10.765057

>  <chi0v_C>
6.6986704

>  <chi0_C>
7.2675848

>  <chi1>
8.2743874

>  <chi1v>
6.3540654

>  <chi1v_C>
1.6035534

>  <chi1_C>
1.8189319

>  <chiral>
0

>  <chiral_u>
0

>  <density>
0.76575446

>  <diameter>
11

>  <FCharge>
0

>  <GCUT_PEOE_0>
-0.84446162

>  <GCUT_PEOE_1>
-0.36365011

>  <GCUT_PEOE_2>
0.066955641

>  <GCUT_PEOE_3>
2.2911124

>  <GCUT_SLOGP_0>
-1.1815728

>  <GCUT_SLOGP_1>
-0.30564043

>  <GCUT_SLOGP_2>
0.16237241

>  <GCUT_SLOGP_3>
2.3523543

>  <GCUT_SMR_0>
-0.4957324

>  <GCUT_SMR_1>
-0.15069573

>  <GCUT_SMR_2>
0.22686824

>  <GCUT_SMR_3>
2.5876465

>  <Kier1>
15.058824

>  <Kier2>
9

>  <Kier3>
5.9281664

>  <KierA1>
11.622291

>  <KierA2>
6.8240614

>  <KierA3>
4.4316249

>  <KierFlex>
4.6653662

>  <lip_acc>
6

>  <lip_don>
3

>  <lip_druglike>
1

>  <lip_violation>
0

>  <logP(o/w)>
-0.113

>  <logS>
-1.9627399

>  <mr>
6.9214559

>  <mutagenic>
0

>  <nmol>
1

>  <opr_brigid>
6

>  <opr_leadlike>
1

>  <opr_nring>
1

>  <opr_nrot>
8

>  <opr_violation>
0

>  <PC+>
0

>  <PC->
0

>  <PEOE_PC+>
1.8057249

>  <PEOE_PC->
-1.8057249

>  <PEOE_RPC+>
0.11403946

>  <PEOE_RPC->
0.196339

>  <PEOE_VSA+0>
115.66994

>  <PEOE_VSA+1>
27.936478

>  <PEOE_VSA+2>
4.2653861

>  <PEOE_VSA+3>
50.647556

>  <PEOE_VSA+4>
15.681574

>  <PEOE_VSA+5>
0

>  <PEOE_VSA+6>
0

>  <PEOE_VSA-0>
18.747677

>  <PEOE_VSA-1>
0

>  <PEOE_VSA-2>
0

>  <PEOE_VSA-3>
37.503109

>  <PEOE_VSA-4>
5.6825762

>  <PEOE_VSA-5>
5.8194671

>  <PEOE_VSA-6>
0.27378201

>  <PEOE_VSA_FHYD>
0.90271187

>  <PEOE_VSA_FNEG>
0.24103461

>  <PEOE_VSA_FPNEG>
0.041724578

>  <PEOE_VSA_FPOL>
0.097288162

>  <PEOE_VSA_FPOS>
0.75896537

>  <PEOE_VSA_FPPOS>
0.055563584

>  <PEOE_VSA_HYD>
254.77016

>  <PEOE_VSA_NEG>
68.026611

>  <PEOE_VSA_PNEG>
11.775826

>  <PEOE_VSA_POL>
27.457399

>  <PEOE_VSA_POS>
214.20094

>  <PEOE_VSA_PPOS>
15.681574

>  <petitjean>
0.45454547

>  <petitjeanSC>
0.83333331

>  <Q_PC+>
0

>  <Q_PC->
0

>  <Q_RPC+>
0

>  <Q_RPC->
0

>  <Q_VSA_FHYD>
1

>  <Q_VSA_FNEG>
0

>  <Q_VSA_FPNEG>
0

>  <Q_VSA_FPOL>
0

>  <Q_VSA_FPOS>
1

>  <Q_VSA_FPPOS>
0

>  <Q_VSA_HYD>
282.22754

>  <Q_VSA_NEG>
0

>  <Q_VSA_PNEG>
0

>  <Q_VSA_POL>
0

>  <Q_VSA_POS>
282.22754

>  <Q_VSA_PPOS>
0

>  <radius>
6

>  <reactive>
0

>  <rings>
1

>  <RPC+>
0

>  <RPC->
0

>  <rsynth>
1

>  <SlogP>
0.86380398

>  <SlogP_VSA0>
36.0215

>  <SlogP_VSA1>
18.684622

>  <SlogP_VSA2>
16.78553

>  <SlogP_VSA3>
82.905418

>  <SlogP_VSA4>
5.513495

>  <SlogP_VSA5>
49.682716

>  <SlogP_VSA6>
0

>  <SlogP_VSA7>
16.78553

>  <SlogP_VSA8>
0

>  <SlogP_VSA9>
82.779121

>  <SMR>
6.98031

>  <SMR_VSA0>
0

>  <SMR_VSA1>
64.630417

>  <SMR_VSA2>
52.80703

>  <SMR_VSA3>
21.686415

>  <SMR_VSA4>
0

>  <SMR_VSA5>
34.019093

>  <SMR_VSA6>
37.572235

>  <SMR_VSA7>
98.442741

>  <TPSA>
88.889999

>  <VAdjEq>
0.52255934

>  <VAdjMa>
5.0874629

>  <VDistEq>
3.3448591

>  <VDistMa>
7.8187537

>  <vdw_area>
282.22754

>  <vdw_vol>
329.53906

>  <vsa_acc>
23.425066

>  <vsa_acid>
0

>  <vsa_base>
0

>  <vsa_don>
11.365152

>  <vsa_hyd>
152.33624

>  <vsa_other>
65.262611

>  <vsa_pol>
46.155369

>  <Weight>
252.34599

>  <weinerPath>
664

>  <weinerPol>
18

>  <zagreb>
74

$$$$