S1c2c(N(c3c1cccc3)CCCN1CCN(CC1)C)cc(cc2)C(F)(F)F
  MOE2013           2D

 28 31  0  0  1  0  0  0  0  0999 V2000
    0.0000    0.0000    0.0000 S   0  0  0  0  0  0  0  0  0  0  0  0
   -0.7430   -1.3030    0.0000 C   0  0  0  0  0  0  0  0  0  0  0  0
    0.0140   -2.5980    0.0000 C   0  0  0  0  0  0  0  0  0  0  0  0
    1.5140   -2.5900    0.0000 N   0  0  3  0  0  0  0  0  0  0  0  0
    2.2570   -1.2870    0.0000 C   0  0  0  0  0  0  0  0  0  0  0  0
    1.5000    0.0080    0.0000 C   0  0  0  0  0  0  0  0  0  0  0  0
    2.2430    1.3110    0.0000 C   0  0  0  0  0  0  0  0  0  0  0  0
    3.7430    1.3190    0.0000 C   0  0  0  0  0  0  0  0  0  0  0  0
    4.5000    0.0240    0.0000 C   0  0  0  0  0  0  0  0  0  0  0  0
    3.7570   -1.2790    0.0000 C   0  0  0  0  0  0  0  0  0  0  0  0
    2.2710   -3.8850    0.0000 C   0  0  0  0  0  0  0  0  0  0  0  0
    3.7710   -3.8770    0.0000 C   0  0  0  0  0  0  0  0  0  0  0  0
    4.5280   -5.1720    0.0000 C   0  0  0  0  0  0  0  0  0  0  0  0
    6.0280   -5.1640    0.0000 N   0  0  0  0  0  0  0  0  0  0  0  0
    6.7850   -6.4580    0.0000 C   0  0  0  0  0  0  0  0  0  0  0  0
    8.2850   -6.4500    0.0000 C   0  0  0  0  0  0  0  0  0  0  0  0
    9.0280   -5.1470    0.0000 N   0  0  0  0  0  0  0  0  0  0  0  0
    8.2710   -3.8520    0.0000 C   0  0  0  0  0  0  0  0  0  0  0  0
    6.7710   -3.8600    0.0000 C   0  0  0  0  0  0  0  0  0  0  0  0
   10.5280   -5.1390    0.0000 C   0  0  0  0  0  0  0  0  0  0  0  0
   -0.7290   -3.9010    0.0000 C   0  0  0  0  0  0  0  0  0  0  0  0
   -2.2290   -3.9090    0.0000 C   0  0  0  0  0  0  0  0  0  0  0  0
   -2.9860   -2.6140    0.0000 C   0  0  0  0  0  0  0  0  0  0  0  0
   -2.2430   -1.3110    0.0000 C   0  0  0  0  0  0  0  0  0  0  0  0
   -2.9720   -5.2120    0.0000 C   0  0  0  0  0  0  0  0  0  0  0  0
   -1.6690   -5.9550    0.0000 F   0  0  0  0  0  0  0  0  0  0  0  0
   -3.7150   -6.5150    0.0000 F   0  0  0  0  0  0  0  0  0  0  0  0
   -4.2750   -4.4690    0.0000 F   0  0  0  0  0  0  0  0  0  0  0  0
  1  2  1  0  0  0  0
  1  6  1  0  0  0  0
  2  3  1  0  0  0  0
  2 24  2  0  0  0  0
  3  4  1  0  0  0  0
  3 21  2  0  0  0  0
  4  5  1  0  0  0  0
  4 11  1  0  0  0  0
  5  6  1  0  0  0  0
  5 10  2  0  0  0  0
  6  7  2  0  0  0  0
  7  8  1  0  0  0  0
  8  9  2  0  0  0  0
  9 10  1  0  0  0  0
 11 12  1  0  0  0  0
 12 13  1  0  0  0  0
 13 14  1  0  0  0  0
 14 15  1  0  0  0  0
 14 19  1  0  0  0  0
 15 16  1  0  0  0  0
 16 17  1  0  0  0  0
 17 18  1  0  0  0  0
 17 20  1  0  0  0  0
 18 19  1  0  0  0  0
 21 22  1  0  0  0  0
 22 23  2  0  0  0  0
 22 25  1  0  0  0  0
 23 24  1  0  0  0  0
 25 26  1  0  0  0  0
 25 27  1  0  0  0  0
 25 28  1  0  0  0  0
M  END
>  <Index>
1754

>  <ID>
HT2118

>  <class>
1

>  <apol>
60.83403

>  <ast_fraglike>
0

>  <ast_fraglike_ext>
0

>  <ast_violation>
2

>  <ast_violation_ext>
3

>  <a_acc>
2

>  <a_acid>
0

>  <a_aro>
12

>  <a_base>
0

>  <a_count>
52

>  <a_don>
0

>  <a_donacc>
2

>  <a_heavy>
28

>  <a_hyd>
25

>  <a_IC>
84.635323

>  <a_ICM>
1.6276023

>  <a_nB>
0

>  <a_nBr>
0

>  <a_nC>
21

>  <a_nCl>
0

>  <a_nF>
3

>  <a_nH>
24

>  <a_nI>
0

>  <a_nN>
3

>  <a_nO>
0

>  <a_nP>
0

>  <a_nS>
1

>  <balabanJ>
1.3973571

>  <BCUT_PEOE_0>
-2.7903376

>  <BCUT_PEOE_1>
-0.50582588

>  <BCUT_PEOE_2>
0.55573082

>  <BCUT_PEOE_3>
2.6805542

>  <BCUT_SLOGP_0>
-2.89816

>  <BCUT_SLOGP_1>
-0.3969194

>  <BCUT_SLOGP_2>
0.67206961

>  <BCUT_SLOGP_3>
2.6287849

>  <BCUT_SMR_0>
-2.5038671

>  <BCUT_SMR_1>
-0.32947645

>  <BCUT_SMR_2>
0.71008945

>  <BCUT_SMR_3>
2.9587917

>  <bpol>
38.065968

>  <b_1rotN>
4

>  <b_1rotR>
0.12903225

>  <b_ar>
12

>  <b_count>
55

>  <b_double>
0

>  <b_heavy>
31

>  <b_max1len>
4

>  <b_rotN>
5

>  <b_rotR>
0.16129032

>  <b_single>
43

>  <b_triple>
0

>  <chi0>
19.725405

>  <chi0v>
16.691479

>  <chi0v_C>
12.991199

>  <chi0_C>
14.286246

>  <chi1>
13.414835

>  <chi1v>
10.39887

>  <chi1v_C>
5.8153839

>  <chi1_C>
7.4048314

>  <chiral>
0

>  <chiral_u>
0

>  <density>
0.78150851

>  <diameter>
13

>  <FCharge>
0

>  <GCUT_PEOE_0>
-0.86208081

>  <GCUT_PEOE_1>
-0.3358596

>  <GCUT_PEOE_2>
-0.027877739

>  <GCUT_PEOE_3>
2.7935376

>  <GCUT_SLOGP_0>
-0.96427548

>  <GCUT_SLOGP_1>
-0.27461189

>  <GCUT_SLOGP_2>
0.25461337

>  <GCUT_SLOGP_3>
2.8861327

>  <GCUT_SMR_0>
-0.5197289

>  <GCUT_SMR_1>
-0.16272594

>  <GCUT_SMR_2>
0.1582291

>  <GCUT_SMR_3>
3.0710523

>  <Kier1>
21.240376

>  <Kier2>
9.0133333

>  <Kier3>
5.0237813

>  <KierA1>
18.126457

>  <KierA2>
7.6444607

>  <KierA3>
4.2420778

>  <KierFlex>
4.9488215

>  <lip_acc>
3

>  <lip_don>
0

>  <lip_druglike>
1

>  <lip_violation>
1

>  <logP(o/w)>
4.4917598

>  <logS>
-4.94314

>  <mr>
10.777625

>  <mutagenic>
0

>  <nmol>
1

>  <opr_brigid>
22

>  <opr_leadlike>
1

>  <opr_nring>
4

>  <opr_nrot>
6

>  <opr_violation>
1

>  <PC+>
0

>  <PC->
0

>  <PEOE_PC+>
1.8035371

>  <PEOE_PC->
-1.8035371

>  <PEOE_RPC+>
0.23147313

>  <PEOE_RPC->
0.16795741

>  <PEOE_VSA+0>
173.43382

>  <PEOE_VSA+1>
32.066242

>  <PEOE_VSA+2>
0

>  <PEOE_VSA+3>
0

>  <PEOE_VSA+4>
0

>  <PEOE_VSA+5>
0

>  <PEOE_VSA+6>
9.0455017

>  <PEOE_VSA-0>
93.214523

>  <PEOE_VSA-1>
44.270424

>  <PEOE_VSA-2>
0

>  <PEOE_VSA-3>
35.725906

>  <PEOE_VSA-4>
0

>  <PEOE_VSA-5>
0

>  <PEOE_VSA-6>
0

>  <PEOE_VSA_FHYD>
0.97667223

>  <PEOE_VSA_FNEG>
0.44670016

>  <PEOE_VSA_FPNEG>
0

>  <PEOE_VSA_FPOL>
0.023327794

>  <PEOE_VSA_FPOS>
0.55329984

>  <PEOE_VSA_FPPOS>
0.023327794

>  <PEOE_VSA_HYD>
378.71091

>  <PEOE_VSA_NEG>
173.21086

>  <PEOE_VSA_PNEG>
0

>  <PEOE_VSA_POL>
9.0455017

>  <PEOE_VSA_POS>
214.54556

>  <PEOE_VSA_PPOS>
9.0455017

>  <petitjean>
0.46153846

>  <petitjeanSC>
0.85714287

>  <Q_PC+>
0

>  <Q_PC->
0

>  <Q_RPC+>
0

>  <Q_RPC->
0

>  <Q_VSA_FHYD>
1

>  <Q_VSA_FNEG>
0

>  <Q_VSA_FPNEG>
0

>  <Q_VSA_FPOL>
0

>  <Q_VSA_FPOS>
1

>  <Q_VSA_FPPOS>
0

>  <Q_VSA_HYD>
387.75641

>  <Q_VSA_NEG>
0

>  <Q_VSA_PNEG>
0

>  <Q_VSA_POL>
0

>  <Q_VSA_POS>
387.75641

>  <Q_VSA_PPOS>
0

>  <radius>
7

>  <reactive>
0

>  <rings>
4

>  <RPC+>
0

>  <RPC->
0

>  <rsynth>
1

>  <SlogP>
5.2571001

>  <SlogP_VSA0>
3.1243138

>  <SlogP_VSA1>
6.2486277

>  <SlogP_VSA2>
0

>  <SlogP_VSA3>
110.63747

>  <SlogP_VSA4>
3.185575

>  <SlogP_VSA5>
35.998657

>  <SlogP_VSA6>
7.7595162

>  <SlogP_VSA7>
123.50229

>  <SlogP_VSA8>
18.868406

>  <SlogP_VSA9>
82.613373

>  <SMR>
10.7687

>  <SMR_VSA0>
0

>  <SMR_VSA1>
51.128967

>  <SMR_VSA2>
13.985298

>  <SMR_VSA3>
3.185575

>  <SMR_VSA4>
5.513495

>  <SMR_VSA5>
142.3707

>  <SMR_VSA6>
110.63747

>  <SMR_VSA7>
65.11673

>  <TPSA>
9.7200003

>  <VAdjEq>
0.39893496

>  <VAdjMa>
5.9541965

>  <VDistEq>
3.5020404

>  <VDistMa>
9.3301401

>  <vdw_area>
387.75641

>  <vdw_vol>
521.43256

>  <vsa_acc>
0

>  <vsa_acid>
0

>  <vsa_base>
0

>  <vsa_don>
0

>  <vsa_hyd>
370.67334

>  <vsa_other>
0

>  <vsa_pol>
0

>  <Weight>
407.504

>  <weinerPath>
2075

>  <weinerPol>
46

>  <zagreb>
152

$$$$