Oc1c(cccc1N=NC=1C(=O)N(NC=1C)c1cc(C)c(cc1)C)-c1cc(ccc1)C(O)=O
  MOE2013           2D

 33 36  0  0  0  0  0  0  0  0999 V2000
    0.0000    0.0000    0.0000 O   0  0  0  0  0  0  0  0  0  0  0  0
    0.7430   -1.3030    0.0000 C   0  0  0  0  0  0  0  0  0  0  0  0
    2.2430   -1.3120    0.0000 C   0  0  0  0  0  0  0  0  0  0  0  0
    2.9850   -2.6150    0.0000 C   0  0  0  0  0  0  0  0  0  0  0  0
    2.2280   -3.9100    0.0000 C   0  0  0  0  0  0  0  0  0  0  0  0
    0.7280   -3.9010    0.0000 C   0  0  0  0  0  0  0  0  0  0  0  0
   -0.0150   -2.5980    0.0000 C   0  0  0  0  0  0  0  0  0  0  0  0
   -1.5150   -2.5890    0.0000 N   0  0  0  0  0  0  0  0  0  0  0  0
   -2.2720   -3.8840    0.0000 N   0  0  0  0  0  0  0  0  0  0  0  0
   -3.7720   -3.8760    0.0000 C   0  0  0  0  0  0  0  0  0  0  0  0
   -4.6610   -5.0840    0.0000 C   0  0  0  0  0  0  0  0  0  0  0  0
   -4.2060   -6.5130    0.0000 O   0  0  0  0  0  0  0  0  0  0  0  0
   -6.0850   -4.6120    0.0000 N   0  0  0  0  0  0  0  0  0  0  0  0
   -6.0760   -3.1120    0.0000 N   0  0  0  0  0  0  0  0  0  0  0  0
   -4.6470   -2.6570    0.0000 C   0  0  0  0  0  0  0  0  0  0  0  0
   -4.1750   -1.2330    0.0000 C   0  0  0  0  0  0  0  0  0  0  0  0
   -7.3030   -5.4870    0.0000 C   0  0  0  0  0  0  0  0  0  0  0  0
   -8.6700   -4.8690    0.0000 C   0  0  0  0  0  0  0  0  0  0  0  0
   -9.8890   -5.7440    0.0000 C   0  0  0  0  0  0  0  0  0  0  0  0
  -11.2550   -5.1260    0.0000 C   0  0  0  0  0  0  0  0  0  0  0  0
   -9.7400   -7.2360    0.0000 C   0  0  0  0  0  0  0  0  0  0  0  0
   -8.3740   -7.8540    0.0000 C   0  0  0  0  0  0  0  0  0  0  0  0
   -7.1550   -6.9800    0.0000 C   0  0  0  0  0  0  0  0  0  0  0  0
  -10.9590   -8.1110    0.0000 C   0  0  0  0  0  0  0  0  0  0  0  0
    3.0000   -0.0170    0.0000 C   0  0  0  0  0  0  0  0  0  0  0  0
    4.5000   -0.0260    0.0000 C   0  0  0  0  0  0  0  0  0  0  0  0
    5.2570    1.2690    0.0000 C   0  0  0  0  0  0  0  0  0  0  0  0
    4.5150    2.5720    0.0000 C   0  0  0  0  0  0  0  0  0  0  0  0
    3.0150    2.5810    0.0000 C   0  0  0  0  0  0  0  0  0  0  0  0
    2.2570    1.2860    0.0000 C   0  0  0  0  0  0  0  0  0  0  0  0
    6.7570    1.2600    0.0000 C   0  0  0  0  0  0  0  0  0  0  0  0
    7.5000   -0.0430    0.0000 O   0  0  0  0  0  0  0  0  0  0  0  0
    7.5150    2.5550    0.0000 O   0  0  0  0  0  0  0  0  0  0  0  0
  1  2  1  0  0  0  0
  2  3  1  0  0  0  0
  2  7  2  0  0  0  0
  3  4  2  0  0  0  0
  3 25  1  0  0  0  0
  4  5  1  0  0  0  0
  5  6  2  0  0  0  0
  6  7  1  0  0  0  0
  7  8  1  0  0  0  0
  8  9  2  3  0  0  0
  9 10  1  0  0  0  0
 10 11  1  0  0  0  0
 10 15  2  0  0  0  0
 11 12  2  0  0  0  0
 11 13  1  0  0  0  0
 13 14  1  0  0  0  0
 13 17  1  0  0  0  0
 14 15  1  0  0  0  0
 15 16  1  0  0  0  0
 17 18  1  0  0  0  0
 17 23  2  0  0  0  0
 18 19  2  0  0  0  0
 19 20  1  0  0  0  0
 19 21  1  0  0  0  0
 21 22  2  0  0  0  0
 21 24  1  0  0  0  0
 22 23  1  0  0  0  0
 25 26  1  0  0  0  0
 25 30  2  0  0  0  0
 26 27  2  0  0  0  0
 27 28  1  0  0  0  0
 27 31  1  0  0  0  0
 28 29  2  0  0  0  0
 29 30  1  0  0  0  0
 31 32  1  0  0  0  0
 31 33  2  0  0  0  0
M  END
>  <Index>
1544

>  <ID>
HT0749

>  <class>
1

>  <apol>
66.277443

>  <ast_fraglike>
0

>  <ast_fraglike_ext>
0

>  <ast_violation>
4

>  <ast_violation_ext>
6

>  <a_acc>
6

>  <a_acid>
0

>  <a_aro>
18

>  <a_base>
0

>  <a_count>
55

>  <a_don>
4

>  <a_donacc>
10

>  <a_heavy>
33

>  <a_hyd>
23

>  <a_IC>
87.770882

>  <a_ICM>
1.5958343

>  <a_nB>
0

>  <a_nBr>
0

>  <a_nC>
25

>  <a_nCl>
0

>  <a_nF>
0

>  <a_nH>
22

>  <a_nI>
0

>  <a_nN>
4

>  <a_nO>
4

>  <a_nP>
0

>  <a_nS>
0

>  <balabanJ>
1.3087277

>  <BCUT_PEOE_0>
-2.3897874

>  <BCUT_PEOE_1>
-0.57516313

>  <BCUT_PEOE_2>
0.63572454

>  <BCUT_PEOE_3>
2.4245586

>  <BCUT_SLOGP_0>
-2.497227

>  <BCUT_SLOGP_1>
-0.46920672

>  <BCUT_SLOGP_2>
0.71305621

>  <BCUT_SLOGP_3>
2.4843953

>  <BCUT_SMR_0>
-2.0758209

>  <BCUT_SMR_1>
-0.40072849

>  <BCUT_SMR_2>
0.8223784

>  <BCUT_SMR_3>
2.7376866

>  <bpol>
28.606554

>  <b_1rotN>
5

>  <b_1rotR>
0.1388889

>  <b_ar>
18

>  <b_count>
58

>  <b_double>
4

>  <b_heavy>
36

>  <b_max1len>
2

>  <b_rotN>
5

>  <b_rotR>
0.1388889

>  <b_single>
36

>  <b_triple>
0

>  <chi0>
23.697941

>  <chi0v>
18.326067

>  <chi0v_C>
14.773502

>  <chi0_C>
16.999271

>  <chi1>
15.756927

>  <chi1v>
10.226913

>  <chi1v_C>
7.8034182

>  <chi1_C>
10.647867

>  <chiral>
0

>  <chiral_u>
0

>  <density>
0.75405037

>  <diameter>
17

>  <FCharge>
0

>  <GCUT_PEOE_0>
-0.83829939

>  <GCUT_PEOE_1>
-0.44919363

>  <GCUT_PEOE_2>
0.070165902

>  <GCUT_PEOE_3>
2.5837173

>  <GCUT_SLOGP_0>
-1.1789674

>  <GCUT_SLOGP_1>
-0.30752015

>  <GCUT_SLOGP_2>
0.15206264

>  <GCUT_SLOGP_3>
2.7162254

>  <GCUT_SMR_0>
-0.48108014

>  <GCUT_SMR_1>
-0.19981878

>  <GCUT_SMR_2>
0.20482157

>  <GCUT_SMR_3>
2.8822424

>  <Kier1>
26.074074

>  <Kier2>
11.372781

>  <Kier3>
5.8775511

>  <KierA1>
17.767118

>  <KierA2>
7.6487064

>  <KierA3>
3.9153049

>  <KierFlex>
4.1180449

>  <lip_acc>
8

>  <lip_don>
3

>  <lip_druglike>
1

>  <lip_violation>
1

>  <logP(o/w)>
5.7779999

>  <logS>
-6.81634

>  <mr>
12.356156

>  <mutagenic>
0

>  <nmol>
1

>  <opr_brigid>
24

>  <opr_leadlike>
1

>  <opr_nring>
4

>  <opr_nrot>
5

>  <opr_violation>
1

>  <PC+>
0

>  <PC->
0

>  <PEOE_PC+>
2.6141701

>  <PEOE_PC->
-2.6141701

>  <PEOE_RPC+>
0.11276045

>  <PEOE_RPC->
0.13660543

>  <PEOE_VSA+0>
49.505104

>  <PEOE_VSA+1>
49.353413

>  <PEOE_VSA+2>
15.158071

>  <PEOE_VSA+3>
15.318564

>  <PEOE_VSA+4>
20.648346

>  <PEOE_VSA+5>
27.65803

>  <PEOE_VSA+6>
0

>  <PEOE_VSA-0>
124.14317

>  <PEOE_VSA-1>
61.274521

>  <PEOE_VSA-2>
18.842079

>  <PEOE_VSA-3>
3.8753545

>  <PEOE_VSA-4>
0

>  <PEOE_VSA-5>
27.133842

>  <PEOE_VSA-6>
15.535081

>  <PEOE_VSA_FHYD>
0.78766197

>  <PEOE_VSA_FNEG>
0.58538133

>  <PEOE_VSA_FPNEG>
0.099590063

>  <PEOE_VSA_FPOL>
0.21233805

>  <PEOE_VSA_FPOS>
0.41461864

>  <PEOE_VSA_FPPOS>
0.11274799

>  <PEOE_VSA_HYD>
337.47028

>  <PEOE_VSA_NEG>
250.80405

>  <PEOE_VSA_PNEG>
42.668922

>  <PEOE_VSA_POL>
90.975296

>  <PEOE_VSA_POS>
177.64153

>  <PEOE_VSA_PPOS>
48.306377

>  <petitjean>
0.47058824

>  <petitjeanSC>
0.8888889

>  <Q_PC+>
0

>  <Q_PC->
0

>  <Q_RPC+>
0

>  <Q_RPC->
0

>  <Q_VSA_FHYD>
1

>  <Q_VSA_FNEG>
0

>  <Q_VSA_FPNEG>
0

>  <Q_VSA_FPOL>
0

>  <Q_VSA_FPOS>
1

>  <Q_VSA_FPPOS>
0

>  <Q_VSA_HYD>
428.44559

>  <Q_VSA_NEG>
0

>  <Q_VSA_PNEG>
0

>  <Q_VSA_POL>
0

>  <Q_VSA_POS>
428.44559

>  <Q_VSA_PPOS>
0

>  <radius>
9

>  <reactive>
0

>  <rings>
4

>  <RPC+>
0

>  <RPC->
0

>  <rsynth>
0.36363637

>  <SlogP>
5.24084

>  <SlogP_VSA0>
46.275246

>  <SlogP_VSA1>
13.004248

>  <SlogP_VSA2>
23.862217

>  <SlogP_VSA3>
25.385227

>  <SlogP_VSA4>
33.418941

>  <SlogP_VSA5>
38.839512

>  <SlogP_VSA6>
0

>  <SlogP_VSA7>
182.80299

>  <SlogP_VSA8>
0

>  <SlogP_VSA9>
110.73497

>  <SMR>
12.42558

>  <SMR_VSA0>
47.724434

>  <SMR_VSA1>
58.711243

>  <SMR_VSA2>
46.275246

>  <SMR_VSA3>
20.313648

>  <SMR_VSA4>
11.884645

>  <SMR_VSA5>
176.43184

>  <SMR_VSA6>
13.004248

>  <SMR_VSA7>
99.978043

>  <TPSA>
114.59

>  <VAdjEq>
0.3512581

>  <VAdjMa>
6.1699252

>  <VDistEq>
3.8487618

>  <VDistMa>
9.7791605

>  <vdw_area>
428.44559

>  <vdw_vol>
586.79767

>  <vsa_acc>
32.409

>  <vsa_acid>
0

>  <vsa_base>
0

>  <vsa_don>
9.4210396

>  <vsa_hyd>
292.60971

>  <vsa_other>
27.65803

>  <vsa_pol>
82.5308

>  <Weight>
442.47498

>  <weinerPath>
3489

>  <weinerPol>
56

>  <zagreb>
176

$$$$