SC([C@@H](N)C(O)=O)(C)C
  MOE2013           2D

  9  8  0  0  1  0  0  0  0  0999 V2000
    0.0000    0.0000    0.0000 S   0  0  0  0  0  0  0  0  0  0  0  0
   -0.7470    1.3010    0.0000 C   0  0  0  0  0  0  0  0  0  0  0  0
    0.5550    2.0480    0.0000 C   0  0  1  0  0  0  0  0  0  0  0  0
    0.5590    3.5480    0.0000 N   0  0  0  0  0  0  0  0  0  0  0  0
    1.8520    1.2940    0.0000 C   0  0  0  0  0  0  0  0  0  0  0  0
    1.8480   -0.2060    0.0000 O   0  0  0  0  0  0  0  0  0  0  0  0
    3.1530    2.0410    0.0000 O   0  0  0  0  0  0  0  0  0  0  0  0
   -1.4930    2.6020    0.0000 C   0  0  0  0  0  0  0  0  0  0  0  0
   -2.0480    0.5550    0.0000 C   0  0  0  0  0  0  0  0  0  0  0  0
  1  2  1  0  0  0  0
  2  3  1  0  0  0  0
  2  8  1  0  0  0  0
  2  9  1  0  0  0  0
  3  4  1  1  0  0  0
  3  5  1  0  0  0  0
  5  6  1  0  0  0  0
  5  7  2  0  0  0  0
M  END
>  <Index>
1687

>  <ID>
HT1614

>  <class>
1

>  <apol>
21.738724

>  <ast_fraglike>
1

>  <ast_fraglike_ext>
1

>  <ast_violation>
0

>  <ast_violation_ext>
0

>  <a_acc>
3

>  <a_acid>
0

>  <a_aro>
0

>  <a_base>
0

>  <a_count>
20

>  <a_don>
3

>  <a_donacc>
6

>  <a_heavy>
9

>  <a_hyd>
4

>  <a_IC>
34.775173

>  <a_ICM>
1.7387587

>  <a_nB>
0

>  <a_nBr>
0

>  <a_nC>
5

>  <a_nCl>
0

>  <a_nF>
0

>  <a_nH>
11

>  <a_nI>
0

>  <a_nN>
1

>  <a_nO>
2

>  <a_nP>
0

>  <a_nS>
1

>  <balabanJ>
3.9045081

>  <BCUT_PEOE_0>
-2.624413

>  <BCUT_PEOE_1>
-0.31776142

>  <BCUT_PEOE_2>
0.3258521

>  <BCUT_PEOE_3>
2.637022

>  <BCUT_SLOGP_0>
-2.7978075

>  <BCUT_SLOGP_1>
-0.33773839

>  <BCUT_SLOGP_2>
0.31711423

>  <BCUT_SLOGP_3>
2.6123507

>  <BCUT_SMR_0>
-2.3607152

>  <BCUT_SMR_1>
-0.15747911

>  <BCUT_SMR_2>
0.42630163

>  <BCUT_SMR_3>
2.9084935

>  <bpol>
14.603277

>  <b_1rotN>
2

>  <b_1rotR>
0.25

>  <b_ar>
0

>  <b_count>
19

>  <b_double>
1

>  <b_heavy>
8

>  <b_max1len>
5

>  <b_rotN>
2

>  <b_rotR>
0.25

>  <b_single>
18

>  <b_triple>
0

>  <chi0>
7.6547008

>  <chi0v>
6.3518033

>  <chi0v_C>
3.5773504

>  <chi0_C>
3.6547005

>  <chi1>
3.8540592

>  <chi1v>
3.0092349

>  <chi1v_C>
1.5773503

>  <chi1_C>
1.6220084

>  <chiral>
1

>  <chiral_u>
0

>  <density>
0.82105052

>  <diameter>
4

>  <FCharge>
0

>  <GCUT_PEOE_0>
-0.80810642

>  <GCUT_PEOE_1>
-0.3490631

>  <GCUT_PEOE_2>
0.032042854

>  <GCUT_PEOE_3>
2.2343442

>  <GCUT_SLOGP_0>
-1.3637375

>  <GCUT_SLOGP_1>
-0.39332286

>  <GCUT_SLOGP_2>
0.044537317

>  <GCUT_SLOGP_3>
2.2222073

>  <GCUT_SMR_0>
-0.50722432

>  <GCUT_SMR_1>
-0.11677657

>  <GCUT_SMR_2>
0.1041016

>  <GCUT_SMR_3>
2.4898484

>  <Kier1>
9

>  <Kier2>
2.7222223

>  <Kier3>
2.8800001

>  <KierA1>
9.6657495

>  <KierA2>
2.9519999

>  <KierA3>
3.1520798

>  <KierFlex>
3.1703658

>  <lip_acc>
3

>  <lip_don>
3

>  <lip_druglike>
1

>  <lip_violation>
0

>  <logP(o/w)>
-1.73473

>  <logS>
-0.92062002

>  <mr>
3.7622645

>  <mutagenic>
0

>  <nmol>
1

>  <opr_brigid>
0

>  <opr_leadlike>
1

>  <opr_nring>
0

>  <opr_nrot>
2

>  <opr_violation>
0

>  <PC+>
0

>  <PC->
0

>  <PEOE_PC+>
1.1796792

>  <PEOE_PC->
-1.1796792

>  <PEOE_RPC+>
0.23555338

>  <PEOE_RPC->
0.27979016

>  <PEOE_VSA+0>
25.592316

>  <PEOE_VSA+1>
4.2653861

>  <PEOE_VSA+2>
28.165083

>  <PEOE_VSA+3>
0

>  <PEOE_VSA+4>
10.324173

>  <PEOE_VSA+5>
14.708499

>  <PEOE_VSA+6>
0

>  <PEOE_VSA-0>
37.495354

>  <PEOE_VSA-1>
0

>  <PEOE_VSA-2>
0

>  <PEOE_VSA-3>
26.362989

>  <PEOE_VSA-4>
0

>  <PEOE_VSA-5>
13.566921

>  <PEOE_VSA-6>
14.418659

>  <PEOE_VSA_FHYD>
0.69686425

>  <PEOE_VSA_FNEG>
0.52512437

>  <PEOE_VSA_FPNEG>
0.16000961

>  <PEOE_VSA_FPOL>
0.30313572

>  <PEOE_VSA_FPOS>
0.47487566

>  <PEOE_VSA_FPPOS>
0.14312613

>  <PEOE_VSA_HYD>
121.88113

>  <PEOE_VSA_NEG>
91.843925

>  <PEOE_VSA_PNEG>
27.98558

>  <PEOE_VSA_POL>
53.018253

>  <PEOE_VSA_POS>
83.055458

>  <PEOE_VSA_PPOS>
25.032671

>  <petitjean>
0.5

>  <petitjeanSC>
1

>  <Q_PC+>
0

>  <Q_PC->
0

>  <Q_RPC+>
0

>  <Q_RPC->
0

>  <Q_VSA_FHYD>
1

>  <Q_VSA_FNEG>
0

>  <Q_VSA_FPNEG>
0

>  <Q_VSA_FPOL>
0

>  <Q_VSA_FPOS>
1

>  <Q_VSA_FPPOS>
0

>  <Q_VSA_HYD>
174.89938

>  <Q_VSA_NEG>
0

>  <Q_VSA_PNEG>
0

>  <Q_VSA_POL>
0

>  <Q_VSA_POS>
174.89938

>  <Q_VSA_PPOS>
0

>  <radius>
2

>  <reactive>
1

>  <rings>
0

>  <RPC+>
0

>  <RPC->
0

>  <rsynth>
1

>  <SlogP>
0.1067

>  <SlogP_VSA0>
32.897186

>  <SlogP_VSA1>
7.7454643

>  <SlogP_VSA2>
27.844185

>  <SlogP_VSA3>
25.385227

>  <SlogP_VSA4>
0

>  <SlogP_VSA5>
0

>  <SlogP_VSA6>
0

>  <SlogP_VSA7>
0

>  <SlogP_VSA8>
46.107109

>  <SlogP_VSA9>
66.652031

>  <SMR>
3.8677199

>  <SMR_VSA0>
23.862217

>  <SMR_VSA1>
0

>  <SMR_VSA2>
25.385227

>  <SMR_VSA3>
3.9819686

>  <SMR_VSA4>
32.897186

>  <SMR_VSA5>
0

>  <SMR_VSA6>
7.7454643

>  <SMR_VSA7>
112.75914

>  <TPSA>
102.12

>  <VAdjEq>
0.71696228

>  <VAdjMa>
4

>  <VDistEq>
1.9546859

>  <VDistMa>
6.0361614

>  <vdw_area>
174.89938

>  <vdw_vol>
181.73547

>  <vsa_acc>
0

>  <vsa_acid>
0

>  <vsa_base>
0

>  <vsa_don>
0

>  <vsa_hyd>
65.516449

>  <vsa_other>
46.09301

>  <vsa_pol>
44.876331

>  <Weight>
149.214

>  <weinerPath>
86

>  <weinerPol>
10

>  <zagreb>
40

$$$$