OC(=O)C=Cc1nc(ccc1)/C(=C/CN1CCCC1)/c1ccc(cc1)C
  MOE2013           2D

 26 28  0  0  0  0  0  0  0  0999 V2000
    0.0000    0.0000    0.0000 O   0  0  0  0  0  0  0  0  0  0  0  0
    0.7400    1.3050    0.0000 C   0  0  0  0  0  0  0  0  0  0  0  0
    2.2400    1.3160    0.0000 O   0  0  0  0  0  0  0  0  0  0  0  0
   -0.0190    2.5980    0.0000 C   0  0  0  0  0  0  0  0  0  0  0  0
   -1.5190    2.5870    0.0000 C   0  0  0  0  0  0  0  0  0  0  0  0
   -2.2790    3.8800    0.0000 C   0  0  0  0  0  0  0  0  0  0  0  0
   -3.7790    3.8690    0.0000 N   0  0  0  0  0  0  0  0  0  0  0  0
   -4.5380    5.1630    0.0000 C   0  0  0  0  0  0  0  0  0  0  0  0
   -3.7980    6.4670    0.0000 C   0  0  0  0  0  0  0  0  0  0  0  0
   -2.2980    6.4780    0.0000 C   0  0  0  0  0  0  0  0  0  0  0  0
   -1.5380    5.1850    0.0000 C   0  0  0  0  0  0  0  0  0  0  0  0
   -6.0380    5.1520    0.0000 C   0  0  0  0  0  0  0  0  0  0  0  0
   -6.7790    3.8470    0.0000 C   0  0  0  0  0  0  0  0  0  0  0  0
   -8.2790    3.8360    0.0000 C   0  0  0  0  0  0  0  0  0  0  0  0
   -9.0190    2.5320    0.0000 N   0  0  0  0  0  0  0  0  0  0  0  0
   -8.3990    1.1660    0.0000 C   0  0  0  0  0  0  0  0  0  0  0  0
   -9.5060    0.1540    0.0000 C   0  0  0  0  0  0  0  0  0  0  0  0
  -10.8110    0.8940    0.0000 C   0  0  0  0  0  0  0  0  0  0  0  0
  -10.5100    2.3640    0.0000 C   0  0  0  0  0  0  0  0  0  0  0  0
   -6.7980    6.4450    0.0000 C   0  0  0  0  0  0  0  0  0  0  0  0
   -6.0570    7.7500    0.0000 C   0  0  0  0  0  0  0  0  0  0  0  0
   -6.8170    9.0430    0.0000 C   0  0  0  0  0  0  0  0  0  0  0  0
   -8.3170    9.0320    0.0000 C   0  0  0  0  0  0  0  0  0  0  0  0
   -9.0570    7.7280    0.0000 C   0  0  0  0  0  0  0  0  0  0  0  0
   -8.2980    6.4340    0.0000 C   0  0  0  0  0  0  0  0  0  0  0  0
   -9.0760   10.3260    0.0000 C   0  0  0  0  0  0  0  0  0  0  0  0
  1  2  1  0  0  0  0
  2  3  2  0  0  0  0
  2  4  1  0  0  0  0
  4  5  2  3  0  0  0
  5  6  1  0  0  0  0
  6  7  2  0  0  0  0
  6 11  1  0  0  0  0
  7  8  1  0  0  0  0
  8  9  2  0  0  0  0
  8 12  1  0  0  0  0
  9 10  1  0  0  0  0
 10 11  2  0  0  0  0
 12 13  2  0  0  0  0
 12 20  1  0  0  0  0
 13 14  1  0  0  0  0
 14 15  1  0  0  0  0
 15 16  1  0  0  0  0
 15 19  1  0  0  0  0
 16 17  1  0  0  0  0
 17 18  1  0  0  0  0
 18 19  1  0  0  0  0
 20 21  1  0  0  0  0
 20 25  2  0  0  0  0
 21 22  2  0  0  0  0
 22 23  1  0  0  0  0
 23 24  2  0  0  0  0
 23 26  1  0  0  0  0
 24 25  1  0  0  0  0
M  END
>  <Index>
1425

>  <ID>
HT0069

>  <class>
1

>  <apol>
58.527031

>  <ast_fraglike>
0

>  <ast_fraglike_ext>
0

>  <ast_violation>
3

>  <ast_violation_ext>
4

>  <a_acc>
4

>  <a_acid>
0

>  <a_aro>
12

>  <a_base>
0

>  <a_count>
50

>  <a_don>
2

>  <a_donacc>
6

>  <a_heavy>
26

>  <a_hyd>
21

>  <a_IC>
70.046211

>  <a_ICM>
1.4009243

>  <a_nB>
0

>  <a_nBr>
0

>  <a_nC>
22

>  <a_nCl>
0

>  <a_nF>
0

>  <a_nH>
24

>  <a_nI>
0

>  <a_nN>
2

>  <a_nO>
2

>  <a_nP>
0

>  <a_nS>
0

>  <balabanJ>
1.5741299

>  <BCUT_PEOE_0>
-2.544245

>  <BCUT_PEOE_1>
-0.60898268

>  <BCUT_PEOE_2>
0.6637066

>  <BCUT_PEOE_3>
2.6781523

>  <BCUT_SLOGP_0>
-2.6182063

>  <BCUT_SLOGP_1>
-0.50545824

>  <BCUT_SLOGP_2>
0.76567888

>  <BCUT_SLOGP_3>
2.6982961

>  <BCUT_SMR_0>
-2.247201

>  <BCUT_SMR_1>
-0.4644933

>  <BCUT_SMR_2>
0.81614059

>  <BCUT_SMR_3>
2.9482996

>  <bpol>
30.494968

>  <b_1rotN>
6

>  <b_1rotR>
0.21428572

>  <b_ar>
12

>  <b_count>
52

>  <b_double>
3

>  <b_heavy>
28

>  <b_max1len>
3

>  <b_rotN>
6

>  <b_rotR>
0.21428572

>  <b_single>
37

>  <b_triple>
0

>  <chi0>
18.35516

>  <chi0v>
15.058926

>  <chi0v_C>
13.309036

>  <chi0_C>
15.070704

>  <chi1>
12.614194

>  <chi1v>
8.9966192

>  <chi1v_C>
7.1729913

>  <chi1_C>
9.418252

>  <chiral>
0

>  <chiral_u>
0

>  <density>
0.68945462

>  <diameter>
12

>  <FCharge>
0

>  <GCUT_PEOE_0>
-0.86020213

>  <GCUT_PEOE_1>
-0.3901414

>  <GCUT_PEOE_2>
0.071924277

>  <GCUT_PEOE_3>
2.6478052

>  <GCUT_SLOGP_0>
-0.95879918

>  <GCUT_SLOGP_1>
-0.27945462

>  <GCUT_SLOGP_2>
0.14828236

>  <GCUT_SLOGP_3>
2.7290695

>  <GCUT_SMR_0>
-0.52623183

>  <GCUT_SMR_1>
-0.20982587

>  <GCUT_SMR_2>
0.18414354

>  <GCUT_SMR_3>
2.9280233

>  <Kier1>
20.727041

>  <Kier2>
10.518627

>  <Kier3>
6.542222

>  <KierA1>
15.334712

>  <KierA2>
7.6810989

>  <KierA3>
4.7328553

>  <KierFlex>
4.5302863

>  <lip_acc>
4

>  <lip_don>
1

>  <lip_druglike>
1

>  <lip_violation>
0

>  <logP(o/w)>
4.1459999

>  <logS>
-4.08886

>  <mr>
10.466592

>  <mutagenic>
0

>  <nmol>
1

>  <opr_brigid>
19

>  <opr_leadlike>
1

>  <opr_nring>
3

>  <opr_nrot>
7

>  <opr_violation>
0

>  <PC+>
0

>  <PC->
0

>  <PEOE_PC+>
1.76434

>  <PEOE_PC->
-1.76434

>  <PEOE_RPC+>
0.16100787

>  <PEOE_RPC->
0.18586473

>  <PEOE_VSA+0>
83.105789

>  <PEOE_VSA+1>
56.052963

>  <PEOE_VSA+2>
0

>  <PEOE_VSA+3>
0

>  <PEOE_VSA+4>
10.324173

>  <PEOE_VSA+5>
14.708499

>  <PEOE_VSA+6>
0

>  <PEOE_VSA-0>
101.5082

>  <PEOE_VSA-1>
75.737961

>  <PEOE_VSA-2>
0

>  <PEOE_VSA-3>
0

>  <PEOE_VSA-4>
5.6825762

>  <PEOE_VSA-5>
13.566921

>  <PEOE_VSA-6>
7.7675405

>  <PEOE_VSA_FHYD>
0.85873508

>  <PEOE_VSA_FNEG>
0.55437815

>  <PEOE_VSA_FPNEG>
0.073325276

>  <PEOE_VSA_FPOL>
0.14126492

>  <PEOE_VSA_FPOS>
0.44562182

>  <PEOE_VSA_FPPOS>
0.067939632

>  <PEOE_VSA_HYD>
316.40491

>  <PEOE_VSA_NEG>
204.2632

>  <PEOE_VSA_PNEG>
27.017036

>  <PEOE_VSA_POL>
52.049709

>  <PEOE_VSA_POS>
164.19142

>  <PEOE_VSA_PPOS>
25.032671

>  <petitjean>
0.5

>  <petitjeanSC>
1

>  <Q_PC+>
0

>  <Q_PC->
0

>  <Q_RPC+>
0

>  <Q_RPC->
0

>  <Q_VSA_FHYD>
1

>  <Q_VSA_FNEG>
0

>  <Q_VSA_FPNEG>
0

>  <Q_VSA_FPOL>
0

>  <Q_VSA_FPOS>
1

>  <Q_VSA_FPPOS>
0

>  <Q_VSA_HYD>
368.45462

>  <Q_VSA_NEG>
0

>  <Q_VSA_PNEG>
0

>  <Q_VSA_POL>
0

>  <Q_VSA_POS>
368.45462

>  <Q_VSA_PPOS>
0

>  <radius>
6

>  <reactive>
0

>  <rings>
3

>  <RPC+>
0

>  <RPC->
0

>  <rsynth>
1

>  <SlogP>
3.8326099

>  <SlogP_VSA0>
0

>  <SlogP_VSA1>
27.655308

>  <SlogP_VSA2>
23.862217

>  <SlogP_VSA3>
83.889534

>  <SlogP_VSA4>
11.884645

>  <SlogP_VSA5>
0

>  <SlogP_VSA6>
0

>  <SlogP_VSA7>
158.78867

>  <SlogP_VSA8>
55.379993

>  <SlogP_VSA9>
33.326015

>  <SMR>
10.37768

>  <SMR_VSA0>
23.862217

>  <SMR_VSA1>
19.909843

>  <SMR_VSA2>
28.570801

>  <SMR_VSA3>
11.884645

>  <SMR_VSA4>
0

>  <SMR_VSA5>
196.52547

>  <SMR_VSA6>
80.707382

>  <SMR_VSA7>
33.326015

>  <TPSA>
53.43

>  <VAdjEq>
0.41210872

>  <VAdjMa>
5.8073549

>  <VDistEq>
3.4373553

>  <VDistMa>
9.1273832

>  <vdw_area>
368.45462

>  <vdw_vol>
505.39365

>  <vsa_acc>
5.6825762

>  <vsa_acid>
0

>  <vsa_base>
0

>  <vsa_don>
0

>  <vsa_hyd>
300.03363

>  <vsa_other>
14.708499

>  <vsa_pol>
32.816418

>  <Weight>
348.44598

>  <weinerPath>
1755

>  <weinerPol>
34

>  <zagreb>
130

$$$$