s1c2c(cc1)/C(/c1c(CC2)cccc1)=C1/CCN(CC/1)C
  MOE2013           2D

 21 24  0  0  0  0  0  0  0  0999 V2000
    0.0000    0.0000    0.0000 S   0  0  0  0  0  0  0  0  0  0  0  0
   -0.2530   -1.4790    0.0000 C   0  0  0  0  0  0  0  0  0  0  0  0
    1.0750   -2.1760    0.0000 C   0  0  0  0  0  0  0  0  0  0  0  0
    2.1490   -1.1280    0.0000 C   0  0  0  0  0  0  0  0  0  0  0  0
    1.4840    0.2170    0.0000 C   0  0  0  0  0  0  0  0  0  0  0  0
    1.3590   -3.6490    0.0000 C   0  0  0  0  0  0  0  0  0  0  0  0
    0.3830   -4.7880    0.0000 C   0  0  0  0  0  0  0  0  0  0  0  0
   -1.1160   -4.7350    0.0000 C   0  0  0  0  0  0  0  0  0  0  0  0
   -2.0120   -3.5310    0.0000 C   0  0  0  0  0  0  0  0  0  0  0  0
   -1.6260   -2.0810    0.0000 C   0  0  0  0  0  0  0  0  0  0  0  0
   -1.9110   -6.0070    0.0000 C   0  0  0  0  0  0  0  0  0  0  0  0
   -1.2070   -7.3320    0.0000 C   0  0  0  0  0  0  0  0  0  0  0  0
    0.2920   -7.3840    0.0000 C   0  0  0  0  0  0  0  0  0  0  0  0
    1.0870   -6.1120    0.0000 C   0  0  0  0  0  0  0  0  0  0  0  0
    2.8090   -4.0330    0.0000 C   0  0  0  0  0  0  0  0  0  0  0  0
    3.2010   -5.4810    0.0000 C   0  0  0  0  0  0  0  0  0  0  0  0
    4.6510   -5.8660    0.0000 C   0  0  0  0  0  0  0  0  0  0  0  0
    5.7090   -4.8020    0.0000 N   0  0  0  0  0  0  0  0  0  0  0  0
    5.3170   -3.3540    0.0000 C   0  0  0  0  0  0  0  0  0  0  0  0
    3.8670   -2.9700    0.0000 C   0  0  0  0  0  0  0  0  0  0  0  0
    7.1590   -5.1870    0.0000 C   0  0  0  0  0  0  0  0  0  0  0  0
  1  2  1  0  0  0  0
  1  5  1  0  0  0  0
  2  3  2  0  0  0  0
  2 10  1  0  0  0  0
  3  4  1  0  0  0  0
  3  6  1  0  0  0  0
  4  5  2  0  0  0  0
  6  7  1  0  0  0  0
  6 15  2  0  0  0  0
  7  8  2  0  0  0  0
  7 14  1  0  0  0  0
  8  9  1  0  0  0  0
  8 11  1  0  0  0  0
  9 10  1  0  0  0  0
 11 12  2  0  0  0  0
 12 13  1  0  0  0  0
 13 14  2  0  0  0  0
 15 16  1  0  0  0  0
 15 20  1  0  0  0  0
 16 17  1  0  0  0  0
 17 18  1  0  0  0  0
 18 19  1  0  0  0  0
 18 21  1  0  0  0  0
 19 20  1  0  0  0  0
M  END
>  <Index>
1695

>  <ID>
HT1702

>  <class>
1

>  <apol>
51.442654

>  <ast_fraglike>
0

>  <ast_fraglike_ext>
0

>  <ast_violation>
1

>  <ast_violation_ext>
1

>  <a_acc>
1

>  <a_acid>
0

>  <a_aro>
11

>  <a_base>
0

>  <a_count>
42

>  <a_don>
0

>  <a_donacc>
1

>  <a_heavy>
21

>  <a_hyd>
20

>  <a_IC>
53.528042

>  <a_ICM>
1.2744772

>  <a_nB>
0

>  <a_nBr>
0

>  <a_nC>
19

>  <a_nCl>
0

>  <a_nF>
0

>  <a_nH>
21

>  <a_nI>
0

>  <a_nN>
1

>  <a_nO>
0

>  <a_nP>
0

>  <a_nS>
1

>  <balabanJ>
1.5862978

>  <BCUT_PEOE_0>
-2.719254

>  <BCUT_PEOE_1>
-0.50411916

>  <BCUT_PEOE_2>
0.57855743

>  <BCUT_PEOE_3>
2.6306837

>  <BCUT_SLOGP_0>
-2.7418616

>  <BCUT_SLOGP_1>
-0.37821314

>  <BCUT_SLOGP_2>
0.69950068

>  <BCUT_SLOGP_3>
2.6721992

>  <BCUT_SMR_0>
-2.4354987

>  <BCUT_SMR_1>
-0.31992885

>  <BCUT_SMR_2>
0.75261688

>  <BCUT_SMR_3>
2.9125659

>  <bpol>
27.217346

>  <b_1rotN>
0

>  <b_1rotR>
0

>  <b_ar>
11

>  <b_count>
45

>  <b_double>
1

>  <b_heavy>
24

>  <b_max1len>
2

>  <b_rotN>
0

>  <b_rotR>
0

>  <b_single>
33

>  <b_triple>
0

>  <chi0>
14.23384

>  <chi0v>
13.378701

>  <chi0v_C>
11.706742

>  <chi0_C>
12.949383

>  <chi1>
10.3265

>  <chi1v>
8.7627211

>  <chi1v_C>
6.3635721

>  <chi1_C>
8.0244045

>  <chiral>
0

>  <chiral_u>
0

>  <density>
0.69136715

>  <diameter>
9

>  <FCharge>
0

>  <GCUT_PEOE_0>
-0.85857582

>  <GCUT_PEOE_1>
-0.35342535

>  <GCUT_PEOE_2>
0.037050162

>  <GCUT_PEOE_3>
2.7851994

>  <GCUT_SLOGP_0>
-0.95211911

>  <GCUT_SLOGP_1>
-0.25920501

>  <GCUT_SLOGP_2>
0.14403488

>  <GCUT_SLOGP_3>
2.8994384

>  <GCUT_SMR_0>
-0.51363564

>  <GCUT_SMR_1>
-0.16824524

>  <GCUT_SMR_2>
0.17836903

>  <GCUT_SMR_3>
3.0783467

>  <Kier1>
14.583333

>  <Kier2>
6.2456746

>  <Kier3>
2.8125

>  <KierA1>
12.418313

>  <KierA2>
5.2731123

>  <KierA3>
2.3589802

>  <KierFlex>
3.1182458

>  <lip_acc>
1

>  <lip_don>
0

>  <lip_druglike>
1

>  <lip_violation>
0

>  <logP(o/w)>
3.8710001

>  <logS>
-3.4874799

>  <mr>
9.0913754

>  <mutagenic>
0

>  <nmol>
1

>  <opr_brigid>
23

>  <opr_leadlike>
1

>  <opr_nring>
4

>  <opr_nrot>
2

>  <opr_violation>
0

>  <PC+>
0

>  <PC->
0

>  <PEOE_PC+>
1.0628365

>  <PEOE_PC->
-1.0628365

>  <PEOE_RPC+>
0.14754708

>  <PEOE_RPC->
0.28671518

>  <PEOE_VSA+0>
94.630829

>  <PEOE_VSA+1>
21.326929

>  <PEOE_VSA+2>
0

>  <PEOE_VSA+3>
19.760618

>  <PEOE_VSA+4>
0

>  <PEOE_VSA+5>
0

>  <PEOE_VSA+6>
0

>  <PEOE_VSA-0>
66.878098

>  <PEOE_VSA-1>
67.667664

>  <PEOE_VSA-2>
14.230966

>  <PEOE_VSA-3>
0

>  <PEOE_VSA-4>
0

>  <PEOE_VSA-5>
0

>  <PEOE_VSA-6>
0

>  <PEOE_VSA_FHYD>
1

>  <PEOE_VSA_FNEG>
0.52295005

>  <PEOE_VSA_FPNEG>
0

>  <PEOE_VSA_FPOL>
0

>  <PEOE_VSA_FPOS>
0.47704995

>  <PEOE_VSA_FPPOS>
0

>  <PEOE_VSA_HYD>
284.49509

>  <PEOE_VSA_NEG>
148.77673

>  <PEOE_VSA_PNEG>
0

>  <PEOE_VSA_POL>
0

>  <PEOE_VSA_POS>
135.71837

>  <PEOE_VSA_PPOS>
0

>  <petitjean>
0.44444445

>  <petitjeanSC>
0.80000001

>  <Q_PC+>
0

>  <Q_PC->
0

>  <Q_RPC+>
0

>  <Q_RPC->
0

>  <Q_VSA_FHYD>
1

>  <Q_VSA_FNEG>
0

>  <Q_VSA_FPNEG>
0

>  <Q_VSA_FPOL>
0

>  <Q_VSA_FPOS>
1

>  <Q_VSA_FPPOS>
0

>  <Q_VSA_HYD>
284.49509

>  <Q_VSA_NEG>
0

>  <Q_VSA_PNEG>
0

>  <Q_VSA_POL>
0

>  <Q_VSA_POS>
284.49509

>  <Q_VSA_PPOS>
0

>  <radius>
5

>  <reactive>
0

>  <rings>
4

>  <RPC+>
0

>  <RPC->
0

>  <rsynth>
0.047619049

>  <SlogP>
4.1914301

>  <SlogP_VSA0>
0

>  <SlogP_VSA1>
3.1243138

>  <SlogP_VSA2>
0

>  <SlogP_VSA3>
40.064732

>  <SlogP_VSA4>
10.915126

>  <SlogP_VSA5>
73.819572

>  <SlogP_VSA6>
0

>  <SlogP_VSA7>
104.03193

>  <SlogP_VSA8>
37.736813

>  <SlogP_VSA9>
31.277687

>  <SMR>
8.9860001

>  <SMR_VSA0>
0

>  <SMR_VSA1>
3.1243138

>  <SMR_VSA2>
3.185575

>  <SMR_VSA3>
14.100701

>  <SMR_VSA4>
0

>  <SMR_VSA5>
179.50555

>  <SMR_VSA6>
36.879158

>  <SMR_VSA7>
64.174873

>  <TPSA>
3.24

>  <VAdjEq>
0.49641782

>  <VAdjMa>
5.5849624

>  <VDistEq>
2.8946509

>  <VDistMa>
8.5307093

>  <vdw_area>
284.49509

>  <vdw_vol>
427.34171

>  <vsa_acc>
0

>  <vsa_acid>
0

>  <vsa_base>
0

>  <vsa_don>
0

>  <vsa_hyd>
269.54739

>  <vsa_other>
0

>  <vsa_pol>
0

>  <Weight>
295.44998

>  <weinerPath>
819

>  <weinerPol>
37

>  <zagreb>
116

$$$$