s1cc(nc1NC(N)=N)CSCCC(NS(=O)(=O)N)=N
  MOE2013           2D

 20 20  0  0  0  0  0  0  0  0999 V2000
    0.0000    0.0000    0.0000 S   0  0  0  0  0  0  0  0  0  0  0  0
   -1.4980   -0.0790    0.0000 C   0  0  0  0  0  0  0  0  0  0  0  0
   -2.0360    1.3220    0.0000 C   0  0  0  0  0  0  0  0  0  0  0  0
   -0.8700    2.2660    0.0000 N   0  0  0  0  0  0  0  0  0  0  0  0
    0.3880    1.4490    0.0000 C   0  0  0  0  0  0  0  0  0  0  0  0
    1.7890    1.9870    0.0000 N   0  0  0  0  0  0  0  0  0  0  0  0
    2.9540    1.0430    0.0000 C   0  0  0  0  0  0  0  0  0  0  0  0
    2.7200   -0.4390    0.0000 N   0  0  0  0  0  0  0  0  0  0  0  0
    4.3550    1.5800    0.0000 N   0  0  0  0  0  0  0  0  0  0  0  0
   -3.4840    1.7100    0.0000 C   0  0  0  0  0  0  0  0  0  0  0  0
   -4.5450    0.6490    0.0000 S   0  0  0  0  0  0  0  0  0  0  0  0
   -5.9940    1.0370    0.0000 C   0  0  0  0  0  0  0  0  0  0  0  0
   -7.0550   -0.0230    0.0000 C   0  0  0  0  0  0  0  0  0  0  0  0
   -8.5040    0.3650    0.0000 C   0  0  0  0  0  0  0  0  0  0  0  0
   -9.5640   -0.6960    0.0000 N   0  0  0  0  0  0  0  0  0  0  0  0
  -11.0130   -0.3080    0.0000 S   0  0  0  0  0  0  0  0  0  0  0  0
  -11.4010   -1.7570    0.0000 O   0  0  0  0  0  0  0  0  0  0  0  0
  -10.6250    1.1410    0.0000 O   0  0  0  0  0  0  0  0  0  0  0  0
  -12.4620    0.0800    0.0000 N   0  0  0  0  0  0  0  0  0  0  0  0
   -8.8920    1.8140    0.0000 N   0  0  0  0  0  0  0  0  0  0  0  0
  1  2  1  0  0  0  0
  1  5  1  0  0  0  0
  2  3  2  0  0  0  0
  3  4  1  0  0  0  0
  3 10  1  0  0  0  0
  4  5  2  0  0  0  0
  5  6  1  0  0  0  0
  6  7  1  0  0  0  0
  7  8  1  0  0  0  0
  7  9  2  0  0  0  0
 10 11  1  0  0  0  0
 11 12  1  0  0  0  0
 12 13  1  0  0  0  0
 13 14  1  0  0  0  0
 14 15  1  0  0  0  0
 14 20  2  0  0  0  0
 15 16  1  0  0  0  0
 16 17  2  0  0  0  0
 16 18  2  0  0  0  0
 16 19  1  0  0  0  0
M  END
>  <Index>
1563

>  <ID>
HT0847

>  <class>
1

>  <apol>
42.085896

>  <ast_fraglike>
0

>  <ast_fraglike_ext>
0

>  <ast_violation>
3

>  <ast_violation_ext>
5

>  <a_acc>
5

>  <a_acid>
0

>  <a_aro>
5

>  <a_base>
0

>  <a_count>
35

>  <a_don>
6

>  <a_donacc>
11

>  <a_heavy>
20

>  <a_hyd>
7

>  <a_IC>
70.515175

>  <a_ICM>
2.0147192

>  <a_nB>
0

>  <a_nBr>
0

>  <a_nC>
8

>  <a_nCl>
0

>  <a_nF>
0

>  <a_nH>
15

>  <a_nI>
0

>  <a_nN>
7

>  <a_nO>
2

>  <a_nP>
0

>  <a_nS>
3

>  <balabanJ>
2.0534985

>  <BCUT_PEOE_0>
-2.4936953

>  <BCUT_PEOE_1>
-0.57105136

>  <BCUT_PEOE_2>
0.62290645

>  <BCUT_PEOE_3>
2.4848263

>  <BCUT_SLOGP_0>
-2.7373345

>  <BCUT_SLOGP_1>
-0.68806654

>  <BCUT_SLOGP_2>
0.68147713

>  <BCUT_SLOGP_3>
2.5844567

>  <BCUT_SMR_0>
-2.1793847

>  <BCUT_SMR_1>
-0.39614052

>  <BCUT_SMR_2>
0.90761322

>  <BCUT_SMR_3>
2.8284745

>  <bpol>
28.754105

>  <b_1rotN>
7

>  <b_1rotR>
0.34999999

>  <b_ar>
5

>  <b_count>
35

>  <b_double>
2

>  <b_heavy>
20

>  <b_max1len>
5

>  <b_rotN>
9

>  <b_rotR>
0.44999999

>  <b_single>
28

>  <b_triple>
0

>  <chi0>
15.173362

>  <chi0v>
12.791316

>  <chi0v_C>
4.6986704

>  <chi0_C>
5.1378284

>  <chi1>
9.2598391

>  <chi1v>
8.8526802

>  <chi1v_C>
1.4957819

>  <chi1_C>
1.7247449

>  <chiral>
0

>  <chiral_u>
0

>  <density>
0.93853766

>  <diameter>
13

>  <FCharge>
0

>  <GCUT_PEOE_0>
-0.840051

>  <GCUT_PEOE_1>
-0.36612603

>  <GCUT_PEOE_2>
0.080184795

>  <GCUT_PEOE_3>
2.2780557

>  <GCUT_SLOGP_0>
-1.3705999

>  <GCUT_SLOGP_1>
-0.40991974

>  <GCUT_SLOGP_2>
0.17911421

>  <GCUT_SLOGP_3>
2.3723123

>  <GCUT_SMR_0>
-0.48653522

>  <GCUT_SMR_1>
-0.15027918

>  <GCUT_SMR_2>
0.29696763

>  <GCUT_SMR_3>
2.6107676

>  <Kier1>
18.049999

>  <Kier2>
8.4444447

>  <Kier3>
8.8128004

>  <KierA1>
17.577753

>  <KierA2>
8.2115564

>  <KierA3>
8.5606508

>  <KierFlex>
7.2170353

>  <lip_acc>
9

>  <lip_don>
8

>  <lip_druglike>
1

>  <lip_violation>
1

>  <logP(o/w)>
-0.69

>  <logS>
-2.8889301

>  <mr>
7.9021626

>  <mutagenic>
0

>  <nmol>
1

>  <opr_brigid>
7

>  <opr_leadlike>
0

>  <opr_nring>
1

>  <opr_nrot>
8

>  <opr_violation>
2

>  <PC+>
0

>  <PC->
0

>  <PEOE_PC+>
2.2218454

>  <PEOE_PC->
-2.2218454

>  <PEOE_RPC+>
0.10795043

>  <PEOE_RPC->
0.19677286

>  <PEOE_VSA+0>
54.159805

>  <PEOE_VSA+1>
26.051023

>  <PEOE_VSA+2>
17.238026

>  <PEOE_VSA+3>
78.537254

>  <PEOE_VSA+4>
13.698418

>  <PEOE_VSA+5>
0

>  <PEOE_VSA+6>
0

>  <PEOE_VSA-0>
51.39521

>  <PEOE_VSA-1>
23.274715

>  <PEOE_VSA-2>
0

>  <PEOE_VSA-3>
22.29014

>  <PEOE_VSA-4>
5.6825762

>  <PEOE_VSA-5>
12.196804

>  <PEOE_VSA-6>
18.984816

>  <PEOE_VSA_FHYD>
0.84370559

>  <PEOE_VSA_FNEG>
0.413665

>  <PEOE_VSA_FPNEG>
0.11395114

>  <PEOE_VSA_FPOL>
0.15629441

>  <PEOE_VSA_FPOS>
0.586335

>  <PEOE_VSA_FPPOS>
0.042343263

>  <PEOE_VSA_HYD>
272.94617

>  <PEOE_VSA_NEG>
133.82426

>  <PEOE_VSA_PNEG>
36.864197

>  <PEOE_VSA_POL>
50.562614

>  <PEOE_VSA_POS>
189.68452

>  <PEOE_VSA_PPOS>
13.698418

>  <petitjean>
0.46153846

>  <petitjeanSC>
0.85714287

>  <Q_PC+>
0

>  <Q_PC->
0

>  <Q_RPC+>
0

>  <Q_RPC->
0

>  <Q_VSA_FHYD>
1

>  <Q_VSA_FNEG>
0

>  <Q_VSA_FPNEG>
0

>  <Q_VSA_FPOL>
0

>  <Q_VSA_FPOS>
1

>  <Q_VSA_FPPOS>
0

>  <Q_VSA_HYD>
323.50879

>  <Q_VSA_NEG>
0

>  <Q_VSA_PNEG>
0

>  <Q_VSA_POL>
0

>  <Q_VSA_POS>
323.50879

>  <Q_VSA_PPOS>
0

>  <radius>
7

>  <reactive>
0

>  <rings>
1

>  <RPC+>
0

>  <RPC->
0

>  <rsynth>
1

>  <SlogP>
0.10854

>  <SlogP_VSA0>
80.59362

>  <SlogP_VSA1>
87.194984

>  <SlogP_VSA2>
6.4022179

>  <SlogP_VSA3>
17.233564

>  <SlogP_VSA4>
2.7567475

>  <SlogP_VSA5>
0

>  <SlogP_VSA6>
0

>  <SlogP_VSA7>
79.159943

>  <SlogP_VSA8>
18.868406

>  <SlogP_VSA9>
81.231537

>  <SMR>
8.26054

>  <SMR_VSA0>
48.171688

>  <SMR_VSA1>
16.78553

>  <SMR_VSA2>
79.748932

>  <SMR_VSA3>
2.7567475

>  <SMR_VSA4>
82.700119

>  <SMR_VSA5>
51.91798

>  <SMR_VSA6>
21.460577

>  <SMR_VSA7>
69.899445

>  <TPSA>
170.83

>  <VAdjEq>
0.4689956

>  <VAdjMa>
5.321928

>  <VDistEq>
3.5654135

>  <VDistMa>
8.285758

>  <vdw_area>
323.50879

>  <vdw_vol>
359.55191

>  <vsa_acc>
37.6991

>  <vsa_acid>
0

>  <vsa_base>
0

>  <vsa_don>
51.635391

>  <vsa_hyd>
115.38295

>  <vsa_other>
53.737179

>  <vsa_pol>
124.81947

>  <Weight>
337.453

>  <weinerPath>
1046

>  <weinerPol>
20

>  <zagreb>
94

$$$$