o1ncc2C[C@]3([C@@H]4[C@H]([C@@H]5CC[C@](O)(C#C)[C@@]5(CC4)C)CCC3=Cc12)C
  MOE2013           2D

 25 29  0  0  1  0  0  0  0  0999 V2000
    0.0000    0.0000    0.0000 O   0  0  0  0  0  0  0  0  0  0  0  0
   -0.2530   -1.4780    0.0000 N   0  0  0  0  0  0  0  0  0  0  0  0
    1.0750   -2.1760    0.0000 C   0  0  0  0  0  0  0  0  0  0  0  0
    2.1480   -1.1290    0.0000 C   0  0  0  0  0  0  0  0  0  0  0  0
    3.6450   -1.2260    0.0000 C   0  0  0  0  0  0  0  0  0  0  0  0
    4.4780    0.0210    0.0000 C   0  0  1  0  0  0  0  0  0  0  0  0
    5.9750   -0.0760    0.0000 C   0  0  2  0  0  0  0  0  0  0  0  0
    6.8080    1.1720    0.0000 C   0  0  2  0  0  0  0  0  0  0  0  0
    8.3040    1.0740    0.0000 C   0  0  2  0  0  0  0  0  0  0  0  0
    9.3780    2.1210    0.0000 C   0  0  0  0  0  0  0  0  0  0  0  0
   10.7060    1.4240    0.0000 C   0  0  0  0  0  0  0  0  0  0  0  0
   10.4530   -0.0550    0.0000 C   0  0  2  0  0  0  0  0  0  0  0  0
   10.7460   -1.5260    0.0000 O   0  0  0  0  0  0  0  0  0  0  0  0
   11.8890   -0.4860    0.0000 C   0  0  0  0  0  0  0  0  0  0  0  0
   13.3260   -0.9180    0.0000 C   0  0  0  0  0  0  0  0  0  0  0  0
    8.9690   -0.2710    0.0000 C   0  0  2  0  0  0  0  0  0  0  0  0
    8.1360   -1.5180    0.0000 C   0  0  0  0  0  0  0  0  0  0  0  0
    6.6390   -1.4210    0.0000 C   0  0  0  0  0  0  0  0  0  0  0  0
    9.7700   -1.5390    0.0000 C   0  0  0  0  0  0  0  0  0  0  0  0
    6.1440    2.5160    0.0000 C   0  0  0  0  0  0  0  0  0  0  0  0
    4.6470    2.6140    0.0000 C   0  0  0  0  0  0  0  0  0  0  0  0
    3.8140    1.3660    0.0000 C   0  0  0  0  0  0  0  0  0  0  0  0
    2.3170    1.4640    0.0000 C   0  0  0  0  0  0  0  0  0  0  0  0
    1.4840    0.2160    0.0000 C   0  0  0  0  0  0  0  0  0  0  0  0
    5.1660   -1.3120    0.0000 C   0  0  0  0  0  0  0  0  0  0  0  0
  1  2  1  0  0  0  0
  1 24  1  0  0  0  0
  2  3  2  0  0  0  0
  3  4  1  0  0  0  0
  4  5  1  0  0  0  0
  4 24  2  0  0  0  0
  5  6  1  0  0  0  0
  6  7  1  0  0  0  0
  6 22  1  0  0  0  0
  6 25  1  1  0  0  0
  7  8  1  0  0  0  0
  7 18  1  6  0  0  0
  8  9  1  0  0  0  0
  8 20  1  1  0  0  0
  9 10  1  6  0  0  0
  9 16  1  0  0  0  0
 10 11  1  0  0  0  0
 11 12  1  0  0  0  0
 12 13  1  1  0  0  0
 12 14  1  6  0  0  0
 12 16  1  0  0  0  0
 14 15  3  0  0  0  0
 16 17  1  0  0  0  0
 16 19  1  1  0  0  0
 17 18  1  0  0  0  0
 20 21  1  0  0  0  0
 21 22  1  0  0  0  0
 22 23  2  0  0  0  0
 23 24  1  0  0  0  0
M  END
>  <Index>
1514

>  <ID>
HT0587

>  <class>
1

>  <apol>
59.42741

>  <ast_fraglike>
0

>  <ast_fraglike_ext>
0

>  <ast_violation>
2

>  <ast_violation_ext>
2

>  <a_acc>
2

>  <a_acid>
0

>  <a_aro>
5

>  <a_base>
0

>  <a_count>
52

>  <a_don>
1

>  <a_donacc>
3

>  <a_heavy>
25

>  <a_hyd>
21

>  <a_IC>
67.933411

>  <a_ICM>
1.3064116

>  <a_nB>
0

>  <a_nBr>
0

>  <a_nC>
22

>  <a_nCl>
0

>  <a_nF>
0

>  <a_nH>
27

>  <a_nI>
0

>  <a_nN>
1

>  <a_nO>
2

>  <a_nP>
0

>  <a_nS>
0

>  <balabanJ>
1.4478934

>  <BCUT_PEOE_0>
-2.936666

>  <BCUT_PEOE_1>
-0.49345723

>  <BCUT_PEOE_2>
0.52939779

>  <BCUT_PEOE_3>
2.9600303

>  <BCUT_SLOGP_0>
-2.863404

>  <BCUT_SLOGP_1>
-0.44054025

>  <BCUT_SLOGP_2>
0.52342498

>  <BCUT_SLOGP_3>
3.0279944

>  <BCUT_SMR_0>
-2.6825399

>  <BCUT_SMR_1>
-0.33906898

>  <BCUT_SMR_2>
0.71568722

>  <BCUT_SMR_3>
3.2090709

>  <bpol>
31.432589

>  <b_1rotN>
0

>  <b_1rotR>
0

>  <b_ar>
5

>  <b_count>
56

>  <b_double>
1

>  <b_heavy>
29

>  <b_max1len>
3

>  <b_rotN>
1

>  <b_rotR>
0.034482758

>  <b_single>
49

>  <b_triple>
1

>  <chi0>
17.449383

>  <chi0v>
15.216524

>  <chi0v_C>
13.913849

>  <chi0_C>
15.03517

>  <chi1>
11.91158

>  <chi1v>
9.7597332

>  <chi1v_C>
8.8912296

>  <chi1_C>
10.003332

>  <chiral>
6

>  <chiral_u>
0

>  <density>
0.69471681

>  <diameter>
11

>  <FCharge>
0

>  <GCUT_PEOE_0>
-0.80007452

>  <GCUT_PEOE_1>
-0.3724536

>  <GCUT_PEOE_2>
0.020363826

>  <GCUT_PEOE_3>
3.2926981

>  <GCUT_SLOGP_0>
-0.88827085

>  <GCUT_SLOGP_1>
-0.30260912

>  <GCUT_SLOGP_2>
0.01699708

>  <GCUT_SLOGP_3>
3.3762915

>  <GCUT_SMR_0>
-0.53814089

>  <GCUT_SMR_1>
-0.19682214

>  <GCUT_SMR_2>
0.16893648

>  <GCUT_SMR_3>
3.5242481

>  <Kier1>
17.122473

>  <Kier2>
5.5104165

>  <Kier3>
2.1212564

>  <KierA1>
14.597068

>  <KierA2>
4.6647358

>  <KierA3>
1.7862594

>  <KierFlex>
2.7236588

>  <lip_acc>
3

>  <lip_don>
1

>  <lip_druglike>
1

>  <lip_violation>
0

>  <logP(o/w)>
3.642

>  <logS>
-5.56988

>  <mr>
9.7230959

>  <mutagenic>
0

>  <nmol>
1

>  <opr_brigid>
25

>  <opr_leadlike>
1

>  <opr_nring>
5

>  <opr_nrot>
1

>  <opr_violation>
1

>  <PC+>
0

>  <PC->
0

>  <PEOE_PC+>
1.5245159

>  <PEOE_PC->
-1.5245159

>  <PEOE_RPC+>
0.13867146

>  <PEOE_RPC->
0.24662763

>  <PEOE_VSA+0>
100.31242

>  <PEOE_VSA+1>
25.276688

>  <PEOE_VSA+2>
4.2653861

>  <PEOE_VSA+3>
8.458519

>  <PEOE_VSA+4>
10.324173

>  <PEOE_VSA+5>
0

>  <PEOE_VSA+6>
0

>  <PEOE_VSA-0>
73.164093

>  <PEOE_VSA-1>
66.397652

>  <PEOE_VSA-2>
25.854858

>  <PEOE_VSA-3>
0

>  <PEOE_VSA-4>
0

>  <PEOE_VSA-5>
0

>  <PEOE_VSA-6>
13.6699

>  <PEOE_VSA_FHYD>
0.92678565

>  <PEOE_VSA_FNEG>
0.5464558

>  <PEOE_VSA_FPNEG>
0.041711662

>  <PEOE_VSA_FPOL>
0.073214337

>  <PEOE_VSA_FPOS>
0.45354423

>  <PEOE_VSA_FPPOS>
0.031502675

>  <PEOE_VSA_HYD>
303.72961

>  <PEOE_VSA_NEG>
179.0865

>  <PEOE_VSA_PNEG>
13.6699

>  <PEOE_VSA_POL>
23.994072

>  <PEOE_VSA_POS>
148.63718

>  <PEOE_VSA_PPOS>
10.324173

>  <petitjean>
0.45454547

>  <petitjeanSC>
0.83333331

>  <Q_PC+>
0

>  <Q_PC->
0

>  <Q_RPC+>
0

>  <Q_RPC->
0

>  <Q_VSA_FHYD>
1

>  <Q_VSA_FNEG>
0

>  <Q_VSA_FPNEG>
0

>  <Q_VSA_FPOL>
0

>  <Q_VSA_FPOS>
1

>  <Q_VSA_FPPOS>
0

>  <Q_VSA_HYD>
327.72369

>  <Q_VSA_NEG>
0

>  <Q_VSA_PNEG>
0

>  <Q_VSA_POL>
0

>  <Q_VSA_POS>
327.72369

>  <Q_VSA_PPOS>
0

>  <radius>
6

>  <reactive>
0

>  <rings>
5

>  <RPC+>
0

>  <RPC->
0

>  <rsynth>
0.23999999

>  <SlogP>
4.2209778

>  <SlogP_VSA0>
25.385227

>  <SlogP_VSA1>
19.596598

>  <SlogP_VSA2>
0

>  <SlogP_VSA3>
17.030573

>  <SlogP_VSA4>
53.354969

>  <SlogP_VSA5>
31.788101

>  <SlogP_VSA6>
0

>  <SlogP_VSA7>
17.214357

>  <SlogP_VSA8>
130.85362

>  <SlogP_VSA9>
66.652031

>  <SMR>
9.6352797

>  <SMR_VSA0>
9.7341213

>  <SMR_VSA1>
44.981823

>  <SMR_VSA2>
13.232388

>  <SMR_VSA3>
28.850544

>  <SMR_VSA4>
0

>  <SMR_VSA5>
149.2932

>  <SMR_VSA6>
49.131367

>  <SMR_VSA7>
66.652031

>  <TPSA>
46.259998

>  <VAdjEq>
0.44574744

>  <VAdjMa>
5.8579812

>  <VDistEq>
3.1534925

>  <VDistMa>
9.0092773

>  <vdw_area>
327.72369

>  <vdw_vol>
485.75616

>  <vsa_acc>
10.885262

>  <vsa_acid>
0

>  <vsa_base>
0

>  <vsa_don>
0

>  <vsa_hyd>
261.84399

>  <vsa_other>
14.360879

>  <vsa_pol>
24.452183

>  <Weight>
337.46298

>  <weinerPath>
1299

>  <weinerPol>
55

>  <zagreb>
154

$$$$