O1[C@@H](C[C@@H](O)CC1=O)CC[C@@H]1[C@@H]2C(=C[C@@H](C[C@@H]2OC(=O)C(CC)(C)C)C)C=C[C@@H]1C
  MOE2013           2D

 30 32  0  0  1  0  0  0  0  0999 V2000
    0.0000    0.0000    0.0000 O   0  0  0  0  0  0  0  0  0  0  0  0
   -0.7570   -1.2950    0.0000 C   0  0  1  0  0  0  0  0  0  0  0  0
   -0.0140   -2.5980    0.0000 C   0  0  0  0  0  0  0  0  0  0  0  0
    1.4860   -2.6060    0.0000 C   0  0  1  0  0  0  0  0  0  0  0  0
    2.2290   -3.9090    0.0000 O   0  0  0  0  0  0  0  0  0  0  0  0
    2.2430   -1.3110    0.0000 C   0  0  0  0  0  0  0  0  0  0  0  0
    1.5000   -0.0080    0.0000 C   0  0  0  0  0  0  0  0  0  0  0  0
    2.2570    1.2870    0.0000 O   0  0  0  0  0  0  0  0  0  0  0  0
   -2.2570   -1.2870    0.0000 C   0  0  0  0  0  0  0  0  0  0  0  0
   -3.0000    0.0160    0.0000 C   0  0  0  0  0  0  0  0  0  0  0  0
   -4.5000    0.0240    0.0000 C   0  0  2  0  0  0  0  0  0  0  0  0
   -5.2430    1.3280    0.0000 C   0  0  2  0  0  0  0  0  0  0  0  0
   -6.7430    1.3360    0.0000 C   0  0  0  0  0  0  0  0  0  0  0  0
   -7.4860    2.6390    0.0000 C   0  0  0  0  0  0  0  0  0  0  0  0
   -6.7290    3.9340    0.0000 C   0  0  1  0  0  0  0  0  0  0  0  0
   -5.2290    3.9260    0.0000 C   0  0  0  0  0  0  0  0  0  0  0  0
   -4.4860    2.6230    0.0000 C   0  0  2  0  0  0  0  0  0  0  0  0
   -2.9860    2.6140    0.0000 O   0  0  0  0  0  0  0  0  0  0  0  0
   -2.2290    3.9090    0.0000 C   0  0  0  0  0  0  0  0  0  0  0  0
   -2.9720    5.2120    0.0000 O   0  0  0  0  0  0  0  0  0  0  0  0
   -0.7290    3.9010    0.0000 C   0  0  0  0  0  0  0  0  0  0  0  0
   -0.7210    5.4010    0.0000 C   0  0  0  0  0  0  0  0  0  0  0  0
    0.5820    6.1440    0.0000 C   0  0  0  0  0  0  0  0  0  0  0  0
   -0.7370    2.4010    0.0000 C   0  0  0  0  0  0  0  0  0  0  0  0
    0.7710    3.8930    0.0000 C   0  0  0  0  0  0  0  0  0  0  0  0
   -7.4720    5.2370    0.0000 C   0  0  0  0  0  0  0  0  0  0  0  0
   -7.5000    0.0410    0.0000 C   0  0  0  0  0  0  0  0  0  0  0  0
   -6.7570   -1.2620    0.0000 C   0  0  0  0  0  0  0  0  0  0  0  0
   -5.2570   -1.2700    0.0000 C   0  0  2  0  0  0  0  0  0  0  0  0
   -4.5140   -2.5740    0.0000 C   0  0  0  0  0  0  0  0  0  0  0  0
  1  2  1  0  0  0  0
  1  7  1  0  0  0  0
  2  3  1  0  0  0  0
  2  9  1  1  0  0  0
  3  4  1  0  0  0  0
  4  5  1  6  0  0  0
  4  6  1  0  0  0  0
  6  7  1  0  0  0  0
  7  8  2  0  0  0  0
  9 10  1  0  0  0  0
 11 10  1  1  0  0  0
 11 12  1  0  0  0  0
 11 29  1  0  0  0  0
 12 13  1  6  0  0  0
 12 17  1  0  0  0  0
 13 14  2  0  0  0  0
 13 27  1  0  0  0  0
 14 15  1  0  0  0  0
 15 16  1  0  0  0  0
 15 26  1  6  0  0  0
 16 17  1  0  0  0  0
 17 18  1  6  0  0  0
 18 19  1  0  0  0  0
 19 20  2  0  0  0  0
 19 21  1  0  0  0  0
 21 22  1  0  0  0  0
 21 24  1  0  0  0  0
 21 25  1  0  0  0  0
 22 23  1  0  0  0  0
 27 28  2  0  0  0  0
 28 29  1  0  0  0  0
 29 30  1  1  0  0  0
M  END
>  <Index>
1724

>  <ID>
HT1889

>  <class>
1

>  <apol>
73.348137

>  <ast_fraglike>
0

>  <ast_fraglike_ext>
0

>  <ast_violation>
2

>  <ast_violation_ext>
3

>  <a_acc>
3

>  <a_acid>
0

>  <a_aro>
0

>  <a_base>
0

>  <a_count>
68

>  <a_don>
1

>  <a_donacc>
4

>  <a_heavy>
30

>  <a_hyd>
23

>  <a_IC>
86.820183

>  <a_ICM>
1.2767674

>  <a_nB>
0

>  <a_nBr>
0

>  <a_nC>
25

>  <a_nCl>
0

>  <a_nF>
0

>  <a_nH>
38

>  <a_nI>
0

>  <a_nN>
0

>  <a_nO>
5

>  <a_nP>
0

>  <a_nS>
0

>  <balabanJ>
1.7068959

>  <BCUT_PEOE_0>
-2.8238933

>  <BCUT_PEOE_1>
-0.46233815

>  <BCUT_PEOE_2>
0.54714477

>  <BCUT_PEOE_3>
2.8053854

>  <BCUT_SLOGP_0>
-2.7887516

>  <BCUT_SLOGP_1>
-0.41763112

>  <BCUT_SLOGP_2>
0.5361324

>  <BCUT_SLOGP_3>
2.8572726

>  <BCUT_SMR_0>
-2.5752842

>  <BCUT_SMR_1>
-0.37008491

>  <BCUT_SMR_2>
0.63818198

>  <BCUT_SMR_3>
3.0542758

>  <bpol>
47.289867

>  <b_1rotN>
6

>  <b_1rotR>
0.1875

>  <b_ar>
0

>  <b_count>
70

>  <b_double>
4

>  <b_heavy>
32

>  <b_max1len>
5

>  <b_rotN>
7

>  <b_rotR>
0.21875

>  <b_single>
66

>  <b_triple>
0

>  <chi0>
22.051678

>  <chi0v>
19.09635

>  <chi0v_C>
17.016144

>  <chi0_C>
17.637465

>  <chi1>
14.101393

>  <chi1v>
11.588778

>  <chi1v_C>
10.042678

>  <chi1_C>
10.736349

>  <chiral>
7

>  <chiral_u>
0

>  <density>
0.6937654

>  <diameter>
13

>  <FCharge>
0

>  <GCUT_PEOE_0>
-0.7955026

>  <GCUT_PEOE_1>
-0.33322459

>  <GCUT_PEOE_2>
0.039567653

>  <GCUT_PEOE_3>
3.135808

>  <GCUT_SLOGP_0>
-0.87573683

>  <GCUT_SLOGP_1>
-0.27061674

>  <GCUT_SLOGP_2>
0.052338317

>  <GCUT_SLOGP_3>
3.1980629

>  <GCUT_SMR_0>
-0.53543341

>  <GCUT_SMR_1>
-0.20116997

>  <GCUT_SMR_2>
0.13809083

>  <GCUT_SMR_3>
3.3634071

>  <Kier1>
24.638672

>  <Kier2>
10.29244

>  <Kier3>
6.0810113

>  <KierA1>
21.922131

>  <KierA2>
9.1191759

>  <KierA3>
5.3717871

>  <KierFlex>
6.6637254

>  <lip_acc>
5

>  <lip_don>
1

>  <lip_druglike>
1

>  <lip_violation>
0

>  <logP(o/w)>
4.4200001

>  <logS>
-4.4295201

>  <mr>
11.688961

>  <mutagenic>
0

>  <nmol>
1

>  <opr_brigid>
17

>  <opr_leadlike>
1

>  <opr_nring>
3

>  <opr_nrot>
7

>  <opr_violation>
1

>  <PC+>
0

>  <PC->
0

>  <PEOE_PC+>
2.2961459

>  <PEOE_PC->
-2.2961459

>  <PEOE_RPC+>
0.11676531

>  <PEOE_RPC->
0.17037265

>  <PEOE_VSA+0>
140.92828

>  <PEOE_VSA+1>
49.008415

>  <PEOE_VSA+2>
0

>  <PEOE_VSA+3>
0

>  <PEOE_VSA+4>
10.324173

>  <PEOE_VSA+5>
29.416998

>  <PEOE_VSA+6>
0

>  <PEOE_VSA-0>
37.013794

>  <PEOE_VSA-1>
130.5031

>  <PEOE_VSA-2>
0

>  <PEOE_VSA-3>
0

>  <PEOE_VSA-4>
0

>  <PEOE_VSA-5>
27.133842

>  <PEOE_VSA-6>
12.775052

>  <PEOE_VSA_FHYD>
0.81777763

>  <PEOE_VSA_FNEG>
0.47454599

>  <PEOE_VSA_FPNEG>
0.091303043

>  <PEOE_VSA_FPOL>
0.18222238

>  <PEOE_VSA_FPOS>
0.52545398

>  <PEOE_VSA_FPPOS>
0.090919331

>  <PEOE_VSA_HYD>
357.45358

>  <PEOE_VSA_NEG>
207.42578

>  <PEOE_VSA_PNEG>
39.908894

>  <PEOE_VSA_POL>
79.650063

>  <PEOE_VSA_POS>
229.67787

>  <PEOE_VSA_PPOS>
39.741173

>  <petitjean>
0.46153846

>  <petitjeanSC>
0.85714287

>  <Q_PC+>
0

>  <Q_PC->
0

>  <Q_RPC+>
0

>  <Q_RPC->
0

>  <Q_VSA_FHYD>
1

>  <Q_VSA_FNEG>
0

>  <Q_VSA_FPNEG>
0

>  <Q_VSA_FPOL>
0

>  <Q_VSA_FPOS>
1

>  <Q_VSA_FPPOS>
0

>  <Q_VSA_HYD>
437.10364

>  <Q_VSA_NEG>
0

>  <Q_VSA_PNEG>
0

>  <Q_VSA_POL>
0

>  <Q_VSA_POS>
437.10364

>  <Q_VSA_PPOS>
0

>  <radius>
7

>  <reactive>
1

>  <rings>
3

>  <RPC+>
0

>  <RPC->
0

>  <rsynth>
1

>  <SlogP>
4.5855999

>  <SlogP_VSA0>
25.385227

>  <SlogP_VSA1>
15.490929

>  <SlogP_VSA2>
89.130157

>  <SlogP_VSA3>
0

>  <SlogP_VSA4>
17.643185

>  <SlogP_VSA5>
3.185575

>  <SlogP_VSA6>
0

>  <SlogP_VSA7>
52.929554

>  <SlogP_VSA8>
113.21043

>  <SlogP_VSA9>
166.63008

>  <SMR>
11.54548

>  <SMR_VSA0>
69.724205

>  <SMR_VSA1>
25.385227

>  <SMR_VSA2>
17.643185

>  <SMR_VSA3>
22.591522

>  <SMR_VSA4>
0

>  <SMR_VSA5>
166.13998

>  <SMR_VSA6>
15.490929

>  <SMR_VSA7>
166.63008

>  <TPSA>
72.830002

>  <VAdjEq>
0.37005648

>  <VAdjMa>
6

>  <VDistEq>
3.5049002

>  <VDistMa>
9.5475283

>  <vdw_area>
437.10364

>  <vdw_vol>
603.33649

>  <vsa_acc>
27.133842

>  <vsa_acid>
0

>  <vsa_base>
0

>  <vsa_don>
0

>  <vsa_hyd>
325.73697

>  <vsa_other>
34.424511

>  <vsa_pol>
40.700764

>  <Weight>
418.57401

>  <weinerPath>
2440

>  <weinerPol>
50

>  <zagreb>
158

$$$$