s1c2cc(OC(F)(F)F)ccc2nc1N
  MOE2013           2D

 15 16  0  0  0  0  0  0  0  0999 V2000
    0.0000    0.0000    0.0000 S   0  0  0  0  0  0  0  0  0  0  0  0
   -1.3690   -0.6120    0.0000 C   0  0  0  0  0  0  0  0  0  0  0  0
   -2.7410   -0.0040    0.0000 C   0  0  0  0  0  0  0  0  0  0  0  0
   -3.9530   -0.8880    0.0000 C   0  0  0  0  0  0  0  0  0  0  0  0
   -5.3240   -0.2800    0.0000 O   0  0  0  0  0  0  0  0  0  0  0  0
   -6.5360   -1.1630    0.0000 C   0  0  0  0  0  0  0  0  0  0  0  0
   -5.6530   -2.3750    0.0000 F   0  0  0  0  0  0  0  0  0  0  0  0
   -7.7480   -2.0460    0.0000 F   0  0  0  0  0  0  0  0  0  0  0  0
   -7.4200    0.0490    0.0000 F   0  0  0  0  0  0  0  0  0  0  0  0
   -3.7940   -2.3790    0.0000 C   0  0  0  0  0  0  0  0  0  0  0  0
   -2.4230   -2.9870    0.0000 C   0  0  0  0  0  0  0  0  0  0  0  0
   -1.2100   -2.1040    0.0000 C   0  0  0  0  0  0  0  0  0  0  0  0
    0.2570   -2.4130    0.0000 N   0  0  0  0  0  0  0  0  0  0  0  0
    1.0050   -1.1130    0.0000 C   0  0  0  0  0  0  0  0  0  0  0  0
    2.4970   -0.9540    0.0000 N   0  0  0  0  0  0  0  0  0  0  0  0
  1  2  1  0  0  0  0
  1 14  1  0  0  0  0
  2  3  1  0  0  0  0
  2 12  2  0  0  0  0
  3  4  2  0  0  0  0
  4  5  1  0  0  0  0
  4 10  1  0  0  0  0
  5  6  1  0  0  0  0
  6  7  1  0  0  0  0
  6  8  1  0  0  0  0
  6  9  1  0  0  0  0
 10 11  2  0  0  0  0
 11 12  1  0  0  0  0
 12 13  1  0  0  0  0
 13 14  2  0  0  0  0
 14 15  1  0  0  0  0
M  END
>  <Index>
1714

>  <ID>
HT1825

>  <class>
1

>  <apol>
24.986965

>  <ast_fraglike>
1

>  <ast_fraglike_ext>
1

>  <ast_violation>
0

>  <ast_violation_ext>
0

>  <a_acc>
2

>  <a_acid>
0

>  <a_aro>
9

>  <a_base>
0

>  <a_count>
20

>  <a_don>
1

>  <a_donacc>
3

>  <a_heavy>
15

>  <a_hyd>
11

>  <a_IC>
44.074036

>  <a_ICM>
2.2037017

>  <a_nB>
0

>  <a_nBr>
0

>  <a_nC>
8

>  <a_nCl>
0

>  <a_nF>
3

>  <a_nH>
5

>  <a_nI>
0

>  <a_nN>
2

>  <a_nO>
1

>  <a_nP>
0

>  <a_nS>
1

>  <balabanJ>
1.8855749

>  <BCUT_PEOE_0>
-2.1553924

>  <BCUT_PEOE_1>
-0.59297293

>  <BCUT_PEOE_2>
0.48274833

>  <BCUT_PEOE_3>
2.3165262

>  <BCUT_SLOGP_0>
-2.2947965

>  <BCUT_SLOGP_1>
-0.46491364

>  <BCUT_SLOGP_2>
0.64333248

>  <BCUT_SLOGP_3>
2.3999407

>  <BCUT_SMR_0>
-1.9507966

>  <BCUT_SMR_1>
-0.3783296

>  <BCUT_SMR_2>
0.79245067

>  <BCUT_SMR_3>
2.5377676

>  <bpol>
13.931035

>  <b_1rotN>
1

>  <b_1rotR>
0.0625

>  <b_ar>
10

>  <b_count>
21

>  <b_double>
0

>  <b_heavy>
16

>  <b_max1len>
2

>  <b_rotN>
2

>  <b_rotR>
0.125

>  <b_single>
11

>  <b_triple>
0

>  <chi0>
11.052042

>  <chi0v>
8.0235014

>  <chi0v_C>
4.2320509

>  <chi0_C>
4.9307213

>  <chi1>
6.9384718

>  <chi1v>
4.6738625

>  <chi1v_C>
1.7380339

>  <chi1_C>
2.4663265

>  <chiral>
0

>  <chiral_u>
0

>  <density>
1.0163805

>  <diameter>
8

>  <FCharge>
0

>  <GCUT_PEOE_0>
-0.80431378

>  <GCUT_PEOE_1>
-0.40504211

>  <GCUT_PEOE_2>
-0.025550688

>  <GCUT_PEOE_3>
2.1316078

>  <GCUT_SLOGP_0>
-1.334499

>  <GCUT_SLOGP_1>
-0.27256629

>  <GCUT_SLOGP_2>
0.26019999

>  <GCUT_SLOGP_3>
2.3280578

>  <GCUT_SMR_0>
-0.48308617

>  <GCUT_SMR_1>
-0.17297578

>  <GCUT_SMR_2>
0.23301056

>  <GCUT_SMR_3>
2.4581058

>  <Kier1>
11.484375

>  <Kier2>
4.1076388

>  <Kier3>
2.9822485

>  <KierA1>
9.3961239

>  <KierA2>
3.3085587

>  <KierA3>
2.3714736

>  <KierFlex>
2.0725086

>  <lip_acc>
3

>  <lip_don>
2

>  <lip_druglike>
1

>  <lip_violation>
0

>  <logP(o/w)>
3.2967601

>  <logS>
-3.5819399

>  <mr>
5.0423265

>  <mutagenic>
1

>  <nmol>
1

>  <opr_brigid>
10

>  <opr_leadlike>
1

>  <opr_nring>
2

>  <opr_nrot>
1

>  <opr_violation>
0

>  <PC+>
0

>  <PC->
0

>  <PEOE_PC+>
1.3705096

>  <PEOE_PC->
-1.3705096

>  <PEOE_RPC+>
0.38618031

>  <PEOE_RPC->
0.21586542

>  <PEOE_VSA+0>
0

>  <PEOE_VSA+1>
41.120853

>  <PEOE_VSA+2>
17.238026

>  <PEOE_VSA+3>
19.760618

>  <PEOE_VSA+4>
0

>  <PEOE_VSA+5>
0

>  <PEOE_VSA+6>
15.295482

>  <PEOE_VSA-0>
40.949314

>  <PEOE_VSA-1>
0

>  <PEOE_VSA-2>
35.725906

>  <PEOE_VSA-3>
0

>  <PEOE_VSA-4>
5.6825762

>  <PEOE_VSA-5>
9.1548758

>  <PEOE_VSA-6>
0

>  <PEOE_VSA_FHYD>
0.83705556

>  <PEOE_VSA_FNEG>
0.49485663

>  <PEOE_VSA_FPNEG>
0.08023382

>  <PEOE_VSA_FPOL>
0.16294445

>  <PEOE_VSA_FPOS>
0.5051434

>  <PEOE_VSA_FPPOS>
0.082710624

>  <PEOE_VSA_HYD>
154.79472

>  <PEOE_VSA_NEG>
91.512672

>  <PEOE_VSA_PNEG>
14.837452

>  <PEOE_VSA_POL>
30.132933

>  <PEOE_VSA_POS>
93.414978

>  <PEOE_VSA_PPOS>
15.295482

>  <petitjean>
0.5

>  <petitjeanSC>
1

>  <Q_PC+>
0

>  <Q_PC->
0

>  <Q_RPC+>
0

>  <Q_RPC->
0

>  <Q_VSA_FHYD>
1

>  <Q_VSA_FNEG>
0

>  <Q_VSA_FPNEG>
0

>  <Q_VSA_FPOL>
0

>  <Q_VSA_FPOS>
1

>  <Q_VSA_FPPOS>
0

>  <Q_VSA_HYD>
184.92764

>  <Q_VSA_NEG>
0

>  <Q_VSA_PNEG>
0

>  <Q_VSA_POL>
0

>  <Q_VSA_POS>
184.92764

>  <Q_VSA_PPOS>
0

>  <radius>
4

>  <reactive>
0

>  <rings>
2

>  <RPC+>
0

>  <RPC->
0

>  <rsynth>
1

>  <SlogP>
2.7771001

>  <SlogP_VSA0>
43.897076

>  <SlogP_VSA1>
26.6029

>  <SlogP_VSA2>
0

>  <SlogP_VSA3>
0

>  <SlogP_VSA4>
0

>  <SlogP_VSA5>
0

>  <SlogP_VSA6>
0

>  <SlogP_VSA7>
55.819481

>  <SlogP_VSA8>
0

>  <SlogP_VSA9>
81.902199

>  <SMR>
5.0715399

>  <SMR_VSA0>
0

>  <SMR_VSA1>
72.665756

>  <SMR_VSA2>
9.8173695

>  <SMR_VSA3>
5.2434282

>  <SMR_VSA4>
3.3906741

>  <SMR_VSA5>
85.826744

>  <SMR_VSA6>
0

>  <SMR_VSA7>
31.277687

>  <TPSA>
48.139999

>  <VAdjEq>
0.59002918

>  <VAdjMa>
5

>  <VDistEq>
2.8185027

>  <VDistMa>
7.4948158

>  <vdw_area>
184.92764

>  <vdw_vol>
230.4265

>  <vsa_acc>
8.1863317

>  <vsa_acid>
0

>  <vsa_base>
0

>  <vsa_don>
17.742489

>  <vsa_hyd>
137.55016

>  <vsa_other>
13.166624

>  <vsa_pol>
25.928822

>  <Weight>
234.201

>  <weinerPath>
369

>  <weinerPol>
18

>  <zagreb>
80

$$$$