Clc1ccc(cc1)[C@@](OCC[C@@H]1N(CCC1)C)(C)c1ccccc1
  MOE2013           2D

 24 26  0  0  1  0  0  0  0  0999 V2000
    0.0000    0.0000    0.0000 Cl  0  0  0  0  0  0  0  0  0  0  0  0
    1.5000   -0.0080    0.0000 C   0  0  0  0  0  0  0  0  0  0  0  0
    2.2430   -1.3110    0.0000 C   0  0  0  0  0  0  0  0  0  0  0  0
    3.7430   -1.3190    0.0000 C   0  0  0  0  0  0  0  0  0  0  0  0
    4.5000   -0.0240    0.0000 C   0  0  0  0  0  0  0  0  0  0  0  0
    3.7570    1.2790    0.0000 C   0  0  0  0  0  0  0  0  0  0  0  0
    2.2570    1.2870    0.0000 C   0  0  0  0  0  0  0  0  0  0  0  0
    6.0000   -0.0330    0.0000 C   0  0  1  0  0  0  0  0  0  0  0  0
    7.5000   -0.0410    0.0000 O   0  0  0  0  0  0  0  0  0  0  0  0
    8.2430   -1.3440    0.0000 C   0  0  0  0  0  0  0  0  0  0  0  0
    9.7430   -1.3520    0.0000 C   0  0  0  0  0  0  0  0  0  0  0  0
   10.4860   -2.6550    0.0000 C   0  0  2  0  0  0  0  0  0  0  0  0
   11.9770   -2.8200    0.0000 N   0  0  3  0  0  0  0  0  0  0  0  0
   12.2810   -4.2890    0.0000 C   0  0  0  0  0  0  0  0  0  0  0  0
   10.9770   -5.0320    0.0000 C   0  0  0  0  0  0  0  0  0  0  0  0
    9.8680   -4.0220    0.0000 C   0  0  0  0  0  0  0  0  0  0  0  0
   12.9860   -1.7110    0.0000 C   0  0  0  0  0  0  0  0  0  0  0  0
    5.9920   -1.5330    0.0000 C   0  0  0  0  0  0  0  0  0  0  0  0
    6.0080    1.4670    0.0000 C   0  0  0  0  0  0  0  0  0  0  0  0
    7.3110    2.2100    0.0000 C   0  0  0  0  0  0  0  0  0  0  0  0
    7.3190    3.7100    0.0000 C   0  0  0  0  0  0  0  0  0  0  0  0
    6.0240    4.4670    0.0000 C   0  0  0  0  0  0  0  0  0  0  0  0
    4.7210    3.7240    0.0000 C   0  0  0  0  0  0  0  0  0  0  0  0
    4.7130    2.2240    0.0000 C   0  0  0  0  0  0  0  0  0  0  0  0
  1  2  1  0  0  0  0
  2  3  1  0  0  0  0
  2  7  2  0  0  0  0
  3  4  2  0  0  0  0
  4  5  1  0  0  0  0
  5  6  2  0  0  0  0
  6  7  1  0  0  0  0
  8  5  1  1  0  0  0
  8  9  1  0  0  0  0
  8 18  1  6  0  0  0
  8 19  1  0  0  0  0
  9 10  1  0  0  0  0
 10 11  1  0  0  0  0
 12 11  1  6  0  0  0
 12 13  1  0  0  0  0
 12 16  1  0  0  0  0
 13 14  1  0  0  0  0
 13 17  1  0  0  0  0
 14 15  1  0  0  0  0
 15 16  1  0  0  0  0
 19 20  1  0  0  0  0
 19 24  2  0  0  0  0
 20 21  2  0  0  0  0
 21 22  1  0  0  0  0
 22 23  2  0  0  0  0
 23 24  1  0  0  0  0
M  END
>  <Index>
1499

>  <ID>
HT0506

>  <class>
1

>  <apol>
58.378616

>  <ast_fraglike>
0

>  <ast_fraglike_ext>
0

>  <ast_violation>
2

>  <ast_violation_ext>
3

>  <a_acc>
2

>  <a_acid>
0

>  <a_aro>
12

>  <a_base>
0

>  <a_count>
50

>  <a_don>
0

>  <a_donacc>
2

>  <a_heavy>
24

>  <a_hyd>
22

>  <a_IC>
67.742714

>  <a_ICM>
1.3548542

>  <a_nB>
0

>  <a_nBr>
0

>  <a_nC>
21

>  <a_nCl>
1

>  <a_nF>
0

>  <a_nH>
26

>  <a_nI>
0

>  <a_nN>
1

>  <a_nO>
1

>  <a_nP>
0

>  <a_nS>
0

>  <balabanJ>
1.6012168

>  <BCUT_PEOE_0>
-2.6596086

>  <BCUT_PEOE_1>
-0.61350811

>  <BCUT_PEOE_2>
0.65760815

>  <BCUT_PEOE_3>
2.7410312

>  <BCUT_SLOGP_0>
-2.6906886

>  <BCUT_SLOGP_1>
-0.4956373

>  <BCUT_SLOGP_2>
0.79239452

>  <BCUT_SLOGP_3>
2.7597601

>  <BCUT_SMR_0>
-2.4003649

>  <BCUT_SMR_1>
-0.46115631

>  <BCUT_SMR_2>
0.84692323

>  <BCUT_SMR_3>
3.0037918

>  <bpol>
32.739384

>  <b_1rotN>
6

>  <b_1rotR>
0.23076923

>  <b_ar>
12

>  <b_count>
52

>  <b_double>
0

>  <b_heavy>
26

>  <b_max1len>
7

>  <b_rotN>
6

>  <b_rotR>
0.23076923

>  <b_single>
40

>  <b_triple>
0

>  <chi0>
16.993353

>  <chi0v>
15.298392

>  <chi0v_C>
13.309036

>  <chi0_C>
14.708896

>  <chi1>
11.593172

>  <chi1v>
9.1299334

>  <chi1v_C>
7.0485473

>  <chi1_C>
8.8433371

>  <chiral>
2

>  <chiral_u>
0

>  <density>
0.69568425

>  <diameter>
11

>  <FCharge>
0

>  <GCUT_PEOE_0>
-0.86418897

>  <GCUT_PEOE_1>
-0.38221142

>  <GCUT_PEOE_2>
0.071376324

>  <GCUT_PEOE_3>
2.7911296

>  <GCUT_SLOGP_0>
-0.95917696

>  <GCUT_SLOGP_1>
-0.25695014

>  <GCUT_SLOGP_2>
0.1639111

>  <GCUT_SLOGP_3>
2.8885069

>  <GCUT_SMR_0>
-0.52844614

>  <GCUT_SMR_1>
-0.20364757

>  <GCUT_SMR_2>
0.19305076

>  <GCUT_SMR_3>
3.0457463

>  <Kier1>
18.781065

>  <Kier2>
8.5895061

>  <Kier3>
4.6011772

>  <KierA1>
16.238113

>  <KierA2>
7.3769846

>  <KierA3>
3.9326828

>  <KierFlex>
4.9911799

>  <lip_acc>
2

>  <lip_don>
0

>  <lip_druglike>
1

>  <lip_violation>
1

>  <logP(o/w)>
5.8759999

>  <logS>
-4.9825201

>  <mr>
10.180373

>  <mutagenic>
0

>  <nmol>
1

>  <opr_brigid>
17

>  <opr_leadlike>
1

>  <opr_nring>
3

>  <opr_nrot>
7

>  <opr_violation>
1

>  <PC+>
0

>  <PC->
0

>  <PEOE_PC+>
1.3931105

>  <PEOE_PC->
-1.3931105

>  <PEOE_RPC+>
0.083617583

>  <PEOE_RPC->
0.26152429

>  <PEOE_VSA+0>
71.6465

>  <PEOE_VSA+1>
61.870541

>  <PEOE_VSA+2>
0

>  <PEOE_VSA+3>
0

>  <PEOE_VSA+4>
0

>  <PEOE_VSA+5>
0

>  <PEOE_VSA+6>
0

>  <PEOE_VSA-0>
110.20952

>  <PEOE_VSA-1>
115.36627

>  <PEOE_VSA-2>
0

>  <PEOE_VSA-3>
0

>  <PEOE_VSA-4>
0

>  <PEOE_VSA-5>
0

>  <PEOE_VSA-6>
2.503756

>  <PEOE_VSA_FHYD>
0.99307585

>  <PEOE_VSA_FNEG>
0.63075691

>  <PEOE_VSA_FPNEG>
0.0069241696

>  <PEOE_VSA_FPOL>
0.0069241696

>  <PEOE_VSA_FPOS>
0.36924309

>  <PEOE_VSA_FPPOS>
0

>  <PEOE_VSA_HYD>
359.09283

>  <PEOE_VSA_NEG>
228.07954

>  <PEOE_VSA_PNEG>
2.503756

>  <PEOE_VSA_POL>
2.503756

>  <PEOE_VSA_POS>
133.51703

>  <PEOE_VSA_PPOS>
0

>  <petitjean>
0.45454547

>  <petitjeanSC>
0.83333331

>  <Q_PC+>
0

>  <Q_PC->
0

>  <Q_RPC+>
0

>  <Q_RPC->
0

>  <Q_VSA_FHYD>
1

>  <Q_VSA_FNEG>
0

>  <Q_VSA_FPNEG>
0

>  <Q_VSA_FPOL>
0

>  <Q_VSA_FPOS>
1

>  <Q_VSA_FPPOS>
0

>  <Q_VSA_HYD>
361.59659

>  <Q_VSA_NEG>
0

>  <Q_VSA_PNEG>
0

>  <Q_VSA_POL>
0

>  <Q_VSA_POS>
361.59659

>  <Q_VSA_PPOS>
0

>  <radius>
6

>  <reactive>
0

>  <rings>
3

>  <RPC+>
0

>  <RPC->
0

>  <rsynth>
0

>  <SlogP>
5.4159002

>  <SlogP_VSA0>
0

>  <SlogP_VSA1>
3.1243138

>  <SlogP_VSA2>
14.981856

>  <SlogP_VSA3>
39.365837

>  <SlogP_VSA4>
6.37115

>  <SlogP_VSA5>
32.897186

>  <SlogP_VSA6>
3.5006065

>  <SlogP_VSA7>
158.78867

>  <SlogP_VSA8>
56.605217

>  <SlogP_VSA9>
72.474655

>  <SMR>
10.0686

>  <SMR_VSA0>
10.999887

>  <SMR_VSA1>
3.1243138

>  <SMR_VSA2>
0

>  <SMR_VSA3>
13.853725

>  <SMR_VSA4>
0

>  <SMR_VSA5>
215.39388

>  <SMR_VSA6>
39.365837

>  <SMR_VSA7>
105.37185

>  <TPSA>
12.47

>  <VAdjEq>
0.43739632

>  <VAdjMa>
5.7004399

>  <VDistEq>
3.2952471

>  <VDistMa>
8.8921604

>  <vdw_area>
361.59659

>  <vdw_vol>
494.33057

>  <vsa_acc>
2.503756

>  <vsa_acid>
0

>  <vsa_base>
0

>  <vsa_don>
0

>  <vsa_hyd>
340.58615

>  <vsa_other>
0

>  <vsa_pol>
2.503756

>  <Weight>
343.89798

>  <weinerPath>
1362

>  <weinerPol>
36

>  <zagreb>
124

$$$$