O(C(c1ccccc1)c1ccccc1)C1CCN(CC1)CCCC(=O)c1ccc(cc1)C(C(O)=O)(C)C
  MOE2013           2D

 37 40  0  0  0  0  0  0  0  0999 V2000
    0.0000    0.0000    0.0000 O   0  0  0  0  0  0  0  0  0  0  0  0
   -0.7590    1.2940    0.0000 C   0  0  0  0  0  0  0  0  0  0  0  0
   -2.2590    1.2830    0.0000 C   0  0  0  0  0  0  0  0  0  0  0  0
   -3.0000   -0.0220    0.0000 C   0  0  0  0  0  0  0  0  0  0  0  0
   -4.5000   -0.0330    0.0000 C   0  0  0  0  0  0  0  0  0  0  0  0
   -5.2590    1.2610    0.0000 C   0  0  0  0  0  0  0  0  0  0  0  0
   -4.5190    2.5650    0.0000 C   0  0  0  0  0  0  0  0  0  0  0  0
   -3.0190    2.5760    0.0000 C   0  0  0  0  0  0  0  0  0  0  0  0
   -0.0190    2.5980    0.0000 C   0  0  0  0  0  0  0  0  0  0  0  0
    1.4810    2.6090    0.0000 C   0  0  0  0  0  0  0  0  0  0  0  0
    2.2220    3.9130    0.0000 C   0  0  0  0  0  0  0  0  0  0  0  0
    1.4620    5.2070    0.0000 C   0  0  0  0  0  0  0  0  0  0  0  0
   -0.0380    5.1960    0.0000 C   0  0  0  0  0  0  0  0  0  0  0  0
   -0.7780    3.8920    0.0000 C   0  0  0  0  0  0  0  0  0  0  0  0
    1.5000    0.0110    0.0000 C   0  0  0  0  0  0  0  0  0  0  0  0
    2.2410    1.3150    0.0000 C   0  0  0  0  0  0  0  0  0  0  0  0
    3.7400    1.3260    0.0000 C   0  0  0  0  0  0  0  0  0  0  0  0
    4.5000    0.0330    0.0000 N   0  0  0  0  0  0  0  0  0  0  0  0
    3.7590   -1.2720    0.0000 C   0  0  0  0  0  0  0  0  0  0  0  0
    2.2590   -1.2830    0.0000 C   0  0  0  0  0  0  0  0  0  0  0  0
    6.0000    0.0440    0.0000 C   0  0  0  0  0  0  0  0  0  0  0  0
    6.7590   -1.2500    0.0000 C   0  0  0  0  0  0  0  0  0  0  0  0
    8.2590   -1.2390    0.0000 C   0  0  0  0  0  0  0  0  0  0  0  0
    9.0190   -2.5330    0.0000 C   0  0  0  0  0  0  0  0  0  0  0  0
    8.2780   -3.8370    0.0000 O   0  0  0  0  0  0  0  0  0  0  0  0
   10.5190   -2.5220    0.0000 C   0  0  0  0  0  0  0  0  0  0  0  0
   11.2780   -3.8150    0.0000 C   0  0  0  0  0  0  0  0  0  0  0  0
   12.7780   -3.8040    0.0000 C   0  0  0  0  0  0  0  0  0  0  0  0
   13.5180   -2.5000    0.0000 C   0  0  0  0  0  0  0  0  0  0  0  0
   12.7590   -1.2060    0.0000 C   0  0  0  0  0  0  0  0  0  0  0  0
   11.2590   -1.2170    0.0000 C   0  0  0  0  0  0  0  0  0  0  0  0
   15.0180   -2.4890    0.0000 C   0  0  0  0  0  0  0  0  0  0  0  0
   16.5180   -2.4780    0.0000 C   0  0  0  0  0  0  0  0  0  0  0  0
   17.2780   -3.7720    0.0000 O   0  0  0  0  0  0  0  0  0  0  0  0
   17.2590   -1.1740    0.0000 O   0  0  0  0  0  0  0  0  0  0  0  0
   15.0080   -0.9890    0.0000 C   0  0  0  0  0  0  0  0  0  0  0  0
   15.0290   -3.9890    0.0000 C   0  0  0  0  0  0  0  0  0  0  0  0
  1  2  1  0  0  0  0
  1 15  1  0  0  0  0
  2  3  1  0  0  0  0
  2  9  1  0  0  0  0
  3  4  1  0  0  0  0
  3  8  2  0  0  0  0
  4  5  2  0  0  0  0
  5  6  1  0  0  0  0
  6  7  2  0  0  0  0
  7  8  1  0  0  0  0
  9 10  1  0  0  0  0
  9 14  2  0  0  0  0
 10 11  2  0  0  0  0
 11 12  1  0  0  0  0
 12 13  2  0  0  0  0
 13 14  1  0  0  0  0
 15 16  1  0  0  0  0
 15 20  1  0  0  0  0
 16 17  1  0  0  0  0
 17 18  1  0  0  0  0
 18 19  1  0  0  0  0
 18 21  1  0  0  0  0
 19 20  1  0  0  0  0
 21 22  1  0  0  0  0
 22 23  1  0  0  0  0
 23 24  1  0  0  0  0
 24 25  2  0  0  0  0
 24 26  1  0  0  0  0
 26 27  1  0  0  0  0
 26 31  2  0  0  0  0
 27 28  2  0  0  0  0
 28 29  1  0  0  0  0
 29 30  2  0  0  0  0
 29 32  1  0  0  0  0
 30 31  1  0  0  0  0
 32 33  1  0  0  0  0
 32 36  1  0  0  0  0
 32 37  1  0  0  0  0
 33 34  1  0  0  0  0
 33 35  2  0  0  0  0
M  END
>  <Index>
1543

>  <ID>
HT0737

>  <class>
1

>  <apol>
85.299339

>  <ast_fraglike>
0

>  <ast_fraglike_ext>
0

>  <ast_violation>
3

>  <ast_violation_ext>
4

>  <a_acc>
5

>  <a_acid>
0

>  <a_aro>
18

>  <a_base>
0

>  <a_count>
74

>  <a_don>
2

>  <a_donacc>
7

>  <a_heavy>
37

>  <a_hyd>
30

>  <a_IC>
98.749771

>  <a_ICM>
1.3344564

>  <a_nB>
0

>  <a_nBr>
0

>  <a_nC>
32

>  <a_nCl>
0

>  <a_nF>
0

>  <a_nH>
37

>  <a_nI>
0

>  <a_nN>
1

>  <a_nO>
4

>  <a_nP>
0

>  <a_nS>
0

>  <balabanJ>
1.1367236

>  <BCUT_PEOE_0>
-2.7916517

>  <BCUT_PEOE_1>
-0.6480006

>  <BCUT_PEOE_2>
0.67806786

>  <BCUT_PEOE_3>
2.7282231

>  <BCUT_SLOGP_0>
-2.8299809

>  <BCUT_SLOGP_1>
-0.53807992

>  <BCUT_SLOGP_2>
0.74055815

>  <BCUT_SLOGP_3>
2.7197809

>  <BCUT_SMR_0>
-2.5285027

>  <BCUT_SMR_1>
-0.48246714

>  <BCUT_SMR_2>
0.83856565

>  <BCUT_SMR_3>
2.9828336

>  <bpol>
46.260658

>  <b_1rotN>
11

>  <b_1rotR>
0.27500001

>  <b_ar>
18

>  <b_count>
77

>  <b_double>
2

>  <b_heavy>
40

>  <b_max1len>
4

>  <b_rotN>
11

>  <b_rotR>
0.27500001

>  <b_single>
57

>  <b_triple>
0

>  <chi0>
26.252502

>  <chi0v>
21.806524

>  <chi0v_C>
19.687351

>  <chi0_C>
21.968044

>  <chi1>
17.841373

>  <chi1v>
13.192078

>  <chi1v_C>
11.140135

>  <chi1_C>
14.068082

>  <chiral>
0

>  <chiral_u>
0

>  <density>
0.68786991

>  <diameter>
20

>  <FCharge>
0

>  <GCUT_PEOE_0>
-0.85753232

>  <GCUT_PEOE_1>
-0.38858646

>  <GCUT_PEOE_2>
0.079495922

>  <GCUT_PEOE_3>
2.8933761

>  <GCUT_SLOGP_0>
-0.95315522

>  <GCUT_SLOGP_1>
-0.27123794

>  <GCUT_SLOGP_2>
0.16005325

>  <GCUT_SLOGP_3>
2.9586139

>  <GCUT_SMR_0>
-0.52379185

>  <GCUT_SMR_1>
-0.21605732

>  <GCUT_SMR_2>
0.19305076

>  <GCUT_SMR_3>
3.1426659

>  <Kier1>
29.969999

>  <Kier2>
14.578512

>  <Kier3>
8.4930611

>  <KierA1>
23.266462

>  <KierA2>
11.233226

>  <KierA3>
6.5089312

>  <KierFlex>
7.0637145

>  <lip_acc>
5

>  <lip_don>
1

>  <lip_druglike>
1

>  <lip_violation>
1

>  <logP(o/w)>
7.4489999

>  <logS>
-6.3365998

>  <mr>
14.833989

>  <mutagenic>
0

>  <nmol>
1

>  <opr_brigid>
24

>  <opr_leadlike>
0

>  <opr_nring>
4

>  <opr_nrot>
13

>  <opr_violation>
3

>  <PC+>
0

>  <PC->
0

>  <PEOE_PC+>
2.5769439

>  <PEOE_PC->
-2.5769439

>  <PEOE_RPC+>
0.10463566

>  <PEOE_RPC->
0.14126863

>  <PEOE_VSA+0>
122.60223

>  <PEOE_VSA+1>
73.151108

>  <PEOE_VSA+2>
4.9049287

>  <PEOE_VSA+3>
8.458519

>  <PEOE_VSA+4>
10.324173

>  <PEOE_VSA+5>
14.708499

>  <PEOE_VSA+6>
0

>  <PEOE_VSA-0>
83.417236

>  <PEOE_VSA-1>
171.56865

>  <PEOE_VSA-2>
0

>  <PEOE_VSA-3>
0

>  <PEOE_VSA-4>
0

>  <PEOE_VSA-5>
27.133842

>  <PEOE_VSA-6>
10.271297

>  <PEOE_VSA_FHYD>
0.88141876

>  <PEOE_VSA_FNEG>
0.5553059

>  <PEOE_VSA_FPNEG>
0.071039438

>  <PEOE_VSA_FPOL>
0.11858121

>  <PEOE_VSA_FPOS>
0.4446941

>  <PEOE_VSA_FPPOS>
0.047541782

>  <PEOE_VSA_HYD>
464.10266

>  <PEOE_VSA_NEG>
292.39102

>  <PEOE_VSA_PNEG>
37.40514

>  <PEOE_VSA_POL>
62.437809

>  <PEOE_VSA_POS>
234.14944

>  <PEOE_VSA_PPOS>
25.032671

>  <petitjean>
0.5

>  <petitjeanSC>
1

>  <Q_PC+>
0

>  <Q_PC->
0

>  <Q_RPC+>
0

>  <Q_RPC->
0

>  <Q_VSA_FHYD>
1

>  <Q_VSA_FNEG>
0

>  <Q_VSA_FPNEG>
0

>  <Q_VSA_FPOL>
0

>  <Q_VSA_FPOS>
1

>  <Q_VSA_FPPOS>
0

>  <Q_VSA_HYD>
526.54047

>  <Q_VSA_NEG>
0

>  <Q_VSA_PNEG>
0

>  <Q_VSA_POL>
0

>  <Q_VSA_POS>
526.54047

>  <Q_VSA_PPOS>
0

>  <radius>
10

>  <reactive>
1

>  <rings>
4

>  <RPC+>
0

>  <RPC->
0

>  <rsynth>
0.35135135

>  <SlogP>
6.3778

>  <SlogP_VSA0>
0

>  <SlogP_VSA1>
16.557388

>  <SlogP_VSA2>
41.330753

>  <SlogP_VSA3>
80.703964

>  <SlogP_VSA4>
36.604515

>  <SlogP_VSA5>
0

>  <SlogP_VSA6>
0

>  <SlogP_VSA7>
247.00458

>  <SlogP_VSA8>
81.942268

>  <SlogP_VSA9>
66.652031

>  <SMR>
14.60533

>  <SMR_VSA0>
58.724319

>  <SMR_VSA1>
3.1243138

>  <SMR_VSA2>
25.385227

>  <SMR_VSA3>
25.679598

>  <SMR_VSA4>
0

>  <SMR_VSA5>
322.47821

>  <SMR_VSA6>
68.751808

>  <SMR_VSA7>
66.652031

>  <TPSA>
66.839996

>  <VAdjEq>
0.32120815

>  <VAdjMa>
6.321928

>  <VDistEq>
4.1783228

>  <VDistMa>
10.077241

>  <vdw_area>
526.54047

>  <vdw_vol>
726.37427

>  <vsa_acc>
16.070677

>  <vsa_acid>
0

>  <vsa_base>
0

>  <vsa_don>
0

>  <vsa_hyd>
430.01953

>  <vsa_other>
23.167019

>  <vsa_pol>
43.204517

>  <Weight>
499.651

>  <weinerPath>
5490

>  <weinerPol>
58

>  <zagreb>
190

$$$$