Ic1cc(cc(I)c1OCCN(CC)CC)C(=O)c1c2c(oc1CCCC)cccc2
  MOE2013           2D

 31 33  0  0  0  0  0  0  0  0999 V2000
    0.0000    0.0000    0.0000 I   0  0  0  0  0  0  0  0  0  0  0  0
    0.7460    1.3010    0.0000 C   0  0  0  0  0  0  0  0  0  0  0  0
    2.2460    1.3060    0.0000 C   0  0  0  0  0  0  0  0  0  0  0  0
    2.9920    2.6080    0.0000 C   0  0  0  0  0  0  0  0  0  0  0  0
    2.2370    3.9040    0.0000 C   0  0  0  0  0  0  0  0  0  0  0  0
    0.7370    3.9000    0.0000 C   0  0  0  0  0  0  0  0  0  0  0  0
   -0.0170    5.1960    0.0000 I   0  0  0  0  0  0  0  0  0  0  0  0
   -0.0080    2.5980    0.0000 C   0  0  0  0  0  0  0  0  0  0  0  0
   -1.5080    2.5930    0.0000 O   0  0  0  0  0  0  0  0  0  0  0  0
   -2.2630    3.8900    0.0000 C   0  0  0  0  0  0  0  0  0  0  0  0
   -3.7630    3.8850    0.0000 C   0  0  0  0  0  0  0  0  0  0  0  0
   -4.5170    5.1820    0.0000 N   0  0  0  0  0  0  0  0  0  0  0  0
   -3.7710    6.4830    0.0000 C   0  0  0  0  0  0  0  0  0  0  0  0
   -4.5250    7.7800    0.0000 C   0  0  0  0  0  0  0  0  0  0  0  0
   -6.0170    5.1770    0.0000 C   0  0  0  0  0  0  0  0  0  0  0  0
   -6.7630    3.8750    0.0000 C   0  0  0  0  0  0  0  0  0  0  0  0
    4.4920    2.6130    0.0000 C   0  0  0  0  0  0  0  0  0  0  0  0
    5.2370    3.9140    0.0000 O   0  0  0  0  0  0  0  0  0  0  0  0
    5.2460    1.3160    0.0000 C   0  0  0  0  0  0  0  0  0  0  0  0
    4.6400   -0.0560    0.0000 C   0  0  0  0  0  0  0  0  0  0  0  0
    5.7580   -1.0560    0.0000 C   0  0  0  0  0  0  0  0  0  0  0  0
    7.0550   -0.3020    0.0000 O   0  0  0  0  0  0  0  0  0  0  0  0
    6.7380    1.1640    0.0000 C   0  0  0  0  0  0  0  0  0  0  0  0
    7.7380    2.2820    0.0000 C   0  0  0  0  0  0  0  0  0  0  0  0
    9.2060    1.9750    0.0000 C   0  0  0  0  0  0  0  0  0  0  0  0
   10.2060    3.0930    0.0000 C   0  0  0  0  0  0  0  0  0  0  0  0
   11.6750    2.7860    0.0000 C   0  0  0  0  0  0  0  0  0  0  0  0
    5.4510   -2.5250    0.0000 C   0  0  0  0  0  0  0  0  0  0  0  0
    4.0260   -2.9930    0.0000 C   0  0  0  0  0  0  0  0  0  0  0  0
    2.9080   -1.9930    0.0000 C   0  0  0  0  0  0  0  0  0  0  0  0
    3.2150   -0.5240    0.0000 C   0  0  0  0  0  0  0  0  0  0  0  0
  1  2  1  0  0  0  0
  2  3  1  0  0  0  0
  2  8  2  0  0  0  0
  3  4  2  0  0  0  0
  4  5  1  0  0  0  0
  4 17  1  0  0  0  0
  5  6  2  0  0  0  0
  6  7  1  0  0  0  0
  6  8  1  0  0  0  0
  8  9  1  0  0  0  0
  9 10  1  0  0  0  0
 10 11  1  0  0  0  0
 11 12  1  0  0  0  0
 12 13  1  0  0  0  0
 12 15  1  0  0  0  0
 13 14  1  0  0  0  0
 15 16  1  0  0  0  0
 17 18  2  0  0  0  0
 17 19  1  0  0  0  0
 19 20  1  0  0  0  0
 19 23  2  0  0  0  0
 20 21  1  0  0  0  0
 20 31  2  0  0  0  0
 21 22  1  0  0  0  0
 21 28  2  0  0  0  0
 22 23  1  0  0  0  0
 23 24  1  0  0  0  0
 24 25  1  0  0  0  0
 25 26  1  0  0  0  0
 26 27  1  0  0  0  0
 28 29  1  0  0  0  0
 29 30  2  0  0  0  0
 30 31  1  0  0  0  0
M  END
>  <Index>
1430

>  <ID>
HT0140

>  <class>
1

>  <apol>
77.542999

>  <ast_fraglike>
0

>  <ast_fraglike_ext>
0

>  <ast_violation>
2

>  <ast_violation_ext>
3

>  <a_acc>
3

>  <a_acid>
0

>  <a_aro>
15

>  <a_base>
0

>  <a_count>
60

>  <a_don>
0

>  <a_donacc>
3

>  <a_heavy>
31

>  <a_hyd>
24

>  <a_IC>
90.680695

>  <a_ICM>
1.5113449

>  <a_nB>
0

>  <a_nBr>
0

>  <a_nC>
25

>  <a_nCl>
0

>  <a_nF>
0

>  <a_nH>
29

>  <a_nI>
2

>  <a_nN>
1

>  <a_nO>
3

>  <a_nP>
0

>  <a_nS>
0

>  <balabanJ>
1.591565

>  <BCUT_PEOE_0>
-2.6697471

>  <BCUT_PEOE_1>
-0.54080963

>  <BCUT_PEOE_2>
0.4738214

>  <BCUT_PEOE_3>
2.5691428

>  <BCUT_SLOGP_0>
-2.7503822

>  <BCUT_SLOGP_1>
-0.38271686

>  <BCUT_SLOGP_2>
0.75776958

>  <BCUT_SLOGP_3>
2.6687145

>  <BCUT_SMR_0>
-2.393193

>  <BCUT_SMR_1>
-0.21074857

>  <BCUT_SMR_2>
0.81327635

>  <BCUT_SMR_3>
2.8367901

>  <bpol>
45.653004

>  <b_1rotN>
11

>  <b_1rotR>
0.33333334

>  <b_ar>
16

>  <b_count>
62

>  <b_double>
1

>  <b_heavy>
33

>  <b_max1len>
6

>  <b_rotN>
11

>  <b_rotR>
0.33333334

>  <b_single>
45

>  <b_triple>
0

>  <chi0>
22.380104

>  <chi0v>
22.656733

>  <chi0v_C>
15.913849

>  <chi0_C>
17.38854

>  <chi1>
14.993933

>  <chi1v>
13.046243

>  <chi1v_C>
8.4569244

>  <chi1_C>
10.312391

>  <chiral>
0

>  <chiral_u>
0

>  <density>
0.99715388

>  <diameter>
16

>  <FCharge>
0

>  <GCUT_PEOE_0>
-0.8559472

>  <GCUT_PEOE_1>
-0.40159106

>  <GCUT_PEOE_2>
-0.022997096

>  <GCUT_PEOE_3>
2.6812913

>  <GCUT_SLOGP_0>
-0.9616729

>  <GCUT_SLOGP_1>
-0.27041867

>  <GCUT_SLOGP_2>
0.1682269

>  <GCUT_SLOGP_3>
2.7930021

>  <GCUT_SMR_0>
-0.52895296

>  <GCUT_SMR_1>
-0.11850416

>  <GCUT_SMR_2>
0.20296051

>  <GCUT_SMR_3>
2.991055

>  <Kier1>
25.619835

>  <Kier2>
12.459259

>  <Kier3>
6.3208814

>  <KierA1>
25.613871

>  <KierA2>
12.456261

>  <KierA3>
6.3193235

>  <KierFlex>
10.292034

>  <lip_acc>
4

>  <lip_don>
0

>  <lip_druglike>
0

>  <lip_violation>
2

>  <logP(o/w)>
8.1879997

>  <logS>
-9.0343504

>  <mr>
14.566408

>  <mutagenic>
0

>  <nmol>
1

>  <opr_brigid>
16

>  <opr_leadlike>
0

>  <opr_nring>
3

>  <opr_nrot>
11

>  <opr_violation>
3

>  <PC+>
0

>  <PC->
0

>  <PEOE_PC+>
2.0080376

>  <PEOE_PC->
-2.0080376

>  <PEOE_RPC+>
0.098145679

>  <PEOE_RPC->
0.2285593

>  <PEOE_VSA+0>
121.96401

>  <PEOE_VSA+1>
51.282921

>  <PEOE_VSA+2>
25.375559

>  <PEOE_VSA+3>
8.458519

>  <PEOE_VSA+4>
0

>  <PEOE_VSA+5>
0

>  <PEOE_VSA+6>
0

>  <PEOE_VSA-0>
165.8307

>  <PEOE_VSA-1>
101.70906

>  <PEOE_VSA-2>
0

>  <PEOE_VSA-3>
0

>  <PEOE_VSA-4>
0

>  <PEOE_VSA-5>
13.566921

>  <PEOE_VSA-6>
5.0075121

>  <PEOE_VSA_FHYD>
0.96233857

>  <PEOE_VSA_FNEG>
0.58012366

>  <PEOE_VSA_FPNEG>
0.037661422

>  <PEOE_VSA_FPOL>
0.037661422

>  <PEOE_VSA_FPOS>
0.41987637

>  <PEOE_VSA_FPPOS>
0

>  <PEOE_VSA_HYD>
474.62076

>  <PEOE_VSA_NEG>
286.1142

>  <PEOE_VSA_PNEG>
18.574432

>  <PEOE_VSA_POL>
18.574432

>  <PEOE_VSA_POS>
207.08101

>  <PEOE_VSA_PPOS>
0

>  <petitjean>
0.5

>  <petitjeanSC>
1

>  <Q_PC+>
0

>  <Q_PC->
0

>  <Q_RPC+>
0

>  <Q_RPC->
0

>  <Q_VSA_FHYD>
1

>  <Q_VSA_FNEG>
0

>  <Q_VSA_FPNEG>
0

>  <Q_VSA_FPOL>
0

>  <Q_VSA_FPOS>
1

>  <Q_VSA_FPPOS>
0

>  <Q_VSA_HYD>
493.19519

>  <Q_VSA_NEG>
0

>  <Q_VSA_PNEG>
0

>  <Q_VSA_POL>
0

>  <Q_VSA_POS>
493.19519

>  <Q_VSA_PPOS>
0

>  <radius>
8

>  <reactive>
1

>  <rings>
3

>  <RPC+>
0

>  <RPC->
0

>  <rsynth>
1

>  <SlogP>
6.9361701

>  <SlogP_VSA0>
10.999887

>  <SlogP_VSA1>
8.8119249

>  <SlogP_VSA2>
3.3192859

>  <SlogP_VSA3>
76.244995

>  <SlogP_VSA4>
35.682186

>  <SlogP_VSA5>
28.375751

>  <SlogP_VSA6>
0

>  <SlogP_VSA7>
113.26828

>  <SlogP_VSA8>
37.736813

>  <SlogP_VSA9>
218.78549

>  <SMR>
14.34175

>  <SMR_VSA0>
33.369564

>  <SMR_VSA1>
14.124202

>  <SMR_VSA2>
3.3192859

>  <SMR_VSA3>
17.063398

>  <SMR_VSA4>
7.4091749

>  <SMR_VSA5>
162.46432

>  <SMR_VSA6>
81.932602

>  <SMR_VSA7>
213.54207

>  <TPSA>
42.68

>  <VAdjEq>
0.36097246

>  <VAdjMa>
6.044394

>  <VDistEq>
3.7471545

>  <VDistMa>
9.6065483

>  <vdw_area>
493.19519

>  <vdw_vol>
647.16089

>  <vsa_acc>
16.070677

>  <vsa_acid>
0

>  <vsa_base>
0

>  <vsa_don>
0

>  <vsa_hyd>
428.60315

>  <vsa_other>
27.879314

>  <vsa_pol>
16.070677

>  <Weight>
645.31897

>  <weinerPath>
2897

>  <weinerPol>
50

>  <zagreb>
156

$$$$