S1c2c(N(c3c1cccc3)CC(N(C)C)C)cccc2
  MOE2013           2D

 20 22  0  0  1  0  0  0  0  0999 V2000
    0.0000    0.0000    0.0000 S   0  0  0  0  0  0  0  0  0  0  0  0
   -0.7540    1.2970    0.0000 C   0  0  0  0  0  0  0  0  0  0  0  0
   -0.0080    2.5980    0.0000 C   0  0  0  0  0  0  0  0  0  0  0  0
    1.4920    2.6030    0.0000 N   0  0  0  0  0  0  0  0  0  0  0  0
    2.2460    1.3060    0.0000 C   0  0  0  0  0  0  0  0  0  0  0  0
    1.5000    0.0050    0.0000 C   0  0  0  0  0  0  0  0  0  0  0  0
    2.2540   -1.2920    0.0000 C   0  0  0  0  0  0  0  0  0  0  0  0
    3.7540   -1.2870    0.0000 C   0  0  0  0  0  0  0  0  0  0  0  0
    4.5000    0.0150    0.0000 C   0  0  0  0  0  0  0  0  0  0  0  0
    3.7460    1.3110    0.0000 C   0  0  0  0  0  0  0  0  0  0  0  0
    2.2370    3.9040    0.0000 C   0  0  0  0  0  0  0  0  0  0  0  0
    3.7370    3.9090    0.0000 C   0  0  3  0  0  0  0  0  0  0  0  0
    4.4830    5.2110    0.0000 N   0  0  0  0  0  0  0  0  0  0  0  0
    5.9830    5.2160    0.0000 C   0  0  0  0  0  0  0  0  0  0  0  0
    3.7290    6.5070    0.0000 C   0  0  0  0  0  0  0  0  0  0  0  0
    4.4920    2.6130    0.0000 C   0  0  0  0  0  0  0  0  0  0  0  0
   -0.7630    3.8950    0.0000 C   0  0  0  0  0  0  0  0  0  0  0  0
   -2.2630    3.8900    0.0000 C   0  0  0  0  0  0  0  0  0  0  0  0
   -3.0080    2.5880    0.0000 C   0  0  0  0  0  0  0  0  0  0  0  0
   -2.2540    1.2920    0.0000 C   0  0  0  0  0  0  0  0  0  0  0  0
  1  2  1  0  0  0  0
  1  6  1  0  0  0  0
  2  3  1  0  0  0  0
  2 20  2  0  0  0  0
  3  4  1  0  0  0  0
  3 17  2  0  0  0  0
  4  5  1  0  0  0  0
  4 11  1  0  0  0  0
  5  6  1  0  0  0  0
  5 10  2  0  0  0  0
  6  7  2  0  0  0  0
  7  8  1  0  0  0  0
  8  9  2  0  0  0  0
  9 10  1  0  0  0  0
 11 12  1  0  0  0  0
 12 13  1  0  0  0  0
 12 16  1  0  0  0  0
 13 14  1  0  0  0  0
 13 15  1  0  0  0  0
 17 18  1  0  0  0  0
 18 19  2  0  0  0  0
 19 20  1  0  0  0  0
M  END
>  <Index>
1704

>  <ID>
HT1755

>  <class>
1

>  <apol>
48.355862

>  <ast_fraglike>
0

>  <ast_fraglike_ext>
0

>  <ast_violation>
1

>  <ast_violation_ext>
1

>  <a_acc>
1

>  <a_acid>
0

>  <a_aro>
12

>  <a_base>
0

>  <a_count>
40

>  <a_don>
0

>  <a_donacc>
1

>  <a_heavy>
20

>  <a_hyd>
18

>  <a_IC>
54.951694

>  <a_ICM>
1.3737923

>  <a_nB>
0

>  <a_nBr>
0

>  <a_nC>
17

>  <a_nCl>
0

>  <a_nF>
0

>  <a_nH>
20

>  <a_nI>
0

>  <a_nN>
2

>  <a_nO>
0

>  <a_nP>
0

>  <a_nS>
1

>  <balabanJ>
1.7679567

>  <BCUT_PEOE_0>
-2.6862128

>  <BCUT_PEOE_1>
-0.53157628

>  <BCUT_PEOE_2>
0.59804189

>  <BCUT_PEOE_3>
2.5949688

>  <BCUT_SLOGP_0>
-2.7696633

>  <BCUT_SLOGP_1>
-0.43001875

>  <BCUT_SLOGP_2>
0.69996953

>  <BCUT_SLOGP_3>
2.5997937

>  <BCUT_SMR_0>
-2.3999827

>  <BCUT_SMR_1>
-0.40451306

>  <BCUT_SMR_2>
0.73281717

>  <BCUT_SMR_3>
2.8822553

>  <bpol>
28.104139

>  <b_1rotN>
3

>  <b_1rotR>
0.13636364

>  <b_ar>
12

>  <b_count>
42

>  <b_double>
0

>  <b_heavy>
22

>  <b_max1len>
5

>  <b_rotN>
3

>  <b_rotR>
0.13636364

>  <b_single>
30

>  <b_triple>
0

>  <chi0>
14.112519

>  <chi0v>
13.022431

>  <chi0v_C>
10.903259

>  <chi0_C>
12.250712

>  <chi1>
9.6647034

>  <chi1v>
7.7811112

>  <chi1v_C>
4.6402993

>  <chi1_C>
6.2852583

>  <chiral>
1

>  <chiral_u>
1

>  <density>
0.69324702

>  <diameter>
8

>  <FCharge>
0

>  <GCUT_PEOE_0>
-0.85931975

>  <GCUT_PEOE_1>
-0.33833826

>  <GCUT_PEOE_2>
0.061294779

>  <GCUT_PEOE_3>
2.649699

>  <GCUT_SLOGP_0>
-0.96653098

>  <GCUT_SLOGP_1>
-0.22943836

>  <GCUT_SLOGP_2>
0.14225852

>  <GCUT_SLOGP_3>
2.7763662

>  <GCUT_SMR_0>
-0.52090937

>  <GCUT_SMR_1>
-0.18488009

>  <GCUT_SMR_2>
0.1608282

>  <GCUT_SMR_3>
2.953511

>  <Kier1>
14.917356

>  <Kier2>
6.405827

>  <Kier3>
3.1224489

>  <KierA1>
12.245986

>  <KierA2>
5.2003212

>  <KierA3>
2.5141966

>  <KierFlex>
3.1841531

>  <lip_acc>
2

>  <lip_don>
0

>  <lip_druglike>
1

>  <lip_violation>
0

>  <logP(o/w)>
4.0149999

>  <logS>
-3.9653001

>  <mr>
8.6485395

>  <mutagenic>
0

>  <nmol>
1

>  <opr_brigid>
16

>  <opr_leadlike>
1

>  <opr_nring>
3

>  <opr_nrot>
3

>  <opr_violation>
0

>  <PC+>
0

>  <PC->
0

>  <PEOE_PC+>
1.1245155

>  <PEOE_PC->
-1.1245155

>  <PEOE_RPC+>
0.056349367

>  <PEOE_RPC->
0.27072945

>  <PEOE_VSA+0>
89.291222

>  <PEOE_VSA+1>
34.123089

>  <PEOE_VSA+2>
0

>  <PEOE_VSA+3>
0

>  <PEOE_VSA+4>
0

>  <PEOE_VSA+5>
0

>  <PEOE_VSA+6>
0

>  <PEOE_VSA-0>
114.24467

>  <PEOE_VSA-1>
68.780235

>  <PEOE_VSA-2>
0

>  <PEOE_VSA-3>
0

>  <PEOE_VSA-4>
0

>  <PEOE_VSA-5>
0

>  <PEOE_VSA-6>
0

>  <PEOE_VSA_FHYD>
1

>  <PEOE_VSA_FNEG>
0.59726334

>  <PEOE_VSA_FPNEG>
0

>  <PEOE_VSA_FPOL>
0

>  <PEOE_VSA_FPOS>
0.40273666

>  <PEOE_VSA_FPPOS>
0

>  <PEOE_VSA_HYD>
306.43921

>  <PEOE_VSA_NEG>
183.0249

>  <PEOE_VSA_PNEG>
0

>  <PEOE_VSA_POL>
0

>  <PEOE_VSA_POS>
123.41431

>  <PEOE_VSA_PPOS>
0

>  <petitjean>
0.5

>  <petitjeanSC>
1

>  <Q_PC+>
0

>  <Q_PC->
0

>  <Q_RPC+>
0

>  <Q_RPC->
0

>  <Q_VSA_FHYD>
1

>  <Q_VSA_FNEG>
0

>  <Q_VSA_FPNEG>
0

>  <Q_VSA_FPOL>
0

>  <Q_VSA_FPOS>
1

>  <Q_VSA_FPPOS>
0

>  <Q_VSA_HYD>
306.43921

>  <Q_VSA_NEG>
0

>  <Q_VSA_PNEG>
0

>  <Q_VSA_POL>
0

>  <Q_VSA_POS>
306.43921

>  <Q_VSA_PPOS>
0

>  <radius>
4

>  <reactive>
0

>  <rings>
3

>  <RPC+>
0

>  <RPC->
0

>  <rsynth>
1

>  <SlogP>
4.2393999

>  <SlogP_VSA0>
3.1243138

>  <SlogP_VSA1>
3.1243138

>  <SlogP_VSA2>
3.9819686

>  <SlogP_VSA3>
18.439579

>  <SlogP_VSA4>
0

>  <SlogP_VSA5>
68.895844

>  <SlogP_VSA6>
0

>  <SlogP_VSA7>
141.14548

>  <SlogP_VSA8>
0

>  <SlogP_VSA9>
71.059052

>  <SMR>
8.7163

>  <SMR_VSA0>
0

>  <SMR_VSA1>
3.1243138

>  <SMR_VSA2>
6.2257819

>  <SMR_VSA3>
3.9819686

>  <SMR_VSA4>
5.513495

>  <SMR_VSA5>
141.14548

>  <SMR_VSA6>
18.439579

>  <SMR_VSA7>
131.33994

>  <TPSA>
6.48

>  <VAdjEq>
0.49991596

>  <VAdjMa>
5.4594316

>  <VDistEq>
2.8639245

>  <VDistMa>
8.3869162

>  <vdw_area>
306.43921

>  <vdw_vol>
410.28232

>  <vsa_acc>
0

>  <vsa_acid>
0

>  <vsa_base>
0

>  <vsa_don>
0

>  <vsa_hyd>
292.20331

>  <vsa_other>
0

>  <vsa_pol>
0

>  <Weight>
284.427

>  <weinerPath>
744

>  <weinerPol>
33

>  <zagreb>
106

$$$$