Clc1ccc(cc1)[C@H](CCN(C)C)c1ncccc1
  MOE2013           2D

 19 20  0  0  1  0  0  0  0  0999 V2000
    0.0000    0.0000    0.0000 Cl  0  0  0  0  0  0  0  0  0  0  0  0
   -1.5000   -0.0120    0.0000 C   0  0  0  0  0  0  0  0  0  0  0  0
   -2.2600    1.2810    0.0000 C   0  0  0  0  0  0  0  0  0  0  0  0
   -3.7600    1.2690    0.0000 C   0  0  0  0  0  0  0  0  0  0  0  0
   -4.5000   -0.0350    0.0000 C   0  0  0  0  0  0  0  0  0  0  0  0
   -3.7400   -1.3290    0.0000 C   0  0  0  0  0  0  0  0  0  0  0  0
   -2.2400   -1.3170    0.0000 C   0  0  0  0  0  0  0  0  0  0  0  0
   -6.0000   -0.0470    0.0000 C   0  0  2  0  0  0  0  0  0  0  0  0
   -6.7400   -1.3520    0.0000 C   0  0  0  0  0  0  0  0  0  0  0  0
   -8.2400   -1.3640    0.0000 C   0  0  0  0  0  0  0  0  0  0  0  0
   -8.9790   -2.6690    0.0000 N   0  0  0  0  0  0  0  0  0  0  0  0
   -8.2190   -3.9620    0.0000 C   0  0  0  0  0  0  0  0  0  0  0  0
  -10.4790   -2.6810    0.0000 C   0  0  0  0  0  0  0  0  0  0  0  0
   -6.7600    1.2460    0.0000 C   0  0  0  0  0  0  0  0  0  0  0  0
   -6.0200    2.5510    0.0000 N   0  0  0  0  0  0  0  0  0  0  0  0
   -6.7800    3.8440    0.0000 C   0  0  0  0  0  0  0  0  0  0  0  0
   -8.2800    3.8320    0.0000 C   0  0  0  0  0  0  0  0  0  0  0  0
   -9.0200    2.5270    0.0000 C   0  0  0  0  0  0  0  0  0  0  0  0
   -8.2600    1.2340    0.0000 C   0  0  0  0  0  0  0  0  0  0  0  0
  1  2  1  0  0  0  0
  2  3  1  0  0  0  0
  2  7  2  0  0  0  0
  3  4  2  0  0  0  0
  4  5  1  0  0  0  0
  5  6  2  0  0  0  0
  6  7  1  0  0  0  0
  8  5  1  6  0  0  0
  8  9  1  0  0  0  0
  8 14  1  0  0  0  0
  9 10  1  0  0  0  0
 10 11  1  0  0  0  0
 11 12  1  0  0  0  0
 11 13  1  0  0  0  0
 14 15  2  0  0  0  0
 14 19  1  0  0  0  0
 15 16  1  0  0  0  0
 16 17  2  0  0  0  0
 17 18  1  0  0  0  0
 18 19  2  0  0  0  0
M  END
>  <Index>
1491

>  <ID>
HT0465

>  <class>
1

>  <apol>
45.209068

>  <ast_fraglike>
0

>  <ast_fraglike_ext>
0

>  <ast_violation>
1

>  <ast_violation_ext>
2

>  <a_acc>
2

>  <a_acid>
0

>  <a_aro>
12

>  <a_base>
0

>  <a_count>
38

>  <a_don>
0

>  <a_donacc>
2

>  <a_heavy>
19

>  <a_hyd>
17

>  <a_IC>
52.710621

>  <a_ICM>
1.3871217

>  <a_nB>
0

>  <a_nBr>
0

>  <a_nC>
16

>  <a_nCl>
1

>  <a_nF>
0

>  <a_nH>
19

>  <a_nI>
0

>  <a_nN>
2

>  <a_nO>
0

>  <a_nP>
0

>  <a_nS>
0

>  <balabanJ>
1.925043

>  <BCUT_PEOE_0>
-2.6470823

>  <BCUT_PEOE_1>
-0.54296434

>  <BCUT_PEOE_2>
0.5816254

>  <BCUT_PEOE_3>
2.5767765

>  <BCUT_SLOGP_0>
-2.6777661

>  <BCUT_SLOGP_1>
-0.40437663

>  <BCUT_SLOGP_2>
0.76666826

>  <BCUT_SLOGP_3>
2.6396203

>  <BCUT_SMR_0>
-2.3726418

>  <BCUT_SMR_1>
-0.34885326

>  <BCUT_SMR_2>
0.81161904

>  <BCUT_SMR_3>
2.8436012

>  <bpol>
24.490932

>  <b_1rotN>
5

>  <b_1rotR>
0.25

>  <b_ar>
12

>  <b_count>
39

>  <b_double>
0

>  <b_heavy>
20

>  <b_max1len>
6

>  <b_rotN>
5

>  <b_rotR>
0.25

>  <b_single>
27

>  <b_triple>
0

>  <chi0>
13.664926

>  <chi0v>
12.138686

>  <chi0v_C>
10.110366

>  <chi0_C>
11.380469

>  <chi1>
9.1647034

>  <chi1v>
6.8550482

>  <chi1v_C>
4.5956411

>  <chi1_C>
6.1161566

>  <chiral>
1

>  <chiral_u>
0

>  <density>
0.7032088

>  <diameter>
9

>  <FCharge>
0

>  <GCUT_PEOE_0>
-0.86391193

>  <GCUT_PEOE_1>
-0.3627179

>  <GCUT_PEOE_2>
0.04909781

>  <GCUT_PEOE_3>
2.5746696

>  <GCUT_SLOGP_0>
-0.95313859

>  <GCUT_SLOGP_1>
-0.26040313

>  <GCUT_SLOGP_2>
0.15641683

>  <GCUT_SLOGP_3>
2.6764572

>  <GCUT_SMR_0>
-0.5196982

>  <GCUT_SMR_1>
-0.1721696

>  <GCUT_SMR_2>
0.18213136

>  <GCUT_SMR_3>
2.8455493

>  <Kier1>
15.39

>  <Kier2>
7.6952662

>  <Kier3>
4.7950053

>  <KierA1>
12.683067

>  <KierA2>
6.2688174

>  <KierA3>
3.8710163

>  <KierFlex>
4.1846228

>  <lip_acc>
2

>  <lip_don>
0

>  <lip_druglike>
1

>  <lip_violation>
0

>  <logP(o/w)>
3.451

>  <logS>
-2.7911

>  <mr>
8.1834831

>  <mutagenic>
0

>  <nmol>
1

>  <opr_brigid>
12

>  <opr_leadlike>
1

>  <opr_nring>
2

>  <opr_nrot>
5

>  <opr_violation>
0

>  <PC+>
0

>  <PC->
0

>  <PEOE_PC+>
1.0856446

>  <PEOE_PC->
-1.0856446

>  <PEOE_RPC+>
0.076400571

>  <PEOE_RPC->
0.28399071

>  <PEOE_VSA+0>
74.88446

>  <PEOE_VSA+1>
34.123089

>  <PEOE_VSA+2>
0

>  <PEOE_VSA+3>
0

>  <PEOE_VSA+4>
0

>  <PEOE_VSA+5>
0

>  <PEOE_VSA+6>
0

>  <PEOE_VSA-0>
119.59917

>  <PEOE_VSA-1>
66.346657

>  <PEOE_VSA-2>
0

>  <PEOE_VSA-3>
0

>  <PEOE_VSA-4>
0

>  <PEOE_VSA-5>
5.6825762

>  <PEOE_VSA-6>
0

>  <PEOE_VSA_FHYD>
0.98109818

>  <PEOE_VSA_FNEG>
0.63741016

>  <PEOE_VSA_FPNEG>
0.018901851

>  <PEOE_VSA_FPOL>
0.018901851

>  <PEOE_VSA_FPOS>
0.36258987

>  <PEOE_VSA_FPPOS>
0

>  <PEOE_VSA_HYD>
294.95337

>  <PEOE_VSA_NEG>
191.6284

>  <PEOE_VSA_PNEG>
5.6825762

>  <PEOE_VSA_POL>
5.6825762

>  <PEOE_VSA_POS>
109.00755

>  <PEOE_VSA_PPOS>
0

>  <petitjean>
0.44444445

>  <petitjeanSC>
0.80000001

>  <Q_PC+>
0

>  <Q_PC->
0

>  <Q_RPC+>
0

>  <Q_RPC->
0

>  <Q_VSA_FHYD>
1

>  <Q_VSA_FNEG>
0

>  <Q_VSA_FPNEG>
0

>  <Q_VSA_FPOL>
0

>  <Q_VSA_FPOS>
1

>  <Q_VSA_FPPOS>
0

>  <Q_VSA_HYD>
300.63596

>  <Q_VSA_NEG>
0

>  <Q_VSA_PNEG>
0

>  <Q_VSA_POL>
0

>  <Q_VSA_POS>
300.63596

>  <Q_VSA_PPOS>
0

>  <radius>
5

>  <reactive>
0

>  <rings>
2

>  <RPC+>
0

>  <RPC->
0

>  <rsynth>
0.63157892

>  <SlogP>
3.8185999

>  <SlogP_VSA0>
0

>  <SlogP_VSA1>
19.909843

>  <SlogP_VSA2>
0

>  <SlogP_VSA3>
18.439579

>  <SlogP_VSA4>
5.9423227

>  <SlogP_VSA5>
65.794373

>  <SlogP_VSA6>
7.9114027

>  <SlogP_VSA7>
140.71664

>  <SlogP_VSA8>
18.868406

>  <SlogP_VSA9>
39.148643

>  <SMR>
8.0703001

>  <SMR_VSA0>
0

>  <SMR_VSA1>
19.909843

>  <SMR_VSA2>
0

>  <SMR_VSA3>
13.853725

>  <SMR_VSA4>
0

>  <SMR_VSA5>
159.58505

>  <SMR_VSA6>
18.439579

>  <SMR_VSA7>
104.94302

>  <TPSA>
16.129999

>  <VAdjEq>
0.5023343

>  <VAdjMa>
5.321928

>  <VDistEq>
3.0133755

>  <VDistMa>
8.2190228

>  <vdw_area>
300.63596

>  <vdw_vol>
390.77298

>  <vsa_acc>
5.6825762

>  <vsa_acid>
0

>  <vsa_base>
0

>  <vsa_don>
0

>  <vsa_hyd>
280.08423

>  <vsa_other>
0

>  <vsa_pol>
5.6825762

>  <Weight>
274.79498

>  <weinerPath>
718

>  <weinerPol>
25

>  <zagreb>
92

$$$$