Ic1c(C(O)=O)c(I)c(NC(=O)C)c(I)c1NC(=O)C
  MOE2013           2D

 20 20  0  0  0  0  0  0  0  0999 V2000
    0.0000    0.0000    0.0000 I   0  0  0  0  0  0  0  0  0  0  0  0
   -0.7550    1.2960    0.0000 C   0  0  0  0  0  0  0  0  0  0  0  0
   -2.2550    1.2900    0.0000 C   0  0  0  0  0  0  0  0  0  0  0  0
   -3.0000   -0.0120    0.0000 C   0  0  0  0  0  0  0  0  0  0  0  0
   -4.5000   -0.0180    0.0000 O   0  0  0  0  0  0  0  0  0  0  0  0
   -2.2450   -1.3080    0.0000 O   0  0  0  0  0  0  0  0  0  0  0  0
   -3.0100    2.5860    0.0000 C   0  0  0  0  0  0  0  0  0  0  0  0
   -4.5100    2.5800    0.0000 I   0  0  0  0  0  0  0  0  0  0  0  0
   -2.2660    3.8880    0.0000 C   0  0  0  0  0  0  0  0  0  0  0  0
   -3.0210    5.1840    0.0000 N   0  0  0  0  0  0  0  0  0  0  0  0
   -4.5210    5.1780    0.0000 C   0  0  0  0  0  0  0  0  0  0  0  0
   -5.2760    6.4740    0.0000 O   0  0  0  0  0  0  0  0  0  0  0  0
   -5.2660    3.8760    0.0000 C   0  0  0  0  0  0  0  0  0  0  0  0
   -0.7660    3.8940    0.0000 C   0  0  0  0  0  0  0  0  0  0  0  0
   -0.0210    5.1960    0.0000 I   0  0  0  0  0  0  0  0  0  0  0  0
   -0.0100    2.5980    0.0000 C   0  0  0  0  0  0  0  0  0  0  0  0
    1.4900    2.6040    0.0000 N   0  0  0  0  0  0  0  0  0  0  0  0
    2.2340    3.9060    0.0000 C   0  0  0  0  0  0  0  0  0  0  0  0
    3.7340    3.9120    0.0000 O   0  0  0  0  0  0  0  0  0  0  0  0
    1.4790    5.2020    0.0000 C   0  0  0  0  0  0  0  0  0  0  0  0
  1  2  1  0  0  0  0
  2  3  1  0  0  0  0
  2 16  2  0  0  0  0
  3  4  1  0  0  0  0
  3  7  2  0  0  0  0
  4  5  1  0  0  0  0
  4  6  2  0  0  0  0
  7  8  1  0  0  0  0
  7  9  1  0  0  0  0
  9 10  1  0  0  0  0
  9 14  2  0  0  0  0
 10 11  1  0  0  0  0
 11 12  2  0  0  0  0
 11 13  1  0  0  0  0
 14 15  1  0  0  0  0
 14 16  1  0  0  0  0
 16 17  1  0  0  0  0
 17 18  1  0  0  0  0
 18 19  2  0  0  0  0
 18 20  1  0  0  0  0
M  END
>  <Index>
1521

>  <ID>
HT0635

>  <class>
1

>  <apol>
46.819138

>  <ast_fraglike>
0

>  <ast_fraglike_ext>
0

>  <ast_violation>
4

>  <ast_violation_ext>
5

>  <a_acc>
4

>  <a_acid>
0

>  <a_aro>
6

>  <a_base>
0

>  <a_count>
29

>  <a_don>
4

>  <a_donacc>
8

>  <a_heavy>
20

>  <a_hyd>
11

>  <a_IC>
59.543488

>  <a_ICM>
2.0532238

>  <a_nB>
0

>  <a_nBr>
0

>  <a_nC>
11

>  <a_nCl>
0

>  <a_nF>
0

>  <a_nH>
9

>  <a_nI>
3

>  <a_nN>
2

>  <a_nO>
4

>  <a_nP>
0

>  <a_nS>
0

>  <balabanJ>
3.0238004

>  <BCUT_PEOE_0>
-2.323432

>  <BCUT_PEOE_1>
-0.58299261

>  <BCUT_PEOE_2>
0.46557987

>  <BCUT_PEOE_3>
2.3363326

>  <BCUT_SLOGP_0>
-2.3817298

>  <BCUT_SLOGP_1>
-0.52331209

>  <BCUT_SLOGP_2>
0.58883548

>  <BCUT_SLOGP_3>
2.4200783

>  <BCUT_SMR_0>
-1.9941061

>  <BCUT_SMR_1>
-0.31823936

>  <BCUT_SMR_2>
0.85476959

>  <BCUT_SMR_3>
2.7286553

>  <bpol>
24.802862

>  <b_1rotN>
3

>  <b_1rotR>
0.15000001

>  <b_ar>
6

>  <b_count>
29

>  <b_double>
3

>  <b_heavy>
20

>  <b_max1len>
2

>  <b_rotN>
5

>  <b_rotR>
0.25

>  <b_single>
20

>  <b_triple>
0

>  <chi0>
15.610366

>  <chi0v>
16.778347

>  <chi0v_C>
6.5

>  <chi0_C>
7.1961522

>  <chi1>
9.1624784

>  <chi1v>
8.3891735

>  <chi1v_C>
2.75

>  <chi1_C>
3.4880338

>  <chiral>
0

>  <chiral_u>
0

>  <density>
1.5607532

>  <diameter>
8

>  <FCharge>
0

>  <GCUT_PEOE_0>
-0.81042892

>  <GCUT_PEOE_1>
-0.50207072

>  <GCUT_PEOE_2>
0.078563385

>  <GCUT_PEOE_3>
2.3074825

>  <GCUT_SLOGP_0>
-1.0008125

>  <GCUT_SLOGP_1>
-0.42246196

>  <GCUT_SLOGP_2>
0.2318325

>  <GCUT_SLOGP_3>
2.4295311

>  <GCUT_SMR_0>
-0.46895012

>  <GCUT_SMR_1>
-0.19949943

>  <GCUT_SMR_2>
0.37389082

>  <GCUT_SMR_3>
2.7397749

>  <Kier1>
18.049999

>  <Kier2>
7.3198571

>  <Kier3>
4.25

>  <KierA1>
21.488802

>  <KierA2>
8.7952757

>  <KierA3>
5.1411161

>  <KierFlex>
9.4499969

>  <lip_acc>
6

>  <lip_don>
3

>  <lip_druglike>
1

>  <lip_violation>
1

>  <logP(o/w)>
3.723

>  <logS>
-4.7477398

>  <mr>
10.020804

>  <mutagenic>
0

>  <nmol>
1

>  <opr_brigid>
6

>  <opr_leadlike>
1

>  <opr_nring>
1

>  <opr_nrot>
3

>  <opr_violation>
1

>  <PC+>
0

>  <PC->
0

>  <PEOE_PC+>
1.9035385

>  <PEOE_PC->
-1.9035385

>  <PEOE_RPC+>
0.15412579

>  <PEOE_RPC->
0.17201631

>  <PEOE_VSA+0>
63.087669

>  <PEOE_VSA+1>
24.727924

>  <PEOE_VSA+2>
0

>  <PEOE_VSA+3>
17.238026

>  <PEOE_VSA+4>
36.223236

>  <PEOE_VSA+5>
14.708499

>  <PEOE_VSA+6>
0

>  <PEOE_VSA-0>
140.97005

>  <PEOE_VSA-1>
0

>  <PEOE_VSA-2>
0

>  <PEOE_VSA-3>
0

>  <PEOE_VSA-4>
0

>  <PEOE_VSA-5>
40.700764

>  <PEOE_VSA-6>
8.0413227

>  <PEOE_VSA_FHYD>
0.71167326

>  <PEOE_VSA_FNEG>
0.54878074

>  <PEOE_VSA_FPNEG>
0.14099635

>  <PEOE_VSA_FPOL>
0.28832671

>  <PEOE_VSA_FPOS>
0.45121923

>  <PEOE_VSA_FPPOS>
0.14733036

>  <PEOE_VSA_HYD>
246.02367

>  <PEOE_VSA_NEG>
189.71213

>  <PEOE_VSA_PNEG>
48.742085

>  <PEOE_VSA_POL>
99.67382

>  <PEOE_VSA_POS>
155.98535

>  <PEOE_VSA_PPOS>
50.931732

>  <petitjean>
0.375

>  <petitjeanSC>
0.60000002

>  <Q_PC+>
0

>  <Q_PC->
0

>  <Q_RPC+>
0

>  <Q_RPC->
0

>  <Q_VSA_FHYD>
1

>  <Q_VSA_FNEG>
0

>  <Q_VSA_FPNEG>
0

>  <Q_VSA_FPOL>
0

>  <Q_VSA_FPOS>
1

>  <Q_VSA_FPPOS>
0

>  <Q_VSA_HYD>
345.69748

>  <Q_VSA_NEG>
0

>  <Q_VSA_PNEG>
0

>  <Q_VSA_POL>
0

>  <Q_VSA_POS>
345.69748

>  <Q_VSA_PPOS>
0

>  <radius>
5

>  <reactive>
0

>  <rings>
1

>  <RPC+>
0

>  <RPC->
0

>  <rsynth>
1

>  <SlogP>
3.1154001

>  <SlogP_VSA0>
0

>  <SlogP_VSA1>
54.284534

>  <SlogP_VSA2>
52.703362

>  <SlogP_VSA3>
25.385227

>  <SlogP_VSA4>
27.047791

>  <SlogP_VSA5>
0

>  <SlogP_VSA6>
0

>  <SlogP_VSA7>
0

>  <SlogP_VSA8>
0

>  <SlogP_VSA9>
242.51155

>  <SMR>
10.01597

>  <SMR_VSA0>
71.586647

>  <SMR_VSA1>
0

>  <SMR_VSA2>
30.364155

>  <SMR_VSA3>
3.185575

>  <SMR_VSA4>
41.534996

>  <SMR_VSA5>
0

>  <SMR_VSA6>
18.263031

>  <SMR_VSA7>
236.99806

>  <TPSA>
95.5

>  <VAdjEq>
0.4689956

>  <VAdjMa>
5.321928

>  <VDistEq>
2.8450079

>  <VDistMa>
8.399682

>  <vdw_area>
345.69748

>  <vdw_vol>
393.34534

>  <vsa_acc>
27.133842

>  <vsa_acid>
0

>  <vsa_base>
0

>  <vsa_don>
11.365152

>  <vsa_hyd>
224.51486

>  <vsa_other>
40.607563

>  <vsa_pol>
65.632835

>  <Weight>
613.91498

>  <weinerPath>
746

>  <weinerPol>
33

>  <zagreb>
98

$$$$