s1cc(nc1N)/C(=NOCC(O)=O)/C(=O)N[C@H]1[C@H]2SCC(C=C)=C(N2C1=O)C(O)=O
  MOE2013           2D

 30 32  0  0  1  0  0  0  0  0999 V2000
    0.0000    0.0000    0.0000 S   0  0  0  0  0  0  0  0  0  0  0  0
    0.7610    1.2930    0.0000 C   0  0  0  0  0  0  0  0  0  0  0  0
    2.2250    0.9680    0.0000 C   0  0  0  0  0  0  0  0  0  0  0  0
    2.3700   -0.5250    0.0000 N   0  0  0  0  0  0  0  0  0  0  0  0
    0.9940   -1.1230    0.0000 C   0  0  0  0  0  0  0  0  0  0  0  0
    0.6700   -2.5880    0.0000 N   0  0  0  0  0  0  0  0  0  0  0  0
    3.3490    1.9630    0.0000 C   0  0  0  0  0  0  0  0  0  0  0  0
    3.0490    3.4320    0.0000 N   0  0  0  0  0  0  0  0  0  0  0  0
    1.6270    3.9080    0.0000 O   0  0  0  0  0  0  0  0  0  0  0  0
    1.3270    5.3780    0.0000 C   0  0  0  0  0  0  0  0  0  0  0  0
   -0.0960    5.8530    0.0000 C   0  0  0  0  0  0  0  0  0  0  0  0
   -1.2190    4.8590    0.0000 O   0  0  0  0  0  0  0  0  0  0  0  0
   -0.3950    7.3230    0.0000 O   0  0  0  0  0  0  0  0  0  0  0  0
    4.7710    1.4870    0.0000 C   0  0  0  0  0  0  0  0  0  0  0  0
    5.0710    0.0170    0.0000 O   0  0  0  0  0  0  0  0  0  0  0  0
    5.8940    2.4810    0.0000 N   0  0  0  0  0  0  0  0  0  0  0  0
    7.3170    2.0060    0.0000 C   0  0  1  0  0  0  0  0  0  0  0  0
    8.6590    2.6750    0.0000 C   0  0  1  0  0  0  0  0  0  0  0  0
    9.4870    3.9270    0.0000 S   0  0  0  0  0  0  0  0  0  0  0  0
   10.9840    3.8350    0.0000 C   0  0  0  0  0  0  0  0  0  0  0  0
   11.6540    2.4930    0.0000 C   0  0  0  0  0  0  0  0  0  0  0  0
   13.1510    2.4020    0.0000 C   0  0  0  0  0  0  0  0  0  0  0  0
   13.9780    3.6530    0.0000 C   0  0  0  0  0  0  0  0  0  0  0  0
   10.8260    1.2420    0.0000 C   0  0  0  0  0  0  0  0  0  0  0  0
    9.3290    1.3330    0.0000 N   0  0  0  0  0  0  0  0  0  0  0  0
    7.9870    0.6640    0.0000 C   0  0  0  0  0  0  0  0  0  0  0  0
    7.5110   -0.7590    0.0000 O   0  0  0  0  0  0  0  0  0  0  0  0
   11.4960   -0.1000    0.0000 C   0  0  0  0  0  0  0  0  0  0  0  0
   10.6680   -1.3510    0.0000 O   0  0  0  0  0  0  0  0  0  0  0  0
   12.9930   -0.1910    0.0000 O   0  0  0  0  0  0  0  0  0  0  0  0
  1  2  1  0  0  0  0
  1  5  1  0  0  0  0
  2  3  2  0  0  0  0
  3  4  1  0  0  0  0
  3  7  1  0  0  0  0
  4  5  2  0  0  0  0
  5  6  1  0  0  0  0
  7  8  2  3  0  0  0
  7 14  1  0  0  0  0
  8  9  1  0  0  0  0
  9 10  1  0  0  0  0
 10 11  1  0  0  0  0
 11 12  1  0  0  0  0
 11 13  2  0  0  0  0
 14 15  2  0  0  0  0
 14 16  1  0  0  0  0
 17 16  1  1  0  0  0
 17 18  1  0  0  0  0
 17 26  1  0  0  0  0
 18 19  1  0  0  0  0
 18 25  1  1  0  0  0
 19 20  1  0  0  0  0
 20 21  1  0  0  0  0
 21 22  1  0  0  0  0
 21 24  2  0  0  0  0
 22 23  2  0  0  0  0
 24 25  1  0  0  0  0
 24 28  1  0  0  0  0
 25 26  1  0  0  0  0
 26 27  2  0  0  0  0
 28 29  1  0  0  0  0
 28 30  2  0  0  0  0
M  END
>  <Index>
1470

>  <ID>
HT0405

>  <class>
1

>  <apol>
55.075893

>  <ast_fraglike>
0

>  <ast_fraglike_ext>
0

>  <ast_violation>
3

>  <ast_violation_ext>
5

>  <a_acc>
8

>  <a_acid>
0

>  <a_aro>
5

>  <a_base>
0

>  <a_count>
45

>  <a_don>
6

>  <a_donacc>
14

>  <a_heavy>
30

>  <a_hyd>
12

>  <a_IC>
91.268906

>  <a_ICM>
2.028198

>  <a_nB>
0

>  <a_nBr>
0

>  <a_nC>
16

>  <a_nCl>
0

>  <a_nF>
0

>  <a_nH>
15

>  <a_nI>
0

>  <a_nN>
5

>  <a_nO>
7

>  <a_nP>
0

>  <a_nS>
2

>  <balabanJ>
1.631691

>  <BCUT_PEOE_0>
-2.6785083

>  <BCUT_PEOE_1>
-0.58418649

>  <BCUT_PEOE_2>
0.64287722

>  <BCUT_PEOE_3>
2.7299635

>  <BCUT_SLOGP_0>
-2.8915577

>  <BCUT_SLOGP_1>
-0.60106552

>  <BCUT_SLOGP_2>
0.63909405

>  <BCUT_SLOGP_3>
2.6065083

>  <BCUT_SMR_0>
-2.3936515

>  <BCUT_SMR_1>
-0.39558619

>  <BCUT_SMR_2>
0.87605053

>  <BCUT_SMR_3>
3.0124371

>  <bpol>
30.006105

>  <b_1rotN>
8

>  <b_1rotR>
0.25

>  <b_ar>
5

>  <b_count>
47

>  <b_double>
7

>  <b_heavy>
32

>  <b_max1len>
3

>  <b_rotN>
9

>  <b_rotR>
0.28125

>  <b_single>
35

>  <b_triple>
0

>  <chi0>
21.999271

>  <chi0v>
16.734871

>  <chi0v_C>
8.9307213

>  <chi0_C>
10.17928

>  <chi1>
14.23929

>  <chi1v>
10.145868

>  <chi1v_C>
3.3147137

>  <chi1_C>
4.3400998

>  <chiral>
2

>  <chiral_u>
0

>  <density>
0.9269498

>  <diameter>
14

>  <FCharge>
0

>  <GCUT_PEOE_0>
-0.82285821

>  <GCUT_PEOE_1>
-0.4766908

>  <GCUT_PEOE_2>
0.12131541

>  <GCUT_PEOE_3>
2.5608795

>  <GCUT_SLOGP_0>
-1.3345573

>  <GCUT_SLOGP_1>
-0.445952

>  <GCUT_SLOGP_2>
0.14413682

>  <GCUT_SLOGP_3>
2.5072868

>  <GCUT_SMR_0>
-0.52853942

>  <GCUT_SMR_1>
-0.24316289

>  <GCUT_SMR_2>
0.31030253

>  <GCUT_SMR_3>
2.8502533

>  <Kier1>
24.638672

>  <Kier2>
10.744802

>  <Kier3>
5.5067639

>  <KierA1>
20.109184

>  <KierA2>
8.704587

>  <KierA3>
4.4377141

>  <KierFlex>
5.8347383

>  <lip_acc>
12

>  <lip_don>
5

>  <lip_druglike>
1

>  <lip_violation>
1

>  <logP(o/w)>
-0.373

>  <logS>
-4.0542698

>  <mr>
10.61438

>  <mutagenic>
1

>  <nmol>
1

>  <opr_brigid>
16

>  <opr_leadlike>
0

>  <opr_nring>
3

>  <opr_nrot>
8

>  <opr_violation>
2

>  <PC+>
0

>  <PC->
0

>  <PEOE_PC+>
3.6264162

>  <PEOE_PC->
-3.6264162

>  <PEOE_RPC+>
0.084994517

>  <PEOE_RPC->
0.092860594

>  <PEOE_VSA+0>
19.208147

>  <PEOE_VSA+1>
53.989265

>  <PEOE_VSA+2>
32.205559

>  <PEOE_VSA+3>
50.030476

>  <PEOE_VSA+4>
20.648346

>  <PEOE_VSA+5>
40.607563

>  <PEOE_VSA+6>
14.708499

>  <PEOE_VSA-0>
2.2085397

>  <PEOE_VSA-1>
48.787136

>  <PEOE_VSA-2>
30.64588

>  <PEOE_VSA-3>
0

>  <PEOE_VSA-4>
11.584935

>  <PEOE_VSA-5>
60.918804

>  <PEOE_VSA-6>
15.671971

>  <PEOE_VSA_FHYD>
0.59089249

>  <PEOE_VSA_FNEG>
0.42325741

>  <PEOE_VSA_FPNEG>
0.21977165

>  <PEOE_VSA_FPOL>
0.40910751

>  <PEOE_VSA_FPOS>
0.57674259

>  <PEOE_VSA_FPPOS>
0.18933585

>  <PEOE_VSA_HYD>
237.075

>  <PEOE_VSA_NEG>
169.81726

>  <PEOE_VSA_PNEG>
88.175713

>  <PEOE_VSA_POL>
164.14012

>  <PEOE_VSA_POS>
231.39786

>  <PEOE_VSA_PPOS>
75.964409

>  <petitjean>
0.5

>  <petitjeanSC>
1

>  <Q_PC+>
0

>  <Q_PC->
0

>  <Q_RPC+>
0

>  <Q_RPC->
0

>  <Q_VSA_FHYD>
1

>  <Q_VSA_FNEG>
0

>  <Q_VSA_FPNEG>
0

>  <Q_VSA_FPOL>
0

>  <Q_VSA_FPOS>
1

>  <Q_VSA_FPPOS>
0

>  <Q_VSA_HYD>
401.21512

>  <Q_VSA_NEG>
0

>  <Q_VSA_PNEG>
0

>  <Q_VSA_POL>
0

>  <Q_VSA_POS>
401.21512

>  <Q_VSA_PPOS>
0

>  <radius>
7

>  <reactive>
1

>  <rings>
3

>  <RPC+>
0

>  <RPC->
0

>  <rsynth>
1

>  <SlogP>
-0.54479998

>  <SlogP_VSA0>
50.90794

>  <SlogP_VSA1>
48.675087

>  <SlogP_VSA2>
112.99673

>  <SlogP_VSA3>
88.930275

>  <SlogP_VSA4>
2.7567475

>  <SlogP_VSA5>
25.342184

>  <SlogP_VSA6>
0

>  <SlogP_VSA7>
33.459194

>  <SlogP_VSA8>
0

>  <SlogP_VSA9>
96.09877

>  <SMR>
10.65337

>  <SMR_VSA0>
106.66763

>  <SMR_VSA1>
39.309704

>  <SMR_VSA2>
68.781204

>  <SMR_VSA3>
15.028167

>  <SMR_VSA4>
0.50074643

>  <SMR_VSA5>
66.356384

>  <SMR_VSA6>
66.925064

>  <SMR_VSA7>
95.598022

>  <TPSA>
184.50999

>  <VAdjEq>
0.37005648

>  <VAdjMa>
6

>  <VDistEq>
3.6058204

>  <VDistMa>
9.5354633

>  <vdw_area>
401.21512

>  <vdw_vol>
489.19153

>  <vsa_acc>
43.701679

>  <vsa_acid>
0

>  <vsa_base>
0

>  <vsa_don>
23.425066

>  <vsa_hyd>
173.34857

>  <vsa_other>
81.084595

>  <vsa_pol>
121.39443

>  <Weight>
453.45599

>  <weinerPath>
2560

>  <weinerPol>
46

>  <zagreb>
156

$$$$