S1c2c(N(c3c1cccc3)CC1CCCN(C1)C)cccc2
  MOE2013           2D

 22 25  0  0  1  0  0  0  0  0999 V2000
    0.0000    0.0000    0.0000 S   0  0  0  0  0  0  0  0  0  0  0  0
   -0.0110   -1.5000    0.0000 C   0  0  0  0  0  0  0  0  0  0  0  0
   -1.3160   -2.2400    0.0000 C   0  0  0  0  0  0  0  0  0  0  0  0
   -2.6090   -1.4800    0.0000 N   0  0  0  0  0  0  0  0  0  0  0  0
   -2.5980    0.0200    0.0000 C   0  0  0  0  0  0  0  0  0  0  0  0
   -1.2930    0.7600    0.0000 C   0  0  0  0  0  0  0  0  0  0  0  0
   -1.2820    2.2600    0.0000 C   0  0  0  0  0  0  0  0  0  0  0  0
   -2.5750    3.0190    0.0000 C   0  0  0  0  0  0  0  0  0  0  0  0
   -3.8800    2.2790    0.0000 C   0  0  0  0  0  0  0  0  0  0  0  0
   -3.8910    0.7790    0.0000 C   0  0  0  0  0  0  0  0  0  0  0  0
   -3.9140   -2.2210    0.0000 C   0  0  0  0  0  0  0  0  0  0  0  0
   -5.2070   -1.4610    0.0000 C   0  0  3  0  0  0  0  0  0  0  0  0
   -5.1960    0.0390    0.0000 C   0  0  0  0  0  0  0  0  0  0  0  0
   -6.4890    0.7990    0.0000 C   0  0  0  0  0  0  0  0  0  0  0  0
   -7.7940    0.0590    0.0000 C   0  0  0  0  0  0  0  0  0  0  0  0
   -7.8050   -1.4410    0.0000 N   0  0  3  0  0  0  0  0  0  0  0  0
   -6.5120   -2.2010    0.0000 C   0  0  0  0  0  0  0  0  0  0  0  0
   -9.1100   -2.1810    0.0000 C   0  0  0  0  0  0  0  0  0  0  0  0
   -1.3270   -3.7400    0.0000 C   0  0  0  0  0  0  0  0  0  0  0  0
   -0.0340   -4.5000    0.0000 C   0  0  0  0  0  0  0  0  0  0  0  0
    1.2710   -3.7600    0.0000 C   0  0  0  0  0  0  0  0  0  0  0  0
    1.2820   -2.2600    0.0000 C   0  0  0  0  0  0  0  0  0  0  0  0
  1  2  1  0  0  0  0
  1  6  1  0  0  0  0
  2  3  1  0  0  0  0
  2 22  2  0  0  0  0
  3  4  1  0  0  0  0
  3 19  2  0  0  0  0
  4  5  1  0  0  0  0
  4 11  1  0  0  0  0
  5  6  1  0  0  0  0
  5 10  2  0  0  0  0
  6  7  2  0  0  0  0
  7  8  1  0  0  0  0
  8  9  2  0  0  0  0
  9 10  1  0  0  0  0
 11 12  1  0  0  0  0
 12 13  1  0  0  0  0
 12 17  1  0  0  0  0
 13 14  1  0  0  0  0
 14 15  1  0  0  0  0
 15 16  1  0  0  0  0
 16 17  1  0  0  0  0
 16 18  1  0  0  0  0
 19 20  1  0  0  0  0
 20 21  2  0  0  0  0
 21 22  1  0  0  0  0
M  END
>  <Index>
1635

>  <ID>
HT1303

>  <class>
1

>  <apol>
53.209446

>  <ast_fraglike>
0

>  <ast_fraglike_ext>
0

>  <ast_violation>
2

>  <ast_violation_ext>
3

>  <a_acc>
1

>  <a_acid>
0

>  <a_aro>
12

>  <a_base>
0

>  <a_count>
44

>  <a_don>
0

>  <a_donacc>
1

>  <a_heavy>
22

>  <a_hyd>
20

>  <a_IC>
59.396873

>  <a_ICM>
1.349929

>  <a_nB>
0

>  <a_nBr>
0

>  <a_nC>
19

>  <a_nCl>
0

>  <a_nF>
0

>  <a_nH>
22

>  <a_nI>
0

>  <a_nN>
2

>  <a_nO>
0

>  <a_nP>
0

>  <a_nS>
1

>  <balabanJ>
1.497745

>  <BCUT_PEOE_0>
-2.8082933

>  <BCUT_PEOE_1>
-0.55743492

>  <BCUT_PEOE_2>
0.6086936

>  <BCUT_PEOE_3>
2.7319009

>  <BCUT_SLOGP_0>
-2.8345172

>  <BCUT_SLOGP_1>
-0.47408748

>  <BCUT_SLOGP_2>
0.69804758

>  <BCUT_SLOGP_3>
2.7513463

>  <BCUT_SMR_0>
-2.538234

>  <BCUT_SMR_1>
-0.42867431

>  <BCUT_SMR_2>
0.73673284

>  <BCUT_SMR_3>
2.9989066

>  <bpol>
30.290554

>  <b_1rotN>
2

>  <b_1rotR>
0.079999998

>  <b_ar>
12

>  <b_count>
47

>  <b_double>
0

>  <b_heavy>
25

>  <b_max1len>
3

>  <b_rotN>
2

>  <b_rotR>
0.079999998

>  <b_single>
35

>  <b_triple>
0

>  <chi0>
14.940947

>  <chi0v>
13.850859

>  <chi0v_C>
11.731687

>  <chi0_C>
13.07914

>  <chi1>
10.809663

>  <chi1v>
8.9473009

>  <chi1v_C>
5.8794456

>  <chi1_C>
7.5244045

>  <chiral>
1

>  <chiral_u>
1

>  <density>
0.6972909

>  <diameter>
9

>  <FCharge>
0

>  <GCUT_PEOE_0>
-0.85981166

>  <GCUT_PEOE_1>
-0.37446234

>  <GCUT_PEOE_2>
0.062003717

>  <GCUT_PEOE_3>
2.7864642

>  <GCUT_SLOGP_0>
-0.9539327

>  <GCUT_SLOGP_1>
-0.25357211

>  <GCUT_SLOGP_2>
0.14450282

>  <GCUT_SLOGP_3>
2.8937011

>  <GCUT_SMR_0>
-0.52446091

>  <GCUT_SMR_1>
-0.18575607

>  <GCUT_SMR_2>
0.16362394

>  <GCUT_SMR_3>
3.0693743

>  <Kier1>
15.5232

>  <Kier2>
6.8571429

>  <Kier3>
3.2986112

>  <KierA1>
12.988824

>  <KierA2>
5.6858988

>  <KierA3>
2.7172744

>  <KierFlex>
3.3569608

>  <lip_acc>
2

>  <lip_don>
0

>  <lip_druglike>
1

>  <lip_violation>
0

>  <logP(o/w)>
4.3720002

>  <logS>
-4.2667999

>  <mr>
9.392127

>  <mutagenic>
0

>  <nmol>
1

>  <opr_brigid>
22

>  <opr_leadlike>
1

>  <opr_nring>
4

>  <opr_nrot>
4

>  <opr_violation>
1

>  <PC+>
0

>  <PC->
0

>  <PEOE_PC+>
1.1679497

>  <PEOE_PC->
-1.1679497

>  <PEOE_RPC+>
0.054253824

>  <PEOE_RPC->
0.26116303

>  <PEOE_VSA+0>
107.86836

>  <PEOE_VSA+1>
34.123089

>  <PEOE_VSA+2>
0

>  <PEOE_VSA+3>
0

>  <PEOE_VSA+4>
0

>  <PEOE_VSA+5>
0

>  <PEOE_VSA+6>
0

>  <PEOE_VSA-0>
102.85326

>  <PEOE_VSA-1>
68.780235

>  <PEOE_VSA-2>
0

>  <PEOE_VSA-3>
0

>  <PEOE_VSA-4>
0

>  <PEOE_VSA-5>
0

>  <PEOE_VSA-6>
0

>  <PEOE_VSA_FHYD>
1

>  <PEOE_VSA_FNEG>
0.54725713

>  <PEOE_VSA_FPNEG>
0

>  <PEOE_VSA_FPOL>
0

>  <PEOE_VSA_FPOS>
0.45274284

>  <PEOE_VSA_FPPOS>
0

>  <PEOE_VSA_HYD>
313.62494

>  <PEOE_VSA_NEG>
171.63348

>  <PEOE_VSA_PNEG>
0

>  <PEOE_VSA_POL>
0

>  <PEOE_VSA_POS>
141.99144

>  <PEOE_VSA_PPOS>
0

>  <petitjean>
0.44444445

>  <petitjeanSC>
0.80000001

>  <Q_PC+>
0

>  <Q_PC->
0

>  <Q_RPC+>
0

>  <Q_RPC->
0

>  <Q_VSA_FHYD>
1

>  <Q_VSA_FNEG>
0

>  <Q_VSA_FPNEG>
0

>  <Q_VSA_FPOL>
0

>  <Q_VSA_FPOS>
1

>  <Q_VSA_FPPOS>
0

>  <Q_VSA_HYD>
313.62494

>  <Q_VSA_NEG>
0

>  <Q_VSA_PNEG>
0

>  <Q_VSA_POL>
0

>  <Q_VSA_POS>
313.62494

>  <Q_VSA_PPOS>
0

>  <radius>
5

>  <reactive>
0

>  <rings>
4

>  <RPC+>
0

>  <RPC->
0

>  <rsynth>
1

>  <SlogP>
4.6311002

>  <SlogP_VSA0>
3.1243138

>  <SlogP_VSA1>
3.1243138

>  <SlogP_VSA2>
0

>  <SlogP_VSA3>
55.318733

>  <SlogP_VSA4>
4.4107962

>  <SlogP_VSA5>
35.998657

>  <SlogP_VSA6>
0

>  <SlogP_VSA7>
141.14548

>  <SlogP_VSA8>
37.736813

>  <SlogP_VSA9>
37.733036

>  <SMR>
9.4235001

>  <SMR_VSA0>
0

>  <SMR_VSA1>
3.1243138

>  <SMR_VSA2>
10.636578

>  <SMR_VSA3>
0

>  <SMR_VSA4>
5.513495

>  <SMR_VSA5>
178.88228

>  <SMR_VSA6>
55.318733

>  <SMR_VSA7>
65.11673

>  <TPSA>
6.48

>  <VAdjEq>
0.47938794

>  <VAdjMa>
5.643856

>  <VDistEq>
3.0298119

>  <VDistMa>
8.6543236

>  <vdw_area>
313.62494

>  <vdw_vol>
445.2446

>  <vsa_acc>
0

>  <vsa_acid>
0

>  <vsa_base>
0

>  <vsa_don>
0

>  <vsa_hyd>
296.62039

>  <vsa_other>
0

>  <vsa_pol>
0

>  <Weight>
310.465

>  <weinerPath>
982

>  <weinerPol>
36

>  <zagreb>
120

$$$$