O=C(N)C(CCN(C(C)C)C(C)C)(c1ccccc1)c1ncccc1
  MOE2013           2D

 25 26  0  0  1  0  0  0  0  0999 V2000
    0.0000    0.0000    0.0000 O   0  0  0  0  0  0  0  0  0  0  0  0
   -1.5000    0.0110    0.0000 C   0  0  0  0  0  0  0  0  0  0  0  0
   -2.2400    1.3150    0.0000 N   0  0  0  0  0  0  0  0  0  0  0  0
   -2.2590   -1.2830    0.0000 C   0  0  3  0  0  0  0  0  0  0  0  0
   -0.9660   -2.0420    0.0000 C   0  0  0  0  0  0  0  0  0  0  0  0
    0.3390   -1.3020    0.0000 C   0  0  0  0  0  0  0  0  0  0  0  0
    1.6320   -2.0610    0.0000 N   0  0  0  0  0  0  0  0  0  0  0  0
    1.6210   -3.5610    0.0000 C   0  0  0  0  0  0  0  0  0  0  0  0
    0.3170   -4.3010    0.0000 C   0  0  0  0  0  0  0  0  0  0  0  0
    2.9150   -4.3200    0.0000 C   0  0  0  0  0  0  0  0  0  0  0  0
    2.9370   -1.3200    0.0000 C   0  0  0  0  0  0  0  0  0  0  0  0
    4.2300   -2.0800    0.0000 C   0  0  0  0  0  0  0  0  0  0  0  0
    2.9480    0.1790    0.0000 C   0  0  0  0  0  0  0  0  0  0  0  0
   -3.5530   -0.5230    0.0000 C   0  0  0  0  0  0  0  0  0  0  0  0
   -3.5420    0.9770    0.0000 C   0  0  0  0  0  0  0  0  0  0  0  0
   -4.8360    1.7360    0.0000 C   0  0  0  0  0  0  0  0  0  0  0  0
   -6.1400    0.9960    0.0000 C   0  0  0  0  0  0  0  0  0  0  0  0
   -6.1510   -0.5040    0.0000 C   0  0  0  0  0  0  0  0  0  0  0  0
   -4.8570   -1.2640    0.0000 C   0  0  0  0  0  0  0  0  0  0  0  0
   -3.0190   -2.5760    0.0000 C   0  0  0  0  0  0  0  0  0  0  0  0
   -2.2780   -3.8810    0.0000 N   0  0  0  0  0  0  0  0  0  0  0  0
   -3.0380   -5.1740    0.0000 C   0  0  0  0  0  0  0  0  0  0  0  0
   -4.5380   -5.1630    0.0000 C   0  0  0  0  0  0  0  0  0  0  0  0
   -5.2780   -3.8590    0.0000 C   0  0  0  0  0  0  0  0  0  0  0  0
   -4.5190   -2.5650    0.0000 C   0  0  0  0  0  0  0  0  0  0  0  0
  1  2  2  0  0  0  0
  2  3  1  0  0  0  0
  2  4  1  0  0  0  0
  4  5  1  0  0  0  0
  4 14  1  0  0  0  0
  4 20  1  0  0  0  0
  5  6  1  0  0  0  0
  6  7  1  0  0  0  0
  7  8  1  0  0  0  0
  7 11  1  0  0  0  0
  8  9  1  0  0  0  0
  8 10  1  0  0  0  0
 11 12  1  0  0  0  0
 11 13  1  0  0  0  0
 14 15  1  0  0  0  0
 14 19  2  0  0  0  0
 15 16  2  0  0  0  0
 16 17  1  0  0  0  0
 17 18  2  0  0  0  0
 18 19  1  0  0  0  0
 20 21  1  0  0  0  0
 20 25  2  0  0  0  0
 21 22  2  0  0  0  0
 22 23  1  0  0  0  0
 23 24  2  0  0  0  0
 24 25  1  0  0  0  0
M  END
>  <Index>
1535

>  <ID>
HT0696

>  <class>
1

>  <apol>
60.398998

>  <ast_fraglike>
0

>  <ast_fraglike_ext>
0

>  <ast_violation>
2

>  <ast_violation_ext>
3

>  <a_acc>
3

>  <a_acid>
0

>  <a_aro>
12

>  <a_base>
0

>  <a_count>
54

>  <a_don>
1

>  <a_donacc>
4

>  <a_heavy>
25

>  <a_hyd>
20

>  <a_IC>
72.888924

>  <a_ICM>
1.3497949

>  <a_nB>
0

>  <a_nBr>
0

>  <a_nC>
21

>  <a_nCl>
0

>  <a_nF>
0

>  <a_nH>
29

>  <a_nI>
0

>  <a_nN>
3

>  <a_nO>
1

>  <a_nP>
0

>  <a_nS>
0

>  <balabanJ>
2.2512052

>  <BCUT_PEOE_0>
-2.758599

>  <BCUT_PEOE_1>
-0.53910816

>  <BCUT_PEOE_2>
0.59138948

>  <BCUT_PEOE_3>
2.6853554

>  <BCUT_SLOGP_0>
-2.8015347

>  <BCUT_SLOGP_1>
-0.45699534

>  <BCUT_SLOGP_2>
0.67733204

>  <BCUT_SLOGP_3>
2.6693158

>  <BCUT_SMR_0>
-2.4827724

>  <BCUT_SMR_1>
-0.39909521

>  <BCUT_SMR_2>
0.72936165

>  <BCUT_SMR_3>
2.9491789

>  <bpol>
35.301003

>  <b_1rotN>
8

>  <b_1rotR>
0.30769232

>  <b_ar>
12

>  <b_count>
55

>  <b_double>
1

>  <b_heavy>
26

>  <b_max1len>
7

>  <b_rotN>
8

>  <b_rotR>
0.30769232

>  <b_single>
42

>  <b_triple>
0

>  <chi0>
18.449383

>  <chi0v>
15.645092

>  <chi0v_C>
13.765066

>  <chi0_C>
15.164926

>  <chi1>
11.891588

>  <chi1v>
8.9195433

>  <chi1v_C>
7.1123133

>  <chi1_C>
8.7537251

>  <chiral>
1

>  <chiral_u>
1

>  <density>
0.66200143

>  <diameter>
9

>  <FCharge>
0

>  <GCUT_PEOE_0>
-0.85769999

>  <GCUT_PEOE_1>
-0.36223903

>  <GCUT_PEOE_2>
0.061872017

>  <GCUT_PEOE_3>
2.8877771

>  <GCUT_SLOGP_0>
-1.3706976

>  <GCUT_SLOGP_1>
-0.25720671

>  <GCUT_SLOGP_2>
0.13706793

>  <GCUT_SLOGP_3>
2.9173539

>  <GCUT_SMR_0>
-0.52523828

>  <GCUT_SMR_1>
-0.1944183

>  <GCUT_SMR_2>
0.16307327

>  <GCUT_SMR_3>
3.1389434

>  <Kier1>
21.301775

>  <Kier2>
9.7962961

>  <Kier3>
5.0416665

>  <KierA1>
16.31303

>  <KierA2>
7.4126258

>  <KierA3>
3.7806873

>  <KierFlex>
4.8368955

>  <lip_acc>
4

>  <lip_don>
2

>  <lip_druglike>
1

>  <lip_violation>
0

>  <logP(o/w)>
3.7290001

>  <logS>
-3.51877

>  <mr>
10.353694

>  <mutagenic>
0

>  <nmol>
1

>  <opr_brigid>
12

>  <opr_leadlike>
1

>  <opr_nring>
2

>  <opr_nrot>
8

>  <opr_violation>
0

>  <PC+>
0

>  <PC->
0

>  <PEOE_PC+>
1.8787599

>  <PEOE_PC->
-1.8787599

>  <PEOE_RPC+>
0.12501636

>  <PEOE_RPC->
0.19629297

>  <PEOE_VSA+0>
113.00711

>  <PEOE_VSA+1>
45.088024

>  <PEOE_VSA+2>
0

>  <PEOE_VSA+3>
17.238026

>  <PEOE_VSA+4>
12.949531

>  <PEOE_VSA+5>
0

>  <PEOE_VSA+6>
0

>  <PEOE_VSA-0>
110.41037

>  <PEOE_VSA-1>
73.529427

>  <PEOE_VSA-2>
0

>  <PEOE_VSA-3>
0

>  <PEOE_VSA-4>
0

>  <PEOE_VSA-5>
19.249496

>  <PEOE_VSA-6>
6.6511192

>  <PEOE_VSA_FHYD>
0.90241677

>  <PEOE_VSA_FNEG>
0.52707416

>  <PEOE_VSA_FPNEG>
0.065056801

>  <PEOE_VSA_FPOL>
0.097583249

>  <PEOE_VSA_FPOS>
0.47292581

>  <PEOE_VSA_FPPOS>
0.032526448

>  <PEOE_VSA_HYD>
359.27295

>  <PEOE_VSA_NEG>
209.84041

>  <PEOE_VSA_PNEG>
25.900616

>  <PEOE_VSA_POL>
38.850147

>  <PEOE_VSA_POS>
188.28268

>  <PEOE_VSA_PPOS>
12.949531

>  <petitjean>
0.44444445

>  <petitjeanSC>
0.80000001

>  <Q_PC+>
0

>  <Q_PC->
0

>  <Q_RPC+>
0

>  <Q_RPC->
0

>  <Q_VSA_FHYD>
1

>  <Q_VSA_FNEG>
0

>  <Q_VSA_FPNEG>
0

>  <Q_VSA_FPOL>
0

>  <Q_VSA_FPOS>
1

>  <Q_VSA_FPPOS>
0

>  <Q_VSA_HYD>
398.12311

>  <Q_VSA_NEG>
0

>  <Q_VSA_PNEG>
0

>  <Q_VSA_POL>
0

>  <Q_VSA_POS>
398.12311

>  <Q_VSA_PPOS>
0

>  <radius>
5

>  <reactive>
0

>  <rings>
2

>  <RPC+>
0

>  <RPC->
0

>  <rsynth>
1

>  <SlogP>
3.3619001

>  <SlogP_VSA0>
32.897186

>  <SlogP_VSA1>
25.168627

>  <SlogP_VSA2>
31.826153

>  <SlogP_VSA3>
18.439579

>  <SlogP_VSA4>
5.9423227

>  <SlogP_VSA5>
0

>  <SlogP_VSA6>
0

>  <SlogP_VSA7>
158.35983

>  <SlogP_VSA8>
18.868406

>  <SlogP_VSA9>
133.30406

>  <SMR>
10.22484

>  <SMR_VSA0>
23.862217

>  <SMR_VSA1>
19.909843

>  <SMR_VSA2>
0

>  <SMR_VSA3>
13.90626

>  <SMR_VSA4>
32.897186

>  <SMR_VSA5>
177.22824

>  <SMR_VSA6>
23.698362

>  <SMR_VSA7>
133.30406

>  <TPSA>
59.220001

>  <VAdjEq>
0.41335541

>  <VAdjMa>
5.7004399

>  <VDistEq>
3.0603054

>  <VDistMa>
9.0534706

>  <vdw_area>
398.12311

>  <vdw_vol>
512.81311

>  <vsa_acc>
19.249496

>  <vsa_acid>
0

>  <vsa_base>
0

>  <vsa_don>
17.742489

>  <vsa_hyd>
322.81647

>  <vsa_other>
12.949531

>  <vsa_pol>
36.991985

>  <Weight>
339.483

>  <weinerPath>
1372

>  <weinerPol>
42

>  <zagreb>
124

$$$$