O(C(c1ccccc1)c1ccccc1)C1CCN(CC1)C
  MOE2013           2D

 21 23  0  0  0  0  0  0  0  0999 V2000
    0.0000    0.0000    0.0000 O   0  0  0  0  0  0  0  0  0  0  0  0
   -0.7560   -1.2960    0.0000 C   0  0  0  0  0  0  0  0  0  0  0  0
   -0.0110   -2.5980    0.0000 C   0  0  0  0  0  0  0  0  0  0  0  0
    1.4890   -2.6050    0.0000 C   0  0  0  0  0  0  0  0  0  0  0  0
    2.2330   -3.9070    0.0000 C   0  0  0  0  0  0  0  0  0  0  0  0
    1.4780   -5.2030    0.0000 C   0  0  0  0  0  0  0  0  0  0  0  0
   -0.0220   -5.1960    0.0000 C   0  0  0  0  0  0  0  0  0  0  0  0
   -0.7670   -3.8940    0.0000 C   0  0  0  0  0  0  0  0  0  0  0  0
   -2.2560   -1.2890    0.0000 C   0  0  0  0  0  0  0  0  0  0  0  0
   -3.0000    0.0130    0.0000 C   0  0  0  0  0  0  0  0  0  0  0  0
   -4.5000    0.0190    0.0000 C   0  0  0  0  0  0  0  0  0  0  0  0
   -5.2560   -1.2760    0.0000 C   0  0  0  0  0  0  0  0  0  0  0  0
   -4.5110   -2.5790    0.0000 C   0  0  0  0  0  0  0  0  0  0  0  0
   -3.0110   -2.5850    0.0000 C   0  0  0  0  0  0  0  0  0  0  0  0
    1.5000   -0.0060    0.0000 C   0  0  0  0  0  0  0  0  0  0  0  0
    2.2560    1.2890    0.0000 C   0  0  0  0  0  0  0  0  0  0  0  0
    3.7560    1.2830    0.0000 C   0  0  0  0  0  0  0  0  0  0  0  0
    4.5000   -0.0190    0.0000 N   0  0  0  0  0  0  0  0  0  0  0  0
    3.7440   -1.3150    0.0000 C   0  0  0  0  0  0  0  0  0  0  0  0
    2.2440   -1.3090    0.0000 C   0  0  0  0  0  0  0  0  0  0  0  0
    6.0000   -0.0260    0.0000 C   0  0  0  0  0  0  0  0  0  0  0  0
  1  2  1  0  0  0  0
  1 15  1  0  0  0  0
  2  3  1  0  0  0  0
  2  9  1  0  0  0  0
  3  4  1  0  0  0  0
  3  8  2  0  0  0  0
  4  5  2  0  0  0  0
  5  6  1  0  0  0  0
  6  7  2  0  0  0  0
  7  8  1  0  0  0  0
  9 10  1  0  0  0  0
  9 14  2  0  0  0  0
 10 11  2  0  0  0  0
 11 12  1  0  0  0  0
 12 13  2  0  0  0  0
 13 14  1  0  0  0  0
 15 16  1  0  0  0  0
 15 20  1  0  0  0  0
 16 17  1  0  0  0  0
 17 18  1  0  0  0  0
 18 19  1  0  0  0  0
 18 21  1  0  0  0  0
 19 20  1  0  0  0  0
M  END
>  <Index>
1533

>  <ID>
HT0691

>  <class>
1

>  <apol>
50.678238

>  <ast_fraglike>
0

>  <ast_fraglike_ext>
0

>  <ast_violation>
1

>  <ast_violation_ext>
2

>  <a_acc>
2

>  <a_acid>
0

>  <a_aro>
12

>  <a_base>
0

>  <a_count>
44

>  <a_don>
0

>  <a_donacc>
2

>  <a_heavy>
21

>  <a_hyd>
19

>  <a_IC>
55.462444

>  <a_ICM>
1.2605101

>  <a_nB>
0

>  <a_nBr>
0

>  <a_nC>
19

>  <a_nCl>
0

>  <a_nF>
0

>  <a_nH>
23

>  <a_nI>
0

>  <a_nN>
1

>  <a_nO>
1

>  <a_nP>
0

>  <a_nS>
0

>  <balabanJ>
1.6011854

>  <BCUT_PEOE_0>
-2.7726443

>  <BCUT_PEOE_1>
-0.60728818

>  <BCUT_PEOE_2>
0.66088349

>  <BCUT_PEOE_3>
2.7115705

>  <BCUT_SLOGP_0>
-2.8121684

>  <BCUT_SLOGP_1>
-0.49974763

>  <BCUT_SLOGP_2>
0.76588798

>  <BCUT_SLOGP_3>
2.703594

>  <BCUT_SMR_0>
-2.5115278

>  <BCUT_SMR_1>
-0.46479684

>  <BCUT_SMR_2>
0.81106061

>  <BCUT_SMR_3>
2.9633653

>  <bpol>
29.039761

>  <b_1rotN>
4

>  <b_1rotR>
0.17391305

>  <b_ar>
12

>  <b_count>
46

>  <b_double>
0

>  <b_heavy>
23

>  <b_max1len>
4

>  <b_rotN>
4

>  <b_rotR>
0.17391305

>  <b_single>
34

>  <b_triple>
0

>  <chi0>
14.493353

>  <chi0v>
12.612092

>  <chi0v_C>
11.75663

>  <chi0_C>
13.208896

>  <chi1>
10.3265

>  <chi1v>
7.7662878

>  <chi1v_C>
6.2152143

>  <chi1_C>
8.1161566

>  <chiral>
0

>  <chiral_u>
0

>  <density>
0.65515327

>  <diameter>
10

>  <FCharge>
0

>  <GCUT_PEOE_0>
-0.85973853

>  <GCUT_PEOE_1>
-0.37387004

>  <GCUT_PEOE_2>
0.072626002

>  <GCUT_PEOE_3>
2.7104478

>  <GCUT_SLOGP_0>
-0.95301276

>  <GCUT_SLOGP_1>
-0.26386139

>  <GCUT_SLOGP_2>
0.15580922

>  <GCUT_SLOGP_3>
2.7933431

>  <GCUT_SMR_0>
-0.52109843

>  <GCUT_SMR_1>
-0.20508878

>  <GCUT_SMR_2>
0.18149824

>  <GCUT_SMR_3>
2.9652183

>  <Kier1>
15.879017

>  <Kier2>
8.0222225

>  <Kier3>
4.4875345

>  <KierA1>
12.495752

>  <KierA2>
6.2317691

>  <KierA3>
3.4514163

>  <KierFlex>
3.7081261

>  <lip_acc>
2

>  <lip_don>
0

>  <lip_druglike>
1

>  <lip_violation>
0

>  <logP(o/w)>
4.4349999

>  <logS>
-3.71925

>  <mr>
8.7752628

>  <mutagenic>
0

>  <nmol>
1

>  <opr_brigid>
18

>  <opr_leadlike>
1

>  <opr_nring>
3

>  <opr_nrot>
6

>  <opr_violation>
0

>  <PC+>
0

>  <PC->
0

>  <PEOE_PC+>
1.3306574

>  <PEOE_PC->
-1.3306574

>  <PEOE_RPC+>
0.081909195

>  <PEOE_RPC->
0.27358004

>  <PEOE_VSA+0>
73.303894

>  <PEOE_VSA+1>
56.089561

>  <PEOE_VSA+2>
4.9049287

>  <PEOE_VSA+3>
0

>  <PEOE_VSA+4>
0

>  <PEOE_VSA+5>
0

>  <PEOE_VSA+6>
0

>  <PEOE_VSA-0>
45.058395

>  <PEOE_VSA-1>
122.54904

>  <PEOE_VSA-2>
0

>  <PEOE_VSA-3>
0

>  <PEOE_VSA-4>
0

>  <PEOE_VSA-5>
0

>  <PEOE_VSA-6>
2.503756

>  <PEOE_VSA_FHYD>
0.99177504

>  <PEOE_VSA_FNEG>
0.55882341

>  <PEOE_VSA_FPNEG>
0.0082249586

>  <PEOE_VSA_FPOL>
0.0082249586

>  <PEOE_VSA_FPOS>
0.44117662

>  <PEOE_VSA_FPPOS>
0

>  <PEOE_VSA_HYD>
301.90582

>  <PEOE_VSA_NEG>
170.11119

>  <PEOE_VSA_PNEG>
2.503756

>  <PEOE_VSA_POL>
2.503756

>  <PEOE_VSA_POS>
134.29839

>  <PEOE_VSA_PPOS>
0

>  <petitjean>
0.5

>  <petitjeanSC>
1

>  <Q_PC+>
0

>  <Q_PC->
0

>  <Q_RPC+>
0

>  <Q_RPC->
0

>  <Q_VSA_FHYD>
1

>  <Q_VSA_FNEG>
0

>  <Q_VSA_FPNEG>
0

>  <Q_VSA_FPOL>
0

>  <Q_VSA_FPOS>
1

>  <Q_VSA_FPPOS>
0

>  <Q_VSA_HYD>
304.40958

>  <Q_VSA_NEG>
0

>  <Q_VSA_PNEG>
0

>  <Q_VSA_POL>
0

>  <Q_VSA_POS>
304.40958

>  <Q_VSA_PPOS>
0

>  <radius>
5

>  <reactive>
0

>  <rings>
3

>  <RPC+>
0

>  <RPC->
0

>  <rsynth>
1

>  <SlogP>
3.9823

>  <SlogP_VSA0>
0

>  <SlogP_VSA1>
3.1243138

>  <SlogP_VSA2>
17.468536

>  <SlogP_VSA3>
36.879158

>  <SlogP_VSA4>
6.37115

>  <SlogP_VSA5>
32.897186

>  <SlogP_VSA6>
0

>  <SlogP_VSA7>
176.43184

>  <SlogP_VSA8>
44.20546

>  <SlogP_VSA9>
0

>  <SMR>
8.6442003

>  <SMR_VSA0>
10.999887

>  <SMR_VSA1>
3.1243138

>  <SMR_VSA2>
0

>  <SMR_VSA3>
19.308449

>  <SMR_VSA4>
0

>  <SMR_VSA5>
214.16866

>  <SMR_VSA6>
36.879158

>  <SMR_VSA7>
32.897186

>  <TPSA>
12.47

>  <VAdjEq>
0.48250595

>  <VAdjMa>
5.523562

>  <VDistEq>
3.1135185

>  <VDistMa>
8.510644

>  <vdw_area>
304.40958

>  <vdw_vol>
429.51627

>  <vsa_acc>
2.503756

>  <vsa_acid>
0

>  <vsa_base>
0

>  <vsa_don>
0

>  <vsa_hyd>
285.53452

>  <vsa_other>
0

>  <vsa_pol>
2.503756

>  <Weight>
281.39899

>  <weinerPath>
930

>  <weinerPol>
29

>  <zagreb>
106

$$$$