FC(F)(F)COc1ccc(OCC(F)(F)F)cc1C(=O)NCC1NCCCC1
  MOE2013           2D

 28 29  0  0  1  0  0  0  0  0999 V2000
    0.0000    0.0000    0.0000 F   0  0  0  0  0  0  0  0  0  0  0  0
   -0.7510   -1.2990    0.0000 C   0  0  0  0  0  0  0  0  0  0  0  0
    0.5480   -2.0490    0.0000 F   0  0  0  0  0  0  0  0  0  0  0  0
   -2.0490   -0.5480    0.0000 F   0  0  0  0  0  0  0  0  0  0  0  0
   -1.5010   -2.5970    0.0000 C   0  0  0  0  0  0  0  0  0  0  0  0
   -0.7520   -3.8970    0.0000 O   0  0  0  0  0  0  0  0  0  0  0  0
   -1.5020   -5.1950    0.0000 C   0  0  0  0  0  0  0  0  0  0  0  0
   -3.0020   -5.1950    0.0000 C   0  0  0  0  0  0  0  0  0  0  0  0
   -3.7530   -6.4940    0.0000 C   0  0  0  0  0  0  0  0  0  0  0  0
   -3.0030   -7.7930    0.0000 C   0  0  0  0  0  0  0  0  0  0  0  0
   -3.7540   -9.0920    0.0000 O   0  0  0  0  0  0  0  0  0  0  0  0
   -5.2540   -9.0910    0.0000 C   0  0  0  0  0  0  0  0  0  0  0  0
   -6.0050  -10.3900    0.0000 C   0  0  0  0  0  0  0  0  0  0  0  0
   -4.7060  -11.1400    0.0000 F   0  0  0  0  0  0  0  0  0  0  0  0
   -7.3030   -9.6390    0.0000 F   0  0  0  0  0  0  0  0  0  0  0  0
   -6.7550  -11.6880    0.0000 F   0  0  0  0  0  0  0  0  0  0  0  0
   -1.5030   -7.7940    0.0000 C   0  0  0  0  0  0  0  0  0  0  0  0
   -0.7530   -6.4950    0.0000 C   0  0  0  0  0  0  0  0  0  0  0  0
    0.7470   -6.4960    0.0000 C   0  0  0  0  0  0  0  0  0  0  0  0
    1.4980   -5.1970    0.0000 O   0  0  0  0  0  0  0  0  0  0  0  0
    1.4970   -7.7950    0.0000 N   0  0  0  0  0  0  0  0  0  0  0  0
    2.9970   -7.7960    0.0000 C   0  0  0  0  0  0  0  0  0  0  0  0
    3.7460   -9.0950    0.0000 C   0  0  3  0  0  0  0  0  0  0  0  0
    5.2460   -9.0960    0.0000 N   0  0  0  0  0  0  0  0  0  0  0  0
    5.9950  -10.3950    0.0000 C   0  0  0  0  0  0  0  0  0  0  0  0
    5.2450  -11.6940    0.0000 C   0  0  0  0  0  0  0  0  0  0  0  0
    3.7450  -11.6930    0.0000 C   0  0  0  0  0  0  0  0  0  0  0  0
    2.9950  -10.3940    0.0000 C   0  0  0  0  0  0  0  0  0  0  0  0
  1  2  1  0  0  0  0
  2  3  1  0  0  0  0
  2  4  1  0  0  0  0
  2  5  1  0  0  0  0
  5  6  1  0  0  0  0
  6  7  1  0  0  0  0
  7  8  1  0  0  0  0
  7 18  2  0  0  0  0
  8  9  2  0  0  0  0
  9 10  1  0  0  0  0
 10 11  1  0  0  0  0
 10 17  2  0  0  0  0
 11 12  1  0  0  0  0
 12 13  1  0  0  0  0
 13 14  1  0  0  0  0
 13 15  1  0  0  0  0
 13 16  1  0  0  0  0
 17 18  1  0  0  0  0
 18 19  1  0  0  0  0
 19 20  2  0  0  0  0
 19 21  1  0  0  0  0
 21 22  1  0  0  0  0
 22 23  1  0  0  0  0
 23 24  1  0  0  0  0
 23 28  1  0  0  0  0
 24 25  1  0  0  0  0
 25 26  1  0  0  0  0
 26 27  1  0  0  0  0
 27 28  1  0  0  0  0
M  END
>  <Index>
1568

>  <ID>
HT0880

>  <class>
1

>  <apol>
51.203861

>  <ast_fraglike>
0

>  <ast_fraglike_ext>
0

>  <ast_violation>
3

>  <ast_violation_ext>
4

>  <a_acc>
4

>  <a_acid>
0

>  <a_aro>
6

>  <a_base>
0

>  <a_count>
48

>  <a_don>
2

>  <a_donacc>
6

>  <a_heavy>
28

>  <a_hyd>
22

>  <a_IC>
89.888107

>  <a_ICM>
1.8726689

>  <a_nB>
0

>  <a_nBr>
0

>  <a_nC>
17

>  <a_nCl>
0

>  <a_nF>
6

>  <a_nH>
20

>  <a_nI>
0

>  <a_nN>
2

>  <a_nO>
3

>  <a_nP>
0

>  <a_nS>
0

>  <balabanJ>
1.9158949

>  <BCUT_PEOE_0>
-2.7775674

>  <BCUT_PEOE_1>
-0.52629071

>  <BCUT_PEOE_2>
0.52424741

>  <BCUT_PEOE_3>
2.7051888

>  <BCUT_SLOGP_0>
-2.8799148

>  <BCUT_SLOGP_1>
-0.47683257

>  <BCUT_SLOGP_2>
0.59053081

>  <BCUT_SLOGP_3>
2.7257116

>  <BCUT_SMR_0>
-2.5093691

>  <BCUT_SMR_1>
-0.362849

>  <BCUT_SMR_2>
0.66479027

>  <BCUT_SMR_3>
2.9684591

>  <bpol>
35.192139

>  <b_1rotN>
7

>  <b_1rotR>
0.24137931

>  <b_ar>
6

>  <b_count>
49

>  <b_double>
1

>  <b_heavy>
29

>  <b_max1len>
4

>  <b_rotN>
10

>  <b_rotR>
0.34482759

>  <b_single>
42

>  <b_triple>
0

>  <chi0>
20.786245

>  <chi0v>
14.75168

>  <chi0v_C>
10.259149

>  <chi0_C>
10.957819

>  <chi1>
13.033607

>  <chi1v>
8.5810356

>  <chi1v_C>
5.0116372

>  <chi1_C>
5.8232632

>  <chiral>
1

>  <chiral_u>
1

>  <density>
0.90542859

>  <diameter>
13

>  <FCharge>
0

>  <GCUT_PEOE_0>
-0.84335816

>  <GCUT_PEOE_1>
-0.37978727

>  <GCUT_PEOE_2>
0.026129251

>  <GCUT_PEOE_3>
2.6413703

>  <GCUT_SLOGP_0>
-1.161651

>  <GCUT_SLOGP_1>
-0.33014596

>  <GCUT_SLOGP_2>
0.26019999

>  <GCUT_SLOGP_3>
2.6636271

>  <GCUT_SMR_0>
-0.52285421

>  <GCUT_SMR_1>
-0.19867469

>  <GCUT_SMR_2>
0.13790955

>  <GCUT_SMR_3>
2.8797474

>  <Kier1>
24.271107

>  <Kier2>
10.857822

>  <Kier3>
9.5804987

>  <KierA1>
20.245401

>  <KierA2>
8.9927111

>  <KierA3>
7.8947363

>  <KierFlex>
6.5021801

>  <lip_acc>
5

>  <lip_don>
2

>  <lip_druglike>
1

>  <lip_violation>
0

>  <logP(o/w)>
3.38152

>  <logS>
-4.31884

>  <mr>
8.9499588

>  <mutagenic>
0

>  <nmol>
1

>  <opr_brigid>
12

>  <opr_leadlike>
1

>  <opr_nring>
2

>  <opr_nrot>
9

>  <opr_violation>
0

>  <PC+>
0

>  <PC->
0

>  <PEOE_PC+>
2.8145132

>  <PEOE_PC->
-2.8145132

>  <PEOE_RPC+>
0.14682846

>  <PEOE_RPC->
0.12450746

>  <PEOE_VSA+0>
54.726761

>  <PEOE_VSA+1>
57.514053

>  <PEOE_VSA+2>
38.521599

>  <PEOE_VSA+3>
8.6190128

>  <PEOE_VSA+4>
0

>  <PEOE_VSA+5>
12.949531

>  <PEOE_VSA+6>
18.091003

>  <PEOE_VSA-0>
67.359665

>  <PEOE_VSA-1>
8.701313

>  <PEOE_VSA-2>
0

>  <PEOE_VSA-3>
71.451813

>  <PEOE_VSA-4>
0

>  <PEOE_VSA-5>
13.566921

>  <PEOE_VSA-6>
5.2812943

>  <PEOE_VSA_FHYD>
0.8601706

>  <PEOE_VSA_FNEG>
0.4662807

>  <PEOE_VSA_FPNEG>
0.052828237

>  <PEOE_VSA_FPOL>
0.13982941

>  <PEOE_VSA_FPOS>
0.5337193

>  <PEOE_VSA_FPPOS>
0.087001167

>  <PEOE_VSA_HYD>
306.89423

>  <PEOE_VSA_NEG>
166.36101

>  <PEOE_VSA_PNEG>
18.848215

>  <PEOE_VSA_POL>
49.888752

>  <PEOE_VSA_POS>
190.42197

>  <PEOE_VSA_PPOS>
31.040535

>  <petitjean>
0.46153846

>  <petitjeanSC>
0.85714287

>  <Q_PC+>
0

>  <Q_PC->
0

>  <Q_RPC+>
0

>  <Q_RPC->
0

>  <Q_VSA_FHYD>
1

>  <Q_VSA_FNEG>
0

>  <Q_VSA_FPNEG>
0

>  <Q_VSA_FPOL>
0

>  <Q_VSA_FPOS>
1

>  <Q_VSA_FPPOS>
0

>  <Q_VSA_HYD>
356.78296

>  <Q_VSA_NEG>
0

>  <Q_VSA_PNEG>
0

>  <Q_VSA_POL>
0

>  <Q_VSA_POS>
356.78296

>  <Q_VSA_PPOS>
0

>  <radius>
7

>  <reactive>
0

>  <rings>
2

>  <RPC+>
0

>  <RPC->
0

>  <rsynth>
1

>  <SlogP>
3.4407001

>  <SlogP_VSA0>
58.021278

>  <SlogP_VSA1>
20.777815

>  <SlogP_VSA2>
3.9819686

>  <SlogP_VSA3>
78.731674

>  <SlogP_VSA4>
27.047791

>  <SlogP_VSA5>
0

>  <SlogP_VSA6>
0

>  <SlogP_VSA7>
52.929554

>  <SlogP_VSA8>
56.605217

>  <SlogP_VSA9>
100.24754

>  <SMR>
8.7516899

>  <SMR_VSA0>
23.862217

>  <SMR_VSA1>
111.76045

>  <SMR_VSA2>
51.540535

>  <SMR_VSA3>
17.6544

>  <SMR_VSA4>
0

>  <SMR_VSA5>
109.53477

>  <SMR_VSA6>
83.990456

>  <SMR_VSA7>
0

>  <TPSA>
59.59

>  <VAdjEq>
0.38060221

>  <VAdjMa>
5.8579812

>  <VDistEq>
3.561955

>  <VDistMa>
9.3376751

>  <vdw_area>
356.78296

>  <vdw_vol>
457.62415

>  <vsa_acc>
18.574432

>  <vsa_acid>
0

>  <vsa_base>
0

>  <vsa_don>
5.6825762

>  <vsa_hyd>
294.93488

>  <vsa_other>
12.949531

>  <vsa_pol>
29.939585

>  <Weight>
414.34598

>  <weinerPath>
2232

>  <weinerPol>
36

>  <zagreb>
140

$$$$