S1c2c(N(c3c1cccc3)CCCN1CCN(CC1)CCOC(=O)CCCCCCCCC)cc(cc2)C(F)(F)F
  MOE2013           2D

 41 44  0  0  1  0  0  0  0  0999 V2000
    0.0000    0.0000    0.0000 S   0  0  0  0  0  0  0  0  0  0  0  0
    0.0010    1.5000    0.0000 C   0  0  0  0  0  0  0  0  0  0  0  0
    1.3000    2.2490    0.0000 C   0  0  0  0  0  0  0  0  0  0  0  0
    2.5990    1.4980    0.0000 N   0  0  3  0  0  0  0  0  0  0  0  0
    2.5980   -0.0020    0.0000 C   0  0  0  0  0  0  0  0  0  0  0  0
    1.2990   -0.7510    0.0000 C   0  0  0  0  0  0  0  0  0  0  0  0
    1.2980   -2.2510    0.0000 C   0  0  0  0  0  0  0  0  0  0  0  0
    2.5960   -3.0020    0.0000 C   0  0  0  0  0  0  0  0  0  0  0  0
    3.8960   -2.2520    0.0000 C   0  0  0  0  0  0  0  0  0  0  0  0
    3.8970   -0.7520    0.0000 C   0  0  0  0  0  0  0  0  0  0  0  0
    3.8980    2.2480    0.0000 C   0  0  0  0  0  0  0  0  0  0  0  0
    5.1970    1.4970    0.0000 C   0  0  0  0  0  0  0  0  0  0  0  0
    6.4970    2.2460    0.0000 C   0  0  0  0  0  0  0  0  0  0  0  0
    7.7950    1.4950    0.0000 N   0  0  0  0  0  0  0  0  0  0  0  0
    9.0950    2.2440    0.0000 C   0  0  0  0  0  0  0  0  0  0  0  0
   10.3930    1.4940    0.0000 C   0  0  0  0  0  0  0  0  0  0  0  0
   10.3920   -0.0060    0.0000 N   0  0  0  0  0  0  0  0  0  0  0  0
    9.0930   -0.7560    0.0000 C   0  0  0  0  0  0  0  0  0  0  0  0
    7.7940   -0.0050    0.0000 C   0  0  0  0  0  0  0  0  0  0  0  0
   11.6910   -0.7570    0.0000 C   0  0  0  0  0  0  0  0  0  0  0  0
   12.9900   -0.0080    0.0000 C   0  0  0  0  0  0  0  0  0  0  0  0
   14.2890   -0.7590    0.0000 O   0  0  0  0  0  0  0  0  0  0  0  0
   15.5880   -0.0100    0.0000 C   0  0  0  0  0  0  0  0  0  0  0  0
   15.5890    1.4900    0.0000 O   0  0  0  0  0  0  0  0  0  0  0  0
   16.8870   -0.7600    0.0000 C   0  0  0  0  0  0  0  0  0  0  0  0
   18.1870   -0.0110    0.0000 C   0  0  0  0  0  0  0  0  0  0  0  0
   19.4850   -0.7620    0.0000 C   0  0  0  0  0  0  0  0  0  0  0  0
   20.7850   -0.0130    0.0000 C   0  0  0  0  0  0  0  0  0  0  0  0
   22.0830   -0.7630    0.0000 C   0  0  0  0  0  0  0  0  0  0  0  0
   23.3830   -0.0140    0.0000 C   0  0  0  0  0  0  0  0  0  0  0  0
   24.6810   -0.7650    0.0000 C   0  0  0  0  0  0  0  0  0  0  0  0
   25.9810   -0.0160    0.0000 C   0  0  0  0  0  0  0  0  0  0  0  0
   27.2790   -0.7670    0.0000 C   0  0  0  0  0  0  0  0  0  0  0  0
    1.3010    3.7490    0.0000 C   0  0  0  0  0  0  0  0  0  0  0  0
    0.0030    4.5000    0.0000 C   0  0  0  0  0  0  0  0  0  0  0  0
   -1.2970    3.7510    0.0000 C   0  0  0  0  0  0  0  0  0  0  0  0
   -1.2980    2.2510    0.0000 C   0  0  0  0  0  0  0  0  0  0  0  0
    0.0040    6.0000    0.0000 C   0  0  0  0  0  0  0  0  0  0  0  0
    0.0050    7.5000    0.0000 F   0  0  0  0  0  0  0  0  0  0  0  0
    1.5040    5.9990    0.0000 F   0  0  0  0  0  0  0  0  0  0  0  0
   -1.4960    6.0010    0.0000 F   0  0  0  0  0  0  0  0  0  0  0  0
  1  2  1  0  0  0  0
  1  6  1  0  0  0  0
  2  3  1  0  0  0  0
  2 37  2  0  0  0  0
  3  4  1  0  0  0  0
  3 34  2  0  0  0  0
  4  5  1  0  0  0  0
  4 11  1  0  0  0  0
  5  6  1  0  0  0  0
  5 10  2  0  0  0  0
  6  7  2  0  0  0  0
  7  8  1  0  0  0  0
  8  9  2  0  0  0  0
  9 10  1  0  0  0  0
 11 12  1  0  0  0  0
 12 13  1  0  0  0  0
 13 14  1  0  0  0  0
 14 15  1  0  0  0  0
 14 19  1  0  0  0  0
 15 16  1  0  0  0  0
 16 17  1  0  0  0  0
 17 18  1  0  0  0  0
 17 20  1  0  0  0  0
 18 19  1  0  0  0  0
 20 21  1  0  0  0  0
 21 22  1  0  0  0  0
 22 23  1  0  0  0  0
 23 24  2  0  0  0  0
 23 25  1  0  0  0  0
 25 26  1  0  0  0  0
 26 27  1  0  0  0  0
 27 28  1  0  0  0  0
 28 29  1  0  0  0  0
 29 30  1  0  0  0  0
 30 31  1  0  0  0  0
 31 32  1  0  0  0  0
 32 33  1  0  0  0  0
 34 35  1  0  0  0  0
 35 36  2  0  0  0  0
 35 38  1  0  0  0  0
 36 37  1  0  0  0  0
 38 39  1  0  0  0  0
 38 40  1  0  0  0  0
 38 41  1  0  0  0  0
M  END
>  <Index>
1574

>  <ID>
HT0913

>  <class>
1

>  <apol>
95.133888

>  <ast_fraglike>
0

>  <ast_fraglike_ext>
0

>  <ast_violation>
2

>  <ast_violation_ext>
3

>  <a_acc>
3

>  <a_acid>
0

>  <a_aro>
12

>  <a_base>
0

>  <a_count>
85

>  <a_don>
0

>  <a_donacc>
3

>  <a_heavy>
41

>  <a_hyd>
35

>  <a_IC>
133.07346

>  <a_ICM>
1.5655701

>  <a_nB>
0

>  <a_nBr>
0

>  <a_nC>
32

>  <a_nCl>
0

>  <a_nF>
3

>  <a_nH>
44

>  <a_nI>
0

>  <a_nN>
3

>  <a_nO>
2

>  <a_nP>
0

>  <a_nS>
1

>  <balabanJ>
1.1080594

>  <BCUT_PEOE_0>
-2.7987714

>  <BCUT_PEOE_1>
-0.50582576

>  <BCUT_PEOE_2>
0.55573082

>  <BCUT_PEOE_3>
2.6966228

>  <BCUT_SLOGP_0>
-2.9125166

>  <BCUT_SLOGP_1>
-0.39691934

>  <BCUT_SLOGP_2>
0.67206955

>  <BCUT_SLOGP_3>
2.8102944

>  <BCUT_SMR_0>
-2.5153263

>  <BCUT_SMR_1>
-0.32947645

>  <BCUT_SMR_2>
0.71008939

>  <BCUT_SMR_3>
2.9711709

>  <bpol>
62.804108

>  <b_1rotN>
15

>  <b_1rotR>
0.34090909

>  <b_ar>
12

>  <b_count>
88

>  <b_double>
1

>  <b_heavy>
44

>  <b_max1len>
10

>  <b_rotN>
17

>  <b_rotR>
0.38636363

>  <b_single>
75

>  <b_triple>
0

>  <chi0>
29.080929

>  <chi0v>
25.079042

>  <chi0v_C>
20.562267

>  <chi0_C>
21.934664

>  <chi1>
19.846687

>  <chi1v>
16.025467

>  <chi1v_C>
10.876044

>  <chi1_C>
12.520186

>  <chiral>
0

>  <chiral_u>
0

>  <density>
0.73788977

>  <diameter>
25

>  <FCharge>
0

>  <GCUT_PEOE_0>
-0.85810608

>  <GCUT_PEOE_1>
-0.3842847

>  <GCUT_PEOE_2>
-0.027877742

>  <GCUT_PEOE_3>
2.9084396

>  <GCUT_SLOGP_0>
-0.96558428

>  <GCUT_SLOGP_1>
-0.27808696

>  <GCUT_SLOGP_2>
0.15809712

>  <GCUT_SLOGP_3>
2.9729128

>  <GCUT_SMR_0>
-0.53241551

>  <GCUT_SMR_1>
-0.16272588

>  <GCUT_SMR_2>
0.15822896

>  <GCUT_SMR_3>
3.1660933

>  <Kier1>
33.884296

>  <Kier2>
17.477736

>  <Kier3>
10.838806

>  <KierA1>
29.762299

>  <KierA2>
15.299891

>  <KierA3>
9.4653807

>  <KierFlex>
11.106339

>  <lip_acc>
5

>  <lip_don>
0

>  <lip_druglike>
0

>  <lip_violation>
2

>  <logP(o/w)>
7.95576

>  <logS>
-9.1669798

>  <mr>
16.303129

>  <mutagenic>
0

>  <nmol>
1

>  <opr_brigid>
22

>  <opr_leadlike>
0

>  <opr_nring>
4

>  <opr_nrot>
17

>  <opr_violation>
3

>  <PC+>
0

>  <PC->
0

>  <PEOE_PC+>
2.7948768

>  <PEOE_PC->
-2.7948768

>  <PEOE_RPC+>
0.14936987

>  <PEOE_RPC->
0.11231936

>  <PEOE_VSA+0>
272.1044

>  <PEOE_VSA+1>
55.548306

>  <PEOE_VSA+2>
0

>  <PEOE_VSA+3>
0

>  <PEOE_VSA+4>
0

>  <PEOE_VSA+5>
14.708499

>  <PEOE_VSA+6>
9.0455017

>  <PEOE_VSA-0>
78.677147

>  <PEOE_VSA-1>
115.22598

>  <PEOE_VSA-2>
0

>  <PEOE_VSA-3>
35.725906

>  <PEOE_VSA-4>
0

>  <PEOE_VSA-5>
13.566921

>  <PEOE_VSA-6>
2.503756

>  <PEOE_VSA_FHYD>
0.93330389

>  <PEOE_VSA_FNEG>
0.41148394

>  <PEOE_VSA_FPNEG>
0.026914259

>  <PEOE_VSA_FPOL>
0.066696115

>  <PEOE_VSA_FPOS>
0.58851606

>  <PEOE_VSA_FPPOS>
0.039781854

>  <PEOE_VSA_HYD>
557.28174

>  <PEOE_VSA_NEG>
245.69971

>  <PEOE_VSA_PNEG>
16.070677

>  <PEOE_VSA_POL>
39.824677

>  <PEOE_VSA_POS>
351.40671

>  <PEOE_VSA_PPOS>
23.754002

>  <petitjean>
0.47999999

>  <petitjeanSC>
0.92307693

>  <Q_PC+>
0

>  <Q_PC->
0

>  <Q_RPC+>
0

>  <Q_RPC->
0

>  <Q_VSA_FHYD>
1

>  <Q_VSA_FNEG>
0

>  <Q_VSA_FPNEG>
0

>  <Q_VSA_FPOL>
0

>  <Q_VSA_FPOS>
1

>  <Q_VSA_FPPOS>
0

>  <Q_VSA_HYD>
597.10645

>  <Q_VSA_NEG>
0

>  <Q_VSA_PNEG>
0

>  <Q_VSA_POL>
0

>  <Q_VSA_POS>
597.10645

>  <Q_VSA_PPOS>
0

>  <radius>
13

>  <reactive>
0

>  <rings>
4

>  <RPC+>
0

>  <RPC->
0

>  <rsynth>
1

>  <SlogP>
8.3112001

>  <SlogP_VSA0>
3.1243138

>  <SlogP_VSA1>
13.994092

>  <SlogP_VSA2>
34.862103

>  <SlogP_VSA3>
150.00331

>  <SlogP_VSA4>
3.185575

>  <SlogP_VSA5>
3.1014678

>  <SlogP_VSA6>
7.7595162

>  <SlogP_VSA7>
123.50229

>  <SlogP_VSA8>
169.81564

>  <SlogP_VSA9>
115.93939

>  <SMR>
16.019899

>  <SMR_VSA0>
34.862103

>  <SMR_VSA1>
51.128967

>  <SMR_VSA2>
13.985298

>  <SMR_VSA3>
3.185575

>  <SMR_VSA4>
5.513495

>  <SMR_VSA5>
293.31793

>  <SMR_VSA6>
157.74876

>  <SMR_VSA7>
65.545555

>  <TPSA>
36.02

>  <VAdjEq>
0.29629606

>  <VAdjMa>
6.4594316

>  <VDistEq>
4.429327

>  <VDistMa>
10.360272

>  <vdw_area>
597.10645

>  <vdw_vol>
801.99371

>  <vsa_acc>
13.566921

>  <vsa_acid>
0

>  <vsa_base>
0

>  <vsa_don>
0

>  <vsa_hyd>
535.00824

>  <vsa_other>
17.212255

>  <vsa_pol>
13.566921

>  <Weight>
591.78296

>  <weinerPath>
7694

>  <weinerPol>
61

>  <zagreb>
206

$$$$