Ic1c(C(=O)NCC(O)CO)c(I)c(N(C(=O)C)CC(O)CN(C(=O)C)c2c(I)c(C(=O)NCC(O)CO)c(I)c(C(=O)NCC(O)CO)c2I)c(I)c1C(=O)NCC(O)CO
  MOE2013           2D

 62 63  0  0  1  0  0  0  0  0999 V2000
    0.0000    0.0000    0.0000 I   0  0  0  0  0  0  0  0  0  0  0  0
   -1.5000    0.0010    0.0000 C   0  0  0  0  0  0  0  0  0  0  0  0
   -2.2490    1.3010    0.0000 C   0  0  0  0  0  0  0  0  0  0  0  0
   -1.4970    2.6000    0.0000 C   0  0  0  0  0  0  0  0  0  0  0  0
    0.0030    2.5980    0.0000 O   0  0  0  0  0  0  0  0  0  0  0  0
   -2.2460    3.8990    0.0000 N   0  0  0  0  0  0  0  0  0  0  0  0
   -1.4950    5.1980    0.0000 C   0  0  0  0  0  0  0  0  0  0  0  0
   -2.2440    6.4970    0.0000 C   0  0  3  0  0  0  0  0  0  0  0  0
   -3.7440    6.4990    0.0000 O   0  0  0  0  0  0  0  0  0  0  0  0
   -1.4920    7.7960    0.0000 C   0  0  0  0  0  0  0  0  0  0  0  0
    0.0080    7.7940    0.0000 O   0  0  0  0  0  0  0  0  0  0  0  0
   -3.7490    1.3030    0.0000 C   0  0  0  0  0  0  0  0  0  0  0  0
   -4.4970    2.6020    0.0000 I   0  0  0  0  0  0  0  0  0  0  0  0
   -4.5000    0.0040    0.0000 C   0  0  0  0  0  0  0  0  0  0  0  0
   -6.0000    0.0060    0.0000 N   0  0  0  0  0  0  0  0  0  0  0  0
   -6.7510   -1.2920    0.0000 C   0  0  0  0  0  0  0  0  0  0  0  0
   -6.0030   -2.5920    0.0000 O   0  0  0  0  0  0  0  0  0  0  0  0
   -8.2510   -1.2910    0.0000 C   0  0  0  0  0  0  0  0  0  0  0  0
   -6.7490    1.3060    0.0000 C   0  0  0  0  0  0  0  0  0  0  0  0
   -8.2490    1.3070    0.0000 C   0  0  0  0  0  0  0  0  0  0  0  0
   -9.0000    0.0090    0.0000 O   0  0  0  0  0  0  0  0  0  0  0  0
   -8.9970    2.6070    0.0000 C   0  0  0  0  0  0  0  0  0  0  0  0
  -10.4970    2.6080    0.0000 N   0  0  0  0  0  0  0  0  0  0  0  0
  -11.2490    1.3100    0.0000 C   0  0  0  0  0  0  0  0  0  0  0  0
  -10.5000    0.0100    0.0000 O   0  0  0  0  0  0  0  0  0  0  0  0
  -12.7490    1.3110    0.0000 C   0  0  0  0  0  0  0  0  0  0  0  0
  -11.2460    3.9080    0.0000 C   0  0  0  0  0  0  0  0  0  0  0  0
  -10.4950    5.2060    0.0000 C   0  0  0  0  0  0  0  0  0  0  0  0
   -8.9950    5.2050    0.0000 I   0  0  0  0  0  0  0  0  0  0  0  0
  -11.2440    6.5060    0.0000 C   0  0  0  0  0  0  0  0  0  0  0  0
  -10.4920    7.8040    0.0000 C   0  0  0  0  0  0  0  0  0  0  0  0
   -8.9920    7.8030    0.0000 O   0  0  0  0  0  0  0  0  0  0  0  0
  -11.2410    9.1040    0.0000 N   0  0  0  0  0  0  0  0  0  0  0  0
  -10.4900   10.4030    0.0000 C   0  0  0  0  0  0  0  0  0  0  0  0
  -11.2390   11.7020    0.0000 C   0  0  3  0  0  0  0  0  0  0  0  0
  -10.4870   13.0010    0.0000 O   0  0  0  0  0  0  0  0  0  0  0  0
  -12.7390   11.7040    0.0000 C   0  0  0  0  0  0  0  0  0  0  0  0
  -13.4870   13.0030    0.0000 O   0  0  0  0  0  0  0  0  0  0  0  0
  -12.7440    6.5080    0.0000 C   0  0  0  0  0  0  0  0  0  0  0  0
  -13.4920    7.8070    0.0000 I   0  0  0  0  0  0  0  0  0  0  0  0
  -13.4950    5.2090    0.0000 C   0  0  0  0  0  0  0  0  0  0  0  0
  -14.9950    5.2110    0.0000 C   0  0  0  0  0  0  0  0  0  0  0  0
  -15.7440    6.5100    0.0000 O   0  0  0  0  0  0  0  0  0  0  0  0
  -15.7460    3.9120    0.0000 N   0  0  0  0  0  0  0  0  0  0  0  0
  -17.2460    3.9140    0.0000 C   0  0  0  0  0  0  0  0  0  0  0  0
  -17.9970    2.6160    0.0000 C   0  0  3  0  0  0  0  0  0  0  0  0
  -17.2490    1.3160    0.0000 O   0  0  0  0  0  0  0  0  0  0  0  0
  -19.4970    2.6170    0.0000 C   0  0  0  0  0  0  0  0  0  0  0  0
  -20.2490    1.3190    0.0000 O   0  0  0  0  0  0  0  0  0  0  0  0
  -12.7460    3.9100    0.0000 C   0  0  0  0  0  0  0  0  0  0  0  0
  -13.4970    2.6110    0.0000 I   0  0  0  0  0  0  0  0  0  0  0  0
   -3.7510   -1.2950    0.0000 C   0  0  0  0  0  0  0  0  0  0  0  0
   -4.5030   -2.5940    0.0000 I   0  0  0  0  0  0  0  0  0  0  0  0
   -2.2510   -1.2970    0.0000 C   0  0  0  0  0  0  0  0  0  0  0  0
   -1.5030   -2.5970    0.0000 C   0  0  0  0  0  0  0  0  0  0  0  0
   -2.2540   -3.8950    0.0000 O   0  0  0  0  0  0  0  0  0  0  0  0
   -0.0030   -2.5980    0.0000 N   0  0  0  0  0  0  0  0  0  0  0  0
    0.7460   -3.8980    0.0000 C   0  0  0  0  0  0  0  0  0  0  0  0
    2.2460   -3.8990    0.0000 C   0  0  3  0  0  0  0  0  0  0  0  0
    2.9970   -2.6010    0.0000 O   0  0  0  0  0  0  0  0  0  0  0  0
    2.9950   -5.1990    0.0000 C   0  0  0  0  0  0  0  0  0  0  0  0
    4.4950   -5.2010    0.0000 O   0  0  0  0  0  0  0  0  0  0  0  0
  1  2  1  0  0  0  0
  2  3  1  0  0  0  0
  2 54  2  0  0  0  0
  3  4  1  0  0  0  0
  3 12  2  0  0  0  0
  4  5  2  0  0  0  0
  4  6  1  0  0  0  0
  6  7  1  0  0  0  0
  7  8  1  0  0  0  0
  8  9  1  0  0  0  0
  8 10  1  0  0  0  0
 10 11  1  0  0  0  0
 12 13  1  0  0  0  0
 12 14  1  0  0  0  0
 14 15  1  0  0  0  0
 14 52  2  0  0  0  0
 15 16  1  0  0  0  0
 15 19  1  0  0  0  0
 16 17  2  0  0  0  0
 16 18  1  0  0  0  0
 19 20  1  0  0  0  0
 20 21  1  0  0  0  0
 20 22  1  0  0  0  0
 22 23  1  0  0  0  0
 23 24  1  0  0  0  0
 23 27  1  0  0  0  0
 24 25  2  0  0  0  0
 24 26  1  0  0  0  0
 27 28  1  0  0  0  0
 27 50  2  0  0  0  0
 28 29  1  0  0  0  0
 28 30  2  0  0  0  0
 30 31  1  0  0  0  0
 30 39  1  0  0  0  0
 31 32  2  0  0  0  0
 31 33  1  0  0  0  0
 33 34  1  0  0  0  0
 34 35  1  0  0  0  0
 35 36  1  0  0  0  0
 35 37  1  0  0  0  0
 37 38  1  0  0  0  0
 39 40  1  0  0  0  0
 39 41  2  0  0  0  0
 41 42  1  0  0  0  0
 41 50  1  0  0  0  0
 42 43  2  0  0  0  0
 42 44  1  0  0  0  0
 44 45  1  0  0  0  0
 45 46  1  0  0  0  0
 46 47  1  0  0  0  0
 46 48  1  0  0  0  0
 48 49  1  0  0  0  0
 50 51  1  0  0  0  0
 52 53  1  0  0  0  0
 52 54  1  0  0  0  0
 54 55  1  0  0  0  0
 55 56  2  0  0  0  0
 55 57  1  0  0  0  0
 57 58  1  0  0  0  0
 58 59  1  0  0  0  0
 59 60  1  0  0  0  0
 59 61  1  0  0  0  0
 61 62  1  0  0  0  0
M  END
>  <Index>
1601

>  <ID>
HT1104

>  <class>
1

>  <apol>
141.6689

>  <ast_fraglike>
0

>  <ast_fraglike_ext>
0

>  <ast_violation>
3

>  <ast_violation_ext>
5

>  <a_acc>
15

>  <a_acid>
0

>  <a_aro>
12

>  <a_base>
0

>  <a_count>
106

>  <a_don>
13

>  <a_donacc>
28

>  <a_heavy>
62

>  <a_hyd>
35

>  <a_IC>
203.79677

>  <a_ICM>
1.922611

>  <a_nB>
0

>  <a_nBr>
0

>  <a_nC>
35

>  <a_nCl>
0

>  <a_nF>
0

>  <a_nH>
44

>  <a_nI>
6

>  <a_nN>
6

>  <a_nO>
15

>  <a_nP>
0

>  <a_nS>
0

>  <balabanJ>
2.5716641

>  <BCUT_PEOE_0>
-2.6065888

>  <BCUT_PEOE_1>
-0.59179127

>  <BCUT_PEOE_2>
0.61829257

>  <BCUT_PEOE_3>
2.6013112

>  <BCUT_SLOGP_0>
-2.7735152

>  <BCUT_SLOGP_1>
-0.58327872

>  <BCUT_SLOGP_2>
0.59856582

>  <BCUT_SLOGP_3>
2.4874356

>  <BCUT_SMR_0>
-2.3386517

>  <BCUT_SMR_1>
-0.38989997

>  <BCUT_SMR_2>
0.86427218

>  <BCUT_SMR_3>
2.8786407

>  <bpol>
81.989105

>  <b_1rotN>
24

>  <b_1rotR>
0.38095239

>  <b_ar>
12

>  <b_count>
107

>  <b_double>
6

>  <b_heavy>
63

>  <b_max1len>
6

>  <b_rotN>
28

>  <b_rotR>
0.44444445

>  <b_single>
89

>  <b_triple>
0

>  <chi0>
47.333252

>  <chi0v>
45.539436

>  <chi0v_C>
20.957819

>  <chi0_C>
22.350124

>  <chi1>
28.996721

>  <chi1v>
24.410618

>  <chi1v_C>
9.0824833

>  <chi1_C>
10.570517

>  <chiral>
4

>  <chiral_u>
4

>  <density>
1.3072542

>  <diameter>
22

>  <FCharge>
0

>  <GCUT_PEOE_0>
-0.83003014

>  <GCUT_PEOE_1>
-0.46278441

>  <GCUT_PEOE_2>
0.12303619

>  <GCUT_PEOE_3>
2.9734302

>  <GCUT_SLOGP_0>
-1.1630626

>  <GCUT_SLOGP_1>
-0.47044176

>  <GCUT_SLOGP_2>
0.061230112

>  <GCUT_SLOGP_3>
2.9654012

>  <GCUT_SMR_0>
-0.52247512

>  <GCUT_SMR_1>
-0.21941984

>  <GCUT_SMR_2>
0.28993502

>  <GCUT_SMR_3>
3.3144267

>  <Kier1>
58.125977

>  <Kier2>
27.723772

>  <Kier3>
15.78478

>  <KierA1>
63.917999

>  <KierA2>
30.533611

>  <KierA3>
17.403049

>  <KierFlex>
31.478182

>  <lip_acc>
21

>  <lip_don>
13

>  <lip_druglike>
0

>  <lip_violation>
3

>  <logP(o/w)>
1.169

>  <logS>
-8.09692

>  <mr>
27.621405

>  <mutagenic>
0

>  <nmol>
1

>  <opr_brigid>
12

>  <opr_leadlike>
0

>  <opr_nring>
2

>  <opr_nrot>
22

>  <opr_violation>
4

>  <PC+>
0

>  <PC->
0

>  <PEOE_PC+>
7.3861694

>  <PEOE_PC->
-7.3861694

>  <PEOE_RPC+>
0.03441821

>  <PEOE_RPC->
0.053127065

>  <PEOE_VSA+0>
121.93716

>  <PEOE_VSA+1>
251.74275

>  <PEOE_VSA+2>
0

>  <PEOE_VSA+3>
34.476051

>  <PEOE_VSA+4>
118.81661

>  <PEOE_VSA+5>
51.798122

>  <PEOE_VSA+6>
0

>  <PEOE_VSA-0>
281.94009

>  <PEOE_VSA-1>
0

>  <PEOE_VSA-2>
0

>  <PEOE_VSA-3>
0

>  <PEOE_VSA-4>
0

>  <PEOE_VSA-5>
81.401527

>  <PEOE_VSA-6>
70.455429

>  <PEOE_VSA_FHYD>
0.68153077

>  <PEOE_VSA_FNEG>
0.42841285

>  <PEOE_VSA_FPNEG>
0.14997214

>  <PEOE_VSA_FPOL>
0.31846926

>  <PEOE_VSA_FPOS>
0.57158715

>  <PEOE_VSA_FPPOS>
0.16849712

>  <PEOE_VSA_HYD>
690.09607

>  <PEOE_VSA_NEG>
433.79703

>  <PEOE_VSA_PNEG>
151.85695

>  <PEOE_VSA_POL>
322.47168

>  <PEOE_VSA_POS>
578.77069

>  <PEOE_VSA_PPOS>
170.61475

>  <petitjean>
0.5

>  <petitjeanSC>
1

>  <Q_PC+>
0

>  <Q_PC->
0

>  <Q_RPC+>
0

>  <Q_RPC->
0

>  <Q_VSA_FHYD>
1

>  <Q_VSA_FNEG>
0

>  <Q_VSA_FPNEG>
0

>  <Q_VSA_FPOL>
0

>  <Q_VSA_FPOS>
1

>  <Q_VSA_FPPOS>
0

>  <Q_VSA_HYD>
1012.5677

>  <Q_VSA_NEG>
0

>  <Q_VSA_PNEG>
0

>  <Q_VSA_POL>
0

>  <Q_VSA_POS>
1012.5677

>  <Q_VSA_PPOS>
0

>  <radius>
11

>  <reactive>
0

>  <rings>
2

>  <RPC+>
0

>  <RPC->
0

>  <rsynth>
1

>  <SlogP>
-1.5869

>  <SlogP_VSA0>
306.75867

>  <SlogP_VSA1>
31.552702

>  <SlogP_VSA2>
90.025536

>  <SlogP_VSA3>
194.3425

>  <SlogP_VSA4>
108.19116

>  <SlogP_VSA5>
0

>  <SlogP_VSA6>
0

>  <SlogP_VSA7>
0

>  <SlogP_VSA8>
0

>  <SlogP_VSA9>
412.85757

>  <SMR>
27.295

>  <SMR_VSA0>
143.17329

>  <SMR_VSA1>
228.46704

>  <SMR_VSA2>
88.249489

>  <SMR_VSA3>
45.085545

>  <SMR_VSA4>
5.513495

>  <SMR_VSA5>
0

>  <SMR_VSA6>
225.8952

>  <SMR_VSA7>
407.34409

>  <TPSA>
339.09

>  <VAdjEq>
0.2081393

>  <VAdjMa>
6.9772801

>  <VDistEq>
4.2441311

>  <VDistMa>
11.662036

>  <vdw_area>
1012.5677

>  <vdw_vol>
1185.8352

>  <vsa_acc>
81.401527

>  <vsa_acid>
0

>  <vsa_base>
0

>  <vsa_don>
22.730305

>  <vsa_hyd>
633.55432

>  <vsa_other>
77.697189

>  <vsa_pol>
226.23412

>  <Weight>
1550.188

>  <weinerPath>
17289

>  <weinerPol>
110

>  <zagreb>
304

$$$$