Fc1cc2c(N(C=C(C(O)=O)C2=O)CC)cc1N1CCNCC1
  MOE2013           2D

 23 25  0  0  1  0  0  0  0  0999 V2000
    0.0000    0.0000    0.0000 F   0  0  0  0  0  0  0  0  0  0  0  0
   -1.2930    0.7600    0.0000 C   0  0  0  0  0  0  0  0  0  0  0  0
   -2.5980    0.0200    0.0000 C   0  0  0  0  0  0  0  0  0  0  0  0
   -3.8910    0.7800    0.0000 C   0  0  0  0  0  0  0  0  0  0  0  0
   -3.8800    2.2800    0.0000 C   0  0  0  0  0  0  0  0  0  0  0  0
   -5.1730    3.0400    0.0000 N   0  0  3  0  0  0  0  0  0  0  0  0
   -6.4780    2.3000    0.0000 C   0  0  0  0  0  0  0  0  0  0  0  0
   -6.4890    0.8000    0.0000 C   0  0  0  0  0  0  0  0  0  0  0  0
   -7.7940    0.0610    0.0000 C   0  0  0  0  0  0  0  0  0  0  0  0
   -9.0870    0.8210    0.0000 O   0  0  0  0  0  0  0  0  0  0  0  0
   -7.8060   -1.4390    0.0000 O   0  0  0  0  0  0  0  0  0  0  0  0
   -5.1960    0.0400    0.0000 C   0  0  0  0  0  0  0  0  0  0  0  0
   -5.2080   -1.4600    0.0000 O   0  0  0  0  0  0  0  0  0  0  0  0
   -5.1610    4.5400    0.0000 C   0  0  0  0  0  0  0  0  0  0  0  0
   -6.4540    5.3000    0.0000 C   0  0  0  0  0  0  0  0  0  0  0  0
   -2.5750    3.0200    0.0000 C   0  0  0  0  0  0  0  0  0  0  0  0
   -1.2820    2.2600    0.0000 C   0  0  0  0  0  0  0  0  0  0  0  0
    0.0230    3.0000    0.0000 N   0  0  0  0  0  0  0  0  0  0  0  0
    1.3160    2.2400    0.0000 C   0  0  0  0  0  0  0  0  0  0  0  0
    2.6210    2.9800    0.0000 C   0  0  0  0  0  0  0  0  0  0  0  0
    2.6330    4.4800    0.0000 N   0  0  0  0  0  0  0  0  0  0  0  0
    1.3400    5.2400    0.0000 C   0  0  0  0  0  0  0  0  0  0  0  0
    0.0350    4.5000    0.0000 C   0  0  0  0  0  0  0  0  0  0  0  0
  1  2  1  0  0  0  0
  2  3  1  0  0  0  0
  2 17  2  0  0  0  0
  3  4  2  0  0  0  0
  4  5  1  0  0  0  0
  4 12  1  0  0  0  0
  5  6  1  0  0  0  0
  5 16  2  0  0  0  0
  6  7  1  0  0  0  0
  6 14  1  0  0  0  0
  7  8  2  0  0  0  0
  8  9  1  0  0  0  0
  8 12  1  0  0  0  0
  9 10  1  0  0  0  0
  9 11  2  0  0  0  0
 12 13  2  0  0  0  0
 14 15  1  0  0  0  0
 16 17  1  0  0  0  0
 17 18  1  0  0  0  0
 18 19  1  0  0  0  0
 18 23  1  0  0  0  0
 19 20  1  0  0  0  0
 20 21  1  0  0  0  0
 21 22  1  0  0  0  0
 22 23  1  0  0  0  0
M  END
>  <Index>
1671

>  <ID>
HT1525

>  <class>
1

>  <apol>
46.425274

>  <ast_fraglike>
0

>  <ast_fraglike_ext>
0

>  <ast_violation>
2

>  <ast_violation_ext>
3

>  <a_acc>
4

>  <a_acid>
0

>  <a_aro>
6

>  <a_base>
0

>  <a_count>
41

>  <a_don>
3

>  <a_donacc>
7

>  <a_heavy>
23

>  <a_hyd>
15

>  <a_IC>
71.091209

>  <a_ICM>
1.7339319

>  <a_nB>
0

>  <a_nBr>
0

>  <a_nC>
16

>  <a_nCl>
0

>  <a_nF>
1

>  <a_nH>
18

>  <a_nI>
0

>  <a_nN>
3

>  <a_nO>
3

>  <a_nP>
0

>  <a_nS>
0

>  <balabanJ>
1.7566913

>  <BCUT_PEOE_0>
-2.7117779

>  <BCUT_PEOE_1>
-0.60581964

>  <BCUT_PEOE_2>
0.60329217

>  <BCUT_PEOE_3>
2.6170702

>  <BCUT_SLOGP_0>
-2.8882546

>  <BCUT_SLOGP_1>
-0.52639931

>  <BCUT_SLOGP_2>
0.65133613

>  <BCUT_SLOGP_3>
2.5307124

>  <BCUT_SMR_0>
-2.4147577

>  <BCUT_SMR_1>
-0.39247489

>  <BCUT_SMR_2>
0.76564211

>  <BCUT_SMR_3>
2.9091895

>  <bpol>
27.416725

>  <b_1rotN>
3

>  <b_1rotR>
0.12

>  <b_ar>
6

>  <b_count>
43

>  <b_double>
3

>  <b_heavy>
25

>  <b_max1len>
3

>  <b_rotN>
3

>  <b_rotR>
0.12

>  <b_single>
34

>  <b_triple>
0

>  <chi0>
16.560114

>  <chi0v>
12.803686

>  <chi0v_C>
9.7675848

>  <chi0_C>
10.698306

>  <chi1>
11.024076

>  <chi1v>
7.5825224

>  <chi1v_C>
4.4004827

>  <chi1_C>
5.4150147

>  <chiral>
0

>  <chiral_u>
0

>  <density>
0.78735077

>  <diameter>
11

>  <FCharge>
0

>  <GCUT_PEOE_0>
-0.8437053

>  <GCUT_PEOE_1>
-0.45257831

>  <GCUT_PEOE_2>
0.082223162

>  <GCUT_PEOE_3>
2.6695392

>  <GCUT_SLOGP_0>
-1.1544342

>  <GCUT_SLOGP_1>
-0.40049192

>  <GCUT_SLOGP_2>
0.16936722

>  <GCUT_SLOGP_3>
2.7020478

>  <GCUT_SMR_0>
-0.50768256

>  <GCUT_SMR_1>
-0.22475778

>  <GCUT_SMR_2>
0.18515715

>  <GCUT_SMR_3>
2.9507172

>  <Kier1>
17.811199

>  <Kier2>
7.4861112

>  <Kier3>
3.52

>  <KierA1>
13.363121

>  <KierA2>
5.5374737

>  <KierA3>
2.5758209

>  <KierFlex>
3.2173014

>  <lip_acc>
6

>  <lip_don>
2

>  <lip_druglike>
1

>  <lip_violation>
0

>  <logP(o/w)>
0.72500002

>  <logS>
-2.5094199

>  <mr>
8.2837343

>  <mutagenic>
0

>  <nmol>
1

>  <opr_brigid>
17

>  <opr_leadlike>
1

>  <opr_nring>
3

>  <opr_nrot>
5

>  <opr_violation>
0

>  <PC+>
0

>  <PC->
0

>  <PEOE_PC+>
1.9952674

>  <PEOE_PC->
-1.9952674

>  <PEOE_RPC+>
0.14831544

>  <PEOE_RPC->
0.16407537

>  <PEOE_VSA+0>
147.06564

>  <PEOE_VSA+1>
19.495708

>  <PEOE_VSA+2>
19.848398

>  <PEOE_VSA+3>
0

>  <PEOE_VSA+4>
18.782692

>  <PEOE_VSA+5>
14.708499

>  <PEOE_VSA+6>
0

>  <PEOE_VSA-0>
24.509808

>  <PEOE_VSA-1>
18.747677

>  <PEOE_VSA-2>
0

>  <PEOE_VSA-3>
0

>  <PEOE_VSA-4>
11.908636

>  <PEOE_VSA-5>
27.133842

>  <PEOE_VSA-6>
7.9044313

>  <PEOE_VSA_FHYD>
0.74061042

>  <PEOE_VSA_FNEG>
0.29088306

>  <PEOE_VSA_FPNEG>
0.15139019

>  <PEOE_VSA_FPOL>
0.25938961

>  <PEOE_VSA_FPOS>
0.70911694

>  <PEOE_VSA_FPPOS>
0.1079994

>  <PEOE_VSA_HYD>
229.66724

>  <PEOE_VSA_NEG>
90.204391

>  <PEOE_VSA_PNEG>
46.946907

>  <PEOE_VSA_POL>
80.438103

>  <PEOE_VSA_POS>
219.90094

>  <PEOE_VSA_PPOS>
33.491192

>  <petitjean>
0.45454547

>  <petitjeanSC>
0.83333331

>  <Q_PC+>
0

>  <Q_PC->
0

>  <Q_RPC+>
0

>  <Q_RPC->
0

>  <Q_VSA_FHYD>
1

>  <Q_VSA_FNEG>
0

>  <Q_VSA_FPNEG>
0

>  <Q_VSA_FPOL>
0

>  <Q_VSA_FPOS>
1

>  <Q_VSA_FPPOS>
0

>  <Q_VSA_HYD>
310.10535

>  <Q_VSA_NEG>
0

>  <Q_VSA_PNEG>
0

>  <Q_VSA_POL>
0

>  <Q_VSA_POS>
310.10535

>  <Q_VSA_PPOS>
0

>  <radius>
6

>  <reactive>
0

>  <rings>
3

>  <RPC+>
0

>  <RPC->
0

>  <rsynth>
1

>  <SlogP>
1.2264

>  <SlogP_VSA0>
24.259378

>  <SlogP_VSA1>
13.433075

>  <SlogP_VSA2>
32.983234

>  <SlogP_VSA3>
117.58311

>  <SlogP_VSA4>
27.047791

>  <SlogP_VSA5>
3.185575

>  <SlogP_VSA6>
0

>  <SlogP_VSA7>
52.500725

>  <SlogP_VSA8>
0

>  <SlogP_VSA9>
53.799622

>  <SMR>
8.4552002

>  <SMR_VSA0>
47.724434

>  <SMR_VSA1>
14.960114

>  <SMR_VSA2>
58.765621

>  <SMR_VSA3>
6.37115

>  <SMR_VSA4>
5.513495

>  <SMR_VSA5>
52.500725

>  <SMR_VSA6>
105.63097

>  <SMR_VSA7>
33.326015

>  <TPSA>
72.879997

>  <VAdjEq>
0.45137304

>  <VAdjMa>
5.643856

>  <VDistEq>
3.1655307

>  <VDistMa>
8.773262

>  <vdw_area>
310.10535

>  <vdw_vol>
405.58289

>  <vsa_acc>
13.566921

>  <vsa_acid>
0

>  <vsa_base>
0

>  <vsa_don>
0

>  <vsa_hyd>
221.56815

>  <vsa_other>
23.167019

>  <vsa_pol>
46.383339

>  <Weight>
319.336

>  <weinerPath>
1116

>  <weinerPol>
41

>  <zagreb>
122

$$$$