Clc1ccc2NSNc2c1Nc1[nH]ccn1
  MOE2013           2D

 16 18  0  0  0  0  0  0  0  0999 V2000
    0.0000    0.0000    0.0000 Cl  0  0  0  0  0  0  0  0  0  0  0  0
   -1.3050    0.7400    0.0000 C   0  0  0  0  0  0  0  0  0  0  0  0
   -2.5980   -0.0200    0.0000 C   0  0  0  0  0  0  0  0  0  0  0  0
   -3.9030    0.7200    0.0000 C   0  0  0  0  0  0  0  0  0  0  0  0
   -3.9140    2.2200    0.0000 C   0  0  0  0  0  0  0  0  0  0  0  0
   -5.0360    3.2160    0.0000 N   0  0  0  0  0  0  0  0  0  0  0  0
   -4.4370    4.5900    0.0000 S   0  0  0  0  0  0  0  0  0  0  0  0
   -2.9440    4.4450    0.0000 N   0  0  0  0  0  0  0  0  0  0  0  0
   -2.6210    2.9800    0.0000 C   0  0  0  0  0  0  0  0  0  0  0  0
   -1.3160    2.2400    0.0000 C   0  0  0  0  0  0  0  0  0  0  0  0
   -0.0230    3.0000    0.0000 N   0  0  0  0  0  0  0  0  0  0  0  0
    1.2820    2.2600    0.0000 C   0  0  0  0  0  0  0  0  0  0  0  0
    1.4500    0.7690    0.0000 N   0  0  0  0  0  0  0  0  0  0  0  0
    2.9200    0.4690    0.0000 C   0  0  0  0  0  0  0  0  0  0  0  0
    3.6600    1.7730    0.0000 C   0  0  0  0  0  0  0  0  0  0  0  0
    2.6480    2.8800    0.0000 N   0  0  0  0  0  0  0  0  0  0  0  0
  1  2  1  0  0  0  0
  2  3  1  0  0  0  0
  2 10  2  0  0  0  0
  3  4  2  0  0  0  0
  4  5  1  0  0  0  0
  5  6  1  0  0  0  0
  5  9  2  0  0  0  0
  6  7  1  0  0  0  0
  7  8  1  0  0  0  0
  8  9  1  0  0  0  0
  9 10  1  0  0  0  0
 10 11  1  0  0  0  0
 11 12  1  0  0  0  0
 12 13  1  0  0  0  0
 12 16  2  0  0  0  0
 13 14  1  0  0  0  0
 14 15  2  0  0  0  0
 15 16  1  0  0  0  0
M  END
>  <Index>
1748

>  <ID>
HT2072

>  <class>
1

>  <apol>
31.754345

>  <ast_fraglike>
0

>  <ast_fraglike_ext>
0

>  <ast_violation>
2

>  <ast_violation_ext>
2

>  <a_acc>
2

>  <a_acid>
0

>  <a_aro>
11

>  <a_base>
0

>  <a_count>
24

>  <a_don>
5

>  <a_donacc>
7

>  <a_heavy>
16

>  <a_hyd>
9

>  <a_IC>
45.900135

>  <a_ICM>
1.9125056

>  <a_nB>
0

>  <a_nBr>
0

>  <a_nC>
9

>  <a_nCl>
1

>  <a_nF>
0

>  <a_nH>
8

>  <a_nI>
0

>  <a_nN>
5

>  <a_nO>
0

>  <a_nP>
0

>  <a_nS>
1

>  <balabanJ>
1.6590889

>  <BCUT_PEOE_0>
-2.2481084

>  <BCUT_PEOE_1>
-0.61001021

>  <BCUT_PEOE_2>
0.79723883

>  <BCUT_PEOE_3>
2.323132

>  <BCUT_SLOGP_0>
-2.1699612

>  <BCUT_SLOGP_1>
-0.51552957

>  <BCUT_SLOGP_2>
0.94029099

>  <BCUT_SLOGP_3>
2.5371439

>  <BCUT_SMR_0>
-1.8865733

>  <BCUT_SMR_1>
-0.4578594

>  <BCUT_SMR_2>
1.0498962

>  <BCUT_SMR_3>
2.7344308

>  <bpol>
15.405656

>  <b_1rotN>
2

>  <b_1rotR>
0.11111111

>  <b_ar>
11

>  <b_count>
26

>  <b_double>
0

>  <b_heavy>
18

>  <b_max1len>
1

>  <b_rotN>
2

>  <b_rotR>
0.11111111

>  <b_single>
15

>  <b_triple>
0

>  <chi0>
10.957819

>  <chi0v>
9.6152525

>  <chi0v_C>
4.809401

>  <chi0_C>
5.7151785

>  <chi1>
7.8433366

>  <chi1v>
5.8061895

>  <chi1v_C>
1.9940169

>  <chi1_C>
2.8164966

>  <chiral>
0

>  <chiral_u>
0

>  <density>
0.90443373

>  <diameter>
7

>  <FCharge>
0

>  <GCUT_PEOE_0>
-0.82978761

>  <GCUT_PEOE_1>
-0.4159759

>  <GCUT_PEOE_2>
0.16523927

>  <GCUT_PEOE_3>
2.2545838

>  <GCUT_SLOGP_0>
-0.89756703

>  <GCUT_SLOGP_1>
-0.26872674

>  <GCUT_SLOGP_2>
0.32759175

>  <GCUT_SLOGP_3>
2.4588864

>  <GCUT_SMR_0>
-0.43791941

>  <GCUT_SMR_1>
-0.20216195

>  <GCUT_SMR_2>
0.39487556

>  <GCUT_SMR_3>
2.610678

>  <Kier1>
11.111111

>  <Kier2>
4.704

>  <Kier3>
2.2041523

>  <KierA1>
8.9527159

>  <KierA2>
3.7311831

>  <KierA3>
1.7277814

>  <KierFlex>
2.087764

>  <lip_acc>
5

>  <lip_don>
4

>  <lip_druglike>
1

>  <lip_violation>
0

>  <logP(o/w)>
2.049

>  <logS>
-3.5397899

>  <mr>
6.3522506

>  <mutagenic>
0

>  <nmol>
1

>  <opr_brigid>
15

>  <opr_leadlike>
1

>  <opr_nring>
3

>  <opr_nrot>
2

>  <opr_violation>
0

>  <PC+>
0

>  <PC->
0

>  <PEOE_PC+>
1.3832263

>  <PEOE_PC->
-1.3832263

>  <PEOE_RPC+>
0.1328831

>  <PEOE_RPC->
0.24234755

>  <PEOE_VSA+0>
67.137619

>  <PEOE_VSA+1>
34.980392

>  <PEOE_VSA+2>
25.857038

>  <PEOE_VSA+3>
24.300587

>  <PEOE_VSA+4>
0

>  <PEOE_VSA+5>
0

>  <PEOE_VSA+6>
0

>  <PEOE_VSA-0>
24.509808

>  <PEOE_VSA-1>
29.581947

>  <PEOE_VSA-2>
0

>  <PEOE_VSA-3>
0

>  <PEOE_VSA-4>
10.87851

>  <PEOE_VSA-5>
0

>  <PEOE_VSA-6>
0.13689101

>  <PEOE_VSA_FHYD>
0.94932717

>  <PEOE_VSA_FNEG>
0.29950464

>  <PEOE_VSA_FPNEG>
0.050672829

>  <PEOE_VSA_FPOL>
0.050672829

>  <PEOE_VSA_FPOS>
0.70049536

>  <PEOE_VSA_FPPOS>
0

>  <PEOE_VSA_HYD>
206.36739

>  <PEOE_VSA_NEG>
65.107155

>  <PEOE_VSA_PNEG>
11.015401

>  <PEOE_VSA_POL>
11.015401

>  <PEOE_VSA_POS>
152.27563

>  <PEOE_VSA_PPOS>
0

>  <petitjean>
0.42857143

>  <petitjeanSC>
0.75

>  <Q_PC+>
0

>  <Q_PC->
0

>  <Q_RPC+>
0

>  <Q_RPC->
0

>  <Q_VSA_FHYD>
1

>  <Q_VSA_FNEG>
0

>  <Q_VSA_FPNEG>
0

>  <Q_VSA_FPOL>
0

>  <Q_VSA_FPOS>
1

>  <Q_VSA_FPPOS>
0

>  <Q_VSA_HYD>
217.3828

>  <Q_VSA_NEG>
0

>  <Q_VSA_PNEG>
0

>  <Q_VSA_POL>
0

>  <Q_VSA_POS>
217.3828

>  <Q_VSA_PPOS>
0

>  <radius>
4

>  <reactive>
0

>  <rings>
3

>  <RPC+>
0

>  <RPC->
0

>  <rsynth>
1

>  <SlogP>
3.2072999

>  <SlogP_VSA0>
0

>  <SlogP_VSA1>
67.606277

>  <SlogP_VSA2>
16.78553

>  <SlogP_VSA3>
0

>  <SlogP_VSA4>
0

>  <SlogP_VSA5>
0

>  <SlogP_VSA6>
3.5006065

>  <SlogP_VSA7>
69.71508

>  <SlogP_VSA8>
0

>  <SlogP_VSA9>
81.060471

>  <SMR>
6.81598

>  <SMR_VSA0>
0

>  <SMR_VSA1>
16.78553

>  <SMR_VSA2>
16.78553

>  <SMR_VSA3>
3.5006065

>  <SMR_VSA4>
60.990082

>  <SMR_VSA5>
69.71508

>  <SMR_VSA6>
0

>  <SMR_VSA7>
70.891136

>  <TPSA>
64.769997

>  <VAdjEq>
0.58587331

>  <VAdjMa>
5.1699252

>  <VDistEq>
2.720191

>  <VDistMa>
7.7115164

>  <vdw_area>
217.3828

>  <vdw_vol>
280.52582

>  <vsa_acc>
0

>  <vsa_acid>
0

>  <vsa_base>
0

>  <vsa_don>
21.832989

>  <vsa_hyd>
126.41635

>  <vsa_other>
42.627811

>  <vsa_pol>
33.198143

>  <Weight>
253.717

>  <weinerPath>
418

>  <weinerPol>
21

>  <zagreb>
86

$$$$