O(C)c1cc(C)c(C=CC(=CC=CC(=CC(O)=O)C)C)c(C)c1C
  MOE2013           2D

 24 24  0  0  0  0  0  0  0  0999 V2000
    0.0000    0.0000    0.0000 O   0  0  0  0  0  0  0  0  0  0  0  0
   -0.7590   -1.2940    0.0000 C   0  0  0  0  0  0  0  0  0  0  0  0
    1.5000   -0.0110    0.0000 C   0  0  0  0  0  0  0  0  0  0  0  0
    2.2400   -1.3150    0.0000 C   0  0  0  0  0  0  0  0  0  0  0  0
    3.7400   -1.3260    0.0000 C   0  0  0  0  0  0  0  0  0  0  0  0
    4.4810   -2.6310    0.0000 C   0  0  0  0  0  0  0  0  0  0  0  0
    4.5000   -0.0330    0.0000 C   0  0  0  0  0  0  0  0  0  0  0  0
    6.0000   -0.0440    0.0000 C   0  0  0  0  0  0  0  0  0  0  0  0
    6.7400   -1.3480    0.0000 C   0  0  0  0  0  0  0  0  0  0  0  0
    8.2400   -1.3590    0.0000 C   0  0  0  0  0  0  0  0  0  0  0  0
    8.9810   -2.6640    0.0000 C   0  0  0  0  0  0  0  0  0  0  0  0
   10.4810   -2.6750    0.0000 C   0  0  0  0  0  0  0  0  0  0  0  0
   11.2210   -3.9790    0.0000 C   0  0  0  0  0  0  0  0  0  0  0  0
   12.7210   -3.9900    0.0000 C   0  0  0  0  0  0  0  0  0  0  0  0
   13.4620   -5.2950    0.0000 C   0  0  0  0  0  0  0  0  0  0  0  0
   14.9620   -5.3060    0.0000 C   0  0  0  0  0  0  0  0  0  0  0  0
   15.7020   -6.6100    0.0000 O   0  0  0  0  0  0  0  0  0  0  0  0
   15.7210   -4.0120    0.0000 O   0  0  0  0  0  0  0  0  0  0  0  0
   13.4810   -2.6970    0.0000 C   0  0  0  0  0  0  0  0  0  0  0  0
    9.0000   -0.0660    0.0000 C   0  0  0  0  0  0  0  0  0  0  0  0
    3.7590    1.2720    0.0000 C   0  0  0  0  0  0  0  0  0  0  0  0
    4.5190    2.5650    0.0000 C   0  0  0  0  0  0  0  0  0  0  0  0
    2.2590    1.2830    0.0000 C   0  0  0  0  0  0  0  0  0  0  0  0
    1.5190    2.5870    0.0000 C   0  0  0  0  0  0  0  0  0  0  0  0
  1  2  1  0  0  0  0
  1  3  1  0  0  0  0
  3  4  1  0  0  0  0
  3 23  2  0  0  0  0
  4  5  2  0  0  0  0
  5  6  1  0  0  0  0
  5  7  1  0  0  0  0
  7  8  1  0  0  0  0
  7 21  2  0  0  0  0
  8  9  2  3  0  0  0
  9 10  1  0  0  0  0
 10 11  2  3  0  0  0
 10 20  1  0  0  0  0
 11 12  1  0  0  0  0
 12 13  2  3  0  0  0
 13 14  1  0  0  0  0
 14 15  2  3  0  0  0
 14 19  1  0  0  0  0
 15 16  1  0  0  0  0
 16 17  1  0  0  0  0
 16 18  2  0  0  0  0
 21 22  1  0  0  0  0
 21 23  1  0  0  0  0
 23 24  1  0  0  0  0
M  END
>  <Index>
1424

>  <ID>
HT0065

>  <class>
1

>  <apol>
56.702618

>  <ast_fraglike>
0

>  <ast_fraglike_ext>
0

>  <ast_violation>
2

>  <ast_violation_ext>
3

>  <a_acc>
3

>  <a_acid>
0

>  <a_aro>
6

>  <a_base>
0

>  <a_count>
50

>  <a_don>
2

>  <a_donacc>
5

>  <a_heavy>
24

>  <a_hyd>
20

>  <a_IC>
62.987823

>  <a_ICM>
1.2597564

>  <a_nB>
0

>  <a_nBr>
0

>  <a_nC>
21

>  <a_nCl>
0

>  <a_nF>
0

>  <a_nH>
26

>  <a_nI>
0

>  <a_nN>
0

>  <a_nO>
3

>  <a_nP>
0

>  <a_nS>
0

>  <balabanJ>
2.2999709

>  <BCUT_PEOE_0>
-2.4121265

>  <BCUT_PEOE_1>
-0.41569015

>  <BCUT_PEOE_2>
0.34823182

>  <BCUT_PEOE_3>
2.364723

>  <BCUT_SLOGP_0>
-2.2940319

>  <BCUT_SLOGP_1>
-0.3509796

>  <BCUT_SLOGP_2>
0.35270736

>  <BCUT_SLOGP_3>
2.5314684

>  <BCUT_SMR_0>
-2.1111398

>  <BCUT_SMR_1>
-0.19317457

>  <BCUT_SMR_2>
0.51657015

>  <BCUT_SMR_3>
2.6789041

>  <bpol>
31.297382

>  <b_1rotN>
6

>  <b_1rotR>
0.25

>  <b_ar>
6

>  <b_count>
50

>  <b_double>
5

>  <b_heavy>
24

>  <b_max1len>
2

>  <b_rotN>
6

>  <b_rotR>
0.25

>  <b_single>
39

>  <b_triple>
0

>  <chi0>
18.275656

>  <chi0v>
15.305162

>  <chi0v_C>
14.041451

>  <chi0_C>
15.568549

>  <chi1>
11.256126

>  <chi1v>
7.8495045

>  <chi1v_C>
6.809401

>  <chi1_C>
8.9860706

>  <chiral>
0

>  <chiral_u>
0

>  <density>
0.66340256

>  <diameter>
15

>  <FCharge>
0

>  <GCUT_PEOE_0>
-0.78864247

>  <GCUT_PEOE_1>
-0.38648286

>  <GCUT_PEOE_2>
-0.014663659

>  <GCUT_PEOE_3>
2.5488241

>  <GCUT_SLOGP_0>
-0.88695526

>  <GCUT_SLOGP_1>
-0.25096211

>  <GCUT_SLOGP_2>
0.0075285775

>  <GCUT_SLOGP_3>
2.7082191

>  <GCUT_SMR_0>
-0.48678795

>  <GCUT_SMR_1>
-0.16741191

>  <GCUT_SMR_2>
0.13488306

>  <GCUT_SMR_3>
2.8447495

>  <Kier1>
22.041666

>  <Kier2>
10.871094

>  <Kier3>
7.4243975

>  <KierA1>
16.560972

>  <KierA2>
8.0586691

>  <KierA3>
5.4504366

>  <KierFlex>
5.5608077

>  <lip_acc>
3

>  <lip_don>
1

>  <lip_druglike>
1

>  <lip_violation>
1

>  <logP(o/w)>
5.1259999

>  <logS>
-7.0777502

>  <mr>
9.8813686

>  <mutagenic>
0

>  <nmol>
1

>  <opr_brigid>
10

>  <opr_leadlike>
1

>  <opr_nring>
1

>  <opr_nrot>
6

>  <opr_violation>
1

>  <PC+>
0

>  <PC->
0

>  <PEOE_PC+>
1.6578621

>  <PEOE_PC->
-1.6578621

>  <PEOE_RPC+>
0.17146172

>  <PEOE_RPC->
0.20968758

>  <PEOE_VSA+0>
101.23335

>  <PEOE_VSA+1>
51.112381

>  <PEOE_VSA+2>
0

>  <PEOE_VSA+3>
0

>  <PEOE_VSA+4>
10.324173

>  <PEOE_VSA+5>
14.708499

>  <PEOE_VSA+6>
0

>  <PEOE_VSA-0>
117.03599

>  <PEOE_VSA-1>
63.483059

>  <PEOE_VSA-2>
0

>  <PEOE_VSA-3>
0

>  <PEOE_VSA-4>
0

>  <PEOE_VSA-5>
13.566921

>  <PEOE_VSA-6>
10.271297

>  <PEOE_VSA_FHYD>
0.87197715

>  <PEOE_VSA_FNEG>
0.53533709

>  <PEOE_VSA_FPNEG>
0.062446922

>  <PEOE_VSA_FPOL>
0.12802285

>  <PEOE_VSA_FPOS>
0.46466291

>  <PEOE_VSA_FPPOS>
0.065575927

>  <PEOE_VSA_HYD>
332.86478

>  <PEOE_VSA_NEG>
204.35727

>  <PEOE_VSA_PNEG>
23.838217

>  <PEOE_VSA_POL>
48.870888

>  <PEOE_VSA_POS>
177.3784

>  <PEOE_VSA_PPOS>
25.032671

>  <petitjean>
0.46666667

>  <petitjeanSC>
0.875

>  <Q_PC+>
0

>  <Q_PC->
0

>  <Q_RPC+>
0

>  <Q_RPC->
0

>  <Q_VSA_FHYD>
1

>  <Q_VSA_FNEG>
0

>  <Q_VSA_FPNEG>
0

>  <Q_VSA_FPOL>
0

>  <Q_VSA_FPOS>
1

>  <Q_VSA_FPPOS>
0

>  <Q_VSA_HYD>
381.73566

>  <Q_VSA_NEG>
0

>  <Q_VSA_PNEG>
0

>  <Q_VSA_POL>
0

>  <Q_VSA_POS>
381.73566

>  <Q_VSA_PPOS>
0

>  <radius>
8

>  <reactive>
0

>  <rings>
1

>  <RPC+>
0

>  <RPC->
0

>  <rsynth>
0.041666668

>  <SlogP>
5.1670599

>  <SlogP_VSA0>
10.999887

>  <SlogP_VSA1>
7.7454643

>  <SlogP_VSA2>
23.862217

>  <SlogP_VSA3>
25.385227

>  <SlogP_VSA4>
12.7423

>  <SlogP_VSA5>
41.755016

>  <SlogP_VSA6>
0

>  <SlogP_VSA7>
105.85911

>  <SlogP_VSA8>
17.643185

>  <SlogP_VSA9>
171.8735

>  <SMR>
10.05288

>  <SMR_VSA0>
23.862217

>  <SMR_VSA1>
10.999887

>  <SMR_VSA2>
25.385227

>  <SMR_VSA3>
24.356878

>  <SMR_VSA4>
0

>  <SMR_VSA5>
105.85911

>  <SMR_VSA6>
25.388649

>  <SMR_VSA7>
202.01395

>  <TPSA>
46.529999

>  <VAdjEq>
0.41381684

>  <VAdjMa>
5.5849624

>  <VDistEq>
3.6800525

>  <VDistMa>
8.8330154

>  <vdw_area>
381.73566

>  <vdw_vol>
492.06323

>  <vsa_acc>
2.503756

>  <vsa_acid>
0

>  <vsa_base>
0

>  <vsa_don>
0

>  <vsa_hyd>
315.06989

>  <vsa_other>
14.708499

>  <vsa_pol>
29.637598

>  <Weight>
326.436

>  <weinerPath>
1626

>  <weinerPol>
34

>  <zagreb>
112

$$$$