Clc1cccc(Cl)c1-c1noc(C)c1C(=O)N[C@H]1[C@H]2SC(C)(C)[C@@H](N2C1=O)C(O)=O
  MOE2013           2D

 30 33  0  0  1  0  0  0  0  0999 V2000
    0.0000    0.0000    0.0000 Cl  0  0  0  0  0  0  0  0  0  0  0  0
    1.2980   -0.7510    0.0000 C   0  0  0  0  0  0  0  0  0  0  0  0
    1.2970   -2.2510    0.0000 C   0  0  0  0  0  0  0  0  0  0  0  0
    2.5950   -3.0030    0.0000 C   0  0  0  0  0  0  0  0  0  0  0  0
    3.8950   -2.2540    0.0000 C   0  0  0  0  0  0  0  0  0  0  0  0
    3.8960   -0.7540    0.0000 C   0  0  0  0  0  0  0  0  0  0  0  0
    5.1960   -0.0050    0.0000 Cl  0  0  0  0  0  0  0  0  0  0  0  0
    2.5980   -0.0030    0.0000 C   0  0  0  0  0  0  0  0  0  0  0  0
    2.6000    1.4970    0.0000 C   0  0  0  0  0  0  0  0  0  0  0  0
    3.8140    2.3780    0.0000 N   0  0  0  0  0  0  0  0  0  0  0  0
    3.3520    3.8050    0.0000 O   0  0  0  0  0  0  0  0  0  0  0  0
    1.8520    3.8060    0.0000 C   0  0  0  0  0  0  0  0  0  0  0  0
    0.9720    5.0210    0.0000 C   0  0  0  0  0  0  0  0  0  0  0  0
    1.3870    2.3800    0.0000 C   0  0  0  0  0  0  0  0  0  0  0  0
   -0.0400    1.9180    0.0000 C   0  0  0  0  0  0  0  0  0  0  0  0
   -0.3530    0.4510    0.0000 O   0  0  0  0  0  0  0  0  0  0  0  0
   -1.1540    2.9230    0.0000 N   0  0  0  0  0  0  0  0  0  0  0  0
   -2.5810    2.4610    0.0000 C   0  0  1  0  0  0  0  0  0  0  0  0
   -3.9170    3.1430    0.0000 C   0  0  1  0  0  0  0  0  0  0  0  0
   -4.9760    4.2050    0.0000 S   0  0  0  0  0  0  0  0  0  0  0  0
   -6.3130    3.5260    0.0000 C   0  0  0  0  0  0  0  0  0  0  0  0
   -7.0790    4.8160    0.0000 C   0  0  0  0  0  0  0  0  0  0  0  0
   -7.8110    3.4420    0.0000 C   0  0  0  0  0  0  0  0  0  0  0  0
   -6.0800    2.0440    0.0000 C   0  0  1  0  0  0  0  0  0  0  0  0
   -4.5990    1.8080    0.0000 N   0  0  0  0  0  0  0  0  0  0  0  0
   -3.2630    1.1250    0.0000 C   0  0  0  0  0  0  0  0  0  0  0  0
   -2.8010   -0.3020    0.0000 O   0  0  0  0  0  0  0  0  0  0  0  0
   -7.1420    0.9840    0.0000 C   0  0  0  0  0  0  0  0  0  0  0  0
   -8.5900    1.3740    0.0000 O   0  0  0  0  0  0  0  0  0  0  0  0
   -6.7550   -0.4650    0.0000 O   0  0  0  0  0  0  0  0  0  0  0  0
  1  2  1  0  0  0  0
  2  3  1  0  0  0  0
  2  8  2  0  0  0  0
  3  4  2  0  0  0  0
  4  5  1  0  0  0  0
  5  6  2  0  0  0  0
  6  7  1  0  0  0  0
  6  8  1  0  0  0  0
  8  9  1  0  0  0  0
  9 10  2  0  0  0  0
  9 14  1  0  0  0  0
 10 11  1  0  0  0  0
 11 12  1  0  0  0  0
 12 13  1  0  0  0  0
 12 14  2  0  0  0  0
 14 15  1  0  0  0  0
 15 16  2  0  0  0  0
 15 17  1  0  0  0  0
 18 17  1  6  0  0  0
 18 19  1  0  0  0  0
 18 26  1  0  0  0  0
 19 20  1  6  0  0  0
 19 25  1  0  0  0  0
 20 21  1  0  0  0  0
 21 22  1  0  0  0  0
 21 23  1  0  0  0  0
 21 24  1  0  0  0  0
 24 25  1  0  0  0  0
 24 28  1  1  0  0  0
 25 26  1  0  0  0  0
 26 27  2  0  0  0  0
 28 29  1  0  0  0  0
 28 30  2  0  0  0  0
M  END
>  <Index>
1525

>  <ID>
HT0649

>  <class>
1

>  <apol>
59.345482

>  <ast_fraglike>
0

>  <ast_fraglike_ext>
0

>  <ast_violation>
3

>  <ast_violation_ext>
5

>  <a_acc>
5

>  <a_acid>
0

>  <a_aro>
11

>  <a_base>
0

>  <a_count>
47

>  <a_don>
3

>  <a_donacc>
8

>  <a_heavy>
30

>  <a_hyd>
18

>  <a_IC>
92.503654

>  <a_ICM>
1.9681629

>  <a_nB>
0

>  <a_nBr>
0

>  <a_nC>
19

>  <a_nCl>
2

>  <a_nF>
0

>  <a_nH>
17

>  <a_nI>
0

>  <a_nN>
3

>  <a_nO>
5

>  <a_nP>
0

>  <a_nS>
1

>  <balabanJ>
1.4640665

>  <BCUT_PEOE_0>
-2.6399872

>  <BCUT_PEOE_1>
-0.54050595

>  <BCUT_PEOE_2>
0.55212778

>  <BCUT_PEOE_3>
2.8493981

>  <BCUT_SLOGP_0>
-2.8950081

>  <BCUT_SLOGP_1>
-0.42610911

>  <BCUT_SLOGP_2>
0.66862565

>  <BCUT_SLOGP_3>
2.7542524

>  <BCUT_SMR_0>
-2.3874586

>  <BCUT_SMR_1>
-0.3256104

>  <BCUT_SMR_2>
0.76632589

>  <BCUT_SMR_3>
3.1303577

>  <bpol>
29.13452

>  <b_1rotN>
4

>  <b_1rotR>
0.12121212

>  <b_ar>
11

>  <b_count>
50

>  <b_double>
3

>  <b_heavy>
33

>  <b_max1len>
4

>  <b_rotN>
5

>  <b_rotR>
0.15151516

>  <b_single>
36

>  <b_triple>
0

>  <chi0>
21.955301

>  <chi0v>
18.431267

>  <chi0v_C>
11.464102

>  <chi0_C>
12.549523

>  <chi1>
14.041418

>  <chi1v>
10.621713

>  <chi1v_C>
5.4433756

>  <chi1_C>
6.6825218

>  <chiral>
3

>  <chiral_u>
0

>  <density>
0.90730274

>  <diameter>
13

>  <FCharge>
0

>  <GCUT_PEOE_0>
-0.83718973

>  <GCUT_PEOE_1>
-0.40819737

>  <GCUT_PEOE_2>
0.054074358

>  <GCUT_PEOE_3>
2.7330859

>  <GCUT_SLOGP_0>
-1.1640159

>  <GCUT_SLOGP_1>
-0.36203492

>  <GCUT_SLOGP_2>
0.15174411

>  <GCUT_SLOGP_3>
2.7164567

>  <GCUT_SMR_0>
-0.53651828

>  <GCUT_SMR_1>
-0.19640408

>  <GCUT_SMR_2>
0.27126062

>  <GCUT_SMR_3>
3.0031314

>  <Kier1>
23.168043

>  <Kier2>
8.4082842

>  <Kier3>
3.8655953

>  <KierA1>
20.881771

>  <KierA2>
7.5502791

>  <KierA3>
3.461973

>  <KierFlex>
5.2554402

>  <lip_acc>
8

>  <lip_don>
2

>  <lip_druglike>
1

>  <lip_violation>
0

>  <logP(o/w)>
3.1400001

>  <logS>
-6.2416401

>  <mr>
11.318234

>  <mutagenic>
0

>  <nmol>
1

>  <opr_brigid>
19

>  <opr_leadlike>
1

>  <opr_nring>
4

>  <opr_nrot>
4

>  <opr_violation>
1

>  <PC+>
0

>  <PC->
0

>  <PEOE_PC+>
2.7508712

>  <PEOE_PC->
-2.7508712

>  <PEOE_RPC+>
0.10315878

>  <PEOE_RPC->
0.13034016

>  <PEOE_VSA+0>
40.597015

>  <PEOE_VSA+1>
34.631809

>  <PEOE_VSA+2>
28.780554

>  <PEOE_VSA+3>
8.6190128

>  <PEOE_VSA+4>
10.324173

>  <PEOE_VSA+5>
40.607563

>  <PEOE_VSA+6>
0

>  <PEOE_VSA-0>
80.752838

>  <PEOE_VSA-1>
82.304062

>  <PEOE_VSA-2>
19.760618

>  <PEOE_VSA-3>
0

>  <PEOE_VSA-4>
0

>  <PEOE_VSA-5>
40.700764

>  <PEOE_VSA-6>
13.80679

>  <PEOE_VSA_FHYD>
0.73698384

>  <PEOE_VSA_FNEG>
0.59200257

>  <PEOE_VSA_FPNEG>
0.13596798

>  <PEOE_VSA_FPOL>
0.26301616

>  <PEOE_VSA_FPOS>
0.40799743

>  <PEOE_VSA_FPPOS>
0.12704818

>  <PEOE_VSA_HYD>
295.44589

>  <PEOE_VSA_NEG>
237.32507

>  <PEOE_VSA_PNEG>
54.507553

>  <PEOE_VSA_POL>
105.43929

>  <PEOE_VSA_POS>
163.56012

>  <PEOE_VSA_PPOS>
50.931732

>  <petitjean>
0.46153846

>  <petitjeanSC>
0.85714287

>  <Q_PC+>
0

>  <Q_PC->
0

>  <Q_RPC+>
0

>  <Q_RPC->
0

>  <Q_VSA_FHYD>
1

>  <Q_VSA_FNEG>
0

>  <Q_VSA_FPNEG>
0

>  <Q_VSA_FPOL>
0

>  <Q_VSA_FPOS>
1

>  <Q_VSA_FPPOS>
0

>  <Q_VSA_HYD>
400.88519

>  <Q_VSA_NEG>
0

>  <Q_VSA_PNEG>
0

>  <Q_VSA_POL>
0

>  <Q_VSA_POS>
400.88519

>  <Q_VSA_PPOS>
0

>  <radius>
7

>  <reactive>
0

>  <rings>
4

>  <RPC+>
0

>  <RPC->
0

>  <rsynth>
1

>  <SlogP>
3.2021201

>  <SlogP_VSA0>
18.01075

>  <SlogP_VSA1>
40.98394

>  <SlogP_VSA2>
58.035496

>  <SlogP_VSA3>
25.385227

>  <SlogP_VSA4>
32.496613

>  <SlogP_VSA5>
9.7341213

>  <SlogP_VSA6>
7.0012131

>  <SlogP_VSA7>
58.871876

>  <SlogP_VSA8>
0

>  <SlogP_VSA9>
210.49487

>  <SMR>
11.1679

>  <SMR_VSA0>
81.32077

>  <SMR_VSA1>
22.720911

>  <SMR_VSA2>
43.395977

>  <SMR_VSA3>
25.946674

>  <SMR_VSA4>
5.9423227

>  <SMR_VSA5>
52.929554

>  <SMR_VSA6>
18.263031

>  <SMR_VSA7>
210.49487

>  <TPSA>
112.74

>  <VAdjEq>
0.37824166

>  <VAdjMa>
6.044394

>  <VDistEq>
3.5059464

>  <VDistMa>
9.5333061

>  <vdw_area>
400.88519

>  <vdw_vol>
518.38599

>  <vsa_acc>
38.019104

>  <vsa_acid>
0

>  <vsa_base>
0

>  <vsa_don>
5.6825762

>  <vsa_hyd>
256.80618

>  <vsa_other>
54.968441

>  <vsa_pol>
70.835518

>  <Weight>
470.33298

>  <weinerPath>
2402

>  <weinerPol>
53

>  <zagreb>
170

$$$$