S1Cc2c(cccc2)C(c2c1cccc2)=CCCN(C)C
  MOE2013           2D

 21 23  0  0  0  0  0  0  0  0999 V2000
    0.0000    0.0000    0.0000 S   0  0  0  0  0  0  0  0  0  0  0  0
   -1.3560    0.6420    0.0000 C   0  0  0  0  0  0  0  0  0  0  0  0
   -1.7000    2.1020    0.0000 C   0  0  0  0  0  0  0  0  0  0  0  0
   -0.7730    3.2820    0.0000 C   0  0  0  0  0  0  0  0  0  0  0  0
   -1.3320    4.6740    0.0000 C   0  0  0  0  0  0  0  0  0  0  0  0
   -2.8170    4.8860    0.0000 C   0  0  0  0  0  0  0  0  0  0  0  0
   -3.7430    3.7060    0.0000 C   0  0  0  0  0  0  0  0  0  0  0  0
   -3.1850    2.3140    0.0000 C   0  0  0  0  0  0  0  0  0  0  0  0
    0.7270    3.2940    0.0000 C   0  0  0  0  0  0  0  0  0  0  0  0
    1.6690    2.1260    0.0000 C   0  0  0  0  0  0  0  0  0  0  0  0
    1.3460    0.6610    0.0000 C   0  0  0  0  0  0  0  0  0  0  0  0
    2.4530   -0.3510    0.0000 C   0  0  0  0  0  0  0  0  0  0  0  0
    3.8830    0.1020    0.0000 C   0  0  0  0  0  0  0  0  0  0  0  0
    4.2070    1.5670    0.0000 C   0  0  0  0  0  0  0  0  0  0  0  0
    3.1000    2.5790    0.0000 C   0  0  0  0  0  0  0  0  0  0  0  0
    1.3670    4.6500    0.0000 C   0  0  0  0  0  0  0  0  0  0  0  0
    2.8620    4.7730    0.0000 C   0  0  0  0  0  0  0  0  0  0  0  0
    3.5030    6.1300    0.0000 C   0  0  0  0  0  0  0  0  0  0  0  0
    4.9980    6.2530    0.0000 N   0  0  0  0  0  0  0  0  0  0  0  0
    5.8520    5.0200    0.0000 C   0  0  0  0  0  0  0  0  0  0  0  0
    5.6390    7.6090    0.0000 C   0  0  0  0  0  0  0  0  0  0  0  0
  1  2  1  0  0  0  0
  1 11  1  0  0  0  0
  2  3  1  0  0  0  0
  3  4  1  0  0  0  0
  3  8  2  0  0  0  0
  4  5  2  0  0  0  0
  4  9  1  0  0  0  0
  5  6  1  0  0  0  0
  6  7  2  0  0  0  0
  7  8  1  0  0  0  0
  9 10  1  0  0  0  0
  9 16  2  3  0  0  0
 10 11  1  0  0  0  0
 10 15  2  0  0  0  0
 11 12  2  0  0  0  0
 12 13  1  0  0  0  0
 13 14  2  0  0  0  0
 14 15  1  0  0  0  0
 16 17  1  0  0  0  0
 17 18  1  0  0  0  0
 18 19  1  0  0  0  0
 19 20  1  0  0  0  0
 19 21  1  0  0  0  0
M  END
>  <Index>
1538

>  <ID>
HT0712

>  <class>
1

>  <apol>
51.442654

>  <ast_fraglike>
0

>  <ast_fraglike_ext>
0

>  <ast_violation>
1

>  <ast_violation_ext>
1

>  <a_acc>
1

>  <a_acid>
0

>  <a_aro>
12

>  <a_base>
0

>  <a_count>
42

>  <a_don>
0

>  <a_donacc>
1

>  <a_heavy>
21

>  <a_hyd>
20

>  <a_IC>
53.528042

>  <a_ICM>
1.2744772

>  <a_nB>
0

>  <a_nBr>
0

>  <a_nC>
19

>  <a_nCl>
0

>  <a_nF>
0

>  <a_nH>
21

>  <a_nI>
0

>  <a_nN>
1

>  <a_nO>
0

>  <a_nP>
0

>  <a_nS>
1

>  <balabanJ>
1.7133598

>  <BCUT_PEOE_0>
-2.6075609

>  <BCUT_PEOE_1>
-0.55693126

>  <BCUT_PEOE_2>
0.60754043

>  <BCUT_PEOE_3>
2.4969435

>  <BCUT_SLOGP_0>
-2.6599531

>  <BCUT_SLOGP_1>
-0.43704656

>  <BCUT_SLOGP_2>
0.71601951

>  <BCUT_SLOGP_3>
2.5991445

>  <BCUT_SMR_0>
-2.3218937

>  <BCUT_SMR_1>
-0.40710983

>  <BCUT_SMR_2>
0.76078999

>  <BCUT_SMR_3>
2.7829607

>  <bpol>
27.217346

>  <b_1rotN>
3

>  <b_1rotR>
0.13043478

>  <b_ar>
12

>  <b_count>
44

>  <b_double>
1

>  <b_heavy>
23

>  <b_max1len>
6

>  <b_rotN>
3

>  <b_rotR>
0.13043478

>  <b_single>
31

>  <b_triple>
0

>  <chi0>
14.656489

>  <chi0v>
13.489431

>  <chi0v_C>
11.817472

>  <chi0_C>
13.372033

>  <chi1>
10.25402

>  <chi1v>
8.3942299

>  <chi1v_C>
5.7051773

>  <chi1_C>
7.7828231

>  <chiral>
0

>  <chiral_u>
0

>  <density>
0.67867106

>  <diameter>
9

>  <FCharge>
0

>  <GCUT_PEOE_0>
-0.86319816

>  <GCUT_PEOE_1>
-0.35797781

>  <GCUT_PEOE_2>
0.049103964

>  <GCUT_PEOE_3>
2.6310785

>  <GCUT_SLOGP_0>
-0.95306075

>  <GCUT_SLOGP_1>
-0.23692796

>  <GCUT_SLOGP_2>
0.14157531

>  <GCUT_SLOGP_3>
2.7866149

>  <GCUT_SMR_0>
-0.51706135

>  <GCUT_SMR_1>
-0.18308842

>  <GCUT_SMR_2>
0.1669939

>  <GCUT_SMR_3>
2.942009

>  <Kier1>
15.879017

>  <Kier2>
7.5130072

>  <Kier3>
3.8548484

>  <KierA1>
12.981449

>  <KierA2>
6.0760036

>  <KierA3>
3.0917277

>  <KierFlex>
3.7559679

>  <lip_acc>
1

>  <lip_don>
0

>  <lip_druglike>
1

>  <lip_violation>
0

>  <logP(o/w)>
4.8010001

>  <logS>
-4.5653601

>  <mr>
9.2366171

>  <mutagenic>
0

>  <nmol>
1

>  <opr_brigid>
18

>  <opr_leadlike>
1

>  <opr_nring>
3

>  <opr_nrot>
3

>  <opr_violation>
1

>  <PC+>
0

>  <PC->
0

>  <PEOE_PC+>
1.0662268

>  <PEOE_PC->
-1.0662268

>  <PEOE_RPC+>
0.058965251

>  <PEOE_RPC->
0.28891844

>  <PEOE_VSA+0>
79.23893

>  <PEOE_VSA+1>
38.388474

>  <PEOE_VSA+2>
0

>  <PEOE_VSA+3>
0

>  <PEOE_VSA+4>
0

>  <PEOE_VSA+5>
0

>  <PEOE_VSA+6>
0

>  <PEOE_VSA-0>
76.267754

>  <PEOE_VSA-1>
98.03923

>  <PEOE_VSA-2>
19.760618

>  <PEOE_VSA-3>
0

>  <PEOE_VSA-4>
0

>  <PEOE_VSA-5>
0

>  <PEOE_VSA-6>
0

>  <PEOE_VSA_FHYD>
1

>  <PEOE_VSA_FNEG>
0.62262017

>  <PEOE_VSA_FPNEG>
0

>  <PEOE_VSA_FPOL>
0

>  <PEOE_VSA_FPOS>
0.37737983

>  <PEOE_VSA_FPPOS>
0

>  <PEOE_VSA_HYD>
311.69501

>  <PEOE_VSA_NEG>
194.0676

>  <PEOE_VSA_PNEG>
0

>  <PEOE_VSA_POL>
0

>  <PEOE_VSA_POS>
117.62741

>  <PEOE_VSA_PPOS>
0

>  <petitjean>
0.44444445

>  <petitjeanSC>
0.80000001

>  <Q_PC+>
0

>  <Q_PC->
0

>  <Q_RPC+>
0

>  <Q_RPC->
0

>  <Q_VSA_FHYD>
1

>  <Q_VSA_FNEG>
0

>  <Q_VSA_FPNEG>
0

>  <Q_VSA_FPOL>
0

>  <Q_VSA_FPOS>
1

>  <Q_VSA_FPPOS>
0

>  <Q_VSA_HYD>
311.69501

>  <Q_VSA_NEG>
0

>  <Q_VSA_PNEG>
0

>  <Q_VSA_POL>
0

>  <Q_VSA_POS>
311.69501

>  <Q_VSA_PPOS>
0

>  <radius>
5

>  <reactive>
0

>  <rings>
3

>  <RPC+>
0

>  <RPC->
0

>  <rsynth>
0

>  <SlogP>
4.7593899

>  <SlogP_VSA0>
0

>  <SlogP_VSA1>
3.1243138

>  <SlogP_VSA2>
0

>  <SlogP_VSA3>
21.625153

>  <SlogP_VSA4>
9.5567245

>  <SlogP_VSA5>
67.345108

>  <SlogP_VSA6>
0

>  <SlogP_VSA7>
158.78867

>  <SlogP_VSA8>
18.868406

>  <SlogP_VSA9>
49.453106

>  <SMR>
9.1838999

>  <SMR_VSA0>
0

>  <SMR_VSA1>
3.1243138

>  <SMR_VSA2>
4.7363091

>  <SMR_VSA3>
9.5567245

>  <SMR_VSA4>
0

>  <SMR_VSA5>
194.89062

>  <SMR_VSA6>
18.439579

>  <SMR_VSA7>
98.013916

>  <TPSA>
3.24

>  <VAdjEq>
0.48250595

>  <VAdjMa>
5.523562

>  <VDistEq>
3.0281317

>  <VDistMa>
8.515563

>  <vdw_area>
311.69501

>  <vdw_vol>
435.33606

>  <vsa_acc>
0

>  <vsa_acid>
0

>  <vsa_base>
0

>  <vsa_don>
0

>  <vsa_hyd>
296.74731

>  <vsa_other>
0

>  <vsa_pol>
0

>  <Weight>
295.44998

>  <weinerPath>
882

>  <weinerPol>
35

>  <zagreb>
108

$$$$