O[C@@H]1CC[C@]2([C@@H](C1)C[C@@H](O)[C@H]1[C@@H]3CC[C@H]([C@@H](CCC(O)=O)C)[C@]3(CC[C@@H]12)C)C
  MOE2013           2D

 28 31  0  0  1  0  0  0  0  0999 V2000
    0.0000    0.0000    0.0000 O   0  0  0  0  0  0  0  0  0  0  0  0
   -1.5000    0.0010    0.0000 C   0  0  2  0  0  0  0  0  0  0  0  0
   -2.2510   -1.2980    0.0000 C   0  0  0  0  0  0  0  0  0  0  0  0
   -3.7510   -1.2970    0.0000 C   0  0  0  0  0  0  0  0  0  0  0  0
   -4.5000    0.0020    0.0000 C   0  0  1  0  0  0  0  0  0  0  0  0
   -3.7490    1.3010    0.0000 C   0  0  1  0  0  0  0  0  0  0  0  0
   -2.2490    1.3000    0.0000 C   0  0  0  0  0  0  0  0  0  0  0  0
   -4.4990    2.6000    0.0000 C   0  0  0  0  0  0  0  0  0  0  0  0
   -5.9990    2.6010    0.0000 C   0  0  1  0  0  0  0  0  0  0  0  0
   -6.7480    3.9010    0.0000 O   0  0  0  0  0  0  0  0  0  0  0  0
   -6.7490    1.3030    0.0000 C   0  0  1  0  0  0  0  0  0  0  0  0
   -8.2490    1.3030    0.0000 C   0  0  2  0  0  0  0  0  0  0  0  0
   -9.2520    2.4190    0.0000 C   0  0  0  0  0  0  0  0  0  0  0  0
  -10.6230    1.8090    0.0000 C   0  0  0  0  0  0  0  0  0  0  0  0
  -10.4670    0.3170    0.0000 C   0  0  2  0  0  0  0  0  0  0  0  0
  -11.5820   -0.6860    0.0000 C   0  0  1  0  0  0  0  0  0  0  0  0
  -13.0090   -0.2220    0.0000 C   0  0  0  0  0  0  0  0  0  0  0  0
  -14.1240   -1.2250    0.0000 C   0  0  0  0  0  0  0  0  0  0  0  0
  -15.5500   -0.7600    0.0000 C   0  0  0  0  0  0  0  0  0  0  0  0
  -16.6650   -1.7640    0.0000 O   0  0  0  0  0  0  0  0  0  0  0  0
  -15.8610    0.7070    0.0000 O   0  0  0  0  0  0  0  0  0  0  0  0
  -11.2710   -2.1530    0.0000 C   0  0  0  0  0  0  0  0  0  0  0  0
   -9.0000    0.0050    0.0000 C   0  0  1  0  0  0  0  0  0  0  0  0
   -8.2510   -1.2950    0.0000 C   0  0  0  0  0  0  0  0  0  0  0  0
   -6.7510   -1.2960    0.0000 C   0  0  0  0  0  0  0  0  0  0  0  0
   -6.0000    0.0030    0.0000 C   0  0  2  0  0  0  0  0  0  0  0  0
   -9.8820   -1.2080    0.0000 C   0  0  0  0  0  0  0  0  0  0  0  0
   -5.2730   -1.2830    0.0000 C   0  0  0  0  0  0  0  0  0  0  0  0
  2  1  1  6  0  0  0
  2  3  1  0  0  0  0
  2  7  1  0  0  0  0
  3  4  1  0  0  0  0
  4  5  1  0  0  0  0
  5  6  1  0  0  0  0
  5 26  1  0  0  0  0
  5 28  1  1  0  0  0
  6  7  1  6  0  0  0
  6  8  1  0  0  0  0
  8  9  1  0  0  0  0
  9 10  1  6  0  0  0
 11  9  1  6  0  0  0
 11 12  1  0  0  0  0
 11 26  1  0  0  0  0
 12 13  1  1  0  0  0
 12 23  1  0  0  0  0
 13 14  1  0  0  0  0
 15 14  1  1  0  0  0
 15 16  1  0  0  0  0
 15 23  1  0  0  0  0
 16 17  1  0  0  0  0
 16 22  1  6  0  0  0
 17 18  1  0  0  0  0
 18 19  1  0  0  0  0
 19 20  1  0  0  0  0
 19 21  2  0  0  0  0
 23 24  1  0  0  0  0
 23 27  1  1  0  0  0
 24 25  1  0  0  0  0
 26 25  1  1  0  0  0
M  END
>  <Index>
1487

>  <ID>
HT0441

>  <class>
1

>  <apol>
72.11972

>  <ast_fraglike>
0

>  <ast_fraglike_ext>
0

>  <ast_violation>
4

>  <ast_violation_ext>
5

>  <a_acc>
4

>  <a_acid>
0

>  <a_aro>
0

>  <a_base>
0

>  <a_count>
68

>  <a_don>
4

>  <a_donacc>
8

>  <a_heavy>
28

>  <a_hyd>
23

>  <a_IC>
83.03125

>  <a_ICM>
1.2210478

>  <a_nB>
0

>  <a_nBr>
0

>  <a_nC>
24

>  <a_nCl>
0

>  <a_nF>
0

>  <a_nH>
40

>  <a_nI>
0

>  <a_nN>
0

>  <a_nO>
4

>  <a_nP>
0

>  <a_nS>
0

>  <balabanJ>
1.5474879

>  <BCUT_PEOE_0>
-2.9961019

>  <BCUT_PEOE_1>
-0.49881086

>  <BCUT_PEOE_2>
0.53982604

>  <BCUT_PEOE_3>
2.993263

>  <BCUT_SLOGP_0>
-2.9445214

>  <BCUT_SLOGP_1>
-0.47845179

>  <BCUT_SLOGP_2>
0.47193208

>  <BCUT_SLOGP_3>
3.0657229

>  <BCUT_SMR_0>
-2.7463081

>  <BCUT_SMR_1>
-0.36258399

>  <BCUT_SMR_2>
0.63055426

>  <BCUT_SMR_3>
3.2457106

>  <bpol>
44.686279

>  <b_1rotN>
4

>  <b_1rotR>
0.12903225

>  <b_ar>
0

>  <b_count>
71

>  <b_double>
1

>  <b_heavy>
31

>  <b_max1len>
5

>  <b_rotN>
4

>  <b_rotR>
0.12903225

>  <b_single>
70

>  <b_triple>
0

>  <chi0>
20.26722

>  <chi0v>
17.939758

>  <chi0v_C>
16.189871

>  <chi0_C>
16.26722

>  <chi1>
13.164375

>  <chi1v>
11.744408

>  <chi1v_C>
10.800279

>  <chi1_C>
10.854974

>  <chiral>
10

>  <chiral_u>
0

>  <density>
0.68710047

>  <diameter>
14

>  <FCharge>
0

>  <GCUT_PEOE_0>
-0.80926043

>  <GCUT_PEOE_1>
-0.36225617

>  <GCUT_PEOE_2>
0.05990928

>  <GCUT_PEOE_3>
3.5011325

>  <GCUT_SLOGP_0>
-0.88419402

>  <GCUT_SLOGP_1>
-0.31324583

>  <GCUT_SLOGP_2>
0.022751499

>  <GCUT_SLOGP_3>
3.5782082

>  <GCUT_SMR_0>
-0.54342794

>  <GCUT_SMR_1>
-0.2196715

>  <GCUT_SMR_2>
0.14765774

>  <GCUT_SMR_3>
3.7182961

>  <Kier1>
21.240376

>  <Kier2>
7.6018324

>  <Kier3>
3.4489796

>  <KierA1>
20.548443

>  <KierA2>
7.3448911

>  <KierA3>
3.3294089

>  <KierFlex>
5.3902168

>  <lip_acc>
4

>  <lip_don>
3

>  <lip_druglike>
1

>  <lip_violation>
0

>  <logP(o/w)>
4.914

>  <logS>
-6.2638502

>  <mr>
10.928799

>  <mutagenic>
0

>  <nmol>
1

>  <opr_brigid>
20

>  <opr_leadlike>
1

>  <opr_nring>
4

>  <opr_nrot>
4

>  <opr_violation>
0

>  <PC+>
0

>  <PC->
0

>  <PEOE_PC+>
2.1360812

>  <PEOE_PC->
-2.1360812

>  <PEOE_RPC+>
0.12152935

>  <PEOE_RPC->
0.18340905

>  <PEOE_VSA+0>
157.98982

>  <PEOE_VSA+1>
18.34063

>  <PEOE_VSA+2>
0

>  <PEOE_VSA+3>
0

>  <PEOE_VSA+4>
30.972517

>  <PEOE_VSA+5>
14.708499

>  <PEOE_VSA+6>
0

>  <PEOE_VSA-0>
78.311821

>  <PEOE_VSA-1>
56.243034

>  <PEOE_VSA-2>
0

>  <PEOE_VSA-3>
0

>  <PEOE_VSA-4>
0

>  <PEOE_VSA-5>
13.566921

>  <PEOE_VSA-6>
23.30262

>  <PEOE_VSA_FHYD>
0.79018039

>  <PEOE_VSA_FNEG>
0.43571115

>  <PEOE_VSA_FPNEG>
0.093711697

>  <PEOE_VSA_FPOL>
0.20981961

>  <PEOE_VSA_FPOS>
0.56428885

>  <PEOE_VSA_FPPOS>
0.11610791

>  <PEOE_VSA_HYD>
310.88531

>  <PEOE_VSA_NEG>
171.42439

>  <PEOE_VSA_PNEG>
36.869541

>  <PEOE_VSA_POL>
82.55056

>  <PEOE_VSA_POS>
222.01147

>  <PEOE_VSA_PPOS>
45.681019

>  <petitjean>
0.5

>  <petitjeanSC>
1

>  <Q_PC+>
0

>  <Q_PC->
0

>  <Q_RPC+>
0

>  <Q_RPC->
0

>  <Q_VSA_FHYD>
1

>  <Q_VSA_FNEG>
0

>  <Q_VSA_FPNEG>
0

>  <Q_VSA_FPOL>
0

>  <Q_VSA_FPOS>
1

>  <Q_VSA_FPPOS>
0

>  <Q_VSA_HYD>
393.43585

>  <Q_VSA_NEG>
0

>  <Q_VSA_PNEG>
0

>  <Q_VSA_POL>
0

>  <Q_VSA_POS>
393.43585

>  <Q_VSA_PPOS>
0

>  <radius>
7

>  <reactive>
0

>  <rings>
4

>  <RPC+>
0

>  <RPC->
0

>  <rsynth>
0

>  <SlogP>
4.4779

>  <SlogP_VSA0>
50.770454

>  <SlogP_VSA1>
7.7454643

>  <SlogP_VSA2>
36.799515

>  <SlogP_VSA3>
25.385227

>  <SlogP_VSA4>
26.464777

>  <SlogP_VSA5>
0

>  <SlogP_VSA6>
0

>  <SlogP_VSA7>
0

>  <SlogP_VSA8>
188.68405

>  <SlogP_VSA9>
99.978043

>  <SMR>
10.86474

>  <SMR_VSA0>
23.862217

>  <SMR_VSA1>
50.770454

>  <SMR_VSA2>
51.850002

>  <SMR_VSA3>
12.937299

>  <SMR_VSA4>
0

>  <SMR_VSA5>
188.68405

>  <SMR_VSA6>
7.7454643

>  <SMR_VSA7>
99.978043

>  <TPSA>
77.760002

>  <VAdjEq>
0.39893496

>  <VAdjMa>
5.9541965

>  <VDistEq>
3.4350963

>  <VDistMa>
9.3212967

>  <vdw_area>
393.43585

>  <vdw_vol>
571.35748

>  <vsa_acc>
0

>  <vsa_acid>
0

>  <vsa_base>
0

>  <vsa_don>
0

>  <vsa_hyd>
276.47858

>  <vsa_other>
14.708499

>  <vsa_pol>
54.267685

>  <Weight>
392.57999

>  <weinerPath>
1910

>  <weinerPol>
56

>  <zagreb>
160

$$$$