Clc1ccc(cc1)C(N1CCN(CC1)CCOCCOC(=O)c1cc2c(cccc2)c(Cc2c3c(cc(C(O)=O)c2O)cccc3)c1O)c1ccccc1
  MOE2013           2D

 54 60  0  0  1  0  0  0  0  0999 V2000
    0.0000    0.0000    0.0000 Cl  0  0  0  0  0  0  0  0  0  0  0  0
   -1.2970   -0.7530    0.0000 C   0  0  0  0  0  0  0  0  0  0  0  0
   -2.5980   -0.0070    0.0000 C   0  0  0  0  0  0  0  0  0  0  0  0
   -3.8950   -0.7600    0.0000 C   0  0  0  0  0  0  0  0  0  0  0  0
   -3.8910   -2.2600    0.0000 C   0  0  0  0  0  0  0  0  0  0  0  0
   -2.5900   -3.0070    0.0000 C   0  0  0  0  0  0  0  0  0  0  0  0
   -1.2930   -2.2530    0.0000 C   0  0  0  0  0  0  0  0  0  0  0  0
   -5.1880   -3.0140    0.0000 C   0  0  3  0  0  0  0  0  0  0  0  0
   -6.4890   -2.2670    0.0000 N   0  0  0  0  0  0  0  0  0  0  0  0
   -7.7860   -3.0210    0.0000 C   0  0  0  0  0  0  0  0  0  0  0  0
   -9.0870   -2.2740    0.0000 C   0  0  0  0  0  0  0  0  0  0  0  0
   -9.0910   -0.7740    0.0000 N   0  0  0  0  0  0  0  0  0  0  0  0
   -7.7940   -0.0210    0.0000 C   0  0  0  0  0  0  0  0  0  0  0  0
   -6.4930   -0.7670    0.0000 C   0  0  0  0  0  0  0  0  0  0  0  0
  -10.3920   -0.0280    0.0000 C   0  0  0  0  0  0  0  0  0  0  0  0
  -11.6890   -0.7810    0.0000 C   0  0  0  0  0  0  0  0  0  0  0  0
  -12.9900   -0.0350    0.0000 O   0  0  0  0  0  0  0  0  0  0  0  0
  -14.2870   -0.7880    0.0000 C   0  0  0  0  0  0  0  0  0  0  0  0
  -15.5880   -0.0420    0.0000 C   0  0  0  0  0  0  0  0  0  0  0  0
  -16.8850   -0.7950    0.0000 O   0  0  0  0  0  0  0  0  0  0  0  0
  -18.1860   -0.0490    0.0000 C   0  0  0  0  0  0  0  0  0  0  0  0
  -18.1900    1.4510    0.0000 O   0  0  0  0  0  0  0  0  0  0  0  0
  -19.4830   -0.8020    0.0000 C   0  0  0  0  0  0  0  0  0  0  0  0
  -19.4790   -2.3020    0.0000 C   0  0  0  0  0  0  0  0  0  0  0  0
  -20.7760   -3.0560    0.0000 C   0  0  0  0  0  0  0  0  0  0  0  0
  -22.0780   -2.3090    0.0000 C   0  0  0  0  0  0  0  0  0  0  0  0
  -23.3750   -3.0630    0.0000 C   0  0  0  0  0  0  0  0  0  0  0  0
  -23.3710   -4.5630    0.0000 C   0  0  0  0  0  0  0  0  0  0  0  0
  -22.0690   -5.3090    0.0000 C   0  0  0  0  0  0  0  0  0  0  0  0
  -20.7720   -4.5560    0.0000 C   0  0  0  0  0  0  0  0  0  0  0  0
  -22.0820   -0.8090    0.0000 C   0  0  0  0  0  0  0  0  0  0  0  0
  -23.4920   -0.3000    0.0000 C   0  0  0  0  0  0  0  0  0  0  0  0
  -23.7570    1.1770    0.0000 C   0  0  0  0  0  0  0  0  0  0  0  0
  -25.2570    1.1730    0.0000 C   0  0  0  0  0  0  0  0  0  0  0  0
  -26.0100    2.4700    0.0000 C   0  0  0  0  0  0  0  0  0  0  0  0
  -25.2640    3.7710    0.0000 C   0  0  0  0  0  0  0  0  0  0  0  0
  -23.7640    3.7750    0.0000 C   0  0  0  0  0  0  0  0  0  0  0  0
  -23.0170    5.0760    0.0000 C   0  0  0  0  0  0  0  0  0  0  0  0
  -23.7710    6.3730    0.0000 O   0  0  0  0  0  0  0  0  0  0  0  0
  -21.5170    5.0800    0.0000 O   0  0  0  0  0  0  0  0  0  0  0  0
  -23.0100    2.4780    0.0000 C   0  0  0  0  0  0  0  0  0  0  0  0
  -21.6020    2.9940    0.0000 O   0  0  0  0  0  0  0  0  0  0  0  0
  -27.5100    2.4660    0.0000 C   0  0  0  0  0  0  0  0  0  0  0  0
  -28.2570    1.1650    0.0000 C   0  0  0  0  0  0  0  0  0  0  0  0
  -27.5030   -0.1330    0.0000 C   0  0  0  0  0  0  0  0  0  0  0  0
  -26.0030   -0.1280    0.0000 C   0  0  0  0  0  0  0  0  0  0  0  0
  -20.7850   -0.0560    0.0000 C   0  0  0  0  0  0  0  0  0  0  0  0
  -20.7890    1.4440    0.0000 O   0  0  0  0  0  0  0  0  0  0  0  0
   -5.1840   -4.5140    0.0000 C   0  0  0  0  0  0  0  0  0  0  0  0
   -3.8830   -5.2600    0.0000 C   0  0  0  0  0  0  0  0  0  0  0  0
   -3.8790   -6.7600    0.0000 C   0  0  0  0  0  0  0  0  0  0  0  0
   -5.1760   -7.5140    0.0000 C   0  0  0  0  0  0  0  0  0  0  0  0
   -6.4770   -6.7670    0.0000 C   0  0  0  0  0  0  0  0  0  0  0  0
   -6.4810   -5.2670    0.0000 C   0  0  0  0  0  0  0  0  0  0  0  0
  1  2  1  0  0  0  0
  2  3  1  0  0  0  0
  2  7  2  0  0  0  0
  3  4  2  0  0  0  0
  4  5  1  0  0  0  0
  5  6  2  0  0  0  0
  5  8  1  0  0  0  0
  6  7  1  0  0  0  0
  8  9  1  0  0  0  0
  8 49  1  0  0  0  0
  9 10  1  0  0  0  0
  9 14  1  0  0  0  0
 10 11  1  0  0  0  0
 11 12  1  0  0  0  0
 12 13  1  0  0  0  0
 12 15  1  0  0  0  0
 13 14  1  0  0  0  0
 15 16  1  0  0  0  0
 16 17  1  0  0  0  0
 17 18  1  0  0  0  0
 18 19  1  0  0  0  0
 19 20  1  0  0  0  0
 20 21  1  0  0  0  0
 21 22  2  0  0  0  0
 21 23  1  0  0  0  0
 23 24  2  0  0  0  0
 23 47  1  0  0  0  0
 24 25  1  0  0  0  0
 25 26  1  0  0  0  0
 25 30  2  0  0  0  0
 26 27  2  0  0  0  0
 26 31  1  0  0  0  0
 27 28  1  0  0  0  0
 28 29  2  0  0  0  0
 29 30  1  0  0  0  0
 31 32  1  0  0  0  0
 31 47  2  0  0  0  0
 32 33  1  0  0  0  0
 33 34  1  0  0  0  0
 33 41  2  0  0  0  0
 34 35  1  0  0  0  0
 34 46  2  0  0  0  0
 35 36  1  0  0  0  0
 35 43  2  0  0  0  0
 36 37  2  0  0  0  0
 37 38  1  0  0  0  0
 37 41  1  0  0  0  0
 38 39  1  0  0  0  0
 38 40  2  0  0  0  0
 41 42  1  0  0  0  0
 43 44  1  0  0  0  0
 44 45  2  0  0  0  0
 45 46  1  0  0  0  0
 47 48  1  0  0  0  0
 49 50  1  0  0  0  0
 49 54  2  0  0  0  0
 50 51  2  0  0  0  0
 51 52  1  0  0  0  0
 52 53  2  0  0  0  0
 53 54  1  0  0  0  0
M  END
>  <Index>
1420

>  <ID>
HT0006

>  <class>
1

>  <apol>
114.77251

>  <ast_fraglike>
0

>  <ast_fraglike_ext>
0

>  <ast_violation>
4

>  <ast_violation_ext>
6

>  <a_acc>
8

>  <a_acid>
0

>  <a_aro>
32

>  <a_base>
0

>  <a_count>
95

>  <a_don>
4

>  <a_donacc>
12

>  <a_heavy>
54

>  <a_hyd>
43

>  <a_IC>
142.61017

>  <a_ICM>
1.5011598

>  <a_nB>
0

>  <a_nBr>
0

>  <a_nC>
44

>  <a_nCl>
1

>  <a_nF>
0

>  <a_nH>
41

>  <a_nI>
0

>  <a_nN>
2

>  <a_nO>
7

>  <a_nP>
0

>  <a_nS>
0

>  <balabanJ>
0.85757095

>  <BCUT_PEOE_0>
-2.7872789

>  <BCUT_PEOE_1>
-0.61995268

>  <BCUT_PEOE_2>
0.67352432

>  <BCUT_PEOE_3>
2.6888597

>  <BCUT_SLOGP_0>
-2.8927276

>  <BCUT_SLOGP_1>
-0.51453096

>  <BCUT_SLOGP_2>
0.75923568

>  <BCUT_SLOGP_3>
2.6316774

>  <BCUT_SMR_0>
-2.5033066

>  <BCUT_SMR_1>
-0.440155

>  <BCUT_SMR_2>
0.85431087

>  <BCUT_SMR_3>
2.9649739

>  <bpol>
54.949486

>  <b_1rotN>
13

>  <b_1rotR>
0.21666667

>  <b_ar>
34

>  <b_count>
101

>  <b_double>
2

>  <b_heavy>
60

>  <b_max1len>
6

>  <b_rotN>
14

>  <b_rotR>
0.23333333

>  <b_single>
65

>  <b_triple>
0

>  <chi0>
37.605507

>  <chi0v>
30.413921

>  <chi0v_C>
25.410967

>  <chi0_C>
29.036594

>  <chi1>
26.278898

>  <chi1v>
18.381413

>  <chi1v_C>
13.825909

>  <chi1_C>
18.531973

>  <chiral>
1

>  <chiral_u>
1

>  <density>
0.74669904

>  <diameter>
25

>  <FCharge>
0

>  <GCUT_PEOE_0>
-0.85093814

>  <GCUT_PEOE_1>
-0.38905451

>  <GCUT_PEOE_2>
0.080696203

>  <GCUT_PEOE_3>
2.9426522

>  <GCUT_SLOGP_0>
-0.96408874

>  <GCUT_SLOGP_1>
-0.27658796

>  <GCUT_SLOGP_2>
0.15752041

>  <GCUT_SLOGP_3>
3.0213704

>  <GCUT_SMR_0>
-0.51764309

>  <GCUT_SMR_1>
-0.21024801

>  <GCUT_SMR_2>
0.21510057

>  <GCUT_SMR_3>
3.2172558

>  <Kier1>
42.134998

>  <Kier2>
20.310658

>  <Kier3>
10.427524

>  <KierA1>
32.734249

>  <KierA2>
15.699848

>  <KierA3>
8.0323877

>  <KierFlex>
9.5170879

>  <lip_acc>
9

>  <lip_don>
3

>  <lip_druglike>
0

>  <lip_violation>
2

>  <logP(o/w)>
8.8227396

>  <logS>
-10.92815

>  <mr>
21.009094

>  <mutagenic>
0

>  <nmol>
1

>  <opr_brigid>
40

>  <opr_leadlike>
0

>  <opr_nring>
7

>  <opr_nrot>
15

>  <opr_violation>
5

>  <PC+>
0

>  <PC->
0

>  <PEOE_PC+>
4.0699515

>  <PEOE_PC->
-4.0699515

>  <PEOE_RPC+>
0.072827145

>  <PEOE_RPC->
0.092439324

>  <PEOE_VSA+0>
130.36731

>  <PEOE_VSA+1>
180.23399

>  <PEOE_VSA+2>
0

>  <PEOE_VSA+3>
0

>  <PEOE_VSA+4>
30.972517

>  <PEOE_VSA+5>
29.416998

>  <PEOE_VSA+6>
0

>  <PEOE_VSA-0>
66.687935

>  <PEOE_VSA-1>
213.4055

>  <PEOE_VSA-2>
0

>  <PEOE_VSA-3>
0

>  <PEOE_VSA-4>
0

>  <PEOE_VSA-5>
27.133842

>  <PEOE_VSA-6>
28.310133

>  <PEOE_VSA_FHYD>
0.8360526

>  <PEOE_VSA_FNEG>
0.47491011

>  <PEOE_VSA_FPNEG>
0.078473829

>  <PEOE_VSA_FPOL>
0.16394743

>  <PEOE_VSA_FPOS>
0.52508986

>  <PEOE_VSA_FPPOS>
0.085473605

>  <PEOE_VSA_HYD>
590.69476

>  <PEOE_VSA_NEG>
335.53741

>  <PEOE_VSA_PNEG>
55.443974

>  <PEOE_VSA_POL>
115.83349

>  <PEOE_VSA_POS>
370.99081

>  <PEOE_VSA_PPOS>
60.389515

>  <petitjean>
0.47999999

>  <petitjeanSC>
0.92307693

>  <Q_PC+>
0

>  <Q_PC->
0

>  <Q_RPC+>
0

>  <Q_RPC->
0

>  <Q_VSA_FHYD>
1

>  <Q_VSA_FNEG>
0

>  <Q_VSA_FPNEG>
0

>  <Q_VSA_FPOL>
0

>  <Q_VSA_FPOS>
1

>  <Q_VSA_FPPOS>
0

>  <Q_VSA_HYD>
706.52826

>  <Q_VSA_NEG>
0

>  <Q_VSA_PNEG>
0

>  <Q_VSA_POL>
0

>  <Q_VSA_POS>
706.52826

>  <Q_VSA_PPOS>
0

>  <radius>
13

>  <reactive>
0

>  <rings>
7

>  <RPC+>
0

>  <RPC->
0

>  <rsynth>
1

>  <SlogP>
8.0226698

>  <SlogP_VSA0>
50.770454

>  <SlogP_VSA1>
21.739555

>  <SlogP_VSA2>
21.999775

>  <SlogP_VSA3>
180.36189

>  <SlogP_VSA4>
66.837883

>  <SlogP_VSA5>
18.868406

>  <SlogP_VSA6>
3.5006065

>  <SlogP_VSA7>
345.51236

>  <SlogP_VSA8>
3.9819686

>  <SlogP_VSA9>
49.635502

>  <SMR>
20.99534

>  <SMR_VSA0>
69.724205

>  <SMR_VSA1>
57.019081

>  <SMR_VSA2>
25.385227

>  <SMR_VSA3>
37.082882

>  <SMR_VSA4>
10.291858

>  <SMR_VSA5>
354.0889

>  <SMR_VSA6>
170.46759

>  <SMR_VSA7>
39.148643

>  <TPSA>
119.77

>  <VAdjEq>
0.24755056

>  <VAdjMa>
6.9068904

>  <VDistEq>
4.4849706

>  <VDistMa>
11.18109

>  <vdw_area>
706.52826

>  <vdw_vol>
998.08887

>  <vsa_acc>
16.070677

>  <vsa_acid>
0

>  <vsa_base>
0

>  <vsa_don>
0

>  <vsa_hyd>
563.64655

>  <vsa_other>
31.920755

>  <vsa_pol>
70.338364

>  <Weight>
745.27197

>  <weinerPath>
14794

>  <weinerPol>
94

>  <zagreb>
288

$$$$