Clc1cc2c(cc1)C(c1ncccc1CC2)=C1/CCN(CC/1)C(OCC)=O
  MOE2013           2D

 27 30  0  0  0  0  0  0  0  0999 V2000
    0.0000    0.0000    0.0000 Cl  0  0  0  0  0  0  0  0  0  0  0  0
    0.7570   -1.2950    0.0000 C   0  0  0  0  0  0  0  0  0  0  0  0
    0.0140   -2.5980    0.0000 C   0  0  0  0  0  0  0  0  0  0  0  0
    0.7710   -3.8930    0.0000 C   0  0  0  0  0  0  0  0  0  0  0  0
    2.2710   -3.8850    0.0000 C   0  0  0  0  0  0  0  0  0  0  0  0
    3.0140   -2.5820    0.0000 C   0  0  0  0  0  0  0  0  0  0  0  0
    2.2570   -1.2870    0.0000 C   0  0  0  0  0  0  0  0  0  0  0  0
    3.2130   -5.0520    0.0000 C   0  0  0  0  0  0  0  0  0  0  0  0
    2.8860   -6.5160    0.0000 C   0  0  0  0  0  0  0  0  0  0  0  0
    4.1300   -7.3550    0.0000 N   0  0  0  0  0  0  0  0  0  0  0  0
    4.0250   -8.8510    0.0000 C   0  0  0  0  0  0  0  0  0  0  0  0
    2.6770   -9.5090    0.0000 C   0  0  0  0  0  0  0  0  0  0  0  0
    1.4330   -8.6700    0.0000 C   0  0  0  0  0  0  0  0  0  0  0  0
    1.5380   -7.1740    0.0000 C   0  0  0  0  0  0  0  0  0  0  0  0
    0.1820   -6.5310    0.0000 C   0  0  0  0  0  0  0  0  0  0  0  0
   -0.1590   -5.0700    0.0000 C   0  0  0  0  0  0  0  0  0  0  0  0
    4.6740   -4.7110    0.0000 C   0  0  0  0  0  0  0  0  0  0  0  0
    5.7000   -5.8050    0.0000 C   0  0  0  0  0  0  0  0  0  0  0  0
    7.1600   -5.4640    0.0000 C   0  0  0  0  0  0  0  0  0  0  0  0
    7.5950   -4.0280    0.0000 N   0  0  0  0  0  0  0  0  0  0  0  0
    6.5690   -2.9340    0.0000 C   0  0  0  0  0  0  0  0  0  0  0  0
    5.1080   -3.2750    0.0000 C   0  0  0  0  0  0  0  0  0  0  0  0
    9.0550   -3.6860    0.0000 C   0  0  0  0  0  0  0  0  0  0  0  0
   10.0810   -4.7810    0.0000 O   0  0  0  0  0  0  0  0  0  0  0  0
   11.5420   -4.4390    0.0000 C   0  0  0  0  0  0  0  0  0  0  0  0
   12.5680   -5.5330    0.0000 C   0  0  0  0  0  0  0  0  0  0  0  0
    9.4900   -2.2510    0.0000 O   0  0  0  0  0  0  0  0  0  0  0  0
  1  2  1  0  0  0  0
  2  3  1  0  0  0  0
  2  7  2  0  0  0  0
  3  4  2  0  0  0  0
  4  5  1  0  0  0  0
  4 16  1  0  0  0  0
  5  6  2  0  0  0  0
  5  8  1  0  0  0  0
  6  7  1  0  0  0  0
  8  9  1  0  0  0  0
  8 17  2  3  0  0  0
  9 10  1  0  0  0  0
  9 14  2  0  0  0  0
 10 11  2  0  0  0  0
 11 12  1  0  0  0  0
 12 13  2  0  0  0  0
 13 14  1  0  0  0  0
 14 15  1  0  0  0  0
 15 16  1  0  0  0  0
 17 18  1  0  0  0  0
 17 22  1  0  0  0  0
 18 19  1  0  0  0  0
 19 20  1  0  0  0  0
 20 21  1  0  0  0  0
 20 23  1  0  0  0  0
 21 22  1  0  0  0  0
 23 24  1  0  0  0  0
 23 27  2  0  0  0  0
 24 25  1  0  0  0  0
 25 26  1  0  0  0  0
M  END
>  <Index>
1625

>  <ID>
HT1237

>  <class>
1

>  <apol>
60.040237

>  <ast_fraglike>
0

>  <ast_fraglike_ext>
0

>  <ast_violation>
2

>  <ast_violation_ext>
2

>  <a_acc>
2

>  <a_acid>
0

>  <a_aro>
12

>  <a_base>
0

>  <a_count>
50

>  <a_don>
0

>  <a_donacc>
2

>  <a_heavy>
27

>  <a_hyd>
22

>  <a_IC>
76.043388

>  <a_ICM>
1.5208678

>  <a_nB>
0

>  <a_nBr>
0

>  <a_nC>
22

>  <a_nCl>
1

>  <a_nF>
0

>  <a_nH>
23

>  <a_nI>
0

>  <a_nN>
2

>  <a_nO>
2

>  <a_nP>
0

>  <a_nS>
0

>  <balabanJ>
1.4903163

>  <BCUT_PEOE_0>
-2.6812871

>  <BCUT_PEOE_1>
-0.5199042

>  <BCUT_PEOE_2>
0.54333282

>  <BCUT_PEOE_3>
2.6337402

>  <BCUT_SLOGP_0>
-2.7190635

>  <BCUT_SLOGP_1>
-0.32990497

>  <BCUT_SLOGP_2>
0.70933062

>  <BCUT_SLOGP_3>
2.6602275

>  <BCUT_SMR_0>
-2.4089861

>  <BCUT_SMR_1>
-0.27412891

>  <BCUT_SMR_2>
0.77051264

>  <BCUT_SMR_3>
2.903801

>  <bpol>
31.737761

>  <b_1rotN>
2

>  <b_1rotR>
0.06666667

>  <b_ar>
12

>  <b_count>
53

>  <b_double>
2

>  <b_heavy>
30

>  <b_max1len>
3

>  <b_rotN>
3

>  <b_rotR>
0.1

>  <b_single>
39

>  <b_triple>
0

>  <chi0>
18.802753

>  <chi0v>
16.258667

>  <chi0v_C>
13.413849

>  <chi0_C>
14.811191

>  <chi1>
13.169035

>  <chi1v>
9.9164343

>  <chi1v_C>
7.3146958

>  <chi1_C>
9.048008

>  <chiral>
0

>  <chiral_u>
0

>  <density>
0.74276459

>  <diameter>
13

>  <FCharge>
0

>  <GCUT_PEOE_0>
-0.82861358

>  <GCUT_PEOE_1>
-0.37280524

>  <GCUT_PEOE_2>
0.011255102

>  <GCUT_PEOE_3>
2.8369174

>  <GCUT_SLOGP_0>
-0.95879191

>  <GCUT_SLOGP_1>
-0.27813795

>  <GCUT_SLOGP_2>
0.13196869

>  <GCUT_SLOGP_3>
2.9225769

>  <GCUT_SMR_0>
-0.51622021

>  <GCUT_SMR_1>
-0.15065485

>  <GCUT_SMR_2>
0.19021273

>  <GCUT_SMR_3>
3.1130643

>  <Kier1>
20.280001

>  <Kier2>
9.212018

>  <Kier3>
4.4518433

>  <KierA1>
16.249695

>  <KierA2>
7.3144426

>  <KierA3>
3.5109806

>  <KierFlex>
4.4021282

>  <lip_acc>
4

>  <lip_don>
0

>  <lip_druglike>
1

>  <lip_violation>
0

>  <logP(o/w)>
3.8989999

>  <logS>
-4.1960502

>  <mr>
10.851775

>  <mutagenic>
0

>  <nmol>
1

>  <opr_brigid>
24

>  <opr_leadlike>
1

>  <opr_nring>
4

>  <opr_nrot>
3

>  <opr_violation>
1

>  <PC+>
0

>  <PC->
0

>  <PEOE_PC+>
1.6652632

>  <PEOE_PC->
-1.6652632

>  <PEOE_RPC+>
0.21814933

>  <PEOE_RPC->
0.19082262

>  <PEOE_VSA+0>
113.83964

>  <PEOE_VSA+1>
55.773933

>  <PEOE_VSA+2>
0

>  <PEOE_VSA+3>
0

>  <PEOE_VSA+4>
0

>  <PEOE_VSA+5>
0

>  <PEOE_VSA+6>
19.199511

>  <PEOE_VSA-0>
96.94326

>  <PEOE_VSA-1>
56.300293

>  <PEOE_VSA-2>
0

>  <PEOE_VSA-3>
0

>  <PEOE_VSA-4>
13.566921

>  <PEOE_VSA-5>
8.1863317

>  <PEOE_VSA-6>
0

>  <PEOE_VSA_FHYD>
0.88743359

>  <PEOE_VSA_FNEG>
0.48101169

>  <PEOE_VSA_FPNEG>
0.059792913

>  <PEOE_VSA_FPOL>
0.11256638

>  <PEOE_VSA_FPOS>
0.51898831

>  <PEOE_VSA_FPPOS>
0.052773472

>  <PEOE_VSA_HYD>
322.85712

>  <PEOE_VSA_NEG>
174.99681

>  <PEOE_VSA_PNEG>
21.753254

>  <PEOE_VSA_POL>
40.952763

>  <PEOE_VSA_POS>
188.81308

>  <PEOE_VSA_PPOS>
19.199511

>  <petitjean>
0.46153846

>  <petitjeanSC>
0.85714287

>  <Q_PC+>
0

>  <Q_PC->
0

>  <Q_RPC+>
0

>  <Q_RPC->
0

>  <Q_VSA_FHYD>
1

>  <Q_VSA_FNEG>
0

>  <Q_VSA_FPNEG>
0

>  <Q_VSA_FPOL>
0

>  <Q_VSA_FPOS>
1

>  <Q_VSA_FPPOS>
0

>  <Q_VSA_HYD>
363.80991

>  <Q_VSA_NEG>
0

>  <Q_VSA_PNEG>
0

>  <Q_VSA_POL>
0

>  <Q_VSA_POS>
363.80991

>  <Q_VSA_PPOS>
0

>  <radius>
7

>  <reactive>
0

>  <rings>
4

>  <RPC+>
0

>  <RPC->
0

>  <rsynth>
1

>  <SlogP>
4.70503

>  <SlogP_VSA0>
0

>  <SlogP_VSA1>
27.22648

>  <SlogP_VSA2>
10.999887

>  <SlogP_VSA3>
60.99099

>  <SlogP_VSA4>
12.313473

>  <SlogP_VSA5>
40.922386

>  <SlogP_VSA6>
3.5006065

>  <SlogP_VSA7>
105.43027

>  <SlogP_VSA8>
37.736813

>  <SlogP_VSA9>
96.336876

>  <SMR>
10.5886

>  <SMR_VSA0>
34.862103

>  <SMR_VSA1>
19.909843

>  <SMR_VSA2>
3.185575

>  <SMR_VSA3>
18.999655

>  <SMR_VSA4>
0

>  <SMR_VSA5>
180.9039

>  <SMR_VSA6>
65.122055

>  <SMR_VSA7>
72.474655

>  <TPSA>
42.43

>  <VAdjEq>
0.41024774

>  <VAdjMa>
5.9068904

>  <VDistEq>
3.3899591

>  <VDistMa>
9.2298813

>  <vdw_area>
363.80991

>  <vdw_vol>
515.49438

>  <vsa_acc>
19.249496

>  <vsa_acid>
0

>  <vsa_base>
0

>  <vsa_don>
0

>  <vsa_hyd>
306.48584

>  <vsa_other>
21.703266

>  <vsa_pol>
19.249496

>  <Weight>
382.89099

>  <weinerPath>
1772

>  <weinerPol>
49

>  <zagreb>
144

$$$$