O(CC(N)C)c1c(cccc1C)C
  MOE2013           2D

 13 13  0  0  1  0  0  0  0  0999 V2000
    0.0000    0.0000    0.0000 O   0  0  0  0  0  0  0  0  0  0  0  0
    0.7460    1.3010    0.0000 C   0  0  0  0  0  0  0  0  0  0  0  0
    2.2460    1.3060    0.0000 C   0  0  3  0  0  0  0  0  0  0  0  0
    3.0000    0.0090    0.0000 N   0  0  0  0  0  0  0  0  0  0  0  0
    2.9930    2.6070    0.0000 C   0  0  0  0  0  0  0  0  0  0  0  0
   -1.5000   -0.0040    0.0000 C   0  0  0  0  0  0  0  0  0  0  0  0
   -2.2540    1.2930    0.0000 C   0  0  0  0  0  0  0  0  0  0  0  0
   -3.7540    1.2880    0.0000 C   0  0  0  0  0  0  0  0  0  0  0  0
   -4.5000   -0.0130    0.0000 C   0  0  0  0  0  0  0  0  0  0  0  0
   -3.7460   -1.3100    0.0000 C   0  0  0  0  0  0  0  0  0  0  0  0
   -2.2460   -1.3060    0.0000 C   0  0  0  0  0  0  0  0  0  0  0  0
   -1.4930   -2.6020    0.0000 C   0  0  0  0  0  0  0  0  0  0  0  0
   -1.5070    2.5940    0.0000 C   0  0  0  0  0  0  0  0  0  0  0  0
  1  2  1  0  0  0  0
  1  6  1  0  0  0  0
  2  3  1  0  0  0  0
  3  4  1  0  0  0  0
  3  5  1  0  0  0  0
  6  7  1  0  0  0  0
  6 11  2  0  0  0  0
  7  8  2  0  0  0  0
  7 13  1  0  0  0  0
  8  9  1  0  0  0  0
  9 10  2  0  0  0  0
 10 11  1  0  0  0  0
 11 12  1  0  0  0  0
M  END
>  <Index>
1651

>  <ID>
HT1387

>  <class>
1

>  <apol>
32.597481

>  <ast_fraglike>
1

>  <ast_fraglike_ext>
1

>  <ast_violation>
0

>  <ast_violation_ext>
0

>  <a_acc>
2

>  <a_acid>
0

>  <a_aro>
6

>  <a_base>
0

>  <a_count>
30

>  <a_don>
1

>  <a_donacc>
3

>  <a_heavy>
13

>  <a_hyd>
11

>  <a_IC>
39.666103

>  <a_ICM>
1.3222034

>  <a_nB>
0

>  <a_nBr>
0

>  <a_nC>
11

>  <a_nCl>
0

>  <a_nF>
0

>  <a_nH>
17

>  <a_nI>
0

>  <a_nN>
1

>  <a_nO>
1

>  <a_nP>
0

>  <a_nS>
0

>  <balabanJ>
2.3703382

>  <BCUT_PEOE_0>
-2.5631149

>  <BCUT_PEOE_1>
-0.24550092

>  <BCUT_PEOE_2>
0.283829

>  <BCUT_PEOE_3>
2.5164366

>  <BCUT_SLOGP_0>
-2.7610083

>  <BCUT_SLOGP_1>
-0.18360293

>  <BCUT_SLOGP_2>
0.36829358

>  <BCUT_SLOGP_3>
2.5018735

>  <BCUT_SMR_0>
-2.308167

>  <BCUT_SMR_1>
-0.07639125

>  <BCUT_SMR_2>
0.4011223

>  <BCUT_SMR_3>
2.7638113

>  <bpol>
19.840519

>  <b_1rotN>
3

>  <b_1rotR>
0.23076923

>  <b_ar>
6

>  <b_count>
30

>  <b_double>
0

>  <b_heavy>
13

>  <b_max1len>
4

>  <b_rotN>
3

>  <b_rotR>
0.23076923

>  <b_single>
24

>  <b_triple>
0

>  <chi0>
9.8449354

>  <chi0v>
8.5021067

>  <chi0v_C>
7.5165076

>  <chi0_C>
8.1378279

>  <chi1>
6.1090608

>  <chi1v>
4.555748

>  <chi1v_C>
3.7296154

>  <chi1_C>
4.6234622

>  <chiral>
1

>  <chiral_u>
1

>  <density>
0.64868432

>  <diameter>
7

>  <FCharge>
0

>  <GCUT_PEOE_0>
-0.83162719

>  <GCUT_PEOE_1>
-0.30879024

>  <GCUT_PEOE_2>
-0.0089260954

>  <GCUT_PEOE_3>
2.3592436

>  <GCUT_SLOGP_0>
-1.3633435

>  <GCUT_SLOGP_1>
-0.21709536

>  <GCUT_SLOGP_2>
0.084853664

>  <GCUT_SLOGP_3>
2.4654477

>  <GCUT_SMR_0>
-0.51750708

>  <GCUT_SMR_1>
-0.10750045

>  <GCUT_SMR_2>
0.038037252

>  <GCUT_SMR_3>
2.6240244

>  <Kier1>
11.076923

>  <Kier2>
5.0242214

>  <Kier3>
3.3240998

>  <KierA1>
9.1026993

>  <KierA2>
4.0550556

>  <KierA3>
2.6420894

>  <KierFlex>
2.839381

>  <lip_acc>
2

>  <lip_don>
2

>  <lip_druglike>
1

>  <lip_violation>
0

>  <logP(o/w)>
2

>  <logS>
-1.77477

>  <mr>
5.5025616

>  <mutagenic>
0

>  <nmol>
1

>  <opr_brigid>
6

>  <opr_leadlike>
1

>  <opr_nring>
1

>  <opr_nrot>
3

>  <opr_violation>
0

>  <PC+>
0

>  <PC->
0

>  <PEOE_PC+>
1.0047593

>  <PEOE_PC->
-1.0047593

>  <PEOE_RPC+>
0.11797035

>  <PEOE_RPC->
0.34102854

>  <PEOE_VSA+0>
45.79982

>  <PEOE_VSA+1>
44.736744

>  <PEOE_VSA+2>
17.238026

>  <PEOE_VSA+3>
0

>  <PEOE_VSA+4>
0

>  <PEOE_VSA+5>
0

>  <PEOE_VSA+6>
0

>  <PEOE_VSA-0>
60.66011

>  <PEOE_VSA-1>
36.764713

>  <PEOE_VSA-2>
0

>  <PEOE_VSA-3>
0

>  <PEOE_VSA-4>
0

>  <PEOE_VSA-5>
0

>  <PEOE_VSA-6>
9.1548758

>  <PEOE_VSA_FHYD>
0.95729089

>  <PEOE_VSA_FNEG>
0.49721283

>  <PEOE_VSA_FPNEG>
0.042709086

>  <PEOE_VSA_FPOL>
0.042709086

>  <PEOE_VSA_FPOS>
0.50278717

>  <PEOE_VSA_FPPOS>
0

>  <PEOE_VSA_HYD>
205.19942

>  <PEOE_VSA_NEG>
106.5797

>  <PEOE_VSA_PNEG>
9.1548758

>  <PEOE_VSA_POL>
9.1548758

>  <PEOE_VSA_POS>
107.77459

>  <PEOE_VSA_PPOS>
0

>  <petitjean>
0.42857143

>  <petitjeanSC>
0.75

>  <Q_PC+>
0

>  <Q_PC->
0

>  <Q_RPC+>
0

>  <Q_RPC->
0

>  <Q_VSA_FHYD>
1

>  <Q_VSA_FNEG>
0

>  <Q_VSA_FPNEG>
0

>  <Q_VSA_FPOL>
0

>  <Q_VSA_FPOS>
1

>  <Q_VSA_FPPOS>
0

>  <Q_VSA_HYD>
214.35429

>  <Q_VSA_NEG>
0

>  <Q_VSA_PNEG>
0

>  <Q_VSA_POL>
0

>  <Q_VSA_POS>
214.35429

>  <Q_VSA_PPOS>
0

>  <radius>
4

>  <reactive>
0

>  <rings>
1

>  <RPC+>
0

>  <RPC->
0

>  <rsynth>
1

>  <SlogP>
2.0294399

>  <SlogP_VSA0>
43.897076

>  <SlogP_VSA1>
0

>  <SlogP_VSA2>
3.9819686

>  <SlogP_VSA3>
20.926258

>  <SlogP_VSA4>
6.37115

>  <SlogP_VSA5>
0

>  <SlogP_VSA6>
0

>  <SlogP_VSA7>
52.929554

>  <SlogP_VSA8>
0

>  <SlogP_VSA9>
105.22147

>  <SMR>
5.5060401

>  <SMR_VSA0>
0

>  <SMR_VSA1>
10.999887

>  <SMR_VSA2>
0

>  <SMR_VSA3>
15.596547

>  <SMR_VSA4>
32.897186

>  <SMR_VSA5>
52.929554

>  <SMR_VSA6>
20.926258

>  <SMR_VSA7>
99.978043

>  <TPSA>
35.25

>  <VAdjEq>
0.6193822

>  <VAdjMa>
4.7004399

>  <VDistEq>
2.6485972

>  <VDistMa>
7.0880628

>  <vdw_area>
214.35429

>  <vdw_vol>
276.34857

>  <vsa_acc>
2.503756

>  <vsa_acid>
0

>  <vsa_base>
0

>  <vsa_don>
0

>  <vsa_hyd>
177.28445

>  <vsa_other>
0

>  <vsa_pol>
20.246246

>  <Weight>
179.263

>  <weinerPath>
256

>  <weinerPol>
16

>  <zagreb>
60

$$$$