ClC=CC(O)(CC)C#C
  MOE2013           2D

  9  8  0  0  1  0  0  0  0  0999 V2000
    0.0000    0.0000    0.0000 Cl  0  0  0  0  0  0  0  0  0  0  0  0
   -1.5000    0.0010    0.0000 C   0  0  0  0  0  0  0  0  0  0  0  0
   -2.2510   -1.2970    0.0000 C   0  0  0  0  0  0  0  0  0  0  0  0
   -3.7510   -1.2950    0.0000 C   0  0  3  0  0  0  0  0  0  0  0  0
   -3.7500    0.2050    0.0000 O   0  0  0  0  0  0  0  0  0  0  0  0
   -5.2510   -1.2940    0.0000 C   0  0  0  0  0  0  0  0  0  0  0  0
   -6.0000    0.0060    0.0000 C   0  0  0  0  0  0  0  0  0  0  0  0
   -3.7530   -2.7950    0.0000 C   0  0  0  0  0  0  0  0  0  0  0  0
   -3.7540   -4.2950    0.0000 C   0  0  0  0  0  0  0  0  0  0  0  0
  1  2  1  0  0  0  0
  2  3  2  3  0  0  0
  3  4  1  0  0  0  0
  4  5  1  0  0  0  0
  4  6  1  0  0  0  0
  4  8  1  0  0  0  0
  6  7  1  0  0  0  0
  8  9  3  0  0  0  0
M  END
>  <Index>
1559

>  <ID>
HT0806

>  <class>
1

>  <apol>
21.303137

>  <ast_fraglike>
1

>  <ast_fraglike_ext>
1

>  <ast_violation>
0

>  <ast_violation_ext>
0

>  <a_acc>
1

>  <a_acid>
0

>  <a_aro>
0

>  <a_base>
0

>  <a_count>
18

>  <a_don>
1

>  <a_donacc>
2

>  <a_heavy>
9

>  <a_hyd>
8

>  <a_IC>
26.87784

>  <a_ICM>
1.4932134

>  <a_nB>
0

>  <a_nBr>
0

>  <a_nC>
7

>  <a_nCl>
1

>  <a_nF>
0

>  <a_nH>
9

>  <a_nI>
0

>  <a_nN>
0

>  <a_nO>
1

>  <a_nP>
0

>  <a_nS>
0

>  <balabanJ>
3.6649978

>  <BCUT_PEOE_0>
-2.5080817

>  <BCUT_PEOE_1>
-0.55973166

>  <BCUT_PEOE_2>
0.61563504

>  <BCUT_PEOE_3>
2.5145102

>  <BCUT_SLOGP_0>
-2.5053999

>  <BCUT_SLOGP_1>
-0.53683668

>  <BCUT_SLOGP_2>
0.5609498

>  <BCUT_SLOGP_3>
2.5580935

>  <BCUT_SMR_0>
-2.2745624

>  <BCUT_SMR_1>
-0.3623645

>  <BCUT_SMR_2>
0.80538976

>  <BCUT_SMR_3>
2.7485826

>  <bpol>
10.258863

>  <b_1rotN>
2

>  <b_1rotR>
0.25

>  <b_ar>
0

>  <b_count>
17

>  <b_double>
1

>  <b_heavy>
8

>  <b_max1len>
5

>  <b_rotN>
3

>  <b_rotR>
0.375

>  <b_single>
15

>  <b_triple>
1

>  <chi0>
7.3284273

>  <chi0v>
6.0202646

>  <chi0v_C>
4.4391575

>  <chi0_C>
5.3284273

>  <chi1>
4.1819806

>  <chi1v>
3.0996041

>  <chi1v_C>
2.2213438

>  <chi1_C>
2.9748738

>  <chiral>
1

>  <chiral_u>
1

>  <density>
0.75441366

>  <diameter>
5

>  <FCharge>
0

>  <GCUT_PEOE_0>
-0.7682544

>  <GCUT_PEOE_1>
-0.35277149

>  <GCUT_PEOE_2>
0.061668504

>  <GCUT_PEOE_3>
2.0683937

>  <GCUT_SLOGP_0>
-0.87873483

>  <GCUT_SLOGP_1>
-0.28630617

>  <GCUT_SLOGP_2>
0.15305844

>  <GCUT_SLOGP_3>
2.1313477

>  <GCUT_SMR_0>
-0.52033985

>  <GCUT_SMR_1>
-0.1627508

>  <GCUT_SMR_2>
0.25487635

>  <GCUT_SMR_3>
2.3155286

>  <Kier1>
9

>  <Kier2>
3.9200001

>  <Kier3>
2.8800001

>  <KierA1>
8.2296686

>  <KierA2>
3.5399356

>  <KierA3>
2.5695379

>  <KierFlex>
3.2369442

>  <lip_acc>
1

>  <lip_don>
1

>  <lip_druglike>
1

>  <lip_violation>
0

>  <logP(o/w)>
1.822

>  <logS>
-1.87348

>  <mr>
3.9346874

>  <mutagenic>
0

>  <nmol>
1

>  <opr_brigid>
2

>  <opr_leadlike>
1

>  <opr_nring>
0

>  <opr_nrot>
3

>  <opr_violation>
0

>  <PC+>
0

>  <PC->
0

>  <PEOE_PC+>
0.75064254

>  <PEOE_PC->
-0.75064254

>  <PEOE_RPC+>
0.28204614

>  <PEOE_RPC->
0.49689147

>  <PEOE_VSA+0>
35.89304

>  <PEOE_VSA+1>
8.5307722

>  <PEOE_VSA+2>
4.2653861

>  <PEOE_VSA+3>
0

>  <PEOE_VSA+4>
10.324173

>  <PEOE_VSA+5>
0

>  <PEOE_VSA+6>
0

>  <PEOE_VSA-0>
20.956217

>  <PEOE_VSA-1>
64.138123

>  <PEOE_VSA-2>
25.854858

>  <PEOE_VSA-3>
0

>  <PEOE_VSA-4>
0

>  <PEOE_VSA-5>
0

>  <PEOE_VSA-6>
7.7675405

>  <PEOE_VSA_FHYD>
0.89820683

>  <PEOE_VSA_FNEG>
0.66796076

>  <PEOE_VSA_FPNEG>
0.043704133

>  <PEOE_VSA_FPOL>
0.10179318

>  <PEOE_VSA_FPOS>
0.33203924

>  <PEOE_VSA_FPPOS>
0.058089048

>  <PEOE_VSA_HYD>
159.6384

>  <PEOE_VSA_NEG>
118.71674

>  <PEOE_VSA_PNEG>
7.7675405

>  <PEOE_VSA_POL>
18.091713

>  <PEOE_VSA_POS>
59.013371

>  <PEOE_VSA_PPOS>
10.324173

>  <petitjean>
0.40000001

>  <petitjeanSC>
0.66666669

>  <Q_PC+>
0

>  <Q_PC->
0

>  <Q_RPC+>
0

>  <Q_RPC->
0

>  <Q_VSA_FHYD>
1

>  <Q_VSA_FNEG>
0

>  <Q_VSA_FPNEG>
0

>  <Q_VSA_FPOL>
0

>  <Q_VSA_FPOS>
1

>  <Q_VSA_FPPOS>
0

>  <Q_VSA_HYD>
177.7301

>  <Q_VSA_NEG>
0

>  <Q_VSA_PNEG>
0

>  <Q_VSA_POL>
0

>  <Q_VSA_POS>
177.7301

>  <Q_VSA_PPOS>
0

>  <radius>
3

>  <reactive>
0

>  <rings>
0

>  <RPC+>
0

>  <RPC->
0

>  <rsynth>
0.11111111

>  <SlogP>
1.513208

>  <SlogP_VSA0>
25.385227

>  <SlogP_VSA1>
0

>  <SlogP_VSA2>
0

>  <SlogP_VSA3>
17.030573

>  <SlogP_VSA4>
31.488184

>  <SlogP_VSA5>
0

>  <SlogP_VSA6>
0

>  <SlogP_VSA7>
35.601398

>  <SlogP_VSA8>
18.868406

>  <SlogP_VSA9>
72.474655

>  <SMR>
3.9066801

>  <SMR_VSA0>
0

>  <SMR_VSA1>
25.385227

>  <SMR_VSA2>
0

>  <SMR_VSA3>
17.030573

>  <SMR_VSA4>
0

>  <SMR_VSA5>
54.469807

>  <SMR_VSA6>
31.488184

>  <SMR_VSA7>
72.474655

>  <TPSA>
20.23

>  <VAdjEq>
0.71696228

>  <VAdjMa>
4

>  <VDistEq>
2.17136

>  <VDistMa>
6.0152125

>  <vdw_area>
177.7301

>  <vdw_vol>
191.67336

>  <vsa_acc>
0

>  <vsa_acid>
0

>  <vsa_base>
0

>  <vsa_don>
0

>  <vsa_hyd>
153.94403

>  <vsa_other>
0

>  <vsa_pol>
13.566921

>  <Weight>
144.601

>  <weinerPath>
92

>  <weinerPol>
10

>  <zagreb>
36

$$$$