O1[C@@H](CC)[C@](O)(C)[C@H](O)[C@H](N(C[C@@H](C[C@](O)(C)[C@H](O[C@@H]2O[C@@H](C[C@H](N(C)C)[C@H]2O)C)[C@@H](C)[C@H](O[C@@H]2O[C@@H](C)[C@H](O)[C@](OC)(C2)C)[C@@H](C)C1=O)C)C)C
  MOE2013           2D

 52 54  0  0  1  0  0  0  0  0999 V2000
    0.0000    0.0000    0.0000 O   0  0  0  0  0  0  0  0  0  0  0  0
    0.7940   -1.2630    0.0000 C   0  0  1  0  0  0  0  0  0  0  0  0
    2.2930   -1.2020    0.0000 C   0  0  0  0  0  0  0  0  0  0  0  0
    2.9900    0.1260    0.0000 C   0  0  0  0  0  0  0  0  0  0  0  0
    0.0980   -2.5970    0.0000 C   0  0  2  0  0  0  0  0  0  0  0  0
   -1.2150   -1.8730    0.0000 O   0  0  0  0  0  0  0  0  0  0  0  0
   -1.1980   -3.3520    0.0000 C   0  0  0  0  0  0  0  0  0  0  0  0
    0.9040   -3.8550    0.0000 C   0  0  2  0  0  0  0  0  0  0  0  0
    2.4000   -3.7450    0.0000 O   0  0  0  0  0  0  0  0  0  0  0  0
    0.3020   -5.1920    0.0000 C   0  0  2  0  0  0  0  0  0  0  0  0
   -1.1870   -5.4090    0.0000 N   0  0  3  0  0  0  0  0  0  0  0  0
   -1.7330   -6.7930    0.0000 C   0  0  0  0  0  0  0  0  0  0  0  0
   -3.0970   -7.1860    0.0000 C   0  0  1  0  0  0  0  0  0  0  0  0
   -4.3330   -6.5170    0.0000 C   0  0  0  0  0  0  0  0  0  0  0  0
   -4.7480   -5.1600    0.0000 C   0  0  2  0  0  0  0  0  0  0  0  0
   -6.0520   -5.9020    0.0000 O   0  0  0  0  0  0  0  0  0  0  0  0
   -6.0690   -4.4480    0.0000 C   0  0  0  0  0  0  0  0  0  0  0  0
   -3.8870   -3.9460    0.0000 C   0  0  2  0  0  0  0  0  0  0  0  0
   -6.3790   -4.1510    0.0000 O   0  0  0  0  0  0  0  0  0  0  0  0
   -7.0200   -5.5070    0.0000 C   0  0  2  0  0  0  0  0  0  0  0  0
   -6.6390   -6.9580    0.0000 O   0  0  0  0  0  0  0  0  0  0  0  0
   -7.7050   -8.0130    0.0000 C   0  0  1  0  0  0  0  0  0  0  0  0
   -9.1520   -7.6180    0.0000 C   0  0  0  0  0  0  0  0  0  0  0  0
   -9.5330   -6.1670    0.0000 C   0  0  2  0  0  0  0  0  0  0  0  0
  -10.9800   -5.7720    0.0000 N   0  0  0  0  0  0  0  0  0  0  0  0
  -11.3610   -4.3210    0.0000 C   0  0  0  0  0  0  0  0  0  0  0  0
  -12.0450   -6.8270    0.0000 C   0  0  0  0  0  0  0  0  0  0  0  0
   -8.4670   -5.1120    0.0000 C   0  0  1  0  0  0  0  0  0  0  0  0
   -8.8480   -3.6610    0.0000 O   0  0  0  0  0  0  0  0  0  0  0  0
   -7.3240   -9.4640    0.0000 C   0  0  0  0  0  0  0  0  0  0  0  0
   -4.5180   -2.5790    0.0000 C   0  0  1  0  0  0  0  0  0  0  0  0
   -6.0140   -2.4750    0.0000 C   0  0  0  0  0  0  0  0  0  0  0  0
   -3.7240   -1.3450    0.0000 C   0  0  2  0  0  0  0  0  0  0  0  0
   -4.4470   -0.0310    0.0000 O   0  0  0  0  0  0  0  0  0  0  0  0
   -5.9470    0.0000    0.0000 C   0  0  2  0  0  0  0  0  0  0  0  0
   -6.7240   -1.2830    0.0000 O   0  0  0  0  0  0  0  0  0  0  0  0
   -8.2230   -1.2520    0.0000 C   0  0  1  0  0  0  0  0  0  0  0  0
   -9.0000   -2.5350    0.0000 C   0  0  0  0  0  0  0  0  0  0  0  0
   -8.9460    0.0620    0.0000 C   0  0  2  0  0  0  0  0  0  0  0  0
  -10.4460    0.0930    0.0000 O   0  0  0  0  0  0  0  0  0  0  0  0
   -8.1700    1.3450    0.0000 C   0  0  2  0  0  0  0  0  0  0  0  0
   -8.1390    2.8450    0.0000 O   0  0  0  0  0  0  0  0  0  0  0  0
   -6.8240    3.5680    0.0000 C   0  0  0  0  0  0  0  0  0  0  0  0
   -6.6700    1.3140    0.0000 C   0  0  0  0  0  0  0  0  0  0  0  0
   -9.4530    2.1220    0.0000 C   0  0  0  0  0  0  0  0  0  0  0  0
   -2.2310   -1.3360    0.0000 C   0  0  1  0  0  0  0  0  0  0  0  0
   -1.4700   -2.6290    0.0000 C   0  0  0  0  0  0  0  0  0  0  0  0
   -1.4910   -0.0250    0.0000 C   0  0  0  0  0  0  0  0  0  0  0  0
   -2.2580    1.2640    0.0000 O   0  0  0  0  0  0  0  0  0  0  0  0
   -3.2590   -8.6770    0.0000 C   0  0  0  0  0  0  0  0  0  0  0  0
   -2.1180   -4.2330    0.0000 C   0  0  0  0  0  0  0  0  0  0  0  0
    1.2050   -6.3900    0.0000 C   0  0  0  0  0  0  0  0  0  0  0  0
  1  2  1  0  0  0  0
  1 48  1  0  0  0  0
  2  3  1  1  0  0  0
  2  5  1  0  0  0  0
  3  4  1  0  0  0  0
  5  6  1  6  0  0  0
  5  7  1  1  0  0  0
  5  8  1  0  0  0  0
  8  9  1  6  0  0  0
  8 10  1  0  0  0  0
 10 11  1  0  0  0  0
 10 52  1  1  0  0  0
 11 12  1  0  0  0  0
 11 51  1  0  0  0  0
 12 13  1  0  0  0  0
 13 14  1  0  0  0  0
 13 50  1  6  0  0  0
 14 15  1  0  0  0  0
 15 16  1  1  0  0  0
 15 17  1  6  0  0  0
 15 18  1  0  0  0  0
 18 19  1  6  0  0  0
 18 31  1  0  0  0  0
 20 19  1  6  0  0  0
 20 21  1  0  0  0  0
 20 28  1  0  0  0  0
 21 22  1  0  0  0  0
 22 23  1  0  0  0  0
 22 30  1  6  0  0  0
 23 24  1  0  0  0  0
 24 25  1  6  0  0  0
 24 28  1  0  0  0  0
 25 26  1  0  0  0  0
 25 27  1  0  0  0  0
 28 29  1  1  0  0  0
 31 32  1  1  0  0  0
 31 33  1  0  0  0  0
 33 34  1  6  0  0  0
 33 46  1  0  0  0  0
 35 34  1  6  0  0  0
 35 36  1  0  0  0  0
 35 44  1  0  0  0  0
 36 37  1  0  0  0  0
 37 38  1  1  0  0  0
 37 39  1  0  0  0  0
 39 40  1  6  0  0  0
 39 41  1  0  0  0  0
 41 42  1  6  0  0  0
 41 44  1  0  0  0  0
 41 45  1  1  0  0  0
 42 43  1  0  0  0  0
 46 47  1  6  0  0  0
 46 48  1  0  0  0  0
 48 49  2  0  0  0  0
M  END
>  <Index>
1444

>  <ID>
HT0218

>  <class>
1

>  <apol>
126.7131

>  <ast_fraglike>
0

>  <ast_fraglike_ext>
0

>  <ast_violation>
3

>  <ast_violation_ext>
5

>  <a_acc>
13

>  <a_acid>
0

>  <a_aro>
0

>  <a_base>
0

>  <a_count>
124

>  <a_don>
5

>  <a_donacc>
18

>  <a_heavy>
52

>  <a_hyd>
35

>  <a_IC>
173.64494

>  <a_ICM>
1.4003625

>  <a_nB>
0

>  <a_nBr>
0

>  <a_nC>
38

>  <a_nCl>
0

>  <a_nF>
0

>  <a_nH>
72

>  <a_nI>
0

>  <a_nN>
2

>  <a_nO>
12

>  <a_nP>
0

>  <a_nS>
0

>  <balabanJ>
2.1699839

>  <BCUT_PEOE_0>
-2.8237693

>  <BCUT_PEOE_1>
-0.19827665

>  <BCUT_PEOE_2>
0.10599933

>  <BCUT_PEOE_3>
2.8394163

>  <BCUT_SLOGP_0>
-2.9134974

>  <BCUT_SLOGP_1>
-0.11147048

>  <BCUT_SLOGP_2>
0.123

>  <BCUT_SLOGP_3>
2.7768312

>  <BCUT_SMR_0>
-2.5950146

>  <BCUT_SMR_1>
0.053445451

>  <BCUT_SMR_2>
0.16403291

>  <BCUT_SMR_3>
3.0563562

>  <bpol>
95.124901

>  <b_1rotN>
7

>  <b_1rotR>
0.12962963

>  <b_ar>
0

>  <b_count>
126

>  <b_double>
1

>  <b_heavy>
54

>  <b_max1len>
5

>  <b_rotN>
7

>  <b_rotR>
0.12962963

>  <b_single>
125

>  <b_triple>
0

>  <chi0>
39.670479

>  <chi0v>
34.184021

>  <chi0v_C>
28.195787

>  <chi0_C>
28.273138

>  <chi1>
23.908682

>  <chi1v>
19.142532

>  <chi1v_C>
12.604514

>  <chi1_C>
12.649172

>  <chiral>
18

>  <chiral_u>
0

>  <density>
0.71737373

>  <diameter>
14

>  <FCharge>
0

>  <GCUT_PEOE_0>
-0.85633355

>  <GCUT_PEOE_1>
-0.32564446

>  <GCUT_PEOE_2>
-0.10762479

>  <GCUT_PEOE_3>
3.5735762

>  <GCUT_SLOGP_0>
-0.96484202

>  <GCUT_SLOGP_1>
-0.33204842

>  <GCUT_SLOGP_2>
-0.037

>  <GCUT_SLOGP_3>
3.5450194

>  <GCUT_SMR_0>
-0.53772414

>  <GCUT_SMR_1>
-0.12661241

>  <GCUT_SMR_2>
-0.041192144

>  <GCUT_SMR_3>
3.7743726

>  <Kier1>
46.382717

>  <Kier2>
18.507767

>  <Kier3>
10.699624

>  <KierA1>
45.574188

>  <KierA2>
18.178772

>  <KierA3>
10.50689

>  <KierFlex>
15.932362

>  <lip_acc>
14

>  <lip_don>
5

>  <lip_druglike>
0

>  <lip_violation>
2

>  <logP(o/w)>
3.4289999

>  <logS>
-3.6912899

>  <mr>
19.448305

>  <mutagenic>
0

>  <nmol>
1

>  <opr_brigid>
27

>  <opr_leadlike>
0

>  <opr_nring>
2

>  <opr_nrot>
25

>  <opr_violation>
3

>  <PC+>
0

>  <PC->
0

>  <PEOE_PC+>
5.4299173

>  <PEOE_PC->
-5.4299173

>  <PEOE_RPC+>
0.049328651

>  <PEOE_RPC->
0.071331121

>  <PEOE_VSA+0>
283.51407

>  <PEOE_VSA+1>
79.974663

>  <PEOE_VSA+2>
14.714787

>  <PEOE_VSA+3>
22.309816

>  <PEOE_VSA+4>
51.620865

>  <PEOE_VSA+5>
14.708499

>  <PEOE_VSA+6>
0

>  <PEOE_VSA-0>
208.30608

>  <PEOE_VSA-1>
74.990707

>  <PEOE_VSA-2>
0

>  <PEOE_VSA-3>
0

>  <PEOE_VSA-4>
0

>  <PEOE_VSA-5>
13.566921

>  <PEOE_VSA-6>
53.860237

>  <PEOE_VSA_FHYD>
0.83639681

>  <PEOE_VSA_FNEG>
0.42898515

>  <PEOE_VSA_FPNEG>
0.08247298

>  <PEOE_VSA_FPOL>
0.1636032

>  <PEOE_VSA_FPOS>
0.57101488

>  <PEOE_VSA_FPPOS>
0.081130221

>  <PEOE_VSA_HYD>
683.81012

>  <PEOE_VSA_NEG>
350.72394

>  <PEOE_VSA_PNEG>
67.427162

>  <PEOE_VSA_POL>
133.75652

>  <PEOE_VSA_POS>
466.84268

>  <PEOE_VSA_PPOS>
66.329361

>  <petitjean>
0.42857143

>  <petitjeanSC>
0.75

>  <Q_PC+>
0

>  <Q_PC->
0

>  <Q_RPC+>
0

>  <Q_RPC->
0

>  <Q_VSA_FHYD>
1

>  <Q_VSA_FNEG>
0

>  <Q_VSA_FPNEG>
0

>  <Q_VSA_FPOL>
0

>  <Q_VSA_FPOS>
1

>  <Q_VSA_FPPOS>
0

>  <Q_VSA_HYD>
817.56665

>  <Q_VSA_NEG>
0

>  <Q_VSA_PNEG>
0

>  <Q_VSA_POL>
0

>  <Q_VSA_POS>
817.56665

>  <Q_VSA_PPOS>
0

>  <radius>
8

>  <reactive>
1

>  <rings>
3

>  <RPC+>
0

>  <RPC->
0

>  <rsynth>
0.46153846

>  <SlogP>
1.9007

>  <SlogP_VSA0>
126.92613

>  <SlogP_VSA1>
13.994092

>  <SlogP_VSA2>
166.62769

>  <SlogP_VSA3>
18.439579

>  <SlogP_VSA4>
13.232388

>  <SlogP_VSA5>
134.07542

>  <SlogP_VSA6>
0

>  <SlogP_VSA7>
0

>  <SlogP_VSA8>
75.473625

>  <SlogP_VSA9>
333.26016

>  <SMR>
19.4179

>  <SMR_VSA0>
89.861542

>  <SMR_VSA1>
133.17476

>  <SMR_VSA2>
13.232388

>  <SMR_VSA3>
76.766136

>  <SMR_VSA4>
0

>  <SMR_VSA5>
75.473625

>  <SMR_VSA6>
26.185041

>  <SMR_VSA7>
467.33557

>  <TPSA>
180.08

>  <VAdjEq>
0.24202083

>  <VAdjMa>
6.7548876

>  <VDistEq>
3.6935883

>  <VDistMa>
11.194571

>  <vdw_area>
817.56665

>  <vdw_vol>
1044.0806

>  <vsa_acc>
26.085701

>  <vsa_acid>
0

>  <vsa_base>
0

>  <vsa_don>
0

>  <vsa_hyd>
602.66766

>  <vsa_other>
46.629253

>  <vsa_pol>
93.920303

>  <Weight>
748.99597

>  <weinerPath>
9356

>  <weinerPol>
101

>  <zagreb>
274

$$$$