Clc1ccc(cc1)-c1cc2c([nH]cc2C(=O)c2c(F)c(NS(=O)(=O)CCC)ccc2F)nc1
  MOE2013           2D

 33 36  0  0  0  0  0  0  0  0999 V2000
    0.0000    0.0000    0.0000 Cl  0  0  0  0  0  0  0  0  0  0  0  0
    0.7420    1.3040    0.0000 C   0  0  0  0  0  0  0  0  0  0  0  0
   -0.0170    2.5980    0.0000 C   0  0  0  0  0  0  0  0  0  0  0  0
    0.7250    3.9020    0.0000 C   0  0  0  0  0  0  0  0  0  0  0  0
    2.2250    3.9110    0.0000 C   0  0  0  0  0  0  0  0  0  0  0  0
    2.9830    2.6170    0.0000 C   0  0  0  0  0  0  0  0  0  0  0  0
    2.2420    1.3130    0.0000 C   0  0  0  0  0  0  0  0  0  0  0  0
    2.9670    5.2150    0.0000 C   0  0  0  0  0  0  0  0  0  0  0  0
    4.4670    5.2250    0.0000 C   0  0  0  0  0  0  0  0  0  0  0  0
    5.2080    6.5290    0.0000 C   0  0  0  0  0  0  0  0  0  0  0  0
    4.4500    7.8230    0.0000 C   0  0  0  0  0  0  0  0  0  0  0  0
    5.4470    8.9440    0.0000 N   0  0  0  0  0  0  0  0  0  0  0  0
    6.8210    8.3430    0.0000 C   0  0  0  0  0  0  0  0  0  0  0  0
    6.6740    6.8500    0.0000 C   0  0  0  0  0  0  0  0  0  0  0  0
    7.7950    5.8530    0.0000 C   0  0  0  0  0  0  0  0  0  0  0  0
    7.4920    4.3840    0.0000 O   0  0  0  0  0  0  0  0  0  0  0  0
    9.2180    6.3260    0.0000 C   0  0  0  0  0  0  0  0  0  0  0  0
   10.3390    5.3290    0.0000 C   0  0  0  0  0  0  0  0  0  0  0  0
   10.0370    3.8600    0.0000 F   0  0  0  0  0  0  0  0  0  0  0  0
   11.7630    5.8020    0.0000 C   0  0  0  0  0  0  0  0  0  0  0  0
   12.8840    4.8060    0.0000 N   0  0  0  0  0  0  0  0  0  0  0  0
   14.3080    5.2780    0.0000 S   0  0  0  0  0  0  0  0  0  0  0  0
   14.7800    3.8550    0.0000 O   0  0  0  0  0  0  0  0  0  0  0  0
   13.8350    6.7020    0.0000 O   0  0  0  0  0  0  0  0  0  0  0  0
   15.7310    5.7510    0.0000 C   0  0  0  0  0  0  0  0  0  0  0  0
   16.8520    4.7540    0.0000 C   0  0  0  0  0  0  0  0  0  0  0  0
   18.2760    5.2270    0.0000 C   0  0  0  0  0  0  0  0  0  0  0  0
   12.0650    7.2710    0.0000 C   0  0  0  0  0  0  0  0  0  0  0  0
   10.9440    8.2680    0.0000 C   0  0  0  0  0  0  0  0  0  0  0  0
    9.5210    7.7950    0.0000 C   0  0  0  0  0  0  0  0  0  0  0  0
    8.4000    8.7920    0.0000 F   0  0  0  0  0  0  0  0  0  0  0  0
    2.9500    7.8130    0.0000 N   0  0  0  0  0  0  0  0  0  0  0  0
    2.2080    6.5090    0.0000 C   0  0  0  0  0  0  0  0  0  0  0  0
  1  2  1  0  0  0  0
  2  3  1  0  0  0  0
  2  7  2  0  0  0  0
  3  4  2  0  0  0  0
  4  5  1  0  0  0  0
  5  6  2  0  0  0  0
  5  8  1  0  0  0  0
  6  7  1  0  0  0  0
  8  9  1  0  0  0  0
  8 33  2  0  0  0  0
  9 10  2  0  0  0  0
 10 11  1  0  0  0  0
 10 14  1  0  0  0  0
 11 12  1  0  0  0  0
 11 32  2  0  0  0  0
 12 13  1  0  0  0  0
 13 14  2  0  0  0  0
 14 15  1  0  0  0  0
 15 16  2  0  0  0  0
 15 17  1  0  0  0  0
 17 18  1  0  0  0  0
 17 30  2  0  0  0  0
 18 19  1  0  0  0  0
 18 20  2  0  0  0  0
 20 21  1  0  0  0  0
 20 28  1  0  0  0  0
 21 22  1  0  0  0  0
 22 23  2  0  0  0  0
 22 24  2  0  0  0  0
 22 25  1  0  0  0  0
 25 26  1  0  0  0  0
 26 27  1  0  0  0  0
 28 29  2  0  0  0  0
 29 30  1  0  0  0  0
 30 31  1  0  0  0  0
 32 33  1  0  0  0  0
M  END
>  <Index>
1759

>  <ID>
HT2171

>  <class>
1

>  <apol>
64.382271

>  <ast_fraglike>
0

>  <ast_fraglike_ext>
0

>  <ast_violation>
3

>  <ast_violation_ext>
5

>  <a_acc>
5

>  <a_acid>
0

>  <a_aro>
21

>  <a_base>
0

>  <a_count>
51

>  <a_don>
3

>  <a_donacc>
8

>  <a_heavy>
33

>  <a_hyd>
24

>  <a_IC>
98.683342

>  <a_ICM>
1.9349675

>  <a_nB>
0

>  <a_nBr>
0

>  <a_nC>
23

>  <a_nCl>
1

>  <a_nF>
2

>  <a_nH>
18

>  <a_nI>
0

>  <a_nN>
3

>  <a_nO>
3

>  <a_nP>
0

>  <a_nS>
1

>  <balabanJ>
1.4191475

>  <BCUT_PEOE_0>
-2.5394218

>  <BCUT_PEOE_1>
-0.63489103

>  <BCUT_PEOE_2>
0.70230037

>  <BCUT_PEOE_3>
2.6132252

>  <BCUT_SLOGP_0>
-2.6239653

>  <BCUT_SLOGP_1>
-0.52627516

>  <BCUT_SLOGP_2>
0.81275111

>  <BCUT_SLOGP_3>
2.5823781

>  <BCUT_SMR_0>
-2.285692

>  <BCUT_SMR_1>
-0.45919597

>  <BCUT_SMR_2>
0.89440215

>  <BCUT_SMR_3>
2.9062986

>  <bpol>
32.577724

>  <b_1rotN>
7

>  <b_1rotR>
0.19444445

>  <b_ar>
22

>  <b_count>
54

>  <b_double>
1

>  <b_heavy>
36

>  <b_max1len>
6

>  <b_rotN>
7

>  <b_rotR>
0.19444445

>  <b_single>
31

>  <b_triple>
0

>  <chi0>
23.750347

>  <chi0v>
18.896893

>  <chi0v_C>
13.110366

>  <chi0_C>
15.129027

>  <chi1>
15.697509

>  <chi1v>
11.991772

>  <chi1v_C>
7.0938582

>  <chi1_C>
9.4562559

>  <chiral>
0

>  <chiral_u>
0

>  <density>
0.8577736

>  <diameter>
17

>  <FCharge>
0

>  <GCUT_PEOE_0>
-0.84085405

>  <GCUT_PEOE_1>
-0.40525013

>  <GCUT_PEOE_2>
0.072586171

>  <GCUT_PEOE_3>
2.6138716

>  <GCUT_SLOGP_0>
-0.94667596

>  <GCUT_SLOGP_1>
-0.34453383

>  <GCUT_SLOGP_2>
0.22232024

>  <GCUT_SLOGP_3>
2.7128229

>  <GCUT_SMR_0>
-0.51912552

>  <GCUT_SMR_1>
-0.19483569

>  <GCUT_SMR_2>
0.26970616

>  <GCUT_SMR_3>
2.9199429

>  <Kier1>
26.074074

>  <Kier2>
10.947668

>  <Kier3>
5.8775511

>  <KierA1>
20.600618

>  <KierA2>
8.5820198

>  <KierA3>
4.5812631

>  <KierFlex>
5.3574214

>  <lip_acc>
6

>  <lip_don>
2

>  <lip_druglike>
1

>  <lip_violation>
1

>  <logP(o/w)>
5.7049999

>  <logS>
-8.3166599

>  <mr>
12.505892

>  <mutagenic>
0

>  <nmol>
1

>  <opr_brigid>
22

>  <opr_leadlike>
0

>  <opr_nring>
4

>  <opr_nrot>
6

>  <opr_violation>
2

>  <PC+>
0

>  <PC->
0

>  <PEOE_PC+>
2.3911738

>  <PEOE_PC->
-2.3911738

>  <PEOE_RPC+>
0.083934329

>  <PEOE_RPC->
0.14433801

>  <PEOE_VSA+0>
91.470596

>  <PEOE_VSA+1>
49.216026

>  <PEOE_VSA+2>
37.763027

>  <PEOE_VSA+3>
19.296389

>  <PEOE_VSA+4>
8.458519

>  <PEOE_VSA+5>
0

>  <PEOE_VSA+6>
0

>  <PEOE_VSA-0>
51.228157

>  <PEOE_VSA-1>
85.094337

>  <PEOE_VSA-2>
0

>  <PEOE_VSA-3>
2.5295215

>  <PEOE_VSA-4>
61.516369

>  <PEOE_VSA-5>
13.566921

>  <PEOE_VSA-6>
0.13689101

>  <PEOE_VSA_FHYD>
0.80089617

>  <PEOE_VSA_FNEG>
0.50936007

>  <PEOE_VSA_FPNEG>
0.17897774

>  <PEOE_VSA_FPOL>
0.1991038

>  <PEOE_VSA_FPOS>
0.49063993

>  <PEOE_VSA_FPPOS>
0.020126071

>  <PEOE_VSA_HYD>
336.59805

>  <PEOE_VSA_NEG>
214.07219

>  <PEOE_VSA_PNEG>
75.220184

>  <PEOE_VSA_POL>
83.678703

>  <PEOE_VSA_POS>
206.20456

>  <PEOE_VSA_PPOS>
8.458519

>  <petitjean>
0.47058824

>  <petitjeanSC>
0.8888889

>  <Q_PC+>
0

>  <Q_PC->
0

>  <Q_RPC+>
0

>  <Q_RPC->
0

>  <Q_VSA_FHYD>
1

>  <Q_VSA_FNEG>
0

>  <Q_VSA_FPNEG>
0

>  <Q_VSA_FPOL>
0

>  <Q_VSA_FPOS>
1

>  <Q_VSA_FPPOS>
0

>  <Q_VSA_HYD>
420.27676

>  <Q_VSA_NEG>
0

>  <Q_VSA_PNEG>
0

>  <Q_VSA_POL>
0

>  <Q_VSA_POS>
420.27676

>  <Q_VSA_PPOS>
0

>  <radius>
9

>  <reactive>
1

>  <rings>
4

>  <RPC+>
0

>  <RPC->
0

>  <rsynth>
1

>  <SlogP>
5.5441999

>  <SlogP_VSA0>
0

>  <SlogP_VSA1>
87.049828

>  <SlogP_VSA2>
41.668308

>  <SlogP_VSA3>
17.233564

>  <SlogP_VSA4>
30.233366

>  <SlogP_VSA5>
0

>  <SlogP_VSA6>
3.5006065

>  <SlogP_VSA7>
168.59042

>  <SlogP_VSA8>
18.868406

>  <SlogP_VSA9>
105.15163

>  <SMR>
12.40307

>  <SMR_VSA0>
72.033905

>  <SMR_VSA1>
46.705757

>  <SMR_VSA2>
35.027565

>  <SMR_VSA3>
9.8717566

>  <SMR_VSA4>
29.821169

>  <SMR_VSA5>
176.79941

>  <SMR_VSA6>
22.921175

>  <SMR_VSA7>
79.115402

>  <TPSA>
91.919998

>  <VAdjEq>
0.3512581

>  <VAdjMa>
6.1699252

>  <VDistEq>
3.737035

>  <VDistMa>
9.7987051

>  <vdw_area>
420.27676

>  <vdw_vol>
571.16473

>  <vsa_acc>
45.583443

>  <vsa_acid>
0

>  <vsa_base>
0

>  <vsa_don>
8.0752068

>  <vsa_hyd>
307.96289

>  <vsa_other>
29.75469

>  <vsa_pol>
65.023804

>  <Weight>
489.92999

>  <weinerPath>
3262

>  <weinerPol>
56

>  <zagreb>
178

$$$$