O1c2c(OCC1C(=O)N1CCN(CC1)c1nc(N)c3cc(OC)c(OC)cc3n1)cccc2
  MOE2013           2D

 33 37  0  0  1  0  0  0  0  0999 V2000
    0.0000    0.0000    0.0000 O   0  0  0  0  0  0  0  0  0  0  0  0
    0.7590    1.2940    0.0000 C   0  0  0  0  0  0  0  0  0  0  0  0
    0.0190    2.5980    0.0000 C   0  0  0  0  0  0  0  0  0  0  0  0
   -1.4810    2.6090    0.0000 O   0  0  0  0  0  0  0  0  0  0  0  0
   -2.2400    1.3150    0.0000 C   0  0  0  0  0  0  0  0  0  0  0  0
   -1.5000    0.0110    0.0000 C   0  0  3  0  0  0  0  0  0  0  0  0
   -2.2590   -1.2830    0.0000 C   0  0  0  0  0  0  0  0  0  0  0  0
   -1.5190   -2.5870    0.0000 O   0  0  0  0  0  0  0  0  0  0  0  0
   -3.7590   -1.2720    0.0000 N   0  0  0  0  0  0  0  0  0  0  0  0
   -4.5000    0.0330    0.0000 C   0  0  0  0  0  0  0  0  0  0  0  0
   -6.0000    0.0440    0.0000 C   0  0  0  0  0  0  0  0  0  0  0  0
   -6.7590   -1.2500    0.0000 N   0  0  0  0  0  0  0  0  0  0  0  0
   -6.0190   -2.5540    0.0000 C   0  0  0  0  0  0  0  0  0  0  0  0
   -4.5190   -2.5650    0.0000 C   0  0  0  0  0  0  0  0  0  0  0  0
   -8.2590   -1.2390    0.0000 C   0  0  0  0  0  0  0  0  0  0  0  0
   -9.0000    0.0660    0.0000 N   0  0  0  0  0  0  0  0  0  0  0  0
  -10.5000    0.0770    0.0000 C   0  0  0  0  0  0  0  0  0  0  0  0
  -11.2400    1.3810    0.0000 N   0  0  0  0  0  0  0  0  0  0  0  0
  -11.2590   -1.2170    0.0000 C   0  0  0  0  0  0  0  0  0  0  0  0
  -12.7590   -1.2060    0.0000 C   0  0  0  0  0  0  0  0  0  0  0  0
  -13.5190   -2.4990    0.0000 C   0  0  0  0  0  0  0  0  0  0  0  0
  -15.0190   -2.4880    0.0000 O   0  0  0  0  0  0  0  0  0  0  0  0
  -15.7590   -1.1840    0.0000 C   0  0  0  0  0  0  0  0  0  0  0  0
  -12.7780   -3.8040    0.0000 C   0  0  0  0  0  0  0  0  0  0  0  0
  -13.5380   -5.0970    0.0000 O   0  0  0  0  0  0  0  0  0  0  0  0
  -12.7970   -6.4020    0.0000 C   0  0  0  0  0  0  0  0  0  0  0  0
  -11.2780   -3.8150    0.0000 C   0  0  0  0  0  0  0  0  0  0  0  0
  -10.5190   -2.5210    0.0000 C   0  0  0  0  0  0  0  0  0  0  0  0
   -9.0190   -2.5320    0.0000 N   0  0  0  0  0  0  0  0  0  0  0  0
    0.7790    3.8920    0.0000 C   0  0  0  0  0  0  0  0  0  0  0  0
    2.2780    3.8810    0.0000 C   0  0  0  0  0  0  0  0  0  0  0  0
    3.0190    2.5760    0.0000 C   0  0  0  0  0  0  0  0  0  0  0  0
    2.2590    1.2830    0.0000 C   0  0  0  0  0  0  0  0  0  0  0  0
  1  2  1  0  0  0  0
  1  6  1  0  0  0  0
  2  3  1  0  0  0  0
  2 33  2  0  0  0  0
  3  4  1  0  0  0  0
  3 30  2  0  0  0  0
  4  5  1  0  0  0  0
  5  6  1  0  0  0  0
  6  7  1  0  0  0  0
  7  8  2  0  0  0  0
  7  9  1  0  0  0  0
  9 10  1  0  0  0  0
  9 14  1  0  0  0  0
 10 11  1  0  0  0  0
 11 12  1  0  0  0  0
 12 13  1  0  0  0  0
 12 15  1  0  0  0  0
 13 14  1  0  0  0  0
 15 16  1  0  0  0  0
 15 29  2  0  0  0  0
 16 17  2  0  0  0  0
 17 18  1  0  0  0  0
 17 19  1  0  0  0  0
 19 20  1  0  0  0  0
 19 28  2  0  0  0  0
 20 21  2  0  0  0  0
 21 22  1  0  0  0  0
 21 24  1  0  0  0  0
 22 23  1  0  0  0  0
 24 25  1  0  0  0  0
 24 27  2  0  0  0  0
 25 26  1  0  0  0  0
 27 28  1  0  0  0  0
 28 29  1  0  0  0  0
 30 31  1  0  0  0  0
 31 32  2  0  0  0  0
 32 33  1  0  0  0  0
M  END
>  <Index>
1539

>  <ID>
HT0715

>  <class>
1

>  <apol>
66.659828

>  <ast_fraglike>
0

>  <ast_fraglike_ext>
0

>  <ast_violation>
2

>  <ast_violation_ext>
3

>  <a_acc>
7

>  <a_acid>
0

>  <a_aro>
16

>  <a_base>
0

>  <a_count>
58

>  <a_don>
1

>  <a_donacc>
8

>  <a_heavy>
33

>  <a_hyd>
20

>  <a_IC>
96.405289

>  <a_ICM>
1.6621602

>  <a_nB>
0

>  <a_nBr>
0

>  <a_nC>
23

>  <a_nCl>
0

>  <a_nF>
0

>  <a_nH>
25

>  <a_nI>
0

>  <a_nN>
5

>  <a_nO>
5

>  <a_nP>
0

>  <a_nS>
0

>  <balabanJ>
1.1228069

>  <BCUT_PEOE_0>
-2.7165072

>  <BCUT_PEOE_1>
-0.56834251

>  <BCUT_PEOE_2>
0.59624439

>  <BCUT_PEOE_3>
2.6708164

>  <BCUT_SLOGP_0>
-2.8759196

>  <BCUT_SLOGP_1>
-0.54868025

>  <BCUT_SLOGP_2>
0.63331282

>  <BCUT_SLOGP_3>
2.5313928

>  <BCUT_SMR_0>
-2.4353869

>  <BCUT_SMR_1>
-0.40038866

>  <BCUT_SMR_2>
0.75636977

>  <BCUT_SMR_3>
2.9382498

>  <bpol>
41.892174

>  <b_1rotN>
5

>  <b_1rotR>
0.13513513

>  <b_ar>
17

>  <b_count>
62

>  <b_double>
1

>  <b_heavy>
37

>  <b_max1len>
2

>  <b_rotN>
5

>  <b_rotR>
0.13513513

>  <b_single>
44

>  <b_triple>
0

>  <chi0>
22.949018

>  <chi0v>
18.484432

>  <chi0v_C>
14.076985

>  <chi0_C>
15.551678

>  <chi1>
16.067213

>  <chi1v>
10.685696

>  <chi1v_C>
5.4289742

>  <chi1_C>
7.0244045

>  <chiral>
1

>  <chiral_u>
1

>  <density>
0.77297896

>  <diameter>
18

>  <FCharge>
0

>  <GCUT_PEOE_0>
-0.84266353

>  <GCUT_PEOE_1>
-0.41987026

>  <GCUT_PEOE_2>
0.042103767

>  <GCUT_PEOE_3>
2.7588971

>  <GCUT_SLOGP_0>
-1.3348329

>  <GCUT_SLOGP_1>
-0.41458052

>  <GCUT_SLOGP_2>
0.10306808

>  <GCUT_SLOGP_3>
2.7731667

>  <GCUT_SMR_0>
-0.50646913

>  <GCUT_SMR_1>
-0.197653

>  <GCUT_SMR_2>
0.16144761

>  <GCUT_SMR_3>
3.024482

>  <Kier1>
24.68371

>  <Kier2>
10.947668

>  <Kier3>
5.2593136

>  <KierA1>
18.486128

>  <KierA2>
8.1197281

>  <KierA3>
3.8732514

>  <KierFlex>
4.5485554

>  <lip_acc>
10

>  <lip_don>
2

>  <lip_druglike>
1

>  <lip_violation>
0

>  <logP(o/w)>
0.97974002

>  <logS>
-5.05583

>  <mr>
12.012991

>  <mutagenic>
1

>  <nmol>
1

>  <opr_brigid>
28

>  <opr_leadlike>
0

>  <opr_nring>
5

>  <opr_nrot>
7

>  <opr_violation>
3

>  <PC+>
0

>  <PC->
0

>  <PEOE_PC+>
3.1087506

>  <PEOE_PC->
-3.1087506

>  <PEOE_RPC+>
0.082120582

>  <PEOE_RPC->
0.11107995

>  <PEOE_VSA+0>
122.0347

>  <PEOE_VSA+1>
102.69318

>  <PEOE_VSA+2>
62.262665

>  <PEOE_VSA+3>
4.9049287

>  <PEOE_VSA+4>
15.681574

>  <PEOE_VSA+5>
12.949531

>  <PEOE_VSA+6>
0

>  <PEOE_VSA-0>
49.019615

>  <PEOE_VSA-1>
24.509808

>  <PEOE_VSA-2>
0

>  <PEOE_VSA-3>
0

>  <PEOE_VSA-4>
11.365152

>  <PEOE_VSA-5>
20.21804

>  <PEOE_VSA-6>
10.015024

>  <PEOE_VSA_FHYD>
0.83879572

>  <PEOE_VSA_FNEG>
0.26426381

>  <PEOE_VSA_FPNEG>
0.09548448

>  <PEOE_VSA_FPOL>
0.16120428

>  <PEOE_VSA_FPOS>
0.73573619

>  <PEOE_VSA_FPPOS>
0.065719791

>  <PEOE_VSA_HYD>
365.4249

>  <PEOE_VSA_NEG>
115.12764

>  <PEOE_VSA_PNEG>
41.598217

>  <PEOE_VSA_POL>
70.229324

>  <PEOE_VSA_POS>
320.52658

>  <PEOE_VSA_PPOS>
28.631105

>  <petitjean>
0.5

>  <petitjeanSC>
1

>  <Q_PC+>
0

>  <Q_PC->
0

>  <Q_RPC+>
0

>  <Q_RPC->
0

>  <Q_VSA_FHYD>
1

>  <Q_VSA_FNEG>
0

>  <Q_VSA_FPNEG>
0

>  <Q_VSA_FPOL>
0

>  <Q_VSA_FPOS>
1

>  <Q_VSA_FPPOS>
0

>  <Q_VSA_HYD>
435.65421

>  <Q_VSA_NEG>
0

>  <Q_VSA_PNEG>
0

>  <Q_VSA_POL>
0

>  <Q_VSA_POS>
435.65421

>  <Q_VSA_PPOS>
0

>  <radius>
9

>  <reactive>
0

>  <rings>
5

>  <RPC+>
0

>  <RPC->
0

>  <rsynth>
1

>  <SlogP>
1.7178

>  <SlogP_VSA0>
80.021049

>  <SlogP_VSA1>
41.954155

>  <SlogP_VSA2>
30.330866

>  <SlogP_VSA3>
94.68457

>  <SlogP_VSA4>
0

>  <SlogP_VSA5>
70.767738

>  <SlogP_VSA6>
0

>  <SlogP_VSA7>
110.57621

>  <SlogP_VSA8>
0

>  <SlogP_VSA9>
25.200726

>  <SMR>
12.22004

>  <SMR_VSA0>
23.862217

>  <SMR_VSA1>
80.694923

>  <SMR_VSA2>
3.1243138

>  <SMR_VSA3>
27.442362

>  <SMR_VSA4>
8.9441147

>  <SMR_VSA5>
138.75629

>  <SMR_VSA6>
99.943352

>  <SMR_VSA7>
70.767738

>  <TPSA>
112.27

>  <VAdjEq>
0.35823497

>  <VAdjMa>
6.2094536

>  <VDistEq>
3.9000766

>  <VDistMa>
9.7593842

>  <vdw_area>
435.65421

>  <vdw_vol>
584.08185

>  <vsa_acc>
34.947098

>  <vsa_acid>
0

>  <vsa_base>
0

>  <vsa_don>
17.742489

>  <vsa_hyd>
320.625

>  <vsa_other>
39.821667

>  <vsa_pol>
52.689587

>  <Weight>
451.483

>  <weinerPath>
3556

>  <weinerPol>
59

>  <zagreb>
180

$$$$