Clc1sc(cc1)C(=O)NC[C@@H]1OC(=O)N(C1)c1ccc(N2CCOCC2=O)cc1
  MOE2013           2D

 29 32  0  0  1  0  0  0  0  0999 V2000
    0.0000    0.0000    0.0000 Cl  0  0  0  0  0  0  0  0  0  0  0  0
   -1.4670    0.3150    0.0000 C   0  0  0  0  0  0  0  0  0  0  0  0
   -2.5830   -0.6870    0.0000 S   0  0  0  0  0  0  0  0  0  0  0  0
   -3.8810    0.0660    0.0000 C   0  0  0  0  0  0  0  0  0  0  0  0
   -3.5660    1.5330    0.0000 C   0  0  0  0  0  0  0  0  0  0  0  0
   -2.0740    1.6860    0.0000 C   0  0  0  0  0  0  0  0  0  0  0  0
   -5.2520   -0.5410    0.0000 C   0  0  0  0  0  0  0  0  0  0  0  0
   -5.4120   -2.0330    0.0000 O   0  0  0  0  0  0  0  0  0  0  0  0
   -6.4640    0.3430    0.0000 N   0  0  0  0  0  0  0  0  0  0  0  0
   -7.8360   -0.2640    0.0000 C   0  0  0  0  0  0  0  0  0  0  0  0
   -9.0470    0.6200    0.0000 C   0  0  2  0  0  0  0  0  0  0  0  0
   -9.0440    2.1200    0.0000 O   0  0  0  0  0  0  0  0  0  0  0  0
  -10.4700    2.5860    0.0000 C   0  0  0  0  0  0  0  0  0  0  0  0
  -10.9310    4.0140    0.0000 O   0  0  0  0  0  0  0  0  0  0  0  0
  -11.3540    1.3750    0.0000 N   0  0  0  0  0  0  0  0  0  0  0  0
  -10.4750    0.1590    0.0000 C   0  0  0  0  0  0  0  0  0  0  0  0
  -12.8540    1.3780    0.0000 C   0  0  0  0  0  0  0  0  0  0  0  0
  -13.6010    2.6780    0.0000 C   0  0  0  0  0  0  0  0  0  0  0  0
  -15.1010    2.6810    0.0000 C   0  0  0  0  0  0  0  0  0  0  0  0
  -15.8540    1.3840    0.0000 C   0  0  0  0  0  0  0  0  0  0  0  0
  -17.3540    1.3870    0.0000 N   0  0  0  0  0  0  0  0  0  0  0  0
  -18.1010    2.6880    0.0000 C   0  0  0  0  0  0  0  0  0  0  0  0
  -19.6010    2.6910    0.0000 C   0  0  0  0  0  0  0  0  0  0  0  0
  -20.3540    1.3930    0.0000 O   0  0  0  0  0  0  0  0  0  0  0  0
  -19.6070    0.0930    0.0000 C   0  0  0  0  0  0  0  0  0  0  0  0
  -18.1070    0.0900    0.0000 C   0  0  0  0  0  0  0  0  0  0  0  0
  -17.3590   -1.2110    0.0000 O   0  0  0  0  0  0  0  0  0  0  0  0
  -15.1070    0.0830    0.0000 C   0  0  0  0  0  0  0  0  0  0  0  0
  -13.6070    0.0800    0.0000 C   0  0  0  0  0  0  0  0  0  0  0  0
  1  2  1  0  0  0  0
  2  3  1  0  0  0  0
  2  6  2  0  0  0  0
  3  4  1  0  0  0  0
  4  5  2  0  0  0  0
  4  7  1  0  0  0  0
  5  6  1  0  0  0  0
  7  8  2  0  0  0  0
  7  9  1  0  0  0  0
  9 10  1  0  0  0  0
 11 10  1  1  0  0  0
 11 12  1  0  0  0  0
 11 16  1  0  0  0  0
 12 13  1  0  0  0  0
 13 14  2  0  0  0  0
 13 15  1  0  0  0  0
 15 16  1  0  0  0  0
 15 17  1  0  0  0  0
 17 18  1  0  0  0  0
 17 29  2  0  0  0  0
 18 19  2  0  0  0  0
 19 20  1  0  0  0  0
 20 21  1  0  0  0  0
 20 28  2  0  0  0  0
 21 22  1  0  0  0  0
 21 26  1  0  0  0  0
 22 23  1  0  0  0  0
 23 24  1  0  0  0  0
 24 25  1  0  0  0  0
 25 26  1  0  0  0  0
 26 27  2  0  0  0  0
 28 29  1  0  0  0  0
M  END
>  <Index>
1717

>  <ID>
HT1834

>  <class>
1

>  <apol>
57.832275

>  <ast_fraglike>
0

>  <ast_fraglike_ext>
0

>  <ast_violation>
2

>  <ast_violation_ext>
3

>  <a_acc>
4

>  <a_acid>
0

>  <a_aro>
11

>  <a_base>
0

>  <a_count>
47

>  <a_don>
1

>  <a_donacc>
5

>  <a_heavy>
29

>  <a_hyd>
18

>  <a_IC>
88.931877

>  <a_ICM>
1.8921676

>  <a_nB>
0

>  <a_nBr>
0

>  <a_nC>
19

>  <a_nCl>
1

>  <a_nF>
0

>  <a_nH>
18

>  <a_nI>
0

>  <a_nN>
3

>  <a_nO>
5

>  <a_nP>
0

>  <a_nS>
1

>  <balabanJ>
1.2016723

>  <BCUT_PEOE_0>
-2.5775592

>  <BCUT_PEOE_1>
-0.61097699

>  <BCUT_PEOE_2>
0.6573835

>  <BCUT_PEOE_3>
2.6421652

>  <BCUT_SLOGP_0>
-2.7356489

>  <BCUT_SLOGP_1>
-0.49771142

>  <BCUT_SLOGP_2>
0.74905109

>  <BCUT_SLOGP_3>
2.5055678

>  <BCUT_SMR_0>
-2.3024807

>  <BCUT_SMR_1>
-0.40775761

>  <BCUT_SMR_2>
0.82340801

>  <BCUT_SMR_3>
2.8922091

>  <bpol>
33.703728

>  <b_1rotN>
5

>  <b_1rotR>
0.15625

>  <b_ar>
11

>  <b_count>
50

>  <b_double>
3

>  <b_heavy>
32

>  <b_max1len>
4

>  <b_rotN>
6

>  <b_rotR>
0.1875

>  <b_single>
36

>  <b_triple>
0

>  <chi0>
20.380104

>  <chi0v>
16.871292

>  <chi0v_C>
11.076985

>  <chi0_C>
12.396976

>  <chi1>
14.00804

>  <chi1v>
10.203777

>  <chi1v_C>
4.6521006

>  <chi1_C>
6.0075679

>  <chiral>
1

>  <chiral_u>
0

>  <density>
0.85762757

>  <diameter>
17

>  <FCharge>
0

>  <GCUT_PEOE_0>
-0.82965761

>  <GCUT_PEOE_1>
-0.43265316

>  <GCUT_PEOE_2>
0.086088747

>  <GCUT_PEOE_3>
2.6168795

>  <GCUT_SLOGP_0>
-1.1614279

>  <GCUT_SLOGP_1>
-0.35023156

>  <GCUT_SLOGP_2>
0.16309789

>  <GCUT_SLOGP_3>
2.6338186

>  <GCUT_SMR_0>
-0.51394719

>  <GCUT_SMR_1>
-0.19708437

>  <GCUT_SMR_2>
0.25479713

>  <GCUT_SMR_3>
2.8932674

>  <Kier1>
22.203125

>  <Kier2>
10.08

>  <Kier3>
5.4375181

>  <KierA1>
18.328346

>  <KierA2>
8.2607079

>  <KierA3>
4.4323406

>  <KierFlex>
5.2208657

>  <lip_acc>
8

>  <lip_don>
1

>  <lip_druglike>
1

>  <lip_violation>
0

>  <logP(o/w)>
1.626

>  <logS>
-4.88691

>  <mr>
10.978176

>  <mutagenic>
0

>  <nmol>
1

>  <opr_brigid>
22

>  <opr_leadlike>
1

>  <opr_nring>
4

>  <opr_nrot>
6

>  <opr_violation>
0

>  <PC+>
0

>  <PC->
0

>  <PEOE_PC+>
2.7507968

>  <PEOE_PC->
-2.7507968

>  <PEOE_RPC+>
0.13381629

>  <PEOE_RPC->
0.13399744

>  <PEOE_VSA+0>
39.783752

>  <PEOE_VSA+1>
100.65518

>  <PEOE_VSA+2>
19.856222

>  <PEOE_VSA+3>
28.379631

>  <PEOE_VSA+4>
12.949531

>  <PEOE_VSA+5>
12.949531

>  <PEOE_VSA+6>
19.199511

>  <PEOE_VSA-0>
59.700024

>  <PEOE_VSA-1>
54.091755

>  <PEOE_VSA-2>
0

>  <PEOE_VSA-3>
0

>  <PEOE_VSA-4>
13.566921

>  <PEOE_VSA-5>
29.637598

>  <PEOE_VSA-6>
2.6406472

>  <PEOE_VSA_FHYD>
0.76883233

>  <PEOE_VSA_FNEG>
0.40577725

>  <PEOE_VSA_FPNEG>
0.11653271

>  <PEOE_VSA_FPOL>
0.23116766

>  <PEOE_VSA_FPOS>
0.59422278

>  <PEOE_VSA_FPPOS>
0.11463495

>  <PEOE_VSA_HYD>
302.46655

>  <PEOE_VSA_NEG>
159.63695

>  <PEOE_VSA_PNEG>
45.845165

>  <PEOE_VSA_POL>
90.943741

>  <PEOE_VSA_POS>
233.77336

>  <PEOE_VSA_PPOS>
45.098572

>  <petitjean>
0.47058824

>  <petitjeanSC>
0.8888889

>  <Q_PC+>
0

>  <Q_PC->
0

>  <Q_RPC+>
0

>  <Q_RPC->
0

>  <Q_VSA_FHYD>
1

>  <Q_VSA_FNEG>
0

>  <Q_VSA_FPNEG>
0

>  <Q_VSA_FPOL>
0

>  <Q_VSA_FPOS>
1

>  <Q_VSA_FPPOS>
0

>  <Q_VSA_HYD>
393.41031

>  <Q_VSA_NEG>
0

>  <Q_VSA_PNEG>
0

>  <Q_VSA_POL>
0

>  <Q_VSA_POS>
393.41031

>  <Q_VSA_PPOS>
0

>  <radius>
9

>  <reactive>
0

>  <rings>
4

>  <RPC+>
0

>  <RPC->
0

>  <rsynth>
1

>  <SlogP>
2.5199001

>  <SlogP_VSA0>
24.259378

>  <SlogP_VSA1>
17.834204

>  <SlogP_VSA2>
52.330643

>  <SlogP_VSA3>
97.171249

>  <SlogP_VSA4>
25.220617

>  <SlogP_VSA5>
0

>  <SlogP_VSA6>
1.6734328

>  <SlogP_VSA7>
105.85911

>  <SlogP_VSA8>
0

>  <SlogP_VSA9>
99.80204

>  <SMR>
10.88912

>  <SMR_VSA0>
93.586426

>  <SMR_VSA1>
0

>  <SMR_VSA2>
24.259378

>  <SMR_VSA3>
9.5004835

>  <SMR_VSA4>
5.513495

>  <SMR_VSA5>
105.85911

>  <SMR_VSA6>
115.00546

>  <SMR_VSA7>
70.426331

>  <TPSA>
88.18

>  <VAdjEq>
0.38828552

>  <VAdjMa>
6

>  <VDistEq>
3.8423753

>  <VDistMa>
9.3793917

>  <vdw_area>
393.41031

>  <vdw_vol>
508.2486

>  <vsa_acc>
43.204517

>  <vsa_acid>
0

>  <vsa_base>
0

>  <vsa_don>
5.6825762

>  <vsa_hyd>
281.74704

>  <vsa_other>
47.602329

>  <vsa_pol>
48.887096

>  <Weight>
435.888

>  <weinerPath>
2633

>  <weinerPol>
43

>  <zagreb>
154

$$$$