S(=O)(=O)(CCn1c(ncc1[N+](=O)[O-])C)CC
  MOE2013           2D

 16 16  0  0  0  0  0  0  0  0999 V2000
    0.0000    0.0000    0.0000 S   0  0  0  0  0  0  0  0  0  0  0  0
    0.7420   -1.3040    0.0000 O   0  0  0  0  0  0  0  0  0  0  0  0
   -0.7420    1.3040    0.0000 O   0  0  0  0  0  0  0  0  0  0  0  0
   -1.3040   -0.7420    0.0000 C   0  0  0  0  0  0  0  0  0  0  0  0
   -2.5980    0.0160    0.0000 C   0  0  0  0  0  0  0  0  0  0  0  0
   -3.9020   -0.7260    0.0000 N   0  0  0  0  0  0  0  0  0  0  0  0
   -4.0680   -2.2160    0.0000 C   0  0  0  0  0  0  0  0  0  0  0  0
   -5.5370   -2.5190    0.0000 N   0  0  0  0  0  0  0  0  0  0  0  0
   -6.2790   -1.2150    0.0000 C   0  0  0  0  0  0  0  0  0  0  0  0
   -5.2680   -0.1070    0.0000 C   0  0  0  0  0  0  0  0  0  0  0  0
   -5.5710    1.3620    0.0000 N   0  3  0  0  0  0  0  0  0  0  0  0
   -4.4500    2.3590    0.0000 O   0  0  0  0  0  0  0  0  0  0  0  0
   -6.9950    1.8350    0.0000 O   0  5  0  0  0  0  0  0  0  0  0  0
   -2.9590   -3.2270    0.0000 C   0  0  0  0  0  0  0  0  0  0  0  0
    1.3040    0.7420    0.0000 C   0  0  0  0  0  0  0  0  0  0  0  0
    2.5980   -0.0160    0.0000 C   0  0  0  0  0  0  0  0  0  0  0  0
  1  2  2  0  0  0  0
  1  3  2  0  0  0  0
  1  4  1  0  0  0  0
  1 15  1  0  0  0  0
  4  5  1  0  0  0  0
  5  6  1  0  0  0  0
  6  7  1  0  0  0  0
  6 10  1  0  0  0  0
  7  8  2  0  0  0  0
  7 14  1  0  0  0  0
  8  9  1  0  0  0  0
  9 10  2  0  0  0  0
 10 11  1  0  0  0  0
 11 12  2  0  0  0  0
 11 13  1  0  0  0  0
 15 16  1  0  0  0  0
M  CHG  1  11   1
M  CHG  1  13  -1
M  END
>  <Index>
1746

>  <ID>
HT2065

>  <class>
1

>  <apol>
32.156307

>  <ast_fraglike>
1

>  <ast_fraglike_ext>
0

>  <ast_violation>
0

>  <ast_violation_ext>
1

>  <a_acc>
3

>  <a_acid>
0

>  <a_aro>
5

>  <a_base>
0

>  <a_count>
29

>  <a_don>
0

>  <a_donacc>
3

>  <a_heavy>
16

>  <a_hyd>
7

>  <a_IC>
56.020844

>  <a_ICM>
1.9317533

>  <a_nB>
0

>  <a_nBr>
0

>  <a_nC>
8

>  <a_nCl>
0

>  <a_nF>
0

>  <a_nH>
13

>  <a_nI>
0

>  <a_nN>
3

>  <a_nO>
4

>  <a_nP>
0

>  <a_nS>
1

>  <balabanJ>
2.5147586

>  <BCUT_PEOE_0>
-2.5910928

>  <BCUT_PEOE_1>
-0.44975778

>  <BCUT_PEOE_2>
0.25602657

>  <BCUT_PEOE_3>
2.656076

>  <BCUT_SLOGP_0>
-2.6536443

>  <BCUT_SLOGP_1>
-0.29414722

>  <BCUT_SLOGP_2>
0.32079303

>  <BCUT_SLOGP_3>
2.5800066

>  <BCUT_SMR_0>
-2.2929273

>  <BCUT_SMR_1>
0.017017962

>  <BCUT_SMR_2>
0.54303515

>  <BCUT_SMR_3>
2.9482722

>  <bpol>
25.24369

>  <b_1rotN>
5

>  <b_1rotR>
0.3125

>  <b_ar>
5

>  <b_count>
29

>  <b_double>
1

>  <b_heavy>
16

>  <b_max1len>
6

>  <b_rotN>
5

>  <b_rotR>
0.3125

>  <b_single>
23

>  <b_triple>
0

>  <chi0>
12.344935

>  <chi0v>
9.8980494

>  <chi0v_C>
5.6986704

>  <chi0_C>
5.9831276

>  <chi1>
7.3710093

>  <chi1v>
6.5618348

>  <chi1v_C>
1.9957819

>  <chi1_C>
2.1927054

>  <chiral>
0

>  <chiral_u>
0

>  <density>
0.88350719

>  <diameter>
8

>  <FCharge>
0

>  <GCUT_PEOE_0>
-0.91040397

>  <GCUT_PEOE_1>
-0.41017851

>  <GCUT_PEOE_2>
-0.019270357

>  <GCUT_PEOE_3>
2.4571109

>  <GCUT_SLOGP_0>
-0.85329145

>  <GCUT_SLOGP_1>
-0.33816314

>  <GCUT_SLOGP_2>
0.029610481

>  <GCUT_SLOGP_3>
2.4308023

>  <GCUT_SMR_0>
-0.50548857

>  <GCUT_SMR_1>
-0.097585112

>  <GCUT_SMR_2>
0.19586383

>  <GCUT_SMR_3>
2.678952

>  <Kier1>
14.0625

>  <Kier2>
5.5576558

>  <Kier3>
3.7692308

>  <KierA1>
12.55043

>  <KierA2>
4.9199724

>  <KierA3>
3.316473

>  <KierFlex>
3.8592358

>  <lip_acc>
7

>  <lip_don>
0

>  <lip_druglike>
1

>  <lip_violation>
0

>  <logP(o/w)>
0.37599999

>  <logS>
-1.41527

>  <mr>
5.7973876

>  <mutagenic>
1

>  <nmol>
1

>  <opr_brigid>
5

>  <opr_leadlike>
1

>  <opr_nring>
1

>  <opr_nrot>
5

>  <opr_violation>
0

>  <PC+>
0

>  <PC->
0

>  <PEOE_PC+>
2.3063607

>  <PEOE_PC->
-2.3063607

>  <PEOE_RPC+>
0.1306503

>  <PEOE_RPC->
0.20750687

>  <PEOE_VSA+0>
63.087669

>  <PEOE_VSA+1>
8.5307722

>  <PEOE_VSA+2>
21.326929

>  <PEOE_VSA+3>
51.292992

>  <PEOE_VSA+4>
11.190562

>  <PEOE_VSA+5>
0

>  <PEOE_VSA+6>
11.190562

>  <PEOE_VSA-0>
0

>  <PEOE_VSA-1>
4.0280342

>  <PEOE_VSA-2>
5.6825762

>  <PEOE_VSA-3>
6.5127993

>  <PEOE_VSA-4>
0

>  <PEOE_VSA-5>
0

>  <PEOE_VSA-6>
65.947571

>  <PEOE_VSA_FHYD>
0.6449675

>  <PEOE_VSA_FNEG>
0.33028185

>  <PEOE_VSA_FPNEG>
0.26507273

>  <PEOE_VSA_FPOL>
0.35503247

>  <PEOE_VSA_FPOS>
0.66971815

>  <PEOE_VSA_FPPOS>
0.089959741

>  <PEOE_VSA_HYD>
160.46178

>  <PEOE_VSA_NEG>
82.170982

>  <PEOE_VSA_PNEG>
65.947571

>  <PEOE_VSA_POL>
88.328697

>  <PEOE_VSA_POS>
166.61949

>  <PEOE_VSA_PPOS>
22.381124

>  <petitjean>
0.5

>  <petitjeanSC>
1

>  <Q_PC+>
0

>  <Q_PC->
0

>  <Q_RPC+>
0

>  <Q_RPC->
0

>  <Q_VSA_FHYD>
1

>  <Q_VSA_FNEG>
0

>  <Q_VSA_FPNEG>
0

>  <Q_VSA_FPOL>
0

>  <Q_VSA_FPOS>
1

>  <Q_VSA_FPPOS>
0

>  <Q_VSA_HYD>
248.79047

>  <Q_VSA_NEG>
0

>  <Q_VSA_PNEG>
0

>  <Q_VSA_POL>
0

>  <Q_VSA_POS>
248.79047

>  <Q_VSA_PPOS>
0

>  <radius>
4

>  <reactive>
1

>  <rings>
1

>  <RPC+>
0

>  <RPC->
0

>  <rsynth>
1

>  <SlogP>
0.80081999

>  <SlogP_VSA0>
0

>  <SlogP_VSA1>
73.941925

>  <SlogP_VSA2>
6.8792672

>  <SlogP_VSA3>
85.402138

>  <SlogP_VSA4>
2.3279202

>  <SlogP_VSA5>
0

>  <SlogP_VSA6>
0

>  <SlogP_VSA7>
17.214357

>  <SlogP_VSA8>
0

>  <SlogP_VSA9>
87.419525

>  <SMR>
5.8151202

>  <SMR_VSA0>
55.257305

>  <SMR_VSA1>
18.684622

>  <SMR_VSA2>
50.935009

>  <SMR_VSA3>
2.3279202

>  <SMR_VSA4>
2.3279202

>  <SMR_VSA5>
35.653934

>  <SMR_VSA6>
34.467129

>  <SMR_VSA7>
73.531296

>  <TPSA>
97.779999

>  <VAdjEq>
0.54356444

>  <VAdjMa>
5

>  <VDistEq>
2.8436399

>  <VDistMa>
7.7056289

>  <vdw_area>
248.79047

>  <vdw_vol>
279.87888

>  <vsa_acc>
37.6991

>  <vsa_acid>
0

>  <vsa_base>
0

>  <vsa_don>
0

>  <vsa_hyd>
139.01306

>  <vsa_other>
62.824974

>  <vsa_pol>
37.6991

>  <Weight>
247.27499

>  <weinerPath>
450

>  <weinerPol>
21

>  <zagreb>
78

$$$$