Fc1ccc(cc1)Cn1c2c(nc1NC1CCN(CC1)CCc1ccc(OC)cc1)cccc2
  MOE2013           2D

 34 38  0  0  0  0  0  0  0  0999 V2000
    0.0000    0.0000    0.0000 F   0  0  0  0  0  0  0  0  0  0  0  0
    1.5000    0.0010    0.0000 C   0  0  0  0  0  0  0  0  0  0  0  0
    2.2490    1.3010    0.0000 C   0  0  0  0  0  0  0  0  0  0  0  0
    3.7490    1.3020    0.0000 C   0  0  0  0  0  0  0  0  0  0  0  0
    4.5000    0.0030    0.0000 C   0  0  0  0  0  0  0  0  0  0  0  0
    3.7510   -1.2960    0.0000 C   0  0  0  0  0  0  0  0  0  0  0  0
    2.2510   -1.2970    0.0000 C   0  0  0  0  0  0  0  0  0  0  0  0
    6.0000    0.0040    0.0000 C   0  0  0  0  0  0  0  0  0  0  0  0
    6.7490    1.3040    0.0000 N   0  0  0  0  0  0  0  0  0  0  0  0
    6.1380    2.6740    0.0000 C   0  0  0  0  0  0  0  0  0  0  0  0
    7.2520    3.6780    0.0000 C   0  0  0  0  0  0  0  0  0  0  0  0
    8.5520    2.9290    0.0000 N   0  0  0  0  0  0  0  0  0  0  0  0
    8.2410    1.4620    0.0000 C   0  0  0  0  0  0  0  0  0  0  0  0
    9.2450    0.3470    0.0000 N   0  0  0  0  0  0  0  0  0  0  0  0
   10.7120    0.6600    0.0000 C   0  0  0  0  0  0  0  0  0  0  0  0
   11.7170   -0.4540    0.0000 C   0  0  0  0  0  0  0  0  0  0  0  0
   13.1840   -0.1410    0.0000 C   0  0  0  0  0  0  0  0  0  0  0  0
   13.6460    1.2860    0.0000 N   0  0  0  0  0  0  0  0  0  0  0  0
   12.6420    2.4000    0.0000 C   0  0  0  0  0  0  0  0  0  0  0  0
   11.1750    2.0870    0.0000 C   0  0  0  0  0  0  0  0  0  0  0  0
   15.1130    1.5990    0.0000 C   0  0  0  0  0  0  0  0  0  0  0  0
   16.1180    0.4850    0.0000 C   0  0  0  0  0  0  0  0  0  0  0  0
   17.5850    0.7980    0.0000 C   0  0  0  0  0  0  0  0  0  0  0  0
   18.0470    2.2250    0.0000 C   0  0  0  0  0  0  0  0  0  0  0  0
   19.5140    2.5380    0.0000 C   0  0  0  0  0  0  0  0  0  0  0  0
   20.5190    1.4240    0.0000 C   0  0  0  0  0  0  0  0  0  0  0  0
   21.9860    1.7360    0.0000 O   0  0  0  0  0  0  0  0  0  0  0  0
   22.9900    0.6220    0.0000 C   0  0  0  0  0  0  0  0  0  0  0  0
   20.0560   -0.0030    0.0000 C   0  0  0  0  0  0  0  0  0  0  0  0
   18.5890   -0.3160    0.0000 C   0  0  0  0  0  0  0  0  0  0  0  0
    6.9390    5.1450    0.0000 C   0  0  0  0  0  0  0  0  0  0  0  0
    5.5120    5.6080    0.0000 C   0  0  0  0  0  0  0  0  0  0  0  0
    4.3980    4.6030    0.0000 C   0  0  0  0  0  0  0  0  0  0  0  0
    4.7110    3.1360    0.0000 C   0  0  0  0  0  0  0  0  0  0  0  0
  1  2  1  0  0  0  0
  2  3  1  0  0  0  0
  2  7  2  0  0  0  0
  3  4  2  0  0  0  0
  4  5  1  0  0  0  0
  5  6  2  0  0  0  0
  5  8  1  0  0  0  0
  6  7  1  0  0  0  0
  8  9  1  0  0  0  0
  9 10  1  0  0  0  0
  9 13  1  0  0  0  0
 10 11  1  0  0  0  0
 10 34  2  0  0  0  0
 11 12  1  0  0  0  0
 11 31  2  0  0  0  0
 12 13  2  0  0  0  0
 13 14  1  0  0  0  0
 14 15  1  0  0  0  0
 15 16  1  0  0  0  0
 15 20  1  0  0  0  0
 16 17  1  0  0  0  0
 17 18  1  0  0  0  0
 18 19  1  0  0  0  0
 18 21  1  0  0  0  0
 19 20  1  0  0  0  0
 21 22  1  0  0  0  0
 22 23  1  0  0  0  0
 23 24  1  0  0  0  0
 23 30  2  0  0  0  0
 24 25  2  0  0  0  0
 25 26  1  0  0  0  0
 26 27  1  0  0  0  0
 26 29  2  0  0  0  0
 27 28  1  0  0  0  0
 29 30  1  0  0  0  0
 31 32  1  0  0  0  0
 32 33  2  0  0  0  0
 33 34  1  0  0  0  0
M  END
>  <Index>
1438

>  <ID>
HT0190

>  <class>
1

>  <apol>
75.709579

>  <ast_fraglike>
0

>  <ast_fraglike_ext>
0

>  <ast_violation>
2

>  <ast_violation_ext>
3

>  <a_acc>
3

>  <a_acid>
0

>  <a_aro>
21

>  <a_base>
0

>  <a_count>
65

>  <a_don>
1

>  <a_donacc>
4

>  <a_heavy>
34

>  <a_hyd>
28

>  <a_IC>
95.267883

>  <a_ICM>
1.4656597

>  <a_nB>
0

>  <a_nBr>
0

>  <a_nC>
28

>  <a_nCl>
0

>  <a_nF>
1

>  <a_nH>
31

>  <a_nI>
0

>  <a_nN>
4

>  <a_nO>
1

>  <a_nP>
0

>  <a_nS>
0

>  <balabanJ>
1.0681174

>  <BCUT_PEOE_0>
-2.7967148

>  <BCUT_PEOE_1>
-0.61204994

>  <BCUT_PEOE_2>
0.60655326

>  <BCUT_PEOE_3>
2.7207034

>  <BCUT_SLOGP_0>
-2.8514884

>  <BCUT_SLOGP_1>
-0.52761811

>  <BCUT_SLOGP_2>
0.75265509

>  <BCUT_SLOGP_3>
2.6953685

>  <BCUT_SMR_0>
-2.5224693

>  <BCUT_SMR_1>
-0.41814855

>  <BCUT_SMR_2>
0.76878369

>  <BCUT_SMR_3>
2.9896955

>  <bpol>
42.948418

>  <b_1rotN>
8

>  <b_1rotR>
0.21052632

>  <b_ar>
22

>  <b_count>
69

>  <b_double>
0

>  <b_heavy>
38

>  <b_max1len>
3

>  <b_rotN>
8

>  <b_rotR>
0.21052632

>  <b_single>
47

>  <b_triple>
0

>  <chi0>
23.329851

>  <chi0v>
19.583155

>  <chi0v_C>
16.955301

>  <chi0_C>
19.053831

>  <chi1>
16.674168

>  <chi1v>
11.993056

>  <chi1v_C>
8.4936876

>  <chi1_C>
11.048809

>  <chiral>
0

>  <chiral_u>
0

>  <density>
0.70478731

>  <diameter>
20

>  <FCharge>
0

>  <GCUT_PEOE_0>
-0.85720414

>  <GCUT_PEOE_1>
-0.40012583

>  <GCUT_PEOE_2>
0.06698671

>  <GCUT_PEOE_3>
2.863266

>  <GCUT_SLOGP_0>
-0.98656493

>  <GCUT_SLOGP_1>
-0.30852345

>  <GCUT_SLOGP_2>
0.157536

>  <GCUT_SLOGP_3>
2.9262211

>  <GCUT_SMR_0>
-0.51798338

>  <GCUT_SMR_1>
-0.20810553

>  <GCUT_SMR_2>
0.17454699

>  <GCUT_SMR_3>
3.1324353

>  <Kier1>
25.641273

>  <Kier2>
12.497042

>  <Kier3>
6.8650517

>  <KierA1>
19.247219

>  <KierA2>
9.2936125

>  <KierA3>
5.0718923

>  <KierFlex>
5.2610645

>  <lip_acc>
5

>  <lip_don>
1

>  <lip_druglike>
1

>  <lip_violation>
1

>  <logP(o/w)>
5.9949999

>  <logS>
-6.4896898

>  <mr>
13.486709

>  <mutagenic>
0

>  <nmol>
1

>  <opr_brigid>
28

>  <opr_leadlike>
0

>  <opr_nring>
5

>  <opr_nrot>
10

>  <opr_violation>
3

>  <PC+>
0

>  <PC->
0

>  <PEOE_PC+>
2.2995613

>  <PEOE_PC->
-2.2995613

>  <PEOE_RPC+>
0.079825856

>  <PEOE_RPC->
0.15129504

>  <PEOE_VSA+0>
123.17061

>  <PEOE_VSA+1>
107.56151

>  <PEOE_VSA+2>
17.639858

>  <PEOE_VSA+3>
15.681574

>  <PEOE_VSA+4>
0

>  <PEOE_VSA+5>
0

>  <PEOE_VSA+6>
0

>  <PEOE_VSA-0>
104.05045

>  <PEOE_VSA-1>
73.529427

>  <PEOE_VSA-2>
0

>  <PEOE_VSA-3>
0

>  <PEOE_VSA-4>
17.591211

>  <PEOE_VSA-5>
0.13689101

>  <PEOE_VSA-6>
2.503756

>  <PEOE_VSA_FHYD>
0.95619529

>  <PEOE_VSA_FNEG>
0.42828879

>  <PEOE_VSA_FPNEG>
0.043804675

>  <PEOE_VSA_FPOL>
0.043804675

>  <PEOE_VSA_FPOS>
0.57171118

>  <PEOE_VSA_FPPOS>
0

>  <PEOE_VSA_HYD>
441.63342

>  <PEOE_VSA_NEG>
197.81172

>  <PEOE_VSA_PNEG>
20.231859

>  <PEOE_VSA_POL>
20.231859

>  <PEOE_VSA_POS>
264.05356

>  <PEOE_VSA_PPOS>
0

>  <petitjean>
0.5

>  <petitjeanSC>
1

>  <Q_PC+>
0

>  <Q_PC->
0

>  <Q_RPC+>
0

>  <Q_RPC->
0

>  <Q_VSA_FHYD>
1

>  <Q_VSA_FNEG>
0

>  <Q_VSA_FPNEG>
0

>  <Q_VSA_FPOL>
0

>  <Q_VSA_FPOS>
1

>  <Q_VSA_FPPOS>
0

>  <Q_VSA_HYD>
461.86526

>  <Q_VSA_NEG>
0

>  <Q_VSA_PNEG>
0

>  <Q_VSA_POL>
0

>  <Q_VSA_POS>
461.86526

>  <Q_VSA_PPOS>
0

>  <radius>
10

>  <reactive>
0

>  <rings>
5

>  <RPC+>
0

>  <RPC->
0

>  <rsynth>
1

>  <SlogP>
5.6176701

>  <SlogP_VSA0>
10.999887

>  <SlogP_VSA1>
39.819687

>  <SlogP_VSA2>
13.102986

>  <SlogP_VSA3>
55.318733

>  <SlogP_VSA4>
6.37115

>  <SlogP_VSA5>
54.252274

>  <SlogP_VSA6>
0

>  <SlogP_VSA7>
216.00648

>  <SlogP_VSA8>
37.736813

>  <SlogP_VSA9>
40.542213

>  <SMR>
13.52227

>  <SMR_VSA0>
0

>  <SMR_VSA1>
47.768936

>  <SMR_VSA2>
9.1210184

>  <SMR_VSA3>
15.596547

>  <SMR_VSA4>
24.198118

>  <SMR_VSA5>
286.763

>  <SMR_VSA6>
55.318733

>  <SMR_VSA7>
35.383869

>  <TPSA>
42.32

>  <VAdjEq>
0.34983629

>  <VAdjMa>
6.2479277

>  <VDistEq>
4.0226603

>  <VDistMa>
9.847908

>  <vdw_area>
461.86526

>  <vdw_vol>
650.66577

>  <vsa_acc>
8.1863317

>  <vsa_acid>
0

>  <vsa_base>
0

>  <vsa_don>
5.6825762

>  <vsa_hyd>
407.8876

>  <vsa_other>
15.681574

>  <vsa_pol>
13.868908

>  <Weight>
458.58099

>  <weinerPath>
4090

>  <weinerPol>
51

>  <zagreb>
180

$$$$