OC(=O)c1ccc(cc1)C(=C)c1cc2c(cc1C)C(CCC2(C)C)(C)C
  MOE2013           2D

 26 28  0  0  0  0  0  0  0  0999 V2000
    0.0000    0.0000    0.0000 O   0  0  0  0  0  0  0  0  0  0  0  0
   -1.3050    0.7390    0.0000 C   0  0  0  0  0  0  0  0  0  0  0  0
   -1.3180    2.2390    0.0000 O   0  0  0  0  0  0  0  0  0  0  0  0
   -2.5980   -0.0220    0.0000 C   0  0  0  0  0  0  0  0  0  0  0  0
   -2.5850   -1.5220    0.0000 C   0  0  0  0  0  0  0  0  0  0  0  0
   -3.8780   -2.2830    0.0000 C   0  0  0  0  0  0  0  0  0  0  0  0
   -5.1830   -1.5450    0.0000 C   0  0  0  0  0  0  0  0  0  0  0  0
   -5.1960   -0.0450    0.0000 C   0  0  0  0  0  0  0  0  0  0  0  0
   -3.9030    0.7160    0.0000 C   0  0  0  0  0  0  0  0  0  0  0  0
   -6.4760   -2.3060    0.0000 C   0  0  0  0  0  0  0  0  0  0  0  0
   -6.4630   -3.8060    0.0000 C   0  0  0  0  0  0  0  0  0  0  0  0
   -7.7810   -1.5670    0.0000 C   0  0  0  0  0  0  0  0  0  0  0  0
   -7.7940   -0.0670    0.0000 C   0  0  0  0  0  0  0  0  0  0  0  0
   -9.0990    0.6720    0.0000 C   0  0  0  0  0  0  0  0  0  0  0  0
  -10.3920   -0.0890    0.0000 C   0  0  0  0  0  0  0  0  0  0  0  0
  -10.3790   -1.5890    0.0000 C   0  0  0  0  0  0  0  0  0  0  0  0
   -9.0740   -2.3280    0.0000 C   0  0  0  0  0  0  0  0  0  0  0  0
   -9.0610   -3.8280    0.0000 C   0  0  0  0  0  0  0  0  0  0  0  0
  -11.6970    0.6490    0.0000 C   0  0  0  0  0  0  0  0  0  0  0  0
  -11.7100    2.1490    0.0000 C   0  0  0  0  0  0  0  0  0  0  0  0
  -10.4180    2.9100    0.0000 C   0  0  0  0  0  0  0  0  0  0  0  0
   -9.1120    2.1720    0.0000 C   0  0  0  0  0  0  0  0  0  0  0  0
   -7.6120    2.1850    0.0000 C   0  0  0  0  0  0  0  0  0  0  0  0
   -8.3730    3.4770    0.0000 C   0  0  0  0  0  0  0  0  0  0  0  0
  -13.1970    0.6370    0.0000 C   0  0  0  0  0  0  0  0  0  0  0  0
  -12.4360   -0.6560    0.0000 C   0  0  0  0  0  0  0  0  0  0  0  0
  1  2  1  0  0  0  0
  2  3  2  0  0  0  0
  2  4  1  0  0  0  0
  4  5  1  0  0  0  0
  4  9  2  0  0  0  0
  5  6  2  0  0  0  0
  6  7  1  0  0  0  0
  7  8  2  0  0  0  0
  7 10  1  0  0  0  0
  8  9  1  0  0  0  0
 10 11  2  0  0  0  0
 10 12  1  0  0  0  0
 12 13  1  0  0  0  0
 12 17  2  0  0  0  0
 13 14  2  0  0  0  0
 14 15  1  0  0  0  0
 14 22  1  0  0  0  0
 15 16  2  0  0  0  0
 15 19  1  0  0  0  0
 16 17  1  0  0  0  0
 17 18  1  0  0  0  0
 19 20  1  0  0  0  0
 19 25  1  0  0  0  0
 19 26  1  0  0  0  0
 20 21  1  0  0  0  0
 21 22  1  0  0  0  0
 22 23  1  0  0  0  0
 22 24  1  0  0  0  0
M  END
>  <Index>
1453

>  <ID>
HT0280

>  <class>
1

>  <apol>
62.514202

>  <ast_fraglike>
0

>  <ast_fraglike_ext>
0

>  <ast_violation>
2

>  <ast_violation_ext>
3

>  <a_acc>
2

>  <a_acid>
0

>  <a_aro>
12

>  <a_base>
0

>  <a_count>
54

>  <a_don>
2

>  <a_donacc>
4

>  <a_heavy>
26

>  <a_hyd>
23

>  <a_IC>
64.118889

>  <a_ICM>
1.1873868

>  <a_nB>
0

>  <a_nBr>
0

>  <a_nC>
24

>  <a_nCl>
0

>  <a_nF>
0

>  <a_nH>
28

>  <a_nI>
0

>  <a_nN>
0

>  <a_nO>
2

>  <a_nP>
0

>  <a_nS>
0

>  <balabanJ>
1.6975112

>  <BCUT_PEOE_0>
-2.7935092

>  <BCUT_PEOE_1>
-0.40095782

>  <BCUT_PEOE_2>
0.42089137

>  <BCUT_PEOE_3>
2.7419636

>  <BCUT_SLOGP_0>
-2.6969001

>  <BCUT_SLOGP_1>
-0.32872105

>  <BCUT_SLOGP_2>
0.47893092

>  <BCUT_SLOGP_3>
2.8448265

>  <BCUT_SMR_0>
-2.5257952

>  <BCUT_SMR_1>
-0.21347104

>  <BCUT_SMR_2>
0.5945878

>  <BCUT_SMR_3>
3.0148172

>  <bpol>
31.567797

>  <b_1rotN>
3

>  <b_1rotR>
0.10714286

>  <b_ar>
12

>  <b_count>
56

>  <b_double>
2

>  <b_heavy>
28

>  <b_max1len>
4

>  <b_rotN>
3

>  <b_rotR>
0.10714286

>  <b_single>
42

>  <b_triple>
0

>  <chi0>
19.275656

>  <chi0v>
16.440884

>  <chi0v_C>
15.585422

>  <chi0_C>
17.275656

>  <chi1>
12.026511

>  <chi1v>
9.2144585

>  <chi1v_C>
8.7867279

>  <chi1_C>
10.871811

>  <chiral>
0

>  <chiral_u>
0

>  <density>
0.66139275

>  <diameter>
12

>  <FCharge>
0

>  <GCUT_PEOE_0>
-0.7916609

>  <GCUT_PEOE_1>
-0.35812137

>  <GCUT_PEOE_2>
-0.06397517

>  <GCUT_PEOE_3>
2.9560356

>  <GCUT_SLOGP_0>
-0.85412347

>  <GCUT_SLOGP_1>
-0.26111808

>  <GCUT_SLOGP_2>
0.019105842

>  <GCUT_SLOGP_3>
3.0793869

>  <GCUT_SMR_0>
-0.52568394

>  <GCUT_SMR_1>
-0.16408844

>  <GCUT_SMR_2>
0.10213527

>  <GCUT_SMR_3>
3.2264738

>  <Kier1>
20.727041

>  <Kier2>
7.4380164

>  <Kier3>
4.0775623

>  <KierA1>
15.945212

>  <KierA2>
5.6577702

>  <KierA3>
3.0766311

>  <KierFlex>
3.4697826

>  <lip_acc>
2

>  <lip_don>
1

>  <lip_druglike>
1

>  <lip_violation>
1

>  <logP(o/w)>
6.9949999

>  <logS>
-8.6394997

>  <mr>
10.605356

>  <mutagenic>
0

>  <nmol>
1

>  <opr_brigid>
18

>  <opr_leadlike>
1

>  <opr_nring>
3

>  <opr_nrot>
4

>  <opr_violation>
1

>  <PC+>
0

>  <PC->
0

>  <PEOE_PC+>
1.5197574

>  <PEOE_PC->
-1.5197574

>  <PEOE_RPC+>
0.19163333

>  <PEOE_RPC->
0.21548802

>  <PEOE_VSA+0>
83.250877

>  <PEOE_VSA+1>
34.123089

>  <PEOE_VSA+2>
0

>  <PEOE_VSA+3>
0

>  <PEOE_VSA+4>
10.324173

>  <PEOE_VSA+5>
14.708499

>  <PEOE_VSA+6>
0

>  <PEOE_VSA-0>
86.166252

>  <PEOE_VSA-1>
134.05669

>  <PEOE_VSA-2>
0

>  <PEOE_VSA-3>
0

>  <PEOE_VSA-4>
0

>  <PEOE_VSA-5>
13.566921

>  <PEOE_VSA-6>
7.7675405

>  <PEOE_VSA_FHYD>
0.87924093

>  <PEOE_VSA_FNEG>
0.62911469

>  <PEOE_VSA_FPNEG>
0.055563696

>  <PEOE_VSA_FPOL>
0.12075905

>  <PEOE_VSA_FPOS>
0.37088534

>  <PEOE_VSA_FPPOS>
0.065195352

>  <PEOE_VSA_HYD>
337.59689

>  <PEOE_VSA_NEG>
241.5574

>  <PEOE_VSA_PNEG>
21.334461

>  <PEOE_VSA_POL>
46.367134

>  <PEOE_VSA_POS>
142.40663

>  <PEOE_VSA_PPOS>
25.032671

>  <petitjean>
0.5

>  <petitjeanSC>
1

>  <Q_PC+>
0

>  <Q_PC->
0

>  <Q_RPC+>
0

>  <Q_RPC->
0

>  <Q_VSA_FHYD>
1

>  <Q_VSA_FNEG>
0

>  <Q_VSA_FPNEG>
0

>  <Q_VSA_FPOL>
0

>  <Q_VSA_FPOS>
1

>  <Q_VSA_FPPOS>
0

>  <Q_VSA_HYD>
383.96405

>  <Q_VSA_NEG>
0

>  <Q_VSA_PNEG>
0

>  <Q_VSA_POL>
0

>  <Q_VSA_POS>
383.96405

>  <Q_VSA_PPOS>
0

>  <radius>
6

>  <reactive>
0

>  <rings>
3

>  <RPC+>
0

>  <RPC->
0

>  <rsynth>
0.30769232

>  <SlogP>
5.92101

>  <SlogP_VSA0>
0

>  <SlogP_VSA1>
7.7454643

>  <SlogP_VSA2>
0

>  <SlogP_VSA3>
28.570801

>  <SlogP_VSA4>
42.975666

>  <SlogP_VSA5>
0

>  <SlogP_VSA6>
0

>  <SlogP_VSA7>
105.85911

>  <SlogP_VSA8>
37.736813

>  <SlogP_VSA9>
198.73087

>  <SMR>
10.69403

>  <SMR_VSA0>
23.862217

>  <SMR_VSA1>
0

>  <SMR_VSA2>
28.570801

>  <SMR_VSA3>
19.113449

>  <SMR_VSA4>
0

>  <SMR_VSA5>
143.59592

>  <SMR_VSA6>
7.7454643

>  <SMR_VSA7>
198.73087

>  <TPSA>
37.299999

>  <VAdjEq>
0.41210872

>  <VAdjMa>
5.8073549

>  <VDistEq>
3.395272

>  <VDistMa>
9.1054325

>  <vdw_area>
383.96405

>  <vdw_vol>
526.89722

>  <vsa_acc>
0

>  <vsa_acid>
0

>  <vsa_base>
0

>  <vsa_don>
0

>  <vsa_hyd>
318.37842

>  <vsa_other>
14.708499

>  <vsa_pol>
27.133842

>  <Weight>
348.48599

>  <weinerPath>
1631

>  <weinerPol>
48

>  <zagreb>
144

$$$$