S1c2c(N(c3c1cccc3)CC1CCN(C1)C)cccc2
  MOE2013           2D

 21 24  0  0  1  0  0  0  0  0999 V2000
    0.0000    0.0000    0.0000 S   0  0  0  0  0  0  0  0  0  0  0  0
   -0.7590   -1.2940    0.0000 C   0  0  0  0  0  0  0  0  0  0  0  0
   -0.0180   -2.5980    0.0000 C   0  0  0  0  0  0  0  0  0  0  0  0
    1.4820   -2.6080    0.0000 N   0  0  0  0  0  0  0  0  0  0  0  0
    2.2410   -1.3150    0.0000 C   0  0  0  0  0  0  0  0  0  0  0  0
    1.5000   -0.0100    0.0000 C   0  0  0  0  0  0  0  0  0  0  0  0
    2.2590    1.2830    0.0000 C   0  0  0  0  0  0  0  0  0  0  0  0
    3.7590    1.2730    0.0000 C   0  0  0  0  0  0  0  0  0  0  0  0
    4.5000   -0.0310    0.0000 C   0  0  0  0  0  0  0  0  0  0  0  0
    3.7410   -1.3250    0.0000 C   0  0  0  0  0  0  0  0  0  0  0  0
    2.2230   -3.9130    0.0000 C   0  0  0  0  0  0  0  0  0  0  0  0
    3.7230   -3.9230    0.0000 C   0  0  3  0  0  0  0  0  0  0  0  0
    4.6130   -2.7160    0.0000 C   0  0  0  0  0  0  0  0  0  0  0  0
    6.0360   -3.1890    0.0000 C   0  0  0  0  0  0  0  0  0  0  0  0
    6.0260   -4.6890    0.0000 N   0  0  3  0  0  0  0  0  0  0  0  0
    4.5960   -5.1430    0.0000 C   0  0  0  0  0  0  0  0  0  0  0  0
    7.2330   -5.5790    0.0000 C   0  0  0  0  0  0  0  0  0  0  0  0
   -0.7770   -3.8920    0.0000 C   0  0  0  0  0  0  0  0  0  0  0  0
   -2.2770   -3.8810    0.0000 C   0  0  0  0  0  0  0  0  0  0  0  0
   -3.0180   -2.5770    0.0000 C   0  0  0  0  0  0  0  0  0  0  0  0
   -2.2590   -1.2830    0.0000 C   0  0  0  0  0  0  0  0  0  0  0  0
  1  2  1  0  0  0  0
  1  6  1  0  0  0  0
  2  3  1  0  0  0  0
  2 21  2  0  0  0  0
  3  4  1  0  0  0  0
  3 18  2  0  0  0  0
  4  5  1  0  0  0  0
  4 11  1  0  0  0  0
  5  6  1  0  0  0  0
  5 10  2  0  0  0  0
  6  7  2  0  0  0  0
  7  8  1  0  0  0  0
  8  9  2  0  0  0  0
  9 10  1  0  0  0  0
 11 12  1  0  0  0  0
 12 13  1  0  0  0  0
 12 16  1  0  0  0  0
 13 14  1  0  0  0  0
 14 15  1  0  0  0  0
 15 16  1  0  0  0  0
 15 17  1  0  0  0  0
 18 19  1  0  0  0  0
 19 20  2  0  0  0  0
 20 21  1  0  0  0  0
M  END
>  <Index>
1642

>  <ID>
HT1339

>  <class>
1

>  <apol>
50.11586

>  <ast_fraglike>
0

>  <ast_fraglike_ext>
0

>  <ast_violation>
1

>  <ast_violation_ext>
1

>  <a_acc>
1

>  <a_acid>
0

>  <a_aro>
12

>  <a_base>
0

>  <a_count>
41

>  <a_don>
0

>  <a_donacc>
1

>  <a_heavy>
21

>  <a_hyd>
19

>  <a_IC>
56.162418

>  <a_ICM>
1.3698151

>  <a_nB>
0

>  <a_nBr>
0

>  <a_nC>
18

>  <a_nCl>
0

>  <a_nF>
0

>  <a_nH>
20

>  <a_nI>
0

>  <a_nN>
2

>  <a_nO>
0

>  <a_nP>
0

>  <a_nS>
1

>  <balabanJ>
1.5091345

>  <BCUT_PEOE_0>
-2.6260965

>  <BCUT_PEOE_1>
-0.56326658

>  <BCUT_PEOE_2>
0.60532016

>  <BCUT_PEOE_3>
2.7362747

>  <BCUT_SLOGP_0>
-2.6725185

>  <BCUT_SLOGP_1>
-0.48189175

>  <BCUT_SLOGP_2>
0.69575715

>  <BCUT_SLOGP_3>
2.720089

>  <BCUT_SMR_0>
-2.3592708

>  <BCUT_SMR_1>
-0.43115166

>  <BCUT_SMR_2>
0.73146415

>  <BCUT_SMR_3>
3.004611

>  <bpol>
28.104139

>  <b_1rotN>
2

>  <b_1rotR>
0.083333336

>  <b_ar>
12

>  <b_count>
44

>  <b_double>
0

>  <b_heavy>
24

>  <b_max1len>
3

>  <b_rotN>
2

>  <b_rotR>
0.083333336

>  <b_single>
32

>  <b_triple>
0

>  <chi0>
14.23384

>  <chi0v>
13.143751

>  <chi0v_C>
11.02458

>  <chi0_C>
12.372033

>  <chi1>
10.309663

>  <chi1v>
8.4473009

>  <chi1v_C>
5.3794456

>  <chi1_C>
7.0244045

>  <chiral>
1

>  <chiral_u>
1

>  <density>
0.70443714

>  <diameter>
9

>  <FCharge>
0

>  <GCUT_PEOE_0>
-0.86567348

>  <GCUT_PEOE_1>
-0.37895504

>  <GCUT_PEOE_2>
0.061571714

>  <GCUT_PEOE_3>
2.7326655

>  <GCUT_SLOGP_0>
-0.9603377

>  <GCUT_SLOGP_1>
-0.25396755

>  <GCUT_SLOGP_2>
0.14303468

>  <GCUT_SLOGP_3>
2.8421748

>  <GCUT_SMR_0>
-0.52849501

>  <GCUT_SMR_1>
-0.18579979

>  <GCUT_SMR_2>
0.16148296

>  <GCUT_SMR_3>
3.0228159

>  <Kier1>
14.583333

>  <Kier2>
6.2456746

>  <Kier3>
2.933454

>  <KierA1>
12.092406

>  <KierA2>
5.127212

>  <KierA3>
2.389652

>  <KierFlex>
2.9523969

>  <lip_acc>
2

>  <lip_don>
0

>  <lip_druglike>
1

>  <lip_violation>
0

>  <logP(o/w)>
3.9300001

>  <logS>
-4.0650301

>  <mr>
8.925436

>  <mutagenic>
0

>  <nmol>
1

>  <opr_brigid>
21

>  <opr_leadlike>
1

>  <opr_nring>
4

>  <opr_nrot>
3

>  <opr_violation>
0

>  <PC+>
0

>  <PC->
0

>  <PEOE_PC+>
1.1149386

>  <PEOE_PC->
-1.1149386

>  <PEOE_RPC+>
0.056833386

>  <PEOE_RPC->
0.27357104

>  <PEOE_VSA+0>
99.337585

>  <PEOE_VSA+1>
34.123089

>  <PEOE_VSA+2>
0

>  <PEOE_VSA+3>
0

>  <PEOE_VSA+4>
0

>  <PEOE_VSA+5>
0

>  <PEOE_VSA+6>
0

>  <PEOE_VSA-0>
94.151939

>  <PEOE_VSA-1>
68.780235

>  <PEOE_VSA-2>
0

>  <PEOE_VSA-3>
0

>  <PEOE_VSA-4>
0

>  <PEOE_VSA-5>
0

>  <PEOE_VSA-6>
0

>  <PEOE_VSA_FHYD>
1

>  <PEOE_VSA_FNEG>
0.54971695

>  <PEOE_VSA_FPNEG>
0

>  <PEOE_VSA_FPOL>
0

>  <PEOE_VSA_FPOS>
0.45028305

>  <PEOE_VSA_FPPOS>
0

>  <PEOE_VSA_HYD>
296.39285

>  <PEOE_VSA_NEG>
162.93217

>  <PEOE_VSA_PNEG>
0

>  <PEOE_VSA_POL>
0

>  <PEOE_VSA_POS>
133.46068

>  <PEOE_VSA_PPOS>
0

>  <petitjean>
0.44444445

>  <petitjeanSC>
0.80000001

>  <Q_PC+>
0

>  <Q_PC->
0

>  <Q_RPC+>
0

>  <Q_RPC->
0

>  <Q_VSA_FHYD>
1

>  <Q_VSA_FNEG>
0

>  <Q_VSA_FPNEG>
0

>  <Q_VSA_FPOL>
0

>  <Q_VSA_FPOS>
1

>  <Q_VSA_FPPOS>
0

>  <Q_VSA_HYD>
296.39285

>  <Q_VSA_NEG>
0

>  <Q_VSA_PNEG>
0

>  <Q_VSA_POL>
0

>  <Q_VSA_POS>
296.39285

>  <Q_VSA_PPOS>
0

>  <radius>
5

>  <reactive>
0

>  <rings>
4

>  <RPC+>
0

>  <RPC->
0

>  <rsynth>
0.66666669

>  <SlogP>
4.2410002

>  <SlogP_VSA0>
3.1243138

>  <SlogP_VSA1>
3.1243138

>  <SlogP_VSA2>
0

>  <SlogP_VSA3>
55.318733

>  <SlogP_VSA4>
4.4107962

>  <SlogP_VSA5>
35.998657

>  <SlogP_VSA6>
0

>  <SlogP_VSA7>
141.14548

>  <SlogP_VSA8>
18.868406

>  <SlogP_VSA9>
37.733036

>  <SMR>
8.9617996

>  <SMR_VSA0>
0

>  <SMR_VSA1>
3.1243138

>  <SMR_VSA2>
10.636578

>  <SMR_VSA3>
0

>  <SMR_VSA4>
5.513495

>  <SMR_VSA5>
160.01389

>  <SMR_VSA6>
55.318733

>  <SMR_VSA7>
65.11673

>  <TPSA>
6.48

>  <VAdjEq>
0.49641782

>  <VAdjMa>
5.5849624

>  <VDistEq>
2.9739356

>  <VDistMa>
8.5188513

>  <vdw_area>
296.39285

>  <vdw_vol>
420.8154

>  <vsa_acc>
0

>  <vsa_acid>
0

>  <vsa_base>
0

>  <vsa_don>
0

>  <vsa_hyd>
280.81189

>  <vsa_other>
0

>  <vsa_pol>
0

>  <Weight>
296.43799

>  <weinerPath>
859

>  <weinerPol>
33

>  <zagreb>
116

$$$$