Clc1ccc(cc1)C1(OC(=O)CCCCCCCCC)CCN(CC1)CCCC(=O)c1ccc(F)cc1
  MOE2013           2D

 37 39  0  0  0  0  0  0  0  0999 V2000
    0.0000    0.0000    0.0000 Cl  0  0  0  0  0  0  0  0  0  0  0  0
    0.7390    1.3050    0.0000 C   0  0  0  0  0  0  0  0  0  0  0  0
    2.2390    1.3180    0.0000 C   0  0  0  0  0  0  0  0  0  0  0  0
    2.9780    2.6240    0.0000 C   0  0  0  0  0  0  0  0  0  0  0  0
    2.2170    3.9160    0.0000 C   0  0  0  0  0  0  0  0  0  0  0  0
    0.7170    3.9030    0.0000 C   0  0  0  0  0  0  0  0  0  0  0  0
   -0.0220    2.5980    0.0000 C   0  0  0  0  0  0  0  0  0  0  0  0
    2.9560    5.2220    0.0000 C   0  0  0  0  0  0  0  0  0  0  0  0
    1.4560    5.2090    0.0000 O   0  0  0  0  0  0  0  0  0  0  0  0
    0.6950    6.5010    0.0000 C   0  0  0  0  0  0  0  0  0  0  0  0
    1.4330    7.8070    0.0000 O   0  0  0  0  0  0  0  0  0  0  0  0
   -0.8050    6.4890    0.0000 C   0  0  0  0  0  0  0  0  0  0  0  0
   -1.5660    7.7810    0.0000 C   0  0  0  0  0  0  0  0  0  0  0  0
   -3.0660    7.7680    0.0000 C   0  0  0  0  0  0  0  0  0  0  0  0
   -3.8270    9.0610    0.0000 C   0  0  0  0  0  0  0  0  0  0  0  0
   -5.3270    9.0480    0.0000 C   0  0  0  0  0  0  0  0  0  0  0  0
   -6.0880   10.3410    0.0000 C   0  0  0  0  0  0  0  0  0  0  0  0
   -7.5880   10.3280    0.0000 C   0  0  0  0  0  0  0  0  0  0  0  0
   -8.3490   11.6210    0.0000 C   0  0  0  0  0  0  0  0  0  0  0  0
   -9.8490   11.6080    0.0000 C   0  0  0  0  0  0  0  0  0  0  0  0
    2.9430    6.7220    0.0000 C   0  0  0  0  0  0  0  0  0  0  0  0
    4.2350    7.4830    0.0000 C   0  0  0  0  0  0  0  0  0  0  0  0
    5.5410    6.7440    0.0000 N   0  0  0  0  0  0  0  0  0  0  0  0
    5.5540    5.2440    0.0000 C   0  0  0  0  0  0  0  0  0  0  0  0
    4.2610    4.4830    0.0000 C   0  0  0  0  0  0  0  0  0  0  0  0
    6.8330    7.5050    0.0000 C   0  0  0  0  0  0  0  0  0  0  0  0
    6.8210    9.0050    0.0000 C   0  0  0  0  0  0  0  0  0  0  0  0
    8.1130    9.7660    0.0000 C   0  0  0  0  0  0  0  0  0  0  0  0
    8.1000   11.2660    0.0000 C   0  0  0  0  0  0  0  0  0  0  0  0
    6.7950   12.0050    0.0000 O   0  0  0  0  0  0  0  0  0  0  0  0
    9.3930   12.0270    0.0000 C   0  0  0  0  0  0  0  0  0  0  0  0
   10.6980   11.2880    0.0000 C   0  0  0  0  0  0  0  0  0  0  0  0
   11.9910   12.0490    0.0000 C   0  0  0  0  0  0  0  0  0  0  0  0
   11.9780   13.5490    0.0000 C   0  0  0  0  0  0  0  0  0  0  0  0
   13.2710   14.3100    0.0000 F   0  0  0  0  0  0  0  0  0  0  0  0
   10.6730   14.2880    0.0000 C   0  0  0  0  0  0  0  0  0  0  0  0
    9.3800   13.5270    0.0000 C   0  0  0  0  0  0  0  0  0  0  0  0
  1  2  1  0  0  0  0
  2  3  1  0  0  0  0
  2  7  2  0  0  0  0
  3  4  2  0  0  0  0
  4  5  1  0  0  0  0
  5  6  2  0  0  0  0
  5  8  1  0  0  0  0
  6  7  1  0  0  0  0
  8  9  1  0  0  0  0
  8 21  1  0  0  0  0
  8 25  1  0  0  0  0
  9 10  1  0  0  0  0
 10 11  2  0  0  0  0
 10 12  1  0  0  0  0
 12 13  1  0  0  0  0
 13 14  1  0  0  0  0
 14 15  1  0  0  0  0
 15 16  1  0  0  0  0
 16 17  1  0  0  0  0
 17 18  1  0  0  0  0
 18 19  1  0  0  0  0
 19 20  1  0  0  0  0
 21 22  1  0  0  0  0
 22 23  1  0  0  0  0
 23 24  1  0  0  0  0
 23 26  1  0  0  0  0
 24 25  1  0  0  0  0
 26 27  1  0  0  0  0
 27 28  1  0  0  0  0
 28 29  1  0  0  0  0
 29 30  2  0  0  0  0
 29 31  1  0  0  0  0
 31 32  1  0  0  0  0
 31 37  2  0  0  0  0
 32 33  2  0  0  0  0
 33 34  1  0  0  0  0
 34 35  1  0  0  0  0
 34 36  2  0  0  0  0
 36 37  1  0  0  0  0
M  END
>  <Index>
1590

>  <ID>
HT1018

>  <class>
1

>  <apol>
88.14151

>  <ast_fraglike>
0

>  <ast_fraglike_ext>
0

>  <ast_violation>
2

>  <ast_violation_ext>
3

>  <a_acc>
3

>  <a_acid>
0

>  <a_aro>
12

>  <a_base>
0

>  <a_count>
78

>  <a_don>
0

>  <a_donacc>
3

>  <a_heavy>
37

>  <a_hyd>
31

>  <a_IC>
112.26677

>  <a_ICM>
1.4393176

>  <a_nB>
0

>  <a_nBr>
0

>  <a_nC>
31

>  <a_nCl>
1

>  <a_nF>
1

>  <a_nH>
41

>  <a_nI>
0

>  <a_nN>
1

>  <a_nO>
3

>  <a_nP>
0

>  <a_nS>
0

>  <balabanJ>
1.4100456

>  <BCUT_PEOE_0>
-2.7922375

>  <BCUT_PEOE_1>
-0.61288154

>  <BCUT_PEOE_2>
0.6209963

>  <BCUT_PEOE_3>
2.7512612

>  <BCUT_SLOGP_0>
-2.8017335

>  <BCUT_SLOGP_1>
-0.47890764

>  <BCUT_SLOGP_2>
0.80591482

>  <BCUT_SLOGP_3>
2.8161638

>  <BCUT_SMR_0>
-2.5324116

>  <BCUT_SMR_1>
-0.41305944

>  <BCUT_SMR_2>
0.85431087

>  <BCUT_SMR_3>
3.0022783

>  <bpol>
52.256489

>  <b_1rotN>
15

>  <b_1rotR>
0.38461539

>  <b_ar>
12

>  <b_count>
80

>  <b_double>
2

>  <b_heavy>
39

>  <b_max1len>
10

>  <b_rotN>
16

>  <b_rotR>
0.41025642

>  <b_single>
66

>  <b_triple>
0

>  <chi0>
26.512014

>  <chi0v>
22.90922

>  <chi0v_C>
19.725405

>  <chi0_C>
21.227558

>  <chi1>
17.914652

>  <chi1v>
14.285164

>  <chi1v_C>
11.764054

>  <chi1_C>
13.618705

>  <chiral>
0

>  <chiral_u>
0

>  <density>
0.71241522

>  <diameter>
23

>  <FCharge>
0

>  <GCUT_PEOE_0>
-0.8570205

>  <GCUT_PEOE_1>
-0.3962684

>  <GCUT_PEOE_2>
0.039125334

>  <GCUT_PEOE_3>
2.9636159

>  <GCUT_SLOGP_0>
-0.95246834

>  <GCUT_SLOGP_1>
-0.26819891

>  <GCUT_SLOGP_2>
0.17137159

>  <GCUT_SLOGP_3>
3.0432515

>  <GCUT_SMR_0>
-0.53259069

>  <GCUT_SMR_1>
-0.21605732

>  <GCUT_SMR_2>
0.19305076

>  <GCUT_SMR_3>
3.2004704

>  <Kier1>
31.526627

>  <Kier2>
16.955017

>  <Kier3>
10.826222

>  <KierA1>
27.155846

>  <KierA2>
14.541234

>  <KierA3>
9.256012

>  <KierFlex>
10.67242

>  <lip_acc>
4

>  <lip_don>
0

>  <lip_druglike>
0

>  <lip_violation>
2

>  <logP(o/w)>
8.7559996

>  <logS>
-9.2447596

>  <mr>
15.175088

>  <mutagenic>
0

>  <nmol>
1

>  <opr_brigid>
18

>  <opr_leadlike>
0

>  <opr_nring>
3

>  <opr_nrot>
17

>  <opr_violation>
3

>  <PC+>
0

>  <PC->
0

>  <PEOE_PC+>
2.2870917

>  <PEOE_PC->
-2.2870917

>  <PEOE_RPC+>
0.11498424

>  <PEOE_RPC->
0.1328055

>  <PEOE_VSA+0>
191.2733

>  <PEOE_VSA+1>
34.123089

>  <PEOE_VSA+2>
9.0208454

>  <PEOE_VSA+3>
8.458519

>  <PEOE_VSA+4>
0

>  <PEOE_VSA+5>
14.708499

>  <PEOE_VSA+6>
0

>  <PEOE_VSA-0>
123.73554

>  <PEOE_VSA-1>
125.04731

>  <PEOE_VSA-2>
0

>  <PEOE_VSA-3>
0

>  <PEOE_VSA-4>
11.908636

>  <PEOE_VSA-5>
27.133842

>  <PEOE_VSA-6>
2.503756

>  <PEOE_VSA_FHYD>
0.89732915

>  <PEOE_VSA_FNEG>
0.52988142

>  <PEOE_VSA_FPNEG>
0.075826287

>  <PEOE_VSA_FPOL>
0.10267086

>  <PEOE_VSA_FPOS>
0.47011861

>  <PEOE_VSA_FPPOS>
0.026844572

>  <PEOE_VSA_HYD>
491.6586

>  <PEOE_VSA_NEG>
290.3291

>  <PEOE_VSA_PNEG>
41.546234

>  <PEOE_VSA_POL>
56.254734

>  <PEOE_VSA_POS>
257.58426

>  <PEOE_VSA_PPOS>
14.708499

>  <petitjean>
0.47826087

>  <petitjeanSC>
0.91666669

>  <Q_PC+>
0

>  <Q_PC->
0

>  <Q_RPC+>
0

>  <Q_RPC->
0

>  <Q_VSA_FHYD>
1

>  <Q_VSA_FNEG>
0

>  <Q_VSA_FPNEG>
0

>  <Q_VSA_FPOL>
0

>  <Q_VSA_FPOS>
1

>  <Q_VSA_FPPOS>
0

>  <Q_VSA_HYD>
547.91333

>  <Q_VSA_NEG>
0

>  <Q_VSA_PNEG>
0

>  <Q_VSA_POL>
0

>  <Q_VSA_POS>
547.91333

>  <Q_VSA_PPOS>
0

>  <radius>
12

>  <reactive>
1

>  <rings>
3

>  <RPC+>
0

>  <RPC->
0

>  <rsynth>
1

>  <SlogP>
8.4287004

>  <SlogP_VSA0>
0

>  <SlogP_VSA1>
16.557388

>  <SlogP_VSA2>
43.983124

>  <SlogP_VSA3>
55.318733

>  <SlogP_VSA4>
30.233366

>  <SlogP_VSA5>
0

>  <SlogP_VSA6>
3.5006065

>  <SlogP_VSA7>
141.14548

>  <SlogP_VSA8>
226.42087

>  <SlogP_VSA9>
87.434769

>  <SMR>
14.75875

>  <SMR_VSA0>
58.724319

>  <SMR_VSA1>
18.084427

>  <SMR_VSA2>
9.1210184

>  <SMR_VSA3>
9.8717566

>  <SMR_VSA4>
0

>  <SMR_VSA5>
367.56635

>  <SMR_VSA6>
68.751808

>  <SMR_VSA7>
72.474655

>  <TPSA>
46.610001

>  <VAdjEq>
0.31532151

>  <VAdjMa>
6.2854023

>  <VDistEq>
4.1856346

>  <VDistMa>
10.102475

>  <vdw_area>
547.91333

>  <vdw_vol>
744.12225

>  <vsa_acc>
27.133842

>  <vsa_acid>
0

>  <vsa_base>
0

>  <vsa_don>
0

>  <vsa_hyd>
465.92511

>  <vsa_other>
25.670774

>  <vsa_pol>
27.133842

>  <Weight>
530.12396

>  <weinerPath>
5420

>  <weinerPol>
53

>  <zagreb>
180

$$$$