ClC=1CS[C@H]2N(C=1C(O)=O)C(=O)[C@H]2NC(=O)[C@H](N)c1ccccc1
  MOE2013           2D

 24 26  0  0  1  0  0  0  0  0999 V2000
    0.0000    0.0000    0.0000 Cl  0  0  0  0  0  0  0  0  0  0  0  0
    1.5000   -0.0090    0.0000 C   0  0  0  0  0  0  0  0  0  0  0  0
    2.2580    1.2860    0.0000 C   0  0  0  0  0  0  0  0  0  0  0  0
    3.7580    1.2770    0.0000 S   0  0  0  0  0  0  0  0  0  0  0  0
    4.5000   -0.0260    0.0000 C   0  0  1  0  0  0  0  0  0  0  0  0
    3.7420   -1.3210    0.0000 N   0  0  0  0  0  0  0  0  0  0  0  0
    2.2420   -1.3120    0.0000 C   0  0  0  0  0  0  0  0  0  0  0  0
    1.4850   -2.6070    0.0000 C   0  0  0  0  0  0  0  0  0  0  0  0
    2.2270   -3.9100    0.0000 O   0  0  0  0  0  0  0  0  0  0  0  0
   -0.0150   -2.5980    0.0000 O   0  0  0  0  0  0  0  0  0  0  0  0
    5.0370   -2.0790    0.0000 C   0  0  0  0  0  0  0  0  0  0  0  0
    5.4170   -3.5300    0.0000 O   0  0  0  0  0  0  0  0  0  0  0  0
    5.7950   -0.7840    0.0000 C   0  0  1  0  0  0  0  0  0  0  0  0
    7.2460   -0.4040    0.0000 N   0  0  0  0  0  0  0  0  0  0  0  0
    8.3000   -1.4710    0.0000 C   0  0  0  0  0  0  0  0  0  0  0  0
    7.9030   -2.9180    0.0000 O   0  0  0  0  0  0  0  0  0  0  0  0
    9.7510   -1.0910    0.0000 C   0  0  2  0  0  0  0  0  0  0  0  0
   10.1480    0.3550    0.0000 N   0  0  0  0  0  0  0  0  0  0  0  0
   10.8060   -2.1580    0.0000 C   0  0  0  0  0  0  0  0  0  0  0  0
   10.4090   -3.6050    0.0000 C   0  0  0  0  0  0  0  0  0  0  0  0
   11.4630   -4.6720    0.0000 C   0  0  0  0  0  0  0  0  0  0  0  0
   12.9150   -4.2920    0.0000 C   0  0  0  0  0  0  0  0  0  0  0  0
   13.3110   -2.8450    0.0000 C   0  0  0  0  0  0  0  0  0  0  0  0
   12.2570   -1.7780    0.0000 C   0  0  0  0  0  0  0  0  0  0  0  0
  1  2  1  0  0  0  0
  2  3  1  0  0  0  0
  2  7  2  0  0  0  0
  3  4  1  0  0  0  0
  5  4  1  6  0  0  0
  5  6  1  0  0  0  0
  5 13  1  0  0  0  0
  6  7  1  0  0  0  0
  6 11  1  0  0  0  0
  7  8  1  0  0  0  0
  8  9  1  0  0  0  0
  8 10  2  0  0  0  0
 11 12  2  0  0  0  0
 11 13  1  0  0  0  0
 13 14  1  6  0  0  0
 14 15  1  0  0  0  0
 15 16  2  0  0  0  0
 15 17  1  0  0  0  0
 17 18  1  6  0  0  0
 17 19  1  0  0  0  0
 19 20  1  0  0  0  0
 19 24  2  0  0  0  0
 20 21  2  0  0  0  0
 21 22  1  0  0  0  0
 22 23  2  0  0  0  0
 23 24  1  0  0  0  0
M  END
>  <Index>
1463

>  <ID>
HT0394

>  <class>
1

>  <apol>
47.323101

>  <ast_fraglike>
0

>  <ast_fraglike_ext>
0

>  <ast_violation>
3

>  <ast_violation_ext>
5

>  <a_acc>
5

>  <a_acid>
0

>  <a_aro>
6

>  <a_base>
0

>  <a_count>
38

>  <a_don>
4

>  <a_donacc>
9

>  <a_heavy>
24

>  <a_hyd>
14

>  <a_IC>
74.760033

>  <a_ICM>
1.9673692

>  <a_nB>
0

>  <a_nBr>
0

>  <a_nC>
15

>  <a_nCl>
1

>  <a_nF>
0

>  <a_nH>
14

>  <a_nI>
0

>  <a_nN>
3

>  <a_nO>
4

>  <a_nP>
0

>  <a_nS>
1

>  <balabanJ>
1.5845311

>  <BCUT_PEOE_0>
-2.6783683

>  <BCUT_PEOE_1>
-0.62969315

>  <BCUT_PEOE_2>
0.66861045

>  <BCUT_PEOE_3>
2.73317

>  <BCUT_SLOGP_0>
-2.8961098

>  <BCUT_SLOGP_1>
-0.52812922

>  <BCUT_SLOGP_2>
0.76191199

>  <BCUT_SLOGP_3>
2.6056423

>  <BCUT_SMR_0>
-2.3966935

>  <BCUT_SMR_1>
-0.43034241

>  <BCUT_SMR_2>
0.82445055

>  <BCUT_SMR_3>
3.0127168

>  <bpol>
22.858898

>  <b_1rotN>
4

>  <b_1rotR>
0.15384616

>  <b_ar>
6

>  <b_count>
40

>  <b_double>
4

>  <b_heavy>
26

>  <b_max1len>
3

>  <b_rotN>
5

>  <b_rotR>
0.1923077

>  <b_single>
30

>  <b_triple>
0

>  <chi0>
17.430357

>  <chi0v>
13.881069

>  <chi0v_C>
8.3259087

>  <chi0_C>
9.4387932

>  <chi1>
11.413591

>  <chi1v>
8.5170746

>  <chi1v_C>
3.9635956

>  <chi1_C>
5.2247448

>  <chiral>
3

>  <chiral_u>
0

>  <density>
0.88779908

>  <diameter>
12

>  <FCharge>
0

>  <GCUT_PEOE_0>
-0.82397193

>  <GCUT_PEOE_1>
-0.43268073

>  <GCUT_PEOE_2>
0.094035968

>  <GCUT_PEOE_3>
2.5500913

>  <GCUT_SLOGP_0>
-1.3374544

>  <GCUT_SLOGP_1>
-0.38489625

>  <GCUT_SLOGP_2>
0.15566365

>  <GCUT_SLOGP_3>
2.5196152

>  <GCUT_SMR_0>
-0.52870154

>  <GCUT_SMR_1>
-0.22616273

>  <GCUT_SMR_2>
0.23011757

>  <GCUT_SMR_3>
2.8300655

>  <Kier1>
18.781065

>  <Kier2>
7.7091413

>  <Kier3>
3.6183696

>  <KierA1>
16.128738

>  <KierA2>
6.5742006

>  <KierA3>
3.0701475

>  <KierFlex>
4.4180655

>  <lip_acc>
7

>  <lip_don>
4

>  <lip_druglike>
1

>  <lip_violation>
0

>  <logP(o/w)>
0.83999997

>  <logS>
-3.85728

>  <mr>
9.0267649

>  <mutagenic>
0

>  <nmol>
1

>  <opr_brigid>
15

>  <opr_leadlike>
1

>  <opr_nring>
3

>  <opr_nrot>
4

>  <opr_violation>
0

>  <PC+>
0

>  <PC->
0

>  <PEOE_PC+>
2.603786

>  <PEOE_PC->
-2.603786

>  <PEOE_RPC+>
0.11870711

>  <PEOE_RPC->
0.13080788

>  <PEOE_VSA+0>
19.208147

>  <PEOE_VSA+1>
38.642834

>  <PEOE_VSA+2>
35.351521

>  <PEOE_VSA+3>
8.6190128

>  <PEOE_VSA+4>
23.273705

>  <PEOE_VSA+5>
12.949531

>  <PEOE_VSA+6>
14.708499

>  <PEOE_VSA-0>
2.2085397

>  <PEOE_VSA-1>
90.856468

>  <PEOE_VSA-2>
19.760618

>  <PEOE_VSA-3>
0

>  <PEOE_VSA-4>
0

>  <PEOE_VSA-5>
40.700764

>  <PEOE_VSA-6>
14.555551

>  <PEOE_VSA_FHYD>
0.6690262

>  <PEOE_VSA_FNEG>
0.52388871

>  <PEOE_VSA_FPNEG>
0.17222647

>  <PEOE_VSA_FPOL>
0.33097383

>  <PEOE_VSA_FPOS>
0.47611126

>  <PEOE_VSA_FPPOS>
0.15874735

>  <PEOE_VSA_HYD>
214.64714

>  <PEOE_VSA_NEG>
168.08194

>  <PEOE_VSA_PNEG>
55.256313

>  <PEOE_VSA_POL>
106.18805

>  <PEOE_VSA_POS>
152.75325

>  <PEOE_VSA_PPOS>
50.931732

>  <petitjean>
0.5

>  <petitjeanSC>
1

>  <Q_PC+>
0

>  <Q_PC->
0

>  <Q_RPC+>
0

>  <Q_RPC->
0

>  <Q_VSA_FHYD>
1

>  <Q_VSA_FNEG>
0

>  <Q_VSA_FPNEG>
0

>  <Q_VSA_FPOL>
0

>  <Q_VSA_FPOS>
1

>  <Q_VSA_FPPOS>
0

>  <Q_VSA_HYD>
320.83517

>  <Q_VSA_NEG>
0

>  <Q_VSA_PNEG>
0

>  <Q_VSA_POL>
0

>  <Q_VSA_POS>
320.83517

>  <Q_VSA_PPOS>
0

>  <radius>
6

>  <reactive>
0

>  <rings>
3

>  <RPC+>
0

>  <RPC->
0

>  <rsynth>
1

>  <SlogP>
0.71679997

>  <SlogP_VSA0>
50.90794

>  <SlogP_VSA1>
21.387344

>  <SlogP_VSA2>
77.915749

>  <SlogP_VSA3>
42.61879

>  <SlogP_VSA4>
3.185575

>  <SlogP_VSA5>
6.2573543

>  <SlogP_VSA6>
0

>  <SlogP_VSA7>
88.215919

>  <SlogP_VSA8>
3.9819686

>  <SlogP_VSA9>
71.368187

>  <SMR>
8.9019899

>  <SMR_VSA0>
71.586647

>  <SMR_VSA1>
3.1243138

>  <SMR_VSA2>
43.395977

>  <SMR_VSA3>
19.753994

>  <SMR_VSA4>
32.897186

>  <SMR_VSA5>
88.215919

>  <SMR_VSA6>
35.496597

>  <SMR_VSA7>
71.368187

>  <TPSA>
112.73

>  <VAdjEq>
0.43739632

>  <VAdjMa>
5.7004399

>  <VDistEq>
3.3900189

>  <VDistMa>
8.8684988

>  <vdw_area>
320.83517

>  <vdw_vol>
414.29755

>  <vsa_acc>
27.133842

>  <vsa_acid>
0

>  <vsa_base>
0

>  <vsa_don>
5.6825762

>  <vsa_hyd>
181.67215

>  <vsa_other>
40.607563

>  <vsa_pol>
77.692749

>  <Weight>
367.81299

>  <weinerPath>
1383

>  <weinerPol>
39

>  <zagreb>
128

$$$$