S(=O)(=O)(N)c1cc2S(=O)(=O)NC(Nc2cc1C(F)(F)F)Cc1ccccc1
  MOE2013           2D

 27 29  0  0  1  0  0  0  0  0999 V2000
    0.0000    0.0000    0.0000 S   0  0  0  0  0  0  0  0  0  0  0  0
    0.8690   -1.2220    0.0000 O   0  0  0  0  0  0  0  0  0  0  0  0
   -0.8690    1.2220    0.0000 O   0  0  0  0  0  0  0  0  0  0  0  0
   -1.2220   -0.8690    0.0000 N   0  0  0  0  0  0  0  0  0  0  0  0
    1.2220    0.8690    0.0000 C   0  0  0  0  0  0  0  0  0  0  0  0
    2.4570    0.0180    0.0000 C   0  0  0  0  0  0  0  0  0  0  0  0
    3.8120    0.6620    0.0000 C   0  0  0  0  0  0  0  0  0  0  0  0
    5.0470   -0.1890    0.0000 S   0  0  0  0  0  0  0  0  0  0  0  0
    5.6910   -1.5440    0.0000 O   0  0  0  0  0  0  0  0  0  0  0  0
    4.1960   -1.4240    0.0000 O   0  0  0  0  0  0  0  0  0  0  0  0
    6.4020    0.4540    0.0000 N   0  0  0  0  0  0  0  0  0  0  0  0
    6.5220    1.9500    0.0000 C   0  0  3  0  0  0  0  0  0  0  0  0
    5.2870    2.8010    0.0000 N   0  0  0  0  0  0  0  0  0  0  0  0
    3.9320    2.1570    0.0000 C   0  0  0  0  0  0  0  0  0  0  0  0
    2.6970    3.0080    0.0000 C   0  0  0  0  0  0  0  0  0  0  0  0
    1.3420    2.3650    0.0000 C   0  0  0  0  0  0  0  0  0  0  0  0
    0.1070    3.2160    0.0000 C   0  0  0  0  0  0  0  0  0  0  0  0
    0.9590    4.4510    0.0000 F   0  0  0  0  0  0  0  0  0  0  0  0
   -0.7440    1.9810    0.0000 F   0  0  0  0  0  0  0  0  0  0  0  0
   -1.1280    4.0670    0.0000 F   0  0  0  0  0  0  0  0  0  0  0  0
    7.8770    2.5930    0.0000 C   0  0  0  0  0  0  0  0  0  0  0  0
    9.1120    1.7420    0.0000 C   0  0  0  0  0  0  0  0  0  0  0  0
    8.9920    0.2470    0.0000 C   0  0  0  0  0  0  0  0  0  0  0  0
   10.2270   -0.6040    0.0000 C   0  0  0  0  0  0  0  0  0  0  0  0
   11.5820    0.0390    0.0000 C   0  0  0  0  0  0  0  0  0  0  0  0
   11.7010    1.5350    0.0000 C   0  0  0  0  0  0  0  0  0  0  0  0
   10.4660    2.3860    0.0000 C   0  0  0  0  0  0  0  0  0  0  0  0
  1  2  2  0  0  0  0
  1  3  2  0  0  0  0
  1  4  1  0  0  0  0
  1  5  1  0  0  0  0
  5  6  1  0  0  0  0
  5 16  2  0  0  0  0
  6  7  2  0  0  0  0
  7  8  1  0  0  0  0
  7 14  1  0  0  0  0
  8  9  2  0  0  0  0
  8 10  2  0  0  0  0
  8 11  1  0  0  0  0
 11 12  1  0  0  0  0
 12 13  1  0  0  0  0
 12 21  1  0  0  0  0
 13 14  1  0  0  0  0
 14 15  2  0  0  0  0
 15 16  1  0  0  0  0
 16 17  1  0  0  0  0
 17 18  1  0  0  0  0
 17 19  1  0  0  0  0
 17 20  1  0  0  0  0
 21 22  1  0  0  0  0
 22 23  1  0  0  0  0
 22 27  2  0  0  0  0
 23 24  2  0  0  0  0
 24 25  1  0  0  0  0
 25 26  2  0  0  0  0
 26 27  1  0  0  0  0
M  END
>  <Index>
1448

>  <ID>
HT0236

>  <class>
1

>  <apol>
49.714104

>  <ast_fraglike>
0

>  <ast_fraglike_ext>
0

>  <ast_violation>
2

>  <ast_violation_ext>
3

>  <a_acc>
4

>  <a_acid>
0

>  <a_aro>
12

>  <a_base>
0

>  <a_count>
41

>  <a_don>
3

>  <a_donacc>
7

>  <a_heavy>
27

>  <a_hyd>
17

>  <a_IC>
88.24353

>  <a_ICM>
2.1522813

>  <a_nB>
0

>  <a_nBr>
0

>  <a_nC>
15

>  <a_nCl>
0

>  <a_nF>
3

>  <a_nH>
14

>  <a_nI>
0

>  <a_nN>
3

>  <a_nO>
4

>  <a_nP>
0

>  <a_nS>
2

>  <balabanJ>
1.7657081

>  <BCUT_PEOE_0>
-2.6323941

>  <BCUT_PEOE_1>
-0.5140003

>  <BCUT_PEOE_2>
0.57469755

>  <BCUT_PEOE_3>
2.6130524

>  <BCUT_SLOGP_0>
-2.7918663

>  <BCUT_SLOGP_1>
-0.48041865

>  <BCUT_SLOGP_2>
0.64393705

>  <BCUT_SLOGP_3>
2.5634623

>  <BCUT_SMR_0>
-2.3118331

>  <BCUT_SMR_1>
-0.3865895

>  <BCUT_SMR_2>
0.72234982

>  <BCUT_SMR_3>
2.9239206

>  <bpol>
32.525898

>  <b_1rotN>
3

>  <b_1rotR>
0.10344828

>  <b_ar>
12

>  <b_count>
43

>  <b_double>
0

>  <b_heavy>
29

>  <b_max1len>
3

>  <b_rotN>
4

>  <b_rotR>
0.13793103

>  <b_single>
31

>  <b_triple>
0

>  <chi0>
20.03517

>  <chi0v>
15.119636

>  <chi0v_C>
8.3259087

>  <chi0_C>
9.6209555

>  <chi1>
12.376977

>  <chi1v>
10.515707

>  <chi1v_C>
4.5771856

>  <chi1_C>
6.2213283

>  <chiral>
1

>  <chiral_u>
1

>  <density>
0.96388197

>  <diameter>
12

>  <FCharge>
0

>  <GCUT_PEOE_0>
-0.88760012

>  <GCUT_PEOE_1>
-0.3845273

>  <GCUT_PEOE_2>
0.054364897

>  <GCUT_PEOE_3>
2.702656

>  <GCUT_SLOGP_0>
-1.3483027

>  <GCUT_SLOGP_1>
-0.39889887

>  <GCUT_SLOGP_2>
0.18722686

>  <GCUT_SLOGP_3>
2.7160609

>  <GCUT_SMR_0>
-0.50206983

>  <GCUT_SMR_1>
-0.18436959

>  <GCUT_SMR_2>
0.17369954

>  <GCUT_SMR_3>
2.9662385

>  <Kier1>
21.702734

>  <Kier2>
7.679584

>  <Kier3>
4.9507437

>  <KierA1>
19.537109

>  <KierA2>
6.8840961

>  <KierA3>
4.4240189

>  <KierFlex>
4.9813089

>  <lip_acc>
7

>  <lip_don>
4

>  <lip_druglike>
1

>  <lip_violation>
0

>  <logP(o/w)>
1.80276

>  <logS>
-4.1614199

>  <mr>
9.3280535

>  <mutagenic>
0

>  <nmol>
1

>  <opr_brigid>
17

>  <opr_leadlike>
1

>  <opr_nring>
3

>  <opr_nrot>
3

>  <opr_violation>
0

>  <PC+>
0

>  <PC->
0

>  <PEOE_PC+>
2.3242407

>  <PEOE_PC->
-2.3242407

>  <PEOE_RPC+>
0.18356551

>  <PEOE_RPC->
0.16476053

>  <PEOE_VSA+0>
54.476315

>  <PEOE_VSA+1>
38.476715

>  <PEOE_VSA+2>
22.360512

>  <PEOE_VSA+3>
2.2085397

>  <PEOE_VSA+4>
0

>  <PEOE_VSA+5>
0

>  <PEOE_VSA+6>
17.414705

>  <PEOE_VSA-0>
31.78377

>  <PEOE_VSA-1>
61.274521

>  <PEOE_VSA-2>
34.546043

>  <PEOE_VSA-3>
44.769657

>  <PEOE_VSA-4>
32.016521

>  <PEOE_VSA-5>
0

>  <PEOE_VSA-6>
0.13689101

>  <PEOE_VSA_FHYD>
0.85398132

>  <PEOE_VSA_FNEG>
0.60250068

>  <PEOE_VSA_FPNEG>
0.094718128

>  <PEOE_VSA_FPOL>
0.1460187

>  <PEOE_VSA_FPOS>
0.39749932

>  <PEOE_VSA_FPPOS>
0.051300563

>  <PEOE_VSA_HYD>
289.89609

>  <PEOE_VSA_NEG>
204.5274

>  <PEOE_VSA_PNEG>
32.153416

>  <PEOE_VSA_POL>
49.568119

>  <PEOE_VSA_POS>
134.93678

>  <PEOE_VSA_PPOS>
17.414705

>  <petitjean>
0.5

>  <petitjeanSC>
1

>  <Q_PC+>
0

>  <Q_PC->
0

>  <Q_RPC+>
0

>  <Q_RPC->
0

>  <Q_VSA_FHYD>
1

>  <Q_VSA_FNEG>
0

>  <Q_VSA_FPNEG>
0

>  <Q_VSA_FPOL>
0

>  <Q_VSA_FPOS>
1

>  <Q_VSA_FPPOS>
0

>  <Q_VSA_HYD>
339.4642

>  <Q_VSA_NEG>
0

>  <Q_VSA_PNEG>
0

>  <Q_VSA_POL>
0

>  <Q_VSA_POS>
339.4642

>  <Q_VSA_PPOS>
0

>  <radius>
6

>  <reactive>
0

>  <rings>
3

>  <RPC+>
0

>  <RPC->
0

>  <rsynth>
1

>  <SlogP>
1.93687

>  <SlogP_VSA0>
47.69643

>  <SlogP_VSA1>
114.35413

>  <SlogP_VSA2>
16.834627

>  <SlogP_VSA3>
0

>  <SlogP_VSA4>
6.37115

>  <SlogP_VSA5>
21.969873

>  <SlogP_VSA6>
7.7595162

>  <SlogP_VSA7>
123.50229

>  <SlogP_VSA8>
0

>  <SlogP_VSA9>
47.637089

>  <SMR>
9.0812397

>  <SMR_VSA0>
96.343376

>  <SMR_VSA1>
44.880341

>  <SMR_VSA2>
27.265982

>  <SMR_VSA3>
9.9242916

>  <SMR_VSA4>
52.058933

>  <SMR_VSA5>
142.3707

>  <SMR_VSA6>
0

>  <SMR_VSA7>
13.281486

>  <TPSA>
118.36

>  <VAdjEq>
0.40063059

>  <VAdjMa>
5.8579812

>  <VDistEq>
3.3577561

>  <VDistMa>
9.2336283

>  <vdw_area>
339.4642

>  <vdw_vol>
437.21121

>  <vsa_acc>
64.033043

>  <vsa_acid>
0

>  <vsa_base>
0

>  <vsa_don>
33.892902

>  <vsa_hyd>
190.7252

>  <vsa_other>
31.401779

>  <vsa_pol>
97.925949

>  <Weight>
421.41998

>  <weinerPath>
1752

>  <weinerPol>
46

>  <zagreb>
150

$$$$