Clc1ccc(cc1)-c1oc2c(n1)cc(cc2)C(C(O)=O)C
  MOE2013           2D

 21 23  0  0  1  0  0  0  0  0999 V2000
    0.0000    0.0000    0.0000 Cl  0  0  0  0  0  0  0  0  0  0  0  0
   -1.5000    0.0030    0.0000 C   0  0  0  0  0  0  0  0  0  0  0  0
   -2.2470    1.3040    0.0000 C   0  0  0  0  0  0  0  0  0  0  0  0
   -3.7470    1.3070    0.0000 C   0  0  0  0  0  0  0  0  0  0  0  0
   -4.5000    0.0100    0.0000 C   0  0  0  0  0  0  0  0  0  0  0  0
   -3.7530   -1.2910    0.0000 C   0  0  0  0  0  0  0  0  0  0  0  0
   -2.2530   -1.2940    0.0000 C   0  0  0  0  0  0  0  0  0  0  0  0
   -6.0000    0.0130    0.0000 C   0  0  0  0  0  0  0  0  0  0  0  0
   -6.8840   -1.1980    0.0000 O   0  0  0  0  0  0  0  0  0  0  0  0
   -8.3100   -0.7310    0.0000 C   0  0  0  0  0  0  0  0  0  0  0  0
   -8.3070    0.7690    0.0000 C   0  0  0  0  0  0  0  0  0  0  0  0
   -6.8790    1.2290    0.0000 N   0  0  0  0  0  0  0  0  0  0  0  0
   -9.6040    1.5210    0.0000 C   0  0  0  0  0  0  0  0  0  0  0  0
  -10.9050    0.7740    0.0000 C   0  0  0  0  0  0  0  0  0  0  0  0
  -10.9080   -0.7260    0.0000 C   0  0  0  0  0  0  0  0  0  0  0  0
   -9.6110   -1.4790    0.0000 C   0  0  0  0  0  0  0  0  0  0  0  0
  -12.2020    1.5270    0.0000 C   0  0  3  0  0  0  0  0  0  0  0  0
  -13.5030    0.7800    0.0000 C   0  0  0  0  0  0  0  0  0  0  0  0
  -13.5060   -0.7200    0.0000 O   0  0  0  0  0  0  0  0  0  0  0  0
  -14.8000    1.5330    0.0000 O   0  0  0  0  0  0  0  0  0  0  0  0
  -12.1990    3.0270    0.0000 C   0  0  0  0  0  0  0  0  0  0  0  0
  1  2  1  0  0  0  0
  2  3  1  0  0  0  0
  2  7  2  0  0  0  0
  3  4  2  0  0  0  0
  4  5  1  0  0  0  0
  5  6  2  0  0  0  0
  5  8  1  0  0  0  0
  6  7  1  0  0  0  0
  8  9  1  0  0  0  0
  8 12  2  0  0  0  0
  9 10  1  0  0  0  0
 10 11  1  0  0  0  0
 10 16  2  0  0  0  0
 11 12  1  0  0  0  0
 11 13  2  0  0  0  0
 13 14  1  0  0  0  0
 14 15  2  0  0  0  0
 14 17  1  0  0  0  0
 15 16  1  0  0  0  0
 17 18  1  0  0  0  0
 17 21  1  0  0  0  0
 18 19  1  0  0  0  0
 18 20  2  0  0  0  0
M  END
>  <Index>
1449

>  <ID>
HT0239

>  <class>
1

>  <apol>
41.847515

>  <ast_fraglike>
0

>  <ast_fraglike_ext>
0

>  <ast_violation>
2

>  <ast_violation_ext>
2

>  <a_acc>
3

>  <a_acid>
0

>  <a_aro>
15

>  <a_base>
0

>  <a_count>
33

>  <a_don>
2

>  <a_donacc>
5

>  <a_heavy>
21

>  <a_hyd>
14

>  <a_IC>
54.690567

>  <a_ICM>
1.65729

>  <a_nB>
0

>  <a_nBr>
0

>  <a_nC>
16

>  <a_nCl>
1

>  <a_nF>
0

>  <a_nH>
12

>  <a_nI>
0

>  <a_nN>
1

>  <a_nO>
3

>  <a_nP>
0

>  <a_nS>
0

>  <balabanJ>
1.5465237

>  <BCUT_PEOE_0>
-2.4163749

>  <BCUT_PEOE_1>
-0.63912839

>  <BCUT_PEOE_2>
0.62570614

>  <BCUT_PEOE_3>
2.4720266

>  <BCUT_SLOGP_0>
-2.3794544

>  <BCUT_SLOGP_1>
-0.52037042

>  <BCUT_SLOGP_2>
0.82058841

>  <BCUT_SLOGP_3>
2.5389328

>  <BCUT_SMR_0>
-2.1788027

>  <BCUT_SMR_1>
-0.46204686

>  <BCUT_SMR_2>
0.862948

>  <BCUT_SMR_3>
2.7172682

>  <bpol>
17.732485

>  <b_1rotN>
3

>  <b_1rotR>
0.13043478

>  <b_ar>
16

>  <b_count>
35

>  <b_double>
1

>  <b_heavy>
23

>  <b_max1len>
3

>  <b_rotN>
3

>  <b_rotR>
0.13043478

>  <b_single>
18

>  <b_triple>
0

>  <chi0>
14.982763

>  <chi0v>
11.963619

>  <chi0v_C>
9.1188021

>  <chi0_C>
10.568549

>  <chi1>
10.041714

>  <chi1v>
6.8142409

>  <chi1v_C>
4.9641018

>  <chi1_C>
6.6766701

>  <chiral>
1

>  <chiral_u>
1

>  <density>
0.80798322

>  <diameter>
12

>  <FCharge>
0

>  <GCUT_PEOE_0>
-0.80018985

>  <GCUT_PEOE_1>
-0.43468437

>  <GCUT_PEOE_2>
0.064189874

>  <GCUT_PEOE_3>
2.4295425

>  <GCUT_SLOGP_0>
-0.87404418

>  <GCUT_SLOGP_1>
-0.30336073

>  <GCUT_SLOGP_2>
0.19566172

>  <GCUT_SLOGP_3>
2.5674436

>  <GCUT_SMR_0>
-0.50056106

>  <GCUT_SMR_1>
-0.22115374

>  <GCUT_SMR_2>
0.23710363

>  <GCUT_SMR_3>
2.7201796

>  <Kier1>
15.879017

>  <Kier2>
6.6299357

>  <Kier3>
3.5045972

>  <KierA1>
12.210001

>  <KierA2>
5.025866

>  <KierA3>
2.6276784

>  <KierFlex>
2.9221823

>  <lip_acc>
4

>  <lip_don>
1

>  <lip_druglike>
1

>  <lip_violation>
0

>  <logP(o/w)>
4.1090002

>  <logS>
-5.66748

>  <mr>
8.1282091

>  <mutagenic>
0

>  <nmol>
1

>  <opr_brigid>
16

>  <opr_leadlike>
1

>  <opr_nring>
3

>  <opr_nrot>
3

>  <opr_violation>
0

>  <PC+>
0

>  <PC->
0

>  <PEOE_PC+>
1.6865104

>  <PEOE_PC->
-1.6865104

>  <PEOE_RPC+>
0.15819426

>  <PEOE_RPC->
0.25809506

>  <PEOE_VSA+0>
23.789829

>  <PEOE_VSA+1>
29.857702

>  <PEOE_VSA+2>
6.6995511

>  <PEOE_VSA+3>
8.458519

>  <PEOE_VSA+4>
23.273705

>  <PEOE_VSA+5>
14.708499

>  <PEOE_VSA+6>
0

>  <PEOE_VSA-0>
94.485641

>  <PEOE_VSA-1>
41.836849

>  <PEOE_VSA-2>
0

>  <PEOE_VSA-3>
0

>  <PEOE_VSA-4>
5.6825762

>  <PEOE_VSA-5>
13.566921

>  <PEOE_VSA-6>
10.271297

>  <PEOE_VSA_FHYD>
0.75240171

>  <PEOE_VSA_FNEG>
0.60830659

>  <PEOE_VSA_FPNEG>
0.1082811

>  <PEOE_VSA_FPOL>
0.24759831

>  <PEOE_VSA_FPOS>
0.39169341

>  <PEOE_VSA_FPPOS>
0.13931721

>  <PEOE_VSA_HYD>
205.1281

>  <PEOE_VSA_NEG>
165.84329

>  <PEOE_VSA_PNEG>
29.520794

>  <PEOE_VSA_POL>
67.502998

>  <PEOE_VSA_POS>
106.7878

>  <PEOE_VSA_PPOS>
37.982204

>  <petitjean>
0.5

>  <petitjeanSC>
1

>  <Q_PC+>
0

>  <Q_PC->
0

>  <Q_RPC+>
0

>  <Q_RPC->
0

>  <Q_VSA_FHYD>
1

>  <Q_VSA_FNEG>
0

>  <Q_VSA_FPNEG>
0

>  <Q_VSA_FPOL>
0

>  <Q_VSA_FPOS>
1

>  <Q_VSA_FPPOS>
0

>  <Q_VSA_HYD>
272.6311

>  <Q_VSA_NEG>
0

>  <Q_VSA_PNEG>
0

>  <Q_VSA_POL>
0

>  <Q_VSA_POS>
272.6311

>  <Q_VSA_PPOS>
0

>  <radius>
6

>  <reactive>
0

>  <rings>
3

>  <RPC+>
0

>  <RPC->
0

>  <rsynth>
0.42857143

>  <SlogP>
4.3362999

>  <SlogP_VSA0>
0

>  <SlogP_VSA1>
24.530994

>  <SlogP_VSA2>
23.862217

>  <SlogP_VSA3>
25.385227

>  <SlogP_VSA4>
3.185575

>  <SlogP_VSA5>
9.5073462

>  <SlogP_VSA6>
7.9114027

>  <SlogP_VSA7>
138.6882

>  <SlogP_VSA8>
0

>  <SlogP_VSA9>
72.474655

>  <SMR>
8.05058

>  <SMR_VSA0>
33.369564

>  <SMR_VSA1>
16.78553

>  <SMR_VSA2>
25.385227

>  <SMR_VSA3>
11.096977

>  <SMR_VSA4>
15.185916

>  <SMR_VSA5>
123.50229

>  <SMR_VSA6>
7.7454643

>  <SMR_VSA7>
72.474655

>  <TPSA>
63.330002

>  <VAdjEq>
0.48250595

>  <VAdjMa>
5.523562

>  <VDistEq>
3.3155611

>  <VDistMa>
8.4616489

>  <vdw_area>
272.6311

>  <vdw_vol>
373.43472

>  <vsa_acc>
5.6825762

>  <vsa_acid>
0

>  <vsa_base>
0

>  <vsa_don>
0

>  <vsa_hyd>
187.49478

>  <vsa_other>
38.620304

>  <vsa_pol>
32.816418

>  <Weight>
301.729

>  <weinerPath>
975

>  <weinerPol>
32

>  <zagreb>
112

$$$$