Clc1cc2N(c3c(CCc2cc1)cccc3)CCCN(C)C
  MOE2013           2D

 22 24  0  0  1  0  0  0  0  0999 V2000
    0.0000    0.0000    0.0000 Cl  0  0  0  0  0  0  0  0  0  0  0  0
    0.7460    1.3020    0.0000 C   0  0  0  0  0  0  0  0  0  0  0  0
    2.2460    1.3060    0.0000 C   0  0  0  0  0  0  0  0  0  0  0  0
    2.9910    2.6080    0.0000 C   0  0  0  0  0  0  0  0  0  0  0  0
    4.4750    2.3890    0.0000 N   0  0  3  0  0  0  0  0  0  0  0  0
    5.5710    3.4130    0.0000 C   0  0  0  0  0  0  0  0  0  0  0  0
    5.4530    4.9090    0.0000 C   0  0  0  0  0  0  0  0  0  0  0  0
    4.2110    5.7500    0.0000 C   0  0  0  0  0  0  0  0  0  0  0  0
    2.7800    5.3030    0.0000 C   0  0  0  0  0  0  0  0  0  0  0  0
    2.2370    3.9050    0.0000 C   0  0  0  0  0  0  0  0  0  0  0  0
    0.7370    3.9000    0.0000 C   0  0  0  0  0  0  0  0  0  0  0  0
   -0.0090    2.5980    0.0000 C   0  0  0  0  0  0  0  0  0  0  0  0
    6.6900    5.7580    0.0000 C   0  0  0  0  0  0  0  0  0  0  0  0
    8.0430    5.1120    0.0000 C   0  0  0  0  0  0  0  0  0  0  0  0
    8.1610    3.6170    0.0000 C   0  0  0  0  0  0  0  0  0  0  0  0
    6.9240    2.7670    0.0000 C   0  0  0  0  0  0  0  0  0  0  0  0
    4.9220    0.9570    0.0000 C   0  0  0  0  0  0  0  0  0  0  0  0
    6.3860    0.6280    0.0000 C   0  0  0  0  0  0  0  0  0  0  0  0
    6.8330   -0.8040    0.0000 C   0  0  0  0  0  0  0  0  0  0  0  0
    8.2960   -1.1330    0.0000 N   0  0  0  0  0  0  0  0  0  0  0  0
    9.3130   -0.0290    0.0000 C   0  0  0  0  0  0  0  0  0  0  0  0
    8.7430   -2.5640    0.0000 C   0  0  0  0  0  0  0  0  0  0  0  0
  1  2  1  0  0  0  0
  2  3  1  0  0  0  0
  2 12  2  0  0  0  0
  3  4  2  0  0  0  0
  4  5  1  0  0  0  0
  4 10  1  0  0  0  0
  5  6  1  0  0  0  0
  5 17  1  0  0  0  0
  6  7  1  0  0  0  0
  6 16  2  0  0  0  0
  7  8  1  0  0  0  0
  7 13  2  0  0  0  0
  8  9  1  0  0  0  0
  9 10  1  0  0  0  0
 10 11  2  0  0  0  0
 11 12  1  0  0  0  0
 13 14  1  0  0  0  0
 14 15  2  0  0  0  0
 15 16  1  0  0  0  0
 17 18  1  0  0  0  0
 18 19  1  0  0  0  0
 19 20  1  0  0  0  0
 20 21  1  0  0  0  0
 20 22  1  0  0  0  0
M  END
>  <Index>
1502

>  <ID>
HT0528

>  <class>
1

>  <apol>
53.156239

>  <ast_fraglike>
0

>  <ast_fraglike_ext>
0

>  <ast_violation>
2

>  <ast_violation_ext>
3

>  <a_acc>
1

>  <a_acid>
0

>  <a_aro>
12

>  <a_base>
0

>  <a_count>
45

>  <a_don>
0

>  <a_donacc>
1

>  <a_heavy>
22

>  <a_hyd>
20

>  <a_IC>
60.38084

>  <a_ICM>
1.3417965

>  <a_nB>
0

>  <a_nBr>
0

>  <a_nC>
19

>  <a_nCl>
1

>  <a_nF>
0

>  <a_nH>
23

>  <a_nI>
0

>  <a_nN>
2

>  <a_nO>
0

>  <a_nP>
0

>  <a_nS>
0

>  <balabanJ>
1.7356168

>  <BCUT_PEOE_0>
-2.6547892

>  <BCUT_PEOE_1>
-0.53415555

>  <BCUT_PEOE_2>
0.56860411

>  <BCUT_PEOE_3>
2.5754583

>  <BCUT_SLOGP_0>
-2.7068558

>  <BCUT_SLOGP_1>
-0.31041312

>  <BCUT_SLOGP_2>
0.72438359

>  <BCUT_SLOGP_3>
2.6203678

>  <BCUT_SMR_0>
-2.3725932

>  <BCUT_SMR_1>
-0.29945865

>  <BCUT_SMR_2>
0.77172452

>  <BCUT_SMR_3>
2.8664877

>  <bpol>
29.523762

>  <b_1rotN>
4

>  <b_1rotR>
0.16666667

>  <b_ar>
12

>  <b_count>
47

>  <b_double>
0

>  <b_heavy>
24

>  <b_max1len>
6

>  <b_rotN>
4

>  <b_rotR>
0.16666667

>  <b_single>
35

>  <b_triple>
0

>  <chi0>
15.526733

>  <chi0v>
14.105307

>  <chi0v_C>
12.076985

>  <chi0_C>
13.372033

>  <chi1>
10.647867

>  <chi1v>
8.3135338

>  <chi1v_C>
5.772491

>  <chi1_C>
7.432653

>  <chiral>
0

>  <chiral_u>
0

>  <density>
0.69549471

>  <diameter>
9

>  <FCharge>
0

>  <GCUT_PEOE_0>
-0.86400598

>  <GCUT_PEOE_1>
-0.34832489

>  <GCUT_PEOE_2>
0.026484685

>  <GCUT_PEOE_3>
2.7565777

>  <GCUT_SLOGP_0>
-0.95430404

>  <GCUT_SLOGP_1>
-0.25274178

>  <GCUT_SLOGP_2>
0.1459523

>  <GCUT_SLOGP_3>
2.875767

>  <GCUT_SMR_0>
-0.51978445

>  <GCUT_SMR_1>
-0.14949962

>  <GCUT_SMR_2>
0.17359771

>  <GCUT_SMR_3>
3.0496616

>  <Kier1>
16.84375

>  <Kier2>
7.7134986

>  <Kier3>
4.1103301

>  <KierA1>
14.001141

>  <KierA2>
6.3517461

>  <KierA3>
3.3616736

>  <KierFlex>
4.0423498

>  <lip_acc>
2

>  <lip_don>
0

>  <lip_druglike>
1

>  <lip_violation>
0

>  <logP(o/w)>
4.7329998

>  <logS>
-4.1890001

>  <mr>
9.3597517

>  <mutagenic>
0

>  <nmol>
1

>  <opr_brigid>
17

>  <opr_leadlike>
1

>  <opr_nring>
3

>  <opr_nrot>
4

>  <opr_violation>
1

>  <PC+>
0

>  <PC->
0

>  <PEOE_PC+>
1.1357398

>  <PEOE_PC->
-1.1357398

>  <PEOE_RPC+>
0.057051163

>  <PEOE_RPC->
0.27145353

>  <PEOE_VSA+0>
99.357353

>  <PEOE_VSA+1>
29.857702

>  <PEOE_VSA+2>
0

>  <PEOE_VSA+3>
0

>  <PEOE_VSA+4>
0

>  <PEOE_VSA+5>
0

>  <PEOE_VSA+6>
0

>  <PEOE_VSA-0>
126.95544

>  <PEOE_VSA-1>
78.601562

>  <PEOE_VSA-2>
0

>  <PEOE_VSA-3>
0

>  <PEOE_VSA-4>
0

>  <PEOE_VSA-5>
0

>  <PEOE_VSA-6>
0

>  <PEOE_VSA_FHYD>
1

>  <PEOE_VSA_FNEG>
0.61402076

>  <PEOE_VSA_FPNEG>
0

>  <PEOE_VSA_FPOL>
0

>  <PEOE_VSA_FPOS>
0.38597921

>  <PEOE_VSA_FPPOS>
0

>  <PEOE_VSA_HYD>
334.77203

>  <PEOE_VSA_NEG>
205.55699

>  <PEOE_VSA_PNEG>
0

>  <PEOE_VSA_POL>
0

>  <PEOE_VSA_POS>
129.21506

>  <PEOE_VSA_PPOS>
0

>  <petitjean>
0.44444445

>  <petitjeanSC>
0.80000001

>  <Q_PC+>
0

>  <Q_PC->
0

>  <Q_RPC+>
0

>  <Q_RPC->
0

>  <Q_VSA_FHYD>
1

>  <Q_VSA_FNEG>
0

>  <Q_VSA_FPNEG>
0

>  <Q_VSA_FPOL>
0

>  <Q_VSA_FPOS>
1

>  <Q_VSA_FPPOS>
0

>  <Q_VSA_HYD>
334.77203

>  <Q_VSA_NEG>
0

>  <Q_VSA_PNEG>
0

>  <Q_VSA_POL>
0

>  <Q_VSA_POS>
334.77203

>  <Q_VSA_PPOS>
0

>  <radius>
5

>  <reactive>
0

>  <rings>
3

>  <RPC+>
0

>  <RPC->
0

>  <rsynth>
1

>  <SlogP>
4.5283399

>  <SlogP_VSA0>
3.1243138

>  <SlogP_VSA1>
3.1243138

>  <SlogP_VSA2>
0

>  <SlogP_VSA3>
36.879158

>  <SlogP_VSA4>
6.37115

>  <SlogP_VSA5>
103.53119

>  <SlogP_VSA6>
3.5006065

>  <SlogP_VSA7>
123.50229

>  <SlogP_VSA8>
18.868406

>  <SlogP_VSA9>
44.66214

>  <SMR>
9.5479002

>  <SMR_VSA0>
0

>  <SMR_VSA1>
3.1243138

>  <SMR_VSA2>
3.1243138

>  <SMR_VSA3>
9.8717566

>  <SMR_VSA4>
5.513495

>  <SMR_VSA5>
180.10751

>  <SMR_VSA6>
36.879158

>  <SMR_VSA7>
104.94302

>  <TPSA>
6.48

>  <VAdjEq>
0.46637034

>  <VAdjMa>
5.5849624

>  <VDistEq>
3.0542302

>  <VDistMa>
8.6553249

>  <vdw_area>
334.77203

>  <vdw_vol>
452.71371

>  <vsa_acc>
0

>  <vsa_acid>
0

>  <vsa_base>
0

>  <vsa_don>
0

>  <vsa_hyd>
318.40076

>  <vsa_other>
0

>  <vsa_pol>
0

>  <Weight>
314.85999

>  <weinerPath>
995

>  <weinerPol>
37

>  <zagreb>
114

$$$$