O(C(=O)[C@H](CC)C)[C@@H]1[C@H]2C(=C[C@@H](O)C1)C=C[C@H](C)[C@@H]2CC[C@@H](O)C[C@@H](O)CC(O)=O
  MOE2013           2D

 30 31  0  0  1  0  0  0  0  0999 V2000
    0.0000    0.0000    0.0000 O   0  0  0  0  0  0  0  0  0  0  0  0
   -0.0120   -1.5000    0.0000 C   0  0  0  0  0  0  0  0  0  0  0  0
   -1.3160   -2.2400    0.0000 O   0  0  0  0  0  0  0  0  0  0  0  0
    1.2820   -2.2600    0.0000 C   0  0  2  0  0  0  0  0  0  0  0  0
    1.2700   -3.7600    0.0000 C   0  0  0  0  0  0  0  0  0  0  0  0
    2.5630   -4.5200    0.0000 C   0  0  0  0  0  0  0  0  0  0  0  0
    2.5860   -1.5200    0.0000 C   0  0  0  0  0  0  0  0  0  0  0  0
   -1.2930    0.7600    0.0000 C   0  0  2  0  0  0  0  0  0  0  0  0
   -1.2820    2.2600    0.0000 C   0  0  1  0  0  0  0  0  0  0  0  0
   -2.5750    3.0200    0.0000 C   0  0  0  0  0  0  0  0  0  0  0  0
   -3.8800    2.2800    0.0000 C   0  0  0  0  0  0  0  0  0  0  0  0
   -3.8910    0.7800    0.0000 C   0  0  1  0  0  0  0  0  0  0  0  0
   -5.1960    0.0400    0.0000 O   0  0  0  0  0  0  0  0  0  0  0  0
   -2.5980    0.0200    0.0000 C   0  0  0  0  0  0  0  0  0  0  0  0
   -2.5630    4.5200    0.0000 C   0  0  0  0  0  0  0  0  0  0  0  0
   -1.2590    5.2600    0.0000 C   0  0  0  0  0  0  0  0  0  0  0  0
    0.0350    4.5000    0.0000 C   0  0  2  0  0  0  0  0  0  0  0  0
    1.3390    5.2400    0.0000 C   0  0  0  0  0  0  0  0  0  0  0  0
    0.0230    3.0000    0.0000 C   0  0  2  0  0  0  0  0  0  0  0  0
    1.3160    2.2400    0.0000 C   0  0  0  0  0  0  0  0  0  0  0  0
    2.6210    2.9800    0.0000 C   0  0  0  0  0  0  0  0  0  0  0  0
    3.9140    2.2200    0.0000 C   0  0  1  0  0  0  0  0  0  0  0  0
    3.9030    0.7200    0.0000 O   0  0  0  0  0  0  0  0  0  0  0  0
    5.2190    2.9600    0.0000 C   0  0  0  0  0  0  0  0  0  0  0  0
    6.5120    2.2000    0.0000 C   0  0  1  0  0  0  0  0  0  0  0  0
    6.5010    0.7000    0.0000 O   0  0  0  0  0  0  0  0  0  0  0  0
    7.8170    2.9400    0.0000 C   0  0  0  0  0  0  0  0  0  0  0  0
    9.1100    2.1800    0.0000 C   0  0  0  0  0  0  0  0  0  0  0  0
    9.0990    0.6800    0.0000 O   0  0  0  0  0  0  0  0  0  0  0  0
   10.4150    2.9200    0.0000 O   0  0  0  0  0  0  0  0  0  0  0  0
  1  2  1  0  0  0  0
  2  3  2  0  0  0  0
  2  4  1  0  0  0  0
  4  5  1  0  0  0  0
  4  7  1  1  0  0  0
  5  6  1  0  0  0  0
  8  1  1  1  0  0  0
  8  9  1  0  0  0  0
  8 14  1  0  0  0  0
  9 10  1  1  0  0  0
  9 19  1  0  0  0  0
 10 11  2  0  0  0  0
 10 15  1  0  0  0  0
 11 12  1  0  0  0  0
 12 13  1  6  0  0  0
 12 14  1  0  0  0  0
 15 16  2  0  0  0  0
 16 17  1  0  0  0  0
 17 18  1  6  0  0  0
 17 19  1  0  0  0  0
 19 20  1  6  0  0  0
 20 21  1  0  0  0  0
 21 22  1  0  0  0  0
 22 23  1  6  0  0  0
 22 24  1  0  0  0  0
 24 25  1  0  0  0  0
 25 26  1  6  0  0  0
 25 27  1  0  0  0  0
 27 28  1  0  0  0  0
 28 29  1  0  0  0  0
 28 30  2  0  0  0  0
M  END
>  <Index>
1698

>  <ID>
HT1725

>  <class>
1

>  <apol>
70.098549

>  <ast_fraglike>
0

>  <ast_fraglike_ext>
0

>  <ast_violation>
3

>  <ast_violation_ext>
5

>  <a_acc>
6

>  <a_acid>
0

>  <a_aro>
0

>  <a_base>
0

>  <a_count>
66

>  <a_don>
5

>  <a_donacc>
11

>  <a_heavy>
30

>  <a_hyd>
21

>  <a_IC>
89.119301

>  <a_ICM>
1.3502924

>  <a_nB>
0

>  <a_nBr>
0

>  <a_nC>
23

>  <a_nCl>
0

>  <a_nF>
0

>  <a_nH>
36

>  <a_nI>
0

>  <a_nN>
0

>  <a_nO>
7

>  <a_nP>
0

>  <a_nS>
0

>  <balabanJ>
2.0272918

>  <BCUT_PEOE_0>
-2.8123527

>  <BCUT_PEOE_1>
-0.5044778

>  <BCUT_PEOE_2>
0.57045209

>  <BCUT_PEOE_3>
2.7971015

>  <BCUT_SLOGP_0>
-2.7886941

>  <BCUT_SLOGP_1>
-0.49274439

>  <BCUT_SLOGP_2>
0.50136971

>  <BCUT_SLOGP_3>
2.8411405

>  <BCUT_SMR_0>
-2.5655258

>  <BCUT_SMR_1>
-0.37418911

>  <BCUT_SMR_2>
0.64911854

>  <BCUT_SMR_3>
3.0439956

>  <bpol>
43.18745

>  <b_1rotN>
10

>  <b_1rotR>
0.32258064

>  <b_ar>
0

>  <b_count>
67

>  <b_double>
4

>  <b_heavy>
31

>  <b_max1len>
8

>  <b_rotN>
11

>  <b_rotR>
0.3548387

>  <b_single>
63

>  <b_triple>
0

>  <chi0>
22.421921

>  <chi0v>
18.107094

>  <chi0v_C>
15.093493

>  <chi0_C>
15.714814

>  <chi1>
14.1163

>  <chi1v>
10.982326

>  <chi1v_C>
9.1360474

>  <chi1_C>
9.8357019

>  <chiral>
8

>  <chiral_u>
0

>  <density>
0.72783977

>  <diameter>
15

>  <FCharge>
0

>  <GCUT_PEOE_0>
-0.80119032

>  <GCUT_PEOE_1>
-0.37126336

>  <GCUT_PEOE_2>
0.077567019

>  <GCUT_PEOE_3>
3.0681729

>  <GCUT_SLOGP_0>
-0.87859064

>  <GCUT_SLOGP_1>
-0.32501093

>  <GCUT_SLOGP_2>
0.047571465

>  <GCUT_SLOGP_3>
3.1146152

>  <GCUT_SMR_0>
-0.53408223

>  <GCUT_SMR_1>
-0.22453214

>  <GCUT_SMR_2>
0.15219538

>  <GCUT_SMR_3>
3.2935486

>  <Kier1>
26.253902

>  <Kier2>
12.296376

>  <Kier3>
7.8284025

>  <KierA1>
23.359274

>  <KierA2>
10.894678

>  <KierA3>
6.915381

>  <KierFlex>
8.4830589

>  <lip_acc>
7

>  <lip_don>
4

>  <lip_druglike>
1

>  <lip_violation>
0

>  <logP(o/w)>
2.427

>  <logS>
-2.8643601

>  <mr>
11.272814

>  <mutagenic>
0

>  <nmol>
1

>  <opr_brigid>
11

>  <opr_leadlike>
1

>  <opr_nring>
2

>  <opr_nrot>
10

>  <opr_violation>
0

>  <PC+>
0

>  <PC->
0

>  <PEOE_PC+>
2.9229133

>  <PEOE_PC->
-2.9229133

>  <PEOE_RPC+>
0.090755977

>  <PEOE_RPC->
0.13401021

>  <PEOE_VSA+0>
115.33596

>  <PEOE_VSA+1>
58.17873

>  <PEOE_VSA+2>
0

>  <PEOE_VSA+3>
0

>  <PEOE_VSA+4>
41.296692

>  <PEOE_VSA+5>
29.416998

>  <PEOE_VSA+6>
0

>  <PEOE_VSA-0>
37.013794

>  <PEOE_VSA-1>
93.007744

>  <PEOE_VSA-2>
0

>  <PEOE_VSA-3>
0

>  <PEOE_VSA-4>
0

>  <PEOE_VSA-5>
27.133842

>  <PEOE_VSA-6>
33.573917

>  <PEOE_VSA_FHYD>
0.69785231

>  <PEOE_VSA_FNEG>
0.43850082

>  <PEOE_VSA_FPNEG>
0.13957165

>  <PEOE_VSA_FPOL>
0.30214766

>  <PEOE_VSA_FPOS>
0.56149918

>  <PEOE_VSA_FPPOS>
0.16257602

>  <PEOE_VSA_HYD>
303.53622

>  <PEOE_VSA_NEG>
190.72929

>  <PEOE_VSA_PNEG>
60.70776

>  <PEOE_VSA_POL>
131.42145

>  <PEOE_VSA_POS>
244.22838

>  <PEOE_VSA_PPOS>
70.713692

>  <petitjean>
0.46666667

>  <petitjeanSC>
0.875

>  <Q_PC+>
0

>  <Q_PC->
0

>  <Q_RPC+>
0

>  <Q_RPC->
0

>  <Q_VSA_FHYD>
1

>  <Q_VSA_FNEG>
0

>  <Q_VSA_FPNEG>
0

>  <Q_VSA_FPOL>
0

>  <Q_VSA_FPOS>
1

>  <Q_VSA_FPPOS>
0

>  <Q_VSA_HYD>
434.95767

>  <Q_VSA_NEG>
0

>  <Q_VSA_PNEG>
0

>  <Q_VSA_POL>
0

>  <Q_VSA_POS>
434.95767

>  <Q_VSA_PPOS>
0

>  <radius>
8

>  <reactive>
0

>  <rings>
2

>  <RPC+>
0

>  <RPC->
0

>  <rsynth>
0.46666667

>  <SlogP>
2.4403999

>  <SlogP_VSA0>
76.155678

>  <SlogP_VSA1>
15.490929

>  <SlogP_VSA2>
84.598915

>  <SlogP_VSA3>
25.385227

>  <SlogP_VSA4>
17.643185

>  <SlogP_VSA5>
3.185575

>  <SlogP_VSA6>
0

>  <SlogP_VSA7>
52.929554

>  <SlogP_VSA8>
113.21043

>  <SlogP_VSA9>
99.978043

>  <SMR>
11.14432

>  <SMR_VSA0>
58.724319

>  <SMR_VSA1>
76.155678

>  <SMR_VSA2>
43.028412

>  <SMR_VSA3>
29.060171

>  <SMR_VSA4>
0

>  <SMR_VSA5>
166.13998

>  <SMR_VSA6>
15.490929

>  <SMR_VSA7>
99.978043

>  <TPSA>
124.29

>  <VAdjEq>
0.36176345

>  <VAdjMa>
5.9541965

>  <VDistEq>
3.6544888

>  <VDistMa>
9.53158

>  <vdw_area>
434.95767

>  <vdw_vol>
583.27948

>  <vsa_acc>
13.566921

>  <vsa_acid>
0

>  <vsa_base>
0

>  <vsa_don>
0

>  <vsa_hyd>
275.37857

>  <vsa_other>
31.920755

>  <vsa_pol>
81.401527

>  <Weight>
424.534

>  <weinerPath>
2600

>  <weinerPol>
46

>  <zagreb>
148

$$$$