S(OCCCCOS(=O)(=O)C)(=O)(=O)C
  MOE2013           2D

 14 13  0  0  0  0  0  0  0  0999 V2000
    0.0000    0.0000    0.0000 S   0  0  0  0  0  0  0  0  0  0  0  0
    1.2960    0.7550    0.0000 O   0  0  0  0  0  0  0  0  0  0  0  0
    2.5980    0.0090    0.0000 C   0  0  0  0  0  0  0  0  0  0  0  0
    3.8940    0.7640    0.0000 C   0  0  0  0  0  0  0  0  0  0  0  0
    5.1960    0.0180    0.0000 C   0  0  0  0  0  0  0  0  0  0  0  0
    6.4930    0.7730    0.0000 C   0  0  0  0  0  0  0  0  0  0  0  0
    7.7940    0.0270    0.0000 O   0  0  0  0  0  0  0  0  0  0  0  0
    9.0910    0.7820    0.0000 S   0  0  0  0  0  0  0  0  0  0  0  0
    8.3360    2.0780    0.0000 O   0  0  0  0  0  0  0  0  0  0  0  0
    9.8450   -0.5140    0.0000 O   0  0  0  0  0  0  0  0  0  0  0  0
   10.3870    1.5360    0.0000 C   0  0  0  0  0  0  0  0  0  0  0  0
    0.7550   -1.2960    0.0000 O   0  0  0  0  0  0  0  0  0  0  0  0
   -0.7550    1.2960    0.0000 O   0  0  0  0  0  0  0  0  0  0  0  0
   -1.2960   -0.7550    0.0000 C   0  0  0  0  0  0  0  0  0  0  0  0
  1  2  1  0  0  0  0
  1 12  2  0  0  0  0
  1 13  2  0  0  0  0
  1 14  1  0  0  0  0
  2  3  1  0  0  0  0
  3  4  1  0  0  0  0
  4  5  1  0  0  0  0
  5  6  1  0  0  0  0
  6  7  1  0  0  0  0
  7  8  1  0  0  0  0
  8  9  2  0  0  0  0
  8 10  2  0  0  0  0
  8 11  1  0  0  0  0
M  END
>  <Index>
1456

>  <ID>
HT0332

>  <class>
1

>  <apol>
30.507101

>  <ast_fraglike>
0

>  <ast_fraglike_ext>
0

>  <ast_violation>
1

>  <ast_violation_ext>
3

>  <a_acc>
6

>  <a_acid>
0

>  <a_aro>
0

>  <a_base>
0

>  <a_count>
28

>  <a_don>
0

>  <a_donacc>
6

>  <a_heavy>
14

>  <a_hyd>
6

>  <a_IC>
48.283421

>  <a_ICM>
1.7244078

>  <a_nB>
0

>  <a_nBr>
0

>  <a_nC>
6

>  <a_nCl>
0

>  <a_nF>
0

>  <a_nH>
14

>  <a_nI>
0

>  <a_nN>
0

>  <a_nO>
6

>  <a_nP>
0

>  <a_nS>
2

>  <balabanJ>
3.2328339

>  <BCUT_PEOE_0>
-2.621182

>  <BCUT_PEOE_1>
-0.22590767

>  <BCUT_PEOE_2>
0.13887645

>  <BCUT_PEOE_3>
2.5677531

>  <BCUT_SLOGP_0>
-2.6020296

>  <BCUT_SLOGP_1>
-0.3339

>  <BCUT_SLOGP_2>
0.123

>  <BCUT_SLOGP_3>
2.6149197

>  <BCUT_SMR_0>
-2.3532281

>  <BCUT_SMR_1>
0.077739999

>  <BCUT_SMR_2>
0.1057

>  <BCUT_SMR_3>
2.8583145

>  <bpol>
32.088898

>  <b_1rotN>
7

>  <b_1rotR>
0.53846157

>  <b_ar>
0

>  <b_count>
27

>  <b_double>
0

>  <b_heavy>
13

>  <b_max1len>
11

>  <b_rotN>
7

>  <b_rotR>
0.53846157

>  <b_single>
27

>  <b_triple>
0

>  <chi0>
11.24264

>  <chi0v>
9.7274065

>  <chi0v_C>
4.8284273

>  <chi0_C>
4.8284273

>  <chi1>
6.2071066

>  <chi1v>
7.5268402

>  <chi1v_C>
1.5

>  <chi1_C>
1.5

>  <chiral>
0

>  <chiral_u>
0

>  <density>
0.95221043

>  <diameter>
9

>  <FCharge>
0

>  <GCUT_PEOE_0>
-0.7981534

>  <GCUT_PEOE_1>
-0.38590765

>  <GCUT_PEOE_2>
-0.021123543

>  <GCUT_PEOE_3>
2.2622318

>  <GCUT_SLOGP_0>
-0.83809286

>  <GCUT_SLOGP_1>
-0.37654582

>  <GCUT_SLOGP_2>
-0.037

>  <GCUT_SLOGP_3>
2.2783892

>  <GCUT_SMR_0>
-0.52590555

>  <GCUT_SMR_1>
-0.10027518

>  <GCUT_SMR_2>
-0.054299999

>  <GCUT_SMR_3>
2.521611

>  <Kier1>
14

>  <Kier2>
5.7777777

>  <Kier3>
13.090909

>  <KierA1>
17.39645

>  <KierA2>
7.3024688

>  <KierA3>
16.76033

>  <KierFlex>
9.0740738

>  <lip_acc>
6

>  <lip_don>
0

>  <lip_druglike>
1

>  <lip_violation>
0

>  <logP(o/w)>
-0.222

>  <logS>
-0.72553998

>  <mr>
5.1362314

>  <mutagenic>
0

>  <nmol>
1

>  <opr_brigid>
0

>  <opr_leadlike>
1

>  <opr_nring>
0

>  <opr_nrot>
7

>  <opr_violation>
0

>  <PC+>
0

>  <PC->
0

>  <PEOE_PC+>
1.5899436

>  <PEOE_PC->
-1.5899436

>  <PEOE_RPC+>
0.12535271

>  <PEOE_RPC->
0.18404992

>  <PEOE_VSA+0>
64.025673

>  <PEOE_VSA+1>
23.025566

>  <PEOE_VSA+2>
25.592316

>  <PEOE_VSA+3>
41.447479

>  <PEOE_VSA+4>
0

>  <PEOE_VSA+5>
0

>  <PEOE_VSA+6>
0

>  <PEOE_VSA-0>
0

>  <PEOE_VSA-1>
17.402626

>  <PEOE_VSA-2>
0

>  <PEOE_VSA-3>
0

>  <PEOE_VSA-4>
64.033043

>  <PEOE_VSA-5>
9.8901939

>  <PEOE_VSA-6>
0

>  <PEOE_VSA_FHYD>
0.69878507

>  <PEOE_VSA_FNEG>
0.37212542

>  <PEOE_VSA_FPNEG>
0.30121496

>  <PEOE_VSA_FPOL>
0.30121496

>  <PEOE_VSA_FPOS>
0.62787461

>  <PEOE_VSA_FPPOS>
0

>  <PEOE_VSA_HYD>
171.49367

>  <PEOE_VSA_NEG>
91.325867

>  <PEOE_VSA_PNEG>
73.923241

>  <PEOE_VSA_POL>
73.923241

>  <PEOE_VSA_POS>
154.09103

>  <PEOE_VSA_PPOS>
0

>  <petitjean>
0.44444445

>  <petitjeanSC>
0.80000001

>  <Q_PC+>
0

>  <Q_PC->
0

>  <Q_RPC+>
0

>  <Q_RPC->
0

>  <Q_VSA_FHYD>
1

>  <Q_VSA_FNEG>
0

>  <Q_VSA_FPNEG>
0

>  <Q_VSA_FPOL>
0

>  <Q_VSA_FPOS>
1

>  <Q_VSA_FPPOS>
0

>  <Q_VSA_HYD>
245.4169

>  <Q_VSA_NEG>
0

>  <Q_VSA_PNEG>
0

>  <Q_VSA_POL>
0

>  <Q_VSA_POS>
245.4169

>  <Q_VSA_PPOS>
0

>  <radius>
5

>  <reactive>
1

>  <rings>
0

>  <RPC+>
0

>  <RPC->
0

>  <rsynth>
1

>  <SlogP>
-0.28099999

>  <SlogP_VSA0>
0

>  <SlogP_VSA1>
96.343376

>  <SlogP_VSA2>
34.257126

>  <SlogP_VSA3>
41.852516

>  <SlogP_VSA4>
0

>  <SlogP_VSA5>
63.382347

>  <SlogP_VSA6>
0

>  <SlogP_VSA7>
0

>  <SlogP_VSA8>
37.736813

>  <SlogP_VSA9>
0

>  <SMR>
5.0825601

>  <SMR_VSA0>
113.4342

>  <SMR_VSA1>
0

>  <SMR_VSA2>
0

>  <SMR_VSA3>
0

>  <SMR_VSA4>
0

>  <SMR_VSA5>
37.736813

>  <SMR_VSA6>
41.852516

>  <SMR_VSA7>
80.548645

>  <TPSA>
86.739998

>  <VAdjEq>
0.56466961

>  <VAdjMa>
4.7004399

>  <VDistEq>
3.0939782

>  <VDistMa>
7.2387595

>  <vdw_area>
245.4169

>  <vdw_vol>
258.66553

>  <vsa_acc>
73.923241

>  <vsa_acid>
0

>  <vsa_base>
0

>  <vsa_don>
0

>  <vsa_hyd>
138.50296

>  <vsa_other>
23.025566

>  <vsa_pol>
73.923241

>  <Weight>
246.304

>  <weinerPath>
393

>  <weinerPol>
11

>  <zagreb>
62

$$$$