S1[C@H]2N([C@@H](C(O)=O)C1(C)C)C(=O)[C@H]2NC(=O)[C@H](N)c1ccc(O)cc1
  MOE2013           2D

 25 27  0  0  1  0  0  0  0  0999 V2000
    0.0000    0.0000    0.0000 S   0  0  0  0  0  0  0  0  0  0  0  0
    1.3140    0.7230    0.0000 C   0  0  1  0  0  0  0  0  0  0  0  0
    1.0330    2.1960    0.0000 N   0  0  0  0  0  0  0  0  0  0  0  0
   -0.4550    2.3840    0.0000 C   0  0  1  0  0  0  0  0  0  0  0  0
   -1.1780    3.6980    0.0000 C   0  0  0  0  0  0  0  0  0  0  0  0
   -2.6780    3.7290    0.0000 O   0  0  0  0  0  0  0  0  0  0  0  0
   -0.4020    4.9810    0.0000 O   0  0  0  0  0  0  0  0  0  0  0  0
   -1.0940    1.0270    0.0000 C   0  0  0  0  0  0  0  0  0  0  0  0
   -2.2030    0.0170    0.0000 C   0  0  0  0  0  0  0  0  0  0  0  0
   -2.4970    1.5560    0.0000 C   0  0  0  0  0  0  0  0  0  0  0  0
    2.5060    2.4780    0.0000 C   0  0  0  0  0  0  0  0  0  0  0  0
    3.3490    3.7190    0.0000 O   0  0  0  0  0  0  0  0  0  0  0  0
    2.7880    1.0040    0.0000 C   0  0  1  0  0  0  0  0  0  0  0  0
    4.0280    0.1620    0.0000 N   0  0  0  0  0  0  0  0  0  0  0  0
    5.3790    0.8150    0.0000 C   0  0  0  0  0  0  0  0  0  0  0  0
    5.4880    2.3110    0.0000 O   0  0  0  0  0  0  0  0  0  0  0  0
    6.6200   -0.0280    0.0000 C   0  0  2  0  0  0  0  0  0  0  0  0
    6.5100   -1.5240    0.0000 N   0  0  0  0  0  0  0  0  0  0  0  0
    7.9700    0.6250    0.0000 C   0  0  0  0  0  0  0  0  0  0  0  0
    9.2110   -0.2180    0.0000 C   0  0  0  0  0  0  0  0  0  0  0  0
   10.5610    0.4360    0.0000 C   0  0  0  0  0  0  0  0  0  0  0  0
   10.6710    1.9320    0.0000 C   0  0  0  0  0  0  0  0  0  0  0  0
   12.0210    2.5850    0.0000 O   0  0  0  0  0  0  0  0  0  0  0  0
    9.4300    2.7740    0.0000 C   0  0  0  0  0  0  0  0  0  0  0  0
    8.0790    2.1210    0.0000 C   0  0  0  0  0  0  0  0  0  0  0  0
  1  8  1  0  0  0  0
  2  1  1  1  0  0  0
  2  3  1  0  0  0  0
  2 13  1  0  0  0  0
  3  4  1  0  0  0  0
  3 11  1  0  0  0  0
  4  5  1  6  0  0  0
  4  8  1  0  0  0  0
  5  6  1  0  0  0  0
  5  7  2  0  0  0  0
  8  9  1  0  0  0  0
  8 10  1  0  0  0  0
 11 12  2  0  0  0  0
 11 13  1  0  0  0  0
 13 14  1  1  0  0  0
 14 15  1  0  0  0  0
 15 16  2  0  0  0  0
 15 17  1  0  0  0  0
 17 18  1  1  0  0  0
 17 19  1  0  0  0  0
 19 20  1  0  0  0  0
 19 25  2  0  0  0  0
 20 21  2  0  0  0  0
 21 22  1  0  0  0  0
 22 23  1  0  0  0  0
 22 24  2  0  0  0  0
 24 25  1  0  0  0  0
M  END
>  <Index>
1433

>  <ID>
HT0150

>  <class>
1

>  <apol>
51.039066

>  <ast_fraglike>
0

>  <ast_fraglike_ext>
0

>  <ast_violation>
3

>  <ast_violation_ext>
5

>  <a_acc>
6

>  <a_acid>
0

>  <a_aro>
6

>  <a_base>
0

>  <a_count>
44

>  <a_don>
5

>  <a_donacc>
11

>  <a_heavy>
25

>  <a_hyd>
14

>  <a_IC>
79.139839

>  <a_ICM>
1.7986327

>  <a_nB>
0

>  <a_nBr>
0

>  <a_nC>
16

>  <a_nCl>
0

>  <a_nF>
0

>  <a_nH>
19

>  <a_nI>
0

>  <a_nN>
3

>  <a_nO>
5

>  <a_nP>
0

>  <a_nS>
1

>  <balabanJ>
1.5916789

>  <BCUT_PEOE_0>
-2.6470633

>  <BCUT_PEOE_1>
-0.59024209

>  <BCUT_PEOE_2>
0.5913434

>  <BCUT_PEOE_3>
2.8502831

>  <BCUT_SLOGP_0>
-2.9028697

>  <BCUT_SLOGP_1>
-0.53223735

>  <BCUT_SLOGP_2>
0.58717239

>  <BCUT_SLOGP_3>
2.7545812

>  <BCUT_SMR_0>
-2.3916981

>  <BCUT_SMR_1>
-0.40178555

>  <BCUT_SMR_2>
0.77776319

>  <BCUT_SMR_3>
3.1312523

>  <bpol>
27.904934

>  <b_1rotN>
4

>  <b_1rotR>
0.14814815

>  <b_ar>
6

>  <b_count>
46

>  <b_double>
3

>  <b_heavy>
27

>  <b_max1len>
4

>  <b_rotN>
5

>  <b_rotR>
0.18518518

>  <b_single>
37

>  <b_triple>
0

>  <chi0>
18.516144

>  <chi0v>
14.487283

>  <chi0v_C>
9.6188021

>  <chi0_C>
10.52458

>  <chi1>
11.630734

>  <chi1v>
8.5891542

>  <chi1v_C>
4.5980763

>  <chi1_C>
5.588335

>  <chiral>
4

>  <chiral_u>
0

>  <density>
0.83580607

>  <diameter>
13

>  <FCharge>
0

>  <GCUT_PEOE_0>
-0.83787316

>  <GCUT_PEOE_1>
-0.41189206

>  <GCUT_PEOE_2>
0.077028014

>  <GCUT_PEOE_3>
2.7184322

>  <GCUT_SLOGP_0>
-1.3374593

>  <GCUT_SLOGP_1>
-0.38887709

>  <GCUT_SLOGP_2>
0.12106962

>  <GCUT_SLOGP_3>
2.6746969

>  <GCUT_SMR_0>
-0.53670621

>  <GCUT_SMR_1>
-0.23358952

>  <GCUT_SMR_2>
0.20857169

>  <GCUT_SMR_3>
2.9833126

>  <Kier1>
19.753086

>  <Kier2>
7.197279

>  <Kier3>
3.575254

>  <KierA1>
16.643322

>  <KierA2>
6.0184608

>  <KierA3>
2.9727514

>  <KierFlex>
4.0066872

>  <lip_acc>
8

>  <lip_don>
5

>  <lip_druglike>
1

>  <lip_violation>
0

>  <logP(o/w)>
0.43399999

>  <logS>
-2.74755

>  <mr>
9.1197863

>  <mutagenic>
0

>  <nmol>
1

>  <opr_brigid>
14

>  <opr_leadlike>
1

>  <opr_nring>
3

>  <opr_nrot>
4

>  <opr_violation>
0

>  <PC+>
0

>  <PC->
0

>  <PEOE_PC+>
2.8777559

>  <PEOE_PC->
-2.8777559

>  <PEOE_RPC+>
0.098610349

>  <PEOE_RPC->
0.12503922

>  <PEOE_VSA+0>
25.592316

>  <PEOE_VSA+1>
42.581608

>  <PEOE_VSA+2>
31.79793

>  <PEOE_VSA+3>
8.6190128

>  <PEOE_VSA+4>
33.597878

>  <PEOE_VSA+5>
27.65803

>  <PEOE_VSA+6>
0

>  <PEOE_VSA-0>
64.213699

>  <PEOE_VSA-1>
24.509808

>  <PEOE_VSA-2>
19.760618

>  <PEOE_VSA-3>
0

>  <PEOE_VSA-4>
0

>  <PEOE_VSA-5>
40.700764

>  <PEOE_VSA-6>
22.323092

>  <PEOE_VSA_FHYD>
0.63592201

>  <PEOE_VSA_FNEG>
0.50243324

>  <PEOE_VSA_FPNEG>
0.18462861

>  <PEOE_VSA_FPOL>
0.36407802

>  <PEOE_VSA_FPOS>
0.49756673

>  <PEOE_VSA_FPPOS>
0.17944941

>  <PEOE_VSA_HYD>
217.075

>  <PEOE_VSA_NEG>
171.50798

>  <PEOE_VSA_PNEG>
63.023853

>  <PEOE_VSA_POL>
124.27976

>  <PEOE_VSA_POS>
169.84677

>  <PEOE_VSA_PPOS>
61.255905

>  <petitjean>
0.46153846

>  <petitjeanSC>
0.85714287

>  <Q_PC+>
0

>  <Q_PC->
0

>  <Q_RPC+>
0

>  <Q_RPC->
0

>  <Q_VSA_FHYD>
1

>  <Q_VSA_FNEG>
0

>  <Q_VSA_FPNEG>
0

>  <Q_VSA_FPOL>
0

>  <Q_VSA_FPOS>
1

>  <Q_VSA_FPPOS>
0

>  <Q_VSA_HYD>
341.35477

>  <Q_VSA_NEG>
0

>  <Q_VSA_PNEG>
0

>  <Q_VSA_POL>
0

>  <Q_VSA_POS>
341.35477

>  <Q_VSA_PPOS>
0

>  <radius>
7

>  <reactive>
0

>  <rings>
3

>  <RPC+>
0

>  <RPC->
0

>  <rsynth>
1

>  <SlogP>
0.1192

>  <SlogP_VSA0>
76.293167

>  <SlogP_VSA1>
21.387344

>  <SlogP_VSA2>
81.897713

>  <SlogP_VSA3>
25.385227

>  <SlogP_VSA4>
3.185575

>  <SlogP_VSA5>
0

>  <SlogP_VSA6>
0

>  <SlogP_VSA7>
70.572739

>  <SlogP_VSA8>
3.9819686

>  <SlogP_VSA9>
104.115

>  <SMR>
9.0805702

>  <SMR_VSA0>
71.586647

>  <SMR_VSA1>
28.509541

>  <SMR_VSA2>
43.395977

>  <SMR_VSA3>
22.722036

>  <SMR_VSA4>
32.897186

>  <SMR_VSA5>
70.572739

>  <SMR_VSA6>
18.263031

>  <SMR_VSA7>
98.871574

>  <TPSA>
132.96001

>  <VAdjEq>
0.42433795

>  <VAdjMa>
5.7548876

>  <VDistEq>
3.4556727

>  <VDistMa>
8.9810524

>  <vdw_area>
341.35477

>  <vdw_vol>
437.1947

>  <vsa_acc>
27.133842

>  <vsa_acid>
0

>  <vsa_base>
0

>  <vsa_don>
5.6825762

>  <vsa_hyd>
181.25282

>  <vsa_other>
40.607563

>  <vsa_pol>
91.259666

>  <Weight>
365.41

>  <weinerPath>
1551

>  <weinerPol>
41

>  <zagreb>
138

$$$$