S1c2c(N(c3c1cccc3)CC1C3CCN(C1)CC3)cccc2
  MOE2013           2D

 23 27  0  0  1  0  0  0  0  0999 V2000
    0.0000    0.0000    0.0000 S   0  0  0  0  0  0  0  0  0  0  0  0
    0.7570   -1.2950    0.0000 C   0  0  0  0  0  0  0  0  0  0  0  0
    0.0140   -2.5980    0.0000 C   0  0  0  0  0  0  0  0  0  0  0  0
   -1.4860   -2.6060    0.0000 N   0  0  0  0  0  0  0  0  0  0  0  0
   -2.2430   -1.3110    0.0000 C   0  0  0  0  0  0  0  0  0  0  0  0
   -1.5000   -0.0080    0.0000 C   0  0  0  0  0  0  0  0  0  0  0  0
   -2.2570    1.2870    0.0000 C   0  0  0  0  0  0  0  0  0  0  0  0
   -3.7570    1.2790    0.0000 C   0  0  0  0  0  0  0  0  0  0  0  0
   -4.5000   -0.0240    0.0000 C   0  0  0  0  0  0  0  0  0  0  0  0
   -3.7430   -1.3190    0.0000 C   0  0  0  0  0  0  0  0  0  0  0  0
   -2.2290   -3.9090    0.0000 C   0  0  0  0  0  0  0  0  0  0  0  0
   -3.7290   -3.9170    0.0000 C   0  0  3  0  0  0  0  0  0  0  0  0
   -5.0210   -4.9140    0.0000 C   0  0  0  0  0  0  0  0  0  0  0  0
   -5.1300   -6.3810    0.0000 C   0  0  0  0  0  0  0  0  0  0  0  0
   -6.1890   -5.4840    0.0000 C   0  0  0  0  0  0  0  0  0  0  0  0
   -6.0640   -4.0420    0.0000 N   0  0  0  0  0  0  0  0  0  0  0  0
   -4.8160   -3.0970    0.0000 C   0  0  0  0  0  0  0  0  0  0  0  0
   -7.4960   -3.3270    0.0000 C   0  0  0  0  0  0  0  0  0  0  0  0
   -6.7630   -4.2340    0.0000 C   0  0  0  0  0  0  0  0  0  0  0  0
    0.7710   -3.8930    0.0000 C   0  0  0  0  0  0  0  0  0  0  0  0
    2.2710   -3.8850    0.0000 C   0  0  0  0  0  0  0  0  0  0  0  0
    3.0140   -2.5820    0.0000 C   0  0  0  0  0  0  0  0  0  0  0  0
    2.2570   -1.2870    0.0000 C   0  0  0  0  0  0  0  0  0  0  0  0
  1  2  1  0  0  0  0
  1  6  1  0  0  0  0
  2  3  1  0  0  0  0
  2 23  2  0  0  0  0
  3  4  1  0  0  0  0
  3 20  2  0  0  0  0
  4  5  1  0  0  0  0
  4 11  1  0  0  0  0
  5  6  1  0  0  0  0
  5 10  2  0  0  0  0
  6  7  2  0  0  0  0
  7  8  1  0  0  0  0
  8  9  2  0  0  0  0
  9 10  1  0  0  0  0
 11 12  1  0  0  0  0
 12 13  1  0  0  0  0
 12 17  1  0  0  0  0
 13 14  1  0  0  0  0
 13 19  1  0  0  0  0
 14 15  1  0  0  0  0
 15 16  1  0  0  0  0
 16 17  1  0  0  0  0
 16 18  1  0  0  0  0
 18 19  1  0  0  0  0
 20 21  1  0  0  0  0
 21 22  2  0  0  0  0
 22 23  1  0  0  0  0
M  END
>  <Index>
1636

>  <ID>
HT1313

>  <class>
1

>  <apol>
54.969444

>  <ast_fraglike>
0

>  <ast_fraglike_ext>
0

>  <ast_violation>
2

>  <ast_violation_ext>
3

>  <a_acc>
1

>  <a_acid>
0

>  <a_aro>
12

>  <a_base>
0

>  <a_count>
45

>  <a_don>
0

>  <a_donacc>
1

>  <a_heavy>
23

>  <a_hyd>
21

>  <a_IC>
60.587334

>  <a_ICM>
1.3463851

>  <a_nB>
0

>  <a_nBr>
0

>  <a_nC>
20

>  <a_nCl>
0

>  <a_nF>
0

>  <a_nH>
22

>  <a_nI>
0

>  <a_nN>
2

>  <a_nO>
0

>  <a_nP>
0

>  <a_nS>
1

>  <balabanJ>
1.3609023

>  <BCUT_PEOE_0>
-2.9089227

>  <BCUT_PEOE_1>
-0.58061534

>  <BCUT_PEOE_2>
0.63053554

>  <BCUT_PEOE_3>
2.8352292

>  <BCUT_SLOGP_0>
-2.932296

>  <BCUT_SLOGP_1>
-0.46957743

>  <BCUT_SLOGP_2>
0.73238212

>  <BCUT_SLOGP_3>
2.8416429

>  <BCUT_SMR_0>
-2.6404791

>  <BCUT_SMR_1>
-0.43601561

>  <BCUT_SMR_2>
0.78117543

>  <BCUT_SMR_3>
3.1000662

>  <bpol>
30.290554

>  <b_1rotN>
2

>  <b_1rotR>
0.074074075

>  <b_ar>
12

>  <b_count>
49

>  <b_double>
0

>  <b_heavy>
27

>  <b_max1len>
3

>  <b_rotN>
2

>  <b_rotR>
0.074074075

>  <b_single>
37

>  <b_triple>
0

>  <chi0>
15.225404

>  <chi0v>
14.135316

>  <chi0v_C>
12.016144

>  <chi0_C>
13.363597

>  <chi1>
11.382143

>  <chi1v>
9.5578966

>  <chi1v_C>
6.621027

>  <chi1_C>
8.2659864

>  <chiral>
1

>  <chiral_u>
1

>  <density>
0.70752913

>  <diameter>
9

>  <FCharge>
0

>  <GCUT_PEOE_0>
-0.85803515

>  <GCUT_PEOE_1>
-0.3831535

>  <GCUT_PEOE_2>
0.062100142

>  <GCUT_PEOE_3>
2.890094

>  <GCUT_SLOGP_0>
-0.95439208

>  <GCUT_SLOGP_1>
-0.26984254

>  <GCUT_SLOGP_2>
0.14794856

>  <GCUT_SLOGP_3>
2.9751344

>  <GCUT_SMR_0>
-0.5237847

>  <GCUT_SMR_1>
-0.19126411

>  <GCUT_SMR_2>
0.17508979

>  <GCUT_SMR_3>
3.1622276

>  <Kier1>
15.270233

>  <Kier2>
6.3786983

>  <Kier3>
2.8061225

>  <KierA1>
12.882611

>  <KierA2>
5.3372879

>  <KierA3>
2.3333988

>  <KierFlex>
2.9894869

>  <lip_acc>
2

>  <lip_don>
0

>  <lip_druglike>
1

>  <lip_violation>
0

>  <logP(o/w)>
4.3070002

>  <logS>
-4.4919701

>  <mr>
9.6470871

>  <mutagenic>
0

>  <nmol>
1

>  <opr_brigid>
25

>  <opr_leadlike>
0

>  <opr_nring>
5

>  <opr_nrot>
6

>  <opr_violation>
2

>  <PC+>
0

>  <PC->
0

>  <PEOE_PC+>
1.1705126

>  <PEOE_PC->
-1.1705126

>  <PEOE_RPC+>
0.054135032

>  <PEOE_RPC->
0.25799358

>  <PEOE_VSA+0>
107.86836

>  <PEOE_VSA+1>
34.123089

>  <PEOE_VSA+2>
0

>  <PEOE_VSA+3>
0

>  <PEOE_VSA+4>
0

>  <PEOE_VSA+5>
0

>  <PEOE_VSA+6>
0

>  <PEOE_VSA-0>
92.806892

>  <PEOE_VSA-1>
68.780235

>  <PEOE_VSA-2>
0

>  <PEOE_VSA-3>
0

>  <PEOE_VSA-4>
0

>  <PEOE_VSA-5>
0

>  <PEOE_VSA-6>
0

>  <PEOE_VSA_FHYD>
1

>  <PEOE_VSA_FNEG>
0.53227448

>  <PEOE_VSA_FPNEG>
0

>  <PEOE_VSA_FPOL>
0

>  <PEOE_VSA_FPOS>
0.46772552

>  <PEOE_VSA_FPPOS>
0

>  <PEOE_VSA_HYD>
303.57858

>  <PEOE_VSA_NEG>
161.58713

>  <PEOE_VSA_PNEG>
0

>  <PEOE_VSA_POL>
0

>  <PEOE_VSA_POS>
141.99144

>  <PEOE_VSA_PPOS>
0

>  <petitjean>
0.44444445

>  <petitjeanSC>
0.80000001

>  <Q_PC+>
0

>  <Q_PC->
0

>  <Q_RPC+>
0

>  <Q_RPC->
0

>  <Q_VSA_FHYD>
1

>  <Q_VSA_FNEG>
0

>  <Q_VSA_FPNEG>
0

>  <Q_VSA_FPOL>
0

>  <Q_VSA_FPOS>
1

>  <Q_VSA_FPPOS>
0

>  <Q_VSA_HYD>
303.57858

>  <Q_VSA_NEG>
0

>  <Q_VSA_PNEG>
0

>  <Q_VSA_POL>
0

>  <Q_VSA_POS>
303.57858

>  <Q_VSA_PPOS>
0

>  <radius>
5

>  <reactive>
0

>  <rings>
5

>  <RPC+>
0

>  <RPC->
0

>  <rsynth>
0.60869563

>  <SlogP>
4.6311002

>  <SlogP_VSA0>
3.1243138

>  <SlogP_VSA1>
3.1243138

>  <SlogP_VSA2>
0

>  <SlogP_VSA3>
73.758316

>  <SlogP_VSA4>
8.8215923

>  <SlogP_VSA5>
3.1014678

>  <SlogP_VSA6>
0

>  <SlogP_VSA7>
141.14548

>  <SlogP_VSA8>
37.736813

>  <SlogP_VSA9>
37.733036

>  <SMR>
9.6667995

>  <SMR_VSA0>
0

>  <SMR_VSA1>
3.1243138

>  <SMR_VSA2>
15.047374

>  <SMR_VSA3>
0

>  <SMR_VSA4>
5.513495

>  <SMR_VSA5>
178.88228

>  <SMR_VSA6>
73.758316

>  <SMR_VSA7>
32.21954

>  <TPSA>
6.48

>  <VAdjEq>
0.47555268

>  <VAdjMa>
5.7548876

>  <VDistEq>
3.0305686

>  <VDistMa>
8.7847147

>  <vdw_area>
303.57858

>  <vdw_vol>
455.77768

>  <vsa_acc>
0

>  <vsa_acid>
0

>  <vsa_base>
0

>  <vsa_don>
0

>  <vsa_hyd>
285.22897

>  <vsa_other>
0

>  <vsa_pol>
0

>  <Weight>
322.47598

>  <weinerPath>
1086

>  <weinerPol>
39

>  <zagreb>
132

$$$$