O[C@]1(CC[C@H]2[C@H]3[C@H](CC[C@]12C)[C@@]1([C@H](Cc2[nH]ncc2C1)CC3)C)C
  MOE2013           2D

 24 28  0  0  1  0  0  0  0  0999 V2000
    0.0000    0.0000    0.0000 O   0  0  0  0  0  0  0  0  0  0  0  0
   -0.2940    1.4710    0.0000 C   0  0  1  0  0  0  0  0  0  0  0  0
    0.0280    2.9360    0.0000 C   0  0  0  0  0  0  0  0  0  0  0  0
   -1.2650    3.6950    0.0000 C   0  0  0  0  0  0  0  0  0  0  0  0
   -2.3870    2.7000    0.0000 C   0  0  1  0  0  0  0  0  0  0  0  0
   -3.8780    2.8680    0.0000 C   0  0  1  0  0  0  0  0  0  0  0  0
   -4.7680    1.6610    0.0000 C   0  0  2  0  0  0  0  0  0  0  0  0
   -4.1690    0.2860    0.0000 C   0  0  0  0  0  0  0  0  0  0  0  0
   -2.6780    0.1180    0.0000 C   0  0  0  0  0  0  0  0  0  0  0  0
   -1.7870    1.3250    0.0000 C   0  0  2  0  0  0  0  0  0  0  0  0
   -1.0930   -0.0040    0.0000 C   0  0  0  0  0  0  0  0  0  0  0  0
   -6.2590    1.8290    0.0000 C   0  0  2  0  0  0  0  0  0  0  0  0
   -6.8590    3.2040    0.0000 C   0  0  2  0  0  0  0  0  0  0  0  0
   -8.3490    3.3720    0.0000 C   0  0  0  0  0  0  0  0  0  0  0  0
   -9.2400    2.1650    0.0000 C   0  0  0  0  0  0  0  0  0  0  0  0
  -10.7330    2.0200    0.0000 N   0  0  0  0  0  0  0  0  0  0  0  0
  -11.0560    0.5550    0.0000 N   0  0  0  0  0  0  0  0  0  0  0  0
   -9.7630   -0.2050    0.0000 C   0  0  0  0  0  0  0  0  0  0  0  0
   -8.6400    0.7900    0.0000 C   0  0  0  0  0  0  0  0  0  0  0  0
   -7.1500    0.6220    0.0000 C   0  0  0  0  0  0  0  0  0  0  0  0
   -5.9680    4.4110    0.0000 C   0  0  0  0  0  0  0  0  0  0  0  0
   -4.4770    4.2430    0.0000 C   0  0  0  0  0  0  0  0  0  0  0  0
   -5.6830    0.4440    0.0000 C   0  0  0  0  0  0  0  0  0  0  0  0
    1.1460    1.0530    0.0000 C   0  0  0  0  0  0  0  0  0  0  0  0
  2  1  1  6  0  0  0
  2  3  1  0  0  0  0
  2 10  1  0  0  0  0
  2 24  1  1  0  0  0
  3  4  1  0  0  0  0
  5  4  1  6  0  0  0
  5  6  1  0  0  0  0
  5 10  1  0  0  0  0
  6  7  1  0  0  0  0
  6 22  1  1  0  0  0
  7  8  1  6  0  0  0
  7 12  1  0  0  0  0
  8  9  1  0  0  0  0
  9 10  1  0  0  0  0
 10 11  1  6  0  0  0
 12 13  1  0  0  0  0
 12 20  1  0  0  0  0
 12 23  1  6  0  0  0
 13 14  1  0  0  0  0
 13 21  1  6  0  0  0
 14 15  1  0  0  0  0
 15 16  1  0  0  0  0
 15 19  2  0  0  0  0
 16 17  1  0  0  0  0
 17 18  2  0  0  0  0
 18 19  1  0  0  0  0
 19 20  1  0  0  0  0
 21 22  1  0  0  0  0
M  END
>  <Index>
1727

>  <ID>
HT1914

>  <class>
1

>  <apol>
61.299377

>  <ast_fraglike>
0

>  <ast_fraglike_ext>
0

>  <ast_violation>
2

>  <ast_violation_ext>
2

>  <a_acc>
3

>  <a_acid>
0

>  <a_aro>
5

>  <a_base>
0

>  <a_count>
56

>  <a_don>
3

>  <a_donacc>
6

>  <a_heavy>
24

>  <a_hyd>
21

>  <a_IC>
70.973213

>  <a_ICM>
1.2673787

>  <a_nB>
0

>  <a_nBr>
0

>  <a_nC>
21

>  <a_nCl>
0

>  <a_nF>
0

>  <a_nH>
32

>  <a_nI>
0

>  <a_nN>
2

>  <a_nO>
1

>  <a_nP>
0

>  <a_nS>
0

>  <balabanJ>
1.4556612

>  <BCUT_PEOE_0>
-2.9777961

>  <BCUT_PEOE_1>
-0.29527181

>  <BCUT_PEOE_2>
0.4215818

>  <BCUT_PEOE_3>
2.9804296

>  <BCUT_SLOGP_0>
-2.9086568

>  <BCUT_SLOGP_1>
-0.28922465

>  <BCUT_SLOGP_2>
0.45329431

>  <BCUT_SLOGP_3>
3.0504727

>  <BCUT_SMR_0>
-2.7236786

>  <BCUT_SMR_1>
-0.1591931

>  <BCUT_SMR_2>
0.59097975

>  <BCUT_SMR_3>
3.2329526

>  <bpol>
35.642624

>  <b_1rotN>
0

>  <b_1rotR>
0

>  <b_ar>
5

>  <b_count>
60

>  <b_double>
0

>  <b_heavy>
28

>  <b_max1len>
4

>  <b_rotN>
0

>  <b_rotR>
0

>  <b_single>
55

>  <b_triple>
0

>  <chi0>
16.742277

>  <chi0v>
15.438033

>  <chi0v_C>
14.043606

>  <chi0_C>
14.328063

>  <chi1>
11.35092

>  <chi1v>
10.085788

>  <chi1v_C>
9.1303759

>  <chi1_C>
9.4426718

>  <chiral>
7

>  <chiral_u>
0

>  <density>
0.67735326

>  <diameter>
10

>  <FCharge>
0

>  <GCUT_PEOE_0>
-0.84395903

>  <GCUT_PEOE_1>
-0.31654218

>  <GCUT_PEOE_2>
-0.02763582

>  <GCUT_PEOE_3>
3.3893211

>  <GCUT_SLOGP_0>
-0.89657462

>  <GCUT_SLOGP_1>
-0.28071463

>  <GCUT_SLOGP_2>
0.032552294

>  <GCUT_SLOGP_3>
3.4666102

>  <GCUT_SMR_0>
-0.54214454

>  <GCUT_SMR_1>
-0.16359095

>  <GCUT_SMR_2>
0.10487521

>  <GCUT_SMR_3>
3.6135199

>  <Kier1>
16.193878

>  <Kier2>
5.0393844

>  <Kier3>
2.0162666

>  <KierA1>
14.720439

>  <KierA2>
4.5609937

>  <KierA3>
1.8191648

>  <KierFlex>
2.797493

>  <lip_acc>
3

>  <lip_don>
2

>  <lip_druglike>
1

>  <lip_violation>
0

>  <logP(o/w)>
4.5780001

>  <logS>
-5.03022

>  <mr>
9.5444002

>  <mutagenic>
0

>  <nmol>
1

>  <opr_brigid>
24

>  <opr_leadlike>
1

>  <opr_nring>
5

>  <opr_nrot>
0

>  <opr_violation>
1

>  <PC+>
0

>  <PC->
0

>  <PEOE_PC+>
1.4447044

>  <PEOE_PC->
-1.4447044

>  <PEOE_RPC+>
0.14547659

>  <PEOE_RPC->
0.26877323

>  <PEOE_VSA+0>
130.39575

>  <PEOE_VSA+1>
21.011301

>  <PEOE_VSA+2>
0

>  <PEOE_VSA+3>
8.6190128

>  <PEOE_VSA+4>
10.324173

>  <PEOE_VSA+5>
0

>  <PEOE_VSA+6>
0

>  <PEOE_VSA-0>
90.566727

>  <PEOE_VSA-1>
37.495354

>  <PEOE_VSA-2>
0

>  <PEOE_VSA-3>
9.4210396

>  <PEOE_VSA-4>
0

>  <PEOE_VSA-5>
3.8753545

>  <PEOE_VSA-6>
7.7675405

>  <PEOE_VSA_FHYD>
0.93124038

>  <PEOE_VSA_FNEG>
0.46678278

>  <PEOE_VSA_FPNEG>
0.036443695

>  <PEOE_VSA_FPOL>
0.068759628

>  <PEOE_VSA_FPOS>
0.53321719

>  <PEOE_VSA_FPPOS>
0.032315932

>  <PEOE_VSA_HYD>
297.50919

>  <PEOE_VSA_NEG>
149.12601

>  <PEOE_VSA_PNEG>
11.642895

>  <PEOE_VSA_POL>
21.967068

>  <PEOE_VSA_POS>
170.35023

>  <PEOE_VSA_PPOS>
10.324173

>  <petitjean>
0.5

>  <petitjeanSC>
1

>  <Q_PC+>
0

>  <Q_PC->
0

>  <Q_RPC+>
0

>  <Q_RPC->
0

>  <Q_VSA_FHYD>
1

>  <Q_VSA_FNEG>
0

>  <Q_VSA_FPNEG>
0

>  <Q_VSA_FPOL>
0

>  <Q_VSA_FPOS>
1

>  <Q_VSA_FPPOS>
0

>  <Q_VSA_HYD>
319.47626

>  <Q_VSA_NEG>
0

>  <Q_VSA_PNEG>
0

>  <Q_VSA_POL>
0

>  <Q_VSA_POS>
319.47626

>  <Q_VSA_PPOS>
0

>  <radius>
5

>  <reactive>
0

>  <rings>
5

>  <RPC+>
0

>  <RPC->
0

>  <rsynth>
0.16666667

>  <SlogP>
4.1180401

>  <SlogP_VSA0>
25.385227

>  <SlogP_VSA1>
16.663008

>  <SlogP_VSA2>
16.663008

>  <SlogP_VSA3>
0

>  <SlogP_VSA4>
23.585506

>  <SlogP_VSA5>
37.736813

>  <SlogP_VSA6>
0

>  <SlogP_VSA7>
17.214357

>  <SlogP_VSA8>
113.21043

>  <SlogP_VSA9>
99.978043

>  <SMR>
9.4495497

>  <SMR_VSA0>
0

>  <SMR_VSA1>
42.048233

>  <SMR_VSA2>
34.30619

>  <SMR_VSA3>
5.9423227

>  <SMR_VSA4>
0

>  <SMR_VSA5>
168.16161

>  <SMR_VSA6>
0

>  <SMR_VSA7>
99.978043

>  <TPSA>
48.91

>  <VAdjEq>
0.46012789

>  <VAdjMa>
5.8073549

>  <VDistEq>
3.0811262

>  <VDistMa>
8.893836

>  <vdw_area>
319.47626

>  <vdw_vol>
484.97589

>  <vsa_acc>
0

>  <vsa_acid>
0

>  <vsa_base>
0

>  <vsa_don>
0

>  <vsa_hyd>
252.73506

>  <vsa_other>
0

>  <vsa_pol>
32.409

>  <Weight>
328.5

>  <weinerPath>
1151

>  <weinerPol>
52

>  <zagreb>
150

$$$$