N1(CCN(CC1)CC=Cc1ccccc1)C(c1ccccc1)c1ccccc1
  MOE2013           2D

 28 31  0  0  0  0  0  0  0  0999 V2000
    0.0000    0.0000    0.0000 N   0  0  0  0  0  0  0  0  0  0  0  0
    0.7420   -1.3030    0.0000 C   0  0  0  0  0  0  0  0  0  0  0  0
    2.2420   -1.3120    0.0000 C   0  0  0  0  0  0  0  0  0  0  0  0
    3.0000   -0.0170    0.0000 N   0  0  0  0  0  0  0  0  0  0  0  0
    2.2570    1.2860    0.0000 C   0  0  0  0  0  0  0  0  0  0  0  0
    0.7580    1.2950    0.0000 C   0  0  0  0  0  0  0  0  0  0  0  0
    4.5000   -0.0260    0.0000 C   0  0  0  0  0  0  0  0  0  0  0  0
    5.2420   -1.3290    0.0000 C   0  0  0  0  0  0  0  0  0  0  0  0
    6.7420   -1.3380    0.0000 C   0  0  0  0  0  0  0  0  0  0  0  0
    7.4850   -2.6410    0.0000 C   0  0  0  0  0  0  0  0  0  0  0  0
    6.7270   -3.9360    0.0000 C   0  0  0  0  0  0  0  0  0  0  0  0
    7.4700   -5.2390    0.0000 C   0  0  0  0  0  0  0  0  0  0  0  0
    8.9700   -5.2480    0.0000 C   0  0  0  0  0  0  0  0  0  0  0  0
    9.7270   -3.9530    0.0000 C   0  0  0  0  0  0  0  0  0  0  0  0
    8.9850   -2.6500    0.0000 C   0  0  0  0  0  0  0  0  0  0  0  0
   -1.5000    0.0090    0.0000 C   0  0  0  0  0  0  0  0  0  0  0  0
   -2.2420    1.3120    0.0000 C   0  0  0  0  0  0  0  0  0  0  0  0
   -1.4850    2.6070    0.0000 C   0  0  0  0  0  0  0  0  0  0  0  0
   -2.2270    3.9100    0.0000 C   0  0  0  0  0  0  0  0  0  0  0  0
   -3.7270    3.9190    0.0000 C   0  0  0  0  0  0  0  0  0  0  0  0
   -4.4850    2.6240    0.0000 C   0  0  0  0  0  0  0  0  0  0  0  0
   -3.7420    1.3210    0.0000 C   0  0  0  0  0  0  0  0  0  0  0  0
   -2.2570   -1.2860    0.0000 C   0  0  0  0  0  0  0  0  0  0  0  0
   -1.5150   -2.5890    0.0000 C   0  0  0  0  0  0  0  0  0  0  0  0
   -2.2730   -3.8840    0.0000 C   0  0  0  0  0  0  0  0  0  0  0  0
   -3.7720   -3.8750    0.0000 C   0  0  0  0  0  0  0  0  0  0  0  0
   -4.5150   -2.5720    0.0000 C   0  0  0  0  0  0  0  0  0  0  0  0
   -3.7570   -1.2770    0.0000 C   0  0  0  0  0  0  0  0  0  0  0  0
  1  2  1  0  0  0  0
  1  6  1  0  0  0  0
  1 16  1  0  0  0  0
  2  3  1  0  0  0  0
  3  4  1  0  0  0  0
  4  5  1  0  0  0  0
  4  7  1  0  0  0  0
  5  6  1  0  0  0  0
  7  8  1  0  0  0  0
  8  9  2  3  0  0  0
  9 10  1  0  0  0  0
 10 11  1  0  0  0  0
 10 15  2  0  0  0  0
 11 12  2  0  0  0  0
 12 13  1  0  0  0  0
 13 14  2  0  0  0  0
 14 15  1  0  0  0  0
 16 17  1  0  0  0  0
 16 23  1  0  0  0  0
 17 18  1  0  0  0  0
 17 22  2  0  0  0  0
 18 19  2  0  0  0  0
 19 20  1  0  0  0  0
 20 21  2  0  0  0  0
 21 22  1  0  0  0  0
 23 24  1  0  0  0  0
 23 28  2  0  0  0  0
 24 25  2  0  0  0  0
 25 26  1  0  0  0  0
 26 27  2  0  0  0  0
 27 28  1  0  0  0  0
M  END
>  <Index>
1496

>  <ID>
HT0492

>  <class>
1

>  <apol>
66.630203

>  <ast_fraglike>
0

>  <ast_fraglike_ext>
0

>  <ast_violation>
2

>  <ast_violation_ext>
3

>  <a_acc>
2

>  <a_acid>
0

>  <a_aro>
18

>  <a_base>
0

>  <a_count>
56

>  <a_don>
0

>  <a_donacc>
2

>  <a_heavy>
28

>  <a_hyd>
26

>  <a_IC>
66.394508

>  <a_ICM>
1.1856161

>  <a_nB>
0

>  <a_nBr>
0

>  <a_nC>
26

>  <a_nCl>
0

>  <a_nF>
0

>  <a_nH>
28

>  <a_nI>
0

>  <a_nN>
2

>  <a_nO>
0

>  <a_nP>
0

>  <a_nS>
0

>  <balabanJ>
1.2356045

>  <BCUT_PEOE_0>
-2.7785532

>  <BCUT_PEOE_1>
-0.64890665

>  <BCUT_PEOE_2>
0.6975826

>  <BCUT_PEOE_3>
2.6758025

>  <BCUT_SLOGP_0>
-2.8767295

>  <BCUT_SLOGP_1>
-0.53807992

>  <BCUT_SLOGP_2>
0.80591482

>  <BCUT_SLOGP_3>
2.6292667

>  <BCUT_SMR_0>
-2.490418

>  <BCUT_SMR_1>
-0.49986199

>  <BCUT_SMR_2>
0.85431087

>  <BCUT_SMR_3>
2.9569342

>  <bpol>
34.569798

>  <b_1rotN>
6

>  <b_1rotR>
0.19354838

>  <b_ar>
18

>  <b_count>
59

>  <b_double>
1

>  <b_heavy>
31

>  <b_max1len>
3

>  <b_rotN>
6

>  <b_rotR>
0.19354838

>  <b_single>
40

>  <b_triple>
0

>  <chi0>
19.020451

>  <chi0v>
16.322266

>  <chi0v_C>
15.427838

>  <chi0_C>
17.865749

>  <chi1>
13.898979

>  <chi1v>
10.178995

>  <chi1v_C>
8.3396578

>  <chi1_C>
11.524405

>  <chiral>
0

>  <chiral_u>
0

>  <density>
0.64623952

>  <diameter>
15

>  <FCharge>
0

>  <GCUT_PEOE_0>
-0.85168433

>  <GCUT_PEOE_1>
-0.3893753

>  <GCUT_PEOE_2>
0.079418793

>  <GCUT_PEOE_3>
2.8202345

>  <GCUT_SLOGP_0>
-0.96068144

>  <GCUT_SLOGP_1>
-0.26386139

>  <GCUT_SLOGP_2>
0.16445385

>  <GCUT_SLOGP_3>
2.8812232

>  <GCUT_SMR_0>
-0.51432729

>  <GCUT_SMR_1>
-0.21200819

>  <GCUT_SMR_2>
0.19305076

>  <GCUT_SMR_3>
3.0936308

>  <Kier1>
21.240376

>  <Kier2>
11.4075

>  <Kier3>
6.25

>  <KierA1>
15.735842

>  <KierA2>
8.3502903

>  <KierA3>
4.5359998

>  <KierFlex>
4.6928158

>  <lip_acc>
2

>  <lip_don>
0

>  <lip_druglike>
1

>  <lip_violation>
1

>  <logP(o/w)>
5.8210001

>  <logS>
-5.3446798

>  <mr>
11.790074

>  <mutagenic>
0

>  <nmol>
1

>  <opr_brigid>
25

>  <opr_leadlike>
1

>  <opr_nring>
4

>  <opr_nrot>
8

>  <opr_violation>
1

>  <PC+>
0

>  <PC->
0

>  <PEOE_PC+>
1.6788895

>  <PEOE_PC->
-1.6788895

>  <PEOE_RPC+>
0.03713385

>  <PEOE_RPC->
0.17648347

>  <PEOE_VSA+0>
108.61549

>  <PEOE_VSA+1>
79.922905

>  <PEOE_VSA+2>
0

>  <PEOE_VSA+3>
0

>  <PEOE_VSA+4>
0

>  <PEOE_VSA+5>
0

>  <PEOE_VSA+6>
0

>  <PEOE_VSA-0>
6.6256189

>  <PEOE_VSA-1>
208.33337

>  <PEOE_VSA-2>
0

>  <PEOE_VSA-3>
0

>  <PEOE_VSA-4>
0

>  <PEOE_VSA-5>
0

>  <PEOE_VSA-6>
0

>  <PEOE_VSA_FHYD>
1

>  <PEOE_VSA_FNEG>
0.53273946

>  <PEOE_VSA_FPNEG>
0

>  <PEOE_VSA_FPOL>
0

>  <PEOE_VSA_FPOS>
0.46726051

>  <PEOE_VSA_FPPOS>
0

>  <PEOE_VSA_HYD>
403.49738

>  <PEOE_VSA_NEG>
214.95898

>  <PEOE_VSA_PNEG>
0

>  <PEOE_VSA_POL>
0

>  <PEOE_VSA_POS>
188.53839

>  <PEOE_VSA_PPOS>
0

>  <petitjean>
0.46666667

>  <petitjeanSC>
0.875

>  <Q_PC+>
0

>  <Q_PC->
0

>  <Q_RPC+>
0

>  <Q_RPC->
0

>  <Q_VSA_FHYD>
1

>  <Q_VSA_FNEG>
0

>  <Q_VSA_FPNEG>
0

>  <Q_VSA_FPOL>
0

>  <Q_VSA_FPOS>
1

>  <Q_VSA_FPPOS>
0

>  <Q_VSA_HYD>
403.49738

>  <Q_VSA_NEG>
0

>  <Q_VSA_PNEG>
0

>  <Q_VSA_POL>
0

>  <Q_VSA_POS>
403.49738

>  <Q_VSA_PPOS>
0

>  <radius>
8

>  <reactive>
0

>  <rings>
4

>  <RPC+>
0

>  <RPC->
0

>  <rsynth>
1

>  <SlogP>
5.2024999

>  <SlogP_VSA0>
0

>  <SlogP_VSA1>
6.2486277

>  <SlogP_VSA2>
0

>  <SlogP_VSA3>
92.197891

>  <SlogP_VSA4>
9.5567245

>  <SlogP_VSA5>
0

>  <SlogP_VSA6>
0

>  <SlogP_VSA7>
282.29095

>  <SlogP_VSA8>
21.625153

>  <SlogP_VSA9>
0

>  <SMR>
11.8327

>  <SMR_VSA0>
0

>  <SMR_VSA1>
6.2486277

>  <SMR_VSA2>
0

>  <SMR_VSA3>
13.538693

>  <SMR_VSA4>
0

>  <SMR_VSA5>
282.29095

>  <SMR_VSA6>
109.84107

>  <SMR_VSA7>
0

>  <TPSA>
6.48

>  <VAdjEq>
0.39893496

>  <VAdjMa>
5.9541965

>  <VDistEq>
3.7160821

>  <VDistMa>
9.2932987

>  <vdw_area>
403.49738

>  <vdw_vol>
570.25909

>  <vsa_acc>
0

>  <vsa_acid>
0

>  <vsa_base>
0

>  <vsa_don>
0

>  <vsa_hyd>
383.56711

>  <vsa_other>
0

>  <vsa_pol>
0

>  <Weight>
368.52399

>  <weinerPath>
2320

>  <weinerPol>
40

>  <zagreb>
142

$$$$