ClC=1CC[C@H]2N(C=1C(O)=O)C(=O)[C@H]2NC(=O)[C@H](N)c1ccccc1
  MOE2013           2D

 24 26  0  0  1  0  0  0  0  0999 V2000
    0.0000    0.0000    0.0000 Cl  0  0  0  0  0  0  0  0  0  0  0  0
    1.5000   -0.0090    0.0000 C   0  0  0  0  0  0  0  0  0  0  0  0
    2.2580    1.2860    0.0000 C   0  0  0  0  0  0  0  0  0  0  0  0
    3.7580    1.2770    0.0000 C   0  0  0  0  0  0  0  0  0  0  0  0
    4.5000   -0.0260    0.0000 C   0  0  1  0  0  0  0  0  0  0  0  0
    3.7420   -1.3210    0.0000 N   0  0  0  0  0  0  0  0  0  0  0  0
    2.2420   -1.3120    0.0000 C   0  0  0  0  0  0  0  0  0  0  0  0
    1.4850   -2.6070    0.0000 C   0  0  0  0  0  0  0  0  0  0  0  0
    2.2270   -3.9100    0.0000 O   0  0  0  0  0  0  0  0  0  0  0  0
   -0.0150   -2.5980    0.0000 O   0  0  0  0  0  0  0  0  0  0  0  0
    5.0370   -2.0790    0.0000 C   0  0  0  0  0  0  0  0  0  0  0  0
    5.4170   -3.5300    0.0000 O   0  0  0  0  0  0  0  0  0  0  0  0
    5.7950   -0.7840    0.0000 C   0  0  1  0  0  0  0  0  0  0  0  0
    7.2460   -0.4040    0.0000 N   0  0  0  0  0  0  0  0  0  0  0  0
    8.3000   -1.4710    0.0000 C   0  0  0  0  0  0  0  0  0  0  0  0
    7.9030   -2.9180    0.0000 O   0  0  0  0  0  0  0  0  0  0  0  0
    9.7510   -1.0910    0.0000 C   0  0  2  0  0  0  0  0  0  0  0  0
   10.1480    0.3550    0.0000 N   0  0  0  0  0  0  0  0  0  0  0  0
   10.8060   -2.1580    0.0000 C   0  0  0  0  0  0  0  0  0  0  0  0
   10.4090   -3.6050    0.0000 C   0  0  0  0  0  0  0  0  0  0  0  0
   11.4630   -4.6720    0.0000 C   0  0  0  0  0  0  0  0  0  0  0  0
   12.9150   -4.2920    0.0000 C   0  0  0  0  0  0  0  0  0  0  0  0
   13.3110   -2.8450    0.0000 C   0  0  0  0  0  0  0  0  0  0  0  0
   12.2570   -1.7780    0.0000 C   0  0  0  0  0  0  0  0  0  0  0  0
  1  2  1  0  0  0  0
  2  3  1  0  0  0  0
  2  7  2  0  0  0  0
  3  4  1  0  0  0  0
  5  4  1  6  0  0  0
  5  6  1  0  0  0  0
  5 13  1  0  0  0  0
  6  7  1  0  0  0  0
  6 11  1  0  0  0  0
  7  8  1  0  0  0  0
  8  9  1  0  0  0  0
  8 10  2  0  0  0  0
 11 12  2  0  0  0  0
 11 13  1  0  0  0  0
 13 14  1  6  0  0  0
 14 15  1  0  0  0  0
 15 16  2  0  0  0  0
 15 17  1  0  0  0  0
 17 18  1  6  0  0  0
 17 19  1  0  0  0  0
 19 20  1  0  0  0  0
 19 24  2  0  0  0  0
 20 21  2  0  0  0  0
 21 22  1  0  0  0  0
 22 23  2  0  0  0  0
 23 24  1  0  0  0  0
M  END
>  <Index>
1624

>  <ID>
HT1236

>  <class>
1

>  <apol>
47.516689

>  <ast_fraglike>
0

>  <ast_fraglike_ext>
0

>  <ast_violation>
3

>  <ast_violation_ext>
5

>  <a_acc>
5

>  <a_acid>
0

>  <a_aro>
6

>  <a_base>
0

>  <a_count>
40

>  <a_don>
4

>  <a_donacc>
9

>  <a_heavy>
24

>  <a_hyd>
14

>  <a_IC>
72.122238

>  <a_ICM>
1.8030559

>  <a_nB>
0

>  <a_nBr>
0

>  <a_nC>
16

>  <a_nCl>
1

>  <a_nF>
0

>  <a_nH>
16

>  <a_nI>
0

>  <a_nN>
3

>  <a_nO>
4

>  <a_nP>
0

>  <a_nS>
0

>  <balabanJ>
1.5845311

>  <BCUT_PEOE_0>
-2.7494793

>  <BCUT_PEOE_1>
-0.64904583

>  <BCUT_PEOE_2>
0.67449731

>  <BCUT_PEOE_3>
2.7814105

>  <BCUT_SLOGP_0>
-2.9321232

>  <BCUT_SLOGP_1>
-0.53807992

>  <BCUT_SLOGP_2>
0.7120775

>  <BCUT_SLOGP_3>
2.7004991

>  <BCUT_SMR_0>
-2.4953012

>  <BCUT_SMR_1>
-0.43821698

>  <BCUT_SMR_2>
0.85431087

>  <BCUT_SMR_3>
3.0286355

>  <bpol>
22.765312

>  <b_1rotN>
4

>  <b_1rotR>
0.15384616

>  <b_ar>
6

>  <b_count>
42

>  <b_double>
4

>  <b_heavy>
26

>  <b_max1len>
3

>  <b_rotN>
5

>  <b_rotR>
0.1923077

>  <b_single>
32

>  <b_triple>
0

>  <chi0>
17.430357

>  <chi0v>
13.363432

>  <chi0v_C>
9.0330153

>  <chi0_C>
10.1459

>  <chi1>
11.413591

>  <chi1v>
7.852191

>  <chi1v_C>
4.8718438

>  <chi1_C>
6.1329932

>  <chiral>
3

>  <chiral_u>
0

>  <density>
0.84010851

>  <diameter>
12

>  <FCharge>
0

>  <GCUT_PEOE_0>
-0.83551121

>  <GCUT_PEOE_1>
-0.43957791

>  <GCUT_PEOE_2>
0.081180133

>  <GCUT_PEOE_3>
2.6341946

>  <GCUT_SLOGP_0>
-1.3374579

>  <GCUT_SLOGP_1>
-0.34211323

>  <GCUT_SLOGP_2>
0.16444275

>  <GCUT_SLOGP_3>
2.5999665

>  <GCUT_SMR_0>
-0.53721482

>  <GCUT_SMR_1>
-0.22842537

>  <GCUT_SMR_2>
0.21786568

>  <GCUT_SMR_3>
2.884963

>  <Kier1>
18.781065

>  <Kier2>
7.7091413

>  <Kier3>
3.6183696

>  <KierA1>
15.061874

>  <KierA2>
6.1192751

>  <KierA3>
2.8509517

>  <KierFlex>
3.8403232

>  <lip_acc>
7

>  <lip_don>
4

>  <lip_druglike>
1

>  <lip_violation>
0

>  <logP(o/w)>
0.73900002

>  <logS>
-3.0683601

>  <mr>
8.7651014

>  <mutagenic>
0

>  <nmol>
1

>  <opr_brigid>
15

>  <opr_leadlike>
1

>  <opr_nring>
3

>  <opr_nrot>
4

>  <opr_violation>
0

>  <PC+>
0

>  <PC->
0

>  <PEOE_PC+>
2.5249712

>  <PEOE_PC->
-2.5249712

>  <PEOE_RPC+>
0.12239275

>  <PEOE_RPC->
0.13515352

>  <PEOE_VSA+0>
21.581291

>  <PEOE_VSA+1>
37.269047

>  <PEOE_VSA+2>
30.229498

>  <PEOE_VSA+3>
8.6190128

>  <PEOE_VSA+4>
23.273705

>  <PEOE_VSA+5>
12.949531

>  <PEOE_VSA+6>
14.708499

>  <PEOE_VSA-0>
19.611166

>  <PEOE_VSA-1>
90.856468

>  <PEOE_VSA-2>
0

>  <PEOE_VSA-3>
0

>  <PEOE_VSA-4>
0

>  <PEOE_VSA-5>
40.700764

>  <PEOE_VSA-6>
14.555551

>  <PEOE_VSA_FHYD>
0.66220289

>  <PEOE_VSA_FNEG>
0.527188

>  <PEOE_VSA_FPNEG>
0.17577705

>  <PEOE_VSA_FPOL>
0.33779711

>  <PEOE_VSA_FPOS>
0.47281197

>  <PEOE_VSA_FPPOS>
0.16202004

>  <PEOE_VSA_HYD>
208.16649

>  <PEOE_VSA_NEG>
165.72395

>  <PEOE_VSA_PNEG>
55.256313

>  <PEOE_VSA_POL>
106.18805

>  <PEOE_VSA_POS>
148.63058

>  <PEOE_VSA_PPOS>
50.931732

>  <petitjean>
0.5

>  <petitjeanSC>
1

>  <Q_PC+>
0

>  <Q_PC->
0

>  <Q_RPC+>
0

>  <Q_RPC->
0

>  <Q_VSA_FHYD>
1

>  <Q_VSA_FNEG>
0

>  <Q_VSA_FPNEG>
0

>  <Q_VSA_FPOL>
0

>  <Q_VSA_FPOS>
1

>  <Q_VSA_FPPOS>
0

>  <Q_VSA_HYD>
314.35452

>  <Q_VSA_NEG>
0

>  <Q_VSA_PNEG>
0

>  <Q_VSA_POL>
0

>  <Q_VSA_POS>
314.35452

>  <Q_VSA_PPOS>
0

>  <radius>
6

>  <reactive>
0

>  <rings>
3

>  <RPC+>
0

>  <RPC->
0

>  <rsynth>
0.625

>  <SlogP>
0.80629998

>  <SlogP_VSA0>
50.90794

>  <SlogP_VSA1>
21.387344

>  <SlogP_VSA2>
79.550583

>  <SlogP_VSA3>
25.385227

>  <SlogP_VSA4>
3.185575

>  <SlogP_VSA5>
6.2573543

>  <SlogP_VSA6>
0

>  <SlogP_VSA7>
88.215919

>  <SlogP_VSA8>
41.718781

>  <SlogP_VSA9>
39.148643

>  <SMR>
8.5794897

>  <SMR_VSA0>
71.586647

>  <SMR_VSA1>
3.1243138

>  <SMR_VSA2>
43.395977

>  <SMR_VSA3>
21.388836

>  <SMR_VSA4>
32.897186

>  <SMR_VSA5>
125.95274

>  <SMR_VSA6>
18.263031

>  <SMR_VSA7>
39.148643

>  <TPSA>
112.73

>  <VAdjEq>
0.43739632

>  <VAdjMa>
5.7004399

>  <VDistEq>
3.3900189

>  <VDistMa>
8.8684988

>  <vdw_area>
314.35452

>  <vdw_vol>
416.34384

>  <vsa_acc>
27.133842

>  <vsa_acid>
0

>  <vsa_base>
0

>  <vsa_don>
5.6825762

>  <vsa_hyd>
173.7679

>  <vsa_other>
40.607563

>  <vsa_pol>
77.692749

>  <Weight>
349.77399

>  <weinerPath>
1383

>  <weinerPol>
39

>  <zagreb>
128

$$$$