O(CCN(C)C)c1ccc(cc1)C(=C(CC)/c1ccccc1)c1ccccc1
  MOE2013           2D

 28 30  0  0  0  0  0  0  0  0999 V2000
    0.0000    0.0000    0.0000 O   0  0  0  0  0  0  0  0  0  0  0  0
    0.7560   -1.2960    0.0000 C   0  0  0  0  0  0  0  0  0  0  0  0
    2.2560   -1.2890    0.0000 C   0  0  0  0  0  0  0  0  0  0  0  0
    3.0110   -2.5850    0.0000 N   0  0  0  0  0  0  0  0  0  0  0  0
    2.2670   -3.8870    0.0000 C   0  0  0  0  0  0  0  0  0  0  0  0
    4.5110   -2.5790    0.0000 C   0  0  0  0  0  0  0  0  0  0  0  0
   -1.5000   -0.0060    0.0000 C   0  0  0  0  0  0  0  0  0  0  0  0
   -2.2440   -1.3090    0.0000 C   0  0  0  0  0  0  0  0  0  0  0  0
   -3.7440   -1.3150    0.0000 C   0  0  0  0  0  0  0  0  0  0  0  0
   -4.5000   -0.0190    0.0000 C   0  0  0  0  0  0  0  0  0  0  0  0
   -3.7560    1.2830    0.0000 C   0  0  0  0  0  0  0  0  0  0  0  0
   -2.2560    1.2890    0.0000 C   0  0  0  0  0  0  0  0  0  0  0  0
   -6.0000   -0.0260    0.0000 C   0  0  0  0  0  0  0  0  0  0  0  0
   -6.7440   -1.3280    0.0000 C   0  0  0  0  0  0  0  0  0  0  0  0
   -5.9890   -2.6240    0.0000 C   0  0  0  0  0  0  0  0  0  0  0  0
   -6.7330   -3.9260    0.0000 C   0  0  0  0  0  0  0  0  0  0  0  0
   -8.2440   -1.3350    0.0000 C   0  0  0  0  0  0  0  0  0  0  0  0
   -8.9890   -2.6370    0.0000 C   0  0  0  0  0  0  0  0  0  0  0  0
  -10.4890   -2.6430    0.0000 C   0  0  0  0  0  0  0  0  0  0  0  0
  -11.2440   -1.3480    0.0000 C   0  0  0  0  0  0  0  0  0  0  0  0
  -10.5000   -0.0450    0.0000 C   0  0  0  0  0  0  0  0  0  0  0  0
   -9.0000   -0.0390    0.0000 C   0  0  0  0  0  0  0  0  0  0  0  0
   -6.7560    1.2700    0.0000 C   0  0  0  0  0  0  0  0  0  0  0  0
   -6.0110    2.5720    0.0000 C   0  0  0  0  0  0  0  0  0  0  0  0
   -6.7670    3.8680    0.0000 C   0  0  0  0  0  0  0  0  0  0  0  0
   -8.2670    3.8610    0.0000 C   0  0  0  0  0  0  0  0  0  0  0  0
   -9.0110    2.5590    0.0000 C   0  0  0  0  0  0  0  0  0  0  0  0
   -8.2560    1.2630    0.0000 C   0  0  0  0  0  0  0  0  0  0  0  0
  1  2  1  0  0  0  0
  1  7  1  0  0  0  0
  2  3  1  0  0  0  0
  3  4  1  0  0  0  0
  4  5  1  0  0  0  0
  4  6  1  0  0  0  0
  7  8  1  0  0  0  0
  7 12  2  0  0  0  0
  8  9  2  0  0  0  0
  9 10  1  0  0  0  0
 10 11  2  0  0  0  0
 10 13  1  0  0  0  0
 11 12  1  0  0  0  0
 13 14  2  3  0  0  0
 13 23  1  0  0  0  0
 14 15  1  0  0  0  0
 14 17  1  0  0  0  0
 15 16  1  0  0  0  0
 17 18  1  0  0  0  0
 17 22  2  0  0  0  0
 18 19  2  0  0  0  0
 19 20  1  0  0  0  0
 20 21  2  0  0  0  0
 21 22  1  0  0  0  0
 23 24  1  0  0  0  0
 23 28  2  0  0  0  0
 24 25  2  0  0  0  0
 25 26  1  0  0  0  0
 26 27  2  0  0  0  0
 27 28  1  0  0  0  0
M  END
>  <Index>
1732

>  <ID>
HT1978

>  <class>
1

>  <apol>
66.999001

>  <ast_fraglike>
0

>  <ast_fraglike_ext>
0

>  <ast_violation>
2

>  <ast_violation_ext>
3

>  <a_acc>
2

>  <a_acid>
0

>  <a_aro>
18

>  <a_base>
0

>  <a_count>
57

>  <a_don>
0

>  <a_donacc>
2

>  <a_heavy>
28

>  <a_hyd>
26

>  <a_IC>
69.381851

>  <a_ICM>
1.2172254

>  <a_nB>
0

>  <a_nBr>
0

>  <a_nC>
26

>  <a_nCl>
0

>  <a_nF>
0

>  <a_nH>
29

>  <a_nI>
0

>  <a_nN>
1

>  <a_nO>
1

>  <a_nP>
0

>  <a_nS>
0

>  <balabanJ>
1.6070825

>  <BCUT_PEOE_0>
-2.5950856

>  <BCUT_PEOE_1>
-0.59359735

>  <BCUT_PEOE_2>
0.64228922

>  <BCUT_PEOE_3>
2.4974806

>  <BCUT_SLOGP_0>
-2.7039783

>  <BCUT_SLOGP_1>
-0.49128035

>  <BCUT_SLOGP_2>
0.75208807

>  <BCUT_SLOGP_3>
2.578306

>  <BCUT_SMR_0>
-2.3192675

>  <BCUT_SMR_1>
-0.44184619

>  <BCUT_SMR_2>
0.80989122

>  <BCUT_SMR_3>
2.7593744

>  <bpol>
35.599003

>  <b_1rotN>
8

>  <b_1rotR>
0.26666668

>  <b_ar>
18

>  <b_count>
59

>  <b_double>
1

>  <b_heavy>
30

>  <b_max1len>
5

>  <b_rotN>
8

>  <b_rotR>
0.26666668

>  <b_single>
40

>  <b_triple>
0

>  <chi0>
19.769375

>  <chi0v>
17.059687

>  <chi0v_C>
16.204224

>  <chi0_C>
18.484917

>  <chi1>
13.685872

>  <chi1v>
9.9068489

>  <chi1v_C>
8.2033949

>  <chi1_C>
11.214675

>  <chiral>
0

>  <chiral_u>
0

>  <density>
0.64398539

>  <diameter>
14

>  <FCharge>
0

>  <GCUT_PEOE_0>
-0.8587603

>  <GCUT_PEOE_1>
-0.38339546

>  <GCUT_PEOE_2>
0.066538081

>  <GCUT_PEOE_3>
2.6915967

>  <GCUT_SLOGP_0>
-0.96180791

>  <GCUT_SLOGP_1>
-0.26386139

>  <GCUT_SLOGP_2>
0.14830479

>  <GCUT_SLOGP_3>
2.8437617

>  <GCUT_SMR_0>
-0.5169329

>  <GCUT_SMR_1>
-0.19680193

>  <GCUT_SMR_2>
0.17418523

>  <GCUT_SMR_3>
2.9938288

>  <Kier1>
22.68

>  <Kier2>
12

>  <Kier3>
6.7600002

>  <KierA1>
16.802382

>  <KierA2>
8.7840004

>  <KierA3>
4.9061375

>  <KierFlex>
5.2711473

>  <lip_acc>
2

>  <lip_don>
0

>  <lip_druglike>
1

>  <lip_violation>
1

>  <logP(o/w)>
6.698

>  <logS>
-6.83044

>  <mr>
11.874652

>  <mutagenic>
0

>  <nmol>
1

>  <opr_brigid>
19

>  <opr_leadlike>
1

>  <opr_nring>
3

>  <opr_nrot>
8

>  <opr_violation>
1

>  <PC+>
0

>  <PC->
0

>  <PEOE_PC+>
1.6107378

>  <PEOE_PC->
-1.6107378

>  <PEOE_RPC+>
0.047348086

>  <PEOE_RPC->
0.21321435

>  <PEOE_VSA+0>
68.642342

>  <PEOE_VSA+1>
91.655991

>  <PEOE_VSA+2>
0

>  <PEOE_VSA+3>
0

>  <PEOE_VSA+4>
0

>  <PEOE_VSA+5>
0

>  <PEOE_VSA+6>
0

>  <PEOE_VSA-0>
90.731201

>  <PEOE_VSA-1>
165.80652

>  <PEOE_VSA-2>
0

>  <PEOE_VSA-3>
0

>  <PEOE_VSA-4>
0

>  <PEOE_VSA-5>
0

>  <PEOE_VSA-6>
2.503756

>  <PEOE_VSA_FHYD>
0.99402928

>  <PEOE_VSA_FNEG>
0.61773646

>  <PEOE_VSA_FPNEG>
0.0059707095

>  <PEOE_VSA_FPOL>
0.0059707095

>  <PEOE_VSA_FPOS>
0.38226357

>  <PEOE_VSA_FPPOS>
0

>  <PEOE_VSA_HYD>
416.83606

>  <PEOE_VSA_NEG>
259.04147

>  <PEOE_VSA_PNEG>
2.503756

>  <PEOE_VSA_POL>
2.503756

>  <PEOE_VSA_POS>
160.29832

>  <PEOE_VSA_PPOS>
0

>  <petitjean>
0.5

>  <petitjeanSC>
1

>  <Q_PC+>
0

>  <Q_PC->
0

>  <Q_RPC+>
0

>  <Q_RPC->
0

>  <Q_VSA_FHYD>
1

>  <Q_VSA_FNEG>
0

>  <Q_VSA_FPNEG>
0

>  <Q_VSA_FPOL>
0

>  <Q_VSA_FPOS>
1

>  <Q_VSA_FPPOS>
0

>  <Q_VSA_HYD>
419.33981

>  <Q_VSA_NEG>
0

>  <Q_VSA_PNEG>
0

>  <Q_VSA_POL>
0

>  <Q_VSA_POS>
419.33981

>  <Q_VSA_PPOS>
0

>  <radius>
7

>  <reactive>
0

>  <rings>
3

>  <RPC+>
0

>  <RPC->
0

>  <rsynth>
1

>  <SlogP>
5.8133898

>  <SlogP_VSA0>
10.999887

>  <SlogP_VSA1>
3.1243138

>  <SlogP_VSA2>
0

>  <SlogP_VSA3>
42.551411

>  <SlogP_VSA4>
9.5567245

>  <SlogP_VSA5>
65.794373

>  <SlogP_VSA6>
0

>  <SlogP_VSA7>
250.19016

>  <SlogP_VSA8>
18.868406

>  <SlogP_VSA9>
38.569443

>  <SMR>
11.852

>  <SMR_VSA0>
0

>  <SMR_VSA1>
14.124202

>  <SMR_VSA2>
3.185575

>  <SMR_VSA3>
14.800153

>  <SMR_VSA4>
3.185575

>  <SMR_VSA5>
265.87299

>  <SMR_VSA6>
39.365837

>  <SMR_VSA7>
99.120392

>  <TPSA>
12.47

>  <VAdjEq>
0.38983503

>  <VAdjMa>
5.9068904

>  <VDistEq>
3.568749

>  <VDistMa>
9.3255863

>  <vdw_area>
419.33981

>  <vdw_vol>
576.9137

>  <vsa_acc>
2.503756

>  <vsa_acid>
0

>  <vsa_base>
0

>  <vsa_don>
0

>  <vsa_hyd>
396.194

>  <vsa_other>
0

>  <vsa_pol>
2.503756

>  <Weight>
371.52399

>  <weinerPath>
2141

>  <weinerPol>
41

>  <zagreb>
138

$$$$