N(CCC=C/1c2c(C=Cc3c1cccc3)cccc2)(C)C
  MOE2013           2D

 21 23  0  0  0  0  0  0  0  0999 V2000
    0.0000    0.0000    0.0000 N   0  0  0  0  0  0  0  0  0  0  0  0
   -1.5000    0.0070    0.0000 C   0  0  0  0  0  0  0  0  0  0  0  0
   -2.2560   -1.2880    0.0000 C   0  0  0  0  0  0  0  0  0  0  0  0
   -3.7560   -1.2800    0.0000 C   0  0  0  0  0  0  0  0  0  0  0  0
   -4.5130   -2.5760    0.0000 C   0  0  0  0  0  0  0  0  0  0  0  0
   -6.0080   -2.4570    0.0000 C   0  0  0  0  0  0  0  0  0  0  0  0
   -7.0340   -3.5520    0.0000 C   0  0  0  0  0  0  0  0  0  0  0  0
   -6.8180   -5.0360    0.0000 C   0  0  0  0  0  0  0  0  0  0  0  0
   -5.5230   -5.7940    0.0000 C   0  0  0  0  0  0  0  0  0  0  0  0
   -4.1240   -5.2510    0.0000 C   0  0  0  0  0  0  0  0  0  0  0  0
   -3.6750   -3.8200    0.0000 C   0  0  0  0  0  0  0  0  0  0  0  0
   -2.2110   -3.4930    0.0000 C   0  0  0  0  0  0  0  0  0  0  0  0
   -1.1960   -4.5980    0.0000 C   0  0  0  0  0  0  0  0  0  0  0  0
   -1.6460   -6.0290    0.0000 C   0  0  0  0  0  0  0  0  0  0  0  0
   -3.1100   -6.3560    0.0000 C   0  0  0  0  0  0  0  0  0  0  0  0
   -8.4940   -3.2110    0.0000 C   0  0  0  0  0  0  0  0  0  0  0  0
   -8.9300   -1.7750    0.0000 C   0  0  0  0  0  0  0  0  0  0  0  0
   -7.9040   -0.6810    0.0000 C   0  0  0  0  0  0  0  0  0  0  0  0
   -6.4430   -1.0220    0.0000 C   0  0  0  0  0  0  0  0  0  0  0  0
    0.7560    1.2950    0.0000 C   0  0  0  0  0  0  0  0  0  0  0  0
    0.7440   -1.3030    0.0000 C   0  0  0  0  0  0  0  0  0  0  0  0
  1  2  1  0  0  0  0
  1 20  1  0  0  0  0
  1 21  1  0  0  0  0
  2  3  1  0  0  0  0
  3  4  1  0  0  0  0
  4  5  2  3  0  0  0
  5  6  1  0  0  0  0
  5 11  1  0  0  0  0
  6  7  1  0  0  0  0
  6 19  2  0  0  0  0
  7  8  1  0  0  0  0
  7 16  2  0  0  0  0
  8  9  2  0  0  0  0
  9 10  1  0  0  0  0
 10 11  1  0  0  0  0
 10 15  2  0  0  0  0
 11 12  2  0  0  0  0
 12 13  1  0  0  0  0
 13 14  2  0  0  0  0
 14 15  1  0  0  0  0
 16 17  1  0  0  0  0
 17 18  2  0  0  0  0
 18 19  1  0  0  0  0
M  END
>  <Index>
1508

>  <ID>
HT0564

>  <class>
1

>  <apol>
50.302654

>  <ast_fraglike>
0

>  <ast_fraglike_ext>
0

>  <ast_violation>
1

>  <ast_violation_ext>
1

>  <a_acc>
1

>  <a_acid>
0

>  <a_aro>
12

>  <a_base>
0

>  <a_count>
42

>  <a_don>
0

>  <a_donacc>
1

>  <a_heavy>
21

>  <a_hyd>
20

>  <a_IC>
47.800102

>  <a_ICM>
1.1380978

>  <a_nB>
0

>  <a_nBr>
0

>  <a_nC>
20

>  <a_nCl>
0

>  <a_nF>
0

>  <a_nH>
21

>  <a_nI>
0

>  <a_nN>
1

>  <a_nO>
0

>  <a_nP>
0

>  <a_nS>
0

>  <balabanJ>
1.7143384

>  <BCUT_PEOE_0>
-2.6075914

>  <BCUT_PEOE_1>
-0.56021518

>  <BCUT_PEOE_2>
0.61544549

>  <BCUT_PEOE_3>
2.4953449

>  <BCUT_SLOGP_0>
-2.6599593

>  <BCUT_SLOGP_1>
-0.4564501

>  <BCUT_SLOGP_2>
0.716739

>  <BCUT_SLOGP_3>
2.5255668

>  <BCUT_SMR_0>
-2.321867

>  <BCUT_SMR_1>
-0.42026725

>  <BCUT_SMR_2>
0.76128328

>  <BCUT_SMR_3>
2.7760344

>  <bpol>
24.937347

>  <b_1rotN>
3

>  <b_1rotR>
0.13043478

>  <b_ar>
12

>  <b_count>
44

>  <b_double>
2

>  <b_heavy>
23

>  <b_max1len>
6

>  <b_rotN>
3

>  <b_rotR>
0.13043478

>  <b_single>
30

>  <b_triple>
0

>  <chi0>
14.656489

>  <chi0v>
12.71228

>  <chi0v_C>
12.265066

>  <chi0_C>
14.07914

>  <chi1>
10.25402

>  <chi1v>
7.4729624

>  <chi1v_C>
6.2623076

>  <chi1_C>
8.6910715

>  <chiral>
0

>  <chiral_u>
0

>  <density>
0.63825572

>  <diameter>
9

>  <FCharge>
0

>  <GCUT_PEOE_0>
-0.86320031

>  <GCUT_PEOE_1>
-0.35835391

>  <GCUT_PEOE_2>
0.061373021

>  <GCUT_PEOE_3>
2.6255369

>  <GCUT_SLOGP_0>
-0.9530611

>  <GCUT_SLOGP_1>
-0.26306826

>  <GCUT_SLOGP_2>
0.14149922

>  <GCUT_SLOGP_3>
2.7642262

>  <GCUT_SMR_0>
-0.51701045

>  <GCUT_SMR_1>
-0.18678591

>  <GCUT_SMR_2>
0.16690931

>  <GCUT_SMR_3>
2.9357684

>  <Kier1>
15.879017

>  <Kier2>
7.5130072

>  <Kier3>
3.8548484

>  <KierA1>
11.485277

>  <KierA2>
5.3384519

>  <KierA3>
2.7018201

>  <KierFlex>
2.9196951

>  <lip_acc>
1

>  <lip_don>
0

>  <lip_druglike>
1

>  <lip_violation>
0

>  <logP(o/w)>
5.0250001

>  <logS>
-4.0233402

>  <mr>
8.9097433

>  <mutagenic>
0

>  <nmol>
1

>  <opr_brigid>
18

>  <opr_leadlike>
1

>  <opr_nring>
3

>  <opr_nrot>
3

>  <opr_violation>
0

>  <PC+>
0

>  <PC->
0

>  <PEOE_PC+>
1.0651321

>  <PEOE_PC->
-1.0651321

>  <PEOE_RPC+>
0.058565404

>  <PEOE_RPC->
0.28921539

>  <PEOE_VSA+0>
55.846184

>  <PEOE_VSA+1>
46.919247

>  <PEOE_VSA+2>
0

>  <PEOE_VSA+3>
0

>  <PEOE_VSA+4>
0

>  <PEOE_VSA+5>
0

>  <PEOE_VSA+6>
0

>  <PEOE_VSA-0>
66.22139

>  <PEOE_VSA-1>
134.80394

>  <PEOE_VSA-2>
0

>  <PEOE_VSA-3>
0

>  <PEOE_VSA-4>
0

>  <PEOE_VSA-5>
0

>  <PEOE_VSA-6>
0

>  <PEOE_VSA_FHYD>
1

>  <PEOE_VSA_FNEG>
0.66172302

>  <PEOE_VSA_FPNEG>
0

>  <PEOE_VSA_FPOL>
0

>  <PEOE_VSA_FPOS>
0.33827701

>  <PEOE_VSA_FPPOS>
0

>  <PEOE_VSA_HYD>
303.79077

>  <PEOE_VSA_NEG>
201.02533

>  <PEOE_VSA_PNEG>
0

>  <PEOE_VSA_POL>
0

>  <PEOE_VSA_POS>
102.76543

>  <PEOE_VSA_PPOS>
0

>  <petitjean>
0.44444445

>  <petitjeanSC>
0.80000001

>  <Q_PC+>
0

>  <Q_PC->
0

>  <Q_RPC+>
0

>  <Q_RPC->
0

>  <Q_VSA_FHYD>
1

>  <Q_VSA_FNEG>
0

>  <Q_VSA_FPNEG>
0

>  <Q_VSA_FPOL>
0

>  <Q_VSA_FPOS>
1

>  <Q_VSA_FPPOS>
0

>  <Q_VSA_HYD>
303.79077

>  <Q_VSA_NEG>
0

>  <Q_VSA_PNEG>
0

>  <Q_VSA_POL>
0

>  <Q_VSA_POS>
303.79077

>  <Q_VSA_PPOS>
0

>  <radius>
5

>  <reactive>
0

>  <rings>
3

>  <RPC+>
0

>  <RPC->
0

>  <rsynth>
0

>  <SlogP>
4.3710899

>  <SlogP_VSA0>
0

>  <SlogP_VSA1>
3.1243138

>  <SlogP_VSA2>
0

>  <SlogP_VSA3>
21.625153

>  <SlogP_VSA4>
12.7423

>  <SlogP_VSA5>
65.794373

>  <SlogP_VSA6>
0

>  <SlogP_VSA7>
158.78867

>  <SlogP_VSA8>
54.154774

>  <SlogP_VSA9>
0

>  <SMR>
9.1000004

>  <SMR_VSA0>
0

>  <SMR_VSA1>
3.1243138

>  <SMR_VSA2>
3.185575

>  <SMR_VSA3>
12.7423

>  <SMR_VSA4>
0

>  <SMR_VSA5>
177.65706

>  <SMR_VSA6>
53.725948

>  <SMR_VSA7>
65.794373

>  <TPSA>
3.24

>  <VAdjEq>
0.48250595

>  <VAdjMa>
5.523562

>  <VDistEq>
3.0281317

>  <VDistMa>
8.515563

>  <vdw_area>
303.79077

>  <vdw_vol>
431.48065

>  <vsa_acc>
0

>  <vsa_acid>
0

>  <vsa_base>
0

>  <vsa_don>
0

>  <vsa_hyd>
288.84305

>  <vsa_other>
0

>  <vsa_pol>
0

>  <Weight>
275.39499

>  <weinerPath>
882

>  <weinerPol>
35

>  <zagreb>
108

$$$$