S1[C@H]2N(C(C(O)=O)=C(C1)C=CC)C(=O)[C@H]2NC(=O)[C@H](N)c1ccc(O)cc1
  MOE2013           2D

 27 29  0  0  1  0  0  0  0  0999 V2000
    0.0000    0.0000    0.0000 S   0  0  0  0  0  0  0  0  0  0  0  0
   -0.7520   -1.2980    0.0000 C   0  0  1  0  0  0  0  0  0  0  0  0
   -0.0050   -2.5980    0.0000 N   0  0  0  0  0  0  0  0  0  0  0  0
    1.4950   -2.6010    0.0000 C   0  0  0  0  0  0  0  0  0  0  0  0
    2.2430   -3.9010    0.0000 C   0  0  0  0  0  0  0  0  0  0  0  0
    3.7430   -3.9040    0.0000 O   0  0  0  0  0  0  0  0  0  0  0  0
    1.4900   -5.1990    0.0000 O   0  0  0  0  0  0  0  0  0  0  0  0
    2.2480   -1.3030    0.0000 C   0  0  0  0  0  0  0  0  0  0  0  0
    1.5000   -0.0030    0.0000 C   0  0  0  0  0  0  0  0  0  0  0  0
    3.7480   -1.3060    0.0000 C   0  0  0  0  0  0  0  0  0  0  0  0
    4.5000   -0.0080    0.0000 C   0  0  0  0  0  0  0  0  0  0  0  0
    6.0000   -0.0110    0.0000 C   0  0  0  0  0  0  0  0  0  0  0  0
   -1.3050   -3.3460    0.0000 C   0  0  0  0  0  0  0  0  0  0  0  0
   -1.6960   -4.7940    0.0000 O   0  0  0  0  0  0  0  0  0  0  0  0
   -2.0530   -2.0450    0.0000 C   0  0  1  0  0  0  0  0  0  0  0  0
   -3.5010   -1.6540    0.0000 N   0  0  0  0  0  0  0  0  0  0  0  0
   -4.5640   -2.7130    0.0000 C   0  0  0  0  0  0  0  0  0  0  0  0
   -4.1780   -4.1620    0.0000 O   0  0  0  0  0  0  0  0  0  0  0  0
   -6.0120   -2.3220    0.0000 C   0  0  2  0  0  0  0  0  0  0  0  0
   -6.3970   -0.8720    0.0000 N   0  0  0  0  0  0  0  0  0  0  0  0
   -7.0750   -3.3810    0.0000 C   0  0  0  0  0  0  0  0  0  0  0  0
   -8.5230   -2.9900    0.0000 C   0  0  0  0  0  0  0  0  0  0  0  0
   -9.5850   -4.0480    0.0000 C   0  0  0  0  0  0  0  0  0  0  0  0
   -9.2000   -5.4980    0.0000 C   0  0  0  0  0  0  0  0  0  0  0  0
  -10.2630   -6.5570    0.0000 O   0  0  0  0  0  0  0  0  0  0  0  0
   -7.7520   -5.8890    0.0000 C   0  0  0  0  0  0  0  0  0  0  0  0
   -6.6890   -4.8300    0.0000 C   0  0  0  0  0  0  0  0  0  0  0  0
  1  9  1  0  0  0  0
  2  1  1  1  0  0  0
  2  3  1  0  0  0  0
  2 15  1  0  0  0  0
  3  4  1  0  0  0  0
  3 13  1  0  0  0  0
  4  5  1  0  0  0  0
  4  8  2  0  0  0  0
  5  6  1  0  0  0  0
  5  7  2  0  0  0  0
  8  9  1  0  0  0  0
  8 10  1  0  0  0  0
 10 11  2  3  0  0  0
 11 12  1  0  0  0  0
 13 14  2  0  0  0  0
 13 15  1  0  0  0  0
 15 16  1  1  0  0  0
 16 17  1  0  0  0  0
 17 18  2  0  0  0  0
 17 19  1  0  0  0  0
 19 20  1  1  0  0  0
 19 21  1  0  0  0  0
 21 22  1  0  0  0  0
 21 27  2  0  0  0  0
 22 23  2  0  0  0  0
 23 24  1  0  0  0  0
 24 25  1  0  0  0  0
 24 26  2  0  0  0  0
 26 27  1  0  0  0  0
M  END
>  <Index>
1476

>  <ID>
HT0420

>  <class>
1

>  <apol>
54.559067

>  <ast_fraglike>
0

>  <ast_fraglike_ext>
0

>  <ast_violation>
3

>  <ast_violation_ext>
5

>  <a_acc>
6

>  <a_acid>
0

>  <a_aro>
6

>  <a_base>
0

>  <a_count>
46

>  <a_don>
5

>  <a_donacc>
11

>  <a_heavy>
27

>  <a_hyd>
16

>  <a_IC>
81.95005

>  <a_ICM>
1.7815228

>  <a_nB>
0

>  <a_nBr>
0

>  <a_nC>
18

>  <a_nCl>
0

>  <a_nF>
0

>  <a_nH>
19

>  <a_nI>
0

>  <a_nN>
3

>  <a_nO>
5

>  <a_nP>
0

>  <a_nS>
1

>  <balabanJ>
1.579458

>  <BCUT_PEOE_0>
-2.6845546

>  <BCUT_PEOE_1>
-0.64274359

>  <BCUT_PEOE_2>
0.70317298

>  <BCUT_PEOE_3>
2.7331178

>  <BCUT_SLOGP_0>
-2.8969965

>  <BCUT_SLOGP_1>
-0.57981408

>  <BCUT_SLOGP_2>
0.78610903

>  <BCUT_SLOGP_3>
2.6114233

>  <BCUT_SMR_0>
-2.3996651

>  <BCUT_SMR_1>
-0.49986199

>  <BCUT_SMR_2>
0.85431087

>  <BCUT_SMR_3>
3.015192

>  <bpol>
27.904934

>  <b_1rotN>
5

>  <b_1rotR>
0.1724138

>  <b_ar>
6

>  <b_count>
48

>  <b_double>
5

>  <b_heavy>
29

>  <b_max1len>
3

>  <b_rotN>
6

>  <b_rotR>
0.20689656

>  <b_single>
37

>  <b_triple>
0

>  <chi0>
19.714813

>  <chi0v>
15.27174

>  <chi0v_C>
10.403259

>  <chi0_C>
11.72325

>  <chi1>
12.845443

>  <chi1v>
9.2837772

>  <chi1v_C>
5.073638

>  <chi1_C>
6.6565967

>  <chiral>
3

>  <chiral_u>
0

>  <density>
0.821154

>  <diameter>
15

>  <FCharge>
0

>  <GCUT_PEOE_0>
-0.82489461

>  <GCUT_PEOE_1>
-0.41901878

>  <GCUT_PEOE_2>
0.10118989

>  <GCUT_PEOE_3>
2.6282167

>  <GCUT_SLOGP_0>
-1.3374596

>  <GCUT_SLOGP_1>
-0.39612231

>  <GCUT_SLOGP_2>
0.16445385

>  <GCUT_SLOGP_3>
2.6131606

>  <GCUT_SMR_0>
-0.52891588

>  <GCUT_SMR_1>
-0.23082197

>  <GCUT_SMR_2>
0.22666036

>  <GCUT_SMR_3>
2.9083002

>  <Kier1>
21.702734

>  <Kier2>
9.212018

>  <Kier3>
4.4518433

>  <KierA1>
17.398474

>  <KierA2>
7.3182964

>  <KierA3>
3.5128868

>  <KierFlex>
4.7158217

>  <lip_acc>
8

>  <lip_don>
5

>  <lip_druglike>
1

>  <lip_violation>
0

>  <logP(o/w)>
0.61400002

>  <logS>
-3.8141699

>  <mr>
10.019318

>  <mutagenic>
0

>  <nmol>
1

>  <opr_brigid>
16

>  <opr_leadlike>
1

>  <opr_nring>
3

>  <opr_nrot>
5

>  <opr_violation>
0

>  <PC+>
0

>  <PC->
0

>  <PEOE_PC+>
2.9552345

>  <PEOE_PC->
-2.9552345

>  <PEOE_RPC+>
0.10429818

>  <PEOE_RPC->
0.12176101

>  <PEOE_VSA+0>
32.004307

>  <PEOE_VSA+1>
46.846992

>  <PEOE_VSA+2>
35.351521

>  <PEOE_VSA+3>
8.6190128

>  <PEOE_VSA+4>
33.597878

>  <PEOE_VSA+5>
12.949531

>  <PEOE_VSA+6>
14.708499

>  <PEOE_VSA-0>
47.674564

>  <PEOE_VSA-1>
49.019615

>  <PEOE_VSA-2>
19.760618

>  <PEOE_VSA-3>
0

>  <PEOE_VSA-4>
0

>  <PEOE_VSA-5>
40.700764

>  <PEOE_VSA-6>
22.323092

>  <PEOE_VSA_FHYD>
0.6581555

>  <PEOE_VSA_FNEG>
0.49367487

>  <PEOE_VSA_FPNEG>
0.17335372

>  <PEOE_VSA_FPOL>
0.34184453

>  <PEOE_VSA_FPOS>
0.50632513

>  <PEOE_VSA_FPPOS>
0.1684908

>  <PEOE_VSA_HYD>
239.27663

>  <PEOE_VSA_NEG>
179.47865

>  <PEOE_VSA_PNEG>
63.023853

>  <PEOE_VSA_POL>
124.27976

>  <PEOE_VSA_POS>
184.07774

>  <PEOE_VSA_PPOS>
61.255905

>  <petitjean>
0.46666667

>  <petitjeanSC>
0.875

>  <Q_PC+>
0

>  <Q_PC->
0

>  <Q_RPC+>
0

>  <Q_RPC->
0

>  <Q_VSA_FHYD>
1

>  <Q_VSA_FNEG>
0

>  <Q_VSA_FPNEG>
0

>  <Q_VSA_FPOL>
0

>  <Q_VSA_FPOS>
1

>  <Q_VSA_FPPOS>
0

>  <Q_VSA_HYD>
363.5564

>  <Q_VSA_NEG>
0

>  <Q_VSA_PNEG>
0

>  <Q_VSA_POL>
0

>  <Q_VSA_POS>
363.5564

>  <Q_VSA_PPOS>
0

>  <radius>
8

>  <reactive>
0

>  <rings>
3

>  <RPC+>
0

>  <RPC->
0

>  <rsynth>
1

>  <SlogP>
0.80220002

>  <SlogP_VSA0>
76.293167

>  <SlogP_VSA1>
21.387344

>  <SlogP_VSA2>
77.915749

>  <SlogP_VSA3>
42.61879

>  <SlogP_VSA4>
3.185575

>  <SlogP_VSA5>
5.9423227

>  <SlogP_VSA6>
0

>  <SlogP_VSA7>
105.85911

>  <SlogP_VSA8>
3.9819686

>  <SlogP_VSA9>
70.788986

>  <SMR>
9.96457

>  <SMR_VSA0>
71.586647

>  <SMR_VSA1>
28.509541

>  <SMR_VSA2>
43.395977

>  <SMR_VSA3>
24.68239

>  <SMR_VSA4>
32.897186

>  <SMR_VSA5>
105.85911

>  <SMR_VSA6>
35.496597

>  <SMR_VSA7>
65.545555

>  <TPSA>
132.96001

>  <VAdjEq>
0.40063059

>  <VAdjMa>
5.8579812

>  <VDistEq>
3.584523

>  <VDistMa>
9.2044935

>  <vdw_area>
363.5564

>  <vdw_vol>
474.24966

>  <vsa_acc>
27.133842

>  <vsa_acid>
0

>  <vsa_base>
0

>  <vsa_don>
5.6825762

>  <vsa_hyd>
203.45445

>  <vsa_other>
40.607563

>  <vsa_pol>
91.259666

>  <Weight>
389.43201

>  <weinerPath>
1954

>  <weinerPol>
44

>  <zagreb>
142

$$$$