o1c(ccc1[N+](=O)[O-])C=NN1CC(=O)NC1=O
  MOE2013           2D

 17 18  0  0  0  0  0  0  0  0999 V2000
    0.0000    0.0000    0.0000 O   0  0  0  0  0  0  0  0  0  0  0  0
   -1.1920   -0.9100    0.0000 C   0  0  0  0  0  0  0  0  0  0  0  0
   -0.6950   -2.3250    0.0000 C   0  0  0  0  0  0  0  0  0  0  0  0
    0.8040   -2.2900    0.0000 C   0  0  0  0  0  0  0  0  0  0  0  0
    1.2340   -0.8530    0.0000 C   0  0  0  0  0  0  0  0  0  0  0  0
    2.6490   -0.3550    0.0000 N   0  3  0  0  0  0  0  0  0  0  0  0
    2.9260    1.1190    0.0000 O   0  0  0  0  0  0  0  0  0  0  0  0
    3.7870   -1.3320    0.0000 O   0  5  0  0  0  0  0  0  0  0  0  0
   -2.6290   -0.4810    0.0000 C   0  0  0  0  0  0  0  0  0  0  0  0
   -3.7200   -1.5100    0.0000 N   0  0  0  0  0  0  0  0  0  0  0  0
   -5.1570   -1.0810    0.0000 N   0  0  0  0  0  0  0  0  0  0  0  0
   -5.6540    0.3340    0.0000 C   0  0  0  0  0  0  0  0  0  0  0  0
   -7.1540    0.2990    0.0000 C   0  0  0  0  0  0  0  0  0  0  0  0
   -8.0640    1.4910    0.0000 O   0  0  0  0  0  0  0  0  0  0  0  0
   -7.5840   -1.1380    0.0000 N   0  0  0  0  0  0  0  0  0  0  0  0
   -6.3500   -1.9910    0.0000 C   0  0  0  0  0  0  0  0  0  0  0  0
   -6.3140   -3.4910    0.0000 O   0  0  0  0  0  0  0  0  0  0  0  0
  1  2  1  0  0  0  0
  1  5  1  0  0  0  0
  2  3  2  0  0  0  0
  2  9  1  0  0  0  0
  3  4  1  0  0  0  0
  4  5  2  0  0  0  0
  5  6  1  0  0  0  0
  6  7  2  0  0  0  0
  6  8  1  0  0  0  0
  9 10  2  3  0  0  0
 10 11  1  0  0  0  0
 11 12  1  0  0  0  0
 11 16  1  0  0  0  0
 12 13  1  0  0  0  0
 13 14  2  0  0  0  0
 13 15  1  0  0  0  0
 15 16  1  0  0  0  0
 16 17  2  0  0  0  0
M  CHG  1   6   1
M  CHG  1   8  -1
M  END
>  <Index>
1669

>  <ID>
HT1507

>  <class>
1

>  <apol>
26.490759

>  <ast_fraglike>
1

>  <ast_fraglike_ext>
1

>  <ast_violation>
0

>  <ast_violation_ext>
0

>  <a_acc>
3

>  <a_acid>
0

>  <a_aro>
5

>  <a_base>
0

>  <a_count>
23

>  <a_don>
1

>  <a_donacc>
4

>  <a_heavy>
17

>  <a_hyd>
4

>  <a_IC>
44.922508

>  <a_ICM>
1.9531525

>  <a_nB>
0

>  <a_nBr>
0

>  <a_nC>
8

>  <a_nCl>
0

>  <a_nF>
0

>  <a_nH>
6

>  <a_nI>
0

>  <a_nN>
4

>  <a_nO>
5

>  <a_nP>
0

>  <a_nS>
0

>  <balabanJ>
1.702039

>  <BCUT_PEOE_0>
-2.2202516

>  <BCUT_PEOE_1>
-0.59392488

>  <BCUT_PEOE_2>
0.56629699

>  <BCUT_PEOE_3>
2.4971802

>  <BCUT_SLOGP_0>
-2.4317009

>  <BCUT_SLOGP_1>
-0.55919415

>  <BCUT_SLOGP_2>
0.72595739

>  <BCUT_SLOGP_3>
2.2880433

>  <BCUT_SMR_0>
-1.9834102

>  <BCUT_SMR_1>
-0.38195252

>  <BCUT_SMR_2>
0.81024164

>  <BCUT_SMR_3>
2.7451103

>  <bpol>
14.287242

>  <b_1rotN>
3

>  <b_1rotR>
0.16666667

>  <b_ar>
5

>  <b_count>
24

>  <b_double>
4

>  <b_heavy>
18

>  <b_max1len>
2

>  <b_rotN>
3

>  <b_rotR>
0.16666667

>  <b_single>
15

>  <b_triple>
0

>  <chi0>
12.413849

>  <chi0v>
8.3220396

>  <chi0v_C>
4.4391575

>  <chi0_C>
5.1378284

>  <chi1>
8.0585508

>  <chi1v>
4.4561973

>  <chi1v_C>
1.5529121

>  <chi1_C>
2.1329932

>  <chiral>
0

>  <chiral_u>
0

>  <density>
0.95460296

>  <diameter>
10

>  <FCharge>
0

>  <GCUT_PEOE_0>
-0.77950418

>  <GCUT_PEOE_1>
-0.4950569

>  <GCUT_PEOE_2>
0.09673816

>  <GCUT_PEOE_3>
2.1899557

>  <GCUT_SLOGP_0>
-1.1766242

>  <GCUT_SLOGP_1>
-0.38112402

>  <GCUT_SLOGP_2>
0.20311861

>  <GCUT_SLOGP_3>
2.1417439

>  <GCUT_SMR_0>
-0.49477077

>  <GCUT_SMR_1>
-0.21997525

>  <GCUT_SMR_2>
0.27883777

>  <GCUT_SMR_3>
2.418484

>  <Kier1>
13.432098

>  <Kier2>
5.7600002

>  <Kier3>
3.4844444

>  <KierA1>
8.8852749

>  <KierA2>
3.7009585

>  <KierA3>
2.1870878

>  <KierFlex>
1.9343548

>  <lip_acc>
9

>  <lip_don>
1

>  <lip_druglike>
1

>  <lip_violation>
0

>  <logP(o/w)>
0.233

>  <logS>
-2.89469

>  <mr>
5.1944313

>  <mutagenic>
1

>  <nmol>
1

>  <opr_brigid>
11

>  <opr_leadlike>
1

>  <opr_nring>
2

>  <opr_nrot>
3

>  <opr_violation>
1

>  <PC+>
0

>  <PC->
0

>  <PEOE_PC+>
2.1692004

>  <PEOE_PC->
-2.1692004

>  <PEOE_RPC+>
0.20472626

>  <PEOE_RPC->
0.16440573

>  <PEOE_VSA+0>
12.254904

>  <PEOE_VSA+1>
33.581833

>  <PEOE_VSA+2>
29.93824

>  <PEOE_VSA+3>
8.6190128

>  <PEOE_VSA+4>
0

>  <PEOE_VSA+5>
21.408051

>  <PEOE_VSA+6>
30.390074

>  <PEOE_VSA-0>
4.0280342

>  <PEOE_VSA-1>
0

>  <PEOE_VSA-2>
0

>  <PEOE_VSA-3>
9.4210396

>  <PEOE_VSA-4>
13.566921

>  <PEOE_VSA-5>
16.207567

>  <PEOE_VSA-6>
33.931049

>  <PEOE_VSA_FHYD>
0.45861056

>  <PEOE_VSA_FNEG>
0.36163953

>  <PEOE_VSA_FPNEG>
0.29860097

>  <PEOE_VSA_FPOL>
0.54138941

>  <PEOE_VSA_FPOS>
0.63836044

>  <PEOE_VSA_FPPOS>
0.24278846

>  <PEOE_VSA_HYD>
97.843063

>  <PEOE_VSA_NEG>
77.15461

>  <PEOE_VSA_PNEG>
63.705536

>  <PEOE_VSA_POL>
115.50366

>  <PEOE_VSA_POS>
136.19211

>  <PEOE_VSA_PPOS>
51.798122

>  <petitjean>
0.5

>  <petitjeanSC>
1

>  <Q_PC+>
0

>  <Q_PC->
0

>  <Q_RPC+>
0

>  <Q_RPC->
0

>  <Q_VSA_FHYD>
1

>  <Q_VSA_FNEG>
0

>  <Q_VSA_FPNEG>
0

>  <Q_VSA_FPOL>
0

>  <Q_VSA_FPOS>
1

>  <Q_VSA_FPPOS>
0

>  <Q_VSA_HYD>
213.34673

>  <Q_VSA_NEG>
0

>  <Q_VSA_PNEG>
0

>  <Q_VSA_POL>
0

>  <Q_VSA_POS>
213.34673

>  <Q_VSA_PPOS>
0

>  <radius>
5

>  <reactive>
1

>  <rings>
2

>  <RPC+>
0

>  <RPC->
0

>  <rsynth>
1

>  <SlogP>
0.0735

>  <SlogP_VSA0>
18.01075

>  <SlogP_VSA1>
20.176147

>  <SlogP_VSA2>
41.076572

>  <SlogP_VSA3>
69.374588

>  <SlogP_VSA4>
5.4488211

>  <SlogP_VSA5>
26.170353

>  <SlogP_VSA6>
0

>  <SlogP_VSA7>
35.286369

>  <SlogP_VSA8>
0

>  <SlogP_VSA9>
28.88221

>  <SMR>
5.3201098

>  <SMR_VSA0>
64.317398

>  <SMR_VSA1>
19.664799

>  <SMR_VSA2>
68.945755

>  <SMR_VSA3>
5.4488211

>  <SMR_VSA4>
5.0199933

>  <SMR_VSA5>
35.286369

>  <SMR_VSA6>
28.528318

>  <SMR_VSA7>
17.214357

>  <TPSA>
120.73

>  <VAdjEq>
0.54234898

>  <VAdjMa>
5.1699252

>  <VDistEq>
3.1447961

>  <VDistMa>
7.836596

>  <vdw_area>
213.34673

>  <vdw_vol>
249.48486

>  <vsa_acc>
36.554882

>  <vsa_acid>
0

>  <vsa_base>
0

>  <vsa_don>
5.6825762

>  <vsa_hyd>
55.94453

>  <vsa_other>
108.53243

>  <vsa_pol>
42.237457

>  <Weight>
238.159

>  <weinerPath>
580

>  <weinerPol>
20

>  <zagreb>
86

$$$$