O=C1c2ccc(nc2N(C=C1C(O)=O)CC)C
  MOE2013           2D

 17 18  0  0  1  0  0  0  0  0999 V2000
    0.0000    0.0000    0.0000 O   0  0  0  0  0  0  0  0  0  0  0  0
    0.7430    1.3030    0.0000 C   0  0  0  0  0  0  0  0  0  0  0  0
    2.2430    1.3110    0.0000 C   0  0  0  0  0  0  0  0  0  0  0  0
    3.0000    0.0170    0.0000 C   0  0  0  0  0  0  0  0  0  0  0  0
    4.5000    0.0250    0.0000 C   0  0  0  0  0  0  0  0  0  0  0  0
    5.2430    1.3280    0.0000 C   0  0  0  0  0  0  0  0  0  0  0  0
    4.4860    2.6230    0.0000 N   0  0  0  0  0  0  0  0  0  0  0  0
    2.9860    2.6150    0.0000 C   0  0  0  0  0  0  0  0  0  0  0  0
    2.2290    3.9090    0.0000 N   0  0  3  0  0  0  0  0  0  0  0  0
    0.7290    3.9010    0.0000 C   0  0  0  0  0  0  0  0  0  0  0  0
   -0.0140    2.5980    0.0000 C   0  0  0  0  0  0  0  0  0  0  0  0
   -1.5140    2.5900    0.0000 C   0  0  0  0  0  0  0  0  0  0  0  0
   -2.2710    3.8850    0.0000 O   0  0  0  0  0  0  0  0  0  0  0  0
   -2.2570    1.2870    0.0000 O   0  0  0  0  0  0  0  0  0  0  0  0
    2.9710    5.2130    0.0000 C   0  0  0  0  0  0  0  0  0  0  0  0
    2.2140    6.5070    0.0000 C   0  0  0  0  0  0  0  0  0  0  0  0
    6.7430    1.3360    0.0000 C   0  0  0  0  0  0  0  0  0  0  0  0
  1  2  2  0  0  0  0
  2  3  1  0  0  0  0
  2 11  1  0  0  0  0
  3  4  1  0  0  0  0
  3  8  2  0  0  0  0
  4  5  2  0  0  0  0
  5  6  1  0  0  0  0
  6  7  2  0  0  0  0
  6 17  1  0  0  0  0
  7  8  1  0  0  0  0
  8  9  1  0  0  0  0
  9 10  1  0  0  0  0
  9 15  1  0  0  0  0
 10 11  2  0  0  0  0
 11 12  1  0  0  0  0
 12 13  1  0  0  0  0
 12 14  2  0  0  0  0
 15 16  1  0  0  0  0
M  END
>  <Index>
1664

>  <ID>
HT1456

>  <class>
1

>  <apol>
33.727516

>  <ast_fraglike>
0

>  <ast_fraglike_ext>
0

>  <ast_violation>
1

>  <ast_violation_ext>
1

>  <a_acc>
4

>  <a_acid>
0

>  <a_aro>
6

>  <a_base>
0

>  <a_count>
29

>  <a_don>
2

>  <a_donacc>
6

>  <a_heavy>
17

>  <a_hyd>
9

>  <a_IC>
48.08746

>  <a_ICM>
1.6581883

>  <a_nB>
0

>  <a_nBr>
0

>  <a_nC>
12

>  <a_nCl>
0

>  <a_nF>
0

>  <a_nH>
12

>  <a_nI>
0

>  <a_nN>
2

>  <a_nO>
3

>  <a_nP>
0

>  <a_nS>
0

>  <balabanJ>
2.162838

>  <BCUT_PEOE_0>
-2.4954002

>  <BCUT_PEOE_1>
-0.52441311

>  <BCUT_PEOE_2>
0.51580411

>  <BCUT_PEOE_3>
2.456486

>  <BCUT_SLOGP_0>
-2.5341682

>  <BCUT_SLOGP_1>
-0.49504146

>  <BCUT_SLOGP_2>
0.51487356

>  <BCUT_SLOGP_3>
2.4640496

>  <BCUT_SMR_0>
-2.2059402

>  <BCUT_SMR_1>
-0.30786291

>  <BCUT_SMR_2>
0.68476462

>  <BCUT_SMR_3>
2.7552049

>  <bpol>
18.334484

>  <b_1rotN>
2

>  <b_1rotR>
0.11111111

>  <b_ar>
6

>  <b_count>
30

>  <b_double>
3

>  <b_heavy>
18

>  <b_max1len>
3

>  <b_rotN>
2

>  <b_rotR>
0.11111111

>  <b_single>
21

>  <b_triple>
0

>  <chi0>
12.576985

>  <chi0v>
9.5972948

>  <chi0v_C>
7.4391575

>  <chi0_C>
8.2925291

>  <chi1>
8.0409126

>  <chi1v>
5.2835674

>  <chi1v_C>
3.4064655

>  <chi1_C>
4.342535

>  <chiral>
0

>  <chiral_u>
0

>  <density>
0.77468878

>  <diameter>
8

>  <FCharge>
0

>  <GCUT_PEOE_0>
-0.80557245

>  <GCUT_PEOE_1>
-0.46330404

>  <GCUT_PEOE_2>
0.063839339

>  <GCUT_PEOE_3>
2.4175646

>  <GCUT_SLOGP_0>
-0.94483024

>  <GCUT_SLOGP_1>
-0.37907791

>  <GCUT_SLOGP_2>
0.075625733

>  <GCUT_SLOGP_3>
2.4552777

>  <GCUT_SMR_0>
-0.50736779

>  <GCUT_SMR_1>
-0.2130059

>  <GCUT_SMR_2>
0.20795289

>  <GCUT_SMR_3>
2.7018373

>  <Kier1>
13.432098

>  <Kier2>
5.3254437

>  <Kier3>
2.5599999

>  <KierA1>
9.3622561

>  <KierA2>
3.6196055

>  <KierA3>
1.7051905

>  <KierFlex>
1.9933926

>  <lip_acc>
5

>  <lip_don>
1

>  <lip_druglike>
1

>  <lip_violation>
0

>  <logP(o/w)>
0.75999999

>  <logS>
-1.7377599

>  <mr>
6.2170696

>  <mutagenic>
0

>  <nmol>
1

>  <opr_brigid>
11

>  <opr_leadlike>
1

>  <opr_nring>
2

>  <opr_nrot>
2

>  <opr_violation>
0

>  <PC+>
0

>  <PC->
0

>  <PEOE_PC+>
1.5065025

>  <PEOE_PC->
-1.5065025

>  <PEOE_RPC+>
0.19643527

>  <PEOE_RPC->
0.21730745

>  <PEOE_VSA+0>
70.76088

>  <PEOE_VSA+1>
15.004698

>  <PEOE_VSA+2>
13.399102

>  <PEOE_VSA+3>
0

>  <PEOE_VSA+4>
18.782692

>  <PEOE_VSA+5>
14.708499

>  <PEOE_VSA+6>
0

>  <PEOE_VSA-0>
43.257484

>  <PEOE_VSA-1>
18.747677

>  <PEOE_VSA-2>
0

>  <PEOE_VSA-3>
0

>  <PEOE_VSA-4>
5.6825762

>  <PEOE_VSA-5>
27.133842

>  <PEOE_VSA-6>
7.7675405

>  <PEOE_VSA_FHYD>
0.68511486

>  <PEOE_VSA_FNEG>
0.43609482

>  <PEOE_VSA_FPNEG>
0.17251784

>  <PEOE_VSA_FPOL>
0.31488514

>  <PEOE_VSA_FPOS>
0.56390518

>  <PEOE_VSA_FPPOS>
0.14236729

>  <PEOE_VSA_HYD>
161.16985

>  <PEOE_VSA_NEG>
102.58912

>  <PEOE_VSA_PNEG>
40.583958

>  <PEOE_VSA_POL>
74.07515

>  <PEOE_VSA_POS>
132.65587

>  <PEOE_VSA_PPOS>
33.491192

>  <petitjean>
0.5

>  <petitjeanSC>
1

>  <Q_PC+>
0

>  <Q_PC->
0

>  <Q_RPC+>
0

>  <Q_RPC->
0

>  <Q_VSA_FHYD>
1

>  <Q_VSA_FNEG>
0

>  <Q_VSA_FPNEG>
0

>  <Q_VSA_FPOL>
0

>  <Q_VSA_FPOS>
1

>  <Q_VSA_FPPOS>
0

>  <Q_VSA_HYD>
235.245

>  <Q_VSA_NEG>
0

>  <Q_VSA_PNEG>
0

>  <Q_VSA_POL>
0

>  <Q_VSA_POS>
235.245

>  <Q_VSA_PPOS>
0

>  <radius>
4

>  <reactive>
0

>  <rings>
2

>  <RPC+>
0

>  <RPC->
0

>  <rsynth>
1

>  <SlogP>
1.38112

>  <SlogP_VSA0>
3.1243138

>  <SlogP_VSA1>
30.218605

>  <SlogP_VSA2>
23.862217

>  <SlogP_VSA3>
43.824806

>  <SlogP_VSA4>
29.804539

>  <SlogP_VSA5>
3.185575

>  <SlogP_VSA6>
0

>  <SlogP_VSA7>
52.500725

>  <SlogP_VSA8>
0

>  <SlogP_VSA9>
68.97995

>  <SMR>
6.20433

>  <SMR_VSA0>
47.724434

>  <SMR_VSA1>
16.78553

>  <SMR_VSA2>
28.509541

>  <SMR_VSA3>
9.1278973

>  <SMR_VSA4>
2.3279202

>  <SMR_VSA5>
52.500725

>  <SMR_VSA6>
31.872654

>  <SMR_VSA7>
66.652031

>  <TPSA>
70.5

>  <VAdjEq>
0.54234898

>  <VAdjMa>
5.1699252

>  <VDistEq>
2.7008748

>  <VDistMa>
7.9123545

>  <vdw_area>
235.245

>  <vdw_vol>
299.7836

>  <vsa_acc>
19.249496

>  <vsa_acid>
0

>  <vsa_base>
0

>  <vsa_don>
0

>  <vsa_hyd>
142.14954

>  <vsa_other>
34.357582

>  <vsa_pol>
46.383339

>  <Weight>
232.239

>  <weinerPath>
470

>  <weinerPol>
29

>  <zagreb>
88

$$$$