S(=O)(C)c1ccc(cc1)C=C/1c2c(cc(F)cc2)C(CC(O)=O)=C1C
  MOE2013           2D

 25 27  0  0  1  0  0  0  0  0999 V2000
    0.0000    0.0000    0.0000 S   0  0  3  0  0  0  0  0  0  0  0  0
    0.7420   -1.3040    0.0000 O   0  0  0  0  0  0  0  0  0  0  0  0
    0.7580    1.2940    0.0000 C   0  0  0  0  0  0  0  0  0  0  0  0
   -1.5000    0.0100    0.0000 C   0  0  0  0  0  0  0  0  0  0  0  0
   -2.2580   -1.2850    0.0000 C   0  0  0  0  0  0  0  0  0  0  0  0
   -3.7580   -1.2750    0.0000 C   0  0  0  0  0  0  0  0  0  0  0  0
   -4.5000    0.0290    0.0000 C   0  0  0  0  0  0  0  0  0  0  0  0
   -3.7420    1.3230    0.0000 C   0  0  0  0  0  0  0  0  0  0  0  0
   -2.2420    1.3130    0.0000 C   0  0  0  0  0  0  0  0  0  0  0  0
   -6.0000    0.0380    0.0000 C   0  0  0  0  0  0  0  0  0  0  0  0
   -6.7420    1.3420    0.0000 C   0  0  0  0  0  0  0  0  0  0  0  0
   -8.2320    1.5080    0.0000 C   0  0  0  0  0  0  0  0  0  0  0  0
   -8.5350    2.9770    0.0000 C   0  0  0  0  0  0  0  0  0  0  0  0
   -9.9580    3.4500    0.0000 C   0  0  0  0  0  0  0  0  0  0  0  0
  -11.0800    2.4530    0.0000 C   0  0  0  0  0  0  0  0  0  0  0  0
  -12.5030    2.9260    0.0000 F   0  0  0  0  0  0  0  0  0  0  0  0
  -10.7770    0.9840    0.0000 C   0  0  0  0  0  0  0  0  0  0  0  0
   -9.3530    0.5120    0.0000 C   0  0  0  0  0  0  0  0  0  0  0  0
   -7.2310    3.7190    0.0000 C   0  0  0  0  0  0  0  0  0  0  0  0
   -7.0650    5.2100    0.0000 C   0  0  0  0  0  0  0  0  0  0  0  0
   -8.2730    6.0990    0.0000 C   0  0  0  0  0  0  0  0  0  0  0  0
   -8.1060    7.5900    0.0000 O   0  0  0  0  0  0  0  0  0  0  0  0
   -9.6470    5.4980    0.0000 O   0  0  0  0  0  0  0  0  0  0  0  0
   -6.1230    2.7080    0.0000 C   0  0  0  0  0  0  0  0  0  0  0  0
   -4.6540    3.0110    0.0000 C   0  0  0  0  0  0  0  0  0  0  0  0
  1  2  2  0  0  0  0
  1  3  1  0  0  0  0
  1  4  1  0  0  0  0
  4  5  1  0  0  0  0
  4  9  2  0  0  0  0
  5  6  2  0  0  0  0
  6  7  1  0  0  0  0
  7  8  2  0  0  0  0
  7 10  1  0  0  0  0
  8  9  1  0  0  0  0
 10 11  2  3  0  0  0
 11 12  1  0  0  0  0
 11 24  1  0  0  0  0
 12 13  1  0  0  0  0
 12 18  2  0  0  0  0
 13 14  2  0  0  0  0
 13 19  1  0  0  0  0
 14 15  1  0  0  0  0
 15 16  1  0  0  0  0
 15 17  2  0  0  0  0
 17 18  1  0  0  0  0
 19 20  1  0  0  0  0
 19 24  2  0  0  0  0
 20 21  1  0  0  0  0
 21 22  1  0  0  0  0
 21 23  2  0  0  0  0
 24 25  1  0  0  0  0
M  END
>  <Index>
1729

>  <ID>
HT1960

>  <class>
1

>  <apol>
52.398479

>  <ast_fraglike>
0

>  <ast_fraglike_ext>
0

>  <ast_violation>
2

>  <ast_violation_ext>
3

>  <a_acc>
3

>  <a_acid>
0

>  <a_aro>
12

>  <a_base>
0

>  <a_count>
42

>  <a_don>
2

>  <a_donacc>
5

>  <a_heavy>
25

>  <a_hyd>
20

>  <a_IC>
65.797012

>  <a_ICM>
1.5665956

>  <a_nB>
0

>  <a_nBr>
0

>  <a_nC>
20

>  <a_nCl>
0

>  <a_nF>
1

>  <a_nH>
17

>  <a_nI>
0

>  <a_nN>
0

>  <a_nO>
3

>  <a_nP>
0

>  <a_nS>
1

>  <balabanJ>
1.6451968

>  <BCUT_PEOE_0>
-2.3215072

>  <BCUT_PEOE_1>
-0.63454574

>  <BCUT_PEOE_2>
0.63816911

>  <BCUT_PEOE_3>
2.4442432

>  <BCUT_SLOGP_0>
-2.2978144

>  <BCUT_SLOGP_1>
-0.52130526

>  <BCUT_SLOGP_2>
0.80308008

>  <BCUT_SLOGP_3>
2.5969219

>  <BCUT_SMR_0>
-2.0376923

>  <BCUT_SMR_1>
-0.45565376

>  <BCUT_SMR_2>
0.84914166

>  <BCUT_SMR_3>
2.7706077

>  <bpol>
25.12352

>  <b_1rotN>
4

>  <b_1rotR>
0.14814815

>  <b_ar>
12

>  <b_count>
44

>  <b_double>
3

>  <b_heavy>
27

>  <b_max1len>
3

>  <b_rotN>
4

>  <b_rotR>
0.14814815

>  <b_single>
29

>  <b_triple>
0

>  <chi0>
18.137465

>  <chi0v>
14.692328

>  <chi0v_C>
11.825909

>  <chi0_C>
13.560114

>  <chi1>
11.863081

>  <chi1v>
9.2976885

>  <chi1v_C>
6.3438582

>  <chi1_C>
8.6429968

>  <chiral>
0

>  <chiral_u>
0

>  <density>
0.77963698

>  <diameter>
12

>  <FCharge>
0

>  <GCUT_PEOE_0>
-0.86485541

>  <GCUT_PEOE_1>
-0.44748348

>  <GCUT_PEOE_2>
0.065606244

>  <GCUT_PEOE_3>
2.6067877

>  <GCUT_SLOGP_0>
-0.87251592

>  <GCUT_SLOGP_1>
-0.28231773

>  <GCUT_SLOGP_2>
0.13841945

>  <GCUT_SLOGP_3>
2.7534993

>  <GCUT_SMR_0>
-0.47598627

>  <GCUT_SMR_1>
-0.19713652

>  <GCUT_SMR_2>
0.20311292

>  <GCUT_SMR_3>
2.9211569

>  <Kier1>
19.753086

>  <Kier2>
8.3471403

>  <Kier3>
4.4659748

>  <KierA1>
15.396119

>  <KierA2>
6.4337578

>  <KierA3>
3.4135094

>  <KierFlex>
3.9621961

>  <lip_acc>
3

>  <lip_don>
1

>  <lip_druglike>
1

>  <lip_violation>
0

>  <logP(o/w)>
3.3699999

>  <logS>
-5.3863201

>  <mr>
9.7718754

>  <mutagenic>
0

>  <nmol>
1

>  <opr_brigid>
17

>  <opr_leadlike>
1

>  <opr_nring>
3

>  <opr_nrot>
4

>  <opr_violation>
0

>  <PC+>
0

>  <PC->
0

>  <PEOE_PC+>
1.8466655

>  <PEOE_PC->
-1.8466655

>  <PEOE_RPC+>
0.14294463

>  <PEOE_RPC->
0.33215329

>  <PEOE_VSA+0>
21.326929

>  <PEOE_VSA+1>
55.62056

>  <PEOE_VSA+2>
29.744585

>  <PEOE_VSA+3>
4.1846013

>  <PEOE_VSA+4>
10.324173

>  <PEOE_VSA+5>
14.708499

>  <PEOE_VSA+6>
0

>  <PEOE_VSA-0>
130.91995

>  <PEOE_VSA-1>
12.254904

>  <PEOE_VSA-2>
0

>  <PEOE_VSA-3>
0

>  <PEOE_VSA-4>
11.908636

>  <PEOE_VSA-5>
13.566921

>  <PEOE_VSA-6>
23.775803

>  <PEOE_VSA_FHYD>
0.77375573

>  <PEOE_VSA_FNEG>
0.58606571

>  <PEOE_VSA_FPNEG>
0.15000312

>  <PEOE_VSA_FPOL>
0.22624424

>  <PEOE_VSA_FPOS>
0.41393429

>  <PEOE_VSA_FPPOS>
0.076241121

>  <PEOE_VSA_HYD>
254.05153

>  <PEOE_VSA_NEG>
192.42621

>  <PEOE_VSA_PNEG>
49.251358

>  <PEOE_VSA_POL>
74.284027

>  <PEOE_VSA_POS>
135.90935

>  <PEOE_VSA_PPOS>
25.032671

>  <petitjean>
0.5

>  <petitjeanSC>
1

>  <Q_PC+>
0

>  <Q_PC->
0

>  <Q_RPC+>
0

>  <Q_RPC->
0

>  <Q_VSA_FHYD>
1

>  <Q_VSA_FNEG>
0

>  <Q_VSA_FPNEG>
0

>  <Q_VSA_FPOL>
0

>  <Q_VSA_FPOS>
1

>  <Q_VSA_FPPOS>
0

>  <Q_VSA_HYD>
328.33557

>  <Q_VSA_NEG>
0

>  <Q_VSA_PNEG>
0

>  <Q_VSA_POL>
0

>  <Q_VSA_POS>
328.33557

>  <Q_VSA_PPOS>
0

>  <radius>
6

>  <reactive>
0

>  <rings>
3

>  <RPC+>
0

>  <RPC->
0

>  <rsynth>
0.12

>  <SlogP>
4.3655

>  <SlogP_VSA0>
0

>  <SlogP_VSA1>
31.831308

>  <SlogP_VSA2>
52.532639

>  <SlogP_VSA3>
25.385227

>  <SlogP_VSA4>
9.5567245

>  <SlogP_VSA5>
36.427483

>  <SlogP_VSA6>
0

>  <SlogP_VSA7>
129.87344

>  <SlogP_VSA8>
36.511589

>  <SlogP_VSA9>
48.286129

>  <SMR>
9.7892199

>  <SMR_VSA0>
47.948059

>  <SMR_VSA1>
14.960114

>  <SMR_VSA2>
36.05698

>  <SMR_VSA3>
12.7423

>  <SMR_VSA4>
6.37115

>  <SMR_VSA5>
142.3707

>  <SMR_VSA6>
25.388649

>  <SMR_VSA7>
84.566589

>  <TPSA>
73.580002

>  <VAdjEq>
0.42433795

>  <VAdjMa>
5.7548876

>  <VDistEq>
3.3997183

>  <VDistMa>
8.9949522

>  <vdw_area>
328.33557

>  <vdw_vol>
457.15765

>  <vsa_acc>
16.008261

>  <vsa_acid>
0

>  <vsa_base>
0

>  <vsa_don>
0

>  <vsa_hyd>
241.43474

>  <vsa_other>
27.845207

>  <vsa_pol>
43.142105

>  <Weight>
356.41699

>  <weinerPath>
1517

>  <weinerPol>
40

>  <zagreb>
132

$$$$