S(=O)(Cc1ncc(C)c(OC)c1C)c1[nH]c2c(n1)cc(OC)cc2
  MOE2013           2D

 24 26  0  0  1  0  0  0  0  0999 V2000
    0.0000    0.0000    0.0000 S   0  0  3  0  0  0  0  0  0  0  0  0
   -0.7610   -1.2930    0.0000 O   0  0  0  0  0  0  0  0  0  0  0  0
   -0.7390    1.3050    0.0000 C   0  0  0  0  0  0  0  0  0  0  0  0
   -2.2390    1.3180    0.0000 C   0  0  0  0  0  0  0  0  0  0  0  0
   -3.0000    0.0250    0.0000 N   0  0  0  0  0  0  0  0  0  0  0  0
   -4.5000    0.0380    0.0000 C   0  0  0  0  0  0  0  0  0  0  0  0
   -5.2390    1.3430    0.0000 C   0  0  0  0  0  0  0  0  0  0  0  0
   -6.7390    1.3560    0.0000 C   0  0  0  0  0  0  0  0  0  0  0  0
   -4.4780    2.6360    0.0000 C   0  0  0  0  0  0  0  0  0  0  0  0
   -5.2170    3.9410    0.0000 O   0  0  0  0  0  0  0  0  0  0  0  0
   -6.7170    3.9540    0.0000 C   0  0  0  0  0  0  0  0  0  0  0  0
   -2.9780    2.6230    0.0000 C   0  0  0  0  0  0  0  0  0  0  0  0
   -2.2170    3.9160    0.0000 C   0  0  0  0  0  0  0  0  0  0  0  0
    1.5000   -0.0130    0.0000 C   0  0  0  0  0  0  0  0  0  0  0  0
    2.3920    1.1930    0.0000 N   0  0  0  0  0  0  0  0  0  0  0  0
    3.8140    0.7180    0.0000 C   0  0  0  0  0  0  0  0  0  0  0  0
    3.8020   -0.7820    0.0000 C   0  0  0  0  0  0  0  0  0  0  0  0
    2.3710   -1.2340    0.0000 N   0  0  0  0  0  0  0  0  0  0  0  0
    5.0940   -1.5430    0.0000 C   0  0  0  0  0  0  0  0  0  0  0  0
    6.4000   -0.8040    0.0000 C   0  0  0  0  0  0  0  0  0  0  0  0
    7.6920   -1.5650    0.0000 O   0  0  0  0  0  0  0  0  0  0  0  0
    8.9980   -0.8260    0.0000 C   0  0  0  0  0  0  0  0  0  0  0  0
    6.4120    0.6960    0.0000 C   0  0  0  0  0  0  0  0  0  0  0  0
    5.1200    1.4570    0.0000 C   0  0  0  0  0  0  0  0  0  0  0  0
  1  2  2  0  0  0  0
  1  3  1  0  0  0  0
  1 14  1  0  0  0  0
  3  4  1  0  0  0  0
  4  5  1  0  0  0  0
  4 12  2  0  0  0  0
  5  6  2  0  0  0  0
  6  7  1  0  0  0  0
  7  8  1  0  0  0  0
  7  9  2  0  0  0  0
  9 10  1  0  0  0  0
  9 12  1  0  0  0  0
 10 11  1  0  0  0  0
 12 13  1  0  0  0  0
 14 15  1  0  0  0  0
 14 18  2  0  0  0  0
 15 16  1  0  0  0  0
 16 17  1  0  0  0  0
 16 24  2  0  0  0  0
 17 18  1  0  0  0  0
 17 19  2  0  0  0  0
 19 20  1  0  0  0  0
 20 21  1  0  0  0  0
 20 23  2  0  0  0  0
 21 22  1  0  0  0  0
 23 24  1  0  0  0  0
M  END
>  <Index>
1552

>  <ID>
HT0788

>  <class>
1

>  <apol>
51.195068

>  <ast_fraglike>
0

>  <ast_fraglike_ext>
0

>  <ast_violation>
3

>  <ast_violation_ext>
4

>  <a_acc>
6

>  <a_acid>
0

>  <a_aro>
15

>  <a_base>
0

>  <a_count>
43

>  <a_don>
2

>  <a_donacc>
8

>  <a_heavy>
24

>  <a_hyd>
16

>  <a_IC>
73.622116

>  <a_ICM>
1.7121422

>  <a_nB>
0

>  <a_nBr>
0

>  <a_nC>
17

>  <a_nCl>
0

>  <a_nF>
0

>  <a_nH>
19

>  <a_nI>
0

>  <a_nN>
3

>  <a_nO>
3

>  <a_nP>
0

>  <a_nS>
1

>  <balabanJ>
1.5352314

>  <BCUT_PEOE_0>
-2.3781588

>  <BCUT_PEOE_1>
-0.56377584

>  <BCUT_PEOE_2>
0.45089063

>  <BCUT_PEOE_3>
2.4481535

>  <BCUT_SLOGP_0>
-2.3156435

>  <BCUT_SLOGP_1>
-0.50863194

>  <BCUT_SLOGP_2>
0.56897813

>  <BCUT_SLOGP_3>
2.5246389

>  <BCUT_SMR_0>
-2.1045735

>  <BCUT_SMR_1>
-0.33206865

>  <BCUT_SMR_2>
0.66446382

>  <BCUT_SMR_3>
2.7338138

>  <bpol>
32.280933

>  <b_1rotN>
5

>  <b_1rotR>
0.1923077

>  <b_ar>
16

>  <b_count>
45

>  <b_double>
0

>  <b_heavy>
26

>  <b_max1len>
3

>  <b_rotN>
5

>  <b_rotR>
0.1923077

>  <b_single>
29

>  <b_triple>
0

>  <chi0>
17.26722

>  <chi0v>
14.860425

>  <chi0v_C>
11.016508

>  <chi0_C>
12.154336

>  <chi1>
11.528407

>  <chi1v>
8.7624245

>  <chi1v_C>
4.1302624

>  <chi1_C>
5.4375238

>  <chiral>
0

>  <chiral_u>
0

>  <density>
0.77580321

>  <diameter>
13

>  <FCharge>
0

>  <GCUT_PEOE_0>
-0.84838802

>  <GCUT_PEOE_1>
-0.42562145

>  <GCUT_PEOE_2>
-0.058513351

>  <GCUT_PEOE_3>
2.5274158

>  <GCUT_SLOGP_0>
-0.88723654

>  <GCUT_SLOGP_1>
-0.31157309

>  <GCUT_SLOGP_2>
0.10341401

>  <GCUT_SLOGP_3>
2.623554

>  <GCUT_SMR_0>
-0.48655948

>  <GCUT_SMR_1>
-0.15479371

>  <GCUT_SMR_2>
0.11814021

>  <GCUT_SMR_3>
2.8099623

>  <Kier1>
18.781065

>  <Kier2>
8.1314831

>  <Kier3>
4.0655999

>  <KierA1>
15.237963

>  <KierA2>
6.5336437

>  <KierA3>
3.2439153

>  <KierFlex>
4.1483092

>  <lip_acc>
6

>  <lip_don>
1

>  <lip_druglike>
1

>  <lip_violation>
0

>  <logP(o/w)>
1.3150001

>  <logS>
-3.78087

>  <mr>
9.5173721

>  <mutagenic>
0

>  <nmol>
1

>  <opr_brigid>
16

>  <opr_leadlike>
1

>  <opr_nring>
3

>  <opr_nrot>
5

>  <opr_violation>
0

>  <PC+>
0

>  <PC->
0

>  <PEOE_PC+>
2.1819289

>  <PEOE_PC->
-2.1819289

>  <PEOE_RPC+>
0.14885092

>  <PEOE_RPC->
0.27986419

>  <PEOE_VSA+0>
107.67879

>  <PEOE_VSA+1>
88.200325

>  <PEOE_VSA+2>
0

>  <PEOE_VSA+3>
19.296389

>  <PEOE_VSA+4>
0

>  <PEOE_VSA+5>
0

>  <PEOE_VSA+6>
13.166624

>  <PEOE_VSA-0>
76.468605

>  <PEOE_VSA-1>
0

>  <PEOE_VSA-2>
0

>  <PEOE_VSA-3>
5.6825762

>  <PEOE_VSA-4>
0

>  <PEOE_VSA-5>
5.8194671

>  <PEOE_VSA-6>
21.015774

>  <PEOE_VSA_FHYD>
0.88141572

>  <PEOE_VSA_FNEG>
0.32308686

>  <PEOE_VSA_FPNEG>
0.079552233

>  <PEOE_VSA_FPOL>
0.11858428

>  <PEOE_VSA_FPOS>
0.67691314

>  <PEOE_VSA_FPPOS>
0.039032049

>  <PEOE_VSA_HYD>
297.32669

>  <PEOE_VSA_NEG>
108.98643

>  <PEOE_VSA_PNEG>
26.835241

>  <PEOE_VSA_POL>
40.001865

>  <PEOE_VSA_POS>
228.34213

>  <PEOE_VSA_PPOS>
13.166624

>  <petitjean>
0.46153846

>  <petitjeanSC>
0.85714287

>  <Q_PC+>
0

>  <Q_PC->
0

>  <Q_RPC+>
0

>  <Q_RPC->
0

>  <Q_VSA_FHYD>
1

>  <Q_VSA_FNEG>
0

>  <Q_VSA_FPNEG>
0

>  <Q_VSA_FPOL>
0

>  <Q_VSA_FPOS>
1

>  <Q_VSA_FPPOS>
0

>  <Q_VSA_HYD>
337.32855

>  <Q_VSA_NEG>
0

>  <Q_VSA_PNEG>
0

>  <Q_VSA_POL>
0

>  <Q_VSA_POS>
337.32855

>  <Q_VSA_PPOS>
0

>  <radius>
7

>  <reactive>
0

>  <rings>
3

>  <RPC+>
0

>  <RPC->
0

>  <rsynth>
1

>  <SlogP>
3.1661401

>  <SlogP_VSA0>
21.999775

>  <SlogP_VSA1>
57.656902

>  <SlogP_VSA2>
36.334934

>  <SlogP_VSA3>
0

>  <SlogP_VSA4>
9.1278973

>  <SlogP_VSA5>
71.460815

>  <SlogP_VSA6>
0

>  <SlogP_VSA7>
74.432182

>  <SlogP_VSA8>
0

>  <SlogP_VSA9>
94.372452

>  <SMR>
9.3226099

>  <SMR_VSA0>
24.085844

>  <SMR_VSA1>
55.570835

>  <SMR_VSA2>
17.478609

>  <SMR_VSA3>
19.614754

>  <SMR_VSA4>
4.2882738

>  <SMR_VSA5>
87.377472

>  <SMR_VSA6>
0

>  <SMR_VSA7>
156.96918

>  <TPSA>
96.309998

>  <VAdjEq>
0.43739632

>  <VAdjMa>
5.7004399

>  <VDistEq>
3.4547644

>  <VDistMa>
8.8573732

>  <vdw_area>
337.32855

>  <vdw_vol>
445.24567

>  <vsa_acc>
26.698349

>  <vsa_acid>
0

>  <vsa_base>
0

>  <vsa_don>
0

>  <vsa_hyd>
257.07608

>  <vsa_other>
26.303333

>  <vsa_pol>
38.063503

>  <Weight>
345.423

>  <weinerPath>
1419

>  <weinerPol>
39

>  <zagreb>
126

$$$$