Clc1nc(n(Cc2ccc(cc2)-c2ccccc2-c2nn[nH]n2)c1CO)CCCC
  MOE2013           2D

 30 33  0  0  0  0  0  0  0  0999 V2000
    0.0000    0.0000    0.0000 Cl  0  0  0  0  0  0  0  0  0  0  0  0
   -0.0680   -1.4980    0.0000 C   0  0  0  0  0  0  0  0  0  0  0  0
    1.1050   -2.4340    0.0000 N   0  0  0  0  0  0  0  0  0  0  0  0
    0.5780   -3.8380    0.0000 C   0  0  0  0  0  0  0  0  0  0  0  0
   -0.9210   -3.7710    0.0000 N   0  0  0  0  0  0  0  0  0  0  0  0
   -1.8560   -4.9430    0.0000 C   0  0  0  0  0  0  0  0  0  0  0  0
   -3.3390   -4.7190    0.0000 C   0  0  0  0  0  0  0  0  0  0  0  0
   -4.2750   -5.8920    0.0000 C   0  0  0  0  0  0  0  0  0  0  0  0
   -5.7580   -5.6680    0.0000 C   0  0  0  0  0  0  0  0  0  0  0  0
   -6.3060   -4.2720    0.0000 C   0  0  0  0  0  0  0  0  0  0  0  0
   -5.3700   -3.0990    0.0000 C   0  0  0  0  0  0  0  0  0  0  0  0
   -3.8870   -3.3230    0.0000 C   0  0  0  0  0  0  0  0  0  0  0  0
   -7.7890   -4.0480    0.0000 C   0  0  0  0  0  0  0  0  0  0  0  0
   -8.3370   -2.6520    0.0000 C   0  0  0  0  0  0  0  0  0  0  0  0
   -9.8200   -2.4280    0.0000 C   0  0  0  0  0  0  0  0  0  0  0  0
  -10.7550   -3.6010    0.0000 C   0  0  0  0  0  0  0  0  0  0  0  0
  -10.2080   -4.9970    0.0000 C   0  0  0  0  0  0  0  0  0  0  0  0
   -8.7240   -5.2210    0.0000 C   0  0  0  0  0  0  0  0  0  0  0  0
   -8.1770   -6.6170    0.0000 C   0  0  0  0  0  0  0  0  0  0  0  0
   -6.7250   -6.9950    0.0000 N   0  0  0  0  0  0  0  0  0  0  0  0
   -6.6350   -8.4920    0.0000 N   0  0  0  0  0  0  0  0  0  0  0  0
   -8.0320   -9.0400    0.0000 N   0  0  0  0  0  0  0  0  0  0  0  0
   -8.9840   -7.8810    0.0000 N   0  0  0  0  0  0  0  0  0  0  0  0
   -1.3200   -2.3250    0.0000 C   0  0  0  0  0  0  0  0  0  0  0  0
   -2.7240   -1.7970    0.0000 C   0  0  0  0  0  0  0  0  0  0  0  0
   -2.9690   -0.3180    0.0000 O   0  0  0  0  0  0  0  0  0  0  0  0
    1.4040   -5.0900    0.0000 C   0  0  0  0  0  0  0  0  0  0  0  0
    2.9010   -5.0010    0.0000 C   0  0  0  0  0  0  0  0  0  0  0  0
    3.7270   -6.2530    0.0000 C   0  0  0  0  0  0  0  0  0  0  0  0
    5.2250   -6.1630    0.0000 C   0  0  0  0  0  0  0  0  0  0  0  0
  1  2  1  0  0  0  0
  2  3  1  0  0  0  0
  2 24  2  0  0  0  0
  3  4  2  0  0  0  0
  4  5  1  0  0  0  0
  4 27  1  0  0  0  0
  5  6  1  0  0  0  0
  5 24  1  0  0  0  0
  6  7  1  0  0  0  0
  7  8  1  0  0  0  0
  7 12  2  0  0  0  0
  8  9  2  0  0  0  0
  9 10  1  0  0  0  0
 10 11  2  0  0  0  0
 10 13  1  0  0  0  0
 11 12  1  0  0  0  0
 13 14  1  0  0  0  0
 13 18  2  0  0  0  0
 14 15  2  0  0  0  0
 15 16  1  0  0  0  0
 16 17  2  0  0  0  0
 17 18  1  0  0  0  0
 18 19  1  0  0  0  0
 19 20  1  0  0  0  0
 19 23  2  0  0  0  0
 20 21  2  0  0  0  0
 21 22  1  0  0  0  0
 22 23  1  0  0  0  0
 24 25  1  0  0  0  0
 25 26  1  0  0  0  0
 27 28  1  0  0  0  0
 28 29  1  0  0  0  0
 29 30  1  0  0  0  0
M  END
>  <Index>
1626

>  <ID>
HT1243

>  <class>
1

>  <apol>
63.638241

>  <ast_fraglike>
0

>  <ast_fraglike_ext>
0

>  <ast_violation>
3

>  <ast_violation_ext>
5

>  <a_acc>
6

>  <a_acid>
0

>  <a_aro>
22

>  <a_base>
0

>  <a_count>
53

>  <a_don>
3

>  <a_donacc>
9

>  <a_heavy>
30

>  <a_hyd>
20

>  <a_IC>
85.920586

>  <a_ICM>
1.6211432

>  <a_nB>
0

>  <a_nBr>
0

>  <a_nC>
22

>  <a_nCl>
1

>  <a_nF>
0

>  <a_nH>
23

>  <a_nI>
0

>  <a_nN>
6

>  <a_nO>
1

>  <a_nP>
0

>  <a_nS>
0

>  <balabanJ>
1.3100702

>  <BCUT_PEOE_0>
-2.5792813

>  <BCUT_PEOE_1>
-0.61317658

>  <BCUT_PEOE_2>
0.6284675

>  <BCUT_PEOE_3>
2.5448997

>  <BCUT_SLOGP_0>
-2.4651465

>  <BCUT_SLOGP_1>
-0.50850284

>  <BCUT_SLOGP_2>
0.68839467

>  <BCUT_SLOGP_3>
2.6671848

>  <BCUT_SMR_0>
-2.3360488

>  <BCUT_SMR_1>
-0.46926352

>  <BCUT_SMR_2>
0.84058213

>  <BCUT_SMR_3>
2.7942753

>  <bpol>
29.523762

>  <b_1rotN>
8

>  <b_1rotR>
0.24242425

>  <b_ar>
22

>  <b_count>
56

>  <b_double>
0

>  <b_heavy>
33

>  <b_max1len>
5

>  <b_rotN>
8

>  <b_rotR>
0.24242425

>  <b_single>
34

>  <b_triple>
0

>  <chi0>
20.924074

>  <chi0v>
17.471512

>  <chi0v_C>
13.154336

>  <chi0_C>
14.811191

>  <chi1>
14.70704

>  <chi1v>
10.354741

>  <chi1v_C>
7.1664844

>  <chi1_C>
9.2146749

>  <chiral>
0

>  <chiral_u>
0

>  <density>
0.76286602

>  <diameter>
15

>  <FCharge>
0

>  <GCUT_PEOE_0>
-0.83922309

>  <GCUT_PEOE_1>
-0.38021898

>  <GCUT_PEOE_2>
0.057041351

>  <GCUT_PEOE_3>
2.6687944

>  <GCUT_SLOGP_0>
-0.96363866

>  <GCUT_SLOGP_1>
-0.31038421

>  <GCUT_SLOGP_2>
0.13057163

>  <GCUT_SLOGP_3>
2.7974291

>  <GCUT_SMR_0>
-0.52925545

>  <GCUT_SMR_1>
-0.20530762

>  <GCUT_SMR_2>
0.23413445

>  <GCUT_SMR_3>
2.9540479

>  <Kier1>
23.168043

>  <Kier2>
11.227654

>  <Kier3>
5.5067639

>  <KierA1>
17.449299

>  <KierA2>
8.367775

>  <KierA3>
4.073596

>  <KierFlex>
4.8670602

>  <lip_acc>
7

>  <lip_don>
2

>  <lip_druglike>
1

>  <lip_violation>
0

>  <logP(o/w)>
5.4180002

>  <logS>
-6.90762

>  <mr>
11.891712

>  <mutagenic>
0

>  <nmol>
1

>  <opr_brigid>
22

>  <opr_leadlike>
1

>  <opr_nring>
4

>  <opr_nrot>
8

>  <opr_violation>
1

>  <PC+>
0

>  <PC->
0

>  <PEOE_PC+>
2.1240759

>  <PEOE_PC->
-2.1240759

>  <PEOE_RPC+>
0.10089302

>  <PEOE_RPC->
0.18307553

>  <PEOE_VSA+0>
62.49065

>  <PEOE_VSA+1>
72.83548

>  <PEOE_VSA+2>
11.190562

>  <PEOE_VSA+3>
9.0107584

>  <PEOE_VSA+4>
30.133749

>  <PEOE_VSA+5>
0

>  <PEOE_VSA+6>
0

>  <PEOE_VSA-0>
28.486435

>  <PEOE_VSA-1>
155.07018

>  <PEOE_VSA-2>
18.842079

>  <PEOE_VSA-3>
7.6138182

>  <PEOE_VSA-4>
5.6825762

>  <PEOE_VSA-5>
0

>  <PEOE_VSA-6>
7.7675405

>  <PEOE_VSA_FHYD>
0.89347023

>  <PEOE_VSA_FNEG>
0.54619801

>  <PEOE_VSA_FPNEG>
0.032875419

>  <PEOE_VSA_FPOL>
0.10652976

>  <PEOE_VSA_FPOS>
0.45380199

>  <PEOE_VSA_FPPOS>
0.073654346

>  <PEOE_VSA_HYD>
365.53995

>  <PEOE_VSA_NEG>
223.46262

>  <PEOE_VSA_PNEG>
13.450116

>  <PEOE_VSA_POL>
43.583866

>  <PEOE_VSA_POS>
185.66119

>  <PEOE_VSA_PPOS>
30.133749

>  <petitjean>
0.46666667

>  <petitjeanSC>
0.875

>  <Q_PC+>
0

>  <Q_PC->
0

>  <Q_RPC+>
0

>  <Q_RPC->
0

>  <Q_VSA_FHYD>
1

>  <Q_VSA_FNEG>
0

>  <Q_VSA_FPNEG>
0

>  <Q_VSA_FPOL>
0

>  <Q_VSA_FPOS>
1

>  <Q_VSA_FPPOS>
0

>  <Q_VSA_HYD>
409.12381

>  <Q_VSA_NEG>
0

>  <Q_VSA_PNEG>
0

>  <Q_VSA_POL>
0

>  <Q_VSA_POS>
409.12381

>  <Q_VSA_PPOS>
0

>  <radius>
8

>  <reactive>
0

>  <rings>
4

>  <RPC+>
0

>  <RPC->
0

>  <rsynth>
1

>  <SlogP>
4.7995701

>  <SlogP_VSA0>
25.385227

>  <SlogP_VSA1>
68.551125

>  <SlogP_VSA2>
16.540485

>  <SlogP_VSA3>
0

>  <SlogP_VSA4>
8.2702427

>  <SlogP_VSA5>
18.868406

>  <SlogP_VSA6>
3.0717793

>  <SlogP_VSA7>
153.03012

>  <SlogP_VSA8>
37.736813

>  <SlogP_VSA9>
111.84049

>  <SMR>
11.63335

>  <SMR_VSA0>
0

>  <SMR_VSA1>
93.936348

>  <SMR_VSA2>
16.540485

>  <SMR_VSA3>
11.342022

>  <SMR_VSA4>
11.884645

>  <SMR_VSA5>
237.11653

>  <SMR_VSA6>
0

>  <SMR_VSA7>
72.474655

>  <TPSA>
92.510002

>  <VAdjEq>
0.37824166

>  <VAdjMa>
6.044394

>  <VDistEq>
3.6918509

>  <VDistMa>
9.5100803

>  <vdw_area>
409.12381

>  <vdw_vol>
554.38306

>  <vsa_acc>
28.263119

>  <vsa_acid>
0

>  <vsa_base>
0

>  <vsa_don>
0

>  <vsa_hyd>
290.77551

>  <vsa_other>
31.391884

>  <vsa_pol>
64.410583

>  <Weight>
422.91998

>  <weinerPath>
2665

>  <weinerPol>
46

>  <zagreb>
156

$$$$