Clc1cccc(F)c1-c1noc(C)c1C(=O)N[C@H]1[C@H]2SC(C)(C)[C@@H](N2C1=O)C(O)=O
  MOE2013           2D

 30 33  0  0  1  0  0  0  0  0999 V2000
    0.0000    0.0000    0.0000 Cl  0  0  0  0  0  0  0  0  0  0  0  0
    1.2980   -0.7510    0.0000 C   0  0  0  0  0  0  0  0  0  0  0  0
    1.2970   -2.2510    0.0000 C   0  0  0  0  0  0  0  0  0  0  0  0
    2.5950   -3.0030    0.0000 C   0  0  0  0  0  0  0  0  0  0  0  0
    3.8950   -2.2540    0.0000 C   0  0  0  0  0  0  0  0  0  0  0  0
    3.8960   -0.7540    0.0000 C   0  0  0  0  0  0  0  0  0  0  0  0
    5.1960   -0.0050    0.0000 F   0  0  0  0  0  0  0  0  0  0  0  0
    2.5980   -0.0030    0.0000 C   0  0  0  0  0  0  0  0  0  0  0  0
    2.6000    1.4970    0.0000 C   0  0  0  0  0  0  0  0  0  0  0  0
    3.8140    2.3780    0.0000 N   0  0  0  0  0  0  0  0  0  0  0  0
    3.3520    3.8050    0.0000 O   0  0  0  0  0  0  0  0  0  0  0  0
    1.8520    3.8060    0.0000 C   0  0  0  0  0  0  0  0  0  0  0  0
    0.9720    5.0210    0.0000 C   0  0  0  0  0  0  0  0  0  0  0  0
    1.3870    2.3800    0.0000 C   0  0  0  0  0  0  0  0  0  0  0  0
   -0.0400    1.9180    0.0000 C   0  0  0  0  0  0  0  0  0  0  0  0
   -0.3530    0.4510    0.0000 O   0  0  0  0  0  0  0  0  0  0  0  0
   -1.1540    2.9230    0.0000 N   0  0  0  0  0  0  0  0  0  0  0  0
   -2.5810    2.4610    0.0000 C   0  0  1  0  0  0  0  0  0  0  0  0
   -3.9170    3.1430    0.0000 C   0  0  1  0  0  0  0  0  0  0  0  0
   -4.9760    4.2050    0.0000 S   0  0  0  0  0  0  0  0  0  0  0  0
   -6.3130    3.5260    0.0000 C   0  0  0  0  0  0  0  0  0  0  0  0
   -7.0790    4.8160    0.0000 C   0  0  0  0  0  0  0  0  0  0  0  0
   -7.8110    3.4420    0.0000 C   0  0  0  0  0  0  0  0  0  0  0  0
   -6.0800    2.0440    0.0000 C   0  0  1  0  0  0  0  0  0  0  0  0
   -4.5990    1.8080    0.0000 N   0  0  0  0  0  0  0  0  0  0  0  0
   -3.2630    1.1250    0.0000 C   0  0  0  0  0  0  0  0  0  0  0  0
   -2.8010   -0.3020    0.0000 O   0  0  0  0  0  0  0  0  0  0  0  0
   -7.1420    0.9840    0.0000 C   0  0  0  0  0  0  0  0  0  0  0  0
   -8.5900    1.3740    0.0000 O   0  0  0  0  0  0  0  0  0  0  0  0
   -6.7550   -0.4650    0.0000 O   0  0  0  0  0  0  0  0  0  0  0  0
  1  2  1  0  0  0  0
  2  3  1  0  0  0  0
  2  8  2  0  0  0  0
  3  4  2  0  0  0  0
  4  5  1  0  0  0  0
  5  6  2  0  0  0  0
  6  7  1  0  0  0  0
  6  8  1  0  0  0  0
  8  9  1  0  0  0  0
  9 10  2  0  0  0  0
  9 14  1  0  0  0  0
 10 11  1  0  0  0  0
 11 12  1  0  0  0  0
 12 13  1  0  0  0  0
 12 14  2  0  0  0  0
 14 15  1  0  0  0  0
 15 16  2  0  0  0  0
 15 17  1  0  0  0  0
 18 17  1  6  0  0  0
 18 19  1  0  0  0  0
 18 26  1  0  0  0  0
 19 20  1  6  0  0  0
 19 25  1  0  0  0  0
 20 21  1  0  0  0  0
 21 22  1  0  0  0  0
 21 23  1  0  0  0  0
 21 24  1  0  0  0  0
 24 25  1  0  0  0  0
 24 28  1  1  0  0  0
 25 26  1  0  0  0  0
 26 27  2  0  0  0  0
 28 29  1  0  0  0  0
 28 30  2  0  0  0  0
M  END
>  <Index>
1569

>  <ID>
HT0888

>  <class>
1

>  <apol>
57.722481

>  <ast_fraglike>
0

>  <ast_fraglike_ext>
0

>  <ast_violation>
2

>  <ast_violation_ext>
4

>  <a_acc>
5

>  <a_acid>
0

>  <a_aro>
11

>  <a_base>
0

>  <a_count>
47

>  <a_don>
3

>  <a_donacc>
8

>  <a_heavy>
30

>  <a_hyd>
18

>  <a_IC>
94.503654

>  <a_ICM>
2.0107162

>  <a_nB>
0

>  <a_nBr>
0

>  <a_nC>
19

>  <a_nCl>
1

>  <a_nF>
1

>  <a_nH>
17

>  <a_nI>
0

>  <a_nN>
3

>  <a_nO>
5

>  <a_nP>
0

>  <a_nS>
1

>  <balabanJ>
1.4640665

>  <BCUT_PEOE_0>
-2.6399822

>  <BCUT_PEOE_1>
-0.54029572

>  <BCUT_PEOE_2>
0.55126119

>  <BCUT_PEOE_3>
2.8494

>  <BCUT_SLOGP_0>
-2.89501

>  <BCUT_SLOGP_1>
-0.4429388

>  <BCUT_SLOGP_2>
0.65824389

>  <BCUT_SLOGP_3>
2.7542496

>  <BCUT_SMR_0>
-2.3874598

>  <BCUT_SMR_1>
-0.35851151

>  <BCUT_SMR_2>
0.75599235

>  <BCUT_SMR_3>
3.130357

>  <bpol>
29.917519

>  <b_1rotN>
4

>  <b_1rotR>
0.12121212

>  <b_ar>
11

>  <b_count>
50

>  <b_double>
3

>  <b_heavy>
33

>  <b_max1len>
4

>  <b_rotN>
5

>  <b_rotR>
0.15151516

>  <b_single>
36

>  <b_triple>
0

>  <chi0>
21.955301

>  <chi0v>
17.675339

>  <chi0v_C>
11.464102

>  <chi0_C>
12.549523

>  <chi1>
14.041418

>  <chi1v>
10.243748

>  <chi1v_C>
5.4433756

>  <chi1_C>
6.6825218

>  <chiral>
3

>  <chiral_u>
0

>  <density>
0.89775097

>  <diameter>
13

>  <FCharge>
0

>  <GCUT_PEOE_0>
-0.83718663

>  <GCUT_PEOE_1>
-0.42520687

>  <GCUT_PEOE_2>
0.052002896

>  <GCUT_PEOE_3>
2.7342091

>  <GCUT_SLOGP_0>
-1.164017

>  <GCUT_SLOGP_1>
-0.37367171

>  <GCUT_SLOGP_2>
0.1506447

>  <GCUT_SLOGP_3>
2.7081392

>  <GCUT_SMR_0>
-0.53651941

>  <GCUT_SMR_1>
-0.20012724

>  <GCUT_SMR_2>
0.22591226

>  <GCUT_SMR_3>
3.0002239

>  <Kier1>
23.168043

>  <Kier2>
8.4082842

>  <Kier3>
3.8655953

>  <KierA1>
19.764065

>  <KierA2>
7.1316342

>  <KierA3>
3.265305

>  <KierFlex>
4.6983361

>  <lip_acc>
8

>  <lip_don>
2

>  <lip_druglike>
1

>  <lip_violation>
0

>  <logP(o/w)>
2.701

>  <logS>
-5.80233

>  <mr>
10.918307

>  <mutagenic>
0

>  <nmol>
1

>  <opr_brigid>
19

>  <opr_leadlike>
1

>  <opr_nring>
4

>  <opr_nrot>
4

>  <opr_violation>
1

>  <PC+>
0

>  <PC->
0

>  <PEOE_PC+>
2.8543389

>  <PEOE_PC->
-2.8543389

>  <PEOE_RPC+>
0.099419348

>  <PEOE_RPC->
0.12561522

>  <PEOE_VSA+0>
38.388474

>  <PEOE_VSA+1>
32.320602

>  <PEOE_VSA+2>
37.801399

>  <PEOE_VSA+3>
8.6190128

>  <PEOE_VSA+4>
10.324173

>  <PEOE_VSA+5>
40.607563

>  <PEOE_VSA+6>
0

>  <PEOE_VSA-0>
80.752838

>  <PEOE_VSA-1>
52.722111

>  <PEOE_VSA-2>
19.760618

>  <PEOE_VSA-3>
0

>  <PEOE_VSA-4>
11.908636

>  <PEOE_VSA-5>
40.700764

>  <PEOE_VSA-6>
13.80679

>  <PEOE_VSA_FHYD>
0.69733298

>  <PEOE_VSA_FNEG>
0.5665319

>  <PEOE_VSA_FPNEG>
0.17130247

>  <PEOE_VSA_FPOL>
0.30266699

>  <PEOE_VSA_FPOS>
0.43346813

>  <PEOE_VSA_FPPOS>
0.13136452

>  <PEOE_VSA_HYD>
270.36505

>  <PEOE_VSA_NEG>
219.65176

>  <PEOE_VSA_PNEG>
66.416191

>  <PEOE_VSA_POL>
117.34792

>  <PEOE_VSA_POS>
168.06122

>  <PEOE_VSA_PPOS>
50.931732

>  <petitjean>
0.46153846

>  <petitjeanSC>
0.85714287

>  <Q_PC+>
0

>  <Q_PC->
0

>  <Q_RPC+>
0

>  <Q_RPC->
0

>  <Q_VSA_FHYD>
1

>  <Q_VSA_FNEG>
0

>  <Q_VSA_FPNEG>
0

>  <Q_VSA_FPOL>
0

>  <Q_VSA_FPOS>
1

>  <Q_VSA_FPPOS>
0

>  <Q_VSA_HYD>
387.71298

>  <Q_VSA_NEG>
0

>  <Q_VSA_PNEG>
0

>  <Q_VSA_POL>
0

>  <Q_VSA_POS>
387.71298

>  <Q_VSA_PPOS>
0

>  <radius>
7

>  <reactive>
0

>  <rings>
4

>  <RPC+>
0

>  <RPC->
0

>  <rsynth>
1

>  <SlogP>
2.68782

>  <SlogP_VSA0>
18.01075

>  <SlogP_VSA1>
40.98394

>  <SlogP_VSA2>
67.156517

>  <SlogP_VSA3>
25.385227

>  <SlogP_VSA4>
32.496613

>  <SlogP_VSA5>
9.7341213

>  <SlogP_VSA6>
3.5006065

>  <SlogP_VSA7>
58.871876

>  <SlogP_VSA8>
0

>  <SlogP_VSA9>
186.30635

>  <SMR>
10.6627

>  <SMR_VSA0>
81.32077

>  <SMR_VSA1>
37.681023

>  <SMR_VSA2>
52.516994

>  <SMR_VSA3>
22.446068

>  <SMR_VSA4>
5.9423227

>  <SMR_VSA5>
52.929554

>  <SMR_VSA6>
18.263031

>  <SMR_VSA7>
171.34624

>  <TPSA>
112.74

>  <VAdjEq>
0.37824166

>  <VAdjMa>
6.044394

>  <VDistEq>
3.5059464

>  <VDistMa>
9.5333061

>  <vdw_area>
387.71298

>  <vdw_vol>
505.57227

>  <vsa_acc>
38.019104

>  <vsa_acid>
0

>  <vsa_base>
0

>  <vsa_don>
5.6825762

>  <vsa_hyd>
243.63397

>  <vsa_other>
54.968441

>  <vsa_pol>
70.835518

>  <Weight>
453.87799

>  <weinerPath>
2402

>  <weinerPol>
53

>  <zagreb>
170

$$$$