Clc1ccc(NC(=O)c2ccc(S(=O)(=O)C)cc2Cl)cc1-c1ncccc1
  MOE2013           2D

 27 29  0  0  0  0  0  0  0  0999 V2000
    0.0000    0.0000    0.0000 Cl  0  0  0  0  0  0  0  0  0  0  0  0
    1.5000   -0.0030    0.0000 C   0  0  0  0  0  0  0  0  0  0  0  0
    2.2480   -1.3030    0.0000 C   0  0  0  0  0  0  0  0  0  0  0  0
    3.7480   -1.3050    0.0000 C   0  0  0  0  0  0  0  0  0  0  0  0
    4.5000   -0.0080    0.0000 C   0  0  0  0  0  0  0  0  0  0  0  0
    6.0000   -0.0100    0.0000 N   0  0  0  0  0  0  0  0  0  0  0  0
    6.7480   -1.3110    0.0000 C   0  0  0  0  0  0  0  0  0  0  0  0
    5.9960   -2.6080    0.0000 O   0  0  0  0  0  0  0  0  0  0  0  0
    8.2480   -1.3130    0.0000 C   0  0  0  0  0  0  0  0  0  0  0  0
    9.0000   -0.0150    0.0000 C   0  0  0  0  0  0  0  0  0  0  0  0
   10.5000   -0.0180    0.0000 C   0  0  0  0  0  0  0  0  0  0  0  0
   11.2480   -1.3180    0.0000 C   0  0  0  0  0  0  0  0  0  0  0  0
   12.7480   -1.3210    0.0000 S   0  0  0  0  0  0  0  0  0  0  0  0
   12.7450   -2.8210    0.0000 O   0  0  0  0  0  0  0  0  0  0  0  0
   12.7500    0.1790    0.0000 O   0  0  0  0  0  0  0  0  0  0  0  0
   14.2480   -1.3230    0.0000 C   0  0  0  0  0  0  0  0  0  0  0  0
   10.4960   -2.6160    0.0000 C   0  0  0  0  0  0  0  0  0  0  0  0
    8.9960   -2.6140    0.0000 C   0  0  0  0  0  0  0  0  0  0  0  0
    8.2430   -3.9110    0.0000 Cl  0  0  0  0  0  0  0  0  0  0  0  0
    3.7520    1.2930    0.0000 C   0  0  0  0  0  0  0  0  0  0  0  0
    2.2520    1.2950    0.0000 C   0  0  0  0  0  0  0  0  0  0  0  0
    1.5040    2.5950    0.0000 C   0  0  0  0  0  0  0  0  0  0  0  0
    2.2570    3.8930    0.0000 N   0  0  0  0  0  0  0  0  0  0  0  0
    1.5090    5.1940    0.0000 C   0  0  0  0  0  0  0  0  0  0  0  0
    0.0090    5.1960    0.0000 C   0  0  0  0  0  0  0  0  0  0  0  0
   -0.7430    3.8980    0.0000 C   0  0  0  0  0  0  0  0  0  0  0  0
    0.0040    2.5980    0.0000 C   0  0  0  0  0  0  0  0  0  0  0  0
  1  2  1  0  0  0  0
  2  3  1  0  0  0  0
  2 21  2  0  0  0  0
  3  4  2  0  0  0  0
  4  5  1  0  0  0  0
  5  6  1  0  0  0  0
  5 20  2  0  0  0  0
  6  7  1  0  0  0  0
  7  8  2  0  0  0  0
  7  9  1  0  0  0  0
  9 10  1  0  0  0  0
  9 18  2  0  0  0  0
 10 11  2  0  0  0  0
 11 12  1  0  0  0  0
 12 13  1  0  0  0  0
 12 17  2  0  0  0  0
 13 14  2  0  0  0  0
 13 15  2  0  0  0  0
 13 16  1  0  0  0  0
 17 18  1  0  0  0  0
 18 19  1  0  0  0  0
 20 21  1  0  0  0  0
 21 22  1  0  0  0  0
 22 23  1  0  0  0  0
 22 27  2  0  0  0  0
 23 24  2  0  0  0  0
 24 25  1  0  0  0  0
 25 26  2  0  0  0  0
 26 27  1  0  0  0  0
M  END
>  <Index>
1761

>  <ID>
HT2187

>  <class>
1

>  <apol>
54.641102

>  <ast_fraglike>
0

>  <ast_fraglike_ext>
0

>  <ast_violation>
3

>  <ast_violation_ext>
4

>  <a_acc>
4

>  <a_acid>
0

>  <a_aro>
18

>  <a_base>
0

>  <a_count>
41

>  <a_don>
1

>  <a_donacc>
5

>  <a_heavy>
27

>  <a_hyd>
20

>  <a_IC>
76.891151

>  <a_ICM>
1.875394

>  <a_nB>
0

>  <a_nBr>
0

>  <a_nC>
19

>  <a_nCl>
2

>  <a_nF>
0

>  <a_nH>
14

>  <a_nI>
0

>  <a_nN>
2

>  <a_nO>
3

>  <a_nP>
0

>  <a_nS>
1

>  <balabanJ>
1.5232581

>  <BCUT_PEOE_0>
-2.4166961

>  <BCUT_PEOE_1>
-0.62486434

>  <BCUT_PEOE_2>
0.65961385

>  <BCUT_PEOE_3>
2.429666

>  <BCUT_SLOGP_0>
-2.4355919

>  <BCUT_SLOGP_1>
-0.46417767

>  <BCUT_SLOGP_2>
0.81854737

>  <BCUT_SLOGP_3>
2.4375119

>  <BCUT_SMR_0>
-2.0438585

>  <BCUT_SMR_1>
-0.42459083

>  <BCUT_SMR_2>
0.86952144

>  <BCUT_SMR_3>
2.7901139

>  <bpol>
25.558899

>  <b_1rotN>
4

>  <b_1rotR>
0.13793103

>  <b_ar>
18

>  <b_count>
43

>  <b_double>
1

>  <b_heavy>
29

>  <b_max1len>
3

>  <b_rotN>
5

>  <b_rotR>
0.1724138

>  <b_single>
24

>  <b_triple>
0

>  <chi0>
19.604084

>  <chi0v>
16.437992

>  <chi0v_C>
10.773502

>  <chi0_C>
12.68987

>  <chi1>
12.753038

>  <chi1v>
10.421683

>  <chi1v_C>
5.2647429

>  <chi1_C>
7.5075679

>  <chiral>
0

>  <chiral_u>
0

>  <density>
0.86497873

>  <diameter>
14

>  <FCharge>
0

>  <GCUT_PEOE_0>
-0.88731474

>  <GCUT_PEOE_1>
-0.45674476

>  <GCUT_PEOE_2>
0.067613043

>  <GCUT_PEOE_3>
2.4622164

>  <GCUT_SLOGP_0>
-0.99304849

>  <GCUT_SLOGP_1>
-0.32718614

>  <GCUT_SLOGP_2>
0.19559692

>  <GCUT_SLOGP_3>
2.5880425

>  <GCUT_SMR_0>
-0.44516382

>  <GCUT_SMR_1>
-0.18593046

>  <GCUT_SMR_2>
0.28444615

>  <GCUT_SMR_3>
2.7757103

>  <Kier1>
21.702734

>  <Kier2>
9.212018

>  <Kier3>
5.5384617

>  <KierA1>
18.336395

>  <KierA2>
7.7299485

>  <KierA3>
4.6237998

>  <KierFlex>
5.2496071

>  <lip_acc>
5

>  <lip_don>
1

>  <lip_druglike>
1

>  <lip_violation>
0

>  <logP(o/w)>
4

>  <logS>
-6.1011801

>  <mr>
10.831861

>  <mutagenic>
0

>  <nmol>
1

>  <opr_brigid>
18

>  <opr_leadlike>
1

>  <opr_nring>
3

>  <opr_nrot>
4

>  <opr_violation>
1

>  <PC+>
0

>  <PC->
0

>  <PEOE_PC+>
2.3595366

>  <PEOE_PC->
-2.3595366

>  <PEOE_RPC+>
0.10923281

>  <PEOE_RPC->
0.20034818

>  <PEOE_VSA+0>
37.908909

>  <PEOE_VSA+1>
72.856346

>  <PEOE_VSA+2>
12.796158

>  <PEOE_VSA+3>
29.342752

>  <PEOE_VSA+4>
0

>  <PEOE_VSA+5>
17.134132

>  <PEOE_VSA+6>
0

>  <PEOE_VSA-0>
73.529427

>  <PEOE_VSA-1>
71.4188

>  <PEOE_VSA-2>
6.5127993

>  <PEOE_VSA-3>
0

>  <PEOE_VSA-4>
0

>  <PEOE_VSA-5>
19.249496

>  <PEOE_VSA-6>
32.153416

>  <PEOE_VSA_FHYD>
0.8162064

>  <PEOE_VSA_FNEG>
0.54401374

>  <PEOE_VSA_FPNEG>
0.13784555

>  <PEOE_VSA_FPOL>
0.1837936

>  <PEOE_VSA_FPOS>
0.45598629

>  <PEOE_VSA_FPPOS>
0.045948055

>  <PEOE_VSA_HYD>
304.3652

>  <PEOE_VSA_NEG>
202.86394

>  <PEOE_VSA_PNEG>
51.402912

>  <PEOE_VSA_POL>
68.537041

>  <PEOE_VSA_POS>
170.0383

>  <PEOE_VSA_PPOS>
17.134132

>  <petitjean>
0.5

>  <petitjeanSC>
1

>  <Q_PC+>
0

>  <Q_PC->
0

>  <Q_RPC+>
0

>  <Q_RPC->
0

>  <Q_VSA_FHYD>
1

>  <Q_VSA_FNEG>
0

>  <Q_VSA_FPNEG>
0

>  <Q_VSA_FPOL>
0

>  <Q_VSA_FPOS>
1

>  <Q_VSA_FPPOS>
0

>  <Q_VSA_HYD>
372.90222

>  <Q_VSA_NEG>
0

>  <Q_VSA_PNEG>
0

>  <Q_VSA_POL>
0

>  <Q_VSA_POS>
372.90222

>  <Q_VSA_PPOS>
0

>  <radius>
7

>  <reactive>
0

>  <rings>
3

>  <RPC+>
0

>  <RPC->
0

>  <rsynth>
1

>  <SlogP>
4.7112002

>  <SlogP_VSA0>
0

>  <SlogP_VSA1>
88.226753

>  <SlogP_VSA2>
6.8792672

>  <SlogP_VSA3>
0

>  <SlogP_VSA4>
27.047791

>  <SlogP_VSA5>
33.241909

>  <SlogP_VSA6>
7.0012131

>  <SlogP_VSA7>
181.94534

>  <SlogP_VSA8>
0

>  <SlogP_VSA9>
81.054039

>  <SMR>
10.7198

>  <SMR_VSA0>
72.033905

>  <SMR_VSA1>
16.78553

>  <SMR_VSA2>
1.5507339

>  <SMR_VSA3>
10.186788

>  <SMR_VSA4>
26.70982

>  <SMR_VSA5>
176.00302

>  <SMR_VSA6>
5.2587838

>  <SMR_VSA7>
116.86773

>  <TPSA>
76.129997

>  <VAdjEq>
0.40063059

>  <VAdjMa>
5.8579812

>  <VDistEq>
3.6063046

>  <VDistMa>
9.1991529

>  <vdw_area>
372.90222

>  <vdw_vol>
487.0686

>  <vsa_acc>
51.266022

>  <vsa_acid>
0

>  <vsa_base>
0

>  <vsa_don>
5.6825762

>  <vsa_hyd>
284.16464

>  <vsa_other>
19.46233

>  <vsa_pol>
56.948597

>  <Weight>
421.30399

>  <weinerPath>
1994

>  <weinerPol>
43

>  <zagreb>
142

$$$$