O=C1N(Cc2nc(c3c(n2)cccc3)C)C(=O)N(c2nc(n(c12)CC#CC)N1C[C@H](N)CCC1)C
  MOE2013           2D

 35 39  0  0  1  0  0  0  0  0999 V2000
    0.0000    0.0000    0.0000 O   0  0  0  0  0  0  0  0  0  0  0  0
   -0.7430   -1.3030    0.0000 C   0  0  0  0  0  0  0  0  0  0  0  0
   -2.2430   -1.3100    0.0000 N   0  0  0  0  0  0  0  0  0  0  0  0
   -3.0000   -0.0150    0.0000 C   0  0  0  0  0  0  0  0  0  0  0  0
   -4.5000   -0.0230    0.0000 C   0  0  0  0  0  0  0  0  0  0  0  0
   -5.2430   -1.3260    0.0000 N   0  0  0  0  0  0  0  0  0  0  0  0
   -6.7430   -1.3330    0.0000 C   0  0  0  0  0  0  0  0  0  0  0  0
   -7.5000   -0.0380    0.0000 C   0  0  0  0  0  0  0  0  0  0  0  0
   -6.7570    1.2650    0.0000 C   0  0  0  0  0  0  0  0  0  0  0  0
   -5.2570    1.2720    0.0000 N   0  0  0  0  0  0  0  0  0  0  0  0
   -7.5130    2.5600    0.0000 C   0  0  0  0  0  0  0  0  0  0  0  0
   -9.0130    2.5520    0.0000 C   0  0  0  0  0  0  0  0  0  0  0  0
   -9.7560    1.2490    0.0000 C   0  0  0  0  0  0  0  0  0  0  0  0
   -9.0000   -0.0460    0.0000 C   0  0  0  0  0  0  0  0  0  0  0  0
   -7.4870   -2.6360    0.0000 C   0  0  0  0  0  0  0  0  0  0  0  0
   -2.9870   -2.6130    0.0000 C   0  0  0  0  0  0  0  0  0  0  0  0
   -4.4870   -2.6210    0.0000 O   0  0  0  0  0  0  0  0  0  0  0  0
   -2.2300   -3.9090    0.0000 N   0  0  0  0  0  0  0  0  0  0  0  0
   -0.7300   -3.9010    0.0000 C   0  0  0  0  0  0  0  0  0  0  0  0
    0.2790   -5.0100    0.0000 N   0  0  0  0  0  0  0  0  0  0  0  0
    1.6460   -4.3930    0.0000 C   0  0  0  0  0  0  0  0  0  0  0  0
    1.4820   -2.9020    0.0000 N   0  0  0  0  0  0  0  0  0  0  0  0
    0.0130   -2.5980    0.0000 C   0  0  0  0  0  0  0  0  0  0  0  0
    2.5920   -1.8930    0.0000 C   0  0  0  0  0  0  0  0  0  0  0  0
    2.2720   -0.4270    0.0000 C   0  0  0  0  0  0  0  0  0  0  0  0
    1.9530    1.0380    0.0000 C   0  0  0  0  0  0  0  0  0  0  0  0
    1.6340    2.5040    0.0000 C   0  0  0  0  0  0  0  0  0  0  0  0
    2.9490   -5.1370    0.0000 N   0  0  3  0  0  0  0  0  0  0  0  0
    2.9570   -6.6370    0.0000 C   0  0  0  0  0  0  0  0  0  0  0  0
    4.2600   -7.3800    0.0000 C   0  0  2  0  0  0  0  0  0  0  0  0
    4.2670   -8.8800    0.0000 N   0  0  0  0  0  0  0  0  0  0  0  0
    5.5550   -6.6230    0.0000 C   0  0  0  0  0  0  0  0  0  0  0  0
    5.5470   -5.1240    0.0000 C   0  0  0  0  0  0  0  0  0  0  0  0
    4.2440   -4.3800    0.0000 C   0  0  0  0  0  0  0  0  0  0  0  0
   -2.9730   -5.2110    0.0000 C   0  0  0  0  0  0  0  0  0  0  0  0
  1  2  2  0  0  0  0
  2  3  1  0  0  0  0
  2 23  1  0  0  0  0
  3  4  1  0  0  0  0
  3 16  1  0  0  0  0
  4  5  1  0  0  0  0
  5  6  1  0  0  0  0
  5 10  2  0  0  0  0
  6  7  2  0  0  0  0
  7  8  1  0  0  0  0
  7 15  1  0  0  0  0
  8  9  1  0  0  0  0
  8 14  2  0  0  0  0
  9 10  1  0  0  0  0
  9 11  2  0  0  0  0
 11 12  1  0  0  0  0
 12 13  2  0  0  0  0
 13 14  1  0  0  0  0
 16 17  2  0  0  0  0
 16 18  1  0  0  0  0
 18 19  1  0  0  0  0
 18 35  1  0  0  0  0
 19 20  1  0  0  0  0
 19 23  2  0  0  0  0
 20 21  2  0  0  0  0
 21 22  1  0  0  0  0
 21 28  1  0  0  0  0
 22 23  1  0  0  0  0
 22 24  1  0  0  0  0
 24 25  1  0  0  0  0
 25 26  3  0  0  0  0
 26 27  1  0  0  0  0
 28 29  1  0  0  0  0
 28 34  1  0  0  0  0
 29 30  1  0  0  0  0
 30 31  1  1  0  0  0
 30 32  1  0  0  0  0
 32 33  1  0  0  0  0
 33 34  1  0  0  0  0
M  END
>  <Index>
1620

>  <ID>
HT1211

>  <class>
1

>  <apol>
73.074203

>  <ast_fraglike>
0

>  <ast_fraglike_ext>
0

>  <ast_violation>
2

>  <ast_violation_ext>
4

>  <a_acc>
6

>  <a_acid>
0

>  <a_aro>
15

>  <a_base>
0

>  <a_count>
63

>  <a_don>
1

>  <a_donacc>
7

>  <a_heavy>
35

>  <a_hyd>
20

>  <a_IC>
99.866295

>  <a_ICM>
1.5851792

>  <a_nB>
0

>  <a_nBr>
0

>  <a_nC>
25

>  <a_nCl>
0

>  <a_nF>
0

>  <a_nH>
28

>  <a_nI>
0

>  <a_nN>
8

>  <a_nO>
2

>  <a_nP>
0

>  <a_nS>
0

>  <balabanJ>
1.3278455

>  <BCUT_PEOE_0>
-2.7560575

>  <BCUT_PEOE_1>
-0.48124921

>  <BCUT_PEOE_2>
0.51926142

>  <BCUT_PEOE_3>
2.6988461

>  <BCUT_SLOGP_0>
-2.8780422

>  <BCUT_SLOGP_1>
-0.39547768

>  <BCUT_SLOGP_2>
0.59780186

>  <BCUT_SLOGP_3>
2.677084

>  <BCUT_SMR_0>
-2.484246

>  <BCUT_SMR_1>
-0.27068749

>  <BCUT_SMR_2>
0.72194064

>  <BCUT_SMR_3>
2.969434

>  <bpol>
43.745796

>  <b_1rotN>
5

>  <b_1rotR>
0.12820514

>  <b_ar>
16

>  <b_count>
67

>  <b_double>
2

>  <b_heavy>
39

>  <b_max1len>
3

>  <b_rotN>
5

>  <b_rotR>
0.12820514

>  <b_single>
48

>  <b_triple>
1

>  <chi0>
24.689505

>  <chi0v>
20.153734

>  <chi0v_C>
15.629392

>  <chi0_C>
17.258783

>  <chi1>
16.884249

>  <chi1v>
11.711548

>  <chi1v_C>
6.3509536

>  <chi1_C>
8.1590319

>  <chiral>
1

>  <chiral_u>
0

>  <density>
0.74215466

>  <diameter>
15

>  <FCharge>
0

>  <GCUT_PEOE_0>
-0.83437628

>  <GCUT_PEOE_1>
-0.41853148

>  <GCUT_PEOE_2>
0.0085741226

>  <GCUT_PEOE_3>
2.8623726

>  <GCUT_SLOGP_0>
-1.363554

>  <GCUT_SLOGP_1>
-0.35321715

>  <GCUT_SLOGP_2>
0.092380755

>  <GCUT_SLOGP_3>
2.8691852

>  <GCUT_SMR_0>
-0.5189209

>  <GCUT_SMR_1>
-0.15970278

>  <GCUT_SMR_2>
0.16276899

>  <GCUT_SMR_3>
3.131995

>  <Kier1>
26.60092

>  <Kier2>
11.396122

>  <Kier3>
5.3065081

>  <KierA1>
18.9671

>  <KierA2>
8.0387049

>  <KierA3>
3.7140286

>  <KierFlex>
4.3563118

>  <lip_acc>
10

>  <lip_don>
2

>  <lip_druglike>
1

>  <lip_violation>
0

>  <logP(o/w)>
1.424

>  <logS>
-5.37292

>  <mr>
13.082201

>  <mutagenic>
0

>  <nmol>
1

>  <opr_brigid>
28

>  <opr_leadlike>
0

>  <opr_nring>
5

>  <opr_nrot>
7

>  <opr_violation>
3

>  <PC+>
0

>  <PC->
0

>  <PEOE_PC+>
3.061595

>  <PEOE_PC->
-3.061595

>  <PEOE_RPC+>
0.10899847

>  <PEOE_RPC->
0.10652178

>  <PEOE_VSA+0>
138.45435

>  <PEOE_VSA+1>
67.207291

>  <PEOE_VSA+2>
28.428589

>  <PEOE_VSA+3>
33.57169

>  <PEOE_VSA+4>
0

>  <PEOE_VSA+5>
12.949531

>  <PEOE_VSA+6>
17.440542

>  <PEOE_VSA-0>
67.152885

>  <PEOE_VSA-1>
52.573208

>  <PEOE_VSA-2>
15.808495

>  <PEOE_VSA-3>
5.6825762

>  <PEOE_VSA-4>
24.932074

>  <PEOE_VSA-5>
13.566921

>  <PEOE_VSA-6>
6.6511192

>  <PEOE_VSA_FHYD>
0.8440603

>  <PEOE_VSA_FNEG>
0.3847231

>  <PEOE_VSA_FPNEG>
0.093204625

>  <PEOE_VSA_FPOL>
0.15593968

>  <PEOE_VSA_FPOS>
0.61527687

>  <PEOE_VSA_FPPOS>
0.062735066

>  <PEOE_VSA_HYD>
408.87906

>  <PEOE_VSA_NEG>
186.36728

>  <PEOE_VSA_PNEG>
45.150112

>  <PEOE_VSA_POL>
75.540184

>  <PEOE_VSA_POS>
298.05197

>  <PEOE_VSA_PPOS>
30.390074

>  <petitjean>
0.46666667

>  <petitjeanSC>
0.875

>  <Q_PC+>
0

>  <Q_PC->
0

>  <Q_RPC+>
0

>  <Q_RPC->
0

>  <Q_VSA_FHYD>
1

>  <Q_VSA_FNEG>
0

>  <Q_VSA_FPNEG>
0

>  <Q_VSA_FPOL>
0

>  <Q_VSA_FPOS>
1

>  <Q_VSA_FPPOS>
0

>  <Q_VSA_HYD>
484.41925

>  <Q_VSA_NEG>
0

>  <Q_VSA_PNEG>
0

>  <Q_VSA_POL>
0

>  <Q_VSA_POS>
484.41925

>  <Q_VSA_PPOS>
0

>  <radius>
8

>  <reactive>
0

>  <rings>
5

>  <RPC+>
0

>  <RPC->
0

>  <rsynth>
1

>  <SlogP>
2.830528

>  <SlogP_VSA0>
39.145817

>  <SlogP_VSA1>
65.468735

>  <SlogP_VSA2>
3.9819686

>  <SlogP_VSA3>
70.9403

>  <SlogP_VSA4>
31.703632

>  <SlogP_VSA5>
32.897186

>  <SlogP_VSA6>
0

>  <SlogP_VSA7>
75.289841

>  <SlogP_VSA8>
37.736813

>  <SlogP_VSA9>
131.62042

>  <SMR>
13.34569

>  <SMR_VSA0>
47.724434

>  <SMR_VSA1>
55.379993

>  <SMR_VSA2>
6.2486277

>  <SMR_VSA3>
45.884533

>  <SMR_VSA4>
41.841301

>  <SMR_VSA5>
145.18871

>  <SMR_VSA6>
46.967896

>  <SMR_VSA7>
99.549217

>  <TPSA>
113.48

>  <VAdjEq>
0.34185782

>  <VAdjMa>
6.2854023

>  <VDistEq>
3.6572235

>  <VDistMa>
9.9891882

>  <vdw_area>
484.41925

>  <vdw_vol>
636.7312

>  <vsa_acc>
44.181568

>  <vsa_acid>
0

>  <vsa_base>
0

>  <vsa_don>
0

>  <vsa_hyd>
329.3891

>  <vsa_other>
68.452774

>  <vsa_pol>
61.924061

>  <Weight>
472.55298

>  <weinerPath>
3601

>  <weinerPol>
64

>  <zagreb>
192

$$$$