S(SC(=S)N(CC)CC)C(=S)N(CC)CC
  MOE2013           2D

 16 15  0  0  0  0  0  0  0  0999 V2000
    0.0000    0.0000    0.0000 S   0  0  0  0  0  0  0  0  0  0  0  0
    1.5000    0.0120    0.0000 S   0  0  0  0  0  0  0  0  0  0  0  0
    2.2600   -1.2810    0.0000 C   0  0  0  0  0  0  0  0  0  0  0  0
    1.5200   -2.5860    0.0000 S   0  0  0  0  0  0  0  0  0  0  0  0
    3.7600   -1.2700    0.0000 N   0  0  0  0  0  0  0  0  0  0  0  0
    4.5200   -2.5630    0.0000 C   0  0  0  0  0  0  0  0  0  0  0  0
    6.0200   -2.5510    0.0000 C   0  0  0  0  0  0  0  0  0  0  0  0
    4.5000    0.0350    0.0000 C   0  0  0  0  0  0  0  0  0  0  0  0
    6.0000    0.0470    0.0000 C   0  0  0  0  0  0  0  0  0  0  0  0
   -0.7600    1.2930    0.0000 C   0  0  0  0  0  0  0  0  0  0  0  0
   -0.0200    2.5980    0.0000 S   0  0  0  0  0  0  0  0  0  0  0  0
   -2.2600    1.2810    0.0000 N   0  0  0  0  0  0  0  0  0  0  0  0
   -3.0200    2.5750    0.0000 C   0  0  0  0  0  0  0  0  0  0  0  0
   -4.5200    2.5630    0.0000 C   0  0  0  0  0  0  0  0  0  0  0  0
   -3.0000   -0.0230    0.0000 C   0  0  0  0  0  0  0  0  0  0  0  0
   -4.5000   -0.0350    0.0000 C   0  0  0  0  0  0  0  0  0  0  0  0
  1  2  1  0  0  0  0
  1 10  1  0  0  0  0
  2  3  1  0  0  0  0
  3  4  2  0  0  0  0
  3  5  1  0  0  0  0
  5  6  1  0  0  0  0
  5  8  1  0  0  0  0
  6  7  1  0  0  0  0
  8  9  1  0  0  0  0
 10 11  2  0  0  0  0
 10 12  1  0  0  0  0
 12 13  1  0  0  0  0
 12 15  1  0  0  0  0
 13 14  1  0  0  0  0
 15 16  1  0  0  0  0
M  END
>  <Index>
1536

>  <ID>
HT0698

>  <class>
1

>  <apol>
44.735859

>  <ast_fraglike>
0

>  <ast_fraglike_ext>
0

>  <ast_violation>
1

>  <ast_violation_ext>
3

>  <a_acc>
2

>  <a_acid>
0

>  <a_aro>
0

>  <a_base>
0

>  <a_count>
36

>  <a_don>
0

>  <a_donacc>
2

>  <a_heavy>
16

>  <a_hyd>
10

>  <a_IC>
56.459457

>  <a_ICM>
1.5683182

>  <a_nB>
0

>  <a_nBr>
0

>  <a_nC>
10

>  <a_nCl>
0

>  <a_nF>
0

>  <a_nH>
20

>  <a_nI>
0

>  <a_nN>
2

>  <a_nO>
0

>  <a_nP>
0

>  <a_nS>
4

>  <balabanJ>
3.9460464

>  <BCUT_PEOE_0>
-2.6021349

>  <BCUT_PEOE_1>
0.0027175478

>  <BCUT_PEOE_2>
0.042751018

>  <BCUT_PEOE_3>
2.4936855

>  <BCUT_SLOGP_0>
-2.6454418

>  <BCUT_SLOGP_1>
0.123

>  <BCUT_SLOGP_2>
0.21823746

>  <BCUT_SLOGP_3>
2.5049956

>  <BCUT_SMR_0>
-2.3048589

>  <BCUT_SMR_1>
0.1057

>  <BCUT_SMR_2>
0.44460449

>  <BCUT_SMR_3>
2.8242242

>  <bpol>
30.38414

>  <b_1rotN>
7

>  <b_1rotR>
0.46666667

>  <b_ar>
0

>  <b_count>
35

>  <b_double>
2

>  <b_heavy>
15

>  <b_max1len>
6

>  <b_rotN>
9

>  <b_rotR>
0.60000002

>  <b_single>
33

>  <b_triple>
0

>  <chi0>
12.552042

>  <chi0v>
13.621834

>  <chi0v_C>
7.8284273

>  <chi0_C>
7.9831276

>  <chi1>
7.5992842

>  <chi1v>
8.4900417

>  <chi1v_C>
2.8284271

>  <chi1_C>
2.8284271

>  <chiral>
0

>  <chiral_u>
0

>  <density>
0.80656052

>  <diameter>
9

>  <FCharge>
0

>  <GCUT_PEOE_0>
-0.84630919

>  <GCUT_PEOE_1>
-0.24172267

>  <GCUT_PEOE_2>
-0.11724898

>  <GCUT_PEOE_3>
2.3062265

>  <GCUT_SLOGP_0>
-0.95778346

>  <GCUT_SLOGP_1>
-0.10039216

>  <GCUT_SLOGP_2>
0.048683427

>  <GCUT_SLOGP_3>
2.3888304

>  <GCUT_SMR_0>
-0.51822865

>  <GCUT_SMR_1>
-0.054299999

>  <GCUT_SMR_2>
0.20964617

>  <GCUT_SMR_3>
2.6512427

>  <Kier1>
16

>  <Kier2>
9.0740738

>  <Kier3>
5.7777777

>  <KierA1>
19.699959

>  <KierA2>
11.330126

>  <KierA3>
7.2901154

>  <KierFlex>
13.950189

>  <lip_acc>
2

>  <lip_don>
0

>  <lip_druglike>
1

>  <lip_violation>
0

>  <logP(o/w)>
3.316

>  <logS>
-6.1839399

>  <mr>
8.1800175

>  <mutagenic>
0

>  <nmol>
1

>  <opr_brigid>
0

>  <opr_leadlike>
1

>  <opr_nring>
0

>  <opr_nrot>
7

>  <opr_violation>
0

>  <PC+>
0

>  <PC->
0

>  <PEOE_PC+>
0.87036651

>  <PEOE_PC->
-0.87036651

>  <PEOE_RPC+>
0.13292263

>  <PEOE_RPC->
0.31985217

>  <PEOE_VSA+0>
159.38037

>  <PEOE_VSA+1>
0

>  <PEOE_VSA+2>
62.769024

>  <PEOE_VSA+3>
0

>  <PEOE_VSA+4>
0

>  <PEOE_VSA+5>
0

>  <PEOE_VSA+6>
0

>  <PEOE_VSA-0>
0

>  <PEOE_VSA-1>
118.46407

>  <PEOE_VSA-2>
0

>  <PEOE_VSA-3>
0

>  <PEOE_VSA-4>
0

>  <PEOE_VSA-5>
0

>  <PEOE_VSA-6>
0

>  <PEOE_VSA_FHYD>
1

>  <PEOE_VSA_FNEG>
0.3477962

>  <PEOE_VSA_FPNEG>
0

>  <PEOE_VSA_FPOL>
0

>  <PEOE_VSA_FPOS>
0.6522038

>  <PEOE_VSA_FPPOS>
0

>  <PEOE_VSA_HYD>
340.61346

>  <PEOE_VSA_NEG>
118.46407

>  <PEOE_VSA_PNEG>
0

>  <PEOE_VSA_POL>
0

>  <PEOE_VSA_POS>
222.14938

>  <PEOE_VSA_PPOS>
0

>  <petitjean>
0.44444445

>  <petitjeanSC>
0.80000001

>  <Q_PC+>
0

>  <Q_PC->
0

>  <Q_RPC+>
0

>  <Q_RPC->
0

>  <Q_VSA_FHYD>
1

>  <Q_VSA_FNEG>
0

>  <Q_VSA_FPNEG>
0

>  <Q_VSA_FPOL>
0

>  <Q_VSA_FPOS>
1

>  <Q_VSA_FPPOS>
0

>  <Q_VSA_HYD>
340.61346

>  <Q_VSA_NEG>
0

>  <Q_VSA_PNEG>
0

>  <Q_VSA_POL>
0

>  <Q_VSA_POS>
340.61346

>  <Q_VSA_PPOS>
0

>  <radius>
5

>  <reactive>
1

>  <rings>
0

>  <RPC+>
0

>  <RPC->
0

>  <rsynth>
1

>  <SlogP>
3.6212001

>  <SlogP_VSA0>
0

>  <SlogP_VSA1>
6.2486277

>  <SlogP_VSA2>
0

>  <SlogP_VSA3>
73.758316

>  <SlogP_VSA4>
0

>  <SlogP_VSA5>
0

>  <SlogP_VSA6>
0

>  <SlogP_VSA7>
0

>  <SlogP_VSA8>
0

>  <SlogP_VSA9>
284.05161

>  <SMR>
8.6224003

>  <SMR_VSA0>
0

>  <SMR_VSA1>
6.2486277

>  <SMR_VSA2>
0

>  <SMR_VSA3>
0

>  <SMR_VSA4>
0

>  <SMR_VSA5>
0

>  <SMR_VSA6>
73.758316

>  <SMR_VSA7>
284.05161

>  <TPSA>
70.660004

>  <VAdjEq>
0.521222

>  <VAdjMa>
4.9068904

>  <VDistEq>
3.0567408

>  <VDistMa>
7.6862431

>  <vdw_area>
340.61346

>  <vdw_vol>
367.66986

>  <vsa_acc>
62.769024

>  <vsa_acid>
0

>  <vsa_base>
0

>  <vsa_don>
0

>  <vsa_hyd>
242.30518

>  <vsa_other>
21.303349

>  <vsa_pol>
62.769024

>  <Weight>
296.548

>  <weinerPath>
502

>  <weinerPol>
21

>  <zagreb>
66

$$$$