O1CCc2c([nH]c3c2cccc3CC)C1(CC(O)=O)CC
  MOE2013           2D

 21 23  0  0  1  0  0  0  0  0999 V2000
    0.0000    0.0000    0.0000 O   0  0  0  0  0  0  0  0  0  0  0  0
   -0.7580    1.2940    0.0000 C   0  0  0  0  0  0  0  0  0  0  0  0
   -2.2580    1.2850    0.0000 C   0  0  0  0  0  0  0  0  0  0  0  0
   -3.0000   -0.0180    0.0000 C   0  0  0  0  0  0  0  0  0  0  0  0
   -2.2420   -1.3130    0.0000 C   0  0  0  0  0  0  0  0  0  0  0  0
   -3.2390   -2.4340    0.0000 N   0  0  0  0  0  0  0  0  0  0  0  0
   -4.6130   -1.8320    0.0000 C   0  0  0  0  0  0  0  0  0  0  0  0
   -4.4650   -0.3390    0.0000 C   0  0  0  0  0  0  0  0  0  0  0  0
   -5.6840    0.5350    0.0000 C   0  0  0  0  0  0  0  0  0  0  0  0
   -7.0510   -0.0830    0.0000 C   0  0  0  0  0  0  0  0  0  0  0  0
   -7.1980   -1.5760    0.0000 C   0  0  0  0  0  0  0  0  0  0  0  0
   -5.9790   -2.4500    0.0000 C   0  0  0  0  0  0  0  0  0  0  0  0
   -6.1270   -3.9430    0.0000 C   0  0  0  0  0  0  0  0  0  0  0  0
   -7.4940   -4.5610    0.0000 C   0  0  0  0  0  0  0  0  0  0  0  0
   -0.7420   -1.3040    0.0000 C   0  0  3  0  0  0  0  0  0  0  0  0
    0.5450   -2.0740    0.0000 C   0  0  0  0  0  0  0  0  0  0  0  0
    1.8560   -1.3440    0.0000 C   0  0  0  0  0  0  0  0  0  0  0  0
    3.1430   -2.1150    0.0000 O   0  0  0  0  0  0  0  0  0  0  0  0
    1.8790    0.1550    0.0000 O   0  0  0  0  0  0  0  0  0  0  0  0
   -0.7530   -2.8040    0.0000 C   0  0  0  0  0  0  0  0  0  0  0  0
    0.5410   -3.5630    0.0000 C   0  0  0  0  0  0  0  0  0  0  0  0
  1  2  1  0  0  0  0
  1 15  1  0  0  0  0
  2  3  1  0  0  0  0
  3  4  1  0  0  0  0
  4  5  2  0  0  0  0
  4  8  1  0  0  0  0
  5  6  1  0  0  0  0
  5 15  1  0  0  0  0
  6  7  1  0  0  0  0
  7  8  1  0  0  0  0
  7 12  2  0  0  0  0
  8  9  2  0  0  0  0
  9 10  1  0  0  0  0
 10 11  2  0  0  0  0
 11 12  1  0  0  0  0
 12 13  1  0  0  0  0
 13 14  1  0  0  0  0
 15 16  1  0  0  0  0
 15 20  1  0  0  0  0
 16 17  1  0  0  0  0
 17 18  1  0  0  0  0
 17 19  2  0  0  0  0
 20 21  1  0  0  0  0
M  END
>  <Index>
1561

>  <ID>
HT0826

>  <class>
1

>  <apol>
47.428654

>  <ast_fraglike>
0

>  <ast_fraglike_ext>
0

>  <ast_violation>
1

>  <ast_violation_ext>
2

>  <a_acc>
3

>  <a_acid>
0

>  <a_aro>
9

>  <a_base>
0

>  <a_count>
42

>  <a_don>
3

>  <a_donacc>
6

>  <a_heavy>
21

>  <a_hyd>
16

>  <a_IC>
59.99691

>  <a_ICM>
1.4284979

>  <a_nB>
0

>  <a_nBr>
0

>  <a_nC>
17

>  <a_nCl>
0

>  <a_nF>
0

>  <a_nH>
21

>  <a_nI>
0

>  <a_nN>
1

>  <a_nO>
3

>  <a_nP>
0

>  <a_nS>
0

>  <balabanJ>
1.8541893

>  <BCUT_PEOE_0>
-2.6582541

>  <BCUT_PEOE_1>
-0.50410259

>  <BCUT_PEOE_2>
0.49268806

>  <BCUT_PEOE_3>
2.6890705

>  <BCUT_SLOGP_0>
-2.5992486

>  <BCUT_SLOGP_1>
-0.41643202

>  <BCUT_SLOGP_2>
0.55779386

>  <BCUT_SLOGP_3>
2.7744997

>  <BCUT_SMR_0>
-2.422493

>  <BCUT_SMR_1>
-0.31459352

>  <BCUT_SMR_2>
0.64681709

>  <BCUT_SMR_3>
2.9247911

>  <bpol>
26.491346

>  <b_1rotN>
4

>  <b_1rotR>
0.17391305

>  <b_ar>
10

>  <b_count>
44

>  <b_double>
1

>  <b_heavy>
23

>  <b_max1len>
5

>  <b_rotN>
4

>  <b_rotR>
0.17391305

>  <b_single>
33

>  <b_triple>
0

>  <chi0>
15.03517

>  <chi0v>
12.531295

>  <chi0v_C>
10.767585

>  <chi0_C>
11.620955

>  <chi1>
10.109321

>  <chi1v>
7.5965276

>  <chi1v_C>
6.1759973

>  <chi1_C>
7.2845702

>  <chiral>
1

>  <chiral_u>
1

>  <density>
0.71741718

>  <diameter>
9

>  <FCharge>
0

>  <GCUT_PEOE_0>
-0.85264897

>  <GCUT_PEOE_1>
-0.39878288

>  <GCUT_PEOE_2>
0.056596085

>  <GCUT_PEOE_3>
2.8051085

>  <GCUT_SLOGP_0>
-0.87315774

>  <GCUT_SLOGP_1>
-0.29331899

>  <GCUT_SLOGP_2>
0.072210237

>  <GCUT_SLOGP_3>
2.9068272

>  <GCUT_SMR_0>
-0.52364421

>  <GCUT_SMR_1>
-0.20306864

>  <GCUT_SMR_2>
0.17454983

>  <GCUT_SMR_3>
3.0720766

>  <Kier1>
15.879017

>  <Kier2>
6.2456746

>  <Kier3>
2.6988754

>  <KierA1>
12.595922

>  <KierA2>
4.8928137

>  <KierA3>
2.0940452

>  <KierFlex>
2.9347384

>  <lip_acc>
4

>  <lip_don>
2

>  <lip_druglike>
1

>  <lip_violation>
0

>  <logP(o/w)>
3.7360001

>  <logS>
-3.2102001

>  <mr>
8.189127

>  <mutagenic>
0

>  <nmol>
1

>  <opr_brigid>
15

>  <opr_leadlike>
1

>  <opr_nring>
3

>  <opr_nrot>
4

>  <opr_violation>
0

>  <PC+>
0

>  <PC->
0

>  <PEOE_PC+>
1.6998358

>  <PEOE_PC->
-1.6998358

>  <PEOE_RPC+>
0.15456708

>  <PEOE_RPC->
0.21560328

>  <PEOE_VSA+0>
61.923943

>  <PEOE_VSA+1>
58.378639

>  <PEOE_VSA+2>
0

>  <PEOE_VSA+3>
8.6190128

>  <PEOE_VSA+4>
10.324173

>  <PEOE_VSA+5>
14.708499

>  <PEOE_VSA+6>
0

>  <PEOE_VSA-0>
30.521019

>  <PEOE_VSA-1>
74.260063

>  <PEOE_VSA-2>
0

>  <PEOE_VSA-3>
0

>  <PEOE_VSA-4>
0

>  <PEOE_VSA-5>
13.566921

>  <PEOE_VSA-6>
10.408187

>  <PEOE_VSA_FHYD>
0.82665026

>  <PEOE_VSA_FNEG>
0.45543483

>  <PEOE_VSA_FPNEG>
0.08480446

>  <PEOE_VSA_FPOL>
0.17334972

>  <PEOE_VSA_FPOS>
0.54456514

>  <PEOE_VSA_FPPOS>
0.088545263

>  <PEOE_VSA_HYD>
233.70268

>  <PEOE_VSA_NEG>
128.7562

>  <PEOE_VSA_PNEG>
23.975109

>  <PEOE_VSA_POL>
49.007782

>  <PEOE_VSA_POS>
153.95427

>  <PEOE_VSA_PPOS>
25.032671

>  <petitjean>
0.44444445

>  <petitjeanSC>
0.80000001

>  <Q_PC+>
0

>  <Q_PC->
0

>  <Q_RPC+>
0

>  <Q_RPC->
0

>  <Q_VSA_FHYD>
1

>  <Q_VSA_FNEG>
0

>  <Q_VSA_FPNEG>
0

>  <Q_VSA_FPOL>
0

>  <Q_VSA_FPOS>
1

>  <Q_VSA_FPPOS>
0

>  <Q_VSA_HYD>
282.71045

>  <Q_VSA_NEG>
0

>  <Q_VSA_PNEG>
0

>  <Q_VSA_POL>
0

>  <Q_VSA_POS>
282.71045

>  <Q_VSA_PPOS>
0

>  <radius>
5

>  <reactive>
0

>  <rings>
3

>  <RPC+>
0

>  <RPC->
0

>  <rsynth>
0.61904764

>  <SlogP>
3.6944399

>  <SlogP_VSA0>
0

>  <SlogP_VSA1>
7.7454643

>  <SlogP_VSA2>
51.647633

>  <SlogP_VSA3>
46.311485

>  <SlogP_VSA4>
9.1278973

>  <SlogP_VSA5>
37.736813

>  <SlogP_VSA6>
0

>  <SlogP_VSA7>
57.646656

>  <SlogP_VSA8>
37.736813

>  <SlogP_VSA9>
66.652031

>  <SMR>
8.1671495

>  <SMR_VSA0>
34.862103

>  <SMR_VSA1>
0

>  <SMR_VSA2>
42.170757

>  <SMR_VSA3>
9.1278973

>  <SMR_VSA4>
4.7171016

>  <SMR_VSA5>
128.40317

>  <SMR_VSA6>
28.671722

>  <SMR_VSA7>
66.652031

>  <TPSA>
62.32

>  <VAdjEq>
0.48250595

>  <VAdjMa>
5.523562

>  <VDistEq>
2.921818

>  <VDistMa>
8.5283966

>  <vdw_area>
282.71045

>  <vdw_vol>
400.5466

>  <vsa_acc>
2.503756

>  <vsa_acid>
0

>  <vsa_base>
0

>  <vsa_don>
5.6825762

>  <vsa_hyd>
211.55956

>  <vsa_other>
14.708499

>  <vsa_pol>
35.320175

>  <Weight>
287.35898

>  <weinerPath>
825

>  <weinerPol>
38

>  <zagreb>
114

$$$$