s1c2Nc3c(N=C(N4CCN(CC4)C)c2cc1C)cccc3
  MOE2013           2D

 22 25  0  0  0  0  0  0  0  0999 V2000
    0.0000    0.0000    0.0000 S   0  0  0  0  0  0  0  0  0  0  0  0
   -0.2510   -1.4790    0.0000 C   0  0  0  0  0  0  0  0  0  0  0  0
   -1.6240   -2.0840    0.0000 N   0  0  0  0  0  0  0  0  0  0  0  0
   -2.0050   -3.5340    0.0000 C   0  0  0  0  0  0  0  0  0  0  0  0
   -1.1090   -4.7370    0.0000 C   0  0  0  0  0  0  0  0  0  0  0  0
    0.3900   -4.7880    0.0000 N   0  0  0  0  0  0  0  0  0  0  0  0
    1.3640   -3.6470    0.0000 C   0  0  0  0  0  0  0  0  0  0  0  0
    2.8140   -4.0280    0.0000 N   0  0  0  0  0  0  0  0  0  0  0  0
    3.2090   -5.4750    0.0000 C   0  0  0  0  0  0  0  0  0  0  0  0
    4.6600   -5.8570    0.0000 C   0  0  0  0  0  0  0  0  0  0  0  0
    5.7160   -4.7910    0.0000 N   0  0  0  0  0  0  0  0  0  0  0  0
    5.3210   -3.3440    0.0000 C   0  0  0  0  0  0  0  0  0  0  0  0
    3.8700   -2.9630    0.0000 C   0  0  0  0  0  0  0  0  0  0  0  0
    7.1660   -5.1720    0.0000 C   0  0  0  0  0  0  0  0  0  0  0  0
    1.0780   -2.1740    0.0000 C   0  0  0  0  0  0  0  0  0  0  0  0
    2.1500   -1.1250    0.0000 C   0  0  0  0  0  0  0  0  0  0  0  0
    1.4840    0.2180    0.0000 C   0  0  0  0  0  0  0  0  0  0  0  0
    2.1800    1.5470    0.0000 C   0  0  0  0  0  0  0  0  0  0  0  0
   -1.7030   -6.1150    0.0000 C   0  0  0  0  0  0  0  0  0  0  0  0
   -3.1930   -6.2890    0.0000 C   0  0  0  0  0  0  0  0  0  0  0  0
   -4.0890   -5.0860    0.0000 C   0  0  0  0  0  0  0  0  0  0  0  0
   -3.4950   -3.7090    0.0000 C   0  0  0  0  0  0  0  0  0  0  0  0
  1  2  1  0  0  0  0
  1 17  1  0  0  0  0
  2  3  1  0  0  0  0
  2 15  2  0  0  0  0
  3  4  1  0  0  0  0
  4  5  1  0  0  0  0
  4 22  2  0  0  0  0
  5  6  1  0  0  0  0
  5 19  2  0  0  0  0
  6  7  2  0  0  0  0
  7  8  1  0  0  0  0
  7 15  1  0  0  0  0
  8  9  1  0  0  0  0
  8 13  1  0  0  0  0
  9 10  1  0  0  0  0
 10 11  1  0  0  0  0
 11 12  1  0  0  0  0
 11 14  1  0  0  0  0
 12 13  1  0  0  0  0
 15 16  1  0  0  0  0
 16 17  2  0  0  0  0
 17 18  1  0  0  0  0
 19 20  1  0  0  0  0
 20 21  2  0  0  0  0
 21 22  1  0  0  0  0
M  END
>  <Index>
1675

>  <ID>
HT1535

>  <class>
1

>  <apol>
50.555859

>  <ast_fraglike>
0

>  <ast_fraglike_ext>
0

>  <ast_violation>
2

>  <ast_violation_ext>
2

>  <a_acc>
2

>  <a_acid>
0

>  <a_aro>
11

>  <a_base>
0

>  <a_count>
42

>  <a_don>
1

>  <a_donacc>
3

>  <a_heavy>
22

>  <a_hyd>
17

>  <a_IC>
62.551903

>  <a_ICM>
1.489331

>  <a_nB>
0

>  <a_nBr>
0

>  <a_nC>
17

>  <a_nCl>
0

>  <a_nF>
0

>  <a_nH>
20

>  <a_nI>
0

>  <a_nN>
4

>  <a_nO>
0

>  <a_nP>
0

>  <a_nS>
1

>  <balabanJ>
1.5433159

>  <BCUT_PEOE_0>
-2.7492204

>  <BCUT_PEOE_1>
-0.52699894

>  <BCUT_PEOE_2>
0.59977275

>  <BCUT_PEOE_3>
2.6450336

>  <BCUT_SLOGP_0>
-2.870975

>  <BCUT_SLOGP_1>
-0.40616632

>  <BCUT_SLOGP_2>
0.72220951

>  <BCUT_SLOGP_3>
2.5483577

>  <BCUT_SMR_0>
-2.4584394

>  <BCUT_SMR_1>
-0.34198204

>  <BCUT_SMR_2>
0.76710898

>  <BCUT_SMR_3>
2.9290671

>  <bpol>
30.084141

>  <b_1rotN>
1

>  <b_1rotR>
0.039999999

>  <b_ar>
11

>  <b_count>
45

>  <b_double>
1

>  <b_heavy>
25

>  <b_max1len>
2

>  <b_rotN>
1

>  <b_rotR>
0.039999999

>  <b_single>
33

>  <b_triple>
0

>  <chi0>
15.104083

>  <chi0v>
13.781564

>  <chi0v_C>
10.715178

>  <chi0_C>
11.828063

>  <chi1>
10.70351

>  <chi1v>
8.5123901

>  <chi1v_C>
4.4047008

>  <chi1_C>
5.7103434

>  <chiral>
0

>  <chiral_u>
0

>  <density>
0.72995633

>  <diameter>
10

>  <FCharge>
0

>  <GCUT_PEOE_0>
-0.86642677

>  <GCUT_PEOE_1>
-0.35880724

>  <GCUT_PEOE_2>
0.031338297

>  <GCUT_PEOE_3>
2.6922414

>  <GCUT_SLOGP_0>
-0.96672869

>  <GCUT_SLOGP_1>
-0.26995292

>  <GCUT_SLOGP_2>
0.14997865

>  <GCUT_SLOGP_3>
2.7774367

>  <GCUT_SMR_0>
-0.51366037

>  <GCUT_SMR_1>
-0.16035703

>  <GCUT_SMR_2>
0.17357631

>  <GCUT_SMR_3>
3.0007107

>  <Kier1>
15.5232

>  <Kier2>
6.4814816

>  <Kier3>
3.1653478

>  <KierA1>
12.585799

>  <KierA2>
5.1989999

>  <KierA3>
2.5193489

>  <KierFlex>
2.9742529

>  <lip_acc>
4

>  <lip_don>
1

>  <lip_druglike>
1

>  <lip_violation>
0

>  <logP(o/w)>
2.523

>  <logS>
-3.6436

>  <mr>
9.0496454

>  <mutagenic>
0

>  <nmol>
1

>  <opr_brigid>
22

>  <opr_leadlike>
1

>  <opr_nring>
4

>  <opr_nrot>
3

>  <opr_violation>
0

>  <PC+>
0

>  <PC->
0

>  <PEOE_PC+>
1.5836954

>  <PEOE_PC->
-1.5836954

>  <PEOE_RPC+>
0.10954163

>  <PEOE_RPC->
0.22286402

>  <PEOE_VSA+0>
104.33125

>  <PEOE_VSA+1>
45.088024

>  <PEOE_VSA+2>
19.809576

>  <PEOE_VSA+3>
19.760618

>  <PEOE_VSA+4>
0

>  <PEOE_VSA+5>
0

>  <PEOE_VSA+6>
0

>  <PEOE_VSA-0>
75.171791

>  <PEOE_VSA-1>
40.949314

>  <PEOE_VSA-2>
0

>  <PEOE_VSA-3>
0

>  <PEOE_VSA-4>
5.6825762

>  <PEOE_VSA-5>
0.13689101

>  <PEOE_VSA-6>
0

>  <PEOE_VSA_FHYD>
0.98128366

>  <PEOE_VSA_FNEG>
0.39218009

>  <PEOE_VSA_FPNEG>
0.018716324

>  <PEOE_VSA_FPOL>
0.018716324

>  <PEOE_VSA_FPOS>
0.60781991

>  <PEOE_VSA_FPPOS>
0

>  <PEOE_VSA_HYD>
305.11057

>  <PEOE_VSA_NEG>
121.94057

>  <PEOE_VSA_PNEG>
5.8194671

>  <PEOE_VSA_POL>
5.8194671

>  <PEOE_VSA_POS>
188.98947

>  <PEOE_VSA_PPOS>
0

>  <petitjean>
0.5

>  <petitjeanSC>
1

>  <Q_PC+>
0

>  <Q_PC->
0

>  <Q_RPC+>
0

>  <Q_RPC->
0

>  <Q_VSA_FHYD>
1

>  <Q_VSA_FNEG>
0

>  <Q_VSA_FPNEG>
0

>  <Q_VSA_FPOL>
0

>  <Q_VSA_FPOS>
1

>  <Q_VSA_FPPOS>
0

>  <Q_VSA_HYD>
310.93002

>  <Q_VSA_NEG>
0

>  <Q_VSA_PNEG>
0

>  <Q_VSA_POL>
0

>  <Q_VSA_POS>
310.93002

>  <Q_VSA_PPOS>
0

>  <radius>
5

>  <reactive>
0

>  <rings>
4

>  <RPC+>
0

>  <RPC->
0

>  <rsynth>
1

>  <SlogP>
3.43922

>  <SlogP_VSA0>
0

>  <SlogP_VSA1>
26.587299

>  <SlogP_VSA2>
0

>  <SlogP_VSA3>
73.758316

>  <SlogP_VSA4>
4.5439763

>  <SlogP_VSA5>
49.682716

>  <SlogP_VSA6>
0

>  <SlogP_VSA7>
88.215919

>  <SlogP_VSA8>
0

>  <SlogP_VSA9>
71.046768

>  <SMR>
9.4047699

>  <SMR_VSA0>
0

>  <SMR_VSA1>
23.034157

>  <SMR_VSA2>
0

>  <SMR_VSA3>
4.5439763

>  <SMR_VSA4>
24.453819

>  <SMR_VSA5>
88.215919

>  <SMR_VSA6>
76.086235

>  <SMR_VSA7>
97.500893

>  <TPSA>
30.870001

>  <VAdjEq>
0.47938794

>  <VAdjMa>
5.643856

>  <VDistEq>
3.0239213

>  <VDistMa>
8.6555395

>  <vdw_area>
310.93002

>  <vdw_vol>
428.02695

>  <vsa_acc>
5.6825762

>  <vsa_acid>
0

>  <vsa_base>
0

>  <vsa_don>
5.6825762

>  <vsa_hyd>
271.77689

>  <vsa_other>
11.190562

>  <vsa_pol>
11.365152

>  <Weight>
312.44101

>  <weinerPath>
958

>  <weinerPol>
38

>  <zagreb>
122

$$$$