S1[C@H]2N(C(C(O)=O)=C(C1)CSc1nnnn1C)C(=O)[C@H]2NC(=O)[C@H](O)c1ccccc1
  MOE2013           2D

 31 34  0  0  1  0  0  0  0  0999 V2000
    0.0000    0.0000    0.0000 S   0  0  0  0  0  0  0  0  0  0  0  0
   -0.7590    1.2940    0.0000 C   0  0  1  0  0  0  0  0  0  0  0  0
   -0.0190    2.5980    0.0000 N   0  0  0  0  0  0  0  0  0  0  0  0
    1.4810    2.6090    0.0000 C   0  0  0  0  0  0  0  0  0  0  0  0
    2.2220    3.9130    0.0000 C   0  0  0  0  0  0  0  0  0  0  0  0
    3.7220    3.9240    0.0000 O   0  0  0  0  0  0  0  0  0  0  0  0
    1.4630    5.2070    0.0000 O   0  0  0  0  0  0  0  0  0  0  0  0
    2.2410    1.3150    0.0000 C   0  0  0  0  0  0  0  0  0  0  0  0
    1.5000    0.0110    0.0000 C   0  0  0  0  0  0  0  0  0  0  0  0
    3.7410    1.3260    0.0000 C   0  0  0  0  0  0  0  0  0  0  0  0
    4.5000    0.0320    0.0000 S   0  0  0  0  0  0  0  0  0  0  0  0
    6.0000    0.0430    0.0000 C   0  0  0  0  0  0  0  0  0  0  0  0
    6.8730    1.2630    0.0000 N   0  0  0  0  0  0  0  0  0  0  0  0
    8.3030    0.8100    0.0000 N   0  0  0  0  0  0  0  0  0  0  0  0
    8.3130   -0.6900    0.0000 N   0  0  0  0  0  0  0  0  0  0  0  0
    6.8900   -1.1640    0.0000 N   0  0  0  0  0  0  0  0  0  0  0  0
    6.4370   -2.5940    0.0000 C   0  0  0  0  0  0  0  0  0  0  0  0
   -1.3230    3.3390    0.0000 C   0  0  0  0  0  0  0  0  0  0  0  0
   -1.7220    4.7850    0.0000 O   0  0  0  0  0  0  0  0  0  0  0  0
   -2.0640    2.0340    0.0000 C   0  0  1  0  0  0  0  0  0  0  0  0
   -3.5100    1.6360    0.0000 N   0  0  0  0  0  0  0  0  0  0  0  0
   -4.5780    2.6890    0.0000 C   0  0  0  0  0  0  0  0  0  0  0  0
   -4.2000    4.1400    0.0000 O   0  0  0  0  0  0  0  0  0  0  0  0
   -6.0240    2.2900    0.0000 C   0  0  2  0  0  0  0  0  0  0  0  0
   -6.4020    0.8380    0.0000 O   0  0  0  0  0  0  0  0  0  0  0  0
   -7.0920    3.3430    0.0000 C   0  0  0  0  0  0  0  0  0  0  0  0
   -6.7150    4.7950    0.0000 C   0  0  0  0  0  0  0  0  0  0  0  0
   -7.7830    5.8480    0.0000 C   0  0  0  0  0  0  0  0  0  0  0  0
   -9.2290    5.4490    0.0000 C   0  0  0  0  0  0  0  0  0  0  0  0
   -9.6070    3.9970    0.0000 C   0  0  0  0  0  0  0  0  0  0  0  0
   -8.5380    2.9440    0.0000 C   0  0  0  0  0  0  0  0  0  0  0  0
  1  9  1  0  0  0  0
  2  1  1  6  0  0  0
  2  3  1  0  0  0  0
  2 20  1  0  0  0  0
  3  4  1  0  0  0  0
  3 18  1  0  0  0  0
  4  5  1  0  0  0  0
  4  8  2  0  0  0  0
  5  6  1  0  0  0  0
  5  7  2  0  0  0  0
  8  9  1  0  0  0  0
  8 10  1  0  0  0  0
 10 11  1  0  0  0  0
 11 12  1  0  0  0  0
 12 13  2  0  0  0  0
 12 16  1  0  0  0  0
 13 14  1  0  0  0  0
 14 15  2  0  0  0  0
 15 16  1  0  0  0  0
 16 17  1  0  0  0  0
 18 19  2  0  0  0  0
 18 20  1  0  0  0  0
 20 21  1  6  0  0  0
 21 22  1  0  0  0  0
 22 23  2  0  0  0  0
 22 24  1  0  0  0  0
 24 25  1  6  0  0  0
 24 26  1  0  0  0  0
 26 27  1  0  0  0  0
 26 31  2  0  0  0  0
 27 28  2  0  0  0  0
 28 29  1  0  0  0  0
 29 30  2  0  0  0  0
 30 31  1  0  0  0  0
M  END
>  <Index>
1465

>  <ID>
HT0397

>  <class>
1

>  <apol>
60.092274

>  <ast_fraglike>
0

>  <ast_fraglike_ext>
0

>  <ast_violation>
3

>  <ast_violation_ext>
5

>  <a_acc>
8

>  <a_acid>
0

>  <a_aro>
11

>  <a_base>
0

>  <a_count>
49

>  <a_don>
4

>  <a_donacc>
12

>  <a_heavy>
31

>  <a_hyd>
16

>  <a_IC>
95.884064

>  <a_ICM>
1.9568177

>  <a_nB>
0

>  <a_nBr>
0

>  <a_nC>
18

>  <a_nCl>
0

>  <a_nF>
0

>  <a_nH>
18

>  <a_nI>
0

>  <a_nN>
6

>  <a_nO>
5

>  <a_nP>
0

>  <a_nS>
2

>  <balabanJ>
1.3288491

>  <BCUT_PEOE_0>
-2.6884267

>  <BCUT_PEOE_1>
-0.58668417

>  <BCUT_PEOE_2>
0.62273973

>  <BCUT_PEOE_3>
2.7372983

>  <BCUT_SLOGP_0>
-2.894135

>  <BCUT_SLOGP_1>
-0.53807992

>  <BCUT_SLOGP_2>
0.59808522

>  <BCUT_SLOGP_3>
2.6241078

>  <BCUT_SMR_0>
-2.4031558

>  <BCUT_SMR_1>
-0.41846225

>  <BCUT_SMR_2>
0.76660252

>  <BCUT_SMR_3>
3.0208921

>  <bpol>
31.731726

>  <b_1rotN>
7

>  <b_1rotR>
0.20588236

>  <b_ar>
11

>  <b_count>
52

>  <b_double>
4

>  <b_heavy>
34

>  <b_max1len>
3

>  <b_rotN>
8

>  <b_rotR>
0.23529412

>  <b_single>
37

>  <b_triple>
0

>  <chi0>
22.120592

>  <chi0v>
17.837746

>  <chi0v_C>
10.533015

>  <chi0_C>
11.72325

>  <chi1>
14.879918

>  <chi1v>
11.201372

>  <chi1v_C>
4.3171492

>  <chi1_C>
5.6329932

>  <chiral>
3

>  <chiral_u>
0

>  <density>
0.88317537

>  <diameter>
16

>  <FCharge>
0

>  <GCUT_PEOE_0>
-0.82395291

>  <GCUT_PEOE_1>
-0.40504727

>  <GCUT_PEOE_2>
0.079506151

>  <GCUT_PEOE_3>
2.6472034

>  <GCUT_SLOGP_0>
-1.1645993

>  <GCUT_SLOGP_1>
-0.40105876

>  <GCUT_SLOGP_2>
0.12008046

>  <GCUT_SLOGP_3>
2.6252744

>  <GCUT_SMR_0>
-0.52911901

>  <GCUT_SMR_1>
-0.22677876

>  <GCUT_SMR_2>
0.20550594

>  <GCUT_SMR_3>
2.9303682

>  <Kier1>
24.134949

>  <Kier2>
10.508121

>  <Kier3>
5.0865054

>  <KierA1>
19.834934

>  <KierA2>
8.5763454

>  <KierA3>
4.1304221

>  <KierFlex>
5.4874597

>  <lip_acc>
11

>  <lip_don>
3

>  <lip_druglike>
1

>  <lip_violation>
1

>  <logP(o/w)>
-0.29800001

>  <logS>
-4.4042101

>  <mr>
11.436801

>  <mutagenic>
0

>  <nmol>
1

>  <opr_brigid>
20

>  <opr_leadlike>
0

>  <opr_nring>
4

>  <opr_nrot>
7

>  <opr_violation>
2

>  <PC+>
0

>  <PC->
0

>  <PEOE_PC+>
3.0575321

>  <PEOE_PC->
-3.0575321

>  <PEOE_RPC+>
0.10071468

>  <PEOE_RPC->
0.12352041

>  <PEOE_VSA+0>
74.451141

>  <PEOE_VSA+1>
34.123089

>  <PEOE_VSA+2>
14.967534

>  <PEOE_VSA+3>
13.523942

>  <PEOE_VSA+4>
33.814968

>  <PEOE_VSA+5>
25.899061

>  <PEOE_VSA+6>
14.708499

>  <PEOE_VSA-0>
30.736086

>  <PEOE_VSA-1>
81.035141

>  <PEOE_VSA-2>
29.181658

>  <PEOE_VSA-3>
0

>  <PEOE_VSA-4>
0

>  <PEOE_VSA-5>
40.700764

>  <PEOE_VSA-6>
15.671971

>  <PEOE_VSA_FHYD>
0.68006158

>  <PEOE_VSA_FNEG>
0.48267841

>  <PEOE_VSA_FPNEG>
0.13789341

>  <PEOE_VSA_FPOL>
0.31993845

>  <PEOE_VSA_FPOS>
0.51732159

>  <PEOE_VSA_FPPOS>
0.18204503

>  <PEOE_VSA_HYD>
278.01859

>  <PEOE_VSA_NEG>
197.32561

>  <PEOE_VSA_PNEG>
56.372734

>  <PEOE_VSA_POL>
130.79526

>  <PEOE_VSA_POS>
211.48824

>  <PEOE_VSA_PPOS>
74.422531

>  <petitjean>
0.5

>  <petitjeanSC>
1

>  <Q_PC+>
0

>  <Q_PC->
0

>  <Q_RPC+>
0

>  <Q_RPC->
0

>  <Q_VSA_FHYD>
1

>  <Q_VSA_FNEG>
0

>  <Q_VSA_FPNEG>
0

>  <Q_VSA_FPOL>
0

>  <Q_VSA_FPOS>
1

>  <Q_VSA_FPPOS>
0

>  <Q_VSA_HYD>
408.81384

>  <Q_VSA_NEG>
0

>  <Q_VSA_PNEG>
0

>  <Q_VSA_POL>
0

>  <Q_VSA_POS>
408.81384

>  <Q_VSA_PPOS>
0

>  <radius>
8

>  <reactive>
0

>  <rings>
4

>  <RPC+>
0

>  <RPC->
0

>  <rsynth>
0.51612902

>  <SlogP>
0.2291

>  <SlogP_VSA0>
43.395977

>  <SlogP_VSA1>
72.90789

>  <SlogP_VSA2>
77.915749

>  <SlogP_VSA3>
59.852356

>  <SlogP_VSA4>
3.185575

>  <SlogP_VSA5>
6.6354017

>  <SlogP_VSA6>
0

>  <SlogP_VSA7>
88.215919

>  <SlogP_VSA8>
6.4686494

>  <SlogP_VSA9>
97.336273

>  <SMR>
11.10023

>  <SMR_VSA0>
71.586647

>  <SMR_VSA1>
80.03009

>  <SMR_VSA2>
44.089058

>  <SMR_VSA3>
21.925644

>  <SMR_VSA4>
0

>  <SMR_VSA5>
88.215919

>  <SMR_VSA6>
52.73016

>  <SMR_VSA7>
97.336273

>  <TPSA>
150.53999

>  <VAdjEq>
0.36875206

>  <VAdjMa>
6.0874629

>  <VDistEq>
3.7679045

>  <VDistMa>
9.602128

>  <vdw_area>
408.81384

>  <vdw_vol>
523.69098

>  <vsa_acc>
62.873886

>  <vsa_acid>
0

>  <vsa_base>
0

>  <vsa_don>
5.6825762

>  <vsa_hyd>
222.98259

>  <vsa_other>
53.774185

>  <vsa_pol>
109.25723

>  <Weight>
462.51099

>  <weinerPath>
2914

>  <weinerPol>
49

>  <zagreb>
166

$$$$