S1[C@H]2N([C@@H](C(O)=O)C1(C)C)C(=O)[C@H]2NC(=O)[C@H](NC(=O)N1CCN(S(=O)(=O)C)C1=O)c1ccccc1
  MOE2013           2D

 36 39  0  0  1  0  0  0  0  0999 V2000
    0.0000    0.0000    0.0000 S   0  0  0  0  0  0  0  0  0  0  0  0
    0.6050    1.3730    0.0000 C   0  0  1  0  0  0  0  0  0  0  0  0
   -0.5140    2.3720    0.0000 N   0  0  0  0  0  0  0  0  0  0  0  0
   -1.8100    1.6170    0.0000 C   0  0  1  0  0  0  0  0  0  0  0  0
   -3.1830    2.2220    0.0000 C   0  0  0  0  0  0  0  0  0  0  0  0
   -3.3450    3.7130    0.0000 O   0  0  0  0  0  0  0  0  0  0  0  0
   -4.3930    1.3350    0.0000 O   0  0  0  0  0  0  0  0  0  0  0  0
   -1.4920    0.1510    0.0000 C   0  0  0  0  0  0  0  0  0  0  0  0
   -1.7600   -1.3250    0.0000 C   0  0  0  0  0  0  0  0  0  0  0  0
   -2.9290   -0.2810    0.0000 C   0  0  0  0  0  0  0  0  0  0  0  0
    0.4860    3.4910    0.0000 C   0  0  0  0  0  0  0  0  0  0  0  0
    0.4010    4.9880    0.0000 O   0  0  0  0  0  0  0  0  0  0  0  0
    1.6040    2.4910    0.0000 C   0  0  1  0  0  0  0  0  0  0  0  0
    3.1020    2.5760    0.0000 N   0  0  0  0  0  0  0  0  0  0  0  0
    3.7780    3.9150    0.0000 C   0  0  0  0  0  0  0  0  0  0  0  0
    2.9560    5.1700    0.0000 O   0  0  0  0  0  0  0  0  0  0  0  0
    5.2750    3.9990    0.0000 C   0  0  2  0  0  0  0  0  0  0  0  0
    6.0970    2.7440    0.0000 N   0  0  0  0  0  0  0  0  0  0  0  0
    7.5950    2.8290    0.0000 C   0  0  0  0  0  0  0  0  0  0  0  0
    8.2700    4.1680    0.0000 O   0  0  0  0  0  0  0  0  0  0  0  0
    8.4160    1.5740    0.0000 N   0  0  0  0  0  0  0  0  0  0  0  0
    7.8840    0.1710    0.0000 C   0  0  0  0  0  0  0  0  0  0  0  0
    9.0540   -0.7680    0.0000 C   0  0  0  0  0  0  0  0  0  0  0  0
   10.3090    0.0540    0.0000 N   0  0  0  0  0  0  0  0  0  0  0  0
   11.7110   -0.4790    0.0000 S   0  0  0  0  0  0  0  0  0  0  0  0
   12.2430    0.9240    0.0000 O   0  0  0  0  0  0  0  0  0  0  0  0
   11.1790   -1.8810    0.0000 O   0  0  0  0  0  0  0  0  0  0  0  0
   13.1130   -1.0110    0.0000 C   0  0  0  0  0  0  0  0  0  0  0  0
    9.9150    1.5010    0.0000 C   0  0  0  0  0  0  0  0  0  0  0  0
   10.8540    2.6700    0.0000 O   0  0  0  0  0  0  0  0  0  0  0  0
    5.9510    5.3380    0.0000 C   0  0  0  0  0  0  0  0  0  0  0  0
    7.4490    5.4220    0.0000 C   0  0  0  0  0  0  0  0  0  0  0  0
    8.1240    6.7620    0.0000 C   0  0  0  0  0  0  0  0  0  0  0  0
    7.3030    8.0160    0.0000 C   0  0  0  0  0  0  0  0  0  0  0  0
    5.8050    7.9320    0.0000 C   0  0  0  0  0  0  0  0  0  0  0  0
    5.1290    6.5930    0.0000 C   0  0  0  0  0  0  0  0  0  0  0  0
  1  8  1  0  0  0  0
  2  1  1  1  0  0  0
  2  3  1  0  0  0  0
  2 13  1  0  0  0  0
  3  4  1  0  0  0  0
  3 11  1  0  0  0  0
  4  5  1  6  0  0  0
  4  8  1  0  0  0  0
  5  6  1  0  0  0  0
  5  7  2  0  0  0  0
  8  9  1  0  0  0  0
  8 10  1  0  0  0  0
 11 12  2  0  0  0  0
 11 13  1  0  0  0  0
 13 14  1  1  0  0  0
 14 15  1  0  0  0  0
 15 16  2  0  0  0  0
 17 15  1  1  0  0  0
 17 18  1  0  0  0  0
 17 31  1  0  0  0  0
 18 19  1  0  0  0  0
 19 20  2  0  0  0  0
 19 21  1  0  0  0  0
 21 22  1  0  0  0  0
 21 29  1  0  0  0  0
 22 23  1  0  0  0  0
 23 24  1  0  0  0  0
 24 25  1  0  0  0  0
 24 29  1  0  0  0  0
 25 26  2  0  0  0  0
 25 27  2  0  0  0  0
 25 28  1  0  0  0  0
 29 30  2  0  0  0  0
 31 32  1  0  0  0  0
 31 36  2  0  0  0  0
 32 33  2  0  0  0  0
 33 34  1  0  0  0  0
 34 35  2  0  0  0  0
 35 36  1  0  0  0  0
M  END
>  <Index>
1652

>  <ID>
HT1388

>  <class>
1

>  <apol>
71.345825

>  <ast_fraglike>
0

>  <ast_fraglike_ext>
0

>  <ast_violation>
3

>  <ast_violation_ext>
5

>  <a_acc>
8

>  <a_acid>
0

>  <a_aro>
6

>  <a_base>
0

>  <a_count>
61

>  <a_don>
4

>  <a_donacc>
12

>  <a_heavy>
36

>  <a_hyd>
17

>  <a_IC>
115.83027

>  <a_ICM>
1.8988569

>  <a_nB>
0

>  <a_nBr>
0

>  <a_nC>
21

>  <a_nCl>
0

>  <a_nF>
0

>  <a_nH>
25

>  <a_nI>
0

>  <a_nN>
5

>  <a_nO>
8

>  <a_nP>
0

>  <a_nS>
2

>  <balabanJ>
1.4448576

>  <BCUT_PEOE_0>
-2.6505117

>  <BCUT_PEOE_1>
-0.54780608

>  <BCUT_PEOE_2>
0.52593559

>  <BCUT_PEOE_3>
2.8501949

>  <BCUT_SLOGP_0>
-2.9021833

>  <BCUT_SLOGP_1>
-0.52025104

>  <BCUT_SLOGP_2>
0.60798544

>  <BCUT_SLOGP_3>
2.7546291

>  <BCUT_SMR_0>
-2.3920782

>  <BCUT_SMR_1>
-0.37242383

>  <BCUT_SMR_2>
0.72829396

>  <BCUT_SMR_3>
3.1313782

>  <bpol>
48.136173

>  <b_1rotN>
7

>  <b_1rotR>
0.17948718

>  <b_ar>
6

>  <b_count>
64

>  <b_double>
5

>  <b_heavy>
39

>  <b_max1len>
4

>  <b_rotN>
9

>  <b_rotR>
0.23076923

>  <b_single>
53

>  <b_triple>
0

>  <chi0>
26.576622

>  <chi0v>
21.206448

>  <chi0v_C>
13.110366

>  <chi0_C>
14.22325

>  <chi1>
16.735907

>  <chi1v>
13.644197

>  <chi1v_C>
5.1873927

>  <chi1_C>
6.2718382

>  <chiral>
4

>  <chiral_u>
0

>  <density>
0.87687832

>  <diameter>
15

>  <FCharge>
0

>  <GCUT_PEOE_0>
-0.87691122

>  <GCUT_PEOE_1>
-0.41426408

>  <GCUT_PEOE_2>
0.059671357

>  <GCUT_PEOE_3>
2.8346272

>  <GCUT_SLOGP_0>
-1.1656176

>  <GCUT_SLOGP_1>
-0.44924167

>  <GCUT_SLOGP_2>
0.13799652

>  <GCUT_SLOGP_3>
2.7818954

>  <GCUT_SMR_0>
-0.53667819

>  <GCUT_SMR_1>
-0.21605732

>  <GCUT_SMR_2>
0.19305076

>  <GCUT_SMR_3>
3.1085548

>  <Kier1>
28.994083

>  <Kier2>
10.873421

>  <Kier3>
5.6734085

>  <KierA1>
24.430954

>  <KierA2>
9.1151829

>  <KierA3>
4.7389159

>  <KierFlex>
6.1859055

>  <lip_acc>
13

>  <lip_don>
3

>  <lip_druglike>
0

>  <lip_violation>
2

>  <logP(o/w)>
-0.22400001

>  <logS>
-3.82041

>  <mr>
12.81713

>  <mutagenic>
0

>  <nmol>
1

>  <opr_brigid>
19

>  <opr_leadlike>
0

>  <opr_nring>
4

>  <opr_nrot>
5

>  <opr_violation>
2

>  <PC+>
0

>  <PC->
0

>  <PEOE_PC+>
4.0364561

>  <PEOE_PC->
-4.0364561

>  <PEOE_RPC+>
0.07030338

>  <PEOE_RPC->
0.10639626

>  <PEOE_VSA+0>
87.862709

>  <PEOE_VSA+1>
63.345772

>  <PEOE_VSA+2>
41.650642

>  <PEOE_VSA+3>
8.6190128

>  <PEOE_VSA+4>
61.437984

>  <PEOE_VSA+5>
37.763638

>  <PEOE_VSA+6>
0

>  <PEOE_VSA-0>
39.703896

>  <PEOE_VSA-1>
61.274521

>  <PEOE_VSA-2>
19.760618

>  <PEOE_VSA-3>
0

>  <PEOE_VSA-4>
0

>  <PEOE_VSA-5>
40.700764

>  <PEOE_VSA-6>
35.175163

>  <PEOE_VSA_FHYD>
0.64794004

>  <PEOE_VSA_FNEG>
0.39536908

>  <PEOE_VSA_FPNEG>
0.15257739

>  <PEOE_VSA_FPOL>
0.35205993

>  <PEOE_VSA_FPOS>
0.60463089

>  <PEOE_VSA_FPPOS>
0.19948256

>  <PEOE_VSA_HYD>
322.21716

>  <PEOE_VSA_NEG>
196.61496

>  <PEOE_VSA_PNEG>
75.875923

>  <PEOE_VSA_POL>
175.07755

>  <PEOE_VSA_POS>
300.67975

>  <PEOE_VSA_PPOS>
99.201622

>  <petitjean>
0.46666667

>  <petitjeanSC>
0.875

>  <Q_PC+>
0

>  <Q_PC->
0

>  <Q_RPC+>
0

>  <Q_RPC->
0

>  <Q_VSA_FHYD>
1

>  <Q_VSA_FNEG>
0

>  <Q_VSA_FPNEG>
0

>  <Q_VSA_FPOL>
0

>  <Q_VSA_FPOS>
1

>  <Q_VSA_FPPOS>
0

>  <Q_VSA_HYD>
497.29471

>  <Q_VSA_NEG>
0

>  <Q_VSA_PNEG>
0

>  <Q_VSA_POL>
0

>  <Q_VSA_POS>
497.29471

>  <Q_VSA_PPOS>
0

>  <radius>
8

>  <reactive>
0

>  <rings>
4

>  <RPC+>
0

>  <RPC->
0

>  <rsynth>
1

>  <SlogP>
-0.1383

>  <SlogP_VSA0>
36.0215

>  <SlogP_VSA1>
83.861816

>  <SlogP_VSA2>
88.53846

>  <SlogP_VSA3>
62.264381

>  <SlogP_VSA4>
3.185575

>  <SlogP_VSA5>
31.691174

>  <SlogP_VSA6>
0

>  <SlogP_VSA7>
88.215919

>  <SlogP_VSA8>
3.9819686

>  <SlogP_VSA9>
146.59601

>  <SMR>
12.7137

>  <SMR_VSA0>
167.48277

>  <SMR_VSA1>
7.7671885

>  <SMR_VSA2>
61.406727

>  <SMR_VSA3>
17.478609

>  <SMR_VSA4>
0

>  <SMR_VSA5>
88.215919

>  <SMR_VSA6>
64.802101

>  <SMR_VSA7>
137.20349

>  <TPSA>
173.5

>  <VAdjEq>
0.3281796

>  <VAdjMa>
6.2854023

>  <VDistEq>
3.7329631

>  <VDistMa>
10.070024

>  <vdw_area>
497.29471

>  <vdw_vol>
615.35333

>  <vsa_acc>
86.28421

>  <vsa_acid>
0

>  <vsa_base>
0

>  <vsa_don>
11.365152

>  <vsa_hyd>
260.58633

>  <vsa_other>
85.594254

>  <vsa_pol>
124.7832

>  <Weight>
539.58997

>  <weinerPath>
4071

>  <weinerPol>
61

>  <zagreb>
200

$$$$