FC(F)(F)c1ccc(NC(=O)c2cnoc2C)cc1
  MOE2013           2D

 19 20  0  0  0  0  0  0  0  0999 V2000
    0.0000    0.0000    0.0000 F   0  0  0  0  0  0  0  0  0  0  0  0
   -0.0320   -1.5000    0.0000 C   0  0  0  0  0  0  0  0  0  0  0  0
   -0.0640   -2.9990    0.0000 F   0  0  0  0  0  0  0  0  0  0  0  0
    1.4680   -1.5320    0.0000 F   0  0  0  0  0  0  0  0  0  0  0  0
   -1.5320   -1.4680    0.0000 C   0  0  0  0  0  0  0  0  0  0  0  0
   -2.3090   -2.7500    0.0000 C   0  0  0  0  0  0  0  0  0  0  0  0
   -3.8090   -2.7180    0.0000 C   0  0  0  0  0  0  0  0  0  0  0  0
   -4.5310   -1.4040    0.0000 C   0  0  0  0  0  0  0  0  0  0  0  0
   -6.0310   -1.3710    0.0000 N   0  0  0  0  0  0  0  0  0  0  0  0
   -6.7530   -0.0570    0.0000 C   0  0  0  0  0  0  0  0  0  0  0  0
   -5.9750    1.2260    0.0000 O   0  0  0  0  0  0  0  0  0  0  0  0
   -8.2520   -0.0250    0.0000 C   0  0  0  0  0  0  0  0  0  0  0  0
   -9.1600   -1.2190    0.0000 C   0  0  0  0  0  0  0  0  0  0  0  0
  -10.5760   -0.7250    0.0000 N   0  0  0  0  0  0  0  0  0  0  0  0
  -10.5440    0.7740    0.0000 O   0  0  0  0  0  0  0  0  0  0  0  0
   -9.1080    1.2070    0.0000 C   0  0  0  0  0  0  0  0  0  0  0  0
   -8.6140    2.6240    0.0000 C   0  0  0  0  0  0  0  0  0  0  0  0
   -3.7530   -0.1210    0.0000 C   0  0  0  0  0  0  0  0  0  0  0  0
   -2.2540   -0.1530    0.0000 C   0  0  0  0  0  0  0  0  0  0  0  0
  1  2  1  0  0  0  0
  2  3  1  0  0  0  0
  2  4  1  0  0  0  0
  2  5  1  0  0  0  0
  5  6  1  0  0  0  0
  5 19  2  0  0  0  0
  6  7  2  0  0  0  0
  7  8  1  0  0  0  0
  8  9  1  0  0  0  0
  8 18  2  0  0  0  0
  9 10  1  0  0  0  0
 10 11  2  0  0  0  0
 10 12  1  0  0  0  0
 12 13  1  0  0  0  0
 12 16  2  0  0  0  0
 13 14  2  0  0  0  0
 14 15  1  0  0  0  0
 15 16  1  0  0  0  0
 16 17  1  0  0  0  0
 18 19  1  0  0  0  0
M  END
>  <Index>
1617

>  <ID>
HT1182

>  <class>
1

>  <apol>
32.596138

>  <ast_fraglike>
0

>  <ast_fraglike_ext>
0

>  <ast_violation>
1

>  <ast_violation_ext>
1

>  <a_acc>
2

>  <a_acid>
0

>  <a_aro>
11

>  <a_base>
0

>  <a_count>
28

>  <a_don>
1

>  <a_donacc>
3

>  <a_heavy>
19

>  <a_hyd>
13

>  <a_IC>
54.302174

>  <a_ICM>
1.9393634

>  <a_nB>
0

>  <a_nBr>
0

>  <a_nC>
12

>  <a_nCl>
0

>  <a_nF>
3

>  <a_nH>
9

>  <a_nI>
0

>  <a_nN>
2

>  <a_nO>
2

>  <a_nP>
0

>  <a_nS>
0

>  <balabanJ>
1.7698283

>  <BCUT_PEOE_0>
-2.2754724

>  <BCUT_PEOE_1>
-0.64289856

>  <BCUT_PEOE_2>
0.70306647

>  <BCUT_PEOE_3>
2.3613679

>  <BCUT_SLOGP_0>
-2.2981751

>  <BCUT_SLOGP_1>
-0.53807992

>  <BCUT_SLOGP_2>
0.77915275

>  <BCUT_SLOGP_3>
2.4740982

>  <BCUT_SMR_0>
-1.9946483

>  <BCUT_SMR_1>
-0.43144706

>  <BCUT_SMR_2>
0.85431087

>  <BCUT_SMR_3>
2.611659

>  <bpol>
16.981863

>  <b_1rotN>
2

>  <b_1rotR>
0.1

>  <b_ar>
11

>  <b_count>
29

>  <b_double>
1

>  <b_heavy>
20

>  <b_max1len>
2

>  <b_rotN>
4

>  <b_rotR>
0.2

>  <b_single>
17

>  <b_triple>
0

>  <chi0>
14.043606

>  <chi0v>
9.7843552

>  <chi0v_C>
6.8867512

>  <chi0_C>
7.9222851

>  <chi1>
8.876029

>  <chi1v>
5.2760105

>  <chi1v_C>
3.3600423

>  <chi1_C>
4.5739336

>  <chiral>
0

>  <chiral_u>
0

>  <density>
0.89615023

>  <diameter>
10

>  <FCharge>
0

>  <GCUT_PEOE_0>
-0.80916595

>  <GCUT_PEOE_1>
-0.38168007

>  <GCUT_PEOE_2>
0.082515687

>  <GCUT_PEOE_3>
2.2832866

>  <GCUT_SLOGP_0>
-0.99305302

>  <GCUT_SLOGP_1>
-0.26386139

>  <GCUT_SLOGP_2>
0.26019999

>  <GCUT_SLOGP_3>
2.3888221

>  <GCUT_SMR_0>
-0.48403811

>  <GCUT_SMR_1>
-0.21605732

>  <GCUT_SMR_2>
0.19305076

>  <GCUT_SMR_3>
2.5535319

>  <Kier1>
15.39

>  <Kier2>
6.1854935

>  <Kier3>
3.9861591

>  <KierA1>
10.907081

>  <KierA2>
4.2919698

>  <KierA3>
2.7203469

>  <KierFlex>
2.4638348

>  <lip_acc>
4

>  <lip_don>
1

>  <lip_druglike>
1

>  <lip_violation>
0

>  <logP(o/w)>
2.2967601

>  <logS>
-3.37116

>  <mr>
6.2823677

>  <mutagenic>
0

>  <nmol>
1

>  <opr_brigid>
11

>  <opr_leadlike>
1

>  <opr_nring>
2

>  <opr_nrot>
2

>  <opr_violation>
0

>  <PC+>
0

>  <PC->
0

>  <PEOE_PC+>
1.7064935

>  <PEOE_PC->
-1.7064935

>  <PEOE_RPC+>
0.24460834

>  <PEOE_RPC->
0.21046296

>  <PEOE_VSA+0>
19.495708

>  <PEOE_VSA+1>
40.281384

>  <PEOE_VSA+2>
10.667059

>  <PEOE_VSA+3>
8.6190128

>  <PEOE_VSA+4>
0

>  <PEOE_VSA+5>
12.949531

>  <PEOE_VSA+6>
9.0455017

>  <PEOE_VSA-0>
67.767296

>  <PEOE_VSA-1>
10.885262

>  <PEOE_VSA-2>
0

>  <PEOE_VSA-3>
35.725906

>  <PEOE_VSA-4>
0

>  <PEOE_VSA-5>
13.566921

>  <PEOE_VSA-6>
6.0392504

>  <PEOE_VSA_FHYD>
0.82300586

>  <PEOE_VSA_FNEG>
0.5700435

>  <PEOE_VSA_FPNEG>
0.083415315

>  <PEOE_VSA_FPOL>
0.17699414

>  <PEOE_VSA_FPOS>
0.42995653

>  <PEOE_VSA_FPPOS>
0.09357883

>  <PEOE_VSA_HYD>
193.44164

>  <PEOE_VSA_NEG>
133.98463

>  <PEOE_VSA_PNEG>
19.606171

>  <PEOE_VSA_POL>
41.601204

>  <PEOE_VSA_POS>
101.0582

>  <PEOE_VSA_PPOS>
21.995033

>  <petitjean>
0.5

>  <petitjeanSC>
1

>  <Q_PC+>
0

>  <Q_PC->
0

>  <Q_RPC+>
0

>  <Q_RPC->
0

>  <Q_VSA_FHYD>
1

>  <Q_VSA_FNEG>
0

>  <Q_VSA_FPNEG>
0

>  <Q_VSA_FPOL>
0

>  <Q_VSA_FPOS>
1

>  <Q_VSA_FPPOS>
0

>  <Q_VSA_HYD>
235.04283

>  <Q_VSA_NEG>
0

>  <Q_VSA_PNEG>
0

>  <Q_VSA_POL>
0

>  <Q_VSA_POS>
235.04283

>  <Q_VSA_PPOS>
0

>  <radius>
5

>  <reactive>
0

>  <rings>
2

>  <RPC+>
0

>  <RPC->
0

>  <rsynth>
1

>  <SlogP>
3.5656199

>  <SlogP_VSA0>
0

>  <SlogP_VSA1>
42.866131

>  <SlogP_VSA2>
0

>  <SlogP_VSA3>
0

>  <SlogP_VSA4>
35.682186

>  <SlogP_VSA5>
9.7341213

>  <SlogP_VSA6>
7.7595162

>  <SlogP_VSA7>
87.787094

>  <SlogP_VSA8>
0

>  <SlogP_VSA9>
80.963104

>  <SMR>
6.0754199

>  <SMR_VSA0>
33.596336

>  <SMR_VSA1>
64.476936

>  <SMR_VSA2>
7.7595162

>  <SMR_VSA3>
11.819971

>  <SMR_VSA4>
20.767498

>  <SMR_VSA5>
87.787094

>  <SMR_VSA6>
5.2587838

>  <SMR_VSA7>
33.326015

>  <TPSA>
55.130001

>  <VAdjEq>
0.5023343

>  <VAdjMa>
5.321928

>  <VDistEq>
3.21401

>  <VDistMa>
8.1643715

>  <vdw_area>
235.04283

>  <vdw_vol>
301.5231

>  <vsa_acc>
24.452183

>  <vsa_acid>
0

>  <vsa_base>
0

>  <vsa_don>
5.6825762

>  <vsa_hyd>
168.82997

>  <vsa_other>
27.31041

>  <vsa_pol>
30.134758

>  <Weight>
270.20999

>  <weinerPath>
770

>  <weinerPol>
26

>  <zagreb>
98

$$$$