S1C(Cc2ccc(OCCc3ncc(cc3)CC)cc2)C(=O)NC1=O
  MOE2013           2D

 25 27  0  0  1  0  0  0  0  0999 V2000
    0.0000    0.0000    0.0000 S   0  0  0  0  0  0  0  0  0  0  0  0
    0.1580   -1.4920    0.0000 C   0  0  3  0  0  0  0  0  0  0  0  0
    1.4570   -2.2410    0.0000 C   0  0  0  0  0  0  0  0  0  0  0  0
    2.7560   -1.4900    0.0000 C   0  0  0  0  0  0  0  0  0  0  0  0
    2.7550    0.0100    0.0000 C   0  0  0  0  0  0  0  0  0  0  0  0
    4.0530    0.7610    0.0000 C   0  0  0  0  0  0  0  0  0  0  0  0
    5.3530    0.0120    0.0000 C   0  0  0  0  0  0  0  0  0  0  0  0
    6.6510    0.7630    0.0000 O   0  0  0  0  0  0  0  0  0  0  0  0
    7.9510    0.0140    0.0000 C   0  0  0  0  0  0  0  0  0  0  0  0
    9.2500    0.7650    0.0000 C   0  0  0  0  0  0  0  0  0  0  0  0
   10.5490    0.0160    0.0000 C   0  0  0  0  0  0  0  0  0  0  0  0
   10.5500   -1.4840    0.0000 N   0  0  0  0  0  0  0  0  0  0  0  0
   11.8500   -2.2330    0.0000 C   0  0  0  0  0  0  0  0  0  0  0  0
   13.1480   -1.4820    0.0000 C   0  0  0  0  0  0  0  0  0  0  0  0
   13.1470    0.0180    0.0000 C   0  0  0  0  0  0  0  0  0  0  0  0
   11.8480    0.7670    0.0000 C   0  0  0  0  0  0  0  0  0  0  0  0
   14.4480   -2.2320    0.0000 C   0  0  0  0  0  0  0  0  0  0  0  0
   15.7460   -1.4810    0.0000 C   0  0  0  0  0  0  0  0  0  0  0  0
    5.3540   -1.4880    0.0000 C   0  0  0  0  0  0  0  0  0  0  0  0
    4.0550   -2.2390    0.0000 C   0  0  0  0  0  0  0  0  0  0  0  0
   -1.2120   -2.1030    0.0000 C   0  0  0  0  0  0  0  0  0  0  0  0
   -1.5230   -3.5700    0.0000 O   0  0  0  0  0  0  0  0  0  0  0  0
   -2.2170   -0.9890    0.0000 N   0  0  0  0  0  0  0  0  0  0  0  0
   -1.4670    0.3110    0.0000 C   0  0  0  0  0  0  0  0  0  0  0  0
   -2.0790    1.6810    0.0000 O   0  0  0  0  0  0  0  0  0  0  0  0
  1  2  1  0  0  0  0
  1 24  1  0  0  0  0
  2  3  1  0  0  0  0
  2 21  1  0  0  0  0
  3  4  1  0  0  0  0
  4  5  1  0  0  0  0
  4 20  2  0  0  0  0
  5  6  2  0  0  0  0
  6  7  1  0  0  0  0
  7  8  1  0  0  0  0
  7 19  2  0  0  0  0
  8  9  1  0  0  0  0
  9 10  1  0  0  0  0
 10 11  1  0  0  0  0
 11 12  1  0  0  0  0
 11 16  2  0  0  0  0
 12 13  2  0  0  0  0
 13 14  1  0  0  0  0
 14 15  2  0  0  0  0
 14 17  1  0  0  0  0
 15 16  1  0  0  0  0
 17 18  1  0  0  0  0
 19 20  1  0  0  0  0
 21 22  2  0  0  0  0
 21 23  1  0  0  0  0
 23 24  1  0  0  0  0
 24 25  2  0  0  0  0
M  END
>  <Index>
1692

>  <ID>
HT1677

>  <class>
1

>  <apol>
54.28186

>  <ast_fraglike>
0

>  <ast_fraglike_ext>
0

>  <ast_violation>
3

>  <ast_violation_ext>
4

>  <a_acc>
4

>  <a_acid>
0

>  <a_aro>
12

>  <a_base>
0

>  <a_count>
45

>  <a_don>
1

>  <a_donacc>
5

>  <a_heavy>
25

>  <a_hyd>
18

>  <a_IC>
73.229317

>  <a_ICM>
1.6273181

>  <a_nB>
0

>  <a_nBr>
0

>  <a_nC>
19

>  <a_nCl>
0

>  <a_nF>
0

>  <a_nH>
20

>  <a_nI>
0

>  <a_nN>
2

>  <a_nO>
3

>  <a_nP>
0

>  <a_nS>
1

>  <balabanJ>
1.2598614

>  <BCUT_PEOE_0>
-2.4523716

>  <BCUT_PEOE_1>
-0.55276859

>  <BCUT_PEOE_2>
0.52582431

>  <BCUT_PEOE_3>
2.5670238

>  <BCUT_SLOGP_0>
-2.5248406

>  <BCUT_SLOGP_1>
-0.50617623

>  <BCUT_SLOGP_2>
0.642506

>  <BCUT_SLOGP_3>
2.5149839

>  <BCUT_SMR_0>
-2.1980155

>  <BCUT_SMR_1>
-0.33861125

>  <BCUT_SMR_2>
0.71167821

>  <BCUT_SMR_3>
2.8713324

>  <bpol>
29.956141

>  <b_1rotN>
7

>  <b_1rotR>
0.25925925

>  <b_ar>
12

>  <b_count>
47

>  <b_double>
2

>  <b_heavy>
27

>  <b_max1len>
3

>  <b_rotN>
7

>  <b_rotR>
0.25925925

>  <b_single>
33

>  <b_triple>
0

>  <chi0>
17.648054

>  <chi0v>
14.843932

>  <chi0v_C>
11.447229

>  <chi0_C>
12.819627

>  <chi1>
12.135362

>  <chi1v>
9.1877489

>  <chi1v_C>
5.9854164

>  <chi1_C>
7.5311713

>  <chiral>
1

>  <chiral_u>
1

>  <density>
0.76164544

>  <diameter>
17

>  <FCharge>
0

>  <GCUT_PEOE_0>
-0.78728658

>  <GCUT_PEOE_1>
-0.42597246

>  <GCUT_PEOE_2>
0.051604953

>  <GCUT_PEOE_3>
2.4955559

>  <GCUT_SLOGP_0>
-1.1742924

>  <GCUT_SLOGP_1>
-0.37071022

>  <GCUT_SLOGP_2>
0.16912751

>  <GCUT_SLOGP_3>
2.5750849

>  <GCUT_SMR_0>
-0.51385838

>  <GCUT_SMR_1>
-0.21487316

>  <GCUT_SMR_2>
0.14940003

>  <GCUT_SMR_3>
2.7753751

>  <Kier1>
19.753086

>  <Kier2>
9.7962961

>  <Kier3>
6

>  <KierA1>
15.538566

>  <KierA2>
7.6238685

>  <KierA3>
4.6319475

>  <KierFlex>
4.7385592

>  <lip_acc>
5

>  <lip_don>
1

>  <lip_druglike>
1

>  <lip_violation>
0

>  <logP(o/w)>
3.2939999

>  <logS>
-4.6266899

>  <mr>
10.042962

>  <mutagenic>
0

>  <nmol>
1

>  <opr_brigid>
17

>  <opr_leadlike>
1

>  <opr_nring>
3

>  <opr_nrot>
7

>  <opr_violation>
0

>  <PC+>
0

>  <PC->
0

>  <PEOE_PC+>
1.9166383

>  <PEOE_PC->
-1.9166383

>  <PEOE_RPC+>
0.14974093

>  <PEOE_RPC->
0.1796484

>  <PEOE_VSA+0>
70.535255

>  <PEOE_VSA+1>
66.694687

>  <PEOE_VSA+2>
0

>  <PEOE_VSA+3>
8.6190128

>  <PEOE_VSA+4>
12.949531

>  <PEOE_VSA+5>
14.925592

>  <PEOE_VSA+6>
0

>  <PEOE_VSA-0>
58.584419

>  <PEOE_VSA-1>
75.27301

>  <PEOE_VSA-2>
0

>  <PEOE_VSA-3>
0

>  <PEOE_VSA-4>
0

>  <PEOE_VSA-5>
32.953308

>  <PEOE_VSA-6>
2.503756

>  <PEOE_VSA_FHYD>
0.81537879

>  <PEOE_VSA_FNEG>
0.49357277

>  <PEOE_VSA_FPNEG>
0.10336175

>  <PEOE_VSA_FPOL>
0.18462119

>  <PEOE_VSA_FPOS>
0.50642723

>  <PEOE_VSA_FPPOS>
0.081259444

>  <PEOE_VSA_HYD>
279.70636

>  <PEOE_VSA_NEG>
169.31448

>  <PEOE_VSA_PNEG>
35.457066

>  <PEOE_VSA_POL>
63.332188

>  <PEOE_VSA_POS>
173.72408

>  <PEOE_VSA_PPOS>
27.875124

>  <petitjean>
0.47058824

>  <petitjeanSC>
0.8888889

>  <Q_PC+>
0

>  <Q_PC->
0

>  <Q_RPC+>
0

>  <Q_RPC->
0

>  <Q_VSA_FHYD>
1

>  <Q_VSA_FNEG>
0

>  <Q_VSA_FPNEG>
0

>  <Q_VSA_FPOL>
0

>  <Q_VSA_FPOS>
1

>  <Q_VSA_FPPOS>
0

>  <Q_VSA_HYD>
343.03857

>  <Q_VSA_NEG>
0

>  <Q_VSA_PNEG>
0

>  <Q_VSA_POL>
0

>  <Q_VSA_POS>
343.03857

>  <Q_VSA_PPOS>
0

>  <radius>
9

>  <reactive>
0

>  <rings>
3

>  <RPC+>
0

>  <RPC->
0

>  <rsynth>
1

>  <SlogP>
3.1595099

>  <SlogP_VSA0>
29.010639

>  <SlogP_VSA1>
25.668255

>  <SlogP_VSA2>
26.638172

>  <SlogP_VSA3>
20.926258

>  <SlogP_VSA4>
9.1278973

>  <SlogP_VSA5>
56.605217

>  <SlogP_VSA6>
0

>  <SlogP_VSA7>
123.07346

>  <SlogP_VSA8>
0

>  <SlogP_VSA9>
94.651199

>  <SMR>
9.7878704

>  <SMR_VSA0>
47.724434

>  <SMR_VSA1>
27.785418

>  <SMR_VSA2>
18.01075

>  <SMR_VSA3>
17.14728

>  <SMR_VSA4>
0

>  <SMR_VSA5>
179.67868

>  <SMR_VSA6>
29.808985

>  <SMR_VSA7>
65.545555

>  <TPSA>
68.290001

>  <VAdjEq>
0.42433795

>  <VAdjMa>
5.7548876

>  <VDistEq>
3.8409948

>  <VDistMa>
8.9235954

>  <vdw_area>
343.03857

>  <vdw_vol>
467.99463

>  <vsa_acc>
35.320175

>  <vsa_acid>
0

>  <vsa_base>
0

>  <vsa_don>
5.6825762

>  <vsa_hyd>
257.56326

>  <vsa_other>
27.875124

>  <vsa_pol>
41.00275

>  <Weight>
356.44598

>  <weinerPath>
1917

>  <weinerPol>
33

>  <zagreb>
126

$$$$