S(=O)(=O)(N)Cc1noc2c1cccc2
  MOE2013           2D

 14 15  0  0  0  0  0  0  0  0999 V2000
    0.0000    0.0000    0.0000 S   0  0  0  0  0  0  0  0  0  0  0  0
    0.7520    1.2980    0.0000 O   0  0  0  0  0  0  0  0  0  0  0  0
   -0.7520   -1.2980    0.0000 O   0  0  0  0  0  0  0  0  0  0  0  0
    1.2980   -0.7520    0.0000 N   0  0  0  0  0  0  0  0  0  0  0  0
   -1.2980    0.7520    0.0000 C   0  0  0  0  0  0  0  0  0  0  0  0
   -2.5980    0.0030    0.0000 C   0  0  0  0  0  0  0  0  0  0  0  0
   -2.7570   -1.4880    0.0000 N   0  0  0  0  0  0  0  0  0  0  0  0
   -4.2240   -1.7980    0.0000 O   0  0  0  0  0  0  0  0  0  0  0  0
   -4.9730   -0.4980    0.0000 C   0  0  0  0  0  0  0  0  0  0  0  0
   -3.9680    0.6150    0.0000 C   0  0  0  0  0  0  0  0  0  0  0  0
   -4.4290    2.0430    0.0000 C   0  0  0  0  0  0  0  0  0  0  0  0
   -5.8960    2.3560    0.0000 C   0  0  0  0  0  0  0  0  0  0  0  0
   -6.9010    1.2430    0.0000 C   0  0  0  0  0  0  0  0  0  0  0  0
   -6.4400   -0.1840    0.0000 C   0  0  0  0  0  0  0  0  0  0  0  0
  1  2  2  0  0  0  0
  1  3  2  0  0  0  0
  1  4  1  0  0  0  0
  1  5  1  0  0  0  0
  5  6  1  0  0  0  0
  6  7  2  0  0  0  0
  6 10  1  0  0  0  0
  7  8  1  0  0  0  0
  8  9  1  0  0  0  0
  9 10  1  0  0  0  0
  9 14  2  0  0  0  0
 10 11  2  0  0  0  0
 11 12  1  0  0  0  0
 12 13  2  0  0  0  0
 13 14  1  0  0  0  0
M  END
>  <Index>
1766

>  <ID>
HT2222

>  <class>
1

>  <apol>
26.920343

>  <ast_fraglike>
1

>  <ast_fraglike_ext>
0

>  <ast_violation>
0

>  <ast_violation_ext>
1

>  <a_acc>
3

>  <a_acid>
0

>  <a_aro>
9

>  <a_base>
0

>  <a_count>
22

>  <a_don>
1

>  <a_donacc>
4

>  <a_heavy>
14

>  <a_hyd>
7

>  <a_IC>
43.352608

>  <a_ICM>
1.9705731

>  <a_nB>
0

>  <a_nBr>
0

>  <a_nC>
8

>  <a_nCl>
0

>  <a_nF>
0

>  <a_nH>
8

>  <a_nI>
0

>  <a_nN>
2

>  <a_nO>
3

>  <a_nP>
0

>  <a_nS>
1

>  <balabanJ>
1.9560457

>  <BCUT_PEOE_0>
-2.3994274

>  <BCUT_PEOE_1>
-0.56260717

>  <BCUT_PEOE_2>
0.62226361

>  <BCUT_PEOE_3>
2.5110972

>  <BCUT_SLOGP_0>
-2.615118

>  <BCUT_SLOGP_1>
-0.46116051

>  <BCUT_SLOGP_2>
0.72101772

>  <BCUT_SLOGP_3>
2.4816604

>  <BCUT_SMR_0>
-2.0786958

>  <BCUT_SMR_1>
-0.40825862

>  <BCUT_SMR_2>
0.78073692

>  <BCUT_SMR_3>
2.8184779

>  <bpol>
16.477655

>  <b_1rotN>
2

>  <b_1rotR>
0.13333334

>  <b_ar>
10

>  <b_count>
23

>  <b_double>
0

>  <b_heavy>
15

>  <b_max1len>
4

>  <b_rotN>
2

>  <b_rotR>
0.13333334

>  <b_single>
13

>  <b_triple>
0

>  <chi0>
10.181798

>  <chi0v>
7.9905615

>  <chi0v_C>
4.5165076

>  <chi0_C>
5.2675848

>  <chi1>
6.5614614

>  <chi1v>
5.6143408

>  <chi1v_C>
2.4309037

>  <chi1_C>
3.3914115

>  <chiral>
0

>  <chiral_u>
0

>  <density>
0.89874768

>  <diameter>
7

>  <FCharge>
0

>  <GCUT_PEOE_0>
-0.79384822

>  <GCUT_PEOE_1>
-0.40356398

>  <GCUT_PEOE_2>
0.064376093

>  <GCUT_PEOE_3>
2.2692676

>  <GCUT_SLOGP_0>
-1.3482031

>  <GCUT_SLOGP_1>
-0.4185276

>  <GCUT_SLOGP_2>
0.13086356

>  <GCUT_SLOGP_3>
2.3469839

>  <GCUT_SMR_0>
-0.44499999

>  <GCUT_SMR_1>
-0.18424489

>  <GCUT_SMR_2>
0.18356973

>  <GCUT_SMR_3>
2.5505879

>  <Kier1>
10.515555

>  <Kier2>
3.8677685

>  <Kier3>
2.5344

>  <KierA1>
9.2005367

>  <KierA2>
3.3466356

>  <KierA3>
2.1743021

>  <KierFlex>
2.1993461

>  <lip_acc>
5

>  <lip_don>
2

>  <lip_druglike>
1

>  <lip_violation>
0

>  <logP(o/w)>
0.19

>  <logS>
-2.2014799

>  <mr>
5.1868472

>  <mutagenic>
0

>  <nmol>
1

>  <opr_brigid>
10

>  <opr_leadlike>
1

>  <opr_nring>
2

>  <opr_nrot>
2

>  <opr_violation>
0

>  <PC+>
0

>  <PC->
0

>  <PEOE_PC+>
1.2938179

>  <PEOE_PC->
-1.2938179

>  <PEOE_RPC+>
0.18511176

>  <PEOE_RPC->
0.27365991

>  <PEOE_VSA+0>
27.343634

>  <PEOE_VSA+1>
19.270084

>  <PEOE_VSA+2>
8.5307722

>  <PEOE_VSA+3>
15.158071

>  <PEOE_VSA+4>
10.677375

>  <PEOE_VSA+5>
0

>  <PEOE_VSA+6>
0

>  <PEOE_VSA-0>
24.509808

>  <PEOE_VSA-1>
35.395069

>  <PEOE_VSA-2>
0

>  <PEOE_VSA-3>
9.0437498

>  <PEOE_VSA-4>
32.016521

>  <PEOE_VSA-5>
0

>  <PEOE_VSA-6>
5.9023595

>  <PEOE_VSA_FHYD>
0.74129933

>  <PEOE_VSA_FNEG>
0.56890583

>  <PEOE_VSA_FPNEG>
0.20185998

>  <PEOE_VSA_FPOL>
0.25870067

>  <PEOE_VSA_FPOS>
0.43109414

>  <PEOE_VSA_FPPOS>
0.056840673

>  <PEOE_VSA_HYD>
139.25119

>  <PEOE_VSA_NEG>
106.86751

>  <PEOE_VSA_PNEG>
37.918884

>  <PEOE_VSA_POL>
48.596256

>  <PEOE_VSA_POS>
80.979935

>  <PEOE_VSA_PPOS>
10.677375

>  <petitjean>
0.42857143

>  <petitjeanSC>
0.75

>  <Q_PC+>
0

>  <Q_PC->
0

>  <Q_RPC+>
0

>  <Q_RPC->
0

>  <Q_VSA_FHYD>
1

>  <Q_VSA_FNEG>
0

>  <Q_VSA_FPNEG>
0

>  <Q_VSA_FPOL>
0

>  <Q_VSA_FPOS>
1

>  <Q_VSA_FPPOS>
0

>  <Q_VSA_HYD>
187.84744

>  <Q_VSA_NEG>
0

>  <Q_VSA_PNEG>
0

>  <Q_VSA_POL>
0

>  <Q_VSA_POS>
187.84744

>  <Q_VSA_PPOS>
0

>  <radius>
4

>  <reactive>
0

>  <rings>
2

>  <RPC+>
0

>  <RPC->
0

>  <rsynth>
1

>  <SlogP>
0.88270003

>  <SlogP_VSA0>
31.291433

>  <SlogP_VSA1>
67.768288

>  <SlogP_VSA2>
6.6407428

>  <SlogP_VSA3>
0

>  <SlogP_VSA4>
2.7567475

>  <SlogP_VSA5>
9.7341213

>  <SlogP_VSA6>
0

>  <SlogP_VSA7>
77.981911

>  <SlogP_VSA8>
0

>  <SlogP_VSA9>
17.233564

>  <SMR>
5.10252

>  <SMR_VSA0>
57.905807

>  <SMR_VSA1>
19.596598

>  <SMR_VSA2>
0

>  <SMR_VSA3>
2.7567475

>  <SMR_VSA4>
38.700607

>  <SMR_VSA5>
87.806305

>  <SMR_VSA6>
0

>  <SMR_VSA7>
6.6407428

>  <TPSA>
86.190002

>  <VAdjEq>
0.61744827

>  <VAdjMa>
4.9068904

>  <VDistEq>
2.6371682

>  <VDistMa>
7.3119183

>  <vdw_area>
187.84744

>  <vdw_vol>
236.13857

>  <vsa_acc>
42.901787

>  <vsa_acid>
0

>  <vsa_base>
0

>  <vsa_don>
20.13512

>  <vsa_hyd>
89.926628

>  <vsa_other>
24.466488

>  <vsa_pol>
63.036903

>  <Weight>
212.229

>  <weinerPath>
293

>  <weinerPol>
17

>  <zagreb>
74

$$$$