S(C=1C(C2N(C(=O)C2C(O)C)C=1C(O)=O)C)C1CC(NC1)CNS(=O)(=O)N
  MOE2013           2D

 27 29  0  0  1  0  0  0  0  0999 V2000
    0.0000    0.0000    0.0000 S   0  0  0  0  0  0  0  0  0  0  0  0
   -1.3420   -0.6700    0.0000 C   0  0  0  0  0  0  0  0  0  0  0  0
   -1.5880   -2.1500    0.0000 C   0  0  3  0  0  0  0  0  0  0  0  0
   -3.0710   -2.3730    0.0000 C   0  0  3  0  0  0  0  0  0  0  0  0
   -3.7420   -1.0310    0.0000 N   0  0  0  0  0  0  0  0  0  0  0  0
   -5.0840   -1.7020    0.0000 C   0  0  0  0  0  0  0  0  0  0  0  0
   -6.5070   -1.2270    0.0000 O   0  0  0  0  0  0  0  0  0  0  0  0
   -4.4130   -3.0440    0.0000 C   0  0  3  0  0  0  0  0  0  0  0  0
   -4.8880   -4.4660    0.0000 C   0  0  3  0  0  0  0  0  0  0  0  0
   -3.8930   -5.5890    0.0000 O   0  0  0  0  0  0  0  0  0  0  0  0
   -6.3580   -4.7670    0.0000 C   0  0  0  0  0  0  0  0  0  0  0  0
   -2.6730    0.0210    0.0000 C   0  0  0  0  0  0  0  0  0  0  0  0
   -2.8960    1.5040    0.0000 C   0  0  0  0  0  0  0  0  0  0  0  0
   -4.2920    2.0530    0.0000 O   0  0  0  0  0  0  0  0  0  0  0  0
   -1.7230    2.4390    0.0000 O   0  0  0  0  0  0  0  0  0  0  0  0
   -0.5360   -3.2190    0.0000 C   0  0  0  0  0  0  0  0  0  0  0  0
    1.2520   -0.8270    0.0000 C   0  0  3  0  0  0  0  0  0  0  0  0
    2.6560   -0.3000    0.0000 C   0  0  0  0  0  0  0  0  0  0  0  0
    3.5910   -1.4730    0.0000 C   0  0  3  0  0  0  0  0  0  0  0  0
    2.7640   -2.7250    0.0000 N   0  0  0  0  0  0  0  0  0  0  0  0
    1.3180   -2.3250    0.0000 C   0  0  0  0  0  0  0  0  0  0  0  0
    5.0890   -1.4070    0.0000 C   0  0  0  0  0  0  0  0  0  0  0  0
    5.8960   -2.6710    0.0000 N   0  0  0  0  0  0  0  0  0  0  0  0
    7.3950   -2.6040    0.0000 S   0  0  0  0  0  0  0  0  0  0  0  0
    7.4620   -4.1030    0.0000 O   0  0  0  0  0  0  0  0  0  0  0  0
    7.3280   -1.1060    0.0000 O   0  0  0  0  0  0  0  0  0  0  0  0
    8.8930   -2.5380    0.0000 N   0  0  0  0  0  0  0  0  0  0  0  0
  1  2  1  0  0  0  0
  1 17  1  0  0  0  0
  2  3  1  0  0  0  0
  2 12  2  0  0  0  0
  3  4  1  0  0  0  0
  3 16  1  0  0  0  0
  4  5  1  0  0  0  0
  4  8  1  0  0  0  0
  5  6  1  0  0  0  0
  5 12  1  0  0  0  0
  6  7  2  0  0  0  0
  6  8  1  0  0  0  0
  8  9  1  0  0  0  0
  9 10  1  0  0  0  0
  9 11  1  0  0  0  0
 12 13  1  0  0  0  0
 13 14  1  0  0  0  0
 13 15  2  0  0  0  0
 17 18  1  0  0  0  0
 17 21  1  0  0  0  0
 18 19  1  0  0  0  0
 19 20  1  0  0  0  0
 19 22  1  0  0  0  0
 20 21  1  0  0  0  0
 22 23  1  0  0  0  0
 23 24  1  0  0  0  0
 24 25  2  0  0  0  0
 24 26  2  0  0  0  0
 24 27  1  0  0  0  0
M  END
>  <Index>
1537

>  <ID>
HT0710

>  <class>
1

>  <apol>
57.415031

>  <ast_fraglike>
0

>  <ast_fraglike_ext>
0

>  <ast_violation>
3

>  <ast_violation_ext>
5

>  <a_acc>
7

>  <a_acid>
0

>  <a_aro>
0

>  <a_base>
0

>  <a_count>
51

>  <a_don>
6

>  <a_donacc>
13

>  <a_heavy>
27

>  <a_hyd>
14

>  <a_IC>
95.141457

>  <a_ICM>
1.8655188

>  <a_nB>
0

>  <a_nBr>
0

>  <a_nC>
15

>  <a_nCl>
0

>  <a_nF>
0

>  <a_nH>
24

>  <a_nI>
0

>  <a_nN>
4

>  <a_nO>
6

>  <a_nP>
0

>  <a_nS>
2

>  <balabanJ>
1.6243459

>  <BCUT_PEOE_0>
-2.7330554

>  <BCUT_PEOE_1>
-0.52569008

>  <BCUT_PEOE_2>
0.58376265

>  <BCUT_PEOE_3>
2.8369136

>  <BCUT_SLOGP_0>
-2.8606403

>  <BCUT_SLOGP_1>
-0.54497772

>  <BCUT_SLOGP_2>
0.57160747

>  <BCUT_SLOGP_3>
2.772661

>  <BCUT_SMR_0>
-2.4990897

>  <BCUT_SMR_1>
-0.4000822

>  <BCUT_SMR_2>
0.69088393

>  <BCUT_SMR_3>
3.0908525

>  <bpol>
39.548969

>  <b_1rotN>
7

>  <b_1rotR>
0.24137931

>  <b_ar>
0

>  <b_count>
53

>  <b_double>
3

>  <b_heavy>
29

>  <b_max1len>
6

>  <b_rotN>
7

>  <b_rotR>
0.24137931

>  <b_single>
50

>  <b_triple>
0

>  <chi0>
20.093494

>  <chi0v>
16.586895

>  <chi0v_C>
9.5854216

>  <chi0_C>
9.8948231

>  <chi1>
12.508726

>  <chi1v>
11.095251

>  <chi1v_C>
4.8650441

>  <chi1_C>
5.121027

>  <chiral>
6

>  <chiral_u>
6

>  <density>
0.87993163

>  <diameter>
13

>  <FCharge>
0

>  <GCUT_PEOE_0>
-0.85100347

>  <GCUT_PEOE_1>
-0.40050378

>  <GCUT_PEOE_2>
0.076170206

>  <GCUT_PEOE_3>
2.8644123

>  <GCUT_SLOGP_0>
-1.3483542

>  <GCUT_SLOGP_1>
-0.48365209

>  <GCUT_SLOGP_2>
0.11038657

>  <GCUT_SLOGP_3>
2.8423641

>  <GCUT_SMR_0>
-0.54825413

>  <GCUT_SMR_1>
-0.20679167

>  <GCUT_SMR_2>
0.17920089

>  <GCUT_SMR_3>
3.123455

>  <Kier1>
21.702734

>  <Kier2>
8.0246916

>  <Kier3>
4.3022122

>  <KierA1>
22.050833

>  <KierA2>
8.158515

>  <KierA3>
4.3759875

>  <KierFlex>
6.6630387

>  <lip_acc>
10

>  <lip_don>
6

>  <lip_druglike>
1

>  <lip_violation>
1

>  <logP(o/w)>
-1.633

>  <logS>
-1.55621

>  <mr>
9.8419905

>  <mutagenic>
0

>  <nmol>
1

>  <opr_brigid>
13

>  <opr_leadlike>
0

>  <opr_nring>
3

>  <opr_nrot>
7

>  <opr_violation>
2

>  <PC+>
0

>  <PC->
0

>  <PEOE_PC+>
2.5847499

>  <PEOE_PC->
-2.5847499

>  <PEOE_RPC+>
0.11942831

>  <PEOE_RPC->
0.15136082

>  <PEOE_VSA+0>
102.5924

>  <PEOE_VSA+1>
42.438702

>  <PEOE_VSA+2>
29.016981

>  <PEOE_VSA+3>
0

>  <PEOE_VSA+4>
33.597878

>  <PEOE_VSA+5>
0

>  <PEOE_VSA+6>
14.708499

>  <PEOE_VSA-0>
27.44899

>  <PEOE_VSA-1>
18.747677

>  <PEOE_VSA-2>
63.35041

>  <PEOE_VSA-3>
0

>  <PEOE_VSA-4>
0

>  <PEOE_VSA-5>
27.133842

>  <PEOE_VSA-6>
15.671971

>  <PEOE_VSA_FHYD>
0.7568444

>  <PEOE_VSA_FNEG>
0.40659168

>  <PEOE_VSA_FPNEG>
0.11423799

>  <PEOE_VSA_FPOL>
0.2431556

>  <PEOE_VSA_FPOS>
0.59340829

>  <PEOE_VSA_FPPOS>
0.1289176

>  <PEOE_VSA_HYD>
283.59515

>  <PEOE_VSA_NEG>
152.35289

>  <PEOE_VSA_PNEG>
42.805813

>  <PEOE_VSA_POL>
91.11219

>  <PEOE_VSA_POS>
222.35446

>  <PEOE_VSA_PPOS>
48.306377

>  <petitjean>
0.46153846

>  <petitjeanSC>
0.85714287

>  <Q_PC+>
0

>  <Q_PC->
0

>  <Q_RPC+>
0

>  <Q_RPC->
0

>  <Q_VSA_FHYD>
1

>  <Q_VSA_FNEG>
0

>  <Q_VSA_FPNEG>
0

>  <Q_VSA_FPOL>
0

>  <Q_VSA_FPOS>
1

>  <Q_VSA_FPPOS>
0

>  <Q_VSA_HYD>
374.70734

>  <Q_VSA_NEG>
0

>  <Q_VSA_PNEG>
0

>  <Q_VSA_POL>
0

>  <Q_VSA_POS>
374.70734

>  <Q_VSA_PPOS>
0

>  <radius>
7

>  <reactive>
0

>  <rings>
3

>  <RPC+>
0

>  <RPC->
0

>  <rsynth>
0.7037037

>  <SlogP>
-1.6030999

>  <SlogP_VSA0>
91.092407

>  <SlogP_VSA1>
64.300247

>  <SlogP_VSA2>
71.33519

>  <SlogP_VSA3>
62.264381

>  <SlogP_VSA4>
8.8215923

>  <SlogP_VSA5>
4.3074813

>  <SlogP_VSA6>
0

>  <SlogP_VSA7>
0

>  <SlogP_VSA8>
18.868406

>  <SlogP_VSA9>
98.871574

>  <SMR>
9.8528204

>  <SMR_VSA0>
95.896118

>  <SMR_VSA1>
28.509541

>  <SMR_VSA2>
68.622566

>  <SMR_VSA3>
21.516024

>  <SMR_VSA4>
31.291433

>  <SMR_VSA5>
18.868406

>  <SMR_VSA6>
49.883404

>  <SMR_VSA7>
105.27379

>  <TPSA>
162.06

>  <VAdjEq>
0.40063059

>  <VAdjMa>
5.8579812

>  <VDistEq>
3.5268872

>  <VDistMa>
9.2094784

>  <vdw_area>
374.70734

>  <vdw_vol>
477.89053

>  <vsa_acc>
45.583443

>  <vsa_acid>
0

>  <vsa_base>
0

>  <vsa_don>
28.210327

>  <vsa_hyd>
176.32848

>  <vsa_other>
41.356449

>  <vsa_pol>
120.17711

>  <Weight>
420.51099

>  <weinerPath>
1918

>  <weinerPol>
41

>  <zagreb>
148

$$$$