Ic1c(CNC(=O)C)c(I)c(NC(=O)C)c(I)c1C(O)=O
  MOE2013           2D

 21 21  0  0  0  0  0  0  0  0999 V2000
    0.0000    0.0000    0.0000 I   0  0  0  0  0  0  0  0  0  0  0  0
   -1.2950    0.7570    0.0000 C   0  0  0  0  0  0  0  0  0  0  0  0
   -1.2870    2.2570    0.0000 C   0  0  0  0  0  0  0  0  0  0  0  0
    0.0160    3.0000    0.0000 C   0  0  0  0  0  0  0  0  0  0  0  0
    1.3110    2.2430    0.0000 N   0  0  0  0  0  0  0  0  0  0  0  0
    2.6140    2.9860    0.0000 C   0  0  0  0  0  0  0  0  0  0  0  0
    3.9090    2.2290    0.0000 O   0  0  0  0  0  0  0  0  0  0  0  0
    2.6220    4.4860    0.0000 C   0  0  0  0  0  0  0  0  0  0  0  0
   -2.5820    3.0140    0.0000 C   0  0  0  0  0  0  0  0  0  0  0  0
   -2.5740    4.5140    0.0000 I   0  0  0  0  0  0  0  0  0  0  0  0
   -3.8850    2.2710    0.0000 C   0  0  0  0  0  0  0  0  0  0  0  0
   -5.1800    3.0280    0.0000 N   0  0  0  0  0  0  0  0  0  0  0  0
   -5.1720    4.5280    0.0000 C   0  0  0  0  0  0  0  0  0  0  0  0
   -3.8690    5.2710    0.0000 O   0  0  0  0  0  0  0  0  0  0  0  0
   -6.4670    5.2850    0.0000 C   0  0  0  0  0  0  0  0  0  0  0  0
   -3.8930    0.7710    0.0000 C   0  0  0  0  0  0  0  0  0  0  0  0
   -5.1960    0.0280    0.0000 I   0  0  0  0  0  0  0  0  0  0  0  0
   -2.5980    0.0140    0.0000 C   0  0  0  0  0  0  0  0  0  0  0  0
   -2.6060   -1.4860    0.0000 C   0  0  0  0  0  0  0  0  0  0  0  0
   -1.3110   -2.2430    0.0000 O   0  0  0  0  0  0  0  0  0  0  0  0
   -3.9090   -2.2290    0.0000 O   0  0  0  0  0  0  0  0  0  0  0  0
  1  2  1  0  0  0  0
  2  3  1  0  0  0  0
  2 18  2  0  0  0  0
  3  4  1  0  0  0  0
  3  9  2  0  0  0  0
  4  5  1  0  0  0  0
  5  6  1  0  0  0  0
  6  7  2  0  0  0  0
  6  8  1  0  0  0  0
  9 10  1  0  0  0  0
  9 11  1  0  0  0  0
 11 12  1  0  0  0  0
 11 16  2  0  0  0  0
 12 13  1  0  0  0  0
 13 14  2  0  0  0  0
 13 15  1  0  0  0  0
 16 17  1  0  0  0  0
 16 18  1  0  0  0  0
 18 19  1  0  0  0  0
 19 20  1  0  0  0  0
 19 21  2  0  0  0  0
M  END
>  <Index>
1600

>  <ID>
HT1102

>  <class>
1

>  <apol>
49.912724

>  <ast_fraglike>
0

>  <ast_fraglike_ext>
0

>  <ast_violation>
4

>  <ast_violation_ext>
6

>  <a_acc>
4

>  <a_acid>
0

>  <a_aro>
6

>  <a_base>
0

>  <a_count>
32

>  <a_don>
4

>  <a_donacc>
8

>  <a_heavy>
21

>  <a_hyd>
12

>  <a_IC>
64.171814

>  <a_ICM>
2.0053692

>  <a_nB>
0

>  <a_nBr>
0

>  <a_nC>
12

>  <a_nCl>
0

>  <a_nF>
0

>  <a_nH>
11

>  <a_nI>
3

>  <a_nN>
2

>  <a_nO>
4

>  <a_nP>
0

>  <a_nS>
0

>  <balabanJ>
2.9616625

>  <BCUT_PEOE_0>
-2.4135847

>  <BCUT_PEOE_1>
-0.56270003

>  <BCUT_PEOE_2>
0.45202404

>  <BCUT_PEOE_3>
2.3941453

>  <BCUT_SLOGP_0>
-2.510716

>  <BCUT_SLOGP_1>
-0.50459093

>  <BCUT_SLOGP_2>
0.53896594

>  <BCUT_SLOGP_3>
2.4604137

>  <BCUT_SMR_0>
-2.1133606

>  <BCUT_SMR_1>
-0.31605521

>  <BCUT_SMR_2>
0.80304044

>  <BCUT_SMR_3>
2.7487307

>  <bpol>
26.989277

>  <b_1rotN>
4

>  <b_1rotR>
0.19047619

>  <b_ar>
6

>  <b_count>
32

>  <b_double>
3

>  <b_heavy>
21

>  <b_max1len>
3

>  <b_rotN>
6

>  <b_rotR>
0.2857143

>  <b_single>
23

>  <b_triple>
0

>  <chi0>
16.317472

>  <chi0v>
17.485453

>  <chi0v_C>
7.2071066

>  <chi0_C>
7.9032593

>  <chi1>
9.6624784

>  <chi1v>
8.8462801

>  <chi1v_C>
3.1035533

>  <chi1_C>
3.8962822

>  <chiral>
0

>  <chiral_u>
0

>  <density>
1.5030644

>  <diameter>
9

>  <FCharge>
0

>  <GCUT_PEOE_0>
-0.83364552

>  <GCUT_PEOE_1>
-0.48867339

>  <GCUT_PEOE_2>
0.076215409

>  <GCUT_PEOE_3>
2.3738852

>  <GCUT_SLOGP_0>
-1.1315925

>  <GCUT_SLOGP_1>
-0.40093318

>  <GCUT_SLOGP_2>
0.19882043

>  <GCUT_SLOGP_3>
2.4788029

>  <GCUT_SMR_0>
-0.47971255

>  <GCUT_SMR_1>
-0.20756194

>  <GCUT_SMR_2>
0.34908828

>  <GCUT_SMR_3>
2.7836304

>  <Kier1>
19.047619

>  <Kier2>
8.0222225

>  <Kier3>
4.7333822

>  <KierA1>
22.487875

>  <KierA2>
9.5505781

>  <KierA3>
5.671145

>  <KierFlex>
10.227248

>  <lip_acc>
6

>  <lip_don>
3

>  <lip_druglike>
1

>  <lip_violation>
1

>  <logP(o/w)>
3.8570001

>  <logS>
-4.6917801

>  <mr>
10.511796

>  <mutagenic>
0

>  <nmol>
1

>  <opr_brigid>
6

>  <opr_leadlike>
1

>  <opr_nring>
1

>  <opr_nrot>
4

>  <opr_violation>
1

>  <PC+>
0

>  <PC->
0

>  <PEOE_PC+>
1.9350429

>  <PEOE_PC->
-1.9350429

>  <PEOE_RPC+>
0.15158677

>  <PEOE_RPC->
0.18197396

>  <PEOE_VSA+0>
84.568726

>  <PEOE_VSA+1>
20.478956

>  <PEOE_VSA+2>
0

>  <PEOE_VSA+3>
17.238026

>  <PEOE_VSA+4>
36.223236

>  <PEOE_VSA+5>
14.708499

>  <PEOE_VSA+6>
0

>  <PEOE_VSA-0>
140.97005

>  <PEOE_VSA-1>
0

>  <PEOE_VSA-2>
0

>  <PEOE_VSA-3>
0

>  <PEOE_VSA-4>
0

>  <PEOE_VSA-5>
40.700764

>  <PEOE_VSA-6>
8.0413227

>  <PEOE_VSA_FHYD>
0.72536319

>  <PEOE_VSA_FNEG>
0.52272439

>  <PEOE_VSA_FPNEG>
0.13430178

>  <PEOE_VSA_FPOL>
0.27463681

>  <PEOE_VSA_FPOS>
0.47727564

>  <PEOE_VSA_FPPOS>
0.14033504

>  <PEOE_VSA_HYD>
263.25574

>  <PEOE_VSA_NEG>
189.71213

>  <PEOE_VSA_PNEG>
48.742085

>  <PEOE_VSA_POL>
99.67382

>  <PEOE_VSA_POS>
173.21744

>  <PEOE_VSA_PPOS>
50.931732

>  <petitjean>
0.44444445

>  <petitjeanSC>
0.80000001

>  <Q_PC+>
0

>  <Q_PC->
0

>  <Q_RPC+>
0

>  <Q_RPC->
0

>  <Q_VSA_FHYD>
1

>  <Q_VSA_FNEG>
0

>  <Q_VSA_FPNEG>
0

>  <Q_VSA_FPOL>
0

>  <Q_VSA_FPOS>
1

>  <Q_VSA_FPPOS>
0

>  <Q_VSA_HYD>
362.92957

>  <Q_VSA_NEG>
0

>  <Q_VSA_PNEG>
0

>  <Q_VSA_POL>
0

>  <Q_VSA_POS>
362.92957

>  <Q_VSA_PPOS>
0

>  <radius>
5

>  <reactive>
0

>  <rings>
1

>  <RPC+>
0

>  <RPC->
0

>  <rsynth>
0.52380955

>  <SlogP>
3.0595

>  <SlogP_VSA0>
18.01075

>  <SlogP_VSA1>
36.273781

>  <SlogP_VSA2>
52.703362

>  <SlogP_VSA3>
25.385227

>  <SlogP_VSA4>
30.233366

>  <SlogP_VSA5>
0

>  <SlogP_VSA6>
0

>  <SlogP_VSA7>
0

>  <SlogP_VSA8>
0

>  <SlogP_VSA9>
258.19437

>  <SMR>
10.35817

>  <SMR_VSA0>
71.586647

>  <SMR_VSA1>
0

>  <SMR_VSA2>
48.374905

>  <SMR_VSA3>
6.37115

>  <SMR_VSA4>
20.767498

>  <SMR_VSA5>
18.439579

>  <SMR_VSA6>
18.263031

>  <SMR_VSA7>
236.99806

>  <TPSA>
95.5

>  <VAdjEq>
0.45371634

>  <VAdjMa>
5.3923173

>  <VDistEq>
2.9970746

>  <VDistMa>
8.5306063

>  <vdw_area>
362.92957

>  <vdw_vol>
417.77451

>  <vsa_acc>
27.133842

>  <vsa_acid>
0

>  <vsa_base>
0

>  <vsa_don>
11.365152

>  <vsa_hyd>
240.32336

>  <vsa_other>
40.607563

>  <vsa_pol>
65.632835

>  <Weight>
627.94202

>  <weinerPath>
880

>  <weinerPol>
34

>  <zagreb>
102

$$$$