S1c2c(N(c3c1cccc3)CC(CN(C)C)C)cc(OC)cc2
  MOE2013           2D

 23 25  0  0  1  0  0  0  0  0999 V2000
    0.0000    0.0000    0.0000 S   0  0  0  0  0  0  0  0  0  0  0  0
    0.7560    1.2950    0.0000 C   0  0  0  0  0  0  0  0  0  0  0  0
    0.0130    2.5980    0.0000 C   0  0  0  0  0  0  0  0  0  0  0  0
   -1.4870    2.6060    0.0000 N   0  0  3  0  0  0  0  0  0  0  0  0
   -2.2430    1.3100    0.0000 C   0  0  0  0  0  0  0  0  0  0  0  0
   -1.5000    0.0070    0.0000 C   0  0  0  0  0  0  0  0  0  0  0  0
   -2.2560   -1.2880    0.0000 C   0  0  0  0  0  0  0  0  0  0  0  0
   -3.7560   -1.2800    0.0000 C   0  0  0  0  0  0  0  0  0  0  0  0
   -4.5000    0.0220    0.0000 C   0  0  0  0  0  0  0  0  0  0  0  0
   -3.7430    1.3180    0.0000 C   0  0  0  0  0  0  0  0  0  0  0  0
   -2.2310    3.9080    0.0000 C   0  0  0  0  0  0  0  0  0  0  0  0
   -3.7310    3.9160    0.0000 C   0  0  3  0  0  0  0  0  0  0  0  0
   -4.4740    5.2190    0.0000 C   0  0  0  0  0  0  0  0  0  0  0  0
   -5.9740    5.2260    0.0000 N   0  0  0  0  0  0  0  0  0  0  0  0
   -6.7300    3.9310    0.0000 C   0  0  0  0  0  0  0  0  0  0  0  0
   -6.7180    6.5290    0.0000 C   0  0  0  0  0  0  0  0  0  0  0  0
   -4.4870    2.6200    0.0000 C   0  0  0  0  0  0  0  0  0  0  0  0
    0.7690    3.8930    0.0000 C   0  0  0  0  0  0  0  0  0  0  0  0
    2.2690    3.8860    0.0000 C   0  0  0  0  0  0  0  0  0  0  0  0
    3.0260    5.1810    0.0000 O   0  0  0  0  0  0  0  0  0  0  0  0
    4.5260    5.1740    0.0000 C   0  0  0  0  0  0  0  0  0  0  0  0
    3.0130    2.5830    0.0000 C   0  0  0  0  0  0  0  0  0  0  0  0
    2.2560    1.2880    0.0000 C   0  0  0  0  0  0  0  0  0  0  0  0
  1  2  1  0  0  0  0
  1  6  1  0  0  0  0
  2  3  1  0  0  0  0
  2 23  2  0  0  0  0
  3  4  1  0  0  0  0
  3 18  2  0  0  0  0
  4  5  1  0  0  0  0
  4 11  1  0  0  0  0
  5  6  1  0  0  0  0
  5 10  2  0  0  0  0
  6  7  2  0  0  0  0
  7  8  1  0  0  0  0
  8  9  2  0  0  0  0
  9 10  1  0  0  0  0
 11 12  1  0  0  0  0
 12 13  1  0  0  0  0
 12 17  1  0  0  0  0
 13 14  1  0  0  0  0
 14 15  1  0  0  0  0
 14 16  1  0  0  0  0
 18 19  1  0  0  0  0
 19 20  1  0  0  0  0
 19 22  2  0  0  0  0
 20 21  1  0  0  0  0
 22 23  1  0  0  0  0
M  END
>  <Index>
1645

>  <ID>
HT1348

>  <class>
1

>  <apol>
55.345032

>  <ast_fraglike>
0

>  <ast_fraglike_ext>
0

>  <ast_violation>
2

>  <ast_violation_ext>
3

>  <a_acc>
2

>  <a_acid>
0

>  <a_aro>
12

>  <a_base>
0

>  <a_count>
47

>  <a_don>
0

>  <a_donacc>
2

>  <a_heavy>
23

>  <a_hyd>
20

>  <a_IC>
68.315956

>  <a_ICM>
1.4535309

>  <a_nB>
0

>  <a_nBr>
0

>  <a_nC>
19

>  <a_nCl>
0

>  <a_nF>
0

>  <a_nH>
24

>  <a_nI>
0

>  <a_nN>
2

>  <a_nO>
1

>  <a_nP>
0

>  <a_nS>
1

>  <balabanJ>
1.741223

>  <BCUT_PEOE_0>
-2.7045894

>  <BCUT_PEOE_1>
-0.53521758

>  <BCUT_PEOE_2>
0.53438133

>  <BCUT_PEOE_3>
2.627408

>  <BCUT_SLOGP_0>
-2.7559142

>  <BCUT_SLOGP_1>
-0.44677392

>  <BCUT_SLOGP_2>
0.66022962

>  <BCUT_SLOGP_3>
2.6426468

>  <BCUT_SMR_0>
-2.4302979

>  <BCUT_SMR_1>
-0.34408155

>  <BCUT_SMR_2>
0.69923884

>  <BCUT_SMR_3>
2.9025316

>  <bpol>
34.392967

>  <b_1rotN>
5

>  <b_1rotR>
0.2

>  <b_ar>
12

>  <b_count>
49

>  <b_double>
0

>  <b_heavy>
25

>  <b_max1len>
6

>  <b_rotN>
5

>  <b_rotR>
0.2

>  <b_single>
37

>  <b_triple>
0

>  <chi0>
16.396976

>  <chi0v>
15.060436

>  <chi0v_C>
12.533015

>  <chi0_C>
13.828063

>  <chi1>
11.079719

>  <chi1v>
8.7704449

>  <chi1v_C>
4.9592309

>  <chi1_C>
6.5100031

>  <chiral>
1

>  <chiral_u>
1

>  <density>
0.69918805

>  <diameter>
10

>  <FCharge>
0

>  <GCUT_PEOE_0>
-0.86346245

>  <GCUT_PEOE_1>
-0.37701476

>  <GCUT_PEOE_2>
-0.027638284

>  <GCUT_PEOE_3>
2.7251427

>  <GCUT_SLOGP_0>
-0.95486665

>  <GCUT_SLOGP_1>
-0.27082583

>  <GCUT_SLOGP_2>
0.13112785

>  <GCUT_SLOGP_3>
2.8548343

>  <GCUT_SMR_0>
-0.5253166

>  <GCUT_SMR_1>
-0.17782964

>  <GCUT_SMR_2>
0.14690624

>  <GCUT_SMR_3>
3.0193353

>  <Kier1>
17.811199

>  <Kier2>
7.9200001

>  <Kier3>
4.1587901

>  <KierA1>
15.026278

>  <KierA2>
6.6269507

>  <KierA3>
3.4581943

>  <KierFlex>
4.3294959

>  <lip_acc>
3

>  <lip_don>
0

>  <lip_druglike>
1

>  <lip_violation>
0

>  <logP(o/w)>
4.3460002

>  <logS>
-4.09201

>  <mr>
9.7975893

>  <mutagenic>
0

>  <nmol>
1

>  <opr_brigid>
16

>  <opr_leadlike>
1

>  <opr_nring>
3

>  <opr_nrot>
5

>  <opr_violation>
0

>  <PC+>
0

>  <PC->
0

>  <PEOE_PC+>
1.3843405

>  <PEOE_PC->
-1.3843405

>  <PEOE_RPC+>
0.055894546

>  <PEOE_RPC->
0.25128269

>  <PEOE_VSA+0>
132.86601

>  <PEOE_VSA+1>
51.112381

>  <PEOE_VSA+2>
0

>  <PEOE_VSA+3>
0

>  <PEOE_VSA+4>
0

>  <PEOE_VSA+5>
0

>  <PEOE_VSA+6>
0

>  <PEOE_VSA-0>
107.7519

>  <PEOE_VSA-1>
63.018105

>  <PEOE_VSA-2>
0

>  <PEOE_VSA-3>
0

>  <PEOE_VSA-4>
0

>  <PEOE_VSA-5>
0

>  <PEOE_VSA-6>
2.503756

>  <PEOE_VSA_FHYD>
0.99299163

>  <PEOE_VSA_FNEG>
0.4850181

>  <PEOE_VSA_FPNEG>
0.0070083723

>  <PEOE_VSA_FPOL>
0.0070083723

>  <PEOE_VSA_FPOS>
0.51498193

>  <PEOE_VSA_FPPOS>
0

>  <PEOE_VSA_HYD>
354.74838

>  <PEOE_VSA_NEG>
173.27376

>  <PEOE_VSA_PNEG>
2.503756

>  <PEOE_VSA_POL>
2.503756

>  <PEOE_VSA_POS>
183.97839

>  <PEOE_VSA_PPOS>
0

>  <petitjean>
0.5

>  <petitjeanSC>
1

>  <Q_PC+>
0

>  <Q_PC->
0

>  <Q_RPC+>
0

>  <Q_RPC->
0

>  <Q_VSA_FHYD>
1

>  <Q_VSA_FNEG>
0

>  <Q_VSA_FPNEG>
0

>  <Q_VSA_FPOL>
0

>  <Q_VSA_FPOS>
1

>  <Q_VSA_FPPOS>
0

>  <Q_VSA_HYD>
357.25217

>  <Q_VSA_NEG>
0

>  <Q_VSA_PNEG>
0

>  <Q_VSA_POL>
0

>  <Q_VSA_POS>
357.25217

>  <Q_VSA_PPOS>
0

>  <radius>
5

>  <reactive>
0

>  <rings>
3

>  <RPC+>
0

>  <RPC->
0

>  <rsynth>
1

>  <SlogP>
4.4956002

>  <SlogP_VSA0>
14.124202

>  <SlogP_VSA1>
3.1243138

>  <SlogP_VSA2>
0

>  <SlogP_VSA3>
36.879158

>  <SlogP_VSA4>
4.4107962

>  <SlogP_VSA5>
104.27971

>  <SlogP_VSA6>
0

>  <SlogP_VSA7>
123.50229

>  <SlogP_VSA8>
0

>  <SlogP_VSA9>
76.302483

>  <SMR>
9.8283997

>  <SMR_VSA0>
0

>  <SMR_VSA1>
14.124202

>  <SMR_VSA2>
10.636578

>  <SMR_VSA3>
5.2434282

>  <SMR_VSA4>
5.513495

>  <SMR_VSA5>
123.50229

>  <SMR_VSA6>
36.879158

>  <SMR_VSA7>
166.7238

>  <TPSA>
15.71

>  <VAdjEq>
0.45137304

>  <VAdjMa>
5.643856

>  <VDistEq>
3.1184394

>  <VDistMa>
8.7858391

>  <vdw_area>
357.25217

>  <vdw_vol>
469.80206

>  <vsa_acc>
2.503756

>  <vsa_acid>
0

>  <vsa_base>
0

>  <vsa_don>
0

>  <vsa_hyd>
336.32025

>  <vsa_other>
0

>  <vsa_pol>
2.503756

>  <Weight>
328.47998

>  <weinerPath>
1130

>  <weinerPol>
37

>  <zagreb>
120

$$$$