N(CCCC1c2c(C=Cc3c1cccc3)cccc2)C
  MOE2013           2D

 20 22  0  0  0  0  0  0  0  0999 V2000
    0.0000    0.0000    0.0000 N   0  0  0  0  0  0  0  0  0  0  0  0
   -1.2970    0.7540    0.0000 C   0  0  0  0  0  0  0  0  0  0  0  0
   -2.5980    0.0080    0.0000 C   0  0  0  0  0  0  0  0  0  0  0  0
   -3.8950    0.7630    0.0000 C   0  0  0  0  0  0  0  0  0  0  0  0
   -5.1960    0.0170    0.0000 C   0  0  0  0  0  0  0  0  0  0  0  0
   -6.4330    0.8650    0.0000 C   0  0  0  0  0  0  0  0  0  0  0  0
   -7.8680    0.4280    0.0000 C   0  0  0  0  0  0  0  0  0  0  0  0
   -8.4210   -0.9670    0.0000 C   0  0  0  0  0  0  0  0  0  0  0  0
   -7.6760   -2.2690    0.0000 C   0  0  0  0  0  0  0  0  0  0  0  0
   -6.1930   -2.4960    0.0000 C   0  0  0  0  0  0  0  0  0  0  0  0
   -5.0900   -1.4790    0.0000 C   0  0  0  0  0  0  0  0  0  0  0  0
   -3.6580   -1.9260    0.0000 C   0  0  0  0  0  0  0  0  0  0  0  0
   -3.3290   -3.3900    0.0000 C   0  0  0  0  0  0  0  0  0  0  0  0
   -4.4320   -4.4060    0.0000 C   0  0  0  0  0  0  0  0  0  0  0  0
   -5.8640   -3.9590    0.0000 C   0  0  0  0  0  0  0  0  0  0  0  0
   -8.9640    1.4510    0.0000 C   0  0  0  0  0  0  0  0  0  0  0  0
   -8.6260    2.9130    0.0000 C   0  0  0  0  0  0  0  0  0  0  0  0
   -7.1910    3.3500    0.0000 C   0  0  0  0  0  0  0  0  0  0  0  0
   -6.0950    2.3270    0.0000 C   0  0  0  0  0  0  0  0  0  0  0  0
    1.3010    0.7460    0.0000 C   0  0  0  0  0  0  0  0  0  0  0  0
  1  2  1  0  0  0  0
  1 20  1  0  0  0  0
  2  3  1  0  0  0  0
  3  4  1  0  0  0  0
  4  5  1  0  0  0  0
  5  6  1  0  0  0  0
  5 11  1  0  0  0  0
  6  7  1  0  0  0  0
  6 19  2  0  0  0  0
  7  8  1  0  0  0  0
  7 16  2  0  0  0  0
  8  9  2  0  0  0  0
  9 10  1  0  0  0  0
 10 11  1  0  0  0  0
 10 15  2  0  0  0  0
 11 12  2  0  0  0  0
 12 13  1  0  0  0  0
 13 14  2  0  0  0  0
 14 15  1  0  0  0  0
 16 17  1  0  0  0  0
 17 18  2  0  0  0  0
 18 19  1  0  0  0  0
M  END
>  <Index>
1707

>  <ID>
HT1770

>  <class>
1

>  <apol>
48.542652

>  <ast_fraglike>
0

>  <ast_fraglike_ext>
0

>  <ast_violation>
1

>  <ast_violation_ext>
2

>  <a_acc>
1

>  <a_acid>
0

>  <a_aro>
12

>  <a_base>
0

>  <a_count>
41

>  <a_don>
1

>  <a_donacc>
2

>  <a_heavy>
20

>  <a_hyd>
19

>  <a_IC>
46.710342

>  <a_ICM>
1.1392766

>  <a_nB>
0

>  <a_nBr>
0

>  <a_nC>
19

>  <a_nCl>
0

>  <a_nF>
0

>  <a_nH>
21

>  <a_nI>
0

>  <a_nN>
1

>  <a_nO>
0

>  <a_nP>
0

>  <a_nS>
0

>  <balabanJ>
1.7363107

>  <BCUT_PEOE_0>
-2.6436162

>  <BCUT_PEOE_1>
-0.62175775

>  <BCUT_PEOE_2>
0.65236437

>  <BCUT_PEOE_3>
2.5919516

>  <BCUT_SLOGP_0>
-2.6874874

>  <BCUT_SLOGP_1>
-0.55119032

>  <BCUT_SLOGP_2>
0.69317085

>  <BCUT_SLOGP_3>
2.7085445

>  <BCUT_SMR_0>
-2.377121

>  <BCUT_SMR_1>
-0.49073729

>  <BCUT_SMR_2>
0.77872211

>  <BCUT_SMR_3>
2.8659408

>  <bpol>
23.617348

>  <b_1rotN>
4

>  <b_1rotR>
0.18181819

>  <b_ar>
12

>  <b_count>
43

>  <b_double>
1

>  <b_heavy>
22

>  <b_max1len>
7

>  <b_rotN>
4

>  <b_rotR>
0.18181819

>  <b_single>
30

>  <b_triple>
0

>  <chi0>
13.786246

>  <chi0v>
11.972174

>  <chi0v_C>
11.472174

>  <chi0_C>
13.07914

>  <chi1>
9.8981781

>  <chi1v>
7.4045362

>  <chi1v_C>
6.5509825

>  <chi1_C>
8.6910715

>  <chiral>
0

>  <chiral_u>
0

>  <density>
0.6403113

>  <diameter>
9

>  <FCharge>
0

>  <GCUT_PEOE_0>
-0.85466909

>  <GCUT_PEOE_1>
-0.39148951

>  <GCUT_PEOE_2>
0.095584117

>  <GCUT_PEOE_3>
2.714283

>  <GCUT_SLOGP_0>
-1.1525089

>  <GCUT_SLOGP_1>
-0.25775149

>  <GCUT_SLOGP_2>
0.17887267

>  <GCUT_SLOGP_3>
2.858412

>  <GCUT_SMR_0>
-0.52337503

>  <GCUT_SMR_1>
-0.20286371

>  <GCUT_SMR_2>
0.1906067

>  <GCUT_SMR_3>
3.008791

>  <Kier1>
14.917356

>  <Kier2>
7.3198571

>  <Kier3>
3.4425001

>  <KierA1>
11.08651

>  <KierA2>
5.3479114

>  <KierA3>
2.4837554

>  <KierFlex>
2.9644835

>  <lip_acc>
1

>  <lip_don>
1

>  <lip_druglike>
1

>  <lip_violation>
0

>  <logP(o/w)>
4.9359999

>  <logS>
-4.1480799

>  <mr>
8.5159101

>  <mutagenic>
0

>  <nmol>
1

>  <opr_brigid>
17

>  <opr_leadlike>
1

>  <opr_nring>
3

>  <opr_nrot>
4

>  <opr_violation>
0

>  <PC+>
0

>  <PC->
0

>  <PEOE_PC+>
1.1041079

>  <PEOE_PC->
-1.1041079

>  <PEOE_RPC+>
0.11016416

>  <PEOE_RPC->
0.28889462

>  <PEOE_VSA+0>
42.653858

>  <PEOE_VSA+1>
42.653858

>  <PEOE_VSA+2>
8.6190128

>  <PEOE_VSA+3>
0

>  <PEOE_VSA+4>
0

>  <PEOE_VSA+5>
0

>  <PEOE_VSA+6>
0

>  <PEOE_VSA-0>
62.667797

>  <PEOE_VSA-1>
122.54904

>  <PEOE_VSA-2>
0

>  <PEOE_VSA-3>
0

>  <PEOE_VSA-4>
0

>  <PEOE_VSA-5>
0

>  <PEOE_VSA-6>
0.13689101

>  <PEOE_VSA_FHYD>
0.99950987

>  <PEOE_VSA_FNEG>
0.66368312

>  <PEOE_VSA_FPNEG>
0.000490156

>  <PEOE_VSA_FPOL>
0.000490156

>  <PEOE_VSA_FPOS>
0.33631688

>  <PEOE_VSA_FPPOS>
0

>  <PEOE_VSA_HYD>
279.14359

>  <PEOE_VSA_NEG>
185.35373

>  <PEOE_VSA_PNEG>
0.13689101

>  <PEOE_VSA_POL>
0.13689101

>  <PEOE_VSA_POS>
93.926735

>  <PEOE_VSA_PPOS>
0

>  <petitjean>
0.44444445

>  <petitjeanSC>
0.80000001

>  <Q_PC+>
0

>  <Q_PC->
0

>  <Q_RPC+>
0

>  <Q_RPC->
0

>  <Q_VSA_FHYD>
1

>  <Q_VSA_FNEG>
0

>  <Q_VSA_FPNEG>
0

>  <Q_VSA_FPOL>
0

>  <Q_VSA_FPOS>
1

>  <Q_VSA_FPPOS>
0

>  <Q_VSA_HYD>
279.28046

>  <Q_VSA_NEG>
0

>  <Q_VSA_PNEG>
0

>  <Q_VSA_POL>
0

>  <Q_VSA_POS>
279.28046

>  <Q_VSA_PPOS>
0

>  <radius>
5

>  <reactive>
0

>  <rings>
3

>  <RPC+>
0

>  <RPC->
0

>  <rsynth>
0

>  <SlogP>
4.3018999

>  <SlogP_VSA0>
18.01075

>  <SlogP_VSA1>
0

>  <SlogP_VSA2>
0

>  <SlogP_VSA3>
18.439579

>  <SlogP_VSA4>
12.7423

>  <SlogP_VSA5>
32.897186

>  <SlogP_VSA6>
4.4107962

>  <SlogP_VSA7>
141.14548

>  <SlogP_VSA8>
73.023178

>  <SlogP_VSA9>
0

>  <SMR>
8.6815701

>  <SMR_VSA0>
0

>  <SMR_VSA1>
0

>  <SMR_VSA2>
18.01075

>  <SMR_VSA3>
17.153095

>  <SMR_VSA4>
0

>  <SMR_VSA5>
178.88228

>  <SMR_VSA6>
53.725948

>  <SMR_VSA7>
32.897186

>  <TPSA>
12.03

>  <VAdjEq>
0.49991596

>  <VAdjMa>
5.4594316

>  <VDistEq>
2.9541149

>  <VDistMa>
8.3778744

>  <vdw_area>
279.28046

>  <vdw_vol>
411.3374

>  <vsa_acc>
0

>  <vsa_acid>
0

>  <vsa_base>
0

>  <vsa_don>
0

>  <vsa_hyd>
254.9436

>  <vsa_other>
0

>  <vsa_pol>
5.6825762

>  <Weight>
263.384

>  <weinerPath>
759

>  <weinerPol>
34

>  <zagreb>
102

$$$$