Ic1cc(cc(I)c1Oc1cc(I)c(O)c(I)c1)C[C@@H](N)C(O)=O
  MOE2013           2D

 24 25  0  0  1  0  0  0  0  0999 V2000
    0.0000    0.0000    0.0000 I   0  0  0  0  0  0  0  0  0  0  0  0
    0.7440   -1.3020    0.0000 C   0  0  0  0  0  0  0  0  0  0  0  0
    2.2440   -1.3090    0.0000 C   0  0  0  0  0  0  0  0  0  0  0  0
    2.9880   -2.6110    0.0000 C   0  0  0  0  0  0  0  0  0  0  0  0
    2.2330   -3.9070    0.0000 C   0  0  0  0  0  0  0  0  0  0  0  0
    0.7330   -3.9000    0.0000 C   0  0  0  0  0  0  0  0  0  0  0  0
   -0.0230   -5.1960    0.0000 I   0  0  0  0  0  0  0  0  0  0  0  0
   -0.0120   -2.5980    0.0000 C   0  0  0  0  0  0  0  0  0  0  0  0
   -1.5120   -2.5910    0.0000 O   0  0  0  0  0  0  0  0  0  0  0  0
   -2.2670   -3.8870    0.0000 C   0  0  0  0  0  0  0  0  0  0  0  0
   -3.7670   -3.8800    0.0000 C   0  0  0  0  0  0  0  0  0  0  0  0
   -4.5230   -5.1760    0.0000 C   0  0  0  0  0  0  0  0  0  0  0  0
   -6.0230   -5.1690    0.0000 I   0  0  0  0  0  0  0  0  0  0  0  0
   -3.7790   -6.4780    0.0000 C   0  0  0  0  0  0  0  0  0  0  0  0
   -4.5350   -7.7740    0.0000 O   0  0  0  0  0  0  0  0  0  0  0  0
   -2.2790   -6.4850    0.0000 C   0  0  0  0  0  0  0  0  0  0  0  0
   -1.5350   -7.7870    0.0000 I   0  0  0  0  0  0  0  0  0  0  0  0
   -1.5230   -5.1890    0.0000 C   0  0  0  0  0  0  0  0  0  0  0  0
    4.4880   -2.6180    0.0000 C   0  0  0  0  0  0  0  0  0  0  0  0
    5.2440   -1.3220    0.0000 C   0  0  1  0  0  0  0  0  0  0  0  0
    4.5000   -0.0200    0.0000 N   0  0  0  0  0  0  0  0  0  0  0  0
    6.7440   -1.3290    0.0000 C   0  0  0  0  0  0  0  0  0  0  0  0
    7.4880   -2.6310    0.0000 O   0  0  0  0  0  0  0  0  0  0  0  0
    7.5000   -0.0330    0.0000 O   0  0  0  0  0  0  0  0  0  0  0  0
  1  2  1  0  0  0  0
  2  3  1  0  0  0  0
  2  8  2  0  0  0  0
  3  4  2  0  0  0  0
  4  5  1  0  0  0  0
  4 19  1  0  0  0  0
  5  6  2  0  0  0  0
  6  7  1  0  0  0  0
  6  8  1  0  0  0  0
  8  9  1  0  0  0  0
  9 10  1  0  0  0  0
 10 11  2  0  0  0  0
 10 18  1  0  0  0  0
 11 12  1  0  0  0  0
 12 13  1  0  0  0  0
 12 14  2  0  0  0  0
 14 15  1  0  0  0  0
 14 16  1  0  0  0  0
 16 17  1  0  0  0  0
 16 18  2  0  0  0  0
 19 20  1  0  0  0  0
 20 21  1  1  0  0  0
 20 22  1  0  0  0  0
 22 23  1  0  0  0  0
 22 24  2  0  0  0  0
M  END
>  <Index>
1520

>  <ID>
HT0631

>  <class>
1

>  <apol>
59.442722

>  <ast_fraglike>
0

>  <ast_fraglike_ext>
0

>  <ast_violation>
4

>  <ast_violation_ext>
5

>  <a_acc>
4

>  <a_acid>
0

>  <a_aro>
12

>  <a_base>
0

>  <a_count>
35

>  <a_don>
4

>  <a_donacc>
8

>  <a_heavy>
24

>  <a_hyd>
18

>  <a_IC>
66.867798

>  <a_ICM>
1.9105085

>  <a_nB>
0

>  <a_nBr>
0

>  <a_nC>
15

>  <a_nCl>
0

>  <a_nF>
0

>  <a_nH>
11

>  <a_nI>
4

>  <a_nN>
1

>  <a_nO>
4

>  <a_nP>
0

>  <a_nS>
0

>  <balabanJ>
1.8936124

>  <BCUT_PEOE_0>
-2.4787138

>  <BCUT_PEOE_1>
-0.67869681

>  <BCUT_PEOE_2>
0.68493426

>  <BCUT_PEOE_3>
2.5062897

>  <BCUT_SLOGP_0>
-2.7321019

>  <BCUT_SLOGP_1>
-0.48640838

>  <BCUT_SLOGP_2>
1.0538911

>  <BCUT_SLOGP_3>
2.4649458

>  <BCUT_SMR_0>
-2.2277873

>  <BCUT_SMR_1>
-0.28402144

>  <BCUT_SMR_2>
1.2708766

>  <BCUT_SMR_3>
2.7598932

>  <bpol>
28.599277

>  <b_1rotN>
5

>  <b_1rotR>
0.2

>  <b_ar>
12

>  <b_count>
36

>  <b_double>
1

>  <b_heavy>
25

>  <b_max1len>
4

>  <b_rotN>
5

>  <b_rotR>
0.2

>  <b_single>
23

>  <b_triple>
0

>  <chi0>
18.016144

>  <chi0v>
20.523983

>  <chi0v_C>
8.0938578

>  <chi0_C>
9.3090363

>  <chi1>
11.184448

>  <chi1v>
10.823723

>  <chi1v_C>
4.3598781

>  <chi1_C>
5.7491498

>  <chiral>
1

>  <chiral_u>
0

>  <density>
1.582387

>  <diameter>
13

>  <FCharge>
0

>  <GCUT_PEOE_0>
-0.8107419

>  <GCUT_PEOE_1>
-0.44613695

>  <GCUT_PEOE_2>
0.051221799

>  <GCUT_PEOE_3>
2.3926785

>  <GCUT_SLOGP_0>
-1.363467

>  <GCUT_SLOGP_1>
-0.34100467

>  <GCUT_SLOGP_2>
0.4435201

>  <GCUT_SLOGP_3>
2.5454159

>  <GCUT_SMR_0>
-0.49890575

>  <GCUT_SMR_1>
-0.19539262

>  <GCUT_SMR_2>
0.5866679

>  <GCUT_SMR_3>
2.7737563

>  <Kier1>
20.313601

>  <Kier2>
8.5895061

>  <Kier3>
5.25

>  <KierA1>
27.173117

>  <KierA2>
11.633377

>  <KierA3>
7.1738362

>  <KierFlex>
13.171463

>  <lip_acc>
5

>  <lip_don>
4

>  <lip_druglike>
1

>  <lip_violation>
1

>  <logP(o/w)>
4.6792698

>  <logS>
-6.4939499

>  <mr>
12.708792

>  <mutagenic>
0

>  <nmol>
1

>  <opr_brigid>
12

>  <opr_leadlike>
0

>  <opr_nring>
2

>  <opr_nrot>
5

>  <opr_violation>
2

>  <PC+>
0

>  <PC->
0

>  <PEOE_PC+>
1.9047208

>  <PEOE_PC->
-1.9047208

>  <PEOE_RPC+>
0.14535543

>  <PEOE_RPC->
0.18782865

>  <PEOE_VSA+0>
20.691149

>  <PEOE_VSA+1>
41.389931

>  <PEOE_VSA+2>
25.696545

>  <PEOE_VSA+3>
0

>  <PEOE_VSA+4>
20.648346

>  <PEOE_VSA+5>
14.708499

>  <PEOE_VSA+6>
0

>  <PEOE_VSA-0>
247.88953

>  <PEOE_VSA-1>
0

>  <PEOE_VSA-2>
0

>  <PEOE_VSA-3>
0

>  <PEOE_VSA-4>
0

>  <PEOE_VSA-5>
13.566921

>  <PEOE_VSA-6>
24.689957

>  <PEOE_VSA_FHYD>
0.82013887

>  <PEOE_VSA_FNEG>
0.69914436

>  <PEOE_VSA_FPNEG>
0.093473405

>  <PEOE_VSA_FPOL>
0.17986113

>  <PEOE_VSA_FPOS>
0.30085567

>  <PEOE_VSA_FPPOS>
0.086387731

>  <PEOE_VSA_HYD>
335.66714

>  <PEOE_VSA_NEG>
286.14639

>  <PEOE_VSA_PNEG>
38.256878

>  <PEOE_VSA_POL>
73.613724

>  <PEOE_VSA_POS>
123.13447

>  <PEOE_VSA_PPOS>
35.356846

>  <petitjean>
0.46153846

>  <petitjeanSC>
0.85714287

>  <Q_PC+>
0

>  <Q_PC->
0

>  <Q_RPC+>
0

>  <Q_RPC->
0

>  <Q_VSA_FHYD>
1

>  <Q_VSA_FNEG>
0

>  <Q_VSA_FPNEG>
0

>  <Q_VSA_FPOL>
0

>  <Q_VSA_FPOS>
1

>  <Q_VSA_FPPOS>
0

>  <Q_VSA_HYD>
409.28088

>  <Q_VSA_NEG>
0

>  <Q_VSA_PNEG>
0

>  <Q_VSA_POL>
0

>  <Q_VSA_POS>
409.28088

>  <Q_VSA_PPOS>
0

>  <radius>
7

>  <reactive>
0

>  <rings>
2

>  <RPC+>
0

>  <RPC->
0

>  <rsynth>
0.41666666

>  <SlogP>
4.5572701

>  <SlogP_VSA0>
69.282303

>  <SlogP_VSA1>
7.7454643

>  <SlogP_VSA2>
34.482758

>  <SlogP_VSA3>
25.385227

>  <SlogP_VSA4>
3.185575

>  <SlogP_VSA5>
18.868406

>  <SlogP_VSA6>
0

>  <SlogP_VSA7>
70.572739

>  <SlogP_VSA8>
0

>  <SlogP_VSA9>
242.85832

>  <SMR>
12.4806

>  <SMR_VSA0>
23.862217

>  <SMR_VSA1>
36.385113

>  <SMR_VSA2>
32.0238

>  <SMR_VSA3>
22.897827

>  <SMR_VSA4>
32.897186

>  <SMR_VSA5>
89.441139

>  <SMR_VSA6>
7.7454643

>  <SMR_VSA7>
227.12804

>  <TPSA>
92.779999

>  <VAdjEq>
0.42571631

>  <VAdjMa>
5.643856

>  <VDistEq>
3.4691186

>  <VDistMa>
8.8572464

>  <vdw_area>
409.28088

>  <vdw_vol>
490.94943

>  <vsa_acc>
0

>  <vsa_acid>
0

>  <vsa_base>
0

>  <vsa_don>
0

>  <vsa_hyd>
313.44656

>  <vsa_other>
17.212255

>  <vsa_pol>
58.443253

>  <Weight>
776.87201

>  <weinerPath>
1438

>  <weinerPol>
38

>  <zagreb>
122

$$$$