Clc1ccccc1[C@H](N1CCc2sccc2C1)C(OC)=O
  MOE2013           2D

 21 23  0  0  1  0  0  0  0  0999 V2000
    0.0000    0.0000    0.0000 Cl  0  0  0  0  0  0  0  0  0  0  0  0
    0.7420    1.3040    0.0000 C   0  0  0  0  0  0  0  0  0  0  0  0
   -0.0170    2.5980    0.0000 C   0  0  0  0  0  0  0  0  0  0  0  0
    0.7250    3.9020    0.0000 C   0  0  0  0  0  0  0  0  0  0  0  0
    2.2250    3.9120    0.0000 C   0  0  0  0  0  0  0  0  0  0  0  0
    2.9830    2.6180    0.0000 C   0  0  0  0  0  0  0  0  0  0  0  0
    2.2420    1.3140    0.0000 C   0  0  0  0  0  0  0  0  0  0  0  0
    3.0000    0.0190    0.0000 C   0  0  2  0  0  0  0  0  0  0  0  0
    4.5000    0.0290    0.0000 N   0  0  3  0  0  0  0  0  0  0  0  0
    5.2410    1.3330    0.0000 C   0  0  0  0  0  0  0  0  0  0  0  0
    6.7410    1.3430    0.0000 C   0  0  0  0  0  0  0  0  0  0  0  0
    7.5000    0.0490    0.0000 C   0  0  0  0  0  0  0  0  0  0  0  0
    8.9690   -0.2540    0.0000 S   0  0  0  0  0  0  0  0  0  0  0  0
    9.1360   -1.7440    0.0000 C   0  0  0  0  0  0  0  0  0  0  0  0
    7.7690   -2.3630    0.0000 C   0  0  0  0  0  0  0  0  0  0  0  0
    6.7580   -1.2550    0.0000 C   0  0  0  0  0  0  0  0  0  0  0  0
    5.2580   -1.2650    0.0000 C   0  0  0  0  0  0  0  0  0  0  0  0
    2.2580   -1.2840    0.0000 C   0  0  0  0  0  0  0  0  0  0  0  0
    3.0170   -2.5790    0.0000 O   0  0  0  0  0  0  0  0  0  0  0  0
    2.2750   -3.8820    0.0000 C   0  0  0  0  0  0  0  0  0  0  0  0
    0.7580   -1.2940    0.0000 O   0  0  0  0  0  0  0  0  0  0  0  0
  1  2  1  0  0  0  0
  2  3  1  0  0  0  0
  2  7  2  0  0  0  0
  3  4  2  0  0  0  0
  4  5  1  0  0  0  0
  5  6  2  0  0  0  0
  6  7  1  0  0  0  0
  8  7  1  6  0  0  0
  8  9  1  0  0  0  0
  8 18  1  0  0  0  0
  9 10  1  0  0  0  0
  9 17  1  0  0  0  0
 10 11  1  0  0  0  0
 11 12  1  0  0  0  0
 12 13  1  0  0  0  0
 12 16  2  0  0  0  0
 13 14  1  0  0  0  0
 14 15  2  0  0  0  0
 15 16  1  0  0  0  0
 16 17  1  0  0  0  0
 18 19  1  0  0  0  0
 18 21  2  0  0  0  0
 19 20  1  0  0  0  0
M  END
>  <Index>
1503

>  <ID>
HT0532

>  <class>
1

>  <apol>
46.612686

>  <ast_fraglike>
0

>  <ast_fraglike_ext>
0

>  <ast_violation>
2

>  <ast_violation_ext>
3

>  <a_acc>
2

>  <a_acid>
0

>  <a_aro>
11

>  <a_base>
0

>  <a_count>
37

>  <a_don>
0

>  <a_donacc>
2

>  <a_heavy>
21

>  <a_hyd>
17

>  <a_IC>
62.749775

>  <a_ICM>
1.6959399

>  <a_nB>
0

>  <a_nBr>
0

>  <a_nC>
16

>  <a_nCl>
1

>  <a_nF>
0

>  <a_nH>
16

>  <a_nI>
0

>  <a_nN>
1

>  <a_nO>
2

>  <a_nP>
0

>  <a_nS>
1

>  <balabanJ>
1.7256789

>  <BCUT_PEOE_0>
-2.6598797

>  <BCUT_PEOE_1>
-0.51333517

>  <BCUT_PEOE_2>
0.64146584

>  <BCUT_PEOE_3>
2.6141462

>  <BCUT_SLOGP_0>
-2.659992

>  <BCUT_SLOGP_1>
-0.39094839

>  <BCUT_SLOGP_2>
0.76301336

>  <BCUT_SLOGP_3>
2.660027

>  <BCUT_SMR_0>
-2.377732

>  <BCUT_SMR_1>
-0.3612237

>  <BCUT_SMR_2>
0.88373071

>  <BCUT_SMR_3>
2.8947248

>  <bpol>
25.045313

>  <b_1rotN>
3

>  <b_1rotR>
0.13043478

>  <b_ar>
11

>  <b_count>
39

>  <b_double>
1

>  <b_heavy>
23

>  <b_max1len>
2

>  <b_rotN>
4

>  <b_rotR>
0.17391305

>  <b_single>
27

>  <b_triple>
0

>  <chi0>
14.819627

>  <chi0v>
13.285121

>  <chi0v_C>
9.6627722

>  <chi0_C>
10.828063

>  <chi1>
10.202708

>  <chi1v>
8.0773926

>  <chi1v_C>
4.4838157

>  <chi1_C>
5.8745747

>  <chiral>
1

>  <chiral_u>
0

>  <density>
0.80126858

>  <diameter>
9

>  <FCharge>
0

>  <GCUT_PEOE_0>
-0.82787472

>  <GCUT_PEOE_1>
-0.40461487

>  <GCUT_PEOE_2>
0.058939107

>  <GCUT_PEOE_3>
2.6357307

>  <GCUT_SLOGP_0>
-0.89291918

>  <GCUT_SLOGP_1>
-0.25316527

>  <GCUT_SLOGP_2>
0.14200214

>  <GCUT_SLOGP_3>
2.7324035

>  <GCUT_SMR_0>
-0.50954735

>  <GCUT_SMR_1>
-0.16530216

>  <GCUT_SMR_2>
0.255988

>  <GCUT_SMR_3>
2.9171076

>  <Kier1>
15.879017

>  <Kier2>
7.0507812

>  <Kier3>
3.3471074

>  <KierA1>
14.416512

>  <KierA2>
6.3688869

>  <KierA3>
3.0116258

>  <KierFlex>
4.3722448

>  <lip_acc>
3

>  <lip_don>
0

>  <lip_druglike>
1

>  <lip_violation>
0

>  <logP(o/w)>
3.6589999

>  <logS>
-4.1572299

>  <mr>
8.8113232

>  <mutagenic>
0

>  <nmol>
1

>  <opr_brigid>
16

>  <opr_leadlike>
1

>  <opr_nring>
3

>  <opr_nrot>
4

>  <opr_violation>
0

>  <PC+>
0

>  <PC->
0

>  <PEOE_PC+>
1.5084181

>  <PEOE_PC->
-1.5084181

>  <PEOE_RPC+>
0.18818334

>  <PEOE_RPC->
0.21021111

>  <PEOE_VSA+0>
85.759758

>  <PEOE_VSA+1>
38.388474

>  <PEOE_VSA+2>
3.1459606

>  <PEOE_VSA+3>
19.760618

>  <PEOE_VSA+4>
0

>  <PEOE_VSA+5>
14.708499

>  <PEOE_VSA+6>
0

>  <PEOE_VSA-0>
25.373297

>  <PEOE_VSA-1>
82.786163

>  <PEOE_VSA-2>
14.230966

>  <PEOE_VSA-3>
0

>  <PEOE_VSA-4>
0

>  <PEOE_VSA-5>
13.566921

>  <PEOE_VSA-6>
2.503756

>  <PEOE_VSA_FHYD>
0.89747941

>  <PEOE_VSA_FNEG>
0.46119201

>  <PEOE_VSA_FPNEG>
0.053528883

>  <PEOE_VSA_FPOL>
0.10252056

>  <PEOE_VSA_FPOS>
0.53880799

>  <PEOE_VSA_FPPOS>
0.048991684

>  <PEOE_VSA_HYD>
269.44522

>  <PEOE_VSA_NEG>
138.46111

>  <PEOE_VSA_PNEG>
16.070677

>  <PEOE_VSA_POL>
30.779177

>  <PEOE_VSA_POS>
161.76331

>  <PEOE_VSA_PPOS>
14.708499

>  <petitjean>
0.44444445

>  <petitjeanSC>
0.80000001

>  <Q_PC+>
0

>  <Q_PC->
0

>  <Q_RPC+>
0

>  <Q_RPC->
0

>  <Q_VSA_FHYD>
1

>  <Q_VSA_FNEG>
0

>  <Q_VSA_FPNEG>
0

>  <Q_VSA_FPOL>
0

>  <Q_VSA_FPOS>
1

>  <Q_VSA_FPPOS>
0

>  <Q_VSA_HYD>
300.2244

>  <Q_VSA_NEG>
0

>  <Q_VSA_PNEG>
0

>  <Q_VSA_POL>
0

>  <Q_VSA_POS>
300.2244

>  <Q_VSA_PPOS>
0

>  <radius>
5

>  <reactive>
0

>  <rings>
3

>  <RPC+>
0

>  <RPC->
0

>  <rsynth>
1

>  <SlogP>
4.0357699

>  <SlogP_VSA0>
0

>  <SlogP_VSA1>
10.869778

>  <SlogP_VSA2>
34.862103

>  <SlogP_VSA3>
18.439579

>  <SlogP_VSA4>
7.7295513

>  <SlogP_VSA5>
54.252274

>  <SlogP_VSA6>
3.5006065

>  <SlogP_VSA7>
104.03193

>  <SlogP_VSA8>
3.9819686

>  <SlogP_VSA9>
88.865913

>  <SMR>
8.4958

>  <SMR_VSA0>
34.862103

>  <SMR_VSA1>
3.1243138

>  <SMR_VSA2>
0

>  <SMR_VSA3>
15.212127

>  <SMR_VSA4>
0

>  <SMR_VSA5>
141.33992

>  <SMR_VSA6>
26.185041

>  <SMR_VSA7>
105.8102

>  <TPSA>
29.540001

>  <VAdjEq>
0.48250595

>  <VAdjMa>
5.523562

>  <VDistEq>
2.9770131

>  <VDistMa>
8.525032

>  <vdw_area>
300.2244

>  <vdw_vol>
401.6481

>  <vsa_acc>
13.566921

>  <vsa_acid>
0

>  <vsa_base>
0

>  <vsa_don>
0

>  <vsa_hyd>
258.05652

>  <vsa_other>
17.212255

>  <vsa_pol>
13.566921

>  <Weight>
321.828

>  <weinerPath>
867

>  <weinerPol>
33

>  <zagreb>
110

$$$$