N1(CC2=C(CC1)c1c(cccc1)C2c1ccccc1)C
  MOE2013           2D

 20 23  0  0  1  0  0  0  0  0999 V2000
    0.0000    0.0000    0.0000 N   0  0  3  0  0  0  0  0  0  0  0  0
    1.5000    0.0050    0.0000 C   0  0  0  0  0  0  0  0  0  0  0  0
    2.2460    1.3060    0.0000 C   0  0  0  0  0  0  0  0  0  0  0  0
    1.4920    2.6030    0.0000 C   0  0  0  0  0  0  0  0  0  0  0  0
   -0.0080    2.5980    0.0000 C   0  0  0  0  0  0  0  0  0  0  0  0
   -0.7540    1.2970    0.0000 C   0  0  0  0  0  0  0  0  0  0  0  0
    2.4920    3.7200    0.0000 C   0  0  0  0  0  0  0  0  0  0  0  0
    3.8640    3.1150    0.0000 C   0  0  0  0  0  0  0  0  0  0  0  0
    5.0750    4.0000    0.0000 C   0  0  0  0  0  0  0  0  0  0  0  0
    4.9140    5.4910    0.0000 C   0  0  0  0  0  0  0  0  0  0  0  0
    3.5420    6.0970    0.0000 C   0  0  0  0  0  0  0  0  0  0  0  0
    2.3310    5.2120    0.0000 C   0  0  0  0  0  0  0  0  0  0  0  0
    3.7120    1.6220    0.0000 C   0  0  3  0  0  0  0  0  0  0  0  0
    4.8300    0.6220    0.0000 C   0  0  0  0  0  0  0  0  0  0  0  0
    4.5230   -0.8460    0.0000 C   0  0  0  0  0  0  0  0  0  0  0  0
    5.6400   -1.8460    0.0000 C   0  0  0  0  0  0  0  0  0  0  0  0
    7.0660   -1.3780    0.0000 C   0  0  0  0  0  0  0  0  0  0  0  0
    7.3730    0.0900    0.0000 C   0  0  0  0  0  0  0  0  0  0  0  0
    6.2550    1.0900    0.0000 C   0  0  0  0  0  0  0  0  0  0  0  0
   -0.7460   -1.3010    0.0000 C   0  0  0  0  0  0  0  0  0  0  0  0
  1  2  1  0  0  0  0
  1  6  1  0  0  0  0
  1 20  1  0  0  0  0
  2  3  1  0  0  0  0
  3  4  2  0  0  0  0
  3 13  1  0  0  0  0
  4  5  1  0  0  0  0
  4  7  1  0  0  0  0
  5  6  1  0  0  0  0
  7  8  1  0  0  0  0
  7 12  2  0  0  0  0
  8  9  2  0  0  0  0
  8 13  1  0  0  0  0
  9 10  1  0  0  0  0
 10 11  2  0  0  0  0
 11 12  1  0  0  0  0
 13 14  1  0  0  0  0
 14 15  1  0  0  0  0
 14 19  2  0  0  0  0
 15 16  2  0  0  0  0
 16 17  1  0  0  0  0
 17 18  2  0  0  0  0
 18 19  1  0  0  0  0
M  END
>  <Index>
1690

>  <ID>
HT1647

>  <class>
1

>  <apol>
47.209068

>  <ast_fraglike>
0

>  <ast_fraglike_ext>
0

>  <ast_violation>
1

>  <ast_violation_ext>
1

>  <a_acc>
1

>  <a_acid>
0

>  <a_aro>
12

>  <a_base>
0

>  <a_count>
39

>  <a_don>
0

>  <a_donacc>
1

>  <a_heavy>
20

>  <a_hyd>
19

>  <a_IC>
44.709442

>  <a_ICM>
1.1463959

>  <a_nB>
0

>  <a_nBr>
0

>  <a_nC>
19

>  <a_nCl>
0

>  <a_nF>
0

>  <a_nH>
19

>  <a_nI>
0

>  <a_nN>
1

>  <a_nO>
0

>  <a_nP>
0

>  <a_nS>
0

>  <balabanJ>
1.6021496

>  <BCUT_PEOE_0>
-2.6667099

>  <BCUT_PEOE_1>
-0.56242299

>  <BCUT_PEOE_2>
0.61142766

>  <BCUT_PEOE_3>
2.6282687

>  <BCUT_SLOGP_0>
-2.7031109

>  <BCUT_SLOGP_1>
-0.45180312

>  <BCUT_SLOGP_2>
0.72073132

>  <BCUT_SLOGP_3>
2.7051668

>  <BCUT_SMR_0>
-2.3730774

>  <BCUT_SMR_1>
-0.41037831

>  <BCUT_SMR_2>
0.76851964

>  <BCUT_SMR_3>
2.9332335

>  <bpol>
22.750933

>  <b_1rotN>
1

>  <b_1rotR>
0.043478262

>  <b_ar>
12

>  <b_count>
42

>  <b_double>
1

>  <b_heavy>
23

>  <b_max1len>
2

>  <b_rotN>
1

>  <b_rotR>
0.043478262

>  <b_single>
29

>  <b_triple>
0

>  <chi0>
13.526733

>  <chi0v>
11.842036

>  <chi0v_C>
11.394823

>  <chi0_C>
12.949383

>  <chi1>
9.8433371

>  <chi1v>
7.3908353

>  <chi1v_C>
6.3111663

>  <chi1_C>
8.4494896

>  <chiral>
1

>  <chiral_u>
1

>  <density>
0.65496391

>  <diameter>
8

>  <FCharge>
0

>  <GCUT_PEOE_0>
-0.8541218

>  <GCUT_PEOE_1>
-0.36268654

>  <GCUT_PEOE_2>
0.060039744

>  <GCUT_PEOE_3>
2.7629955

>  <GCUT_SLOGP_0>
-0.95211804

>  <GCUT_SLOGP_1>
-0.26884615

>  <GCUT_SLOGP_2>
0.14598413

>  <GCUT_SLOGP_3>
2.8787165

>  <GCUT_SMR_0>
-0.51154166

>  <GCUT_SMR_1>
-0.18977024

>  <GCUT_SMR_2>
0.17050478

>  <GCUT_SMR_3>
3.0589592

>  <Kier1>
13.648394

>  <Kier2>
5.6528926

>  <Kier3>
2.390625

>  <KierA1>
10.143423

>  <KierA2>
4.1300216

>  <KierA3>
1.7248302

>  <KierFlex>
2.0946276

>  <lip_acc>
1

>  <lip_don>
0

>  <lip_druglike>
1

>  <lip_violation>
0

>  <logP(o/w)>
3.852

>  <logS>
-3.6384201

>  <mr>
8.2835159

>  <mutagenic>
0

>  <nmol>
1

>  <opr_brigid>
21

>  <opr_leadlike>
1

>  <opr_nring>
4

>  <opr_nrot>
1

>  <opr_violation>
0

>  <PC+>
0

>  <PC->
0

>  <PEOE_PC+>
1.0212299

>  <PEOE_PC->
-1.0212299

>  <PEOE_RPC+>
0.061064526

>  <PEOE_RPC->
0.29485837

>  <PEOE_VSA+0>
69.038513

>  <PEOE_VSA+1>
38.388474

>  <PEOE_VSA+2>
0

>  <PEOE_VSA+3>
0

>  <PEOE_VSA+4>
0

>  <PEOE_VSA+5>
0

>  <PEOE_VSA+6>
0

>  <PEOE_VSA-0>
42.9827

>  <PEOE_VSA-1>
110.29414

>  <PEOE_VSA-2>
0

>  <PEOE_VSA-3>
0

>  <PEOE_VSA-4>
0

>  <PEOE_VSA-5>
0

>  <PEOE_VSA-6>
0

>  <PEOE_VSA_FHYD>
1

>  <PEOE_VSA_FNEG>
0.58793473

>  <PEOE_VSA_FPNEG>
0

>  <PEOE_VSA_FPOL>
0

>  <PEOE_VSA_FPOS>
0.41206524

>  <PEOE_VSA_FPPOS>
0

>  <PEOE_VSA_HYD>
260.70383

>  <PEOE_VSA_NEG>
153.27684

>  <PEOE_VSA_PNEG>
0

>  <PEOE_VSA_POL>
0

>  <PEOE_VSA_POS>
107.42699

>  <PEOE_VSA_PPOS>
0

>  <petitjean>
0.5

>  <petitjeanSC>
1

>  <Q_PC+>
0

>  <Q_PC->
0

>  <Q_RPC+>
0

>  <Q_RPC->
0

>  <Q_VSA_FHYD>
1

>  <Q_VSA_FNEG>
0

>  <Q_VSA_FPNEG>
0

>  <Q_VSA_FPOL>
0

>  <Q_VSA_FPOS>
1

>  <Q_VSA_FPPOS>
0

>  <Q_VSA_HYD>
260.70383

>  <Q_VSA_NEG>
0

>  <Q_VSA_PNEG>
0

>  <Q_VSA_POL>
0

>  <Q_VSA_POS>
260.70383

>  <Q_VSA_PPOS>
0

>  <radius>
4

>  <reactive>
0

>  <rings>
4

>  <RPC+>
0

>  <RPC->
0

>  <rsynth>
0.30000001

>  <SlogP>
3.9212

>  <SlogP_VSA0>
0

>  <SlogP_VSA1>
3.1243138

>  <SlogP_VSA2>
0

>  <SlogP_VSA3>
36.879158

>  <SlogP_VSA4>
9.5567245

>  <SlogP_VSA5>
36.082764

>  <SlogP_VSA6>
4.4107962

>  <SlogP_VSA7>
161.97423

>  <SlogP_VSA8>
18.868406

>  <SlogP_VSA9>
0

>  <SMR>
8.3760996

>  <SMR_VSA0>
0

>  <SMR_VSA1>
3.1243138

>  <SMR_VSA2>
0

>  <SMR_VSA3>
17.153095

>  <SMR_VSA4>
3.185575

>  <SMR_VSA5>
177.65706

>  <SMR_VSA6>
36.879158

>  <SMR_VSA7>
32.897186

>  <TPSA>
3.24

>  <VAdjEq>
0.51481563

>  <VAdjMa>
5.523562

>  <VDistEq>
2.8198359

>  <VDistMa>
8.3887949

>  <vdw_area>
260.70383

>  <vdw_vol>
399.0571

>  <vsa_acc>
0

>  <vsa_acid>
0

>  <vsa_base>
0

>  <vsa_don>
0

>  <vsa_hyd>
245.83466

>  <vsa_other>
0

>  <vsa_pol>
0

>  <Weight>
261.36798

>  <weinerPath>
715

>  <weinerPol>
34

>  <zagreb>
112

$$$$