Clc1cc2NC(NS(=O)(=O)c2cc1S(=O)(=O)N)Cc1ccc(F)cc1
  MOE2013           2D

 25 27  0  0  1  0  0  0  0  0999 V2000
    0.0000    0.0000    0.0000 Cl  0  0  0  0  0  0  0  0  0  0  0  0
    1.2980    0.7520    0.0000 C   0  0  0  0  0  0  0  0  0  0  0  0
    2.5980    0.0040    0.0000 C   0  0  0  0  0  0  0  0  0  0  0  0
    3.8960    0.7570    0.0000 C   0  0  0  0  0  0  0  0  0  0  0  0
    5.1960    0.0090    0.0000 N   0  0  0  0  0  0  0  0  0  0  0  0
    6.4940    0.7610    0.0000 C   0  0  3  0  0  0  0  0  0  0  0  0
    6.4910    2.2610    0.0000 N   0  0  0  0  0  0  0  0  0  0  0  0
    5.1910    3.0090    0.0000 S   0  0  0  0  0  0  0  0  0  0  0  0
    4.4390    4.3070    0.0000 O   0  0  0  0  0  0  0  0  0  0  0  0
    5.9390    4.3090    0.0000 O   0  0  0  0  0  0  0  0  0  0  0  0
    3.8930    2.2570    0.0000 C   0  0  0  0  0  0  0  0  0  0  0  0
    2.5930    3.0040    0.0000 C   0  0  0  0  0  0  0  0  0  0  0  0
    1.2950    2.2520    0.0000 C   0  0  0  0  0  0  0  0  0  0  0  0
   -0.0050    3.0000    0.0000 S   0  0  0  0  0  0  0  0  0  0  0  0
   -0.7530    1.7000    0.0000 O   0  0  0  0  0  0  0  0  0  0  0  0
    0.7430    4.3000    0.0000 O   0  0  0  0  0  0  0  0  0  0  0  0
   -1.3050    3.7480    0.0000 N   0  0  0  0  0  0  0  0  0  0  0  0
    7.7940    0.0130    0.0000 C   0  0  0  0  0  0  0  0  0  0  0  0
    9.0920    0.7660    0.0000 C   0  0  0  0  0  0  0  0  0  0  0  0
   10.3920    0.0180    0.0000 C   0  0  0  0  0  0  0  0  0  0  0  0
   11.6900    0.7700    0.0000 C   0  0  0  0  0  0  0  0  0  0  0  0
   11.6870    2.2700    0.0000 C   0  0  0  0  0  0  0  0  0  0  0  0
   12.9850    3.0220    0.0000 F   0  0  0  0  0  0  0  0  0  0  0  0
   10.3870    3.0180    0.0000 C   0  0  0  0  0  0  0  0  0  0  0  0
    9.0890    2.2660    0.0000 C   0  0  0  0  0  0  0  0  0  0  0  0
  1  2  1  0  0  0  0
  2  3  1  0  0  0  0
  2 13  2  0  0  0  0
  3  4  2  0  0  0  0
  4  5  1  0  0  0  0
  4 11  1  0  0  0  0
  5  6  1  0  0  0  0
  6  7  1  0  0  0  0
  6 18  1  0  0  0  0
  7  8  1  0  0  0  0
  8  9  2  0  0  0  0
  8 10  2  0  0  0  0
  8 11  1  0  0  0  0
 11 12  2  0  0  0  0
 12 13  1  0  0  0  0
 13 14  1  0  0  0  0
 14 15  2  0  0  0  0
 14 16  2  0  0  0  0
 14 17  1  0  0  0  0
 18 19  1  0  0  0  0
 19 20  1  0  0  0  0
 19 25  2  0  0  0  0
 20 21  2  0  0  0  0
 21 22  1  0  0  0  0
 22 23  1  0  0  0  0
 22 24  2  0  0  0  0
 24 25  1  0  0  0  0
M  END
>  <Index>
1684

>  <ID>
HT1589

>  <class>
1

>  <apol>
48.35331

>  <ast_fraglike>
0

>  <ast_fraglike_ext>
0

>  <ast_violation>
2

>  <ast_violation_ext>
3

>  <a_acc>
4

>  <a_acid>
0

>  <a_aro>
12

>  <a_base>
0

>  <a_count>
38

>  <a_don>
3

>  <a_donacc>
7

>  <a_heavy>
25

>  <a_hyd>
15

>  <a_IC>
83.257675

>  <a_ICM>
2.1909914

>  <a_nB>
0

>  <a_nBr>
0

>  <a_nC>
14

>  <a_nCl>
1

>  <a_nF>
1

>  <a_nH>
13

>  <a_nI>
0

>  <a_nN>
3

>  <a_nO>
4

>  <a_nP>
0

>  <a_nS>
2

>  <balabanJ>
1.6491296

>  <BCUT_PEOE_0>
-2.6315095

>  <BCUT_PEOE_1>
-0.62500554

>  <BCUT_PEOE_2>
0.64763528

>  <BCUT_PEOE_3>
2.6019728

>  <BCUT_SLOGP_0>
-2.7915838

>  <BCUT_SLOGP_1>
-0.51324147

>  <BCUT_SLOGP_2>
0.79327476

>  <BCUT_SLOGP_3>
2.5385437

>  <BCUT_SMR_0>
-2.3103085

>  <BCUT_SMR_1>
-0.46060795

>  <BCUT_SMR_2>
0.80888271

>  <BCUT_SMR_3>
2.9219427

>  <bpol>
29.446692

>  <b_1rotN>
3

>  <b_1rotR>
0.11111111

>  <b_ar>
12

>  <b_count>
40

>  <b_double>
0

>  <b_heavy>
27

>  <b_max1len>
3

>  <b_rotN>
3

>  <b_rotR>
0.11111111

>  <b_single>
28

>  <b_triple>
0

>  <chi0>
18.405413

>  <chi0v>
14.92025

>  <chi0v_C>
7.7485585

>  <chi0_C>
8.9911995

>  <chi1>
11.559499

>  <chi1v>
10.365373

>  <chi1v_C>
4.2378693

>  <chi1_C>
5.7491498

>  <chiral>
1

>  <chiral_u>
1

>  <density>
0.96071643

>  <diameter>
13

>  <FCharge>
0

>  <GCUT_PEOE_0>
-0.88745886

>  <GCUT_PEOE_1>
-0.41345963

>  <GCUT_PEOE_2>
0.066475466

>  <GCUT_PEOE_3>
2.6371758

>  <GCUT_SLOGP_0>
-1.3482859

>  <GCUT_SLOGP_1>
-0.43853506

>  <GCUT_SLOGP_2>
0.18670174

>  <GCUT_SLOGP_3>
2.654424

>  <GCUT_SMR_0>
-0.50189227

>  <GCUT_SMR_1>
-0.18503991

>  <GCUT_SMR_2>
0.18180041

>  <GCUT_SMR_3>
2.9190819

>  <Kier1>
19.753086

>  <Kier2>
7.197279

>  <Kier3>
4.4659748

>  <KierA1>
18.95302

>  <KierA2>
6.8934407

>  <KierA3>
4.2717304

>  <KierFlex>
5.2260609

>  <lip_acc>
7

>  <lip_don>
4

>  <lip_druglike>
1

>  <lip_violation>
0

>  <logP(o/w)>
1.613

>  <logS>
-4.13414

>  <mr>
9.3058214

>  <mutagenic>
0

>  <nmol>
1

>  <opr_brigid>
17

>  <opr_leadlike>
1

>  <opr_nring>
3

>  <opr_nrot>
3

>  <opr_violation>
0

>  <PC+>
0

>  <PC->
0

>  <PEOE_PC+>
1.9614941

>  <PEOE_PC->
-1.9614941

>  <PEOE_RPC+>
0.15791446

>  <PEOE_RPC->
0.19521667

>  <PEOE_VSA+0>
54.476315

>  <PEOE_VSA+1>
34.21133

>  <PEOE_VSA+2>
35.901104

>  <PEOE_VSA+3>
0

>  <PEOE_VSA+4>
0

>  <PEOE_VSA+5>
0

>  <PEOE_VSA+6>
8.3692026

>  <PEOE_VSA-0>
56.293579

>  <PEOE_VSA-1>
54.091755

>  <PEOE_VSA-2>
34.546043

>  <PEOE_VSA-3>
9.0437498

>  <PEOE_VSA-4>
43.925159

>  <PEOE_VSA-5>
0

>  <PEOE_VSA-6>
0.13689101

>  <PEOE_VSA_FHYD>
0.84159511

>  <PEOE_VSA_FNEG>
0.59830844

>  <PEOE_VSA_FPNEG>
0.13311994

>  <PEOE_VSA_FPOL>
0.1584049

>  <PEOE_VSA_FPOS>
0.40169156

>  <PEOE_VSA_FPPOS>
0.025284972

>  <PEOE_VSA_HYD>
278.56387

>  <PEOE_VSA_NEG>
198.03717

>  <PEOE_VSA_PNEG>
44.06205

>  <PEOE_VSA_POL>
52.431252

>  <PEOE_VSA_POS>
132.95795

>  <PEOE_VSA_PPOS>
8.3692026

>  <petitjean>
0.46153846

>  <petitjeanSC>
0.85714287

>  <Q_PC+>
0

>  <Q_PC->
0

>  <Q_RPC+>
0

>  <Q_RPC->
0

>  <Q_VSA_FHYD>
1

>  <Q_VSA_FNEG>
0

>  <Q_VSA_FPNEG>
0

>  <Q_VSA_FPOL>
0

>  <Q_VSA_FPOS>
1

>  <Q_VSA_FPPOS>
0

>  <Q_VSA_HYD>
330.99512

>  <Q_VSA_NEG>
0

>  <Q_VSA_PNEG>
0

>  <Q_VSA_POL>
0

>  <Q_VSA_POS>
330.99512

>  <Q_VSA_PPOS>
0

>  <radius>
7

>  <reactive>
0

>  <rings>
3

>  <RPC+>
0

>  <RPC->
0

>  <rsynth>
1

>  <SlogP>
1.39907

>  <SlogP_VSA0>
47.69643

>  <SlogP_VSA1>
114.35413

>  <SlogP_VSA2>
25.955645

>  <SlogP_VSA3>
0

>  <SlogP_VSA4>
3.185575

>  <SlogP_VSA5>
21.969873

>  <SlogP_VSA6>
3.5006065

>  <SlogP_VSA7>
105.85911

>  <SlogP_VSA8>
0

>  <SlogP_VSA9>
56.865505

>  <SMR>
9.0661402

>  <SMR_VSA0>
96.343376

>  <SMR_VSA1>
14.960114

>  <SMR_VSA2>
28.627483

>  <SMR_VSA3>
10.239323

>  <SMR_VSA4>
52.058933

>  <SMR_VSA5>
124.72751

>  <SMR_VSA6>
0

>  <SMR_VSA7>
52.43013

>  <TPSA>
118.36

>  <VAdjEq>
0.42433795

>  <VAdjMa>
5.7548876

>  <VDistEq>
3.4186003

>  <VDistMa>
8.9828691

>  <vdw_area>
330.99512

>  <vdw_vol>
422.45349

>  <vsa_acc>
64.033043

>  <vsa_acid>
0

>  <vsa_base>
0

>  <vsa_don>
33.892902

>  <vsa_hyd>
182.96793

>  <vsa_other>
31.401779

>  <vsa_pol>
97.925949

>  <Weight>
405.858

>  <weinerPath>
1502

>  <weinerPol>
42

>  <zagreb>
138

$$$$