Fc1ccc(cc1)-c1n(CC[C@@H](O)C[C@H](O)CC(O)=O)c(C(C)C)c(C(=O)Nc2ccccc2)c1-c1ccccc1
  MOE2013           2D

 41 44  0  0  1  0  0  0  0  0999 V2000
    0.0000    0.0000    0.0000 F   0  0  0  0  0  0  0  0  0  0  0  0
   -0.4150    1.4410    0.0000 C   0  0  0  0  0  0  0  0  0  0  0  0
    0.6260    2.5220    0.0000 C   0  0  0  0  0  0  0  0  0  0  0  0
    0.2110    3.9630    0.0000 C   0  0  0  0  0  0  0  0  0  0  0  0
   -1.2450    4.3240    0.0000 C   0  0  0  0  0  0  0  0  0  0  0  0
   -2.2860    3.2440    0.0000 C   0  0  0  0  0  0  0  0  0  0  0  0
   -1.8710    1.8030    0.0000 C   0  0  0  0  0  0  0  0  0  0  0  0
   -1.6600    5.7660    0.0000 C   0  0  0  0  0  0  0  0  0  0  0  0
   -0.7370    6.9490    0.0000 N   0  0  0  0  0  0  0  0  0  0  0  0
    0.7620    6.8980    0.0000 C   0  0  0  0  0  0  0  0  0  0  0  0
    1.5550    8.1710    0.0000 C   0  0  0  0  0  0  0  0  0  0  0  0
    3.0550    8.1200    0.0000 C   0  0  1  0  0  0  0  0  0  0  0  0
    3.7600    6.7960    0.0000 O   0  0  0  0  0  0  0  0  0  0  0  0
    3.8480    9.3930    0.0000 C   0  0  0  0  0  0  0  0  0  0  0  0
    5.3470    9.3420    0.0000 C   0  0  2  0  0  0  0  0  0  0  0  0
    6.0530    8.0180    0.0000 O   0  0  0  0  0  0  0  0  0  0  0  0
    6.1410   10.6150    0.0000 C   0  0  0  0  0  0  0  0  0  0  0  0
    7.6400   10.5640    0.0000 C   0  0  0  0  0  0  0  0  0  0  0  0
    8.4340   11.8370    0.0000 O   0  0  0  0  0  0  0  0  0  0  0  0
    8.3460    9.2400    0.0000 O   0  0  0  0  0  0  0  0  0  0  0  0
   -1.5770    8.1920    0.0000 C   0  0  0  0  0  0  0  0  0  0  0  0
   -1.0660    9.6020    0.0000 C   0  0  0  0  0  0  0  0  0  0  0  0
   -2.0310   10.7500    0.0000 C   0  0  0  0  0  0  0  0  0  0  0  0
    0.4110    9.8640    0.0000 C   0  0  0  0  0  0  0  0  0  0  0  0
   -3.0190    7.7770    0.0000 C   0  0  0  0  0  0  0  0  0  0  0  0
   -4.2020    8.6990    0.0000 C   0  0  0  0  0  0  0  0  0  0  0  0
   -5.5920    8.1360    0.0000 O   0  0  0  0  0  0  0  0  0  0  0  0
   -3.9950   10.1850    0.0000 N   0  0  0  0  0  0  0  0  0  0  0  0
   -5.1770   11.1070    0.0000 C   0  0  0  0  0  0  0  0  0  0  0  0
   -4.9700   12.5920    0.0000 C   0  0  0  0  0  0  0  0  0  0  0  0
   -6.1530   13.5150    0.0000 C   0  0  0  0  0  0  0  0  0  0  0  0
   -7.5430   12.9510    0.0000 C   0  0  0  0  0  0  0  0  0  0  0  0
   -7.7510   11.4660    0.0000 C   0  0  0  0  0  0  0  0  0  0  0  0
   -6.5680   10.5440    0.0000 C   0  0  0  0  0  0  0  0  0  0  0  0
   -3.0700    6.2780    0.0000 C   0  0  0  0  0  0  0  0  0  0  0  0
   -4.3120    5.4370    0.0000 C   0  0  0  0  0  0  0  0  0  0  0  0
   -4.2060    3.9410    0.0000 C   0  0  0  0  0  0  0  0  0  0  0  0
   -5.4490    3.1010    0.0000 C   0  0  0  0  0  0  0  0  0  0  0  0
   -6.7980    3.7570    0.0000 C   0  0  0  0  0  0  0  0  0  0  0  0
   -6.9040    5.2540    0.0000 C   0  0  0  0  0  0  0  0  0  0  0  0
   -5.6610    6.0940    0.0000 C   0  0  0  0  0  0  0  0  0  0  0  0
  1  2  1  0  0  0  0
  2  3  1  0  0  0  0
  2  7  2  0  0  0  0
  3  4  2  0  0  0  0
  4  5  1  0  0  0  0
  5  6  2  0  0  0  0
  5  8  1  0  0  0  0
  6  7  1  0  0  0  0
  8  9  1  0  0  0  0
  8 35  2  0  0  0  0
  9 10  1  0  0  0  0
  9 21  1  0  0  0  0
 10 11  1  0  0  0  0
 11 12  1  0  0  0  0
 12 13  1  6  0  0  0
 12 14  1  0  0  0  0
 14 15  1  0  0  0  0
 15 16  1  1  0  0  0
 15 17  1  0  0  0  0
 17 18  1  0  0  0  0
 18 19  1  0  0  0  0
 18 20  2  0  0  0  0
 21 22  1  0  0  0  0
 21 25  2  0  0  0  0
 22 23  1  0  0  0  0
 22 24  1  0  0  0  0
 25 26  1  0  0  0  0
 25 35  1  0  0  0  0
 26 27  2  0  0  0  0
 26 28  1  0  0  0  0
 28 29  1  0  0  0  0
 29 30  1  0  0  0  0
 29 34  2  0  0  0  0
 30 31  2  0  0  0  0
 31 32  1  0  0  0  0
 32 33  2  0  0  0  0
 33 34  1  0  0  0  0
 35 36  1  0  0  0  0
 36 37  1  0  0  0  0
 36 41  2  0  0  0  0
 37 38  2  0  0  0  0
 38 39  1  0  0  0  0
 39 40  2  0  0  0  0
 40 41  1  0  0  0  0
M  END
>  <Index>
1441

>  <ID>
HT0194

>  <class>
1

>  <apol>
88.184753

>  <ast_fraglike>
0

>  <ast_fraglike_ext>
0

>  <ast_violation>
4

>  <ast_violation_ext>
6

>  <a_acc>
5

>  <a_acid>
0

>  <a_aro>
23

>  <a_base>
0

>  <a_count>
76

>  <a_don>
5

>  <a_donacc>
10

>  <a_heavy>
41

>  <a_hyd>
32

>  <a_IC>
115.24294

>  <a_ICM>
1.5163544

>  <a_nB>
0

>  <a_nBr>
0

>  <a_nC>
33

>  <a_nCl>
0

>  <a_nF>
1

>  <a_nH>
35

>  <a_nI>
0

>  <a_nN>
2

>  <a_nO>
5

>  <a_nP>
0

>  <a_nS>
0

>  <balabanJ>
1.6197494

>  <BCUT_PEOE_0>
-2.6582181

>  <BCUT_PEOE_1>
-0.61444575

>  <BCUT_PEOE_2>
0.64786941

>  <BCUT_PEOE_3>
2.6694272

>  <BCUT_SLOGP_0>
-2.6799793

>  <BCUT_SLOGP_1>
-0.53807992

>  <BCUT_SLOGP_2>
0.76383853

>  <BCUT_SLOGP_3>
2.6989877

>  <BCUT_SMR_0>
-2.4296949

>  <BCUT_SMR_1>
-0.43970054

>  <BCUT_SMR_2>
0.81012928

>  <BCUT_SMR_3>
2.8949981

>  <bpol>
44.021244

>  <b_1rotN>
12

>  <b_1rotR>
0.27272728

>  <b_ar>
23

>  <b_count>
79

>  <b_double>
2

>  <b_heavy>
44

>  <b_max1len>
7

>  <b_rotN>
13

>  <b_rotR>
0.29545453

>  <b_single>
54

>  <b_triple>
0

>  <chi0>
29.517933

>  <chi0v>
23.126698

>  <chi0v_C>
19.643381

>  <chi0_C>
22.233475

>  <chi1>
19.650774

>  <chi1v>
13.673333

>  <chi1v_C>
11.072657

>  <chi1_C>
14.295261

>  <chiral>
2

>  <chiral_u>
0

>  <density>
0.73044056

>  <diameter>
16

>  <FCharge>
0

>  <GCUT_PEOE_0>
-0.86431527

>  <GCUT_PEOE_1>
-0.38880157

>  <GCUT_PEOE_2>
0.081467248

>  <GCUT_PEOE_3>
3.0258491

>  <GCUT_SLOGP_0>
-0.99314773

>  <GCUT_SLOGP_1>
-0.30351847

>  <GCUT_SLOGP_2>
0.16445385

>  <GCUT_SLOGP_3>
3.1356325

>  <GCUT_SMR_0>
-0.52945793

>  <GCUT_SMR_1>
-0.21605732

>  <GCUT_SMR_2>
0.19305076

>  <GCUT_SMR_3>
3.3064413

>  <Kier1>
33.884296

>  <Kier2>
16.350443

>  <Kier3>
9.2549267

>  <KierA1>
25.058489

>  <KierA2>
11.994308

>  <KierA3>
6.75002

>  <KierFlex>
7.3307133

>  <lip_acc>
7

>  <lip_don>
4

>  <lip_druglike>
0

>  <lip_violation>
2

>  <logP(o/w)>
6.6469998

>  <logS>
-7.4017901

>  <mr>
15.810797

>  <mutagenic>
0

>  <nmol>
1

>  <opr_brigid>
23

>  <opr_leadlike>
0

>  <opr_nring>
4

>  <opr_nrot>
12

>  <opr_violation>
3

>  <PC+>
0

>  <PC->
0

>  <PEOE_PC+>
3.3621049

>  <PEOE_PC->
-3.3621049

>  <PEOE_RPC+>
0.07794632

>  <PEOE_RPC->
0.11648684

>  <PEOE_VSA+0>
92.780754

>  <PEOE_VSA+1>
95.665436

>  <PEOE_VSA+2>
9.0208454

>  <PEOE_VSA+3>
8.6190128

>  <PEOE_VSA+4>
30.972517

>  <PEOE_VSA+5>
27.65803

>  <PEOE_VSA+6>
0

>  <PEOE_VSA-0>
95.349129

>  <PEOE_VSA-1>
135.53459

>  <PEOE_VSA-2>
0

>  <PEOE_VSA-3>
0

>  <PEOE_VSA-4>
11.908636

>  <PEOE_VSA-5>
27.133842

>  <PEOE_VSA-6>
23.439512

>  <PEOE_VSA_FHYD>
0.78298444

>  <PEOE_VSA_FNEG>
0.52566743

>  <PEOE_VSA_FPNEG>
0.11195838

>  <PEOE_VSA_FPOL>
0.21701555

>  <PEOE_VSA_FPOS>
0.47433254

>  <PEOE_VSA_FPPOS>
0.10505717

>  <PEOE_VSA_HYD>
436.96976

>  <PEOE_VSA_NEG>
293.36569

>  <PEOE_VSA_PNEG>
62.481991

>  <PEOE_VSA_POL>
121.11253

>  <PEOE_VSA_POS>
264.71661

>  <PEOE_VSA_PPOS>
58.630547

>  <petitjean>
0.5

>  <petitjeanSC>
1

>  <Q_PC+>
0

>  <Q_PC->
0

>  <Q_RPC+>
0

>  <Q_RPC->
0

>  <Q_VSA_FHYD>
1

>  <Q_VSA_FNEG>
0

>  <Q_VSA_FPNEG>
0

>  <Q_VSA_FPOL>
0

>  <Q_VSA_FPOS>
1

>  <Q_VSA_FPPOS>
0

>  <Q_VSA_HYD>
558.08234

>  <Q_VSA_NEG>
0

>  <Q_VSA_PNEG>
0

>  <Q_VSA_POL>
0

>  <Q_VSA_POS>
558.08234

>  <Q_VSA_PPOS>
0

>  <radius>
8

>  <reactive>
0

>  <rings>
4

>  <RPC+>
0

>  <RPC->
0

>  <rsynth>
1

>  <SlogP>
6.5799999

>  <SlogP_VSA0>
50.770454

>  <SlogP_VSA1>
32.914093

>  <SlogP_VSA2>
45.920532

>  <SlogP_VSA3>
25.385227

>  <SlogP_VSA4>
29.804539

>  <SlogP_VSA5>
0

>  <SlogP_VSA6>
4.4107962

>  <SlogP_VSA7>
259.31805

>  <SlogP_VSA8>
56.605217

>  <SlogP_VSA9>
102.80847

>  <SMR>
15.74516

>  <SMR_VSA0>
47.724434

>  <SMR_VSA1>
67.629662

>  <SMR_VSA2>
34.506245

>  <SMR_VSA3>
23.290417

>  <SMR_VSA4>
33.080971

>  <SMR_VSA5>
322.04938

>  <SMR_VSA6>
13.004248

>  <SMR_VSA7>
66.652031

>  <TPSA>
111.79

>  <VAdjEq>
0.29629606

>  <VAdjMa>
6.4594316

>  <VDistEq>
3.703932

>  <VDistMa>
10.481159

>  <vdw_area>
558.08234

>  <vdw_vol>
764.81244

>  <vsa_acc>
13.566921

>  <vsa_acid>
0

>  <vsa_base>
0

>  <vsa_don>
5.6825762

>  <vsa_hyd>
416.84869

>  <vsa_other>
27.65803

>  <vsa_pol>
73.517181

>  <Weight>
558.64996

>  <weinerPath>
5382

>  <weinerPol>
65

>  <zagreb>
210

$$$$