Fc1ccc(cc1)-c1c(COC)c(nc(C(C)C)c1C=C[C@@H](O)C[C@@H](O)CC(O)=O)C(C)C
  MOE2013           2D

 33 34  0  0  1  0  0  0  0  0999 V2000
    0.0000    0.0000    0.0000 F   0  0  0  0  0  0  0  0  0  0  0  0
   -0.7460    1.3020    0.0000 C   0  0  0  0  0  0  0  0  0  0  0  0
    0.0090    2.5980    0.0000 C   0  0  0  0  0  0  0  0  0  0  0  0
   -0.7370    3.9000    0.0000 C   0  0  0  0  0  0  0  0  0  0  0  0
   -2.2370    3.9050    0.0000 C   0  0  0  0  0  0  0  0  0  0  0  0
   -2.9910    2.6080    0.0000 C   0  0  0  0  0  0  0  0  0  0  0  0
   -2.2460    1.3070    0.0000 C   0  0  0  0  0  0  0  0  0  0  0  0
   -2.9830    5.2060    0.0000 C   0  0  0  0  0  0  0  0  0  0  0  0
   -4.4830    5.2110    0.0000 C   0  0  0  0  0  0  0  0  0  0  0  0
   -5.2370    3.9150    0.0000 C   0  0  0  0  0  0  0  0  0  0  0  0
   -6.7370    3.9200    0.0000 O   0  0  0  0  0  0  0  0  0  0  0  0
   -7.4910    2.6230    0.0000 C   0  0  0  0  0  0  0  0  0  0  0  0
   -5.2280    6.5130    0.0000 C   0  0  0  0  0  0  0  0  0  0  0  0
   -4.4740    7.8090    0.0000 N   0  0  0  0  0  0  0  0  0  0  0  0
   -2.9740    7.8040    0.0000 C   0  0  0  0  0  0  0  0  0  0  0  0
   -2.2190    9.1010    0.0000 C   0  0  0  0  0  0  0  0  0  0  0  0
   -0.7190    9.0960    0.0000 C   0  0  0  0  0  0  0  0  0  0  0  0
   -2.9650   10.4020    0.0000 C   0  0  0  0  0  0  0  0  0  0  0  0
   -2.2280    6.5030    0.0000 C   0  0  0  0  0  0  0  0  0  0  0  0
   -0.7280    6.4980    0.0000 C   0  0  0  0  0  0  0  0  0  0  0  0
    0.0260    7.7940    0.0000 C   0  0  0  0  0  0  0  0  0  0  0  0
    1.5260    7.7890    0.0000 C   0  0  1  0  0  0  0  0  0  0  0  0
    2.2720    6.4880    0.0000 O   0  0  0  0  0  0  0  0  0  0  0  0
    2.2800    9.0860    0.0000 C   0  0  0  0  0  0  0  0  0  0  0  0
    3.7800    9.0810    0.0000 C   0  0  1  0  0  0  0  0  0  0  0  0
    4.5260    7.7790    0.0000 O   0  0  0  0  0  0  0  0  0  0  0  0
    4.5350   10.3770    0.0000 C   0  0  0  0  0  0  0  0  0  0  0  0
    6.0350   10.3720    0.0000 C   0  0  0  0  0  0  0  0  0  0  0  0
    6.7890   11.6690    0.0000 O   0  0  0  0  0  0  0  0  0  0  0  0
    6.7800    9.0710    0.0000 O   0  0  0  0  0  0  0  0  0  0  0  0
   -6.7280    6.5180    0.0000 C   0  0  0  0  0  0  0  0  0  0  0  0
   -7.4740    7.8190    0.0000 C   0  0  0  0  0  0  0  0  0  0  0  0
   -7.4830    5.2210    0.0000 C   0  0  0  0  0  0  0  0  0  0  0  0
  1  2  1  0  0  0  0
  2  3  1  0  0  0  0
  2  7  2  0  0  0  0
  3  4  2  0  0  0  0
  4  5  1  0  0  0  0
  5  6  2  0  0  0  0
  5  8  1  0  0  0  0
  6  7  1  0  0  0  0
  8  9  1  0  0  0  0
  8 19  2  0  0  0  0
  9 10  1  0  0  0  0
  9 13  2  0  0  0  0
 10 11  1  0  0  0  0
 11 12  1  0  0  0  0
 13 14  1  0  0  0  0
 13 31  1  0  0  0  0
 14 15  2  0  0  0  0
 15 16  1  0  0  0  0
 15 19  1  0  0  0  0
 16 17  1  0  0  0  0
 16 18  1  0  0  0  0
 19 20  1  0  0  0  0
 20 21  2  3  0  0  0
 21 22  1  0  0  0  0
 22 23  1  6  0  0  0
 22 24  1  0  0  0  0
 24 25  1  0  0  0  0
 25 26  1  6  0  0  0
 25 27  1  0  0  0  0
 27 28  1  0  0  0  0
 28 29  1  0  0  0  0
 28 30  2  0  0  0  0
 31 32  1  0  0  0  0
 31 33  1  0  0  0  0
M  END
>  <Index>
1485

>  <ID>
HT0436

>  <class>
1

>  <apol>
74.097961

>  <ast_fraglike>
0

>  <ast_fraglike_ext>
0

>  <ast_violation>
4

>  <ast_violation_ext>
6

>  <a_acc>
6

>  <a_acid>
0

>  <a_aro>
12

>  <a_base>
0

>  <a_count>
67

>  <a_don>
4

>  <a_donacc>
10

>  <a_heavy>
33

>  <a_hyd>
26

>  <a_IC>
99.633163

>  <a_ICM>
1.4870622

>  <a_nB>
0

>  <a_nBr>
0

>  <a_nC>
26

>  <a_nCl>
0

>  <a_nF>
1

>  <a_nH>
34

>  <a_nI>
0

>  <a_nN>
1

>  <a_nO>
5

>  <a_nP>
0

>  <a_nS>
0

>  <balabanJ>
2.2465756

>  <BCUT_PEOE_0>
-2.5867848

>  <BCUT_PEOE_1>
-0.54580325

>  <BCUT_PEOE_2>
0.54198426

>  <BCUT_PEOE_3>
2.6174717

>  <BCUT_SLOGP_0>
-2.6402047

>  <BCUT_SLOGP_1>
-0.46805957

>  <BCUT_SLOGP_2>
0.52524555

>  <BCUT_SLOGP_3>
2.6735113

>  <BCUT_SMR_0>
-2.3631308

>  <BCUT_SMR_1>
-0.36274165

>  <BCUT_SMR_2>
0.69930518

>  <BCUT_SMR_3>
2.8359814

>  <bpol>
42.566036

>  <b_1rotN>
11

>  <b_1rotR>
0.32352942

>  <b_ar>
12

>  <b_count>
68

>  <b_double>
2

>  <b_heavy>
34

>  <b_max1len>
6

>  <b_rotN>
11

>  <b_rotR>
0.32352942

>  <b_single>
54

>  <b_triple>
0

>  <chi0>
24.706377

>  <chi0v>
19.878138

>  <chi0v_C>
16.894823

>  <chi0_C>
18.292164

>  <chi1>
15.54382

>  <chi1v>
11.12256

>  <chi1v_C>
8.8453121

>  <chi1_C>
10.633466

>  <chiral>
2

>  <chiral_u>
0

>  <density>
0.72274214

>  <diameter>
14

>  <FCharge>
0

>  <GCUT_PEOE_0>
-0.81009001

>  <GCUT_PEOE_1>
-0.38797799

>  <GCUT_PEOE_2>
0.063568749

>  <GCUT_PEOE_3>
2.9104841

>  <GCUT_SLOGP_0>
-0.87814718

>  <GCUT_SLOGP_1>
-0.29520223

>  <GCUT_SLOGP_2>
0.061551418

>  <GCUT_SLOGP_3>
3.0284929

>  <GCUT_SMR_0>
-0.52513021

>  <GCUT_SMR_1>
-0.21489383

>  <GCUT_SMR_2>
0.15806137

>  <GCUT_SMR_3>
3.1810222

>  <Kier1>
29.231834

>  <Kier2>
13.921231

>  <Kier3>
8.5612364

>  <KierA1>
23.616259

>  <KierA2>
11.167686

>  <KierA3>
6.8326178

>  <KierFlex>
7.9920897

>  <lip_acc>
6

>  <lip_don>
3

>  <lip_druglike>
1

>  <lip_violation>
1

>  <logP(o/w)>
4.7820001

>  <logS>
-4.55199

>  <mr>
12.764337

>  <mutagenic>
0

>  <nmol>
1

>  <opr_brigid>
13

>  <opr_leadlike>
0

>  <opr_nring>
2

>  <opr_nrot>
11

>  <opr_violation>
3

>  <PC+>
0

>  <PC->
0

>  <PEOE_PC+>
2.7324407

>  <PEOE_PC->
-2.7324407

>  <PEOE_RPC+>
0.095908336

>  <PEOE_RPC->
0.14316511

>  <PEOE_VSA+0>
114.893

>  <PEOE_VSA+1>
102.31158

>  <PEOE_VSA+2>
9.0208454

>  <PEOE_VSA+3>
0

>  <PEOE_VSA+4>
30.972517

>  <PEOE_VSA+5>
14.708499

>  <PEOE_VSA+6>
0

>  <PEOE_VSA-0>
28.926888

>  <PEOE_VSA-1>
124.01032

>  <PEOE_VSA-2>
0

>  <PEOE_VSA-3>
0

>  <PEOE_VSA-4>
11.908636

>  <PEOE_VSA-5>
19.249496

>  <PEOE_VSA-6>
25.806377

>  <PEOE_VSA_FHYD>
0.78695768

>  <PEOE_VSA_FNEG>
0.43565413

>  <PEOE_VSA_FPNEG>
0.11823069

>  <PEOE_VSA_FPOL>
0.21304232

>  <PEOE_VSA_FPOS>
0.56434584

>  <PEOE_VSA_FPPOS>
0.094811626

>  <PEOE_VSA_HYD>
379.16263

>  <PEOE_VSA_NEG>
209.90172

>  <PEOE_VSA_PNEG>
56.964508

>  <PEOE_VSA_POL>
102.64552

>  <PEOE_VSA_POS>
271.90643

>  <PEOE_VSA_PPOS>
45.681019

>  <petitjean>
0.5

>  <petitjeanSC>
1

>  <Q_PC+>
0

>  <Q_PC->
0

>  <Q_RPC+>
0

>  <Q_RPC->
0

>  <Q_VSA_FHYD>
1

>  <Q_VSA_FNEG>
0

>  <Q_VSA_FPNEG>
0

>  <Q_VSA_FPOL>
0

>  <Q_VSA_FPOS>
1

>  <Q_VSA_FPPOS>
0

>  <Q_VSA_HYD>
481.80817

>  <Q_VSA_NEG>
0

>  <Q_VSA_PNEG>
0

>  <Q_VSA_POL>
0

>  <Q_VSA_POS>
481.80817

>  <Q_VSA_PPOS>
0

>  <radius>
7

>  <reactive>
0

>  <rings>
2

>  <RPC+>
0

>  <RPC->
0

>  <rsynth>
1

>  <SlogP>
5.1471

>  <SlogP_VSA0>
50.770454

>  <SlogP_VSA1>
24.530994

>  <SlogP_VSA2>
56.920422

>  <SlogP_VSA3>
25.385227

>  <SlogP_VSA4>
11.884645

>  <SlogP_VSA5>
35.383869

>  <SlogP_VSA6>
8.8215923

>  <SlogP_VSA7>
94.587074

>  <SlogP_VSA8>
55.379993

>  <SlogP_VSA9>
169.19043

>  <SMR>
12.66444

>  <SMR_VSA0>
34.862103

>  <SMR_VSA1>
82.516098

>  <SMR_VSA2>
34.506245

>  <SMR_VSA3>
33.643536

>  <SMR_VSA4>
6.37115

>  <SMR_VSA5>
146.879

>  <SMR_VSA6>
25.388649

>  <SMR_VSA7>
168.68793

>  <TPSA>
99.879997

>  <VAdjEq>
0.33706582

>  <VAdjMa>
6.0874629

>  <VDistEq>
3.575541

>  <VDistMa>
9.8361368

>  <vdw_area>
481.80817

>  <vdw_vol>
635.85333

>  <vsa_acc>
8.1863317

>  <vsa_acid>
0

>  <vsa_base>
0

>  <vsa_don>
0

>  <vsa_hyd>
366.31552

>  <vsa_other>
14.708499

>  <vsa_pol>
62.454014

>  <Weight>
459.55798

>  <weinerPath>
3124

>  <weinerPol>
52

>  <zagreb>
162

$$$$