OC(=O)C(C)c1cc(ccc1)C(=O)c1ccccc1
  MOE2013           2D

 19 20  0  0  1  0  0  0  0  0999 V2000
    0.0000    0.0000    0.0000 O   0  0  0  0  0  0  0  0  0  0  0  0
   -1.2970   -0.7530    0.0000 C   0  0  0  0  0  0  0  0  0  0  0  0
   -1.2930   -2.2530    0.0000 O   0  0  0  0  0  0  0  0  0  0  0  0
   -2.5980   -0.0070    0.0000 C   0  0  3  0  0  0  0  0  0  0  0  0
   -2.6020    1.4930    0.0000 C   0  0  0  0  0  0  0  0  0  0  0  0
   -3.8950   -0.7600    0.0000 C   0  0  0  0  0  0  0  0  0  0  0  0
   -5.1960   -0.0140    0.0000 C   0  0  0  0  0  0  0  0  0  0  0  0
   -6.4930   -0.7670    0.0000 C   0  0  0  0  0  0  0  0  0  0  0  0
   -6.4890   -2.2670    0.0000 C   0  0  0  0  0  0  0  0  0  0  0  0
   -5.1880   -3.0140    0.0000 C   0  0  0  0  0  0  0  0  0  0  0  0
   -3.8910   -2.2600    0.0000 C   0  0  0  0  0  0  0  0  0  0  0  0
   -7.7940   -0.0210    0.0000 C   0  0  0  0  0  0  0  0  0  0  0  0
   -7.7980    1.4790    0.0000 O   0  0  0  0  0  0  0  0  0  0  0  0
   -9.0910   -0.7740    0.0000 C   0  0  0  0  0  0  0  0  0  0  0  0
   -9.0870   -2.2740    0.0000 C   0  0  0  0  0  0  0  0  0  0  0  0
  -10.3840   -3.0280    0.0000 C   0  0  0  0  0  0  0  0  0  0  0  0
  -11.6850   -2.2810    0.0000 C   0  0  0  0  0  0  0  0  0  0  0  0
  -11.6890   -0.7810    0.0000 C   0  0  0  0  0  0  0  0  0  0  0  0
  -10.3920   -0.0280    0.0000 C   0  0  0  0  0  0  0  0  0  0  0  0
  1  2  1  0  0  0  0
  2  3  2  0  0  0  0
  2  4  1  0  0  0  0
  4  5  1  0  0  0  0
  4  6  1  0  0  0  0
  6  7  1  0  0  0  0
  6 11  2  0  0  0  0
  7  8  2  0  0  0  0
  8  9  1  0  0  0  0
  8 12  1  0  0  0  0
  9 10  2  0  0  0  0
 10 11  1  0  0  0  0
 12 13  2  0  0  0  0
 12 14  1  0  0  0  0
 14 15  1  0  0  0  0
 14 19  2  0  0  0  0
 15 16  2  0  0  0  0
 16 17  1  0  0  0  0
 17 18  2  0  0  0  0
 18 19  1  0  0  0  0
M  END
>  <Index>
1614

>  <ID>
HT1160

>  <class>
1

>  <apol>
39.9011

>  <ast_fraglike>
0

>  <ast_fraglike_ext>
0

>  <ast_violation>
1

>  <ast_violation_ext>
2

>  <a_acc>
3

>  <a_acid>
0

>  <a_aro>
12

>  <a_base>
0

>  <a_count>
33

>  <a_don>
2

>  <a_donacc>
5

>  <a_heavy>
19

>  <a_hyd>
14

>  <a_IC>
44.40715

>  <a_ICM>
1.3456712

>  <a_nB>
0

>  <a_nBr>
0

>  <a_nC>
16

>  <a_nCl>
0

>  <a_nF>
0

>  <a_nH>
14

>  <a_nI>
0

>  <a_nN>
0

>  <a_nO>
3

>  <a_nP>
0

>  <a_nS>
0

>  <balabanJ>
1.8972659

>  <BCUT_PEOE_0>
-2.4249463

>  <BCUT_PEOE_1>
-0.60612863

>  <BCUT_PEOE_2>
0.65981942

>  <BCUT_PEOE_3>
2.4727926

>  <BCUT_SLOGP_0>
-2.3845711

>  <BCUT_SLOGP_1>
-0.50524217

>  <BCUT_SLOGP_2>
0.76163197

>  <BCUT_SLOGP_3>
2.5369732

>  <BCUT_SMR_0>
-2.1821094

>  <BCUT_SMR_1>
-0.4625921

>  <BCUT_SMR_2>
0.80882204

>  <BCUT_SMR_3>
2.7221205

>  <bpol>
17.220898

>  <b_1rotN>
4

>  <b_1rotR>
0.2

>  <b_ar>
12

>  <b_count>
34

>  <b_double>
2

>  <b_heavy>
20

>  <b_max1len>
3

>  <b_rotN>
4

>  <b_rotR>
0.2

>  <b_single>
20

>  <b_triple>
0

>  <chi0>
13.828063

>  <chi0v>
10.537213

>  <chi0v_C>
9.2735023

>  <chi0_C>
10.828063

>  <chi1>
9.0922241

>  <chi1v>
6.0186067

>  <chi1v_C>
5.3867512

>  <chi1_C>
7.3601732

>  <chiral>
1

>  <chiral_u>
1

>  <density>
0.72149789

>  <diameter>
10

>  <FCharge>
0

>  <GCUT_PEOE_0>
-0.75086969

>  <GCUT_PEOE_1>
-0.40940154

>  <GCUT_PEOE_2>
0.073901638

>  <GCUT_PEOE_3>
2.4187403

>  <GCUT_SLOGP_0>
-0.87408149

>  <GCUT_SLOGP_1>
-0.29445753

>  <GCUT_SLOGP_2>
0.15569733

>  <GCUT_SLOGP_3>
2.5132716

>  <GCUT_SMR_0>
-0.50061882

>  <GCUT_SMR_1>
-0.22131573

>  <GCUT_SMR_2>
0.18664676

>  <GCUT_SMR_3>
2.705291

>  <Kier1>
15.39

>  <Kier2>
7.1358023

>  <Kier3>
3.9861591

>  <KierA1>
10.563126

>  <KierA2>
4.7851486

>  <KierA3>
2.6246386

>  <KierFlex>
2.6603227

>  <lip_acc>
3

>  <lip_don>
1

>  <lip_druglike>
1

>  <lip_violation>
0

>  <logP(o/w)>
3.5929999

>  <logS>
-3.69033

>  <mr>
7.40975

>  <mutagenic>
0

>  <nmol>
1

>  <opr_brigid>
12

>  <opr_leadlike>
1

>  <opr_nring>
2

>  <opr_nrot>
4

>  <opr_violation>
0

>  <PC+>
0

>  <PC->
0

>  <PEOE_PC+>
1.4678659

>  <PEOE_PC->
-1.4678659

>  <PEOE_RPC+>
0.18175751

>  <PEOE_RPC->
0.22537428

>  <PEOE_VSA+0>
21.478622

>  <PEOE_VSA+1>
38.388474

>  <PEOE_VSA+2>
0

>  <PEOE_VSA+3>
8.458519

>  <PEOE_VSA+4>
10.324173

>  <PEOE_VSA+5>
14.708499

>  <PEOE_VSA+6>
0

>  <PEOE_VSA-0>
33.211121

>  <PEOE_VSA-1>
98.03923

>  <PEOE_VSA-2>
0

>  <PEOE_VSA-3>
0

>  <PEOE_VSA-4>
0

>  <PEOE_VSA-5>
27.133842

>  <PEOE_VSA-6>
7.7675405

>  <PEOE_VSA_FHYD>
0.76904917

>  <PEOE_VSA_FNEG>
0.6402517

>  <PEOE_VSA_FPNEG>
0.13448954

>  <PEOE_VSA_FPOL>
0.23095082

>  <PEOE_VSA_FPOS>
0.3597483

>  <PEOE_VSA_FPPOS>
0.096461289

>  <PEOE_VSA_HYD>
199.57597

>  <PEOE_VSA_NEG>
166.15173

>  <PEOE_VSA_PNEG>
34.901382

>  <PEOE_VSA_POL>
59.934055

>  <PEOE_VSA_POS>
93.358292

>  <PEOE_VSA_PPOS>
25.032671

>  <petitjean>
0.5

>  <petitjeanSC>
1

>  <Q_PC+>
0

>  <Q_PC->
0

>  <Q_RPC+>
0

>  <Q_RPC->
0

>  <Q_VSA_FHYD>
1

>  <Q_VSA_FNEG>
0

>  <Q_VSA_FPNEG>
0

>  <Q_VSA_FPOL>
0

>  <Q_VSA_FPOS>
1

>  <Q_VSA_FPPOS>
0

>  <Q_VSA_HYD>
259.51001

>  <Q_VSA_NEG>
0

>  <Q_VSA_PNEG>
0

>  <Q_VSA_POL>
0

>  <Q_VSA_POS>
259.51001

>  <Q_VSA_PPOS>
0

>  <radius>
5

>  <reactive>
1

>  <rings>
2

>  <RPC+>
0

>  <RPC->
0

>  <rsynth>
1

>  <SlogP>
3.1057

>  <SlogP_VSA0>
0

>  <SlogP_VSA1>
13.433075

>  <SlogP_VSA2>
23.862217

>  <SlogP_VSA3>
25.385227

>  <SlogP_VSA4>
33.418941

>  <SlogP_VSA5>
0

>  <SlogP_VSA6>
4.4107962

>  <SlogP_VSA7>
158.78867

>  <SlogP_VSA8>
0

>  <SlogP_VSA9>
33.326015

>  <SMR>
7.2367301

>  <SMR_VSA0>
47.724434

>  <SMR_VSA1>
0

>  <SMR_VSA2>
25.385227

>  <SMR_VSA3>
13.967521

>  <SMR_VSA4>
0

>  <SMR_VSA5>
158.78867

>  <SMR_VSA6>
13.433075

>  <SMR_VSA7>
33.326015

>  <TPSA>
54.369999

>  <VAdjEq>
0.5023343

>  <VAdjMa>
5.321928

>  <VDistEq>
3.1098776

>  <VDistMa>
8.1981049

>  <vdw_area>
259.51001

>  <vdw_vol>
352.4404

>  <vsa_acc>
13.566921

>  <vsa_acid>
0

>  <vsa_base>
0

>  <vsa_don>
0

>  <vsa_hyd>
180.51906

>  <vsa_other>
23.167019

>  <vsa_pol>
40.700764

>  <Weight>
254.28499

>  <weinerPath>
724

>  <weinerPol>
28

>  <zagreb>
94

$$$$