Clc1ccc(cc1)[C@H](N1CCN(CC1)CCOCC(O)=O)c1ccccc1
  MOE2013           2D

 27 29  0  0  1  0  0  0  0  0999 V2000
    0.0000    0.0000    0.0000 Cl  0  0  0  0  0  0  0  0  0  0  0  0
    1.2970   -0.7540    0.0000 C   0  0  0  0  0  0  0  0  0  0  0  0
    1.2930   -2.2540    0.0000 C   0  0  0  0  0  0  0  0  0  0  0  0
    2.5900   -3.0070    0.0000 C   0  0  0  0  0  0  0  0  0  0  0  0
    3.8910   -2.2610    0.0000 C   0  0  0  0  0  0  0  0  0  0  0  0
    3.8950   -0.7610    0.0000 C   0  0  0  0  0  0  0  0  0  0  0  0
    2.5980   -0.0070    0.0000 C   0  0  0  0  0  0  0  0  0  0  0  0
    5.1880   -3.0140    0.0000 C   0  0  2  0  0  0  0  0  0  0  0  0
    6.4890   -2.2680    0.0000 N   0  0  0  0  0  0  0  0  0  0  0  0
    6.4930   -0.7680    0.0000 C   0  0  0  0  0  0  0  0  0  0  0  0
    7.7940   -0.0220    0.0000 C   0  0  0  0  0  0  0  0  0  0  0  0
    9.0910   -0.7750    0.0000 N   0  0  0  0  0  0  0  0  0  0  0  0
    9.0870   -2.2750    0.0000 C   0  0  0  0  0  0  0  0  0  0  0  0
    7.7860   -3.0220    0.0000 C   0  0  0  0  0  0  0  0  0  0  0  0
   10.3920   -0.0290    0.0000 C   0  0  0  0  0  0  0  0  0  0  0  0
   11.6890   -0.7830    0.0000 C   0  0  0  0  0  0  0  0  0  0  0  0
   12.9900   -0.0360    0.0000 O   0  0  0  0  0  0  0  0  0  0  0  0
   14.2870   -0.7900    0.0000 C   0  0  0  0  0  0  0  0  0  0  0  0
   15.5880   -0.0440    0.0000 C   0  0  0  0  0  0  0  0  0  0  0  0
   16.8850   -0.7970    0.0000 O   0  0  0  0  0  0  0  0  0  0  0  0
   15.5930    1.4560    0.0000 O   0  0  0  0  0  0  0  0  0  0  0  0
    5.1840   -4.5140    0.0000 C   0  0  0  0  0  0  0  0  0  0  0  0
    3.8820   -5.2610    0.0000 C   0  0  0  0  0  0  0  0  0  0  0  0
    3.8780   -6.7610    0.0000 C   0  0  0  0  0  0  0  0  0  0  0  0
    5.1750   -7.5140    0.0000 C   0  0  0  0  0  0  0  0  0  0  0  0
    6.4760   -6.7680    0.0000 C   0  0  0  0  0  0  0  0  0  0  0  0
    6.4810   -5.2680    0.0000 C   0  0  0  0  0  0  0  0  0  0  0  0
  1  2  1  0  0  0  0
  2  3  1  0  0  0  0
  2  7  2  0  0  0  0
  3  4  2  0  0  0  0
  4  5  1  0  0  0  0
  5  6  2  0  0  0  0
  6  7  1  0  0  0  0
  8  5  1  6  0  0  0
  8  9  1  0  0  0  0
  8 22  1  0  0  0  0
  9 10  1  0  0  0  0
  9 14  1  0  0  0  0
 10 11  1  0  0  0  0
 11 12  1  0  0  0  0
 12 13  1  0  0  0  0
 12 15  1  0  0  0  0
 13 14  1  0  0  0  0
 15 16  1  0  0  0  0
 16 17  1  0  0  0  0
 17 18  1  0  0  0  0
 18 19  1  0  0  0  0
 19 20  1  0  0  0  0
 19 21  2  0  0  0  0
 22 23  1  0  0  0  0
 22 27  2  0  0  0  0
 23 24  2  0  0  0  0
 24 25  1  0  0  0  0
 25 26  2  0  0  0  0
 26 27  1  0  0  0  0
M  END
>  <Index>
1486

>  <ID>
HT0439

>  <class>
1

>  <apol>
60.415825

>  <ast_fraglike>
0

>  <ast_fraglike_ext>
0

>  <ast_violation>
3

>  <ast_violation_ext>
4

>  <a_acc>
5

>  <a_acid>
0

>  <a_aro>
12

>  <a_base>
0

>  <a_count>
52

>  <a_don>
2

>  <a_donacc>
7

>  <a_heavy>
27

>  <a_hyd>
21

>  <a_IC>
81.332909

>  <a_ICM>
1.5640944

>  <a_nB>
0

>  <a_nBr>
0

>  <a_nC>
21

>  <a_nCl>
1

>  <a_nF>
0

>  <a_nH>
25

>  <a_nI>
0

>  <a_nN>
2

>  <a_nO>
3

>  <a_nP>
0

>  <a_nS>
0

>  <balabanJ>
1.4955168

>  <BCUT_PEOE_0>
-2.7865868

>  <BCUT_PEOE_1>
-0.55380625

>  <BCUT_PEOE_2>
0.58136469

>  <BCUT_PEOE_3>
2.6885023

>  <BCUT_SLOGP_0>
-2.8923323

>  <BCUT_SLOGP_1>
-0.50217956

>  <BCUT_SLOGP_2>
0.80591482

>  <BCUT_SLOGP_3>
2.6314454

>  <BCUT_SMR_0>
-2.5025194

>  <BCUT_SMR_1>
-0.38946378

>  <BCUT_SMR_2>
0.85431087

>  <BCUT_SMR_3>
2.9646428

>  <bpol>
34.584175

>  <b_1rotN>
8

>  <b_1rotR>
0.27586207

>  <b_ar>
12

>  <b_count>
54

>  <b_double>
1

>  <b_heavy>
29

>  <b_max1len>
5

>  <b_rotN>
8

>  <b_rotR>
0.27586207

>  <b_single>
41

>  <b_triple>
0

>  <chi0>
19.062267

>  <chi0v>
16.015282

>  <chi0v_C>
12.72325

>  <chi0_C>
14.200459

>  <chi1>
13.13103

>  <chi1v>
9.5743198

>  <chi1v_C>
6.1629543

>  <chi1_C>
8.0244045

>  <chiral>
1

>  <chiral_u>
0

>  <density>
0.74510306

>  <diameter>
15

>  <FCharge>
0

>  <GCUT_PEOE_0>
-0.85088855

>  <GCUT_PEOE_1>
-0.38468879

>  <GCUT_PEOE_2>
0.079418793

>  <GCUT_PEOE_3>
2.8154447

>  <GCUT_SLOGP_0>
-0.96421331

>  <GCUT_SLOGP_1>
-0.26386139

>  <GCUT_SLOGP_2>
0.16445385

>  <GCUT_SLOGP_3>
2.8584445

>  <GCUT_SMR_0>
-0.51605988

>  <GCUT_SMR_1>
-0.21605732

>  <GCUT_SMR_2>
0.19305076

>  <GCUT_SMR_3>
3.0788844

>  <Kier1>
21.702734

>  <Kier2>
11.253463

>  <Kier3>
6.7795382

>  <KierA1>
18.411913

>  <KierA2>
9.4834785

>  <KierA3>
5.6849322

>  <KierFlex>
6.4669995

>  <lip_acc>
5

>  <lip_don>
1

>  <lip_druglike>
1

>  <lip_violation>
0

>  <logP(o/w)>
3.404

>  <logS>
-3.9437301

>  <mr>
10.827313

>  <mutagenic>
0

>  <nmol>
1

>  <opr_brigid>
18

>  <opr_leadlike>
1

>  <opr_nring>
3

>  <opr_nrot>
10

>  <opr_violation>
0

>  <PC+>
0

>  <PC->
0

>  <PEOE_PC+>
2.1777782

>  <PEOE_PC->
-2.1777782

>  <PEOE_RPC+>
0.13111916

>  <PEOE_RPC->
0.16922425

>  <PEOE_VSA+0>
113.13523

>  <PEOE_VSA+1>
77.81266

>  <PEOE_VSA+2>
14.951293

>  <PEOE_VSA+3>
0

>  <PEOE_VSA+4>
10.324173

>  <PEOE_VSA+5>
14.708499

>  <PEOE_VSA+6>
0

>  <PEOE_VSA-0>
28.926888

>  <PEOE_VSA-1>
115.36627

>  <PEOE_VSA-2>
0

>  <PEOE_VSA-3>
0

>  <PEOE_VSA-4>
0

>  <PEOE_VSA-5>
13.566921

>  <PEOE_VSA-6>
10.271297

>  <PEOE_VSA_FHYD>
0.877536

>  <PEOE_VSA_FNEG>
0.42131513

>  <PEOE_VSA_FPNEG>
0.05973544

>  <PEOE_VSA_FPOL>
0.12246402

>  <PEOE_VSA_FPOS>
0.57868487

>  <PEOE_VSA_FPPOS>
0.062728584

>  <PEOE_VSA_HYD>
350.19235

>  <PEOE_VSA_NEG>
168.13138

>  <PEOE_VSA_PNEG>
23.838217

>  <PEOE_VSA_POL>
48.870888

>  <PEOE_VSA_POS>
230.93185

>  <PEOE_VSA_PPOS>
25.032671

>  <petitjean>
0.46666667

>  <petitjeanSC>
0.875

>  <Q_PC+>
0

>  <Q_PC->
0

>  <Q_RPC+>
0

>  <Q_RPC->
0

>  <Q_VSA_FHYD>
1

>  <Q_VSA_FNEG>
0

>  <Q_VSA_FPNEG>
0

>  <Q_VSA_FPOL>
0

>  <Q_VSA_FPOS>
1

>  <Q_VSA_FPPOS>
0

>  <Q_VSA_HYD>
399.06323

>  <Q_VSA_NEG>
0

>  <Q_VSA_PNEG>
0

>  <Q_VSA_POL>
0

>  <Q_VSA_POS>
399.06323

>  <Q_VSA_PPOS>
0

>  <radius>
8

>  <reactive>
0

>  <rings>
3

>  <RPC+>
0

>  <RPC->
0

>  <rsynth>
0.48148149

>  <SlogP>
3.2437

>  <SlogP_VSA0>
0

>  <SlogP_VSA1>
13.994092

>  <SlogP_VSA2>
34.862103

>  <SlogP_VSA3>
159.43564

>  <SlogP_VSA4>
6.37115

>  <SlogP_VSA5>
0

>  <SlogP_VSA6>
3.5006065

>  <SlogP_VSA7>
158.78867

>  <SlogP_VSA8>
3.9819686

>  <SlogP_VSA9>
39.148643

>  <SMR>
10.63158

>  <SMR_VSA0>
34.862103

>  <SMR_VSA1>
6.2486277

>  <SMR_VSA2>
25.385227

>  <SMR_VSA3>
13.853725

>  <SMR_VSA4>
0

>  <SMR_VSA5>
158.78867

>  <SMR_VSA6>
141.79587

>  <SMR_VSA7>
39.148643

>  <TPSA>
53.009998

>  <VAdjEq>
0.40063059

>  <VAdjMa>
5.8579812

>  <VDistEq>
3.6699224

>  <VDistMa>
9.1952391

>  <vdw_area>
399.06323

>  <vdw_vol>
521.93451

>  <vsa_acc>
2.503756

>  <vsa_acid>
0

>  <vsa_base>
0

>  <vsa_don>
0

>  <vsa_hyd>
333.10925

>  <vsa_other>
14.708499

>  <vsa_pol>
29.637598

>  <Weight>
388.89499

>  <weinerPath>
2068

>  <weinerPol>
38

>  <zagreb>
134

$$$$