O(C(=O)N(CC)C)c1cc(ccc1)[C@@H](N(C)C)C
  MOE2013           2D

 18 18  0  0  1  0  0  0  0  0999 V2000
    0.0000    0.0000    0.0000 O   0  0  0  0  0  0  0  0  0  0  0  0
    1.3020   -0.7440    0.0000 C   0  0  0  0  0  0  0  0  0  0  0  0
    1.3090   -2.2440    0.0000 O   0  0  0  0  0  0  0  0  0  0  0  0
    2.5980    0.0110    0.0000 N   0  0  0  0  0  0  0  0  0  0  0  0
    3.9000   -0.7330    0.0000 C   0  0  0  0  0  0  0  0  0  0  0  0
    5.1960    0.0230    0.0000 C   0  0  0  0  0  0  0  0  0  0  0  0
    2.5910    1.5110    0.0000 C   0  0  0  0  0  0  0  0  0  0  0  0
   -1.2960   -0.7560    0.0000 C   0  0  0  0  0  0  0  0  0  0  0  0
   -2.5980   -0.0110    0.0000 C   0  0  0  0  0  0  0  0  0  0  0  0
   -3.8940   -0.7670    0.0000 C   0  0  0  0  0  0  0  0  0  0  0  0
   -3.8870   -2.2670    0.0000 C   0  0  0  0  0  0  0  0  0  0  0  0
   -2.5850   -3.0110    0.0000 C   0  0  0  0  0  0  0  0  0  0  0  0
   -1.2890   -2.2560    0.0000 C   0  0  0  0  0  0  0  0  0  0  0  0
   -5.1960   -0.0230    0.0000 C   0  0  1  0  0  0  0  0  0  0  0  0
   -6.4920   -0.7780    0.0000 N   0  0  0  0  0  0  0  0  0  0  0  0
   -7.7940   -0.0340    0.0000 C   0  0  0  0  0  0  0  0  0  0  0  0
   -6.4850   -2.2780    0.0000 C   0  0  0  0  0  0  0  0  0  0  0  0
   -5.2030    1.4770    0.0000 C   0  0  0  0  0  0  0  0  0  0  0  0
  1  2  1  0  0  0  0
  1  8  1  0  0  0  0
  2  3  2  0  0  0  0
  2  4  1  0  0  0  0
  4  5  1  0  0  0  0
  4  7  1  0  0  0  0
  5  6  1  0  0  0  0
  8  9  2  0  0  0  0
  8 13  1  0  0  0  0
  9 10  1  0  0  0  0
 10 11  2  0  0  0  0
 10 14  1  0  0  0  0
 11 12  1  0  0  0  0
 12 13  2  0  0  0  0
 14 15  1  0  0  0  0
 14 18  1  1  0  0  0
 15 16  1  0  0  0  0
 15 17  1  0  0  0  0
M  END
>  <Index>
1718

>  <ID>
HT1835

>  <class>
1

>  <apol>
43.113445

>  <ast_fraglike>
1

>  <ast_fraglike_ext>
0

>  <ast_violation>
0

>  <ast_violation_ext>
1

>  <a_acc>
2

>  <a_acid>
0

>  <a_aro>
6

>  <a_base>
0

>  <a_count>
40

>  <a_don>
0

>  <a_donacc>
2

>  <a_heavy>
18

>  <a_hyd>
13

>  <a_IC>
57.46666

>  <a_ICM>
1.4366665

>  <a_nB>
0

>  <a_nBr>
0

>  <a_nC>
14

>  <a_nCl>
0

>  <a_nF>
0

>  <a_nH>
22

>  <a_nI>
0

>  <a_nN>
2

>  <a_nO>
2

>  <a_nP>
0

>  <a_nS>
0

>  <balabanJ>
2.4471495

>  <BCUT_PEOE_0>
-2.6188278

>  <BCUT_PEOE_1>
-0.19417283

>  <BCUT_PEOE_2>
0.048630945

>  <BCUT_PEOE_3>
2.5165031

>  <BCUT_SLOGP_0>
-2.6177731

>  <BCUT_SLOGP_1>
-0.060780153

>  <BCUT_SLOGP_2>
0.17816648

>  <BCUT_SLOGP_3>
2.6176746

>  <BCUT_SMR_0>
-2.331969

>  <BCUT_SMR_1>
0.093307897

>  <BCUT_SMR_2>
0.19440341

>  <BCUT_SMR_3>
2.7980087

>  <bpol>
30.884554

>  <b_1rotN>
5

>  <b_1rotR>
0.27777779

>  <b_ar>
6

>  <b_count>
40

>  <b_double>
1

>  <b_heavy>
18

>  <b_max1len>
5

>  <b_rotN>
6

>  <b_rotR>
0.33333334

>  <b_single>
33

>  <b_triple>
0

>  <chi0>
13.706742

>  <chi0v>
11.804782

>  <chi0v_C>
10.093858

>  <chi0_C>
10.844935

>  <chi1>
8.4515963

>  <chi1v>
6.1465459

>  <chi1v_C>
3.3944993

>  <chi1_C>
4.2507834

>  <chiral>
1

>  <chiral_u>
0

>  <density>
0.67305398

>  <diameter>
10

>  <FCharge>
0

>  <GCUT_PEOE_0>
-0.85653561

>  <GCUT_PEOE_1>
-0.36108065

>  <GCUT_PEOE_2>
-0.11136905

>  <GCUT_PEOE_3>
2.4884543

>  <GCUT_SLOGP_0>
-0.97280329

>  <GCUT_SLOGP_1>
-0.23289485

>  <GCUT_SLOGP_2>
-0.037

>  <GCUT_SLOGP_3>
2.5856228

>  <GCUT_SMR_0>
-0.51793653

>  <GCUT_SMR_1>
-0.10190118

>  <GCUT_SMR_2>
-0.024247833

>  <GCUT_SMR_3>
2.7508073

>  <Kier1>
16.055555

>  <Kier2>
7.5555553

>  <Kier3>
4.8979592

>  <KierA1>
12.824219

>  <KierA2>
5.9489746

>  <KierA3>
3.8156688

>  <KierFlex>
4.2383862

>  <lip_acc>
4

>  <lip_don>
0

>  <lip_druglike>
1

>  <lip_violation>
0

>  <logP(o/w)>
2.569

>  <logS>
-1.9921401

>  <mr>
7.3253007

>  <mutagenic>
0

>  <nmol>
1

>  <opr_brigid>
6

>  <opr_leadlike>
1

>  <opr_nring>
1

>  <opr_nrot>
4

>  <opr_violation>
0

>  <PC+>
0

>  <PC->
0

>  <PEOE_PC+>
1.4405264

>  <PEOE_PC->
-1.4405264

>  <PEOE_RPC+>
0.25548753

>  <PEOE_RPC->
0.22309075

>  <PEOE_VSA+0>
112.08854

>  <PEOE_VSA+1>
29.78545

>  <PEOE_VSA+2>
0

>  <PEOE_VSA+3>
0

>  <PEOE_VSA+4>
0

>  <PEOE_VSA+5>
0

>  <PEOE_VSA+6>
19.199511

>  <PEOE_VSA-0>
110.69108

>  <PEOE_VSA-1>
24.509808

>  <PEOE_VSA-2>
0

>  <PEOE_VSA-3>
0

>  <PEOE_VSA-4>
13.566921

>  <PEOE_VSA-5>
2.503756

>  <PEOE_VSA-6>
0

>  <PEOE_VSA_FHYD>
0.88707942

>  <PEOE_VSA_FNEG>
0.48430914

>  <PEOE_VSA_FPNEG>
0.051451676

>  <PEOE_VSA_FPOL>
0.11292059

>  <PEOE_VSA_FPOS>
0.51569086

>  <PEOE_VSA_FPPOS>
0.06146891

>  <PEOE_VSA_HYD>
277.07486

>  <PEOE_VSA_NEG>
151.27156

>  <PEOE_VSA_PNEG>
16.070677

>  <PEOE_VSA_POL>
35.270187

>  <PEOE_VSA_POS>
161.0735

>  <PEOE_VSA_PPOS>
19.199511

>  <petitjean>
0.5

>  <petitjeanSC>
1

>  <Q_PC+>
0

>  <Q_PC->
0

>  <Q_RPC+>
0

>  <Q_RPC->
0

>  <Q_VSA_FHYD>
1

>  <Q_VSA_FNEG>
0

>  <Q_VSA_FPNEG>
0

>  <Q_VSA_FPOL>
0

>  <Q_VSA_FPOS>
1

>  <Q_VSA_FPPOS>
0

>  <Q_VSA_HYD>
312.34506

>  <Q_VSA_NEG>
0

>  <Q_VSA_PNEG>
0

>  <Q_VSA_POL>
0

>  <Q_VSA_POS>
312.34506

>  <Q_VSA_PPOS>
0

>  <radius>
5

>  <reactive>
0

>  <rings>
1

>  <RPC+>
0

>  <RPC->
0

>  <rsynth>
1

>  <SlogP>
2.8552001

>  <SlogP_VSA0>
10.999887

>  <SlogP_VSA1>
13.565265

>  <SlogP_VSA2>
0

>  <SlogP_VSA3>
18.439579

>  <SlogP_VSA4>
3.185575

>  <SlogP_VSA5>
98.691559

>  <SlogP_VSA6>
0

>  <SlogP_VSA7>
70.572739

>  <SlogP_VSA8>
3.9819686

>  <SlogP_VSA9>
95.757675

>  <SMR>
7.2982998

>  <SMR_VSA0>
23.862217

>  <SMR_VSA1>
17.248516

>  <SMR_VSA2>
0

>  <SMR_VSA3>
12.410972

>  <SMR_VSA4>
0

>  <SMR_VSA5>
70.572739

>  <SMR_VSA6>
25.756214

>  <SMR_VSA7>
165.3436

>  <TPSA>
32.779999

>  <VAdjEq>
0.50325835

>  <VAdjMa>
5.1699252

>  <VDistEq>
3.1273744

>  <VDistMa>
8.0335073

>  <vdw_area>
312.34506

>  <vdw_vol>
371.94937

>  <vsa_acc>
13.566921

>  <vsa_acid>
0

>  <vsa_base>
0

>  <vsa_don>
0

>  <vsa_hyd>
261.41537

>  <vsa_other>
21.703266

>  <vsa_pol>
13.566921

>  <Weight>
250.342

>  <weinerPath>
654

>  <weinerPol>
25

>  <zagreb>
84

$$$$