O=C(N[C@@H](CC(=O)N)C(=O)N[C@H]([C@H](O)CN1C[C@@H]2[C@H](C[C@H]1C(=O)NC(C)(C)C)CCCC2)Cc1ccccc1)c1nc2c(cc1)cccc2
  MOE2013           2D

 49 53  0  0  1  0  0  0  0  0999 V2000
    0.0000    0.0000    0.0000 O   0  0  0  0  0  0  0  0  0  0  0  0
    0.7560    1.2950    0.0000 C   0  0  0  0  0  0  0  0  0  0  0  0
    0.0130    2.5980    0.0000 N   0  0  0  0  0  0  0  0  0  0  0  0
   -1.4870    2.6050    0.0000 C   0  0  1  0  0  0  0  0  0  0  0  0
   -2.2310    3.9080    0.0000 C   0  0  0  0  0  0  0  0  0  0  0  0
   -1.4750    5.2030    0.0000 C   0  0  0  0  0  0  0  0  0  0  0  0
    0.0250    5.1960    0.0000 O   0  0  0  0  0  0  0  0  0  0  0  0
   -2.2180    6.5060    0.0000 N   0  0  0  0  0  0  0  0  0  0  0  0
   -2.2440    1.3100    0.0000 C   0  0  0  0  0  0  0  0  0  0  0  0
   -1.5000    0.0070    0.0000 O   0  0  0  0  0  0  0  0  0  0  0  0
   -3.7440    1.3170    0.0000 N   0  0  0  0  0  0  0  0  0  0  0  0
   -4.5000    0.0220    0.0000 C   0  0  2  0  0  0  0  0  0  0  0  0
   -6.0000    0.0290    0.0000 C   0  0  2  0  0  0  0  0  0  0  0  0
   -6.7560   -1.2660    0.0000 O   0  0  0  0  0  0  0  0  0  0  0  0
   -6.7440    1.3320    0.0000 C   0  0  0  0  0  0  0  0  0  0  0  0
   -8.2440    1.3390    0.0000 N   0  0  3  0  0  0  0  0  0  0  0  0
   -9.0000    0.0440    0.0000 C   0  0  0  0  0  0  0  0  0  0  0  0
  -10.5000    0.0510    0.0000 C   0  0  2  0  0  0  0  0  0  0  0  0
  -11.2440    1.3540    0.0000 C   0  0  2  0  0  0  0  0  0  0  0  0
  -10.4870    2.6490    0.0000 C   0  0  0  0  0  0  0  0  0  0  0  0
   -8.9870    2.6420    0.0000 C   0  0  1  0  0  0  0  0  0  0  0  0
   -8.2310    3.9370    0.0000 C   0  0  0  0  0  0  0  0  0  0  0  0
   -6.7310    3.9300    0.0000 O   0  0  0  0  0  0  0  0  0  0  0  0
   -8.9750    5.2400    0.0000 N   0  0  0  0  0  0  0  0  0  0  0  0
   -8.2180    6.5350    0.0000 C   0  0  0  0  0  0  0  0  0  0  0  0
   -9.5140    7.2920    0.0000 C   0  0  0  0  0  0  0  0  0  0  0  0
   -7.4620    7.8310    0.0000 C   0  0  0  0  0  0  0  0  0  0  0  0
   -6.9230    5.7790    0.0000 C   0  0  0  0  0  0  0  0  0  0  0  0
  -12.7440    1.3610    0.0000 C   0  0  0  0  0  0  0  0  0  0  0  0
  -13.5000    0.0660    0.0000 C   0  0  0  0  0  0  0  0  0  0  0  0
  -12.7560   -1.2370    0.0000 C   0  0  0  0  0  0  0  0  0  0  0  0
  -11.2560   -1.2440    0.0000 C   0  0  0  0  0  0  0  0  0  0  0  0
   -3.7560   -1.2810    0.0000 C   0  0  0  0  0  0  0  0  0  0  0  0
   -4.5130   -2.5760    0.0000 C   0  0  0  0  0  0  0  0  0  0  0  0
   -6.0130   -2.5690    0.0000 C   0  0  0  0  0  0  0  0  0  0  0  0
   -6.7690   -3.8640    0.0000 C   0  0  0  0  0  0  0  0  0  0  0  0
   -6.0250   -5.1670    0.0000 C   0  0  0  0  0  0  0  0  0  0  0  0
   -4.5250   -5.1740    0.0000 C   0  0  0  0  0  0  0  0  0  0  0  0
   -3.7690   -3.8790    0.0000 C   0  0  0  0  0  0  0  0  0  0  0  0
    2.2560    1.2880    0.0000 C   0  0  0  0  0  0  0  0  0  0  0  0
    3.0000   -0.0150    0.0000 N   0  0  0  0  0  0  0  0  0  0  0  0
    4.5000   -0.0220    0.0000 C   0  0  0  0  0  0  0  0  0  0  0  0
    5.2560    1.2730    0.0000 C   0  0  0  0  0  0  0  0  0  0  0  0
    4.5130    2.5760    0.0000 C   0  0  0  0  0  0  0  0  0  0  0  0
    3.0130    2.5830    0.0000 C   0  0  0  0  0  0  0  0  0  0  0  0
    6.7560    1.2660    0.0000 C   0  0  0  0  0  0  0  0  0  0  0  0
    7.5000   -0.0370    0.0000 C   0  0  0  0  0  0  0  0  0  0  0  0
    6.7440   -1.3320    0.0000 C   0  0  0  0  0  0  0  0  0  0  0  0
    5.2440   -1.3250    0.0000 C   0  0  0  0  0  0  0  0  0  0  0  0
  1  2  2  0  0  0  0
  2  3  1  0  0  0  0
  2 40  1  0  0  0  0
  4  3  1  6  0  0  0
  4  5  1  0  0  0  0
  4  9  1  0  0  0  0
  5  6  1  0  0  0  0
  6  7  2  0  0  0  0
  6  8  1  0  0  0  0
  9 10  2  0  0  0  0
  9 11  1  0  0  0  0
 12 11  1  1  0  0  0
 12 13  1  0  0  0  0
 12 33  1  0  0  0  0
 13 14  1  6  0  0  0
 13 15  1  0  0  0  0
 15 16  1  0  0  0  0
 16 17  1  0  0  0  0
 16 21  1  0  0  0  0
 18 17  1  1  0  0  0
 18 19  1  0  0  0  0
 18 32  1  0  0  0  0
 19 20  1  0  0  0  0
 19 29  1  1  0  0  0
 20 21  1  0  0  0  0
 21 22  1  1  0  0  0
 22 23  2  0  0  0  0
 22 24  1  0  0  0  0
 24 25  1  0  0  0  0
 25 26  1  0  0  0  0
 25 27  1  0  0  0  0
 25 28  1  0  0  0  0
 29 30  1  0  0  0  0
 30 31  1  0  0  0  0
 31 32  1  0  0  0  0
 33 34  1  0  0  0  0
 34 35  1  0  0  0  0
 34 39  2  0  0  0  0
 35 36  2  0  0  0  0
 36 37  1  0  0  0  0
 37 38  2  0  0  0  0
 38 39  1  0  0  0  0
 40 41  2  0  0  0  0
 40 45  1  0  0  0  0
 41 42  1  0  0  0  0
 42 43  2  0  0  0  0
 42 49  1  0  0  0  0
 43 44  1  0  0  0  0
 43 46  1  0  0  0  0
 44 45  2  0  0  0  0
 46 47  2  0  0  0  0
 47 48  1  0  0  0  0
 48 49  2  0  0  0  0
M  END
>  <Index>
1722

>  <ID>
HT1868

>  <class>
1

>  <apol>
110.82965

>  <ast_fraglike>
0

>  <ast_fraglike_ext>
0

>  <ast_violation>
4

>  <ast_violation_ext>
6

>  <a_acc>
7

>  <a_acid>
0

>  <a_aro>
16

>  <a_base>
0

>  <a_count>
99

>  <a_don>
5

>  <a_donacc>
12

>  <a_heavy>
49

>  <a_hyd>
34

>  <a_IC>
147.57283

>  <a_ICM>
1.4906347

>  <a_nB>
0

>  <a_nBr>
0

>  <a_nC>
38

>  <a_nCl>
0

>  <a_nF>
0

>  <a_nH>
50

>  <a_nI>
0

>  <a_nN>
6

>  <a_nO>
5

>  <a_nP>
0

>  <a_nS>
0

>  <balabanJ>
1.2777454

>  <BCUT_PEOE_0>
-2.902535

>  <BCUT_PEOE_1>
-0.54855043

>  <BCUT_PEOE_2>
0.56111223

>  <BCUT_PEOE_3>
2.8517125

>  <BCUT_SLOGP_0>
-2.9443665

>  <BCUT_SLOGP_1>
-0.53351599

>  <BCUT_SLOGP_2>
0.61530745

>  <BCUT_SLOGP_3>
2.9129362

>  <BCUT_SMR_0>
-2.6450782

>  <BCUT_SMR_1>
-0.3748619

>  <BCUT_SMR_2>
0.69440514

>  <BCUT_SMR_3>
3.1071103

>  <bpol>
63.11235

>  <b_1rotN>
12

>  <b_1rotR>
0.2264151

>  <b_ar>
17

>  <b_count>
103

>  <b_double>
4

>  <b_heavy>
53

>  <b_max1len>
5

>  <b_rotN>
16

>  <b_rotR>
0.3018868

>  <b_single>
82

>  <b_triple>
0

>  <chi0>
35.130817

>  <chi0v>
28.7309

>  <chi0v_C>
23.678915

>  <chi0_C>
25.725039

>  <chi1>
23.357195

>  <chi1v>
17.394417

>  <chi1v_C>
13.115828

>  <chi1_C>
15.531973

>  <chiral>
6

>  <chiral_u>
0

>  <density>
0.71707976

>  <diameter>
19

>  <FCharge>
0

>  <GCUT_PEOE_0>
-0.84349316

>  <GCUT_PEOE_1>
-0.39911753

>  <GCUT_PEOE_2>
0.063834496

>  <GCUT_PEOE_3>
3.2362459

>  <GCUT_SLOGP_0>
-1.3705666

>  <GCUT_SLOGP_1>
-0.34899345

>  <GCUT_SLOGP_2>
0.12826544

>  <GCUT_SLOGP_3>
3.2201207

>  <GCUT_SMR_0>
-0.53235161

>  <GCUT_SMR_1>
-0.21539177

>  <GCUT_SMR_2>
0.1709206

>  <GCUT_SMR_3>
3.4677958

>  <Kier1>
40.190815

>  <Kier2>
18.850134

>  <Kier3>
12

>  <KierA1>
31.014595

>  <KierA2>
14.463289

>  <KierA3>
9.1701326

>  <KierFlex>
9.1545525

>  <lip_acc>
11

>  <lip_don>
6

>  <lip_druglike>
0

>  <lip_violation>
3

>  <logP(o/w)>
3.3139999

>  <logS>
-7.68398

>  <mr>
18.963694

>  <mutagenic>
0

>  <nmol>
1

>  <opr_brigid>
28

>  <opr_leadlike>
0

>  <opr_nring>
5

>  <opr_nrot>
15

>  <opr_violation>
5

>  <PC+>
0

>  <PC->
0

>  <PEOE_PC+>
4.466989

>  <PEOE_PC->
-4.466989

>  <PEOE_RPC+>
0.060662445

>  <PEOE_RPC->
0.086967021

>  <PEOE_VSA+0>
152.28938

>  <PEOE_VSA+1>
90.578506

>  <PEOE_VSA+2>
9.8455114

>  <PEOE_VSA+3>
43.095066

>  <PEOE_VSA+4>
49.172764

>  <PEOE_VSA+5>
12.949531

>  <PEOE_VSA+6>
0

>  <PEOE_VSA-0>
117.76663

>  <PEOE_VSA-1>
127.69676

>  <PEOE_VSA-2>
0

>  <PEOE_VSA-3>
0

>  <PEOE_VSA-4>
5.6825762

>  <PEOE_VSA-5>
54.267685

>  <PEOE_VSA-6>
14.829332

>  <PEOE_VSA_FHYD>
0.79813153

>  <PEOE_VSA_FNEG>
0.47221377

>  <PEOE_VSA_FPNEG>
0.11026613

>  <PEOE_VSA_FPOL>
0.20186846

>  <PEOE_VSA_FPOS>
0.5277862

>  <PEOE_VSA_FPPOS>
0.091602333

>  <PEOE_VSA_HYD>
541.27185

>  <PEOE_VSA_NEG>
320.24298

>  <PEOE_VSA_PNEG>
74.779594

>  <PEOE_VSA_POL>
136.90189

>  <PEOE_VSA_POS>
357.93076

>  <PEOE_VSA_PPOS>
62.122295

>  <petitjean>
0.47368422

>  <petitjeanSC>
0.89999998

>  <Q_PC+>
0

>  <Q_PC->
0

>  <Q_RPC+>
0

>  <Q_RPC->
0

>  <Q_VSA_FHYD>
1

>  <Q_VSA_FNEG>
0

>  <Q_VSA_FPNEG>
0

>  <Q_VSA_FPOL>
0

>  <Q_VSA_FPOS>
1

>  <Q_VSA_FPPOS>
0

>  <Q_VSA_HYD>
678.17377

>  <Q_VSA_NEG>
0

>  <Q_VSA_PNEG>
0

>  <Q_VSA_POL>
0

>  <Q_VSA_POS>
678.17377

>  <Q_VSA_PPOS>
0

>  <radius>
10

>  <reactive>
0

>  <rings>
5

>  <RPC+>
0

>  <RPC->
0

>  <rsynth>
1

>  <SlogP>
3.09237

>  <SlogP_VSA0>
112.31467

>  <SlogP_VSA1>
40.944977

>  <SlogP_VSA2>
90.001205

>  <SlogP_VSA3>
36.879158

>  <SlogP_VSA4>
38.626129

>  <SlogP_VSA5>
18.868406

>  <SlogP_VSA6>
0

>  <SlogP_VSA7>
198.79213

>  <SlogP_VSA8>
113.21043

>  <SlogP_VSA9>
99.978043

>  <SMR>
18.821381

>  <SMR_VSA0>
95.448868

>  <SMR_VSA1>
45.295071

>  <SMR_VSA2>
62.853844

>  <SMR_VSA3>
24.356878

>  <SMR_VSA4>
37.614288

>  <SMR_VSA5>
326.15387

>  <SMR_VSA6>
57.914291

>  <SMR_VSA7>
99.978043

>  <TPSA>
166.75

>  <VAdjEq>
0.26099879

>  <VAdjMa>
6.7279205

>  <VDistEq>
4.0437107

>  <VDistMa>
10.981407

>  <vdw_area>
678.17377

>  <vdw_vol>
935.53748

>  <vsa_acc>
59.95026

>  <vsa_acid>
0

>  <vsa_base>
0

>  <vsa_don>
34.790218

>  <vsa_hyd>
464.16769

>  <vsa_other>
51.798122

>  <vsa_pol>
108.3074

>  <Weight>
670.85498

>  <weinerPath>
9512

>  <weinerPol>
77

>  <zagreb>
256

$$$$