O(C(C)(c1ccccc1)c1ncccc1)CCN(C)C
  MOE2013           2D

 20 21  0  0  1  0  0  0  0  0999 V2000
    0.0000    0.0000    0.0000 O   0  0  0  0  0  0  0  0  0  0  0  0
   -1.2970   -0.7530    0.0000 C   0  0  3  0  0  0  0  0  0  0  0  0
   -0.5450   -2.0500    0.0000 C   0  0  0  0  0  0  0  0  0  0  0  0
   -2.5950   -1.5060    0.0000 C   0  0  0  0  0  0  0  0  0  0  0  0
   -3.8950   -0.7590    0.0000 C   0  0  0  0  0  0  0  0  0  0  0  0
   -5.1930   -1.5110    0.0000 C   0  0  0  0  0  0  0  0  0  0  0  0
   -5.1900   -3.0110    0.0000 C   0  0  0  0  0  0  0  0  0  0  0  0
   -3.8890   -3.7590    0.0000 C   0  0  0  0  0  0  0  0  0  0  0  0
   -2.5920   -3.0060    0.0000 C   0  0  0  0  0  0  0  0  0  0  0  0
   -2.0500    0.5450    0.0000 C   0  0  0  0  0  0  0  0  0  0  0  0
   -1.3030    1.8450    0.0000 N   0  0  0  0  0  0  0  0  0  0  0  0
   -2.0560    3.1430    0.0000 C   0  0  0  0  0  0  0  0  0  0  0  0
   -3.5560    3.1390    0.0000 C   0  0  0  0  0  0  0  0  0  0  0  0
   -4.3030    1.8390    0.0000 C   0  0  0  0  0  0  0  0  0  0  0  0
   -3.5500    0.5410    0.0000 C   0  0  0  0  0  0  0  0  0  0  0  0
    1.3010   -0.7470    0.0000 C   0  0  0  0  0  0  0  0  0  0  0  0
    2.5980    0.0060    0.0000 C   0  0  0  0  0  0  0  0  0  0  0  0
    3.8990   -0.7410    0.0000 N   0  0  0  0  0  0  0  0  0  0  0  0
    3.9020   -2.2410    0.0000 C   0  0  0  0  0  0  0  0  0  0  0  0
    5.1960    0.0110    0.0000 C   0  0  0  0  0  0  0  0  0  0  0  0
  1  2  1  0  0  0  0
  1 16  1  0  0  0  0
  2  3  1  0  0  0  0
  2  4  1  0  0  0  0
  2 10  1  0  0  0  0
  4  5  1  0  0  0  0
  4  9  2  0  0  0  0
  5  6  2  0  0  0  0
  6  7  1  0  0  0  0
  7  8  2  0  0  0  0
  8  9  1  0  0  0  0
 10 11  1  0  0  0  0
 10 15  2  0  0  0  0
 11 12  2  0  0  0  0
 12 13  1  0  0  0  0
 13 14  2  0  0  0  0
 14 15  1  0  0  0  0
 16 17  1  0  0  0  0
 17 18  1  0  0  0  0
 18 19  1  0  0  0  0
 18 20  1  0  0  0  0
M  END
>  <Index>
1542

>  <ID>
HT0721

>  <class>
1

>  <apol>
47.591446

>  <ast_fraglike>
0

>  <ast_fraglike_ext>
0

>  <ast_violation>
1

>  <ast_violation_ext>
2

>  <a_acc>
3

>  <a_acid>
0

>  <a_aro>
12

>  <a_base>
0

>  <a_count>
42

>  <a_don>
0

>  <a_donacc>
3

>  <a_heavy>
20

>  <a_hyd>
17

>  <a_IC>
56.882969

>  <a_ICM>
1.3543564

>  <a_nB>
0

>  <a_nBr>
0

>  <a_nC>
17

>  <a_nCl>
0

>  <a_nF>
0

>  <a_nH>
22

>  <a_nI>
0

>  <a_nN>
2

>  <a_nO>
1

>  <a_nP>
0

>  <a_nS>
0

>  <balabanJ>
2.0040121

>  <BCUT_PEOE_0>
-2.6222355

>  <BCUT_PEOE_1>
-0.51996857

>  <BCUT_PEOE_2>
0.58313274

>  <BCUT_PEOE_3>
2.5632973

>  <BCUT_SLOGP_0>
-2.7024

>  <BCUT_SLOGP_1>
-0.42430934

>  <BCUT_SLOGP_2>
0.67706001

>  <BCUT_SLOGP_3>
2.6366076

>  <BCUT_SMR_0>
-2.3539345

>  <BCUT_SMR_1>
-0.39169106

>  <BCUT_SMR_2>
0.71622133

>  <BCUT_SMR_3>
2.8157599

>  <bpol>
29.266554

>  <b_1rotN>
6

>  <b_1rotR>
0.2857143

>  <b_ar>
12

>  <b_count>
43

>  <b_double>
0

>  <b_heavy>
21

>  <b_max1len>
8

>  <b_rotN>
6

>  <b_rotR>
0.2857143

>  <b_single>
31

>  <b_triple>
0

>  <chi0>
14.424439

>  <chi0v>
12.413041

>  <chi0v_C>
11.110366

>  <chi0_C>
12.432875

>  <chi1>
9.6268454

>  <chi1v>
6.8846188

>  <chi1v_C>
4.6993589

>  <chi1_C>
6.3020949

>  <chiral>
1

>  <chiral_u>
1

>  <density>
0.65960228

>  <diameter>
9

>  <FCharge>
0

>  <GCUT_PEOE_0>
-0.85892802

>  <GCUT_PEOE_1>
-0.35076734

>  <GCUT_PEOE_2>
0.058983326

>  <GCUT_PEOE_3>
2.6108096

>  <GCUT_SLOGP_0>
-0.95891827

>  <GCUT_SLOGP_1>
-0.25743848

>  <GCUT_SLOGP_2>
0.13685323

>  <GCUT_SLOGP_3>
2.6997578

>  <GCUT_SMR_0>
-0.51768106

>  <GCUT_SMR_1>
-0.17986479

>  <GCUT_SMR_2>
0.15651894

>  <GCUT_SMR_3>
2.8706055

>  <Kier1>
16.371881

>  <Kier2>
7.8520408

>  <Kier3>
4.4963264

>  <KierA1>
12.632163

>  <KierA2>
5.9692655

>  <KierA3>
3.3812115

>  <KierFlex>
3.7702367

>  <lip_acc>
3

>  <lip_don>
0

>  <lip_druglike>
1

>  <lip_violation>
0

>  <logP(o/w)>
2.918

>  <logS>
-2.38886

>  <mr>
8.3364172

>  <mutagenic>
0

>  <nmol>
1

>  <opr_brigid>
12

>  <opr_leadlike>
1

>  <opr_nring>
2

>  <opr_nrot>
6

>  <opr_violation>
0

>  <PC+>
0

>  <PC->
0

>  <PEOE_PC+>
1.4213772

>  <PEOE_PC->
-1.4213772

>  <PEOE_RPC+>
0.093677357

>  <PEOE_RPC->
0.25440526

>  <PEOE_VSA+0>
76.857483

>  <PEOE_VSA+1>
68.570091

>  <PEOE_VSA+2>
0

>  <PEOE_VSA+3>
0

>  <PEOE_VSA+4>
0

>  <PEOE_VSA+5>
0

>  <PEOE_VSA+6>
0

>  <PEOE_VSA-0>
91.943405

>  <PEOE_VSA-1>
73.529427

>  <PEOE_VSA-2>
0

>  <PEOE_VSA-3>
0

>  <PEOE_VSA-4>
0

>  <PEOE_VSA-5>
5.6825762

>  <PEOE_VSA-6>
2.503756

>  <PEOE_VSA_FHYD>
0.97434449

>  <PEOE_VSA_FNEG>
0.54423809

>  <PEOE_VSA_FPNEG>
0.025655508

>  <PEOE_VSA_FPOL>
0.025655508

>  <PEOE_VSA_FPOS>
0.45576191

>  <PEOE_VSA_FPPOS>
0

>  <PEOE_VSA_HYD>
310.90039

>  <PEOE_VSA_NEG>
173.65916

>  <PEOE_VSA_PNEG>
8.1863317

>  <PEOE_VSA_POL>
8.1863317

>  <PEOE_VSA_POS>
145.42758

>  <PEOE_VSA_PPOS>
0

>  <petitjean>
0.44444445

>  <petitjeanSC>
0.80000001

>  <Q_PC+>
0

>  <Q_PC->
0

>  <Q_RPC+>
0

>  <Q_RPC->
0

>  <Q_VSA_FHYD>
1

>  <Q_VSA_FNEG>
0

>  <Q_VSA_FPNEG>
0

>  <Q_VSA_FPOL>
0

>  <Q_VSA_FPOS>
1

>  <Q_VSA_FPPOS>
0

>  <Q_VSA_HYD>
319.08673

>  <Q_VSA_NEG>
0

>  <Q_VSA_PNEG>
0

>  <Q_VSA_POL>
0

>  <Q_VSA_POS>
319.08673

>  <Q_VSA_PPOS>
0

>  <radius>
5

>  <reactive>
0

>  <rings>
2

>  <RPC+>
0

>  <RPC->
0

>  <rsynth>
1

>  <SlogP>
3.2348001

>  <SlogP_VSA0>
0

>  <SlogP_VSA1>
19.909843

>  <SlogP_VSA2>
10.999887

>  <SlogP_VSA3>
39.365837

>  <SlogP_VSA4>
5.9423227

>  <SlogP_VSA5>
65.794373

>  <SlogP_VSA6>
0

>  <SlogP_VSA7>
158.35983

>  <SlogP_VSA8>
0

>  <SlogP_VSA9>
33.326015

>  <SMR>
8.1756001

>  <SMR_VSA0>
10.999887

>  <SMR_VSA1>
19.909843

>  <SMR_VSA2>
0

>  <SMR_VSA3>
5.9423227

>  <SMR_VSA4>
0

>  <SMR_VSA5>
158.35983

>  <SMR_VSA6>
39.365837

>  <SMR_VSA7>
99.120392

>  <TPSA>
25.360001

>  <VAdjEq>
0.48464775

>  <VAdjMa>
5.3923173

>  <VDistEq>
3.0337217

>  <VDistMa>
8.3728065

>  <vdw_area>
319.08673

>  <vdw_vol>
409.90759

>  <vsa_acc>
8.1863317

>  <vsa_acid>
0

>  <vsa_base>
0

>  <vsa_don>
0

>  <vsa_hyd>
295.24091

>  <vsa_other>
0

>  <vsa_pol>
8.1863317

>  <Weight>
270.37601

>  <weinerPath>
805

>  <weinerPol>
29

>  <zagreb>
98

$$$$