F[C@@]12[C@H]([C@@H]3CC[C@@](O)(C)[C@]3(C[C@@H]1O)C)CCC1=CC(=O)CC[C@@]12C
  MOE2013           2D

 24 27  0  0  1  0  0  0  0  0999 V2000
    0.0000    0.0000    0.0000 F   0  0  0  0  0  0  0  0  0  0  0  0
    1.5000   -0.0020    0.0000 C   0  0  1  0  0  0  0  0  0  0  0  0
    0.7510    1.2980    0.0000 C   0  0  2  0  0  0  0  0  0  0  0  0
   -0.7490    1.3000    0.0000 C   0  0  2  0  0  0  0  0  0  0  0  0
   -1.7510    2.4160    0.0000 C   0  0  0  0  0  0  0  0  0  0  0  0
   -3.1220    1.8070    0.0000 C   0  0  0  0  0  0  0  0  0  0  0  0
   -2.9670    0.3150    0.0000 C   0  0  1  0  0  0  0  0  0  0  0  0
   -4.4490    0.0820    0.0000 O   0  0  0  0  0  0  0  0  0  0  0  0
   -3.4570   -1.1020    0.0000 C   0  0  0  0  0  0  0  0  0  0  0  0
   -1.5000    0.0020    0.0000 C   0  0  1  0  0  0  0  0  0  0  0  0
   -0.7510   -1.2980    0.0000 C   0  0  0  0  0  0  0  0  0  0  0  0
    0.7490   -1.3000    0.0000 C   0  0  2  0  0  0  0  0  0  0  0  0
    1.4970   -2.6000    0.0000 O   0  0  0  0  0  0  0  0  0  0  0  0
   -2.3620   -1.2260    0.0000 C   0  0  0  0  0  0  0  0  0  0  0  0
    1.5030    2.5960    0.0000 C   0  0  0  0  0  0  0  0  0  0  0  0
    3.0030    2.5950    0.0000 C   0  0  0  0  0  0  0  0  0  0  0  0
    3.7510    1.2950    0.0000 C   0  0  0  0  0  0  0  0  0  0  0  0
    5.2510    1.2930    0.0000 C   0  0  0  0  0  0  0  0  0  0  0  0
    6.0000   -0.0070    0.0000 C   0  0  0  0  0  0  0  0  0  0  0  0
    7.5000   -0.0090    0.0000 O   0  0  0  0  0  0  0  0  0  0  0  0
    5.2490   -1.3050    0.0000 C   0  0  0  0  0  0  0  0  0  0  0  0
    3.7490   -1.3030    0.0000 C   0  0  0  0  0  0  0  0  0  0  0  0
    3.0000   -0.0030    0.0000 C   0  0  2  0  0  0  0  0  0  0  0  0
    2.2490   -1.3020    0.0000 C   0  0  0  0  0  0  0  0  0  0  0  0
  2  1  1  6  0  0  0
  2  3  1  0  0  0  0
  2 12  1  0  0  0  0
  2 23  1  0  0  0  0
  3  4  1  0  0  0  0
  3 15  1  6  0  0  0
  4  5  1  1  0  0  0
  4 10  1  0  0  0  0
  5  6  1  0  0  0  0
  6  7  1  0  0  0  0
  7  8  1  1  0  0  0
  7  9  1  6  0  0  0
  7 10  1  0  0  0  0
 10 11  1  0  0  0  0
 10 14  1  1  0  0  0
 11 12  1  0  0  0  0
 12 13  1  1  0  0  0
 15 16  1  0  0  0  0
 16 17  1  0  0  0  0
 17 18  2  0  0  0  0
 17 23  1  0  0  0  0
 18 19  1  0  0  0  0
 19 20  2  0  0  0  0
 19 21  1  0  0  0  0
 21 22  1  0  0  0  0
 22 23  1  0  0  0  0
 23 24  1  1  0  0  0
M  END
>  <Index>
1573

>  <ID>
HT0911

>  <class>
1

>  <apol>
57.499996

>  <ast_fraglike>
0

>  <ast_fraglike_ext>
0

>  <ast_violation>
2

>  <ast_violation_ext>
2

>  <a_acc>
3

>  <a_acid>
0

>  <a_aro>
0

>  <a_base>
0

>  <a_count>
53

>  <a_don>
2

>  <a_donacc>
5

>  <a_heavy>
24

>  <a_hyd>
20

>  <a_IC>
71.504883

>  <a_ICM>
1.3491488

>  <a_nB>
0

>  <a_nBr>
0

>  <a_nC>
20

>  <a_nCl>
0

>  <a_nF>
1

>  <a_nH>
29

>  <a_nI>
0

>  <a_nN>
0

>  <a_nO>
3

>  <a_nP>
0

>  <a_nS>
0

>  <balabanJ>
1.7611735

>  <BCUT_PEOE_0>
-2.9196441

>  <BCUT_PEOE_1>
-0.47004464

>  <BCUT_PEOE_2>
0.39671102

>  <BCUT_PEOE_3>
2.9944799

>  <BCUT_SLOGP_0>
-2.9312325

>  <BCUT_SLOGP_1>
-0.42828467

>  <BCUT_SLOGP_2>
0.44135034

>  <BCUT_SLOGP_3>
3.0126336

>  <BCUT_SMR_0>
-2.6903269

>  <BCUT_SMR_1>
-0.27928507

>  <BCUT_SMR_2>
0.58010387

>  <BCUT_SMR_3>
3.2251527

>  <bpol>
33.864002

>  <b_1rotN>
0

>  <b_1rotR>
0

>  <b_ar>
0

>  <b_count>
56

>  <b_double>
2

>  <b_heavy>
27

>  <b_max1len>
4

>  <b_rotN>
0

>  <b_rotR>
0

>  <b_single>
54

>  <b_triple>
0

>  <chi0>
17.543606

>  <chi0v>
14.939789

>  <chi0v_C>
13.259149

>  <chi0_C>
13.543606

>  <chi1>
11.061132

>  <chi1v>
9.3941326

>  <chi1v_C>
8.5192213

>  <chi1_C>
8.9064322

>  <chiral>
7

>  <chiral_u>
0

>  <density>
0.72767466

>  <diameter>
10

>  <FCharge>
0

>  <GCUT_PEOE_0>
-0.80363989

>  <GCUT_PEOE_1>
-0.37153196

>  <GCUT_PEOE_2>
-0.013728595

>  <GCUT_PEOE_3>
3.3448131

>  <GCUT_SLOGP_0>
-0.91122824

>  <GCUT_SLOGP_1>
-0.32026154

>  <GCUT_SLOGP_2>
-0.0092665209

>  <GCUT_SLOGP_3>
3.3923192

>  <GCUT_SMR_0>
-0.53929973

>  <GCUT_SMR_1>
-0.2100186

>  <GCUT_SMR_2>
0.11573126

>  <GCUT_SMR_3>
3.5591023

>  <Kier1>
17.415638

>  <Kier2>
5.0393844

>  <Kier3>
1.9606482

>  <KierA1>
16.065886

>  <KierA2>
4.6318064

>  <KierA3>
1.7973285

>  <KierFlex>
3.1005862

>  <lip_acc>
3

>  <lip_don>
2

>  <lip_druglike>
1

>  <lip_violation>
0

>  <logP(o/w)>
2.5090001

>  <logS>
-2.7536299

>  <mr>
8.9527588

>  <mutagenic>
0

>  <nmol>
1

>  <opr_brigid>
20

>  <opr_leadlike>
1

>  <opr_nring>
4

>  <opr_nrot>
0

>  <opr_violation>
0

>  <PC+>
0

>  <PC->
0

>  <PEOE_PC+>
1.7493548

>  <PEOE_PC->
-1.7493548

>  <PEOE_RPC+>
0.12014182

>  <PEOE_RPC->
0.22213426

>  <PEOE_VSA+0>
115.33596

>  <PEOE_VSA+1>
13.4357

>  <PEOE_VSA+2>
0

>  <PEOE_VSA+3>
8.458519

>  <PEOE_VSA+4>
20.648346

>  <PEOE_VSA+5>
0

>  <PEOE_VSA+6>
0

>  <PEOE_VSA-0>
83.210464

>  <PEOE_VSA-1>
39.703896

>  <PEOE_VSA-2>
0

>  <PEOE_VSA-3>
0

>  <PEOE_VSA-4>
11.908636

>  <PEOE_VSA-5>
13.566921

>  <PEOE_VSA-6>
15.535081

>  <PEOE_VSA_FHYD>
0.80839556

>  <PEOE_VSA_FNEG>
0.50939465

>  <PEOE_VSA_FPNEG>
0.12743999

>  <PEOE_VSA_FPOL>
0.19160444

>  <PEOE_VSA_FPOS>
0.49060535

>  <PEOE_VSA_FPPOS>
0.064164445

>  <PEOE_VSA_HYD>
260.14453

>  <PEOE_VSA_NEG>
163.92499

>  <PEOE_VSA_PNEG>
41.010635

>  <PEOE_VSA_POL>
61.658981

>  <PEOE_VSA_POS>
157.87852

>  <PEOE_VSA_PPOS>
20.648346

>  <petitjean>
0.5

>  <petitjeanSC>
1

>  <Q_PC+>
0

>  <Q_PC->
0

>  <Q_RPC+>
0

>  <Q_RPC->
0

>  <Q_VSA_FHYD>
1

>  <Q_VSA_FNEG>
0

>  <Q_VSA_FPNEG>
0

>  <Q_VSA_FPOL>
0

>  <Q_VSA_FPOS>
1

>  <Q_VSA_FPPOS>
0

>  <Q_VSA_HYD>
321.80353

>  <Q_VSA_NEG>
0

>  <Q_VSA_PNEG>
0

>  <Q_VSA_POL>
0

>  <Q_VSA_POS>
321.80353

>  <Q_VSA_PPOS>
0

>  <radius>
5

>  <reactive>
1

>  <rings>
4

>  <RPC+>
0

>  <RPC->
0

>  <rsynth>
0

>  <SlogP>
3.3322001

>  <SlogP_VSA0>
50.770454

>  <SlogP_VSA1>
5.6876111

>  <SlogP_VSA2>
30.330866

>  <SlogP_VSA3>
0

>  <SlogP_VSA4>
8.8215923

>  <SlogP_VSA5>
3.185575

>  <SlogP_VSA6>
0

>  <SlogP_VSA7>
17.643185

>  <SlogP_VSA8>
132.07884

>  <SlogP_VSA9>
114.93816

>  <SMR>
8.9072599

>  <SMR_VSA0>
23.862217

>  <SMR_VSA1>
65.730568

>  <SMR_VSA2>
8.8215923

>  <SMR_VSA3>
9.6542244

>  <SMR_VSA4>
0

>  <SMR_VSA5>
149.72202

>  <SMR_VSA6>
5.6876111

>  <SMR_VSA7>
99.978043

>  <TPSA>
57.529999

>  <VAdjEq>
0.44886449

>  <VAdjMa>
5.7548876

>  <VDistEq>
2.9475381

>  <VDistMa>
8.9184399

>  <vdw_area>
321.80353

>  <vdw_vol>
462.3591

>  <vsa_acc>
13.566921

>  <vsa_acid>
0

>  <vsa_base>
0

>  <vsa_don>
0

>  <vsa_hyd>
241.68608

>  <vsa_other>
8.458519

>  <vsa_pol>
40.700764

>  <Weight>
336.44699

>  <weinerPath>
1083

>  <weinerPol>
58

>  <zagreb>
148

$$$$