S1[C@H]2N(C(C(O)=O)=C(C1)C)C(=O)[C@H]2NC(=O)[C@H](N)c1ccccc1
  MOE2013           2D

 24 26  0  0  1  0  0  0  0  0999 V2000
    0.0000    0.0000    0.0000 S   0  0  0  0  0  0  0  0  0  0  0  0
    0.7420   -1.3030    0.0000 C   0  0  1  0  0  0  0  0  0  0  0  0
   -0.0150   -2.5980    0.0000 N   0  0  0  0  0  0  0  0  0  0  0  0
   -1.5150   -2.5890    0.0000 C   0  0  0  0  0  0  0  0  0  0  0  0
   -2.2730   -3.8840    0.0000 C   0  0  0  0  0  0  0  0  0  0  0  0
   -3.7730   -3.8750    0.0000 O   0  0  0  0  0  0  0  0  0  0  0  0
   -1.5300   -5.1870    0.0000 O   0  0  0  0  0  0  0  0  0  0  0  0
   -2.2580   -1.2860    0.0000 C   0  0  0  0  0  0  0  0  0  0  0  0
   -1.5000    0.0090    0.0000 C   0  0  0  0  0  0  0  0  0  0  0  0
   -3.7580   -1.2770    0.0000 C   0  0  0  0  0  0  0  0  0  0  0  0
    1.2790   -3.3560    0.0000 C   0  0  0  0  0  0  0  0  0  0  0  0
    1.6590   -4.8070    0.0000 O   0  0  0  0  0  0  0  0  0  0  0  0
    2.0370   -2.0610    0.0000 C   0  0  1  0  0  0  0  0  0  0  0  0
    3.4880   -1.6810    0.0000 N   0  0  0  0  0  0  0  0  0  0  0  0
    4.5430   -2.7480    0.0000 C   0  0  0  0  0  0  0  0  0  0  0  0
    4.1460   -4.1950    0.0000 O   0  0  0  0  0  0  0  0  0  0  0  0
    5.9940   -2.3680    0.0000 C   0  0  2  0  0  0  0  0  0  0  0  0
    6.3900   -0.9220    0.0000 N   0  0  0  0  0  0  0  0  0  0  0  0
    7.0480   -3.4350    0.0000 C   0  0  0  0  0  0  0  0  0  0  0  0
    8.4990   -3.0560    0.0000 C   0  0  0  0  0  0  0  0  0  0  0  0
    9.5540   -4.1220    0.0000 C   0  0  0  0  0  0  0  0  0  0  0  0
    9.1570   -5.5690    0.0000 C   0  0  0  0  0  0  0  0  0  0  0  0
    7.7060   -5.9490    0.0000 C   0  0  0  0  0  0  0  0  0  0  0  0
    6.6510   -4.8820    0.0000 C   0  0  0  0  0  0  0  0  0  0  0  0
  1  9  1  0  0  0  0
  2  1  1  6  0  0  0
  2  3  1  0  0  0  0
  2 13  1  0  0  0  0
  3  4  1  0  0  0  0
  3 11  1  0  0  0  0
  4  5  1  0  0  0  0
  4  8  2  0  0  0  0
  5  6  1  0  0  0  0
  5  7  2  0  0  0  0
  8  9  1  0  0  0  0
  8 10  1  0  0  0  0
 11 12  2  0  0  0  0
 11 13  1  0  0  0  0
 13 14  1  6  0  0  0
 14 15  1  0  0  0  0
 15 16  2  0  0  0  0
 15 17  1  0  0  0  0
 17 18  1  6  0  0  0
 17 19  1  0  0  0  0
 19 20  1  0  0  0  0
 19 24  2  0  0  0  0
 20 21  2  0  0  0  0
 21 22  1  0  0  0  0
 22 23  2  0  0  0  0
 23 24  1  0  0  0  0
M  END
>  <Index>
1483

>  <ID>
HT0431

>  <class>
1

>  <apol>
48.903481

>  <ast_fraglike>
0

>  <ast_fraglike_ext>
0

>  <ast_violation>
3

>  <ast_violation_ext>
5

>  <a_acc>
5

>  <a_acid>
0

>  <a_aro>
6

>  <a_base>
0

>  <a_count>
41

>  <a_don>
4

>  <a_donacc>
9

>  <a_heavy>
24

>  <a_hyd>
14

>  <a_IC>
73.417877

>  <a_ICM>
1.7906799

>  <a_nB>
0

>  <a_nBr>
0

>  <a_nC>
16

>  <a_nCl>
0

>  <a_nF>
0

>  <a_nH>
17

>  <a_nI>
0

>  <a_nN>
3

>  <a_nO>
4

>  <a_nP>
0

>  <a_nS>
1

>  <balabanJ>
1.5845311

>  <BCUT_PEOE_0>
-2.690222

>  <BCUT_PEOE_1>
-0.57470775

>  <BCUT_PEOE_2>
0.60851878

>  <BCUT_PEOE_3>
2.735328

>  <BCUT_SLOGP_0>
-2.8977151

>  <BCUT_SLOGP_1>
-0.51484829

>  <BCUT_SLOGP_2>
0.62951148

>  <BCUT_SLOGP_3>
2.6262643

>  <BCUT_SMR_0>
-2.4045284

>  <BCUT_SMR_1>
-0.40939498

>  <BCUT_SMR_2>
0.75274652

>  <BCUT_SMR_3>
3.0180695

>  <bpol>
25.718519

>  <b_1rotN>
4

>  <b_1rotR>
0.15384616

>  <b_ar>
6

>  <b_count>
43

>  <b_double>
4

>  <b_heavy>
26

>  <b_max1len>
3

>  <b_rotN>
5

>  <b_rotR>
0.1923077

>  <b_single>
33

>  <b_triple>
0

>  <chi0>
17.430357

>  <chi0v>
13.747176

>  <chi0v_C>
9.3259087

>  <chi0_C>
10.438793

>  <chi1>
11.413591

>  <chi1v>
8.4501286

>  <chi1v_C>
4.4635959

>  <chi1_C>
5.8020949

>  <chiral>
3

>  <chiral_u>
0

>  <density>
0.82170999

>  <diameter>
12

>  <FCharge>
0

>  <GCUT_PEOE_0>
-0.82510161

>  <GCUT_PEOE_1>
-0.42249763

>  <GCUT_PEOE_2>
0.073037744

>  <GCUT_PEOE_3>
2.5978463

>  <GCUT_SLOGP_0>
-1.3374561

>  <GCUT_SLOGP_1>
-0.37924394

>  <GCUT_SLOGP_2>
0.13208754

>  <GCUT_SLOGP_3>
2.5691586

>  <GCUT_SMR_0>
-0.52949595

>  <GCUT_SMR_1>
-0.22423124

>  <GCUT_SMR_2>
0.20987403

>  <GCUT_SMR_3>
2.8748369

>  <Kier1>
18.781065

>  <Kier2>
7.7091413

>  <Kier3>
3.6183696

>  <KierA1>
15.154058

>  <KierA2>
6.1585441

>  <KierA3>
2.8698587

>  <KierFlex>
3.8886223

>  <lip_acc>
7

>  <lip_don>
4

>  <lip_druglike>
1

>  <lip_violation>
0

>  <logP(o/w)>
0.278

>  <logS>
-3.0434

>  <mr>
8.9832602

>  <mutagenic>
0

>  <nmol>
1

>  <opr_brigid>
15

>  <opr_leadlike>
1

>  <opr_nring>
3

>  <opr_nrot>
4

>  <opr_violation>
0

>  <PC+>
0

>  <PC->
0

>  <PEOE_PC+>
2.5948741

>  <PEOE_PC->
-2.5948741

>  <PEOE_RPC+>
0.11865792

>  <PEOE_RPC->
0.13125713

>  <PEOE_VSA+0>
32.004307

>  <PEOE_VSA+1>
34.123089

>  <PEOE_VSA+2>
35.351521

>  <PEOE_VSA+3>
8.6190128

>  <PEOE_VSA+4>
23.273705

>  <PEOE_VSA+5>
12.949531

>  <PEOE_VSA+6>
14.708499

>  <PEOE_VSA-0>
23.164757

>  <PEOE_VSA-1>
61.274521

>  <PEOE_VSA-2>
19.760618

>  <PEOE_VSA-3>
0

>  <PEOE_VSA-4>
0

>  <PEOE_VSA-5>
40.700764

>  <PEOE_VSA-6>
14.555551

>  <PEOE_VSA_FHYD>
0.66866541

>  <PEOE_VSA_FNEG>
0.49754521

>  <PEOE_VSA_FPNEG>
0.1724142

>  <PEOE_VSA_FPOL>
0.33133456

>  <PEOE_VSA_FPOS>
0.50245482

>  <PEOE_VSA_FPPOS>
0.15892038

>  <PEOE_VSA_HYD>
214.29782

>  <PEOE_VSA_NEG>
159.45621

>  <PEOE_VSA_PNEG>
55.256313

>  <PEOE_VSA_POL>
106.18805

>  <PEOE_VSA_POS>
161.02966

>  <PEOE_VSA_PPOS>
50.931732

>  <petitjean>
0.5

>  <petitjeanSC>
1

>  <Q_PC+>
0

>  <Q_PC->
0

>  <Q_RPC+>
0

>  <Q_RPC->
0

>  <Q_VSA_FHYD>
1

>  <Q_VSA_FNEG>
0

>  <Q_VSA_FPNEG>
0

>  <Q_VSA_FPOL>
0

>  <Q_VSA_FPOS>
1

>  <Q_VSA_FPPOS>
0

>  <Q_VSA_HYD>
320.48587

>  <Q_VSA_NEG>
0

>  <Q_VSA_PNEG>
0

>  <Q_VSA_POL>
0

>  <Q_VSA_POS>
320.48587

>  <Q_VSA_PPOS>
0

>  <radius>
6

>  <reactive>
0

>  <rings>
3

>  <RPC+>
0

>  <RPC->
0

>  <rsynth>
1

>  <SlogP>
0.54040003

>  <SlogP_VSA0>
50.90794

>  <SlogP_VSA1>
21.387344

>  <SlogP_VSA2>
77.915749

>  <SlogP_VSA3>
42.61879

>  <SlogP_VSA4>
3.185575

>  <SlogP_VSA5>
5.9423227

>  <SlogP_VSA6>
0

>  <SlogP_VSA7>
88.215919

>  <SlogP_VSA8>
3.9819686

>  <SlogP_VSA9>
65.545555

>  <SMR>
8.8840904

>  <SMR_VSA0>
71.586647

>  <SMR_VSA1>
3.1243138

>  <SMR_VSA2>
43.395977

>  <SMR_VSA3>
19.438963

>  <SMR_VSA4>
32.897186

>  <SMR_VSA5>
88.215919

>  <SMR_VSA6>
35.496597

>  <SMR_VSA7>
65.545555

>  <TPSA>
112.73

>  <VAdjEq>
0.43739632

>  <VAdjMa>
5.7004399

>  <VDistEq>
3.3900189

>  <VDistMa>
8.8684988

>  <vdw_area>
320.48587

>  <vdw_vol>
422.77078

>  <vsa_acc>
27.133842

>  <vsa_acid>
0

>  <vsa_base>
0

>  <vsa_don>
5.6825762

>  <vsa_hyd>
179.18744

>  <vsa_other>
40.607563

>  <vsa_pol>
77.692749

>  <Weight>
347.39499

>  <weinerPath>
1383

>  <weinerPol>
39

>  <zagreb>
128

$$$$