Fc1cc(F)ccc1[C@](O)([C@@H](C)c1ncncc1F)Cn1ncnc1
  MOE2013           2D

 25 27  0  0  1  0  0  0  0  0999 V2000
    0.0000    0.0000    0.0000 F   0  0  0  0  0  0  0  0  0  0  0  0
    0.7410    1.3040    0.0000 C   0  0  0  0  0  0  0  0  0  0  0  0
    2.2410    1.3140    0.0000 C   0  0  0  0  0  0  0  0  0  0  0  0
    2.9830    2.6180    0.0000 C   0  0  0  0  0  0  0  0  0  0  0  0
    4.4830    2.6280    0.0000 F   0  0  0  0  0  0  0  0  0  0  0  0
    2.2240    3.9120    0.0000 C   0  0  0  0  0  0  0  0  0  0  0  0
    0.7240    3.9020    0.0000 C   0  0  0  0  0  0  0  0  0  0  0  0
   -0.0170    2.5980    0.0000 C   0  0  0  0  0  0  0  0  0  0  0  0
   -1.5170    2.5880    0.0000 C   0  0  2  0  0  0  0  0  0  0  0  0
   -3.0170    2.5780    0.0000 O   0  0  0  0  0  0  0  0  0  0  0  0
   -1.5270    4.0880    0.0000 C   0  0  1  0  0  0  0  0  0  0  0  0
   -0.2330    4.8470    0.0000 C   0  0  0  0  0  0  0  0  0  0  0  0
   -2.8310    4.8290    0.0000 C   0  0  0  0  0  0  0  0  0  0  0  0
   -4.1250    4.0710    0.0000 N   0  0  0  0  0  0  0  0  0  0  0  0
   -5.4290    4.8120    0.0000 C   0  0  0  0  0  0  0  0  0  0  0  0
   -5.4390    6.3120    0.0000 N   0  0  0  0  0  0  0  0  0  0  0  0
   -4.1450    7.0710    0.0000 C   0  0  0  0  0  0  0  0  0  0  0  0
   -2.8410    6.3290    0.0000 C   0  0  0  0  0  0  0  0  0  0  0  0
   -1.5470    7.0880    0.0000 F   0  0  0  0  0  0  0  0  0  0  0  0
   -1.5070    1.0880    0.0000 C   0  0  0  0  0  0  0  0  0  0  0  0
   -2.8010    0.3300    0.0000 N   0  0  0  0  0  0  0  0  0  0  0  0
   -2.9480   -1.1630    0.0000 N   0  0  0  0  0  0  0  0  0  0  0  0
   -4.4130   -1.4850    0.0000 C   0  0  0  0  0  0  0  0  0  0  0  0
   -5.1720   -0.1910    0.0000 N   0  0  0  0  0  0  0  0  0  0  0  0
   -4.1760    0.9310    0.0000 C   0  0  0  0  0  0  0  0  0  0  0  0
  1  2  1  0  0  0  0
  2  3  2  0  0  0  0
  2  8  1  0  0  0  0
  3  4  1  0  0  0  0
  4  5  1  0  0  0  0
  4  6  2  0  0  0  0
  6  7  1  0  0  0  0
  7  8  2  0  0  0  0
  8  9  1  0  0  0  0
  9 10  1  6  0  0  0
  9 11  1  0  0  0  0
  9 20  1  1  0  0  0
 11 12  1  6  0  0  0
 11 13  1  0  0  0  0
 13 14  2  0  0  0  0
 13 18  1  0  0  0  0
 14 15  1  0  0  0  0
 15 16  2  0  0  0  0
 16 17  1  0  0  0  0
 17 18  2  0  0  0  0
 18 19  1  0  0  0  0
 20 21  1  0  0  0  0
 21 22  1  0  0  0  0
 21 25  1  0  0  0  0
 22 23  2  0  0  0  0
 23 24  1  0  0  0  0
 24 25  2  0  0  0  0
M  END
>  <Index>
1763

>  <ID>
HT2194

>  <class>
1

>  <apol>
45.468102

>  <ast_fraglike>
0

>  <ast_fraglike_ext>
0

>  <ast_violation>
2

>  <ast_violation_ext>
3

>  <a_acc>
5

>  <a_acid>
0

>  <a_aro>
17

>  <a_base>
0

>  <a_count>
39

>  <a_don>
1

>  <a_donacc>
6

>  <a_heavy>
25

>  <a_hyd>
16

>  <a_IC>
72.463188

>  <a_ICM>
1.8580306

>  <a_nB>
0

>  <a_nBr>
0

>  <a_nC>
16

>  <a_nCl>
0

>  <a_nF>
3

>  <a_nH>
14

>  <a_nI>
0

>  <a_nN>
5

>  <a_nO>
1

>  <a_nP>
0

>  <a_nS>
0

>  <balabanJ>
1.8218489

>  <BCUT_PEOE_0>
-2.6085682

>  <BCUT_PEOE_1>
-0.63358366

>  <BCUT_PEOE_2>
0.60004336

>  <BCUT_PEOE_3>
2.6619623

>  <BCUT_SLOGP_0>
-2.523747

>  <BCUT_SLOGP_1>
-0.46893993

>  <BCUT_SLOGP_2>
0.80512571

>  <BCUT_SLOGP_3>
2.7556477

>  <BCUT_SMR_0>
-2.3837361

>  <BCUT_SMR_1>
-0.43659574

>  <BCUT_SMR_2>
0.79087287

>  <BCUT_SMR_3>
2.8827329

>  <bpol>
24.853897

>  <b_1rotN>
5

>  <b_1rotR>
0.18518518

>  <b_ar>
17

>  <b_count>
41

>  <b_double>
0

>  <b_heavy>
27

>  <b_max1len>
5

>  <b_rotN>
5

>  <b_rotR>
0.18518518

>  <b_single>
24

>  <b_triple>
0

>  <chi0>
18.026733

>  <chi0v>
13.143084

>  <chi0v_C>
9.3259087

>  <chi0_C>
10.620955

>  <chi1>
11.914539

>  <chi1v>
7.3727431

>  <chi1v_C>
4.0349631

>  <chi1_C>
5.0494952

>  <chiral>
2

>  <chiral_u>
0

>  <density>
0.84720606

>  <diameter>
10

>  <FCharge>
0

>  <GCUT_PEOE_0>
-0.8217721

>  <GCUT_PEOE_1>
-0.42574117

>  <GCUT_PEOE_2>
0.021586427

>  <GCUT_PEOE_3>
2.693007

>  <GCUT_SLOGP_0>
-0.89613664

>  <GCUT_SLOGP_1>
-0.29874057

>  <GCUT_SLOGP_2>
0.21270221

>  <GCUT_SLOGP_3>
2.7678206

>  <GCUT_SMR_0>
-0.51785904

>  <GCUT_SMR_1>
-0.19804306

>  <GCUT_SMR_2>
0.19140869

>  <GCUT_SMR_3>
2.9278283

>  <Kier1>
19.753086

>  <Kier2>
8.3471403

>  <Kier3>
4.2958579

>  <KierA1>
14.098056

>  <KierA2>
5.8667183

>  <KierA3>
2.9846303

>  <KierFlex>
3.3083727

>  <lip_acc>
6

>  <lip_don>
1

>  <lip_druglike>
1

>  <lip_violation>
0

>  <logP(o/w)>
0.375

>  <logS>
-3.4146099

>  <mr>
8.6264944

>  <mutagenic>
0

>  <nmol>
1

>  <opr_brigid>
17

>  <opr_leadlike>
1

>  <opr_nring>
3

>  <opr_nrot>
5

>  <opr_violation>
0

>  <PC+>
0

>  <PC->
0

>  <PEOE_PC+>
2.2318666

>  <PEOE_PC->
-2.2318666

>  <PEOE_RPC+>
0.094415717

>  <PEOE_RPC->
0.17087589

>  <PEOE_VSA+0>
31.524988

>  <PEOE_VSA+1>
62.230106

>  <PEOE_VSA+2>
94.54863

>  <PEOE_VSA+3>
9.0208454

>  <PEOE_VSA+4>
10.324173

>  <PEOE_VSA+5>
0

>  <PEOE_VSA+6>
0

>  <PEOE_VSA-0>
12.254904

>  <PEOE_VSA-1>
31.002581

>  <PEOE_VSA-2>
0

>  <PEOE_VSA-3>
9.4210396

>  <PEOE_VSA-4>
52.773636

>  <PEOE_VSA-5>
0

>  <PEOE_VSA-6>
7.7675405

>  <PEOE_VSA_FHYD>
0.77914518

>  <PEOE_VSA_FNEG>
0.35285395

>  <PEOE_VSA_FPNEG>
0.18867911

>  <PEOE_VSA_FPOL>
0.22085483

>  <PEOE_VSA_FPOS>
0.64714605

>  <PEOE_VSA_FPPOS>
0.03217572

>  <PEOE_VSA_HYD>
250.0031

>  <PEOE_VSA_NEG>
113.2197

>  <PEOE_VSA_PNEG>
60.541176

>  <PEOE_VSA_POL>
70.865349

>  <PEOE_VSA_POS>
207.64874

>  <PEOE_VSA_PPOS>
10.324173

>  <petitjean>
0.5

>  <petitjeanSC>
1

>  <Q_PC+>
0

>  <Q_PC->
0

>  <Q_RPC+>
0

>  <Q_RPC->
0

>  <Q_VSA_FHYD>
1

>  <Q_VSA_FNEG>
0

>  <Q_VSA_FPNEG>
0

>  <Q_VSA_FPOL>
0

>  <Q_VSA_FPOS>
1

>  <Q_VSA_FPPOS>
0

>  <Q_VSA_HYD>
320.86844

>  <Q_VSA_NEG>
0

>  <Q_VSA_PNEG>
0

>  <Q_VSA_POL>
0

>  <Q_VSA_POS>
320.86844

>  <Q_VSA_PPOS>
0

>  <radius>
5

>  <reactive>
0

>  <rings>
3

>  <RPC+>
0

>  <RPC->
0

>  <rsynth>
1

>  <SlogP>
2.7548001

>  <SlogP_VSA0>
25.385227

>  <SlogP_VSA1>
68.796165

>  <SlogP_VSA2>
27.363054

>  <SlogP_VSA3>
0

>  <SlogP_VSA4>
5.9423227

>  <SlogP_VSA5>
0

>  <SlogP_VSA6>
4.4107962

>  <SlogP_VSA7>
120.5005

>  <SlogP_VSA8>
0

>  <SlogP_VSA9>
96.645935

>  <SMR>
8.1003799

>  <SMR_VSA0>
0

>  <SMR_VSA1>
139.06174

>  <SMR_VSA2>
27.363054

>  <SMR_VSA3>
10.353119

>  <SMR_VSA4>
0

>  <SMR_VSA5>
138.94008

>  <SMR_VSA6>
0

>  <SMR_VSA7>
33.326015

>  <TPSA>
76.720001

>  <VAdjEq>
0.42433795

>  <VAdjMa>
5.7548876

>  <VDistEq>
3.0816271

>  <VDistMa>
9.0474463

>  <vdw_area>
320.86844

>  <vdw_vol>
412.31528

>  <vsa_acc>
26.468767

>  <vsa_acid>
0

>  <vsa_base>
0

>  <vsa_don>
0

>  <vsa_hyd>
191.33801

>  <vsa_other>
74.371552

>  <vsa_pol>
40.03569

>  <Weight>
349.31598

>  <weinerPath>
1359

>  <weinerPol>
41

>  <zagreb>
132

$$$$