O=C(N(C1CCN(CC1)CCc1ccccc1)c1ccccc1)CC
  MOE2013           2D

 25 27  0  0  0  0  0  0  0  0999 V2000
    0.0000    0.0000    0.0000 O   0  0  0  0  0  0  0  0  0  0  0  0
   -0.7570    1.2950    0.0000 C   0  0  0  0  0  0  0  0  0  0  0  0
   -0.0140    2.5980    0.0000 N   0  0  0  0  0  0  0  0  0  0  0  0
    1.4860    2.6060    0.0000 C   0  0  0  0  0  0  0  0  0  0  0  0
    2.2290    3.9090    0.0000 C   0  0  0  0  0  0  0  0  0  0  0  0
    3.7290    3.9170    0.0000 C   0  0  0  0  0  0  0  0  0  0  0  0
    4.4860    2.6220    0.0000 N   0  0  0  0  0  0  0  0  0  0  0  0
    3.7430    1.3190    0.0000 C   0  0  0  0  0  0  0  0  0  0  0  0
    2.2430    1.3110    0.0000 C   0  0  0  0  0  0  0  0  0  0  0  0
    5.9860    2.6310    0.0000 C   0  0  0  0  0  0  0  0  0  0  0  0
    6.7430    1.3360    0.0000 C   0  0  0  0  0  0  0  0  0  0  0  0
    8.2430    1.3440    0.0000 C   0  0  0  0  0  0  0  0  0  0  0  0
    8.9860    2.6470    0.0000 C   0  0  0  0  0  0  0  0  0  0  0  0
   10.4860    2.6550    0.0000 C   0  0  0  0  0  0  0  0  0  0  0  0
   11.2430    1.3600    0.0000 C   0  0  0  0  0  0  0  0  0  0  0  0
   10.5000    0.0570    0.0000 C   0  0  0  0  0  0  0  0  0  0  0  0
    9.0000    0.0490    0.0000 C   0  0  0  0  0  0  0  0  0  0  0  0
   -0.7710    3.8930    0.0000 C   0  0  0  0  0  0  0  0  0  0  0  0
   -2.2710    3.8850    0.0000 C   0  0  0  0  0  0  0  0  0  0  0  0
   -3.0280    5.1800    0.0000 C   0  0  0  0  0  0  0  0  0  0  0  0
   -2.2850    6.4830    0.0000 C   0  0  0  0  0  0  0  0  0  0  0  0
   -0.7850    6.4910    0.0000 C   0  0  0  0  0  0  0  0  0  0  0  0
   -0.0280    5.1960    0.0000 C   0  0  0  0  0  0  0  0  0  0  0  0
   -2.2570    1.2870    0.0000 C   0  0  0  0  0  0  0  0  0  0  0  0
   -3.0000   -0.0160    0.0000 C   0  0  0  0  0  0  0  0  0  0  0  0
  1  2  2  0  0  0  0
  2  3  1  0  0  0  0
  2 24  1  0  0  0  0
  3  4  1  0  0  0  0
  3 18  1  0  0  0  0
  4  5  1  0  0  0  0
  4  9  1  0  0  0  0
  5  6  1  0  0  0  0
  6  7  1  0  0  0  0
  7  8  1  0  0  0  0
  7 10  1  0  0  0  0
  8  9  1  0  0  0  0
 10 11  1  0  0  0  0
 11 12  1  0  0  0  0
 12 13  1  0  0  0  0
 12 17  2  0  0  0  0
 13 14  2  0  0  0  0
 14 15  1  0  0  0  0
 15 16  2  0  0  0  0
 16 17  1  0  0  0  0
 18 19  1  0  0  0  0
 18 23  2  0  0  0  0
 19 20  2  0  0  0  0
 20 21  1  0  0  0  0
 21 22  2  0  0  0  0
 22 23  1  0  0  0  0
 24 25  1  0  0  0  0
M  END
>  <Index>
1566

>  <ID>
HT0865

>  <class>
1

>  <apol>
60.392204

>  <ast_fraglike>
0

>  <ast_fraglike_ext>
0

>  <ast_violation>
2

>  <ast_violation_ext>
3

>  <a_acc>
2

>  <a_acid>
0

>  <a_aro>
12

>  <a_base>
0

>  <a_count>
53

>  <a_don>
0

>  <a_donacc>
2

>  <a_heavy>
25

>  <a_hyd>
21

>  <a_IC>
68.866348

>  <a_ICM>
1.2993652

>  <a_nB>
0

>  <a_nBr>
0

>  <a_nC>
22

>  <a_nCl>
0

>  <a_nF>
0

>  <a_nH>
28

>  <a_nI>
0

>  <a_nN>
2

>  <a_nO>
1

>  <a_nP>
0

>  <a_nS>
0

>  <balabanJ>
1.4503106

>  <BCUT_PEOE_0>
-2.8012633

>  <BCUT_PEOE_1>
-0.59475994

>  <BCUT_PEOE_2>
0.62146962

>  <BCUT_PEOE_3>
2.731822

>  <BCUT_SLOGP_0>
-2.8584776

>  <BCUT_SLOGP_1>
-0.50181544

>  <BCUT_SLOGP_2>
0.69258493

>  <BCUT_SLOGP_3>
2.7036598

>  <BCUT_SMR_0>
-2.5262604

>  <BCUT_SMR_1>
-0.43885064

>  <BCUT_SMR_2>
0.76142681

>  <BCUT_SMR_3>
3.0021346

>  <bpol>
35.527798

>  <b_1rotN>
7

>  <b_1rotR>
0.25925925

>  <b_ar>
12

>  <b_count>
55

>  <b_double>
1

>  <b_heavy>
27

>  <b_max1len>
3

>  <b_rotN>
7

>  <b_rotR>
0.25925925

>  <b_single>
42

>  <b_triple>
0

>  <chi0>
17.484917

>  <chi0v>
15.103276

>  <chi0v_C>
13.8006

>  <chi0_C>
15.330216

>  <chi1>
12.275188

>  <chi1v>
9.4102974

>  <chi1v_C>
7.5520773

>  <chi1_C>
9.473093

>  <chiral>
0

>  <chiral_u>
0

>  <density>
0.65818292

>  <diameter>
14

>  <FCharge>
0

>  <GCUT_PEOE_0>
-0.85793388

>  <GCUT_PEOE_1>
-0.37631994

>  <GCUT_PEOE_2>
0.072784543

>  <GCUT_PEOE_3>
2.8309865

>  <GCUT_SLOGP_0>
-0.99587053

>  <GCUT_SLOGP_1>
-0.26822117

>  <GCUT_SLOGP_2>
0.14158177

>  <GCUT_SLOGP_3>
2.8669605

>  <GCUT_SMR_0>
-0.52009219

>  <GCUT_SMR_1>
-0.20479204

>  <GCUT_SMR_2>
0.18252505

>  <GCUT_SMR_3>
3.0892041

>  <Kier1>
19.753086

>  <Kier2>
10.364081

>  <Kier3>
5.7362962

>  <KierA1>
15.208752

>  <KierA2>
7.8866186

>  <KierA3>
4.3267436

>  <KierFlex>
4.7978249

>  <lip_acc>
3

>  <lip_don>
0

>  <lip_druglike>
1

>  <lip_violation>
0

>  <logP(o/w)>
4.2750001

>  <logS>
-3.9697499

>  <mr>
10.410104

>  <mutagenic>
0

>  <nmol>
1

>  <opr_brigid>
18

>  <opr_leadlike>
1

>  <opr_nring>
3

>  <opr_nrot>
8

>  <opr_violation>
0

>  <PC+>
0

>  <PC->
0

>  <PEOE_PC+>
1.5988966

>  <PEOE_PC->
-1.5988966

>  <PEOE_RPC+>
0.14246379

>  <PEOE_RPC->
0.19328324

>  <PEOE_VSA+0>
130.63536

>  <PEOE_VSA+1>
46.919247

>  <PEOE_VSA+2>
0

>  <PEOE_VSA+3>
0

>  <PEOE_VSA+4>
12.949531

>  <PEOE_VSA+5>
0

>  <PEOE_VSA+6>
0

>  <PEOE_VSA-0>
52.822289

>  <PEOE_VSA-1>
116.78691

>  <PEOE_VSA-2>
0

>  <PEOE_VSA-3>
0

>  <PEOE_VSA-4>
0

>  <PEOE_VSA-5>
13.566921

>  <PEOE_VSA-6>
0

>  <PEOE_VSA_FHYD>
0.92903972

>  <PEOE_VSA_FNEG>
0.4901948

>  <PEOE_VSA_FPNEG>
0.036306228

>  <PEOE_VSA_FPOL>
0.070960268

>  <PEOE_VSA_FPOS>
0.5098052

>  <PEOE_VSA_FPPOS>
0.03465404

>  <PEOE_VSA_HYD>
347.16382

>  <PEOE_VSA_NEG>
183.17612

>  <PEOE_VSA_PNEG>
13.566921

>  <PEOE_VSA_POL>
26.516451

>  <PEOE_VSA_POS>
190.50414

>  <PEOE_VSA_PPOS>
12.949531

>  <petitjean>
0.5

>  <petitjeanSC>
1

>  <Q_PC+>
0

>  <Q_PC->
0

>  <Q_RPC+>
0

>  <Q_RPC->
0

>  <Q_VSA_FHYD>
1

>  <Q_VSA_FNEG>
0

>  <Q_VSA_FPNEG>
0

>  <Q_VSA_FPOL>
0

>  <Q_VSA_FPOS>
1

>  <Q_VSA_FPPOS>
0

>  <Q_VSA_HYD>
373.68027

>  <Q_VSA_NEG>
0

>  <Q_VSA_PNEG>
0

>  <Q_VSA_POL>
0

>  <Q_VSA_POS>
373.68027

>  <Q_VSA_PPOS>
0

>  <radius>
7

>  <reactive>
0

>  <rings>
3

>  <RPC+>
0

>  <RPC->
0

>  <rsynth>
1

>  <SlogP>
4.1366701

>  <SlogP_VSA0>
3.1243138

>  <SlogP_VSA1>
8.3830976

>  <SlogP_VSA2>
27.844185

>  <SlogP_VSA3>
55.318733

>  <SlogP_VSA4>
3.185575

>  <SlogP_VSA5>
18.868406

>  <SlogP_VSA6>
0

>  <SlogP_VSA7>
176.43184

>  <SlogP_VSA8>
56.605217

>  <SlogP_VSA9>
36.082764

>  <SMR>
10.3827

>  <SMR_VSA0>
23.862217

>  <SMR_VSA1>
3.1243138

>  <SMR_VSA2>
3.1243138

>  <SMR_VSA3>
7.1675434

>  <SMR_VSA4>
2.7567475

>  <SMR_VSA5>
251.90547

>  <SMR_VSA6>
60.577518

>  <SMR_VSA7>
33.326015

>  <TPSA>
23.549999

>  <VAdjEq>
0.42433795

>  <VAdjMa>
5.7548876

>  <VDistEq>
3.5759881

>  <VDistMa>
8.9668493

>  <vdw_area>
373.68027

>  <vdw_vol>
511.22412

>  <vsa_acc>
13.566921

>  <vsa_acid>
0

>  <vsa_base>
0

>  <vsa_don>
0

>  <vsa_hyd>
327.23352

>  <vsa_other>
12.949531

>  <vsa_pol>
13.566921

>  <Weight>
336.479

>  <weinerPath>
1680

>  <weinerPol>
36

>  <zagreb>
124

$$$$