S(=O)(=O)(NC(=O)NC1CCCCC1)c1ccc(cc1)C(=O)C
  MOE2013           2D

 22 23  0  0  0  0  0  0  0  0999 V2000
    0.0000    0.0000    0.0000 S   0  0  0  0  0  0  0  0  0  0  0  0
   -0.7420    1.3040    0.0000 O   0  0  0  0  0  0  0  0  0  0  0  0
    0.7420   -1.3040    0.0000 O   0  0  0  0  0  0  0  0  0  0  0  0
   -1.3040   -0.7420    0.0000 N   0  0  0  0  0  0  0  0  0  0  0  0
   -2.5980    0.0170    0.0000 C   0  0  0  0  0  0  0  0  0  0  0  0
   -2.5880    1.5170    0.0000 O   0  0  0  0  0  0  0  0  0  0  0  0
   -3.9020   -0.7250    0.0000 N   0  0  0  0  0  0  0  0  0  0  0  0
   -5.1960    0.0340    0.0000 C   0  0  0  0  0  0  0  0  0  0  0  0
   -5.1860    1.5340    0.0000 C   0  0  0  0  0  0  0  0  0  0  0  0
   -6.4800    2.2920    0.0000 C   0  0  0  0  0  0  0  0  0  0  0  0
   -7.7840    1.5510    0.0000 C   0  0  0  0  0  0  0  0  0  0  0  0
   -7.7940    0.0510    0.0000 C   0  0  0  0  0  0  0  0  0  0  0  0
   -6.5000   -0.7080    0.0000 C   0  0  0  0  0  0  0  0  0  0  0  0
    1.3040    0.7420    0.0000 C   0  0  0  0  0  0  0  0  0  0  0  0
    1.3140    2.2410    0.0000 C   0  0  0  0  0  0  0  0  0  0  0  0
    2.6180    2.9830    0.0000 C   0  0  0  0  0  0  0  0  0  0  0  0
    3.9120    2.2250    0.0000 C   0  0  0  0  0  0  0  0  0  0  0  0
    3.9020    0.7250    0.0000 C   0  0  0  0  0  0  0  0  0  0  0  0
    2.5980   -0.0170    0.0000 C   0  0  0  0  0  0  0  0  0  0  0  0
    5.2160    2.9660    0.0000 C   0  0  0  0  0  0  0  0  0  0  0  0
    6.5100    2.2080    0.0000 O   0  0  0  0  0  0  0  0  0  0  0  0
    5.2250    4.4660    0.0000 C   0  0  0  0  0  0  0  0  0  0  0  0
  1  2  2  0  0  0  0
  1  3  2  0  0  0  0
  1  4  1  0  0  0  0
  1 14  1  0  0  0  0
  4  5  1  0  0  0  0
  5  6  2  0  0  0  0
  5  7  1  0  0  0  0
  7  8  1  0  0  0  0
  8  9  1  0  0  0  0
  8 13  1  0  0  0  0
  9 10  1  0  0  0  0
 10 11  1  0  0  0  0
 11 12  1  0  0  0  0
 12 13  1  0  0  0  0
 14 15  1  0  0  0  0
 14 19  2  0  0  0  0
 15 16  2  0  0  0  0
 16 17  1  0  0  0  0
 17 18  2  0  0  0  0
 17 20  1  0  0  0  0
 18 19  1  0  0  0  0
 20 21  2  0  0  0  0
 20 22  1  0  0  0  0
M  END
>  <Index>
1423

>  <ID>
HT0056

>  <class>
1

>  <apol>
48.043861

>  <ast_fraglike>
0

>  <ast_fraglike_ext>
0

>  <ast_violation>
2

>  <ast_violation_ext>
4

>  <a_acc>
4

>  <a_acid>
0

>  <a_aro>
6

>  <a_base>
0

>  <a_count>
42

>  <a_don>
2

>  <a_donacc>
6

>  <a_heavy>
22

>  <a_hyd>
13

>  <a_IC>
71.43541

>  <a_ICM>
1.7008431

>  <a_nB>
0

>  <a_nBr>
0

>  <a_nC>
15

>  <a_nCl>
0

>  <a_nF>
0

>  <a_nH>
20

>  <a_nI>
0

>  <a_nN>
2

>  <a_nO>
4

>  <a_nP>
0

>  <a_nS>
1

>  <balabanJ>
1.7744197

>  <BCUT_PEOE_0>
-2.8065362

>  <BCUT_PEOE_1>
-0.62888855

>  <BCUT_PEOE_2>
0.62112921

>  <BCUT_PEOE_3>
2.7123063

>  <BCUT_SLOGP_0>
-2.7951536

>  <BCUT_SLOGP_1>
-0.51853567

>  <BCUT_SLOGP_2>
0.67847031

>  <BCUT_SLOGP_3>
2.8320704

>  <BCUT_SMR_0>
-2.5291378

>  <BCUT_SMR_1>
-0.4507452

>  <BCUT_SMR_2>
0.75918078

>  <BCUT_SMR_3>
2.9867673

>  <bpol>
31.576139

>  <b_1rotN>
4

>  <b_1rotR>
0.17391305

>  <b_ar>
6

>  <b_count>
43

>  <b_double>
2

>  <b_heavy>
23

>  <b_max1len>
3

>  <b_rotN>
6

>  <b_rotR>
0.26086956

>  <b_single>
35

>  <b_triple>
0

>  <chi0>
16.164927

>  <chi0v>
13.280024

>  <chi0v_C>
9.4222851

>  <chi0_C>
10.250712

>  <chi1>
10.381847

>  <chi1v>
8.8095322

>  <chi1v_C>
5.3878636

>  <chi1_C>
6.3601732

>  <chiral>
0

>  <chiral_u>
0

>  <density>
0.7942825

>  <diameter>
13

>  <FCharge>
0

>  <GCUT_PEOE_0>
-0.91882265

>  <GCUT_PEOE_1>
-0.39004165

>  <GCUT_PEOE_2>
0.073954843

>  <GCUT_PEOE_3>
2.5919399

>  <GCUT_SLOGP_0>
-1.1809571

>  <GCUT_SLOGP_1>
-0.36180055

>  <GCUT_SLOGP_2>
0.1631813

>  <GCUT_SLOGP_3>
2.6347129

>  <GCUT_SMR_0>
-0.52668196

>  <GCUT_SMR_1>
-0.21016708

>  <GCUT_SMR_2>
0.18797426

>  <GCUT_SMR_3>
2.849622

>  <Kier1>
18.340265

>  <Kier2>
8.203125

>  <Kier3>
5.5514975

>  <KierA1>
15.368888

>  <KierA2>
6.8126721

>  <KierA3>
4.5805697

>  <KierFlex>
4.7592363

>  <lip_acc>
6

>  <lip_don>
2

>  <lip_druglike>
1

>  <lip_violation>
0

>  <logP(o/w)>
2.2309999

>  <logS>
-3.43469

>  <mr>
8.5100183

>  <mutagenic>
0

>  <nmol>
1

>  <opr_brigid>
12

>  <opr_leadlike>
1

>  <opr_nring>
2

>  <opr_nrot>
5

>  <opr_violation>
0

>  <PC+>
0

>  <PC->
0

>  <PEOE_PC+>
1.8246857

>  <PEOE_PC->
-1.8246857

>  <PEOE_RPC+>
0.17349215

>  <PEOE_RPC->
0.27073541

>  <PEOE_VSA+0>
86.433754

>  <PEOE_VSA+1>
25.680557

>  <PEOE_VSA+2>
17.440542

>  <PEOE_VSA+3>
17.077532

>  <PEOE_VSA+4>
10.105608

>  <PEOE_VSA+5>
0

>  <PEOE_VSA+6>
4.1846013

>  <PEOE_VSA-0>
95.822594

>  <PEOE_VSA-1>
26.103939

>  <PEOE_VSA-2>
0

>  <PEOE_VSA-3>
2.5295215

>  <PEOE_VSA-4>
0

>  <PEOE_VSA-5>
13.566921

>  <PEOE_VSA-6>
13.703812

>  <PEOE_VSA_FHYD>
0.86706853

>  <PEOE_VSA_FNEG>
0.48529375

>  <PEOE_VSA_FPNEG>
0.087224647

>  <PEOE_VSA_FPOL>
0.13293147

>  <PEOE_VSA_FPOS>
0.51470625

>  <PEOE_VSA_FPPOS>
0.045706823

>  <PEOE_VSA_HYD>
271.08844

>  <PEOE_VSA_NEG>
151.72679

>  <PEOE_VSA_PNEG>
27.270733

>  <PEOE_VSA_POL>
41.560944

>  <PEOE_VSA_POS>
160.92259

>  <PEOE_VSA_PPOS>
14.29021

>  <petitjean>
0.46153846

>  <petitjeanSC>
0.85714287

>  <Q_PC+>
0

>  <Q_PC->
0

>  <Q_RPC+>
0

>  <Q_RPC->
0

>  <Q_VSA_FHYD>
1

>  <Q_VSA_FNEG>
0

>  <Q_VSA_FPNEG>
0

>  <Q_VSA_FPOL>
0

>  <Q_VSA_FPOS>
1

>  <Q_VSA_FPPOS>
0

>  <Q_VSA_HYD>
312.64938

>  <Q_VSA_NEG>
0

>  <Q_VSA_PNEG>
0

>  <Q_VSA_POL>
0

>  <Q_VSA_POS>
312.64938

>  <Q_VSA_PPOS>
0

>  <radius>
7

>  <reactive>
1

>  <rings>
2

>  <RPC+>
0

>  <RPC->
0

>  <rsynth>
1

>  <SlogP>
2.2098

>  <SlogP_VSA0>
34.415749

>  <SlogP_VSA1>
58.689255

>  <SlogP_VSA2>
10.622711

>  <SlogP_VSA3>
0

>  <SlogP_VSA4>
27.047791

>  <SlogP_VSA5>
1.5507339

>  <SlogP_VSA6>
0

>  <SlogP_VSA7>
70.572739

>  <SlogP_VSA8>
94.342026

>  <SlogP_VSA9>
57.188232

>  <SMR>
8.2172699

>  <SMR_VSA0>
95.896118

>  <SMR_VSA1>
0

>  <SMR_VSA2>
35.96648

>  <SMR_VSA3>
7.1675434

>  <SMR_VSA4>
0

>  <SMR_VSA5>
164.91476

>  <SMR_VSA6>
10.517568

>  <SMR_VSA7>
39.966759

>  <TPSA>
92.339996

>  <VAdjEq>
0.4530769

>  <VAdjMa>
5.523562

>  <VDistEq>
3.4538388

>  <VDistMa>
8.5953512

>  <vdw_area>
312.64938

>  <vdw_vol>
408.42017

>  <vsa_acc>
59.150364

>  <vsa_acid>
0

>  <vsa_base>
0

>  <vsa_don>
13.757783

>  <vsa_hyd>
184.77759

>  <vsa_other>
36.004669

>  <vsa_pol>
72.90815

>  <Weight>
324.401

>  <weinerPath>
1176

>  <weinerPol>
31

>  <zagreb>
110

$$$$