OC(=O)[C@H]1N(CCC1)C(=O)[C@@H](N[C@@H](CCc1ccccc1)C(O)=O)C
  MOE2013           2D

 25 26  0  0  1  0  0  0  0  0999 V2000
    0.0000    0.0000    0.0000 O   0  0  0  0  0  0  0  0  0  0  0  0
   -0.0050   -1.5000    0.0000 C   0  0  0  0  0  0  0  0  0  0  0  0
   -1.3060   -2.2460    0.0000 O   0  0  0  0  0  0  0  0  0  0  0  0
    1.2920   -2.2540    0.0000 C   0  0  1  0  0  0  0  0  0  0  0  0
    2.6640   -1.6480    0.0000 N   0  0  0  0  0  0  0  0  0  0  0  0
    3.6650   -2.7660    0.0000 C   0  0  0  0  0  0  0  0  0  0  0  0
    2.9110   -4.0630    0.0000 C   0  0  0  0  0  0  0  0  0  0  0  0
    1.4440   -3.7460    0.0000 C   0  0  0  0  0  0  0  0  0  0  0  0
    2.9810   -0.1820    0.0000 C   0  0  0  0  0  0  0  0  0  0  0  0
    1.8690    0.8250    0.0000 O   0  0  0  0  0  0  0  0  0  0  0  0
    4.4090    0.2770    0.0000 C   0  0  1  0  0  0  0  0  0  0  0  0
    4.7250    1.7440    0.0000 N   0  0  0  0  0  0  0  0  0  0  0  0
    6.1530    2.2030    0.0000 C   0  0  1  0  0  0  0  0  0  0  0  0
    7.2650    1.1960    0.0000 C   0  0  0  0  0  0  0  0  0  0  0  0
    8.6930    1.6550    0.0000 C   0  0  0  0  0  0  0  0  0  0  0  0
    9.8040    0.6480    0.0000 C   0  0  0  0  0  0  0  0  0  0  0  0
   11.2320    1.1070    0.0000 C   0  0  0  0  0  0  0  0  0  0  0  0
   12.3440    0.1000    0.0000 C   0  0  0  0  0  0  0  0  0  0  0  0
   12.0280   -1.3660    0.0000 C   0  0  0  0  0  0  0  0  0  0  0  0
   10.6000   -1.8260    0.0000 C   0  0  0  0  0  0  0  0  0  0  0  0
    9.4880   -0.8190    0.0000 C   0  0  0  0  0  0  0  0  0  0  0  0
    6.4690    3.6690    0.0000 C   0  0  0  0  0  0  0  0  0  0  0  0
    5.3580    4.6760    0.0000 O   0  0  0  0  0  0  0  0  0  0  0  0
    7.8970    4.1280    0.0000 O   0  0  0  0  0  0  0  0  0  0  0  0
    5.5200   -0.7300    0.0000 C   0  0  0  0  0  0  0  0  0  0  0  0
  1  2  1  0  0  0  0
  2  3  2  0  0  0  0
  4  2  1  1  0  0  0
  4  5  1  0  0  0  0
  4  8  1  0  0  0  0
  5  6  1  0  0  0  0
  5  9  1  0  0  0  0
  6  7  1  0  0  0  0
  7  8  1  0  0  0  0
  9 10  2  0  0  0  0
  9 11  1  0  0  0  0
 11 12  1  0  0  0  0
 11 25  1  1  0  0  0
 12 13  1  0  0  0  0
 13 14  1  6  0  0  0
 13 22  1  0  0  0  0
 14 15  1  0  0  0  0
 15 16  1  0  0  0  0
 16 17  1  0  0  0  0
 16 21  2  0  0  0  0
 17 18  2  0  0  0  0
 18 19  1  0  0  0  0
 19 20  2  0  0  0  0
 20 21  1  0  0  0  0
 22 23  1  0  0  0  0
 22 24  2  0  0  0  0
M  END
>  <Index>
1547

>  <ID>
HT0754

>  <class>
1

>  <apol>
53.893032

>  <ast_fraglike>
0

>  <ast_fraglike_ext>
0

>  <ast_violation>
3

>  <ast_violation_ext>
5

>  <a_acc>
6

>  <a_acid>
0

>  <a_aro>
6

>  <a_base>
0

>  <a_count>
49

>  <a_don>
5

>  <a_donacc>
11

>  <a_heavy>
25

>  <a_hyd>
15

>  <a_IC>
76.413391

>  <a_ICM>
1.5594569

>  <a_nB>
0

>  <a_nBr>
0

>  <a_nC>
18

>  <a_nCl>
0

>  <a_nF>
0

>  <a_nH>
24

>  <a_nI>
0

>  <a_nN>
2

>  <a_nO>
5

>  <a_nP>
0

>  <a_nS>
0

>  <balabanJ>
1.8452234

>  <BCUT_PEOE_0>
-2.6292713

>  <BCUT_PEOE_1>
-0.52838111

>  <BCUT_PEOE_2>
0.57989079

>  <BCUT_PEOE_3>
2.7336776

>  <BCUT_SLOGP_0>
-2.8183424

>  <BCUT_SLOGP_1>
-0.52558798

>  <BCUT_SLOGP_2>
0.67700607

>  <BCUT_SLOGP_3>
2.6893957

>  <BCUT_SMR_0>
-2.3752737

>  <BCUT_SMR_1>
-0.38985455

>  <BCUT_SMR_2>
0.7123698

>  <BCUT_SMR_3>
2.9820132

>  <bpol>
31.750969

>  <b_1rotN>
9

>  <b_1rotR>
0.34615386

>  <b_ar>
6

>  <b_count>
50

>  <b_double>
3

>  <b_heavy>
26

>  <b_max1len>
7

>  <b_rotN>
9

>  <b_rotR>
0.34615386

>  <b_single>
41

>  <b_triple>
0

>  <chi0>
18.396976

>  <chi0v>
14.220721

>  <chi0v_C>
11.154336

>  <chi0_C>
12.112519

>  <chi1>
11.896754

>  <chi1v>
8.4590788

>  <chi1v_C>
6.0241094

>  <chi1_C>
7.1185918

>  <chiral>
3

>  <chiral_u>
0

>  <density>
0.75265247

>  <diameter>
13

>  <FCharge>
0

>  <GCUT_PEOE_0>
-0.83770365

>  <GCUT_PEOE_1>
-0.41563028

>  <GCUT_PEOE_2>
0.076134503

>  <GCUT_PEOE_3>
2.7400987

>  <GCUT_SLOGP_0>
-1.1549619

>  <GCUT_SLOGP_1>
-0.39400128

>  <GCUT_SLOGP_2>
0.13827099

>  <GCUT_SLOGP_3>
2.6973062

>  <GCUT_SMR_0>
-0.52480841

>  <GCUT_SMR_1>
-0.23314883

>  <GCUT_SMR_2>
0.17917423

>  <GCUT_SMR_3>
2.9729679

>  <Kier1>
21.301775

>  <Kier2>
10.364081

>  <Kier3>
6.2823148

>  <KierA1>
16.801643

>  <KierA2>
8.0883207

>  <KierA3>
4.8639255

>  <KierFlex>
5.4358835

>  <lip_acc>
7

>  <lip_don>
3

>  <lip_druglike>
1

>  <lip_violation>
0

>  <logP(o/w)>
1.7869999

>  <logS>
-2.3264699

>  <mr>
9.3225851

>  <mutagenic>
0

>  <nmol>
1

>  <opr_brigid>
11

>  <opr_leadlike>
1

>  <opr_nring>
2

>  <opr_nrot>
9

>  <opr_violation>
0

>  <PC+>
0

>  <PC->
0

>  <PEOE_PC+>
2.5752282

>  <PEOE_PC->
-2.5752282

>  <PEOE_RPC+>
0.10965551

>  <PEOE_RPC->
0.12817968

>  <PEOE_VSA+0>
68.642342

>  <PEOE_VSA+1>
40.415009

>  <PEOE_VSA+2>
11.764974

>  <PEOE_VSA+3>
0

>  <PEOE_VSA+4>
33.597878

>  <PEOE_VSA+5>
29.416998

>  <PEOE_VSA+6>
0

>  <PEOE_VSA-0>
55.761471

>  <PEOE_VSA-1>
61.274521

>  <PEOE_VSA-2>
0

>  <PEOE_VSA-3>
0

>  <PEOE_VSA-4>
0

>  <PEOE_VSA-5>
40.837654

>  <PEOE_VSA-6>
15.535081

>  <PEOE_VSA_FHYD>
0.66581112

>  <PEOE_VSA_FNEG>
0.48540434

>  <PEOE_VSA_FPNEG>
0.15779811

>  <PEOE_VSA_FPOL>
0.33418885

>  <PEOE_VSA_FPOS>
0.51459563

>  <PEOE_VSA_FPPOS>
0.17639075

>  <PEOE_VSA_HYD>
237.85832

>  <PEOE_VSA_NEG>
173.40872

>  <PEOE_VSA_PNEG>
56.372734

>  <PEOE_VSA_POL>
119.38761

>  <PEOE_VSA_POS>
183.8372

>  <PEOE_VSA_PPOS>
63.014874

>  <petitjean>
0.46153846

>  <petitjeanSC>
0.85714287

>  <Q_PC+>
0

>  <Q_PC->
0

>  <Q_RPC+>
0

>  <Q_RPC->
0

>  <Q_VSA_FHYD>
1

>  <Q_VSA_FNEG>
0

>  <Q_VSA_FPNEG>
0

>  <Q_VSA_FPOL>
0

>  <Q_VSA_FPOS>
1

>  <Q_VSA_FPPOS>
0

>  <Q_VSA_HYD>
357.24591

>  <Q_VSA_NEG>
0

>  <Q_VSA_PNEG>
0

>  <Q_VSA_POL>
0

>  <Q_VSA_POS>
357.24591

>  <Q_VSA_PPOS>
0

>  <radius>
7

>  <reactive>
0

>  <rings>
2

>  <RPC+>
0

>  <RPC->
0

>  <rsynth>
1

>  <SlogP>
1.12607

>  <SlogP_VSA0>
18.01075

>  <SlogP_VSA1>
23.874025

>  <SlogP_VSA2>
83.532555

>  <SlogP_VSA3>
69.21003

>  <SlogP_VSA4>
3.185575

>  <SlogP_VSA5>
18.868406

>  <SlogP_VSA6>
0

>  <SlogP_VSA7>
88.215919

>  <SlogP_VSA8>
56.605217

>  <SlogP_VSA9>
33.326015

>  <SMR>
9.11553

>  <SMR_VSA0>
71.586647

>  <SMR_VSA1>
3.1243138

>  <SMR_VSA2>
68.781204

>  <SMR_VSA3>
15.131481

>  <SMR_VSA4>
0

>  <SMR_VSA5>
163.68954

>  <SMR_VSA6>
39.189289

>  <SMR_VSA7>
33.326015

>  <TPSA>
106.94

>  <VAdjEq>
0.41335541

>  <VAdjMa>
5.7004399

>  <VDistEq>
3.5056729

>  <VDistMa>
8.9932957

>  <vdw_area>
357.24591

>  <vdw_vol>
462.8949

>  <vsa_acc>
13.566921

>  <vsa_acid>
0

>  <vsa_base>
0

>  <vsa_don>
0

>  <vsa_hyd>
214.2916

>  <vsa_other>
42.366531

>  <vsa_pol>
73.517181

>  <Weight>
348.39899

>  <weinerPath>
1634

>  <weinerPol>
35

>  <zagreb>
122

$$$$