Fc1ccc(cc1)[C@@H]1CCNC[C@H]1COc1cc2OCOc2cc1
  MOE2013           2D

 24 27  0  0  1  0  0  0  0  0999 V2000
    0.0000    0.0000    0.0000 F   0  0  0  0  0  0  0  0  0  0  0  0
    0.7570    1.2950    0.0000 C   0  0  0  0  0  0  0  0  0  0  0  0
    0.0140    2.5980    0.0000 C   0  0  0  0  0  0  0  0  0  0  0  0
    0.7710    3.8930    0.0000 C   0  0  0  0  0  0  0  0  0  0  0  0
    2.2710    3.8850    0.0000 C   0  0  0  0  0  0  0  0  0  0  0  0
    3.0140    2.5820    0.0000 C   0  0  0  0  0  0  0  0  0  0  0  0
    2.2570    1.2870    0.0000 C   0  0  0  0  0  0  0  0  0  0  0  0
    3.0270    5.1800    0.0000 C   0  0  2  0  0  0  0  0  0  0  0  0
    2.2840    6.4830    0.0000 C   0  0  0  0  0  0  0  0  0  0  0  0
    3.0410    7.7780    0.0000 C   0  0  0  0  0  0  0  0  0  0  0  0
    4.5410    7.7700    0.0000 N   0  0  0  0  0  0  0  0  0  0  0  0
    5.2840    6.4670    0.0000 C   0  0  0  0  0  0  0  0  0  0  0  0
    4.5270    5.1720    0.0000 C   0  0  1  0  0  0  0  0  0  0  0  0
    5.2710    3.8690    0.0000 C   0  0  0  0  0  0  0  0  0  0  0  0
    6.7710    3.8610    0.0000 O   0  0  0  0  0  0  0  0  0  0  0  0
    7.5140    2.5580    0.0000 C   0  0  0  0  0  0  0  0  0  0  0  0
    9.0140    2.5500    0.0000 C   0  0  0  0  0  0  0  0  0  0  0  0
    9.7570    1.2470    0.0000 C   0  0  0  0  0  0  0  0  0  0  0  0
   11.2220    0.9280    0.0000 O   0  0  0  0  0  0  0  0  0  0  0  0
   11.3710   -0.5650    0.0000 C   0  0  0  0  0  0  0  0  0  0  0  0
    9.9980   -1.1680    0.0000 O   0  0  0  0  0  0  0  0  0  0  0  0
    9.0000   -0.0480    0.0000 C   0  0  0  0  0  0  0  0  0  0  0  0
    7.5000   -0.0400    0.0000 C   0  0  0  0  0  0  0  0  0  0  0  0
    6.7570    1.2630    0.0000 C   0  0  0  0  0  0  0  0  0  0  0  0
  1  2  1  0  0  0  0
  2  3  1  0  0  0  0
  2  7  2  0  0  0  0
  3  4  2  0  0  0  0
  4  5  1  0  0  0  0
  5  6  2  0  0  0  0
  6  7  1  0  0  0  0
  8  5  1  6  0  0  0
  8  9  1  0  0  0  0
  8 13  1  0  0  0  0
  9 10  1  0  0  0  0
 10 11  1  0  0  0  0
 11 12  1  0  0  0  0
 12 13  1  0  0  0  0
 13 14  1  1  0  0  0
 14 15  1  0  0  0  0
 15 16  1  0  0  0  0
 16 17  1  0  0  0  0
 16 24  2  0  0  0  0
 17 18  2  0  0  0  0
 18 19  1  0  0  0  0
 18 22  1  0  0  0  0
 19 20  1  0  0  0  0
 20 21  1  0  0  0  0
 21 22  1  0  0  0  0
 22 23  2  0  0  0  0
 23 24  1  0  0  0  0
M  END
>  <Index>
1685

>  <ID>
HT1598

>  <class>
1

>  <apol>
50.83886

>  <ast_fraglike>
0

>  <ast_fraglike_ext>
0

>  <ast_violation>
3

>  <ast_violation_ext>
4

>  <a_acc>
4

>  <a_acid>
0

>  <a_aro>
12

>  <a_base>
0

>  <a_count>
44

>  <a_don>
1

>  <a_donacc>
5

>  <a_heavy>
24

>  <a_hyd>
19

>  <a_IC>
68.310921

>  <a_ICM>
1.5525209

>  <a_nB>
0

>  <a_nBr>
0

>  <a_nC>
19

>  <a_nCl>
0

>  <a_nF>
1

>  <a_nH>
20

>  <a_nI>
0

>  <a_nN>
1

>  <a_nO>
3

>  <a_nP>
0

>  <a_nS>
0

>  <balabanJ>
1.2756878

>  <BCUT_PEOE_0>
-2.7815652

>  <BCUT_PEOE_1>
-0.62880915

>  <BCUT_PEOE_2>
0.6227119

>  <BCUT_PEOE_3>
2.7356136

>  <BCUT_SLOGP_0>
-2.8505082

>  <BCUT_SLOGP_1>
-0.53315085

>  <BCUT_SLOGP_2>
0.74485523

>  <BCUT_SLOGP_3>
2.7462492

>  <BCUT_SMR_0>
-2.5206366

>  <BCUT_SMR_1>
-0.46814585

>  <BCUT_SMR_2>
0.81022263

>  <BCUT_SMR_3>
2.9921746

>  <bpol>
29.47514

>  <b_1rotN>
4

>  <b_1rotR>
0.14814815

>  <b_ar>
12

>  <b_count>
47

>  <b_double>
0

>  <b_heavy>
27

>  <b_max1len>
3

>  <b_rotN>
4

>  <b_rotR>
0.14814815

>  <b_single>
35

>  <b_triple>
0

>  <chi0>
16.35516

>  <chi0v>
13.334395

>  <chi0v_C>
11.231687

>  <chi0_C>
12.526733

>  <chi1>
11.792827

>  <chi1v>
8.2806416

>  <chi1v_C>
5.9061546

>  <chi1_C>
7.4907312

>  <chiral>
2

>  <chiral_u>
0

>  <density>
0.75118345

>  <diameter>
13

>  <FCharge>
0

>  <GCUT_PEOE_0>
-0.8487103

>  <GCUT_PEOE_1>
-0.41307551

>  <GCUT_PEOE_2>
0.048336636

>  <GCUT_PEOE_3>
2.7423725

>  <GCUT_SLOGP_0>
-1.1533765

>  <GCUT_SLOGP_1>
-0.34798974

>  <GCUT_SLOGP_2>
0.16226229

>  <GCUT_SLOGP_3>
2.811532

>  <GCUT_SMR_0>
-0.52029204

>  <GCUT_SMR_1>
-0.21406545

>  <GCUT_SMR_2>
0.16785277

>  <GCUT_SMR_3>
2.9918139

>  <Kier1>
17.415638

>  <Kier2>
8.1314831

>  <Kier3>
4.2332363

>  <KierA1>
14.035199

>  <KierA2>
6.4876385

>  <KierA3>
3.3530998

>  <KierFlex>
3.7939708

>  <lip_acc>
4

>  <lip_don>
1

>  <lip_druglike>
1

>  <lip_violation>
0

>  <logP(o/w)>
3.4389999

>  <logS>
-3.5831499

>  <mr>
9.0266733

>  <mutagenic>
0

>  <nmol>
1

>  <opr_brigid>
22

>  <opr_leadlike>
1

>  <opr_nring>
4

>  <opr_nrot>
6

>  <opr_violation>
0

>  <PC+>
0

>  <PC->
0

>  <PEOE_PC+>
1.80366

>  <PEOE_PC->
-1.80366

>  <PEOE_RPC+>
0.088726334

>  <PEOE_RPC->
0.19087493

>  <PEOE_VSA+0>
59.570316

>  <PEOE_VSA+1>
70.329056

>  <PEOE_VSA+2>
34.556896

>  <PEOE_VSA+3>
21.201273

>  <PEOE_VSA+4>
0

>  <PEOE_VSA+5>
0

>  <PEOE_VSA+6>
0

>  <PEOE_VSA-0>
73.121796

>  <PEOE_VSA-1>
24.509808

>  <PEOE_VSA-2>
0

>  <PEOE_VSA-3>
0

>  <PEOE_VSA-4>
11.908636

>  <PEOE_VSA-5>
0

>  <PEOE_VSA-6>
7.6481595

>  <PEOE_VSA_FHYD>
0.93542331

>  <PEOE_VSA_FNEG>
0.38695714

>  <PEOE_VSA_FPNEG>
0.064576708

>  <PEOE_VSA_FPOL>
0.064576708

>  <PEOE_VSA_FPOS>
0.61304289

>  <PEOE_VSA_FPPOS>
0

>  <PEOE_VSA_HYD>
283.28915

>  <PEOE_VSA_NEG>
117.18839

>  <PEOE_VSA_PNEG>
19.556795

>  <PEOE_VSA_POL>
19.556795

>  <PEOE_VSA_POS>
185.65755

>  <PEOE_VSA_PPOS>
0

>  <petitjean>
0.46153846

>  <petitjeanSC>
0.85714287

>  <Q_PC+>
0

>  <Q_PC->
0

>  <Q_RPC+>
0

>  <Q_RPC->
0

>  <Q_VSA_FHYD>
1

>  <Q_VSA_FNEG>
0

>  <Q_VSA_FPNEG>
0

>  <Q_VSA_FPOL>
0

>  <Q_VSA_FPOS>
1

>  <Q_VSA_FPPOS>
0

>  <Q_VSA_HYD>
302.84595

>  <Q_VSA_NEG>
0

>  <Q_VSA_PNEG>
0

>  <Q_VSA_POL>
0

>  <Q_VSA_POS>
302.84595

>  <Q_VSA_PPOS>
0

>  <radius>
7

>  <reactive>
0

>  <rings>
4

>  <RPC+>
0

>  <RPC->
0

>  <rsynth>
1

>  <SlogP>
3.3264999

>  <SlogP_VSA0>
51.010414

>  <SlogP_VSA1>
0

>  <SlogP_VSA2>
9.1210184

>  <SlogP_VSA3>
80.789528

>  <SlogP_VSA4>
7.5963712

>  <SlogP_VSA5>
0

>  <SlogP_VSA6>
4.4107962

>  <SlogP_VSA7>
123.50229

>  <SlogP_VSA8>
18.868406

>  <SlogP_VSA9>
30.690397

>  <SMR>
8.81777

>  <SMR_VSA0>
0

>  <SMR_VSA1>
47.959778

>  <SMR_VSA2>
31.542564

>  <SMR_VSA3>
23.326654

>  <SMR_VSA4>
0

>  <SMR_VSA5>
142.3707

>  <SMR_VSA6>
80.789528

>  <SMR_VSA7>
0

>  <TPSA>
39.720001

>  <VAdjEq>
0.44886449

>  <VAdjMa>
5.7548876

>  <VDistEq>
3.4698164

>  <VDistMa>
8.8586054

>  <vdw_area>
302.84595

>  <vdw_vol>
438.46945

>  <vsa_acc>
7.5112681

>  <vsa_acid>
0

>  <vsa_base>
0

>  <vsa_don>
0

>  <vsa_hyd>
242.05611

>  <vsa_other>
28.308455

>  <vsa_pol>
13.193845

>  <Weight>
329.371

>  <weinerPath>
1445

>  <weinerPol>
35

>  <zagreb>
128

$$$$