Clc1cccc(Cl)c1Nc1ccccc1CC(O)=O
  MOE2013           2D

 19 20  0  0  0  0  0  0  0  0999 V2000
    0.0000    0.0000    0.0000 Cl  0  0  0  0  0  0  0  0  0  0  0  0
    0.7440   -1.3030    0.0000 C   0  0  0  0  0  0  0  0  0  0  0  0
    2.2440   -1.3100    0.0000 C   0  0  0  0  0  0  0  0  0  0  0  0
    2.9870   -2.6130    0.0000 C   0  0  0  0  0  0  0  0  0  0  0  0
    2.2310   -3.9080    0.0000 C   0  0  0  0  0  0  0  0  0  0  0  0
    0.7310   -3.9010    0.0000 C   0  0  0  0  0  0  0  0  0  0  0  0
   -0.0260   -5.1960    0.0000 Cl  0  0  0  0  0  0  0  0  0  0  0  0
   -0.0130   -2.5980    0.0000 C   0  0  0  0  0  0  0  0  0  0  0  0
   -1.5130   -2.5910    0.0000 N   0  0  0  0  0  0  0  0  0  0  0  0
   -2.2690   -3.8860    0.0000 C   0  0  0  0  0  0  0  0  0  0  0  0
   -1.5260   -5.1890    0.0000 C   0  0  0  0  0  0  0  0  0  0  0  0
   -2.2820   -6.4840    0.0000 C   0  0  0  0  0  0  0  0  0  0  0  0
   -3.7820   -6.4760    0.0000 C   0  0  0  0  0  0  0  0  0  0  0  0
   -4.5260   -5.1740    0.0000 C   0  0  0  0  0  0  0  0  0  0  0  0
   -3.7690   -3.8780    0.0000 C   0  0  0  0  0  0  0  0  0  0  0  0
   -4.5130   -2.5760    0.0000 C   0  0  0  0  0  0  0  0  0  0  0  0
   -6.0130   -2.5680    0.0000 C   0  0  0  0  0  0  0  0  0  0  0  0
   -6.7560   -1.2650    0.0000 O   0  0  0  0  0  0  0  0  0  0  0  0
   -6.7690   -3.8630    0.0000 O   0  0  0  0  0  0  0  0  0  0  0  0
  1  2  1  0  0  0  0
  2  3  1  0  0  0  0
  2  8  2  0  0  0  0
  3  4  2  0  0  0  0
  4  5  1  0  0  0  0
  5  6  2  0  0  0  0
  6  7  1  0  0  0  0
  6  8  1  0  0  0  0
  8  9  1  0  0  0  0
  9 10  1  0  0  0  0
 10 11  1  0  0  0  0
 10 15  2  0  0  0  0
 11 12  2  0  0  0  0
 12 13  1  0  0  0  0
 13 14  2  0  0  0  0
 14 15  1  0  0  0  0
 15 16  1  0  0  0  0
 16 17  1  0  0  0  0
 17 18  1  0  0  0  0
 17 19  2  0  0  0  0
M  END
>  <Index>
1524

>  <ID>
HT0648

>  <class>
1

>  <apol>
39.038723

>  <ast_fraglike>
0

>  <ast_fraglike_ext>
0

>  <ast_violation>
1

>  <ast_violation_ext>
2

>  <a_acc>
2

>  <a_acid>
0

>  <a_aro>
12

>  <a_base>
0

>  <a_count>
30

>  <a_don>
3

>  <a_donacc>
5

>  <a_heavy>
19

>  <a_hyd>
15

>  <a_IC>
51.850002

>  <a_ICM>
1.7283334

>  <a_nB>
0

>  <a_nBr>
0

>  <a_nC>
14

>  <a_nCl>
2

>  <a_nF>
0

>  <a_nH>
11

>  <a_nI>
0

>  <a_nN>
1

>  <a_nO>
2

>  <a_nP>
0

>  <a_nS>
0

>  <balabanJ>
1.9482917

>  <BCUT_PEOE_0>
-2.3474817

>  <BCUT_PEOE_1>
-0.58323908

>  <BCUT_PEOE_2>
0.62074029

>  <BCUT_PEOE_3>
2.3598173

>  <BCUT_SLOGP_0>
-2.3338251

>  <BCUT_SLOGP_1>
-0.45008898

>  <BCUT_SLOGP_2>
0.80778444

>  <BCUT_SLOGP_3>
2.4678297

>  <BCUT_SMR_0>
-2.0428791

>  <BCUT_SMR_1>
-0.37942654

>  <BCUT_SMR_2>
0.82986158

>  <BCUT_SMR_3>
2.6569932

>  <bpol>
14.483277

>  <b_1rotN>
4

>  <b_1rotR>
0.2

>  <b_ar>
12

>  <b_count>
31

>  <b_double>
1

>  <b_heavy>
20

>  <b_max1len>
2

>  <b_rotN>
4

>  <b_rotR>
0.2

>  <b_single>
18

>  <b_triple>
0

>  <chi0>
13.828063

>  <chi0v>
11.371807

>  <chi0v_C>
7.7485585

>  <chi0_C>
9.1209555

>  <chi1>
9.075387

>  <chi1v>
6.3400984

>  <chi1v_C>
4.2784739

>  <chi1_C>
5.9494896

>  <chiral>
0

>  <chiral_u>
0

>  <density>
0.84469801

>  <diameter>
9

>  <FCharge>
0

>  <GCUT_PEOE_0>
-0.79436409

>  <GCUT_PEOE_1>
-0.43520927

>  <GCUT_PEOE_2>
0.074322633

>  <GCUT_PEOE_3>
2.3512256

>  <GCUT_SLOGP_0>
-0.89725846

>  <GCUT_SLOGP_1>
-0.25574338

>  <GCUT_SLOGP_2>
0.27499959

>  <GCUT_SLOGP_3>
2.5247896

>  <GCUT_SMR_0>
-0.45894295

>  <GCUT_SMR_1>
-0.20221165

>  <GCUT_SMR_2>
0.28797534

>  <GCUT_SMR_3>
2.6699986

>  <Kier1>
15.39

>  <Kier2>
7.1358023

>  <Kier3>
4.2314048

>  <KierA1>
12.740488

>  <KierA2>
5.8410082

>  <KierA3>
3.4331977

>  <KierFlex>
3.9166999

>  <lip_acc>
3

>  <lip_don>
2

>  <lip_druglike>
1

>  <lip_violation>
0

>  <logP(o/w)>
4.2309999

>  <logS>
-4.5046501

>  <mr>
7.7124701

>  <mutagenic>
0

>  <nmol>
1

>  <opr_brigid>
12

>  <opr_leadlike>
1

>  <opr_nring>
2

>  <opr_nrot>
4

>  <opr_violation>
0

>  <PC+>
0

>  <PC->
0

>  <PEOE_PC+>
1.3993003

>  <PEOE_PC->
-1.3993003

>  <PEOE_RPC+>
0.18866174

>  <PEOE_RPC->
0.23656212

>  <PEOE_VSA+0>
15.230323

>  <PEOE_VSA+1>
54.298058

>  <PEOE_VSA+2>
8.6190128

>  <PEOE_VSA+3>
0

>  <PEOE_VSA+4>
10.324173

>  <PEOE_VSA+5>
14.708499

>  <PEOE_VSA+6>
0

>  <PEOE_VSA-0>
38.973251

>  <PEOE_VSA-1>
108.18351

>  <PEOE_VSA-2>
0

>  <PEOE_VSA-3>
0

>  <PEOE_VSA-4>
0

>  <PEOE_VSA-5>
13.703812

>  <PEOE_VSA-6>
7.7675405

>  <PEOE_VSA_FHYD>
0.82890868

>  <PEOE_VSA_FNEG>
0.62039381

>  <PEOE_VSA_FPNEG>
0.078994505

>  <PEOE_VSA_FPOL>
0.17109133

>  <PEOE_VSA_FPOS>
0.37960619

>  <PEOE_VSA_FPPOS>
0.092096828

>  <PEOE_VSA_HYD>
225.30415

>  <PEOE_VSA_NEG>
168.62811

>  <PEOE_VSA_PNEG>
21.471352

>  <PEOE_VSA_POL>
46.504025

>  <PEOE_VSA_POS>
103.18007

>  <PEOE_VSA_PPOS>
25.032671

>  <petitjean>
0.44444445

>  <petitjeanSC>
0.80000001

>  <Q_PC+>
0

>  <Q_PC->
0

>  <Q_RPC+>
0

>  <Q_RPC->
0

>  <Q_VSA_FHYD>
1

>  <Q_VSA_FNEG>
0

>  <Q_VSA_FPNEG>
0

>  <Q_VSA_FPOL>
0

>  <Q_VSA_FPOS>
1

>  <Q_VSA_FPPOS>
0

>  <Q_VSA_HYD>
271.80817

>  <Q_VSA_NEG>
0

>  <Q_VSA_PNEG>
0

>  <Q_VSA_POL>
0

>  <Q_VSA_POS>
271.80817

>  <Q_VSA_PPOS>
0

>  <radius>
5

>  <reactive>
0

>  <rings>
2

>  <RPC+>
0

>  <RPC->
0

>  <rsynth>
1

>  <SlogP>
4.3640699

>  <SlogP_VSA0>
0

>  <SlogP_VSA1>
25.756214

>  <SlogP_VSA2>
23.862217

>  <SlogP_VSA3>
25.385227

>  <SlogP_VSA4>
3.185575

>  <SlogP_VSA5>
18.868406

>  <SlogP_VSA6>
7.0012131

>  <SlogP_VSA7>
123.50229

>  <SlogP_VSA8>
0

>  <SlogP_VSA9>
83.810783

>  <SMR>
7.7526498

>  <SMR_VSA0>
23.862217

>  <SMR_VSA1>
0

>  <SMR_VSA2>
25.385227

>  <SMR_VSA3>
10.186788

>  <SMR_VSA4>
23.524246

>  <SMR_VSA5>
142.3707

>  <SMR_VSA6>
7.7454643

>  <SMR_VSA7>
78.297287

>  <TPSA>
49.330002

>  <VAdjEq>
0.5023343

>  <VAdjMa>
5.321928

>  <VDistEq>
3.001415

>  <VDistMa>
8.2169819

>  <vdw_area>
271.80817

>  <vdw_vol>
350.6022

>  <vsa_acc>
0

>  <vsa_acid>
0

>  <vsa_base>
0

>  <vsa_don>
5.6825762

>  <vsa_hyd>
210.27899

>  <vsa_other>
14.708499

>  <vsa_pol>
32.816418

>  <Weight>
296.15298

>  <weinerPath>
706

>  <weinerPol>
27

>  <zagreb>
94

$$$$