ClC(=C(/c1ccc(OC)cc1)c1ccc(OC)cc1)c1ccc(OC)cc1
  MOE2013           2D

 27 29  0  0  0  0  0  0  0  0999 V2000
    0.0000    0.0000    0.0000 Cl  0  0  0  0  0  0  0  0  0  0  0  0
    0.7450    1.3020    0.0000 C   0  0  0  0  0  0  0  0  0  0  0  0
   -0.0090    2.5980    0.0000 C   0  0  0  0  0  0  0  0  0  0  0  0
    0.7360    3.9000    0.0000 C   0  0  0  0  0  0  0  0  0  0  0  0
   -0.0180    5.1960    0.0000 C   0  0  0  0  0  0  0  0  0  0  0  0
    0.7270    6.4980    0.0000 C   0  0  0  0  0  0  0  0  0  0  0  0
    2.2270    6.5030    0.0000 C   0  0  0  0  0  0  0  0  0  0  0  0
    2.9720    7.8050    0.0000 O   0  0  0  0  0  0  0  0  0  0  0  0
    2.2180    9.1010    0.0000 C   0  0  0  0  0  0  0  0  0  0  0  0
    2.9820    5.2070    0.0000 C   0  0  0  0  0  0  0  0  0  0  0  0
    2.2360    3.9050    0.0000 C   0  0  0  0  0  0  0  0  0  0  0  0
   -1.5090    2.5930    0.0000 C   0  0  0  0  0  0  0  0  0  0  0  0
   -2.2640    3.8890    0.0000 C   0  0  0  0  0  0  0  0  0  0  0  0
   -3.7640    3.8840    0.0000 C   0  0  0  0  0  0  0  0  0  0  0  0
   -4.5090    2.5820    0.0000 C   0  0  0  0  0  0  0  0  0  0  0  0
   -6.0090    2.5770    0.0000 O   0  0  0  0  0  0  0  0  0  0  0  0
   -6.7550    1.2750    0.0000 C   0  0  0  0  0  0  0  0  0  0  0  0
   -3.7550    1.2860    0.0000 C   0  0  0  0  0  0  0  0  0  0  0  0
   -2.2550    1.2910    0.0000 C   0  0  0  0  0  0  0  0  0  0  0  0
    2.2450    1.3070    0.0000 C   0  0  0  0  0  0  0  0  0  0  0  0
    2.9910    2.6090    0.0000 C   0  0  0  0  0  0  0  0  0  0  0  0
    4.4910    2.6140    0.0000 C   0  0  0  0  0  0  0  0  0  0  0  0
    5.2450    1.3180    0.0000 C   0  0  0  0  0  0  0  0  0  0  0  0
    6.7450    1.3230    0.0000 O   0  0  0  0  0  0  0  0  0  0  0  0
    7.5000    0.0270    0.0000 C   0  0  0  0  0  0  0  0  0  0  0  0
    4.5000    0.0160    0.0000 C   0  0  0  0  0  0  0  0  0  0  0  0
    3.0000    0.0110    0.0000 C   0  0  0  0  0  0  0  0  0  0  0  0
  1  2  1  0  0  0  0
  2  3  2  3  0  0  0
  2 20  1  0  0  0  0
  3  4  1  0  0  0  0
  3 12  1  0  0  0  0
  4  5  1  0  0  0  0
  4 11  2  0  0  0  0
  5  6  2  0  0  0  0
  6  7  1  0  0  0  0
  7  8  1  0  0  0  0
  7 10  2  0  0  0  0
  8  9  1  0  0  0  0
 10 11  1  0  0  0  0
 12 13  1  0  0  0  0
 12 19  2  0  0  0  0
 13 14  2  0  0  0  0
 14 15  1  0  0  0  0
 15 16  1  0  0  0  0
 15 18  2  0  0  0  0
 16 17  1  0  0  0  0
 18 19  1  0  0  0  0
 20 21  1  0  0  0  0
 20 27  2  0  0  0  0
 21 22  2  0  0  0  0
 22 23  1  0  0  0  0
 23 24  1  0  0  0  0
 23 26  2  0  0  0  0
 24 25  1  0  0  0  0
 26 27  1  0  0  0  0
M  END
>  <Index>
1490

>  <ID>
HT0462

>  <class>
1

>  <apol>
59.068653

>  <ast_fraglike>
0

>  <ast_fraglike_ext>
0

>  <ast_violation>
2

>  <ast_violation_ext>
3

>  <a_acc>
3

>  <a_acid>
0

>  <a_aro>
18

>  <a_base>
0

>  <a_count>
48

>  <a_don>
0

>  <a_donacc>
3

>  <a_heavy>
27

>  <a_hyd>
24

>  <a_IC>
67.042725

>  <a_ICM>
1.3967234

>  <a_nB>
0

>  <a_nBr>
0

>  <a_nC>
23

>  <a_nCl>
1

>  <a_nF>
0

>  <a_nH>
21

>  <a_nI>
0

>  <a_nN>
0

>  <a_nO>
3

>  <a_nP>
0

>  <a_nS>
0

>  <balabanJ>
1.6611953

>  <BCUT_PEOE_0>
-2.3099141

>  <BCUT_PEOE_1>
-0.64203453

>  <BCUT_PEOE_2>
0.6758973

>  <BCUT_PEOE_3>
2.2716312

>  <BCUT_SLOGP_0>
-2.2520871

>  <BCUT_SLOGP_1>
-0.53807992

>  <BCUT_SLOGP_2>
0.80591482

>  <BCUT_SLOGP_3>
2.4529603

>  <BCUT_SMR_0>
-1.9945935

>  <BCUT_SMR_1>
-0.44009721

>  <BCUT_SMR_2>
0.85431087

>  <BCUT_SMR_3>
2.6103196

>  <bpol>
29.125347

>  <b_1rotN>
6

>  <b_1rotR>
0.20689656

>  <b_ar>
18

>  <b_count>
50

>  <b_double>
1

>  <b_heavy>
29

>  <b_max1len>
2

>  <b_rotN>
6

>  <b_rotR>
0.20689656

>  <b_single>
31

>  <b_triple>
0

>  <chi0>
19.225405

>  <chi0v>
16.286842

>  <chi0v_C>
13.928204

>  <chi0_C>
16.104084

>  <chi1>
13.155728

>  <chi1v>
8.868166

>  <chi1v_C>
6.4641018

>  <chi1_C>
9.2323132

>  <chiral>
0

>  <chiral_u>
0

>  <density>
0.72824007

>  <diameter>
13

>  <FCharge>
0

>  <GCUT_PEOE_0>
-0.78980058

>  <GCUT_PEOE_1>
-0.40238136

>  <GCUT_PEOE_2>
0.017248498

>  <GCUT_PEOE_3>
2.5509858

>  <GCUT_SLOGP_0>
-0.88714212

>  <GCUT_SLOGP_1>
-0.28193223

>  <GCUT_SLOGP_2>
0.16445385

>  <GCUT_SLOGP_3>
2.7298677

>  <GCUT_SMR_0>
-0.48393351

>  <GCUT_SMR_1>
-0.20490201

>  <GCUT_SMR_2>
0.19305076

>  <GCUT_SMR_3>
2.8676667

>  <Kier1>
21.702734

>  <Kier2>
10.683761

>  <Kier3>
5.5384617

>  <KierA1>
16.819929

>  <KierA2>
8.1933641

>  <KierA3>
4.2143002

>  <KierFlex>
5.1041408

>  <lip_acc>
3

>  <lip_don>
0

>  <lip_druglike>
1

>  <lip_violation>
1

>  <logP(o/w)>
6.8200002

>  <logS>
-6.3916202

>  <mr>
11.044952

>  <mutagenic>
0

>  <nmol>
1

>  <opr_brigid>
19

>  <opr_leadlike>
1

>  <opr_nring>
3

>  <opr_nrot>
6

>  <opr_violation>
1

>  <PC+>
0

>  <PC->
0

>  <PEOE_PC+>
1.6577216

>  <PEOE_PC->
-1.6577216

>  <PEOE_RPC+>
0.045755409

>  <PEOE_RPC->
0.20987356

>  <PEOE_VSA+0>
77.201515

>  <PEOE_VSA+1>
119.46841

>  <PEOE_VSA+2>
0

>  <PEOE_VSA+3>
0

>  <PEOE_VSA+4>
0

>  <PEOE_VSA+5>
0

>  <PEOE_VSA+6>
0

>  <PEOE_VSA-0>
80.155045

>  <PEOE_VSA-1>
103.11137

>  <PEOE_VSA-2>
0

>  <PEOE_VSA-3>
0

>  <PEOE_VSA-4>
0

>  <PEOE_VSA-5>
0

>  <PEOE_VSA-6>
7.5112681

>  <PEOE_VSA_FHYD>
0.98061347

>  <PEOE_VSA_FNEG>
0.49239609

>  <PEOE_VSA_FPNEG>
0.019386539

>  <PEOE_VSA_FPOL>
0.019386539

>  <PEOE_VSA_FPOS>
0.50760394

>  <PEOE_VSA_FPPOS>
0

>  <PEOE_VSA_HYD>
379.93634

>  <PEOE_VSA_NEG>
190.77768

>  <PEOE_VSA_PNEG>
7.5112681

>  <PEOE_VSA_POL>
7.5112681

>  <PEOE_VSA_POS>
196.66992

>  <PEOE_VSA_PPOS>
0

>  <petitjean>
0.46153846

>  <petitjeanSC>
0.85714287

>  <Q_PC+>
0

>  <Q_PC->
0

>  <Q_RPC+>
0

>  <Q_RPC->
0

>  <Q_VSA_FHYD>
1

>  <Q_VSA_FNEG>
0

>  <Q_VSA_FPNEG>
0

>  <Q_VSA_FPOL>
0

>  <Q_VSA_FPOS>
1

>  <Q_VSA_FPPOS>
0

>  <Q_VSA_HYD>
387.4476

>  <Q_VSA_NEG>
0

>  <Q_VSA_PNEG>
0

>  <Q_VSA_POL>
0

>  <Q_VSA_POS>
387.4476

>  <Q_VSA_PPOS>
0

>  <radius>
7

>  <reactive>
0

>  <rings>
3

>  <RPC+>
0

>  <RPC->
0

>  <rsynth>
1

>  <SlogP>
5.6850901

>  <SlogP_VSA0>
32.999664

>  <SlogP_VSA1>
0

>  <SlogP_VSA2>
0

>  <SlogP_VSA3>
3.185575

>  <SlogP_VSA4>
9.5567245

>  <SlogP_VSA5>
106.1516

>  <SlogP_VSA6>
0

>  <SlogP_VSA7>
215.21881

>  <SlogP_VSA8>
0

>  <SlogP_VSA9>
54.878929

>  <SMR>
10.9689

>  <SMR_VSA0>
0

>  <SMR_VSA1>
32.999664

>  <SMR_VSA2>
3.185575

>  <SMR_VSA3>
25.287008

>  <SMR_VSA4>
3.5006065

>  <SMR_VSA5>
211.71822

>  <SMR_VSA6>
0

>  <SMR_VSA7>
145.30025

>  <TPSA>
27.690001

>  <VAdjEq>
0.40063059

>  <VAdjMa>
5.8579812

>  <VDistEq>
3.446279

>  <VDistMa>
9.236784

>  <vdw_area>
387.4476

>  <vdw_vol>
523.00195

>  <vsa_acc>
7.5112681

>  <vsa_acid>
0

>  <vsa_base>
0

>  <vsa_don>
0

>  <vsa_hyd>
364.98865

>  <vsa_other>
0

>  <vsa_pol>
7.5112681

>  <Weight>
380.871

>  <weinerPath>
1870

>  <weinerPol>
43

>  <zagreb>
136

$$$$