OC(=O)C[C@H](CC(C)C)CN
  MOE2013           2D

 11 10  0  0  1  0  0  0  0  0999 V2000
    0.0000    0.0000    0.0000 O   0  0  0  0  0  0  0  0  0  0  0  0
   -1.5000    0.0120    0.0000 C   0  0  0  0  0  0  0  0  0  0  0  0
   -2.2610   -1.2800    0.0000 O   0  0  0  0  0  0  0  0  0  0  0  0
   -2.2390    1.3180    0.0000 C   0  0  0  0  0  0  0  0  0  0  0  0
   -3.7390    1.3300    0.0000 C   0  0  2  0  0  0  0  0  0  0  0  0
   -4.5000    0.0370    0.0000 C   0  0  0  0  0  0  0  0  0  0  0  0
   -6.0000    0.0500    0.0000 C   0  0  0  0  0  0  0  0  0  0  0  0
   -6.7390    1.3550    0.0000 C   0  0  0  0  0  0  0  0  0  0  0  0
   -6.7610   -1.2430    0.0000 C   0  0  0  0  0  0  0  0  0  0  0  0
   -4.4780    2.6350    0.0000 C   0  0  0  0  0  0  0  0  0  0  0  0
   -3.7180    3.9280    0.0000 N   0  0  0  0  0  0  0  0  0  0  0  0
  1  2  1  0  0  0  0
  2  3  2  0  0  0  0
  2  4  1  0  0  0  0
  5  4  1  6  0  0  0
  5  6  1  0  0  0  0
  5 10  1  0  0  0  0
  6  7  1  0  0  0  0
  7  8  1  0  0  0  0
  7  9  1  0  0  0  0
 10 11  1  0  0  0  0
M  END
>  <Index>
1699

>  <ID>
HT1735

>  <class>
1

>  <apol>
28.11948

>  <ast_fraglike>
1

>  <ast_fraglike_ext>
0

>  <ast_violation>
0

>  <ast_violation_ext>
1

>  <a_acc>
3

>  <a_acid>
0

>  <a_aro>
0

>  <a_base>
0

>  <a_count>
28

>  <a_don>
3

>  <a_donacc>
6

>  <a_heavy>
11

>  <a_hyd>
7

>  <a_IC>
39.119068

>  <a_ICM>
1.3971096

>  <a_nB>
0

>  <a_nBr>
0

>  <a_nC>
8

>  <a_nCl>
0

>  <a_nF>
0

>  <a_nH>
17

>  <a_nI>
0

>  <a_nN>
1

>  <a_nO>
2

>  <a_nP>
0

>  <a_nS>
0

>  <balabanJ>
3.5875888

>  <BCUT_PEOE_0>
-2.7248845

>  <BCUT_PEOE_1>
-0.49671191

>  <BCUT_PEOE_2>
0.44155261

>  <BCUT_PEOE_3>
2.6854601

>  <BCUT_SLOGP_0>
-2.7511256

>  <BCUT_SLOGP_1>
-0.43133673

>  <BCUT_SLOGP_2>
0.39234358

>  <BCUT_SLOGP_3>
2.7558873

>  <BCUT_SMR_0>
-2.4776752

>  <BCUT_SMR_1>
-0.30051509

>  <BCUT_SMR_2>
0.57241631

>  <BCUT_SMR_3>
2.9301648

>  <bpol>
18.882519

>  <b_1rotN>
5

>  <b_1rotR>
0.5

>  <b_ar>
0

>  <b_count>
27

>  <b_double>
1

>  <b_heavy>
10

>  <b_max1len>
7

>  <b_rotN>
5

>  <b_rotR>
0.5

>  <b_single>
26

>  <b_triple>
0

>  <chi0>
8.8533716

>  <chi0v>
7.2088332

>  <chi0v_C>
5.776021

>  <chi0_C>
5.8533711

>  <chi1>
5.0577493

>  <chi1v>
3.9772263

>  <chi1v_C>
3.141247

>  <chi1_C>
3.1959419

>  <chiral>
1

>  <chiral_u>
0

>  <density>
0.68133384

>  <diameter>
6

>  <FCharge>
0

>  <GCUT_PEOE_0>
-0.8398062

>  <GCUT_PEOE_1>
-0.35183495

>  <GCUT_PEOE_2>
0.04942511

>  <GCUT_PEOE_3>
2.4647722

>  <GCUT_SLOGP_0>
-1.3634577

>  <GCUT_SLOGP_1>
-0.26831025

>  <GCUT_SLOGP_2>
0.054200001

>  <GCUT_SLOGP_3>
2.5136747

>  <GCUT_SMR_0>
-0.53366315

>  <GCUT_SMR_1>
-0.20505336

>  <GCUT_SMR_2>
0.15005709

>  <GCUT_SMR_3>
2.6782756

>  <Kier1>
11

>  <Kier2>
5.625

>  <Kier3>
6.4000001

>  <KierA1>
10.06763

>  <KierA2>
5.0985627

>  <KierA3>
5.7511301

>  <KierFlex>
4.6664038

>  <lip_acc>
3

>  <lip_don>
3

>  <lip_druglike>
1

>  <lip_violation>
0

>  <logP(o/w)>
1.0089999

>  <logS>
-1.10886

>  <mr>
4.4764237

>  <mutagenic>
0

>  <nmol>
1

>  <opr_brigid>
0

>  <opr_leadlike>
1

>  <opr_nring>
0

>  <opr_nrot>
5

>  <opr_violation>
0

>  <PC+>
0

>  <PC->
0

>  <PEOE_PC+>
1.167207

>  <PEOE_PC->
-1.167207

>  <PEOE_RPC+>
0.222664

>  <PEOE_RPC->
0.28380585

>  <PEOE_VSA+0>
68.416718

>  <PEOE_VSA+1>
0

>  <PEOE_VSA+2>
17.238026

>  <PEOE_VSA+3>
0

>  <PEOE_VSA+4>
10.324173

>  <PEOE_VSA+5>
14.708499

>  <PEOE_VSA+6>
0

>  <PEOE_VSA-0>
21.893639

>  <PEOE_VSA-1>
37.495354

>  <PEOE_VSA-2>
0

>  <PEOE_VSA-3>
0

>  <PEOE_VSA-4>
0

>  <PEOE_VSA-5>
13.566921

>  <PEOE_VSA-6>
14.418659

>  <PEOE_VSA_FHYD>
0.73231483

>  <PEOE_VSA_FNEG>
0.44114763

>  <PEOE_VSA_FPNEG>
0.14129707

>  <PEOE_VSA_FPOL>
0.26768515

>  <PEOE_VSA_FPOS>
0.55885237

>  <PEOE_VSA_FPPOS>
0.12638807

>  <PEOE_VSA_HYD>
145.04373

>  <PEOE_VSA_NEG>
87.374573

>  <PEOE_VSA_PNEG>
27.98558

>  <PEOE_VSA_POL>
53.018253

>  <PEOE_VSA_POS>
110.68742

>  <PEOE_VSA_PPOS>
25.032671

>  <petitjean>
0.5

>  <petitjeanSC>
1

>  <Q_PC+>
0

>  <Q_PC->
0

>  <Q_RPC+>
0

>  <Q_RPC->
0

>  <Q_VSA_FHYD>
1

>  <Q_VSA_FNEG>
0

>  <Q_VSA_FPNEG>
0

>  <Q_VSA_FPOL>
0

>  <Q_VSA_FPOS>
1

>  <Q_VSA_FPPOS>
0

>  <Q_VSA_HYD>
198.062

>  <Q_VSA_NEG>
0

>  <Q_VSA_PNEG>
0

>  <Q_VSA_POL>
0

>  <Q_VSA_POS>
198.062

>  <Q_VSA_PPOS>
0

>  <radius>
3

>  <reactive>
0

>  <rings>
0

>  <RPC+>
0

>  <RPC->
0

>  <rsynth>
0

>  <SlogP>
1.0821

>  <SlogP_VSA0>
32.897186

>  <SlogP_VSA1>
7.7454643

>  <SlogP_VSA2>
23.862217

>  <SlogP_VSA3>
43.824806

>  <SlogP_VSA4>
8.8215923

>  <SlogP_VSA5>
0

>  <SlogP_VSA6>
0

>  <SlogP_VSA7>
0

>  <SlogP_VSA8>
37.736813

>  <SlogP_VSA9>
66.652031

>  <SMR>
4.42522

>  <SMR_VSA0>
23.862217

>  <SMR_VSA1>
0

>  <SMR_VSA2>
34.206818

>  <SMR_VSA3>
0

>  <SMR_VSA4>
32.897186

>  <SMR_VSA5>
37.736813

>  <SMR_VSA6>
26.185041

>  <SMR_VSA7>
66.652031

>  <TPSA>
63.32

>  <VAdjEq>
0.64681429

>  <VAdjMa>
4.321928

>  <VDistEq>
2.5175078

>  <VDistMa>
6.5979791

>  <vdw_area>
198.062

>  <vdw_vol>
233.70189

>  <vsa_acc>
0

>  <vsa_acid>
0

>  <vsa_base>
0

>  <vsa_don>
0

>  <vsa_hyd>
115.15047

>  <vsa_other>
14.708499

>  <vsa_pol>
44.876331

>  <Weight>
159.229

>  <weinerPath>
172

>  <weinerPol>
10

>  <zagreb>
44

$$$$