Clc1cc2c(cc1)C(c1ncccc1CC2)=C1/CCNCC/1
  MOE2013           2D

 22 25  0  0  0  0  0  0  0  0999 V2000
    0.0000    0.0000    0.0000 Cl  0  0  0  0  0  0  0  0  0  0  0  0
   -1.5000    0.0150    0.0000 C   0  0  0  0  0  0  0  0  0  0  0  0
   -2.2630   -1.2760    0.0000 C   0  0  0  0  0  0  0  0  0  0  0  0
   -3.7630   -1.2610    0.0000 C   0  0  0  0  0  0  0  0  0  0  0  0
   -4.5000    0.0460    0.0000 C   0  0  0  0  0  0  0  0  0  0  0  0
   -3.7370    1.3370    0.0000 C   0  0  0  0  0  0  0  0  0  0  0  0
   -2.2370    1.3220    0.0000 C   0  0  0  0  0  0  0  0  0  0  0  0
   -5.9810    0.2850    0.0000 C   0  0  0  0  0  0  0  0  0  0  0  0
   -7.0900   -0.7250    0.0000 C   0  0  0  0  0  0  0  0  0  0  0  0
   -8.4350   -0.0600    0.0000 N   0  0  0  0  0  0  0  0  0  0  0  0
   -9.6820   -0.8930    0.0000 C   0  0  0  0  0  0  0  0  0  0  0  0
   -9.5850   -2.3900    0.0000 C   0  0  0  0  0  0  0  0  0  0  0  0
   -8.2400   -3.0540    0.0000 C   0  0  0  0  0  0  0  0  0  0  0  0
   -6.9920   -2.2210    0.0000 C   0  0  0  0  0  0  0  0  0  0  0  0
   -5.7620   -3.0810    0.0000 C   0  0  0  0  0  0  0  0  0  0  0  0
   -4.3250   -2.6520    0.0000 C   0  0  0  0  0  0  0  0  0  0  0  0
   -6.4080    1.7230    0.0000 C   0  0  0  0  0  0  0  0  0  0  0  0
   -7.8670    2.0720    0.0000 C   0  0  0  0  0  0  0  0  0  0  0  0
   -8.2950    3.5090    0.0000 C   0  0  0  0  0  0  0  0  0  0  0  0
   -7.2640    4.5990    0.0000 N   0  0  0  0  0  0  0  0  0  0  0  0
   -5.8050    4.2500    0.0000 C   0  0  0  0  0  0  0  0  0  0  0  0
   -5.3770    2.8120    0.0000 C   0  0  0  0  0  0  0  0  0  0  0  0
  1  2  1  0  0  0  0
  2  3  1  0  0  0  0
  2  7  2  0  0  0  0
  3  4  2  0  0  0  0
  4  5  1  0  0  0  0
  4 16  1  0  0  0  0
  5  6  2  0  0  0  0
  5  8  1  0  0  0  0
  6  7  1  0  0  0  0
  8  9  1  0  0  0  0
  8 17  2  3  0  0  0
  9 10  1  0  0  0  0
  9 14  2  0  0  0  0
 10 11  2  0  0  0  0
 11 12  1  0  0  0  0
 12 13  2  0  0  0  0
 13 14  1  0  0  0  0
 14 15  1  0  0  0  0
 15 16  1  0  0  0  0
 17 18  1  0  0  0  0
 17 22  1  0  0  0  0
 18 19  1  0  0  0  0
 19 20  1  0  0  0  0
 20 21  1  0  0  0  0
 21 22  1  0  0  0  0
M  END
>  <Index>
1517

>  <ID>
HT0613

>  <class>
1

>  <apol>
50.489067

>  <ast_fraglike>
0

>  <ast_fraglike_ext>
0

>  <ast_violation>
2

>  <ast_violation_ext>
2

>  <a_acc>
2

>  <a_acid>
0

>  <a_aro>
12

>  <a_base>
0

>  <a_count>
41

>  <a_don>
1

>  <a_donacc>
3

>  <a_heavy>
22

>  <a_hyd>
20

>  <a_IC>
56.238388

>  <a_ICM>
1.371668

>  <a_nB>
0

>  <a_nBr>
0

>  <a_nC>
19

>  <a_nCl>
1

>  <a_nF>
0

>  <a_nH>
19

>  <a_nI>
0

>  <a_nN>
2

>  <a_nO>
0

>  <a_nP>
0

>  <a_nS>
0

>  <balabanJ>
1.6109858

>  <BCUT_PEOE_0>
-2.6769867

>  <BCUT_PEOE_1>
-0.61011779

>  <BCUT_PEOE_2>
0.62989724

>  <BCUT_PEOE_3>
2.603554

>  <BCUT_SLOGP_0>
-2.7561567

>  <BCUT_SLOGP_1>
-0.49430424

>  <BCUT_SLOGP_2>
0.74018323

>  <BCUT_SLOGP_3>
2.6402025

>  <BCUT_SMR_0>
-2.3954868

>  <BCUT_SMR_1>
-0.41632617

>  <BCUT_SMR_2>
0.81344539

>  <BCUT_SMR_3>
2.8839941

>  <bpol>
23.170933

>  <b_1rotN>
0

>  <b_1rotR>
0

>  <b_ar>
12

>  <b_count>
44

>  <b_double>
1

>  <b_heavy>
25

>  <b_max1len>
2

>  <b_rotN>
0

>  <b_rotR>
0

>  <b_single>
31

>  <b_triple>
0

>  <chi0>
14.940947

>  <chi0v>
13.287849

>  <chi0v_C>
11.206742

>  <chi0_C>
12.526733

>  <chi1>
10.8265

>  <chi1v>
8.3634481

>  <chi1v_C>
6.6075892

>  <chi1_C>
8.3409014

>  <chiral>
0

>  <chiral_u>
0

>  <density>
0.72496176

>  <diameter>
9

>  <FCharge>
0

>  <GCUT_PEOE_0>
-0.84760177

>  <GCUT_PEOE_1>
-0.39928252

>  <GCUT_PEOE_2>
0.062574953

>  <GCUT_PEOE_3>
2.7689481

>  <GCUT_SLOGP_0>
-1.1529601

>  <GCUT_SLOGP_1>
-0.29299536

>  <GCUT_SLOGP_2>
0.18154307

>  <GCUT_SLOGP_3>
2.865798

>  <GCUT_SMR_0>
-0.50680113

>  <GCUT_SMR_1>
-0.19856806

>  <GCUT_SMR_2>
0.21054187

>  <GCUT_SMR_3>
3.0532846

>  <Kier1>
15.5232

>  <Kier2>
6.8571429

>  <Kier3>
3.1653478

>  <KierA1>
12.654064

>  <KierA2>
5.5317469

>  <KierA3>
2.5342677

>  <KierFlex>
3.1817765

>  <lip_acc>
2

>  <lip_don>
1

>  <lip_druglike>
1

>  <lip_violation>
0

>  <logP(o/w)>
3.431

>  <logS>
-3.4923799

>  <mr>
9.1217918

>  <mutagenic>
0

>  <nmol>
1

>  <opr_brigid>
24

>  <opr_leadlike>
1

>  <opr_nring>
4

>  <opr_nrot>
2

>  <opr_violation>
0

>  <PC+>
0

>  <PC->
0

>  <PEOE_PC+>
1.0975404

>  <PEOE_PC->
-1.0975404

>  <PEOE_RPC+>
0.1111178

>  <PEOE_RPC->
0.28734505

>  <PEOE_VSA+0>
74.658836

>  <PEOE_VSA+1>
32.291866

>  <PEOE_VSA+2>
8.6190128

>  <PEOE_VSA+3>
0

>  <PEOE_VSA+4>
0

>  <PEOE_VSA+5>
0

>  <PEOE_VSA+6>
0

>  <PEOE_VSA-0>
104.58023

>  <PEOE_VSA-1>
56.300293

>  <PEOE_VSA-2>
0

>  <PEOE_VSA-3>
0

>  <PEOE_VSA-4>
0

>  <PEOE_VSA-5>
5.6825762

>  <PEOE_VSA-6>
0.13689101

>  <PEOE_VSA_FHYD>
0.97938329

>  <PEOE_VSA_FNEG>
0.59056991

>  <PEOE_VSA_FPNEG>
0.02061669

>  <PEOE_VSA_FPOL>
0.02061669

>  <PEOE_VSA_FPOS>
0.40943009

>  <PEOE_VSA_FPPOS>
0

>  <PEOE_VSA_HYD>
276.45026

>  <PEOE_VSA_NEG>
166.7

>  <PEOE_VSA_PNEG>
5.8194671

>  <PEOE_VSA_POL>
5.8194671

>  <PEOE_VSA_POS>
115.56972

>  <PEOE_VSA_PPOS>
0

>  <petitjean>
0.44444445

>  <petitjeanSC>
0.80000001

>  <Q_PC+>
0

>  <Q_PC->
0

>  <Q_RPC+>
0

>  <Q_RPC->
0

>  <Q_VSA_FHYD>
1

>  <Q_VSA_FNEG>
0

>  <Q_VSA_FPNEG>
0

>  <Q_VSA_FPOL>
0

>  <Q_VSA_FPOS>
1

>  <Q_VSA_FPPOS>
0

>  <Q_VSA_HYD>
282.26971

>  <Q_VSA_NEG>
0

>  <Q_VSA_PNEG>
0

>  <Q_VSA_POL>
0

>  <Q_VSA_POS>
282.26971

>  <Q_VSA_PPOS>
0

>  <radius>
5

>  <reactive>
0

>  <rings>
4

>  <RPC+>
0

>  <RPC->
0

>  <rsynth>
1

>  <SlogP>
3.8361299

>  <SlogP_VSA0>
18.01075

>  <SlogP_VSA1>
16.78553

>  <SlogP_VSA2>
0

>  <SlogP_VSA3>
40.064732

>  <SlogP_VSA4>
12.313473

>  <SlogP_VSA5>
40.922386

>  <SlogP_VSA6>
3.5006065

>  <SlogP_VSA7>
105.43027

>  <SlogP_VSA8>
37.736813

>  <SlogP_VSA9>
39.148643

>  <SMR>
9.0160704

>  <SMR_VSA0>
0

>  <SMR_VSA1>
16.78553

>  <SMR_VSA2>
21.196325

>  <SMR_VSA3>
18.999655

>  <SMR_VSA4>
0

>  <SMR_VSA5>
180.9039

>  <SMR_VSA6>
36.879158

>  <SMR_VSA7>
39.148643

>  <TPSA>
24.92

>  <VAdjEq>
0.47938794

>  <VAdjMa>
5.643856

>  <VDistEq>
2.8896117

>  <VDistMa>
8.6758261

>  <vdw_area>
282.26971

>  <vdw_vol>
428.75085

>  <vsa_acc>
5.6825762

>  <vsa_acid>
0

>  <vsa_base>
0

>  <vsa_don>
0

>  <vsa_hyd>
255.01891

>  <vsa_other>
0

>  <vsa_pol>
11.365152

>  <Weight>
310.828

>  <weinerPath>
918

>  <weinerPol>
40

>  <zagreb>
120

$$$$