Clc1ccc(cc1)C(=O)c1ccc(OC(C(O)=O)(C)C)cc1
  MOE2013           2D

 22 23  0  0  0  0  0  0  0  0999 V2000
    0.0000    0.0000    0.0000 Cl  0  0  0  0  0  0  0  0  0  0  0  0
    1.3010    0.7470    0.0000 C   0  0  0  0  0  0  0  0  0  0  0  0
    2.5980   -0.0050    0.0000 C   0  0  0  0  0  0  0  0  0  0  0  0
    3.8990    0.7420    0.0000 C   0  0  0  0  0  0  0  0  0  0  0  0
    3.9020    2.2420    0.0000 C   0  0  0  0  0  0  0  0  0  0  0  0
    2.6040    2.9950    0.0000 C   0  0  0  0  0  0  0  0  0  0  0  0
    1.3030    2.2470    0.0000 C   0  0  0  0  0  0  0  0  0  0  0  0
    5.2020    2.9900    0.0000 C   0  0  0  0  0  0  0  0  0  0  0  0
    5.2050    4.4900    0.0000 O   0  0  0  0  0  0  0  0  0  0  0  0
    6.5000    2.2370    0.0000 C   0  0  0  0  0  0  0  0  0  0  0  0
    6.4970    0.7370    0.0000 C   0  0  0  0  0  0  0  0  0  0  0  0
    7.7940   -0.0150    0.0000 C   0  0  0  0  0  0  0  0  0  0  0  0
    9.0950    0.7320    0.0000 C   0  0  0  0  0  0  0  0  0  0  0  0
   10.3920   -0.0210    0.0000 O   0  0  0  0  0  0  0  0  0  0  0  0
   11.6930    0.7270    0.0000 C   0  0  0  0  0  0  0  0  0  0  0  0
   12.9930    1.4740    0.0000 C   0  0  0  0  0  0  0  0  0  0  0  0
   14.2910    0.7220    0.0000 O   0  0  0  0  0  0  0  0  0  0  0  0
   12.9960    2.9740    0.0000 O   0  0  0  0  0  0  0  0  0  0  0  0
   12.4400   -0.5740    0.0000 C   0  0  0  0  0  0  0  0  0  0  0  0
   10.9450    2.0270    0.0000 C   0  0  0  0  0  0  0  0  0  0  0  0
    9.0980    2.2320    0.0000 C   0  0  0  0  0  0  0  0  0  0  0  0
    7.8000    2.9850    0.0000 C   0  0  0  0  0  0  0  0  0  0  0  0
  1  2  1  0  0  0  0
  2  3  1  0  0  0  0
  2  7  2  0  0  0  0
  3  4  2  0  0  0  0
  4  5  1  0  0  0  0
  5  6  2  0  0  0  0
  5  8  1  0  0  0  0
  6  7  1  0  0  0  0
  8  9  2  0  0  0  0
  8 10  1  0  0  0  0
 10 11  1  0  0  0  0
 10 22  2  0  0  0  0
 11 12  2  0  0  0  0
 12 13  1  0  0  0  0
 13 14  1  0  0  0  0
 13 21  2  0  0  0  0
 14 15  1  0  0  0  0
 15 16  1  0  0  0  0
 15 19  1  0  0  0  0
 15 20  1  0  0  0  0
 16 17  1  0  0  0  0
 16 18  2  0  0  0  0
 21 22  1  0  0  0  0
M  END
>  <Index>
1494

>  <ID>
HT0477

>  <class>
1

>  <apol>
45.309895

>  <ast_fraglike>
0

>  <ast_fraglike_ext>
0

>  <ast_violation>
3

>  <ast_violation_ext>
4

>  <a_acc>
4

>  <a_acid>
0

>  <a_aro>
12

>  <a_base>
0

>  <a_count>
37

>  <a_don>
2

>  <a_donacc>
6

>  <a_heavy>
22

>  <a_hyd>
16

>  <a_IC>
56.659546

>  <a_ICM>
1.5313392

>  <a_nB>
0

>  <a_nBr>
0

>  <a_nC>
17

>  <a_nCl>
1

>  <a_nF>
0

>  <a_nH>
15

>  <a_nI>
0

>  <a_nN>
0

>  <a_nO>
4

>  <a_nP>
0

>  <a_nS>
0

>  <balabanJ>
1.7751105

>  <BCUT_PEOE_0>
-2.5060565

>  <BCUT_PEOE_1>
-0.64157093

>  <BCUT_PEOE_2>
0.70199347

>  <BCUT_PEOE_3>
2.5749621

>  <BCUT_SLOGP_0>
-2.6023884

>  <BCUT_SLOGP_1>
-0.53807992

>  <BCUT_SLOGP_2>
0.80591482

>  <BCUT_SLOGP_3>
2.5245185

>  <BCUT_SMR_0>
-2.2909009

>  <BCUT_SMR_1>
-0.49986199

>  <BCUT_SMR_2>
0.85431087

>  <BCUT_SMR_3>
2.7830837

>  <bpol>
20.650105

>  <b_1rotN>
5

>  <b_1rotR>
0.2173913

>  <b_ar>
12

>  <b_count>
38

>  <b_double>
2

>  <b_heavy>
23

>  <b_max1len>
4

>  <b_rotN>
5

>  <b_rotR>
0.2173913

>  <b_single>
24

>  <b_triple>
0

>  <chi0>
16.328062

>  <chi0v>
12.924654

>  <chi0v_C>
10.118802

>  <chi0_C>
11.620955

>  <chi1>
10.292531

>  <chi1v>
6.9997845

>  <chi1v_C>
5.3927345

>  <chi1_C>
7.2213283

>  <chiral>
0

>  <chiral_u>
0

>  <density>
0.79000336

>  <diameter>
13

>  <FCharge>
0

>  <GCUT_PEOE_0>
-0.76349211

>  <GCUT_PEOE_1>
-0.38323474

>  <GCUT_PEOE_2>
0.081907488

>  <GCUT_PEOE_3>
2.4331555

>  <GCUT_SLOGP_0>
-0.9432472

>  <GCUT_SLOGP_1>
-0.26386139

>  <GCUT_SLOGP_2>
0.16445385

>  <GCUT_SLOGP_3>
2.5237896

>  <GCUT_SMR_0>
-0.51270914

>  <GCUT_SMR_1>
-0.21605732

>  <GCUT_SMR_2>
0.19305076

>  <GCUT_SMR_3>
2.7074885

>  <Kier1>
18.340265

>  <Kier2>
7.7134986

>  <Kier3>
4.9967127

>  <KierA1>
14.285043

>  <KierA2>
5.9312124

>  <KierA3>
3.8064508

>  <KierFlex>
3.8512557

>  <lip_acc>
4

>  <lip_don>
1

>  <lip_druglike>
1

>  <lip_violation>
0

>  <logP(o/w)>
4.3429999

>  <logS>
-4.8926201

>  <mr>
8.5066261

>  <mutagenic>
0

>  <nmol>
1

>  <opr_brigid>
12

>  <opr_leadlike>
1

>  <opr_nring>
2

>  <opr_nrot>
5

>  <opr_violation>
0

>  <PC+>
0

>  <PC->
0

>  <PEOE_PC+>
1.6858501

>  <PEOE_PC->
-1.6858501

>  <PEOE_RPC+>
0.1730794

>  <PEOE_RPC->
0.19521385

>  <PEOE_VSA+0>
34.52914

>  <PEOE_VSA+1>
42.581608

>  <PEOE_VSA+2>
0

>  <PEOE_VSA+3>
8.458519

>  <PEOE_VSA+4>
10.324173

>  <PEOE_VSA+5>
14.708499

>  <PEOE_VSA+6>
0

>  <PEOE_VSA-0>
135.53459

>  <PEOE_VSA-1>
29.581947

>  <PEOE_VSA-2>
0

>  <PEOE_VSA-3>
0

>  <PEOE_VSA-4>
0

>  <PEOE_VSA-5>
27.133842

>  <PEOE_VSA-6>
10.271297

>  <PEOE_VSA_FHYD>
0.80059695

>  <PEOE_VSA_FNEG>
0.64677864

>  <PEOE_VSA_FPNEG>
0.11945806

>  <PEOE_VSA_FPOL>
0.19940308

>  <PEOE_VSA_FPOS>
0.35322133

>  <PEOE_VSA_FPPOS>
0.079945013

>  <PEOE_VSA_HYD>
250.68581

>  <PEOE_VSA_NEG>
202.52167

>  <PEOE_VSA_PNEG>
37.40514

>  <PEOE_VSA_POL>
62.437809

>  <PEOE_VSA_POS>
110.60194

>  <PEOE_VSA_PPOS>
25.032671

>  <petitjean>
0.46153846

>  <petitjeanSC>
0.85714287

>  <Q_PC+>
0

>  <Q_PC->
0

>  <Q_RPC+>
0

>  <Q_RPC->
0

>  <Q_VSA_FHYD>
1

>  <Q_VSA_FNEG>
0

>  <Q_VSA_FPNEG>
0

>  <Q_VSA_FPOL>
0

>  <Q_VSA_FPOS>
1

>  <Q_VSA_FPPOS>
0

>  <Q_VSA_HYD>
313.12363

>  <Q_VSA_NEG>
0

>  <Q_VSA_PNEG>
0

>  <Q_VSA_POL>
0

>  <Q_VSA_POS>
313.12363

>  <Q_VSA_PPOS>
0

>  <radius>
7

>  <reactive>
1

>  <rings>
2

>  <RPC+>
0

>  <RPC->
0

>  <rsynth>
1

>  <SlogP>
3.813

>  <SlogP_VSA0>
10.999887

>  <SlogP_VSA1>
13.433075

>  <SlogP_VSA2>
23.862217

>  <SlogP_VSA3>
25.385227

>  <SlogP_VSA4>
30.233366

>  <SlogP_VSA5>
0

>  <SlogP_VSA6>
3.5006065

>  <SlogP_VSA7>
141.14548

>  <SlogP_VSA8>
0

>  <SlogP_VSA9>
111.04411

>  <SMR>
8.36693

>  <SMR_VSA0>
47.724434

>  <SMR_VSA1>
10.999887

>  <SMR_VSA2>
25.385227

>  <SMR_VSA3>
15.115185

>  <SMR_VSA4>
0

>  <SMR_VSA5>
141.14548

>  <SMR_VSA6>
13.433075

>  <SMR_VSA7>
105.80067

>  <TPSA>
63.599998

>  <VAdjEq>
0.4530769

>  <VAdjMa>
5.523562

>  <VDistEq>
3.4670858

>  <VDistMa>
8.584425

>  <vdw_area>
313.12363

>  <vdw_vol>
403.48691

>  <vsa_acc>
16.070677

>  <vsa_acid>
0

>  <vsa_base>
0

>  <vsa_don>
0

>  <vsa_hyd>
232.26215

>  <vsa_other>
23.167019

>  <vsa_pol>
43.204517

>  <Weight>
318.75598

>  <weinerPath>
1182

>  <weinerPol>
33

>  <zagreb>
112

$$$$