Clc1cccc(C)c1NC(=O)c1sc(nc1)Nc1nc(nc(N2CCN(CC2)CCO)c1)C
  MOE2013           2D

 33 36  0  0  0  0  0  0  0  0999 V2000
    0.0000    0.0000    0.0000 Cl  0  0  0  0  0  0  0  0  0  0  0  0
   -0.0060    1.5000    0.0000 C   0  0  0  0  0  0  0  0  0  0  0  0
   -1.3090    2.2440    0.0000 C   0  0  0  0  0  0  0  0  0  0  0  0
   -1.3150    3.7440    0.0000 C   0  0  0  0  0  0  0  0  0  0  0  0
   -0.0190    4.5000    0.0000 C   0  0  0  0  0  0  0  0  0  0  0  0
    1.2830    3.7550    0.0000 C   0  0  0  0  0  0  0  0  0  0  0  0
    2.5790    4.5110    0.0000 C   0  0  0  0  0  0  0  0  0  0  0  0
    1.2900    2.2550    0.0000 C   0  0  0  0  0  0  0  0  0  0  0  0
    2.5920    1.5110    0.0000 N   0  0  0  0  0  0  0  0  0  0  0  0
    3.8880    2.2660    0.0000 C   0  0  0  0  0  0  0  0  0  0  0  0
    3.8810    3.7660    0.0000 O   0  0  0  0  0  0  0  0  0  0  0  0
    5.1900    1.5220    0.0000 C   0  0  0  0  0  0  0  0  0  0  0  0
    6.5580    2.1380    0.0000 S   0  0  0  0  0  0  0  0  0  0  0  0
    7.5660    1.0270    0.0000 C   0  0  0  0  0  0  0  0  0  0  0  0
    6.8210   -0.2750    0.0000 N   0  0  0  0  0  0  0  0  0  0  0  0
    5.3530    0.0310    0.0000 C   0  0  0  0  0  0  0  0  0  0  0  0
    9.0570    1.1900    0.0000 N   0  0  0  0  0  0  0  0  0  0  0  0
    9.9440   -0.0190    0.0000 C   0  0  0  0  0  0  0  0  0  0  0  0
    9.3390   -1.3920    0.0000 N   0  0  0  0  0  0  0  0  0  0  0  0
   10.2260   -2.6020    0.0000 C   0  0  0  0  0  0  0  0  0  0  0  0
   11.7170   -2.4390    0.0000 N   0  0  0  0  0  0  0  0  0  0  0  0
   12.3220   -1.0660    0.0000 C   0  0  0  0  0  0  0  0  0  0  0  0
   13.8130   -0.9030    0.0000 N   0  0  0  0  0  0  0  0  0  0  0  0
   14.7000   -2.1130    0.0000 C   0  0  0  0  0  0  0  0  0  0  0  0
   16.1910   -1.9500    0.0000 C   0  0  0  0  0  0  0  0  0  0  0  0
   16.7950   -0.5770    0.0000 N   0  0  0  0  0  0  0  0  0  0  0  0
   15.9080    0.6330    0.0000 C   0  0  0  0  0  0  0  0  0  0  0  0
   14.4170    0.4700    0.0000 C   0  0  0  0  0  0  0  0  0  0  0  0
   18.2860   -0.4140    0.0000 C   0  0  0  0  0  0  0  0  0  0  0  0
   19.1730   -1.6230    0.0000 C   0  0  0  0  0  0  0  0  0  0  0  0
   20.6640   -1.4600    0.0000 O   0  0  0  0  0  0  0  0  0  0  0  0
   11.4350    0.1440    0.0000 C   0  0  0  0  0  0  0  0  0  0  0  0
    9.6220   -3.9750    0.0000 C   0  0  0  0  0  0  0  0  0  0  0  0
  1  2  1  0  0  0  0
  2  3  1  0  0  0  0
  2  8  2  0  0  0  0
  3  4  2  0  0  0  0
  4  5  1  0  0  0  0
  5  6  2  0  0  0  0
  6  7  1  0  0  0  0
  6  8  1  0  0  0  0
  8  9  1  0  0  0  0
  9 10  1  0  0  0  0
 10 11  2  0  0  0  0
 10 12  1  0  0  0  0
 12 13  1  0  0  0  0
 12 16  2  0  0  0  0
 13 14  1  0  0  0  0
 14 15  2  0  0  0  0
 14 17  1  0  0  0  0
 15 16  1  0  0  0  0
 17 18  1  0  0  0  0
 18 19  1  0  0  0  0
 18 32  2  0  0  0  0
 19 20  2  0  0  0  0
 20 21  1  0  0  0  0
 20 33  1  0  0  0  0
 21 22  2  0  0  0  0
 22 23  1  0  0  0  0
 22 32  1  0  0  0  0
 23 24  1  0  0  0  0
 23 28  1  0  0  0  0
 24 25  1  0  0  0  0
 25 26  1  0  0  0  0
 26 27  1  0  0  0  0
 26 29  1  0  0  0  0
 27 28  1  0  0  0  0
 29 30  1  0  0  0  0
 30 31  1  0  0  0  0
M  END
>  <Index>
1515

>  <ID>
HT0594

>  <class>
1

>  <apol>
70.44062

>  <ast_fraglike>
0

>  <ast_fraglike_ext>
0

>  <ast_violation>
3

>  <ast_violation_ext>
4

>  <a_acc>
6

>  <a_acid>
0

>  <a_aro>
17

>  <a_base>
0

>  <a_count>
59

>  <a_don>
3

>  <a_donacc>
9

>  <a_heavy>
33

>  <a_hyd>
19

>  <a_IC>
105.10553

>  <a_ICM>
1.7814496

>  <a_nB>
0

>  <a_nBr>
0

>  <a_nC>
22

>  <a_nCl>
1

>  <a_nF>
0

>  <a_nH>
26

>  <a_nI>
0

>  <a_nN>
7

>  <a_nO>
2

>  <a_nP>
0

>  <a_nS>
1

>  <balabanJ>
1.2270342

>  <BCUT_PEOE_0>
-2.7562232

>  <BCUT_PEOE_1>
-0.58014041

>  <BCUT_PEOE_2>
0.61126155

>  <BCUT_PEOE_3>
2.6656897

>  <BCUT_SLOGP_0>
-2.8897259

>  <BCUT_SLOGP_1>
-0.44911268

>  <BCUT_SLOGP_2>
0.6663878

>  <BCUT_SLOGP_3>
2.5492504

>  <BCUT_SMR_0>
-2.4692883

>  <BCUT_SMR_1>
-0.36052862

>  <BCUT_SMR_2>
0.83471805

>  <BCUT_SMR_3>
2.9462759

>  <bpol>
41.321381

>  <b_1rotN>
7

>  <b_1rotR>
0.19444445

>  <b_ar>
17

>  <b_count>
62

>  <b_double>
1

>  <b_heavy>
36

>  <b_max1len>
4

>  <b_rotN>
8

>  <b_rotR>
0.22222222

>  <b_single>
44

>  <b_triple>
0

>  <chi0>
23.371668

>  <chi0v>
20.079559

>  <chi0v_C>
13.629392

>  <chi0_C>
14.974327

>  <chi1>
15.923056

>  <chi1v>
11.853065

>  <chi1v_C>
5.3600426

>  <chi1_C>
6.6959419

>  <chiral>
0

>  <chiral_u>
0

>  <density>
0.79868972

>  <diameter>
19

>  <FCharge>
0

>  <GCUT_PEOE_0>
-0.84784681

>  <GCUT_PEOE_1>
-0.41758683

>  <GCUT_PEOE_2>
0.079908334

>  <GCUT_PEOE_3>
2.673414

>  <GCUT_SLOGP_0>
-0.99316055

>  <GCUT_SLOGP_1>
-0.34359869

>  <GCUT_SLOGP_2>
0.16699713

>  <GCUT_SLOGP_3>
2.7011278

>  <GCUT_SMR_0>
-0.5177961

>  <GCUT_SMR_1>
-0.18123195

>  <GCUT_SMR_2>
0.24484511

>  <GCUT_SMR_3>
2.9510584

>  <Kier1>
26.074074

>  <Kier2>
12.3008

>  <Kier3>
7.03125

>  <KierA1>
21.412733

>  <KierA2>
10.036232

>  <KierA3>
5.7096939

>  <KierFlex>
6.5122166

>  <lip_acc>
9

>  <lip_don>
3

>  <lip_druglike>
1

>  <lip_violation>
0

>  <logP(o/w)>
1.535

>  <logS>
-4.7835102

>  <mr>
13.056146

>  <mutagenic>
0

>  <nmol>
1

>  <opr_brigid>
23

>  <opr_leadlike>
0

>  <opr_nring>
4

>  <opr_nrot>
9

>  <opr_violation>
2

>  <PC+>
0

>  <PC->
0

>  <PEOE_PC+>
2.7776053

>  <PEOE_PC->
-2.7776053

>  <PEOE_RPC+>
0.088971019

>  <PEOE_RPC->
0.14175777

>  <PEOE_VSA+0>
167.39322

>  <PEOE_VSA+1>
69.194916

>  <PEOE_VSA+2>
42.190701

>  <PEOE_VSA+3>
8.6190128

>  <PEOE_VSA+4>
43.034321

>  <PEOE_VSA+5>
0

>  <PEOE_VSA+6>
0

>  <PEOE_VSA-0>
51.958797

>  <PEOE_VSA-1>
54.091755

>  <PEOE_VSA-2>
0

>  <PEOE_VSA-3>
0

>  <PEOE_VSA-4>
11.502043

>  <PEOE_VSA-5>
19.249496

>  <PEOE_VSA-6>
7.9044313

>  <PEOE_VSA_FHYD>
0.82807064

>  <PEOE_VSA_FNEG>
0.3045564

>  <PEOE_VSA_FPNEG>
0.081357233

>  <PEOE_VSA_FPOL>
0.17192936

>  <PEOE_VSA_FPOS>
0.69544363

>  <PEOE_VSA_FPPOS>
0.090572126

>  <PEOE_VSA_HYD>
393.44839

>  <PEOE_VSA_NEG>
144.70653

>  <PEOE_VSA_PNEG>
38.655972

>  <PEOE_VSA_POL>
81.690292

>  <PEOE_VSA_POS>
330.43216

>  <PEOE_VSA_PPOS>
43.034321

>  <petitjean>
0.47368422

>  <petitjeanSC>
0.89999998

>  <Q_PC+>
0

>  <Q_PC->
0

>  <Q_RPC+>
0

>  <Q_RPC->
0

>  <Q_VSA_FHYD>
1

>  <Q_VSA_FNEG>
0

>  <Q_VSA_FPNEG>
0

>  <Q_VSA_FPOL>
0

>  <Q_VSA_FPOS>
1

>  <Q_VSA_FPPOS>
0

>  <Q_VSA_HYD>
475.1387

>  <Q_VSA_NEG>
0

>  <Q_VSA_PNEG>
0

>  <Q_VSA_POL>
0

>  <Q_VSA_POS>
475.1387

>  <Q_VSA_PPOS>
0

>  <radius>
10

>  <reactive>
0

>  <rings>
4

>  <RPC+>
0

>  <RPC->
0

>  <rsynth>
1

>  <SlogP>
3.31354

>  <SlogP_VSA0>
28.509541

>  <SlogP_VSA1>
94.761185

>  <SlogP_VSA2>
0

>  <SlogP_VSA3>
113.12415

>  <SlogP_VSA4>
30.734112

>  <SlogP_VSA5>
0

>  <SlogP_VSA6>
3.5006065

>  <SlogP_VSA7>
87.787094

>  <SlogP_VSA8>
0

>  <SlogP_VSA9>
144.9917

>  <SMR>
13.20467

>  <SMR_VSA0>
23.862217

>  <SMR_VSA1>
78.866127

>  <SMR_VSA2>
3.1243138

>  <SMR_VSA3>
10.372503

>  <SMR_VSA4>
43.934837

>  <SMR_VSA5>
87.787094

>  <SMR_VSA6>
118.38293

>  <SMR_VSA7>
137.07837

>  <TPSA>
106.51

>  <VAdjEq>
0.3512581

>  <VAdjMa>
6.1699252

>  <VDistEq>
3.9725091

>  <VDistMa>
9.7648439

>  <vdw_area>
475.1387

>  <vdw_vol>
611.02075

>  <vsa_acc>
30.614649

>  <vsa_acid>
0

>  <vsa_base>
0

>  <vsa_don>
11.365152

>  <vsa_hyd>
332.86139

>  <vsa_other>
59.687843

>  <vsa_pol>
55.546722

>  <Weight>
488.01599

>  <weinerPath>
3723

>  <weinerPol>
50

>  <zagreb>
172

$$$$