S(Cc1oc(cc1)CN(C)C)CCNC(NC)=C[N+](=O)[O-]
  MOE2013           2D

 21 21  0  0  0  0  0  0  0  0999 V2000
    0.0000    0.0000    0.0000 S   0  0  0  0  0  0  0  0  0  0  0  0
    1.2940    0.7590    0.0000 C   0  0  0  0  0  0  0  0  0  0  0  0
    2.5980    0.0180    0.0000 C   0  0  0  0  0  0  0  0  0  0  0  0
    3.9640    0.6370    0.0000 O   0  0  0  0  0  0  0  0  0  0  0  0
    4.9750   -0.4700    0.0000 C   0  0  0  0  0  0  0  0  0  0  0  0
    4.2340   -1.7750    0.0000 C   0  0  0  0  0  0  0  0  0  0  0  0
    2.7650   -1.4730    0.0000 C   0  0  0  0  0  0  0  0  0  0  0  0
    6.4660   -0.3030    0.0000 C   0  0  0  0  0  0  0  0  0  0  0  0
    7.3560   -1.5110    0.0000 N   0  0  0  0  0  0  0  0  0  0  0  0
    8.8470   -1.3440    0.0000 C   0  0  0  0  0  0  0  0  0  0  0  0
    6.7550   -2.8850    0.0000 C   0  0  0  0  0  0  0  0  0  0  0  0
   -1.3040    0.7410    0.0000 C   0  0  0  0  0  0  0  0  0  0  0  0
   -2.5980   -0.0180    0.0000 C   0  0  0  0  0  0  0  0  0  0  0  0
   -3.9020    0.7230    0.0000 N   0  0  0  0  0  0  0  0  0  0  0  0
   -5.1960   -0.0360    0.0000 C   0  0  0  0  0  0  0  0  0  0  0  0
   -6.5000    0.7050    0.0000 N   0  0  0  0  0  0  0  0  0  0  0  0
   -6.5100    2.2050    0.0000 C   0  0  0  0  0  0  0  0  0  0  0  0
   -5.1860   -1.5360    0.0000 C   0  0  0  0  0  0  0  0  0  0  0  0
   -6.4800   -2.2940    0.0000 N   0  3  0  0  0  0  0  0  0  0  0  0
   -6.4690   -3.7940    0.0000 O   0  0  0  0  0  0  0  0  0  0  0  0
   -7.7840   -1.5530    0.0000 O   0  5  0  0  0  0  0  0  0  0  0  0
  1  2  1  0  0  0  0
  1 12  1  0  0  0  0
  2  3  1  0  0  0  0
  3  4  1  0  0  0  0
  3  7  2  0  0  0  0
  4  5  1  0  0  0  0
  5  6  2  0  0  0  0
  5  8  1  0  0  0  0
  6  7  1  0  0  0  0
  8  9  1  0  0  0  0
  9 10  1  0  0  0  0
  9 11  1  0  0  0  0
 12 13  1  0  0  0  0
 13 14  1  0  0  0  0
 14 15  1  0  0  0  0
 15 16  1  0  0  0  0
 15 18  2  3  0  0  0
 16 17  1  0  0  0  0
 18 19  1  0  0  0  0
 19 20  2  0  0  0  0
 19 21  1  0  0  0  0
M  CHG  1  19   1
M  CHG  1  21  -1
M  END
>  <Index>
1712

>  <ID>
HT1800

>  <class>
1

>  <apol>
47.255447

>  <ast_fraglike>
0

>  <ast_fraglike_ext>
0

>  <ast_violation>
1

>  <ast_violation_ext>
2

>  <a_acc>
1

>  <a_acid>
0

>  <a_aro>
5

>  <a_base>
0

>  <a_count>
43

>  <a_don>
2

>  <a_donacc>
3

>  <a_heavy>
21

>  <a_hyd>
12

>  <a_IC>
74.361282

>  <a_ICM>
1.7293322

>  <a_nB>
0

>  <a_nBr>
0

>  <a_nC>
13

>  <a_nCl>
0

>  <a_nF>
0

>  <a_nH>
22

>  <a_nI>
0

>  <a_nN>
4

>  <a_nO>
3

>  <a_nP>
0

>  <a_nS>
1

>  <balabanJ>
2.0208743

>  <BCUT_PEOE_0>
-2.5379612

>  <BCUT_PEOE_1>
-0.25877064

>  <BCUT_PEOE_2>
0.13149194

>  <BCUT_PEOE_3>
2.4781742

>  <BCUT_SLOGP_0>
-2.6809812

>  <BCUT_SLOGP_1>
-0.085288294

>  <BCUT_SLOGP_2>
0.3837195

>  <BCUT_SLOGP_3>
2.5728772

>  <BCUT_SMR_0>
-2.257225

>  <BCUT_SMR_1>
0.1057

>  <BCUT_SMR_2>
0.43652222

>  <BCUT_SMR_3>
2.7888095

>  <bpol>
32.802555

>  <b_1rotN>
10

>  <b_1rotR>
0.47619048

>  <b_ar>
5

>  <b_count>
43

>  <b_double>
2

>  <b_heavy>
21

>  <b_max1len>
6

>  <b_rotN>
10

>  <b_rotR>
0.47619048

>  <b_single>
36

>  <b_triple>
0

>  <chi0>
15.664926

>  <chi0v>
13.404395

>  <chi0v_C>
9.0604782

>  <chi0_C>
9.681798

>  <chi1>
10.007239

>  <chi1v>
7.7343202

>  <chi1v_C>
2.4064655

>  <chi1_C>
3.0412414

>  <chiral>
0

>  <chiral_u>
0

>  <density>
0.7719416

>  <diameter>
14

>  <FCharge>
0

>  <GCUT_PEOE_0>
-0.85210836

>  <GCUT_PEOE_1>
-0.35158676

>  <GCUT_PEOE_2>
-0.073774964

>  <GCUT_PEOE_3>
2.4227839

>  <GCUT_SLOGP_0>
-1.1267847

>  <GCUT_SLOGP_1>
-0.23462692

>  <GCUT_SLOGP_2>
0.17337948

>  <GCUT_SLOGP_3>
2.5017188

>  <GCUT_SMR_0>
-0.51207328

>  <GCUT_SMR_1>
-0.089428514

>  <GCUT_SMR_2>
0.21701896

>  <GCUT_SMR_3>
2.6894515

>  <Kier1>
19.047619

>  <Kier2>
10.680473

>  <Kier3>
8.8888893

>  <KierA1>
16.47377

>  <KierA2>
9.1662836

>  <KierA3>
7.5836554

>  <KierFlex>
7.1906314

>  <lip_acc>
7

>  <lip_don>
2

>  <lip_druglike>
1

>  <lip_violation>
0

>  <logP(o/w)>
0.93000001

>  <logS>
-2.81493

>  <mr>
8.3889532

>  <mutagenic>
1

>  <nmol>
1

>  <opr_brigid>
6

>  <opr_leadlike>
1

>  <opr_nring>
1

>  <opr_nrot>
10

>  <opr_violation>
0

>  <PC+>
0

>  <PC->
0

>  <PEOE_PC+>
2.0571764

>  <PEOE_PC->
-2.0571764

>  <PEOE_RPC+>
0.12864432

>  <PEOE_RPC->
0.22479658

>  <PEOE_VSA+0>
87.850487

>  <PEOE_VSA+1>
44.959278

>  <PEOE_VSA+2>
49.611015

>  <PEOE_VSA+3>
0

>  <PEOE_VSA+4>
0

>  <PEOE_VSA+5>
16.745916

>  <PEOE_VSA+6>
0

>  <PEOE_VSA-0>
94.225876

>  <PEOE_VSA-1>
0

>  <PEOE_VSA-2>
0

>  <PEOE_VSA-3>
19.760618

>  <PEOE_VSA-4>
0

>  <PEOE_VSA-5>
34.20483

>  <PEOE_VSA-6>
2.503756

>  <PEOE_VSA_FHYD>
0.84721249

>  <PEOE_VSA_FNEG>
0.43072748

>  <PEOE_VSA_FPNEG>
0.10492311

>  <PEOE_VSA_FPOL>
0.15278749

>  <PEOE_VSA_FPOS>
0.56927252

>  <PEOE_VSA_FPPOS>
0.047864377

>  <PEOE_VSA_HYD>
296.40729

>  <PEOE_VSA_NEG>
150.69508

>  <PEOE_VSA_PNEG>
36.708588

>  <PEOE_VSA_POL>
53.454502

>  <PEOE_VSA_POS>
199.1667

>  <PEOE_VSA_PPOS>
16.745916

>  <petitjean>
0.5

>  <petitjeanSC>
1

>  <Q_PC+>
0

>  <Q_PC->
0

>  <Q_RPC+>
0

>  <Q_RPC->
0

>  <Q_VSA_FHYD>
1

>  <Q_VSA_FNEG>
0

>  <Q_VSA_FPNEG>
0

>  <Q_VSA_FPOL>
0

>  <Q_VSA_FPOS>
1

>  <Q_VSA_FPPOS>
0

>  <Q_VSA_HYD>
349.86179

>  <Q_VSA_NEG>
0

>  <Q_VSA_PNEG>
0

>  <Q_VSA_POL>
0

>  <Q_VSA_POS>
349.86179

>  <Q_VSA_PPOS>
0

>  <radius>
7

>  <reactive>
1

>  <rings>
1

>  <RPC+>
0

>  <RPC->
0

>  <rsynth>
1

>  <SlogP>
1.9918

>  <SlogP_VSA0>
36.0215

>  <SlogP_VSA1>
10.20993

>  <SlogP_VSA2>
0

>  <SlogP_VSA3>
86.608147

>  <SlogP_VSA4>
10.897642

>  <SlogP_VSA5>
110.52683

>  <SlogP_VSA6>
0

>  <SlogP_VSA7>
52.500725

>  <SlogP_VSA8>
0

>  <SlogP_VSA9>
67.892685

>  <SMR>
8.4811802

>  <SMR_VSA0>
16.592962

>  <SMR_VSA1>
3.1243138

>  <SMR_VSA2>
86.956512

>  <SMR_VSA3>
13.225562

>  <SMR_VSA4>
0

>  <SMR_VSA5>
88.173866

>  <SMR_VSA6>
35.673141

>  <SMR_VSA7>
130.9111

>  <TPSA>
86.260002

>  <VAdjEq>
0.45371634

>  <VAdjMa>
5.3923173

>  <VDistEq>
3.6647925

>  <VDistMa>
8.4293232

>  <vdw_area>
349.86179

>  <vdw_vol>
407.29764

>  <vsa_acc>
0

>  <vsa_acid>
0

>  <vsa_base>
0

>  <vsa_don>
11.365152

>  <vsa_hyd>
253.57166

>  <vsa_other>
64.542404

>  <vsa_pol>
11.365152

>  <Weight>
314.41

>  <weinerPath>
1227

>  <weinerPol>
22

>  <zagreb>
94

$$$$