Ic1c(C(=O)NC(C(O)CO)CO)c(I)c(N(C(=O)CC(=O)N(C)c2c(I)c(C(=O)NC(C(O)CO)CO)c(I)c(C(=O)NC(C(O)CO)CO)c2I)C)c(I)c1C(=O)NC(C(O)CO)CO
  MOE2013           2D

 67 68  0  0  1  0  0  0  0  0999 V2000
    0.0000    0.0000    0.0000 I   0  0  0  0  0  0  0  0  0  0  0  0
    1.5000   -0.0090    0.0000 C   0  0  0  0  0  0  0  0  0  0  0  0
    2.2420   -1.3120    0.0000 C   0  0  0  0  0  0  0  0  0  0  0  0
    1.4850   -2.6070    0.0000 C   0  0  0  0  0  0  0  0  0  0  0  0
    2.2270   -3.9100    0.0000 O   0  0  0  0  0  0  0  0  0  0  0  0
   -0.0150   -2.5980    0.0000 N   0  0  0  0  0  0  0  0  0  0  0  0
   -0.7730   -3.8930    0.0000 C   0  0  3  0  0  0  0  0  0  0  0  0
   -2.2730   -3.8840    0.0000 C   0  0  3  0  0  0  0  0  0  0  0  0
   -3.0150   -2.5810    0.0000 O   0  0  0  0  0  0  0  0  0  0  0  0
   -3.0300   -5.1790    0.0000 C   0  0  0  0  0  0  0  0  0  0  0  0
   -4.5300   -5.1700    0.0000 O   0  0  0  0  0  0  0  0  0  0  0  0
   -0.0300   -5.1960    0.0000 C   0  0  0  0  0  0  0  0  0  0  0  0
   -0.7880   -6.4910    0.0000 O   0  0  0  0  0  0  0  0  0  0  0  0
    3.7420   -1.3210    0.0000 C   0  0  0  0  0  0  0  0  0  0  0  0
    4.4850   -2.6240    0.0000 I   0  0  0  0  0  0  0  0  0  0  0  0
    4.5000   -0.0260    0.0000 C   0  0  0  0  0  0  0  0  0  0  0  0
    6.0000   -0.0350    0.0000 N   0  0  0  0  0  0  0  0  0  0  0  0
    6.7570    1.2600    0.0000 C   0  0  0  0  0  0  0  0  0  0  0  0
    6.0150    2.5630    0.0000 O   0  0  0  0  0  0  0  0  0  0  0  0
    8.2570    1.2510    0.0000 C   0  0  0  0  0  0  0  0  0  0  0  0
    9.0000   -0.0520    0.0000 C   0  0  0  0  0  0  0  0  0  0  0  0
    8.2420   -1.3470    0.0000 O   0  0  0  0  0  0  0  0  0  0  0  0
   10.5000   -0.0610    0.0000 N   0  0  0  0  0  0  0  0  0  0  0  0
   11.2570    1.2340    0.0000 C   0  0  0  0  0  0  0  0  0  0  0  0
   11.2420   -1.3640    0.0000 C   0  0  0  0  0  0  0  0  0  0  0  0
   12.7420   -1.3730    0.0000 C   0  0  0  0  0  0  0  0  0  0  0  0
   13.5000   -0.0780    0.0000 I   0  0  0  0  0  0  0  0  0  0  0  0
   13.4850   -2.6760    0.0000 C   0  0  0  0  0  0  0  0  0  0  0  0
   14.9850   -2.6850    0.0000 C   0  0  0  0  0  0  0  0  0  0  0  0
   15.7270   -3.9880    0.0000 O   0  0  0  0  0  0  0  0  0  0  0  0
   15.7420   -1.3900    0.0000 N   0  0  0  0  0  0  0  0  0  0  0  0
   17.2420   -1.3990    0.0000 C   0  0  3  0  0  0  0  0  0  0  0  0
   18.0000   -0.1050    0.0000 C   0  0  3  0  0  0  0  0  0  0  0  0
   19.5000   -0.1130    0.0000 O   0  0  0  0  0  0  0  0  0  0  0  0
   17.2570    1.1990    0.0000 C   0  0  0  0  0  0  0  0  0  0  0  0
   18.0150    2.4940    0.0000 O   0  0  0  0  0  0  0  0  0  0  0  0
   17.9850   -2.7030    0.0000 C   0  0  0  0  0  0  0  0  0  0  0  0
   19.4850   -2.7110    0.0000 O   0  0  0  0  0  0  0  0  0  0  0  0
   12.7270   -3.9710    0.0000 C   0  0  0  0  0  0  0  0  0  0  0  0
   13.4700   -5.2740    0.0000 I   0  0  0  0  0  0  0  0  0  0  0  0
   11.2270   -3.9620    0.0000 C   0  0  0  0  0  0  0  0  0  0  0  0
   10.4700   -5.2570    0.0000 C   0  0  0  0  0  0  0  0  0  0  0  0
    8.9700   -5.2480    0.0000 O   0  0  0  0  0  0  0  0  0  0  0  0
   11.2120   -6.5600    0.0000 N   0  0  0  0  0  0  0  0  0  0  0  0
   10.4550   -7.8550    0.0000 C   0  0  3  0  0  0  0  0  0  0  0  0
   11.1970   -9.1580    0.0000 C   0  0  3  0  0  0  0  0  0  0  0  0
   10.4390  -10.4530    0.0000 O   0  0  0  0  0  0  0  0  0  0  0  0
   12.6970   -9.1670    0.0000 C   0  0  0  0  0  0  0  0  0  0  0  0
   13.4390  -10.4710    0.0000 O   0  0  0  0  0  0  0  0  0  0  0  0
    8.9550   -7.8460    0.0000 C   0  0  0  0  0  0  0  0  0  0  0  0
    8.1970   -9.1410    0.0000 O   0  0  0  0  0  0  0  0  0  0  0  0
   10.4850   -2.6590    0.0000 C   0  0  0  0  0  0  0  0  0  0  0  0
    8.9850   -2.6500    0.0000 I   0  0  0  0  0  0  0  0  0  0  0  0
    6.7420   -1.3380    0.0000 C   0  0  0  0  0  0  0  0  0  0  0  0
    3.7570    1.2770    0.0000 C   0  0  0  0  0  0  0  0  0  0  0  0
    4.5150    2.5720    0.0000 I   0  0  0  0  0  0  0  0  0  0  0  0
    2.2580    1.2860    0.0000 C   0  0  0  0  0  0  0  0  0  0  0  0
    1.5150    2.5890    0.0000 C   0  0  0  0  0  0  0  0  0  0  0  0
    2.2730    3.8840    0.0000 O   0  0  0  0  0  0  0  0  0  0  0  0
    0.0150    2.5980    0.0000 N   0  0  0  0  0  0  0  0  0  0  0  0
   -0.7270    3.9010    0.0000 C   0  0  3  0  0  0  0  0  0  0  0  0
   -2.2270    3.9100    0.0000 C   0  0  3  0  0  0  0  0  0  0  0  0
   -2.9700    5.2130    0.0000 O   0  0  0  0  0  0  0  0  0  0  0  0
   -2.9850    2.6150    0.0000 C   0  0  0  0  0  0  0  0  0  0  0  0
   -4.4850    2.6240    0.0000 O   0  0  0  0  0  0  0  0  0  0  0  0
    0.0300    5.1960    0.0000 C   0  0  0  0  0  0  0  0  0  0  0  0
   -0.7120    6.4990    0.0000 O   0  0  0  0  0  0  0  0  0  0  0  0
  1  2  1  0  0  0  0
  2  3  1  0  0  0  0
  2 57  2  0  0  0  0
  3  4  1  0  0  0  0
  3 14  2  0  0  0  0
  4  5  2  0  0  0  0
  4  6  1  0  0  0  0
  6  7  1  0  0  0  0
  7  8  1  0  0  0  0
  7 12  1  0  0  0  0
  8  9  1  0  0  0  0
  8 10  1  0  0  0  0
 10 11  1  0  0  0  0
 12 13  1  0  0  0  0
 14 15  1  0  0  0  0
 14 16  1  0  0  0  0
 16 17  1  0  0  0  0
 16 55  2  0  0  0  0
 17 18  1  0  0  0  0
 17 54  1  0  0  0  0
 18 19  2  0  0  0  0
 18 20  1  0  0  0  0
 20 21  1  0  0  0  0
 21 22  2  0  0  0  0
 21 23  1  0  0  0  0
 23 24  1  0  0  0  0
 23 25  1  0  0  0  0
 25 26  1  0  0  0  0
 25 52  2  0  0  0  0
 26 27  1  0  0  0  0
 26 28  2  0  0  0  0
 28 29  1  0  0  0  0
 28 39  1  0  0  0  0
 29 30  2  0  0  0  0
 29 31  1  0  0  0  0
 31 32  1  0  0  0  0
 32 33  1  0  0  0  0
 32 37  1  0  0  0  0
 33 34  1  0  0  0  0
 33 35  1  0  0  0  0
 35 36  1  0  0  0  0
 37 38  1  0  0  0  0
 39 40  1  0  0  0  0
 39 41  2  0  0  0  0
 41 42  1  0  0  0  0
 41 52  1  0  0  0  0
 42 43  2  0  0  0  0
 42 44  1  0  0  0  0
 44 45  1  0  0  0  0
 45 46  1  0  0  0  0
 45 50  1  0  0  0  0
 46 47  1  0  0  0  0
 46 48  1  0  0  0  0
 48 49  1  0  0  0  0
 50 51  1  0  0  0  0
 52 53  1  0  0  0  0
 55 56  1  0  0  0  0
 55 57  1  0  0  0  0
 57 58  1  0  0  0  0
 58 59  2  0  0  0  0
 58 60  1  0  0  0  0
 60 61  1  0  0  0  0
 61 62  1  0  0  0  0
 61 66  1  0  0  0  0
 62 63  1  0  0  0  0
 62 64  1  0  0  0  0
 64 65  1  0  0  0  0
 66 67  1  0  0  0  0
M  END
>  <Index>
1607

>  <ID>
HT1116

>  <class>
1

>  <apol>
150.26207

>  <ast_fraglike>
0

>  <ast_fraglike_ext>
0

>  <ast_violation>
3

>  <ast_violation_ext>
5

>  <a_acc>
18

>  <a_acid>
0

>  <a_aro>
12

>  <a_base>
0

>  <a_count>
115

>  <a_don>
16

>  <a_donacc>
34

>  <a_heavy>
67

>  <a_hyd>
37

>  <a_IC>
220.32518

>  <a_ICM>
1.9158711

>  <a_nB>
0

>  <a_nBr>
0

>  <a_nC>
37

>  <a_nCl>
0

>  <a_nF>
0

>  <a_nH>
48

>  <a_nI>
6

>  <a_nN>
6

>  <a_nO>
18

>  <a_nP>
0

>  <a_nS>
0

>  <balabanJ>
2.5937631

>  <BCUT_PEOE_0>
-2.6168599

>  <BCUT_PEOE_1>
-0.70525628

>  <BCUT_PEOE_2>
0.75331581

>  <BCUT_PEOE_3>
2.638196

>  <BCUT_SLOGP_0>
-2.8413661

>  <BCUT_SLOGP_1>
-0.75850207

>  <BCUT_SLOGP_2>
0.59880555

>  <BCUT_SLOGP_3>
2.4529486

>  <BCUT_SMR_0>
-2.3861036

>  <BCUT_SMR_1>
-0.48438415

>  <BCUT_SMR_2>
0.90907031

>  <BCUT_SMR_3>
2.8665938

>  <bpol>
86.361938

>  <b_1rotN>
26

>  <b_1rotR>
0.38235295

>  <b_ar>
12

>  <b_count>
116

>  <b_double>
6

>  <b_heavy>
68

>  <b_max1len>
7

>  <b_rotN>
30

>  <b_rotR>
0.44117647

>  <b_single>
98

>  <b_triple>
0

>  <chi0>
51.358196

>  <chi0v>
47.906021

>  <chi0v_C>
21.982763

>  <chi0_C>
23.375069

>  <chi1>
31.397629

>  <chi1v>
25.643732

>  <chi1v_C>
9.306426

>  <chi1_C>
10.749149

>  <chiral>
8

>  <chiral_u>
8

>  <density>
1.2903994

>  <diameter>
22

>  <FCharge>
0

>  <GCUT_PEOE_0>
-0.83008128

>  <GCUT_PEOE_1>
-0.48589909

>  <GCUT_PEOE_2>
0.12808211

>  <GCUT_PEOE_3>
2.9802632

>  <GCUT_SLOGP_0>
-1.1639338

>  <GCUT_SLOGP_1>
-0.49811286

>  <GCUT_SLOGP_2>
0.043966595

>  <GCUT_SLOGP_3>
2.9559691

>  <GCUT_SMR_0>
-0.52305907

>  <GCUT_SMR_1>
-0.25023076

>  <GCUT_SMR_2>
0.28653491

>  <GCUT_SMR_3>
3.3135955

>  <Kier1>
63.116783

>  <Kier2>
29.636518

>  <Kier3>
15.515152

>  <KierA1>
68.91806

>  <KierA2>
32.403458

>  <KierA3>
16.979303

>  <KierFlex>
33.331093

>  <lip_acc>
24

>  <lip_don>
16

>  <lip_druglike>
0

>  <lip_violation>
3

>  <logP(o/w)>
-0.71399999

>  <logS>
-7.3565001

>  <mr>
28.990438

>  <mutagenic>
0

>  <nmol>
1

>  <opr_brigid>
12

>  <opr_leadlike>
0

>  <opr_nring>
2

>  <opr_nrot>
24

>  <opr_violation>
5

>  <PC+>
0

>  <PC->
0

>  <PEOE_PC+>
8.5566177

>  <PEOE_PC->
-8.5566177

>  <PEOE_RPC+>
0.029741729

>  <PEOE_RPC->
0.045917455

>  <PEOE_VSA+0>
86.680656

>  <PEOE_VSA+1>
268.95709

>  <PEOE_VSA+2>
28.321028

>  <PEOE_VSA+3>
34.476051

>  <PEOE_VSA+4>
149.78914

>  <PEOE_VSA+5>
51.798122

>  <PEOE_VSA+6>
0

>  <PEOE_VSA-0>
281.94009

>  <PEOE_VSA-1>
0

>  <PEOE_VSA-2>
0

>  <PEOE_VSA-3>
0

>  <PEOE_VSA-4>
0

>  <PEOE_VSA-5>
81.401527

>  <PEOE_VSA-6>
93.758049

>  <PEOE_VSA_FHYD>
0.6502282

>  <PEOE_VSA_FNEG>
0.42437139

>  <PEOE_VSA_FPNEG>
0.16261818

>  <PEOE_VSA_FPOL>
0.34977183

>  <PEOE_VSA_FPOS>
0.57562858

>  <PEOE_VSA_FPPOS>
0.18715364

>  <PEOE_VSA_HYD>
700.37488

>  <PEOE_VSA_NEG>
457.09967

>  <PEOE_VSA_PNEG>
175.15958

>  <PEOE_VSA_POL>
376.74683

>  <PEOE_VSA_POS>
620.02209

>  <PEOE_VSA_PPOS>
201.58727

>  <petitjean>
0.5

>  <petitjeanSC>
1

>  <Q_PC+>
0

>  <Q_PC->
0

>  <Q_RPC+>
0

>  <Q_RPC->
0

>  <Q_VSA_FHYD>
1

>  <Q_VSA_FNEG>
0

>  <Q_VSA_FPNEG>
0

>  <Q_VSA_FPOL>
0

>  <Q_VSA_FPOS>
1

>  <Q_VSA_FPPOS>
0

>  <Q_VSA_HYD>
1077.1217

>  <Q_VSA_NEG>
0

>  <Q_VSA_PNEG>
0

>  <Q_VSA_POL>
0

>  <Q_VSA_POS>
1077.1217

>  <Q_VSA_PPOS>
0

>  <radius>
11

>  <reactive>
0

>  <rings>
2

>  <RPC+>
0

>  <RPC->
0

>  <rsynth>
0.52238804

>  <SlogP>
-3.8943

>  <SlogP_VSA0>
382.91434

>  <SlogP_VSA1>
31.552702

>  <SlogP_VSA2>
99.484764

>  <SlogP_VSA3>
167.41006

>  <SlogP_VSA4>
108.19116

>  <SlogP_VSA5>
65.794373

>  <SlogP_VSA6>
0

>  <SlogP_VSA7>
0

>  <SlogP_VSA8>
18.868406

>  <SlogP_VSA9>
346.20554

>  <SMR>
28.63534

>  <SMR_VSA0>
143.17329

>  <SMR_VSA1>
304.62271

>  <SMR_VSA2>
88.249489

>  <SMR_VSA3>
54.544773

>  <SMR_VSA4>
5.513495

>  <SMR_VSA5>
18.868406

>  <SMR_VSA6>
198.96277

>  <SMR_VSA7>
406.48642

>  <TPSA>
399.78

>  <VAdjEq>
0.19587551

>  <VAdjMa>
7.0874629

>  <VDistEq>
4.3106146

>  <VDistMa>
11.884621

>  <vdw_area>
1077.1217

>  <vdw_vol>
1260.2601

>  <vsa_acc>
81.401527

>  <vsa_acid>
0

>  <vsa_base>
0

>  <vsa_don>
22.730305

>  <vsa_hyd>
643.1214

>  <vsa_other>
77.697189

>  <vsa_pol>
266.93488

>  <Weight>
1626.239

>  <weinerPath>
21476

>  <weinerPol>
126

>  <zagreb>
330

$$$$