O(CC)C(=O)[C@@H](N[C@H](C(=O)N1[C@@H]2[C@H](C[C@H]1C(O)=O)CCCC2)C)CCC
  MOE2013           2D

 26 27  0  0  1  0  0  0  0  0999 V2000
    0.0000    0.0000    0.0000 O   0  0  0  0  0  0  0  0  0  0  0  0
    1.2930   -0.7600    0.0000 C   0  0  0  0  0  0  0  0  0  0  0  0
    2.5980   -0.0200    0.0000 C   0  0  0  0  0  0  0  0  0  0  0  0
   -1.3050   -0.7400    0.0000 C   0  0  0  0  0  0  0  0  0  0  0  0
   -1.3160   -2.2400    0.0000 O   0  0  0  0  0  0  0  0  0  0  0  0
   -2.5980    0.0200    0.0000 C   0  0  1  0  0  0  0  0  0  0  0  0
   -3.9030   -0.7200    0.0000 N   0  0  0  0  0  0  0  0  0  0  0  0
   -5.1960    0.0400    0.0000 C   0  0  2  0  0  0  0  0  0  0  0  0
   -6.5010   -0.7000    0.0000 C   0  0  0  0  0  0  0  0  0  0  0  0
   -6.5120   -2.2000    0.0000 O   0  0  0  0  0  0  0  0  0  0  0  0
   -7.7940    0.0600    0.0000 N   0  0  0  0  0  0  0  0  0  0  0  0
   -7.9390    1.5530    0.0000 C   0  0  2  0  0  0  0  0  0  0  0  0
   -9.4040    1.8760    0.0000 C   0  0  2  0  0  0  0  0  0  0  0  0
  -10.1640    0.5830    0.0000 C   0  0  0  0  0  0  0  0  0  0  0  0
   -9.1690   -0.5390    0.0000 C   0  0  1  0  0  0  0  0  0  0  0  0
   -9.4920   -2.0040    0.0000 C   0  0  0  0  0  0  0  0  0  0  0  0
   -8.3850   -3.0160    0.0000 O   0  0  0  0  0  0  0  0  0  0  0  0
  -10.9220   -2.4560    0.0000 O   0  0  0  0  0  0  0  0  0  0  0  0
   -9.8560    3.3070    0.0000 C   0  0  0  0  0  0  0  0  0  0  0  0
   -8.8440    4.4140    0.0000 C   0  0  0  0  0  0  0  0  0  0  0  0
   -7.3790    4.0900    0.0000 C   0  0  0  0  0  0  0  0  0  0  0  0
   -6.9270    2.6600    0.0000 C   0  0  0  0  0  0  0  0  0  0  0  0
   -5.1840    1.5400    0.0000 C   0  0  0  0  0  0  0  0  0  0  0  0
   -2.5860    1.5200    0.0000 C   0  0  0  0  0  0  0  0  0  0  0  0
   -1.2820    2.2600    0.0000 C   0  0  0  0  0  0  0  0  0  0  0  0
   -1.2700    3.7600    0.0000 C   0  0  0  0  0  0  0  0  0  0  0  0
  1  2  1  0  0  0  0
  1  4  1  0  0  0  0
  2  3  1  0  0  0  0
  4  5  2  0  0  0  0
  6  4  1  1  0  0  0
  6  7  1  0  0  0  0
  6 24  1  0  0  0  0
  7  8  1  0  0  0  0
  8  9  1  0  0  0  0
  8 23  1  6  0  0  0
  9 10  2  0  0  0  0
  9 11  1  0  0  0  0
 11 12  1  0  0  0  0
 11 15  1  0  0  0  0
 12 13  1  0  0  0  0
 12 22  1  6  0  0  0
 13 14  1  0  0  0  0
 13 19  1  6  0  0  0
 14 15  1  0  0  0  0
 15 16  1  6  0  0  0
 16 17  1  0  0  0  0
 16 18  2  0  0  0  0
 19 20  1  0  0  0  0
 20 21  1  0  0  0  0
 21 22  1  0  0  0  0
 24 25  1  0  0  0  0
 25 26  1  0  0  0  0
M  END
>  <Index>
1689

>  <ID>
HT1637

>  <class>
1

>  <apol>
60.987377

>  <ast_fraglike>
0

>  <ast_fraglike_ext>
0

>  <ast_violation>
2

>  <ast_violation_ext>
3

>  <a_acc>
5

>  <a_acid>
0

>  <a_aro>
0

>  <a_base>
0

>  <a_count>
58

>  <a_don>
3

>  <a_donacc>
8

>  <a_heavy>
26

>  <a_hyd>
16

>  <a_IC>
85.442635

>  <a_ICM>
1.4731488

>  <a_nB>
0

>  <a_nBr>
0

>  <a_nC>
19

>  <a_nCl>
0

>  <a_nF>
0

>  <a_nH>
32

>  <a_nI>
0

>  <a_nN>
2

>  <a_nO>
5

>  <a_nP>
0

>  <a_nS>
0

>  <balabanJ>
2.0671573

>  <BCUT_PEOE_0>
-2.7866743

>  <BCUT_PEOE_1>
-0.48160702

>  <BCUT_PEOE_2>
0.47223666

>  <BCUT_PEOE_3>
2.8589725

>  <BCUT_SLOGP_0>
-2.8299878

>  <BCUT_SLOGP_1>
-0.44725421

>  <BCUT_SLOGP_2>
0.47546515

>  <BCUT_SLOGP_3>
2.89217

>  <BCUT_SMR_0>
-2.5370631

>  <BCUT_SMR_1>
-0.31283572

>  <BCUT_SMR_2>
0.56780517

>  <BCUT_SMR_3>
3.1095545

>  <bpol>
42.412624

>  <b_1rotN>
9

>  <b_1rotR>
0.33333334

>  <b_ar>
0

>  <b_count>
59

>  <b_double>
3

>  <b_heavy>
27

>  <b_max1len>
8

>  <b_rotN>
10

>  <b_rotR>
0.37037036

>  <b_single>
56

>  <b_triple>
0

>  <chi0>
19.26722

>  <chi0v>
16.071026

>  <chi0v_C>
13.043606

>  <chi0_C>
13.275657

>  <chi1>
12.400285

>  <chi1v>
9.8782978

>  <chi1v_C>
7.2321639

>  <chi1_C>
7.3661385

>  <chiral>
5

>  <chiral_u>
0

>  <density>
0.72653186

>  <diameter>
12

>  <FCharge>
0

>  <GCUT_PEOE_0>
-0.83484411

>  <GCUT_PEOE_1>
-0.38497248

>  <GCUT_PEOE_2>
0.041548297

>  <GCUT_PEOE_3>
2.9843237

>  <GCUT_SLOGP_0>
-1.1549829

>  <GCUT_SLOGP_1>
-0.32282159

>  <GCUT_SLOGP_2>
0.048683446

>  <GCUT_SLOGP_3>
2.969347

>  <GCUT_SMR_0>
-0.53075629

>  <GCUT_SMR_1>
-0.22234376

>  <GCUT_SMR_2>
0.12415292

>  <GCUT_SMR_3>
3.2071698

>  <Kier1>
22.29081

>  <Kier2>
10.518627

>  <Kier3>
5.5177011

>  <KierA1>
19.583042

>  <KierA2>
9.1906738

>  <KierA3>
4.8023586

>  <KierFlex>
6.9223595

>  <lip_acc>
7

>  <lip_don>
2

>  <lip_druglike>
1

>  <lip_violation>
0

>  <logP(o/w)>
2.8529999

>  <logS>
-3.223

>  <mr>
9.8800392

>  <mutagenic>
0

>  <nmol>
1

>  <opr_brigid>
10

>  <opr_leadlike>
1

>  <opr_nring>
2

>  <opr_nrot>
9

>  <opr_violation>
0

>  <PC+>
0

>  <PC->
0

>  <PEOE_PC+>
2.5117919

>  <PEOE_PC->
-2.5117919

>  <PEOE_RPC+>
0.11243308

>  <PEOE_RPC->
0.13126722

>  <PEOE_VSA+0>
105.51523

>  <PEOE_VSA+1>
46.835529

>  <PEOE_VSA+2>
11.764974

>  <PEOE_VSA+3>
0

>  <PEOE_VSA+4>
23.273705

>  <PEOE_VSA+5>
29.416998

>  <PEOE_VSA+6>
0

>  <PEOE_VSA-0>
72.300606

>  <PEOE_VSA-1>
44.851616

>  <PEOE_VSA-2>
0

>  <PEOE_VSA-3>
0

>  <PEOE_VSA-4>
0

>  <PEOE_VSA-5>
40.837654

>  <PEOE_VSA-6>
10.271297

>  <PEOE_VSA_FHYD>
0.73043787

>  <PEOE_VSA_FNEG>
0.43696529

>  <PEOE_VSA_FPNEG>
0.13272721

>  <PEOE_VSA_FPOL>
0.26956216

>  <PEOE_VSA_FPOS>
0.56303471

>  <PEOE_VSA_FPPOS>
0.13683493

>  <PEOE_VSA_HYD>
281.26794

>  <PEOE_VSA_NEG>
168.26117

>  <PEOE_VSA_PNEG>
51.108952

>  <PEOE_VSA_POL>
103.79965

>  <PEOE_VSA_POS>
216.80643

>  <PEOE_VSA_PPOS>
52.690701

>  <petitjean>
0.5

>  <petitjeanSC>
1

>  <Q_PC+>
0

>  <Q_PC->
0

>  <Q_RPC+>
0

>  <Q_RPC->
0

>  <Q_VSA_FHYD>
1

>  <Q_VSA_FNEG>
0

>  <Q_VSA_FPNEG>
0

>  <Q_VSA_FPOL>
0

>  <Q_VSA_FPOS>
1

>  <Q_VSA_FPPOS>
0

>  <Q_VSA_HYD>
385.0676

>  <Q_VSA_NEG>
0

>  <Q_VSA_PNEG>
0

>  <Q_VSA_POL>
0

>  <Q_VSA_POS>
385.0676

>  <Q_VSA_PPOS>
0

>  <radius>
6

>  <reactive>
0

>  <rings>
2

>  <RPC+>
0

>  <RPC->
0

>  <rsynth>
0.57692307

>  <SlogP>
1.9406

>  <SlogP_VSA0>
18.01075

>  <SlogP_VSA1>
23.874025

>  <SlogP_VSA2>
98.514412

>  <SlogP_VSA3>
46.311485

>  <SlogP_VSA4>
4.4107962

>  <SlogP_VSA5>
0

>  <SlogP_VSA6>
0

>  <SlogP_VSA7>
0

>  <SlogP_VSA8>
132.07884

>  <SlogP_VSA9>
99.978043

>  <SMR>
9.6559496

>  <SMR_VSA0>
82.58654

>  <SMR_VSA1>
3.1243138

>  <SMR_VSA2>
47.806774

>  <SMR_VSA3>
15.927875

>  <SMR_VSA4>
0

>  <SMR_VSA5>
132.07884

>  <SMR_VSA6>
41.675972

>  <SMR_VSA7>
99.978043

>  <TPSA>
95.940002

>  <VAdjEq>
0.40176207

>  <VAdjMa>
5.7548876

>  <VDistEq>
3.3564832

>  <VDistMa>
9.1329441

>  <vdw_area>
385.0676

>  <vdw_vol>
507.16837

>  <vsa_acc>
27.133842

>  <vsa_acid>
0

>  <vsa_base>
0

>  <vsa_don>
0

>  <vsa_hyd>
249.95003

>  <vsa_other>
44.870285

>  <vsa_pol>
59.95026

>  <Weight>
368.474

>  <weinerPath>
1665

>  <weinerPol>
41

>  <zagreb>
128

$$$$