Clc1cc2NC(N(c3ccccc3C)C(=O)c2cc1S(=O)(=O)N)C
  MOE2013           2D

 24 26  0  0  1  0  0  0  0  0999 V2000
    0.0000    0.0000    0.0000 Cl  0  0  0  0  0  0  0  0  0  0  0  0
   -1.5000   -0.0060    0.0000 C   0  0  0  0  0  0  0  0  0  0  0  0
   -2.2550    1.2900    0.0000 C   0  0  0  0  0  0  0  0  0  0  0  0
   -3.7550    1.2840    0.0000 C   0  0  0  0  0  0  0  0  0  0  0  0
   -4.5100    2.5800    0.0000 N   0  0  0  0  0  0  0  0  0  0  0  0
   -6.0100    2.5740    0.0000 C   0  0  3  0  0  0  0  0  0  0  0  0
   -6.7550    1.2720    0.0000 N   0  0  0  0  0  0  0  0  0  0  0  0
   -8.2550    1.2660    0.0000 C   0  0  0  0  0  0  0  0  0  0  0  0
   -9.0000   -0.0360    0.0000 C   0  0  0  0  0  0  0  0  0  0  0  0
  -10.5000   -0.0420    0.0000 C   0  0  0  0  0  0  0  0  0  0  0  0
  -11.2550    1.2540    0.0000 C   0  0  0  0  0  0  0  0  0  0  0  0
  -10.5100    2.5560    0.0000 C   0  0  0  0  0  0  0  0  0  0  0  0
   -9.0100    2.5620    0.0000 C   0  0  0  0  0  0  0  0  0  0  0  0
   -8.2650    3.8640    0.0000 C   0  0  0  0  0  0  0  0  0  0  0  0
   -6.0000   -0.0240    0.0000 C   0  0  0  0  0  0  0  0  0  0  0  0
   -6.7450   -1.3260    0.0000 O   0  0  0  0  0  0  0  0  0  0  0  0
   -4.5000   -0.0180    0.0000 C   0  0  0  0  0  0  0  0  0  0  0  0
   -3.7450   -1.3140    0.0000 C   0  0  0  0  0  0  0  0  0  0  0  0
   -2.2450   -1.3080    0.0000 C   0  0  0  0  0  0  0  0  0  0  0  0
   -1.4900   -2.6040    0.0000 S   0  0  0  0  0  0  0  0  0  0  0  0
   -2.7860   -3.3590    0.0000 O   0  0  0  0  0  0  0  0  0  0  0  0
   -0.1940   -1.8490    0.0000 O   0  0  0  0  0  0  0  0  0  0  0  0
   -0.7350   -3.9000    0.0000 N   0  0  0  0  0  0  0  0  0  0  0  0
   -6.7650    3.8700    0.0000 C   0  0  0  0  0  0  0  0  0  0  0  0
  1  2  1  0  0  0  0
  2  3  1  0  0  0  0
  2 19  2  0  0  0  0
  3  4  2  0  0  0  0
  4  5  1  0  0  0  0
  4 17  1  0  0  0  0
  5  6  1  0  0  0  0
  6  7  1  0  0  0  0
  6 24  1  0  0  0  0
  7  8  1  0  0  0  0
  7 15  1  0  0  0  0
  8  9  1  0  0  0  0
  8 13  2  0  0  0  0
  9 10  2  0  0  0  0
 10 11  1  0  0  0  0
 11 12  2  0  0  0  0
 12 13  1  0  0  0  0
 13 14  1  0  0  0  0
 15 16  2  0  0  0  0
 15 17  1  0  0  0  0
 17 18  2  0  0  0  0
 18 19  1  0  0  0  0
 19 20  1  0  0  0  0
 20 21  2  0  0  0  0
 20 22  2  0  0  0  0
 20 23  1  0  0  0  0
M  END
>  <Index>
1650

>  <ID>
HT1378

>  <class>
1

>  <apol>
49.614689

>  <ast_fraglike>
0

>  <ast_fraglike_ext>
0

>  <ast_violation>
1

>  <ast_violation_ext>
2

>  <a_acc>
3

>  <a_acid>
0

>  <a_aro>
12

>  <a_base>
0

>  <a_count>
40

>  <a_don>
2

>  <a_donacc>
5

>  <a_heavy>
24

>  <a_hyd>
15

>  <a_IC>
75.367348

>  <a_ICM>
1.8841838

>  <a_nB>
0

>  <a_nBr>
0

>  <a_nC>
16

>  <a_nCl>
1

>  <a_nF>
0

>  <a_nH>
16

>  <a_nI>
0

>  <a_nN>
3

>  <a_nO>
3

>  <a_nP>
0

>  <a_nS>
1

>  <balabanJ>
1.7961094

>  <BCUT_PEOE_0>
-2.588882

>  <BCUT_PEOE_1>
-0.53389156

>  <BCUT_PEOE_2>
0.6000694

>  <BCUT_PEOE_3>
2.5461466

>  <BCUT_SLOGP_0>
-2.6901598

>  <BCUT_SLOGP_1>
-0.43380886

>  <BCUT_SLOGP_2>
0.70032674

>  <BCUT_SLOGP_3>
2.5380177

>  <BCUT_SMR_0>
-2.2774436

>  <BCUT_SMR_1>
-0.40497217

>  <BCUT_SMR_2>
0.73855525

>  <BCUT_SMR_3>
2.8583863

>  <bpol>
27.325312

>  <b_1rotN>
2

>  <b_1rotR>
0.07692308

>  <b_ar>
12

>  <b_count>
42

>  <b_double>
1

>  <b_heavy>
26

>  <b_max1len>
3

>  <b_rotN>
2

>  <b_rotR>
0.07692308

>  <b_single>
29

>  <b_triple>
0

>  <chi0>
17.645901

>  <chi0v>
14.649399

>  <chi0v_C>
9.5414515

>  <chi0_C>
10.861443

>  <chi1>
11.197396

>  <chi1v>
9.1440392

>  <chi1v_C>
4.809401

>  <chi1_C>
6.4375238

>  <chiral>
1

>  <chiral_u>
1

>  <density>
0.84624225

>  <diameter>
10

>  <FCharge>
0

>  <GCUT_PEOE_0>
-0.81384492

>  <GCUT_PEOE_1>
-0.39676067

>  <GCUT_PEOE_2>
0.061815564

>  <GCUT_PEOE_3>
2.6586478

>  <GCUT_SLOGP_0>
-1.3482753

>  <GCUT_SLOGP_1>
-0.32987744

>  <GCUT_SLOGP_2>
0.14423659

>  <GCUT_SLOGP_3>
2.7226396

>  <GCUT_SMR_0>
-0.50417459

>  <GCUT_SMR_1>
-0.18007974

>  <GCUT_SMR_2>
0.16301441

>  <GCUT_SMR_3>
2.9535856

>  <Kier1>
18.781065

>  <Kier2>
6.9575

>  <Kier3>
3.6183696

>  <KierA1>
15.933104

>  <KierA2>
5.8578615

>  <KierA3>
3.0298915

>  <KierFlex>
3.8889134

>  <lip_acc>
6

>  <lip_don>
3

>  <lip_druglike>
1

>  <lip_violation>
0

>  <logP(o/w)>
2.276

>  <logS>
-4.52349

>  <mr>
9.3198977

>  <mutagenic>
0

>  <nmol>
1

>  <opr_brigid>
17

>  <opr_leadlike>
1

>  <opr_nring>
3

>  <opr_nrot>
2

>  <opr_violation>
0

>  <PC+>
0

>  <PC->
0

>  <PEOE_PC+>
1.8889004

>  <PEOE_PC->
-1.8889004

>  <PEOE_RPC+>
0.15927832

>  <PEOE_RPC->
0.1545568

>  <PEOE_VSA+0>
66.335052

>  <PEOE_VSA+1>
51.958118

>  <PEOE_VSA+2>
13.13876

>  <PEOE_VSA+3>
0

>  <PEOE_VSA+4>
0

>  <PEOE_VSA+5>
12.949531

>  <PEOE_VSA+6>
4.1846013

>  <PEOE_VSA-0>
64.213699

>  <PEOE_VSA-1>
66.346657

>  <PEOE_VSA-2>
0

>  <PEOE_VSA-3>
9.0437498

>  <PEOE_VSA-4>
32.016521

>  <PEOE_VSA-5>
13.703812

>  <PEOE_VSA-6>
0

>  <PEOE_VSA_FHYD>
0.81175125

>  <PEOE_VSA_FNEG>
0.55504555

>  <PEOE_VSA_FPNEG>
0.13693212

>  <PEOE_VSA_FPOL>
0.18824874

>  <PEOE_VSA_FPOS>
0.44495443

>  <PEOE_VSA_FPPOS>
0.051316619

>  <PEOE_VSA_HYD>
271.03604

>  <PEOE_VSA_NEG>
185.32445

>  <PEOE_VSA_PNEG>
45.720337

>  <PEOE_VSA_POL>
62.854465

>  <PEOE_VSA_POS>
148.56606

>  <PEOE_VSA_PPOS>
17.134132

>  <petitjean>
0.5

>  <petitjeanSC>
1

>  <Q_PC+>
0

>  <Q_PC->
0

>  <Q_RPC+>
0

>  <Q_RPC->
0

>  <Q_VSA_FHYD>
1

>  <Q_VSA_FNEG>
0

>  <Q_VSA_FPNEG>
0

>  <Q_VSA_FPOL>
0

>  <Q_VSA_FPOS>
1

>  <Q_VSA_FPPOS>
0

>  <Q_VSA_HYD>
333.8905

>  <Q_VSA_NEG>
0

>  <Q_VSA_PNEG>
0

>  <Q_VSA_POL>
0

>  <Q_VSA_POS>
333.8905

>  <Q_VSA_PPOS>
0

>  <radius>
5

>  <reactive>
0

>  <rings>
3

>  <RPC+>
0

>  <RPC->
0

>  <rsynth>
1

>  <SlogP>
2.7141199

>  <SlogP_VSA0>
34.415749

>  <SlogP_VSA1>
71.441223

>  <SlogP_VSA2>
10.193884

>  <SlogP_VSA3>
0

>  <SlogP_VSA4>
30.233366

>  <SlogP_VSA5>
1.5507339

>  <SlogP_VSA6>
3.5006065

>  <SlogP_VSA7>
105.85911

>  <SlogP_VSA8>
0

>  <SlogP_VSA9>
111.31417

>  <SMR>
9.3898401

>  <SMR_VSA0>
72.033905

>  <SMR_VSA1>
0

>  <SMR_VSA2>
4.6750479

>  <SMR_VSA3>
13.424898

>  <SMR_VSA4>
54.815681

>  <SMR_VSA5>
105.85911

>  <SMR_VSA6>
5.2587838

>  <SMR_VSA7>
112.44141

>  <TPSA>
92.5

>  <VAdjEq>
0.43739632

>  <VAdjMa>
5.7004399

>  <VDistEq>
3.1432741

>  <VDistMa>
8.9023447

>  <vdw_area>
333.8905

>  <vdw_vol>
432.31238

>  <vsa_acc>
45.583443

>  <vsa_acid>
0

>  <vsa_base>
0

>  <vsa_don>
25.817696

>  <vsa_hyd>
209.77034

>  <vsa_other>
34.245701

>  <vsa_pol>
71.401138

>  <Weight>
365.841

>  <weinerPath>
1228

>  <weinerPol>
44

>  <zagreb>
132

$$$$