OC=1[C@]2(O)[C@@H](C[C@H]3C(C2=O)=C(O)c2c(C3)c(N(C)C)cc(NC(=O)CNC(C)(C)C)c2O)[C@H](N(C)C)C(=O)C=1C(=O)N
  MOE2013           2D

 42 45  0  0  1  0  0  0  0  0999 V2000
    0.0000    0.0000    0.0000 O   0  0  0  0  0  0  0  0  0  0  0  0
   -0.7560    1.2950    0.0000 C   0  0  0  0  0  0  0  0  0  0  0  0
   -0.0130    2.5980    0.0000 C   0  0  2  0  0  0  0  0  0  0  0  0
    0.7440    1.3030    0.0000 O   0  0  0  0  0  0  0  0  0  0  0  0
   -0.7690    3.8930    0.0000 C   0  0  1  0  0  0  0  0  0  0  0  0
   -0.0250    5.1960    0.0000 C   0  0  0  0  0  0  0  0  0  0  0  0
    1.4750    5.2030    0.0000 C   0  0  1  0  0  0  0  0  0  0  0  0
    2.2310    3.9080    0.0000 C   0  0  0  0  0  0  0  0  0  0  0  0
    1.4870    2.6050    0.0000 C   0  0  0  0  0  0  0  0  0  0  0  0
    2.2440    1.3100    0.0000 O   0  0  0  0  0  0  0  0  0  0  0  0
    3.7310    3.9150    0.0000 C   0  0  0  0  0  0  0  0  0  0  0  0
    4.4870    2.6200    0.0000 O   0  0  0  0  0  0  0  0  0  0  0  0
    4.4750    5.2180    0.0000 C   0  0  0  0  0  0  0  0  0  0  0  0
    3.7180    6.5130    0.0000 C   0  0  0  0  0  0  0  0  0  0  0  0
    2.2180    6.5060    0.0000 C   0  0  0  0  0  0  0  0  0  0  0  0
    4.4620    7.8160    0.0000 C   0  0  0  0  0  0  0  0  0  0  0  0
    3.7060    9.1110    0.0000 N   0  0  0  0  0  0  0  0  0  0  0  0
    2.2060    9.1040    0.0000 C   0  0  0  0  0  0  0  0  0  0  0  0
    4.4490   10.4140    0.0000 C   0  0  0  0  0  0  0  0  0  0  0  0
    5.9620    7.8230    0.0000 C   0  0  0  0  0  0  0  0  0  0  0  0
    6.7180    6.5280    0.0000 C   0  0  0  0  0  0  0  0  0  0  0  0
    8.2180    6.5350    0.0000 N   0  0  0  0  0  0  0  0  0  0  0  0
    8.9620    7.8380    0.0000 C   0  0  0  0  0  0  0  0  0  0  0  0
    8.2060    9.1330    0.0000 O   0  0  0  0  0  0  0  0  0  0  0  0
   10.4620    7.8450    0.0000 C   0  0  0  0  0  0  0  0  0  0  0  0
   11.2060    9.1480    0.0000 N   0  0  0  0  0  0  0  0  0  0  0  0
   12.7060    9.1550    0.0000 C   0  0  0  0  0  0  0  0  0  0  0  0
   12.7130    7.6550    0.0000 C   0  0  0  0  0  0  0  0  0  0  0  0
   12.6980   10.6550    0.0000 C   0  0  0  0  0  0  0  0  0  0  0  0
   14.2060    9.1620    0.0000 C   0  0  0  0  0  0  0  0  0  0  0  0
    5.9750    5.2250    0.0000 C   0  0  0  0  0  0  0  0  0  0  0  0
    6.7310    3.9300    0.0000 O   0  0  0  0  0  0  0  0  0  0  0  0
   -2.2690    3.8860    0.0000 C   0  0  2  0  0  0  0  0  0  0  0  0
   -3.0250    5.1820    0.0000 N   0  0  0  0  0  0  0  0  0  0  0  0
   -4.5250    5.1740    0.0000 C   0  0  0  0  0  0  0  0  0  0  0  0
   -2.2820    6.4840    0.0000 C   0  0  0  0  0  0  0  0  0  0  0  0
   -3.0130    2.5830    0.0000 C   0  0  0  0  0  0  0  0  0  0  0  0
   -4.5130    2.5760    0.0000 O   0  0  0  0  0  0  0  0  0  0  0  0
   -2.2560    1.2880    0.0000 C   0  0  0  0  0  0  0  0  0  0  0  0
   -3.0000   -0.0150    0.0000 C   0  0  0  0  0  0  0  0  0  0  0  0
   -4.5000   -0.0220    0.0000 O   0  0  0  0  0  0  0  0  0  0  0  0
   -2.2440   -1.3100    0.0000 N   0  0  0  0  0  0  0  0  0  0  0  0
  1  2  1  0  0  0  0
  2  3  1  0  0  0  0
  2 39  2  0  0  0  0
  3  4  1  1  0  0  0
  3  5  1  0  0  0  0
  3  9  1  0  0  0  0
  5  6  1  6  0  0  0
  5 33  1  0  0  0  0
  6  7  1  0  0  0  0
  7  8  1  6  0  0  0
  7 15  1  0  0  0  0
  8  9  1  0  0  0  0
  8 11  2  0  0  0  0
  9 10  2  0  0  0  0
 11 12  1  0  0  0  0
 11 13  1  0  0  0  0
 13 14  2  0  0  0  0
 13 31  1  0  0  0  0
 14 15  1  0  0  0  0
 14 16  1  0  0  0  0
 16 17  1  0  0  0  0
 16 20  2  0  0  0  0
 17 18  1  0  0  0  0
 17 19  1  0  0  0  0
 20 21  1  0  0  0  0
 21 22  1  0  0  0  0
 21 31  2  0  0  0  0
 22 23  1  0  0  0  0
 23 24  2  0  0  0  0
 23 25  1  0  0  0  0
 25 26  1  0  0  0  0
 26 27  1  0  0  0  0
 27 28  1  0  0  0  0
 27 29  1  0  0  0  0
 27 30  1  0  0  0  0
 31 32  1  0  0  0  0
 33 34  1  1  0  0  0
 33 37  1  0  0  0  0
 34 35  1  0  0  0  0
 34 36  1  0  0  0  0
 37 38  2  0  0  0  0
 37 39  1  0  0  0  0
 39 40  1  0  0  0  0
 40 41  2  0  0  0  0
 40 42  1  0  0  0  0
M  END
>  <Index>
1745

>  <ID>
HT2060

>  <class>
1

>  <apol>
88.96093

>  <ast_fraglike>
0

>  <ast_fraglike_ext>
0

>  <ast_violation>
3

>  <ast_violation_ext>
5

>  <a_acc>
10

>  <a_acid>
0

>  <a_aro>
6

>  <a_base>
0

>  <a_count>
81

>  <a_don>
9

>  <a_donacc>
19

>  <a_heavy>
42

>  <a_hyd>
25

>  <a_IC>
130.90607

>  <a_ICM>
1.6161244

>  <a_nB>
0

>  <a_nBr>
0

>  <a_nC>
29

>  <a_nCl>
0

>  <a_nF>
0

>  <a_nH>
39

>  <a_nI>
0

>  <a_nN>
5

>  <a_nO>
8

>  <a_nP>
0

>  <a_nS>
0

>  <balabanJ>
1.6576322

>  <BCUT_PEOE_0>
-2.7736037

>  <BCUT_PEOE_1>
-0.42799616

>  <BCUT_PEOE_2>
0.44042191

>  <BCUT_PEOE_3>
2.830868

>  <BCUT_SLOGP_0>
-2.8690126

>  <BCUT_SLOGP_1>
-0.40389106

>  <BCUT_SLOGP_2>
0.40137365

>  <BCUT_SLOGP_3>
2.7835186

>  <BCUT_SMR_0>
-2.5365407

>  <BCUT_SMR_1>
-0.23380056

>  <BCUT_SMR_2>
0.5817185

>  <BCUT_SMR_3>
3.0631778

>  <bpol>
51.087074

>  <b_1rotN>
6

>  <b_1rotR>
0.13333334

>  <b_ar>
6

>  <b_count>
84

>  <b_double>
6

>  <b_heavy>
45

>  <b_max1len>
5

>  <b_rotN>
8

>  <b_rotR>
0.17777778

>  <b_single>
72

>  <b_triple>
0

>  <chi0>
31.634945

>  <chi0v>
24.824347

>  <chi0v_C>
18.930721

>  <chi0_C>
20.066031

>  <chi1>
19.322016

>  <chi1v>
13.582373

>  <chi1v_C>
8.2085609

>  <chi1_C>
9.5570965

>  <chiral>
4

>  <chiral_u>
0

>  <density>
0.77151126

>  <diameter>
16

>  <FCharge>
0

>  <GCUT_PEOE_0>
-0.84918076

>  <GCUT_PEOE_1>
-0.42895851

>  <GCUT_PEOE_2>
0.022157777

>  <GCUT_PEOE_3>
3.1840348

>  <GCUT_SLOGP_0>
-1.3705214

>  <GCUT_SLOGP_1>
-0.37942848

>  <GCUT_SLOGP_2>
0.028429454

>  <GCUT_SLOGP_3>
3.1888151

>  <GCUT_SMR_0>
-0.52352995

>  <GCUT_SMR_1>
-0.19174221

>  <GCUT_SMR_2>
0.14684387

>  <GCUT_SMR_3>
3.4364076

>  <Kier1>
34.865185

>  <Kier2>
12.654321

>  <Kier3>
6.2399998

>  <KierA1>
27.788609

>  <KierA2>
10.027045

>  <KierA3>
4.9243679

>  <KierFlex>
6.6342292

>  <lip_acc>
13

>  <lip_don>
8

>  <lip_druglike>
0

>  <lip_violation>
3

>  <logP(o/w)>
-0.25600001

>  <logS>
-3.40628

>  <mr>
15.031704

>  <mutagenic>
0

>  <nmol>
1

>  <opr_brigid>
21

>  <opr_leadlike>
0

>  <opr_nring>
4

>  <opr_nrot>
7

>  <opr_violation>
3

>  <PC+>
0

>  <PC->
0

>  <PEOE_PC+>
4.4166307

>  <PEOE_PC->
-4.4166307

>  <PEOE_RPC+>
0.057787456

>  <PEOE_RPC->
0.084662244

>  <PEOE_VSA+0>
126.28205

>  <PEOE_VSA+1>
48.557899

>  <PEOE_VSA+2>
27.744591

>  <PEOE_VSA+3>
34.315559

>  <PEOE_VSA+4>
62.704742

>  <PEOE_VSA+5>
12.949531

>  <PEOE_VSA+6>
0

>  <PEOE_VSA-0>
181.06386

>  <PEOE_VSA-1>
0

>  <PEOE_VSA-2>
0

>  <PEOE_VSA-3>
0

>  <PEOE_VSA-4>
0

>  <PEOE_VSA-5>
54.267685

>  <PEOE_VSA-6>
37.995064

>  <PEOE_VSA_FHYD>
0.71339399

>  <PEOE_VSA_FNEG>
0.4665224

>  <PEOE_VSA_FPNEG>
0.15747695

>  <PEOE_VSA_FPOL>
0.28660601

>  <PEOE_VSA_FPOS>
0.5334776

>  <PEOE_VSA_FPPOS>
0.12912908

>  <PEOE_VSA_HYD>
417.96396

>  <PEOE_VSA_NEG>
273.3266

>  <PEOE_VSA_PNEG>
92.262749

>  <PEOE_VSA_POL>
167.91702

>  <PEOE_VSA_POS>
312.55438

>  <PEOE_VSA_PPOS>
75.654274

>  <petitjean>
0.5

>  <petitjeanSC>
1

>  <Q_PC+>
0

>  <Q_PC->
0

>  <Q_RPC+>
0

>  <Q_RPC->
0

>  <Q_VSA_FHYD>
1

>  <Q_VSA_FNEG>
0

>  <Q_VSA_FPNEG>
0

>  <Q_VSA_FPOL>
0

>  <Q_VSA_FPOS>
1

>  <Q_VSA_FPPOS>
0

>  <Q_VSA_HYD>
585.88098

>  <Q_VSA_NEG>
0

>  <Q_VSA_PNEG>
0

>  <Q_VSA_POL>
0

>  <Q_VSA_POS>
585.88098

>  <Q_VSA_PPOS>
0

>  <radius>
8

>  <reactive>
0

>  <rings>
4

>  <RPC+>
0

>  <RPC->
0

>  <rsynth>
0.42857143

>  <SlogP>
0.35657001

>  <SlogP_VSA0>
104.8027

>  <SlogP_VSA1>
43.027855

>  <SlogP_VSA2>
99.430832

>  <SlogP_VSA3>
69.21003

>  <SlogP_VSA4>
15.192742

>  <SlogP_VSA5>
162.07173

>  <SlogP_VSA6>
0

>  <SlogP_VSA7>
22.886612

>  <SlogP_VSA8>
18.868406

>  <SlogP_VSA9>
110.73497

>  <SMR>
15.4957

>  <SMR_VSA0>
95.448868

>  <SMR_VSA1>
53.894768

>  <SMR_VSA2>
80.727112

>  <SMR_VSA3>
27.211124

>  <SMR_VSA4>
61.66486

>  <SMR_VSA5>
55.379993

>  <SMR_VSA6>
40.332367

>  <SMR_VSA7>
231.56679

>  <TPSA>
205.75999

>  <VAdjEq>
0.29071587

>  <VAdjMa>
6.4918532

>  <VDistEq>
3.7879663

>  <VDistMa>
10.514056

>  <vdw_area>
585.88098

>  <vdw_vol>
759.10492

>  <vsa_acc>
27.133842

>  <vsa_acid>
0

>  <vsa_base>
0

>  <vsa_don>
23.425066

>  <vsa_hyd>
350.27362

>  <vsa_other>
42.816101

>  <vsa_pol>
137.64301

>  <Weight>
585.65796

>  <weinerPath>
5641

>  <weinerPol>
88

>  <zagreb>
234

$$$$