s1cc(nc1N)/C(=C/CC(O)=O)/C(=O)N[C@H]1[C@H]2SCC=C(N2C1=O)C(O)=O
  MOE2013           2D

 27 29  0  0  1  0  0  0  0  0999 V2000
    0.0000    0.0000    0.0000 S   0  0  0  0  0  0  0  0  0  0  0  0
    1.0100   -1.1090    0.0000 C   0  0  0  0  0  0  0  0  0  0  0  0
    0.2680   -2.4120    0.0000 C   0  0  0  0  0  0  0  0  0  0  0  0
   -1.2010   -2.1090    0.0000 N   0  0  0  0  0  0  0  0  0  0  0  0
   -1.3670   -0.6180    0.0000 C   0  0  0  0  0  0  0  0  0  0  0  0
   -2.6700    0.1240    0.0000 N   0  0  0  0  0  0  0  0  0  0  0  0
    0.8860   -3.7790    0.0000 C   0  0  0  0  0  0  0  0  0  0  0  0
    0.0110   -4.9980    0.0000 C   0  0  0  0  0  0  0  0  0  0  0  0
    0.6300   -6.3640    0.0000 C   0  0  0  0  0  0  0  0  0  0  0  0
   -0.2450   -7.5830    0.0000 C   0  0  0  0  0  0  0  0  0  0  0  0
    0.3730   -8.9500    0.0000 O   0  0  0  0  0  0  0  0  0  0  0  0
   -1.7380   -7.4350    0.0000 O   0  0  0  0  0  0  0  0  0  0  0  0
    2.3790   -3.9270    0.0000 C   0  0  0  0  0  0  0  0  0  0  0  0
    2.9970   -5.2940    0.0000 O   0  0  0  0  0  0  0  0  0  0  0  0
    3.2530   -2.7080    0.0000 N   0  0  0  0  0  0  0  0  0  0  0  0
    4.7460   -2.8560    0.0000 C   0  0  1  0  0  0  0  0  0  0  0  0
    5.9060   -1.9060    0.0000 C   0  0  1  0  0  0  0  0  0  0  0  0
    6.4350   -0.5020    0.0000 S   0  0  0  0  0  0  0  0  0  0  0  0
    7.9160   -0.2590    0.0000 C   0  0  0  0  0  0  0  0  0  0  0  0
    8.8660   -1.4190    0.0000 C   0  0  0  0  0  0  0  0  0  0  0  0
    8.3370   -2.8220    0.0000 C   0  0  0  0  0  0  0  0  0  0  0  0
    6.8570   -3.0660    0.0000 N   0  0  0  0  0  0  0  0  0  0  0  0
    5.6970   -4.0170    0.0000 C   0  0  0  0  0  0  0  0  0  0  0  0
    5.5490   -5.5090    0.0000 O   0  0  0  0  0  0  0  0  0  0  0  0
    9.2880   -3.9830    0.0000 C   0  0  0  0  0  0  0  0  0  0  0  0
    8.7580   -5.3860    0.0000 O   0  0  0  0  0  0  0  0  0  0  0  0
   10.7680   -3.7390    0.0000 O   0  0  0  0  0  0  0  0  0  0  0  0
  1  2  1  0  0  0  0
  1  5  1  0  0  0  0
  2  3  2  0  0  0  0
  3  4  1  0  0  0  0
  3  7  1  0  0  0  0
  4  5  2  0  0  0  0
  5  6  1  0  0  0  0
  7  8  2  0  0  0  0
  7 13  1  0  0  0  0
  8  9  1  0  0  0  0
  9 10  1  0  0  0  0
 10 11  1  0  0  0  0
 10 12  2  0  0  0  0
 13 14  2  0  0  0  0
 13 15  1  0  0  0  0
 16 15  1  1  0  0  0
 16 17  1  0  0  0  0
 16 23  1  0  0  0  0
 17 18  1  0  0  0  0
 17 22  1  1  0  0  0
 18 19  1  0  0  0  0
 19 20  1  0  0  0  0
 20 21  2  0  0  0  0
 21 22  1  0  0  0  0
 21 25  1  0  0  0  0
 22 23  1  0  0  0  0
 23 24  2  0  0  0  0
 25 26  1  0  0  0  0
 25 27  2  0  0  0  0
M  END
>  <Index>
1477

>  <ID>
HT0424

>  <class>
1

>  <apol>
50.747101

>  <ast_fraglike>
0

>  <ast_fraglike_ext>
0

>  <ast_violation>
3

>  <ast_violation_ext>
5

>  <a_acc>
7

>  <a_acid>
0

>  <a_aro>
5

>  <a_base>
0

>  <a_count>
41

>  <a_don>
6

>  <a_donacc>
13

>  <a_heavy>
27

>  <a_hyd>
12

>  <a_IC>
82.24353

>  <a_ICM>
2.0059397

>  <a_nB>
0

>  <a_nBr>
0

>  <a_nC>
15

>  <a_nCl>
0

>  <a_nF>
0

>  <a_nH>
14

>  <a_nI>
0

>  <a_nN>
4

>  <a_nO>
6

>  <a_nP>
0

>  <a_nS>
2

>  <balabanJ>
1.6216742

>  <BCUT_PEOE_0>
-2.6773541

>  <BCUT_PEOE_1>
-0.59368551

>  <BCUT_PEOE_2>
0.68071401

>  <BCUT_PEOE_3>
2.7261267

>  <BCUT_SLOGP_0>
-2.8878078

>  <BCUT_SLOGP_1>
-0.58354878

>  <BCUT_SLOGP_2>
0.6958769

>  <BCUT_SLOGP_3>
2.5966706

>  <BCUT_SMR_0>
-2.3923724

>  <BCUT_SMR_1>
-0.41599211

>  <BCUT_SMR_2>
0.88949323

>  <BCUT_SMR_3>
3.0082352

>  <bpol>
26.996899

>  <b_1rotN>
6

>  <b_1rotR>
0.20689656

>  <b_ar>
5

>  <b_count>
43

>  <b_double>
6

>  <b_heavy>
29

>  <b_max1len>
3

>  <b_rotN>
7

>  <b_rotR>
0.24137931

>  <b_single>
32

>  <b_triple>
0

>  <chi0>
19.714813

>  <chi0v>
15.249653

>  <chi0v_C>
8.3009653

>  <chi0_C>
9.3090363

>  <chi1>
12.790602

>  <chi1v>
9.5443821

>  <chi1v_C>
3.4080839

>  <chi1_C>
4.2996597

>  <chiral>
2

>  <chiral_u>
0

>  <density>
0.92070478

>  <diameter>
12

>  <FCharge>
0

>  <GCUT_PEOE_0>
-0.82367295

>  <GCUT_PEOE_1>
-0.48445347

>  <GCUT_PEOE_2>
0.11966088

>  <GCUT_PEOE_3>
2.5406291

>  <GCUT_SLOGP_0>
-1.3345386

>  <GCUT_SLOGP_1>
-0.42892739

>  <GCUT_SLOGP_2>
0.14529833

>  <GCUT_SLOGP_3>
2.5102994

>  <GCUT_SMR_0>
-0.52850544

>  <GCUT_SMR_1>
-0.24468908

>  <GCUT_SMR_2>
0.30297053

>  <GCUT_SMR_3>
2.8299437

>  <Kier1>
21.702734

>  <Kier2>
9.212018

>  <Kier3>
4.7755103

>  <KierA1>
17.937546

>  <KierA2>
7.5548201

>  <KierA3>
3.8938375

>  <KierFlex>
5.0190716

>  <lip_acc>
10

>  <lip_don>
5

>  <lip_druglike>
1

>  <lip_violation>
0

>  <logP(o/w)>
-0.61199999

>  <logS>
-3.0734301

>  <mr>
9.7461996

>  <mutagenic>
1

>  <nmol>
1

>  <opr_brigid>
15

>  <opr_leadlike>
1

>  <opr_nring>
3

>  <opr_nrot>
6

>  <opr_violation>
1

>  <PC+>
0

>  <PC->
0

>  <PEOE_PC+>
3.2082481

>  <PEOE_PC->
-3.2082481

>  <PEOE_RPC+>
0.09589079

>  <PEOE_RPC->
0.10538018

>  <PEOE_VSA+0>
27.738918

>  <PEOE_VSA+1>
52.102959

>  <PEOE_VSA+2>
32.205559

>  <PEOE_VSA+3>
28.379631

>  <PEOE_VSA+4>
20.648346

>  <PEOE_VSA+5>
40.607563

>  <PEOE_VSA+6>
14.708499

>  <PEOE_VSA-0>
12.254904

>  <PEOE_VSA-1>
26.48587

>  <PEOE_VSA-2>
19.760618

>  <PEOE_VSA-3>
0

>  <PEOE_VSA-4>
5.6825762

>  <PEOE_VSA-5>
60.918804

>  <PEOE_VSA-6>
15.671971

>  <PEOE_VSA_FHYD>
0.55696326

>  <PEOE_VSA_FNEG>
0.39414349

>  <PEOE_VSA_FPNEG>
0.23035032

>  <PEOE_VSA_FPOL>
0.44303674

>  <PEOE_VSA_FPOS>
0.60585648

>  <PEOE_VSA_FPPOS>
0.21268642

>  <PEOE_VSA_HYD>
198.92847

>  <PEOE_VSA_NEG>
140.77473

>  <PEOE_VSA_PNEG>
82.273354

>  <PEOE_VSA_POL>
158.23776

>  <PEOE_VSA_POS>
216.39148

>  <PEOE_VSA_PPOS>
75.964409

>  <petitjean>
0.5

>  <petitjeanSC>
1

>  <Q_PC+>
0

>  <Q_PC->
0

>  <Q_RPC+>
0

>  <Q_RPC->
0

>  <Q_VSA_FHYD>
1

>  <Q_VSA_FNEG>
0

>  <Q_VSA_FPNEG>
0

>  <Q_VSA_FPOL>
0

>  <Q_VSA_FPOS>
1

>  <Q_VSA_FPPOS>
0

>  <Q_VSA_HYD>
357.16623

>  <Q_VSA_NEG>
0

>  <Q_VSA_PNEG>
0

>  <Q_VSA_POL>
0

>  <Q_VSA_POS>
357.16623

>  <Q_VSA_PPOS>
0

>  <radius>
6

>  <reactive>
0

>  <rings>
3

>  <RPC+>
0

>  <RPC->
0

>  <rsynth>
1

>  <SlogP>
-0.0482

>  <SlogP_VSA0>
50.90794

>  <SlogP_VSA1>
45.918339

>  <SlogP_VSA2>
101.77796

>  <SlogP_VSA3>
68.004021

>  <SlogP_VSA4>
2.7567475

>  <SlogP_VSA5>
2.7567475

>  <SlogP_VSA6>
0

>  <SlogP_VSA7>
54.287952

>  <SlogP_VSA8>
18.868406

>  <SlogP_VSA9>
63.997974

>  <SMR>
9.7498703

>  <SMR_VSA0>
95.448868

>  <SMR_VSA1>
19.909843

>  <SMR_VSA2>
68.781204

>  <SMR_VSA3>
11.842591

>  <SMR_VSA4>
3.6863215

>  <SMR_VSA5>
102.86797

>  <SMR_VSA6>
43.242062

>  <SMR_VSA7>
63.497231

>  <TPSA>
162.92

>  <VAdjEq>
0.40063059

>  <VAdjMa>
5.8579812

>  <VDistEq>
3.4552724

>  <VDistMa>
9.2330074

>  <vdw_area>
357.16623

>  <vdw_vol>
445.77914

>  <vsa_acc>
32.816418

>  <vsa_acid>
0

>  <vsa_base>
0

>  <vsa_don>
23.425066

>  <vsa_hyd>
153.49864

>  <vsa_other>
68.482681

>  <vsa_pol>
110.50917

>  <Weight>
410.431

>  <weinerPath>
1897

>  <weinerPol>
40

>  <zagreb>
142

$$$$