N(CCCN1c2c(CCc3c1cccc3)cccc2)(C)C
  MOE2013           2D

 21 23  0  0  0  0  0  0  0  0999 V2000
    0.0000    0.0000    0.0000 N   0  0  0  0  0  0  0  0  0  0  0  0
   -1.5000    0.0070    0.0000 C   0  0  0  0  0  0  0  0  0  0  0  0
   -2.2560   -1.2880    0.0000 C   0  0  0  0  0  0  0  0  0  0  0  0
   -3.7560   -1.2800    0.0000 C   0  0  0  0  0  0  0  0  0  0  0  0
   -4.5130   -2.5760    0.0000 N   0  0  0  0  0  0  0  0  0  0  0  0
   -6.0080   -2.4570    0.0000 C   0  0  0  0  0  0  0  0  0  0  0  0
   -7.0340   -3.5520    0.0000 C   0  0  0  0  0  0  0  0  0  0  0  0
   -6.8180   -5.0360    0.0000 C   0  0  0  0  0  0  0  0  0  0  0  0
   -5.5230   -5.7940    0.0000 C   0  0  0  0  0  0  0  0  0  0  0  0
   -4.1240   -5.2510    0.0000 C   0  0  0  0  0  0  0  0  0  0  0  0
   -3.6750   -3.8200    0.0000 C   0  0  0  0  0  0  0  0  0  0  0  0
   -2.2110   -3.4930    0.0000 C   0  0  0  0  0  0  0  0  0  0  0  0
   -1.1960   -4.5980    0.0000 C   0  0  0  0  0  0  0  0  0  0  0  0
   -1.6460   -6.0290    0.0000 C   0  0  0  0  0  0  0  0  0  0  0  0
   -3.1100   -6.3560    0.0000 C   0  0  0  0  0  0  0  0  0  0  0  0
   -8.4940   -3.2110    0.0000 C   0  0  0  0  0  0  0  0  0  0  0  0
   -8.9300   -1.7750    0.0000 C   0  0  0  0  0  0  0  0  0  0  0  0
   -7.9040   -0.6810    0.0000 C   0  0  0  0  0  0  0  0  0  0  0  0
   -6.4430   -1.0220    0.0000 C   0  0  0  0  0  0  0  0  0  0  0  0
    0.7560    1.2950    0.0000 C   0  0  0  0  0  0  0  0  0  0  0  0
    0.7440   -1.3030    0.0000 C   0  0  0  0  0  0  0  0  0  0  0  0
  1  2  1  0  0  0  0
  1 20  1  0  0  0  0
  1 21  1  0  0  0  0
  2  3  1  0  0  0  0
  3  4  1  0  0  0  0
  4  5  1  0  0  0  0
  5  6  1  0  0  0  0
  5 11  1  0  0  0  0
  6  7  1  0  0  0  0
  6 19  2  0  0  0  0
  7  8  1  0  0  0  0
  7 16  2  0  0  0  0
  8  9  1  0  0  0  0
  9 10  1  0  0  0  0
 10 11  1  0  0  0  0
 10 15  2  0  0  0  0
 11 12  2  0  0  0  0
 12 13  1  0  0  0  0
 13 14  2  0  0  0  0
 14 15  1  0  0  0  0
 16 17  1  0  0  0  0
 17 18  2  0  0  0  0
 18 19  1  0  0  0  0
M  END
>  <Index>
1595

>  <ID>
HT1082

>  <class>
1

>  <apol>
51.643032

>  <ast_fraglike>
0

>  <ast_fraglike_ext>
0

>  <ast_violation>
1

>  <ast_violation_ext>
2

>  <a_acc>
1

>  <a_acid>
0

>  <a_aro>
12

>  <a_base>
0

>  <a_count>
45

>  <a_don>
0

>  <a_donacc>
1

>  <a_heavy>
21

>  <a_hyd>
19

>  <a_IC>
54.383667

>  <a_ICM>
1.2085259

>  <a_nB>
0

>  <a_nBr>
0

>  <a_nC>
19

>  <a_nCl>
0

>  <a_nF>
0

>  <a_nH>
24

>  <a_nI>
0

>  <a_nN>
2

>  <a_nO>
0

>  <a_nP>
0

>  <a_nS>
0

>  <balabanJ>
1.7113639

>  <BCUT_PEOE_0>
-2.6549234

>  <BCUT_PEOE_1>
-0.5209651

>  <BCUT_PEOE_2>
0.58689421

>  <BCUT_PEOE_3>
2.5751114

>  <BCUT_SLOGP_0>
-2.7068775

>  <BCUT_SLOGP_1>
-0.42273843

>  <BCUT_SLOGP_2>
0.68544054

>  <BCUT_SLOGP_3>
2.6181657

>  <BCUT_SMR_0>
-2.3726218

>  <BCUT_SMR_1>
-0.39313805

>  <BCUT_SMR_2>
0.72225022

>  <BCUT_SMR_3>
2.8660841

>  <bpol>
30.196968

>  <b_1rotN>
4

>  <b_1rotR>
0.17391305

>  <b_ar>
12

>  <b_count>
47

>  <b_double>
0

>  <b_heavy>
23

>  <b_max1len>
6

>  <b_rotN>
4

>  <b_rotR>
0.17391305

>  <b_single>
35

>  <b_triple>
0

>  <chi0>
14.656489

>  <chi0v>
13.048763

>  <chi0v_C>
12.154336

>  <chi0_C>
13.501789

>  <chi1>
10.25402

>  <chi1v>
7.8359036

>  <chi1v_C>
5.8618073

>  <chi1_C>
7.6161566

>  <chiral>
0

>  <chiral_u>
0

>  <density>
0.64203781

>  <diameter>
9

>  <FCharge>
0

>  <GCUT_PEOE_0>
-0.86401153

>  <GCUT_PEOE_1>
-0.33645689

>  <GCUT_PEOE_2>
0.045459747

>  <GCUT_PEOE_3>
2.7543588

>  <GCUT_SLOGP_0>
-0.95430422

>  <GCUT_SLOGP_1>
-0.25371483

>  <GCUT_SLOGP_2>
0.13842522

>  <GCUT_SLOGP_3>
2.8672001

>  <GCUT_SMR_0>
-0.51980084

>  <GCUT_SMR_1>
-0.18155444

>  <GCUT_SMR_2>
0.15946189

>  <GCUT_SMR_3>
3.0449533

>  <Kier1>
15.879017

>  <Kier2>
7.5130072

>  <Kier3>
3.8548484

>  <KierA1>
12.159148

>  <KierA2>
5.6702189

>  <KierA3>
2.8770401

>  <KierFlex>
3.2830968

>  <lip_acc>
2

>  <lip_don>
0

>  <lip_druglike>
1

>  <lip_violation>
0

>  <logP(o/w)>
4.1040001

>  <logS>
-3.45471

>  <mr>
8.8513355

>  <mutagenic>
0

>  <nmol>
1

>  <opr_brigid>
17

>  <opr_leadlike>
1

>  <opr_nring>
3

>  <opr_nrot>
4

>  <opr_violation>
0

>  <PC+>
0

>  <PC->
0

>  <PEOE_PC+>
1.1507252

>  <PEOE_PC->
-1.1507252

>  <PEOE_RPC+>
0.055043526

>  <PEOE_RPC->
0.2679185

>  <PEOE_VSA+0>
94.837601

>  <PEOE_VSA+1>
34.123089

>  <PEOE_VSA+2>
0

>  <PEOE_VSA+3>
0

>  <PEOE_VSA+4>
0

>  <PEOE_VSA+5>
0

>  <PEOE_VSA+6>
0

>  <PEOE_VSA-0>
114.70053

>  <PEOE_VSA-1>
73.529427

>  <PEOE_VSA-2>
0

>  <PEOE_VSA-3>
0

>  <PEOE_VSA-4>
0

>  <PEOE_VSA-5>
0

>  <PEOE_VSA-6>
0

>  <PEOE_VSA_FHYD>
1

>  <PEOE_VSA_FNEG>
0.59342843

>  <PEOE_VSA_FPNEG>
0

>  <PEOE_VSA_FPOL>
0

>  <PEOE_VSA_FPOS>
0.40657154

>  <PEOE_VSA_FPPOS>
0

>  <PEOE_VSA_HYD>
317.19064

>  <PEOE_VSA_NEG>
188.22995

>  <PEOE_VSA_PNEG>
0

>  <PEOE_VSA_POL>
0

>  <PEOE_VSA_POS>
128.96069

>  <PEOE_VSA_PPOS>
0

>  <petitjean>
0.44444445

>  <petitjeanSC>
0.80000001

>  <Q_PC+>
0

>  <Q_PC->
0

>  <Q_RPC+>
0

>  <Q_RPC->
0

>  <Q_VSA_FHYD>
1

>  <Q_VSA_FNEG>
0

>  <Q_VSA_FPNEG>
0

>  <Q_VSA_FPOL>
0

>  <Q_VSA_FPOS>
1

>  <Q_VSA_FPPOS>
0

>  <Q_VSA_HYD>
317.19064

>  <Q_VSA_NEG>
0

>  <Q_VSA_PNEG>
0

>  <Q_VSA_POL>
0

>  <Q_VSA_POS>
317.19064

>  <Q_VSA_PPOS>
0

>  <radius>
5

>  <reactive>
0

>  <rings>
3

>  <RPC+>
0

>  <RPC->
0

>  <rsynth>
1

>  <SlogP>
3.8749399

>  <SlogP_VSA0>
3.1243138

>  <SlogP_VSA1>
3.1243138

>  <SlogP_VSA2>
0

>  <SlogP_VSA3>
36.879158

>  <SlogP_VSA4>
6.37115

>  <SlogP_VSA5>
103.53119

>  <SlogP_VSA6>
0

>  <SlogP_VSA7>
141.14548

>  <SlogP_VSA8>
18.868406

>  <SlogP_VSA9>
5.513495

>  <SMR>
9.0468998

>  <SMR_VSA0>
0

>  <SMR_VSA1>
3.1243138

>  <SMR_VSA2>
3.1243138

>  <SMR_VSA3>
6.37115

>  <SMR_VSA4>
5.513495

>  <SMR_VSA5>
197.75069

>  <SMR_VSA6>
36.879158

>  <SMR_VSA7>
65.794373

>  <TPSA>
6.48

>  <VAdjEq>
0.48250595

>  <VAdjMa>
5.523562

>  <VDistEq>
3.0281317

>  <VDistMa>
8.515563

>  <vdw_area>
317.19064

>  <vdw_vol>
436.75778

>  <vsa_acc>
0

>  <vsa_acid>
0

>  <vsa_base>
0

>  <vsa_don>
0

>  <vsa_hyd>
300.10754

>  <vsa_other>
0

>  <vsa_pol>
0

>  <Weight>
280.41501

>  <weinerPath>
882

>  <weinerPol>
35

>  <zagreb>
108

$$$$