O1[C@H](C)[C@H](C)[C@H](OC(=O)C)[C@@H](C)C(=O)[C@@]2(OC2)C[C@H](C)[C@H](O[C@@H]2O[C@@H](C[C@H](N(C)C)[C@H]2OC(=O)C)C)[C@@H](C)[C@H](O[C@@H]2O[C@@H](C)[C@H](OC(=O)C)[C@@H](OC)C2)[C@H](C)C1=O
  MOE2013           2D

 57 60  0  0  1  0  0  0  0  0999 V2000
    0.0000    0.0000    0.0000 O   0  0  0  0  0  0  0  0  0  0  0  0
    1.2460    0.5640    0.0000 C   0  0  2  0  0  0  0  0  0  0  0  0
    2.1770   -0.6120    0.0000 C   0  0  0  0  0  0  0  0  0  0  0  0
    2.0610    1.6200    0.0000 C   0  0  2  0  0  0  0  0  0  0  0  0
    3.4330    1.0150    0.0000 C   0  0  0  0  0  0  0  0  0  0  0  0
    2.2970    2.9660    0.0000 C   0  0  2  0  0  0  0  0  0  0  0  0
    3.7740    3.2240    0.0000 O   0  0  0  0  0  0  0  0  0  0  0  0
    4.7370    2.0730    0.0000 C   0  0  0  0  0  0  0  0  0  0  0  0
    4.2210    0.6640    0.0000 O   0  0  0  0  0  0  0  0  0  0  0  0
    6.2140    2.3310    0.0000 C   0  0  0  0  0  0  0  0  0  0  0  0
    1.5950    4.1930    0.0000 C   0  0  1  0  0  0  0  0  0  0  0  0
    2.4360    5.4350    0.0000 C   0  0  0  0  0  0  0  0  0  0  0  0
    0.1150    4.3990    0.0000 C   0  0  0  0  0  0  0  0  0  0  0  0
    1.0380    5.5820    0.0000 O   0  0  0  0  0  0  0  0  0  0  0  0
   -0.4460    5.7840    0.0000 C   0  0  2  0  0  0  0  0  0  0  0  0
    0.8760    6.4940    0.0000 O   0  0  0  0  0  0  0  0  0  0  0  0
   -0.4000    7.2830    0.0000 C   0  0  0  0  0  0  0  0  0  0  0  0
   -1.8070    6.1650    0.0000 C   0  0  0  0  0  0  0  0  0  0  0  0
   -3.0530    5.6010    0.0000 C   0  0  2  0  0  0  0  0  0  0  0  0
   -3.9840    6.7780    0.0000 C   0  0  0  0  0  0  0  0  0  0  0  0
   -3.8680    4.5450    0.0000 C   0  0  2  0  0  0  0  0  0  0  0  0
   -5.2410    5.1500    0.0000 O   0  0  0  0  0  0  0  0  0  0  0  0
   -5.4030    6.6410    0.0000 C   0  0  2  0  0  0  0  0  0  0  0  0
   -4.1920    7.5280    0.0000 O   0  0  0  0  0  0  0  0  0  0  0  0
   -4.3550    9.0190    0.0000 C   0  0  1  0  0  0  0  0  0  0  0  0
   -5.7270    9.6240    0.0000 C   0  0  0  0  0  0  0  0  0  0  0  0
   -6.9370    8.7380    0.0000 C   0  0  2  0  0  0  0  0  0  0  0  0
   -8.3100    9.3430    0.0000 N   0  0  0  0  0  0  0  0  0  0  0  0
   -8.4720   10.8340    0.0000 C   0  0  0  0  0  0  0  0  0  0  0  0
   -9.5200    8.4570    0.0000 C   0  0  0  0  0  0  0  0  0  0  0  0
   -6.7750    7.2470    0.0000 C   0  0  1  0  0  0  0  0  0  0  0  0
   -7.9860    6.3610    0.0000 O   0  0  0  0  0  0  0  0  0  0  0  0
   -7.8240    4.8690    0.0000 C   0  0  0  0  0  0  0  0  0  0  0  0
   -6.4510    4.2640    0.0000 O   0  0  0  0  0  0  0  0  0  0  0  0
   -9.0340    3.9830    0.0000 C   0  0  0  0  0  0  0  0  0  0  0  0
   -3.1440    9.9050    0.0000 C   0  0  0  0  0  0  0  0  0  0  0  0
   -4.1040    3.2000    0.0000 C   0  0  1  0  0  0  0  0  0  0  0  0
   -5.5820    2.9420    0.0000 C   0  0  0  0  0  0  0  0  0  0  0  0
   -3.4020    1.9720    0.0000 C   0  0  2  0  0  0  0  0  0  0  0  0
   -4.2430    0.7300    0.0000 O   0  0  0  0  0  0  0  0  0  0  0  0
   -5.7390    0.8370    0.0000 C   0  0  2  0  0  0  0  0  0  0  0  0
   -6.3950    2.1870    0.0000 O   0  0  0  0  0  0  0  0  0  0  0  0
   -7.8910    2.2940    0.0000 C   0  0  1  0  0  0  0  0  0  0  0  0
   -8.5460    3.6430    0.0000 C   0  0  0  0  0  0  0  0  0  0  0  0
   -8.7320    1.0520    0.0000 C   0  0  2  0  0  0  0  0  0  0  0  0
  -10.2280    1.1590    0.0000 O   0  0  0  0  0  0  0  0  0  0  0  0
  -11.0690   -0.0840    0.0000 C   0  0  0  0  0  0  0  0  0  0  0  0
  -12.5650    0.0240    0.0000 O   0  0  0  0  0  0  0  0  0  0  0  0
  -10.4130   -1.4330    0.0000 C   0  0  0  0  0  0  0  0  0  0  0  0
   -8.0760   -0.2980    0.0000 C   0  0  1  0  0  0  0  0  0  0  0  0
   -8.9170   -1.5400    0.0000 O   0  0  0  0  0  0  0  0  0  0  0  0
   -8.2620   -2.8890    0.0000 C   0  0  0  0  0  0  0  0  0  0  0  0
   -6.5800   -0.4050    0.0000 C   0  0  0  0  0  0  0  0  0  0  0  0
   -1.9230    1.7660    0.0000 C   0  0  2  0  0  0  0  0  0  0  0  0
   -2.8450    0.5830    0.0000 C   0  0  0  0  0  0  0  0  0  0  0  0
   -1.3620    0.3810    0.0000 C   0  0  0  0  0  0  0  0  0  0  0  0
   -2.3610   -0.7370    0.0000 O   0  0  0  0  0  0  0  0  0  0  0  0
  1  2  1  0  0  0  0
  1 56  1  0  0  0  0
  2  3  1  1  0  0  0
  2  4  1  0  0  0  0
  4  5  1  1  0  0  0
  4  6  1  0  0  0  0
  6  7  1  1  0  0  0
  6 11  1  0  0  0  0
  7  8  1  0  0  0  0
  8  9  2  0  0  0  0
  8 10  1  0  0  0  0
 11 12  1  6  0  0  0
 11 13  1  0  0  0  0
 13 14  2  0  0  0  0
 13 15  1  0  0  0  0
 15 16  1  6  0  0  0
 15 17  1  1  0  0  0
 15 18  1  0  0  0  0
 16 17  1  0  0  0  0
 18 19  1  0  0  0  0
 19 20  1  1  0  0  0
 19 21  1  0  0  0  0
 21 22  1  1  0  0  0
 21 37  1  0  0  0  0
 23 22  1  1  0  0  0
 23 24  1  0  0  0  0
 23 31  1  0  0  0  0
 24 25  1  0  0  0  0
 25 26  1  0  0  0  0
 25 36  1  1  0  0  0
 26 27  1  0  0  0  0
 27 28  1  1  0  0  0
 27 31  1  0  0  0  0
 28 29  1  0  0  0  0
 28 30  1  0  0  0  0
 31 32  1  6  0  0  0
 32 33  1  0  0  0  0
 33 34  2  0  0  0  0
 33 35  1  0  0  0  0
 37 38  1  6  0  0  0
 37 39  1  0  0  0  0
 39 40  1  1  0  0  0
 39 54  1  0  0  0  0
 41 40  1  1  0  0  0
 41 42  1  0  0  0  0
 41 53  1  0  0  0  0
 42 43  1  0  0  0  0
 43 44  1  6  0  0  0
 43 45  1  0  0  0  0
 45 46  1  1  0  0  0
 45 50  1  0  0  0  0
 46 47  1  0  0  0  0
 47 48  2  0  0  0  0
 47 49  1  0  0  0  0
 50 51  1  6  0  0  0
 50 53  1  0  0  0  0
 51 52  1  0  0  0  0
 54 55  1  1  0  0  0
 54 56  1  0  0  0  0
 56 57  2  0  0  0  0
M  END
>  <Index>
1758

>  <ID>
HT2137

>  <class>
1

>  <apol>
129.96513

>  <ast_fraglike>
0

>  <ast_fraglike_ext>
0

>  <ast_violation>
3

>  <ast_violation_ext>
5

>  <a_acc>
12

>  <a_acid>
0

>  <a_aro>
0

>  <a_base>
0

>  <a_count>
124

>  <a_don>
0

>  <a_donacc>
12

>  <a_heavy>
57

>  <a_hyd>
34

>  <a_IC>
177.62938

>  <a_ICM>
1.432495

>  <a_nB>
0

>  <a_nBr>
0

>  <a_nC>
41

>  <a_nCl>
0

>  <a_nF>
0

>  <a_nH>
67

>  <a_nI>
0

>  <a_nN>
1

>  <a_nO>
15

>  <a_nP>
0

>  <a_nS>
0

>  <balabanJ>
1.8001374

>  <BCUT_PEOE_0>
-2.8084669

>  <BCUT_PEOE_1>
-0.18901595

>  <BCUT_PEOE_2>
0.059330042

>  <BCUT_PEOE_3>
2.8629346

>  <BCUT_SLOGP_0>
-2.8977084

>  <BCUT_SLOGP_1>
-0.067434564

>  <BCUT_SLOGP_2>
0.123

>  <BCUT_SLOGP_3>
2.8001554

>  <BCUT_SMR_0>
-2.5814817

>  <BCUT_SMR_1>
0.055066735

>  <BCUT_SMR_2>
0.13506633

>  <BCUT_SMR_3>
3.0809755

>  <bpol>
99.174866

>  <b_1rotN>
9

>  <b_1rotR>
0.15000001

>  <b_ar>
0

>  <b_count>
127

>  <b_double>
5

>  <b_heavy>
60

>  <b_max1len>
4

>  <b_rotN>
12

>  <b_rotR>
0.2

>  <b_single>
122

>  <b_triple>
0

>  <chi0>
42.678551

>  <chi0v>
36.214321

>  <chi0v_C>
29.643381

>  <chi0_C>
30.030132

>  <chi1>
26.596876

>  <chi1v>
20.316088

>  <chi1v_C>
13.361167

>  <chi1_C>
13.72121

>  <chiral>
18

>  <chiral_u>
0

>  <density>
0.74655128

>  <diameter>
17

>  <FCharge>
0

>  <GCUT_PEOE_0>
-0.8562457

>  <GCUT_PEOE_1>
-0.33308208

>  <GCUT_PEOE_2>
-0.10763723

>  <GCUT_PEOE_3>
3.5246325

>  <GCUT_SLOGP_0>
-0.96093965

>  <GCUT_SLOGP_1>
-0.28851256

>  <GCUT_SLOGP_2>
-0.037

>  <GCUT_SLOGP_3>
3.5007305

>  <GCUT_SMR_0>
-0.53645128

>  <GCUT_SMR_1>
-0.12017988

>  <GCUT_SMR_2>
-0.054299999

>  <GCUT_SMR_3>
3.7260458

>  <Kier1>
49.653332

>  <Kier2>
21.386189

>  <Kier3>
12.135553

>  <KierA1>
45.791355

>  <KierA2>
19.693552

>  <KierA3>
11.163468

>  <KierFlex>
15.820954

>  <lip_acc>
16

>  <lip_don>
0

>  <lip_druglike>
0

>  <lip_violation>
2

>  <logP(o/w)>
4.2374802

>  <logS>
-5.6521401

>  <mr>
20.718853

>  <mutagenic>
1

>  <nmol>
1

>  <opr_brigid>
29

>  <opr_leadlike>
0

>  <opr_nring>
3

>  <opr_nrot>
26

>  <opr_violation>
3

>  <PC+>
0

>  <PC->
0

>  <PEOE_PC+>
5.4612451

>  <PEOE_PC->
-5.4612451

>  <PEOE_RPC+>
0.049029768

>  <PEOE_RPC->
0.069019929

>  <PEOE_VSA+0>
310.62265

>  <PEOE_VSA+1>
117.53197

>  <PEOE_VSA+2>
9.8098574

>  <PEOE_VSA+3>
30.768337

>  <PEOE_VSA+4>
0

>  <PEOE_VSA+5>
58.833996

>  <PEOE_VSA+6>
0

>  <PEOE_VSA-0>
120.12304

>  <PEOE_VSA-1>
93.738388

>  <PEOE_VSA-2>
0

>  <PEOE_VSA-3>
0

>  <PEOE_VSA-4>
0

>  <PEOE_VSA-5>
67.834602

>  <PEOE_VSA-6>
25.037561

>  <PEOE_VSA_FHYD>
0.81816363

>  <PEOE_VSA_FNEG>
0.36765364

>  <PEOE_VSA_FPNEG>
0.11131742

>  <PEOE_VSA_FPOL>
0.18183638

>  <PEOE_VSA_FPOS>
0.63234633

>  <PEOE_VSA_FPPOS>
0.070518963

>  <PEOE_VSA_HYD>
682.59424

>  <PEOE_VSA_NEG>
306.73358

>  <PEOE_VSA_PNEG>
92.872162

>  <PEOE_VSA_POL>
151.70616

>  <PEOE_VSA_POS>
527.56683

>  <PEOE_VSA_PPOS>
58.833996

>  <petitjean>
0.47058824

>  <petitjeanSC>
0.8888889

>  <Q_PC+>
0

>  <Q_PC->
0

>  <Q_RPC+>
0

>  <Q_RPC->
0

>  <Q_VSA_FHYD>
1

>  <Q_VSA_FNEG>
0

>  <Q_VSA_FPNEG>
0

>  <Q_VSA_FPOL>
0

>  <Q_VSA_FPOS>
1

>  <Q_VSA_FPPOS>
0

>  <Q_VSA_HYD>
834.30042

>  <Q_VSA_NEG>
0

>  <Q_VSA_PNEG>
0

>  <Q_VSA_POL>
0

>  <Q_VSA_POS>
834.30042

>  <Q_VSA_PPOS>
0

>  <radius>
9

>  <reactive>
1

>  <rings>
4

>  <RPC+>
0

>  <RPC->
0

>  <rsynth>
0.80701756

>  <SlogP>
3.6208999

>  <SlogP_VSA0>
0

>  <SlogP_VSA1>
39.793781

>  <SlogP_VSA2>
308.56277

>  <SlogP_VSA3>
20.926258

>  <SlogP_VSA4>
22.05398

>  <SlogP_VSA5>
101.17825

>  <SlogP_VSA6>
0

>  <SlogP_VSA7>
0

>  <SlogP_VSA8>
56.605217

>  <SlogP_VSA9>
366.58615

>  <SMR>
20.2265

>  <SMR_VSA0>
229.30997

>  <SMR_VSA1>
3.1243138

>  <SMR_VSA2>
22.05398

>  <SMR_VSA3>
79.252815

>  <SMR_VSA4>
0

>  <SMR_VSA5>
56.605217

>  <SMR_VSA6>
57.595726

>  <SMR_VSA7>
467.7644

>  <TPSA>
184.19

>  <VAdjEq>
0.22805569

>  <VAdjMa>
6.9068904

>  <VDistEq>
3.8759975

>  <VDistMa>
11.45348

>  <vdw_area>
834.30042

>  <vdw_vol>
1090.319

>  <vsa_acc>
82.85714

>  <vsa_acid>
0

>  <vsa_base>
0

>  <vsa_don>
0

>  <vsa_hyd>
590.30316

>  <vsa_other>
106.72454

>  <vsa_pol>
82.85714

>  <Weight>
813.979

>  <weinerPath>
12271

>  <weinerPol>
103

>  <zagreb>
298

$$$$