Fc1ccc(cc1)-c1c2c(n(C(C)C)c1C=C[C@H](O)C[C@H](O)CC(O)=O)cccc2
  MOE2013           2D

 30 32  0  0  1  0  0  0  0  0999 V2000
    0.0000    0.0000    0.0000 F   0  0  0  0  0  0  0  0  0  0  0  0
    0.7390   -1.3050    0.0000 C   0  0  0  0  0  0  0  0  0  0  0  0
   -0.0220   -2.5980    0.0000 C   0  0  0  0  0  0  0  0  0  0  0  0
    0.7180   -3.9030    0.0000 C   0  0  0  0  0  0  0  0  0  0  0  0
    2.2170   -3.9160    0.0000 C   0  0  0  0  0  0  0  0  0  0  0  0
    2.9780   -2.6230    0.0000 C   0  0  0  0  0  0  0  0  0  0  0  0
    2.2390   -1.3180    0.0000 C   0  0  0  0  0  0  0  0  0  0  0  0
    2.9570   -5.2210    0.0000 C   0  0  0  0  0  0  0  0  0  0  0  0
    2.3350   -6.5860    0.0000 C   0  0  0  0  0  0  0  0  0  0  0  0
    3.4410   -7.5990    0.0000 C   0  0  0  0  0  0  0  0  0  0  0  0
    4.7470   -6.8600    0.0000 N   0  0  0  0  0  0  0  0  0  0  0  0
    6.1120   -7.4810    0.0000 C   0  0  0  0  0  0  0  0  0  0  0  0
    6.2560   -8.9740    0.0000 C   0  0  0  0  0  0  0  0  0  0  0  0
    7.3330   -6.6100    0.0000 C   0  0  0  0  0  0  0  0  0  0  0  0
    4.4470   -5.3900    0.0000 C   0  0  0  0  0  0  0  0  0  0  0  0
    5.4600   -4.2840    0.0000 C   0  0  0  0  0  0  0  0  0  0  0  0
    6.9250   -4.6080    0.0000 C   0  0  0  0  0  0  0  0  0  0  0  0
    7.9380   -3.5020    0.0000 C   0  0  2  0  0  0  0  0  0  0  0  0
    7.4860   -2.0710    0.0000 O   0  0  0  0  0  0  0  0  0  0  0  0
    9.4020   -3.8260    0.0000 C   0  0  0  0  0  0  0  0  0  0  0  0
   10.4150   -2.7190    0.0000 C   0  0  2  0  0  0  0  0  0  0  0  0
    9.9630   -1.2890    0.0000 O   0  0  0  0  0  0  0  0  0  0  0  0
   11.8800   -3.0430    0.0000 C   0  0  0  0  0  0  0  0  0  0  0  0
   12.8930   -1.9370    0.0000 C   0  0  0  0  0  0  0  0  0  0  0  0
   14.3570   -2.2610    0.0000 O   0  0  0  0  0  0  0  0  0  0  0  0
   12.4410   -0.5070    0.0000 O   0  0  0  0  0  0  0  0  0  0  0  0
    3.1170   -9.0640    0.0000 C   0  0  0  0  0  0  0  0  0  0  0  0
    1.6870   -9.5150    0.0000 C   0  0  0  0  0  0  0  0  0  0  0  0
    0.5810   -8.5020    0.0000 C   0  0  0  0  0  0  0  0  0  0  0  0
    0.9050   -7.0380    0.0000 C   0  0  0  0  0  0  0  0  0  0  0  0
  1  2  1  0  0  0  0
  2  3  1  0  0  0  0
  2  7  2  0  0  0  0
  3  4  2  0  0  0  0
  4  5  1  0  0  0  0
  5  6  2  0  0  0  0
  5  8  1  0  0  0  0
  6  7  1  0  0  0  0
  8  9  1  0  0  0  0
  8 15  2  0  0  0  0
  9 10  2  0  0  0  0
  9 30  1  0  0  0  0
 10 11  1  0  0  0  0
 10 27  1  0  0  0  0
 11 12  1  0  0  0  0
 11 15  1  0  0  0  0
 12 13  1  0  0  0  0
 12 14  1  0  0  0  0
 15 16  1  0  0  0  0
 16 17  2  3  0  0  0
 17 18  1  0  0  0  0
 18 19  1  6  0  0  0
 18 20  1  0  0  0  0
 20 21  1  0  0  0  0
 21 22  1  6  0  0  0
 21 23  1  0  0  0  0
 23 24  1  0  0  0  0
 24 25  1  0  0  0  0
 24 26  2  0  0  0  0
 27 28  2  0  0  0  0
 28 29  1  0  0  0  0
 29 30  2  0  0  0  0
M  END
>  <Index>
1579

>  <ID>
HT0926

>  <class>
1

>  <apol>
64.44162

>  <ast_fraglike>
0

>  <ast_fraglike_ext>
0

>  <ast_violation>
4

>  <ast_violation_ext>
5

>  <a_acc>
4

>  <a_acid>
0

>  <a_aro>
15

>  <a_base>
0

>  <a_count>
56

>  <a_don>
4

>  <a_donacc>
8

>  <a_heavy>
30

>  <a_hyd>
24

>  <a_IC>
84.961342

>  <a_ICM>
1.5171669

>  <a_nB>
0

>  <a_nBr>
0

>  <a_nC>
24

>  <a_nCl>
0

>  <a_nF>
1

>  <a_nH>
26

>  <a_nI>
0

>  <a_nN>
1

>  <a_nO>
4

>  <a_nP>
0

>  <a_nS>
0

>  <balabanJ>
1.7003043

>  <BCUT_PEOE_0>
-2.585305

>  <BCUT_PEOE_1>
-0.56233162

>  <BCUT_PEOE_2>
0.62144613

>  <BCUT_PEOE_3>
2.6173964

>  <BCUT_SLOGP_0>
-2.6402287

>  <BCUT_SLOGP_1>
-0.51456779

>  <BCUT_SLOGP_2>
0.73751938

>  <BCUT_SLOGP_3>
2.650923

>  <BCUT_SMR_0>
-2.3629143

>  <BCUT_SMR_1>
-0.41578144

>  <BCUT_SMR_2>
0.74133617

>  <BCUT_SMR_3>
2.8344729

>  <bpol>
32.564381

>  <b_1rotN>
8

>  <b_1rotR>
0.25

>  <b_ar>
16

>  <b_count>
58

>  <b_double>
2

>  <b_heavy>
32

>  <b_max1len>
6

>  <b_rotN>
8

>  <b_rotR>
0.25

>  <b_single>
40

>  <b_triple>
0

>  <chi0>
21.836134

>  <chi0v>
16.994835

>  <chi0v_C>
14.419767

>  <chi0_C>
16.258783

>  <chi1>
14.273765

>  <chi1v>
9.9255819

>  <chi1v_C>
8.0870581

>  <chi1_C>
10.387013

>  <chiral>
2

>  <chiral_u>
0

>  <density>
0.73597562

>  <diameter>
14

>  <FCharge>
0

>  <GCUT_PEOE_0>
-0.86116409

>  <GCUT_PEOE_1>
-0.39782774

>  <GCUT_PEOE_2>
0.081722468

>  <GCUT_PEOE_3>
2.8002625

>  <GCUT_SLOGP_0>
-0.87817329

>  <GCUT_SLOGP_1>
-0.29636577

>  <GCUT_SLOGP_2>
0.15715009

>  <GCUT_SLOGP_3>
2.9381852

>  <GCUT_SMR_0>
-0.52542478

>  <GCUT_SMR_1>
-0.21376254

>  <GCUT_SMR_2>
0.18428908

>  <GCUT_SMR_3>
3.0978291

>  <Kier1>
24.638672

>  <Kier2>
11.227654

>  <Kier3>
6.2925091

>  <KierA1>
18.630659

>  <KierA2>
8.4023228

>  <KierA3>
4.6745782

>  <KierFlex>
5.2180271

>  <lip_acc>
5

>  <lip_don>
3

>  <lip_druglike>
1

>  <lip_violation>
0

>  <logP(o/w)>
5.243

>  <logS>
-5.2513199

>  <mr>
11.504419

>  <mutagenic>
0

>  <nmol>
1

>  <opr_brigid>
17

>  <opr_leadlike>
1

>  <opr_nring>
3

>  <opr_nrot>
8

>  <opr_violation>
1

>  <PC+>
0

>  <PC->
0

>  <PEOE_PC+>
2.4793968

>  <PEOE_PC->
-2.4793968

>  <PEOE_RPC+>
0.10569662

>  <PEOE_RPC->
0.15777636

>  <PEOE_VSA+0>
58.918213

>  <PEOE_VSA+1>
87.360291

>  <PEOE_VSA+2>
9.0208454

>  <PEOE_VSA+3>
0

>  <PEOE_VSA+4>
30.972517

>  <PEOE_VSA+5>
14.708499

>  <PEOE_VSA+6>
0

>  <PEOE_VSA-0>
88.723511

>  <PEOE_VSA-1>
73.529427

>  <PEOE_VSA-2>
0

>  <PEOE_VSA-3>
0

>  <PEOE_VSA-4>
11.908636

>  <PEOE_VSA-5>
13.566921

>  <PEOE_VSA-6>
23.30262

>  <PEOE_VSA_FHYD>
0.77073652

>  <PEOE_VSA_FNEG>
0.51219714

>  <PEOE_VSA_FPNEG>
0.11839034

>  <PEOE_VSA_FPOL>
0.2292635

>  <PEOE_VSA_FPOS>
0.48780283

>  <PEOE_VSA_FPPOS>
0.11087316

>  <PEOE_VSA_HYD>
317.55228

>  <PEOE_VSA_NEG>
211.03111

>  <PEOE_VSA_PNEG>
48.778175

>  <PEOE_VSA_POL>
94.459198

>  <PEOE_VSA_POS>
200.98036

>  <PEOE_VSA_PPOS>
45.681019

>  <petitjean>
0.5

>  <petitjeanSC>
1

>  <Q_PC+>
0

>  <Q_PC->
0

>  <Q_RPC+>
0

>  <Q_RPC->
0

>  <Q_VSA_FHYD>
1

>  <Q_VSA_FNEG>
0

>  <Q_VSA_FPNEG>
0

>  <Q_VSA_FPOL>
0

>  <Q_VSA_FPOS>
1

>  <Q_VSA_FPPOS>
0

>  <Q_VSA_HYD>
412.01147

>  <Q_VSA_NEG>
0

>  <Q_VSA_PNEG>
0

>  <Q_VSA_POL>
0

>  <Q_VSA_POS>
412.01147

>  <Q_VSA_PPOS>
0

>  <radius>
7

>  <reactive>
0

>  <rings>
3

>  <RPC+>
0

>  <RPC->
0

>  <rsynth>
1

>  <SlogP>
4.7235999

>  <SlogP_VSA0>
50.770454

>  <SlogP_VSA1>
9.644557

>  <SlogP_VSA2>
45.920532

>  <SlogP_VSA3>
25.385227

>  <SlogP_VSA4>
2.7567475

>  <SlogP_VSA5>
0

>  <SlogP_VSA6>
0

>  <SlogP_VSA7>
169.87691

>  <SlogP_VSA8>
59.361965

>  <SlogP_VSA9>
81.612144

>  <SMR>
11.57454

>  <SMR_VSA0>
23.862217

>  <SMR_VSA1>
67.629662

>  <SMR_VSA2>
34.506245

>  <SMR_VSA3>
19.676014

>  <SMR_VSA4>
11.088251

>  <SMR_VSA5>
196.52547

>  <SMR_VSA6>
25.388649

>  <SMR_VSA7>
66.652031

>  <TPSA>
82.690002

>  <VAdjEq>
0.37005648

>  <VAdjMa>
6

>  <VDistEq>
3.5508661

>  <VDistMa>
9.5424004

>  <vdw_area>
412.01147

>  <vdw_vol>
559.08508

>  <vsa_acc>
0

>  <vsa_acid>
0

>  <vsa_base>
0

>  <vsa_don>
0

>  <vsa_hyd>
313.08963

>  <vsa_other>
14.708499

>  <vsa_pol>
54.267685

>  <Weight>
411.47299

>  <weinerPath>
2476

>  <weinerPol>
47

>  <zagreb>
154

$$$$