Clc1ccc(cc1)C(=O)c1c2c(n(CC(O)=O)c1C)cc(OC)cc2
  MOE2013           2D

 25 27  0  0  0  0  0  0  0  0999 V2000
    0.0000    0.0000    0.0000 Cl  0  0  0  0  0  0  0  0  0  0  0  0
   -1.5000   -0.0090    0.0000 C   0  0  0  0  0  0  0  0  0  0  0  0
   -2.2580    1.2860    0.0000 C   0  0  0  0  0  0  0  0  0  0  0  0
   -3.7580    1.2770    0.0000 C   0  0  0  0  0  0  0  0  0  0  0  0
   -4.5000   -0.0260    0.0000 C   0  0  0  0  0  0  0  0  0  0  0  0
   -3.7420   -1.3210    0.0000 C   0  0  0  0  0  0  0  0  0  0  0  0
   -2.2420   -1.3120    0.0000 C   0  0  0  0  0  0  0  0  0  0  0  0
   -6.0000   -0.0350    0.0000 C   0  0  0  0  0  0  0  0  0  0  0  0
   -6.7420   -1.3390    0.0000 O   0  0  0  0  0  0  0  0  0  0  0  0
   -6.7570    1.2590    0.0000 C   0  0  0  0  0  0  0  0  0  0  0  0
   -8.2500    1.4080    0.0000 C   0  0  0  0  0  0  0  0  0  0  0  0
   -8.5710    2.8730    0.0000 C   0  0  0  0  0  0  0  0  0  0  0  0
   -7.2760    3.6300    0.0000 N   0  0  0  0  0  0  0  0  0  0  0  0
   -7.1280    5.1230    0.0000 C   0  0  0  0  0  0  0  0  0  0  0  0
   -8.3470    5.9980    0.0000 C   0  0  0  0  0  0  0  0  0  0  0  0
   -9.7130    5.3800    0.0000 O   0  0  0  0  0  0  0  0  0  0  0  0
   -8.1990    7.4900    0.0000 O   0  0  0  0  0  0  0  0  0  0  0  0
   -6.1550    2.6330    0.0000 C   0  0  0  0  0  0  0  0  0  0  0  0
   -4.6900    2.9540    0.0000 C   0  0  0  0  0  0  0  0  0  0  0  0
  -10.0000    3.3280    0.0000 C   0  0  0  0  0  0  0  0  0  0  0  0
  -11.1090    2.3180    0.0000 C   0  0  0  0  0  0  0  0  0  0  0  0
  -12.5380    2.7730    0.0000 O   0  0  0  0  0  0  0  0  0  0  0  0
  -13.6470    1.7630    0.0000 C   0  0  0  0  0  0  0  0  0  0  0  0
  -10.7880    0.8520    0.0000 C   0  0  0  0  0  0  0  0  0  0  0  0
   -9.3590    0.3970    0.0000 C   0  0  0  0  0  0  0  0  0  0  0  0
  1  2  1  0  0  0  0
  2  3  1  0  0  0  0
  2  7  2  0  0  0  0
  3  4  2  0  0  0  0
  4  5  1  0  0  0  0
  5  6  2  0  0  0  0
  5  8  1  0  0  0  0
  6  7  1  0  0  0  0
  8  9  2  0  0  0  0
  8 10  1  0  0  0  0
 10 11  1  0  0  0  0
 10 18  2  0  0  0  0
 11 12  1  0  0  0  0
 11 25  2  0  0  0  0
 12 13  1  0  0  0  0
 12 20  2  0  0  0  0
 13 14  1  0  0  0  0
 13 18  1  0  0  0  0
 14 15  1  0  0  0  0
 15 16  1  0  0  0  0
 15 17  2  0  0  0  0
 18 19  1  0  0  0  0
 20 21  1  0  0  0  0
 21 22  1  0  0  0  0
 21 24  2  0  0  0  0
 22 23  1  0  0  0  0
 24 25  1  0  0  0  0
M  END
>  <Index>
1500

>  <ID>
HT0525

>  <class>
1

>  <apol>
50.596687

>  <ast_fraglike>
0

>  <ast_fraglike_ext>
0

>  <ast_violation>
3

>  <ast_violation_ext>
4

>  <a_acc>
4

>  <a_acid>
0

>  <a_aro>
15

>  <a_base>
0

>  <a_count>
41

>  <a_don>
2

>  <a_donacc>
6

>  <a_heavy>
25

>  <a_hyd>
18

>  <a_IC>
66.949013

>  <a_ICM>
1.6329026

>  <a_nB>
0

>  <a_nBr>
0

>  <a_nC>
19

>  <a_nCl>
1

>  <a_nF>
0

>  <a_nH>
16

>  <a_nI>
0

>  <a_nN>
1

>  <a_nO>
4

>  <a_nP>
0

>  <a_nS>
0

>  <balabanJ>
1.7643075

>  <BCUT_PEOE_0>
-2.3312781

>  <BCUT_PEOE_1>
-0.58240265

>  <BCUT_PEOE_2>
0.52464926

>  <BCUT_PEOE_3>
2.3994911

>  <BCUT_SLOGP_0>
-2.3195114

>  <BCUT_SLOGP_1>
-0.50843108

>  <BCUT_SLOGP_2>
0.70943964

>  <BCUT_SLOGP_3>
2.4827228

>  <BCUT_SMR_0>
-2.0543182

>  <BCUT_SMR_1>
-0.34226885

>  <BCUT_SMR_2>
0.8057943

>  <BCUT_SMR_3>
2.7005479

>  <bpol>
23.723312

>  <b_1rotN>
5

>  <b_1rotR>
0.18518518

>  <b_ar>
16

>  <b_count>
43

>  <b_double>
2

>  <b_heavy>
27

>  <b_max1len>
2

>  <b_rotN>
5

>  <b_rotR>
0.18518518

>  <b_single>
25

>  <b_triple>
0

>  <chi0>
18.137465

>  <chi0v>
14.501624

>  <chi0v_C>
11.248559

>  <chi0_C>
12.853006

>  <chi1>
11.917923

>  <chi1v>
7.9875703

>  <chi1v_C>
5.4129543

>  <chi1_C>
7.4182515

>  <chiral>
0

>  <chiral_u>
0

>  <density>
0.79430062

>  <diameter>
12

>  <FCharge>
0

>  <GCUT_PEOE_0>
-0.84967631

>  <GCUT_PEOE_1>
-0.43392083

>  <GCUT_PEOE_2>
0.054774497

>  <GCUT_PEOE_3>
2.6134498

>  <GCUT_SLOGP_0>
-0.88694584

>  <GCUT_SLOGP_1>
-0.33437008

>  <GCUT_SLOGP_2>
0.14816029

>  <GCUT_SLOGP_3>
2.7279117

>  <GCUT_SMR_0>
-0.48446968

>  <GCUT_SMR_1>
-0.21028565

>  <GCUT_SMR_2>
0.20946263

>  <GCUT_SMR_3>
2.9184771

>  <Kier1>
19.753086

>  <Kier2>
8.3471403

>  <Kier3>
4.1352797

>  <KierA1>
14.996656

>  <KierA2>
6.2590914

>  <KierA3>
3.0720692

>  <KierFlex>
3.7546179

>  <lip_acc>
5

>  <lip_don>
1

>  <lip_druglike>
1

>  <lip_violation>
0

>  <logP(o/w)>
4.5250001

>  <logS>
-4.7354999

>  <mr>
9.6378918

>  <mutagenic>
0

>  <nmol>
1

>  <opr_brigid>
16

>  <opr_leadlike>
1

>  <opr_nring>
3

>  <opr_nrot>
5

>  <opr_violation>
0

>  <PC+>
0

>  <PC->
0

>  <PEOE_PC+>
1.9407821

>  <PEOE_PC->
-1.9407821

>  <PEOE_RPC+>
0.14402378

>  <PEOE_RPC->
0.17922954

>  <PEOE_VSA+0>
53.430191

>  <PEOE_VSA+1>
68.551239

>  <PEOE_VSA+2>
13.192325

>  <PEOE_VSA+3>
8.458519

>  <PEOE_VSA+4>
10.324173

>  <PEOE_VSA+5>
14.708499

>  <PEOE_VSA+6>
0

>  <PEOE_VSA-0>
104.53201

>  <PEOE_VSA-1>
29.581947

>  <PEOE_VSA-2>
0

>  <PEOE_VSA-3>
0

>  <PEOE_VSA-4>
0

>  <PEOE_VSA-5>
27.133842

>  <PEOE_VSA-6>
10.271297

>  <PEOE_VSA_FHYD>
0.81645876

>  <PEOE_VSA_FNEG>
0.50419497

>  <PEOE_VSA_FPNEG>
0.10995559

>  <PEOE_VSA_FPOL>
0.18354127

>  <PEOE_VSA_FPOS>
0.495805

>  <PEOE_VSA_FPPOS>
0.073585674

>  <PEOE_VSA_HYD>
277.74622

>  <PEOE_VSA_NEG>
171.51909

>  <PEOE_VSA_PNEG>
37.40514

>  <PEOE_VSA_POL>
62.437809

>  <PEOE_VSA_POS>
168.66495

>  <PEOE_VSA_PPOS>
25.032671

>  <petitjean>
0.5

>  <petitjeanSC>
1

>  <Q_PC+>
0

>  <Q_PC->
0

>  <Q_RPC+>
0

>  <Q_RPC->
0

>  <Q_VSA_FHYD>
1

>  <Q_VSA_FNEG>
0

>  <Q_VSA_FPNEG>
0

>  <Q_VSA_FPOL>
0

>  <Q_VSA_FPOS>
1

>  <Q_VSA_FPPOS>
0

>  <Q_VSA_HYD>
340.18405

>  <Q_VSA_NEG>
0

>  <Q_VSA_PNEG>
0

>  <Q_VSA_POL>
0

>  <Q_VSA_POS>
340.18405

>  <Q_VSA_PPOS>
0

>  <radius>
6

>  <reactive>
1

>  <rings>
3

>  <RPC+>
0

>  <RPC->
0

>  <rsynth>
1

>  <SlogP>
4.1937199

>  <SlogP_VSA0>
10.999887

>  <SlogP_VSA1>
15.332168

>  <SlogP_VSA2>
23.862217

>  <SlogP_VSA3>
25.385227

>  <SlogP_VSA4>
32.990112

>  <SlogP_VSA5>
35.383869

>  <SlogP_VSA6>
3.5006065

>  <SlogP_VSA7>
128.21939

>  <SlogP_VSA8>
0

>  <SlogP_VSA9>
96.157661

>  <SMR>
9.5952301

>  <SMR_VSA0>
47.724434

>  <SMR_VSA1>
12.898981

>  <SMR_VSA2>
25.385227

>  <SMR_VSA3>
17.871933

>  <SMR_VSA4>
4.7171016

>  <SMR_VSA5>
141.94186

>  <SMR_VSA6>
13.433075

>  <SMR_VSA7>
107.85853

>  <TPSA>
68.529999

>  <VAdjEq>
0.42433795

>  <VAdjMa>
5.7548876

>  <VDistEq>
3.2664471

>  <VDistMa>
9.0199146

>  <vdw_area>
340.18405

>  <vdw_vol>
450.45035

>  <vsa_acc>
16.070677

>  <vsa_acid>
0

>  <vsa_base>
0

>  <vsa_don>
0

>  <vsa_hyd>
258.61078

>  <vsa_other>
23.167019

>  <vsa_pol>
43.204517

>  <Weight>
357.793

>  <weinerPath>
1424

>  <weinerPol>
42

>  <zagreb>
132

$$$$