Clc1cc2NC(NS(=O)(=O)c2cc1S(=O)(=O)N)Cc1ccccc1
  MOE2013           2D

 24 26  0  0  1  0  0  0  0  0999 V2000
    0.0000    0.0000    0.0000 Cl  0  0  0  0  0  0  0  0  0  0  0  0
    1.2970    0.7530    0.0000 C   0  0  0  0  0  0  0  0  0  0  0  0
    2.5980    0.0070    0.0000 C   0  0  0  0  0  0  0  0  0  0  0  0
    3.8950    0.7600    0.0000 C   0  0  0  0  0  0  0  0  0  0  0  0
    5.1960    0.0140    0.0000 N   0  0  0  0  0  0  0  0  0  0  0  0
    6.4930    0.7670    0.0000 C   0  0  3  0  0  0  0  0  0  0  0  0
    6.4890    2.2670    0.0000 N   0  0  0  0  0  0  0  0  0  0  0  0
    5.1880    3.0140    0.0000 S   0  0  0  0  0  0  0  0  0  0  0  0
    5.9350    4.3150    0.0000 O   0  0  0  0  0  0  0  0  0  0  0  0
    4.4350    4.3110    0.0000 O   0  0  0  0  0  0  0  0  0  0  0  0
    3.8910    2.2600    0.0000 C   0  0  0  0  0  0  0  0  0  0  0  0
    2.5900    3.0070    0.0000 C   0  0  0  0  0  0  0  0  0  0  0  0
    1.2930    2.2530    0.0000 C   0  0  0  0  0  0  0  0  0  0  0  0
   -0.0080    3.0000    0.0000 S   0  0  0  0  0  0  0  0  0  0  0  0
    0.7390    4.3010    0.0000 O   0  0  0  0  0  0  0  0  0  0  0  0
   -0.7540    1.6990    0.0000 O   0  0  0  0  0  0  0  0  0  0  0  0
   -1.3090    3.7470    0.0000 N   0  0  0  0  0  0  0  0  0  0  0  0
    7.7940    0.0200    0.0000 C   0  0  0  0  0  0  0  0  0  0  0  0
    9.0910    0.7740    0.0000 C   0  0  0  0  0  0  0  0  0  0  0  0
   10.3920    0.0270    0.0000 C   0  0  0  0  0  0  0  0  0  0  0  0
   11.6890    0.7810    0.0000 C   0  0  0  0  0  0  0  0  0  0  0  0
   11.6850    2.2810    0.0000 C   0  0  0  0  0  0  0  0  0  0  0  0
   10.3840    3.0270    0.0000 C   0  0  0  0  0  0  0  0  0  0  0  0
    9.0870    2.2740    0.0000 C   0  0  0  0  0  0  0  0  0  0  0  0
  1  2  1  0  0  0  0
  2  3  1  0  0  0  0
  2 13  2  0  0  0  0
  3  4  2  0  0  0  0
  4  5  1  0  0  0  0
  4 11  1  0  0  0  0
  5  6  1  0  0  0  0
  6  7  1  0  0  0  0
  6 18  1  0  0  0  0
  7  8  1  0  0  0  0
  8  9  2  0  0  0  0
  8 10  2  0  0  0  0
  8 11  1  0  0  0  0
 11 12  2  0  0  0  0
 12 13  1  0  0  0  0
 13 14  1  0  0  0  0
 14 15  2  0  0  0  0
 14 16  2  0  0  0  0
 14 17  1  0  0  0  0
 18 19  1  0  0  0  0
 19 20  1  0  0  0  0
 19 24  2  0  0  0  0
 20 21  2  0  0  0  0
 21 22  1  0  0  0  0
 22 23  2  0  0  0  0
 23 24  1  0  0  0  0
M  END
>  <Index>
1451

>  <ID>
HT0259

>  <class>
1

>  <apol>
48.4631

>  <ast_fraglike>
0

>  <ast_fraglike_ext>
0

>  <ast_violation>
2

>  <ast_violation_ext>
3

>  <a_acc>
4

>  <a_acid>
0

>  <a_aro>
12

>  <a_base>
0

>  <a_count>
38

>  <a_don>
3

>  <a_donacc>
7

>  <a_heavy>
24

>  <a_hyd>
14

>  <a_IC>
78.060417

>  <a_ICM>
2.0542216

>  <a_nB>
0

>  <a_nBr>
0

>  <a_nC>
14

>  <a_nCl>
1

>  <a_nF>
0

>  <a_nH>
14

>  <a_nI>
0

>  <a_nN>
3

>  <a_nO>
4

>  <a_nP>
0

>  <a_nS>
2

>  <balabanJ>
1.6732761

>  <BCUT_PEOE_0>
-2.6318641

>  <BCUT_PEOE_1>
-0.60714269

>  <BCUT_PEOE_2>
0.65904397

>  <BCUT_PEOE_3>
2.6017666

>  <BCUT_SLOGP_0>
-2.7915664

>  <BCUT_SLOGP_1>
-0.51426959

>  <BCUT_SLOGP_2>
0.76357245

>  <BCUT_SLOGP_3>
2.5388873

>  <BCUT_SMR_0>
-2.3102984

>  <BCUT_SMR_1>
-0.46088907

>  <BCUT_SMR_2>
0.80871969

>  <BCUT_SMR_3>
2.921948

>  <bpol>
29.336899

>  <b_1rotN>
3

>  <b_1rotR>
0.11538462

>  <b_ar>
12

>  <b_count>
40

>  <b_double>
0

>  <b_heavy>
26

>  <b_max1len>
3

>  <b_rotN>
3

>  <b_rotR>
0.11538462

>  <b_single>
28

>  <b_triple>
0

>  <chi0>
17.53517

>  <chi0v>
14.619636

>  <chi0v_C>
7.8259091

>  <chi0_C>
9.1209555

>  <chi1>
11.165651

>  <chi1v>
10.265707

>  <chi1v_C>
4.3271856

>  <chi1_C>
5.932653

>  <chiral>
1

>  <chiral_u>
1

>  <density>
0.92501217

>  <diameter>
12

>  <FCharge>
0

>  <GCUT_PEOE_0>
-0.88748342

>  <GCUT_PEOE_1>
-0.39451471

>  <GCUT_PEOE_2>
0.072456598

>  <GCUT_PEOE_3>
2.6347229

>  <GCUT_SLOGP_0>
-1.3482859

>  <GCUT_SLOGP_1>
-0.43786871

>  <GCUT_SLOGP_2>
0.15586407

>  <GCUT_SLOGP_3>
2.6550395

>  <GCUT_SMR_0>
-0.50188005

>  <GCUT_SMR_1>
-0.18509975

>  <GCUT_SMR_2>
0.18158102

>  <GCUT_SMR_3>
2.9191861

>  <Kier1>
18.781065

>  <Kier2>
6.9575

>  <Kier3>
4.2332363

>  <KierA1>
18.126635

>  <KierA2>
6.7043338

>  <KierA3>
4.074513

>  <KierFlex>
5.0636253

>  <lip_acc>
7

>  <lip_don>
4

>  <lip_druglike>
1

>  <lip_violation>
0

>  <logP(o/w)>
1.46

>  <logS>
-3.83916

>  <mr>
9.2410107

>  <mutagenic>
0

>  <nmol>
1

>  <opr_brigid>
17

>  <opr_leadlike>
1

>  <opr_nring>
3

>  <opr_nrot>
3

>  <opr_violation>
0

>  <PC+>
0

>  <PC->
0

>  <PEOE_PC+>
1.8939553

>  <PEOE_PC->
-1.8939553

>  <PEOE_RPC+>
0.1635457

>  <PEOE_RPC->
0.20217812

>  <PEOE_VSA+0>
54.476315

>  <PEOE_VSA+1>
38.476715

>  <PEOE_VSA+2>
26.880259

>  <PEOE_VSA+3>
0

>  <PEOE_VSA+4>
0

>  <PEOE_VSA+5>
0

>  <PEOE_VSA+6>
8.3692026

>  <PEOE_VSA-0>
31.78377

>  <PEOE_VSA-1>
90.856468

>  <PEOE_VSA-2>
34.546043

>  <PEOE_VSA-3>
9.0437498

>  <PEOE_VSA-4>
32.016521

>  <PEOE_VSA-5>
0

>  <PEOE_VSA-6>
0.13689101

>  <PEOE_VSA_FHYD>
0.87592053

>  <PEOE_VSA_FNEG>
0.60744637

>  <PEOE_VSA_FPNEG>
0.098453149

>  <PEOE_VSA_FPOL>
0.12407949

>  <PEOE_VSA_FPOS>
0.39255363

>  <PEOE_VSA_FPPOS>
0.025626341

>  <PEOE_VSA_HYD>
286.06332

>  <PEOE_VSA_NEG>
198.38344

>  <PEOE_VSA_PNEG>
32.153416

>  <PEOE_VSA_POL>
40.522617

>  <PEOE_VSA_POS>
128.2025

>  <PEOE_VSA_PPOS>
8.3692026

>  <petitjean>
0.5

>  <petitjeanSC>
1

>  <Q_PC+>
0

>  <Q_PC->
0

>  <Q_RPC+>
0

>  <Q_RPC->
0

>  <Q_VSA_FHYD>
1

>  <Q_VSA_FNEG>
0

>  <Q_VSA_FPNEG>
0

>  <Q_VSA_FPOL>
0

>  <Q_VSA_FPOS>
1

>  <Q_VSA_FPPOS>
0

>  <Q_VSA_HYD>
326.58594

>  <Q_VSA_NEG>
0

>  <Q_VSA_PNEG>
0

>  <Q_VSA_POL>
0

>  <Q_VSA_POS>
326.58594

>  <Q_VSA_PPOS>
0

>  <radius>
6

>  <reactive>
0

>  <rings>
3

>  <RPC+>
0

>  <RPC->
0

>  <rsynth>
1

>  <SlogP>
1.2599699

>  <SlogP_VSA0>
47.69643

>  <SlogP_VSA1>
114.35413

>  <SlogP_VSA2>
16.834627

>  <SlogP_VSA3>
0

>  <SlogP_VSA4>
3.185575

>  <SlogP_VSA5>
21.969873

>  <SlogP_VSA6>
3.5006065

>  <SlogP_VSA7>
123.50229

>  <SlogP_VSA8>
0

>  <SlogP_VSA9>
41.905392

>  <SMR>
9.0703402

>  <SMR_VSA0>
96.343376

>  <SMR_VSA1>
0

>  <SMR_VSA2>
19.506466

>  <SMR_VSA3>
10.239323

>  <SMR_VSA4>
52.058933

>  <SMR_VSA5>
142.3707

>  <SMR_VSA6>
0

>  <SMR_VSA7>
52.43013

>  <TPSA>
118.36

>  <VAdjEq>
0.43739632

>  <VAdjMa>
5.7004399

>  <VDistEq>
3.3257031

>  <VDistMa>
8.8726015

>  <vdw_area>
326.58594

>  <vdw_vol>
419.31125

>  <vsa_acc>
64.033043

>  <vsa_acid>
0

>  <vsa_base>
0

>  <vsa_don>
33.892902

>  <vsa_hyd>
177.84694

>  <vsa_other>
31.401779

>  <vsa_pol>
97.925949

>  <Weight>
387.86801

>  <weinerPath>
1317

>  <weinerPol>
40

>  <zagreb>
132

$$$$