O(C(=O)C)c1cc2CC[C@H]3[C@@H]4CC[C@H](O)[C@]4(CC[C@@H]3c2cc1)C
  MOE2013           2D

 23 26  0  0  1  0  0  0  0  0999 V2000
    0.0000    0.0000    0.0000 O   0  0  0  0  0  0  0  0  0  0  0  0
    0.7410    1.3040    0.0000 C   0  0  0  0  0  0  0  0  0  0  0  0
    2.2410    1.3140    0.0000 O   0  0  0  0  0  0  0  0  0  0  0  0
   -0.0170    2.5980    0.0000 C   0  0  0  0  0  0  0  0  0  0  0  0
   -1.5000   -0.0100    0.0000 C   0  0  0  0  0  0  0  0  0  0  0  0
   -2.2410   -1.3140    0.0000 C   0  0  0  0  0  0  0  0  0  0  0  0
   -3.7410   -1.3240    0.0000 C   0  0  0  0  0  0  0  0  0  0  0  0
   -4.4820   -2.6280    0.0000 C   0  0  0  0  0  0  0  0  0  0  0  0
   -5.9820   -2.6380    0.0000 C   0  0  0  0  0  0  0  0  0  0  0  0
   -6.7410   -1.3440    0.0000 C   0  0  1  0  0  0  0  0  0  0  0  0
   -8.2410   -1.3540    0.0000 C   0  0  2  0  0  0  0  0  0  0  0  0
   -9.2370   -2.4760    0.0000 C   0  0  0  0  0  0  0  0  0  0  0  0
  -10.6120   -1.8750    0.0000 C   0  0  0  0  0  0  0  0  0  0  0  0
  -10.4650   -0.3820    0.0000 C   0  0  2  0  0  0  0  0  0  0  0  0
  -11.5860    0.6140    0.0000 O   0  0  0  0  0  0  0  0  0  0  0  0
   -9.0000   -0.0600    0.0000 C   0  0  1  0  0  0  0  0  0  0  0  0
   -8.2590    1.2440    0.0000 C   0  0  0  0  0  0  0  0  0  0  0  0
   -6.7590    1.2540    0.0000 C   0  0  0  0  0  0  0  0  0  0  0  0
   -6.0000   -0.0400    0.0000 C   0  0  2  0  0  0  0  0  0  0  0  0
   -4.5000   -0.0300    0.0000 C   0  0  0  0  0  0  0  0  0  0  0  0
   -3.7590    1.2740    0.0000 C   0  0  0  0  0  0  0  0  0  0  0  0
   -2.2590    1.2840    0.0000 C   0  0  0  0  0  0  0  0  0  0  0  0
   -9.8900    1.1470    0.0000 C   0  0  0  0  0  0  0  0  0  0  0  0
  1  2  1  0  0  0  0
  1  5  1  0  0  0  0
  2  3  2  0  0  0  0
  2  4  1  0  0  0  0
  5  6  1  0  0  0  0
  5 22  2  0  0  0  0
  6  7  2  0  0  0  0
  7  8  1  0  0  0  0
  7 20  1  0  0  0  0
  8  9  1  0  0  0  0
 10  9  1  1  0  0  0
 10 11  1  0  0  0  0
 10 19  1  0  0  0  0
 11 12  1  6  0  0  0
 11 16  1  0  0  0  0
 12 13  1  0  0  0  0
 13 14  1  0  0  0  0
 14 15  1  6  0  0  0
 14 16  1  0  0  0  0
 16 17  1  0  0  0  0
 16 23  1  6  0  0  0
 17 18  1  0  0  0  0
 18 19  1  0  0  0  0
 19 20  1  6  0  0  0
 20 21  2  0  0  0  0
 21 22  1  0  0  0  0
M  END
>  <Index>
1553

>  <ID>
HT0791

>  <class>
1

>  <apol>
54.942619

>  <ast_fraglike>
0

>  <ast_fraglike_ext>
0

>  <ast_violation>
2

>  <ast_violation_ext>
2

>  <a_acc>
2

>  <a_acid>
0

>  <a_aro>
6

>  <a_base>
0

>  <a_count>
49

>  <a_don>
1

>  <a_donacc>
3

>  <a_heavy>
23

>  <a_hyd>
19

>  <a_IC>
61.7159

>  <a_ICM>
1.2595081

>  <a_nB>
0

>  <a_nBr>
0

>  <a_nC>
20

>  <a_nCl>
0

>  <a_nF>
0

>  <a_nH>
26

>  <a_nI>
0

>  <a_nN>
0

>  <a_nO>
3

>  <a_nP>
0

>  <a_nS>
0

>  <balabanJ>
1.4644189

>  <BCUT_PEOE_0>
-2.8853319

>  <BCUT_PEOE_1>
-0.49279213

>  <BCUT_PEOE_2>
0.53320277

>  <BCUT_PEOE_3>
2.9270797

>  <BCUT_SLOGP_0>
-2.8038101

>  <BCUT_SLOGP_1>
-0.4201979

>  <BCUT_SLOGP_2>
0.51692671

>  <BCUT_SLOGP_3>
3.0056007

>  <BCUT_SMR_0>
-2.6303492

>  <BCUT_SMR_1>
-0.37739009

>  <BCUT_SMR_2>
0.64806056

>  <BCUT_SMR_3>
3.1789644

>  <bpol>
31.297382

>  <b_1rotN>
1

>  <b_1rotR>
0.03846154

>  <b_ar>
6

>  <b_count>
52

>  <b_double>
1

>  <b_heavy>
26

>  <b_max1len>
3

>  <b_rotN>
2

>  <b_rotR>
0.07692308

>  <b_single>
45

>  <b_triple>
0

>  <chi0>
16.189871

>  <chi0v>
14.047803

>  <chi0v_C>
12.784093

>  <chi0_C>
13.482763

>  <chi1>
10.987019

>  <chi1v>
8.9813976

>  <chi1v_C>
8.1108255

>  <chi1_C>
9.0158215

>  <chiral>
5

>  <chiral_u>
0

>  <density>
0.69941753

>  <diameter>
12

>  <FCharge>
0

>  <GCUT_PEOE_0>
-0.80335838

>  <GCUT_PEOE_1>
-0.41831952

>  <GCUT_PEOE_2>
0.027756874

>  <GCUT_PEOE_3>
3.1250448

>  <GCUT_SLOGP_0>
-0.91095483

>  <GCUT_SLOGP_1>
-0.32236725

>  <GCUT_SLOGP_2>
0.05133241

>  <GCUT_SLOGP_3>
3.2221277

>  <GCUT_SMR_0>
-0.53566158

>  <GCUT_SMR_1>
-0.21507701

>  <GCUT_SMR_2>
0.12983298

>  <GCUT_SMR_3>
3.3609958

>  <Kier1>
16.467455

>  <Kier2>
6.0637498

>  <Kier3>
2.7085257

>  <KierA1>
14.191137

>  <KierA2>
5.1882439

>  <KierA3>
2.3049114

>  <KierFlex>
3.2011774

>  <lip_acc>
3

>  <lip_don>
1

>  <lip_druglike>
1

>  <lip_violation>
0

>  <logP(o/w)>
4.092

>  <logS>
-4.9338598

>  <mr>
8.9502029

>  <mutagenic>
0

>  <nmol>
1

>  <opr_brigid>
20

>  <opr_leadlike>
1

>  <opr_nring>
4

>  <opr_nrot>
1

>  <opr_violation>
0

>  <PC+>
0

>  <PC->
0

>  <PEOE_PC+>
1.4982027

>  <PEOE_PC->
-1.4982027

>  <PEOE_RPC+>
0.17620836

>  <PEOE_RPC->
0.26113868

>  <PEOE_VSA+0>
108.32079

>  <PEOE_VSA+1>
30.424992

>  <PEOE_VSA+2>
0

>  <PEOE_VSA+3>
0

>  <PEOE_VSA+4>
10.324173

>  <PEOE_VSA+5>
14.708499

>  <PEOE_VSA+6>
0

>  <PEOE_VSA-0>
81.134766

>  <PEOE_VSA-1>
31.002581

>  <PEOE_VSA-2>
0

>  <PEOE_VSA-3>
0

>  <PEOE_VSA-4>
0

>  <PEOE_VSA-5>
16.070677

>  <PEOE_VSA-6>
7.7675405

>  <PEOE_VSA_FHYD>
0.83696336

>  <PEOE_VSA_FNEG>
0.45362383

>  <PEOE_VSA_FPNEG>
0.079525933

>  <PEOE_VSA_FPOL>
0.16303664

>  <PEOE_VSA_FPOS>
0.54637617

>  <PEOE_VSA_FPPOS>
0.083510712

>  <PEOE_VSA_HYD>
250.88312

>  <PEOE_VSA_NEG>
135.97557

>  <PEOE_VSA_PNEG>
23.838217

>  <PEOE_VSA_POL>
48.870888

>  <PEOE_VSA_POS>
163.77844

>  <PEOE_VSA_PPOS>
25.032671

>  <petitjean>
0.5

>  <petitjeanSC>
1

>  <Q_PC+>
0

>  <Q_PC->
0

>  <Q_RPC+>
0

>  <Q_RPC->
0

>  <Q_VSA_FHYD>
1

>  <Q_VSA_FNEG>
0

>  <Q_VSA_FPNEG>
0

>  <Q_VSA_FPOL>
0

>  <Q_VSA_FPOS>
1

>  <Q_VSA_FPPOS>
0

>  <Q_VSA_HYD>
299.75403

>  <Q_VSA_NEG>
0

>  <Q_VSA_PNEG>
0

>  <Q_VSA_POL>
0

>  <Q_VSA_POS>
299.75403

>  <Q_VSA_PPOS>
0

>  <radius>
6

>  <reactive>
0

>  <rings>
4

>  <RPC+>
0

>  <RPC->
0

>  <rsynth>
0.43478259

>  <SlogP>
3.8288701

>  <SlogP_VSA0>
36.385113

>  <SlogP_VSA1>
7.7454643

>  <SlogP_VSA2>
30.330866

>  <SlogP_VSA3>
0

>  <SlogP_VSA4>
15.192742

>  <SlogP_VSA5>
18.868406

>  <SlogP_VSA6>
4.4107962

>  <SlogP_VSA7>
52.929554

>  <SlogP_VSA8>
94.342026

>  <SlogP_VSA9>
71.895454

>  <SMR>
8.8374796

>  <SMR_VSA0>
23.862217

>  <SMR_VSA1>
36.385113

>  <SMR_VSA2>
8.8215923

>  <SMR_VSA3>
22.494022

>  <SMR_VSA4>
0

>  <SMR_VSA5>
166.13998

>  <SMR_VSA6>
7.7454643

>  <SMR_VSA7>
66.652031

>  <TPSA>
46.529999

>  <VAdjEq>
0.46357921

>  <VAdjMa>
5.7004399

>  <VDistEq>
3.2822671

>  <VDistMa>
8.732482

>  <vdw_area>
299.75403

>  <vdw_vol>
449.55261

>  <vsa_acc>
13.566921

>  <vsa_acid>
0

>  <vsa_base>
0

>  <vsa_don>
0

>  <vsa_hyd>
229.05309

>  <vsa_other>
17.212255

>  <vsa_pol>
27.133842

>  <Weight>
314.42499

>  <weinerPath>
1152

>  <weinerPol>
43

>  <zagreb>
132

$$$$