O1C(C/C=CC=C[C@H](O[C@@H]2O[C@@H](C)[C@@H](N(C)C)CC2)[C@@H](C[C@H](CC=O)[C@H](O[C@@H]2O[C@H](C)[C@@H](O[C@H]3O[C@H](C)[C@@H](O)[C@@](O)(C3)C)[C@H](N(C)C)[C@H]2O)C(OC)C(O)CC1=O)C)C
  MOE2013           2D

 59 62  0  0  1  0  0  0  0  0999 V2000
    0.0000    0.0000    0.0000 O   0  0  0  0  0  0  0  0  0  0  0  0
    1.2840    0.7420    0.0000 C   0  0  3  0  0  0  0  0  0  0  0  0
    2.5940   -0.0010    0.0000 C   0  0  0  0  0  0  0  0  0  0  0  0
    2.5740   -1.5140    0.0000 C   0  0  0  0  0  0  0  0  0  0  0  0
    3.8460   -2.2740    0.0000 C   0  0  0  0  0  0  0  0  0  0  0  0
    4.0020   -3.6980    0.0000 C   0  0  0  0  0  0  0  0  0  0  0  0
    3.0410   -4.7600    0.0000 C   0  0  0  0  0  0  0  0  0  0  0  0
    1.5650   -4.6270    0.0000 C   0  0  2  0  0  0  0  0  0  0  0  0
    2.1950   -5.9880    0.0000 O   0  0  0  0  0  0  0  0  0  0  0  0
    3.6890   -6.1230    0.0000 C   0  0  2  0  0  0  0  0  0  0  0  0
    4.3190   -7.4840    0.0000 O   0  0  0  0  0  0  0  0  0  0  0  0
    5.8130   -7.6190    0.0000 C   0  0  1  0  0  0  0  0  0  0  0  0
    6.4430   -8.9800    0.0000 C   0  0  0  0  0  0  0  0  0  0  0  0
    6.6770   -6.3930    0.0000 C   0  0  1  0  0  0  0  0  0  0  0  0
    8.1710   -6.5280    0.0000 N   0  0  0  0  0  0  0  0  0  0  0  0
    9.0350   -5.3010    0.0000 C   0  0  0  0  0  0  0  0  0  0  0  0
    8.8010   -7.8890    0.0000 C   0  0  0  0  0  0  0  0  0  0  0  0
    6.0470   -5.0320    0.0000 C   0  0  0  0  0  0  0  0  0  0  0  0
    4.5530   -4.8970    0.0000 C   0  0  0  0  0  0  0  0  0  0  0  0
    0.6920   -5.8650    0.0000 C   0  0  1  0  0  0  0  0  0  0  0  0
   -0.8060   -5.7010    0.0000 C   0  0  0  0  0  0  0  0  0  0  0  0
   -1.4120   -4.3480    0.0000 C   0  0  2  0  0  0  0  0  0  0  0  0
   -2.3010   -5.5560    0.0000 C   0  0  0  0  0  0  0  0  0  0  0  0
   -1.7000   -6.9300    0.0000 C   0  0  0  0  0  0  0  0  0  0  0  0
   -2.5890   -8.1380    0.0000 O   0  0  0  0  0  0  0  0  0  0  0  0
   -2.9130   -4.1680    0.0000 C   0  0  2  0  0  0  0  0  0  0  0  0
   -3.8690   -5.3230    0.0000 O   0  0  0  0  0  0  0  0  0  0  0  0
   -5.3480   -5.0730    0.0000 C   0  0  2  0  0  0  0  0  0  0  0  0
   -5.8710   -3.6670    0.0000 O   0  0  0  0  0  0  0  0  0  0  0  0
   -7.3500   -3.4170    0.0000 C   0  0  2  0  0  0  0  0  0  0  0  0
   -7.8730   -2.0110    0.0000 C   0  0  0  0  0  0  0  0  0  0  0  0
   -8.3060   -4.5720    0.0000 C   0  0  1  0  0  0  0  0  0  0  0  0
   -9.7850   -4.3220    0.0000 O   0  0  0  0  0  0  0  0  0  0  0  0
  -10.3080   -2.9160    0.0000 C   0  0  1  0  0  0  0  0  0  0  0  0
   -9.3520   -1.7600    0.0000 O   0  0  0  0  0  0  0  0  0  0  0  0
   -9.8740   -0.3540    0.0000 C   0  0  2  0  0  0  0  0  0  0  0  0
   -8.9180    0.8010    0.0000 C   0  0  0  0  0  0  0  0  0  0  0  0
  -11.3530   -0.1040    0.0000 C   0  0  1  0  0  0  0  0  0  0  0  0
  -11.8760    1.3020    0.0000 O   0  0  0  0  0  0  0  0  0  0  0  0
  -12.3090   -1.2600    0.0000 C   0  0  1  0  0  0  0  0  0  0  0  0
  -13.7150   -1.7820    0.0000 O   0  0  0  0  0  0  0  0  0  0  0  0
  -11.7870   -2.6660    0.0000 C   0  0  0  0  0  0  0  0  0  0  0  0
  -13.4650   -0.3030    0.0000 C   0  0  0  0  0  0  0  0  0  0  0  0
   -7.7830   -5.9780    0.0000 C   0  0  2  0  0  0  0  0  0  0  0  0
   -8.7400   -7.1340    0.0000 N   0  0  0  0  0  0  0  0  0  0  0  0
   -8.2170   -8.5400    0.0000 C   0  0  0  0  0  0  0  0  0  0  0  0
  -10.2190   -6.8840    0.0000 C   0  0  0  0  0  0  0  0  0  0  0  0
   -6.3050   -6.2290    0.0000 C   0  0  1  0  0  0  0  0  0  0  0  0
   -5.7820   -7.6350    0.0000 O   0  0  0  0  0  0  0  0  0  0  0  0
   -3.3860   -2.6800    0.0000 C   0  0  3  0  0  0  0  0  0  0  0  0
   -4.8370   -2.3000    0.0000 O   0  0  0  0  0  0  0  0  0  0  0  0
   -5.2340   -0.8540    0.0000 C   0  0  0  0  0  0  0  0  0  0  0  0
   -2.2950   -1.6610    0.0000 C   0  0  3  0  0  0  0  0  0  0  0  0
   -0.8680   -2.1240    0.0000 O   0  0  0  0  0  0  0  0  0  0  0  0
   -2.5780   -0.1950    0.0000 C   0  0  0  0  0  0  0  0  0  0  0  0
   -1.3230    0.7320    0.0000 C   0  0  0  0  0  0  0  0  0  0  0  0
   -1.4210    2.2290    0.0000 O   0  0  0  0  0  0  0  0  0  0  0  0
    1.3090   -7.2320    0.0000 C   0  0  0  0  0  0  0  0  0  0  0  0
    1.2770    2.2420    0.0000 C   0  0  0  0  0  0  0  0  0  0  0  0
  1  2  1  0  0  0  0
  1 56  1  0  0  0  0
  2  3  1  0  0  0  0
  2 59  1  0  0  0  0
  3  4  1  0  0  0  0
  4  5  2  3  0  0  0
  5  6  1  0  0  0  0
  6  7  2  3  0  0  0
  7  8  1  0  0  0  0
  8  9  1  6  0  0  0
  8 20  1  0  0  0  0
 10  9  1  1  0  0  0
 10 11  1  0  0  0  0
 10 19  1  0  0  0  0
 11 12  1  0  0  0  0
 12 13  1  6  0  0  0
 12 14  1  0  0  0  0
 14 15  1  6  0  0  0
 14 18  1  0  0  0  0
 15 16  1  0  0  0  0
 15 17  1  0  0  0  0
 18 19  1  0  0  0  0
 20 21  1  0  0  0  0
 20 58  1  6  0  0  0
 21 22  1  0  0  0  0
 22 23  1  6  0  0  0
 22 26  1  0  0  0  0
 23 24  1  0  0  0  0
 24 25  2  0  0  0  0
 26 27  1  6  0  0  0
 26 50  1  0  0  0  0
 28 27  1  1  0  0  0
 28 29  1  0  0  0  0
 28 48  1  0  0  0  0
 29 30  1  0  0  0  0
 30 31  1  1  0  0  0
 30 32  1  0  0  0  0
 32 33  1  6  0  0  0
 32 44  1  0  0  0  0
 34 33  1  6  0  0  0
 34 35  1  0  0  0  0
 34 42  1  0  0  0  0
 35 36  1  0  0  0  0
 36 37  1  1  0  0  0
 36 38  1  0  0  0  0
 38 39  1  6  0  0  0
 38 40  1  0  0  0  0
 40 41  1  6  0  0  0
 40 42  1  0  0  0  0
 40 43  1  1  0  0  0
 44 45  1  1  0  0  0
 44 48  1  0  0  0  0
 45 46  1  0  0  0  0
 45 47  1  0  0  0  0
 48 49  1  6  0  0  0
 50 51  1  0  0  0  0
 50 53  1  0  0  0  0
 51 52  1  0  0  0  0
 53 54  1  0  0  0  0
 53 55  1  0  0  0  0
 55 56  1  0  0  0  0
 56 57  2  0  0  0  0
M  END
>  <Index>
1725

>  <ID>
HT1911

>  <class>
1

>  <apol>
138.45068

>  <ast_fraglike>
0

>  <ast_fraglike_ext>
0

>  <ast_violation>
3

>  <ast_violation_ext>
5

>  <a_acc>
15

>  <a_acid>
0

>  <a_aro>
0

>  <a_base>
0

>  <a_count>
133

>  <a_don>
4

>  <a_donacc>
19

>  <a_heavy>
59

>  <a_hyd>
38

>  <a_IC>
190.22066

>  <a_ICM>
1.4302305

>  <a_nB>
0

>  <a_nBr>
0

>  <a_nC>
43

>  <a_nCl>
0

>  <a_nF>
0

>  <a_nH>
74

>  <a_nI>
0

>  <a_nN>
2

>  <a_nO>
14

>  <a_nP>
0

>  <a_nS>
0

>  <balabanJ>
1.63589

>  <BCUT_PEOE_0>
-2.8139219

>  <BCUT_PEOE_1>
-0.46741664

>  <BCUT_PEOE_2>
0.54185992

>  <BCUT_PEOE_3>
2.8356152

>  <BCUT_SLOGP_0>
-2.9526014

>  <BCUT_SLOGP_1>
-0.42761344

>  <BCUT_SLOGP_2>
0.47125888

>  <BCUT_SLOGP_3>
2.7776618

>  <BCUT_SMR_0>
-2.5903203

>  <BCUT_SMR_1>
-0.35737711

>  <BCUT_SMR_2>
0.64398926

>  <BCUT_SMR_3>
3.0441904

>  <bpol>
102.10132

>  <b_1rotN>
11

>  <b_1rotR>
0.17741935

>  <b_ar>
0

>  <b_count>
136

>  <b_double>
4

>  <b_heavy>
62

>  <b_max1len>
4

>  <b_rotN>
11

>  <b_rotR>
0.17741935

>  <b_single>
132

>  <b_triple>
0

>  <chi0>
43.766491

>  <chi0v>
36.994568

>  <chi0v_C>
30.228804

>  <chi0_C>
30.954937

>  <chi1>
27.768204

>  <chi1v>
21.287169

>  <chi1v_C>
13.631682

>  <chi1_C>
14.444797

>  <chiral>
19

>  <chiral_u>
3

>  <density>
0.7302385

>  <diameter>
22

>  <FCharge>
0

>  <GCUT_PEOE_0>
-0.85645473

>  <GCUT_PEOE_1>
-0.33706754

>  <GCUT_PEOE_2>
0.049020585

>  <GCUT_PEOE_3>
3.4560089

>  <GCUT_SLOGP_0>
-0.97005761

>  <GCUT_SLOGP_1>
-0.28926733

>  <GCUT_SLOGP_2>
-0.0086159669

>  <GCUT_SLOGP_3>
3.4313524

>  <GCUT_SMR_0>
-0.53434902

>  <GCUT_SMR_1>
-0.20521075

>  <GCUT_SMR_2>
0.1329219

>  <GCUT_SMR_3>
3.6606185

>  <Kier1>
51.632675

>  <Kier2>
23.790178

>  <Kier3>
14.244498

>  <KierA1>
48.715179

>  <KierA2>
22.42293

>  <KierA3>
13.416243

>  <KierFlex>
18.514189

>  <lip_acc>
16

>  <lip_don>
4

>  <lip_druglike>
0

>  <lip_violation>
2

>  <logP(o/w)>
3.02774

>  <logS>
-3.8333099

>  <mr>
21.89809

>  <mutagenic>
0

>  <nmol>
1

>  <opr_brigid>
34

>  <opr_leadlike>
0

>  <opr_nring>
3

>  <opr_nrot>
30

>  <opr_violation>
3

>  <PC+>
0

>  <PC->
0

>  <PEOE_PC+>
6.12396

>  <PEOE_PC->
-6.12396

>  <PEOE_RPC+>
0.043269396

>  <PEOE_RPC->
0.063461699

>  <PEOE_VSA+0>
246.01939

>  <PEOE_VSA+1>
140.02026

>  <PEOE_VSA+2>
42.389984

>  <PEOE_VSA+3>
33.464725

>  <PEOE_VSA+4>
41.296692

>  <PEOE_VSA+5>
14.708499

>  <PEOE_VSA+6>
0

>  <PEOE_VSA-0>
221.4984

>  <PEOE_VSA-1>
67.767296

>  <PEOE_VSA-2>
0

>  <PEOE_VSA-3>
0

>  <PEOE_VSA-4>
0

>  <PEOE_VSA-5>
13.566921

>  <PEOE_VSA-6>
64.66713

>  <PEOE_VSA_FHYD>
0.84838563

>  <PEOE_VSA_FNEG>
0.41506669

>  <PEOE_VSA_FPNEG>
0.08836019

>  <PEOE_VSA_FPOL>
0.15161435

>  <PEOE_VSA_FPOS>
0.58493334

>  <PEOE_VSA_FPPOS>
0.063254163

>  <PEOE_VSA_HYD>
751.16003

>  <PEOE_VSA_NEG>
367.49976

>  <PEOE_VSA_PNEG>
78.234055

>  <PEOE_VSA_POL>
134.23924

>  <PEOE_VSA_POS>
517.89954

>  <PEOE_VSA_PPOS>
56.005188

>  <petitjean>
0.5

>  <petitjeanSC>
1

>  <Q_PC+>
0

>  <Q_PC->
0

>  <Q_RPC+>
0

>  <Q_RPC->
0

>  <Q_VSA_FHYD>
1

>  <Q_VSA_FNEG>
0

>  <Q_VSA_FPNEG>
0

>  <Q_VSA_FPOL>
0

>  <Q_VSA_FPOS>
1

>  <Q_VSA_FPPOS>
0

>  <Q_VSA_HYD>
885.39929

>  <Q_VSA_NEG>
0

>  <Q_VSA_PNEG>
0

>  <Q_VSA_POL>
0

>  <Q_VSA_POS>
885.39929

>  <Q_VSA_PPOS>
0

>  <radius>
11

>  <reactive>
1

>  <rings>
4

>  <RPC+>
0

>  <RPC->
0

>  <rsynth>
0.54237288

>  <SlogP>
2.3250999

>  <SlogP_VSA0>
101.54091

>  <SlogP_VSA1>
13.994092

>  <SlogP_VSA2>
260.56735

>  <SlogP_VSA3>
0

>  <SlogP_VSA4>
8.8215923

>  <SlogP_VSA5>
166.97261

>  <SlogP_VSA6>
0

>  <SlogP_VSA7>
70.572739

>  <SlogP_VSA8>
132.07884

>  <SlogP_VSA9>
199.95609

>  <SMR>
21.68862

>  <SMR_VSA0>
135.72354

>  <SMR_VSA1>
107.78954

>  <SMR_VSA2>
8.8215923

>  <SMR_VSA3>
104.69859

>  <SMR_VSA4>
0

>  <SMR_VSA5>
202.65158

>  <SMR_VSA6>
7.7454643

>  <SMR_VSA7>
387.07391

>  <TPSA>
195.38

>  <VAdjEq>
0.2218456

>  <VAdjMa>
6.9541965

>  <VDistEq>
4.163322

>  <VDistMa>
11.522773

>  <vdw_area>
885.39929

>  <vdw_vol>
1154.5063

>  <vsa_acc>
44.660133

>  <vsa_acid>
0

>  <vsa_base>
0

>  <vsa_don>
0

>  <vsa_hyd>
632.46033

>  <vsa_other>
83.396225

>  <vsa_pol>
98.927818

>  <Weight>
843.065

>  <weinerPath>
14822

>  <weinerPol>
104

>  <zagreb>
302

$$$$