O(C(=O)N[C@@H](C(C)(C)C)C(=O)N[C@H]([C@@H](O)CN(NC(=O)[C@@H](NC(OC)=O)C(C)(C)C)Cc1ccc(cc1)-c1ncccc1)Cc1ccccc1)C
  MOE2013           2D

 51 53  0  0  1  0  0  0  0  0999 V2000
    0.0000    0.0000    0.0000 O   0  0  0  0  0  0  0  0  0  0  0  0
   -0.7440    1.3020    0.0000 C   0  0  0  0  0  0  0  0  0  0  0  0
    0.0110    2.5980    0.0000 O   0  0  0  0  0  0  0  0  0  0  0  0
   -2.2440    1.3090    0.0000 N   0  0  0  0  0  0  0  0  0  0  0  0
   -2.9890    2.6110    0.0000 C   0  0  1  0  0  0  0  0  0  0  0  0
   -2.2330    3.9070    0.0000 C   0  0  0  0  0  0  0  0  0  0  0  0
   -1.4780    5.2020    0.0000 C   0  0  0  0  0  0  0  0  0  0  0  0
   -3.5290    4.6620    0.0000 C   0  0  0  0  0  0  0  0  0  0  0  0
   -0.9380    3.1510    0.0000 C   0  0  0  0  0  0  0  0  0  0  0  0
   -4.4890    2.6170    0.0000 C   0  0  0  0  0  0  0  0  0  0  0  0
   -5.2440    1.3210    0.0000 O   0  0  0  0  0  0  0  0  0  0  0  0
   -5.2330    3.9190    0.0000 N   0  0  0  0  0  0  0  0  0  0  0  0
   -6.7330    3.9260    0.0000 C   0  0  2  0  0  0  0  0  0  0  0  0
   -7.4890    2.6300    0.0000 C   0  0  1  0  0  0  0  0  0  0  0  0
   -6.7440    1.3280    0.0000 O   0  0  0  0  0  0  0  0  0  0  0  0
   -8.9890    2.6360    0.0000 C   0  0  0  0  0  0  0  0  0  0  0  0
   -9.7440    1.3410    0.0000 N   0  0  3  0  0  0  0  0  0  0  0  0
  -11.2440    1.3470    0.0000 N   0  0  0  0  0  0  0  0  0  0  0  0
  -11.9890    2.6490    0.0000 C   0  0  0  0  0  0  0  0  0  0  0  0
  -11.2330    3.9450    0.0000 O   0  0  0  0  0  0  0  0  0  0  0  0
  -13.4890    2.6560    0.0000 C   0  0  1  0  0  0  0  0  0  0  0  0
  -14.2330    3.9580    0.0000 N   0  0  0  0  0  0  0  0  0  0  0  0
  -15.7330    3.9640    0.0000 C   0  0  0  0  0  0  0  0  0  0  0  0
  -16.4780    5.2660    0.0000 O   0  0  0  0  0  0  0  0  0  0  0  0
  -17.9780    5.2730    0.0000 C   0  0  0  0  0  0  0  0  0  0  0  0
  -16.4890    2.6680    0.0000 O   0  0  0  0  0  0  0  0  0  0  0  0
  -14.2440    1.3600    0.0000 C   0  0  0  0  0  0  0  0  0  0  0  0
  -15.5400    2.1150    0.0000 C   0  0  0  0  0  0  0  0  0  0  0  0
  -12.9490    0.6040    0.0000 C   0  0  0  0  0  0  0  0  0  0  0  0
  -15.0000    0.0640    0.0000 C   0  0  0  0  0  0  0  0  0  0  0  0
   -9.0000    0.0380    0.0000 C   0  0  0  0  0  0  0  0  0  0  0  0
   -9.7550   -1.2570    0.0000 C   0  0  0  0  0  0  0  0  0  0  0  0
   -9.0110   -2.5600    0.0000 C   0  0  0  0  0  0  0  0  0  0  0  0
   -9.7670   -3.8560    0.0000 C   0  0  0  0  0  0  0  0  0  0  0  0
  -11.2660   -3.8490    0.0000 C   0  0  0  0  0  0  0  0  0  0  0  0
  -12.0110   -2.5470    0.0000 C   0  0  0  0  0  0  0  0  0  0  0  0
  -11.2550   -1.2510    0.0000 C   0  0  0  0  0  0  0  0  0  0  0  0
  -12.0220   -5.1450    0.0000 C   0  0  0  0  0  0  0  0  0  0  0  0
  -13.5220   -5.1390    0.0000 N   0  0  0  0  0  0  0  0  0  0  0  0
  -14.2780   -6.4340    0.0000 C   0  0  0  0  0  0  0  0  0  0  0  0
  -13.5330   -7.7370    0.0000 C   0  0  0  0  0  0  0  0  0  0  0  0
  -12.0330   -7.7430    0.0000 C   0  0  0  0  0  0  0  0  0  0  0  0
  -11.2780   -6.4470    0.0000 C   0  0  0  0  0  0  0  0  0  0  0  0
   -7.4780    5.2280    0.0000 C   0  0  0  0  0  0  0  0  0  0  0  0
   -6.7220    6.5240    0.0000 C   0  0  0  0  0  0  0  0  0  0  0  0
   -5.2220    6.5170    0.0000 C   0  0  0  0  0  0  0  0  0  0  0  0
   -4.4670    7.8130    0.0000 C   0  0  0  0  0  0  0  0  0  0  0  0
   -5.2110    9.1160    0.0000 C   0  0  0  0  0  0  0  0  0  0  0  0
   -6.7110    9.1220    0.0000 C   0  0  0  0  0  0  0  0  0  0  0  0
   -7.4670    7.8260    0.0000 C   0  0  0  0  0  0  0  0  0  0  0  0
    1.5000   -0.0060    0.0000 C   0  0  0  0  0  0  0  0  0  0  0  0
  1  2  1  0  0  0  0
  1 51  1  0  0  0  0
  2  3  2  0  0  0  0
  2  4  1  0  0  0  0
  5  4  1  6  0  0  0
  5  6  1  0  0  0  0
  5 10  1  0  0  0  0
  6  7  1  0  0  0  0
  6  8  1  0  0  0  0
  6  9  1  0  0  0  0
 10 11  2  0  0  0  0
 10 12  1  0  0  0  0
 13 12  1  6  0  0  0
 13 14  1  0  0  0  0
 13 44  1  0  0  0  0
 14 15  1  1  0  0  0
 14 16  1  0  0  0  0
 16 17  1  0  0  0  0
 17 18  1  0  0  0  0
 17 31  1  0  0  0  0
 18 19  1  0  0  0  0
 19 20  2  0  0  0  0
 21 19  1  6  0  0  0
 21 22  1  0  0  0  0
 21 27  1  0  0  0  0
 22 23  1  0  0  0  0
 23 24  1  0  0  0  0
 23 26  2  0  0  0  0
 24 25  1  0  0  0  0
 27 28  1  0  0  0  0
 27 29  1  0  0  0  0
 27 30  1  0  0  0  0
 31 32  1  0  0  0  0
 32 33  1  0  0  0  0
 32 37  2  0  0  0  0
 33 34  2  0  0  0  0
 34 35  1  0  0  0  0
 35 36  2  0  0  0  0
 35 38  1  0  0  0  0
 36 37  1  0  0  0  0
 38 39  1  0  0  0  0
 38 43  2  0  0  0  0
 39 40  2  0  0  0  0
 40 41  1  0  0  0  0
 41 42  2  0  0  0  0
 42 43  1  0  0  0  0
 44 45  1  0  0  0  0
 45 46  1  0  0  0  0
 45 50  2  0  0  0  0
 46 47  2  0  0  0  0
 47 48  1  0  0  0  0
 48 49  2  0  0  0  0
 49 50  1  0  0  0  0
M  END
>  <Index>
1439

>  <ID>
HT0191

>  <class>
1

>  <apol>
113.76723

>  <ast_fraglike>
0

>  <ast_fraglike_ext>
0

>  <ast_violation>
4

>  <ast_violation_ext>
6

>  <a_acc>
7

>  <a_acid>
0

>  <a_aro>
18

>  <a_base>
0

>  <a_count>
103

>  <a_don>
5

>  <a_donacc>
12

>  <a_heavy>
51

>  <a_hyd>
34

>  <a_IC>
157.70418

>  <a_ICM>
1.5311086

>  <a_nB>
0

>  <a_nBr>
0

>  <a_nC>
38

>  <a_nCl>
0

>  <a_nF>
0

>  <a_nH>
52

>  <a_nI>
0

>  <a_nN>
6

>  <a_nO>
7

>  <a_nP>
0

>  <a_nS>
0

>  <balabanJ>
1.822313

>  <BCUT_PEOE_0>
-2.7261882

>  <BCUT_PEOE_1>
-0.50912035

>  <BCUT_PEOE_2>
0.55027115

>  <BCUT_PEOE_3>
2.7189248

>  <BCUT_SLOGP_0>
-2.8980999

>  <BCUT_SLOGP_1>
-0.44080427

>  <BCUT_SLOGP_2>
0.64808768

>  <BCUT_SLOGP_3>
2.7118037

>  <BCUT_SMR_0>
-2.4759853

>  <BCUT_SMR_1>
-0.34889722

>  <BCUT_SMR_2>
0.70911735

>  <BCUT_SMR_3>
2.963748

>  <bpol>
69.13076

>  <b_1rotN>
14

>  <b_1rotR>
0.26415095

>  <b_ar>
18

>  <b_count>
105

>  <b_double>
4

>  <b_heavy>
53

>  <b_max1len>
7

>  <b_rotN>
22

>  <b_rotR>
0.41509435

>  <b_single>
83

>  <b_triple>
0

>  <chi0>
37.769009

>  <chi0v>
30.727406

>  <chi0v_C>
24.936275

>  <chi0_C>
27.241911

>  <chi1>
24.009607

>  <chi1v>
16.785696

>  <chi1v_C>
11.282363

>  <chi1_C>
13.901415

>  <chiral>
4

>  <chiral_u>
0

>  <density>
0.71958119

>  <diameter>
19

>  <FCharge>
0

>  <GCUT_PEOE_0>
-0.86265206

>  <GCUT_PEOE_1>
-0.39001176

>  <GCUT_PEOE_2>
0.058539465

>  <GCUT_PEOE_3>
3.1117496

>  <GCUT_SLOGP_0>
-1.1775231

>  <GCUT_SLOGP_1>
-0.26386139

>  <GCUT_SLOGP_2>
0.10276919

>  <GCUT_SLOGP_3>
3.0884104

>  <GCUT_SMR_0>
-0.53302246

>  <GCUT_SMR_1>
-0.19061941

>  <GCUT_SMR_2>
0.14737007

>  <GCUT_SMR_3>
3.3508778

>  <Kier1>
45.38982

>  <Kier2>
21.922937

>  <Kier3>
15.575987

>  <KierA1>
34.812027

>  <KierA2>
16.719553

>  <KierA3>
11.831964

>  <KierFlex>
11.412579

>  <lip_acc>
13

>  <lip_don>
5

>  <lip_druglike>
0

>  <lip_violation>
2

>  <logP(o/w)>
4.737

>  <logS>
-6.6041398

>  <mr>
19.671206

>  <mutagenic>
0

>  <nmol>
1

>  <opr_brigid>
18

>  <opr_leadlike>
0

>  <opr_nring>
3

>  <opr_nrot>
16

>  <opr_violation>
3

>  <PC+>
0

>  <PC->
0

>  <PEOE_PC+>
4.8546772

>  <PEOE_PC->
-4.8546772

>  <PEOE_RPC+>
0.074369289

>  <PEOE_RPC->
0.080008663

>  <PEOE_VSA+0>
197.70369

>  <PEOE_VSA+1>
112.85432

>  <PEOE_VSA+2>
6.2919211

>  <PEOE_VSA+3>
34.476051

>  <PEOE_VSA+4>
23.273705

>  <PEOE_VSA+5>
12.949531

>  <PEOE_VSA+6>
38.399021

>  <PEOE_VSA-0>
37.628201

>  <PEOE_VSA-1>
235.03511

>  <PEOE_VSA-2>
0

>  <PEOE_VSA-3>
0

>  <PEOE_VSA-4>
27.133842

>  <PEOE_VSA-5>
36.691772

>  <PEOE_VSA-6>
13.185725

>  <PEOE_VSA_FHYD>
0.80450088

>  <PEOE_VSA_FNEG>
0.45083076

>  <PEOE_VSA_FPNEG>
0.099289671

>  <PEOE_VSA_FPOL>
0.19549912

>  <PEOE_VSA_FPOS>
0.54916924

>  <PEOE_VSA_FPPOS>
0.096209459

>  <PEOE_VSA_HYD>
623.98926

>  <PEOE_VSA_NEG>
349.67465

>  <PEOE_VSA_PNEG>
77.011337

>  <PEOE_VSA_POL>
151.63359

>  <PEOE_VSA_POS>
425.94824

>  <PEOE_VSA_PPOS>
74.622253

>  <petitjean>
0.47368422

>  <petitjeanSC>
0.89999998

>  <Q_PC+>
0

>  <Q_PC->
0

>  <Q_RPC+>
0

>  <Q_RPC->
0

>  <Q_VSA_FHYD>
1

>  <Q_VSA_FNEG>
0

>  <Q_VSA_FPNEG>
0

>  <Q_VSA_FPOL>
0

>  <Q_VSA_FPOS>
1

>  <Q_VSA_FPPOS>
0

>  <Q_VSA_HYD>
775.62286

>  <Q_VSA_NEG>
0

>  <Q_VSA_PNEG>
0

>  <Q_VSA_POL>
0

>  <Q_VSA_POS>
775.62286

>  <Q_VSA_PPOS>
0

>  <radius>
10

>  <reactive>
1

>  <rings>
3

>  <RPC+>
0

>  <RPC->
0

>  <rsynth>
1

>  <SlogP>
4.4779701

>  <SlogP_VSA0>
97.30571

>  <SlogP_VSA1>
44.938164

>  <SlogP_VSA2>
88.138763

>  <SlogP_VSA3>
18.439579

>  <SlogP_VSA4>
6.37115

>  <SlogP_VSA5>
89.636139

>  <SlogP_VSA6>
0

>  <SlogP_VSA7>
234.87489

>  <SlogP_VSA8>
0

>  <SlogP_VSA9>
266.12009

>  <SMR>
19.408159

>  <SMR_VSA0>
117.44864

>  <SMR_VSA1>
45.172546

>  <SMR_VSA2>
71.920479

>  <SMR_VSA3>
24.785706

>  <SMR_VSA4>
5.9423227

>  <SMR_VSA5>
266.24054

>  <SMR_VSA6>
43.59042

>  <SMR_VSA7>
270.72382

>  <TPSA>
171.22

>  <VAdjEq>
0.24573661

>  <VAdjMa>
6.7279205

>  <VDistEq>
3.9973493

>  <VDistMa>
11.115432

>  <vdw_area>
775.62286

>  <vdw_vol>
979.55444

>  <vsa_acc>
59.95026

>  <vsa_acid>
0

>  <vsa_base>
0

>  <vsa_don>
26.468767

>  <vsa_hyd>
556.05884

>  <vsa_other>
69.305595

>  <vsa_pol>
99.985947

>  <Weight>
704.86896

>  <weinerPath>
10532

>  <weinerPol>
77

>  <zagreb>
254

$$$$