O=C1Nc2c(N1CCCN1CCN(CC1)C(c1ccccc1)c1ccccc1)cccc2
  MOE2013           2D

 32 36  0  0  0  0  0  0  0  0999 V2000
    0.0000    0.0000    0.0000 O   0  0  0  0  0  0  0  0  0  0  0  0
    1.0830   -1.0380    0.0000 C   0  0  0  0  0  0  0  0  0  0  0  0
    2.5590   -0.7720    0.0000 N   0  0  0  0  0  0  0  0  0  0  0  0
    3.2690   -2.0930    0.0000 C   0  0  0  0  0  0  0  0  0  0  0  0
    2.2310   -3.1760    0.0000 C   0  0  0  0  0  0  0  0  0  0  0  0
    0.8800   -2.5240    0.0000 N   0  0  0  0  0  0  0  0  0  0  0  0
   -0.4420   -3.2330    0.0000 C   0  0  0  0  0  0  0  0  0  0  0  0
   -1.7170   -2.4430    0.0000 C   0  0  0  0  0  0  0  0  0  0  0  0
   -3.0390   -3.1530    0.0000 C   0  0  0  0  0  0  0  0  0  0  0  0
   -4.3140   -2.3630    0.0000 N   0  0  0  0  0  0  0  0  0  0  0  0
   -4.2670   -0.8630    0.0000 C   0  0  0  0  0  0  0  0  0  0  0  0
   -5.5420   -0.0730    0.0000 C   0  0  0  0  0  0  0  0  0  0  0  0
   -6.8640   -0.7830    0.0000 N   0  0  0  0  0  0  0  0  0  0  0  0
   -6.9110   -2.2820    0.0000 C   0  0  0  0  0  0  0  0  0  0  0  0
   -5.6350   -3.0720    0.0000 C   0  0  0  0  0  0  0  0  0  0  0  0
   -8.1390    0.0070    0.0000 C   0  0  0  0  0  0  0  0  0  0  0  0
   -8.0920    1.5070    0.0000 C   0  0  0  0  0  0  0  0  0  0  0  0
   -6.7710    2.2160    0.0000 C   0  0  0  0  0  0  0  0  0  0  0  0
   -6.7240    3.7150    0.0000 C   0  0  0  0  0  0  0  0  0  0  0  0
   -7.9990    4.5050    0.0000 C   0  0  0  0  0  0  0  0  0  0  0  0
   -9.3210    3.7960    0.0000 C   0  0  0  0  0  0  0  0  0  0  0  0
   -9.3680    2.2970    0.0000 C   0  0  0  0  0  0  0  0  0  0  0  0
   -9.4610   -0.7020    0.0000 C   0  0  0  0  0  0  0  0  0  0  0  0
  -10.7360    0.0880    0.0000 C   0  0  0  0  0  0  0  0  0  0  0  0
  -12.0580   -0.6210    0.0000 C   0  0  0  0  0  0  0  0  0  0  0  0
  -12.1040   -2.1210    0.0000 C   0  0  0  0  0  0  0  0  0  0  0  0
  -10.8290   -2.9110    0.0000 C   0  0  0  0  0  0  0  0  0  0  0  0
   -9.5070   -2.2010    0.0000 C   0  0  0  0  0  0  0  0  0  0  0  0
    2.6500   -4.6170    0.0000 C   0  0  0  0  0  0  0  0  0  0  0  0
    4.1060   -4.9740    0.0000 C   0  0  0  0  0  0  0  0  0  0  0  0
    5.1440   -3.8910    0.0000 C   0  0  0  0  0  0  0  0  0  0  0  0
    4.7250   -2.4510    0.0000 C   0  0  0  0  0  0  0  0  0  0  0  0
  1  2  2  0  0  0  0
  2  3  1  0  0  0  0
  2  6  1  0  0  0  0
  3  4  1  0  0  0  0
  4  5  1  0  0  0  0
  4 32  2  0  0  0  0
  5  6  1  0  0  0  0
  5 29  2  0  0  0  0
  6  7  1  0  0  0  0
  7  8  1  0  0  0  0
  8  9  1  0  0  0  0
  9 10  1  0  0  0  0
 10 11  1  0  0  0  0
 10 15  1  0  0  0  0
 11 12  1  0  0  0  0
 12 13  1  0  0  0  0
 13 14  1  0  0  0  0
 13 16  1  0  0  0  0
 14 15  1  0  0  0  0
 16 17  1  0  0  0  0
 16 23  1  0  0  0  0
 17 18  1  0  0  0  0
 17 22  2  0  0  0  0
 18 19  2  0  0  0  0
 19 20  1  0  0  0  0
 20 21  2  0  0  0  0
 21 22  1  0  0  0  0
 23 24  1  0  0  0  0
 23 28  2  0  0  0  0
 24 25  2  0  0  0  0
 25 26  1  0  0  0  0
 26 27  2  0  0  0  0
 27 28  1  0  0  0  0
 29 30  1  0  0  0  0
 30 31  2  0  0  0  0
 31 32  1  0  0  0  0
M  END
>  <Index>
1680

>  <ID>
HT1555

>  <class>
1

>  <apol>
72.725792

>  <ast_fraglike>
0

>  <ast_fraglike_ext>
0

>  <ast_violation>
2

>  <ast_violation_ext>
3

>  <a_acc>
3

>  <a_acid>
0

>  <a_aro>
18

>  <a_base>
0

>  <a_count>
62

>  <a_don>
1

>  <a_donacc>
4

>  <a_heavy>
32

>  <a_hyd>
26

>  <a_IC>
85.571487

>  <a_ICM>
1.3801854

>  <a_nB>
0

>  <a_nBr>
0

>  <a_nC>
27

>  <a_nCl>
0

>  <a_nF>
0

>  <a_nH>
30

>  <a_nI>
0

>  <a_nN>
4

>  <a_nO>
1

>  <a_nP>
0

>  <a_nS>
0

>  <balabanJ>
1.0880172

>  <BCUT_PEOE_0>
-2.7944667

>  <BCUT_PEOE_1>
-0.61229277

>  <BCUT_PEOE_2>
0.66103727

>  <BCUT_PEOE_3>
2.6951728

>  <BCUT_SLOGP_0>
-2.8896086

>  <BCUT_SLOGP_1>
-0.50223339

>  <BCUT_SLOGP_2>
0.77744496

>  <BCUT_SLOGP_3>
2.6440499

>  <BCUT_SMR_0>
-2.508836

>  <BCUT_SMR_1>
-0.46817285

>  <BCUT_SMR_2>
0.81296504

>  <BCUT_SMR_3>
2.9743128

>  <bpol>
40.35421

>  <b_1rotN>
7

>  <b_1rotR>
0.19444445

>  <b_ar>
18

>  <b_count>
66

>  <b_double>
1

>  <b_heavy>
36

>  <b_max1len>
4

>  <b_rotN>
7

>  <b_rotR>
0.19444445

>  <b_single>
47

>  <b_triple>
0

>  <chi0>
21.752502

>  <chi0v>
18.35989

>  <chi0v_C>
16.110001

>  <chi0_C>
18.313345

>  <chi1>
15.792827

>  <chi1v>
11.532971

>  <chi1v_C>
8.2260675

>  <chi1_C>
10.94949

>  <chiral>
0

>  <chiral_u>
0

>  <density>
0.68572503

>  <diameter>
16

>  <FCharge>
0

>  <GCUT_PEOE_0>
-0.85572183

>  <GCUT_PEOE_1>
-0.38958189

>  <GCUT_PEOE_2>
0.073732272

>  <GCUT_PEOE_3>
2.8982041

>  <GCUT_SLOGP_0>
-1.0385562

>  <GCUT_SLOGP_1>
-0.27773827

>  <GCUT_SLOGP_2>
0.15900841

>  <GCUT_SLOGP_3>
2.9425838

>  <GCUT_SMR_0>
-0.51906091

>  <GCUT_SMR_1>
-0.20508878

>  <GCUT_SMR_2>
0.18382868

>  <GCUT_SMR_3>
3.1654263

>  <Kier1>
23.728395

>  <Kier2>
11.620158

>  <Kier3>
5.8142123

>  <KierA1>
17.580397

>  <KierA2>
8.5201387

>  <KierA3>
4.2318316

>  <KierFlex>
4.6808567

>  <lip_acc>
5

>  <lip_don>
1

>  <lip_druglike>
1

>  <lip_violation>
0

>  <logP(o/w)>
4.263

>  <logS>
-5.1827502

>  <mr>
12.836567

>  <mutagenic>
0

>  <nmol>
1

>  <opr_brigid>
28

>  <opr_leadlike>
0

>  <opr_nring>
5

>  <opr_nrot>
9

>  <opr_violation>
2

>  <PC+>
0

>  <PC->
0

>  <PEOE_PC+>
2.2952344

>  <PEOE_PC->
-2.2952344

>  <PEOE_RPC+>
0.14272004

>  <PEOE_RPC->
0.13329911

>  <PEOE_VSA+0>
138.86935

>  <PEOE_VSA+1>
80.525856

>  <PEOE_VSA+2>
0

>  <PEOE_VSA+3>
8.6190128

>  <PEOE_VSA+4>
0

>  <PEOE_VSA+5>
0

>  <PEOE_VSA+6>
17.440542

>  <PEOE_VSA-0>
37.628201

>  <PEOE_VSA-1>
147.05885

>  <PEOE_VSA-2>
0

>  <PEOE_VSA-3>
0

>  <PEOE_VSA-4>
13.566921

>  <PEOE_VSA-5>
0

>  <PEOE_VSA-6>
0.13689101

>  <PEOE_VSA_FHYD>
0.92983067

>  <PEOE_VSA_FNEG>
0.44698167

>  <PEOE_VSA_FPNEG>
0.030875176

>  <PEOE_VSA_FPOL>
0.070169337

>  <PEOE_VSA_FPOS>
0.55301833

>  <PEOE_VSA_FPPOS>
0.039294165

>  <PEOE_VSA_HYD>
412.70126

>  <PEOE_VSA_NEG>
198.39085

>  <PEOE_VSA_PNEG>
13.703812

>  <PEOE_VSA_POL>
31.144354

>  <PEOE_VSA_POS>
245.45476

>  <PEOE_VSA_PPOS>
17.440542

>  <petitjean>
0.5

>  <petitjeanSC>
1

>  <Q_PC+>
0

>  <Q_PC->
0

>  <Q_RPC+>
0

>  <Q_RPC->
0

>  <Q_VSA_FHYD>
1

>  <Q_VSA_FNEG>
0

>  <Q_VSA_FPNEG>
0

>  <Q_VSA_FPOL>
0

>  <Q_VSA_FPOS>
1

>  <Q_VSA_FPPOS>
0

>  <Q_VSA_HYD>
443.84561

>  <Q_VSA_NEG>
0

>  <Q_VSA_PNEG>
0

>  <Q_VSA_POL>
0

>  <Q_VSA_POS>
443.84561

>  <Q_VSA_PPOS>
0

>  <radius>
8

>  <reactive>
0

>  <rings>
5

>  <RPC+>
0

>  <RPC->
0

>  <rsynth>
1

>  <SlogP>
4.9313002

>  <SlogP_VSA0>
3.1243138

>  <SlogP_VSA1>
29.089334

>  <SlogP_VSA2>
0

>  <SlogP_VSA3>
110.63747

>  <SlogP_VSA4>
6.37115

>  <SlogP_VSA5>
0

>  <SlogP_VSA6>
0

>  <SlogP_VSA7>
247.00458

>  <SlogP_VSA8>
22.850374

>  <SlogP_VSA9>
29.375711

>  <SMR>
13.02747

>  <SMR_VSA0>
23.862217

>  <SMR_VSA1>
6.2486277

>  <SMR_VSA2>
3.1243138

>  <SMR_VSA3>
10.353119

>  <SMR_VSA4>
23.524246

>  <SMR_VSA5>
265.87299

>  <SMR_VSA6>
115.46742

>  <SMR_VSA7>
0

>  <TPSA>
38.82

>  <VAdjEq>
0.36708876

>  <VAdjMa>
6.1699252

>  <VDistEq>
3.8269854

>  <VDistMa>
9.6798925

>  <vdw_area>
443.84561

>  <vdw_vol>
622.06274

>  <vsa_acc>
13.566921

>  <vsa_acid>
0

>  <vsa_base>
0

>  <vsa_don>
5.6825762

>  <vsa_hyd>
383.44019

>  <vsa_other>
17.440542

>  <vsa_pol>
19.249496

>  <Weight>
426.564

>  <weinerPath>
3335

>  <weinerPol>
50

>  <zagreb>
170

$$$$