Fc1cc2onc(c2cc1)C1CCN(CC1)CCC=1C(=O)N2C(=NC=1C)CCCC2
  MOE2013           2D

 30 34  0  0  0  0  0  0  0  0999 V2000
    0.0000    0.0000    0.0000 F   0  0  0  0  0  0  0  0  0  0  0  0
   -1.3660    0.6200    0.0000 C   0  0  0  0  0  0  0  0  0  0  0  0
   -1.5120    2.1130    0.0000 C   0  0  0  0  0  0  0  0  0  0  0  0
   -2.8780    2.7320    0.0000 C   0  0  0  0  0  0  0  0  0  0  0  0
   -3.3320    4.1620    0.0000 O   0  0  0  0  0  0  0  0  0  0  0  0
   -4.8310    4.1730    0.0000 N   0  0  0  0  0  0  0  0  0  0  0  0
   -5.3050    2.7500    0.0000 C   0  0  0  0  0  0  0  0  0  0  0  0
   -4.0980    1.8590    0.0000 C   0  0  0  0  0  0  0  0  0  0  0  0
   -3.9520    0.3670    0.0000 C   0  0  0  0  0  0  0  0  0  0  0  0
   -2.5860   -0.2530    0.0000 C   0  0  0  0  0  0  0  0  0  0  0  0
   -6.7350    2.2960    0.0000 C   0  0  0  0  0  0  0  0  0  0  0  0
   -7.0570    0.8310    0.0000 C   0  0  0  0  0  0  0  0  0  0  0  0
   -8.4870    0.3780    0.0000 C   0  0  0  0  0  0  0  0  0  0  0  0
   -9.5950    1.3890    0.0000 N   0  0  0  0  0  0  0  0  0  0  0  0
   -9.2720    2.8540    0.0000 C   0  0  0  0  0  0  0  0  0  0  0  0
   -7.8430    3.3080    0.0000 C   0  0  0  0  0  0  0  0  0  0  0  0
  -11.0240    0.9360    0.0000 C   0  0  0  0  0  0  0  0  0  0  0  0
  -12.1320    1.9480    0.0000 C   0  0  0  0  0  0  0  0  0  0  0  0
  -13.5620    1.4940    0.0000 C   0  0  0  0  0  0  0  0  0  0  0  0
  -14.6690    2.5060    0.0000 C   0  0  0  0  0  0  0  0  0  0  0  0
  -14.3470    3.9710    0.0000 O   0  0  0  0  0  0  0  0  0  0  0  0
  -16.0990    2.0520    0.0000 N   0  0  0  0  0  0  0  0  0  0  0  0
  -16.4220    0.5870    0.0000 C   0  0  0  0  0  0  0  0  0  0  0  0
  -15.3140   -0.4240    0.0000 N   0  0  0  0  0  0  0  0  0  0  0  0
  -13.8840    0.0290    0.0000 C   0  0  0  0  0  0  0  0  0  0  0  0
  -12.7770   -0.9820    0.0000 C   0  0  0  0  0  0  0  0  0  0  0  0
  -17.8510    0.1340    0.0000 C   0  0  0  0  0  0  0  0  0  0  0  0
  -18.9590    1.1460    0.0000 C   0  0  0  0  0  0  0  0  0  0  0  0
  -18.6370    2.6110    0.0000 C   0  0  0  0  0  0  0  0  0  0  0  0
  -17.2070    3.0640    0.0000 C   0  0  0  0  0  0  0  0  0  0  0  0
  1  2  1  0  0  0  0
  2  3  1  0  0  0  0
  2 10  2  0  0  0  0
  3  4  2  0  0  0  0
  4  5  1  0  0  0  0
  4  8  1  0  0  0  0
  5  6  1  0  0  0  0
  6  7  2  0  0  0  0
  7  8  1  0  0  0  0
  7 11  1  0  0  0  0
  8  9  2  0  0  0  0
  9 10  1  0  0  0  0
 11 12  1  0  0  0  0
 11 16  1  0  0  0  0
 12 13  1  0  0  0  0
 13 14  1  0  0  0  0
 14 15  1  0  0  0  0
 14 17  1  0  0  0  0
 15 16  1  0  0  0  0
 17 18  1  0  0  0  0
 18 19  1  0  0  0  0
 19 20  1  0  0  0  0
 19 25  2  0  0  0  0
 20 21  2  0  0  0  0
 20 22  1  0  0  0  0
 22 23  1  0  0  0  0
 22 30  1  0  0  0  0
 23 24  2  0  0  0  0
 23 27  1  0  0  0  0
 24 25  1  0  0  0  0
 25 26  1  0  0  0  0
 27 28  1  0  0  0  0
 28 29  1  0  0  0  0
 29 30  1  0  0  0  0
M  END
>  <Index>
1715

>  <ID>
HT1831

>  <class>
1

>  <apol>
65.044411

>  <ast_fraglike>
0

>  <ast_fraglike_ext>
0

>  <ast_violation>
3

>  <ast_violation_ext>
4

>  <a_acc>
4

>  <a_acid>
0

>  <a_aro>
9

>  <a_base>
0

>  <a_count>
57

>  <a_don>
0

>  <a_donacc>
4

>  <a_heavy>
30

>  <a_hyd>
21

>  <a_IC>
90.050842

>  <a_ICM>
1.5798393

>  <a_nB>
0

>  <a_nBr>
0

>  <a_nC>
23

>  <a_nCl>
0

>  <a_nF>
1

>  <a_nH>
27

>  <a_nI>
0

>  <a_nN>
4

>  <a_nO>
2

>  <a_nP>
0

>  <a_nS>
0

>  <balabanJ>
1.0860281

>  <BCUT_PEOE_0>
-2.784384

>  <BCUT_PEOE_1>
-0.57028472

>  <BCUT_PEOE_2>
0.55567503

>  <BCUT_PEOE_3>
2.7225466

>  <BCUT_SLOGP_0>
-2.7979002

>  <BCUT_SLOGP_1>
-0.45499358

>  <BCUT_SLOGP_2>
0.6145215

>  <BCUT_SLOGP_3>
2.7649739

>  <BCUT_SMR_0>
-2.5165627

>  <BCUT_SMR_1>
-0.3664746

>  <BCUT_SMR_2>
0.75792557

>  <BCUT_SMR_3>
2.9850593

>  <bpol>
38.873589

>  <b_1rotN>
4

>  <b_1rotR>
0.11764706

>  <b_ar>
10

>  <b_count>
61

>  <b_double>
3

>  <b_heavy>
34

>  <b_max1len>
3

>  <b_rotN>
4

>  <b_rotR>
0.11764706

>  <b_single>
48

>  <b_triple>
0

>  <chi0>
20.664562

>  <chi0v>
17.363785

>  <chi0v_C>
14.380469

>  <chi0_C>
15.38854

>  <chi1>
14.597357

>  <chi1v>
10.963062

>  <chi1v_C>
7.8003125

>  <chi1_C>
9.0100031

>  <chiral>
0

>  <chiral_u>
0

>  <density>
0.74466944

>  <diameter>
17

>  <FCharge>
0

>  <GCUT_PEOE_0>
-0.85671043

>  <GCUT_PEOE_1>
-0.42057166

>  <GCUT_PEOE_2>
-0.0077810748

>  <GCUT_PEOE_3>
2.8782761

>  <GCUT_SLOGP_0>
-0.96731454

>  <GCUT_SLOGP_1>
-0.30229867

>  <GCUT_SLOGP_2>
0.11505965

>  <GCUT_SLOGP_3>
2.9244335

>  <GCUT_SMR_0>
-0.52175909

>  <GCUT_SMR_1>
-0.19398676

>  <GCUT_SMR_2>
0.17997947

>  <GCUT_SMR_3>
3.1277974

>  <Kier1>
21.82526

>  <Kier2>
9.469388

>  <Kier3>
4.5778546

>  <KierA1>
17.332178

>  <KierA2>
7.4565153

>  <KierA3>
3.5831735

>  <KierFlex>
4.3079219

>  <lip_acc>
6

>  <lip_don>
0

>  <lip_druglike>
1

>  <lip_violation>
0

>  <logP(o/w)>
2.796

>  <logS>
-4.2877102

>  <mr>
11.336307

>  <mutagenic>
0

>  <nmol>
1

>  <opr_brigid>
27

>  <opr_leadlike>
1

>  <opr_nring>
5

>  <opr_nrot>
7

>  <opr_violation>
1

>  <PC+>
0

>  <PC->
0

>  <PEOE_PC+>
1.9910747

>  <PEOE_PC->
-1.9910747

>  <PEOE_RPC+>
0.1293276

>  <PEOE_RPC->
0.17794092

>  <PEOE_VSA+0>
160.82677

>  <PEOE_VSA+1>
19.495708

>  <PEOE_VSA+2>
20.211409

>  <PEOE_VSA+3>
8.458519

>  <PEOE_VSA+4>
0

>  <PEOE_VSA+5>
12.949531

>  <PEOE_VSA+6>
0

>  <PEOE_VSA-0>
113.1487

>  <PEOE_VSA-1>
10.885262

>  <PEOE_VSA-2>
0

>  <PEOE_VSA-3>
0

>  <PEOE_VSA-4>
17.591211

>  <PEOE_VSA-5>
13.566921

>  <PEOE_VSA-6>
5.9023595

>  <PEOE_VSA_FHYD>
0.86943793

>  <PEOE_VSA_FNEG>
0.42057219

>  <PEOE_VSA_FPNEG>
0.096754491

>  <PEOE_VSA_FPOL>
0.13056207

>  <PEOE_VSA_FPOS>
0.57942778

>  <PEOE_VSA_FPPOS>
0.033807576

>  <PEOE_VSA_HYD>
333.02637

>  <PEOE_VSA_NEG>
161.09445

>  <PEOE_VSA_PNEG>
37.060493

>  <PEOE_VSA_POL>
50.010021

>  <PEOE_VSA_POS>
221.94193

>  <PEOE_VSA_PPOS>
12.949531

>  <petitjean>
0.47058824

>  <petitjeanSC>
0.8888889

>  <Q_PC+>
0

>  <Q_PC->
0

>  <Q_RPC+>
0

>  <Q_RPC->
0

>  <Q_VSA_FHYD>
1

>  <Q_VSA_FNEG>
0

>  <Q_VSA_FPNEG>
0

>  <Q_VSA_FPOL>
0

>  <Q_VSA_FPOS>
1

>  <Q_VSA_FPPOS>
0

>  <Q_VSA_HYD>
383.03638

>  <Q_VSA_NEG>
0

>  <Q_VSA_PNEG>
0

>  <Q_VSA_POL>
0

>  <Q_VSA_POS>
383.03638

>  <Q_VSA_PPOS>
0

>  <radius>
9

>  <reactive>
0

>  <rings>
5

>  <RPC+>
0

>  <RPC->
0

>  <rsynth>
1

>  <SlogP>
4.2350001

>  <SlogP_VSA0>
0

>  <SlogP_VSA1>
33.431927

>  <SlogP_VSA2>
32.983234

>  <SlogP_VSA3>
73.758316

>  <SlogP_VSA4>
2.7567475

>  <SlogP_VSA5>
32.461971

>  <SlogP_VSA6>
4.4107962

>  <SlogP_VSA7>
60.338726

>  <SlogP_VSA8>
113.21043

>  <SlogP_VSA9>
48.286129

>  <SMR>
11.2698

>  <SMR_VSA0>
33.596336

>  <SMR_VSA1>
57.590866

>  <SMR_VSA2>
9.1210184

>  <SMR_VSA3>
13.109866

>  <SMR_VSA4>
7.4091749

>  <SMR_VSA5>
166.13998

>  <SMR_VSA6>
81.345016

>  <SMR_VSA7>
33.326015

>  <TPSA>
61.939999

>  <VAdjEq>
0.38632196

>  <VAdjMa>
6.0874629

>  <VDistEq>
3.8167973

>  <VDistMa>
9.4759521

>  <vdw_area>
383.03638

>  <vdw_vol>
551.24188

>  <vsa_acc>
30.134758

>  <vsa_acid>
0

>  <vsa_base>
0

>  <vsa_don>
0

>  <vsa_hyd>
293.83713

>  <vsa_other>
38.500973

>  <vsa_pol>
30.134758

>  <Weight>
410.49298

>  <weinerPath>
2793

>  <weinerPol>
51

>  <zagreb>
166

$$$$