O=C1NC(=O)CCC1N1C(=O)c2c(cccc2)C1=O
  MOE2013           2D

 19 21  0  0  1  0  0  0  0  0999 V2000
    0.0000    0.0000    0.0000 O   0  0  0  0  0  0  0  0  0  0  0  0
   -0.0110   -1.5000    0.0000 C   0  0  0  0  0  0  0  0  0  0  0  0
    1.2820   -2.2600    0.0000 N   0  0  0  0  0  0  0  0  0  0  0  0
    1.2710   -3.7600    0.0000 C   0  0  0  0  0  0  0  0  0  0  0  0
    2.5640   -4.5190    0.0000 O   0  0  0  0  0  0  0  0  0  0  0  0
   -0.0340   -4.5000    0.0000 C   0  0  0  0  0  0  0  0  0  0  0  0
   -1.3270   -3.7400    0.0000 C   0  0  0  0  0  0  0  0  0  0  0  0
   -1.3160   -2.2400    0.0000 C   0  0  3  0  0  0  0  0  0  0  0  0
   -2.6090   -1.4800    0.0000 N   0  0  0  0  0  0  0  0  0  0  0  0
   -3.9840   -2.0800    0.0000 C   0  0  0  0  0  0  0  0  0  0  0  0
   -4.3070   -3.5450    0.0000 O   0  0  0  0  0  0  0  0  0  0  0  0
   -4.9790   -0.9580    0.0000 C   0  0  0  0  0  0  0  0  0  0  0  0
   -4.2200    0.3360    0.0000 C   0  0  0  0  0  0  0  0  0  0  0  0
   -4.9600    1.6400    0.0000 C   0  0  0  0  0  0  0  0  0  0  0  0
   -6.4600    1.6520    0.0000 C   0  0  0  0  0  0  0  0  0  0  0  0
   -7.2200    0.3580    0.0000 C   0  0  0  0  0  0  0  0  0  0  0  0
   -6.4790   -0.9460    0.0000 C   0  0  0  0  0  0  0  0  0  0  0  0
   -2.7550    0.0130    0.0000 C   0  0  0  0  0  0  0  0  0  0  0  0
   -1.6330    1.0080    0.0000 O   0  0  0  0  0  0  0  0  0  0  0  0
  1  2  2  0  0  0  0
  2  3  1  0  0  0  0
  2  8  1  0  0  0  0
  3  4  1  0  0  0  0
  4  5  2  0  0  0  0
  4  6  1  0  0  0  0
  6  7  1  0  0  0  0
  7  8  1  0  0  0  0
  8  9  1  0  0  0  0
  9 10  1  0  0  0  0
  9 18  1  0  0  0  0
 10 11  2  0  0  0  0
 10 12  1  0  0  0  0
 12 13  1  0  0  0  0
 12 17  2  0  0  0  0
 13 14  2  0  0  0  0
 13 18  1  0  0  0  0
 14 15  1  0  0  0  0
 15 16  2  0  0  0  0
 16 17  1  0  0  0  0
 18 19  2  0  0  0  0
M  END
>  <Index>
1739

>  <ID>
HT2032

>  <class>
1

>  <apol>
34.955929

>  <ast_fraglike>
0

>  <ast_fraglike_ext>
0

>  <ast_violation>
1

>  <ast_violation_ext>
1

>  <a_acc>
4

>  <a_acid>
0

>  <a_aro>
6

>  <a_base>
0

>  <a_count>
29

>  <a_don>
1

>  <a_donacc>
5

>  <a_heavy>
19

>  <a_hyd>
9

>  <a_IC>
49.55645

>  <a_ICM>
1.7088431

>  <a_nB>
0

>  <a_nBr>
0

>  <a_nC>
13

>  <a_nCl>
0

>  <a_nF>
0

>  <a_nH>
10

>  <a_nI>
0

>  <a_nN>
2

>  <a_nO>
4

>  <a_nP>
0

>  <a_nS>
0

>  <balabanJ>
1.771106

>  <BCUT_PEOE_0>
-2.5872607

>  <BCUT_PEOE_1>
-0.58569288

>  <BCUT_PEOE_2>
0.56424803

>  <BCUT_PEOE_3>
2.674722

>  <BCUT_SLOGP_0>
-2.7639561

>  <BCUT_SLOGP_1>
-0.57259613

>  <BCUT_SLOGP_2>
0.59189141

>  <BCUT_SLOGP_3>
2.5887368

>  <BCUT_SMR_0>
-2.3524947

>  <BCUT_SMR_1>
-0.39612481

>  <BCUT_SMR_2>
0.72965157

>  <BCUT_SMR_3>
2.9171107

>  <bpol>
17.40407

>  <b_1rotN>
1

>  <b_1rotR>
0.047619049

>  <b_ar>
6

>  <b_count>
31

>  <b_double>
4

>  <b_heavy>
21

>  <b_max1len>
2

>  <b_rotN>
1

>  <b_rotR>
0.047619049

>  <b_single>
21

>  <b_triple>
0

>  <chi0>
13.568549

>  <chi0v>
9.8811712

>  <chi0v_C>
7.3009648

>  <chi0_C>
8.2840929

>  <chi1>
9.0922241

>  <chi1v>
5.8997359

>  <chi1v_C>
3.8778272

>  <chi1_C>
4.9663267

>  <chiral>
1

>  <chiral_u>
1

>  <density>
0.830365

>  <diameter>
9

>  <FCharge>
0

>  <GCUT_PEOE_0>
-0.76919621

>  <GCUT_PEOE_1>
-0.49387941

>  <GCUT_PEOE_2>
0.062819786

>  <GCUT_PEOE_3>
2.5326152

>  <GCUT_SLOGP_0>
-1.1707928

>  <GCUT_SLOGP_1>
-0.39621431

>  <GCUT_SLOGP_2>
0.10390528

>  <GCUT_SLOGP_3>
2.474566

>  <GCUT_SMR_0>
-0.51118076

>  <GCUT_SMR_1>
-0.24518788

>  <GCUT_SMR_2>
0.19424941

>  <GCUT_SMR_3>
2.7889202

>  <Kier1>
13.959184

>  <Kier2>
5.4131112

>  <Kier3>
2.3801653

>  <KierA1>
9.2992849

>  <KierA2>
3.5162098

>  <KierA3>
1.5156988

>  <KierFlex>
1.7209599

>  <lip_acc>
6

>  <lip_don>
1

>  <lip_druglike>
1

>  <lip_violation>
0

>  <logP(o/w)>
0.34799999

>  <logS>
-2.7271399

>  <mr>
6.5591936

>  <mutagenic>
0

>  <nmol>
1

>  <opr_brigid>
16

>  <opr_leadlike>
1

>  <opr_nring>
3

>  <opr_nrot>
1

>  <opr_violation>
0

>  <PC+>
0

>  <PC->
0

>  <PEOE_PC+>
1.869122

>  <PEOE_PC->
-1.869122

>  <PEOE_RPC+>
0.14049929

>  <PEOE_RPC->
0.15800245

>  <PEOE_VSA+0>
25.762857

>  <PEOE_VSA+1>
25.744009

>  <PEOE_VSA+2>
3.1459606

>  <PEOE_VSA+3>
8.6190128

>  <PEOE_VSA+4>
12.949531

>  <PEOE_VSA+5>
38.848595

>  <PEOE_VSA+6>
0

>  <PEOE_VSA-0>
33.211121

>  <PEOE_VSA-1>
24.509808

>  <PEOE_VSA-2>
0

>  <PEOE_VSA-3>
0

>  <PEOE_VSA-4>
0

>  <PEOE_VSA-5>
54.404575

>  <PEOE_VSA-6>
0

>  <PEOE_VSA_FHYD>
0.5325492

>  <PEOE_VSA_FNEG>
0.49351999

>  <PEOE_VSA_FPNEG>
0.23946153

>  <PEOE_VSA_FPOL>
0.46745077

>  <PEOE_VSA_FPOS>
0.50648004

>  <PEOE_VSA_FPPOS>
0.22798924

>  <PEOE_VSA_HYD>
120.99277

>  <PEOE_VSA_NEG>
112.1255

>  <PEOE_VSA_PNEG>
54.404575

>  <PEOE_VSA_POL>
106.2027

>  <PEOE_VSA_POS>
115.06996

>  <PEOE_VSA_PPOS>
51.798122

>  <petitjean>
0.44444445

>  <petitjeanSC>
0.80000001

>  <Q_PC+>
0

>  <Q_PC->
0

>  <Q_RPC+>
0

>  <Q_RPC->
0

>  <Q_VSA_FHYD>
1

>  <Q_VSA_FNEG>
0

>  <Q_VSA_FPNEG>
0

>  <Q_VSA_FPOL>
0

>  <Q_VSA_FPOS>
1

>  <Q_VSA_FPPOS>
0

>  <Q_VSA_HYD>
227.19547

>  <Q_VSA_NEG>
0

>  <Q_VSA_PNEG>
0

>  <Q_VSA_POL>
0

>  <Q_VSA_POS>
227.19547

>  <Q_VSA_PPOS>
0

>  <radius>
5

>  <reactive>
0

>  <rings>
3

>  <RPC+>
0

>  <RPC->
0

>  <rsynth>
1

>  <SlogP>
0.087800004

>  <SlogP_VSA0>
18.01075

>  <SlogP_VSA1>
24.159449

>  <SlogP_VSA2>
51.706402

>  <SlogP_VSA3>
0

>  <SlogP_VSA4>
54.095581

>  <SlogP_VSA5>
0

>  <SlogP_VSA6>
0

>  <SlogP_VSA7>
70.572739

>  <SlogP_VSA8>
37.736813

>  <SlogP_VSA9>
0

>  <SMR>
6.3113699

>  <SMR_VSA0>
95.448868

>  <SMR_VSA1>
3.1243138

>  <SMR_VSA2>
18.01075

>  <SMR_VSA3>
10.353119

>  <SMR_VSA4>
0

>  <SMR_VSA5>
108.30955

>  <SMR_VSA6>
21.035135

>  <SMR_VSA7>
0

>  <TPSA>
83.550003

>  <VAdjEq>
0.51875818

>  <VAdjMa>
5.3923173

>  <VDistEq>
2.8902111

>  <VDistMa>
8.2214184

>  <vdw_area>
227.19547

>  <vdw_vol>
310.98734

>  <vsa_acc>
54.267685

>  <vsa_acid>
0

>  <vsa_base>
0

>  <vsa_don>
5.6825762

>  <vsa_hyd>
105.9676

>  <vsa_other>
51.798122

>  <vsa_pol>
59.95026

>  <Weight>
258.233

>  <weinerPath>
643

>  <weinerPol>
33

>  <zagreb>
104

$$$$