Clc1ccc(cc1)C1S(=O)(=O)CCC(=O)N1C
  MOE2013           2D

 17 18  0  0  1  0  0  0  0  0999 V2000
    0.0000    0.0000    0.0000 Cl  0  0  0  0  0  0  0  0  0  0  0  0
   -1.5000    0.0010    0.0000 C   0  0  0  0  0  0  0  0  0  0  0  0
   -2.2490    1.3000    0.0000 C   0  0  0  0  0  0  0  0  0  0  0  0
   -3.7490    1.3010    0.0000 C   0  0  0  0  0  0  0  0  0  0  0  0
   -4.5000    0.0020    0.0000 C   0  0  0  0  0  0  0  0  0  0  0  0
   -3.7510   -1.2970    0.0000 C   0  0  0  0  0  0  0  0  0  0  0  0
   -2.2510   -1.2980    0.0000 C   0  0  0  0  0  0  0  0  0  0  0  0
   -6.0000    0.0030    0.0000 C   0  0  3  0  0  0  0  0  0  0  0  0
   -6.7490    1.3020    0.0000 S   0  0  0  0  0  0  0  0  0  0  0  0
   -6.7490    2.8020    0.0000 O   0  0  0  0  0  0  0  0  0  0  0  0
   -5.4500    2.0520    0.0000 O   0  0  0  0  0  0  0  0  0  0  0  0
   -8.2490    1.3030    0.0000 C   0  0  0  0  0  0  0  0  0  0  0  0
   -9.0000    0.0040    0.0000 C   0  0  0  0  0  0  0  0  0  0  0  0
   -8.2510   -1.2950    0.0000 C   0  0  0  0  0  0  0  0  0  0  0  0
   -9.0010   -2.5940    0.0000 O   0  0  0  0  0  0  0  0  0  0  0  0
   -6.7510   -1.2960    0.0000 N   0  0  0  0  0  0  0  0  0  0  0  0
   -6.0010   -2.5950    0.0000 C   0  0  0  0  0  0  0  0  0  0  0  0
  1  2  1  0  0  0  0
  2  3  1  0  0  0  0
  2  7  2  0  0  0  0
  3  4  2  0  0  0  0
  4  5  1  0  0  0  0
  5  6  2  0  0  0  0
  5  8  1  0  0  0  0
  6  7  1  0  0  0  0
  8  9  1  0  0  0  0
  8 16  1  0  0  0  0
  9 10  2  0  0  0  0
  9 11  2  0  0  0  0
  9 12  1  0  0  0  0
 12 13  1  0  0  0  0
 13 14  1  0  0  0  0
 14 15  2  0  0  0  0
 14 16  1  0  0  0  0
 16 17  1  0  0  0  0
M  END
>  <Index>
1488

>  <ID>
HT0455

>  <class>
1

>  <apol>
35.947517

>  <ast_fraglike>
1

>  <ast_fraglike_ext>
1

>  <ast_violation>
0

>  <ast_violation_ext>
0

>  <a_acc>
3

>  <a_acid>
0

>  <a_aro>
6

>  <a_base>
0

>  <a_count>
29

>  <a_don>
0

>  <a_donacc>
3

>  <a_heavy>
17

>  <a_hyd>
11

>  <a_IC>
55.053265

>  <a_ICM>
1.8983884

>  <a_nB>
0

>  <a_nBr>
0

>  <a_nC>
11

>  <a_nCl>
1

>  <a_nF>
0

>  <a_nH>
12

>  <a_nI>
0

>  <a_nN>
1

>  <a_nO>
3

>  <a_nP>
0

>  <a_nS>
1

>  <balabanJ>
2.1043599

>  <BCUT_PEOE_0>
-2.6627474

>  <BCUT_PEOE_1>
-0.60901827

>  <BCUT_PEOE_2>
0.65052229

>  <BCUT_PEOE_3>
2.7428064

>  <BCUT_SLOGP_0>
-2.7376611

>  <BCUT_SLOGP_1>
-0.47001994

>  <BCUT_SLOGP_2>
0.71828032

>  <BCUT_SLOGP_3>
2.6724465

>  <BCUT_SMR_0>
-2.372607

>  <BCUT_SMR_1>
-0.4127517

>  <BCUT_SMR_2>
0.84360194

>  <BCUT_SMR_3>
3.0282357

>  <bpol>
22.952484

>  <b_1rotN>
1

>  <b_1rotR>
0.055555556

>  <b_ar>
6

>  <b_count>
30

>  <b_double>
1

>  <b_heavy>
18

>  <b_max1len>
2

>  <b_rotN>
1

>  <b_rotR>
0.055555556

>  <b_single>
23

>  <b_triple>
0

>  <chi0>
12.629392

>  <chi0v>
10.831562

>  <chi0v_C>
6.8009648

>  <chi0_C>
7.5520415

>  <chi1>
7.9155207

>  <chi1v>
7.2368178

>  <chi1v_C>
2.9635956

>  <chi1_C>
3.8745749

>  <chiral>
1

>  <chiral_u>
1

>  <density>
0.87949234

>  <diameter>
8

>  <FCharge>
0

>  <GCUT_PEOE_0>
-0.89416975

>  <GCUT_PEOE_1>
-0.39215446

>  <GCUT_PEOE_2>
0.029952994

>  <GCUT_PEOE_3>
2.5709338

>  <GCUT_SLOGP_0>
-0.93906313

>  <GCUT_SLOGP_1>
-0.36135694

>  <GCUT_SLOGP_2>
0.093558818

>  <GCUT_SLOGP_3>
2.5775311

>  <GCUT_SMR_0>
-0.50103736

>  <GCUT_SMR_1>
-0.1621895

>  <GCUT_SMR_2>
0.23268355

>  <GCUT_SMR_3>
2.8366299

>  <Kier1>
13.432098

>  <Kier2>
4.9382715

>  <Kier3>
2.7128029

>  <KierA1>
12.718886

>  <KierA2>
4.6592603

>  <KierA3>
2.5522223

>  <KierFlex>
3.4859178

>  <lip_acc>
4

>  <lip_don>
0

>  <lip_druglike>
1

>  <lip_violation>
0

>  <logP(o/w)>
1.0880001

>  <logS>
-2.1819699

>  <mr>
6.7191887

>  <mutagenic>
0

>  <nmol>
1

>  <opr_brigid>
12

>  <opr_leadlike>
1

>  <opr_nring>
2

>  <opr_nrot>
2

>  <opr_violation>
0

>  <PC+>
0

>  <PC->
0

>  <PEOE_PC+>
1.8784766

>  <PEOE_PC->
-1.8784766

>  <PEOE_RPC+>
0.14979434

>  <PEOE_RPC->
0.25383222

>  <PEOE_VSA+0>
49.085365

>  <PEOE_VSA+1>
19.270084

>  <PEOE_VSA+2>
17.232086

>  <PEOE_VSA+3>
14.94276

>  <PEOE_VSA+4>
12.949531

>  <PEOE_VSA+5>
5.1220222

>  <PEOE_VSA+6>
0

>  <PEOE_VSA-0>
49.019615

>  <PEOE_VSA-1>
29.581947

>  <PEOE_VSA-2>
6.5127993

>  <PEOE_VSA-3>
0

>  <PEOE_VSA-4>
0

>  <PEOE_VSA-5>
13.566921

>  <PEOE_VSA-6>
32.016521

>  <PEOE_VSA_FHYD>
0.74466473

>  <PEOE_VSA_FNEG>
0.52425987

>  <PEOE_VSA_FPNEG>
0.18284599

>  <PEOE_VSA_FPOL>
0.25533527

>  <PEOE_VSA_FPOS>
0.47574013

>  <PEOE_VSA_FPPOS>
0.072489284

>  <PEOE_VSA_HYD>
185.64465

>  <PEOE_VSA_NEG>
130.6978

>  <PEOE_VSA_PNEG>
45.583443

>  <PEOE_VSA_POL>
63.654999

>  <PEOE_VSA_POS>
118.60184

>  <PEOE_VSA_PPOS>
18.071552

>  <petitjean>
0.5

>  <petitjeanSC>
1

>  <Q_PC+>
0

>  <Q_PC->
0

>  <Q_RPC+>
0

>  <Q_RPC->
0

>  <Q_VSA_FHYD>
1

>  <Q_VSA_FNEG>
0

>  <Q_VSA_FPNEG>
0

>  <Q_VSA_FPOL>
0

>  <Q_VSA_FPOS>
1

>  <Q_VSA_FPPOS>
0

>  <Q_VSA_HYD>
249.29965

>  <Q_VSA_NEG>
0

>  <Q_VSA_PNEG>
0

>  <Q_VSA_POL>
0

>  <Q_VSA_POS>
249.29965

>  <Q_VSA_PPOS>
0

>  <radius>
4

>  <reactive>
0

>  <rings>
2

>  <RPC+>
0

>  <RPC->
0

>  <rsynth>
1

>  <SlogP>
1.711

>  <SlogP_VSA0>
0

>  <SlogP_VSA1>
56.554787

>  <SlogP_VSA2>
30.741484

>  <SlogP_VSA3>
17.233564

>  <SlogP_VSA4>
3.185575

>  <SlogP_VSA5>
32.897186

>  <SlogP_VSA6>
3.5006065

>  <SlogP_VSA7>
70.572739

>  <SlogP_VSA8>
21.215532

>  <SlogP_VSA9>
39.148643

>  <SMR>
6.54778

>  <SMR_VSA0>
72.033905

>  <SMR_VSA1>
3.1243138

>  <SMR_VSA2>
0

>  <SMR_VSA3>
9.033309

>  <SMR_VSA4>
0

>  <SMR_VSA5>
89.441139

>  <SMR_VSA6>
22.492348

>  <SMR_VSA7>
78.925102

>  <TPSA>
54.450001

>  <VAdjEq>
0.54234898

>  <VAdjMa>
5.1699252

>  <VDistEq>
2.7602458

>  <VDistMa>
7.9011011

>  <vdw_area>
249.29965

>  <vdw_vol>
311.24774

>  <vsa_acc>
45.583443

>  <vsa_acid>
0

>  <vsa_base>
0

>  <vsa_don>
0

>  <vsa_hyd>
175.71234

>  <vsa_other>
19.46233

>  <vsa_pol>
45.583443

>  <Weight>
273.73999

>  <weinerPath>
478

>  <weinerPol>
28

>  <zagreb>
90

$$$$