S(=O)(=O)(N)c1cc2S(=O)(=O)NC(Nc2cc1C(F)(F)F)CCCCC
  MOE2013           2D

 25 26  0  0  1  0  0  0  0  0999 V2000
    0.0000    0.0000    0.0000 S   0  0  0  0  0  0  0  0  0  0  0  0
   -0.9680   -1.1460    0.0000 O   0  0  0  0  0  0  0  0  0  0  0  0
    0.9680    1.1460    0.0000 O   0  0  0  0  0  0  0  0  0  0  0  0
   -1.1460    0.9680    0.0000 N   0  0  0  0  0  0  0  0  0  0  0  0
    1.1460   -0.9680    0.0000 C   0  0  0  0  0  0  0  0  0  0  0  0
    2.2980   -0.0080    0.0000 C   0  0  0  0  0  0  0  0  0  0  0  0
    3.7060   -0.5260    0.0000 C   0  0  0  0  0  0  0  0  0  0  0  0
    4.8580    0.4350    0.0000 S   0  0  0  0  0  0  0  0  0  0  0  0
    5.3760    1.8430    0.0000 O   0  0  0  0  0  0  0  0  0  0  0  0
    3.8980    1.5870    0.0000 O   0  0  0  0  0  0  0  0  0  0  0  0
    6.2660   -0.0830    0.0000 N   0  0  0  0  0  0  0  0  0  0  0  0
    6.5220   -1.5610    0.0000 C   0  0  3  0  0  0  0  0  0  0  0  0
    5.3690   -2.5210    0.0000 N   0  0  0  0  0  0  0  0  0  0  0  0
    3.9610   -2.0040    0.0000 C   0  0  0  0  0  0  0  0  0  0  0  0
    2.8090   -2.9640    0.0000 C   0  0  0  0  0  0  0  0  0  0  0  0
    1.4010   -2.4460    0.0000 C   0  0  0  0  0  0  0  0  0  0  0  0
    0.6470   -3.7430    0.0000 C   0  0  0  0  0  0  0  0  0  0  0  0
   -0.6500   -2.9880    0.0000 F   0  0  0  0  0  0  0  0  0  0  0  0
    1.9430   -4.4970    0.0000 F   0  0  0  0  0  0  0  0  0  0  0  0
   -0.1070   -5.0390    0.0000 F   0  0  0  0  0  0  0  0  0  0  0  0
    7.9290   -2.0790    0.0000 C   0  0  0  0  0  0  0  0  0  0  0  0
    9.0820   -1.1190    0.0000 C   0  0  0  0  0  0  0  0  0  0  0  0
   10.4890   -1.6360    0.0000 C   0  0  0  0  0  0  0  0  0  0  0  0
   11.6420   -0.6760    0.0000 C   0  0  0  0  0  0  0  0  0  0  0  0
   13.0500   -1.1940    0.0000 C   0  0  0  0  0  0  0  0  0  0  0  0
  1  2  2  0  0  0  0
  1  3  2  0  0  0  0
  1  4  1  0  0  0  0
  1  5  1  0  0  0  0
  5  6  1  0  0  0  0
  5 16  2  0  0  0  0
  6  7  2  0  0  0  0
  7  8  1  0  0  0  0
  7 14  1  0  0  0  0
  8  9  2  0  0  0  0
  8 10  2  0  0  0  0
  8 11  1  0  0  0  0
 11 12  1  0  0  0  0
 12 13  1  0  0  0  0
 12 21  1  0  0  0  0
 13 14  1  0  0  0  0
 14 15  2  0  0  0  0
 15 16  1  0  0  0  0
 16 17  1  0  0  0  0
 17 18  1  0  0  0  0
 17 19  1  0  0  0  0
 17 20  1  0  0  0  0
 21 22  1  0  0  0  0
 22 23  1  0  0  0  0
 23 24  1  0  0  0  0
 24 25  1  0  0  0  0
M  END
>  <Index>
1686

>  <ID>
HT1613

>  <class>
1

>  <apol>
48.861275

>  <ast_fraglike>
0

>  <ast_fraglike_ext>
0

>  <ast_violation>
2

>  <ast_violation_ext>
4

>  <a_acc>
4

>  <a_acid>
0

>  <a_aro>
6

>  <a_base>
0

>  <a_count>
43

>  <a_don>
3

>  <a_donacc>
7

>  <a_heavy>
25

>  <a_hyd>
15

>  <a_IC>
90.655243

>  <a_ICM>
2.1082616

>  <a_nB>
0

>  <a_nBr>
0

>  <a_nC>
13

>  <a_nCl>
0

>  <a_nF>
3

>  <a_nH>
18

>  <a_nI>
0

>  <a_nN>
3

>  <a_nO>
4

>  <a_nP>
0

>  <a_nS>
2

>  <balabanJ>
2.194886

>  <BCUT_PEOE_0>
-2.7147865

>  <BCUT_PEOE_1>
-0.4056516

>  <BCUT_PEOE_2>
0.4842667

>  <BCUT_PEOE_3>
2.6552458

>  <BCUT_SLOGP_0>
-2.7904043

>  <BCUT_SLOGP_1>
-0.36492643

>  <BCUT_SLOGP_2>
0.5513773

>  <BCUT_SLOGP_3>
2.7467055

>  <BCUT_SMR_0>
-2.4342246

>  <BCUT_SMR_1>
-0.25381684

>  <BCUT_SMR_2>
0.61603785

>  <BCUT_SMR_3>
2.9527781

>  <bpol>
36.898727

>  <b_1rotN>
5

>  <b_1rotR>
0.1923077

>  <b_ar>
6

>  <b_count>
44

>  <b_double>
0

>  <b_heavy>
26

>  <b_max1len>
7

>  <b_rotN>
6

>  <b_rotR>
0.23076923

>  <b_single>
38

>  <b_triple>
0

>  <chi0>
19.043606

>  <chi0v>
14.854204

>  <chi0v_C>
8.0604782

>  <chi0_C>
8.6293917

>  <chi1>
11.359339

>  <chi1v>
10.458576

>  <chi1v_C>
4.5200558

>  <chi1_C>
5.2036901

>  <chiral>
1

>  <chiral_u>
1

>  <density>
0.9558903

>  <diameter>
12

>  <FCharge>
0

>  <GCUT_PEOE_0>
-0.88875872

>  <GCUT_PEOE_1>
-0.37042594

>  <GCUT_PEOE_2>
-0.0028964535

>  <GCUT_PEOE_3>
2.7318769

>  <GCUT_SLOGP_0>
-1.3483032

>  <GCUT_SLOGP_1>
-0.35870889

>  <GCUT_SLOGP_2>
0.19804871

>  <GCUT_SLOGP_3>
2.760287

>  <GCUT_SMR_0>
-0.53123236

>  <GCUT_SMR_1>
-0.175152

>  <GCUT_SMR_2>
0.12310926

>  <GCUT_SMR_3>
2.9807703

>  <Kier1>
21.301775

>  <Kier2>
7.5526471

>  <Kier3>
5.0416665

>  <KierA1>
20.971233

>  <KierA2>
7.4304528

>  <KierA3>
4.9576044

>  <KierFlex>
6.2330303

>  <lip_acc>
7

>  <lip_don>
4

>  <lip_druglike>
1

>  <lip_violation>
0

>  <logP(o/w)>
2.2077601

>  <logS>
-4.4066901

>  <mr>
8.706501

>  <mutagenic>
0

>  <nmol>
1

>  <opr_brigid>
11

>  <opr_leadlike>
1

>  <opr_nring>
2

>  <opr_nrot>
5

>  <opr_violation>
0

>  <PC+>
0

>  <PC->
0

>  <PEOE_PC+>
2.2284875

>  <PEOE_PC->
-2.2284875

>  <PEOE_RPC+>
0.19145294

>  <PEOE_RPC->
0.17195301

>  <PEOE_VSA+0>
92.864792

>  <PEOE_VSA+1>
17.149784

>  <PEOE_VSA+2>
22.360512

>  <PEOE_VSA+3>
2.2085397

>  <PEOE_VSA+4>
0

>  <PEOE_VSA+5>
0

>  <PEOE_VSA+6>
17.414705

>  <PEOE_VSA-0>
20.873917

>  <PEOE_VSA-1>
53.552929

>  <PEOE_VSA-2>
34.546043

>  <PEOE_VSA-3>
44.769657

>  <PEOE_VSA-4>
32.016521

>  <PEOE_VSA-5>
0

>  <PEOE_VSA-6>
0.13689101

>  <PEOE_VSA_FHYD>
0.8533029

>  <PEOE_VSA_FNEG>
0.55016011

>  <PEOE_VSA_FPNEG>
0.095158204

>  <PEOE_VSA_FPOL>
0.14669712

>  <PEOE_VSA_FPOS>
0.44983989

>  <PEOE_VSA_FPPOS>
0.051538914

>  <PEOE_VSA_HYD>
288.32617

>  <PEOE_VSA_NEG>
185.89597

>  <PEOE_VSA_PNEG>
32.153416

>  <PEOE_VSA_POL>
49.568119

>  <PEOE_VSA_POS>
151.99834

>  <PEOE_VSA_PPOS>
17.414705

>  <petitjean>
0.5

>  <petitjeanSC>
1

>  <Q_PC+>
0

>  <Q_PC->
0

>  <Q_RPC+>
0

>  <Q_RPC->
0

>  <Q_VSA_FHYD>
1

>  <Q_VSA_FNEG>
0

>  <Q_VSA_FPNEG>
0

>  <Q_VSA_FPOL>
0

>  <Q_VSA_FPOS>
1

>  <Q_VSA_FPPOS>
0

>  <Q_VSA_HYD>
337.89429

>  <Q_VSA_NEG>
0

>  <Q_VSA_PNEG>
0

>  <Q_VSA_POL>
0

>  <Q_VSA_POS>
337.89429

>  <Q_VSA_PPOS>
0

>  <radius>
6

>  <reactive>
0

>  <rings>
2

>  <RPC+>
0

>  <RPC->
0

>  <rsynth>
1

>  <SlogP>
2.2744999

>  <SlogP_VSA0>
47.69643

>  <SlogP_VSA1>
114.35413

>  <SlogP_VSA2>
16.834627

>  <SlogP_VSA3>
0

>  <SlogP_VSA4>
3.185575

>  <SlogP_VSA5>
3.1014678

>  <SlogP_VSA6>
7.7595162

>  <SlogP_VSA7>
35.286369

>  <SlogP_VSA8>
75.473625

>  <SlogP_VSA9>
80.963104

>  <SMR>
8.4808397

>  <SMR_VSA0>
96.343376

>  <SMR_VSA1>
44.880341

>  <SMR_VSA2>
27.265982

>  <SMR_VSA3>
6.7387161

>  <SMR_VSA4>
52.058933

>  <SMR_VSA5>
110.75999

>  <SMR_VSA6>
0

>  <SMR_VSA7>
46.607502

>  <TPSA>
118.36

>  <VAdjEq>
0.41335541

>  <VAdjMa>
5.7004399

>  <VDistEq>
3.2960896

>  <VDistMa>
9.0093241

>  <vdw_area>
337.89429

>  <vdw_vol>
419.95404

>  <vsa_acc>
64.033043

>  <vsa_acid>
0

>  <vsa_base>
0

>  <vsa_don>
33.892902

>  <vsa_hyd>
186.30812

>  <vsa_other>
31.401779

>  <vsa_pol>
97.925949

>  <Weight>
401.42999

>  <weinerPath>
1428

>  <weinerPol>
42

>  <zagreb>
134

$$$$