Clc1cc2NC(N(S(=O)(=O)c2cc1S(=O)(=O)N)C)CCl
  MOE2013           2D

 20 21  0  0  1  0  0  0  0  0999 V2000
    0.0000    0.0000    0.0000 Cl  0  0  0  0  0  0  0  0  0  0  0  0
   -1.1310   -0.9850    0.0000 C   0  0  0  0  0  0  0  0  0  0  0  0
   -2.5500   -0.4980    0.0000 C   0  0  0  0  0  0  0  0  0  0  0  0
   -3.6810   -1.4840    0.0000 C   0  0  0  0  0  0  0  0  0  0  0  0
   -5.1000   -0.9970    0.0000 N   0  0  0  0  0  0  0  0  0  0  0  0
   -6.2310   -1.9820    0.0000 C   0  0  3  0  0  0  0  0  0  0  0  0
   -5.9430   -3.4540    0.0000 N   0  0  3  0  0  0  0  0  0  0  0  0
   -4.5240   -3.9410    0.0000 S   0  0  0  0  0  0  0  0  0  0  0  0
   -3.5390   -5.0720    0.0000 O   0  0  0  0  0  0  0  0  0  0  0  0
   -5.0110   -5.3600    0.0000 O   0  0  0  0  0  0  0  0  0  0  0  0
   -3.3930   -2.9560    0.0000 C   0  0  0  0  0  0  0  0  0  0  0  0
   -1.9740   -3.4430    0.0000 C   0  0  0  0  0  0  0  0  0  0  0  0
   -0.8430   -2.4570    0.0000 C   0  0  0  0  0  0  0  0  0  0  0  0
    0.5750   -2.9440    0.0000 S   0  0  0  0  0  0  0  0  0  0  0  0
    1.0620   -1.5260    0.0000 O   0  0  0  0  0  0  0  0  0  0  0  0
    0.0890   -4.3630    0.0000 O   0  0  0  0  0  0  0  0  0  0  0  0
    1.9940   -3.4310    0.0000 N   0  0  0  0  0  0  0  0  0  0  0  0
   -7.0740   -4.4390    0.0000 C   0  0  0  0  0  0  0  0  0  0  0  0
   -7.6490   -1.4950    0.0000 C   0  0  0  0  0  0  0  0  0  0  0  0
   -7.9370   -0.0230    0.0000 Cl  0  0  0  0  0  0  0  0  0  0  0  0
  1  2  1  0  0  0  0
  2  3  1  0  0  0  0
  2 13  2  0  0  0  0
  3  4  2  0  0  0  0
  4  5  1  0  0  0  0
  4 11  1  0  0  0  0
  5  6  1  0  0  0  0
  6  7  1  0  0  0  0
  6 19  1  0  0  0  0
  7  8  1  0  0  0  0
  7 18  1  0  0  0  0
  8  9  2  0  0  0  0
  8 10  2  0  0  0  0
  8 11  1  0  0  0  0
 11 12  2  0  0  0  0
 12 13  1  0  0  0  0
 13 14  1  0  0  0  0
 14 15  2  0  0  0  0
 14 16  2  0  0  0  0
 14 17  1  0  0  0  0
 19 20  1  0  0  0  0
M  END
>  <Index>
1646

>  <ID>
HT1355

>  <class>
1

>  <apol>
39.842724

>  <ast_fraglike>
0

>  <ast_fraglike_ext>
0

>  <ast_violation>
2

>  <ast_violation_ext>
3

>  <a_acc>
4

>  <a_acid>
0

>  <a_aro>
6

>  <a_base>
0

>  <a_count>
31

>  <a_don>
2

>  <a_donacc>
6

>  <a_heavy>
20

>  <a_hyd>
10

>  <a_IC>
70.242126

>  <a_ICM>
2.2658751

>  <a_nB>
0

>  <a_nBr>
0

>  <a_nC>
9

>  <a_nCl>
2

>  <a_nF>
0

>  <a_nH>
11

>  <a_nI>
0

>  <a_nN>
3

>  <a_nO>
4

>  <a_nP>
0

>  <a_nS>
2

>  <balabanJ>
2.2573788

>  <BCUT_PEOE_0>
-2.6472316

>  <BCUT_PEOE_1>
-0.25313196

>  <BCUT_PEOE_2>
0.37592337

>  <BCUT_PEOE_3>
2.6343896

>  <BCUT_SLOGP_0>
-2.7764778

>  <BCUT_SLOGP_1>
-0.3339

>  <BCUT_SLOGP_2>
0.49450219

>  <BCUT_SLOGP_3>
2.5602648

>  <BCUT_SMR_0>
-2.3352866

>  <BCUT_SMR_1>
-0.12364018

>  <BCUT_SMR_2>
0.52709097

>  <BCUT_SMR_3>
2.9483452

>  <bpol>
27.797277

>  <b_1rotN>
2

>  <b_1rotR>
0.095238097

>  <b_ar>
6

>  <b_count>
32

>  <b_double>
0

>  <b_heavy>
21

>  <b_max1len>
3

>  <b_rotN>
2

>  <b_rotR>
0.095238097

>  <b_single>
26

>  <b_triple>
0

>  <chi0>
15.292529

>  <chi0v>
13.313992

>  <chi0v_C>
5.4391575

>  <chi0_C>
6.0080719

>  <chi1>
9.0855703

>  <chi1v>
9.1553411

>  <chi1v_C>
2.0629489

>  <chi1_C>
2.7079082

>  <chiral>
1

>  <chiral_u>
1

>  <density>
1.040145

>  <diameter>
9

>  <FCharge>
0

>  <GCUT_PEOE_0>
-0.88451976

>  <GCUT_PEOE_1>
-0.39675659

>  <GCUT_PEOE_2>
-0.02645373

>  <GCUT_PEOE_3>
2.5860081

>  <GCUT_SLOGP_0>
-1.3482807

>  <GCUT_SLOGP_1>
-0.45785823

>  <GCUT_SLOGP_2>
0.17064205

>  <GCUT_SLOGP_3>
2.5848057

>  <GCUT_SMR_0>
-0.49941197

>  <GCUT_SMR_1>
-0.12556329

>  <GCUT_SMR_2>
0.22070539

>  <GCUT_SMR_3>
2.863754

>  <Kier1>
16.371881

>  <Kier2>
5.3252597

>  <Kier3>
2.8450413

>  <KierA1>
18.940311

>  <KierA2>
6.2086701

>  <KierA3>
3.3358088

>  <KierFlex>
5.8797073

>  <lip_acc>
7

>  <lip_don>
3

>  <lip_druglike>
1

>  <lip_violation>
0

>  <logP(o/w)>
-0.211

>  <logS>
-2.8506501

>  <mr>
7.6403074

>  <mutagenic>
1

>  <nmol>
1

>  <opr_brigid>
11

>  <opr_leadlike>
1

>  <opr_nring>
2

>  <opr_nrot>
2

>  <opr_violation>
0

>  <PC+>
0

>  <PC->
0

>  <PEOE_PC+>
1.6351389

>  <PEOE_PC->
-1.6351389

>  <PEOE_RPC+>
0.18943247

>  <PEOE_RPC->
0.23365305

>  <PEOE_VSA+0>
101.52368

>  <PEOE_VSA+1>
8.5307722

>  <PEOE_VSA+2>
16.774651

>  <PEOE_VSA+3>
10.105608

>  <PEOE_VSA+4>
0

>  <PEOE_VSA+5>
0

>  <PEOE_VSA+6>
8.3692026

>  <PEOE_VSA-0>
20.873917

>  <PEOE_VSA-1>
29.581947

>  <PEOE_VSA-2>
61.598469

>  <PEOE_VSA-3>
9.0437498

>  <PEOE_VSA-4>
32.016521

>  <PEOE_VSA-5>
0

>  <PEOE_VSA-6>
0.13689101

>  <PEOE_VSA_FHYD>
0.86427104

>  <PEOE_VSA_FNEG>
0.51331007

>  <PEOE_VSA_FPNEG>
0.10769664

>  <PEOE_VSA_FPOL>
0.13572897

>  <PEOE_VSA_FPOS>
0.48668993

>  <PEOE_VSA_FPPOS>
0.028032325

>  <PEOE_VSA_HYD>
258.03281

>  <PEOE_VSA_NEG>
153.2515

>  <PEOE_VSA_PNEG>
32.153416

>  <PEOE_VSA_POL>
40.522617

>  <PEOE_VSA_POS>
145.30391

>  <PEOE_VSA_PPOS>
8.3692026

>  <petitjean>
0.44444445

>  <petitjeanSC>
0.80000001

>  <Q_PC+>
0

>  <Q_PC->
0

>  <Q_RPC+>
0

>  <Q_RPC->
0

>  <Q_VSA_FHYD>
1

>  <Q_VSA_FNEG>
0

>  <Q_VSA_FPNEG>
0

>  <Q_VSA_FPOL>
0

>  <Q_VSA_FPOS>
1

>  <Q_VSA_FPPOS>
0

>  <Q_VSA_HYD>
298.55542

>  <Q_VSA_NEG>
0

>  <Q_VSA_PNEG>
0

>  <Q_VSA_POL>
0

>  <Q_VSA_POS>
298.55542

>  <Q_VSA_PPOS>
0

>  <radius>
5

>  <reactive>
1

>  <rings>
2

>  <RPC+>
0

>  <RPC->
0

>  <rsynth>
1

>  <SlogP>
0.59829998

>  <SlogP_VSA0>
31.291433

>  <SlogP_VSA1>
115.87269

>  <SlogP_VSA2>
16.834627

>  <SlogP_VSA3>
19.183437

>  <SlogP_VSA4>
0

>  <SlogP_VSA5>
35.998657

>  <SlogP_VSA6>
3.5006065

>  <SlogP_VSA7>
35.286369

>  <SlogP_VSA8>
0

>  <SlogP_VSA9>
81.054039

>  <SMR>
7.5904698

>  <SMR_VSA0>
96.343376

>  <SMR_VSA1>
1.5185606

>  <SMR_VSA2>
3.1014678

>  <SMR_VSA3>
7.0537477

>  <SMR_VSA4>
52.058933

>  <SMR_VSA5>
35.286369

>  <SMR_VSA6>
19.183437

>  <SMR_VSA7>
124.47596

>  <TPSA>
109.57

>  <VAdjEq>
0.48464775

>  <VAdjMa>
5.3923173

>  <VDistEq>
2.8765495

>  <VDistMa>
8.382638

>  <vdw_area>
298.55542

>  <vdw_vol>
346.33826

>  <vsa_acc>
64.033043

>  <vsa_acid>
0

>  <vsa_base>
0

>  <vsa_don>
25.817696

>  <vsa_hyd>
162.38855

>  <vsa_other>
31.401779

>  <vsa_pol>
89.850746

>  <Weight>
360.242

>  <weinerPath>
720

>  <weinerPol>
38

>  <zagreb>
110

$$$$