O(N=C/1c2c(CCc3c1cccc3)cccc2)CCN(C)C
  MOE2013           2D

 22 24  0  0  0  0  0  0  0  0999 V2000
    0.0000    0.0000    0.0000 O   0  0  0  0  0  0  0  0  0  0  0  0
   -1.3010    0.7470    0.0000 N   0  0  0  0  0  0  0  0  0  0  0  0
   -2.5980   -0.0060    0.0000 C   0  0  0  0  0  0  0  0  0  0  0  0
   -3.8400    0.8360    0.0000 C   0  0  0  0  0  0  0  0  0  0  0  0
   -5.2720    0.3900    0.0000 C   0  0  0  0  0  0  0  0  0  0  0  0
   -5.8180   -1.0070    0.0000 C   0  0  0  0  0  0  0  0  0  0  0  0
   -5.0660   -2.3050    0.0000 C   0  0  0  0  0  0  0  0  0  0  0  0
   -3.5810   -2.5240    0.0000 C   0  0  0  0  0  0  0  0  0  0  0  0
   -2.4840   -1.5010    0.0000 C   0  0  0  0  0  0  0  0  0  0  0  0
   -1.0490   -1.9410    0.0000 C   0  0  0  0  0  0  0  0  0  0  0  0
   -0.7120   -3.4020    0.0000 C   0  0  0  0  0  0  0  0  0  0  0  0
   -1.8100   -4.4250    0.0000 C   0  0  0  0  0  0  0  0  0  0  0  0
   -3.2440   -3.9860    0.0000 C   0  0  0  0  0  0  0  0  0  0  0  0
   -6.3740    1.4080    0.0000 C   0  0  0  0  0  0  0  0  0  0  0  0
   -6.0440    2.8710    0.0000 C   0  0  0  0  0  0  0  0  0  0  0  0
   -4.6120    3.3160    0.0000 C   0  0  0  0  0  0  0  0  0  0  0  0
   -3.5100    2.2990    0.0000 C   0  0  0  0  0  0  0  0  0  0  0  0
    1.2970    0.7530    0.0000 C   0  0  0  0  0  0  0  0  0  0  0  0
    2.5980    0.0060    0.0000 C   0  0  0  0  0  0  0  0  0  0  0  0
    3.8950    0.7590    0.0000 N   0  0  0  0  0  0  0  0  0  0  0  0
    5.1960    0.0120    0.0000 C   0  0  0  0  0  0  0  0  0  0  0  0
    3.8920    2.2590    0.0000 C   0  0  0  0  0  0  0  0  0  0  0  0
  1  2  1  0  0  0  0
  1 18  1  0  0  0  0
  2  3  2  3  0  0  0
  3  4  1  0  0  0  0
  3  9  1  0  0  0  0
  4  5  1  0  0  0  0
  4 17  2  0  0  0  0
  5  6  1  0  0  0  0
  5 14  2  0  0  0  0
  6  7  1  0  0  0  0
  7  8  1  0  0  0  0
  8  9  1  0  0  0  0
  8 13  2  0  0  0  0
  9 10  2  0  0  0  0
 10 11  1  0  0  0  0
 11 12  2  0  0  0  0
 12 13  1  0  0  0  0
 14 15  1  0  0  0  0
 15 16  2  0  0  0  0
 16 17  1  0  0  0  0
 18 19  1  0  0  0  0
 19 20  1  0  0  0  0
 20 21  1  0  0  0  0
 20 22  1  0  0  0  0
M  END
>  <Index>
1673

>  <ID>
HT1530

>  <class>
1

>  <apol>
51.111446

>  <ast_fraglike>
0

>  <ast_fraglike_ext>
0

>  <ast_violation>
1

>  <ast_violation_ext>
2

>  <a_acc>
2

>  <a_acid>
0

>  <a_aro>
12

>  <a_base>
0

>  <a_count>
44

>  <a_don>
0

>  <a_donacc>
2

>  <a_heavy>
22

>  <a_hyd>
18

>  <a_IC>
59.396873

>  <a_ICM>
1.349929

>  <a_nB>
0

>  <a_nBr>
0

>  <a_nC>
19

>  <a_nCl>
0

>  <a_nF>
0

>  <a_nH>
22

>  <a_nI>
0

>  <a_nN>
2

>  <a_nO>
1

>  <a_nP>
0

>  <a_nS>
0

>  <balabanJ>
1.6534979

>  <BCUT_PEOE_0>
-2.5871189

>  <BCUT_PEOE_1>
-0.52562886

>  <BCUT_PEOE_2>
0.58072805

>  <BCUT_PEOE_3>
2.5019467

>  <BCUT_SLOGP_0>
-2.6936314

>  <BCUT_SLOGP_1>
-0.42654088

>  <BCUT_SLOGP_2>
0.68353236

>  <BCUT_SLOGP_3>
2.5336223

>  <BCUT_SMR_0>
-2.3172865

>  <BCUT_SMR_1>
-0.39389616

>  <BCUT_SMR_2>
0.72523838

>  <BCUT_SMR_3>
2.773442

>  <bpol>
27.946554

>  <b_1rotN>
4

>  <b_1rotR>
0.16666667

>  <b_ar>
12

>  <b_count>
46

>  <b_double>
1

>  <b_heavy>
24

>  <b_max1len>
5

>  <b_rotN>
4

>  <b_rotR>
0.16666667

>  <b_single>
33

>  <b_triple>
0

>  <chi0>
15.363597

>  <chi0v>
13.249905

>  <chi0v_C>
11.947229

>  <chi0_C>
13.372033

>  <chi1>
10.75402

>  <chi1v>
7.7673182

>  <chi1v_C>
5.8618073

>  <chi1_C>
7.7828231

>  <chiral>
0

>  <chiral_u>
0

>  <density>
0.6723901

>  <diameter>
10

>  <FCharge>
0

>  <GCUT_PEOE_0>
-0.85835481

>  <GCUT_PEOE_1>
-0.33945626

>  <GCUT_PEOE_2>
0.024676191

>  <GCUT_PEOE_3>
2.634598

>  <GCUT_SLOGP_0>
-0.9588809

>  <GCUT_SLOGP_1>
-0.28517237

>  <GCUT_SLOGP_2>
0.11933966

>  <GCUT_SLOGP_3>
2.7169075

>  <GCUT_SMR_0>
-0.5175001

>  <GCUT_SMR_1>
-0.18231109

>  <GCUT_SMR_2>
0.15789278

>  <GCUT_SMR_3>
2.9289715

>  <Kier1>
16.84375

>  <Kier2>
8.203125

>  <Kier3>
4.3083901

>  <KierA1>
12.809166

>  <KierA2>
6.1505866

>  <KierA3>
3.1973252

>  <KierFlex>
3.5810857

>  <lip_acc>
3

>  <lip_don>
0

>  <lip_druglike>
1

>  <lip_violation>
0

>  <logP(o/w)>
4.151

>  <logS>
-4.4289298

>  <mr>
9.0367842

>  <mutagenic>
0

>  <nmol>
1

>  <opr_brigid>
18

>  <opr_leadlike>
1

>  <opr_nring>
3

>  <opr_nrot>
4

>  <opr_violation>
0

>  <PC+>
0

>  <PC->
0

>  <PEOE_PC+>
1.2998453

>  <PEOE_PC->
-1.2998453

>  <PEOE_RPC+>
0.081331745

>  <PEOE_RPC->
0.2354822

>  <PEOE_VSA+0>
68.794037

>  <PEOE_VSA+1>
57.605152

>  <PEOE_VSA+2>
6.6995511

>  <PEOE_VSA+3>
0

>  <PEOE_VSA+4>
0

>  <PEOE_VSA+5>
0

>  <PEOE_VSA+6>
0

>  <PEOE_VSA-0>
68.297081

>  <PEOE_VSA-1>
98.03923

>  <PEOE_VSA-2>
10.885262

>  <PEOE_VSA-3>
0

>  <PEOE_VSA-4>
5.9023595

>  <PEOE_VSA-5>
0

>  <PEOE_VSA-6>
0

>  <PEOE_VSA_FHYD>
0.98133481

>  <PEOE_VSA_FNEG>
0.57909805

>  <PEOE_VSA_FPNEG>
0.0186652

>  <PEOE_VSA_FPOL>
0.0186652

>  <PEOE_VSA_FPOS>
0.42090195

>  <PEOE_VSA_FPPOS>
0

>  <PEOE_VSA_HYD>
310.32031

>  <PEOE_VSA_NEG>
183.12393

>  <PEOE_VSA_PNEG>
5.9023595

>  <PEOE_VSA_POL>
5.9023595

>  <PEOE_VSA_POS>
133.09874

>  <PEOE_VSA_PPOS>
0

>  <petitjean>
0.5

>  <petitjeanSC>
1

>  <Q_PC+>
0

>  <Q_PC->
0

>  <Q_RPC+>
0

>  <Q_RPC->
0

>  <Q_VSA_FHYD>
1

>  <Q_VSA_FNEG>
0

>  <Q_VSA_FPNEG>
0

>  <Q_VSA_FPOL>
0

>  <Q_VSA_FPOS>
1

>  <Q_VSA_FPPOS>
0

>  <Q_VSA_HYD>
316.22269

>  <Q_VSA_NEG>
0

>  <Q_VSA_PNEG>
0

>  <Q_VSA_POL>
0

>  <Q_VSA_POS>
316.22269

>  <Q_VSA_PPOS>
0

>  <radius>
5

>  <reactive>
1

>  <rings>
3

>  <RPC+>
0

>  <RPC->
0

>  <rsynth>
1

>  <SlogP>
3.1157401

>  <SlogP_VSA0>
0

>  <SlogP_VSA1>
5.8810616

>  <SlogP_VSA2>
11.218763

>  <SlogP_VSA3>
39.365837

>  <SlogP_VSA4>
12.7423

>  <SlogP_VSA5>
122.93105

>  <SlogP_VSA6>
0

>  <SlogP_VSA7>
141.14548

>  <SlogP_VSA8>
0

>  <SlogP_VSA9>
0

>  <SMR>
9.0437002

>  <SMR_VSA0>
11.218763

>  <SMR_VSA1>
22.524176

>  <SMR_VSA2>
0

>  <SMR_VSA3>
12.7423

>  <SMR_VSA4>
0

>  <SMR_VSA5>
178.88228

>  <SMR_VSA6>
42.122585

>  <SMR_VSA7>
65.794373

>  <TPSA>
24.83

>  <VAdjEq>
0.46637034

>  <VAdjMa>
5.5849624

>  <VDistEq>
3.176928

>  <VDistMa>
8.6354828

>  <vdw_area>
316.22269

>  <vdw_vol>
437.83807

>  <vsa_acc>
10.885262

>  <vsa_acid>
0

>  <vsa_base>
0

>  <vsa_don>
0

>  <vsa_hyd>
277.07602

>  <vsa_other>
12.601911

>  <vsa_pol>
10.885262

>  <Weight>
294.39798

>  <weinerPath>
1043

>  <weinerPol>
36

>  <zagreb>
112

$$$$