O1[C@H](CC)[C@@](O)(C)[C@H](O)[C@@H](C)C(=O)[C@@H](C[C@@](OC)(C)[C@@H](O[C@@H]2O[C@@H](C[C@H](N(C)C)[C@H]2O)C)[C@@H](C)[C@H](O[C@@H]2O[C@@H](C)[C@H](O)[C@@](OC)(C2)C)[C@@H](C)C1=O)C
  MOE2013           2D

 52 54  0  0  1  0  0  0  0  0999 V2000
    0.0000    0.0000    0.0000 O   0  0  0  0  0  0  0  0  0  0  0  0
   -1.2820    0.5950    0.0000 C   0  0  2  0  0  0  0  0  0  0  0  0
   -2.4490   -0.3490    0.0000 C   0  0  0  0  0  0  0  0  0  0  0  0
   -2.2150   -1.8300    0.0000 C   0  0  0  0  0  0  0  0  0  0  0  0
   -1.6140    2.0510    0.0000 C   0  0  1  0  0  0  0  0  0  0  0  0
   -0.1420    2.3420    0.0000 O   0  0  0  0  0  0  0  0  0  0  0  0
   -1.1030    3.4620    0.0000 C   0  0  0  0  0  0  0  0  0  0  0  0
   -3.0410    2.4930    0.0000 C   0  0  2  0  0  0  0  0  0  0  0  0
   -4.0710    1.4020    0.0000 O   0  0  0  0  0  0  0  0  0  0  0  0
   -3.5370    3.8170    0.0000 C   0  0  1  0  0  0  0  0  0  0  0  0
   -5.0370    3.8030    0.0000 C   0  0  0  0  0  0  0  0  0  0  0  0
   -3.0810    5.1060    0.0000 C   0  0  0  0  0  0  0  0  0  0  0  0
   -4.3320    5.9340    0.0000 O   0  0  0  0  0  0  0  0  0  0  0  0
   -2.0980    6.0080    0.0000 C   0  0  1  0  0  0  0  0  0  0  0  0
   -0.7770    6.3580    0.0000 C   0  0  0  0  0  0  0  0  0  0  0  0
    0.5050    5.7630    0.0000 C   0  0  1  0  0  0  0  0  0  0  0  0
    0.5250    7.2630    0.0000 O   0  0  0  0  0  0  0  0  0  0  0  0
   -0.7640    8.0300    0.0000 C   0  0  0  0  0  0  0  0  0  0  0  0
    1.8960    6.3250    0.0000 C   0  0  0  0  0  0  0  0  0  0  0  0
    0.8370    4.3060    0.0000 C   0  0  1  0  0  0  0  0  0  0  0  0
    1.7430    5.5010    0.0000 O   0  0  0  0  0  0  0  0  0  0  0  0
    3.2290    5.7050    0.0000 C   0  0  2  0  0  0  0  0  0  0  0  0
    3.2860    7.2040    0.0000 O   0  0  0  0  0  0  0  0  0  0  0  0
    4.6130    7.9040    0.0000 C   0  0  1  0  0  0  0  0  0  0  0  0
    5.8820    7.1060    0.0000 C   0  0  0  0  0  0  0  0  0  0  0  0
    5.8250    5.6070    0.0000 C   0  0  2  0  0  0  0  0  0  0  0  0
    7.0950    4.8080    0.0000 N   0  0  0  0  0  0  0  0  0  0  0  0
    8.4210    5.5080    0.0000 C   0  0  0  0  0  0  0  0  0  0  0  0
    7.0380    3.3090    0.0000 C   0  0  0  0  0  0  0  0  0  0  0  0
    4.4990    4.9070    0.0000 C   0  0  1  0  0  0  0  0  0  0  0  0
    4.4420    3.4080    0.0000 O   0  0  0  0  0  0  0  0  0  0  0  0
    5.1790    9.2930    0.0000 C   0  0  0  0  0  0  0  0  0  0  0  0
    2.2640    3.8650    0.0000 C   0  0  1  0  0  0  0  0  0  0  0  0
    3.2930    4.9560    0.0000 C   0  0  0  0  0  0  0  0  0  0  0  0
    2.7600    2.5410    0.0000 C   0  0  2  0  0  0  0  0  0  0  0  0
    4.2600    2.5540    0.0000 O   0  0  0  0  0  0  0  0  0  0  0  0
    5.0210    1.2620    0.0000 C   0  0  2  0  0  0  0  0  0  0  0  0
    4.2830   -0.0440    0.0000 O   0  0  0  0  0  0  0  0  0  0  0  0
    5.0450   -1.3360    0.0000 C   0  0  1  0  0  0  0  0  0  0  0  0
    4.3070   -2.6420    0.0000 C   0  0  0  0  0  0  0  0  0  0  0  0
    6.5450   -1.3220    0.0000 C   0  0  2  0  0  0  0  0  0  0  0  0
    7.3070   -2.6140    0.0000 O   0  0  0  0  0  0  0  0  0  0  0  0
    7.2830   -0.0160    0.0000 C   0  0  1  0  0  0  0  0  0  0  0  0
    8.5750    0.7450    0.0000 O   0  0  0  0  0  0  0  0  0  0  0  0
    9.8810    0.0070    0.0000 C   0  0  0  0  0  0  0  0  0  0  0  0
    6.5210    1.2760    0.0000 C   0  0  0  0  0  0  0  0  0  0  0  0
    8.5890   -0.7540    0.0000 C   0  0  0  0  0  0  0  0  0  0  0  0
    2.3040    1.2510    0.0000 C   0  0  1  0  0  0  0  0  0  0  0  0
    3.5550    0.4240    0.0000 C   0  0  0  0  0  0  0  0  0  0  0  0
    1.3200    0.3490    0.0000 C   0  0  0  0  0  0  0  0  0  0  0  0
    2.0400   -0.9670    0.0000 O   0  0  0  0  0  0  0  0  0  0  0  0
   -2.8180    7.3240    0.0000 C   0  0  0  0  0  0  0  0  0  0  0  0
  1  2  1  0  0  0  0
  1 50  1  0  0  0  0
  2  3  1  6  0  0  0
  2  5  1  0  0  0  0
  3  4  1  0  0  0  0
  5  6  1  1  0  0  0
  5  7  1  6  0  0  0
  5  8  1  0  0  0  0
  8  9  1  6  0  0  0
  8 10  1  0  0  0  0
 10 11  1  1  0  0  0
 10 12  1  0  0  0  0
 12 13  2  0  0  0  0
 12 14  1  0  0  0  0
 14 15  1  0  0  0  0
 14 52  1  6  0  0  0
 15 16  1  0  0  0  0
 16 17  1  6  0  0  0
 16 19  1  1  0  0  0
 16 20  1  0  0  0  0
 17 18  1  0  0  0  0
 20 21  1  1  0  0  0
 20 33  1  0  0  0  0
 22 21  1  6  0  0  0
 22 23  1  0  0  0  0
 22 30  1  0  0  0  0
 23 24  1  0  0  0  0
 24 25  1  0  0  0  0
 24 32  1  6  0  0  0
 25 26  1  0  0  0  0
 26 27  1  6  0  0  0
 26 30  1  0  0  0  0
 27 28  1  0  0  0  0
 27 29  1  0  0  0  0
 30 31  1  1  0  0  0
 33 34  1  1  0  0  0
 33 35  1  0  0  0  0
 35 36  1  6  0  0  0
 35 48  1  0  0  0  0
 37 36  1  1  0  0  0
 37 38  1  0  0  0  0
 37 46  1  0  0  0  0
 38 39  1  0  0  0  0
 39 40  1  6  0  0  0
 39 41  1  0  0  0  0
 41 42  1  1  0  0  0
 41 43  1  0  0  0  0
 43 44  1  6  0  0  0
 43 46  1  0  0  0  0
 43 47  1  1  0  0  0
 44 45  1  0  0  0  0
 48 49  1  1  0  0  0
 48 50  1  0  0  0  0
 50 51  2  0  0  0  0
M  END
>  <Index>
1498

>  <ID>
HT0504

>  <class>
1

>  <apol>
124.41472

>  <ast_fraglike>
0

>  <ast_fraglike_ext>
0

>  <ast_violation>
3

>  <ast_violation_ext>
5

>  <a_acc>
13

>  <a_acid>
0

>  <a_aro>
0

>  <a_base>
0

>  <a_count>
121

>  <a_don>
4

>  <a_donacc>
17

>  <a_heavy>
52

>  <a_hyd>
34

>  <a_IC>
168.1673

>  <a_ICM>
1.3898125

>  <a_nB>
0

>  <a_nBr>
0

>  <a_nC>
38

>  <a_nCl>
0

>  <a_nF>
0

>  <a_nH>
69

>  <a_nI>
0

>  <a_nN>
1

>  <a_nO>
13

>  <a_nP>
0

>  <a_nS>
0

>  <balabanJ>
2.2121906

>  <BCUT_PEOE_0>
-2.8196146

>  <BCUT_PEOE_1>
-0.4350872

>  <BCUT_PEOE_2>
0.31272385

>  <BCUT_PEOE_3>
2.8435957

>  <BCUT_SLOGP_0>
-2.9128621

>  <BCUT_SLOGP_1>
-0.38756916

>  <BCUT_SLOGP_2>
0.32279649

>  <BCUT_SLOGP_3>
2.7787206

>  <BCUT_SMR_0>
-2.5954459

>  <BCUT_SMR_1>
-0.26175544

>  <BCUT_SMR_2>
0.4891513

>  <BCUT_SMR_3>
3.0582118

>  <bpol>
92.739281

>  <b_1rotN>
8

>  <b_1rotR>
0.14814815

>  <b_ar>
0

>  <b_count>
123

>  <b_double>
2

>  <b_heavy>
54

>  <b_max1len>
5

>  <b_rotN>
8

>  <b_rotR>
0.14814815

>  <b_single>
121

>  <b_triple>
0

>  <chi0>
39.670479

>  <chi0v>
33.898983

>  <chi0v_C>
27.988682

>  <chi0_C>
28.143381

>  <chi1>
23.986179

>  <chi1v>
18.882883

>  <chi1v_C>
12.773616

>  <chi1_C>
12.907591

>  <chiral>
18

>  <chiral_u>
0

>  <density>
0.72653437

>  <diameter>
14

>  <FCharge>
0

>  <GCUT_PEOE_0>
-0.85631603

>  <GCUT_PEOE_1>
-0.32661736

>  <GCUT_PEOE_2>
-0.083474942

>  <GCUT_PEOE_3>
3.570291

>  <GCUT_SLOGP_0>
-0.9631409

>  <GCUT_SLOGP_1>
-0.32363093

>  <GCUT_SLOGP_2>
-0.037

>  <GCUT_SLOGP_3>
3.5442231

>  <GCUT_SMR_0>
-0.53469998

>  <GCUT_SMR_1>
-0.20048891

>  <GCUT_SMR_2>
0.07443057

>  <GCUT_SMR_3>
3.7702613

>  <Kier1>
46.382717

>  <Kier2>
18.507767

>  <Kier3>
10.123967

>  <KierA1>
44.775112

>  <KierA2>
17.853701

>  <KierA3>
9.7614403

>  <KierFlex>
15.373104

>  <lip_acc>
14

>  <lip_don>
4

>  <lip_druglike>
0

>  <lip_violation>
2

>  <logP(o/w)>
3.1247399

>  <logS>
-3.9065599

>  <mr>
19.261175

>  <mutagenic>
0

>  <nmol>
1

>  <opr_brigid>
26

>  <opr_leadlike>
0

>  <opr_nring>
2

>  <opr_nrot>
25

>  <opr_violation>
3

>  <PC+>
0

>  <PC->
0

>  <PEOE_PC+>
5.3695073

>  <PEOE_PC->
-5.3695073

>  <PEOE_RPC+>
0.049883626

>  <PEOE_RPC->
0.072293691

>  <PEOE_VSA+0>
270.8465

>  <PEOE_VSA+1>
97.675751

>  <PEOE_VSA+2>
18.268377

>  <PEOE_VSA+3>
22.309816

>  <PEOE_VSA+4>
41.296692

>  <PEOE_VSA+5>
14.708499

>  <PEOE_VSA+6>
0

>  <PEOE_VSA-0>
166.3197

>  <PEOE_VSA-1>
93.738388

>  <PEOE_VSA-2>
0

>  <PEOE_VSA-3>
0

>  <PEOE_VSA-4>
0

>  <PEOE_VSA-5>
27.133842

>  <PEOE_VSA-6>
48.596455

>  <PEOE_VSA_FHYD>
0.83551449

>  <PEOE_VSA_FNEG>
0.41926694

>  <PEOE_VSA_FPNEG>
0.094557196

>  <PEOE_VSA_FPOL>
0.16448554

>  <PEOE_VSA_FPOS>
0.58073306

>  <PEOE_VSA_FPPOS>
0.069928341

>  <PEOE_VSA_HYD>
669.15857

>  <PEOE_VSA_NEG>
335.78839

>  <PEOE_VSA_PNEG>
75.730293

>  <PEOE_VSA_POL>
131.73549

>  <PEOE_VSA_POS>
465.10562

>  <PEOE_VSA_PPOS>
56.005188

>  <petitjean>
0.42857143

>  <petitjeanSC>
0.75

>  <Q_PC+>
0

>  <Q_PC->
0

>  <Q_RPC+>
0

>  <Q_RPC->
0

>  <Q_VSA_FHYD>
1

>  <Q_VSA_FNEG>
0

>  <Q_VSA_FPNEG>
0

>  <Q_VSA_FPOL>
0

>  <Q_VSA_FPOS>
1

>  <Q_VSA_FPPOS>
0

>  <Q_VSA_HYD>
800.89404

>  <Q_VSA_NEG>
0

>  <Q_VSA_PNEG>
0

>  <Q_VSA_POL>
0

>  <Q_VSA_POS>
800.89404

>  <Q_VSA_PPOS>
0

>  <radius>
8

>  <reactive>
1

>  <rings>
3

>  <RPC+>
0

>  <RPC->
0

>  <rsynth>
0.46153846

>  <SlogP>
2.4396999

>  <SlogP_VSA0>
101.54091

>  <SlogP_VSA1>
16.557388

>  <SlogP_VSA2>
197.50781

>  <SlogP_VSA3>
0

>  <SlogP_VSA4>
17.643185

>  <SlogP_VSA5>
136.56212

>  <SlogP_VSA6>
0

>  <SlogP_VSA7>
0

>  <SlogP_VSA8>
75.473625

>  <SlogP_VSA9>
333.26016

>  <SMR>
19.10482

>  <SMR_VSA0>
124.72365

>  <SMR_VSA1>
104.66522

>  <SMR_VSA2>
17.643185

>  <SMR_VSA3>
72.784164

>  <SMR_VSA4>
0

>  <SMR_VSA5>
75.473625

>  <SMR_VSA6>
13.433075

>  <SMR_VSA7>
469.82227

>  <TPSA>
182.91

>  <VAdjEq>
0.24202083

>  <VAdjMa>
6.7548876

>  <VDistEq>
3.6708479

>  <VDistMa>
11.196647

>  <vdw_area>
800.89404

>  <vdw_vol>
1029.4957

>  <vsa_acc>
42.15638

>  <vsa_acid>
0

>  <vsa_base>
0

>  <vsa_don>
0

>  <vsa_hyd>
579.63611

>  <vsa_other>
55.087772

>  <vsa_pol>
96.424065

>  <Weight>
747.96399

>  <weinerPath>
9201

>  <weinerPol>
104

>  <zagreb>
274

$$$$