Clc1ccc(cc1S(=O)(=O)N)C(=O)NN1c2c(CC1C)cccc2
  MOE2013           2D

 24 26  0  0  1  0  0  0  0  0999 V2000
    0.0000    0.0000    0.0000 Cl  0  0  0  0  0  0  0  0  0  0  0  0
    1.5000   -0.0110    0.0000 C   0  0  0  0  0  0  0  0  0  0  0  0
    2.2410   -1.3150    0.0000 C   0  0  0  0  0  0  0  0  0  0  0  0
    3.7400   -1.3260    0.0000 C   0  0  0  0  0  0  0  0  0  0  0  0
    4.5000   -0.0330    0.0000 C   0  0  0  0  0  0  0  0  0  0  0  0
    3.7590    1.2720    0.0000 C   0  0  0  0  0  0  0  0  0  0  0  0
    2.2590    1.2830    0.0000 C   0  0  0  0  0  0  0  0  0  0  0  0
    1.5190    2.5870    0.0000 S   0  0  0  0  0  0  0  0  0  0  0  0
    2.8230    3.3280    0.0000 O   0  0  0  0  0  0  0  0  0  0  0  0
    0.2140    1.8470    0.0000 O   0  0  0  0  0  0  0  0  0  0  0  0
    0.7780    3.8920    0.0000 N   0  0  0  0  0  0  0  0  0  0  0  0
    6.0000   -0.0440    0.0000 C   0  0  0  0  0  0  0  0  0  0  0  0
    6.7590    1.2500    0.0000 O   0  0  0  0  0  0  0  0  0  0  0  0
    6.7400   -1.3480    0.0000 N   0  0  0  0  0  0  0  0  0  0  0  0
    8.2400   -1.3590    0.0000 N   0  0  3  0  0  0  0  0  0  0  0  0
    9.1130   -2.5790    0.0000 C   0  0  0  0  0  0  0  0  0  0  0  0
   10.5430   -2.1260    0.0000 C   0  0  0  0  0  0  0  0  0  0  0  0
   10.5540   -0.6260    0.0000 C   0  0  0  0  0  0  0  0  0  0  0  0
    9.1310   -0.1520    0.0000 C   0  0  3  0  0  0  0  0  0  0  0  0
    8.6780    1.2780    0.0000 C   0  0  0  0  0  0  0  0  0  0  0  0
   11.6510   -3.1370    0.0000 C   0  0  0  0  0  0  0  0  0  0  0  0
   11.3280   -4.6020    0.0000 C   0  0  0  0  0  0  0  0  0  0  0  0
    9.8980   -5.0550    0.0000 C   0  0  0  0  0  0  0  0  0  0  0  0
    8.7910   -4.0440    0.0000 C   0  0  0  0  0  0  0  0  0  0  0  0
  1  2  1  0  0  0  0
  2  3  1  0  0  0  0
  2  7  2  0  0  0  0
  3  4  2  0  0  0  0
  4  5  1  0  0  0  0
  5  6  2  0  0  0  0
  5 12  1  0  0  0  0
  6  7  1  0  0  0  0
  7  8  1  0  0  0  0
  8  9  2  0  0  0  0
  8 10  2  0  0  0  0
  8 11  1  0  0  0  0
 12 13  2  0  0  0  0
 12 14  1  0  0  0  0
 14 15  1  0  0  0  0
 15 16  1  0  0  0  0
 15 19  1  0  0  0  0
 16 17  1  0  0  0  0
 16 24  2  0  0  0  0
 17 18  1  0  0  0  0
 17 21  2  0  0  0  0
 18 19  1  0  0  0  0
 19 20  1  0  0  0  0
 21 22  1  0  0  0  0
 22 23  2  0  0  0  0
 23 24  1  0  0  0  0
M  END
>  <Index>
1597

>  <ID>
HT1089

>  <class>
1

>  <apol>
49.614689

>  <ast_fraglike>
0

>  <ast_fraglike_ext>
0

>  <ast_violation>
1

>  <ast_violation_ext>
2

>  <a_acc>
3

>  <a_acid>
0

>  <a_aro>
12

>  <a_base>
0

>  <a_count>
40

>  <a_don>
2

>  <a_donacc>
5

>  <a_heavy>
24

>  <a_hyd>
16

>  <a_IC>
75.367348

>  <a_ICM>
1.8841838

>  <a_nB>
0

>  <a_nBr>
0

>  <a_nC>
16

>  <a_nCl>
1

>  <a_nF>
0

>  <a_nH>
16

>  <a_nI>
0

>  <a_nN>
3

>  <a_nO>
3

>  <a_nP>
0

>  <a_nS>
1

>  <balabanJ>
1.6135348

>  <BCUT_PEOE_0>
-2.5488918

>  <BCUT_PEOE_1>
-0.57629526

>  <BCUT_PEOE_2>
0.62320399

>  <BCUT_PEOE_3>
2.6098068

>  <BCUT_SLOGP_0>
-2.695446

>  <BCUT_SLOGP_1>
-0.43565243

>  <BCUT_SLOGP_2>
0.71089715

>  <BCUT_SLOGP_3>
2.6109259

>  <BCUT_SMR_0>
-2.2815101

>  <BCUT_SMR_1>
-0.40413544

>  <BCUT_SMR_2>
0.79330963

>  <BCUT_SMR_3>
2.8991251

>  <bpol>
26.005312

>  <b_1rotN>
3

>  <b_1rotR>
0.11538462

>  <b_ar>
12

>  <b_count>
42

>  <b_double>
1

>  <b_heavy>
26

>  <b_max1len>
3

>  <b_rotN>
4

>  <b_rotR>
0.15384616

>  <b_single>
29

>  <b_triple>
0

>  <chi0>
17.482763

>  <chi0v>
14.433856

>  <chi0v_C>
9.3259087

>  <chi0_C>
10.698306

>  <chi1>
11.269876

>  <chi1v>
9.2004986

>  <chi1v_C>
5.1545362

>  <chi1_C>
6.8433366

>  <chiral>
1

>  <chiral_u>
1

>  <density>
0.84783483

>  <diameter>
11

>  <FCharge>
0

>  <GCUT_PEOE_0>
-0.84999597

>  <GCUT_PEOE_1>
-0.39676067

>  <GCUT_PEOE_2>
0.061557483

>  <GCUT_PEOE_3>
2.6024976

>  <GCUT_SLOGP_0>
-1.3482778

>  <GCUT_SLOGP_1>
-0.36810765

>  <GCUT_SLOGP_2>
0.16691233

>  <GCUT_SLOGP_3>
2.6464374

>  <GCUT_SMR_0>
-0.51564014

>  <GCUT_SMR_1>
-0.18268947

>  <GCUT_SMR_2>
0.21366058

>  <GCUT_SMR_3>
2.8876345

>  <Kier1>
18.781065

>  <Kier2>
7.3188691

>  <Kier3>
4.0655999

>  <KierA1>
15.933104

>  <KierA2>
6.1621161

>  <KierA3>
3.4043863

>  <KierFlex>
4.0909014

>  <lip_acc>
6

>  <lip_don>
3

>  <lip_druglike>
1

>  <lip_violation>
0

>  <logP(o/w)>
1.83

>  <logS>
-4.59972

>  <mr>
9.3376064

>  <mutagenic>
0

>  <nmol>
1

>  <opr_brigid>
16

>  <opr_leadlike>
1

>  <opr_nring>
3

>  <opr_nrot>
3

>  <opr_violation>
0

>  <PC+>
0

>  <PC->
0

>  <PEOE_PC+>
1.8514183

>  <PEOE_PC->
-1.8514183

>  <PEOE_RPC+>
0.16244826

>  <PEOE_RPC->
0.15104681

>  <PEOE_VSA+0>
64.990005

>  <PEOE_VSA+1>
42.112606

>  <PEOE_VSA+2>
4.5197463

>  <PEOE_VSA+3>
8.6190128

>  <PEOE_VSA+4>
0

>  <PEOE_VSA+5>
12.949531

>  <PEOE_VSA+6>
4.1846013

>  <PEOE_VSA-0>
66.422241

>  <PEOE_VSA-1>
66.346657

>  <PEOE_VSA-2>
0

>  <PEOE_VSA-3>
9.0437498

>  <PEOE_VSA-4>
32.016521

>  <PEOE_VSA-5>
17.442276

>  <PEOE_VSA-6>
0

>  <PEOE_VSA_FHYD>
0.79737246

>  <PEOE_VSA_FNEG>
0.58199674

>  <PEOE_VSA_FPNEG>
0.15049219

>  <PEOE_VSA_FPOL>
0.20262757

>  <PEOE_VSA_FPOS>
0.41800326

>  <PEOE_VSA_FPPOS>
0.052135374

>  <PEOE_VSA_HYD>
262.05402

>  <PEOE_VSA_NEG>
191.27145

>  <PEOE_VSA_PNEG>
49.458797

>  <PEOE_VSA_POL>
66.592934

>  <PEOE_VSA_POS>
137.3755

>  <PEOE_VSA_PPOS>
17.134132

>  <petitjean>
0.45454547

>  <petitjeanSC>
0.83333331

>  <Q_PC+>
0

>  <Q_PC->
0

>  <Q_RPC+>
0

>  <Q_RPC->
0

>  <Q_VSA_FHYD>
1

>  <Q_VSA_FNEG>
0

>  <Q_VSA_FPNEG>
0

>  <Q_VSA_FPOL>
0

>  <Q_VSA_FPOS>
1

>  <Q_VSA_FPPOS>
0

>  <Q_VSA_HYD>
328.64694

>  <Q_VSA_NEG>
0

>  <Q_VSA_PNEG>
0

>  <Q_VSA_POL>
0

>  <Q_VSA_POS>
328.64694

>  <Q_VSA_PPOS>
0

>  <radius>
6

>  <reactive>
0

>  <rings>
3

>  <RPC+>
0

>  <RPC->
0

>  <rsynth>
1

>  <SlogP>
2.08337

>  <SlogP_VSA0>
52.181454

>  <SlogP_VSA1>
53.430473

>  <SlogP_VSA2>
10.622711

>  <SlogP_VSA3>
0

>  <SlogP_VSA4>
30.233366

>  <SlogP_VSA5>
20.41914

>  <SlogP_VSA6>
3.5006065

>  <SlogP_VSA7>
123.50229

>  <SlogP_VSA8>
0

>  <SlogP_VSA9>
75.231407

>  <SMR>
9.2378397

>  <SMR_VSA0>
72.033905

>  <SMR_VSA1>
0

>  <SMR_VSA2>
22.440754

>  <SMR_VSA3>
13.853725

>  <SMR_VSA4>
34.048183

>  <SMR_VSA5>
142.3707

>  <SMR_VSA6>
5.2587838

>  <SMR_VSA7>
79.115402

>  <TPSA>
92.5

>  <VAdjEq>
0.43739632

>  <VAdjMa>
5.7004399

>  <VDistEq>
3.3073354

>  <VDistMa>
8.8782387

>  <vdw_area>
328.64694

>  <vdw_vol>
431.50034

>  <vsa_acc>
45.583443

>  <vsa_acid>
0

>  <vsa_base>
0

>  <vsa_don>
29.55616

>  <vsa_hyd>
211.97888

>  <vsa_other>
23.05514

>  <vsa_pol>
75.139603

>  <Weight>
365.841

>  <weinerPath>
1345

>  <weinerPol>
39

>  <zagreb>
130

$$$$