Oc1ccc(cc1)/C(=C(CC)/c1ccc(O)cc1)/CC
  MOE2013           2D

 20 21  0  0  0  0  0  0  0  0999 V2000
    0.0000    0.0000    0.0000 O   0  0  0  0  0  0  0  0  0  0  0  0
    1.5000    0.0070    0.0000 C   0  0  0  0  0  0  0  0  0  0  0  0
    2.2560   -1.2880    0.0000 C   0  0  0  0  0  0  0  0  0  0  0  0
    3.7560   -1.2810    0.0000 C   0  0  0  0  0  0  0  0  0  0  0  0
    4.5000    0.0210    0.0000 C   0  0  0  0  0  0  0  0  0  0  0  0
    3.7440    1.3170    0.0000 C   0  0  0  0  0  0  0  0  0  0  0  0
    2.2440    1.3100    0.0000 C   0  0  0  0  0  0  0  0  0  0  0  0
    6.0000    0.0280    0.0000 C   0  0  0  0  0  0  0  0  0  0  0  0
    6.7440    1.3310    0.0000 C   0  0  0  0  0  0  0  0  0  0  0  0
    5.9880    2.6260    0.0000 C   0  0  0  0  0  0  0  0  0  0  0  0
    6.7320    3.9290    0.0000 C   0  0  0  0  0  0  0  0  0  0  0  0
    8.2440    1.3380    0.0000 C   0  0  0  0  0  0  0  0  0  0  0  0
    8.9880    2.6400    0.0000 C   0  0  0  0  0  0  0  0  0  0  0  0
   10.4880    2.6470    0.0000 C   0  0  0  0  0  0  0  0  0  0  0  0
   11.2440    1.3520    0.0000 C   0  0  0  0  0  0  0  0  0  0  0  0
   12.7440    1.3590    0.0000 O   0  0  0  0  0  0  0  0  0  0  0  0
   10.5000    0.0490    0.0000 C   0  0  0  0  0  0  0  0  0  0  0  0
    9.0000    0.0420    0.0000 C   0  0  0  0  0  0  0  0  0  0  0  0
    6.7560   -1.2670    0.0000 C   0  0  0  0  0  0  0  0  0  0  0  0
    6.0120   -2.5700    0.0000 C   0  0  0  0  0  0  0  0  0  0  0  0
  1  2  1  0  0  0  0
  2  3  1  0  0  0  0
  2  7  2  0  0  0  0
  3  4  2  0  0  0  0
  4  5  1  0  0  0  0
  5  6  2  0  0  0  0
  5  8  1  0  0  0  0
  6  7  1  0  0  0  0
  8  9  2  0  0  0  0
  8 19  1  0  0  0  0
  9 10  1  0  0  0  0
  9 12  1  0  0  0  0
 10 11  1  0  0  0  0
 12 13  1  0  0  0  0
 12 18  2  0  0  0  0
 13 14  2  0  0  0  0
 14 15  1  0  0  0  0
 15 16  1  0  0  0  0
 15 17  2  0  0  0  0
 17 18  1  0  0  0  0
 19 20  1  0  0  0  0
M  END
>  <Index>
1527

>  <ID>
HT0657

>  <class>
1

>  <apol>
46.619862

>  <ast_fraglike>
0

>  <ast_fraglike_ext>
0

>  <ast_violation>
1

>  <ast_violation_ext>
2

>  <a_acc>
2

>  <a_acid>
0

>  <a_aro>
12

>  <a_base>
0

>  <a_count>
40

>  <a_don>
2

>  <a_donacc>
4

>  <a_heavy>
20

>  <a_hyd>
18

>  <a_IC>
49.379913

>  <a_ICM>
1.2344978

>  <a_nB>
0

>  <a_nBr>
0

>  <a_nC>
18

>  <a_nCl>
0

>  <a_nF>
0

>  <a_nH>
20

>  <a_nI>
0

>  <a_nN>
0

>  <a_nO>
2

>  <a_nP>
0

>  <a_nS>
0

>  <balabanJ>
1.9691299

>  <BCUT_PEOE_0>
-2.4979758

>  <BCUT_PEOE_1>
-0.64223796

>  <BCUT_PEOE_2>
0.7036435

>  <BCUT_PEOE_3>
2.4462528

>  <BCUT_SLOGP_0>
-2.3068998

>  <BCUT_SLOGP_1>
-0.53807992

>  <BCUT_SLOGP_2>
0.80591482

>  <BCUT_SLOGP_3>
2.6411602

>  <BCUT_SMR_0>
-2.2084968

>  <BCUT_SMR_1>
-0.49986199

>  <BCUT_SMR_2>
0.85431087

>  <BCUT_SMR_3>
2.7575855

>  <bpol>
21.86414

>  <b_1rotN>
4

>  <b_1rotR>
0.19047619

>  <b_ar>
12

>  <b_count>
41

>  <b_double>
1

>  <b_heavy>
21

>  <b_max1len>
3

>  <b_rotN>
4

>  <b_rotR>
0.19047619

>  <b_single>
28

>  <b_triple>
0

>  <chi0>
14.53517

>  <chi0v>
11.927443

>  <chi0v_C>
11.033015

>  <chi0_C>
12.53517

>  <chi1>
9.6513968

>  <chi1v>
6.9612684

>  <chi1v_C>
6.5140548

>  <chi1_C>
8.4966965

>  <chiral>
0

>  <chiral_u>
0

>  <density>
0.66828102

>  <diameter>
11

>  <FCharge>
0

>  <GCUT_PEOE_0>
-0.77634972

>  <GCUT_PEOE_1>
-0.38082269

>  <GCUT_PEOE_2>
0.082937621

>  <GCUT_PEOE_3>
2.5737283

>  <GCUT_SLOGP_0>
-0.76178998

>  <GCUT_SLOGP_1>
-0.26386139

>  <GCUT_SLOGP_2>
0.16445385

>  <GCUT_SLOGP_3>
2.7628119

>  <GCUT_SMR_0>
-0.51547956

>  <GCUT_SMR_1>
-0.21605732

>  <GCUT_SMR_2>
0.19305076

>  <GCUT_SMR_3>
2.8765302

>  <Kier1>
16.371881

>  <Kier2>
7.8520408

>  <Kier3>
4.25

>  <KierA1>
12.167507

>  <KierA2>
5.7367263

>  <KierA3>
3.0663648

>  <KierFlex>
3.490083

>  <lip_acc>
2

>  <lip_don>
2

>  <lip_druglike>
1

>  <lip_violation>
0

>  <logP(o/w)>
5.0619998

>  <logS>
-5.2263999

>  <mr>
8.2474928

>  <mutagenic>
0

>  <nmol>
1

>  <opr_brigid>
13

>  <opr_leadlike>
1

>  <opr_nring>
2

>  <opr_nrot>
4

>  <opr_violation>
1

>  <PC+>
0

>  <PC->
0

>  <PEOE_PC+>
1.3509737

>  <PEOE_PC->
-1.3509737

>  <PEOE_RPC+>
0.16085677

>  <PEOE_RPC->
0.26635018

>  <PEOE_VSA+0>
42.653858

>  <PEOE_VSA+1>
51.040127

>  <PEOE_VSA+2>
0

>  <PEOE_VSA+3>
0

>  <PEOE_VSA+4>
20.648346

>  <PEOE_VSA+5>
0

>  <PEOE_VSA+6>
0

>  <PEOE_VSA-0>
75.256401

>  <PEOE_VSA-1>
86.514969

>  <PEOE_VSA-2>
0

>  <PEOE_VSA-3>
0

>  <PEOE_VSA-4>
0

>  <PEOE_VSA-5>
0

>  <PEOE_VSA-6>
15.535081

>  <PEOE_VSA_FHYD>
0.87593496

>  <PEOE_VSA_FNEG>
0.60794508

>  <PEOE_VSA_FPNEG>
0.053266399

>  <PEOE_VSA_FPOL>
0.12406506

>  <PEOE_VSA_FPOS>
0.39205489

>  <PEOE_VSA_FPPOS>
0.070798665

>  <PEOE_VSA_HYD>
255.46536

>  <PEOE_VSA_NEG>
177.30646

>  <PEOE_VSA_PNEG>
15.535081

>  <PEOE_VSA_POL>
36.183426

>  <PEOE_VSA_POS>
114.34233

>  <PEOE_VSA_PPOS>
20.648346

>  <petitjean>
0.45454547

>  <petitjeanSC>
0.83333331

>  <Q_PC+>
0

>  <Q_PC->
0

>  <Q_RPC+>
0

>  <Q_RPC->
0

>  <Q_VSA_FHYD>
1

>  <Q_VSA_FNEG>
0

>  <Q_VSA_FPNEG>
0

>  <Q_VSA_FPOL>
0

>  <Q_VSA_FPOS>
1

>  <Q_VSA_FPPOS>
0

>  <Q_VSA_HYD>
291.64877

>  <Q_VSA_NEG>
0

>  <Q_VSA_PNEG>
0

>  <Q_VSA_POL>
0

>  <Q_VSA_POS>
291.64877

>  <Q_VSA_PPOS>
0

>  <radius>
6

>  <reactive>
0

>  <rings>
2

>  <RPC+>
0

>  <RPC->
0

>  <rsynth>
1

>  <SlogP>
4.8285999

>  <SlogP_VSA0>
50.770454

>  <SlogP_VSA1>
0

>  <SlogP_VSA2>
0

>  <SlogP_VSA3>
0

>  <SlogP_VSA4>
6.37115

>  <SlogP_VSA5>
0

>  <SlogP_VSA6>
0

>  <SlogP_VSA7>
147.51663

>  <SlogP_VSA8>
37.736813

>  <SlogP_VSA9>
77.138885

>  <SMR>
8.36096

>  <SMR_VSA0>
0

>  <SMR_VSA1>
50.770454

>  <SMR_VSA2>
0

>  <SMR_VSA3>
16.858006

>  <SMR_VSA4>
6.37115

>  <SMR_VSA5>
178.88228

>  <SMR_VSA6>
0

>  <SMR_VSA7>
66.652031

>  <TPSA>
40.459999

>  <VAdjEq>
0.48464775

>  <VAdjMa>
5.3923173

>  <VDistEq>
3.1173522

>  <VDistMa>
8.360673

>  <vdw_area>
291.64877

>  <vdw_vol>
401.56161

>  <vsa_acc>
0

>  <vsa_acid>
0

>  <vsa_base>
0

>  <vsa_don>
0

>  <vsa_hyd>
242.65305

>  <vsa_other>
0

>  <vsa_pol>
27.133842

>  <Weight>
268.35599

>  <weinerPath>
814

>  <weinerPol>
30

>  <zagreb>
98

$$$$