O=C1CC[C@@]2([C@@H]3[C@H]([C@@H]4CC[C@H](C(=O)C)[C@]4(CC3)C)CCC2=C1)C
  MOE2013           2D

 23 26  0  0  1  0  0  0  0  0999 V2000
    0.0000    0.0000    0.0000 O   0  0  0  0  0  0  0  0  0  0  0  0
   -1.5000   -0.0100    0.0000 C   0  0  0  0  0  0  0  0  0  0  0  0
   -2.2590    1.2840    0.0000 C   0  0  0  0  0  0  0  0  0  0  0  0
   -3.7590    1.2740    0.0000 C   0  0  0  0  0  0  0  0  0  0  0  0
   -4.5000   -0.0300    0.0000 C   0  0  2  0  0  0  0  0  0  0  0  0
   -6.0000   -0.0400    0.0000 C   0  0  2  0  0  0  0  0  0  0  0  0
   -6.7410   -1.3450    0.0000 C   0  0  2  0  0  0  0  0  0  0  0  0
   -8.2410   -1.3550    0.0000 C   0  0  2  0  0  0  0  0  0  0  0  0
   -9.2370   -2.4760    0.0000 C   0  0  0  0  0  0  0  0  0  0  0  0
  -10.6120   -1.8750    0.0000 C   0  0  0  0  0  0  0  0  0  0  0  0
  -10.4650   -0.3820    0.0000 C   0  0  2  0  0  0  0  0  0  0  0  0
  -11.5860    0.6140    0.0000 C   0  0  0  0  0  0  0  0  0  0  0  0
  -13.0100    0.1410    0.0000 O   0  0  0  0  0  0  0  0  0  0  0  0
  -11.2840    2.0830    0.0000 C   0  0  0  0  0  0  0  0  0  0  0  0
   -9.0000   -0.0610    0.0000 C   0  0  1  0  0  0  0  0  0  0  0  0
   -8.2590    1.2430    0.0000 C   0  0  0  0  0  0  0  0  0  0  0  0
   -6.7590    1.2530    0.0000 C   0  0  0  0  0  0  0  0  0  0  0  0
   -9.8900    1.1470    0.0000 C   0  0  0  0  0  0  0  0  0  0  0  0
   -5.9820   -2.6380    0.0000 C   0  0  0  0  0  0  0  0  0  0  0  0
   -4.4820   -2.6280    0.0000 C   0  0  0  0  0  0  0  0  0  0  0  0
   -3.7410   -1.3240    0.0000 C   0  0  0  0  0  0  0  0  0  0  0  0
   -2.2410   -1.3140    0.0000 C   0  0  0  0  0  0  0  0  0  0  0  0
   -5.2810    1.2500    0.0000 C   0  0  0  0  0  0  0  0  0  0  0  0
  1  2  2  0  0  0  0
  2  3  1  0  0  0  0
  2 22  1  0  0  0  0
  3  4  1  0  0  0  0
  4  5  1  0  0  0  0
  5  6  1  0  0  0  0
  5 21  1  0  0  0  0
  5 23  1  6  0  0  0
  6  7  1  0  0  0  0
  6 17  1  6  0  0  0
  7  8  1  0  0  0  0
  7 19  1  1  0  0  0
  8  9  1  6  0  0  0
  8 15  1  0  0  0  0
  9 10  1  0  0  0  0
 10 11  1  0  0  0  0
 11 12  1  6  0  0  0
 11 15  1  0  0  0  0
 12 13  2  0  0  0  0
 12 14  1  0  0  0  0
 15 16  1  0  0  0  0
 15 18  1  6  0  0  0
 16 17  1  0  0  0  0
 19 20  1  0  0  0  0
 20 21  1  0  0  0  0
 21 22  2  0  0  0  0
M  END
>  <Index>
1702

>  <ID>
HT1751

>  <class>
1

>  <apol>
58.567791

>  <ast_fraglike>
0

>  <ast_fraglike_ext>
0

>  <ast_violation>
2

>  <ast_violation_ext>
2

>  <a_acc>
2

>  <a_acid>
0

>  <a_aro>
0

>  <a_base>
0

>  <a_count>
53

>  <a_don>
0

>  <a_donacc>
2

>  <a_heavy>
23

>  <a_hyd>
19

>  <a_IC>
62.134399

>  <a_ICM>
1.1723472

>  <a_nB>
0

>  <a_nBr>
0

>  <a_nC>
21

>  <a_nCl>
0

>  <a_nF>
0

>  <a_nH>
30

>  <a_nI>
0

>  <a_nN>
0

>  <a_nO>
2

>  <a_nP>
0

>  <a_nS>
0

>  <balabanJ>
1.6046898

>  <BCUT_PEOE_0>
-2.9464083

>  <BCUT_PEOE_1>
-0.45681959

>  <BCUT_PEOE_2>
0.37370405

>  <BCUT_PEOE_3>
2.9574139

>  <BCUT_SLOGP_0>
-2.859689

>  <BCUT_SLOGP_1>
-0.3686547

>  <BCUT_SLOGP_2>
0.36378917

>  <BCUT_SLOGP_3>
3.044574

>  <BCUT_SMR_0>
-2.6887047

>  <BCUT_SMR_1>
-0.27974507

>  <BCUT_SMR_2>
0.56023306

>  <BCUT_SMR_3>
3.2145581

>  <bpol>
34.712212

>  <b_1rotN>
1

>  <b_1rotR>
0.03846154

>  <b_ar>
0

>  <b_count>
56

>  <b_double>
3

>  <b_heavy>
26

>  <b_max1len>
4

>  <b_rotN>
1

>  <b_rotR>
0.03846154

>  <b_single>
53

>  <b_triple>
0

>  <chi0>
16.405413

>  <chi0v>
14.860102

>  <chi0v_C>
14.043606

>  <chi0_C>
14.405413

>  <chi1>
10.859844

>  <chi1v>
9.6041727

>  <chi1v_C>
9.1959238

>  <chi1_C>
9.7051439

>  <chiral>
6

>  <chiral_u>
0

>  <density>
0.67225772

>  <diameter>
11

>  <FCharge>
0

>  <GCUT_PEOE_0>
-0.80097115

>  <GCUT_PEOE_1>
-0.36913443

>  <GCUT_PEOE_2>
-0.032959275

>  <GCUT_PEOE_3>
3.3076453

>  <GCUT_SLOGP_0>
-0.83317399

>  <GCUT_SLOGP_1>
-0.27639511

>  <GCUT_SLOGP_2>
-0.0082893409

>  <GCUT_SLOGP_3>
3.3987746

>  <GCUT_SMR_0>
-0.53930503

>  <GCUT_SMR_1>
-0.20398594

>  <GCUT_SMR_2>
0.10744331

>  <GCUT_SMR_3>
3.5366108

>  <Kier1>
16.467455

>  <Kier2>
5.5

>  <Kier3>
2.2892821

>  <KierA1>
14.636623

>  <KierA2>
4.8609967

>  <KierA3>
2.0146773

>  <KierFlex>
3.0934165

>  <lip_acc>
2

>  <lip_don>
0

>  <lip_druglike>
1

>  <lip_violation>
0

>  <logP(o/w)>
3.3010001

>  <logS>
-6.0156002

>  <mr>
9.1784983

>  <mutagenic>
0

>  <nmol>
1

>  <opr_brigid>
20

>  <opr_leadlike>
1

>  <opr_nring>
4

>  <opr_nrot>
1

>  <opr_violation>
1

>  <PC+>
0

>  <PC->
0

>  <PEOE_PC+>
1.2104207

>  <PEOE_PC->
-1.2104207

>  <PEOE_RPC+>
0.12896219

>  <PEOE_RPC->
0.2456916

>  <PEOE_VSA+0>
132.39751

>  <PEOE_VSA+1>
4.2653861

>  <PEOE_VSA+2>
8.458519

>  <PEOE_VSA+3>
8.458519

>  <PEOE_VSA+4>
0

>  <PEOE_VSA+5>
0

>  <PEOE_VSA+6>
0

>  <PEOE_VSA-0>
91.911774

>  <PEOE_VSA-1>
39.703896

>  <PEOE_VSA-2>
0

>  <PEOE_VSA-3>
0

>  <PEOE_VSA-4>
0

>  <PEOE_VSA-5>
27.133842

>  <PEOE_VSA-6>
0

>  <PEOE_VSA_FHYD>
0.91312426

>  <PEOE_VSA_FNEG>
0.50827587

>  <PEOE_VSA_FPNEG>
0.086875707

>  <PEOE_VSA_FPOL>
0.086875707

>  <PEOE_VSA_FPOS>
0.49172416

>  <PEOE_VSA_FPPOS>
0

>  <PEOE_VSA_HYD>
285.19559

>  <PEOE_VSA_NEG>
158.74951

>  <PEOE_VSA_PNEG>
27.133842

>  <PEOE_VSA_POL>
27.133842

>  <PEOE_VSA_POS>
153.57993

>  <PEOE_VSA_PPOS>
0

>  <petitjean>
0.45454547

>  <petitjeanSC>
0.83333331

>  <Q_PC+>
0

>  <Q_PC->
0

>  <Q_RPC+>
0

>  <Q_RPC->
0

>  <Q_VSA_FHYD>
1

>  <Q_VSA_FNEG>
0

>  <Q_VSA_FPNEG>
0

>  <Q_VSA_FPOL>
0

>  <Q_VSA_FPOS>
1

>  <Q_VSA_FPPOS>
0

>  <Q_VSA_HYD>
312.32944

>  <Q_VSA_NEG>
0

>  <Q_VSA_PNEG>
0

>  <Q_VSA_POL>
0

>  <Q_VSA_POS>
312.32944

>  <Q_VSA_PPOS>
0

>  <radius>
6

>  <reactive>
1

>  <rings>
4

>  <RPC+>
0

>  <RPC->
0

>  <rsynth>
0

>  <SlogP>
4.7234998

>  <SlogP_VSA0>
0

>  <SlogP_VSA1>
11.375222

>  <SlogP_VSA2>
47.724434

>  <SlogP_VSA3>
0

>  <SlogP_VSA4>
17.643185

>  <SlogP_VSA5>
3.185575

>  <SlogP_VSA6>
0

>  <SlogP_VSA7>
17.643185

>  <SlogP_VSA8>
150.94725

>  <SlogP_VSA9>
99.978043

>  <SMR>
9.0881004

>  <SMR_VSA0>
47.724434

>  <SMR_VSA1>
0

>  <SMR_VSA2>
17.643185

>  <SMR_VSA3>
3.185575

>  <SMR_VSA4>
0

>  <SMR_VSA5>
168.59042

>  <SMR_VSA6>
11.375222

>  <SMR_VSA7>
99.978043

>  <TPSA>
34.139999

>  <VAdjEq>
0.46357921

>  <VAdjMa>
5.7004399

>  <VDistEq>
3.095582

>  <VDistMa>
8.7654266

>  <vdw_area>
312.32944

>  <vdw_vol>
467.78043

>  <vsa_acc>
27.133842

>  <vsa_acid>
0

>  <vsa_base>
0

>  <vsa_don>
0

>  <vsa_hyd>
241.54449

>  <vsa_other>
16.917038

>  <vsa_pol>
27.133842

>  <Weight>
314.46899

>  <weinerPath>
1052

>  <weinerPol>
48

>  <zagreb>
136

$$$$