Ic1c(C(=O)NCC(O)CO)c(I)c(N(C(=O)C)CC(O)CO)c(I)c1C(=O)NCC(O)CO
  MOE2013           2D

 34 34  0  0  1  0  0  0  0  0999 V2000
    0.0000    0.0000    0.0000 I   0  0  0  0  0  0  0  0  0  0  0  0
    1.5000    0.0090    0.0000 C   0  0  0  0  0  0  0  0  0  0  0  0
    2.2430    1.3120    0.0000 C   0  0  0  0  0  0  0  0  0  0  0  0
    1.4850    2.6070    0.0000 C   0  0  0  0  0  0  0  0  0  0  0  0
    2.2280    3.9100    0.0000 O   0  0  0  0  0  0  0  0  0  0  0  0
   -0.0150    2.5980    0.0000 N   0  0  0  0  0  0  0  0  0  0  0  0
   -0.7720    3.8930    0.0000 C   0  0  0  0  0  0  0  0  0  0  0  0
   -2.2720    3.8840    0.0000 C   0  0  3  0  0  0  0  0  0  0  0  0
   -3.0150    2.5810    0.0000 O   0  0  0  0  0  0  0  0  0  0  0  0
   -3.0300    5.1790    0.0000 C   0  0  0  0  0  0  0  0  0  0  0  0
   -4.5300    5.1700    0.0000 O   0  0  0  0  0  0  0  0  0  0  0  0
    3.7430    1.3200    0.0000 C   0  0  0  0  0  0  0  0  0  0  0  0
    4.4850    2.6240    0.0000 I   0  0  0  0  0  0  0  0  0  0  0  0
    4.5000    0.0260    0.0000 C   0  0  0  0  0  0  0  0  0  0  0  0
    6.0000    0.0340    0.0000 N   0  0  0  0  0  0  0  0  0  0  0  0
    6.7420    1.3380    0.0000 C   0  0  0  0  0  0  0  0  0  0  0  0
    5.9850    2.6320    0.0000 O   0  0  0  0  0  0  0  0  0  0  0  0
    8.2420    1.3460    0.0000 C   0  0  0  0  0  0  0  0  0  0  0  0
    6.7570   -1.2600    0.0000 C   0  0  0  0  0  0  0  0  0  0  0  0
    8.2570   -1.2520    0.0000 C   0  0  3  0  0  0  0  0  0  0  0  0
    9.0000    0.0510    0.0000 O   0  0  0  0  0  0  0  0  0  0  0  0
    9.0150   -2.5470    0.0000 C   0  0  0  0  0  0  0  0  0  0  0  0
   10.5150   -2.5380    0.0000 O   0  0  0  0  0  0  0  0  0  0  0  0
    3.7570   -1.2780    0.0000 C   0  0  0  0  0  0  0  0  0  0  0  0
    4.5150   -2.5720    0.0000 I   0  0  0  0  0  0  0  0  0  0  0  0
    2.2570   -1.2860    0.0000 C   0  0  0  0  0  0  0  0  0  0  0  0
    1.5150   -2.5890    0.0000 C   0  0  0  0  0  0  0  0  0  0  0  0
    2.2720   -3.8840    0.0000 O   0  0  0  0  0  0  0  0  0  0  0  0
    0.0150   -2.5980    0.0000 N   0  0  0  0  0  0  0  0  0  0  0  0
   -0.7280   -3.9010    0.0000 C   0  0  0  0  0  0  0  0  0  0  0  0
   -2.2280   -3.9100    0.0000 C   0  0  3  0  0  0  0  0  0  0  0  0
   -2.9850   -2.6150    0.0000 O   0  0  0  0  0  0  0  0  0  0  0  0
   -2.9700   -5.2130    0.0000 C   0  0  0  0  0  0  0  0  0  0  0  0
   -4.4700   -5.2220    0.0000 O   0  0  0  0  0  0  0  0  0  0  0  0
  1  2  1  0  0  0  0
  2  3  1  0  0  0  0
  2 26  2  0  0  0  0
  3  4  1  0  0  0  0
  3 12  2  0  0  0  0
  4  5  2  0  0  0  0
  4  6  1  0  0  0  0
  6  7  1  0  0  0  0
  7  8  1  0  0  0  0
  8  9  1  0  0  0  0
  8 10  1  0  0  0  0
 10 11  1  0  0  0  0
 12 13  1  0  0  0  0
 12 14  1  0  0  0  0
 14 15  1  0  0  0  0
 14 24  2  0  0  0  0
 15 16  1  0  0  0  0
 15 19  1  0  0  0  0
 16 17  2  0  0  0  0
 16 18  1  0  0  0  0
 19 20  1  0  0  0  0
 20 21  1  0  0  0  0
 20 22  1  0  0  0  0
 22 23  1  0  0  0  0
 24 25  1  0  0  0  0
 24 26  1  0  0  0  0
 26 27  1  0  0  0  0
 27 28  2  0  0  0  0
 27 29  1  0  0  0  0
 29 30  1  0  0  0  0
 30 31  1  0  0  0  0
 31 32  1  0  0  0  0
 31 33  1  0  0  0  0
 33 34  1  0  0  0  0
M  END
>  <Index>
1602

>  <ID>
HT1109

>  <class>
1

>  <apol>
77.34462

>  <ast_fraglike>
0

>  <ast_fraglike_ext>
0

>  <ast_violation>
3

>  <ast_violation_ext>
5

>  <a_acc>
9

>  <a_acid>
0

>  <a_aro>
6

>  <a_base>
0

>  <a_count>
60

>  <a_don>
8

>  <a_donacc>
17

>  <a_heavy>
34

>  <a_hyd>
19

>  <a_IC>
113.45228

>  <a_ICM>
1.8908713

>  <a_nB>
0

>  <a_nBr>
0

>  <a_nC>
19

>  <a_nCl>
0

>  <a_nF>
0

>  <a_nH>
26

>  <a_nI>
3

>  <a_nN>
3

>  <a_nO>
9

>  <a_nP>
0

>  <a_nS>
0

>  <balabanJ>
3.316653

>  <BCUT_PEOE_0>
-2.5696719

>  <BCUT_PEOE_1>
-0.59809709

>  <BCUT_PEOE_2>
0.62487209

>  <BCUT_PEOE_3>
2.5729876

>  <BCUT_SLOGP_0>
-2.7604046

>  <BCUT_SLOGP_1>
-0.57988691

>  <BCUT_SLOGP_2>
0.59859848

>  <BCUT_SLOGP_3>
2.4572458

>  <BCUT_SMR_0>
-2.3194938

>  <BCUT_SMR_1>
-0.38932642

>  <BCUT_SMR_2>
0.88156503

>  <BCUT_SMR_3>
2.8397264

>  <bpol>
45.367382

>  <b_1rotN>
13

>  <b_1rotR>
0.38235295

>  <b_ar>
6

>  <b_count>
60

>  <b_double>
3

>  <b_heavy>
34

>  <b_max1len>
6

>  <b_rotN>
15

>  <b_rotR>
0.44117647

>  <b_single>
51

>  <b_triple>
0

>  <chi0>
26.162407

>  <chi0v>
24.436319

>  <chi0v_C>
11.474691

>  <chi0_C>
12.170844

>  <chi1>
15.902391

>  <chi1v>
13.058885

>  <chi1v_C>
4.9494896

>  <chi1_C>
5.6935067

>  <chiral>
3

>  <chiral_u>
3

>  <density>
1.26467

>  <diameter>
14

>  <FCharge>
0

>  <GCUT_PEOE_0>
-0.83003014

>  <GCUT_PEOE_1>
-0.46206027

>  <GCUT_PEOE_2>
0.12308051

>  <GCUT_PEOE_3>
2.718689

>  <GCUT_SLOGP_0>
-1.1630626

>  <GCUT_SLOGP_1>
-0.47116932

>  <GCUT_SLOGP_2>
0.033616506

>  <GCUT_SLOGP_3>
2.7087464

>  <GCUT_SMR_0>
-0.52247512

>  <GCUT_SMR_1>
-0.22059001

>  <GCUT_SMR_2>
0.28981209

>  <GCUT_SMR_3>
3.0601842

>  <Kier1>
32.029411

>  <Kier2>
15.29742

>  <Kier3>
8.8177776

>  <KierA1>
34.958633

>  <KierA2>
16.741026

>  <KierA3>
9.6679745

>  <KierFlex>
17.213039

>  <lip_acc>
12

>  <lip_don>
8

>  <lip_druglike>
0

>  <lip_violation>
3

>  <logP(o/w)>
-0.25099999

>  <logS>
-3.5399201

>  <mr>
14.869492

>  <mutagenic>
0

>  <nmol>
1

>  <opr_brigid>
6

>  <opr_leadlike>
0

>  <opr_nring>
1

>  <opr_nrot>
12

>  <opr_violation>
4

>  <PC+>
0

>  <PC->
0

>  <PEOE_PC+>
4.279099

>  <PEOE_PC->
-4.279099

>  <PEOE_RPC+>
0.059409413

>  <PEOE_RPC->
0.091702841

>  <PEOE_VSA+0>
60.968578

>  <PEOE_VSA+1>
153.9386

>  <PEOE_VSA+2>
0

>  <PEOE_VSA+3>
17.238026

>  <PEOE_VSA+4>
74.894569

>  <PEOE_VSA+5>
25.899061

>  <PEOE_VSA+6>
0

>  <PEOE_VSA-0>
140.97005

>  <PEOE_VSA-1>
0

>  <PEOE_VSA-2>
0

>  <PEOE_VSA-3>
0

>  <PEOE_VSA-4>
0

>  <PEOE_VSA-5>
40.700764

>  <PEOE_VSA-6>
46.879025

>  <PEOE_VSA_FHYD>
0.66451073

>  <PEOE_VSA_FNEG>
0.40704265

>  <PEOE_VSA_FPNEG>
0.15597783

>  <PEOE_VSA_FPOL>
0.33548927

>  <PEOE_VSA_FPOS>
0.59295738

>  <PEOE_VSA_FPPOS>
0.17951143

>  <PEOE_VSA_HYD>
373.11523

>  <PEOE_VSA_NEG>
228.54984

>  <PEOE_VSA_PNEG>
87.579788

>  <PEOE_VSA_POL>
188.37341

>  <PEOE_VSA_POS>
332.93884

>  <PEOE_VSA_PPOS>
100.79363

>  <petitjean>
0.42857143

>  <petitjeanSC>
0.75

>  <Q_PC+>
0

>  <Q_PC->
0

>  <Q_RPC+>
0

>  <Q_RPC->
0

>  <Q_VSA_FHYD>
1

>  <Q_VSA_FNEG>
0

>  <Q_VSA_FPNEG>
0

>  <Q_VSA_FPOL>
0

>  <Q_VSA_FPOS>
1

>  <Q_VSA_FPPOS>
0

>  <Q_VSA_HYD>
561.48865

>  <Q_VSA_NEG>
0

>  <Q_VSA_PNEG>
0

>  <Q_VSA_POL>
0

>  <Q_VSA_POS>
561.48865

>  <Q_VSA_PPOS>
0

>  <radius>
8

>  <reactive>
0

>  <rings>
1

>  <RPC+>
0

>  <RPC->
0

>  <rsynth>
1

>  <SlogP>
-1.6275001

>  <SlogP_VSA0>
191.45717

>  <SlogP_VSA1>
15.776351

>  <SlogP_VSA2>
48.247093

>  <SlogP_VSA3>
118.09751

>  <SlogP_VSA4>
54.095581

>  <SlogP_VSA5>
0

>  <SlogP_VSA6>
0

>  <SlogP_VSA7>
0

>  <SlogP_VSA8>
0

>  <SlogP_VSA9>
206.42879

>  <SMR>
14.65642

>  <SMR_VSA0>
71.586647

>  <SMR_VSA1>
152.31136

>  <SMR_VSA2>
44.124744

>  <SMR_VSA3>
25.777098

>  <SMR_VSA4>
2.7567475

>  <SMR_VSA5>
0

>  <SMR_VSA6>
133.87386

>  <SMR_VSA7>
203.67204

>  <TPSA>
199.89

>  <VAdjEq>
0.32275695

>  <VAdjMa>
6.0874629

>  <VDistEq>
3.5406394

>  <VDistMa>
9.935358

>  <vdw_area>
561.48865

>  <vdw_vol>
649.29272

>  <vsa_acc>
40.700764

>  <vsa_acid>
0

>  <vsa_base>
0

>  <vsa_don>
11.365152

>  <vsa_hyd>
343.06491

>  <vsa_other>
38.848595

>  <vsa_pol>
133.46744

>  <Weight>
821.14099

>  <weinerPath>
3312

>  <weinerPol>
57

>  <zagreb>
162

$$$$