N1CCN=C1CN(Cc1ccccc1)c1ccccc1
  MOE2013           2D

 20 22  0  0  1  0  0  0  0  0999 V2000
    0.0000    0.0000    0.0000 N   0  0  0  0  0  0  0  0  0  0  0  0
   -1.0100   -1.1090    0.0000 C   0  0  0  0  0  0  0  0  0  0  0  0
   -0.2680   -2.4120    0.0000 C   0  0  0  0  0  0  0  0  0  0  0  0
    1.2010   -2.1090    0.0000 N   0  0  0  0  0  0  0  0  0  0  0  0
    1.3670   -0.6180    0.0000 C   0  0  0  0  0  0  0  0  0  0  0  0
    2.6700    0.1240    0.0000 C   0  0  0  0  0  0  0  0  0  0  0  0
    2.6790    1.6240    0.0000 N   0  0  3  0  0  0  0  0  0  0  0  0
    3.9830    2.3660    0.0000 C   0  0  0  0  0  0  0  0  0  0  0  0
    5.2770    1.6080    0.0000 C   0  0  0  0  0  0  0  0  0  0  0  0
    6.5810    2.3500    0.0000 C   0  0  0  0  0  0  0  0  0  0  0  0
    7.8750    1.5920    0.0000 C   0  0  0  0  0  0  0  0  0  0  0  0
    7.8660    0.0920    0.0000 C   0  0  0  0  0  0  0  0  0  0  0  0
    6.5630   -0.6500    0.0000 C   0  0  0  0  0  0  0  0  0  0  0  0
    5.2680    0.1080    0.0000 C   0  0  0  0  0  0  0  0  0  0  0  0
    1.3850    2.3810    0.0000 C   0  0  0  0  0  0  0  0  0  0  0  0
    1.3940    3.8810    0.0000 C   0  0  0  0  0  0  0  0  0  0  0  0
    0.1000    4.6390    0.0000 C   0  0  0  0  0  0  0  0  0  0  0  0
   -1.2040    3.8970    0.0000 C   0  0  0  0  0  0  0  0  0  0  0  0
   -1.2130    2.3970    0.0000 C   0  0  0  0  0  0  0  0  0  0  0  0
    0.0810    1.6390    0.0000 C   0  0  0  0  0  0  0  0  0  0  0  0
  1  2  1  0  0  0  0
  1  5  1  0  0  0  0
  2  3  1  0  0  0  0
  3  4  1  0  0  0  0
  4  5  2  0  0  0  0
  5  6  1  0  0  0  0
  6  7  1  0  0  0  0
  7  8  1  0  0  0  0
  7 15  1  0  0  0  0
  8  9  1  0  0  0  0
  9 10  1  0  0  0  0
  9 14  2  0  0  0  0
 10 11  2  0  0  0  0
 11 12  1  0  0  0  0
 12 13  2  0  0  0  0
 13 14  1  0  0  0  0
 15 16  1  0  0  0  0
 15 20  2  0  0  0  0
 16 17  2  0  0  0  0
 17 18  1  0  0  0  0
 18 19  2  0  0  0  0
 19 20  1  0  0  0  0
M  END
>  <Index>
1437

>  <ID>
HT0165

>  <class>
1

>  <apol>
45.889069

>  <ast_fraglike>
1

>  <ast_fraglike_ext>
0

>  <ast_violation>
0

>  <ast_violation_ext>
1

>  <a_acc>
1

>  <a_acid>
0

>  <a_aro>
12

>  <a_base>
0

>  <a_count>
39

>  <a_don>
1

>  <a_donacc>
2

>  <a_heavy>
20

>  <a_hyd>
16

>  <a_IC>
51.178307

>  <a_ICM>
1.3122643

>  <a_nB>
0

>  <a_nBr>
0

>  <a_nC>
17

>  <a_nCl>
0

>  <a_nF>
0

>  <a_nH>
19

>  <a_nI>
0

>  <a_nN>
3

>  <a_nO>
0

>  <a_nP>
0

>  <a_nS>
0

>  <balabanJ>
1.556776

>  <BCUT_PEOE_0>
-2.5296724

>  <BCUT_PEOE_1>
-0.61190671

>  <BCUT_PEOE_2>
0.64406335

>  <BCUT_PEOE_3>
2.528985

>  <BCUT_SLOGP_0>
-2.6669261

>  <BCUT_SLOGP_1>
-0.52505386

>  <BCUT_SLOGP_2>
0.75602233

>  <BCUT_SLOGP_3>
2.5161998

>  <BCUT_SMR_0>
-2.206758

>  <BCUT_SMR_1>
-0.44614753

>  <BCUT_SMR_2>
0.8147825

>  <BCUT_SMR_3>
2.8337243

>  <bpol>
24.730932

>  <b_1rotN>
5

>  <b_1rotR>
0.22727273

>  <b_ar>
12

>  <b_count>
41

>  <b_double>
1

>  <b_heavy>
22

>  <b_max1len>
4

>  <b_rotN>
5

>  <b_rotR>
0.22727273

>  <b_single>
28

>  <b_triple>
0

>  <chi0>
13.62311

>  <chi0v>
11.496357

>  <chi0v_C>
10.10193

>  <chi0_C>
11.631546

>  <chi1>
9.9158163

>  <chi1v>
7.0279241

>  <chi1v_C>
5.0284739

>  <chi1_C>
6.9494896

>  <chiral>
0

>  <chiral_u>
0

>  <density>
0.6705488

>  <diameter>
9

>  <FCharge>
0

>  <GCUT_PEOE_0>
-0.86138141

>  <GCUT_PEOE_1>
-0.3915787

>  <GCUT_PEOE_2>
0.066729568

>  <GCUT_PEOE_3>
2.5479109

>  <GCUT_SLOGP_0>
-1.1669911

>  <GCUT_SLOGP_1>
-0.28848141

>  <GCUT_SLOGP_2>
0.15249072

>  <GCUT_SLOGP_3>
2.631089

>  <GCUT_SMR_0>
-0.50485981

>  <GCUT_SMR_1>
-0.19695719

>  <GCUT_SMR_2>
0.17811364

>  <GCUT_SMR_3>
2.8467271

>  <Kier1>
14.917356

>  <Kier2>
7.8520408

>  <Kier3>
4.4963264

>  <KierA1>
10.379901

>  <KierA2>
5.3494287

>  <KierA3>
3.0160587

>  <KierFlex>
2.7763269

>  <lip_acc>
3

>  <lip_don>
1

>  <lip_druglike>
1

>  <lip_violation>
0

>  <logP(o/w)>
2.7679999

>  <logS>
-3.4963701

>  <mr>
8.2154131

>  <mutagenic>
0

>  <nmol>
1

>  <opr_brigid>
17

>  <opr_leadlike>
1

>  <opr_nring>
3

>  <opr_nrot>
5

>  <opr_violation>
0

>  <PC+>
0

>  <PC->
0

>  <PEOE_PC+>
1.5032727

>  <PEOE_PC->
-1.5032727

>  <PEOE_RPC+>
0.10698862

>  <PEOE_RPC->
0.2464862

>  <PEOE_VSA+0>
41.614971

>  <PEOE_VSA+1>
94.630829

>  <PEOE_VSA+2>
11.190562

>  <PEOE_VSA+3>
8.6190128

>  <PEOE_VSA+4>
0

>  <PEOE_VSA+5>
0

>  <PEOE_VSA+6>
0

>  <PEOE_VSA-0>
26.718348

>  <PEOE_VSA-1>
98.03923

>  <PEOE_VSA-2>
0

>  <PEOE_VSA-3>
0

>  <PEOE_VSA-4>
0

>  <PEOE_VSA-5>
5.6825762

>  <PEOE_VSA-6>
0.13689101

>  <PEOE_VSA_FHYD>
0.97969711

>  <PEOE_VSA_FNEG>
0.45555574

>  <PEOE_VSA_FPNEG>
0.020302892

>  <PEOE_VSA_FPOL>
0.020302892

>  <PEOE_VSA_FPOS>
0.54444426

>  <PEOE_VSA_FPPOS>
0

>  <PEOE_VSA_HYD>
280.81296

>  <PEOE_VSA_NEG>
130.57704

>  <PEOE_VSA_PNEG>
5.8194671

>  <PEOE_VSA_POL>
5.8194671

>  <PEOE_VSA_POS>
156.05537

>  <PEOE_VSA_PPOS>
0

>  <petitjean>
0.44444445

>  <petitjeanSC>
0.80000001

>  <Q_PC+>
0

>  <Q_PC->
0

>  <Q_RPC+>
0

>  <Q_RPC->
0

>  <Q_VSA_FHYD>
1

>  <Q_VSA_FNEG>
0

>  <Q_VSA_FPNEG>
0

>  <Q_VSA_FPOL>
0

>  <Q_VSA_FPOS>
1

>  <Q_VSA_FPPOS>
0

>  <Q_VSA_HYD>
286.63242

>  <Q_VSA_NEG>
0

>  <Q_VSA_PNEG>
0

>  <Q_VSA_POL>
0

>  <Q_VSA_POS>
286.63242

>  <Q_VSA_PPOS>
0

>  <radius>
5

>  <reactive>
0

>  <rings>
3

>  <RPC+>
0

>  <RPC->
0

>  <rsynth>
1

>  <SlogP>
2.9612999

>  <SlogP_VSA0>
21.135065

>  <SlogP_VSA1>
2.3279202

>  <SlogP_VSA2>
0

>  <SlogP_VSA3>
55.318733

>  <SlogP_VSA4>
3.185575

>  <SlogP_VSA5>
16.78553

>  <SlogP_VSA6>
0

>  <SlogP_VSA7>
176.43184

>  <SlogP_VSA8>
0

>  <SlogP_VSA9>
21.196325

>  <SMR>
8.4443703

>  <SMR_VSA0>
0

>  <SMR_VSA1>
16.78553

>  <SMR_VSA2>
21.135065

>  <SMR_VSA3>
3.185575

>  <SMR_VSA4>
2.7567475

>  <SMR_VSA5>
194.87141

>  <SMR_VSA6>
57.646656

>  <SMR_VSA7>
0

>  <TPSA>
27.629999

>  <VAdjEq>
0.49991596

>  <VAdjMa>
5.4594316

>  <VDistEq>
3.0351255

>  <VDistMa>
8.3702307

>  <vdw_area>
286.63242

>  <vdw_vol>
395.73557

>  <vsa_acc>
5.6825762

>  <vsa_acid>
0

>  <vsa_base>
0

>  <vsa_don>
5.6825762

>  <vsa_hyd>
248.19106

>  <vsa_other>
11.190562

>  <vsa_pol>
11.365152

>  <Weight>
265.35999

>  <weinerPath>
829

>  <weinerPol>
24

>  <zagreb>
100

$$$$