Oc1cc2CC[C@H]3[C@@H]4CC[C@H](OC(=O)CCCC)[C@@]4(CC[C@@H]3c2cc1)C
  MOE2013           2D

 26 29  0  0  1  0  0  0  0  0999 V2000
    0.0000    0.0000    0.0000 O   0  0  0  0  0  0  0  0  0  0  0  0
    1.5000    0.0010    0.0000 C   0  0  0  0  0  0  0  0  0  0  0  0
    2.2510   -1.2970    0.0000 C   0  0  0  0  0  0  0  0  0  0  0  0
    3.7510   -1.2950    0.0000 C   0  0  0  0  0  0  0  0  0  0  0  0
    4.5030   -2.5940    0.0000 C   0  0  0  0  0  0  0  0  0  0  0  0
    6.0030   -2.5920    0.0000 C   0  0  0  0  0  0  0  0  0  0  0  0
    6.7510   -1.2930    0.0000 C   0  0  1  0  0  0  0  0  0  0  0  0
    8.2510   -1.2910    0.0000 C   0  0  2  0  0  0  0  0  0  0  0  0
    9.2560   -2.4050    0.0000 C   0  0  0  0  0  0  0  0  0  0  0  0
   10.6260   -1.7930    0.0000 C   0  0  0  0  0  0  0  0  0  0  0  0
   10.4680   -0.3020    0.0000 C   0  0  2  0  0  0  0  0  0  0  0  0
   11.5810    0.7030    0.0000 O   0  0  0  0  0  0  0  0  0  0  0  0
   13.0080    0.2410    0.0000 C   0  0  0  0  0  0  0  0  0  0  0  0
   13.3220   -1.2260    0.0000 O   0  0  0  0  0  0  0  0  0  0  0  0
   14.1220    1.2460    0.0000 C   0  0  0  0  0  0  0  0  0  0  0  0
   15.5490    0.7840    0.0000 C   0  0  0  0  0  0  0  0  0  0  0  0
   16.6630    1.7880    0.0000 C   0  0  0  0  0  0  0  0  0  0  0  0
   18.0900    1.3260    0.0000 C   0  0  0  0  0  0  0  0  0  0  0  0
    9.0000    0.0090    0.0000 C   0  0  2  0  0  0  0  0  0  0  0  0
    8.2490    1.3070    0.0000 C   0  0  0  0  0  0  0  0  0  0  0  0
    6.7490    1.3060    0.0000 C   0  0  0  0  0  0  0  0  0  0  0  0
    6.0000    0.0060    0.0000 C   0  0  2  0  0  0  0  0  0  0  0  0
    4.5000    0.0040    0.0000 C   0  0  0  0  0  0  0  0  0  0  0  0
    3.7490    1.3030    0.0000 C   0  0  0  0  0  0  0  0  0  0  0  0
    2.2490    1.3010    0.0000 C   0  0  0  0  0  0  0  0  0  0  0  0
    9.8810    1.2230    0.0000 C   0  0  0  0  0  0  0  0  0  0  0  0
  1  2  1  0  0  0  0
  2  3  1  0  0  0  0
  2 25  2  0  0  0  0
  3  4  2  0  0  0  0
  4  5  1  0  0  0  0
  4 23  1  0  0  0  0
  5  6  1  0  0  0  0
  7  6  1  6  0  0  0
  7  8  1  0  0  0  0
  7 22  1  0  0  0  0
  8  9  1  1  0  0  0
  8 19  1  0  0  0  0
  9 10  1  0  0  0  0
 10 11  1  0  0  0  0
 11 12  1  1  0  0  0
 11 19  1  0  0  0  0
 12 13  1  0  0  0  0
 13 14  2  0  0  0  0
 13 15  1  0  0  0  0
 15 16  1  0  0  0  0
 16 17  1  0  0  0  0
 17 18  1  0  0  0  0
 19 20  1  0  0  0  0
 19 26  1  6  0  0  0
 20 21  1  0  0  0  0
 22 21  1  1  0  0  0
 22 23  1  0  0  0  0
 23 24  2  0  0  0  0
 24 25  1  0  0  0  0
M  END
>  <Index>
1555

>  <ID>
HT0793

>  <class>
1

>  <apol>
64.223373

>  <ast_fraglike>
0

>  <ast_fraglike_ext>
0

>  <ast_violation>
2

>  <ast_violation_ext>
3

>  <a_acc>
2

>  <a_acid>
0

>  <a_aro>
6

>  <a_base>
0

>  <a_count>
58

>  <a_don>
1

>  <a_donacc>
3

>  <a_heavy>
26

>  <a_hyd>
22

>  <a_IC>
70.966087

>  <a_ICM>
1.2235532

>  <a_nB>
0

>  <a_nBr>
0

>  <a_nC>
23

>  <a_nCl>
0

>  <a_nF>
0

>  <a_nH>
32

>  <a_nI>
0

>  <a_nN>
0

>  <a_nO>
3

>  <a_nP>
0

>  <a_nS>
0

>  <balabanJ>
1.4297116

>  <BCUT_PEOE_0>
-2.885061

>  <BCUT_PEOE_1>
-0.50761992

>  <BCUT_PEOE_2>
0.53836471

>  <BCUT_PEOE_3>
2.9307678

>  <BCUT_SLOGP_0>
-2.8032799

>  <BCUT_SLOGP_1>
-0.42162415

>  <BCUT_SLOGP_2>
0.60437763

>  <BCUT_SLOGP_3>
3.0077152

>  <BCUT_SMR_0>
-2.6306233

>  <BCUT_SMR_1>
-0.38375434

>  <BCUT_SMR_2>
0.66396326

>  <BCUT_SMR_3>
3.1812479

>  <bpol>
37.856625

>  <b_1rotN>
4

>  <b_1rotR>
0.13793103

>  <b_ar>
6

>  <b_count>
61

>  <b_double>
1

>  <b_heavy>
29

>  <b_max1len>
5

>  <b_rotN>
5

>  <b_rotR>
0.1724138

>  <b_single>
54

>  <b_triple>
0

>  <chi0>
18.31119

>  <chi0v>
16.169123

>  <chi0v_C>
14.905413

>  <chi0_C>
15.604083

>  <chi1>
12.525023

>  <chi1v>
10.539043

>  <chi1v_C>
9.6714859

>  <chi1_C>
10.553826

>  <chiral>
5

>  <chiral_u>
0

>  <density>
0.6818642

>  <diameter>
15

>  <FCharge>
0

>  <GCUT_PEOE_0>
-0.79416788

>  <GCUT_PEOE_1>
-0.39310491

>  <GCUT_PEOE_2>
0.02795931

>  <GCUT_PEOE_3>
3.1887352

>  <GCUT_SLOGP_0>
-0.85158575

>  <GCUT_SLOGP_1>
-0.28480282

>  <GCUT_SLOGP_2>
0.10043376

>  <GCUT_SLOGP_3>
3.2826538

>  <GCUT_SMR_0>
-0.53619075

>  <GCUT_SMR_1>
-0.21619925

>  <GCUT_SMR_2>
0.13269436

>  <GCUT_SMR_3>
3.4211688

>  <Kier1>
19.322235

>  <Kier2>
7.7879934

>  <Kier3>
3.5603333

>  <KierA1>
16.954086

>  <KierA2>
6.7960019

>  <KierA3>
3.0946398

>  <KierFlex>
4.4315386

>  <lip_acc>
3

>  <lip_don>
1

>  <lip_druglike>
1

>  <lip_violation>
1

>  <logP(o/w)>
5.7989998

>  <logS>
-6.0686698

>  <mr>
10.349016

>  <mutagenic>
0

>  <nmol>
1

>  <opr_brigid>
20

>  <opr_leadlike>
1

>  <opr_nring>
4

>  <opr_nrot>
4

>  <opr_violation>
1

>  <PC+>
0

>  <PC->
0

>  <PEOE_PC+>
1.665279

>  <PEOE_PC->
-1.665279

>  <PEOE_RPC+>
0.1575899

>  <PEOE_RPC->
0.21607411

>  <PEOE_VSA+0>
123.86674

>  <PEOE_VSA+1>
30.424992

>  <PEOE_VSA+2>
0

>  <PEOE_VSA+3>
0

>  <PEOE_VSA+4>
10.324173

>  <PEOE_VSA+5>
14.708499

>  <PEOE_VSA+6>
0

>  <PEOE_VSA-0>
89.836082

>  <PEOE_VSA-1>
58.451572

>  <PEOE_VSA-2>
0

>  <PEOE_VSA-3>
0

>  <PEOE_VSA-4>
0

>  <PEOE_VSA-5>
13.566921

>  <PEOE_VSA-6>
10.271297

>  <PEOE_VSA_FHYD>
0.86094511

>  <PEOE_VSA_FNEG>
0.48975882

>  <PEOE_VSA_FPNEG>
0.067828141

>  <PEOE_VSA_FPOL>
0.13905492

>  <PEOE_VSA_FPOS>
0.51024115

>  <PEOE_VSA_FPPOS>
0.071226783

>  <PEOE_VSA_HYD>
302.57938

>  <PEOE_VSA_NEG>
172.12587

>  <PEOE_VSA_PNEG>
23.838217

>  <PEOE_VSA_POL>
48.870888

>  <PEOE_VSA_POS>
179.3244

>  <PEOE_VSA_PPOS>
25.032671

>  <petitjean>
0.46666667

>  <petitjeanSC>
0.875

>  <Q_PC+>
0

>  <Q_PC->
0

>  <Q_RPC+>
0

>  <Q_RPC->
0

>  <Q_VSA_FHYD>
1

>  <Q_VSA_FNEG>
0

>  <Q_VSA_FPNEG>
0

>  <Q_VSA_FPOL>
0

>  <Q_VSA_FPOS>
1

>  <Q_VSA_FPPOS>
0

>  <Q_VSA_HYD>
351.45026

>  <Q_VSA_NEG>
0

>  <Q_VSA_PNEG>
0

>  <Q_VSA_POL>
0

>  <Q_VSA_POS>
351.45026

>  <Q_VSA_PPOS>
0

>  <radius>
8

>  <reactive>
0

>  <rings>
4

>  <RPC+>
0

>  <RPC->
0

>  <rsynth>
0.5

>  <SlogP>
5.3502698

>  <SlogP_VSA0>
25.385227

>  <SlogP_VSA1>
7.7454643

>  <SlogP_VSA2>
41.330753

>  <SlogP_VSA3>
0

>  <SlogP_VSA4>
15.192742

>  <SlogP_VSA5>
18.868406

>  <SlogP_VSA6>
4.4107962

>  <SlogP_VSA7>
52.929554

>  <SlogP_VSA8>
150.94725

>  <SlogP_VSA9>
71.895454

>  <SMR>
10.21288

>  <SMR_VSA0>
34.862103

>  <SMR_VSA1>
25.385227

>  <SMR_VSA2>
8.8215923

>  <SMR_VSA3>
22.494022

>  <SMR_VSA4>
0

>  <SMR_VSA5>
222.74521

>  <SMR_VSA6>
7.7454643

>  <SMR_VSA7>
66.652031

>  <TPSA>
46.529999

>  <VAdjEq>
0.42228913

>  <VAdjMa>
5.8579812

>  <VDistEq>
3.4980328

>  <VDistMa>
9.0854006

>  <vdw_area>
351.45026

>  <vdw_vol>
522.84015

>  <vsa_acc>
13.566921

>  <vsa_acid>
0

>  <vsa_base>
0

>  <vsa_don>
0

>  <vsa_hyd>
276.47858

>  <vsa_other>
17.212255

>  <vsa_pol>
27.133842

>  <Weight>
356.50598

>  <weinerPath>
1675

>  <weinerPol>
47

>  <zagreb>
144

$$$$