O=C1CC[C@@]2([C@@H]3[C@H]([C@@H]4CC[C@H](O)[C@]4(CC3)C)CCC2=C1)C
  MOE2013           2D

 21 24  0  0  1  0  0  0  0  0999 V2000
    0.0000    0.0000    0.0000 O   0  0  0  0  0  0  0  0  0  0  0  0
   -1.5000    0.0130    0.0000 C   0  0  0  0  0  0  0  0  0  0  0  0
   -2.2390    1.3180    0.0000 C   0  0  0  0  0  0  0  0  0  0  0  0
   -3.7390    1.3300    0.0000 C   0  0  0  0  0  0  0  0  0  0  0  0
   -4.5000    0.0380    0.0000 C   0  0  2  0  0  0  0  0  0  0  0  0
   -6.0000    0.0500    0.0000 C   0  0  2  0  0  0  0  0  0  0  0  0
   -6.7610   -1.2430    0.0000 C   0  0  2  0  0  0  0  0  0  0  0  0
   -8.2610   -1.2300    0.0000 C   0  0  2  0  0  0  0  0  0  0  0  0
   -9.2740   -2.3360    0.0000 C   0  0  0  0  0  0  0  0  0  0  0  0
  -10.6390   -1.7150    0.0000 C   0  0  0  0  0  0  0  0  0  0  0  0
  -10.4690   -0.2240    0.0000 C   0  0  2  0  0  0  0  0  0  0  0  0
  -11.5760    0.7890    0.0000 O   0  0  0  0  0  0  0  0  0  0  0  0
   -9.0000    0.0750    0.0000 C   0  0  1  0  0  0  0  0  0  0  0  0
   -8.2390    1.3680    0.0000 C   0  0  0  0  0  0  0  0  0  0  0  0
   -6.7390    1.3550    0.0000 C   0  0  0  0  0  0  0  0  0  0  0  0
   -9.8710    1.2960    0.0000 C   0  0  0  0  0  0  0  0  0  0  0  0
   -6.0210   -2.5480    0.0000 C   0  0  0  0  0  0  0  0  0  0  0  0
   -4.5220   -2.5600    0.0000 C   0  0  0  0  0  0  0  0  0  0  0  0
   -3.7610   -1.2680    0.0000 C   0  0  0  0  0  0  0  0  0  0  0  0
   -2.2610   -1.2800    0.0000 C   0  0  0  0  0  0  0  0  0  0  0  0
   -5.2620    1.3300    0.0000 C   0  0  0  0  0  0  0  0  0  0  0  0
  1  2  2  0  0  0  0
  2  3  1  0  0  0  0
  2 20  1  0  0  0  0
  3  4  1  0  0  0  0
  4  5  1  0  0  0  0
  5  6  1  0  0  0  0
  5 19  1  0  0  0  0
  5 21  1  6  0  0  0
  6  7  1  0  0  0  0
  6 15  1  6  0  0  0
  7  8  1  0  0  0  0
  7 17  1  1  0  0  0
  8  9  1  6  0  0  0
  8 13  1  0  0  0  0
  9 10  1  0  0  0  0
 10 11  1  0  0  0  0
 11 12  1  6  0  0  0
 11 13  1  0  0  0  0
 13 14  1  0  0  0  0
 13 16  1  6  0  0  0
 14 15  1  0  0  0  0
 17 18  1  0  0  0  0
 18 19  1  0  0  0  0
 19 20  2  0  0  0  0
M  END
>  <Index>
1738

>  <ID>
HT2017

>  <class>
1

>  <apol>
53.714203

>  <ast_fraglike>
0

>  <ast_fraglike_ext>
0

>  <ast_violation>
1

>  <ast_violation_ext>
1

>  <a_acc>
2

>  <a_acid>
0

>  <a_aro>
0

>  <a_base>
0

>  <a_count>
49

>  <a_don>
1

>  <a_donacc>
3

>  <a_heavy>
21

>  <a_hyd>
18

>  <a_IC>
57.804222

>  <a_ICM>
1.179678

>  <a_nB>
0

>  <a_nBr>
0

>  <a_nC>
19

>  <a_nCl>
0

>  <a_nF>
0

>  <a_nH>
28

>  <a_nI>
0

>  <a_nN>
0

>  <a_nO>
2

>  <a_nP>
0

>  <a_nS>
0

>  <balabanJ>
1.6248019

>  <BCUT_PEOE_0>
-2.9446707

>  <BCUT_PEOE_1>
-0.50304943

>  <BCUT_PEOE_2>
0.4300794

>  <BCUT_PEOE_3>
2.9549

>  <BCUT_SLOGP_0>
-2.8633175

>  <BCUT_SLOGP_1>
-0.4351674

>  <BCUT_SLOGP_2>
0.49570382

>  <BCUT_SLOGP_3>
3.0334787

>  <BCUT_SMR_0>
-2.6883721

>  <BCUT_SMR_1>
-0.32993549

>  <BCUT_SMR_2>
0.61834627

>  <BCUT_SMR_3>
3.2088025

>  <bpol>
31.567797

>  <b_1rotN>
0

>  <b_1rotR>
0

>  <b_ar>
0

>  <b_count>
52

>  <b_double>
2

>  <b_heavy>
24

>  <b_max1len>
3

>  <b_rotN>
0

>  <b_rotR>
0

>  <b_single>
50

>  <b_triple>
0

>  <chi0>
14.828063

>  <chi0v>
13.399068

>  <chi0v_C>
12.543606

>  <chi0_C>
12.828063

>  <chi1>
9.9491606

>  <chi1v>
8.8695717

>  <chi1v_C>
8.4072495

>  <chi1_C>
8.7944603

>  <chiral>
6

>  <chiral_u>
0

>  <density>
0.67664641

>  <diameter>
10

>  <FCharge>
0

>  <GCUT_PEOE_0>
-0.80398434

>  <GCUT_PEOE_1>
-0.3770704

>  <GCUT_PEOE_2>
0.010118846

>  <GCUT_PEOE_3>
3.2596712

>  <GCUT_SLOGP_0>
-0.88367218

>  <GCUT_SLOGP_1>
-0.29868373

>  <GCUT_SLOGP_2>
-0.0070103933

>  <GCUT_SLOGP_3>
3.3473959

>  <GCUT_SMR_0>
-0.53926247

>  <GCUT_SMR_1>
-0.22427599

>  <GCUT_SMR_2>
0.12877046

>  <GCUT_SMR_3>
3.4866769

>  <Kier1>
14.583333

>  <Kier2>
4.7468772

>  <Kier3>
1.9262782

>  <KierA1>
13.410684

>  <KierA2>
4.3459916

>  <KierA3>
1.7576534

>  <KierFlex>
2.7753675

>  <lip_acc>
2

>  <lip_don>
1

>  <lip_druglike>
1

>  <lip_violation>
0

>  <logP(o/w)>
3.102

>  <logS>
-4.4640698

>  <mr>
8.313427

>  <mutagenic>
0

>  <nmol>
1

>  <opr_brigid>
20

>  <opr_leadlike>
1

>  <opr_nring>
4

>  <opr_nrot>
0

>  <opr_violation>
0

>  <PC+>
0

>  <PC->
0

>  <PEOE_PC+>
1.2582747

>  <PEOE_PC->
-1.2582747

>  <PEOE_RPC+>
0.16673627

>  <PEOE_RPC->
0.31093264

>  <PEOE_VSA+0>
115.33596

>  <PEOE_VSA+1>
13.4357

>  <PEOE_VSA+2>
0

>  <PEOE_VSA+3>
8.458519

>  <PEOE_VSA+4>
10.324173

>  <PEOE_VSA+5>
0

>  <PEOE_VSA+6>
0

>  <PEOE_VSA-0>
73.164093

>  <PEOE_VSA-1>
39.703896

>  <PEOE_VSA-2>
0

>  <PEOE_VSA-3>
0

>  <PEOE_VSA-4>
0

>  <PEOE_VSA-5>
13.566921

>  <PEOE_VSA-6>
7.7675405

>  <PEOE_VSA_FHYD>
0.88763845

>  <PEOE_VSA_FNEG>
0.47630599

>  <PEOE_VSA_FPNEG>
0.075719416

>  <PEOE_VSA_FPOL>
0.11236156

>  <PEOE_VSA_FPOS>
0.52369404

>  <PEOE_VSA_FPPOS>
0.036642142

>  <PEOE_VSA_HYD>
250.09818

>  <PEOE_VSA_NEG>
134.20245

>  <PEOE_VSA_PNEG>
21.334461

>  <PEOE_VSA_POL>
31.658634

>  <PEOE_VSA_POS>
147.55435

>  <PEOE_VSA_PPOS>
10.324173

>  <petitjean>
0.5

>  <petitjeanSC>
1

>  <Q_PC+>
0

>  <Q_PC->
0

>  <Q_RPC+>
0

>  <Q_RPC->
0

>  <Q_VSA_FHYD>
1

>  <Q_VSA_FNEG>
0

>  <Q_VSA_FPNEG>
0

>  <Q_VSA_FPOL>
0

>  <Q_VSA_FPOS>
1

>  <Q_VSA_FPPOS>
0

>  <Q_VSA_HYD>
281.75681

>  <Q_VSA_NEG>
0

>  <Q_VSA_PNEG>
0

>  <Q_VSA_POL>
0

>  <Q_VSA_POS>
281.75681

>  <Q_VSA_PPOS>
0

>  <radius>
5

>  <reactive>
1

>  <rings>
4

>  <RPC+>
0

>  <RPC->
0

>  <rsynth>
0

>  <SlogP>
3.8792

>  <SlogP_VSA0>
25.385227

>  <SlogP_VSA1>
5.6876111

>  <SlogP_VSA2>
30.330866

>  <SlogP_VSA3>
0

>  <SlogP_VSA4>
13.232388

>  <SlogP_VSA5>
3.185575

>  <SlogP_VSA6>
0

>  <SlogP_VSA7>
17.643185

>  <SlogP_VSA8>
150.94725

>  <SlogP_VSA9>
66.652031

>  <SMR>
8.2716799

>  <SMR_VSA0>
23.862217

>  <SMR_VSA1>
25.385227

>  <SMR_VSA2>
13.232388

>  <SMR_VSA3>
9.6542244

>  <SMR_VSA4>
0

>  <SMR_VSA5>
168.59042

>  <SMR_VSA6>
5.6876111

>  <SMR_VSA7>
66.652031

>  <TPSA>
37.299999

>  <VAdjEq>
0.49641782

>  <VAdjMa>
5.5849624

>  <VDistEq>
2.9431849

>  <VDistMa>
8.50912

>  <vdw_area>
281.75681

>  <vdw_vol>
426.26547

>  <vsa_acc>
13.566921

>  <vsa_acid>
0

>  <vsa_base>
0

>  <vsa_don>
0

>  <vsa_hyd>
218.38603

>  <vsa_other>
8.458519

>  <vsa_pol>
27.133842

>  <Weight>
288.431

>  <weinerPath>
802

>  <weinerPol>
44

>  <zagreb>
126

$$$$