S(=O)(=O)(Nc1ncccc1)c1ccc(N=Nc2cc(C(O)=O)c(O)cc2)cc1
  MOE2013           2D

 28 30  0  0  0  0  0  0  0  0999 V2000
    0.0000    0.0000    0.0000 S   0  0  0  0  0  0  0  0  0  0  0  0
    0.0020   -1.5000    0.0000 O   0  0  0  0  0  0  0  0  0  0  0  0
   -0.0020    1.5000    0.0000 O   0  0  0  0  0  0  0  0  0  0  0  0
    1.5000    0.0020    0.0000 N   0  0  0  0  0  0  0  0  0  0  0  0
    2.2520   -1.2960    0.0000 C   0  0  0  0  0  0  0  0  0  0  0  0
    3.7520   -1.2940    0.0000 N   0  0  0  0  0  0  0  0  0  0  0  0
    4.5040   -2.5920    0.0000 C   0  0  0  0  0  0  0  0  0  0  0  0
    3.7550   -3.8920    0.0000 C   0  0  0  0  0  0  0  0  0  0  0  0
    2.2550   -3.8940    0.0000 C   0  0  0  0  0  0  0  0  0  0  0  0
    1.5040   -2.5960    0.0000 C   0  0  0  0  0  0  0  0  0  0  0  0
   -1.5000   -0.0020    0.0000 C   0  0  0  0  0  0  0  0  0  0  0  0
   -2.2480   -1.3020    0.0000 C   0  0  0  0  0  0  0  0  0  0  0  0
   -3.7480   -1.3040    0.0000 C   0  0  0  0  0  0  0  0  0  0  0  0
   -4.5000   -0.0060    0.0000 C   0  0  0  0  0  0  0  0  0  0  0  0
   -6.0000   -0.0080    0.0000 N   0  0  0  0  0  0  0  0  0  0  0  0
   -6.7520    1.2900    0.0000 N   0  0  0  0  0  0  0  0  0  0  0  0
   -8.2520    1.2880    0.0000 C   0  0  0  0  0  0  0  0  0  0  0  0
   -9.0040    2.5860    0.0000 C   0  0  0  0  0  0  0  0  0  0  0  0
  -10.5040    2.5840    0.0000 C   0  0  0  0  0  0  0  0  0  0  0  0
  -11.2550    3.8820    0.0000 C   0  0  0  0  0  0  0  0  0  0  0  0
  -10.5070    5.1820    0.0000 O   0  0  0  0  0  0  0  0  0  0  0  0
  -12.7550    3.8800    0.0000 O   0  0  0  0  0  0  0  0  0  0  0  0
  -11.2520    1.2840    0.0000 C   0  0  0  0  0  0  0  0  0  0  0  0
  -12.7520    1.2820    0.0000 O   0  0  0  0  0  0  0  0  0  0  0  0
  -10.5000   -0.0140    0.0000 C   0  0  0  0  0  0  0  0  0  0  0  0
   -9.0000   -0.0120    0.0000 C   0  0  0  0  0  0  0  0  0  0  0  0
   -3.7520    1.2940    0.0000 C   0  0  0  0  0  0  0  0  0  0  0  0
   -2.2520    1.2960    0.0000 C   0  0  0  0  0  0  0  0  0  0  0  0
  1  2  2  0  0  0  0
  1  3  2  0  0  0  0
  1  4  1  0  0  0  0
  1 11  1  0  0  0  0
  4  5  1  0  0  0  0
  5  6  1  0  0  0  0
  5 10  2  0  0  0  0
  6  7  2  0  0  0  0
  7  8  1  0  0  0  0
  8  9  2  0  0  0  0
  9 10  1  0  0  0  0
 11 12  1  0  0  0  0
 11 28  2  0  0  0  0
 12 13  2  0  0  0  0
 13 14  1  0  0  0  0
 14 15  1  0  0  0  0
 14 27  2  0  0  0  0
 15 16  2  3  0  0  0
 16 17  1  0  0  0  0
 17 18  1  0  0  0  0
 17 26  2  0  0  0  0
 18 19  2  0  0  0  0
 19 20  1  0  0  0  0
 19 23  1  0  0  0  0
 20 21  1  0  0  0  0
 20 22  2  0  0  0  0
 23 24  1  0  0  0  0
 23 25  2  0  0  0  0
 25 26  1  0  0  0  0
 27 28  1  0  0  0  0
M  END
>  <Index>
1728

>  <ID>
HT1952

>  <class>
1

>  <apol>
52.325104

>  <ast_fraglike>
0

>  <ast_fraglike_ext>
0

>  <ast_violation>
4

>  <ast_violation_ext>
6

>  <a_acc>
8

>  <a_acid>
0

>  <a_aro>
18

>  <a_base>
0

>  <a_count>
42

>  <a_don>
4

>  <a_donacc>
12

>  <a_heavy>
28

>  <a_hyd>
16

>  <a_IC>
78.506073

>  <a_ICM>
1.8691922

>  <a_nB>
0

>  <a_nBr>
0

>  <a_nC>
18

>  <a_nCl>
0

>  <a_nF>
0

>  <a_nH>
14

>  <a_nI>
0

>  <a_nN>
4

>  <a_nO>
5

>  <a_nP>
0

>  <a_nS>
1

>  <balabanJ>
1.38028

>  <BCUT_PEOE_0>
-2.3266885

>  <BCUT_PEOE_1>
-0.66464531

>  <BCUT_PEOE_2>
0.72716302

>  <BCUT_PEOE_3>
2.4248669

>  <BCUT_SLOGP_0>
-2.4304619

>  <BCUT_SLOGP_1>
-0.57329291

>  <BCUT_SLOGP_2>
0.80645877

>  <BCUT_SLOGP_3>
2.4200699

>  <BCUT_SMR_0>
-1.9834197

>  <BCUT_SMR_1>
-0.51473147

>  <BCUT_SMR_2>
0.8814683

>  <BCUT_SMR_3>
2.7662632

>  <bpol>
26.038898

>  <b_1rotN>
6

>  <b_1rotR>
0.2

>  <b_ar>
18

>  <b_count>
44

>  <b_double>
2

>  <b_heavy>
30

>  <b_max1len>
3

>  <b_rotN>
6

>  <b_rotR>
0.2

>  <b_single>
24

>  <b_triple>
0

>  <chi0>
20.148054

>  <chi0v>
15.03641

>  <chi0v_C>
9.850853

>  <chi0_C>
11.819627

>  <chi1>
13.348174

>  <chi1v>
9.353178

>  <chi1v_C>
5.0980763

>  <chi1_C>
7.3409014

>  <chiral>
0

>  <chiral_u>
0

>  <density>
0.84527099

>  <diameter>
16

>  <FCharge>
0

>  <GCUT_PEOE_0>
-0.87271923

>  <GCUT_PEOE_1>
-0.47345036

>  <GCUT_PEOE_2>
0.12726136

>  <GCUT_PEOE_3>
2.4072735

>  <GCUT_SLOGP_0>
-0.94338423

>  <GCUT_SLOGP_1>
-0.37291819

>  <GCUT_SLOGP_2>
0.16959108

>  <GCUT_SLOGP_3>
2.5258727

>  <GCUT_SMR_0>
-0.4279649

>  <GCUT_SMR_1>
-0.22231689

>  <GCUT_SMR_2>
0.26852313

>  <GCUT_SMR_3>
2.6998067

>  <Kier1>
22.68

>  <Kier2>
10.346939

>  <Kier3>
6.4975009

>  <KierA1>
16.61956

>  <KierA2>
7.4880877

>  <KierA3>
4.6606207

>  <KierFlex>
4.4445977

>  <lip_acc>
9

>  <lip_don>
3

>  <lip_druglike>
1

>  <lip_violation>
0

>  <logP(o/w)>
3.2379999

>  <logS>
-3.60009

>  <mr>
10.241264

>  <mutagenic>
1

>  <nmol>
1

>  <opr_brigid>
19

>  <opr_leadlike>
1

>  <opr_nring>
3

>  <opr_nrot>
5

>  <opr_violation>
1

>  <PC+>
0

>  <PC->
0

>  <PEOE_PC+>
2.4226878

>  <PEOE_PC->
-2.4226878

>  <PEOE_RPC+>
0.12364715

>  <PEOE_RPC->
0.18160787

>  <PEOE_VSA+0>
35.700371

>  <PEOE_VSA+1>
79.604424

>  <PEOE_VSA+2>
0

>  <PEOE_VSA+3>
10.105608

>  <PEOE_VSA+4>
20.648346

>  <PEOE_VSA+5>
18.893101

>  <PEOE_VSA+6>
0

>  <PEOE_VSA-0>
61.274521

>  <PEOE_VSA-1>
53.510628

>  <PEOE_VSA-2>
53.388123

>  <PEOE_VSA-3>
0

>  <PEOE_VSA-4>
0

>  <PEOE_VSA-5>
13.566921

>  <PEOE_VSA-6>
21.217657

>  <PEOE_VSA_FHYD>
0.79797751

>  <PEOE_VSA_FNEG>
0.55165124

>  <PEOE_VSA_FPNEG>
0.094546512

>  <PEOE_VSA_FPOL>
0.20202246

>  <PEOE_VSA_FPOS>
0.44834873

>  <PEOE_VSA_FPPOS>
0.10747596

>  <PEOE_VSA_HYD>
293.58368

>  <PEOE_VSA_NEG>
202.95786

>  <PEOE_VSA_PNEG>
34.784576

>  <PEOE_VSA_POL>
74.326027

>  <PEOE_VSA_POS>
164.95184

>  <PEOE_VSA_PPOS>
39.541447

>  <petitjean>
0.5

>  <petitjeanSC>
1

>  <Q_PC+>
0

>  <Q_PC->
0

>  <Q_RPC+>
0

>  <Q_RPC->
0

>  <Q_VSA_FHYD>
1

>  <Q_VSA_FNEG>
0

>  <Q_VSA_FPNEG>
0

>  <Q_VSA_FPOL>
0

>  <Q_VSA_FPOS>
1

>  <Q_VSA_FPPOS>
0

>  <Q_VSA_HYD>
367.9097

>  <Q_VSA_NEG>
0

>  <Q_VSA_PNEG>
0

>  <Q_VSA_POL>
0

>  <Q_VSA_POS>
367.9097

>  <Q_VSA_PPOS>
0

>  <radius>
8

>  <reactive>
1

>  <rings>
3

>  <RPC+>
0

>  <RPC->
0

>  <rsynth>
1

>  <SlogP>
3.7016001

>  <SlogP_VSA0>
25.385227

>  <SlogP_VSA1>
89.107681

>  <SlogP_VSA2>
6.6407428

>  <SlogP_VSA3>
25.385227

>  <SlogP_VSA4>
27.047791

>  <SlogP_VSA5>
34.876747

>  <SlogP_VSA6>
0

>  <SlogP_VSA7>
193.64619

>  <SlogP_VSA8>
0

>  <SlogP_VSA9>
13.084844

>  <SMR>
10.07296

>  <SMR_VSA0>
72.033905

>  <SMR_VSA1>
75.496773

>  <SMR_VSA2>
26.935961

>  <SMR_VSA3>
8.4290028

>  <SMR_VSA4>
24.246412

>  <SMR_VSA5>
193.64619

>  <SMR_VSA6>
7.7454643

>  <SMR_VSA7>
6.6407428

>  <TPSA>
141.31

>  <VAdjEq>
0.38983503

>  <VAdjMa>
5.9068904

>  <VDistEq>
3.8178589

>  <VDistMa>
9.2752714

>  <vdw_area>
367.9097

>  <vdw_vol>
471.32693

>  <vsa_acc>
56.54118

>  <vsa_acid>
0

>  <vsa_base>
0

>  <vsa_don>
8.0752068

>  <vsa_hyd>
206.63521

>  <vsa_other>
36.004669

>  <vsa_pol>
105.31715

>  <Weight>
398.39899

>  <weinerPath>
2428

>  <weinerPol>
42

>  <zagreb>
144

$$$$