Clc1cc2nc(ccc2cc1)C=Cc1cc(ccc1)[C@H](SCC1(CC1)CC(O)=O)CCc1ccccc1C(O)(C)C
  MOE2013           2D

 41 45  0  0  1  0  0  0  0  0999 V2000
    0.0000    0.0000    0.0000 Cl  0  0  0  0  0  0  0  0  0  0  0  0
   -1.3030   -0.7430    0.0000 C   0  0  0  0  0  0  0  0  0  0  0  0
   -2.5980    0.0130    0.0000 C   0  0  0  0  0  0  0  0  0  0  0  0
   -3.9010   -0.7300    0.0000 C   0  0  0  0  0  0  0  0  0  0  0  0
   -5.1960    0.0270    0.0000 N   0  0  0  0  0  0  0  0  0  0  0  0
   -6.4990   -0.7160    0.0000 C   0  0  0  0  0  0  0  0  0  0  0  0
   -6.5070   -2.2160    0.0000 C   0  0  0  0  0  0  0  0  0  0  0  0
   -5.2120   -2.9730    0.0000 C   0  0  0  0  0  0  0  0  0  0  0  0
   -3.9090   -2.2300    0.0000 C   0  0  0  0  0  0  0  0  0  0  0  0
   -2.6140   -2.9870    0.0000 C   0  0  0  0  0  0  0  0  0  0  0  0
   -1.3110   -2.2430    0.0000 C   0  0  0  0  0  0  0  0  0  0  0  0
   -7.7940    0.0400    0.0000 C   0  0  0  0  0  0  0  0  0  0  0  0
   -9.0970   -0.7030    0.0000 C   0  0  0  0  0  0  0  0  0  0  0  0
  -10.3920    0.0540    0.0000 C   0  0  0  0  0  0  0  0  0  0  0  0
  -11.6950   -0.6900    0.0000 C   0  0  0  0  0  0  0  0  0  0  0  0
  -12.9900    0.0670    0.0000 C   0  0  0  0  0  0  0  0  0  0  0  0
  -12.9820    1.5670    0.0000 C   0  0  0  0  0  0  0  0  0  0  0  0
  -11.6800    2.3100    0.0000 C   0  0  0  0  0  0  0  0  0  0  0  0
  -10.3840    1.5540    0.0000 C   0  0  0  0  0  0  0  0  0  0  0  0
  -14.2930   -0.6760    0.0000 C   0  0  2  0  0  0  0  0  0  0  0  0
  -15.5880    0.0800    0.0000 S   0  0  0  0  0  0  0  0  0  0  0  0
  -15.5810    1.5800    0.0000 C   0  0  0  0  0  0  0  0  0  0  0  0
  -16.8760    2.3370    0.0000 C   0  0  0  0  0  0  0  0  0  0  0  0
  -18.0700    1.4300    0.0000 C   0  0  0  0  0  0  0  0  0  0  0  0
  -18.2590    2.9180    0.0000 C   0  0  0  0  0  0  0  0  0  0  0  0
  -15.8100    3.3920    0.0000 C   0  0  0  0  0  0  0  0  0  0  0  0
  -16.1900    4.8430    0.0000 C   0  0  0  0  0  0  0  0  0  0  0  0
  -17.6370    5.2390    0.0000 O   0  0  0  0  0  0  0  0  0  0  0  0
  -15.1240    5.8980    0.0000 O   0  0  0  0  0  0  0  0  0  0  0  0
  -14.3010   -2.1760    0.0000 C   0  0  0  0  0  0  0  0  0  0  0  0
  -15.6040   -2.9200    0.0000 C   0  0  0  0  0  0  0  0  0  0  0  0
  -15.6110   -4.4200    0.0000 C   0  0  0  0  0  0  0  0  0  0  0  0
  -14.3160   -5.1760    0.0000 C   0  0  0  0  0  0  0  0  0  0  0  0
  -14.3240   -6.6760    0.0000 C   0  0  0  0  0  0  0  0  0  0  0  0
  -15.6270   -7.4200    0.0000 C   0  0  0  0  0  0  0  0  0  0  0  0
  -16.9220   -6.6630    0.0000 C   0  0  0  0  0  0  0  0  0  0  0  0
  -16.9140   -5.1630    0.0000 C   0  0  0  0  0  0  0  0  0  0  0  0
  -18.2090   -4.4060    0.0000 C   0  0  0  0  0  0  0  0  0  0  0  0
  -17.4530   -3.1110    0.0000 O   0  0  0  0  0  0  0  0  0  0  0  0
  -18.9660   -5.7010    0.0000 C   0  0  0  0  0  0  0  0  0  0  0  0
  -19.5050   -3.6490    0.0000 C   0  0  0  0  0  0  0  0  0  0  0  0
  1  2  1  0  0  0  0
  2  3  1  0  0  0  0
  2 11  2  0  0  0  0
  3  4  2  0  0  0  0
  4  5  1  0  0  0  0
  4  9  1  0  0  0  0
  5  6  2  0  0  0  0
  6  7  1  0  0  0  0
  6 12  1  0  0  0  0
  7  8  2  0  0  0  0
  8  9  1  0  0  0  0
  9 10  2  0  0  0  0
 10 11  1  0  0  0  0
 12 13  2  3  0  0  0
 13 14  1  0  0  0  0
 14 15  2  0  0  0  0
 14 19  1  0  0  0  0
 15 16  1  0  0  0  0
 16 17  2  0  0  0  0
 17 18  1  0  0  0  0
 18 19  2  0  0  0  0
 20 16  1  1  0  0  0
 20 21  1  0  0  0  0
 20 30  1  0  0  0  0
 21 22  1  0  0  0  0
 22 23  1  0  0  0  0
 23 24  1  0  0  0  0
 23 25  1  0  0  0  0
 23 26  1  0  0  0  0
 24 25  1  0  0  0  0
 26 27  1  0  0  0  0
 27 28  1  0  0  0  0
 27 29  2  0  0  0  0
 30 31  1  0  0  0  0
 31 32  1  0  0  0  0
 32 33  1  0  0  0  0
 32 37  2  0  0  0  0
 33 34  2  0  0  0  0
 34 35  1  0  0  0  0
 35 36  2  0  0  0  0
 36 37  1  0  0  0  0
 37 38  1  0  0  0  0
 38 39  1  0  0  0  0
 38 40  1  0  0  0  0
 38 41  1  0  0  0  0
M  END
>  <Index>
1659

>  <ID>
HT1433

>  <class>
1

>  <apol>
94.190552

>  <ast_fraglike>
0

>  <ast_fraglike_ext>
0

>  <ast_violation>
3

>  <ast_violation_ext>
4

>  <a_acc>
4

>  <a_acid>
0

>  <a_aro>
22

>  <a_base>
0

>  <a_count>
77

>  <a_don>
3

>  <a_donacc>
7

>  <a_heavy>
41

>  <a_hyd>
36

>  <a_IC>
112.14547

>  <a_ICM>
1.4564347

>  <a_nB>
0

>  <a_nBr>
0

>  <a_nC>
35

>  <a_nCl>
1

>  <a_nF>
0

>  <a_nH>
36

>  <a_nI>
0

>  <a_nN>
1

>  <a_nO>
3

>  <a_nP>
0

>  <a_nS>
1

>  <balabanJ>
1.1588976

>  <BCUT_PEOE_0>
-2.6146958

>  <BCUT_PEOE_1>
-0.57007474

>  <BCUT_PEOE_2>
0.62663722

>  <BCUT_PEOE_3>
2.8576491

>  <BCUT_SLOGP_0>
-2.5055382

>  <BCUT_SLOGP_1>
-0.4850747

>  <BCUT_SLOGP_2>
0.74679071

>  <BCUT_SLOGP_3>
2.9519398

>  <BCUT_SMR_0>
-2.3388319

>  <BCUT_SMR_1>
-0.42917046

>  <BCUT_SMR_2>
0.81920135

>  <BCUT_SMR_3>
3.118283

>  <bpol>
44.33345

>  <b_1rotN>
12

>  <b_1rotR>
0.26666668

>  <b_ar>
23

>  <b_count>
81

>  <b_double>
2

>  <b_heavy>
45

>  <b_max1len>
8

>  <b_rotN>
12

>  <b_rotR>
0.26666668

>  <b_single>
56

>  <b_triple>
0

>  <chi0>
29.036959

>  <chi0v>
25.088772

>  <chi0v_C>
20.980246

>  <chi0_C>
23.622746

>  <chi1>
19.599905

>  <chi1v>
15.514993

>  <chi1v_C>
12.276362

>  <chi1_C>
15.643109

>  <chiral>
1

>  <chiral_u>
0

>  <density>
0.7322579

>  <diameter>
17

>  <FCharge>
0

>  <GCUT_PEOE_0>
-0.79363519

>  <GCUT_PEOE_1>
-0.39972088

>  <GCUT_PEOE_2>
0.066793762

>  <GCUT_PEOE_3>
2.9117949

>  <GCUT_SLOGP_0>
-0.87274861

>  <GCUT_SLOGP_1>
-0.26807359

>  <GCUT_SLOGP_2>
0.14980321

>  <GCUT_SLOGP_3>
3.058578

>  <GCUT_SMR_0>
-0.52470982

>  <GCUT_SMR_1>
-0.19882423

>  <GCUT_SMR_2>
0.21181998

>  <GCUT_SMR_3>
3.1981287

>  <Kier1>
32.395061

>  <Kier2>
14.4

>  <Kier3>
8.8035364

>  <KierA1>
26.727381

>  <KierA2>
11.820738

>  <KierA3>
7.2006135

>  <KierFlex>
7.7057896

>  <lip_acc>
4

>  <lip_don>
2

>  <lip_druglike>
0

>  <lip_violation>
2

>  <logP(o/w)>
9.1470003

>  <logS>
-8.9109602

>  <mr>
17.027489

>  <mutagenic>
0

>  <nmol>
1

>  <opr_brigid>
27

>  <opr_leadlike>
0

>  <opr_nring>
5

>  <opr_nrot>
12

>  <opr_violation>
4

>  <PC+>
0

>  <PC->
0

>  <PEOE_PC+>
2.5489318

>  <PEOE_PC->
-2.5489318

>  <PEOE_RPC+>
0.10206068

>  <PEOE_RPC->
0.15084641

>  <PEOE_VSA+0>
107.78032

>  <PEOE_VSA+1>
77.37989

>  <PEOE_VSA+2>
0

>  <PEOE_VSA+3>
0

>  <PEOE_VSA+4>
20.648346

>  <PEOE_VSA+5>
14.708499

>  <PEOE_VSA+6>
0

>  <PEOE_VSA-0>
130.15439

>  <PEOE_VSA-1>
164.38589

>  <PEOE_VSA-2>
0

>  <PEOE_VSA-3>
19.760618

>  <PEOE_VSA-4>
5.6825762

>  <PEOE_VSA-5>
13.566921

>  <PEOE_VSA-6>
15.535081

>  <PEOE_VSA_FHYD>
0.87685901

>  <PEOE_VSA_FNEG>
0.612858

>  <PEOE_VSA_FPNEG>
0.061068159

>  <PEOE_VSA_FPOL>
0.123141

>  <PEOE_VSA_FPOS>
0.387142

>  <PEOE_VSA_FPPOS>
0.062072836

>  <PEOE_VSA_HYD>
499.46109

>  <PEOE_VSA_NEG>
349.08548

>  <PEOE_VSA_PNEG>
34.784576

>  <PEOE_VSA_POL>
70.141418

>  <PEOE_VSA_POS>
220.51706

>  <PEOE_VSA_PPOS>
35.356846

>  <petitjean>
0.47058824

>  <petitjeanSC>
0.8888889

>  <Q_PC+>
0

>  <Q_PC->
0

>  <Q_RPC+>
0

>  <Q_RPC->
0

>  <Q_VSA_FHYD>
1

>  <Q_VSA_FNEG>
0

>  <Q_VSA_FPNEG>
0

>  <Q_VSA_FPOL>
0

>  <Q_VSA_FPOS>
1

>  <Q_VSA_FPPOS>
0

>  <Q_VSA_HYD>
569.60254

>  <Q_VSA_NEG>
0

>  <Q_VSA_PNEG>
0

>  <Q_VSA_POL>
0

>  <Q_VSA_POS>
569.60254

>  <Q_VSA_PPOS>
0

>  <radius>
9

>  <reactive>
0

>  <rings>
5

>  <RPC+>
0

>  <RPC->
0

>  <rsynth>
1

>  <SlogP>
9.35497

>  <SlogP_VSA0>
25.385227

>  <SlogP_VSA1>
24.530994

>  <SlogP_VSA2>
23.862217

>  <SlogP_VSA3>
42.61879

>  <SlogP_VSA4>
15.499047

>  <SlogP_VSA5>
18.868406

>  <SlogP_VSA6>
3.5006065

>  <SlogP_VSA7>
234.07849

>  <SlogP_VSA8>
113.53594

>  <SlogP_VSA9>
138.02022

>  <SMR>
17.14786

>  <SMR_VSA0>
23.862217

>  <SMR_VSA1>
42.170757

>  <SMR_VSA2>
25.385227

>  <SMR_VSA3>
21.775608

>  <SMR_VSA4>
4.7171016

>  <SMR_VSA5>
323.70343

>  <SMR_VSA6>
60.265396

>  <SMR_VSA7>
138.02022

>  <TPSA>
70.419998

>  <VAdjEq>
0.30124658

>  <VAdjMa>
6.4918532

>  <VDistEq>
3.9933765

>  <VDistMa>
10.441765

>  <vdw_area>
569.60254

>  <vdw_vol>
800.5321

>  <vsa_acc>
5.6825762

>  <vsa_acid>
0

>  <vsa_base>
0

>  <vsa_don>
0

>  <vsa_hyd>
475.26007

>  <vsa_other>
14.708499

>  <vsa_pol>
46.383339

>  <Weight>
586.19598

>  <weinerPath>
6351

>  <weinerPol>
62

>  <zagreb>
220

$$$$