S(=O)(=O)(NC(=O)NN1CCCCCC1)c1ccc(cc1)C
  MOE2013           2D

 21 22  0  0  0  0  0  0  0  0999 V2000
    0.0000    0.0000    0.0000 S   0  0  0  0  0  0  0  0  0  0  0  0
    0.7550   -1.2960    0.0000 O   0  0  0  0  0  0  0  0  0  0  0  0
   -0.7550    1.2960    0.0000 O   0  0  0  0  0  0  0  0  0  0  0  0
   -1.2960   -0.7550    0.0000 N   0  0  0  0  0  0  0  0  0  0  0  0
   -2.5980   -0.0090    0.0000 C   0  0  0  0  0  0  0  0  0  0  0  0
   -2.6030    1.4910    0.0000 O   0  0  0  0  0  0  0  0  0  0  0  0
   -3.8940   -0.7640    0.0000 N   0  0  0  0  0  0  0  0  0  0  0  0
   -5.1960   -0.0190    0.0000 N   0  0  0  0  0  0  0  0  0  0  0  0
   -5.0890    1.4780    0.0000 C   0  0  0  0  0  0  0  0  0  0  0  0
   -6.1930    2.4930    0.0000 C   0  0  0  0  0  0  0  0  0  0  0  0
   -7.6760    2.2630    0.0000 C   0  0  0  0  0  0  0  0  0  0  0  0
   -8.4210    0.9610    0.0000 C   0  0  0  0  0  0  0  0  0  0  0  0
   -7.8670   -0.4320    0.0000 C   0  0  0  0  0  0  0  0  0  0  0  0
   -6.4320   -0.8680    0.0000 C   0  0  0  0  0  0  0  0  0  0  0  0
    1.2960    0.7550    0.0000 C   0  0  0  0  0  0  0  0  0  0  0  0
    1.2910    2.2550    0.0000 C   0  0  0  0  0  0  0  0  0  0  0  0
    2.5870    3.0090    0.0000 C   0  0  0  0  0  0  0  0  0  0  0  0
    3.8890    2.2640    0.0000 C   0  0  0  0  0  0  0  0  0  0  0  0
    3.8940    0.7640    0.0000 C   0  0  0  0  0  0  0  0  0  0  0  0
    2.5980    0.0090    0.0000 C   0  0  0  0  0  0  0  0  0  0  0  0
    5.1850    3.0190    0.0000 C   0  0  0  0  0  0  0  0  0  0  0  0
  1  2  2  0  0  0  0
  1  3  2  0  0  0  0
  1  4  1  0  0  0  0
  1 15  1  0  0  0  0
  4  5  1  0  0  0  0
  5  6  2  0  0  0  0
  5  7  1  0  0  0  0
  7  8  1  0  0  0  0
  8  9  1  0  0  0  0
  8 14  1  0  0  0  0
  9 10  1  0  0  0  0
 10 11  1  0  0  0  0
 11 12  1  0  0  0  0
 12 13  1  0  0  0  0
 13 14  1  0  0  0  0
 15 16  1  0  0  0  0
 15 20  2  0  0  0  0
 16 17  2  0  0  0  0
 17 18  1  0  0  0  0
 18 19  2  0  0  0  0
 18 21  1  0  0  0  0
 19 20  1  0  0  0  0
M  END
>  <Index>
1749

>  <ID>
HT2079

>  <class>
1

>  <apol>
47.248653

>  <ast_fraglike>
0

>  <ast_fraglike_ext>
0

>  <ast_violation>
2

>  <ast_violation_ext>
4

>  <a_acc>
4

>  <a_acid>
0

>  <a_aro>
6

>  <a_base>
0

>  <a_count>
42

>  <a_don>
2

>  <a_donacc>
6

>  <a_heavy>
21

>  <a_hyd>
13

>  <a_IC>
71.425919

>  <a_ICM>
1.7006172

>  <a_nB>
0

>  <a_nBr>
0

>  <a_nC>
14

>  <a_nCl>
0

>  <a_nF>
0

>  <a_nH>
21

>  <a_nI>
0

>  <a_nN>
3

>  <a_nO>
3

>  <a_nP>
0

>  <a_nS>
1

>  <balabanJ>
1.7820674

>  <BCUT_PEOE_0>
-2.639282

>  <BCUT_PEOE_1>
-0.62774813

>  <BCUT_PEOE_2>
0.45642582

>  <BCUT_PEOE_3>
2.6694503

>  <BCUT_SLOGP_0>
-2.7730176

>  <BCUT_SLOGP_1>
-0.40195996

>  <BCUT_SLOGP_2>
0.6915549

>  <BCUT_SLOGP_3>
2.75771

>  <BCUT_SMR_0>
-2.3600838

>  <BCUT_SMR_1>
-0.35131848

>  <BCUT_SMR_2>
0.65203756

>  <BCUT_SMR_3>
2.938735

>  <bpol>
32.371346

>  <b_1rotN>
3

>  <b_1rotR>
0.13636364

>  <b_ar>
6

>  <b_count>
43

>  <b_double>
1

>  <b_heavy>
22

>  <b_max1len>
3

>  <b_rotN>
5

>  <b_rotR>
0.22727273

>  <b_single>
36

>  <b_triple>
0

>  <chi0>
15.294683

>  <chi0v>
12.948745

>  <chi0v_C>
9.052042

>  <chi0_C>
9.8031187

>  <chi1>
9.9711637

>  <chi1v>
8.6062984

>  <chi1v_C>
4.8213673

>  <chi1_C>
5.7103434

>  <chiral>
0

>  <chiral_u>
0

>  <density>
0.77870381

>  <diameter>
12

>  <FCharge>
0

>  <GCUT_PEOE_0>
-0.940786

>  <GCUT_PEOE_1>
-0.38353553

>  <GCUT_PEOE_2>
0.02635676

>  <GCUT_PEOE_3>
2.5905433

>  <GCUT_SLOGP_0>
-1.1900157

>  <GCUT_SLOGP_1>
-0.33904964

>  <GCUT_SLOGP_2>
0.16418894

>  <GCUT_SLOGP_3>
2.6126757

>  <GCUT_SMR_0>
-0.53036267

>  <GCUT_SMR_1>
-0.19957933

>  <GCUT_SMR_2>
0.17083067

>  <GCUT_SMR_3>
2.8462164

>  <Kier1>
17.355371

>  <Kier2>
8.0222225

>  <Kier3>
5.6055365

>  <KierA1>
15.103413

>  <KierA2>
6.9299917

>  <KierA3>
4.8149996

>  <KierFlex>
4.9841199

>  <lip_acc>
6

>  <lip_don>
2

>  <lip_druglike>
1

>  <lip_violation>
0

>  <logP(o/w)>
1.661

>  <logS>
-2.8539901

>  <mr>
8.2596798

>  <mutagenic>
0

>  <nmol>
1

>  <opr_brigid>
13

>  <opr_leadlike>
1

>  <opr_nring>
2

>  <opr_nrot>
5

>  <opr_violation>
0

>  <PC+>
0

>  <PC->
0

>  <PEOE_PC+>
1.7607954

>  <PEOE_PC->
-1.7607954

>  <PEOE_RPC+>
0.17977495

>  <PEOE_RPC->
0.28000006

>  <PEOE_VSA+0>
114.87524

>  <PEOE_VSA+1>
25.680557

>  <PEOE_VSA+2>
17.440542

>  <PEOE_VSA+3>
8.6190128

>  <PEOE_VSA+4>
10.105608

>  <PEOE_VSA+5>
0

>  <PEOE_VSA+6>
4.1846013

>  <PEOE_VSA-0>
94.885178

>  <PEOE_VSA-1>
17.402626

>  <PEOE_VSA-2>
0

>  <PEOE_VSA-3>
2.5295215

>  <PEOE_VSA-4>
0

>  <PEOE_VSA-5>
0

>  <PEOE_VSA-6>
17.442276

>  <PEOE_VSA_FHYD>
0.89867175

>  <PEOE_VSA_FNEG>
0.42233175

>  <PEOE_VSA_FPNEG>
0.05569673

>  <PEOE_VSA_FPOL>
0.10132827

>  <PEOE_VSA_FPOS>
0.57766825

>  <PEOE_VSA_FPPOS>
0.045631543

>  <PEOE_VSA_HYD>
281.43268

>  <PEOE_VSA_NEG>
132.2596

>  <PEOE_VSA_PNEG>
17.442276

>  <PEOE_VSA_POL>
31.732485

>  <PEOE_VSA_POS>
180.90556

>  <PEOE_VSA_PPOS>
14.29021

>  <petitjean>
0.5

>  <petitjeanSC>
1

>  <Q_PC+>
0

>  <Q_PC->
0

>  <Q_RPC+>
0

>  <Q_RPC->
0

>  <Q_VSA_FHYD>
1

>  <Q_VSA_FNEG>
0

>  <Q_VSA_FPNEG>
0

>  <Q_VSA_FPOL>
0

>  <Q_VSA_FPOS>
1

>  <Q_VSA_FPPOS>
0

>  <Q_VSA_HYD>
313.16516

>  <Q_VSA_NEG>
0

>  <Q_VSA_PNEG>
0

>  <Q_VSA_POL>
0

>  <Q_VSA_POS>
313.16516

>  <Q_VSA_PPOS>
0

>  <radius>
6

>  <reactive>
1

>  <rings>
2

>  <RPC+>
0

>  <RPC->
0

>  <rsynth>
1

>  <SlogP>
1.7739201

>  <SlogP_VSA0>
34.293224

>  <SlogP_VSA1>
56.003437

>  <SlogP_VSA2>
6.6407428

>  <SlogP_VSA3>
36.879158

>  <SlogP_VSA4>
3.185575

>  <SlogP_VSA5>
1.5507339

>  <SlogP_VSA6>
0

>  <SlogP_VSA7>
70.572739

>  <SlogP_VSA8>
75.473625

>  <SlogP_VSA9>
57.188232

>  <SMR>
8.0073204

>  <SMR_VSA0>
72.033905

>  <SMR_VSA1>
3.0017917

>  <SMR_VSA2>
35.84396

>  <SMR_VSA3>
3.185575

>  <SMR_VSA4>
0

>  <SMR_VSA5>
146.04636

>  <SMR_VSA6>
41.709114

>  <SMR_VSA7>
39.966759

>  <TPSA>
78.510002

>  <VAdjEq>
0.46827638

>  <VAdjMa>
5.4594316

>  <VDistEq>
3.3506057

>  <VDistMa>
8.4687557

>  <vdw_area>
313.16516

>  <vdw_vol>
399.90302

>  <vsa_acc>
45.583443

>  <vsa_acid>
0

>  <vsa_base>
0

>  <vsa_don>
17.496246

>  <vsa_hyd>
202.86856

>  <vsa_other>
27.54615

>  <vsa_pol>
63.079689

>  <Weight>
311.40601

>  <weinerPath>
1014

>  <weinerPol>
31

>  <zagreb>
104

$$$$