S(=O)(=O)(NC(=O)NC1CCCCC1)c1ccc(cc1)CCNC(=O)c1ncc(nc1)C
  MOE2013           2D

 31 33  0  0  0  0  0  0  0  0999 V2000
    0.0000    0.0000    0.0000 S   0  0  0  0  0  0  0  0  0  0  0  0
   -0.7540    1.2970    0.0000 O   0  0  0  0  0  0  0  0  0  0  0  0
    0.7540   -1.2970    0.0000 O   0  0  0  0  0  0  0  0  0  0  0  0
   -1.2970   -0.7540    0.0000 N   0  0  0  0  0  0  0  0  0  0  0  0
   -2.5980   -0.0080    0.0000 C   0  0  0  0  0  0  0  0  0  0  0  0
   -2.6030    1.4920    0.0000 O   0  0  0  0  0  0  0  0  0  0  0  0
   -3.8950   -0.7620    0.0000 N   0  0  0  0  0  0  0  0  0  0  0  0
   -5.1960   -0.0160    0.0000 C   0  0  0  0  0  0  0  0  0  0  0  0
   -5.2010    1.4840    0.0000 C   0  0  0  0  0  0  0  0  0  0  0  0
   -6.5020    2.2300    0.0000 C   0  0  0  0  0  0  0  0  0  0  0  0
   -7.7990    1.4760    0.0000 C   0  0  0  0  0  0  0  0  0  0  0  0
   -7.7940   -0.0240    0.0000 C   0  0  0  0  0  0  0  0  0  0  0  0
   -6.4930   -0.7700    0.0000 C   0  0  0  0  0  0  0  0  0  0  0  0
    1.2970    0.7540    0.0000 C   0  0  0  0  0  0  0  0  0  0  0  0
    1.2920    2.2540    0.0000 C   0  0  0  0  0  0  0  0  0  0  0  0
    2.5890    3.0080    0.0000 C   0  0  0  0  0  0  0  0  0  0  0  0
    3.8900    2.2620    0.0000 C   0  0  0  0  0  0  0  0  0  0  0  0
    3.8950    0.7620    0.0000 C   0  0  0  0  0  0  0  0  0  0  0  0
    2.5980    0.0080    0.0000 C   0  0  0  0  0  0  0  0  0  0  0  0
    5.1870    3.0160    0.0000 C   0  0  0  0  0  0  0  0  0  0  0  0
    6.4880    2.2700    0.0000 C   0  0  0  0  0  0  0  0  0  0  0  0
    7.7850    3.0240    0.0000 N   0  0  0  0  0  0  0  0  0  0  0  0
    9.0860    2.2780    0.0000 C   0  0  0  0  0  0  0  0  0  0  0  0
    9.0910    0.7780    0.0000 O   0  0  0  0  0  0  0  0  0  0  0  0
   10.3830    3.0320    0.0000 C   0  0  0  0  0  0  0  0  0  0  0  0
   11.6840    2.2860    0.0000 N   0  0  0  0  0  0  0  0  0  0  0  0
   12.9810    3.0390    0.0000 C   0  0  0  0  0  0  0  0  0  0  0  0
   12.9770    4.5390    0.0000 C   0  0  0  0  0  0  0  0  0  0  0  0
   11.6750    5.2860    0.0000 N   0  0  0  0  0  0  0  0  0  0  0  0
   10.3790    4.5320    0.0000 C   0  0  0  0  0  0  0  0  0  0  0  0
   14.2730    5.2930    0.0000 C   0  0  0  0  0  0  0  0  0  0  0  0
  1  2  2  0  0  0  0
  1  3  2  0  0  0  0
  1  4  1  0  0  0  0
  1 14  1  0  0  0  0
  4  5  1  0  0  0  0
  5  6  2  0  0  0  0
  5  7  1  0  0  0  0
  7  8  1  0  0  0  0
  8  9  1  0  0  0  0
  8 13  1  0  0  0  0
  9 10  1  0  0  0  0
 10 11  1  0  0  0  0
 11 12  1  0  0  0  0
 12 13  1  0  0  0  0
 14 15  1  0  0  0  0
 14 19  2  0  0  0  0
 15 16  2  0  0  0  0
 16 17  1  0  0  0  0
 17 18  2  0  0  0  0
 17 20  1  0  0  0  0
 18 19  1  0  0  0  0
 20 21  1  0  0  0  0
 21 22  1  0  0  0  0
 22 23  1  0  0  0  0
 23 24  2  0  0  0  0
 23 25  1  0  0  0  0
 25 26  1  0  0  0  0
 25 30  2  0  0  0  0
 26 27  2  0  0  0  0
 27 28  1  0  0  0  0
 28 29  2  0  0  0  0
 28 31  1  0  0  0  0
 29 30  1  0  0  0  0
M  END
>  <Index>
1587

>  <ID>
HT0988

>  <class>
1

>  <apol>
66.571411

>  <ast_fraglike>
0

>  <ast_fraglike_ext>
0

>  <ast_violation>
2

>  <ast_violation_ext>
4

>  <a_acc>
6

>  <a_acid>
0

>  <a_aro>
12

>  <a_base>
0

>  <a_count>
58

>  <a_don>
3

>  <a_donacc>
9

>  <a_heavy>
31

>  <a_hyd>
19

>  <a_IC>
99.532631

>  <a_ICM>
1.7160798

>  <a_nB>
0

>  <a_nBr>
0

>  <a_nC>
21

>  <a_nCl>
0

>  <a_nF>
0

>  <a_nH>
27

>  <a_nI>
0

>  <a_nN>
5

>  <a_nO>
4

>  <a_nP>
0

>  <a_nS>
1

>  <balabanJ>
1.3060586

>  <BCUT_PEOE_0>
-2.8065372

>  <BCUT_PEOE_1>
-0.62590206

>  <BCUT_PEOE_2>
0.5795244

>  <BCUT_PEOE_3>
2.7123089

>  <BCUT_SLOGP_0>
-2.7951715

>  <BCUT_SLOGP_1>
-0.50877792

>  <BCUT_SLOGP_2>
0.65408117

>  <BCUT_SLOGP_3>
2.8320704

>  <BCUT_SMR_0>
-2.5291383

>  <BCUT_SMR_1>
-0.42762324

>  <BCUT_SMR_2>
0.71189409

>  <BCUT_SMR_3>
2.9867754

>  <bpol>
42.528587

>  <b_1rotN>
7

>  <b_1rotR>
0.21212122

>  <b_ar>
12

>  <b_count>
60

>  <b_double>
2

>  <b_heavy>
33

>  <b_max1len>
4

>  <b_rotN>
10

>  <b_rotR>
0.30303031

>  <b_single>
46

>  <b_triple>
0

>  <chi0>
22.269375

>  <chi0v>
18.243364

>  <chi0v_C>
12.991199

>  <chi0_C>
14.23384

>  <chi1>
14.831337

>  <chi1v>
11.807601

>  <chi1v_C>
6.8187675

>  <chi1_C>
8.084918

>  <chiral>
0

>  <chiral_u>
0

>  <density>
0.78112388

>  <diameter>
20

>  <FCharge>
0

>  <GCUT_PEOE_0>
-0.91882551

>  <GCUT_PEOE_1>
-0.42604694

>  <GCUT_PEOE_2>
0.064852923

>  <GCUT_PEOE_3>
2.6595347

>  <GCUT_SLOGP_0>
-1.1809707

>  <GCUT_SLOGP_1>
-0.38208824

>  <GCUT_SLOGP_2>
0.16422103

>  <GCUT_SLOGP_3>
2.6879084

>  <GCUT_SMR_0>
-0.52668744

>  <GCUT_SMR_1>
-0.21576932

>  <GCUT_SMR_2>
0.18548316

>  <GCUT_SMR_3>
2.9162171

>  <Kier1>
25.619835

>  <Kier2>
12.459259

>  <Kier3>
8.3730869

>  <KierA1>
20.329933

>  <KierA2>
9.8058567

>  <KierA3>
6.5503683

>  <KierFlex>
6.4307227

>  <lip_acc>
9

>  <lip_don>
3

>  <lip_druglike>
1

>  <lip_violation>
0

>  <logP(o/w)>
1.50253

>  <logS>
-3.04795

>  <mr>
11.928211

>  <mutagenic>
0

>  <nmol>
1

>  <opr_brigid>
18

>  <opr_leadlike>
1

>  <opr_nring>
3

>  <opr_nrot>
8

>  <opr_violation>
1

>  <PC+>
0

>  <PC->
0

>  <PEOE_PC+>
2.7409894

>  <PEOE_PC->
-2.7409894

>  <PEOE_RPC+>
0.1154863

>  <PEOE_RPC->
0.18022944

>  <PEOE_VSA+0>
131.22499

>  <PEOE_VSA+1>
57.656796

>  <PEOE_VSA+2>
24.140093

>  <PEOE_VSA+3>
17.238026

>  <PEOE_VSA+4>
10.105608

>  <PEOE_VSA+5>
12.949531

>  <PEOE_VSA+6>
4.1846013

>  <PEOE_VSA-0>
106.73244

>  <PEOE_VSA-1>
26.103939

>  <PEOE_VSA-2>
0

>  <PEOE_VSA-3>
2.5295215

>  <PEOE_VSA-4>
5.6825762

>  <PEOE_VSA-5>
19.249496

>  <PEOE_VSA-6>
13.840703

>  <PEOE_VSA_FHYD>
0.84706521

>  <PEOE_VSA_FNEG>
0.40343657

>  <PEOE_VSA_FPNEG>
0.089827001

>  <PEOE_VSA_FPOL>
0.15293479

>  <PEOE_VSA_FPOS>
0.59656346

>  <PEOE_VSA_FPPOS>
0.063107789

>  <PEOE_VSA_HYD>
365.62582

>  <PEOE_VSA_NEG>
174.13869

>  <PEOE_VSA_PNEG>
38.772778

>  <PEOE_VSA_POL>
66.01252

>  <PEOE_VSA_POS>
257.49966

>  <PEOE_VSA_PPOS>
27.23974

>  <petitjean>
0.5

>  <petitjeanSC>
1

>  <Q_PC+>
0

>  <Q_PC->
0

>  <Q_RPC+>
0

>  <Q_RPC->
0

>  <Q_VSA_FHYD>
1

>  <Q_VSA_FNEG>
0

>  <Q_VSA_FPNEG>
0

>  <Q_VSA_FPOL>
0

>  <Q_VSA_FPOS>
1

>  <Q_VSA_FPPOS>
0

>  <Q_VSA_HYD>
431.63834

>  <Q_VSA_NEG>
0

>  <Q_VSA_PNEG>
0

>  <Q_VSA_POL>
0

>  <Q_VSA_POS>
431.63834

>  <Q_VSA_PPOS>
0

>  <radius>
10

>  <reactive>
0

>  <rings>
3

>  <RPC+>
0

>  <RPC->
0

>  <rsynth>
1

>  <SlogP>
2.07809

>  <SlogP_VSA0>
52.426498

>  <SlogP_VSA1>
91.83149

>  <SlogP_VSA2>
10.622711

>  <SlogP_VSA3>
18.439579

>  <SlogP_VSA4>
32.561287

>  <SlogP_VSA5>
20.41914

>  <SlogP_VSA6>
0

>  <SlogP_VSA7>
105.00145

>  <SlogP_VSA8>
94.342026

>  <SlogP_VSA9>
57.188232

>  <SMR>
11.49744

>  <SMR_VSA0>
95.896118

>  <SMR_VSA1>
33.57106

>  <SMR_VSA2>
53.977234

>  <SMR_VSA3>
12.681039

>  <SMR_VSA4>
0

>  <SMR_VSA5>
218.21188

>  <SMR_VSA6>
28.528318

>  <SMR_VSA7>
39.966759

>  <TPSA>
130.14999

>  <VAdjEq>
0.36097246

>  <VAdjMa>
6.044394

>  <VDistEq>
4.059814

>  <VDistMa>
9.5601654

>  <vdw_area>
431.63834

>  <vdw_vol>
570.38837

>  <vsa_acc>
70.515518

>  <vsa_acid>
0

>  <vsa_base>
0

>  <vsa_don>
19.440359

>  <vsa_hyd>
274.8837

>  <vsa_other>
40.495682

>  <vsa_pol>
89.955879

>  <Weight>
445.54401

>  <weinerPath>
3430

>  <weinerPol>
44

>  <zagreb>
156

$$$$