O1[C@H](CC)[C@](O)(C)[C@H](O)[C@@H](C)C(=O)[C@@H](C[C@](O)(C)[C@@H](O[C@@H]2O[C@@H](C[C@H](N(C)C)[C@H]2OC(=O)CCC(OCC)=O)C)[C@@H](C)[C@H](O[C@@H]2O[C@@H](C)[C@H](O)[C@](OC)(C2)C)[C@@H](C)C1=O)C
  MOE2013           2D

 60 62  0  0  1  0  0  0  0  0999 V2000
    0.0000    0.0000    0.0000 O   0  0  0  0  0  0  0  0  0  0  0  0
    1.1500    0.8220    0.0000 C   0  0  2  0  0  0  0  0  0  0  0  0
    0.9060    2.3010    0.0000 C   0  0  0  0  0  0  0  0  0  0  0  0
   -0.4980    2.8300    0.0000 C   0  0  0  0  0  0  0  0  0  0  0  0
    2.5810    0.3910    0.0000 C   0  0  2  0  0  0  0  0  0  0  0  0
    3.5550   -0.7500    0.0000 O   0  0  0  0  0  0  0  0  0  0  0  0
    2.1070   -1.0330    0.0000 C   0  0  0  0  0  0  0  0  0  0  0  0
    3.6690    1.4140    0.0000 C   0  0  2  0  0  0  0  0  0  0  0  0
    3.2290    2.8480    0.0000 O   0  0  0  0  0  0  0  0  0  0  0  0
    5.0660    1.1910    0.0000 C   0  0  1  0  0  0  0  0  0  0  0  0
    5.7950    2.5020    0.0000 C   0  0  0  0  0  0  0  0  0  0  0  0
    5.9620    0.1580    0.0000 C   0  0  0  0  0  0  0  0  0  0  0  0
    7.2990    0.8370    0.0000 O   0  0  0  0  0  0  0  0  0  0  0  0
    6.2600   -1.1420    0.0000 C   0  0  1  0  0  0  0  0  0  0  0  0
    5.9120   -2.4630    0.0000 C   0  0  0  0  0  0  0  0  0  0  0  0
    4.7620   -3.2850    0.0000 C   0  0  2  0  0  0  0  0  0  0  0  0
    4.3090   -4.7150    0.0000 O   0  0  0  0  0  0  0  0  0  0  0  0
    5.7190   -4.4400    0.0000 C   0  0  0  0  0  0  0  0  0  0  0  0
    3.3310   -2.8540    0.0000 C   0  0  1  0  0  0  0  0  0  0  0  0
    4.3180   -5.1510    0.0000 O   0  0  0  0  0  0  0  0  0  0  0  0
    3.4200   -6.3530    0.0000 C   0  0  2  0  0  0  0  0  0  0  0  0
    1.9220   -6.4370    0.0000 O   0  0  0  0  0  0  0  0  0  0  0  0
    1.2470   -7.7770    0.0000 C   0  0  1  0  0  0  0  0  0  0  0  0
    2.0690   -9.0310    0.0000 C   0  0  0  0  0  0  0  0  0  0  0  0
    3.5660   -8.9470    0.0000 C   0  0  2  0  0  0  0  0  0  0  0  0
    4.3880  -10.2010    0.0000 N   0  0  0  0  0  0  0  0  0  0  0  0
    3.7130  -11.5410    0.0000 C   0  0  0  0  0  0  0  0  0  0  0  0
    5.8860  -10.1170    0.0000 C   0  0  0  0  0  0  0  0  0  0  0  0
    4.2420   -7.6070    0.0000 C   0  0  1  0  0  0  0  0  0  0  0  0
    5.7020   -7.2640    0.0000 O   0  0  0  0  0  0  0  0  0  0  0  0
    6.9770   -8.0540    0.0000 C   0  0  0  0  0  0  0  0  0  0  0  0
    6.9310   -9.5530    0.0000 O   0  0  0  0  0  0  0  0  0  0  0  0
    8.2990   -7.3440    0.0000 C   0  0  0  0  0  0  0  0  0  0  0  0
    9.5740   -8.1340    0.0000 C   0  0  0  0  0  0  0  0  0  0  0  0
   10.8960   -7.4240    0.0000 C   0  0  0  0  0  0  0  0  0  0  0  0
   12.1710   -8.2140    0.0000 O   0  0  0  0  0  0  0  0  0  0  0  0
   13.4930   -7.5040    0.0000 C   0  0  0  0  0  0  0  0  0  0  0  0
   14.7680   -8.2940    0.0000 C   0  0  0  0  0  0  0  0  0  0  0  0
   10.9420   -5.9250    0.0000 O   0  0  0  0  0  0  0  0  0  0  0  0
   -0.2510   -7.8610    0.0000 C   0  0  0  0  0  0  0  0  0  0  0  0
    2.2430   -3.8770    0.0000 C   0  0  1  0  0  0  0  0  0  0  0  0
    2.4280   -5.3660    0.0000 C   0  0  0  0  0  0  0  0  0  0  0  0
    0.8470   -3.6540    0.0000 C   0  0  2  0  0  0  0  0  0  0  0  0
    0.1180   -4.9650    0.0000 O   0  0  0  0  0  0  0  0  0  0  0  0
   -1.3820   -4.9900    0.0000 C   0  0  2  0  0  0  0  0  0  0  0  0
   -2.1530   -3.7030    0.0000 O   0  0  0  0  0  0  0  0  0  0  0  0
   -3.6530   -3.7280    0.0000 C   0  0  1  0  0  0  0  0  0  0  0  0
   -4.4240   -2.4410    0.0000 C   0  0  0  0  0  0  0  0  0  0  0  0
   -4.3820   -5.0390    0.0000 C   0  0  2  0  0  0  0  0  0  0  0  0
   -5.8810   -5.0630    0.0000 O   0  0  0  0  0  0  0  0  0  0  0  0
   -3.6110   -6.3250    0.0000 C   0  0  2  0  0  0  0  0  0  0  0  0
   -3.5860   -7.8250    0.0000 O   0  0  0  0  0  0  0  0  0  0  0  0
   -4.8730   -8.5960    0.0000 C   0  0  0  0  0  0  0  0  0  0  0  0
   -2.1110   -6.3010    0.0000 C   0  0  0  0  0  0  0  0  0  0  0  0
   -4.8970   -7.0960    0.0000 C   0  0  0  0  0  0  0  0  0  0  0  0
   -0.0500   -2.6210    0.0000 C   0  0  1  0  0  0  0  0  0  0  0  0
   -1.3870   -3.3000    0.0000 C   0  0  0  0  0  0  0  0  0  0  0  0
   -0.3480   -1.3210    0.0000 C   0  0  0  0  0  0  0  0  0  0  0  0
   -1.8480   -1.2970    0.0000 O   0  0  0  0  0  0  0  0  0  0  0  0
    7.7600   -1.1660    0.0000 C   0  0  0  0  0  0  0  0  0  0  0  0
  1  2  1  0  0  0  0
  1 58  1  0  0  0  0
  2  3  1  6  0  0  0
  2  5  1  0  0  0  0
  3  4  1  0  0  0  0
  5  6  1  6  0  0  0
  5  7  1  1  0  0  0
  5  8  1  0  0  0  0
  8  9  1  6  0  0  0
  8 10  1  0  0  0  0
 10 11  1  1  0  0  0
 10 12  1  0  0  0  0
 12 13  2  0  0  0  0
 12 14  1  0  0  0  0
 14 15  1  0  0  0  0
 14 60  1  6  0  0  0
 15 16  1  0  0  0  0
 16 17  1  1  0  0  0
 16 18  1  6  0  0  0
 16 19  1  0  0  0  0
 19 20  1  1  0  0  0
 19 41  1  0  0  0  0
 21 20  1  1  0  0  0
 21 22  1  0  0  0  0
 21 29  1  0  0  0  0
 22 23  1  0  0  0  0
 23 24  1  0  0  0  0
 23 40  1  1  0  0  0
 24 25  1  0  0  0  0
 25 26  1  1  0  0  0
 25 29  1  0  0  0  0
 26 27  1  0  0  0  0
 26 28  1  0  0  0  0
 29 30  1  6  0  0  0
 30 31  1  0  0  0  0
 31 32  2  0  0  0  0
 31 33  1  0  0  0  0
 33 34  1  0  0  0  0
 34 35  1  0  0  0  0
 35 36  1  0  0  0  0
 35 39  2  0  0  0  0
 36 37  1  0  0  0  0
 37 38  1  0  0  0  0
 41 42  1  1  0  0  0
 41 43  1  0  0  0  0
 43 44  1  6  0  0  0
 43 56  1  0  0  0  0
 45 44  1  1  0  0  0
 45 46  1  0  0  0  0
 45 54  1  0  0  0  0
 46 47  1  0  0  0  0
 47 48  1  6  0  0  0
 47 49  1  0  0  0  0
 49 50  1  1  0  0  0
 49 51  1  0  0  0  0
 51 52  1  1  0  0  0
 51 54  1  0  0  0  0
 51 55  1  6  0  0  0
 52 53  1  0  0  0  0
 56 57  1  1  0  0  0
 56 58  1  0  0  0  0
 58 59  2  0  0  0  0
M  END
>  <Index>
1550

>  <ID>
HT0784

>  <class>
1

>  <apol>
139.62148

>  <ast_fraglike>
0

>  <ast_fraglike_ext>
0

>  <ast_violation>
3

>  <ast_violation_ext>
5

>  <a_acc>
14

>  <a_acid>
0

>  <a_aro>
0

>  <a_base>
0

>  <a_count>
135

>  <a_don>
4

>  <a_donacc>
18

>  <a_heavy>
60

>  <a_hyd>
37

>  <a_IC>
190.87932

>  <a_ICM>
1.4139209

>  <a_nB>
0

>  <a_nBr>
0

>  <a_nC>
43

>  <a_nCl>
0

>  <a_nF>
0

>  <a_nH>
75

>  <a_nI>
0

>  <a_nN>
1

>  <a_nO>
16

>  <a_nP>
0

>  <a_nS>
0

>  <balabanJ>
2.200964

>  <BCUT_PEOE_0>
-2.8162642

>  <BCUT_PEOE_1>
-0.30031911

>  <BCUT_PEOE_2>
0.17503683

>  <BCUT_PEOE_3>
2.8425839

>  <BCUT_SLOGP_0>
-2.9118032

>  <BCUT_SLOGP_1>
-0.20520571

>  <BCUT_SLOGP_2>
0.18963617

>  <BCUT_SLOGP_3>
2.7734563

>  <BCUT_SMR_0>
-2.5934765

>  <BCUT_SMR_1>
-0.056199703

>  <BCUT_SMR_2>
0.27312744

>  <BCUT_SMR_3>
3.0561664

>  <bpol>
103.13052

>  <b_1rotN>
12

>  <b_1rotR>
0.19354838

>  <b_ar>
0

>  <b_count>
137

>  <b_double>
4

>  <b_heavy>
62

>  <b_max1len>
5

>  <b_rotN>
14

>  <b_rotR>
0.22580644

>  <b_single>
133

>  <b_triple>
0

>  <chi0>
45.653606

>  <chi0v>
38.245049

>  <chi0v_C>
31.110001

>  <chi0_C>
31.419403

>  <chi1>
27.751217

>  <chi1v>
21.491007

>  <chi1v_C>
14.687829

>  <chi1_C>
14.931194

>  <chiral>
18

>  <chiral_u>
0

>  <density>
0.74018472

>  <diameter>
19

>  <FCharge>
0

>  <GCUT_PEOE_0>
-0.85620856

>  <GCUT_PEOE_1>
-0.36002153

>  <GCUT_PEOE_2>
-0.095298372

>  <GCUT_PEOE_3>
3.5881534

>  <GCUT_SLOGP_0>
-0.96106601

>  <GCUT_SLOGP_1>
-0.31758758

>  <GCUT_SLOGP_2>
-0.037

>  <GCUT_SLOGP_3>
3.5579062

>  <GCUT_SMR_0>
-0.53521216

>  <GCUT_SMR_1>
-0.15576439

>  <GCUT_SMR_2>
-0.0029527918

>  <GCUT_SMR_3>
3.7876911

>  <Kier1>
54.334026

>  <Kier2>
22.947855

>  <Kier3>
13.540569

>  <KierA1>
51.103378

>  <KierA2>
21.56049

>  <KierA3>
12.712675

>  <KierFlex>
18.363565

>  <lip_acc>
17

>  <lip_don>
4

>  <lip_druglike>
0

>  <lip_violation>
2

>  <logP(o/w)>
3.26174

>  <logS>
-4.6713099

>  <mr>
21.932316

>  <mutagenic>
0

>  <nmol>
1

>  <opr_brigid>
26

>  <opr_leadlike>
0

>  <opr_nring>
2

>  <opr_nrot>
29

>  <opr_violation>
3

>  <PC+>
0

>  <PC->
0

>  <PEOE_PC+>
6.1882415

>  <PEOE_PC->
-6.1882415

>  <PEOE_RPC+>
0.043283783

>  <PEOE_RPC->
0.062728889

>  <PEOE_VSA+0>
293.10916

>  <PEOE_VSA+1>
108.36166

>  <PEOE_VSA+2>
18.268377

>  <PEOE_VSA+3>
22.309816

>  <PEOE_VSA+4>
41.296692

>  <PEOE_VSA+5>
44.125496

>  <PEOE_VSA+6>
0

>  <PEOE_VSA-0>
185.06738

>  <PEOE_VSA-1>
93.738388

>  <PEOE_VSA-2>
0

>  <PEOE_VSA-3>
0

>  <PEOE_VSA-4>
0

>  <PEOE_VSA-5>
54.267685

>  <PEOE_VSA-6>
51.100208

>  <PEOE_VSA_FHYD>
0.79071885

>  <PEOE_VSA_FNEG>
0.42140713

>  <PEOE_VSA_FPNEG>
0.11557998

>  <PEOE_VSA_FPOL>
0.20928115

>  <PEOE_VSA_FPOS>
0.57859284

>  <PEOE_VSA_FPPOS>
0.093701169

>  <PEOE_VSA_HYD>
720.8548

>  <PEOE_VSA_NEG>
384.17368

>  <PEOE_VSA_PNEG>
105.3679

>  <PEOE_VSA_POL>
190.79008

>  <PEOE_VSA_POS>
527.47119

>  <PEOE_VSA_PPOS>
85.422188

>  <petitjean>
0.47368422

>  <petitjeanSC>
0.89999998

>  <Q_PC+>
0

>  <Q_PC->
0

>  <Q_RPC+>
0

>  <Q_RPC->
0

>  <Q_VSA_FHYD>
1

>  <Q_VSA_FNEG>
0

>  <Q_VSA_FPNEG>
0

>  <Q_VSA_FPOL>
0

>  <Q_VSA_FPOS>
1

>  <Q_VSA_FPPOS>
0

>  <Q_VSA_HYD>
911.6449

>  <Q_VSA_NEG>
0

>  <Q_VSA_PNEG>
0

>  <Q_VSA_POL>
0

>  <Q_VSA_POS>
911.6449

>  <Q_VSA_PPOS>
0

>  <radius>
10

>  <reactive>
1

>  <rings>
3

>  <RPC+>
0

>  <RPC->
0

>  <rsynth>
0.69999999

>  <SlogP>
2.6798

>  <SlogP_VSA0>
101.54091

>  <SlogP_VSA1>
32.048317

>  <SlogP_VSA2>
256.23215

>  <SlogP_VSA3>
20.926258

>  <SlogP_VSA4>
17.643185

>  <SlogP_VSA5>
101.17825

>  <SlogP_VSA6>
0

>  <SlogP_VSA7>
0

>  <SlogP_VSA8>
113.21043

>  <SlogP_VSA9>
366.58615

>  <SMR>
21.599819

>  <SMR_VSA0>
183.44797

>  <SMR_VSA1>
104.66522

>  <SMR_VSA2>
17.643185

>  <SMR_VSA3>
72.784164

>  <SMR_VSA4>
0

>  <SMR_VSA5>
113.21043

>  <SMR_VSA6>
49.850262

>  <SMR_VSA7>
467.7644

>  <TPSA>
226.28

>  <VAdjEq>
0.2162127

>  <VAdjMa>
6.9541965

>  <VDistEq>
3.9705863

>  <VDistMa>
11.597111

>  <vdw_area>
911.6449

>  <vdw_vol>
1164.6606

>  <vsa_acc>
66.786461

>  <vsa_acid>
0

>  <vsa_base>
0

>  <vsa_don>
0

>  <vsa_hyd>
627.06158

>  <vsa_other>
89.512283

>  <vsa_pol>
121.05415

>  <Weight>
862.06396

>  <weinerPath>
14155

>  <weinerPol>
113

>  <zagreb>
310

$$$$