s1cccc1CCN(CCC)C1CCc2c(C1)cccc2O
  MOE2013           2D

 22 24  0  0  1  0  0  0  0  0999 V2000
    0.0000    0.0000    0.0000 S   0  0  0  0  0  0  0  0  0  0  0  0
    1.4690   -0.3030    0.0000 C   0  0  0  0  0  0  0  0  0  0  0  0
    2.2110    1.0000    0.0000 C   0  0  0  0  0  0  0  0  0  0  0  0
    1.2010    2.1090    0.0000 C   0  0  0  0  0  0  0  0  0  0  0  0
   -0.1660    1.4910    0.0000 C   0  0  0  0  0  0  0  0  0  0  0  0
   -1.4690    2.2330    0.0000 C   0  0  0  0  0  0  0  0  0  0  0  0
   -2.7640    1.4760    0.0000 C   0  0  0  0  0  0  0  0  0  0  0  0
   -4.0670    2.2180    0.0000 N   0  0  3  0  0  0  0  0  0  0  0  0
   -4.0760    3.7180    0.0000 C   0  0  0  0  0  0  0  0  0  0  0  0
   -2.7810    4.4760    0.0000 C   0  0  0  0  0  0  0  0  0  0  0  0
   -2.7900    5.9750    0.0000 C   0  0  0  0  0  0  0  0  0  0  0  0
   -5.3620    1.4600    0.0000 C   0  0  3  0  0  0  0  0  0  0  0  0
   -5.3530   -0.0400    0.0000 C   0  0  0  0  0  0  0  0  0  0  0  0
   -6.6470   -0.7970    0.0000 C   0  0  0  0  0  0  0  0  0  0  0  0
   -7.9510   -0.0550    0.0000 C   0  0  0  0  0  0  0  0  0  0  0  0
   -7.9600    1.4450    0.0000 C   0  0  0  0  0  0  0  0  0  0  0  0
   -6.6650    2.2030    0.0000 C   0  0  0  0  0  0  0  0  0  0  0  0
   -9.2630    2.1870    0.0000 C   0  0  0  0  0  0  0  0  0  0  0  0
  -10.5580    1.4300    0.0000 C   0  0  0  0  0  0  0  0  0  0  0  0
  -10.5490   -0.0700    0.0000 C   0  0  0  0  0  0  0  0  0  0  0  0
   -9.2450   -0.8130    0.0000 C   0  0  0  0  0  0  0  0  0  0  0  0
   -9.2370   -2.3130    0.0000 O   0  0  0  0  0  0  0  0  0  0  0  0
  1  2  1  0  0  0  0
  1  5  1  0  0  0  0
  2  3  2  0  0  0  0
  3  4  1  0  0  0  0
  4  5  2  0  0  0  0
  5  6  1  0  0  0  0
  6  7  1  0  0  0  0
  7  8  1  0  0  0  0
  8  9  1  0  0  0  0
  8 12  1  0  0  0  0
  9 10  1  0  0  0  0
 10 11  1  0  0  0  0
 12 13  1  0  0  0  0
 12 17  1  0  0  0  0
 13 14  1  0  0  0  0
 14 15  1  0  0  0  0
 15 16  1  0  0  0  0
 15 21  2  0  0  0  0
 16 17  1  0  0  0  0
 16 18  2  0  0  0  0
 18 19  1  0  0  0  0
 19 20  2  0  0  0  0
 20 21  1  0  0  0  0
 21 22  1  0  0  0  0
M  END
>  <Index>
1720

>  <ID>
HT1851

>  <class>
1

>  <apol>
54.911823

>  <ast_fraglike>
0

>  <ast_fraglike_ext>
0

>  <ast_violation>
2

>  <ast_violation_ext>
3

>  <a_acc>
2

>  <a_acid>
0

>  <a_aro>
11

>  <a_base>
0

>  <a_count>
47

>  <a_don>
1

>  <a_donacc>
3

>  <a_heavy>
22

>  <a_hyd>
20

>  <a_IC>
64.258652

>  <a_ICM>
1.3672053

>  <a_nB>
0

>  <a_nBr>
0

>  <a_nC>
19

>  <a_nCl>
0

>  <a_nF>
0

>  <a_nH>
25

>  <a_nI>
0

>  <a_nN>
1

>  <a_nO>
1

>  <a_nP>
0

>  <a_nS>
1

>  <balabanJ>
1.5232106

>  <BCUT_PEOE_0>
-2.7729216

>  <BCUT_PEOE_1>
-0.55461198

>  <BCUT_PEOE_2>
0.65722322

>  <BCUT_PEOE_3>
2.6945546

>  <BCUT_SLOGP_0>
-2.8098035

>  <BCUT_SLOGP_1>
-0.44298714

>  <BCUT_SLOGP_2>
0.68594885

>  <BCUT_SLOGP_3>
2.707494

>  <BCUT_SMR_0>
-2.4956956

>  <BCUT_SMR_1>
-0.39793023

>  <BCUT_SMR_2>
0.81006616

>  <BCUT_SMR_3>
2.9679611

>  <bpol>
31.590176

>  <b_1rotN>
6

>  <b_1rotR>
0.25

>  <b_ar>
11

>  <b_count>
49

>  <b_double>
0

>  <b_heavy>
24

>  <b_max1len>
7

>  <b_rotN>
6

>  <b_rotR>
0.25

>  <b_single>
38

>  <b_triple>
0

>  <chi0>
15.363597

>  <chi0v>
14.110372

>  <chi0v_C>
11.991199

>  <chi0_C>
13.07914

>  <chi1>
10.775188

>  <chi1v>
9.2173624

>  <chi1v_C>
6.7836223

>  <chi1_C>
8.13976

>  <chiral>
1

>  <chiral_u>
1

>  <density>
0.69235796

>  <diameter>
11

>  <FCharge>
0

>  <GCUT_PEOE_0>
-0.85611069

>  <GCUT_PEOE_1>
-0.36915168

>  <GCUT_PEOE_2>
0.081100181

>  <GCUT_PEOE_3>
2.8184819

>  <GCUT_SLOGP_0>
-0.95704216

>  <GCUT_SLOGP_1>
-0.24817006

>  <GCUT_SLOGP_2>
0.13762157

>  <GCUT_SLOGP_3>
2.8871872

>  <GCUT_SMR_0>
-0.52406818

>  <GCUT_SMR_1>
-0.18770717

>  <GCUT_SMR_2>
0.19810519

>  <GCUT_SMR_3>
3.0773628

>  <Kier1>
16.84375

>  <Kier2>
8.203125

>  <Kier3>
4.3083901

>  <KierA1>
15.018139

>  <KierA2>
7.2719998

>  <KierA3>
3.8034286

>  <KierFlex>
4.9641776

>  <lip_acc>
2

>  <lip_don>
1

>  <lip_druglike>
1

>  <lip_violation>
0

>  <logP(o/w)>
4.5630002

>  <logS>
-3.50651

>  <mr>
9.5475225

>  <mutagenic>
0

>  <nmol>
1

>  <opr_brigid>
16

>  <opr_leadlike>
1

>  <opr_nring>
3

>  <opr_nrot>
7

>  <opr_violation>
0

>  <PC+>
0

>  <PC->
0

>  <PEOE_PC+>
1.4164008

>  <PEOE_PC->
-1.4164008

>  <PEOE_RPC+>
0.15343454

>  <PEOE_RPC->
0.25384948

>  <PEOE_VSA+0>
97.380623

>  <PEOE_VSA+1>
29.78545

>  <PEOE_VSA+2>
0

>  <PEOE_VSA+3>
19.760618

>  <PEOE_VSA+4>
10.324173

>  <PEOE_VSA+5>
0

>  <PEOE_VSA+6>
0

>  <PEOE_VSA-0>
73.370872

>  <PEOE_VSA-1>
71.951897

>  <PEOE_VSA-2>
14.230966

>  <PEOE_VSA-3>
0

>  <PEOE_VSA-4>
0

>  <PEOE_VSA-5>
0

>  <PEOE_VSA-6>
7.7675405

>  <PEOE_VSA_FHYD>
0.94425982

>  <PEOE_VSA_FNEG>
0.51551336

>  <PEOE_VSA_FPNEG>
0.02393163

>  <PEOE_VSA_FPOL>
0.055740193

>  <PEOE_VSA_FPOS>
0.48448664

>  <PEOE_VSA_FPPOS>
0.031808563

>  <PEOE_VSA_HYD>
306.48041

>  <PEOE_VSA_NEG>
167.32127

>  <PEOE_VSA_PNEG>
7.7675405

>  <PEOE_VSA_POL>
18.091713

>  <PEOE_VSA_POS>
157.25085

>  <PEOE_VSA_PPOS>
10.324173

>  <petitjean>
0.45454547

>  <petitjeanSC>
0.83333331

>  <Q_PC+>
0

>  <Q_PC->
0

>  <Q_RPC+>
0

>  <Q_RPC->
0

>  <Q_VSA_FHYD>
1

>  <Q_VSA_FNEG>
0

>  <Q_VSA_FPNEG>
0

>  <Q_VSA_FPOL>
0

>  <Q_VSA_FPOS>
1

>  <Q_VSA_FPPOS>
0

>  <Q_VSA_HYD>
324.57214

>  <Q_VSA_NEG>
0

>  <Q_VSA_PNEG>
0

>  <Q_VSA_POL>
0

>  <Q_VSA_POS>
324.57214

>  <Q_VSA_PPOS>
0

>  <radius>
6

>  <reactive>
0

>  <rings>
3

>  <RPC+>
0

>  <RPC->
0

>  <rsynth>
1

>  <SlogP>
4.2656102

>  <SlogP_VSA0>
25.385227

>  <SlogP_VSA1>
3.1243138

>  <SlogP_VSA2>
3.9819686

>  <SlogP_VSA3>
36.879158

>  <SlogP_VSA4>
7.7295513

>  <SlogP_VSA5>
56.605217

>  <SlogP_VSA6>
0

>  <SlogP_VSA7>
104.03193

>  <SlogP_VSA8>
37.736813

>  <SlogP_VSA9>
69.84713

>  <SMR>
9.3806801

>  <SMR_VSA0>
0

>  <SMR_VSA1>
28.509541

>  <SMR_VSA2>
0

>  <SMR_VSA3>
16.954948

>  <SMR_VSA4>
0

>  <SMR_VSA5>
198.37396

>  <SMR_VSA6>
36.879158

>  <SMR_VSA7>
64.603706

>  <TPSA>
23.469999

>  <VAdjEq>
0.46637034

>  <VAdjMa>
5.5849624

>  <VDistEq>
3.3039775

>  <VDistMa>
8.6213303

>  <vdw_area>
324.57214

>  <vdw_vol>
455.66168

>  <vsa_acc>
0

>  <vsa_acid>
0

>  <vsa_base>
0

>  <vsa_don>
0

>  <vsa_hyd>
289.39734

>  <vsa_other>
0

>  <vsa_pol>
13.566921

>  <Weight>
315.48099

>  <weinerPath>
1112

>  <weinerPol>
31

>  <zagreb>
112

$$$$