O=C(N)N1c2c(C=Cc3c1cccc3)cccc2
  MOE2013           2D

 18 20  0  0  0  0  0  0  0  0999 V2000
    0.0000    0.0000    0.0000 O   0  0  0  0  0  0  0  0  0  0  0  0
   -1.2990   -0.7500    0.0000 C   0  0  0  0  0  0  0  0  0  0  0  0
   -2.5980    0.0000    0.0000 N   0  0  0  0  0  0  0  0  0  0  0  0
   -1.2990   -2.2500    0.0000 N   0  0  0  0  0  0  0  0  0  0  0  0
   -2.6500   -2.9020    0.0000 C   0  0  0  0  0  0  0  0  0  0  0  0
   -2.9840   -4.3640    0.0000 C   0  0  0  0  0  0  0  0  0  0  0  0
   -2.0490   -5.5370    0.0000 C   0  0  0  0  0  0  0  0  0  0  0  0
   -0.5490   -5.5390    0.0000 C   0  0  0  0  0  0  0  0  0  0  0  0
    0.3860   -4.3640    0.0000 C   0  0  0  0  0  0  0  0  0  0  0  0
    0.0520   -2.9020    0.0000 C   0  0  0  0  0  0  0  0  0  0  0  0
    1.1520   -1.8820    0.0000 C   0  0  0  0  0  0  0  0  0  0  0  0
    2.5850   -2.3240    0.0000 C   0  0  0  0  0  0  0  0  0  0  0  0
    2.9190   -3.7860    0.0000 C   0  0  0  0  0  0  0  0  0  0  0  0
    1.8190   -4.8060    0.0000 C   0  0  0  0  0  0  0  0  0  0  0  0
   -4.4170   -4.8070    0.0000 C   0  0  0  0  0  0  0  0  0  0  0  0
   -5.5170   -3.7860    0.0000 C   0  0  0  0  0  0  0  0  0  0  0  0
   -5.1830   -2.3240    0.0000 C   0  0  0  0  0  0  0  0  0  0  0  0
   -3.7500   -1.8820    0.0000 C   0  0  0  0  0  0  0  0  0  0  0  0
  1  2  2  0  0  0  0
  2  3  1  0  0  0  0
  2  4  1  0  0  0  0
  4  5  1  0  0  0  0
  4 10  1  0  0  0  0
  5  6  1  0  0  0  0
  5 18  2  0  0  0  0
  6  7  1  0  0  0  0
  6 15  2  0  0  0  0
  7  8  2  0  0  0  0
  8  9  1  0  0  0  0
  9 10  1  0  0  0  0
  9 14  2  0  0  0  0
 10 11  2  0  0  0  0
 11 12  1  0  0  0  0
 12 13  2  0  0  0  0
 13 14  1  0  0  0  0
 15 16  1  0  0  0  0
 16 17  2  0  0  0  0
 17 18  1  0  0  0  0
M  END
>  <Index>
1461

>  <ID>
HT0371

>  <class>
1

>  <apol>
37.403515

>  <ast_fraglike>
0

>  <ast_fraglike_ext>
0

>  <ast_violation>
1

>  <ast_violation_ext>
1

>  <a_acc>
1

>  <a_acid>
0

>  <a_aro>
12

>  <a_base>
0

>  <a_count>
30

>  <a_don>
1

>  <a_donacc>
2

>  <a_heavy>
18

>  <a_hyd>
14

>  <a_IC>
43.583809

>  <a_ICM>
1.4527936

>  <a_nB>
0

>  <a_nBr>
0

>  <a_nC>
15

>  <a_nCl>
0

>  <a_nF>
0

>  <a_nH>
12

>  <a_nI>
0

>  <a_nN>
2

>  <a_nO>
1

>  <a_nP>
0

>  <a_nS>
0

>  <balabanJ>
1.8639469

>  <BCUT_PEOE_0>
-2.3351021

>  <BCUT_PEOE_1>
-0.62030143

>  <BCUT_PEOE_2>
0.66835022

>  <BCUT_PEOE_3>
2.3282804

>  <BCUT_SLOGP_0>
-2.5334697

>  <BCUT_SLOGP_1>
-0.49475202

>  <BCUT_SLOGP_2>
0.7985543

>  <BCUT_SLOGP_3>
2.4928625

>  <BCUT_SMR_0>
-1.9638009

>  <BCUT_SMR_1>
-0.45955586

>  <BCUT_SMR_2>
0.82997555

>  <BCUT_SMR_3>
2.6986876

>  <bpol>
15.396484

>  <b_1rotN>
1

>  <b_1rotR>
0.050000001

>  <b_ar>
12

>  <b_count>
32

>  <b_double>
2

>  <b_heavy>
20

>  <b_max1len>
2

>  <b_rotN>
1

>  <b_rotR>
0.050000001

>  <b_single>
18

>  <b_triple>
0

>  <chi0>
12.53517

>  <chi0v>
9.706315

>  <chi0v_C>
8.2735023

>  <chi0_C>
9.957819

>  <chi1>
8.7708569

>  <chi1v>
5.7290039

>  <chi1v_C>
4.5653839

>  <chi1_C>
6.6161566

>  <chiral>
0

>  <chiral_u>
0

>  <density>
0.71363193

>  <diameter>
7

>  <FCharge>
0

>  <GCUT_PEOE_0>
-0.80043483

>  <GCUT_PEOE_1>
-0.44129482

>  <GCUT_PEOE_2>
0.079760909

>  <GCUT_PEOE_3>
2.4710379

>  <GCUT_SLOGP_0>
-1.3705581

>  <GCUT_SLOGP_1>
-0.30042276

>  <GCUT_SLOGP_2>
0.18579361

>  <GCUT_SLOGP_3>
2.6344945

>  <GCUT_SMR_0>
-0.42910278

>  <GCUT_SMR_1>
-0.20166165

>  <GCUT_SMR_2>
0.21277213

>  <GCUT_SMR_3>
2.8066838

>  <Kier1>
13.005

>  <Kier2>
5.5510206

>  <Kier3>
2.5246549

>  <KierA1>
8.2133408

>  <KierA2>
3.4000528

>  <KierA3>
1.5114913

>  <KierFlex>
1.551433

>  <lip_acc>
3

>  <lip_don>
2

>  <lip_druglike>
1

>  <lip_violation>
0

>  <logP(o/w)>
2.9679999

>  <logS>
-3.8538301

>  <mr>
7.0657024

>  <mutagenic>
0

>  <nmol>
1

>  <opr_brigid>
17

>  <opr_leadlike>
1

>  <opr_nring>
3

>  <opr_nrot>
0

>  <opr_violation>
0

>  <PC+>
0

>  <PC->
0

>  <PEOE_PC+>
1.3874395

>  <PEOE_PC->
-1.3874395

>  <PEOE_RPC+>
0.23431435

>  <PEOE_RPC->
0.25320071

>  <PEOE_VSA+0>
0

>  <PEOE_VSA+1>
56.052963

>  <PEOE_VSA+2>
0

>  <PEOE_VSA+3>
17.238026

>  <PEOE_VSA+4>
0

>  <PEOE_VSA+5>
0

>  <PEOE_VSA+6>
17.440542

>  <PEOE_VSA-0>
28.926888

>  <PEOE_VSA-1>
98.03923

>  <PEOE_VSA-2>
0

>  <PEOE_VSA-3>
0

>  <PEOE_VSA-4>
13.566921

>  <PEOE_VSA-5>
0

>  <PEOE_VSA-6>
6.6511192

>  <PEOE_VSA_FHYD>
0.84171456

>  <PEOE_VSA_FNEG>
0.61864001

>  <PEOE_VSA_FPNEG>
0.084979855

>  <PEOE_VSA_FPOL>
0.15828541

>  <PEOE_VSA_FPOS>
0.38136002

>  <PEOE_VSA_FPPOS>
0.073305562

>  <PEOE_VSA_HYD>
200.25711

>  <PEOE_VSA_NEG>
147.18416

>  <PEOE_VSA_PNEG>
20.21804

>  <PEOE_VSA_POL>
37.658585

>  <PEOE_VSA_POS>
90.731529

>  <PEOE_VSA_PPOS>
17.440542

>  <petitjean>
0.42857143

>  <petitjeanSC>
0.75

>  <Q_PC+>
0

>  <Q_PC->
0

>  <Q_RPC+>
0

>  <Q_RPC->
0

>  <Q_VSA_FHYD>
1

>  <Q_VSA_FNEG>
0

>  <Q_VSA_FPNEG>
0

>  <Q_VSA_FPOL>
0

>  <Q_VSA_FPOS>
1

>  <Q_VSA_FPPOS>
0

>  <Q_VSA_HYD>
237.9157

>  <Q_VSA_NEG>
0

>  <Q_VSA_PNEG>
0

>  <Q_VSA_POL>
0

>  <Q_VSA_POS>
237.9157

>  <Q_VSA_PPOS>
0

>  <radius>
4

>  <reactive>
0

>  <rings>
3

>  <RPC+>
0

>  <RPC->
0

>  <rsynth>
1

>  <SlogP>
3.3872001

>  <SlogP_VSA0>
36.0215

>  <SlogP_VSA1>
4.8299561

>  <SlogP_VSA2>
0

>  <SlogP_VSA3>
0

>  <SlogP_VSA4>
6.37115

>  <SlogP_VSA5>
0

>  <SlogP_VSA6>
0

>  <SlogP_VSA7>
141.14548

>  <SlogP_VSA8>
35.286369

>  <SlogP_VSA9>
29.375711

>  <SMR>
7.3534398

>  <SMR_VSA0>
23.862217

>  <SMR_VSA1>
0

>  <SMR_VSA2>
3.1243138

>  <SMR_VSA3>
6.37115

>  <SMR_VSA4>
38.410683

>  <SMR_VSA5>
141.14548

>  <SMR_VSA6>
40.116325

>  <SMR_VSA7>
0

>  <TPSA>
46.330002

>  <VAdjEq>
0.53921634

>  <VAdjMa>
5.321928

>  <VDistEq>
2.6019619

>  <VDistMa>
8.0982037

>  <vdw_area>
237.9157

>  <vdw_vol>
331.08664

>  <vsa_acc>
13.566921

>  <vsa_acid>
0

>  <vsa_base>
0

>  <vsa_don>
17.742489

>  <vsa_hyd>
175.90112

>  <vsa_other>
17.440542

>  <vsa_pol>
31.30941

>  <Weight>
236.274

>  <weinerPath>
521

>  <weinerPol>
33

>  <zagreb>
96

$$$$