OC(=O)[C@H](C)c1ccc(cc1)CC(C)C
  MOE2013           2D

 15 15  0  0  1  0  0  0  0  0999 V2000
    0.0000    0.0000    0.0000 O   0  0  0  0  0  0  0  0  0  0  0  0
    1.5000    0.0010    0.0000 C   0  0  0  0  0  0  0  0  0  0  0  0
    2.2510   -1.2970    0.0000 O   0  0  0  0  0  0  0  0  0  0  0  0
    2.2490    1.3010    0.0000 C   0  0  2  0  0  0  0  0  0  0  0  0
    1.4980    2.5990    0.0000 C   0  0  0  0  0  0  0  0  0  0  0  0
    3.7490    1.3020    0.0000 C   0  0  0  0  0  0  0  0  0  0  0  0
    4.5000    0.0030    0.0000 C   0  0  0  0  0  0  0  0  0  0  0  0
    6.0000    0.0040    0.0000 C   0  0  0  0  0  0  0  0  0  0  0  0
    6.7490    1.3040    0.0000 C   0  0  0  0  0  0  0  0  0  0  0  0
    5.9980    2.6030    0.0000 C   0  0  0  0  0  0  0  0  0  0  0  0
    4.4980    2.6010    0.0000 C   0  0  0  0  0  0  0  0  0  0  0  0
    8.2490    1.3050    0.0000 C   0  0  0  0  0  0  0  0  0  0  0  0
    8.9980    2.6050    0.0000 C   0  0  0  0  0  0  0  0  0  0  0  0
    8.2470    3.9030    0.0000 C   0  0  0  0  0  0  0  0  0  0  0  0
   10.4980    2.6060    0.0000 C   0  0  0  0  0  0  0  0  0  0  0  0
  1  2  1  0  0  0  0
  2  3  2  0  0  0  0
  2  4  1  0  0  0  0
  4  5  1  6  0  0  0
  4  6  1  0  0  0  0
  6  7  1  0  0  0  0
  6 11  2  0  0  0  0
  7  8  2  0  0  0  0
  8  9  1  0  0  0  0
  9 10  2  0  0  0  0
  9 12  1  0  0  0  0
 10 11  1  0  0  0  0
 12 13  1  0  0  0  0
 13 14  1  0  0  0  0
 13 15  1  0  0  0  0
M  END
>  <Index>
1594

>  <ID>
HT1069

>  <class>
1

>  <apol>
36.486275

>  <ast_fraglike>
0

>  <ast_fraglike_ext>
0

>  <ast_violation>
1

>  <ast_violation_ext>
2

>  <a_acc>
2

>  <a_acid>
0

>  <a_aro>
6

>  <a_base>
0

>  <a_count>
33

>  <a_don>
2

>  <a_donacc>
4

>  <a_heavy>
15

>  <a_hyd>
12

>  <a_IC>
41.30064

>  <a_ICM>
1.2515346

>  <a_nB>
0

>  <a_nBr>
0

>  <a_nC>
13

>  <a_nCl>
0

>  <a_nF>
0

>  <a_nH>
18

>  <a_nI>
0

>  <a_nN>
0

>  <a_nO>
2

>  <a_nP>
0

>  <a_nS>
0

>  <balabanJ>
2.3077445

>  <BCUT_PEOE_0>
-2.6159275

>  <BCUT_PEOE_1>
-0.54485768

>  <BCUT_PEOE_2>
0.50477314

>  <BCUT_PEOE_3>
2.5565081

>  <BCUT_SLOGP_0>
-2.5210288

>  <BCUT_SLOGP_1>
-0.47702608

>  <BCUT_SLOGP_2>
0.50369388

>  <BCUT_SLOGP_3>
2.6573513

>  <BCUT_SMR_0>
-2.3624966

>  <BCUT_SMR_1>
-0.35797486

>  <BCUT_SMR_2>
0.64097345

>  <BCUT_SMR_3>
2.8158619

>  <bpol>
20.635727

>  <b_1rotN>
4

>  <b_1rotR>
0.26666668

>  <b_ar>
6

>  <b_count>
33

>  <b_double>
1

>  <b_heavy>
15

>  <b_max1len>
4

>  <b_rotN>
4

>  <b_rotR>
0.26666668

>  <b_single>
26

>  <b_triple>
0

>  <chi0>
11.422285

>  <chi0v>
9.5266705

>  <chi0v_C>
8.6712084

>  <chi0_C>
9.4222851

>  <chi1>
7.0029078

>  <chi1v>
5.3203011

>  <chi1v_C>
4.89257

>  <chi1_C>
5.848207

>  <chiral>
1

>  <chiral_u>
0

>  <density>
0.66634852

>  <diameter>
9

>  <FCharge>
0

>  <GCUT_PEOE_0>
-0.79578137

>  <GCUT_PEOE_1>
-0.3956525

>  <GCUT_PEOE_2>
0.061622169

>  <GCUT_PEOE_3>
2.4652193

>  <GCUT_SLOGP_0>
-0.87404597

>  <GCUT_SLOGP_1>
-0.2825194

>  <GCUT_SLOGP_2>
0.073873818

>  <GCUT_SLOGP_3>
2.574919

>  <GCUT_SMR_0>
-0.53118223

>  <GCUT_SMR_1>
-0.22078934

>  <GCUT_SMR_2>
0.17755085

>  <GCUT_SMR_3>
2.7258718

>  <Kier1>
13.066667

>  <Kier2>
5.915

>  <Kier3>
4.1652894

>  <KierA1>
10.32718

>  <KierA2>
4.5893908

>  <KierA3>
3.1831889

>  <KierFlex>
3.1596975

>  <lip_acc>
2

>  <lip_don>
1

>  <lip_druglike>
1

>  <lip_violation>
0

>  <logP(o/w)>
3.6140001

>  <logS>
-3.6371

>  <mr>
6.1857176

>  <mutagenic>
0

>  <nmol>
1

>  <opr_brigid>
6

>  <opr_leadlike>
1

>  <opr_nring>
1

>  <opr_nrot>
4

>  <opr_violation>
0

>  <PC+>
0

>  <PC->
0

>  <PEOE_PC+>
1.1512718

>  <PEOE_PC->
-1.1512718

>  <PEOE_RPC+>
0.23173973

>  <PEOE_RPC->
0.28735113

>  <PEOE_VSA+0>
55.45002

>  <PEOE_VSA+1>
17.061544

>  <PEOE_VSA+2>
0

>  <PEOE_VSA+3>
0

>  <PEOE_VSA+4>
10.324173

>  <PEOE_VSA+5>
14.708499

>  <PEOE_VSA+6>
0

>  <PEOE_VSA-0>
31.86607

>  <PEOE_VSA-1>
86.514969

>  <PEOE_VSA-2>
0

>  <PEOE_VSA-3>
0

>  <PEOE_VSA-4>
0

>  <PEOE_VSA-5>
13.566921

>  <PEOE_VSA-6>
7.7675405

>  <PEOE_VSA_FHYD>
0.80457228

>  <PEOE_VSA_FNEG>
0.58887154

>  <PEOE_VSA_FPNEG>
0.089920275

>  <PEOE_VSA_FPOL>
0.19542773

>  <PEOE_VSA_FPOS>
0.41112849

>  <PEOE_VSA_FPPOS>
0.10550746

>  <PEOE_VSA_HYD>
190.89261

>  <PEOE_VSA_NEG>
139.7155

>  <PEOE_VSA_PNEG>
21.334461

>  <PEOE_VSA_POL>
46.367134

>  <PEOE_VSA_POS>
97.544235

>  <PEOE_VSA_PPOS>
25.032671

>  <petitjean>
0.44444445

>  <petitjeanSC>
0.80000001

>  <Q_PC+>
0

>  <Q_PC->
0

>  <Q_RPC+>
0

>  <Q_RPC->
0

>  <Q_VSA_FHYD>
1

>  <Q_VSA_FNEG>
0

>  <Q_VSA_FPNEG>
0

>  <Q_VSA_FPOL>
0

>  <Q_VSA_FPOS>
1

>  <Q_VSA_FPPOS>
0

>  <Q_VSA_HYD>
237.25974

>  <Q_VSA_NEG>
0

>  <Q_VSA_PNEG>
0

>  <Q_VSA_POL>
0

>  <Q_VSA_POS>
237.25974

>  <Q_VSA_PPOS>
0

>  <radius>
5

>  <reactive>
0

>  <rings>
1

>  <RPC+>
0

>  <RPC->
0

>  <rsynth>
1

>  <SlogP>
3.0731699

>  <SlogP_VSA0>
0

>  <SlogP_VSA1>
7.7454643

>  <SlogP_VSA2>
23.862217

>  <SlogP_VSA3>
25.385227

>  <SlogP_VSA4>
10.781946

>  <SlogP_VSA5>
18.868406

>  <SlogP_VSA6>
4.4107962

>  <SlogP_VSA7>
70.572739

>  <SlogP_VSA8>
0

>  <SlogP_VSA9>
99.978043

>  <SMR>
6.1034799

>  <SMR_VSA0>
23.862217

>  <SMR_VSA1>
0

>  <SMR_VSA2>
29.796022

>  <SMR_VSA3>
10.781946

>  <SMR_VSA4>
0

>  <SMR_VSA5>
89.441139

>  <SMR_VSA6>
7.7454643

>  <SMR_VSA7>
99.978043

>  <TPSA>
37.299999

>  <VAdjEq>
0.56650949

>  <VAdjMa>
4.9068904

>  <VDistEq>
2.9862158

>  <VDistMa>
7.4744163

>  <vdw_area>
237.25974

>  <vdw_vol>
309.57523

>  <vsa_acc>
0

>  <vsa_acid>
0

>  <vsa_base>
0

>  <vsa_don>
0

>  <vsa_hyd>
176.10197

>  <vsa_other>
14.708499

>  <vsa_pol>
27.133842

>  <Weight>
206.28499

>  <weinerPath>
404

>  <weinerPol>
19

>  <zagreb>
70

$$$$