n1c2c(CCCC2)c(N)c2c1cccc2
  MOE2013           2D

 15 17  0  0  0  0  0  0  0  0999 V2000
    0.0000    0.0000    0.0000 N   0  0  0  0  0  0  0  0  0  0  0  0
    1.2990    0.7500    0.0000 C   0  0  0  0  0  0  0  0  0  0  0  0
    1.2990    2.2500    0.0000 C   0  0  0  0  0  0  0  0  0  0  0  0
    2.5980    3.0000    0.0000 C   0  0  0  0  0  0  0  0  0  0  0  0
    3.8970    2.2500    0.0000 C   0  0  0  0  0  0  0  0  0  0  0  0
    3.8970    0.7500    0.0000 C   0  0  0  0  0  0  0  0  0  0  0  0
    2.5980    0.0000    0.0000 C   0  0  0  0  0  0  0  0  0  0  0  0
    0.0000    3.0000    0.0000 C   0  0  0  0  0  0  0  0  0  0  0  0
    0.0000    4.5000    0.0000 N   0  0  0  0  0  0  0  0  0  0  0  0
   -1.2990    2.2500    0.0000 C   0  0  0  0  0  0  0  0  0  0  0  0
   -1.2990    0.7500    0.0000 C   0  0  0  0  0  0  0  0  0  0  0  0
   -2.5980    0.0000    0.0000 C   0  0  0  0  0  0  0  0  0  0  0  0
   -3.8970    0.7500    0.0000 C   0  0  0  0  0  0  0  0  0  0  0  0
   -3.8970    2.2500    0.0000 C   0  0  0  0  0  0  0  0  0  0  0  0
   -2.5980    3.0000    0.0000 C   0  0  0  0  0  0  0  0  0  0  0  0
  1  2  2  0  0  0  0
  1 11  1  0  0  0  0
  2  3  1  0  0  0  0
  2  7  1  0  0  0  0
  3  4  1  0  0  0  0
  3  8  2  0  0  0  0
  4  5  1  0  0  0  0
  5  6  1  0  0  0  0
  6  7  1  0  0  0  0
  8  9  1  0  0  0  0
  8 10  1  0  0  0  0
 10 11  1  0  0  0  0
 10 15  2  0  0  0  0
 11 12  2  0  0  0  0
 12 13  1  0  0  0  0
 13 14  2  0  0  0  0
 14 15  1  0  0  0  0
M  END
>  <Index>
1730

>  <ID>
HT1970

>  <class>
1

>  <apol>
34.4151

>  <ast_fraglike>
1

>  <ast_fraglike_ext>
1

>  <ast_violation>
0

>  <ast_violation_ext>
0

>  <a_acc>
1

>  <a_acid>
0

>  <a_aro>
10

>  <a_base>
0

>  <a_count>
29

>  <a_don>
1

>  <a_donacc>
2

>  <a_heavy>
15

>  <a_hyd>
13

>  <a_IC>
37.472763

>  <a_ICM>
1.2921642

>  <a_nB>
0

>  <a_nBr>
0

>  <a_nC>
13

>  <a_nCl>
0

>  <a_nF>
0

>  <a_nH>
14

>  <a_nI>
0

>  <a_nN>
2

>  <a_nO>
0

>  <a_nP>
0

>  <a_nS>
0

>  <balabanJ>
1.778096

>  <BCUT_PEOE_0>
-2.6393843

>  <BCUT_PEOE_1>
-0.58502841

>  <BCUT_PEOE_2>
0.59993923

>  <BCUT_PEOE_3>
2.6042936

>  <BCUT_SLOGP_0>
-2.5500865

>  <BCUT_SLOGP_1>
-0.46015286

>  <BCUT_SLOGP_2>
0.711649

>  <BCUT_SLOGP_3>
2.7096522

>  <BCUT_SMR_0>
-2.3851342

>  <BCUT_SMR_1>
-0.38255352

>  <BCUT_SMR_2>
0.80871958

>  <BCUT_SMR_3>
2.8660018

>  <bpol>
15.964898

>  <b_1rotN>
0

>  <b_1rotR>
0

>  <b_ar>
11

>  <b_count>
31

>  <b_double>
0

>  <b_heavy>
17

>  <b_max1len>
2

>  <b_rotN>
0

>  <b_rotR>
0

>  <b_single>
20

>  <b_triple>
0

>  <chi0>
10.250712

>  <chi0v>
8.6623917

>  <chi0v_C>
7.6378284

>  <chi0_C>
8.5436058

>  <chi1>
7.3601732

>  <chi1v>
5.5203457

>  <chi1v_C>
4.7844572

>  <chi1_C>
5.9663267

>  <chiral>
0

>  <chiral_u>
0

>  <density>
0.68297124

>  <diameter>
7

>  <FCharge>
0

>  <GCUT_PEOE_0>
-0.80916327

>  <GCUT_PEOE_1>
-0.41988534

>  <GCUT_PEOE_2>
0.044248618

>  <GCUT_PEOE_3>
2.5268776

>  <GCUT_SLOGP_0>
-1.3345171

>  <GCUT_SLOGP_1>
-0.28637826

>  <GCUT_SLOGP_2>
0.15034877

>  <GCUT_SLOGP_3>
2.6550434

>  <GCUT_SMR_0>
-0.52265352

>  <GCUT_SMR_1>
-0.19184518

>  <GCUT_SMR_2>
0.22830662

>  <GCUT_SMR_3>
2.8186338

>  <Kier1>
10.173011

>  <Kier2>
4.1076388

>  <Kier3>
1.7439446

>  <KierA1>
7.2818041

>  <KierA2>
2.8627274

>  <KierA3>
1.1889281

>  <KierFlex>
1.3897214

>  <lip_acc>
2

>  <lip_don>
2

>  <lip_druglike>
1

>  <lip_violation>
0

>  <logP(o/w)>
2.4430001

>  <logS>
-2.7831099

>  <mr>
6.1108861

>  <mutagenic>
1

>  <nmol>
1

>  <opr_brigid>
16

>  <opr_leadlike>
1

>  <opr_nring>
3

>  <opr_nrot>
1

>  <opr_violation>
0

>  <PC+>
0

>  <PC->
0

>  <PEOE_PC+>
0.89856797

>  <PEOE_PC->
-0.89856797

>  <PEOE_RPC+>
0.13793764

>  <PEOE_RPC->
0.33549169

>  <PEOE_VSA+0>
49.730728

>  <PEOE_VSA+1>
23.761095

>  <PEOE_VSA+2>
17.238026

>  <PEOE_VSA+3>
0

>  <PEOE_VSA+4>
0

>  <PEOE_VSA+5>
0

>  <PEOE_VSA+6>
0

>  <PEOE_VSA-0>
49.268696

>  <PEOE_VSA-1>
36.764713

>  <PEOE_VSA-2>
0

>  <PEOE_VSA-3>
0

>  <PEOE_VSA-4>
0

>  <PEOE_VSA-5>
5.6825762

>  <PEOE_VSA-6>
6.6511192

>  <PEOE_VSA_FHYD>
0.93477583

>  <PEOE_VSA_FNEG>
0.52019399

>  <PEOE_VSA_FPNEG>
0.065224186

>  <PEOE_VSA_FPOL>
0.065224186

>  <PEOE_VSA_FPOS>
0.47980598

>  <PEOE_VSA_FPPOS>
0

>  <PEOE_VSA_HYD>
176.76326

>  <PEOE_VSA_NEG>
98.367104

>  <PEOE_VSA_PNEG>
12.333695

>  <PEOE_VSA_POL>
12.333695

>  <PEOE_VSA_POS>
90.729851

>  <PEOE_VSA_PPOS>
0

>  <petitjean>
0.42857143

>  <petitjeanSC>
0.75

>  <Q_PC+>
0

>  <Q_PC->
0

>  <Q_RPC+>
0

>  <Q_RPC->
0

>  <Q_VSA_FHYD>
1

>  <Q_VSA_FNEG>
0

>  <Q_VSA_FPNEG>
0

>  <Q_VSA_FPOL>
0

>  <Q_VSA_FPOS>
1

>  <Q_VSA_FPPOS>
0

>  <Q_VSA_HYD>
189.09695

>  <Q_VSA_NEG>
0

>  <Q_VSA_PNEG>
0

>  <Q_VSA_POL>
0

>  <Q_VSA_POS>
189.09695

>  <Q_VSA_PPOS>
0

>  <radius>
4

>  <reactive>
0

>  <rings>
3

>  <RPC+>
0

>  <RPC->
0

>  <rsynth>
1

>  <SlogP>
2.69574

>  <SlogP_VSA0>
32.897186

>  <SlogP_VSA1>
16.78553

>  <SlogP_VSA2>
0

>  <SlogP_VSA3>
0

>  <SlogP_VSA4>
5.9423227

>  <SlogP_VSA5>
37.736813

>  <SlogP_VSA6>
0

>  <SlogP_VSA7>
75.289841

>  <SlogP_VSA8>
37.736813

>  <SlogP_VSA9>
2.7567475

>  <SMR>
6.2797399

>  <SMR_VSA0>
0

>  <SMR_VSA1>
16.78553

>  <SMR_VSA2>
0

>  <SMR_VSA3>
5.9423227

>  <SMR_VSA4>
7.4738488

>  <SMR_VSA5>
178.94354

>  <SMR_VSA6>
0

>  <SMR_VSA7>
0

>  <TPSA>
38.91

>  <VAdjEq>
0.61261392

>  <VAdjMa>
5.0874629

>  <VDistEq>
2.553652

>  <VDistMa>
7.5372267

>  <vdw_area>
189.09695

>  <vdw_vol>
290.30359

>  <vsa_acc>
5.6825762

>  <vsa_acid>
0

>  <vsa_base>
0

>  <vsa_don>
17.742489

>  <vsa_hyd>
150.98369

>  <vsa_other>
0

>  <vsa_pol>
23.425066

>  <Weight>
198.269

>  <weinerPath>
326

>  <weinerPol>
25

>  <zagreb>
82

$$$$