s1cc(nc1N)/C(=NO)/C(=O)N[C@H]1[C@H]2SCC(C=C)=C(N2C1=O)C(O)=O
  MOE2013           2D

 26 28  0  0  1  0  0  0  0  0999 V2000
    0.0000    0.0000    0.0000 S   0  0  0  0  0  0  0  0  0  0  0  0
   -1.4250   -0.4680    0.0000 C   0  0  0  0  0  0  0  0  0  0  0  0
   -1.4200   -1.9680    0.0000 C   0  0  0  0  0  0  0  0  0  0  0  0
    0.0080   -2.4270    0.0000 N   0  0  0  0  0  0  0  0  0  0  0  0
    0.8860   -1.2110    0.0000 C   0  0  0  0  0  0  0  0  0  0  0  0
    2.3860   -1.2060    0.0000 N   0  0  0  0  0  0  0  0  0  0  0  0
   -2.6310   -2.8540    0.0000 C   0  0  0  0  0  0  0  0  0  0  0  0
   -2.4690   -4.3450    0.0000 N   0  0  0  0  0  0  0  0  0  0  0  0
   -1.0970   -4.9510    0.0000 O   0  0  0  0  0  0  0  0  0  0  0  0
   -4.0030   -2.2480    0.0000 C   0  0  0  0  0  0  0  0  0  0  0  0
   -4.1650   -0.7570    0.0000 O   0  0  0  0  0  0  0  0  0  0  0  0
   -5.2140   -3.1340    0.0000 N   0  0  0  0  0  0  0  0  0  0  0  0
   -6.5860   -2.5280    0.0000 C   0  0  1  0  0  0  0  0  0  0  0  0
   -7.9850   -3.0700    0.0000 C   0  0  1  0  0  0  0  0  0  0  0  0
   -8.9250   -4.2390    0.0000 S   0  0  0  0  0  0  0  0  0  0  0  0
  -10.4070   -4.0100    0.0000 C   0  0  0  0  0  0  0  0  0  0  0  0
  -10.9490   -2.6110    0.0000 C   0  0  0  0  0  0  0  0  0  0  0  0
  -12.4310   -2.3810    0.0000 C   0  0  0  0  0  0  0  0  0  0  0  0
  -13.3720   -3.5500    0.0000 C   0  0  0  0  0  0  0  0  0  0  0  0
  -10.0090   -1.4420    0.0000 C   0  0  0  0  0  0  0  0  0  0  0  0
   -8.5270   -1.6720    0.0000 N   0  0  0  0  0  0  0  0  0  0  0  0
   -7.1280   -1.1300    0.0000 C   0  0  0  0  0  0  0  0  0  0  0  0
   -6.5230    0.2430    0.0000 O   0  0  0  0  0  0  0  0  0  0  0  0
  -10.5510   -0.0430    0.0000 C   0  0  0  0  0  0  0  0  0  0  0  0
   -9.6110    1.1250    0.0000 O   0  0  0  0  0  0  0  0  0  0  0  0
  -12.0330    0.1860    0.0000 O   0  0  0  0  0  0  0  0  0  0  0  0
  1  2  1  0  0  0  0
  1  5  1  0  0  0  0
  2  3  2  0  0  0  0
  3  4  1  0  0  0  0
  3  7  1  0  0  0  0
  4  5  2  0  0  0  0
  5  6  1  0  0  0  0
  7  8  2  3  0  0  0
  7 10  1  0  0  0  0
  8  9  1  0  0  0  0
 10 11  2  0  0  0  0
 10 12  1  0  0  0  0
 13 12  1  1  0  0  0
 13 14  1  0  0  0  0
 13 22  1  0  0  0  0
 14 15  1  0  0  0  0
 14 21  1  1  0  0  0
 15 16  1  0  0  0  0
 16 17  1  0  0  0  0
 17 18  1  0  0  0  0
 17 20  2  0  0  0  0
 18 19  2  0  0  0  0
 20 21  1  0  0  0  0
 20 24  1  0  0  0  0
 21 22  1  0  0  0  0
 22 23  2  0  0  0  0
 24 25  1  0  0  0  0
 24 26  2  0  0  0  0
M  END
>  <Index>
1467

>  <ID>
HT0401

>  <class>
1

>  <apol>
48.618309

>  <ast_fraglike>
0

>  <ast_fraglike_ext>
0

>  <ast_violation>
3

>  <ast_violation_ext>
5

>  <a_acc>
7

>  <a_acid>
0

>  <a_aro>
5

>  <a_base>
0

>  <a_count>
39

>  <a_don>
5

>  <a_donacc>
12

>  <a_heavy>
26

>  <a_hyd>
11

>  <a_IC>
79.502724

>  <a_ICM>
2.0385313

>  <a_nB>
0

>  <a_nBr>
0

>  <a_nC>
14

>  <a_nCl>
0

>  <a_nF>
0

>  <a_nH>
13

>  <a_nI>
0

>  <a_nN>
5

>  <a_nO>
5

>  <a_nP>
0

>  <a_nS>
2

>  <balabanJ>
1.6262957

>  <BCUT_PEOE_0>
-2.678489

>  <BCUT_PEOE_1>
-0.60723954

>  <BCUT_PEOE_2>
0.67061776

>  <BCUT_PEOE_3>
2.729934

>  <BCUT_SLOGP_0>
-2.8915436

>  <BCUT_SLOGP_1>
-0.64824802

>  <BCUT_SLOGP_2>
0.65520459

>  <BCUT_SLOGP_3>
2.6064982

>  <BCUT_SMR_0>
-2.3936286

>  <BCUT_SMR_1>
-0.42502218

>  <BCUT_SMR_2>
0.89550692

>  <BCUT_SMR_3>
3.0124133

>  <bpol>
24.94569

>  <b_1rotN>
5

>  <b_1rotR>
0.17857143

>  <b_ar>
5

>  <b_count>
41

>  <b_double>
6

>  <b_heavy>
28

>  <b_max1len>
3

>  <b_rotN>
6

>  <b_rotR>
0.21428572

>  <b_single>
30

>  <b_triple>
0

>  <chi0>
19.007708

>  <chi0v>
14.711267

>  <chi0v_C>
7.7236147

>  <chi0_C>
8.8948231

>  <chi1>
12.383448

>  <chi1v>
9.0933342

>  <chi1v_C>
2.9611604

>  <chi1_C>
3.9318516

>  <chiral>
2

>  <chiral_u>
0

>  <density>
0.92281562

>  <diameter>
13

>  <FCharge>
0

>  <GCUT_PEOE_0>
-0.82285869

>  <GCUT_PEOE_1>
-0.47394109

>  <GCUT_PEOE_2>
0.12384266

>  <GCUT_PEOE_3>
2.5291111

>  <GCUT_SLOGP_0>
-1.3345511

>  <GCUT_SLOGP_1>
-0.44339874

>  <GCUT_SLOGP_2>
0.15738773

>  <GCUT_SLOGP_3>
2.4798117

>  <GCUT_SMR_0>
-0.52851933

>  <GCUT_SMR_1>
-0.23842588

>  <GCUT_SMR_2>
0.3234261

>  <GCUT_SMR_3>
2.8212199

>  <Kier1>
20.727041

>  <Kier2>
8.56633

>  <Kier3>
3.9381688

>  <KierA1>
16.998344

>  <KierA2>
6.9662161

>  <KierA3>
3.1832583

>  <KierFlex>
4.5543904

>  <lip_acc>
10

>  <lip_don>
5

>  <lip_druglike>
1

>  <lip_violation>
0

>  <logP(o/w)>
-0.32100001

>  <logS>
-3.6461

>  <mr>
9.4211369

>  <mutagenic>
1

>  <nmol>
1

>  <opr_brigid>
16

>  <opr_leadlike>
1

>  <opr_nring>
3

>  <opr_nrot>
5

>  <opr_violation>
1

>  <PC+>
0

>  <PC->
0

>  <PEOE_PC+>
3.0633688

>  <PEOE_PC->
-3.0633688

>  <PEOE_RPC+>
0.10061651

>  <PEOE_RPC->
0.1099284

>  <PEOE_VSA+0>
19.208147

>  <PEOE_VSA+1>
45.458492

>  <PEOE_VSA+2>
32.205559

>  <PEOE_VSA+3>
35.079182

>  <PEOE_VSA+4>
20.648346

>  <PEOE_VSA+5>
25.899061

>  <PEOE_VSA+6>
14.708499

>  <PEOE_VSA-0>
2.2085397

>  <PEOE_VSA-1>
48.787136

>  <PEOE_VSA-2>
30.64588

>  <PEOE_VSA-3>
0

>  <PEOE_VSA-4>
5.6825762

>  <PEOE_VSA-5>
58.518024

>  <PEOE_VSA-6>
7.9044313

>  <PEOE_VSA_FHYD>
0.61562341

>  <PEOE_VSA_FNEG>
0.44313264

>  <PEOE_VSA_FPNEG>
0.20782311

>  <PEOE_VSA_FPOL>
0.38437656

>  <PEOE_VSA_FPOS>
0.55686736

>  <PEOE_VSA_FPPOS>
0.17655346

>  <PEOE_VSA_HYD>
213.59294

>  <PEOE_VSA_NEG>
153.7466

>  <PEOE_VSA_PNEG>
72.105034

>  <PEOE_VSA_POL>
133.36095

>  <PEOE_VSA_POS>
193.20729

>  <PEOE_VSA_PPOS>
61.255905

>  <petitjean>
0.46153846

>  <petitjeanSC>
0.85714287

>  <Q_PC+>
0

>  <Q_PC->
0

>  <Q_RPC+>
0

>  <Q_RPC->
0

>  <Q_VSA_FHYD>
1

>  <Q_VSA_FNEG>
0

>  <Q_VSA_FPNEG>
0

>  <Q_VSA_FPOL>
0

>  <Q_VSA_FPOS>
1

>  <Q_VSA_FPPOS>
0

>  <Q_VSA_HYD>
346.95389

>  <Q_VSA_NEG>
0

>  <Q_VSA_PNEG>
0

>  <Q_VSA_POL>
0

>  <Q_VSA_POS>
346.95389

>  <Q_VSA_PPOS>
0

>  <radius>
7

>  <reactive>
1

>  <rings>
3

>  <RPC+>
0

>  <RPC->
0

>  <rsynth>
1

>  <SlogP>
-0.1718

>  <SlogP_VSA0>
50.90794

>  <SlogP_VSA1>
40.929623

>  <SlogP_VSA2>
103.51984

>  <SlogP_VSA3>
42.61879

>  <SlogP_VSA4>
2.7567475

>  <SlogP_VSA5>
25.342184

>  <SlogP_VSA6>
0

>  <SlogP_VSA7>
33.459194

>  <SlogP_VSA8>
0

>  <SlogP_VSA9>
96.09877

>  <SMR>
9.5574703

>  <SMR_VSA0>
71.586647

>  <SMR_VSA1>
39.309704

>  <SMR_VSA2>
69.000076

>  <SMR_VSA3>
15.028167

>  <SMR_VSA4>
0.50074643

>  <SMR_VSA5>
66.356384

>  <SMR_VSA6>
38.253342

>  <SMR_VSA7>
95.598022

>  <TPSA>
158.21001

>  <VAdjEq>
0.41210872

>  <VAdjMa>
5.8073549

>  <VDistEq>
3.4484408

>  <VDistMa>
9.1091681

>  <vdw_area>
346.95389

>  <vdw_vol>
428.49295

>  <vsa_acc>
43.701679

>  <vsa_acid>
0

>  <vsa_base>
0

>  <vsa_don>
23.425066

>  <vsa_hyd>
151.2901

>  <vsa_other>
60.473736

>  <vsa_pol>
111.22611

>  <Weight>
395.41998

>  <weinerPath>
1701

>  <weinerPol>
42

>  <zagreb>
138

$$$$