Fc1cc2c(N(C=C(C(O)=O)C2=O)C2CC2)c(OC)c1N1C[C@H]2[C@H](NCCC2)C1
  MOE2013           2D

 29 33  0  0  1  0  0  0  0  0999 V2000
    0.0000    0.0000    0.0000 F   0  0  0  0  0  0  0  0  0  0  0  0
   -1.3000    0.7480    0.0000 C   0  0  0  0  0  0  0  0  0  0  0  0
   -2.5980   -0.0040    0.0000 C   0  0  0  0  0  0  0  0  0  0  0  0
   -3.8980    0.7450    0.0000 C   0  0  0  0  0  0  0  0  0  0  0  0
   -3.9000    2.2450    0.0000 C   0  0  0  0  0  0  0  0  0  0  0  0
   -5.2000    2.9930    0.0000 N   0  0  3  0  0  0  0  0  0  0  0  0
   -6.4980    2.2410    0.0000 C   0  0  0  0  0  0  0  0  0  0  0  0
   -6.4960    0.7410    0.0000 C   0  0  0  0  0  0  0  0  0  0  0  0
   -7.7940   -0.0110    0.0000 C   0  0  0  0  0  0  0  0  0  0  0  0
   -9.0940    0.7370    0.0000 O   0  0  0  0  0  0  0  0  0  0  0  0
   -7.7920   -1.5110    0.0000 O   0  0  0  0  0  0  0  0  0  0  0  0
   -5.1960   -0.0070    0.0000 C   0  0  0  0  0  0  0  0  0  0  0  0
   -5.1940   -1.5070    0.0000 O   0  0  0  0  0  0  0  0  0  0  0  0
   -5.2020    4.4930    0.0000 C   0  0  0  0  0  0  0  0  0  0  0  0
   -5.9540    5.7910    0.0000 C   0  0  0  0  0  0  0  0  0  0  0  0
   -4.4540    5.7930    0.0000 C   0  0  0  0  0  0  0  0  0  0  0  0
   -2.6020    2.9960    0.0000 C   0  0  0  0  0  0  0  0  0  0  0  0
   -2.6040    4.4960    0.0000 O   0  0  0  0  0  0  0  0  0  0  0  0
   -1.3060    5.2480    0.0000 C   0  0  0  0  0  0  0  0  0  0  0  0
   -1.3020    2.2480    0.0000 C   0  0  0  0  0  0  0  0  0  0  0  0
   -0.0040    3.0000    0.0000 N   0  0  3  0  0  0  0  0  0  0  0  0
    1.3670    2.3920    0.0000 C   0  0  0  0  0  0  0  0  0  0  0  0
    2.3690    3.5080    0.0000 C   0  0  1  0  0  0  0  0  0  0  0  0
    1.6170    4.8060    0.0000 C   0  0  2  0  0  0  0  0  0  0  0  0
    2.3650    6.1060    0.0000 N   0  0  0  0  0  0  0  0  0  0  0  0
    3.8650    6.1080    0.0000 C   0  0  0  0  0  0  0  0  0  0  0  0
    4.6170    4.8100    0.0000 C   0  0  0  0  0  0  0  0  0  0  0  0
    3.8690    3.5100    0.0000 C   0  0  0  0  0  0  0  0  0  0  0  0
    0.1500    4.4920    0.0000 C   0  0  0  0  0  0  0  0  0  0  0  0
  1  2  1  0  0  0  0
  2  3  1  0  0  0  0
  2 20  2  0  0  0  0
  3  4  2  0  0  0  0
  4  5  1  0  0  0  0
  4 12  1  0  0  0  0
  5  6  1  0  0  0  0
  5 17  2  0  0  0  0
  6  7  1  0  0  0  0
  6 14  1  0  0  0  0
  7  8  2  0  0  0  0
  8  9  1  0  0  0  0
  8 12  1  0  0  0  0
  9 10  1  0  0  0  0
  9 11  2  0  0  0  0
 12 13  2  0  0  0  0
 14 15  1  0  0  0  0
 14 16  1  0  0  0  0
 15 16  1  0  0  0  0
 17 18  1  0  0  0  0
 17 20  1  0  0  0  0
 18 19  1  0  0  0  0
 20 21  1  0  0  0  0
 21 22  1  0  0  0  0
 21 29  1  0  0  0  0
 23 22  1  1  0  0  0
 23 24  1  0  0  0  0
 23 28  1  0  0  0  0
 24 25  1  1  0  0  0
 24 29  1  0  0  0  0
 25 26  1  0  0  0  0
 26 27  1  0  0  0  0
 27 28  1  0  0  0  0
M  END
>  <Index>
1660

>  <ID>
HT1438

>  <class>
1

>  <apol>
60.02803

>  <ast_fraglike>
0

>  <ast_fraglike_ext>
0

>  <ast_violation>
2

>  <ast_violation_ext>
3

>  <a_acc>
5

>  <a_acid>
0

>  <a_aro>
6

>  <a_base>
0

>  <a_count>
53

>  <a_don>
3

>  <a_donacc>
8

>  <a_heavy>
29

>  <a_hyd>
20

>  <a_IC>
88.547134

>  <a_ICM>
1.6707006

>  <a_nB>
0

>  <a_nBr>
0

>  <a_nC>
21

>  <a_nCl>
0

>  <a_nF>
1

>  <a_nH>
24

>  <a_nI>
0

>  <a_nN>
3

>  <a_nO>
4

>  <a_nP>
0

>  <a_nS>
0

>  <balabanJ>
1.4179872

>  <BCUT_PEOE_0>
-2.7637379

>  <BCUT_PEOE_1>
-0.57996595

>  <BCUT_PEOE_2>
0.58146167

>  <BCUT_PEOE_3>
2.8090053

>  <BCUT_SLOGP_0>
-2.8534329

>  <BCUT_SLOGP_1>
-0.53348005

>  <BCUT_SLOGP_2>
0.67511094

>  <BCUT_SLOGP_3>
2.8135908

>  <BCUT_SMR_0>
-2.5028527

>  <BCUT_SMR_1>
-0.38867545

>  <BCUT_SMR_2>
0.74861556

>  <BCUT_SMR_3>
3.0799904

>  <bpol>
35.891968

>  <b_1rotN>
4

>  <b_1rotR>
0.12121212

>  <b_ar>
6

>  <b_count>
57

>  <b_double>
3

>  <b_heavy>
33

>  <b_max1len>
2

>  <b_rotN>
4

>  <b_rotR>
0.12121212

>  <b_single>
48

>  <b_triple>
0

>  <chi0>
20.283728

>  <chi0v>
16.280849

>  <chi0v_C>
12.836499

>  <chi0_C>
13.714814

>  <chi1>
13.990402

>  <chi1v>
10.162106

>  <chi1v_C>
6.4906001

>  <chi1_C>
7.432653

>  <chiral>
2

>  <chiral_u>
0

>  <density>
0.78621143

>  <diameter>
12

>  <FCharge>
0

>  <GCUT_PEOE_0>
-0.84508342

>  <GCUT_PEOE_1>
-0.44673213

>  <GCUT_PEOE_2>
0.089191727

>  <GCUT_PEOE_3>
2.9308212

>  <GCUT_SLOGP_0>
-1.1542289

>  <GCUT_SLOGP_1>
-0.36342025

>  <GCUT_SLOGP_2>
0.16220775

>  <GCUT_SLOGP_3>
2.9693787

>  <GCUT_SMR_0>
-0.52573335

>  <GCUT_SMR_1>
-0.23321512

>  <GCUT_SMR_2>
0.18359992

>  <GCUT_SMR_3>
3.1947532

>  <Kier1>
20.877869

>  <Kier2>
8.1647997

>  <Kier3>
3.4565377

>  <KierA1>
16.686287

>  <KierA2>
6.4701514

>  <KierA3>
2.7219315

>  <KierFlex>
3.7228553

>  <lip_acc>
7

>  <lip_don>
2

>  <lip_druglike>
1

>  <lip_violation>
0

>  <logP(o/w)>
1.892

>  <logS>
-3.4136801

>  <mr>
10.363347

>  <mutagenic>
0

>  <nmol>
1

>  <opr_brigid>
24

>  <opr_leadlike>
1

>  <opr_nring>
5

>  <opr_nrot>
5

>  <opr_violation>
1

>  <PC+>
0

>  <PC->
0

>  <PEOE_PC+>
2.4293742

>  <PEOE_PC->
-2.4293742

>  <PEOE_RPC+>
0.1218129

>  <PEOE_RPC->
0.1418691

>  <PEOE_VSA+0>
149.14024

>  <PEOE_VSA+1>
34.726032

>  <PEOE_VSA+2>
28.306917

>  <PEOE_VSA+3>
0

>  <PEOE_VSA+4>
18.782692

>  <PEOE_VSA+5>
14.708499

>  <PEOE_VSA+6>
0

>  <PEOE_VSA-0>
60.252483

>  <PEOE_VSA-1>
0

>  <PEOE_VSA-2>
0

>  <PEOE_VSA-3>
0

>  <PEOE_VSA-4>
11.908636

>  <PEOE_VSA-5>
27.133842

>  <PEOE_VSA-6>
10.408187

>  <PEOE_VSA_FHYD>
0.76660264

>  <PEOE_VSA_FNEG>
0.30870333

>  <PEOE_VSA_FPNEG>
0.13915358

>  <PEOE_VSA_FPOL>
0.23339739

>  <PEOE_VSA_FPOS>
0.69129664

>  <PEOE_VSA_FPPOS>
0.09424381

>  <PEOE_VSA_HYD>
272.42569

>  <PEOE_VSA_NEG>
109.70315

>  <PEOE_VSA_PNEG>
49.450665

>  <PEOE_VSA_POL>
82.941856

>  <PEOE_VSA_POS>
245.66438

>  <PEOE_VSA_PPOS>
33.491192

>  <petitjean>
0.5

>  <petitjeanSC>
1

>  <Q_PC+>
0

>  <Q_PC->
0

>  <Q_RPC+>
0

>  <Q_RPC->
0

>  <Q_VSA_FHYD>
1

>  <Q_VSA_FNEG>
0

>  <Q_VSA_FPNEG>
0

>  <Q_VSA_FPOL>
0

>  <Q_VSA_FPOS>
1

>  <Q_VSA_FPPOS>
0

>  <Q_VSA_HYD>
355.36752

>  <Q_VSA_NEG>
0

>  <Q_VSA_PNEG>
0

>  <Q_VSA_POL>
0

>  <Q_VSA_POS>
355.36752

>  <Q_VSA_PPOS>
0

>  <radius>
6

>  <reactive>
0

>  <rings>
5

>  <RPC+>
0

>  <RPC->
0

>  <rsynth>
0.7241379

>  <SlogP>
2.1561

>  <SlogP_VSA0>
35.259266

>  <SlogP_VSA1>
13.433075

>  <SlogP_VSA2>
40.94717

>  <SlogP_VSA3>
80.703964

>  <SlogP_VSA4>
31.458588

>  <SlogP_VSA5>
38.569443

>  <SlogP_VSA6>
0

>  <SlogP_VSA7>
34.85754

>  <SlogP_VSA8>
75.473625

>  <SlogP_VSA9>
25.717037

>  <SMR>
10.523

>  <SMR_VSA0>
47.724434

>  <SMR_VSA1>
25.960001

>  <SMR_VSA2>
63.176418

>  <SMR_VSA3>
19.578516

>  <SMR_VSA4>
5.513495

>  <SMR_VSA5>
110.33116

>  <SMR_VSA6>
68.751808

>  <SMR_VSA7>
35.383869

>  <TPSA>
82.110001

>  <VAdjEq>
0.39679351

>  <VAdjMa>
6.044394

>  <VDistEq>
3.3193138

>  <VDistMa>
9.4594126

>  <vdw_area>
355.36752

>  <vdw_vol>
510.59799

>  <vsa_acc>
16.070677

>  <vsa_acid>
0

>  <vsa_base>
0

>  <vsa_don>
0

>  <vsa_hyd>
258.71075

>  <vsa_other>
23.167019

>  <vsa_pol>
48.887096

>  <Weight>
401.43799

>  <weinerPath>
2006

>  <weinerPol>
55

>  <zagreb>
166

$$$$