O=C1NC(=Nc2n(cnc12)COC(CO)CO)N
  MOE2013           2D

 18 19  0  0  0  0  0  0  0  0999 V2000
    0.0000    0.0000    0.0000 O   0  0  0  0  0  0  0  0  0  0  0  0
   -1.3000    0.7490    0.0000 C   0  0  0  0  0  0  0  0  0  0  0  0
   -1.3010    2.2490    0.0000 N   0  0  0  0  0  0  0  0  0  0  0  0
   -2.6000    2.9980    0.0000 C   0  0  0  0  0  0  0  0  0  0  0  0
   -3.8990    2.2470    0.0000 N   0  0  0  0  0  0  0  0  0  0  0  0
   -3.8980    0.7470    0.0000 C   0  0  0  0  0  0  0  0  0  0  0  0
   -5.0120   -0.2570    0.0000 N   0  0  0  0  0  0  0  0  0  0  0  0
   -4.4010   -1.6270    0.0000 C   0  0  0  0  0  0  0  0  0  0  0  0
   -2.9090   -1.4690    0.0000 N   0  0  0  0  0  0  0  0  0  0  0  0
   -2.5980   -0.0020    0.0000 C   0  0  0  0  0  0  0  0  0  0  0  0
   -6.4790    0.0530    0.0000 C   0  0  0  0  0  0  0  0  0  0  0  0
   -7.4820   -1.0620    0.0000 O   0  0  0  0  0  0  0  0  0  0  0  0
   -8.9490   -0.7510    0.0000 C   0  0  0  0  0  0  0  0  0  0  0  0
   -9.9520   -1.8670    0.0000 C   0  0  0  0  0  0  0  0  0  0  0  0
   -9.4880   -3.2930    0.0000 O   0  0  0  0  0  0  0  0  0  0  0  0
   -9.4140    0.6750    0.0000 C   0  0  0  0  0  0  0  0  0  0  0  0
  -10.8810    0.9860    0.0000 O   0  0  0  0  0  0  0  0  0  0  0  0
   -2.6010    4.4980    0.0000 N   0  0  0  0  0  0  0  0  0  0  0  0
  1  2  2  0  0  0  0
  2  3  1  0  0  0  0
  2 10  1  0  0  0  0
  3  4  1  0  0  0  0
  4  5  2  0  0  0  0
  4 18  1  0  0  0  0
  5  6  1  0  0  0  0
  6  7  1  0  0  0  0
  6 10  2  0  0  0  0
  7  8  1  0  0  0  0
  7 11  1  0  0  0  0
  8  9  2  0  0  0  0
  9 10  1  0  0  0  0
 11 12  1  0  0  0  0
 12 13  1  0  0  0  0
 13 14  1  0  0  0  0
 13 16  1  0  0  0  0
 14 15  1  0  0  0  0
 16 17  1  0  0  0  0
M  END
>  <Index>
1584

>  <ID>
HT0964

>  <class>
1

>  <apol>
33.216309

>  <ast_fraglike>
0

>  <ast_fraglike_ext>
0

>  <ast_violation>
2

>  <ast_violation_ext>
4

>  <a_acc>
6

>  <a_acid>
0

>  <a_aro>
5

>  <a_base>
0

>  <a_count>
31

>  <a_don>
4

>  <a_donacc>
10

>  <a_heavy>
18

>  <a_hyd>
4

>  <a_IC>
57.335403

>  <a_ICM>
1.8495291

>  <a_nB>
0

>  <a_nBr>
0

>  <a_nC>
9

>  <a_nCl>
0

>  <a_nF>
0

>  <a_nH>
13

>  <a_nI>
0

>  <a_nN>
5

>  <a_nO>
4

>  <a_nP>
0

>  <a_nS>
0

>  <balabanJ>
1.8741482

>  <BCUT_PEOE_0>
-2.5423927

>  <BCUT_PEOE_1>
-0.65672719

>  <BCUT_PEOE_2>
0.71789032

>  <BCUT_PEOE_3>
2.5578449

>  <BCUT_SLOGP_0>
-2.6732202

>  <BCUT_SLOGP_1>
-0.71836001

>  <BCUT_SLOGP_2>
0.56878233

>  <BCUT_SLOGP_3>
2.4621496

>  <BCUT_SMR_0>
-2.3230274

>  <BCUT_SMR_1>
-0.5362156

>  <BCUT_SMR_2>
0.80559009

>  <BCUT_SMR_3>
2.7629104

>  <bpol>
21.70569

>  <b_1rotN>
5

>  <b_1rotR>
0.2631579

>  <b_ar>
5

>  <b_count>
32

>  <b_double>
2

>  <b_heavy>
19

>  <b_max1len>
6

>  <b_rotN>
5

>  <b_rotR>
0.2631579

>  <b_single>
25

>  <b_triple>
0

>  <chi0>
13.120955

>  <chi0v>
9.4059353

>  <chi0v_C>
5.276021

>  <chi0_C>
5.7151785

>  <chi1>
8.6513968

>  <chi1v>
5.1931815

>  <chi1v_C>
1.3164966

>  <chi1_C>
1.4831632

>  <chiral>
0

>  <chiral_u>
0

>  <density>
0.86020023

>  <diameter>
9

>  <FCharge>
0

>  <GCUT_PEOE_0>
-0.8275454

>  <GCUT_PEOE_1>
-0.45600981

>  <GCUT_PEOE_2>
0.1504515

>  <GCUT_PEOE_3>
2.3764033

>  <GCUT_SLOGP_0>
-1.371049

>  <GCUT_SLOGP_1>
-0.45871735

>  <GCUT_SLOGP_2>
0.044603854

>  <GCUT_SLOGP_3>
2.347724

>  <GCUT_SMR_0>
-0.52269965

>  <GCUT_SMR_1>
-0.25975996

>  <GCUT_SMR_2>
0.21321611

>  <GCUT_SMR_3>
2.622874

>  <Kier1>
14.409972

>  <Kier2>
6.43787

>  <Kier3>
3.3217993

>  <KierA1>
10.630735

>  <KierA2>
4.6568027

>  <KierA3>
2.3679073

>  <KierFlex>
2.7502909

>  <lip_acc>
9

>  <lip_don>
5

>  <lip_druglike>
1

>  <lip_violation>
0

>  <logP(o/w)>
-2.1719999

>  <logS>
-0.54413003

>  <mr>
5.9686904

>  <mutagenic>
0

>  <nmol>
1

>  <opr_brigid>
10

>  <opr_leadlike>
1

>  <opr_nring>
2

>  <opr_nrot>
5

>  <opr_violation>
1

>  <PC+>
0

>  <PC->
0

>  <PEOE_PC+>
2.7760475

>  <PEOE_PC->
-2.7760475

>  <PEOE_RPC+>
0.10102887

>  <PEOE_RPC->
0.14134416

>  <PEOE_VSA+0>
0

>  <PEOE_VSA+1>
59.760288

>  <PEOE_VSA+2>
49.849545

>  <PEOE_VSA+3>
43.747154

>  <PEOE_VSA+4>
36.329918

>  <PEOE_VSA+5>
12.949531

>  <PEOE_VSA+6>
0

>  <PEOE_VSA-0>
0

>  <PEOE_VSA-1>
0

>  <PEOE_VSA-2>
0

>  <PEOE_VSA-3>
5.6825762

>  <PEOE_VSA-4>
5.6825762

>  <PEOE_VSA-5>
13.703812

>  <PEOE_VSA-6>
24.689957

>  <PEOE_VSA_FHYD>
0.63012081

>  <PEOE_VSA_FNEG>
0.19714673

>  <PEOE_VSA_FPNEG>
0.17463215

>  <PEOE_VSA_FPOL>
0.36987922

>  <PEOE_VSA_FPOS>
0.80285329

>  <PEOE_VSA_FPPOS>
0.19524705

>  <PEOE_VSA_HYD>
159.03957

>  <PEOE_VSA_NEG>
49.758919

>  <PEOE_VSA_PNEG>
44.076344

>  <PEOE_VSA_POL>
93.355797

>  <PEOE_VSA_POS>
202.63644

>  <PEOE_VSA_PPOS>
49.279449

>  <petitjean>
0.44444445

>  <petitjeanSC>
0.80000001

>  <Q_PC+>
0

>  <Q_PC->
0

>  <Q_RPC+>
0

>  <Q_RPC->
0

>  <Q_VSA_FHYD>
1

>  <Q_VSA_FNEG>
0

>  <Q_VSA_FPNEG>
0

>  <Q_VSA_FPOL>
0

>  <Q_VSA_FPOS>
1

>  <Q_VSA_FPPOS>
0

>  <Q_VSA_HYD>
252.39536

>  <Q_VSA_NEG>
0

>  <Q_VSA_PNEG>
0

>  <Q_VSA_POL>
0

>  <Q_VSA_POS>
252.39536

>  <Q_VSA_PPOS>
0

>  <radius>
5

>  <reactive>
0

>  <rings>
2

>  <RPC+>
0

>  <RPC->
0

>  <rsynth>
1

>  <SlogP>
-1.8336

>  <SlogP_VSA0>
101.67839

>  <SlogP_VSA1>
25.842499

>  <SlogP_VSA2>
17.468536

>  <SlogP_VSA3>
41.852516

>  <SlogP_VSA4>
26.618963

>  <SlogP_VSA5>
16.78553

>  <SlogP_VSA6>
0

>  <SlogP_VSA7>
16.78553

>  <SlogP_VSA8>
0

>  <SlogP_VSA9>
22.825352

>  <SMR>
6.0225201

>  <SMR_VSA0>
34.862103

>  <SMR_VSA1>
86.240608

>  <SMR_VSA2>
18.01075

>  <SMR_VSA3>
9.2253971

>  <SMR_VSA4>
35.225109

>  <SMR_VSA5>
37.282959

>  <SMR_VSA6>
49.010395

>  <SMR_VSA7>
0

>  <TPSA>
134.99001

>  <VAdjEq>
0.52150291

>  <VAdjMa>
5.2479277

>  <VDistEq>
3.0568707

>  <VDistMa>
8.0305634

>  <vdw_area>
252.39536

>  <vdw_vol>
296.71463

>  <vsa_acc>
27.435829

>  <vsa_acid>
0

>  <vsa_base>
0

>  <vsa_don>
23.425066

>  <vsa_hyd>
59.275021

>  <vsa_other>
91.161674

>  <vsa_pol>
77.994736

>  <Weight>
255.23399

>  <weinerPath>
632

>  <weinerPol>
26

>  <zagreb>
90

$$$$