s1cc(nc1N)/C(=N/OC)/C(=O)N[C@H]1[C@H]2SCC(C)=C(N2C1=O)C(OCOC(=O)C(C)(C)C)=O
  MOE2013           2D

 34 36  0  0  1  0  0  0  0  0999 V2000
    0.0000    0.0000    0.0000 S   0  0  0  0  0  0  0  0  0  0  0  0
    1.3730   -0.6050    0.0000 C   0  0  0  0  0  0  0  0  0  0  0  0
    1.2210   -2.0970    0.0000 C   0  0  0  0  0  0  0  0  0  0  0  0
   -0.2450   -2.4150    0.0000 N   0  0  0  0  0  0  0  0  0  0  0  0
   -1.0000   -1.1180    0.0000 C   0  0  0  0  0  0  0  0  0  0  0  0
   -2.4920   -0.9670    0.0000 N   0  0  0  0  0  0  0  0  0  0  0  0
    2.3390   -3.0970    0.0000 C   0  0  0  0  0  0  0  0  0  0  0  0
    2.0330   -4.5650    0.0000 N   0  0  0  0  0  0  0  0  0  0  0  0
    3.1510   -5.5650    0.0000 O   0  0  0  0  0  0  0  0  0  0  0  0
    2.8450   -7.0330    0.0000 C   0  0  0  0  0  0  0  0  0  0  0  0
    3.7640   -2.6280    0.0000 C   0  0  0  0  0  0  0  0  0  0  0  0
    4.8830   -3.6280    0.0000 O   0  0  0  0  0  0  0  0  0  0  0  0
    4.0710   -1.1600    0.0000 N   0  0  0  0  0  0  0  0  0  0  0  0
    5.4960   -0.6910    0.0000 C   0  0  1  0  0  0  0  0  0  0  0  0
    6.8350   -1.3680    0.0000 C   0  0  1  0  0  0  0  0  0  0  0  0
    7.6560   -2.6230    0.0000 S   0  0  0  0  0  0  0  0  0  0  0  0
    9.1540   -2.5390    0.0000 C   0  0  0  0  0  0  0  0  0  0  0  0
    9.8300   -1.2000    0.0000 C   0  0  0  0  0  0  0  0  0  0  0  0
   11.3280   -1.1160    0.0000 C   0  0  0  0  0  0  0  0  0  0  0  0
    9.0090    0.0550    0.0000 C   0  0  0  0  0  0  0  0  0  0  0  0
    7.5110   -0.0290    0.0000 N   0  0  0  0  0  0  0  0  0  0  0  0
    6.1720    0.6480    0.0000 C   0  0  0  0  0  0  0  0  0  0  0  0
    5.7030    2.0720    0.0000 O   0  0  0  0  0  0  0  0  0  0  0  0
    9.6850    1.3940    0.0000 C   0  0  0  0  0  0  0  0  0  0  0  0
   11.1820    1.4780    0.0000 O   0  0  0  0  0  0  0  0  0  0  0  0
   11.8590    2.8170    0.0000 C   0  0  0  0  0  0  0  0  0  0  0  0
   13.3560    2.9010    0.0000 O   0  0  0  0  0  0  0  0  0  0  0  0
   14.0320    4.2400    0.0000 C   0  0  0  0  0  0  0  0  0  0  0  0
   13.2110    5.4950    0.0000 O   0  0  0  0  0  0  0  0  0  0  0  0
   15.5300    4.3240    0.0000 C   0  0  0  0  0  0  0  0  0  0  0  0
   17.0280    4.4080    0.0000 C   0  0  0  0  0  0  0  0  0  0  0  0
   15.6140    2.8260    0.0000 C   0  0  0  0  0  0  0  0  0  0  0  0
   15.4460    5.8220    0.0000 C   0  0  0  0  0  0  0  0  0  0  0  0
    8.8630    2.6490    0.0000 O   0  0  0  0  0  0  0  0  0  0  0  0
  1  2  1  0  0  0  0
  1  5  1  0  0  0  0
  2  3  2  0  0  0  0
  3  4  1  0  0  0  0
  3  7  1  0  0  0  0
  4  5  2  0  0  0  0
  5  6  1  0  0  0  0
  7  8  2  0  0  0  0
  7 11  1  0  0  0  0
  8  9  1  0  0  0  0
  9 10  1  0  0  0  0
 11 12  2  0  0  0  0
 11 13  1  0  0  0  0
 14 13  1  6  0  0  0
 14 15  1  0  0  0  0
 14 22  1  0  0  0  0
 15 16  1  6  0  0  0
 15 21  1  0  0  0  0
 16 17  1  0  0  0  0
 17 18  1  0  0  0  0
 18 19  1  0  0  0  0
 18 20  2  0  0  0  0
 20 21  1  0  0  0  0
 20 24  1  0  0  0  0
 21 22  1  0  0  0  0
 22 23  2  0  0  0  0
 24 25  1  0  0  0  0
 24 34  2  0  0  0  0
 25 26  1  0  0  0  0
 26 27  1  0  0  0  0
 27 28  1  0  0  0  0
 28 29  2  0  0  0  0
 28 30  1  0  0  0  0
 30 31  1  0  0  0  0
 30 32  1  0  0  0  0
 30 33  1  0  0  0  0
M  END
>  <Index>
1469

>  <ID>
HT0404

>  <class>
1

>  <apol>
68.783829

>  <ast_fraglike>
0

>  <ast_fraglike_ext>
0

>  <ast_violation>
2

>  <ast_violation_ext>
4

>  <a_acc>
6

>  <a_acid>
0

>  <a_aro>
5

>  <a_base>
0

>  <a_count>
59

>  <a_don>
2

>  <a_donacc>
8

>  <a_heavy>
34

>  <a_hyd>
15

>  <a_IC>
111.27985

>  <a_ICM>
1.8860991

>  <a_nB>
0

>  <a_nBr>
0

>  <a_nC>
20

>  <a_nCl>
0

>  <a_nF>
0

>  <a_nH>
25

>  <a_nI>
0

>  <a_nN>
5

>  <a_nO>
7

>  <a_nP>
0

>  <a_nS>
2

>  <balabanJ>
1.5703746

>  <BCUT_PEOE_0>
-2.6856253

>  <BCUT_PEOE_1>
-0.32675028

>  <BCUT_PEOE_2>
0.31069893

>  <BCUT_PEOE_3>
2.7334185

>  <BCUT_SLOGP_0>
-2.8924844

>  <BCUT_SLOGP_1>
-0.24443243

>  <BCUT_SLOGP_2>
0.38801515

>  <BCUT_SLOGP_3>
2.6673572

>  <BCUT_SMR_0>
-2.400378

>  <BCUT_SMR_1>
-0.073492534

>  <BCUT_SMR_2>
0.51359129

>  <BCUT_SMR_3>
3.0163777

>  <bpol>
44.770176

>  <b_1rotN>
7

>  <b_1rotR>
0.19444445

>  <b_ar>
5

>  <b_count>
61

>  <b_double>
6

>  <b_heavy>
36

>  <b_max1len>
4

>  <b_rotN>
11

>  <b_rotR>
0.30555555

>  <b_single>
50

>  <b_triple>
0

>  <chi0>
25.206377

>  <chi0v>
20.872482

>  <chi0v_C>
13.146264

>  <chi0_C>
13.972174

>  <chi1>
15.950615

>  <chi1v>
12.003349

>  <chi1v_C>
4.5142369

>  <chi1_C>
5.1825218

>  <chiral>
2

>  <chiral_u>
0

>  <density>
0.8567912

>  <diameter>
17

>  <FCharge>
0

>  <GCUT_PEOE_0>
-0.823259

>  <GCUT_PEOE_1>
-0.36121413

>  <GCUT_PEOE_2>
-0.023561535

>  <GCUT_PEOE_3>
2.661957

>  <GCUT_SLOGP_0>
-1.3345562

>  <GCUT_SLOGP_1>
-0.34908324

>  <GCUT_SLOGP_2>
0.062539496

>  <GCUT_SLOGP_3>
2.6232986

>  <GCUT_SMR_0>
-0.52936983

>  <GCUT_SMR_1>
-0.14254732

>  <GCUT_SMR_2>
0.15789232

>  <GCUT_SMR_3>
2.9308107

>  <Kier1>
28.569445

>  <Kier2>
12.029903

>  <Kier3>
6.6675067

>  <KierA1>
24.509418

>  <KierA2>
10.270188

>  <KierA3>
5.6727424

>  <KierFlex>
7.4034214

>  <lip_acc>
12

>  <lip_don>
3

>  <lip_druglike>
0

>  <lip_violation>
2

>  <logP(o/w)>
1.056

>  <logS>
-4.3947802

>  <mr>
12.594514

>  <mutagenic>
1

>  <nmol>
1

>  <opr_brigid>
15

>  <opr_leadlike>
0

>  <opr_nring>
3

>  <opr_nrot>
8

>  <opr_violation>
2

>  <PC+>
0

>  <PC->
0

>  <PEOE_PC+>
3.6133029

>  <PEOE_PC->
-3.6133029

>  <PEOE_RPC+>
0.086492188

>  <PEOE_RPC->
0.093197599

>  <PEOE_VSA+0>
70.392776

>  <PEOE_VSA+1>
78.986923

>  <PEOE_VSA+2>
32.205559

>  <PEOE_VSA+3>
56.280457

>  <PEOE_VSA+4>
0

>  <PEOE_VSA+5>
40.607563

>  <PEOE_VSA+6>
14.708499

>  <PEOE_VSA-0>
20.956217

>  <PEOE_VSA-1>
70.473999

>  <PEOE_VSA-2>
30.64588

>  <PEOE_VSA-3>
0

>  <PEOE_VSA-4>
5.6825762

>  <PEOE_VSA-5>
71.828674

>  <PEOE_VSA-6>
0.13689101

>  <PEOE_VSA_FHYD>
0.73024428

>  <PEOE_VSA_FNEG>
0.40519741

>  <PEOE_VSA_FPNEG>
0.15753134

>  <PEOE_VSA_FPOL>
0.26975569

>  <PEOE_VSA_FPOS>
0.59480262

>  <PEOE_VSA_FPPOS>
0.11222436

>  <PEOE_VSA_HYD>
359.9418

>  <PEOE_VSA_NEG>
199.72424

>  <PEOE_VSA_PNEG>
77.64814

>  <PEOE_VSA_POL>
132.9642

>  <PEOE_VSA_POS>
293.18176

>  <PEOE_VSA_PPOS>
55.316059

>  <petitjean>
0.47058824

>  <petitjeanSC>
0.8888889

>  <Q_PC+>
0

>  <Q_PC->
0

>  <Q_RPC+>
0

>  <Q_RPC->
0

>  <Q_VSA_FHYD>
1

>  <Q_VSA_FNEG>
0

>  <Q_VSA_FPNEG>
0

>  <Q_VSA_FPOL>
0

>  <Q_VSA_FPOS>
1

>  <Q_VSA_FPPOS>
0

>  <Q_VSA_HYD>
492.90601

>  <Q_VSA_NEG>
0

>  <Q_VSA_PNEG>
0

>  <Q_VSA_POL>
0

>  <Q_VSA_POS>
492.90601

>  <Q_VSA_PPOS>
0

>  <radius>
9

>  <reactive>
1

>  <rings>
3

>  <RPC+>
0

>  <RPC->
0

>  <rsynth>
1

>  <SlogP>
0.83969998

>  <SlogP_VSA0>
50.90794

>  <SlogP_VSA1>
48.675087

>  <SlogP_VSA2>
134.99651

>  <SlogP_VSA3>
40.217678

>  <SlogP_VSA4>
2.7567475

>  <SlogP_VSA5>
60.726051

>  <SlogP_VSA6>
0

>  <SlogP_VSA7>
15.81601

>  <SlogP_VSA8>
0

>  <SlogP_VSA9>
197.30203

>  <SMR>
12.43021

>  <SMR_VSA0>
128.6674

>  <SMR_VSA1>
39.309704

>  <SMR_VSA2>
18.01075

>  <SMR_VSA3>
15.028167

>  <SMR_VSA4>
0.50074643

>  <SMR_VSA5>
48.7132

>  <SMR_VSA6>
68.982918

>  <SMR_VSA7>
232.18515

>  <TPSA>
162.50999

>  <VAdjEq>
0.33644459

>  <VAdjMa>
6.1699252

>  <VDistEq>
3.8798859

>  <VDistMa>
9.8730707

>  <vdw_area>
492.90601

>  <vdw_vol>
597.08832

>  <vsa_acc>
70.835518

>  <vsa_acid>
0

>  <vsa_base>
0

>  <vsa_don>
23.425066

>  <vsa_hyd>
259.36539

>  <vsa_other>
114.40056

>  <vsa_pol>
94.26059

>  <Weight>
511.57999

>  <weinerPath>
3822

>  <weinerPol>
53

>  <zagreb>
178

$$$$