O1c2c3c4c(c(O)c2C)c(O)c(NC(=O)C(=CC=C[C@H](C)[C@H](O)[C@@H](C)[C@@H](O)[C@@H](C)[C@H](OC(=O)C)[C@H](C)[C@@H](OC)C=CO[C@]1(C)C3=O)C)c(C=NN1CCN(CC1)C)c4O
  MOE2013           2D

 59 63  0  0  1  0  0  0  0  0999 V2000
    0.0240    0.0840    0.0000 O   0  0  0  0  0  0  0  0  0  0  0  0
   -1.3870    0.6000    0.0000 C   0  0  0  0  0  0  0  0  0  0  0  0
   -1.3280    2.1040    0.0000 C   0  0  0  0  0  0  0  0  0  0  0  0
   -2.5650    2.9190    0.0000 C   0  0  0  0  0  0  0  0  0  0  0  0
   -3.9070    2.2120    0.0000 C   0  0  0  0  0  0  0  0  0  0  0  0
   -3.9910    0.7330    0.0000 C   0  0  0  0  0  0  0  0  0  0  0  0
   -5.3240    0.0230    0.0000 O   0  0  0  0  0  0  0  0  0  0  0  0
   -2.7270   -0.0910    0.0000 C   0  0  0  0  0  0  0  0  0  0  0  0
   -2.8080   -1.5860    0.0000 C   0  0  0  0  0  0  0  0  0  0  0  0
   -5.1660    3.0670    0.0000 C   0  0  0  0  0  0  0  0  0  0  0  0
   -6.5020    2.2940    0.0000 O   0  0  0  0  0  0  0  0  0  0  0  0
   -5.1150    4.4780    0.0000 C   0  0  0  0  0  0  0  0  0  0  0  0
   -6.2080    5.5060    0.0000 N   0  0  0  0  0  0  0  0  0  0  0  0
   -5.6390    6.9790    0.0000 C   0  0  0  0  0  0  0  0  0  0  0  0
   -6.6720    8.0970    0.0000 O   0  0  0  0  0  0  0  0  0  0  0  0
   -4.1280    7.3000    0.0000 C   0  0  0  0  0  0  0  0  0  0  0  0
   -3.5830    8.6910    0.0000 C   0  0  0  0  0  0  0  0  0  0  0  0
   -2.0750    8.9180    0.0000 C   0  0  0  0  0  0  0  0  0  0  0  0
   -1.4820   10.2570    0.0000 C   0  0  0  0  0  0  0  0  0  0  0  0
    0.0260   10.4640    0.0000 C   0  0  2  0  0  0  0  0  0  0  0  0
    0.6020   11.8900    0.0000 C   0  0  0  0  0  0  0  0  0  0  0  0
    0.9230    9.2830    0.0000 C   0  0  2  0  0  0  0  0  0  0  0  0
    0.3270    7.8880    0.0000 O   0  0  0  0  0  0  0  0  0  0  0  0
    2.4280    9.3900    0.0000 C   0  0  1  0  0  0  0  0  0  0  0  0
    3.1050   10.7000    0.0000 C   0  0  0  0  0  0  0  0  0  0  0  0
    3.2170    8.0840    0.0000 C   0  0  1  0  0  0  0  0  0  0  0  0
    2.4090    6.7970    0.0000 O   0  0  0  0  0  0  0  0  0  0  0  0
    4.6820    8.0460    0.0000 C   0  0  1  0  0  0  0  0  0  0  0  0
    5.4790    9.3250    0.0000 C   0  0  0  0  0  0  0  0  0  0  0  0
    5.4640    6.7470    0.0000 C   0  0  2  0  0  0  0  0  0  0  0  0
    6.9150    6.7440    0.0000 O   0  0  0  0  0  0  0  0  0  0  0  0
    7.8930    7.7860    0.0000 C   0  0  0  0  0  0  0  0  0  0  0  0
    9.4120    7.4390    0.0000 O   0  0  0  0  0  0  0  0  0  0  0  0
    7.5760    9.2650    0.0000 C   0  0  0  0  0  0  0  0  0  0  0  0
    4.6890    5.4370    0.0000 C   0  0  2  0  0  0  0  0  0  0  0  0
    3.1890    5.4680    0.0000 C   0  0  0  0  0  0  0  0  0  0  0  0
    5.4090    4.1270    0.0000 C   0  0  1  0  0  0  0  0  0  0  0  0
    6.9170    4.0960    0.0000 O   0  0  0  0  0  0  0  0  0  0  0  0
    7.6410    2.7820    0.0000 C   0  0  0  0  0  0  0  0  0  0  0  0
    4.6730    2.8320    0.0000 C   0  0  0  0  0  0  0  0  0  0  0  0
    3.1780    2.7410    0.0000 C   0  0  0  0  0  0  0  0  0  0  0  0
    2.4790    1.4500    0.0000 O   0  0  0  0  0  0  0  0  0  0  0  0
    1.0060    1.2560    0.0000 C   0  0  1  0  0  0  0  0  0  0  0  0
    1.7200   -0.0830    0.0000 C   0  0  0  0  0  0  0  0  0  0  0  0
    0.0920    2.4940    0.0000 C   0  0  0  0  0  0  0  0  0  0  0  0
    0.5860    3.9200    0.0000 O   0  0  0  0  0  0  0  0  0  0  0  0
   -2.8300    6.5560    0.0000 C   0  0  0  0  0  0  0  0  0  0  0  0
   -3.7350    5.2700    0.0000 C   0  0  0  0  0  0  0  0  0  0  0  0
   -4.4610    6.5290    0.0000 C   0  0  0  0  0  0  0  0  0  0  0  0
   -4.9500    7.7630    0.0000 N   0  0  0  0  0  0  0  0  0  0  0  0
   -5.5140    9.1200    0.0000 N   0  0  0  0  0  0  0  0  0  0  0  0
   -7.0290    9.3650    0.0000 C   0  0  0  0  0  0  0  0  0  0  0  0
   -7.6000   10.7290    0.0000 C   0  0  0  0  0  0  0  0  0  0  0  0
   -6.7040   11.9400    0.0000 N   0  0  0  0  0  0  0  0  0  0  0  0
   -5.2160   11.7330    0.0000 C   0  0  0  0  0  0  0  0  0  0  0  0
   -4.6390   10.3620    0.0000 C   0  0  0  0  0  0  0  0  0  0  0  0
   -7.2860   13.3140    0.0000 C   0  0  0  0  0  0  0  0  0  0  0  0
   -2.5190    4.4170    0.0000 C   0  0  0  0  0  0  0  0  0  0  0  0
   -1.1500    5.0940    0.0000 O   0  0  0  0  0  0  0  0  0  0  0  0
  1  2  1  0  0  0  0
  1 43  1  0  0  0  0
  2  3  1  0  0  0  0
  2  8  2  0  0  0  0
  3  4  2  0  0  0  0
  3 45  1  0  0  0  0
  4  5  1  0  0  0  0
  4 58  1  0  0  0  0
  5  6  2  0  0  0  0
  5 10  1  0  0  0  0
  6  7  1  0  0  0  0
  6  8  1  0  0  0  0
  8  9  1  0  0  0  0
 10 11  1  0  0  0  0
 10 12  2  0  0  0  0
 12 13  1  0  0  0  0
 12 48  1  0  0  0  0
 13 14  1  0  0  0  0
 14 15  2  0  0  0  0
 14 16  1  0  0  0  0
 16 17  2  3  0  0  0
 16 47  1  0  0  0  0
 17 18  1  0  0  0  0
 18 19  2  3  0  0  0
 19 20  1  0  0  0  0
 20 21  1  6  0  0  0
 20 22  1  0  0  0  0
 22 23  1  1  0  0  0
 22 24  1  0  0  0  0
 24 25  1  1  0  0  0
 24 26  1  0  0  0  0
 26 27  1  6  0  0  0
 26 28  1  0  0  0  0
 28 29  1  1  0  0  0
 28 30  1  0  0  0  0
 30 31  1  6  0  0  0
 30 35  1  0  0  0  0
 31 32  1  0  0  0  0
 32 33  2  0  0  0  0
 32 34  1  0  0  0  0
 35 36  1  1  0  0  0
 35 37  1  0  0  0  0
 37 38  1  1  0  0  0
 37 40  1  0  0  0  0
 38 39  1  0  0  0  0
 40 41  2  3  0  0  0
 41 42  1  0  0  0  0
 42 43  1  0  0  0  0
 43 44  1  6  0  0  0
 43 45  1  0  0  0  0
 45 46  2  0  0  0  0
 48 49  1  0  0  0  0
 48 58  2  0  0  0  0
 49 50  2  3  0  0  0
 50 51  1  0  0  0  0
 51 52  1  0  0  0  0
 51 56  1  0  0  0  0
 52 53  1  0  0  0  0
 53 54  1  0  0  0  0
 54 55  1  0  0  0  0
 54 57  1  0  0  0  0
 55 56  1  0  0  0  0
 58 59  1  0  0  0  0
M  END
>  <Index>
1713

>  <ID>
HT1821

>  <class>
1

>  <apol>
128.37799

>  <ast_fraglike>
0

>  <ast_fraglike_ext>
0

>  <ast_violation>
4

>  <ast_violation_ext>
6

>  <a_acc>
13

>  <a_acid>
0

>  <a_aro>
10

>  <a_base>
0

>  <a_count>
117

>  <a_don>
6

>  <a_donacc>
19

>  <a_heavy>
59

>  <a_hyd>
38

>  <a_IC>
179.72084

>  <a_ICM>
1.5360756

>  <a_nB>
0

>  <a_nBr>
0

>  <a_nC>
43

>  <a_nCl>
0

>  <a_nF>
0

>  <a_nH>
58

>  <a_nI>
0

>  <a_nN>
4

>  <a_nO>
12

>  <a_nP>
0

>  <a_nS>
0

>  <balabanJ>
1.4801073

>  <BCUT_PEOE_0>
-2.7796512

>  <BCUT_PEOE_1>
-0.47244185

>  <BCUT_PEOE_2>
0.51739305

>  <BCUT_PEOE_3>
2.7886617

>  <BCUT_SLOGP_0>
-2.8551557

>  <BCUT_SLOGP_1>
-0.40825117

>  <BCUT_SLOGP_2>
0.52055597

>  <BCUT_SLOGP_3>
2.7514131

>  <BCUT_SMR_0>
-2.5531604

>  <BCUT_SMR_1>
-0.33340481

>  <BCUT_SMR_2>
0.68026674

>  <BCUT_SMR_3>
3.0112808

>  <bpol>
78.564003

>  <b_1rotN>
4

>  <b_1rotR>
0.063492067

>  <b_ar>
11

>  <b_count>
121

>  <b_double>
7

>  <b_heavy>
63

>  <b_max1len>
4

>  <b_rotN>
5

>  <b_rotR>
0.079365082

>  <b_single>
103

>  <b_triple>
0

>  <chi0>
43.670116

>  <chi0v>
35.346779

>  <chi0v_C>
28.411331

>  <chi0_C>
30.272774

>  <chi1>
27.730885

>  <chi1v>
19.788517

>  <chi1v_C>
13.386751

>  <chi1_C>
15.629786

>  <chiral>
9

>  <chiral_u>
0

>  <density>
0.7500602

>  <diameter>
21

>  <FCharge>
0

>  <GCUT_PEOE_0>
-0.85567832

>  <GCUT_PEOE_1>
-0.40211815

>  <GCUT_PEOE_2>
0.040046491

>  <GCUT_PEOE_3>
3.2419894

>  <GCUT_SLOGP_0>
-0.99771661

>  <GCUT_SLOGP_1>
-0.30323383

>  <GCUT_SLOGP_2>
0.019119566

>  <GCUT_SLOGP_3>
3.2884116

>  <GCUT_SMR_0>
-0.53389114

>  <GCUT_SMR_1>
-0.19237731

>  <GCUT_SMR_2>
0.14832626

>  <GCUT_SMR_3>
3.4843521

>  <Kier1>
50.00655

>  <Kier2>
21.326618

>  <Kier3>
10.930113

>  <KierA1>
41.261997

>  <KierA2>
17.536407

>  <KierA3>
8.9658356

>  <KierFlex>
12.264191

>  <lip_acc>
16

>  <lip_don>
6

>  <lip_druglike>
0

>  <lip_violation>
3

>  <logP(o/w)>
4.5560002

>  <logS>
-6.2655101

>  <mr>
21.707123

>  <mutagenic>
1

>  <nmol>
1

>  <opr_brigid>
40

>  <opr_leadlike>
0

>  <opr_nring>
4

>  <opr_nrot>
20

>  <opr_violation>
4

>  <PC+>
0

>  <PC->
0

>  <PEOE_PC+>
5.5469351

>  <PEOE_PC->
-5.5469351

>  <PEOE_RPC+>
0.04674913

>  <PEOE_RPC->
0.070504695

>  <PEOE_VSA+0>
290.20374

>  <PEOE_VSA+1>
128.30783

>  <PEOE_VSA+2>
8.458519

>  <PEOE_VSA+3>
8.6190128

>  <PEOE_VSA+4>
61.187927

>  <PEOE_VSA+5>
27.65803

>  <PEOE_VSA+6>
0

>  <PEOE_VSA-0>
91.736626

>  <PEOE_VSA-1>
111.75542

>  <PEOE_VSA-2>
0

>  <PEOE_VSA-3>
0

>  <PEOE_VSA-4>
9.4210396

>  <PEOE_VSA-5>
40.700764

>  <PEOE_VSA-6>
48.989616

>  <PEOE_VSA_FHYD>
0.77273446

>  <PEOE_VSA_FNEG>
0.365888

>  <PEOE_VSA_FPNEG>
0.11983894

>  <PEOE_VSA_FPOL>
0.22726557

>  <PEOE_VSA_FPOS>
0.634112

>  <PEOE_VSA_FPPOS>
0.10742663

>  <PEOE_VSA_HYD>
639.08118

>  <PEOE_VSA_NEG>
302.60345

>  <PEOE_VSA_PNEG>
99.11142

>  <PEOE_VSA_POL>
187.95738

>  <PEOE_VSA_POS>
524.43506

>  <PEOE_VSA_PPOS>
88.845955

>  <petitjean>
0.42857143

>  <petitjeanSC>
0.75

>  <Q_PC+>
0

>  <Q_PC->
0

>  <Q_RPC+>
0

>  <Q_RPC->
0

>  <Q_VSA_FHYD>
1

>  <Q_VSA_FNEG>
0

>  <Q_VSA_FPNEG>
0

>  <Q_VSA_FPOL>
0

>  <Q_VSA_FPOS>
1

>  <Q_VSA_FPPOS>
0

>  <Q_VSA_HYD>
827.03851

>  <Q_VSA_NEG>
0

>  <Q_VSA_PNEG>
0

>  <Q_VSA_POL>
0

>  <Q_VSA_POS>
827.03851

>  <Q_VSA_PPOS>
0

>  <radius>
12

>  <reactive>
1

>  <rings>
5

>  <RPC+>
0

>  <RPC->
0

>  <rsynth>
0.55932206

>  <SlogP>
4.3354201

>  <SlogP_VSA0>
137.92603

>  <SlogP_VSA1>
42.828716

>  <SlogP_VSA2>
123.81305

>  <SlogP_VSA3>
73.758316

>  <SlogP_VSA4>
51.062126

>  <SlogP_VSA5>
88.129639

>  <SlogP_VSA6>
0

>  <SlogP_VSA7>
95.419701

>  <SlogP_VSA8>
0

>  <SlogP_VSA9>
290.33859

>  <SMR>
22.04792

>  <SMR_VSA0>
104.58631

>  <SMR_VSA1>
160.71513

>  <SMR_VSA2>
17.643185

>  <SMR_VSA3>
59.590611

>  <SMR_VSA4>
25.913427

>  <SMR_VSA5>
90.273773

>  <SMR_VSA6>
92.450172

>  <SMR_VSA7>
352.10355

>  <TPSA>
220.14999

>  <VAdjEq>
0.22457284

>  <VAdjMa>
6.9772801

>  <VDistEq>
4.0230184

>  <VDistMa>
11.536993

>  <vdw_area>
827.03851

>  <vdw_vol>
1097.1825

>  <vsa_acc>
57.633072

>  <vsa_acid>
0

>  <vsa_base>
0

>  <vsa_don>
5.6825762

>  <vsa_hyd>
567.76904

>  <vsa_other>
60.028355

>  <vsa_pol>
131.15025

>  <Weight>
822.953

>  <weinerPath>
13890

>  <weinerPol>
115

>  <zagreb>
314

$$$$