s1cnc(C)c1C=CC=1CS[C@H]2N(C=1C(OCOC(=O)C(C)(C)C)=O)C(=O)[C@H]2NC(=O)C(=NOC)c1nc(sc1)N
  MOE2013           2D

 41 44  0  0  1  0  0  0  0  0999 V2000
    0.0000    0.0000    0.0000 S   0  0  0  0  0  0  0  0  0  0  0  0
   -1.4130   -0.5030    0.0000 C   0  0  0  0  0  0  0  0  0  0  0  0
   -1.3720   -2.0020    0.0000 N   0  0  0  0  0  0  0  0  0  0  0  0
    0.0670   -2.4260    0.0000 C   0  0  0  0  0  0  0  0  0  0  0  0
    0.5700   -3.8390    0.0000 C   0  0  0  0  0  0  0  0  0  0  0  0
    0.9150   -1.1890    0.0000 C   0  0  0  0  0  0  0  0  0  0  0  0
    2.4140   -1.1470    0.0000 C   0  0  0  0  0  0  0  0  0  0  0  0
    3.1280    0.1720    0.0000 C   0  0  0  0  0  0  0  0  0  0  0  0
    4.6280    0.2130    0.0000 C   0  0  0  0  0  0  0  0  0  0  0  0
    5.4130   -1.0650    0.0000 C   0  0  0  0  0  0  0  0  0  0  0  0
    6.9130   -1.0230    0.0000 S   0  0  0  0  0  0  0  0  0  0  0  0
    7.6260    0.2960    0.0000 C   0  0  1  0  0  0  0  0  0  0  0  0
    6.8410    1.5740    0.0000 N   0  0  0  0  0  0  0  0  0  0  0  0
    5.3410    1.5330    0.0000 C   0  0  0  0  0  0  0  0  0  0  0  0
    4.5560    2.8100    0.0000 C   0  0  0  0  0  0  0  0  0  0  0  0
    3.0560    2.7690    0.0000 O   0  0  0  0  0  0  0  0  0  0  0  0
    2.2710    4.0470    0.0000 C   0  0  0  0  0  0  0  0  0  0  0  0
    0.7710    4.0050    0.0000 O   0  0  0  0  0  0  0  0  0  0  0  0
   -0.0140    5.2830    0.0000 C   0  0  0  0  0  0  0  0  0  0  0  0
    0.7000    6.6030    0.0000 O   0  0  0  0  0  0  0  0  0  0  0  0
   -1.5140    5.2420    0.0000 C   0  0  0  0  0  0  0  0  0  0  0  0
   -3.0130    5.2010    0.0000 C   0  0  0  0  0  0  0  0  0  0  0  0
   -1.5550    6.7410    0.0000 C   0  0  0  0  0  0  0  0  0  0  0  0
   -1.4720    3.7420    0.0000 C   0  0  0  0  0  0  0  0  0  0  0  0
    5.2700    4.1300    0.0000 O   0  0  0  0  0  0  0  0  0  0  0  0
    8.1190    2.3590    0.0000 C   0  0  0  0  0  0  0  0  0  0  0  0
    8.4670    3.8190    0.0000 O   0  0  0  0  0  0  0  0  0  0  0  0
    8.9040    1.0820    0.0000 C   0  0  1  0  0  0  0  0  0  0  0  0
   10.3630    0.7340    0.0000 N   0  0  0  0  0  0  0  0  0  0  0  0
   11.3940    1.8230    0.0000 C   0  0  0  0  0  0  0  0  0  0  0  0
   10.9660    3.2610    0.0000 O   0  0  0  0  0  0  0  0  0  0  0  0
   12.8530    1.4750    0.0000 C   0  0  0  0  0  0  0  0  0  0  0  0
   13.2810    0.0370    0.0000 N   0  0  0  0  0  0  0  0  0  0  0  0
   14.7400   -0.3110    0.0000 O   0  0  0  0  0  0  0  0  0  0  0  0
   15.1690   -1.7480    0.0000 C   0  0  0  0  0  0  0  0  0  0  0  0
   13.8840    2.5640    0.0000 C   0  0  0  0  0  0  0  0  0  0  0  0
   15.3720    2.3710    0.0000 N   0  0  0  0  0  0  0  0  0  0  0  0
   16.0160    3.7260    0.0000 C   0  0  0  0  0  0  0  0  0  0  0  0
   14.9260    4.7570    0.0000 S   0  0  0  0  0  0  0  0  0  0  0  0
   13.6090    4.0390    0.0000 C   0  0  0  0  0  0  0  0  0  0  0  0
   17.4900    4.0010    0.0000 N   0  0  0  0  0  0  0  0  0  0  0  0
  1  2  1  0  0  0  0
  1  6  1  0  0  0  0
  2  3  2  0  0  0  0
  3  4  1  0  0  0  0
  4  5  1  0  0  0  0
  4  6  2  0  0  0  0
  6  7  1  0  0  0  0
  7  8  2  3  0  0  0
  8  9  1  0  0  0  0
  9 10  1  0  0  0  0
  9 14  2  0  0  0  0
 10 11  1  0  0  0  0
 12 11  1  1  0  0  0
 12 13  1  0  0  0  0
 12 28  1  0  0  0  0
 13 14  1  0  0  0  0
 13 26  1  0  0  0  0
 14 15  1  0  0  0  0
 15 16  1  0  0  0  0
 15 25  2  0  0  0  0
 16 17  1  0  0  0  0
 17 18  1  0  0  0  0
 18 19  1  0  0  0  0
 19 20  2  0  0  0  0
 19 21  1  0  0  0  0
 21 22  1  0  0  0  0
 21 23  1  0  0  0  0
 21 24  1  0  0  0  0
 26 27  2  0  0  0  0
 26 28  1  0  0  0  0
 28 29  1  1  0  0  0
 29 30  1  0  0  0  0
 30 31  2  0  0  0  0
 30 32  1  0  0  0  0
 32 33  2  3  0  0  0
 32 36  1  0  0  0  0
 33 34  1  0  0  0  0
 34 35  1  0  0  0  0
 36 37  1  0  0  0  0
 36 40  2  0  0  0  0
 37 38  2  0  0  0  0
 38 39  1  0  0  0  0
 38 41  1  0  0  0  0
 39 40  1  0  0  0  0
M  END
>  <Index>
1468

>  <ID>
HT0402

>  <class>
1

>  <apol>
83.584206

>  <ast_fraglike>
0

>  <ast_fraglike_ext>
0

>  <ast_violation>
2

>  <ast_violation_ext>
4

>  <a_acc>
7

>  <a_acid>
0

>  <a_aro>
10

>  <a_base>
0

>  <a_count>
69

>  <a_don>
2

>  <a_donacc>
9

>  <a_heavy>
41

>  <a_hyd>
21

>  <a_IC>
130.86971

>  <a_ICM>
1.8966622

>  <a_nB>
0

>  <a_nBr>
0

>  <a_nC>
25

>  <a_nCl>
0

>  <a_nF>
0

>  <a_nH>
28

>  <a_nI>
0

>  <a_nN>
6

>  <a_nO>
7

>  <a_nP>
0

>  <a_nS>
3

>  <balabanJ>
1.4078333

>  <BCUT_PEOE_0>
-2.679244

>  <BCUT_PEOE_1>
-0.38019606

>  <BCUT_PEOE_2>
0.45043051

>  <BCUT_PEOE_3>
2.7310452

>  <BCUT_SLOGP_0>
-2.8916881

>  <BCUT_SLOGP_1>
-0.32937947

>  <BCUT_SLOGP_2>
0.52630413

>  <BCUT_SLOGP_3>
2.6673174

>  <BCUT_SMR_0>
-2.3949428

>  <BCUT_SMR_1>
-0.16215232

>  <BCUT_SMR_2>
0.72878474

>  <BCUT_SMR_3>
3.0134206

>  <bpol>
51.649796

>  <b_1rotN>
9

>  <b_1rotR>
0.20454545

>  <b_ar>
10

>  <b_count>
72

>  <b_double>
7

>  <b_heavy>
44

>  <b_max1len>
4

>  <b_rotN>
13

>  <b_rotR>
0.29545453

>  <b_single>
55

>  <b_triple>
0

>  <chi0>
29.896612

>  <chi0v>
25.276493

>  <chi0v_C>
15.878315

>  <chi0_C>
17.248194

>  <chi1>
19.416941

>  <chi1v>
14.965318

>  <chi1v_C>
5.6749206

>  <chi1_C>
6.8323517

>  <chiral>
2

>  <chiral_u>
0

>  <density>
0.85574591

>  <diameter>
17

>  <FCharge>
0

>  <GCUT_PEOE_0>
-0.82295483

>  <GCUT_PEOE_1>
-0.38718629

>  <GCUT_PEOE_2>
-0.015048814

>  <GCUT_PEOE_3>
2.7235205

>  <GCUT_SLOGP_0>
-1.3345569

>  <GCUT_SLOGP_1>
-0.33555403

>  <GCUT_SLOGP_2>
0.10739417

>  <GCUT_SLOGP_3>
2.7142103

>  <GCUT_SMR_0>
-0.5287438

>  <GCUT_SMR_1>
-0.16737828

>  <GCUT_SMR_2>
0.24528179

>  <GCUT_SMR_3>
3.0062079

>  <Kier1>
33.884296

>  <Kier2>
14.853516

>  <Kier3>
8.1859407

>  <KierA1>
29.134403

>  <KierA2>
12.721109

>  <KierA3>
6.9910264

>  <KierFlex>
9.0395594

>  <lip_acc>
13

>  <lip_don>
3

>  <lip_druglike>
0

>  <lip_violation>
2

>  <logP(o/w)>
1.95

>  <logS>
-5.9970798

>  <mr>
15.674189

>  <mutagenic>
1

>  <nmol>
1

>  <opr_brigid>
21

>  <opr_leadlike>
0

>  <opr_nring>
4

>  <opr_nrot>
10

>  <opr_violation>
2

>  <PC+>
0

>  <PC->
0

>  <PEOE_PC+>
4.0334358

>  <PEOE_PC->
-4.0334358

>  <PEOE_RPC+>
0.0775631

>  <PEOE_RPC->
0.083489902

>  <PEOE_VSA+0>
77.092331

>  <PEOE_VSA+1>
91.783081

>  <PEOE_VSA+2>
32.205559

>  <PEOE_VSA+3>
76.041077

>  <PEOE_VSA+4>
0

>  <PEOE_VSA+5>
40.607563

>  <PEOE_VSA+6>
14.708499

>  <PEOE_VSA-0>
39.678196

>  <PEOE_VSA-1>
99.168404

>  <PEOE_VSA-2>
30.64588

>  <PEOE_VSA-3>
0

>  <PEOE_VSA-4>
5.6825762

>  <PEOE_VSA-5>
77.511253

>  <PEOE_VSA-6>
0.13689101

>  <PEOE_VSA_FHYD>
0.76310277

>  <PEOE_VSA_FNEG>
0.43198344

>  <PEOE_VSA_FPNEG>
0.14238207

>  <PEOE_VSA_FPOL>
0.23689723

>  <PEOE_VSA_FPOS>
0.56801653

>  <PEOE_VSA_FPPOS>
0.094515152

>  <PEOE_VSA_HYD>
446.61453

>  <PEOE_VSA_NEG>
252.8232

>  <PEOE_VSA_PNEG>
83.330719

>  <PEOE_VSA_POL>
138.64677

>  <PEOE_VSA_POS>
332.43811

>  <PEOE_VSA_PPOS>
55.316059

>  <petitjean>
0.47058824

>  <petitjeanSC>
0.8888889

>  <Q_PC+>
0

>  <Q_PC->
0

>  <Q_RPC+>
0

>  <Q_RPC->
0

>  <Q_VSA_FHYD>
1

>  <Q_VSA_FNEG>
0

>  <Q_VSA_FPNEG>
0

>  <Q_VSA_FPOL>
0

>  <Q_VSA_FPOS>
1

>  <Q_VSA_FPPOS>
0

>  <Q_VSA_HYD>
585.26129

>  <Q_VSA_NEG>
0

>  <Q_VSA_PNEG>
0

>  <Q_VSA_POL>
0

>  <Q_VSA_POS>
585.26129

>  <Q_VSA_PPOS>
0

>  <radius>
9

>  <reactive>
1

>  <rings>
4

>  <RPC+>
0

>  <RPC->
0

>  <rsynth>
1

>  <SlogP>
2.29812

>  <SlogP_VSA0>
50.90794

>  <SlogP_VSA1>
65.460617

>  <SlogP_VSA2>
134.99651

>  <SlogP_VSA3>
40.217678

>  <SlogP_VSA4>
6.8718963

>  <SlogP_VSA5>
60.726051

>  <SlogP_VSA6>
0

>  <SlogP_VSA7>
48.846378

>  <SlogP_VSA8>
17.643185

>  <SlogP_VSA9>
228.57973

>  <SMR>
15.45131

>  <SMR_VSA0>
128.6674

>  <SMR_VSA1>
56.095234

>  <SMR_VSA2>
18.01075

>  <SMR_VSA3>
19.143314

>  <SMR_VSA4>
0.50074643

>  <SMR_VSA5>
81.743568

>  <SMR_VSA6>
86.626106

>  <SMR_VSA7>
263.46283

>  <TPSA>
175.39999

>  <VAdjEq>
0.29629606

>  <VAdjMa>
6.4594316

>  <VDistEq>
3.9409695

>  <VDistMa>
10.447659

>  <vdw_area>
585.26129

>  <vdw_vol>
725.36951

>  <vsa_acc>
76.518097

>  <vsa_acid>
0

>  <vsa_base>
0

>  <vsa_don>
23.425066

>  <vsa_hyd>
343.90271

>  <vsa_other>
114.40056

>  <vsa_pol>
99.943161

>  <Weight>
620.73199

>  <weinerPath>
6137

>  <weinerPol>
63

>  <zagreb>
216

$$$$