Ic1c(C(=O)NCC(O)CO)c(I)c(N(C(=O)CO)CCO)c(I)c1C(=O)NCC(O)CO
  MOE2013           2D

 33 33  0  0  1  0  0  0  0  0999 V2000
    0.0000    0.0000    0.0000 I   0  0  0  0  0  0  0  0  0  0  0  0
   -0.7580    1.2950    0.0000 C   0  0  0  0  0  0  0  0  0  0  0  0
   -2.2580    1.2860    0.0000 C   0  0  0  0  0  0  0  0  0  0  0  0
   -3.0000   -0.0180    0.0000 C   0  0  0  0  0  0  0  0  0  0  0  0
   -2.2420   -1.3120    0.0000 O   0  0  0  0  0  0  0  0  0  0  0  0
   -4.5000   -0.0260    0.0000 N   0  0  0  0  0  0  0  0  0  0  0  0
   -5.2420   -1.3300    0.0000 C   0  0  0  0  0  0  0  0  0  0  0  0
   -6.7420   -1.3390    0.0000 C   0  0  3  0  0  0  0  0  0  0  0  0
   -7.5000   -0.0440    0.0000 O   0  0  0  0  0  0  0  0  0  0  0  0
   -7.4850   -2.6420    0.0000 C   0  0  0  0  0  0  0  0  0  0  0  0
   -8.9850   -2.6510    0.0000 O   0  0  0  0  0  0  0  0  0  0  0  0
   -3.0150    2.5800    0.0000 C   0  0  0  0  0  0  0  0  0  0  0  0
   -4.5150    2.5720    0.0000 I   0  0  0  0  0  0  0  0  0  0  0  0
   -2.2730    3.8840    0.0000 C   0  0  0  0  0  0  0  0  0  0  0  0
   -3.0300    5.1790    0.0000 N   0  0  0  0  0  0  0  0  0  0  0  0
   -4.5300    5.1700    0.0000 C   0  0  0  0  0  0  0  0  0  0  0  0
   -5.2730    3.8660    0.0000 O   0  0  0  0  0  0  0  0  0  0  0  0
   -5.2880    6.4640    0.0000 C   0  0  0  0  0  0  0  0  0  0  0  0
   -6.7880    6.4560    0.0000 O   0  0  0  0  0  0  0  0  0  0  0  0
   -2.2880    6.4820    0.0000 C   0  0  0  0  0  0  0  0  0  0  0  0
   -3.0460    7.7770    0.0000 C   0  0  0  0  0  0  0  0  0  0  0  0
   -2.3030    9.0800    0.0000 O   0  0  0  0  0  0  0  0  0  0  0  0
   -0.7730    3.8930    0.0000 C   0  0  0  0  0  0  0  0  0  0  0  0
   -0.0300    5.1960    0.0000 I   0  0  0  0  0  0  0  0  0  0  0  0
   -0.0150    2.5980    0.0000 C   0  0  0  0  0  0  0  0  0  0  0  0
    1.4850    2.6070    0.0000 C   0  0  0  0  0  0  0  0  0  0  0  0
    2.2270    3.9100    0.0000 O   0  0  0  0  0  0  0  0  0  0  0  0
    2.2420    1.3120    0.0000 N   0  0  0  0  0  0  0  0  0  0  0  0
    3.7420    1.3210    0.0000 C   0  0  0  0  0  0  0  0  0  0  0  0
    4.5000    0.0260    0.0000 C   0  0  3  0  0  0  0  0  0  0  0  0
    3.7580   -1.2770    0.0000 O   0  0  0  0  0  0  0  0  0  0  0  0
    6.0000    0.0350    0.0000 C   0  0  0  0  0  0  0  0  0  0  0  0
    6.7570   -1.2600    0.0000 O   0  0  0  0  0  0  0  0  0  0  0  0
  1  2  1  0  0  0  0
  2  3  1  0  0  0  0
  2 25  2  0  0  0  0
  3  4  1  0  0  0  0
  3 12  2  0  0  0  0
  4  5  2  0  0  0  0
  4  6  1  0  0  0  0
  6  7  1  0  0  0  0
  7  8  1  0  0  0  0
  8  9  1  0  0  0  0
  8 10  1  0  0  0  0
 10 11  1  0  0  0  0
 12 13  1  0  0  0  0
 12 14  1  0  0  0  0
 14 15  1  0  0  0  0
 14 23  2  0  0  0  0
 15 16  1  0  0  0  0
 15 20  1  0  0  0  0
 16 17  2  0  0  0  0
 16 18  1  0  0  0  0
 18 19  1  0  0  0  0
 20 21  1  0  0  0  0
 21 22  1  0  0  0  0
 23 24  1  0  0  0  0
 23 25  1  0  0  0  0
 25 26  1  0  0  0  0
 26 27  2  0  0  0  0
 26 28  1  0  0  0  0
 28 29  1  0  0  0  0
 29 30  1  0  0  0  0
 30 31  1  0  0  0  0
 30 32  1  0  0  0  0
 32 33  1  0  0  0  0
M  END
>  <Index>
1608

>  <ID>
HT1117

>  <class>
1

>  <apol>
74.25103

>  <ast_fraglike>
0

>  <ast_fraglike_ext>
0

>  <ast_violation>
3

>  <ast_violation_ext>
5

>  <a_acc>
9

>  <a_acid>
0

>  <a_aro>
6

>  <a_base>
0

>  <a_count>
57

>  <a_don>
8

>  <a_donacc>
17

>  <a_heavy>
33

>  <a_hyd>
18

>  <a_IC>
109.33788

>  <a_ICM>
1.9182085

>  <a_nB>
0

>  <a_nBr>
0

>  <a_nC>
18

>  <a_nCl>
0

>  <a_nF>
0

>  <a_nH>
24

>  <a_nI>
3

>  <a_nN>
3

>  <a_nO>
9

>  <a_nP>
0

>  <a_nS>
0

>  <balabanJ>
3.2911642

>  <BCUT_PEOE_0>
-2.5513334

>  <BCUT_PEOE_1>
-0.63128817

>  <BCUT_PEOE_2>
0.66705495

>  <BCUT_PEOE_3>
2.5536082

>  <BCUT_SLOGP_0>
-2.7598133

>  <BCUT_SLOGP_1>
-0.64090258

>  <BCUT_SLOGP_2>
0.59859264

>  <BCUT_SLOGP_3>
2.4280763

>  <BCUT_SMR_0>
-2.3130972

>  <BCUT_SMR_1>
-0.42305937

>  <BCUT_SMR_2>
0.87807465

>  <BCUT_SMR_3>
2.8164628

>  <bpol>
43.180969

>  <b_1rotN>
13

>  <b_1rotR>
0.39393941

>  <b_ar>
6

>  <b_count>
57

>  <b_double>
3

>  <b_heavy>
33

>  <b_max1len>
6

>  <b_rotN>
15

>  <b_rotR>
0.45454547

>  <b_single>
48

>  <b_triple>
0

>  <chi0>
25.292164

>  <chi0v>
23.566076

>  <chi0v_C>
10.604448

>  <chi0_C>
11.3006

>  <chi1>
15.546549

>  <chi1v>
12.65397

>  <chi1v_C>
4.4865465

>  <chi1_C>
5.2079082

>  <chiral>
2

>  <chiral_u>
2

>  <density>
1.2916644

>  <diameter>
14

>  <FCharge>
0

>  <GCUT_PEOE_0>
-0.83003014

>  <GCUT_PEOE_1>
-0.46207079

>  <GCUT_PEOE_2>
0.13743165

>  <GCUT_PEOE_3>
2.6791775

>  <GCUT_SLOGP_0>
-1.1630626

>  <GCUT_SLOGP_1>
-0.48194152

>  <GCUT_SLOGP_2>
0.033586528

>  <GCUT_SLOGP_3>
2.6669164

>  <GCUT_SMR_0>
-0.52247512

>  <GCUT_SMR_1>
-0.23472354

>  <GCUT_SMR_2>
0.28316706

>  <GCUT_SMR_3>
3.0276105

>  <Kier1>
31.030304

>  <Kier2>
15.186172

>  <Kier3>
8.2734842

>  <KierA1>
33.958607

>  <KierA2>
16.666464

>  <KierA3>
9.0986309

>  <KierFlex>
17.150604

>  <lip_acc>
12

>  <lip_don>
8

>  <lip_druglike>
0

>  <lip_violation>
3

>  <logP(o/w)>
-0.498

>  <logS>
-3.5325601

>  <mr>
14.425773

>  <mutagenic>
0

>  <nmol>
1

>  <opr_brigid>
6

>  <opr_leadlike>
0

>  <opr_nring>
1

>  <opr_nrot>
12

>  <opr_violation>
4

>  <PC+>
0

>  <PC->
0

>  <PEOE_PC+>
4.273181

>  <PEOE_PC->
-4.273181

>  <PEOE_RPC+>
0.059491687

>  <PEOE_RPC->
0.092027776

>  <PEOE_VSA+0>
42.617069

>  <PEOE_VSA+1>
140.10674

>  <PEOE_VSA+2>
14.951293

>  <PEOE_VSA+3>
17.238026

>  <PEOE_VSA+4>
61.945034

>  <PEOE_VSA+5>
38.848595

>  <PEOE_VSA+6>
0

>  <PEOE_VSA-0>
140.97005

>  <PEOE_VSA-1>
0

>  <PEOE_VSA-2>
0

>  <PEOE_VSA-3>
0

>  <PEOE_VSA-4>
0

>  <PEOE_VSA-5>
40.700764

>  <PEOE_VSA-6>
46.879025

>  <PEOE_VSA_FHYD>
0.65388858

>  <PEOE_VSA_FNEG>
0.41993031

>  <PEOE_VSA_FPNEG>
0.16091636

>  <PEOE_VSA_FPOL>
0.34611142

>  <PEOE_VSA_FPOS>
0.58006972

>  <PEOE_VSA_FPPOS>
0.18519506

>  <PEOE_VSA_HYD>
355.88315

>  <PEOE_VSA_NEG>
228.54984

>  <PEOE_VSA_PNEG>
87.579788

>  <PEOE_VSA_POL>
188.37341

>  <PEOE_VSA_POS>
315.70676

>  <PEOE_VSA_PPOS>
100.79363

>  <petitjean>
0.5

>  <petitjeanSC>
1

>  <Q_PC+>
0

>  <Q_PC->
0

>  <Q_RPC+>
0

>  <Q_RPC->
0

>  <Q_VSA_FHYD>
1

>  <Q_VSA_FNEG>
0

>  <Q_VSA_FPNEG>
0

>  <Q_VSA_FPOL>
0

>  <Q_VSA_FPOS>
1

>  <Q_VSA_FPPOS>
0

>  <Q_VSA_HYD>
544.25659

>  <Q_VSA_NEG>
0

>  <Q_VSA_PNEG>
0

>  <Q_VSA_POL>
0

>  <Q_VSA_POS>
544.25659

>  <Q_VSA_PPOS>
0

>  <radius>
7

>  <reactive>
0

>  <rings>
1

>  <RPC+>
0

>  <RPC->
0

>  <rsynth>
1

>  <SlogP>
-2.016

>  <SlogP_VSA0>
191.45717

>  <SlogP_VSA1>
15.776351

>  <SlogP_VSA2>
41.778442

>  <SlogP_VSA3>
139.02377

>  <SlogP_VSA4>
54.095581

>  <SlogP_VSA5>
0

>  <SlogP_VSA6>
0

>  <SlogP_VSA7>
0

>  <SlogP_VSA8>
0

>  <SlogP_VSA9>
173.10277

>  <SMR>
14.19692

>  <SMR_VSA0>
71.586647

>  <SMR_VSA1>
152.31136

>  <SMR_VSA2>
44.124744

>  <SMR_VSA3>
19.308449

>  <SMR_VSA4>
2.7567475

>  <SMR_VSA5>
0

>  <SMR_VSA6>
154.80013

>  <SMR_VSA7>
170.34602

>  <TPSA>
199.89

>  <VAdjEq>
0.32984608

>  <VAdjMa>
6.044394

>  <VDistEq>
3.5131624

>  <VDistMa>
9.8480234

>  <vdw_area>
544.25659

>  <vdw_vol>
624.86353

>  <vsa_acc>
40.700764

>  <vsa_acid>
0

>  <vsa_base>
0

>  <vsa_don>
11.365152

>  <vsa_hyd>
327.25641

>  <vsa_other>
38.848595

>  <vsa_pol>
133.46744

>  <Weight>
807.11401

>  <weinerPath>
3054

>  <weinerPol>
56

>  <zagreb>
156

$$$$