Clc1cc2NC(NS(=O)(=O)c2cc1S(=O)(=O)N)CSCC(F)(F)F
  MOE2013           2D

 24 25  0  0  1  0  0  0  0  0999 V2000
    0.0000    0.0000    0.0000 Cl  0  0  0  0  0  0  0  0  0  0  0  0
    1.3050    0.7390    0.0000 C   0  0  0  0  0  0  0  0  0  0  0  0
    2.5980   -0.0210    0.0000 C   0  0  0  0  0  0  0  0  0  0  0  0
    3.9030    0.7180    0.0000 C   0  0  0  0  0  0  0  0  0  0  0  0
    5.1960   -0.0430    0.0000 N   0  0  0  0  0  0  0  0  0  0  0  0
    6.5010    0.6960    0.0000 C   0  0  3  0  0  0  0  0  0  0  0  0
    6.5140    2.1960    0.0000 N   0  0  0  0  0  0  0  0  0  0  0  0
    5.2210    2.9570    0.0000 S   0  0  0  0  0  0  0  0  0  0  0  0
    4.4810    4.2620    0.0000 O   0  0  0  0  0  0  0  0  0  0  0  0
    5.9810    4.2500    0.0000 O   0  0  0  0  0  0  0  0  0  0  0  0
    3.9160    2.2180    0.0000 C   0  0  0  0  0  0  0  0  0  0  0  0
    2.6230    2.9780    0.0000 C   0  0  0  0  0  0  0  0  0  0  0  0
    1.3180    2.2390    0.0000 C   0  0  0  0  0  0  0  0  0  0  0  0
    0.0250    3.0000    0.0000 S   0  0  0  0  0  0  0  0  0  0  0  0
   -0.7360    1.7070    0.0000 O   0  0  0  0  0  0  0  0  0  0  0  0
    0.7850    4.2930    0.0000 O   0  0  0  0  0  0  0  0  0  0  0  0
   -1.2680    3.7610    0.0000 N   0  0  0  0  0  0  0  0  0  0  0  0
    7.7940   -0.0640    0.0000 C   0  0  0  0  0  0  0  0  0  0  0  0
    9.0990    0.6750    0.0000 S   0  0  0  0  0  0  0  0  0  0  0  0
   10.3920   -0.0860    0.0000 C   0  0  0  0  0  0  0  0  0  0  0  0
   11.6970    0.6540    0.0000 C   0  0  0  0  0  0  0  0  0  0  0  0
   10.9580    1.9590    0.0000 F   0  0  0  0  0  0  0  0  0  0  0  0
   12.4360   -0.6520    0.0000 F   0  0  0  0  0  0  0  0  0  0  0  0
   13.0020    1.3930    0.0000 F   0  0  0  0  0  0  0  0  0  0  0  0
  1  2  1  0  0  0  0
  2  3  1  0  0  0  0
  2 13  2  0  0  0  0
  3  4  2  0  0  0  0
  4  5  1  0  0  0  0
  4 11  1  0  0  0  0
  5  6  1  0  0  0  0
  6  7  1  0  0  0  0
  6 18  1  0  0  0  0
  7  8  1  0  0  0  0
  8  9  2  0  0  0  0
  8 10  2  0  0  0  0
  8 11  1  0  0  0  0
 11 12  2  0  0  0  0
 12 13  1  0  0  0  0
 13 14  1  0  0  0  0
 14 15  2  0  0  0  0
 14 16  2  0  0  0  0
 14 17  1  0  0  0  0
 18 19  1  0  0  0  0
 19 20  1  0  0  0  0
 20 21  1  0  0  0  0
 21 22  1  0  0  0  0
 21 23  1  0  0  0  0
 21 24  1  0  0  0  0
M  END
>  <Index>
1549

>  <ID>
HT0770

>  <class>
1

>  <apol>
43.993725

>  <ast_fraglike>
0

>  <ast_fraglike_ext>
0

>  <ast_violation>
2

>  <ast_violation_ext>
4

>  <a_acc>
4

>  <a_acid>
0

>  <a_aro>
6

>  <a_base>
0

>  <a_count>
35

>  <a_don>
3

>  <a_donacc>
7

>  <a_heavy>
24

>  <a_hyd>
14

>  <a_IC>
85.987213

>  <a_ICM>
2.4567776

>  <a_nB>
0

>  <a_nBr>
0

>  <a_nC>
10

>  <a_nCl>
1

>  <a_nF>
3

>  <a_nH>
11

>  <a_nI>
0

>  <a_nN>
3

>  <a_nO>
4

>  <a_nP>
0

>  <a_nS>
3

>  <balabanJ>
2.0102503

>  <BCUT_PEOE_0>
-2.6299052

>  <BCUT_PEOE_1>
-0.40980834

>  <BCUT_PEOE_2>
0.47592181

>  <BCUT_PEOE_3>
2.6159055

>  <BCUT_SLOGP_0>
-2.8014565

>  <BCUT_SLOGP_1>
-0.42081693

>  <BCUT_SLOGP_2>
0.53960842

>  <BCUT_SLOGP_3>
2.5524552

>  <BCUT_SMR_0>
-2.3006432

>  <BCUT_SMR_1>
-0.28408927

>  <BCUT_SMR_2>
0.61545974

>  <BCUT_SMR_3>
2.9395142

>  <bpol>
31.946278

>  <b_1rotN>
4

>  <b_1rotR>
0.16

>  <b_ar>
6

>  <b_count>
36

>  <b_double>
0

>  <b_heavy>
25

>  <b_max1len>
6

>  <b_rotN>
5

>  <b_rotR>
0.2

>  <b_single>
30

>  <b_triple>
0

>  <chi0>
18.336498

>  <chi0v>
14.798629

>  <chi0v_C>
5.6462646

>  <chi0_C>
6.2151785

>  <chi1>
10.79446

>  <chi1v>
10.654021

>  <chi1v_C>
2.4165022

>  <chi1_C>
3.0614614

>  <chiral>
1

>  <chiral_u>
1

>  <density>
1.1061145

>  <diameter>
12

>  <FCharge>
0

>  <GCUT_PEOE_0>
-0.88611001

>  <GCUT_PEOE_1>
-0.38471463

>  <GCUT_PEOE_2>
0.01354348

>  <GCUT_PEOE_3>
2.5841749

>  <GCUT_SLOGP_0>
-1.3482854

>  <GCUT_SLOGP_1>
-0.44469568

>  <GCUT_SLOGP_2>
0.24218501

>  <GCUT_SLOGP_3>
2.5876966

>  <GCUT_SMR_0>
-0.49686942

>  <GCUT_SMR_1>
-0.16170406

>  <GCUT_SMR_2>
0.21378277

>  <GCUT_SMR_3>
2.8682177

>  <Kier1>
20.313601

>  <Kier2>
6.9575

>  <Kier3>
5.25

>  <KierA1>
22.558647

>  <KierA2>
7.7621632

>  <KierA3>
5.8765998

>  <KierFlex>
7.2959957

>  <lip_acc>
7

>  <lip_don>
4

>  <lip_druglike>
1

>  <lip_violation>
0

>  <logP(o/w)>
0.90075999

>  <logS>
-4.0846601

>  <mr>
8.4469166

>  <mutagenic>
0

>  <nmol>
1

>  <opr_brigid>
11

>  <opr_leadlike>
1

>  <opr_nring>
2

>  <opr_nrot>
4

>  <opr_violation>
0

>  <PC+>
0

>  <PC->
0

>  <PEOE_PC+>
2.1835318

>  <PEOE_PC->
-2.1835318

>  <PEOE_RPC+>
0.1826462

>  <PEOE_RPC->
0.17519161

>  <PEOE_VSA+0>
63.007088

>  <PEOE_VSA+1>
27.82716

>  <PEOE_VSA+2>
26.880259

>  <PEOE_VSA+3>
0

>  <PEOE_VSA+4>
0

>  <PEOE_VSA+5>
0

>  <PEOE_VSA+6>
17.414705

>  <PEOE_VSA-0>
31.551292

>  <PEOE_VSA-1>
29.581947

>  <PEOE_VSA-2>
34.546043

>  <PEOE_VSA-3>
64.530273

>  <PEOE_VSA-4>
32.016521

>  <PEOE_VSA-5>
0

>  <PEOE_VSA-6>
0.13689101

>  <PEOE_VSA_FHYD>
0.84864336

>  <PEOE_VSA_FNEG>
0.5873819

>  <PEOE_VSA_FPNEG>
0.098180704

>  <PEOE_VSA_FPOL>
0.15135665

>  <PEOE_VSA_FPOS>
0.41261813

>  <PEOE_VSA_FPPOS>
0.053175941

>  <PEOE_VSA_HYD>
277.92407

>  <PEOE_VSA_NEG>
192.36298

>  <PEOE_VSA_PNEG>
32.153416

>  <PEOE_VSA_POL>
49.568119

>  <PEOE_VSA_POS>
135.12921

>  <PEOE_VSA_PPOS>
17.414705

>  <petitjean>
0.5

>  <petitjeanSC>
1

>  <Q_PC+>
0

>  <Q_PC->
0

>  <Q_RPC+>
0

>  <Q_RPC->
0

>  <Q_VSA_FHYD>
1

>  <Q_VSA_FNEG>
0

>  <Q_VSA_FPNEG>
0

>  <Q_VSA_FPOL>
0

>  <Q_VSA_FPOS>
1

>  <Q_VSA_FPPOS>
0

>  <Q_VSA_HYD>
327.49219

>  <Q_VSA_NEG>
0

>  <Q_VSA_PNEG>
0

>  <Q_VSA_POL>
0

>  <Q_VSA_POS>
327.49219

>  <Q_VSA_PPOS>
0

>  <radius>
6

>  <reactive>
0

>  <rings>
2

>  <RPC+>
0

>  <RPC->
0

>  <rsynth>
1

>  <SlogP>
1.3128

>  <SlogP_VSA0>
47.69643

>  <SlogP_VSA1>
122.11364

>  <SlogP_VSA2>
16.834627

>  <SlogP_VSA3>
34.467129

>  <SlogP_VSA4>
0

>  <SlogP_VSA5>
3.1014678

>  <SlogP_VSA6>
3.5006065

>  <SlogP_VSA7>
35.286369

>  <SlogP_VSA8>
0

>  <SlogP_VSA9>
119.00527

>  <SMR>
8.3938398

>  <SMR_VSA0>
96.343376

>  <SMR_VSA1>
44.880341

>  <SMR_VSA2>
27.265982

>  <SMR_VSA3>
7.0537477

>  <SMR_VSA4>
52.058933

>  <SMR_VSA5>
35.286369

>  <SMR_VSA6>
34.467129

>  <SMR_VSA7>
84.649673

>  <TPSA>
118.36

>  <VAdjEq>
0.42571631

>  <VAdjMa>
5.643856

>  <VDistEq>
3.3846073

>  <VDistMa>
8.8612423

>  <vdw_area>
327.49219

>  <vdw_vol>
385.00534

>  <vsa_acc>
64.033043

>  <vsa_acid>
0

>  <vsa_base>
0

>  <vsa_don>
33.892902

>  <vsa_hyd>
180.88858

>  <vsa_other>
31.401779

>  <vsa_pol>
97.925949

>  <Weight>
425.85999

>  <weinerPath>
1372

>  <weinerPol>
38

>  <zagreb>
130

$$$$