S1[C@H]2N([C@@H](C(O)=O)C1(C)C)C(=O)[C@H]2NC(=O)COc1ccccc1
  MOE2013           2D

 24 26  0  0  1  0  0  0  0  0999 V2000
    0.0000    0.0000    0.0000 S   0  0  0  0  0  0  0  0  0  0  0  0
    1.0700   -1.0510    0.0000 C   0  0  1  0  0  0  0  0  0  0  0  0
    0.4010   -2.3940    0.0000 N   0  0  0  0  0  0  0  0  0  0  0  0
   -1.0830   -2.1720    0.0000 C   0  0  1  0  0  0  0  0  0  0  0  0
   -2.1340   -3.2420    0.0000 C   0  0  0  0  0  0  0  0  0  0  0  0
   -1.7330   -4.6880    0.0000 O   0  0  0  0  0  0  0  0  0  0  0  0
   -3.5860   -2.8670    0.0000 O   0  0  0  0  0  0  0  0  0  0  0  0
   -1.3300   -0.6930    0.0000 C   0  0  0  0  0  0  0  0  0  0  0  0
   -2.1250    0.5790    0.0000 C   0  0  0  0  0  0  0  0  0  0  0  0
   -2.8250   -0.8240    0.0000 C   0  0  0  0  0  0  0  0  0  0  0  0
    1.7430   -3.0630    0.0000 C   0  0  0  0  0  0  0  0  0  0  0  0
    2.2200   -4.4850    0.0000 O   0  0  0  0  0  0  0  0  0  0  0  0
    2.4130   -1.7200    0.0000 C   0  0  1  0  0  0  0  0  0  0  0  0
    3.8350   -1.2440    0.0000 N   0  0  0  0  0  0  0  0  0  0  0  0
    4.9590   -2.2380    0.0000 C   0  0  0  0  0  0  0  0  0  0  0  0
    4.6600   -3.7080    0.0000 O   0  0  0  0  0  0  0  0  0  0  0  0
    6.3810   -1.7620    0.0000 C   0  0  0  0  0  0  0  0  0  0  0  0
    7.5050   -2.7550    0.0000 O   0  0  0  0  0  0  0  0  0  0  0  0
    8.9270   -2.2790    0.0000 C   0  0  0  0  0  0  0  0  0  0  0  0
    9.2260   -0.8090    0.0000 C   0  0  0  0  0  0  0  0  0  0  0  0
   10.6480   -0.3330    0.0000 C   0  0  0  0  0  0  0  0  0  0  0  0
   11.7720   -1.3270    0.0000 C   0  0  0  0  0  0  0  0  0  0  0  0
   11.4730   -2.7970    0.0000 C   0  0  0  0  0  0  0  0  0  0  0  0
   10.0510   -3.2730    0.0000 C   0  0  0  0  0  0  0  0  0  0  0  0
  1  8  1  0  0  0  0
  2  1  1  6  0  0  0
  2  3  1  0  0  0  0
  2 13  1  0  0  0  0
  3  4  1  0  0  0  0
  3 11  1  0  0  0  0
  4  5  1  1  0  0  0
  4  8  1  0  0  0  0
  5  6  1  0  0  0  0
  5  7  2  0  0  0  0
  8  9  1  0  0  0  0
  8 10  1  0  0  0  0
 11 12  2  0  0  0  0
 11 13  1  0  0  0  0
 13 14  1  6  0  0  0
 14 15  1  0  0  0  0
 15 16  2  0  0  0  0
 15 17  1  0  0  0  0
 17 18  1  0  0  0  0
 18 19  1  0  0  0  0
 19 20  1  0  0  0  0
 19 24  2  0  0  0  0
 20 21  2  0  0  0  0
 21 22  1  0  0  0  0
 22 23  2  0  0  0  0
 23 24  1  0  0  0  0
M  END
>  <Index>
1688

>  <ID>
HT1615

>  <class>
1

>  <apol>
49.272274

>  <ast_fraglike>
0

>  <ast_fraglike_ext>
0

>  <ast_violation>
2

>  <ast_violation_ext>
4

>  <a_acc>
5

>  <a_acid>
0

>  <a_aro>
6

>  <a_base>
0

>  <a_count>
42

>  <a_don>
3

>  <a_donacc>
8

>  <a_heavy>
24

>  <a_hyd>
14

>  <a_IC>
73.809044

>  <a_ICM>
1.7573581

>  <a_nB>
0

>  <a_nBr>
0

>  <a_nC>
16

>  <a_nCl>
0

>  <a_nF>
0

>  <a_nH>
18

>  <a_nI>
0

>  <a_nN>
2

>  <a_nO>
5

>  <a_nP>
0

>  <a_nS>
1

>  <balabanJ>
1.499467

>  <BCUT_PEOE_0>
-2.6438482

>  <BCUT_PEOE_1>
-0.56516862

>  <BCUT_PEOE_2>
0.55705512

>  <BCUT_PEOE_3>
2.8500392

>  <BCUT_SLOGP_0>
-2.9030209

>  <BCUT_SLOGP_1>
-0.52633989

>  <BCUT_SLOGP_2>
0.5705595

>  <BCUT_SLOGP_3>
2.7542188

>  <BCUT_SMR_0>
-2.3903692

>  <BCUT_SMR_1>
-0.35679653

>  <BCUT_SMR_2>
0.77620828

>  <BCUT_SMR_3>
3.1308334

>  <bpol>
29.387726

>  <b_1rotN>
5

>  <b_1rotR>
0.1923077

>  <b_ar>
6

>  <b_count>
44

>  <b_double>
3

>  <b_heavy>
26

>  <b_max1len>
4

>  <b_rotN>
6

>  <b_rotR>
0.23076923

>  <b_single>
35

>  <b_triple>
0

>  <chi0>
17.482763

>  <chi0v>
14.078074

>  <chi0v_C>
9.8259087

>  <chi0_C>
10.784093

>  <chi1>
11.309367

>  <chi1v>
8.3905334

>  <chi1v_C>
4.4635959

>  <chi1_C>
5.5134201

>  <chiral>
3

>  <chiral_u>
0

>  <density>
0.82511395

>  <diameter>
13

>  <FCharge>
0

>  <GCUT_PEOE_0>
-0.83746415

>  <GCUT_PEOE_1>
-0.40264198

>  <GCUT_PEOE_2>
0.068377458

>  <GCUT_PEOE_3>
2.6686285

>  <GCUT_SLOGP_0>
-1.1654931

>  <GCUT_SLOGP_1>
-0.40922949

>  <GCUT_SLOGP_2>
0.11747658

>  <GCUT_SLOGP_3>
2.6129377

>  <GCUT_SMR_0>
-0.53665566

>  <GCUT_SMR_1>
-0.2160821

>  <GCUT_SMR_2>
0.19288003

>  <GCUT_SMR_3>
2.9310961

>  <Kier1>
18.781065

>  <Kier2>
7.3188691

>  <Kier3>
3.7588758

>  <KierA1>
15.704977

>  <KierA2>
6.0697222

>  <KierA3>
3.0988173

>  <KierFlex>
3.9718685

>  <lip_acc>
7

>  <lip_don>
2

>  <lip_druglike>
1

>  <lip_violation>
0

>  <logP(o/w)>
1.321

>  <logS>
-3.4949601

>  <mr>
8.8970613

>  <mutagenic>
0

>  <nmol>
1

>  <opr_brigid>
14

>  <opr_leadlike>
1

>  <opr_nring>
3

>  <opr_nrot>
5

>  <opr_violation>
0

>  <PC+>
0

>  <PC->
0

>  <PEOE_PC+>
2.5867052

>  <PEOE_PC->
-2.5867052

>  <PEOE_RPC+>
0.10970578

>  <PEOE_RPC->
0.13154374

>  <PEOE_VSA+0>
25.592316

>  <PEOE_VSA+1>
51.112381

>  <PEOE_VSA+2>
26.365236

>  <PEOE_VSA+3>
8.6190128

>  <PEOE_VSA+4>
23.273705

>  <PEOE_VSA+5>
27.65803

>  <PEOE_VSA+6>
0

>  <PEOE_VSA-0>
62.005161

>  <PEOE_VSA-1>
36.764713

>  <PEOE_VSA-2>
19.760618

>  <PEOE_VSA-3>
0

>  <PEOE_VSA-4>
0

>  <PEOE_VSA-5>
40.700764

>  <PEOE_VSA-6>
10.408187

>  <PEOE_VSA_FHYD>
0.69288915

>  <PEOE_VSA_FNEG>
0.51056218

>  <PEOE_VSA_FPNEG>
0.15382209

>  <PEOE_VSA_FPOL>
0.30711085

>  <PEOE_VSA_FPOS>
0.48943785

>  <PEOE_VSA_FPPOS>
0.15328874

>  <PEOE_VSA_HYD>
230.21944

>  <PEOE_VSA_NEG>
169.63945

>  <PEOE_VSA_PNEG>
51.108952

>  <PEOE_VSA_POL>
102.04069

>  <PEOE_VSA_POS>
162.62068

>  <PEOE_VSA_PPOS>
50.931732

>  <petitjean>
0.46153846

>  <petitjeanSC>
0.85714287

>  <Q_PC+>
0

>  <Q_PC->
0

>  <Q_RPC+>
0

>  <Q_RPC->
0

>  <Q_VSA_FHYD>
1

>  <Q_VSA_FNEG>
0

>  <Q_VSA_FPNEG>
0

>  <Q_VSA_FPOL>
0

>  <Q_VSA_FPOS>
1

>  <Q_VSA_FPPOS>
0

>  <Q_VSA_HYD>
332.26013

>  <Q_VSA_NEG>
0

>  <Q_VSA_PNEG>
0

>  <Q_VSA_POL>
0

>  <Q_VSA_POS>
332.26013

>  <Q_VSA_PPOS>
0

>  <radius>
7

>  <reactive>
0

>  <rings>
3

>  <RPC+>
0

>  <RPC->
0

>  <rsynth>
1

>  <SlogP>
0.69709998

>  <SlogP_VSA0>
29.010639

>  <SlogP_VSA1>
21.387344

>  <SlogP_VSA2>
81.897713

>  <SlogP_VSA3>
46.311485

>  <SlogP_VSA4>
0

>  <SlogP_VSA5>
0

>  <SlogP_VSA6>
0

>  <SlogP_VSA7>
88.215919

>  <SlogP_VSA8>
0

>  <SlogP_VSA9>
104.115

>  <SMR>
8.7596502

>  <SMR_VSA0>
71.586647

>  <SMR_VSA1>
14.124202

>  <SMR_VSA2>
43.395977

>  <SMR_VSA3>
15.554493

>  <SMR_VSA4>
0

>  <SMR_VSA5>
88.215919

>  <SMR_VSA6>
39.189289

>  <SMR_VSA7>
98.871574

>  <TPSA>
95.940002

>  <VAdjEq>
0.43739632

>  <VAdjMa>
5.7004399

>  <VDistEq>
3.4974284

>  <VDistMa>
8.8472347

>  <vdw_area>
332.26013

>  <vdw_vol>
424.66254

>  <vsa_acc>
29.637598

>  <vsa_acid>
0

>  <vsa_base>
0

>  <vsa_don>
5.6825762

>  <vsa_hyd>
210.2117

>  <vsa_other>
40.607563

>  <vsa_pol>
62.454014

>  <Weight>
350.39499

>  <weinerPath>
1461

>  <weinerPol>
36

>  <zagreb>
130

$$$$