Oc1ccc(N=Nc2ccc(cc2)C(=O)NCCC(O)=O)cc1C(O)=O
  MOE2013           2D

 26 27  0  0  0  0  0  0  0  0999 V2000
    0.0000    0.0000    0.0000 O   0  0  0  0  0  0  0  0  0  0  0  0
    1.5000   -0.0080    0.0000 C   0  0  0  0  0  0  0  0  0  0  0  0
    2.2430   -1.3110    0.0000 C   0  0  0  0  0  0  0  0  0  0  0  0
    3.7430   -1.3190    0.0000 C   0  0  0  0  0  0  0  0  0  0  0  0
    4.5000   -0.0240    0.0000 C   0  0  0  0  0  0  0  0  0  0  0  0
    6.0000   -0.0320    0.0000 N   0  0  0  0  0  0  0  0  0  0  0  0
    6.7430   -1.3350    0.0000 N   0  0  0  0  0  0  0  0  0  0  0  0
    8.2430   -1.3430    0.0000 C   0  0  0  0  0  0  0  0  0  0  0  0
    8.9860   -2.6460    0.0000 C   0  0  0  0  0  0  0  0  0  0  0  0
   10.4860   -2.6540    0.0000 C   0  0  0  0  0  0  0  0  0  0  0  0
   11.2430   -1.3590    0.0000 C   0  0  0  0  0  0  0  0  0  0  0  0
   10.5000   -0.0560    0.0000 C   0  0  0  0  0  0  0  0  0  0  0  0
    9.0000   -0.0480    0.0000 C   0  0  0  0  0  0  0  0  0  0  0  0
   12.7430   -1.3670    0.0000 C   0  0  0  0  0  0  0  0  0  0  0  0
   13.5000   -0.0720    0.0000 O   0  0  0  0  0  0  0  0  0  0  0  0
   13.4860   -2.6700    0.0000 N   0  0  0  0  0  0  0  0  0  0  0  0
   14.9860   -2.6780    0.0000 C   0  0  0  0  0  0  0  0  0  0  0  0
   15.7290   -3.9810    0.0000 C   0  0  0  0  0  0  0  0  0  0  0  0
   17.2290   -3.9890    0.0000 C   0  0  0  0  0  0  0  0  0  0  0  0
   17.9720   -5.2920    0.0000 O   0  0  0  0  0  0  0  0  0  0  0  0
   17.9860   -2.6930    0.0000 O   0  0  0  0  0  0  0  0  0  0  0  0
    3.7570    1.2790    0.0000 C   0  0  0  0  0  0  0  0  0  0  0  0
    2.2570    1.2870    0.0000 C   0  0  0  0  0  0  0  0  0  0  0  0
    1.5140    2.5900    0.0000 C   0  0  0  0  0  0  0  0  0  0  0  0
    2.2710    3.8850    0.0000 O   0  0  0  0  0  0  0  0  0  0  0  0
    0.0140    2.5980    0.0000 O   0  0  0  0  0  0  0  0  0  0  0  0
  1  2  1  0  0  0  0
  2  3  1  0  0  0  0
  2 23  2  0  0  0  0
  3  4  2  0  0  0  0
  4  5  1  0  0  0  0
  5  6  1  0  0  0  0
  5 22  2  0  0  0  0
  6  7  2  3  0  0  0
  7  8  1  0  0  0  0
  8  9  1  0  0  0  0
  8 13  2  0  0  0  0
  9 10  2  0  0  0  0
 10 11  1  0  0  0  0
 11 12  2  0  0  0  0
 11 14  1  0  0  0  0
 12 13  1  0  0  0  0
 14 15  2  0  0  0  0
 14 16  1  0  0  0  0
 16 17  1  0  0  0  0
 17 18  1  0  0  0  0
 18 19  1  0  0  0  0
 19 20  1  0  0  0  0
 19 21  2  0  0  0  0
 22 23  1  0  0  0  0
 23 24  1  0  0  0  0
 24 25  1  0  0  0  0
 24 26  2  0  0  0  0
M  END
>  <Index>
1446

>  <ID>
HT0224

>  <class>
1

>  <apol>
48.033894

>  <ast_fraglike>
0

>  <ast_fraglike_ext>
0

>  <ast_violation>
3

>  <ast_violation_ext>
5

>  <a_acc>
8

>  <a_acid>
0

>  <a_aro>
12

>  <a_base>
0

>  <a_count>
41

>  <a_don>
6

>  <a_donacc>
14

>  <a_heavy>
26

>  <a_hyd>
14

>  <a_IC>
71.304741

>  <a_ICM>
1.73914

>  <a_nB>
0

>  <a_nBr>
0

>  <a_nC>
17

>  <a_nCl>
0

>  <a_nF>
0

>  <a_nH>
15

>  <a_nI>
0

>  <a_nN>
3

>  <a_nO>
6

>  <a_nP>
0

>  <a_nS>
0

>  <balabanJ>
1.6316462

>  <BCUT_PEOE_0>
-2.4569271

>  <BCUT_PEOE_1>
-0.63692892

>  <BCUT_PEOE_2>
0.69991094

>  <BCUT_PEOE_3>
2.4715641

>  <BCUT_SLOGP_0>
-2.6337132

>  <BCUT_SLOGP_1>
-0.54648507

>  <BCUT_SLOGP_2>
0.7799508

>  <BCUT_SLOGP_3>
2.3988876

>  <BCUT_SMR_0>
-2.2044923

>  <BCUT_SMR_1>
-0.48212147

>  <BCUT_SMR_2>
0.84406614

>  <BCUT_SMR_3>
2.7134006

>  <bpol>
21.252106

>  <b_1rotN>
7

>  <b_1rotR>
0.25925925

>  <b_ar>
12

>  <b_count>
42

>  <b_double>
4

>  <b_heavy>
27

>  <b_max1len>
4

>  <b_rotN>
8

>  <b_rotR>
0.2962963

>  <b_single>
26

>  <b_triple>
0

>  <chi0>
19.104084

>  <chi0v>
13.416478

>  <chi0v_C>
9.4556656

>  <chi0_C>
10.982763

>  <chi1>
12.363081

>  <chi1v>
7.4469142

>  <chi1v_C>
4.9129543

>  <chi1_C>
6.6742344

>  <chiral>
0

>  <chiral_u>
0

>  <density>
0.82072538

>  <diameter>
16

>  <FCharge>
0

>  <GCUT_PEOE_0>
-0.83422679

>  <GCUT_PEOE_1>
-0.49088269

>  <GCUT_PEOE_2>
0.12177493

>  <GCUT_PEOE_3>
2.3550034

>  <GCUT_SLOGP_0>
-1.1608802

>  <GCUT_SLOGP_1>
-0.37259954

>  <GCUT_SLOGP_2>
0.16800368

>  <GCUT_SLOGP_3>
2.4739075

>  <GCUT_SMR_0>
-0.50178003

>  <GCUT_SMR_1>
-0.23884007

>  <GCUT_SMR_2>
0.23938517

>  <GCUT_SMR_3>
2.6379073

>  <Kier1>
22.29081

>  <Kier2>
11.111111

>  <Kier3>
7.5102043

>  <KierA1>
15.33188

>  <KierA2>
7.5177526

>  <KierA3>
5.0218172

>  <KierFlex>
4.4331264

>  <lip_acc>
9

>  <lip_don>
4

>  <lip_druglike>
1

>  <lip_violation>
0

>  <logP(o/w)>
2.2079999

>  <logS>
-2.9090199

>  <mr>
9.1441154

>  <mutagenic>
1

>  <nmol>
1

>  <opr_brigid>
13

>  <opr_leadlike>
1

>  <opr_nring>
2

>  <opr_nrot>
7

>  <opr_violation>
1

>  <PC+>
0

>  <PC->
0

>  <PEOE_PC+>
2.7026212

>  <PEOE_PC->
-2.7026212

>  <PEOE_RPC+>
0.10870916

>  <PEOE_RPC->
0.13285302

>  <PEOE_VSA+0>
32.46241

>  <PEOE_VSA+1>
62.625175

>  <PEOE_VSA+2>
0

>  <PEOE_VSA+3>
8.6190128

>  <PEOE_VSA+4>
30.972517

>  <PEOE_VSA+5>
42.366531

>  <PEOE_VSA+6>
0

>  <PEOE_VSA-0>
85.784325

>  <PEOE_VSA-1>
0

>  <PEOE_VSA-2>
18.842079

>  <PEOE_VSA-3>
0

>  <PEOE_VSA-4>
0

>  <PEOE_VSA-5>
40.700764

>  <PEOE_VSA-6>
23.439512

>  <PEOE_VSA_FHYD>
0.6024453

>  <PEOE_VSA_FNEG>
0.48802969

>  <PEOE_VSA_FPNEG>
0.18547712

>  <PEOE_VSA_FPOL>
0.39755473

>  <PEOE_VSA_FPOS>
0.51197034

>  <PEOE_VSA_FPPOS>
0.2120776

>  <PEOE_VSA_HYD>
208.33301

>  <PEOE_VSA_NEG>
168.76668

>  <PEOE_VSA_PNEG>
64.140274

>  <PEOE_VSA_POL>
137.47932

>  <PEOE_VSA_POS>
177.04564

>  <PEOE_VSA_PPOS>
73.33905

>  <petitjean>
0.5

>  <petitjeanSC>
1

>  <Q_PC+>
0

>  <Q_PC->
0

>  <Q_RPC+>
0

>  <Q_RPC->
0

>  <Q_VSA_FHYD>
1

>  <Q_VSA_FNEG>
0

>  <Q_VSA_FPNEG>
0

>  <Q_VSA_FPOL>
0

>  <Q_VSA_FPOS>
1

>  <Q_VSA_FPPOS>
0

>  <Q_VSA_HYD>
345.81232

>  <Q_VSA_NEG>
0

>  <Q_VSA_PNEG>
0

>  <Q_VSA_POL>
0

>  <Q_VSA_POS>
345.81232

>  <Q_VSA_PPOS>
0

>  <radius>
8

>  <reactive>
1

>  <rings>
2

>  <RPC+>
0

>  <RPC->
0

>  <rsynth>
1

>  <SlogP>
2.7103

>  <SlogP_VSA0>
43.395977

>  <SlogP_VSA1>
20.749712

>  <SlogP_VSA2>
23.862217

>  <SlogP_VSA3>
69.21003

>  <SlogP_VSA4>
54.095581

>  <SlogP_VSA5>
33.326015

>  <SlogP_VSA6>
0

>  <SlogP_VSA7>
123.50229

>  <SlogP_VSA8>
18.868406

>  <SlogP_VSA9>
10.756924

>  <SMR>
9.02701

>  <SMR_VSA0>
71.586647

>  <SMR_VSA1>
58.711243

>  <SMR_VSA2>
68.781204

>  <SMR_VSA3>
11.614578

>  <SMR_VSA4>
5.513495

>  <SMR_VSA5>
142.3707

>  <SMR_VSA6>
39.189289

>  <SMR_VSA7>
0

>  <TPSA>
148.64999

>  <VAdjEq>
0.40176207

>  <VAdjMa>
5.7548876

>  <VDistEq>
3.8318796

>  <VDistMa>
9.0516462

>  <vdw_area>
345.81232

>  <vdw_vol>
435.37341

>  <vsa_acc>
32.409

>  <vsa_acid>
0

>  <vsa_base>
0

>  <vsa_don>
5.6825762

>  <vsa_hyd>
173.04216

>  <vsa_other>
42.366531

>  <vsa_pol>
105.92618

>  <Weight>
357.32199

>  <weinerPath>
2087

>  <weinerPol>
36

>  <zagreb>
126

$$$$