Clc1ccc(S(=O)(=O)NC(=O)NCCC)cc1
  MOE2013           2D

 17 17  0  0  0  0  0  0  0  0999 V2000
    0.0000    0.0000    0.0000 Cl  0  0  0  0  0  0  0  0  0  0  0  0
    1.5000   -0.0080    0.0000 C   0  0  0  0  0  0  0  0  0  0  0  0
    2.2430   -1.3110    0.0000 C   0  0  0  0  0  0  0  0  0  0  0  0
    3.7430   -1.3180    0.0000 C   0  0  0  0  0  0  0  0  0  0  0  0
    4.5000   -0.0230    0.0000 C   0  0  0  0  0  0  0  0  0  0  0  0
    6.0000   -0.0310    0.0000 S   0  0  0  0  0  0  0  0  0  0  0  0
    6.0080    1.4690    0.0000 O   0  0  0  0  0  0  0  0  0  0  0  0
    5.9920   -1.5310    0.0000 O   0  0  0  0  0  0  0  0  0  0  0  0
    7.5000   -0.0390    0.0000 N   0  0  0  0  0  0  0  0  0  0  0  0
    8.2570    1.2570    0.0000 C   0  0  0  0  0  0  0  0  0  0  0  0
    7.5130    2.5590    0.0000 O   0  0  0  0  0  0  0  0  0  0  0  0
    9.7570    1.2490    0.0000 N   0  0  0  0  0  0  0  0  0  0  0  0
   10.5130    2.5440    0.0000 C   0  0  0  0  0  0  0  0  0  0  0  0
   12.0130    2.5360    0.0000 C   0  0  0  0  0  0  0  0  0  0  0  0
   12.7700    3.8310    0.0000 C   0  0  0  0  0  0  0  0  0  0  0  0
    3.7570    1.2800    0.0000 C   0  0  0  0  0  0  0  0  0  0  0  0
    2.2570    1.2870    0.0000 C   0  0  0  0  0  0  0  0  0  0  0  0
  1  2  1  0  0  0  0
  2  3  1  0  0  0  0
  2 17  2  0  0  0  0
  3  4  2  0  0  0  0
  4  5  1  0  0  0  0
  5  6  1  0  0  0  0
  5 16  2  0  0  0  0
  6  7  2  0  0  0  0
  6  8  2  0  0  0  0
  6  9  1  0  0  0  0
  9 10  1  0  0  0  0
 10 11  2  0  0  0  0
 10 12  1  0  0  0  0
 12 13  1  0  0  0  0
 13 14  1  0  0  0  0
 14 15  1  0  0  0  0
 16 17  1  0  0  0  0
M  END
>  <Index>
1492

>  <ID>
HT0469

>  <class>
1

>  <apol>
35.954308

>  <ast_fraglike>
1

>  <ast_fraglike_ext>
1

>  <ast_violation>
0

>  <ast_violation_ext>
0

>  <a_acc>
3

>  <a_acid>
0

>  <a_aro>
6

>  <a_base>
0

>  <a_count>
30

>  <a_don>
2

>  <a_donacc>
5

>  <a_heavy>
17

>  <a_hyd>
10

>  <a_IC>
59.126835

>  <a_ICM>
1.9708945

>  <a_nB>
0

>  <a_nBr>
0

>  <a_nC>
10

>  <a_nCl>
1

>  <a_nF>
0

>  <a_nH>
13

>  <a_nI>
0

>  <a_nN>
2

>  <a_nO>
3

>  <a_nP>
0

>  <a_nS>
1

>  <balabanJ>
2.3927131

>  <BCUT_PEOE_0>
-2.5883937

>  <BCUT_PEOE_1>
-0.62238669

>  <BCUT_PEOE_2>
0.61019361

>  <BCUT_PEOE_3>
2.4882951

>  <BCUT_SLOGP_0>
-2.7114298

>  <BCUT_SLOGP_1>
-0.40195996

>  <BCUT_SLOGP_2>
0.74582583

>  <BCUT_SLOGP_3>
2.5307074

>  <BCUT_SMR_0>
-2.2870853

>  <BCUT_SMR_1>
-0.33865556

>  <BCUT_SMR_2>
0.85456717

>  <BCUT_SMR_3>
2.7962592

>  <bpol>
23.385691

>  <b_1rotN>
4

>  <b_1rotR>
0.23529412

>  <b_ar>
6

>  <b_count>
30

>  <b_double>
1

>  <b_heavy>
17

>  <b_max1len>
5

>  <b_rotN>
6

>  <b_rotR>
0.35294119

>  <b_single>
23

>  <b_triple>
0

>  <chi0>
12.888906

>  <chi0v>
10.806998

>  <chi0v_C>
6.2236147

>  <chi0_C>
6.9746914

>  <chi1>
7.9535255

>  <chi1v>
6.8778429

>  <chi1v_C>
3.0284741

>  <chi1_C>
3.8401

>  <chiral>
0

>  <chiral_u>
0

>  <density>
0.87869889

>  <diameter>
11

>  <FCharge>
0

>  <GCUT_PEOE_0>
-0.92171079

>  <GCUT_PEOE_1>
-0.38397253

>  <GCUT_PEOE_2>
0.043565031

>  <GCUT_PEOE_3>
2.3143594

>  <GCUT_SLOGP_0>
-1.1807469

>  <GCUT_SLOGP_1>
-0.36651734

>  <GCUT_SLOGP_2>
0.18168214

>  <GCUT_SLOGP_3>
2.3175445

>  <GCUT_SMR_0>
-0.52237314

>  <GCUT_SMR_1>
-0.19652687

>  <GCUT_SMR_2>
0.21044794

>  <GCUT_SMR_3>
2.5845995

>  <Kier1>
15.058824

>  <Kier2>
6.8052931

>  <Kier3>
5.0176001

>  <KierA1>
13.810245

>  <KierA2>
6.2053037

>  <KierA3>
4.5543776

>  <KierFlex>
5.0409861

>  <lip_acc>
5

>  <lip_don>
2

>  <lip_druglike>
1

>  <lip_violation>
0

>  <logP(o/w)>
1.946

>  <logS>
-2.9145501

>  <mr>
6.8000336

>  <mutagenic>
0

>  <nmol>
1

>  <opr_brigid>
6

>  <opr_leadlike>
1

>  <opr_nring>
1

>  <opr_nrot>
3

>  <opr_violation>
0

>  <PC+>
0

>  <PC->
0

>  <PEOE_PC+>
1.4787961

>  <PEOE_PC->
-1.4787961

>  <PEOE_RPC+>
0.2141052

>  <PEOE_RPC->
0.33406597

>  <PEOE_VSA+0>
58.887257

>  <PEOE_VSA+1>
25.680557

>  <PEOE_VSA+2>
17.440542

>  <PEOE_VSA+3>
8.6190128

>  <PEOE_VSA+4>
10.105608

>  <PEOE_VSA+5>
0

>  <PEOE_VSA+6>
4.1846013

>  <PEOE_VSA-0>
69.718658

>  <PEOE_VSA-1>
57.030937

>  <PEOE_VSA-2>
0

>  <PEOE_VSA-3>
2.5295215

>  <PEOE_VSA-4>
0

>  <PEOE_VSA-5>
0

>  <PEOE_VSA-6>
13.703812

>  <PEOE_VSA_FHYD>
0.89550591

>  <PEOE_VSA_FNEG>
0.5337165

>  <PEOE_VSA_FPNEG>
0.051152617

>  <PEOE_VSA_FPOL>
0.10449409

>  <PEOE_VSA_FPOS>
0.46628347

>  <PEOE_VSA_FPPOS>
0.053341482

>  <PEOE_VSA_HYD>
239.90648

>  <PEOE_VSA_NEG>
142.98293

>  <PEOE_VSA_PNEG>
13.703812

>  <PEOE_VSA_POL>
27.994022

>  <PEOE_VSA_POS>
124.91758

>  <PEOE_VSA_PPOS>
14.29021

>  <petitjean>
0.45454547

>  <petitjeanSC>
0.83333331

>  <Q_PC+>
0

>  <Q_PC->
0

>  <Q_RPC+>
0

>  <Q_RPC->
0

>  <Q_VSA_FHYD>
1

>  <Q_VSA_FNEG>
0

>  <Q_VSA_FPNEG>
0

>  <Q_VSA_FPOL>
0

>  <Q_VSA_FPOS>
1

>  <Q_VSA_FPPOS>
0

>  <Q_VSA_HYD>
267.90051

>  <Q_VSA_NEG>
0

>  <Q_VSA_PNEG>
0

>  <Q_VSA_POL>
0

>  <Q_VSA_POS>
267.90051

>  <Q_VSA_PPOS>
0

>  <radius>
6

>  <reactive>
0

>  <rings>
1

>  <RPC+>
0

>  <RPC->
0

>  <rsynth>
1

>  <SlogP>
1.7379

>  <SlogP_VSA0>
34.415749

>  <SlogP_VSA1>
53.001644

>  <SlogP_VSA2>
6.6407428

>  <SlogP_VSA3>
18.439579

>  <SlogP_VSA4>
0

>  <SlogP_VSA5>
1.5507339

>  <SlogP_VSA6>
3.5006065

>  <SlogP_VSA7>
70.572739

>  <SlogP_VSA8>
18.868406

>  <SlogP_VSA9>
96.336876

>  <SMR>
6.54632

>  <SMR_VSA0>
72.033905

>  <SMR_VSA1>
0

>  <SMR_VSA2>
35.96648

>  <SMR_VSA3>
3.5006065

>  <SMR_VSA4>
0

>  <SMR_VSA5>
89.441139

>  <SMR_VSA6>
23.269535

>  <SMR_VSA7>
79.115402

>  <TPSA>
75.269997

>  <VAdjEq>
0.52255934

>  <VAdjMa>
5.0874629

>  <VDistEq>
3.1297526

>  <VDistMa>
7.8538046

>  <vdw_area>
267.90051

>  <vdw_vol>
314.94748

>  <vsa_acc>
45.583443

>  <vsa_acid>
0

>  <vsa_base>
0

>  <vsa_don>
13.757783

>  <vsa_hyd>
167.03673

>  <vsa_other>
27.54615

>  <vsa_pol>
59.341228

>  <Weight>
276.74399

>  <weinerPath>
566

>  <weinerPol>
22

>  <zagreb>
80

$$$$