S1[C@H]2N([C@@H](C(O)=O)C1(C)C)C(=O)[C@H]2NC(=O)c1c(noc1C)-c1ccccc1
  MOE2013           2D

 28 31  0  0  1  0  0  0  0  0999 V2000
    0.0000    0.0000    0.0000 S   0  0  0  0  0  0  0  0  0  0  0  0
   -1.3070   -0.7360    0.0000 C   0  0  1  0  0  0  0  0  0  0  0  0
   -1.0110   -2.2060    0.0000 N   0  0  0  0  0  0  0  0  0  0  0  0
    0.4790   -2.3790    0.0000 C   0  0  1  0  0  0  0  0  0  0  0  0
    1.2140   -3.6870    0.0000 C   0  0  0  0  0  0  0  0  0  0  0  0
    0.4500   -4.9770    0.0000 O   0  0  0  0  0  0  0  0  0  0  0  0
    2.7140   -3.7030    0.0000 O   0  0  0  0  0  0  0  0  0  0  0  0
    1.1040   -1.0160    0.0000 C   0  0  0  0  0  0  0  0  0  0  0  0
    2.2030    0.0050    0.0000 C   0  0  0  0  0  0  0  0  0  0  0  0
    2.5120   -1.5320    0.0000 C   0  0  0  0  0  0  0  0  0  0  0  0
   -2.4820   -2.5020    0.0000 C   0  0  0  0  0  0  0  0  0  0  0  0
   -3.3130   -3.7510    0.0000 O   0  0  0  0  0  0  0  0  0  0  0  0
   -2.7780   -1.0320    0.0000 C   0  0  1  0  0  0  0  0  0  0  0  0
   -4.0270   -0.2010    0.0000 N   0  0  0  0  0  0  0  0  0  0  0  0
   -5.3710   -0.8670    0.0000 C   0  0  0  0  0  0  0  0  0  0  0  0
   -5.4650   -2.3640    0.0000 O   0  0  0  0  0  0  0  0  0  0  0  0
   -6.6200   -0.0360    0.0000 C   0  0  0  0  0  0  0  0  0  0  0  0
   -8.0260   -0.5590    0.0000 C   0  0  0  0  0  0  0  0  0  0  0  0
   -8.9570    0.6170    0.0000 N   0  0  0  0  0  0  0  0  0  0  0  0
   -8.1260    1.8660    0.0000 O   0  0  0  0  0  0  0  0  0  0  0  0
   -6.6820    1.4620    0.0000 C   0  0  0  0  0  0  0  0  0  0  0  0
   -5.5060    2.3930    0.0000 C   0  0  0  0  0  0  0  0  0  0  0  0
   -8.4300   -2.0030    0.0000 C   0  0  0  0  0  0  0  0  0  0  0  0
   -9.8830   -2.3760    0.0000 C   0  0  0  0  0  0  0  0  0  0  0  0
  -10.2870   -3.8200    0.0000 C   0  0  0  0  0  0  0  0  0  0  0  0
   -9.2380   -4.8920    0.0000 C   0  0  0  0  0  0  0  0  0  0  0  0
   -7.7850   -4.5200    0.0000 C   0  0  0  0  0  0  0  0  0  0  0  0
   -7.3810   -3.0750    0.0000 C   0  0  0  0  0  0  0  0  0  0  0  0
  1  8  1  0  0  0  0
  2  1  1  1  0  0  0
  2  3  1  0  0  0  0
  2 13  1  0  0  0  0
  3  4  1  0  0  0  0
  3 11  1  0  0  0  0
  4  5  1  6  0  0  0
  4  8  1  0  0  0  0
  5  6  1  0  0  0  0
  5  7  2  0  0  0  0
  8  9  1  0  0  0  0
  8 10  1  0  0  0  0
 11 12  2  0  0  0  0
 11 13  1  0  0  0  0
 13 14  1  1  0  0  0
 14 15  1  0  0  0  0
 15 16  2  0  0  0  0
 15 17  1  0  0  0  0
 17 18  1  0  0  0  0
 17 21  2  0  0  0  0
 18 19  2  0  0  0  0
 18 23  1  0  0  0  0
 19 20  1  0  0  0  0
 20 21  1  0  0  0  0
 21 22  1  0  0  0  0
 23 24  1  0  0  0  0
 23 28  2  0  0  0  0
 24 25  2  0  0  0  0
 25 26  1  0  0  0  0
 26 27  2  0  0  0  0
 27 28  1  0  0  0  0
M  END
>  <Index>
1678

>  <ID>
HT1549

>  <class>
1

>  <apol>
56.319065

>  <ast_fraglike>
0

>  <ast_fraglike_ext>
0

>  <ast_violation>
2

>  <ast_violation_ext>
4

>  <a_acc>
5

>  <a_acid>
0

>  <a_aro>
11

>  <a_base>
0

>  <a_count>
47

>  <a_don>
3

>  <a_donacc>
8

>  <a_heavy>
28

>  <a_hyd>
16

>  <a_IC>
83.2799

>  <a_ICM>
1.7719128

>  <a_nB>
0

>  <a_nBr>
0

>  <a_nC>
19

>  <a_nCl>
0

>  <a_nF>
0

>  <a_nH>
19

>  <a_nI>
0

>  <a_nN>
3

>  <a_nO>
5

>  <a_nP>
0

>  <a_nS>
1

>  <balabanJ>
1.429294

>  <BCUT_PEOE_0>
-2.6399999

>  <BCUT_PEOE_1>
-0.54112047

>  <BCUT_PEOE_2>
0.55676085

>  <BCUT_PEOE_3>
2.8493941

>  <BCUT_SLOGP_0>
-2.89501

>  <BCUT_SLOGP_1>
-0.49885616

>  <BCUT_SLOGP_2>
0.62515217

>  <BCUT_SLOGP_3>
2.7542486

>  <BCUT_SMR_0>
-2.3874607

>  <BCUT_SMR_1>
-0.36760634

>  <BCUT_SMR_2>
0.75477052

>  <BCUT_SMR_3>
3.1303563

>  <bpol>
30.480932

>  <b_1rotN>
4

>  <b_1rotR>
0.12903225

>  <b_ar>
11

>  <b_count>
50

>  <b_double>
3

>  <b_heavy>
31

>  <b_max1len>
4

>  <b_rotN>
5

>  <b_rotR>
0.16129032

>  <b_single>
36

>  <b_triple>
0

>  <chi0>
20.214813

>  <chi0v>
16.31818

>  <chi0v_C>
11.618802

>  <chi0_C>
12.809036

>  <chi1>
13.220051

>  <chi1v>
9.6544857

>  <chi1v_C>
5.6100426

>  <chi1_C>
7.0158553

>  <chiral>
3

>  <chiral_u>
0

>  <density>
0.82520938

>  <diameter>
13

>  <FCharge>
0

>  <GCUT_PEOE_0>
-0.83720326

>  <GCUT_PEOE_1>
-0.39394969

>  <GCUT_PEOE_2>
0.062964782

>  <GCUT_PEOE_3>
2.7307556

>  <GCUT_SLOGP_0>
-1.1640183

>  <GCUT_SLOGP_1>
-0.37752271

>  <GCUT_SLOGP_2>
0.14036624

>  <GCUT_SLOGP_3>
2.7015927

>  <GCUT_SMR_0>
-0.53652018

>  <GCUT_SMR_1>
-0.21356797

>  <GCUT_SMR_2>
0.20271412

>  <GCUT_SMR_3>
2.9975905

>  <Kier1>
21.240376

>  <Kier2>
7.921875

>  <Kier3>
3.6548443

>  <KierA1>
17.090391

>  <KierA2>
6.3196321

>  <KierA3>
2.8978753

>  <KierFlex>
3.8573208

>  <lip_acc>
8

>  <lip_don>
2

>  <lip_druglike>
1

>  <lip_violation>
0

>  <logP(o/w)>
1.96

>  <logS>
-4.7730598

>  <mr>
10.337147

>  <mutagenic>
0

>  <nmol>
1

>  <opr_brigid>
19

>  <opr_leadlike>
1

>  <opr_nring>
4

>  <opr_nrot>
4

>  <opr_violation>
0

>  <PC+>
0

>  <PC->
0

>  <PEOE_PC+>
2.7299259

>  <PEOE_PC->
-2.7299259

>  <PEOE_RPC+>
0.10395027

>  <PEOE_RPC->
0.13134059

>  <PEOE_VSA+0>
40.597015

>  <PEOE_VSA+1>
34.123089

>  <PEOE_VSA+2>
28.780554

>  <PEOE_VSA+3>
8.6190128

>  <PEOE_VSA+4>
10.324173

>  <PEOE_VSA+5>
40.607563

>  <PEOE_VSA+6>
0

>  <PEOE_VSA-0>
56.243034

>  <PEOE_VSA-1>
72.159782

>  <PEOE_VSA-2>
19.760618

>  <PEOE_VSA-3>
0

>  <PEOE_VSA-4>
0

>  <PEOE_VSA-5>
40.700764

>  <PEOE_VSA-6>
13.80679

>  <PEOE_VSA_FHYD>
0.71169585

>  <PEOE_VSA_FNEG>
0.5541662

>  <PEOE_VSA_FPNEG>
0.14904079

>  <PEOE_VSA_FPOL>
0.28830415

>  <PEOE_VSA_FPOS>
0.4458338

>  <PEOE_VSA_FPPOS>
0.13926338

>  <PEOE_VSA_HYD>
260.28311

>  <PEOE_VSA_NEG>
202.67099

>  <PEOE_VSA_PNEG>
54.507553

>  <PEOE_VSA_POL>
105.43929

>  <PEOE_VSA_POS>
163.05141

>  <PEOE_VSA_PPOS>
50.931732

>  <petitjean>
0.46153846

>  <petitjeanSC>
0.85714287

>  <Q_PC+>
0

>  <Q_PC->
0

>  <Q_RPC+>
0

>  <Q_RPC->
0

>  <Q_VSA_FHYD>
1

>  <Q_VSA_FNEG>
0

>  <Q_VSA_FPNEG>
0

>  <Q_VSA_FPOL>
0

>  <Q_VSA_FPOS>
1

>  <Q_VSA_FPPOS>
0

>  <Q_VSA_HYD>
365.72238

>  <Q_VSA_NEG>
0

>  <Q_VSA_PNEG>
0

>  <Q_VSA_POL>
0

>  <Q_VSA_POS>
365.72238

>  <Q_VSA_PPOS>
0

>  <radius>
7

>  <reactive>
0

>  <rings>
4

>  <RPC+>
0

>  <RPC->
0

>  <rsynth>
1

>  <SlogP>
1.8953201

>  <SlogP_VSA0>
18.01075

>  <SlogP_VSA1>
40.98394

>  <SlogP_VSA2>
58.035496

>  <SlogP_VSA3>
25.385227

>  <SlogP_VSA4>
32.496613

>  <SlogP_VSA5>
9.7341213

>  <SlogP_VSA6>
0

>  <SlogP_VSA7>
94.158241

>  <SlogP_VSA8>
0

>  <SlogP_VSA9>
132.19759

>  <SMR>
10.1659

>  <SMR_VSA0>
81.32077

>  <SMR_VSA1>
22.720911

>  <SMR_VSA2>
43.395977

>  <SMR_VSA3>
18.945461

>  <SMR_VSA4>
5.9423227

>  <SMR_VSA5>
88.215919

>  <SMR_VSA6>
18.263031

>  <SMR_VSA7>
132.19759

>  <TPSA>
112.74

>  <VAdjEq>
0.39893496

>  <VAdjMa>
5.9541965

>  <VDistEq>
3.4780707

>  <VDistMa>
9.3277025

>  <vdw_area>
365.72238

>  <vdw_vol>
486.47409

>  <vsa_acc>
38.019104

>  <vsa_acid>
0

>  <vsa_base>
0

>  <vsa_don>
5.6825762

>  <vsa_hyd>
220.21979

>  <vsa_other>
54.968441

>  <vsa_pol>
70.835518

>  <Weight>
401.44299

>  <weinerPath>
2026

>  <weinerPol>
47

>  <zagreb>
158

$$$$