Fc1ccc(cc1)Cn1c2c(nc1NC1CCNCC1)cccc2
  MOE2013           2D

 24 27  0  0  0  0  0  0  0  0999 V2000
    0.0000    0.0000    0.0000 F   0  0  0  0  0  0  0  0  0  0  0  0
    1.5000    0.0060    0.0000 C   0  0  0  0  0  0  0  0  0  0  0  0
    2.2450    1.3080    0.0000 C   0  0  0  0  0  0  0  0  0  0  0  0
    3.7450    1.3150    0.0000 C   0  0  0  0  0  0  0  0  0  0  0  0
    4.5000    0.0190    0.0000 C   0  0  0  0  0  0  0  0  0  0  0  0
    3.7550   -1.2830    0.0000 C   0  0  0  0  0  0  0  0  0  0  0  0
    2.2550   -1.2900    0.0000 C   0  0  0  0  0  0  0  0  0  0  0  0
    6.0000    0.0250    0.0000 C   0  0  0  0  0  0  0  0  0  0  0  0
    6.7440    1.3270    0.0000 N   0  0  0  0  0  0  0  0  0  0  0  0
    6.1290    2.6950    0.0000 C   0  0  0  0  0  0  0  0  0  0  0  0
    7.2390    3.7030    0.0000 C   0  0  0  0  0  0  0  0  0  0  0  0
    8.5410    2.9590    0.0000 N   0  0  0  0  0  0  0  0  0  0  0  0
    8.2360    1.4900    0.0000 C   0  0  0  0  0  0  0  0  0  0  0  0
    9.2440    0.3800    0.0000 N   0  0  0  0  0  0  0  0  0  0  0  0
   10.7100    0.6980    0.0000 C   0  0  0  0  0  0  0  0  0  0  0  0
   11.1670    2.1260    0.0000 C   0  0  0  0  0  0  0  0  0  0  0  0
   12.6330    2.4450    0.0000 C   0  0  0  0  0  0  0  0  0  0  0  0
   13.6420    1.3340    0.0000 N   0  0  0  0  0  0  0  0  0  0  0  0
   13.1840   -0.0940    0.0000 C   0  0  0  0  0  0  0  0  0  0  0  0
   11.7180   -0.4130    0.0000 C   0  0  0  0  0  0  0  0  0  0  0  0
    6.9210    5.1690    0.0000 C   0  0  0  0  0  0  0  0  0  0  0  0
    5.4930    5.6270    0.0000 C   0  0  0  0  0  0  0  0  0  0  0  0
    4.3820    4.6190    0.0000 C   0  0  0  0  0  0  0  0  0  0  0  0
    4.7000    3.1530    0.0000 C   0  0  0  0  0  0  0  0  0  0  0  0
  1  2  1  0  0  0  0
  2  3  1  0  0  0  0
  2  7  2  0  0  0  0
  3  4  2  0  0  0  0
  4  5  1  0  0  0  0
  5  6  2  0  0  0  0
  5  8  1  0  0  0  0
  6  7  1  0  0  0  0
  8  9  1  0  0  0  0
  9 10  1  0  0  0  0
  9 13  1  0  0  0  0
 10 11  1  0  0  0  0
 10 24  2  0  0  0  0
 11 12  1  0  0  0  0
 11 21  2  0  0  0  0
 12 13  2  0  0  0  0
 13 14  1  0  0  0  0
 14 15  1  0  0  0  0
 15 16  1  0  0  0  0
 15 20  1  0  0  0  0
 16 17  1  0  0  0  0
 17 18  1  0  0  0  0
 18 19  1  0  0  0  0
 19 20  1  0  0  0  0
 21 22  1  0  0  0  0
 22 23  2  0  0  0  0
 23 24  1  0  0  0  0
M  END
>  <Index>
1670

>  <ID>
HT1518

>  <class>
1

>  <apol>
52.399654

>  <ast_fraglike>
0

>  <ast_fraglike_ext>
0

>  <ast_violation>
2

>  <ast_violation_ext>
3

>  <a_acc>
2

>  <a_acid>
0

>  <a_aro>
15

>  <a_base>
0

>  <a_count>
45

>  <a_don>
2

>  <a_donacc>
4

>  <a_heavy>
24

>  <a_hyd>
19

>  <a_IC>
66.184097

>  <a_ICM>
1.4707578

>  <a_nB>
0

>  <a_nBr>
0

>  <a_nC>
19

>  <a_nCl>
0

>  <a_nF>
1

>  <a_nH>
21

>  <a_nI>
0

>  <a_nN>
4

>  <a_nO>
0

>  <a_nP>
0

>  <a_nS>
0

>  <balabanJ>
1.3986709

>  <BCUT_PEOE_0>
-2.7566185

>  <BCUT_PEOE_1>
-0.63254833

>  <BCUT_PEOE_2>
0.63307035

>  <BCUT_PEOE_3>
2.6903729

>  <BCUT_SLOGP_0>
-2.8513215

>  <BCUT_SLOGP_1>
-0.53682977

>  <BCUT_SLOGP_2>
0.73383862

>  <BCUT_SLOGP_3>
2.6568353

>  <BCUT_SMR_0>
-2.4852376

>  <BCUT_SMR_1>
-0.44797647

>  <BCUT_SMR_2>
0.79405189

>  <BCUT_SMR_3>
2.9576769

>  <bpol>
28.780348

>  <b_1rotN>
4

>  <b_1rotR>
0.14814815

>  <b_ar>
16

>  <b_count>
48

>  <b_double>
0

>  <b_heavy>
27

>  <b_max1len>
3

>  <b_rotN>
4

>  <b_rotR>
0.14814815

>  <b_single>
32

>  <b_triple>
0

>  <chi0>
16.35516

>  <chi0v>
13.504078

>  <chi0v_C>
11.231687

>  <chi0_C>
12.656489

>  <chi1>
11.792827

>  <chi1v>
8.4641867

>  <chi1v_C>
5.8187675

>  <chi1_C>
7.5075679

>  <chiral>
0

>  <chiral_u>
0

>  <density>
0.72069186

>  <diameter>
12

>  <FCharge>
0

>  <GCUT_PEOE_0>
-0.84974474

>  <GCUT_PEOE_1>
-0.41850773

>  <GCUT_PEOE_2>
0.073536947

>  <GCUT_PEOE_3>
2.7022305

>  <GCUT_SLOGP_0>
-1.1541047

>  <GCUT_SLOGP_1>
-0.31495979

>  <GCUT_SLOGP_2>
0.17360172

>  <GCUT_SLOGP_3>
2.7783093

>  <GCUT_SMR_0>
-0.5158208

>  <GCUT_SMR_1>
-0.2101371

>  <GCUT_SMR_2>
0.18590802

>  <GCUT_SMR_3>
2.983021

>  <Kier1>
17.415638

>  <Kier2>
8.1314831

>  <Kier3>
4.2332363

>  <KierA1>
12.829871

>  <KierA2>
5.9044032

>  <KierA3>
3.0419407

>  <KierFlex>
3.1563637

>  <lip_acc>
4

>  <lip_don>
2

>  <lip_druglike>
1

>  <lip_violation>
0

>  <logP(o/w)>
3.895

>  <logS>
-4.4789901

>  <mr>
9.3651571

>  <mutagenic>
0

>  <nmol>
1

>  <opr_brigid>
22

>  <opr_leadlike>
1

>  <opr_nring>
4

>  <opr_nrot>
6

>  <opr_violation>
0

>  <PC+>
0

>  <PC->
0

>  <PEOE_PC+>
1.735538

>  <PEOE_PC->
-1.735538

>  <PEOE_RPC+>
0.10576803

>  <PEOE_RPC->
0.18200061

>  <PEOE_VSA+0>
41.534435

>  <PEOE_VSA+1>
69.245285

>  <PEOE_VSA+2>
26.258871

>  <PEOE_VSA+3>
15.681574

>  <PEOE_VSA+4>
0

>  <PEOE_VSA+5>
0

>  <PEOE_VSA+6>
0

>  <PEOE_VSA-0>
95.015434

>  <PEOE_VSA-1>
49.019615

>  <PEOE_VSA-2>
0

>  <PEOE_VSA-3>
0

>  <PEOE_VSA-4>
17.591211

>  <PEOE_VSA-5>
0.13689101

>  <PEOE_VSA-6>
0.13689101

>  <PEOE_VSA_FHYD>
0.94321728

>  <PEOE_VSA_FNEG>
0.51458883

>  <PEOE_VSA_FPNEG>
0.056782726

>  <PEOE_VSA_FPOL>
0.056782726

>  <PEOE_VSA_FPOS>
0.4854112

>  <PEOE_VSA_FPPOS>
0

>  <PEOE_VSA_HYD>
296.75522

>  <PEOE_VSA_NEG>
161.90004

>  <PEOE_VSA_PNEG>
17.864994

>  <PEOE_VSA_POL>
17.864994

>  <PEOE_VSA_POS>
152.72017

>  <PEOE_VSA_PPOS>
0

>  <petitjean>
0.5

>  <petitjeanSC>
1

>  <Q_PC+>
0

>  <Q_PC->
0

>  <Q_RPC+>
0

>  <Q_RPC->
0

>  <Q_VSA_FHYD>
1

>  <Q_VSA_FNEG>
0

>  <Q_VSA_FPNEG>
0

>  <Q_VSA_FPOL>
0

>  <Q_VSA_FPOS>
1

>  <Q_VSA_FPPOS>
0

>  <Q_VSA_HYD>
314.62021

>  <Q_VSA_NEG>
0

>  <Q_VSA_PNEG>
0

>  <Q_VSA_POL>
0

>  <Q_VSA_POS>
314.62021

>  <Q_VSA_PPOS>
0

>  <radius>
6

>  <reactive>
0

>  <rings>
4

>  <RPC+>
0

>  <RPC->
0

>  <rsynth>
1

>  <SlogP>
3.654

>  <SlogP_VSA0>
18.01075

>  <SlogP_VSA1>
36.695374

>  <SlogP_VSA2>
13.102986

>  <SlogP_VSA3>
36.879158

>  <SlogP_VSA4>
3.185575

>  <SlogP_VSA5>
0

>  <SlogP_VSA6>
0

>  <SlogP_VSA7>
145.43375

>  <SlogP_VSA8>
37.736813

>  <SlogP_VSA9>
35.298782

>  <SMR>
9.4954395

>  <SMR_VSA0>
0

>  <SMR_VSA1>
33.644737

>  <SMR_VSA2>
27.131769

>  <SMR_VSA3>
7.1675434

>  <SMR_VSA4>
24.198118

>  <SMR_VSA5>
197.32187

>  <SMR_VSA6>
36.879158

>  <SMR_VSA7>
0

>  <TPSA>
41.880001

>  <VAdjEq>
0.44886449

>  <VAdjMa>
5.7548876

>  <VDistEq>
3.2946453

>  <VDistMa>
8.8913879

>  <vdw_area>
314.62021

>  <vdw_vol>
450.1272

>  <vsa_acc>
5.6825762

>  <vsa_acid>
0

>  <vsa_base>
0

>  <vsa_don>
5.6825762

>  <vsa_hyd>
262.22015

>  <vsa_other>
15.681574

>  <vsa_pol>
17.047728

>  <Weight>
324.40298

>  <weinerPath>
1345

>  <weinerPol>
35

>  <zagreb>
128

$$$$