S1c2c(N(c3c1cccc3)CCCN(C)C)cc(cc2)C(F)(F)F
  MOE2013           2D

 24 26  0  0  1  0  0  0  0  0999 V2000
    0.0000    0.0000    0.0000 S   0  0  0  0  0  0  0  0  0  0  0  0
    0.7600    1.2930    0.0000 C   0  0  0  0  0  0  0  0  0  0  0  0
    0.0200    2.5980    0.0000 C   0  0  0  0  0  0  0  0  0  0  0  0
   -1.4800    2.6100    0.0000 N   0  0  3  0  0  0  0  0  0  0  0  0
   -2.2400    1.3170    0.0000 C   0  0  0  0  0  0  0  0  0  0  0  0
   -1.5000    0.0120    0.0000 C   0  0  0  0  0  0  0  0  0  0  0  0
   -2.2600   -1.2810    0.0000 C   0  0  0  0  0  0  0  0  0  0  0  0
   -3.7600   -1.2690    0.0000 C   0  0  0  0  0  0  0  0  0  0  0  0
   -4.5000    0.0350    0.0000 C   0  0  0  0  0  0  0  0  0  0  0  0
   -3.7400    1.3290    0.0000 C   0  0  0  0  0  0  0  0  0  0  0  0
   -2.2190    3.9150    0.0000 C   0  0  0  0  0  0  0  0  0  0  0  0
   -3.7190    3.9270    0.0000 C   0  0  0  0  0  0  0  0  0  0  0  0
   -4.4590    5.2310    0.0000 C   0  0  0  0  0  0  0  0  0  0  0  0
   -5.9590    5.2430    0.0000 N   0  0  0  0  0  0  0  0  0  0  0  0
   -6.7190    3.9500    0.0000 C   0  0  0  0  0  0  0  0  0  0  0  0
   -6.6990    6.5480    0.0000 C   0  0  0  0  0  0  0  0  0  0  0  0
    0.7810    3.8910    0.0000 C   0  0  0  0  0  0  0  0  0  0  0  0
    2.2810    3.8790    0.0000 C   0  0  0  0  0  0  0  0  0  0  0  0
    3.0200    2.5740    0.0000 C   0  0  0  0  0  0  0  0  0  0  0  0
    2.2600    1.2810    0.0000 C   0  0  0  0  0  0  0  0  0  0  0  0
    3.0410    5.1720    0.0000 C   0  0  0  0  0  0  0  0  0  0  0  0
    4.3340    4.4120    0.0000 F   0  0  0  0  0  0  0  0  0  0  0  0
    1.7480    5.9330    0.0000 F   0  0  0  0  0  0  0  0  0  0  0  0
    3.8010    6.4650    0.0000 F   0  0  0  0  0  0  0  0  0  0  0  0
  1  2  1  0  0  0  0
  1  6  1  0  0  0  0
  2  3  1  0  0  0  0
  2 20  2  0  0  0  0
  3  4  1  0  0  0  0
  3 17  2  0  0  0  0
  4  5  1  0  0  0  0
  4 11  1  0  0  0  0
  5  6  1  0  0  0  0
  5 10  2  0  0  0  0
  6  7  2  0  0  0  0
  7  8  1  0  0  0  0
  8  9  2  0  0  0  0
  9 10  1  0  0  0  0
 11 12  1  0  0  0  0
 12 13  1  0  0  0  0
 13 14  1  0  0  0  0
 14 15  1  0  0  0  0
 14 16  1  0  0  0  0
 17 18  1  0  0  0  0
 18 19  2  0  0  0  0
 18 21  1  0  0  0  0
 19 20  1  0  0  0  0
 21 22  1  0  0  0  0
 21 23  1  0  0  0  0
 21 24  1  0  0  0  0
M  END
>  <Index>
1755

>  <ID>
HT2119

>  <class>
1

>  <apol>
51.120068

>  <ast_fraglike>
0

>  <ast_fraglike_ext>
0

>  <ast_violation>
2

>  <ast_violation_ext>
3

>  <a_acc>
1

>  <a_acid>
0

>  <a_aro>
12

>  <a_base>
0

>  <a_count>
43

>  <a_don>
0

>  <a_donacc>
1

>  <a_heavy>
24

>  <a_hyd>
22

>  <a_IC>
70.805222

>  <a_ICM>
1.6466331

>  <a_nB>
0

>  <a_nBr>
0

>  <a_nC>
18

>  <a_nCl>
0

>  <a_nF>
3

>  <a_nH>
19

>  <a_nI>
0

>  <a_nN>
2

>  <a_nO>
0

>  <a_nP>
0

>  <a_nS>
1

>  <balabanJ>
1.7303056

>  <BCUT_PEOE_0>
-2.6571684

>  <BCUT_PEOE_1>
-0.50583178

>  <BCUT_PEOE_2>
0.55573511

>  <BCUT_PEOE_3>
2.567111

>  <BCUT_SLOGP_0>
-2.7073479

>  <BCUT_SLOGP_1>
-0.39692479

>  <BCUT_SLOGP_2>
0.67207313

>  <BCUT_SLOGP_3>
2.6160476

>  <BCUT_SMR_0>
-2.3741691

>  <BCUT_SMR_1>
-0.32948107

>  <BCUT_SMR_2>
0.71009362

>  <BCUT_SMR_3>
2.8538775

>  <bpol>
30.619932

>  <b_1rotN>
4

>  <b_1rotR>
0.15384616

>  <b_ar>
12

>  <b_count>
45

>  <b_double>
0

>  <b_heavy>
26

>  <b_max1len>
6

>  <b_rotN>
5

>  <b_rotR>
0.1923077

>  <b_single>
33

>  <b_triple>
0

>  <chi0>
17.319626

>  <chi0v>
14.415837

>  <chi0v_C>
11.162772

>  <chi0_C>
12.457819

>  <chi1>
11.359192

>  <chi1v>
8.581172

>  <chi1v_C>
4.8153839

>  <chi1_C>
6.4048314

>  <chiral>
0

>  <chiral_u>
0

>  <density>
0.79350072

>  <diameter>
10

>  <FCharge>
0

>  <GCUT_PEOE_0>
-0.86394054

>  <GCUT_PEOE_1>
-0.33585855

>  <GCUT_PEOE_2>
-0.027877744

>  <GCUT_PEOE_3>
2.6601393

>  <GCUT_SLOGP_0>
-0.9543187

>  <GCUT_SLOGP_1>
-0.2268406

>  <GCUT_SLOGP_2>
0.26019999

>  <GCUT_SLOGP_3>
2.8059402

>  <GCUT_SMR_0>
-0.51969552

>  <GCUT_SMR_1>
-0.16272549

>  <GCUT_SMR_2>
0.15822873

>  <GCUT_SMR_3>
2.9564831

>  <Kier1>
18.781065

>  <Kier2>
7.7091413

>  <Kier3>
4.4114585

>  <KierA1>
15.584205

>  <KierA2>
6.3418798

>  <KierA3>
3.6065483

>  <KierFlex>
4.1180477

>  <lip_acc>
2

>  <lip_don>
0

>  <lip_druglike>
1

>  <lip_violation>
1

>  <logP(o/w)>
4.9667602

>  <logS>
-4.89641

>  <mr>
9.2636137

>  <mutagenic>
0

>  <nmol>
1

>  <opr_brigid>
16

>  <opr_leadlike>
1

>  <opr_nring>
3

>  <opr_nrot>
4

>  <opr_violation>
1

>  <PC+>
0

>  <PC->
0

>  <PEOE_PC+>
1.523017

>  <PEOE_PC->
-1.523017

>  <PEOE_RPC+>
0.27410749

>  <PEOE_RPC->
0.20242754

>  <PEOE_VSA+0>
86.145264

>  <PEOE_VSA+1>
32.066242

>  <PEOE_VSA+2>
0

>  <PEOE_VSA+3>
0

>  <PEOE_VSA+4>
0

>  <PEOE_VSA+5>
0

>  <PEOE_VSA+6>
9.0455017

>  <PEOE_VSA-0>
129.64554

>  <PEOE_VSA-1>
44.270424

>  <PEOE_VSA-2>
0

>  <PEOE_VSA-3>
35.725906

>  <PEOE_VSA-4>
0

>  <PEOE_VSA-5>
0

>  <PEOE_VSA-6>
0

>  <PEOE_VSA_FHYD>
0.97315067

>  <PEOE_VSA_FNEG>
0.62226945

>  <PEOE_VSA_FPNEG>
0

>  <PEOE_VSA_FPOL>
0.026849309

>  <PEOE_VSA_FPOS>
0.37773058

>  <PEOE_VSA_FPPOS>
0.026849309

>  <PEOE_VSA_HYD>
327.85336

>  <PEOE_VSA_NEG>
209.64186

>  <PEOE_VSA_PNEG>
0

>  <PEOE_VSA_POL>
9.0455017

>  <PEOE_VSA_POS>
127.257

>  <PEOE_VSA_PPOS>
9.0455017

>  <petitjean>
0.5

>  <petitjeanSC>
1

>  <Q_PC+>
0

>  <Q_PC->
0

>  <Q_RPC+>
0

>  <Q_RPC->
0

>  <Q_VSA_FHYD>
1

>  <Q_VSA_FNEG>
0

>  <Q_VSA_FPNEG>
0

>  <Q_VSA_FPOL>
0

>  <Q_VSA_FPOS>
1

>  <Q_VSA_FPPOS>
0

>  <Q_VSA_HYD>
336.89886

>  <Q_VSA_NEG>
0

>  <Q_VSA_PNEG>
0

>  <Q_VSA_POL>
0

>  <Q_VSA_POS>
336.89886

>  <Q_VSA_PPOS>
0

>  <radius>
5

>  <reactive>
0

>  <rings>
3

>  <RPC+>
0

>  <RPC->
0

>  <rsynth>
1

>  <SlogP>
5.5713

>  <SlogP_VSA0>
3.1243138

>  <SlogP_VSA1>
3.1243138

>  <SlogP_VSA2>
0

>  <SlogP_VSA3>
36.879158

>  <SlogP_VSA4>
3.185575

>  <SlogP_VSA5>
68.895844

>  <SlogP_VSA6>
7.7595162

>  <SlogP_VSA7>
123.50229

>  <SlogP_VSA8>
18.868406

>  <SlogP_VSA9>
82.613373

>  <SMR>
9.2304001

>  <SMR_VSA0>
0

>  <SMR_VSA1>
48.004654

>  <SMR_VSA2>
13.985298

>  <SMR_VSA3>
3.185575

>  <SMR_VSA4>
5.513495

>  <SMR_VSA5>
142.3707

>  <SMR_VSA6>
36.879158

>  <SMR_VSA7>
98.013916

>  <TPSA>
6.48

>  <VAdjEq>
0.43739632

>  <VAdjMa>
5.7004399

>  <VDistEq>
3.1926835

>  <VDistMa>
8.9028959

>  <vdw_area>
336.89886

>  <vdw_vol>
444.13821

>  <vsa_acc>
0

>  <vsa_acid>
0

>  <vsa_base>
0

>  <vsa_don>
0

>  <vsa_hyd>
323.37476

>  <vsa_other>
0

>  <vsa_pol>
0

>  <Weight>
352.42398

>  <weinerPath>
1286

>  <weinerPol>
39

>  <zagreb>
128

$$$$