Fc1ccc(cc1)Cn1c2c(nc1N1CCC(N(C)C=3NC(=O)C=CN=3)CC1)cccc2
  MOE2013           2D

 32 36  0  0  0  0  0  0  0  0999 V2000
    0.0000    0.0000    0.0000 F   0  0  0  0  0  0  0  0  0  0  0  0
    1.4550   -0.3650    0.0000 C   0  0  0  0  0  0  0  0  0  0  0  0
    2.4990    0.7120    0.0000 C   0  0  0  0  0  0  0  0  0  0  0  0
    3.9530    0.3470    0.0000 C   0  0  0  0  0  0  0  0  0  0  0  0
    4.3650   -1.0960    0.0000 C   0  0  0  0  0  0  0  0  0  0  0  0
    3.3210   -2.1730    0.0000 C   0  0  0  0  0  0  0  0  0  0  0  0
    1.8660   -1.8080    0.0000 C   0  0  0  0  0  0  0  0  0  0  0  0
    5.8190   -1.4610    0.0000 C   0  0  0  0  0  0  0  0  0  0  0  0
    6.2310   -2.9030    0.0000 N   0  0  0  0  0  0  0  0  0  0  0  0
    5.3050   -4.0840    0.0000 C   0  0  0  0  0  0  0  0  0  0  0  0
    6.1420   -5.3290    0.0000 C   0  0  0  0  0  0  0  0  0  0  0  0
    7.5850   -4.9180    0.0000 N   0  0  0  0  0  0  0  0  0  0  0  0
    7.6390   -3.4190    0.0000 C   0  0  0  0  0  0  0  0  0  0  0  0
    8.8840   -2.5820    0.0000 N   0  0  0  0  0  0  0  0  0  0  0  0
    8.7820   -1.0850    0.0000 C   0  0  0  0  0  0  0  0  0  0  0  0
   10.0270   -0.2480    0.0000 C   0  0  0  0  0  0  0  0  0  0  0  0
   11.3740   -0.9080    0.0000 C   0  0  0  0  0  0  0  0  0  0  0  0
   12.6190   -0.0710    0.0000 N   0  0  0  0  0  0  0  0  0  0  0  0
   12.5170    1.4250    0.0000 C   0  0  0  0  0  0  0  0  0  0  0  0
   13.9660   -0.7310    0.0000 C   0  0  0  0  0  0  0  0  0  0  0  0
   15.2110    0.1060    0.0000 N   0  0  0  0  0  0  0  0  0  0  0  0
   16.5580   -0.5540    0.0000 C   0  0  0  0  0  0  0  0  0  0  0  0
   17.8030    0.2830    0.0000 O   0  0  0  0  0  0  0  0  0  0  0  0
   16.6600   -2.0500    0.0000 C   0  0  0  0  0  0  0  0  0  0  0  0
   15.4150   -2.8870    0.0000 C   0  0  0  0  0  0  0  0  0  0  0  0
   14.0680   -2.2270    0.0000 N   0  0  0  0  0  0  0  0  0  0  0  0
   11.4760   -2.4050    0.0000 C   0  0  0  0  0  0  0  0  0  0  0  0
   10.2310   -3.2410    0.0000 C   0  0  0  0  0  0  0  0  0  0  0  0
    5.4820   -6.6760    0.0000 C   0  0  0  0  0  0  0  0  0  0  0  0
    3.9860   -6.7780    0.0000 C   0  0  0  0  0  0  0  0  0  0  0  0
    3.1490   -5.5330    0.0000 C   0  0  0  0  0  0  0  0  0  0  0  0
    3.8090   -4.1860    0.0000 C   0  0  0  0  0  0  0  0  0  0  0  0
  1  2  1  0  0  0  0
  2  3  1  0  0  0  0
  2  7  2  0  0  0  0
  3  4  2  0  0  0  0
  4  5  1  0  0  0  0
  5  6  2  0  0  0  0
  5  8  1  0  0  0  0
  6  7  1  0  0  0  0
  8  9  1  0  0  0  0
  9 10  1  0  0  0  0
  9 13  1  0  0  0  0
 10 11  1  0  0  0  0
 10 32  2  0  0  0  0
 11 12  1  0  0  0  0
 11 29  2  0  0  0  0
 12 13  2  0  0  0  0
 13 14  1  0  0  0  0
 14 15  1  0  0  0  0
 14 28  1  0  0  0  0
 15 16  1  0  0  0  0
 16 17  1  0  0  0  0
 17 18  1  0  0  0  0
 17 27  1  0  0  0  0
 18 19  1  0  0  0  0
 18 20  1  0  0  0  0
 20 21  1  0  0  0  0
 20 26  2  0  0  0  0
 21 22  1  0  0  0  0
 22 23  2  0  0  0  0
 22 24  1  0  0  0  0
 24 25  2  0  0  0  0
 25 26  1  0  0  0  0
 27 28  1  0  0  0  0
 29 30  1  0  0  0  0
 30 31  2  0  0  0  0
 31 32  1  0  0  0  0
M  END
>  <Index>
1657

>  <ID>
HT1420

>  <class>
1

>  <apol>
66.868828

>  <ast_fraglike>
0

>  <ast_fraglike_ext>
0

>  <ast_violation>
2

>  <ast_violation_ext>
3

>  <a_acc>
3

>  <a_acid>
0

>  <a_aro>
15

>  <a_base>
0

>  <a_count>
57

>  <a_don>
1

>  <a_donacc>
4

>  <a_heavy>
32

>  <a_hyd>
22

>  <a_IC>
90.829453

>  <a_ICM>
1.5934992

>  <a_nB>
0

>  <a_nBr>
0

>  <a_nC>
24

>  <a_nCl>
0

>  <a_nF>
1

>  <a_nH>
25

>  <a_nI>
0

>  <a_nN>
6

>  <a_nO>
1

>  <a_nP>
0

>  <a_nS>
0

>  <balabanJ>
1.1911572

>  <BCUT_PEOE_0>
-2.7763414

>  <BCUT_PEOE_1>
-0.59644037

>  <BCUT_PEOE_2>
0.5764634

>  <BCUT_PEOE_3>
2.7206309

>  <BCUT_SLOGP_0>
-2.8487034

>  <BCUT_SLOGP_1>
-0.50141609

>  <BCUT_SLOGP_2>
0.73405647

>  <BCUT_SLOGP_3>
2.688448

>  <BCUT_SMR_0>
-2.503016

>  <BCUT_SMR_1>
-0.40934518

>  <BCUT_SMR_2>
0.74956101

>  <BCUT_SMR_3>
2.9901495

>  <bpol>
38.731174

>  <b_1rotN>
5

>  <b_1rotR>
0.1388889

>  <b_ar>
16

>  <b_count>
61

>  <b_double>
3

>  <b_heavy>
36

>  <b_max1len>
4

>  <b_rotN>
5

>  <b_rotR>
0.1388889

>  <b_single>
42

>  <b_triple>
0

>  <chi0>
22.078775

>  <chi0v>
17.908669

>  <chi0v_C>
14.386387

>  <chi0_C>
16.225405

>  <chi1>
15.58052

>  <chi1v>
10.811424

>  <chi1v_C>
6.4407759

>  <chi1_C>
8.4158163

>  <chiral>
0

>  <chiral_u>
0

>  <density>
0.7423355

>  <diameter>
16

>  <FCharge>
0

>  <GCUT_PEOE_0>
-0.85520118

>  <GCUT_PEOE_1>
-0.42194489

>  <GCUT_PEOE_2>
0.062389024

>  <GCUT_PEOE_3>
2.8635833

>  <GCUT_SLOGP_0>
-1.171129

>  <GCUT_SLOGP_1>
-0.33635572

>  <GCUT_SLOGP_2>
0.15062469

>  <GCUT_SLOGP_3>
2.9077661

>  <GCUT_SMR_0>
-0.51779824

>  <GCUT_SMR_1>
-0.20887616

>  <GCUT_SMR_2>
0.17219718

>  <GCUT_SMR_3>
3.1399944

>  <Kier1>
23.728395

>  <Kier2>
10.726644

>  <Kier3>
5.4820414

>  <KierA1>
16.704437

>  <KierA2>
7.4590321

>  <KierA3>
3.7790537

>  <KierFlex>
3.8937166

>  <lip_acc>
7

>  <lip_don>
1

>  <lip_druglike>
1

>  <lip_violation>
0

>  <logP(o/w)>
3.826

>  <logS>
-5.6542902

>  <mr>
12.103253

>  <mutagenic>
0

>  <nmol>
1

>  <opr_brigid>
28

>  <opr_leadlike>
1

>  <opr_nring>
5

>  <opr_nrot>
7

>  <opr_violation>
1

>  <PC+>
0

>  <PC->
0

>  <PEOE_PC+>
2.517051

>  <PEOE_PC->
-2.517051

>  <PEOE_RPC+>
0.1004133

>  <PEOE_RPC->
0.13577667

>  <PEOE_VSA+0>
128.68936

>  <PEOE_VSA+1>
82.041443

>  <PEOE_VSA+2>
9.0208454

>  <PEOE_VSA+3>
24.300587

>  <PEOE_VSA+4>
15.681574

>  <PEOE_VSA+5>
12.949531

>  <PEOE_VSA+6>
0

>  <PEOE_VSA-0>
68.630783

>  <PEOE_VSA-1>
49.019615

>  <PEOE_VSA-2>
0

>  <PEOE_VSA-3>
0

>  <PEOE_VSA-4>
23.273788

>  <PEOE_VSA-5>
13.703812

>  <PEOE_VSA-6>
0

>  <PEOE_VSA_FHYD>
0.84646159

>  <PEOE_VSA_FNEG>
0.3618626

>  <PEOE_VSA_FPNEG>
0.086535498

>  <PEOE_VSA_FPOL>
0.15353841

>  <PEOE_VSA_FPOS>
0.6381374

>  <PEOE_VSA_FPPOS>
0.067002915

>  <PEOE_VSA_HYD>
361.70264

>  <PEOE_VSA_NEG>
154.62799

>  <PEOE_VSA_PNEG>
36.9776

>  <PEOE_VSA_POL>
65.608704

>  <PEOE_VSA_POS>
272.68335

>  <PEOE_VSA_PPOS>
28.631105

>  <petitjean>
0.5

>  <petitjeanSC>
1

>  <Q_PC+>
0

>  <Q_PC->
0

>  <Q_RPC+>
0

>  <Q_RPC->
0

>  <Q_VSA_FHYD>
1

>  <Q_VSA_FNEG>
0

>  <Q_VSA_FPNEG>
0

>  <Q_VSA_FPOL>
0

>  <Q_VSA_FPOS>
1

>  <Q_VSA_FPPOS>
0

>  <Q_VSA_HYD>
427.31134

>  <Q_VSA_NEG>
0

>  <Q_VSA_PNEG>
0

>  <Q_VSA_POL>
0

>  <Q_VSA_POS>
427.31134

>  <Q_VSA_PPOS>
0

>  <radius>
8

>  <reactive>
0

>  <rings>
5

>  <RPC+>
0

>  <RPC->
0

>  <rsynth>
1

>  <SlogP>
3.3901999

>  <SlogP_VSA0>
21.135065

>  <SlogP_VSA1>
28.966812

>  <SlogP_VSA2>
36.965202

>  <SlogP_VSA3>
36.879158

>  <SlogP_VSA4>
3.185575

>  <SlogP_VSA5>
49.682716

>  <SlogP_VSA6>
0

>  <SlogP_VSA7>
180.29129

>  <SlogP_VSA8>
37.736813

>  <SlogP_VSA9>
35.298782

>  <SMR>
12.31557

>  <SMR_VSA0>
23.862217

>  <SMR_VSA1>
53.554581

>  <SMR_VSA2>
30.256083

>  <SMR_VSA3>
7.1675434

>  <SMR_VSA4>
6.187367

>  <SMR_VSA5>
232.1794

>  <SMR_VSA6>
44.037033

>  <SMR_VSA7>
32.897186

>  <TPSA>
65.760002

>  <VAdjEq>
0.36708876

>  <VAdjMa>
6.1699252

>  <VDistEq>
3.7499976

>  <VDistMa>
9.7016726

>  <vdw_area>
427.31134

>  <vdw_vol>
582.62469

>  <vsa_acc>
24.932074

>  <vsa_acid>
0

>  <vsa_base>
0

>  <vsa_don>
5.6825762

>  <vsa_hyd>
332.2276

>  <vsa_other>
44.312679

>  <vsa_pol>
30.614649

>  <Weight>
432.50299

>  <weinerPath>
3107

>  <weinerPol>
52

>  <zagreb>
174

$$$$