O(C(c1ccccc1)c1ccccc1)CCN(C)C
  MOE2013           2D

 19 20  0  0  0  0  0  0  0  0999 V2000
    0.0000    0.0000    0.0000 O   0  0  0  0  0  0  0  0  0  0  0  0
   -0.7420    1.3040    0.0000 C   0  0  0  0  0  0  0  0  0  0  0  0
    0.0170    2.5980    0.0000 C   0  0  0  0  0  0  0  0  0  0  0  0
   -0.7250    3.9020    0.0000 C   0  0  0  0  0  0  0  0  0  0  0  0
    0.0330    5.1960    0.0000 C   0  0  0  0  0  0  0  0  0  0  0  0
    1.5330    5.1860    0.0000 C   0  0  0  0  0  0  0  0  0  0  0  0
    2.2750    3.8830    0.0000 C   0  0  0  0  0  0  0  0  0  0  0  0
    1.5170    2.5880    0.0000 C   0  0  0  0  0  0  0  0  0  0  0  0
   -2.2420    1.3130    0.0000 C   0  0  0  0  0  0  0  0  0  0  0  0
   -3.0000    0.0190    0.0000 C   0  0  0  0  0  0  0  0  0  0  0  0
   -4.5000    0.0290    0.0000 C   0  0  0  0  0  0  0  0  0  0  0  0
   -5.2420    1.3330    0.0000 C   0  0  0  0  0  0  0  0  0  0  0  0
   -4.4830    2.6270    0.0000 C   0  0  0  0  0  0  0  0  0  0  0  0
   -2.9830    2.6170    0.0000 C   0  0  0  0  0  0  0  0  0  0  0  0
    1.5000   -0.0100    0.0000 C   0  0  0  0  0  0  0  0  0  0  0  0
    2.2420   -1.3130    0.0000 C   0  0  0  0  0  0  0  0  0  0  0  0
    3.7420   -1.3230    0.0000 N   0  0  0  0  0  0  0  0  0  0  0  0
    4.5000   -0.0290    0.0000 C   0  0  0  0  0  0  0  0  0  0  0  0
    4.4830   -2.6270    0.0000 C   0  0  0  0  0  0  0  0  0  0  0  0
  1  2  1  0  0  0  0
  1 15  1  0  0  0  0
  2  3  1  0  0  0  0
  2  9  1  0  0  0  0
  3  4  1  0  0  0  0
  3  8  2  0  0  0  0
  4  5  2  0  0  0  0
  5  6  1  0  0  0  0
  6  7  2  0  0  0  0
  7  8  1  0  0  0  0
  9 10  1  0  0  0  0
  9 14  2  0  0  0  0
 10 11  2  0  0  0  0
 11 12  1  0  0  0  0
 12 13  2  0  0  0  0
 13 14  1  0  0  0  0
 15 16  1  0  0  0  0
 16 17  1  0  0  0  0
 17 18  1  0  0  0  0
 17 19  1  0  0  0  0
M  END
>  <Index>
1530

>  <ID>
HT0675

>  <class>
1

>  <apol>
45.824654

>  <ast_fraglike>
0

>  <ast_fraglike_ext>
0

>  <ast_violation>
1

>  <ast_violation_ext>
2

>  <a_acc>
2

>  <a_acid>
0

>  <a_aro>
12

>  <a_base>
0

>  <a_count>
40

>  <a_don>
0

>  <a_donacc>
2

>  <a_heavy>
19

>  <a_hyd>
17

>  <a_IC>
51.151588

>  <a_ICM>
1.2787898

>  <a_nB>
0

>  <a_nBr>
0

>  <a_nC>
17

>  <a_nCl>
0

>  <a_nF>
0

>  <a_nH>
21

>  <a_nI>
0

>  <a_nN>
1

>  <a_nO>
1

>  <a_nP>
0

>  <a_nS>
0

>  <balabanJ>
1.8720474

>  <BCUT_PEOE_0>
-2.6099648

>  <BCUT_PEOE_1>
-0.52408057

>  <BCUT_PEOE_2>
0.5871771

>  <BCUT_PEOE_3>
2.5206289

>  <BCUT_SLOGP_0>
-2.6995308

>  <BCUT_SLOGP_1>
-0.42308313

>  <BCUT_SLOGP_2>
0.68583417

>  <BCUT_SLOGP_3>
2.5440607

>  <BCUT_SMR_0>
-2.335391

>  <BCUT_SMR_1>
-0.39466655

>  <BCUT_SMR_2>
0.72456014

>  <BCUT_SMR_3>
2.7827046

>  <bpol>
26.853348

>  <b_1rotN>
6

>  <b_1rotR>
0.30000001

>  <b_ar>
12

>  <b_count>
41

>  <b_double>
0

>  <b_heavy>
20

>  <b_max1len>
7

>  <b_rotN>
6

>  <b_rotR>
0.30000001

>  <b_single>
29

>  <b_triple>
0

>  <chi0>
13.501789

>  <chi0v>
11.620528

>  <chi0v_C>
10.765066

>  <chi0_C>
12.217332

>  <chi1>
9.2708569

>  <chi1v>
6.63375

>  <chi1v_C>
4.8987174

>  <chi1_C>
6.7996597

>  <chiral>
0

>  <chiral_u>
0

>  <density>
0.64721429

>  <diameter>
9

>  <FCharge>
0

>  <GCUT_PEOE_0>
-0.85888755

>  <GCUT_PEOE_1>
-0.36814362

>  <GCUT_PEOE_2>
0.058886118

>  <GCUT_PEOE_3>
2.5270309

>  <GCUT_SLOGP_0>
-0.95887947

>  <GCUT_SLOGP_1>
-0.26386139

>  <GCUT_SLOGP_2>
0.13851997

>  <GCUT_SLOGP_3>
2.6305423

>  <GCUT_SMR_0>
-0.51777875

>  <GCUT_SMR_1>
-0.18315168

>  <GCUT_SMR_2>
0.15839325

>  <GCUT_SMR_3>
2.7984788

>  <Kier1>
15.39

>  <Kier2>
8.3232002

>  <Kier3>
5.1199999

>  <KierA1>
11.783929

>  <KierA2>
6.2707052

>  <KierA3>
3.8088484

>  <KierFlex>
3.8891339

>  <lip_acc>
2

>  <lip_don>
0

>  <lip_druglike>
1

>  <lip_violation>
0

>  <logP(o/w)>
3.7820001

>  <logS>
-3.1668701

>  <mr>
8.0607929

>  <mutagenic>
0

>  <nmol>
1

>  <opr_brigid>
12

>  <opr_leadlike>
1

>  <opr_nring>
2

>  <opr_nrot>
6

>  <opr_violation>
0

>  <PC+>
0

>  <PC->
0

>  <PEOE_PC+>
1.3194826

>  <PEOE_PC->
-1.3194826

>  <PEOE_RPC+>
0.082373008

>  <PEOE_RPC->
0.27743694

>  <PEOE_VSA+0>
47.315414

>  <PEOE_VSA+1>
70.401314

>  <PEOE_VSA+2>
4.9049287

>  <PEOE_VSA+3>
0

>  <PEOE_VSA+4>
0

>  <PEOE_VSA+5>
0

>  <PEOE_VSA+6>
0

>  <PEOE_VSA-0>
50.894459

>  <PEOE_VSA-1>
122.54904

>  <PEOE_VSA-2>
0

>  <PEOE_VSA-3>
0

>  <PEOE_VSA-4>
0

>  <PEOE_VSA-5>
0

>  <PEOE_VSA-6>
2.503756

>  <PEOE_VSA_FHYD>
0.99161416

>  <PEOE_VSA_FNEG>
0.589302

>  <PEOE_VSA_FPNEG>
0.0083858566

>  <PEOE_VSA_FPOL>
0.0083858566

>  <PEOE_VSA_FPOS>
0.410698

>  <PEOE_VSA_FPPOS>
0

>  <PEOE_VSA_HYD>
296.06516

>  <PEOE_VSA_NEG>
175.94725

>  <PEOE_VSA_PNEG>
2.503756

>  <PEOE_VSA_POL>
2.503756

>  <PEOE_VSA_POS>
122.62165

>  <PEOE_VSA_PPOS>
0

>  <petitjean>
0.44444445

>  <petitjeanSC>
0.80000001

>  <Q_PC+>
0

>  <Q_PC->
0

>  <Q_RPC+>
0

>  <Q_RPC->
0

>  <Q_VSA_FHYD>
1

>  <Q_VSA_FNEG>
0

>  <Q_VSA_FPNEG>
0

>  <Q_VSA_FPOL>
0

>  <Q_VSA_FPOS>
1

>  <Q_VSA_FPPOS>
0

>  <Q_VSA_HYD>
298.56891

>  <Q_VSA_NEG>
0

>  <Q_VSA_PNEG>
0

>  <Q_VSA_POL>
0

>  <Q_VSA_POS>
298.56891

>  <Q_VSA_PPOS>
0

>  <radius>
5

>  <reactive>
0

>  <rings>
2

>  <RPC+>
0

>  <RPC->
0

>  <rsynth>
1

>  <SlogP>
3.4497001

>  <SlogP_VSA0>
0

>  <SlogP_VSA1>
3.1243138

>  <SlogP_VSA2>
10.999887

>  <SlogP_VSA3>
39.365837

>  <SlogP_VSA4>
6.37115

>  <SlogP_VSA5>
65.794373

>  <SlogP_VSA6>
0

>  <SlogP_VSA7>
176.43184

>  <SlogP_VSA8>
6.4686494

>  <SlogP_VSA9>
0

>  <SMR>
7.9344001

>  <SMR_VSA0>
10.999887

>  <SMR_VSA1>
3.1243138

>  <SMR_VSA2>
0

>  <SMR_VSA3>
12.839799

>  <SMR_VSA4>
0

>  <SMR_VSA5>
176.43184

>  <SMR_VSA6>
39.365837

>  <SMR_VSA7>
65.794373

>  <TPSA>
12.47

>  <VAdjEq>
0.5023343

>  <VAdjMa>
5.321928

>  <VDistEq>
3.0560105

>  <VDistMa>
8.2140408

>  <vdw_area>
298.56891

>  <vdw_vol>
394.55399

>  <vsa_acc>
2.503756

>  <vsa_acid>
0

>  <vsa_base>
0

>  <vsa_don>
0

>  <vsa_hyd>
281.11746

>  <vsa_other>
0

>  <vsa_pol>
2.503756

>  <Weight>
255.36099

>  <weinerPath>
736

>  <weinerPol>
24

>  <zagreb>
90

$$$$