N(CC(CC1c2c(CCc3c1cccc3)cccc2)C)(C)C
  MOE2013           2D

 22 24  0  0  1  0  0  0  0  0999 V2000
    0.0000    0.0000    0.0000 N   0  0  0  0  0  0  0  0  0  0  0  0
   -1.5000   -0.0110    0.0000 C   0  0  0  0  0  0  0  0  0  0  0  0
   -2.2400   -1.3160    0.0000 C   0  0  3  0  0  0  0  0  0  0  0  0
   -3.7400   -1.3270    0.0000 C   0  0  0  0  0  0  0  0  0  0  0  0
   -4.4810   -2.6310    0.0000 C   0  0  0  0  0  0  0  0  0  0  0  0
   -5.9770   -2.5310    0.0000 C   0  0  0  0  0  0  0  0  0  0  0  0
   -6.9890   -3.6380    0.0000 C   0  0  0  0  0  0  0  0  0  0  0  0
   -6.7560   -5.1200    0.0000 C   0  0  0  0  0  0  0  0  0  0  0  0
   -5.4520   -5.8610    0.0000 C   0  0  0  0  0  0  0  0  0  0  0  0
   -4.0590   -5.3010    0.0000 C   0  0  0  0  0  0  0  0  0  0  0  0
   -3.6280   -3.8650    0.0000 C   0  0  0  0  0  0  0  0  0  0  0  0
   -2.1680   -3.5200    0.0000 C   0  0  0  0  0  0  0  0  0  0  0  0
   -1.1390   -4.6130    0.0000 C   0  0  0  0  0  0  0  0  0  0  0  0
   -1.5710   -6.0490    0.0000 C   0  0  0  0  0  0  0  0  0  0  0  0
   -3.0310   -6.3930    0.0000 C   0  0  0  0  0  0  0  0  0  0  0  0
   -8.4540   -3.3150    0.0000 C   0  0  0  0  0  0  0  0  0  0  0  0
   -8.9070   -1.8850    0.0000 C   0  0  0  0  0  0  0  0  0  0  0  0
   -7.8950   -0.7780    0.0000 C   0  0  0  0  0  0  0  0  0  0  0  0
   -6.4300   -1.1010    0.0000 C   0  0  0  0  0  0  0  0  0  0  0  0
   -1.4810   -2.6090    0.0000 C   0  0  0  0  0  0  0  0  0  0  0  0
    0.7600   -1.2930    0.0000 C   0  0  0  0  0  0  0  0  0  0  0  0
    0.7400    1.3050    0.0000 C   0  0  0  0  0  0  0  0  0  0  0  0
  1  2  1  0  0  0  0
  1 21  1  0  0  0  0
  1 22  1  0  0  0  0
  2  3  1  0  0  0  0
  3  4  1  0  0  0  0
  3 20  1  0  0  0  0
  4  5  1  0  0  0  0
  5  6  1  0  0  0  0
  5 11  1  0  0  0  0
  6  7  1  0  0  0  0
  6 19  2  0  0  0  0
  7  8  1  0  0  0  0
  7 16  2  0  0  0  0
  8  9  1  0  0  0  0
  9 10  1  0  0  0  0
 10 11  1  0  0  0  0
 10 15  2  0  0  0  0
 11 12  2  0  0  0  0
 12 13  1  0  0  0  0
 13 14  2  0  0  0  0
 14 15  1  0  0  0  0
 16 17  1  0  0  0  0
 17 18  2  0  0  0  0
 18 19  1  0  0  0  0
M  END
>  <Index>
1458

>  <ID>
HT0342

>  <class>
1

>  <apol>
56.063412

>  <ast_fraglike>
0

>  <ast_fraglike_ext>
0

>  <ast_violation>
1

>  <ast_violation_ext>
2

>  <a_acc>
1

>  <a_acid>
0

>  <a_aro>
12

>  <a_base>
0

>  <a_count>
49

>  <a_don>
0

>  <a_donacc>
1

>  <a_heavy>
22

>  <a_hyd>
21

>  <a_IC>
54.500153

>  <a_ICM>
1.1122481

>  <a_nB>
0

>  <a_nBr>
0

>  <a_nC>
21

>  <a_nCl>
0

>  <a_nF>
0

>  <a_nH>
27

>  <a_nI>
0

>  <a_nN>
1

>  <a_nO>
0

>  <a_nP>
0

>  <a_nS>
0

>  <balabanJ>
1.7567483

>  <BCUT_PEOE_0>
-2.7206075

>  <BCUT_PEOE_1>
-0.52284229

>  <BCUT_PEOE_2>
0.58893877

>  <BCUT_PEOE_3>
2.6631846

>  <BCUT_SLOGP_0>
-2.7228727

>  <BCUT_SLOGP_1>
-0.42327139

>  <BCUT_SLOGP_2>
0.68659061

>  <BCUT_SLOGP_3>
2.7497439

>  <BCUT_SMR_0>
-2.45437

>  <BCUT_SMR_1>
-0.39757127

>  <BCUT_SMR_2>
0.7216717

>  <BCUT_SMR_3>
2.93209

>  <bpol>
31.49659

>  <b_1rotN>
4

>  <b_1rotR>
0.16666667

>  <b_ar>
12

>  <b_count>
51

>  <b_double>
0

>  <b_heavy>
24

>  <b_max1len>
7

>  <b_rotN>
4

>  <b_rotR>
0.16666667

>  <b_single>
39

>  <b_triple>
0

>  <chi0>
15.526733

>  <chi0v>
14.049144

>  <chi0v_C>
13.60193

>  <chi0_C>
14.949383

>  <chi1>
10.647867

>  <chi1v>
8.4519081

>  <chi1v_C>
7.2412529

>  <chi1_C>
9.084918

>  <chiral>
1

>  <chiral_u>
1

>  <density>
0.62742287

>  <diameter>
9

>  <FCharge>
0

>  <GCUT_PEOE_0>
-0.86362416

>  <GCUT_PEOE_1>
-0.33859611

>  <GCUT_PEOE_2>
0.060507316

>  <GCUT_PEOE_3>
2.8902063

>  <GCUT_SLOGP_0>
-0.95435101

>  <GCUT_SLOGP_1>
-0.22603761

>  <GCUT_SLOGP_2>
0.14060031

>  <GCUT_SLOGP_3>
2.9997621

>  <GCUT_SMR_0>
-0.5299294

>  <GCUT_SMR_1>
-0.18113878

>  <GCUT_SMR_2>
0.16005282

>  <GCUT_SMR_3>
3.1595948

>  <Kier1>
16.84375

>  <Kier2>
7.7134986

>  <Kier3>
4.1103301

>  <KierA1>
13.410684

>  <KierA2>
6.0700212

>  <KierA3>
3.2072396

>  <KierFlex>
3.7001426

>  <lip_acc>
1

>  <lip_don>
0

>  <lip_druglike>
1

>  <lip_violation>
0

>  <logP(o/w)>
5.0939999

>  <logS>
-4.7248201

>  <mr>
9.4295387

>  <mutagenic>
0

>  <nmol>
1

>  <opr_brigid>
17

>  <opr_leadlike>
1

>  <opr_nring>
3

>  <opr_nrot>
4

>  <opr_violation>
1

>  <PC+>
0

>  <PC->
0

>  <PEOE_PC+>
1.1489486

>  <PEOE_PC->
-1.1489486

>  <PEOE_RPC+>
0.05401092

>  <PEOE_RPC->
0.2681495

>  <PEOE_VSA+0>
94.234657

>  <PEOE_VSA+1>
34.123089

>  <PEOE_VSA+2>
0

>  <PEOE_VSA+3>
0

>  <PEOE_VSA+4>
0

>  <PEOE_VSA+5>
0

>  <PEOE_VSA+6>
0

>  <PEOE_VSA-0>
81.415474

>  <PEOE_VSA-1>
116.78691

>  <PEOE_VSA-2>
0

>  <PEOE_VSA-3>
0

>  <PEOE_VSA-4>
0

>  <PEOE_VSA-5>
0

>  <PEOE_VSA-6>
0

>  <PEOE_VSA_FHYD>
1

>  <PEOE_VSA_FNEG>
0.60693991

>  <PEOE_VSA_FPNEG>
0

>  <PEOE_VSA_FPOL>
0

>  <PEOE_VSA_FPOS>
0.39306006

>  <PEOE_VSA_FPPOS>
0

>  <PEOE_VSA_HYD>
326.56012

>  <PEOE_VSA_NEG>
198.20239

>  <PEOE_VSA_PNEG>
0

>  <PEOE_VSA_POL>
0

>  <PEOE_VSA_POS>
128.35774

>  <PEOE_VSA_PPOS>
0

>  <petitjean>
0.44444445

>  <petitjeanSC>
0.80000001

>  <Q_PC+>
0

>  <Q_PC->
0

>  <Q_RPC+>
0

>  <Q_RPC->
0

>  <Q_VSA_FHYD>
1

>  <Q_VSA_FNEG>
0

>  <Q_VSA_FPNEG>
0

>  <Q_VSA_FPOL>
0

>  <Q_VSA_FPOS>
1

>  <Q_VSA_FPPOS>
0

>  <Q_VSA_HYD>
326.56012

>  <Q_VSA_NEG>
0

>  <Q_VSA_PNEG>
0

>  <Q_VSA_POL>
0

>  <Q_VSA_POS>
326.56012

>  <Q_VSA_PPOS>
0

>  <radius>
5

>  <reactive>
0

>  <rings>
3

>  <RPC+>
0

>  <RPC->
0

>  <rsynth>
0.63636363

>  <SlogP>
4.5048399

>  <SlogP_VSA0>
0

>  <SlogP_VSA1>
3.1243138

>  <SlogP_VSA2>
0

>  <SlogP_VSA3>
18.439579

>  <SlogP_VSA4>
17.153095

>  <SlogP_VSA5>
103.53119

>  <SlogP_VSA6>
4.4107962

>  <SlogP_VSA7>
141.14548

>  <SlogP_VSA8>
18.868406

>  <SlogP_VSA9>
33.326015

>  <SMR>
9.4469995

>  <SMR_VSA0>
0

>  <SMR_VSA1>
3.1243138

>  <SMR_VSA2>
4.4107962

>  <SMR_VSA3>
17.153095

>  <SMR_VSA4>
0

>  <SMR_VSA5>
197.75069

>  <SMR_VSA6>
18.439579

>  <SMR_VSA7>
99.120392

>  <TPSA>
3.24

>  <VAdjEq>
0.46637034

>  <VAdjMa>
5.5849624

>  <VDistEq>
3.0194578

>  <VDistMa>
8.6617937

>  <vdw_area>
326.56012

>  <vdw_vol>
467.71323

>  <vsa_acc>
0

>  <vsa_acid>
0

>  <vsa_base>
0

>  <vsa_don>
0

>  <vsa_hyd>
304.65155

>  <vsa_other>
0

>  <vsa_pol>
0

>  <Weight>
293.45398

>  <weinerPath>
979

>  <weinerPol>
37

>  <zagreb>
114

$$$$