Fc1cc2c(N(C=C(C(O)=O)C2=O)C2CC2)cc1N1CCNCC1
  MOE2013           2D

 24 27  0  0  1  0  0  0  0  0999 V2000
    0.0000    0.0000    0.0000 F   0  0  0  0  0  0  0  0  0  0  0  0
   -1.2980    0.7520    0.0000 C   0  0  0  0  0  0  0  0  0  0  0  0
   -2.5980    0.0030    0.0000 C   0  0  0  0  0  0  0  0  0  0  0  0
   -3.8960    0.7550    0.0000 C   0  0  0  0  0  0  0  0  0  0  0  0
   -3.8940    2.2550    0.0000 C   0  0  0  0  0  0  0  0  0  0  0  0
   -5.1920    3.0070    0.0000 N   0  0  3  0  0  0  0  0  0  0  0  0
   -6.4920    2.2590    0.0000 C   0  0  0  0  0  0  0  0  0  0  0  0
   -6.4940    0.7590    0.0000 C   0  0  0  0  0  0  0  0  0  0  0  0
   -7.7940    0.0100    0.0000 C   0  0  0  0  0  0  0  0  0  0  0  0
   -9.0920    0.7620    0.0000 O   0  0  0  0  0  0  0  0  0  0  0  0
   -7.7960   -1.4900    0.0000 O   0  0  0  0  0  0  0  0  0  0  0  0
   -5.1960    0.0070    0.0000 C   0  0  0  0  0  0  0  0  0  0  0  0
   -5.1980   -1.4930    0.0000 O   0  0  0  0  0  0  0  0  0  0  0  0
   -5.1900    4.5070    0.0000 C   0  0  0  0  0  0  0  0  0  0  0  0
   -4.4380    5.8050    0.0000 C   0  0  0  0  0  0  0  0  0  0  0  0
   -5.9380    5.8070    0.0000 C   0  0  0  0  0  0  0  0  0  0  0  0
   -2.5940    3.0030    0.0000 C   0  0  0  0  0  0  0  0  0  0  0  0
   -1.2960    2.2520    0.0000 C   0  0  0  0  0  0  0  0  0  0  0  0
    0.0040    3.0000    0.0000 N   0  0  0  0  0  0  0  0  0  0  0  0
    1.3020    2.2480    0.0000 C   0  0  0  0  0  0  0  0  0  0  0  0
    2.6020    2.9970    0.0000 C   0  0  0  0  0  0  0  0  0  0  0  0
    2.6040    4.4970    0.0000 N   0  0  0  0  0  0  0  0  0  0  0  0
    1.3060    5.2480    0.0000 C   0  0  0  0  0  0  0  0  0  0  0  0
    0.0060    4.5000    0.0000 C   0  0  0  0  0  0  0  0  0  0  0  0
  1  2  1  0  0  0  0
  2  3  1  0  0  0  0
  2 18  2  0  0  0  0
  3  4  2  0  0  0  0
  4  5  1  0  0  0  0
  4 12  1  0  0  0  0
  5  6  1  0  0  0  0
  5 17  2  0  0  0  0
  6  7  1  0  0  0  0
  6 14  1  0  0  0  0
  7  8  2  0  0  0  0
  8  9  1  0  0  0  0
  8 12  1  0  0  0  0
  9 10  1  0  0  0  0
  9 11  2  0  0  0  0
 12 13  2  0  0  0  0
 14 15  1  0  0  0  0
 14 16  1  0  0  0  0
 15 16  1  0  0  0  0
 17 18  1  0  0  0  0
 18 19  1  0  0  0  0
 19 20  1  0  0  0  0
 19 24  1  0  0  0  0
 20 21  1  0  0  0  0
 21 22  1  0  0  0  0
 22 23  1  0  0  0  0
 23 24  1  0  0  0  0
M  END
>  <Index>
1497

>  <ID>
HT0497

>  <class>
1

>  <apol>
48.185272

>  <ast_fraglike>
0

>  <ast_fraglike_ext>
0

>  <ast_violation>
2

>  <ast_violation_ext>
3

>  <a_acc>
4

>  <a_acid>
0

>  <a_aro>
6

>  <a_base>
0

>  <a_count>
42

>  <a_don>
3

>  <a_donacc>
7

>  <a_heavy>
24

>  <a_hyd>
16

>  <a_IC>
72.422035

>  <a_ICM>
1.7243342

>  <a_nB>
0

>  <a_nBr>
0

>  <a_nC>
17

>  <a_nCl>
0

>  <a_nF>
1

>  <a_nH>
18

>  <a_nI>
0

>  <a_nN>
3

>  <a_nO>
3

>  <a_nP>
0

>  <a_nS>
0

>  <balabanJ>
1.5368611

>  <BCUT_PEOE_0>
-2.711587

>  <BCUT_PEOE_1>
-0.61865133

>  <BCUT_PEOE_2>
0.65067542

>  <BCUT_PEOE_3>
2.7630646

>  <BCUT_SLOGP_0>
-2.8882422

>  <BCUT_SLOGP_1>
-0.575463

>  <BCUT_SLOGP_2>
0.6977278

>  <BCUT_SLOGP_3>
2.8104618

>  <BCUT_SMR_0>
-2.4146452

>  <BCUT_SMR_1>
-0.44564503

>  <BCUT_SMR_2>
0.7901299

>  <BCUT_SMR_3>
3.0312302

>  <bpol>
27.416725

>  <b_1rotN>
3

>  <b_1rotR>
0.11111111

>  <b_ar>
6

>  <b_count>
45

>  <b_double>
3

>  <b_heavy>
27

>  <b_max1len>
2

>  <b_rotN>
3

>  <b_rotR>
0.11111111

>  <b_single>
36

>  <b_triple>
0

>  <chi0>
16.84457

>  <chi0v>
13.088143

>  <chi0v_C>
10.052042

>  <chi0_C>
10.982763

>  <chi1>
11.558551

>  <chi1v>
8.1338835

>  <chi1v_C>
5.0098724

>  <chi1_C>
6.0244045

>  <chiral>
0

>  <chiral_u>
0

>  <density>
0.79628521

>  <diameter>
11

>  <FCharge>
0

>  <GCUT_PEOE_0>
-0.84370434

>  <GCUT_PEOE_1>
-0.46233052

>  <GCUT_PEOE_2>
0.12832126

>  <GCUT_PEOE_3>
2.705864

>  <GCUT_SLOGP_0>
-1.1544344

>  <GCUT_SLOGP_1>
-0.38754296

>  <GCUT_SLOGP_2>
0.18862976

>  <GCUT_SLOGP_3>
2.7424564

>  <GCUT_SMR_0>
-0.50361758

>  <GCUT_SMR_1>
-0.248254

>  <GCUT_SMR_2>
0.21933083

>  <GCUT_SMR_3>
2.9862459

>  <Kier1>
17.415638

>  <Kier2>
6.9575

>  <Kier3>
3.1283472

>  <KierA1>
13.23608

>  <KierA2>
5.2199693

>  <KierA3>
2.3253474

>  <KierFlex>
2.8788304

>  <lip_acc>
6

>  <lip_don>
2

>  <lip_druglike>
1

>  <lip_violation>
0

>  <logP(o/w)>
1.0369999

>  <logS>
-2.7345901

>  <mr>
8.5351715

>  <mutagenic>
0

>  <nmol>
1

>  <opr_brigid>
20

>  <opr_leadlike>
1

>  <opr_nring>
4

>  <opr_nrot>
5

>  <opr_violation>
0

>  <PC+>
0

>  <PC->
0

>  <PEOE_PC+>
2.0106671

>  <PEOE_PC->
-2.0106671

>  <PEOE_RPC+>
0.14717957

>  <PEOE_RPC->
0.16281871

>  <PEOE_VSA+0>
137.01929

>  <PEOE_VSA+1>
19.495708

>  <PEOE_VSA+2>
19.848398

>  <PEOE_VSA+3>
0

>  <PEOE_VSA+4>
18.782692

>  <PEOE_VSA+5>
14.708499

>  <PEOE_VSA+6>
0

>  <PEOE_VSA-0>
41.912434

>  <PEOE_VSA-1>
0

>  <PEOE_VSA-2>
0

>  <PEOE_VSA-3>
0

>  <PEOE_VSA-4>
11.908636

>  <PEOE_VSA-5>
27.133842

>  <PEOE_VSA-6>
7.9044313

>  <PEOE_VSA_FHYD>
0.73071861

>  <PEOE_VSA_FNEG>
0.29747304

>  <PEOE_VSA_FPNEG>
0.15716344

>  <PEOE_VSA_FPOL>
0.26928139

>  <PEOE_VSA_FPOS>
0.70252693

>  <PEOE_VSA_FPPOS>
0.11211795

>  <PEOE_VSA_HYD>
218.27583

>  <PEOE_VSA_NEG>
88.859344

>  <PEOE_VSA_PNEG>
46.946907

>  <PEOE_VSA_POL>
80.438103

>  <PEOE_VSA_POS>
209.85458

>  <PEOE_VSA_PPOS>
33.491192

>  <petitjean>
0.45454547

>  <petitjeanSC>
0.83333331

>  <Q_PC+>
0

>  <Q_PC->
0

>  <Q_RPC+>
0

>  <Q_RPC->
0

>  <Q_VSA_FHYD>
1

>  <Q_VSA_FNEG>
0

>  <Q_VSA_FPNEG>
0

>  <Q_VSA_FPOL>
0

>  <Q_VSA_FPOS>
1

>  <Q_VSA_FPPOS>
0

>  <Q_VSA_HYD>
298.71393

>  <Q_VSA_NEG>
0

>  <Q_VSA_PNEG>
0

>  <Q_VSA_POL>
0

>  <Q_VSA_POS>
298.71393

>  <Q_VSA_PPOS>
0

>  <radius>
6

>  <reactive>
0

>  <rings>
4

>  <RPC+>
0

>  <RPC->
0

>  <rsynth>
1

>  <SlogP>
1.3688999

>  <SlogP_VSA0>
24.259378

>  <SlogP_VSA1>
13.433075

>  <SlogP_VSA2>
36.965202

>  <SlogP_VSA3>
99.143539

>  <SlogP_VSA4>
27.047791

>  <SlogP_VSA5>
3.185575

>  <SlogP_VSA6>
0

>  <SlogP_VSA7>
52.500725

>  <SlogP_VSA8>
37.736813

>  <SlogP_VSA9>
20.473608

>  <SMR>
8.7033005

>  <SMR_VSA0>
47.724434

>  <SMR_VSA1>
14.960114

>  <SMR_VSA2>
58.765621

>  <SMR_VSA3>
10.353119

>  <SMR_VSA4>
5.513495

>  <SMR_VSA5>
90.237534

>  <SMR_VSA6>
87.191391

>  <SMR_VSA7>
0

>  <TPSA>
72.879997

>  <VAdjEq>
0.44886449

>  <VAdjMa>
5.7548876

>  <VDistEq>
3.1700883

>  <VDistMa>
8.9040213

>  <vdw_area>
298.71393

>  <vdw_vol>
416.11597

>  <vsa_acc>
13.566921

>  <vsa_acid>
0

>  <vsa_base>
0

>  <vsa_don>
0

>  <vsa_hyd>
210.17673

>  <vsa_other>
23.167019

>  <vsa_pol>
46.383339

>  <Weight>
331.34698

>  <weinerPath>
1234

>  <weinerPol>
43

>  <zagreb>
134

$$$$