Clc1cc2c(Oc3c(N=C2N2CCNCC2)cccc3)cc1
  MOE2013           2D

 22 25  0  0  0  0  0  0  0  0999 V2000
    0.0000    0.0000    0.0000 Cl  0  0  0  0  0  0  0  0  0  0  0  0
    1.2960   -0.7560    0.0000 C   0  0  0  0  0  0  0  0  0  0  0  0
    1.2890   -2.2560    0.0000 C   0  0  0  0  0  0  0  0  0  0  0  0
    2.5850   -3.0110    0.0000 C   0  0  0  0  0  0  0  0  0  0  0  0
    3.8870   -2.2670    0.0000 C   0  0  0  0  0  0  0  0  0  0  0  0
    5.2810   -2.8210    0.0000 O   0  0  0  0  0  0  0  0  0  0  0  0
    5.7160   -4.2560    0.0000 C   0  0  0  0  0  0  0  0  0  0  0  0
    4.8650   -5.4920    0.0000 C   0  0  0  0  0  0  0  0  0  0  0  0
    3.3680   -5.5990    0.0000 N   0  0  0  0  0  0  0  0  0  0  0  0
    2.3540   -4.4940    0.0000 C   0  0  0  0  0  0  0  0  0  0  0  0
    0.9180   -4.9280    0.0000 N   0  0  0  0  0  0  0  0  0  0  0  0
   -0.1760   -3.9020    0.0000 C   0  0  0  0  0  0  0  0  0  0  0  0
   -1.6120   -4.3370    0.0000 C   0  0  0  0  0  0  0  0  0  0  0  0
   -1.9530   -5.7980    0.0000 N   0  0  0  0  0  0  0  0  0  0  0  0
   -0.8590   -6.8240    0.0000 C   0  0  0  0  0  0  0  0  0  0  0  0
    0.5770   -6.3890    0.0000 C   0  0  0  0  0  0  0  0  0  0  0  0
    5.5100   -6.8460    0.0000 C   0  0  0  0  0  0  0  0  0  0  0  0
    7.0050   -6.9650    0.0000 C   0  0  0  0  0  0  0  0  0  0  0  0
    7.8560   -5.7300    0.0000 C   0  0  0  0  0  0  0  0  0  0  0  0
    7.2110   -4.3750    0.0000 C   0  0  0  0  0  0  0  0  0  0  0  0
    3.8940   -0.7670    0.0000 C   0  0  0  0  0  0  0  0  0  0  0  0
    2.5980   -0.0110    0.0000 C   0  0  0  0  0  0  0  0  0  0  0  0
  1  2  1  0  0  0  0
  2  3  1  0  0  0  0
  2 22  2  0  0  0  0
  3  4  2  0  0  0  0
  4  5  1  0  0  0  0
  4 10  1  0  0  0  0
  5  6  1  0  0  0  0
  5 21  2  0  0  0  0
  6  7  1  0  0  0  0
  7  8  1  0  0  0  0
  7 20  2  0  0  0  0
  8  9  1  0  0  0  0
  8 17  2  0  0  0  0
  9 10  2  0  0  0  0
 10 11  1  0  0  0  0
 11 12  1  0  0  0  0
 11 16  1  0  0  0  0
 12 13  1  0  0  0  0
 13 14  1  0  0  0  0
 14 15  1  0  0  0  0
 15 16  1  0  0  0  0
 17 18  1  0  0  0  0
 18 19  2  0  0  0  0
 19 20  1  0  0  0  0
 21 22  1  0  0  0  0
M  END
>  <Index>
1432

>  <ID>
HT0149

>  <class>
1

>  <apol>
46.870689

>  <ast_fraglike>
0

>  <ast_fraglike_ext>
0

>  <ast_violation>
2

>  <ast_violation_ext>
2

>  <a_acc>
2

>  <a_acid>
0

>  <a_aro>
12

>  <a_base>
0

>  <a_count>
38

>  <a_don>
1

>  <a_donacc>
3

>  <a_heavy>
22

>  <a_hyd>
17

>  <a_IC>
61.179489

>  <a_ICM>
1.6099865

>  <a_nB>
0

>  <a_nBr>
0

>  <a_nC>
17

>  <a_nCl>
1

>  <a_nF>
0

>  <a_nH>
16

>  <a_nI>
0

>  <a_nN>
3

>  <a_nO>
1

>  <a_nP>
0

>  <a_nS>
0

>  <balabanJ>
1.5741323

>  <BCUT_PEOE_0>
-2.716197

>  <BCUT_PEOE_1>
-0.63493365

>  <BCUT_PEOE_2>
0.65656102

>  <BCUT_PEOE_3>
2.6174264

>  <BCUT_SLOGP_0>
-2.8889599

>  <BCUT_SLOGP_1>
-0.59433401

>  <BCUT_SLOGP_2>
0.77462327

>  <BCUT_SLOGP_3>
2.5086503

>  <BCUT_SMR_0>
-2.424005

>  <BCUT_SMR_1>
-0.48071998

>  <BCUT_SMR_2>
0.83161479

>  <BCUT_SMR_3>
2.9015248

>  <bpol>
23.787312

>  <b_1rotN>
1

>  <b_1rotR>
0.039999999

>  <b_ar>
12

>  <b_count>
41

>  <b_double>
1

>  <b_heavy>
25

>  <b_max1len>
2

>  <b_rotN>
1

>  <b_rotR>
0.039999999

>  <b_single>
28

>  <b_triple>
0

>  <chi0>
14.940947

>  <chi0v>
12.806448

>  <chi0v_C>
9.8698788

>  <chi0_C>
11.242276

>  <chi1>
10.809663

>  <chi1v>
7.800962

>  <chi1v_C>
4.8153839

>  <chi1_C>
6.4494896

>  <chiral>
0

>  <chiral_u>
0

>  <density>
0.76822811

>  <diameter>
9

>  <FCharge>
0

>  <GCUT_PEOE_0>
-0.86242938

>  <GCUT_PEOE_1>
-0.43046743

>  <GCUT_PEOE_2>
0.062203467

>  <GCUT_PEOE_3>
2.6281722

>  <GCUT_SLOGP_0>
-1.1542467

>  <GCUT_SLOGP_1>
-0.31936374

>  <GCUT_SLOGP_2>
0.18287449

>  <GCUT_SLOGP_3>
2.7197766

>  <GCUT_SMR_0>
-0.50895

>  <GCUT_SMR_1>
-0.2165993

>  <GCUT_SMR_2>
0.19826761

>  <GCUT_SMR_3>
2.9235082

>  <Kier1>
15.5232

>  <Kier2>
6.8571429

>  <Kier3>
3.2986112

>  <KierA1>
12.332818

>  <KierA2>
5.3839531

>  <KierA3>
2.5678456

>  <KierFlex>
3.0181506

>  <lip_acc>
4

>  <lip_don>
1

>  <lip_druglike>
1

>  <lip_violation>
0

>  <logP(o/w)>
3.0350001

>  <logS>
-4.1309299

>  <mr>
8.7097988

>  <mutagenic>
0

>  <nmol>
1

>  <opr_brigid>
23

>  <opr_leadlike>
1

>  <opr_nring>
4

>  <opr_nrot>
3

>  <opr_violation>
0

>  <PC+>
0

>  <PC->
0

>  <PEOE_PC+>
1.5645456

>  <PEOE_PC->
-1.5645456

>  <PEOE_RPC+>
0.089558356

>  <PEOE_RPC->
0.22556899

>  <PEOE_VSA+0>
76.559128

>  <PEOE_VSA+1>
62.077316

>  <PEOE_VSA+2>
28.268095

>  <PEOE_VSA+3>
0

>  <PEOE_VSA+4>
0

>  <PEOE_VSA+5>
0

>  <PEOE_VSA+6>
0

>  <PEOE_VSA-0>
61.274521

>  <PEOE_VSA-1>
54.091755

>  <PEOE_VSA-2>
0

>  <PEOE_VSA-3>
0

>  <PEOE_VSA-4>
5.6825762

>  <PEOE_VSA-5>
0

>  <PEOE_VSA-6>
2.6406472

>  <PEOE_VSA_FHYD>
0.97135788

>  <PEOE_VSA_FNEG>
0.42564362

>  <PEOE_VSA_FPNEG>
0.028642099

>  <PEOE_VSA_FPOL>
0.028642099

>  <PEOE_VSA_FPOS>
0.57435638

>  <PEOE_VSA_FPPOS>
0

>  <PEOE_VSA_HYD>
282.27081

>  <PEOE_VSA_NEG>
123.6895

>  <PEOE_VSA_PNEG>
8.3232231

>  <PEOE_VSA_POL>
8.3232231

>  <PEOE_VSA_POS>
166.90454

>  <PEOE_VSA_PPOS>
0

>  <petitjean>
0.44444445

>  <petitjeanSC>
0.80000001

>  <Q_PC+>
0

>  <Q_PC->
0

>  <Q_RPC+>
0

>  <Q_RPC->
0

>  <Q_VSA_FHYD>
1

>  <Q_VSA_FNEG>
0

>  <Q_VSA_FPNEG>
0

>  <Q_VSA_FPOL>
0

>  <Q_VSA_FPOS>
1

>  <Q_VSA_FPPOS>
0

>  <Q_VSA_HYD>
290.59402

>  <Q_VSA_NEG>
0

>  <Q_VSA_PNEG>
0

>  <Q_VSA_POL>
0

>  <Q_VSA_POS>
290.59402

>  <Q_VSA_PPOS>
0

>  <radius>
5

>  <reactive>
0

>  <rings>
4

>  <RPC+>
0

>  <RPC->
0

>  <rsynth>
1

>  <SlogP>
3.4291999

>  <SlogP_VSA0>
29.010639

>  <SlogP_VSA1>
5.4522343

>  <SlogP_VSA2>
0

>  <SlogP_VSA3>
73.758316

>  <SlogP_VSA4>
3.185575

>  <SlogP_VSA5>
16.78553

>  <SlogP_VSA6>
3.5006065

>  <SlogP_VSA7>
123.50229

>  <SlogP_VSA8>
0

>  <SlogP_VSA9>
52.392246

>  <SMR>
8.8607702

>  <SMR_VSA0>
0

>  <SMR_VSA1>
30.909731

>  <SMR_VSA2>
18.01075

>  <SMR_VSA3>
17.173038

>  <SMR_VSA4>
2.7567475

>  <SMR_VSA5>
123.50229

>  <SMR_VSA6>
76.086235

>  <SMR_VSA7>
39.148643

>  <TPSA>
36.860001

>  <VAdjEq>
0.47938794

>  <VAdjMa>
5.643856

>  <VDistEq>
2.9251459

>  <VDistMa>
8.6701946

>  <vdw_area>
290.59402

>  <vdw_vol>
408.45679

>  <vsa_acc>
5.6825762

>  <vsa_acid>
0

>  <vsa_base>
0

>  <vsa_don>
0

>  <vsa_hyd>
251.78432

>  <vsa_other>
13.694319

>  <vsa_pol>
11.365152

>  <Weight>
313.78799

>  <weinerPath>
936

>  <weinerPol>
39

>  <zagreb>
120

$$$$