S(Oc1cc(ccc1O)[C@H](O)[C@@H](O)[C@@H]1NC(=O)[C@H]2N(C[C@H](O)C2)C(=O)[C@@H](NC(=O)[C@@H](NC(=O)c2ccc(cc2)-c2noc(c2)-c2ccc(OCCCCC)cc2)C[C@@H](O)[C@@H](O)NC(=O)[C@H]2N(C[C@H](C)[C@@H]2O)C(=O)[C@@H](NC1=O)[C@H](O)CC(=O)N)[C@H](O)C)(O)(=O)=O
  MOE2013           2D

 89 95  0  0  1  0  0  0  0  0999 V2000
    0.0000    0.0000    0.0000 S   0  0  0  0  0  0  0  0  0  0  0  0
   -0.7400    1.3050    0.0000 O   0  0  0  0  0  0  0  0  0  0  0  0
    0.0200    2.5980    0.0000 C   0  0  0  0  0  0  0  0  0  0  0  0
    1.5200    2.5860    0.0000 C   0  0  0  0  0  0  0  0  0  0  0  0
    2.2800    3.8800    0.0000 C   0  0  0  0  0  0  0  0  0  0  0  0
    1.5400    5.1840    0.0000 C   0  0  0  0  0  0  0  0  0  0  0  0
    0.0400    5.1960    0.0000 C   0  0  0  0  0  0  0  0  0  0  0  0
   -0.7200    3.9030    0.0000 C   0  0  0  0  0  0  0  0  0  0  0  0
   -2.2200    3.9140    0.0000 O   0  0  0  0  0  0  0  0  0  0  0  0
    3.7800    3.8680    0.0000 C   0  0  2  0  0  0  0  0  0  0  0  0
    4.5200    2.5630    0.0000 O   0  0  0  0  0  0  0  0  0  0  0  0
    4.5400    5.1610    0.0000 C   0  0  1  0  0  0  0  0  0  0  0  0
    3.8000    6.4660    0.0000 O   0  0  0  0  0  0  0  0  0  0  0  0
    6.0400    5.1490    0.0000 C   0  0  2  0  0  0  0  0  0  0  0  0
    6.8370    3.8370    0.0000 N   0  0  0  0  0  0  0  0  0  0  0  0
    8.2850    3.8610    0.0000 C   0  0  0  0  0  0  0  0  0  0  0  0
    8.7590    5.2840    0.0000 O   0  0  0  0  0  0  0  0  0  0  0  0
    9.3380    3.0430    0.0000 C   0  0  1  0  0  0  0  0  0  0  0  0
   10.7770    3.1070    0.0000 N   0  0  0  0  0  0  0  0  0  0  0  0
   11.3650    1.7770    0.0000 C   0  0  0  0  0  0  0  0  0  0  0  0
   10.1910    0.7790    0.0000 C   0  0  2  0  0  0  0  0  0  0  0  0
   10.2840   -0.7180    0.0000 O   0  0  0  0  0  0  0  0  0  0  0  0
    8.9160    1.6150    0.0000 C   0  0  0  0  0  0  0  0  0  0  0  0
   11.7350    4.0900    0.0000 C   0  0  0  0  0  0  0  0  0  0  0  0
   13.2230    3.9040    0.0000 O   0  0  0  0  0  0  0  0  0  0  0  0
   11.4700    5.5990    0.0000 C   0  0  1  0  0  0  0  0  0  0  0  0
   12.6180    6.5340    0.0000 N   0  0  0  0  0  0  0  0  0  0  0  0
   12.3890    8.0340    0.0000 C   0  0  0  0  0  0  0  0  0  0  0  0
   10.9970    8.5920    0.0000 O   0  0  0  0  0  0  0  0  0  0  0  0
   13.5690    8.9440    0.0000 C   0  0  1  0  0  0  0  0  0  0  0  0
   14.9050    8.2610    0.0000 N   0  0  0  0  0  0  0  0  0  0  0  0
   16.1640    9.0760    0.0000 C   0  0  0  0  0  0  0  0  0  0  0  0
   16.0880   10.5740    0.0000 O   0  0  0  0  0  0  0  0  0  0  0  0
   17.4990    8.3930    0.0000 C   0  0  0  0  0  0  0  0  0  0  0  0
   18.7590    9.2080    0.0000 C   0  0  0  0  0  0  0  0  0  0  0  0
   20.0940    8.5240    0.0000 C   0  0  0  0  0  0  0  0  0  0  0  0
   20.1700    7.0260    0.0000 C   0  0  0  0  0  0  0  0  0  0  0  0
   18.9110    6.2110    0.0000 C   0  0  0  0  0  0  0  0  0  0  0  0
   17.5750    6.8950    0.0000 C   0  0  0  0  0  0  0  0  0  0  0  0
   21.5050    6.3430    0.0000 C   0  0  0  0  0  0  0  0  0  0  0  0
   21.7380    4.8610    0.0000 N   0  0  0  0  0  0  0  0  0  0  0  0
   23.2190    4.6240    0.0000 O   0  0  0  0  0  0  0  0  0  0  0  0
   23.9020    5.9600    0.0000 C   0  0  0  0  0  0  0  0  0  0  0  0
   22.8430    7.0220    0.0000 C   0  0  0  0  0  0  0  0  0  0  0  0
   25.3840    6.1920    0.0000 C   0  0  0  0  0  0  0  0  0  0  0  0
   25.9240    7.5910    0.0000 C   0  0  0  0  0  0  0  0  0  0  0  0
   27.4060    7.8230    0.0000 C   0  0  0  0  0  0  0  0  0  0  0  0
   28.3480    6.6560    0.0000 C   0  0  0  0  0  0  0  0  0  0  0  0
   29.8300    6.8880    0.0000 O   0  0  0  0  0  0  0  0  0  0  0  0
   30.3700    8.2880    0.0000 C   0  0  0  0  0  0  0  0  0  0  0  0
   31.8510    8.5200    0.0000 C   0  0  0  0  0  0  0  0  0  0  0  0
   32.3910    9.9200    0.0000 C   0  0  0  0  0  0  0  0  0  0  0  0
   33.8730   10.1520    0.0000 C   0  0  0  0  0  0  0  0  0  0  0  0
   34.4130   11.5510    0.0000 C   0  0  0  0  0  0  0  0  0  0  0  0
   27.8080    5.2570    0.0000 C   0  0  0  0  0  0  0  0  0  0  0  0
   26.3260    5.0240    0.0000 C   0  0  0  0  0  0  0  0  0  0  0  0
   13.6140   10.3430    0.0000 C   0  0  0  0  0  0  0  0  0  0  0  0
   12.8710   11.4670    0.0000 C   0  0  1  0  0  0  0  0  0  0  0  0
   13.8840   12.5740    0.0000 O   0  0  0  0  0  0  0  0  0  0  0  0
   11.6770   12.1120    0.0000 C   0  0  1  0  0  0  0  0  0  0  0  0
   11.8030   13.6070    0.0000 O   0  0  0  0  0  0  0  0  0  0  0  0
   10.2600   11.6310    0.0000 N   0  0  0  0  0  0  0  0  0  0  0  0
    9.1350   12.5730    0.0000 C   0  0  0  0  0  0  0  0  0  0  0  0
    9.6080   13.9970    0.0000 O   0  0  0  0  0  0  0  0  0  0  0  0
    7.7840   12.4990    0.0000 C   0  0  1  0  0  0  0  0  0  0  0  0
    6.6840   11.6410    0.0000 N   0  0  0  0  0  0  0  0  0  0  0  0
    5.3860   12.4540    0.0000 C   0  0  0  0  0  0  0  0  0  0  0  0
    5.7990   13.8970    0.0000 C   0  0  2  0  0  0  0  0  0  0  0  0
    4.8710   15.0760    0.0000 C   0  0  0  0  0  0  0  0  0  0  0  0
    7.3010   13.9590    0.0000 C   0  0  2  0  0  0  0  0  0  0  0  0
    8.1550   15.1920    0.0000 O   0  0  0  0  0  0  0  0  0  0  0  0
    6.2900   10.3390    0.0000 C   0  0  0  0  0  0  0  0  0  0  0  0
    4.9320    9.7010    0.0000 O   0  0  0  0  0  0  0  0  0  0  0  0
    6.9590    9.0360    0.0000 C   0  0  1  0  0  0  0  0  0  0  0  0
    6.1560    7.7490    0.0000 N   0  0  0  0  0  0  0  0  0  0  0  0
    6.8460    6.4320    0.0000 C   0  0  0  0  0  0  0  0  0  0  0  0
    8.3450    6.3730    0.0000 O   0  0  0  0  0  0  0  0  0  0  0  0
    4.9600    9.1190    0.0000 C   0  0  2  0  0  0  0  0  0  0  0  0
    4.2650   10.4490    0.0000 O   0  0  0  0  0  0  0  0  0  0  0  0
    4.1570    7.8530    0.0000 C   0  0  0  0  0  0  0  0  0  0  0  0
    2.6580    7.9160    0.0000 C   0  0  0  0  0  0  0  0  0  0  0  0
    1.9630    9.2450    0.0000 O   0  0  0  0  0  0  0  0  0  0  0  0
    1.8540    6.6490    0.0000 N   0  0  0  0  0  0  0  0  0  0  0  0
   12.9700    5.5880    0.0000 C   0  0  2  0  0  0  0  0  0  0  0  0
   13.7100    4.2830    0.0000 O   0  0  0  0  0  0  0  0  0  0  0  0
   13.7300    6.8810    0.0000 C   0  0  0  0  0  0  0  0  0  0  0  0
    0.7400   -1.3050    0.0000 O   0  0  0  0  0  0  0  0  0  0  0  0
   -1.3050   -0.7400    0.0000 O   0  0  0  0  0  0  0  0  0  0  0  0
    1.3050    0.7400    0.0000 O   0  0  0  0  0  0  0  0  0  0  0  0
  1  2  1  0  0  0  0
  1 87  1  0  0  0  0
  1 88  2  0  0  0  0
  1 89  2  0  0  0  0
  2  3  1  0  0  0  0
  3  4  2  0  0  0  0
  3  8  1  0  0  0  0
  4  5  1  0  0  0  0
  5  6  2  0  0  0  0
  5 10  1  0  0  0  0
  6  7  1  0  0  0  0
  7  8  2  0  0  0  0
  8  9  1  0  0  0  0
 10 11  1  1  0  0  0
 10 12  1  0  0  0  0
 12 13  1  1  0  0  0
 12 14  1  0  0  0  0
 14 15  1  1  0  0  0
 14 76  1  0  0  0  0
 15 16  1  0  0  0  0
 16 17  2  0  0  0  0
 18 16  1  1  0  0  0
 18 19  1  0  0  0  0
 18 23  1  0  0  0  0
 19 20  1  0  0  0  0
 19 24  1  0  0  0  0
 20 21  1  0  0  0  0
 21 22  1  6  0  0  0
 21 23  1  0  0  0  0
 24 25  2  0  0  0  0
 26 24  1  1  0  0  0
 26 27  1  0  0  0  0
 26 84  1  0  0  0  0
 27 28  1  0  0  0  0
 28 29  2  0  0  0  0
 28 30  1  0  0  0  0
 30 31  1  6  0  0  0
 30 57  1  0  0  0  0
 31 32  1  0  0  0  0
 32 33  2  0  0  0  0
 32 34  1  0  0  0  0
 34 35  1  0  0  0  0
 34 39  2  0  0  0  0
 35 36  2  0  0  0  0
 36 37  1  0  0  0  0
 37 38  2  0  0  0  0
 37 40  1  0  0  0  0
 38 39  1  0  0  0  0
 40 41  2  0  0  0  0
 40 44  1  0  0  0  0
 41 42  1  0  0  0  0
 42 43  1  0  0  0  0
 43 44  2  0  0  0  0
 43 45  1  0  0  0  0
 45 46  1  0  0  0  0
 45 56  2  0  0  0  0
 46 47  2  0  0  0  0
 47 48  1  0  0  0  0
 48 49  1  0  0  0  0
 48 55  2  0  0  0  0
 49 50  1  0  0  0  0
 50 51  1  0  0  0  0
 51 52  1  0  0  0  0
 52 53  1  0  0  0  0
 53 54  1  0  0  0  0
 55 56  1  0  0  0  0
 57 58  1  0  0  0  0
 58 59  1  6  0  0  0
 58 60  1  0  0  0  0
 60 61  1  6  0  0  0
 60 62  1  0  0  0  0
 62 63  1  0  0  0  0
 63 64  2  0  0  0  0
 65 63  1  1  0  0  0
 65 66  1  0  0  0  0
 65 70  1  0  0  0  0
 66 67  1  0  0  0  0
 66 72  1  0  0  0  0
 67 68  1  0  0  0  0
 68 69  1  6  0  0  0
 68 70  1  0  0  0  0
 70 71  1  6  0  0  0
 72 73  2  0  0  0  0
 74 72  1  1  0  0  0
 74 75  1  0  0  0  0
 74 78  1  0  0  0  0
 75 76  1  0  0  0  0
 76 77  2  0  0  0  0
 78 79  1  1  0  0  0
 78 80  1  0  0  0  0
 80 81  1  0  0  0  0
 81 82  2  0  0  0  0
 81 83  1  0  0  0  0
 84 85  1  1  0  0  0
 84 86  1  0  0  0  0
M  END
>  <Index>
1653

>  <ID>
HT1391

>  <class>
1

>  <apol>
177.1483

>  <ast_fraglike>
0

>  <ast_fraglike_ext>
0

>  <ast_violation>
3

>  <ast_violation_ext>
5

>  <a_acc>
23

>  <a_acid>
0

>  <a_aro>
23

>  <a_base>
0

>  <a_count>
160

>  <a_don>
18

>  <a_donacc>
41

>  <a_heavy>
89

>  <a_hyd>
46

>  <a_IC>
277.09332

>  <a_ICM>
1.7318332

>  <a_nB>
0

>  <a_nBr>
0

>  <a_nC>
56

>  <a_nCl>
0

>  <a_nF>
0

>  <a_nH>
71

>  <a_nI>
0

>  <a_nN>
9

>  <a_nO>
23

>  <a_nP>
0

>  <a_nS>
1

>  <balabanJ>
1.1354564

>  <BCUT_PEOE_0>
-2.6463826

>  <BCUT_PEOE_1>
-0.5878374

>  <BCUT_PEOE_2>
0.70052135

>  <BCUT_PEOE_3>
2.8019378

>  <BCUT_SLOGP_0>
-2.8898189

>  <BCUT_SLOGP_1>
-0.59269536

>  <BCUT_SLOGP_2>
0.56204629

>  <BCUT_SLOGP_3>
2.6999099

>  <BCUT_SMR_0>
-2.4139087

>  <BCUT_SMR_1>
-0.40665564

>  <BCUT_SMR_2>
0.80458349

>  <BCUT_SMR_3>
3.0349157

>  <bpol>
104.1057

>  <b_1rotN>
18

>  <b_1rotR>
0.18947369

>  <b_ar>
23

>  <b_count>
166

>  <b_double>
8

>  <b_heavy>
95

>  <b_max1len>
6

>  <b_rotN>
19

>  <b_rotR>
0.2

>  <b_single>
135

>  <b_triple>
0

>  <chi0>
65.343109

>  <chi0v>
48.875519

>  <chi0v_C>
33.452419

>  <chi0_C>
36.324451

>  <chi1>
41.954433

>  <chi1v>
29.490536

>  <chi1v_C>
17.635277

>  <chi1_C>
20.843269

>  <chiral>
15

>  <chiral_u>
0

>  <density>
0.83009583

>  <diameter>
36

>  <FCharge>
0

>  <GCUT_PEOE_0>
-0.83282918

>  <GCUT_PEOE_1>
-0.42926472

>  <GCUT_PEOE_2>
0.10314327

>  <GCUT_PEOE_3>
3.366437

>  <GCUT_SLOGP_0>
-1.3704727

>  <GCUT_SLOGP_1>
-0.4396421

>  <GCUT_SLOGP_2>
0.054200001

>  <GCUT_SLOGP_3>
3.2494805

>  <GCUT_SMR_0>
-0.53245711

>  <GCUT_SMR_1>
-0.2429903

>  <GCUT_SMR_2>
0.19493432

>  <GCUT_SMR_3>
3.5915377

>  <Kier1>
76.367424

>  <Kier2>
34.975426

>  <Kier3>
20.774618

>  <KierA1>
61.478622

>  <KierA2>
28.08407

>  <KierA3>
16.65176

>  <KierFlex>
19.399662

>  <lip_acc>
32

>  <lip_don>
17

>  <lip_druglike>
0

>  <lip_violation>
3

>  <logP(o/w)>
-3.1170001

>  <logS>
-8.9914598

>  <mr>
30.860165

>  <mutagenic>
0

>  <nmol>
1

>  <opr_brigid>
52

>  <opr_leadlike>
0

>  <opr_nring>
6

>  <opr_nrot>
31

>  <opr_violation>
6

>  <PC+>
0

>  <PC->
0

>  <PEOE_PC+>
10.400926

>  <PEOE_PC->
-10.400926

>  <PEOE_RPC+>
0.026173698

>  <PEOE_RPC->
0.037492588

>  <PEOE_VSA+0>
165.03706

>  <PEOE_VSA+1>
196.60947

>  <PEOE_VSA+2>
50.614273

>  <PEOE_VSA+3>
78.187553

>  <PEOE_VSA+4>
183.56427

>  <PEOE_VSA+5>
29.462297

>  <PEOE_VSA+6>
0

>  <PEOE_VSA-0>
127.69676

>  <PEOE_VSA-1>
134.56448

>  <PEOE_VSA-2>
0

>  <PEOE_VSA-3>
4.945097

>  <PEOE_VSA-4>
10.208881

>  <PEOE_VSA-5>
108.53537

>  <PEOE_VSA-6>
85.649551

>  <PEOE_VSA_FHYD>
0.64477134

>  <PEOE_VSA_FNEG>
0.40133619

>  <PEOE_VSA_FPNEG>
0.17394106

>  <PEOE_VSA_FPOL>
0.35522869

>  <PEOE_VSA_FPOS>
0.59866381

>  <PEOE_VSA_FPPOS>
0.18128763

>  <PEOE_VSA_HYD>
757.65466

>  <PEOE_VSA_NEG>
471.60013

>  <PEOE_VSA_PNEG>
204.3938

>  <PEOE_VSA_POL>
417.42038

>  <PEOE_VSA_POS>
703.47491

>  <PEOE_VSA_PPOS>
213.02657

>  <petitjean>
0.5

>  <petitjeanSC>
1

>  <Q_PC+>
0

>  <Q_PC->
0

>  <Q_RPC+>
0

>  <Q_RPC->
0

>  <Q_VSA_FHYD>
1

>  <Q_VSA_FNEG>
0

>  <Q_VSA_FPNEG>
0

>  <Q_VSA_FPOL>
0

>  <Q_VSA_FPOS>
1

>  <Q_VSA_FPPOS>
0

>  <Q_VSA_HYD>
1175.0751

>  <Q_VSA_NEG>
0

>  <Q_VSA_PNEG>
0

>  <Q_VSA_POL>
0

>  <Q_VSA_POS>
1175.0751

>  <Q_VSA_PPOS>
0

>  <radius>
18

>  <reactive>
0

>  <rings>
7

>  <RPC+>
0

>  <RPC->
0

>  <rsynth>
1

>  <SlogP>
-4.3722

>  <SlogP_VSA0>
393.89404

>  <SlogP_VSA1>
116.08718

>  <SlogP_VSA2>
246.06607

>  <SlogP_VSA3>
57.805416

>  <SlogP_VSA4>
34.644161

>  <SlogP_VSA5>
9.7341213

>  <SlogP_VSA6>
0

>  <SlogP_VSA7>
226.29494

>  <SlogP_VSA8>
119.67908

>  <SlogP_VSA9>
115.70833

>  <SMR>
30.346121

>  <SMR_VSA0>
248.80354

>  <SMR_VSA1>
296.78833

>  <SMR_VSA2>
94.464546

>  <SMR_VSA3>
97.313614

>  <SMR_VSA4>
47.473907

>  <SMR_VSA5>
324.92865

>  <SMR_VSA6>
99.875687

>  <SMR_VSA7>
110.26508

>  <TPSA>
510.14001

>  <VAdjEq>
0.16327535

>  <VAdjMa>
7.5698557

>  <VDistEq>
4.7468247

>  <VDistMa>
12.677969

>  <vdw_area>
1175.0751

>  <vdw_vol>
1530.2931

>  <vsa_acc>
126.86948

>  <vsa_acid>
0

>  <vsa_base>
0

>  <vsa_don>
46.155369

>  <vsa_hyd>
577.96051

>  <vsa_other>
147.41942

>  <vsa_pol>
343.15192

>  <Weight>
1270.2899

>  <weinerPath>
47366

>  <weinerPol>
153

>  <zagreb>
466

$$$$