O=C1N(c2c(N(c3c1cccc3)C)cccc2)CCN(C)C
  MOE2013           2D

 22 24  0  0  1  0  0  0  0  0999 V2000
    0.0000    0.0000    0.0000 O   0  0  0  0  0  0  0  0  0  0  0  0
   -0.9450   -1.1650    0.0000 C   0  0  0  0  0  0  0  0  0  0  0  0
   -0.3070   -2.5220    0.0000 N   0  0  0  0  0  0  0  0  0  0  0  0
   -0.9700   -3.8680    0.0000 C   0  0  0  0  0  0  0  0  0  0  0  0
   -2.4350   -4.1890    0.0000 C   0  0  0  0  0  0  0  0  0  0  0  0
   -3.6000   -3.2450    0.0000 N   0  0  3  0  0  0  0  0  0  0  0  0
   -3.5860   -1.7440    0.0000 C   0  0  0  0  0  0  0  0  0  0  0  0
   -2.4050   -0.8190    0.0000 C   0  0  0  0  0  0  0  0  0  0  0  0
   -2.6160    0.6660    0.0000 C   0  0  0  0  0  0  0  0  0  0  0  0
   -4.0070    1.2260    0.0000 C   0  0  0  0  0  0  0  0  0  0  0  0
   -5.1880    0.3010    0.0000 C   0  0  0  0  0  0  0  0  0  0  0  0
   -4.9770   -1.1840    0.0000 C   0  0  0  0  0  0  0  0  0  0  0  0
   -4.9570   -3.8840    0.0000 C   0  0  0  0  0  0  0  0  0  0  0  0
   -2.8890   -5.6190    0.0000 C   0  0  0  0  0  0  0  0  0  0  0  0
   -1.8780   -6.7270    0.0000 C   0  0  0  0  0  0  0  0  0  0  0  0
   -0.4130   -6.4050    0.0000 C   0  0  0  0  0  0  0  0  0  0  0  0
    0.0410   -4.9760    0.0000 C   0  0  0  0  0  0  0  0  0  0  0  0
    1.1930   -2.5360    0.0000 C   0  0  0  0  0  0  0  0  0  0  0  0
    1.9540   -1.2430    0.0000 C   0  0  0  0  0  0  0  0  0  0  0  0
    3.4540   -1.2570    0.0000 N   0  0  0  0  0  0  0  0  0  0  0  0
    4.1930   -2.5630    0.0000 C   0  0  0  0  0  0  0  0  0  0  0  0
    4.2160    0.0350    0.0000 C   0  0  0  0  0  0  0  0  0  0  0  0
  1  2  2  0  0  0  0
  2  3  1  0  0  0  0
  2  8  1  0  0  0  0
  3  4  1  0  0  0  0
  3 18  1  0  0  0  0
  4  5  1  0  0  0  0
  4 17  2  0  0  0  0
  5  6  1  0  0  0  0
  5 14  2  0  0  0  0
  6  7  1  0  0  0  0
  6 13  1  0  0  0  0
  7  8  1  0  0  0  0
  7 12  2  0  0  0  0
  8  9  2  0  0  0  0
  9 10  1  0  0  0  0
 10 11  2  0  0  0  0
 11 12  1  0  0  0  0
 14 15  1  0  0  0  0
 15 16  2  0  0  0  0
 16 17  1  0  0  0  0
 18 19  1  0  0  0  0
 19 20  1  0  0  0  0
 20 21  1  0  0  0  0
 20 22  1  0  0  0  0
M  END
>  <Index>
1523

>  <ID>
HT0639

>  <class>
1

>  <apol>
49.784653

>  <ast_fraglike>
1

>  <ast_fraglike_ext>
1

>  <ast_violation>
0

>  <ast_violation_ext>
0

>  <a_acc>
2

>  <a_acid>
0

>  <a_aro>
12

>  <a_base>
0

>  <a_count>
43

>  <a_don>
0

>  <a_donacc>
2

>  <a_heavy>
22

>  <a_hyd>
17

>  <a_IC>
61.27718

>  <a_ICM>
1.4250507

>  <a_nB>
0

>  <a_nBr>
0

>  <a_nC>
18

>  <a_nCl>
0

>  <a_nF>
0

>  <a_nH>
21

>  <a_nI>
0

>  <a_nN>
3

>  <a_nO>
1

>  <a_nP>
0

>  <a_nS>
0

>  <balabanJ>
1.8584167

>  <BCUT_PEOE_0>
-2.6223013

>  <BCUT_PEOE_1>
-0.52776897

>  <BCUT_PEOE_2>
0.58207518

>  <BCUT_PEOE_3>
2.53743

>  <BCUT_SLOGP_0>
-2.7375565

>  <BCUT_SLOGP_1>
-0.42615247

>  <BCUT_SLOGP_2>
0.69331008

>  <BCUT_SLOGP_3>
2.5300741

>  <BCUT_SMR_0>
-2.3316779

>  <BCUT_SMR_1>
-0.40015164

>  <BCUT_SMR_2>
0.72449917

>  <BCUT_SMR_3>
2.8401918

>  <bpol>
29.855347

>  <b_1rotN>
3

>  <b_1rotR>
0.125

>  <b_ar>
12

>  <b_count>
45

>  <b_double>
1

>  <b_heavy>
24

>  <b_max1len>
5

>  <b_rotN>
3

>  <b_rotR>
0.125

>  <b_single>
32

>  <b_triple>
0

>  <chi0>
15.68987

>  <chi0v>
13.282905

>  <chi0v_C>
11.533015

>  <chi0_C>
12.957819

>  <chi1>
10.592224

>  <chi1v>
7.4773483

>  <chi1v_C>
4.4047008

>  <chi1_C>
6.1329932

>  <chiral>
0

>  <chiral_u>
0

>  <density>
0.68469852

>  <diameter>
9

>  <FCharge>
0

>  <GCUT_PEOE_0>
-0.86001527

>  <GCUT_PEOE_1>
-0.33912373

>  <GCUT_PEOE_2>
0.04327853

>  <GCUT_PEOE_3>
2.7031667

>  <GCUT_SLOGP_0>
-0.99531674

>  <GCUT_SLOGP_1>
-0.31388727

>  <GCUT_SLOGP_2>
0.14122869

>  <GCUT_SLOGP_3>
2.7885585

>  <GCUT_SMR_0>
-0.51527131

>  <GCUT_SMR_1>
-0.18218581

>  <GCUT_SMR_2>
0.15963611

>  <GCUT_SMR_3>
3.0067611

>  <Kier1>
16.84375

>  <Kier2>
7.2664361

>  <Kier3>
3.4404707

>  <KierA1>
12.1495

>  <KierA2>
5.1527615

>  <KierA3>
2.4096477

>  <KierFlex>
2.8456123

>  <lip_acc>
4

>  <lip_don>
0

>  <lip_druglike>
1

>  <lip_violation>
0

>  <logP(o/w)>
2.6760001

>  <logS>
-3.2525401

>  <mr>
8.8172331

>  <mutagenic>
0

>  <nmol>
1

>  <opr_brigid>
17

>  <opr_leadlike>
1

>  <opr_nring>
3

>  <opr_nrot>
3

>  <opr_violation>
0

>  <PC+>
0

>  <PC->
0

>  <PEOE_PC+>
1.5624411

>  <PEOE_PC->
-1.5624411

>  <PEOE_RPC+>
0.16672555

>  <PEOE_RPC->
0.19627112

>  <PEOE_VSA+0>
86.702995

>  <PEOE_VSA+1>
51.561951

>  <PEOE_VSA+2>
0

>  <PEOE_VSA+3>
0

>  <PEOE_VSA+4>
0

>  <PEOE_VSA+5>
12.949531

>  <PEOE_VSA+6>
0

>  <PEOE_VSA-0>
118.73568

>  <PEOE_VSA-1>
49.019615

>  <PEOE_VSA-2>
0

>  <PEOE_VSA-3>
0

>  <PEOE_VSA-4>
0

>  <PEOE_VSA-5>
13.566921

>  <PEOE_VSA-6>
0

>  <PEOE_VSA_FHYD>
0.92026007

>  <PEOE_VSA_FNEG>
0.54526979

>  <PEOE_VSA_FPNEG>
0.040798265

>  <PEOE_VSA_FPOL>
0.079739928

>  <PEOE_VSA_FPOS>
0.45473021

>  <PEOE_VSA_FPPOS>
0.038941659

>  <PEOE_VSA_HYD>
306.02023

>  <PEOE_VSA_NEG>
181.32222

>  <PEOE_VSA_PNEG>
13.566921

>  <PEOE_VSA_POL>
26.516451

>  <PEOE_VSA_POS>
151.21448

>  <PEOE_VSA_PPOS>
12.949531

>  <petitjean>
0.44444445

>  <petitjeanSC>
0.80000001

>  <Q_PC+>
0

>  <Q_PC->
0

>  <Q_RPC+>
0

>  <Q_RPC->
0

>  <Q_VSA_FHYD>
1

>  <Q_VSA_FNEG>
0

>  <Q_VSA_FPNEG>
0

>  <Q_VSA_FPOL>
0

>  <Q_VSA_FPOS>
1

>  <Q_VSA_FPPOS>
0

>  <Q_VSA_HYD>
332.53671

>  <Q_VSA_NEG>
0

>  <Q_VSA_PNEG>
0

>  <Q_VSA_POL>
0

>  <Q_VSA_POS>
332.53671

>  <Q_VSA_PPOS>
0

>  <radius>
5

>  <reactive>
0

>  <rings>
3

>  <RPC+>
0

>  <RPC->
0

>  <rsynth>
1

>  <SlogP>
2.9763

>  <SlogP_VSA0>
6.2486277

>  <SlogP_VSA1>
8.3830976

>  <SlogP_VSA2>
0

>  <SlogP_VSA3>
36.879158

>  <SlogP_VSA4>
27.047791

>  <SlogP_VSA5>
98.691559

>  <SlogP_VSA6>
0

>  <SlogP_VSA7>
141.14548

>  <SlogP_VSA8>
0

>  <SlogP_VSA9>
8.2702427

>  <SMR>
9.1177502

>  <SMR_VSA0>
23.862217

>  <SMR_VSA1>
3.1243138

>  <SMR_VSA2>
6.2486277

>  <SMR_VSA3>
3.185575

>  <SMR_VSA4>
8.2702427

>  <SMR_VSA5>
141.14548

>  <SMR_VSA6>
42.137939

>  <SMR_VSA7>
98.691559

>  <TPSA>
26.790001

>  <VAdjEq>
0.46637034

>  <VAdjMa>
5.5849624

>  <VDistEq>
2.9329231

>  <VDistMa>
8.6725864

>  <vdw_area>
332.53671

>  <vdw_vol>
431.41031

>  <vsa_acc>
13.566921

>  <vsa_acid>
0

>  <vsa_base>
0

>  <vsa_don>
0

>  <vsa_hyd>
291.07254

>  <vsa_other>
12.949531

>  <vsa_pol>
13.566921

>  <Weight>
295.38599

>  <weinerPath>
931

>  <weinerPol>
41

>  <zagreb>
116

$$$$