S1SC[C@H](NC(=O)[C@@H](NC(=O)[C@@H](NC(=O)[C@H](NC(=O)[C@@H](NC(=O)[C@@H](NC(=O)[C@H](N)Cc2ccccc2)C1)Cc1ccccc1)Cc1c2c([nH]c1)cccc2)CCCCN)[C@H](O)C)C(=O)N[C@@H]([C@H](O)C)CO
  MOE2013           2D

 71 75  0  0  1  0  0  0  0  0999 V2000
    0.0000    0.0000    0.0000 S   0  0  0  0  0  0  0  0  0  0  0  0
   -0.7560    1.2780    0.0000 S   0  0  0  0  0  0  0  0  0  0  0  0
   -0.0310    2.5870    0.0000 C   0  0  0  0  0  0  0  0  0  0  0  0
   -0.6490    3.8860    0.0000 C   0  0  2  0  0  0  0  0  0  0  0  0
   -2.1160    4.1540    0.0000 N   0  0  0  0  0  0  0  0  0  0  0  0
   -2.6070    5.5790    0.0000 C   0  0  0  0  0  0  0  0  0  0  0  0
   -1.6060    6.6960    0.0000 O   0  0  0  0  0  0  0  0  0  0  0  0
   -4.0440    5.9050    0.0000 C   0  0  1  0  0  0  0  0  0  0  0  0
   -5.1040    4.8490    0.0000 N   0  0  0  0  0  0  0  0  0  0  0  0
   -6.5540    5.2450    0.0000 C   0  0  0  0  0  0  0  0  0  0  0  0
   -6.9230    6.6990    0.0000 O   0  0  0  0  0  0  0  0  0  0  0  0
   -7.6260    4.2160    0.0000 C   0  0  1  0  0  0  0  0  0  0  0  0
   -7.2900    2.7500    0.0000 N   0  0  0  0  0  0  0  0  0  0  0  0
   -8.3820    1.7340    0.0000 C   0  0  0  0  0  0  0  0  0  0  0  0
   -9.8010    2.2200    0.0000 O   0  0  0  0  0  0  0  0  0  0  0  0
   -8.1450    0.2890    0.0000 C   0  0  2  0  0  0  0  0  0  0  0  0
   -6.7640   -0.3080    0.0000 N   0  0  0  0  0  0  0  0  0  0  0  0
   -6.5930   -1.7810    0.0000 C   0  0  0  0  0  0  0  0  0  0  0  0
   -7.8860   -2.5420    0.0000 O   0  0  0  0  0  0  0  0  0  0  0  0
   -5.4780   -2.5820    0.0000 C   0  0  1  0  0  0  0  0  0  0  0  0
   -4.1200   -2.6600    0.0000 N   0  0  0  0  0  0  0  0  0  0  0  0
   -3.0320   -1.6510    0.0000 C   0  0  0  0  0  0  0  0  0  0  0  0
   -3.3750   -0.1910    0.0000 O   0  0  0  0  0  0  0  0  0  0  0  0
   -1.6020   -2.0720    0.0000 C   0  0  1  0  0  0  0  0  0  0  0  0
   -1.3850   -3.5560    0.0000 N   0  0  0  0  0  0  0  0  0  0  0  0
    0.0090   -4.1100    0.0000 C   0  0  0  0  0  0  0  0  0  0  0  0
    0.2260   -5.5940    0.0000 O   0  0  0  0  0  0  0  0  0  0  0  0
    1.1860   -3.1800    0.0000 C   0  0  2  0  0  0  0  0  0  0  0  0
    0.9690   -1.6960    0.0000 N   0  0  0  0  0  0  0  0  0  0  0  0
    2.5800   -3.7340    0.0000 C   0  0  0  0  0  0  0  0  0  0  0  0
    3.7570   -2.8040    0.0000 C   0  0  0  0  0  0  0  0  0  0  0  0
    3.5400   -1.3200    0.0000 C   0  0  0  0  0  0  0  0  0  0  0  0
    4.7170   -0.3900    0.0000 C   0  0  0  0  0  0  0  0  0  0  0  0
    6.1100   -0.9440    0.0000 C   0  0  0  0  0  0  0  0  0  0  0  0
    6.3280   -2.4280    0.0000 C   0  0  0  0  0  0  0  0  0  0  0  0
    5.1510   -3.3580    0.0000 C   0  0  0  0  0  0  0  0  0  0  0  0
   -0.4400   -1.3170    0.0000 C   0  0  0  0  0  0  0  0  0  0  0  0
   -5.9780   -3.9960    0.0000 C   0  0  0  0  0  0  0  0  0  0  0  0
   -5.0030   -5.1360    0.0000 C   0  0  0  0  0  0  0  0  0  0  0  0
   -3.5280   -4.8620    0.0000 C   0  0  0  0  0  0  0  0  0  0  0  0
   -2.5540   -6.0020    0.0000 C   0  0  0  0  0  0  0  0  0  0  0  0
   -3.0540   -7.4170    0.0000 C   0  0  0  0  0  0  0  0  0  0  0  0
   -4.5290   -7.6910    0.0000 C   0  0  0  0  0  0  0  0  0  0  0  0
   -5.5030   -6.5500    0.0000 C   0  0  0  0  0  0  0  0  0  0  0  0
   -9.3270   -0.6330    0.0000 C   0  0  0  0  0  0  0  0  0  0  0  0
  -10.7180   -0.0710    0.0000 C   0  0  0  0  0  0  0  0  0  0  0  0
  -11.9900   -0.8650    0.0000 C   0  0  0  0  0  0  0  0  0  0  0  0
  -13.1390    0.1000    0.0000 C   0  0  0  0  0  0  0  0  0  0  0  0
  -12.5760    1.4900    0.0000 N   0  0  0  0  0  0  0  0  0  0  0  0
  -11.0800    1.3850    0.0000 C   0  0  0  0  0  0  0  0  0  0  0  0
  -14.5490   -0.4130    0.0000 C   0  0  0  0  0  0  0  0  0  0  0  0
  -14.8100   -1.8900    0.0000 C   0  0  0  0  0  0  0  0  0  0  0  0
  -13.6610   -2.8540    0.0000 C   0  0  0  0  0  0  0  0  0  0  0  0
  -12.2520   -2.3420    0.0000 C   0  0  0  0  0  0  0  0  0  0  0  0
   -9.0630    4.6450    0.0000 C   0  0  0  0  0  0  0  0  0  0  0  0
   -9.4100    6.1040    0.0000 C   0  0  0  0  0  0  0  0  0  0  0  0
  -10.8480    6.5330    0.0000 C   0  0  0  0  0  0  0  0  0  0  0  0
  -11.1940    7.9930    0.0000 C   0  0  0  0  0  0  0  0  0  0  0  0
  -12.6320    8.4220    0.0000 N   0  0  0  0  0  0  0  0  0  0  0  0
   -4.4590    7.3470    0.0000 C   0  0  2  0  0  0  0  0  0  0  0  0
   -3.4190    8.4270    0.0000 O   0  0  0  0  0  0  0  0  0  0  0  0
   -5.9150    7.7080    0.0000 C   0  0  0  0  0  0  0  0  0  0  0  0
    0.2640    5.0760    0.0000 C   0  0  0  0  0  0  0  0  0  0  0  0
    1.7510    4.8810    0.0000 O   0  0  0  0  0  0  0  0  0  0  0  0
   -0.3100    6.4620    0.0000 N   0  0  0  0  0  0  0  0  0  0  0  0
    0.6020    7.6520    0.0000 C   0  0  1  0  0  0  0  0  0  0  0  0
    0.0280    9.0380    0.0000 C   0  0  2  0  0  0  0  0  0  0  0  0
   -1.4590    9.2330    0.0000 O   0  0  0  0  0  0  0  0  0  0  0  0
    0.9410   10.2280    0.0000 C   0  0  0  0  0  0  0  0  0  0  0  0
    2.0900    7.4570    0.0000 C   0  0  0  0  0  0  0  0  0  0  0  0
    3.0020    8.6470    0.0000 O   0  0  0  0  0  0  0  0  0  0  0  0
  1  2  1  0  0  0  0
  1 37  1  0  0  0  0
  2  3  1  0  0  0  0
  3  4  1  0  0  0  0
  4  5  1  0  0  0  0
  4 63  1  6  0  0  0
  5  6  1  0  0  0  0
  6  7  2  0  0  0  0
  8  6  1  1  0  0  0
  8  9  1  0  0  0  0
  8 60  1  0  0  0  0
  9 10  1  0  0  0  0
 10 11  2  0  0  0  0
 10 12  1  0  0  0  0
 12 13  1  0  0  0  0
 12 55  1  1  0  0  0
 13 14  1  0  0  0  0
 14 15  2  0  0  0  0
 14 16  1  0  0  0  0
 16 17  1  0  0  0  0
 16 45  1  6  0  0  0
 17 18  1  0  0  0  0
 18 19  2  0  0  0  0
 18 20  1  0  0  0  0
 20 21  1  0  0  0  0
 20 38  1  1  0  0  0
 21 22  1  0  0  0  0
 22 23  2  0  0  0  0
 22 24  1  0  0  0  0
 24 25  1  6  0  0  0
 24 37  1  0  0  0  0
 25 26  1  0  0  0  0
 26 27  2  0  0  0  0
 26 28  1  0  0  0  0
 28 29  1  6  0  0  0
 28 30  1  0  0  0  0
 30 31  1  0  0  0  0
 31 32  1  0  0  0  0
 31 36  2  0  0  0  0
 32 33  2  0  0  0  0
 33 34  1  0  0  0  0
 34 35  2  0  0  0  0
 35 36  1  0  0  0  0
 38 39  1  0  0  0  0
 39 40  1  0  0  0  0
 39 44  2  0  0  0  0
 40 41  2  0  0  0  0
 41 42  1  0  0  0  0
 42 43  2  0  0  0  0
 43 44  1  0  0  0  0
 45 46  1  0  0  0  0
 46 47  1  0  0  0  0
 46 50  2  0  0  0  0
 47 48  2  0  0  0  0
 47 54  1  0  0  0  0
 48 49  1  0  0  0  0
 48 51  1  0  0  0  0
 49 50  1  0  0  0  0
 51 52  2  0  0  0  0
 52 53  1  0  0  0  0
 53 54  2  0  0  0  0
 55 56  1  0  0  0  0
 56 57  1  0  0  0  0
 57 58  1  0  0  0  0
 58 59  1  0  0  0  0
 60 61  1  1  0  0  0
 60 62  1  0  0  0  0
 63 64  2  0  0  0  0
 63 65  1  0  0  0  0
 66 65  1  1  0  0  0
 66 67  1  0  0  0  0
 66 70  1  0  0  0  0
 67 68  1  0  0  0  0
 67 69  1  6  0  0  0
 70 71  1  0  0  0  0
M  END
>  <Index>
1674

>  <ID>
HT1533

>  <class>
1

>  <apol>
155.06834

>  <ast_fraglike>
0

>  <ast_fraglike_ext>
0

>  <ast_violation>
3

>  <ast_violation_ext>
5

>  <a_acc>
12

>  <a_acid>
0

>  <a_aro>
21

>  <a_base>
0

>  <a_count>
137

>  <a_don>
13

>  <a_donacc>
25

>  <a_heavy>
71

>  <a_hyd>
44

>  <a_IC>
229.94104

>  <a_ICM>
1.6784017

>  <a_nB>
0

>  <a_nBr>
0

>  <a_nC>
49

>  <a_nCl>
0

>  <a_nF>
0

>  <a_nH>
66

>  <a_nI>
0

>  <a_nN>
10

>  <a_nO>
10

>  <a_nP>
0

>  <a_nS>
2

>  <balabanJ>
1.5024607

>  <BCUT_PEOE_0>
-2.6711318

>  <BCUT_PEOE_1>
-0.57452506

>  <BCUT_PEOE_2>
0.60494822

>  <BCUT_PEOE_3>
2.6786795

>  <BCUT_SLOGP_0>
-2.8985088

>  <BCUT_SLOGP_1>
-0.52964425

>  <BCUT_SLOGP_2>
0.6692701

>  <BCUT_SLOGP_3>
2.6697476

>  <BCUT_SMR_0>
-2.418658

>  <BCUT_SMR_1>
-0.40568548

>  <BCUT_SMR_2>
0.75815302

>  <BCUT_SMR_3>
2.9342959

>  <bpol>
85.097664

>  <b_1rotN>
17

>  <b_1rotR>
0.22666667

>  <b_ar>
22

>  <b_count>
141

>  <b_double>
7

>  <b_heavy>
75

>  <b_max1len>
7

>  <b_rotN>
19

>  <b_rotR>
0.25333333

>  <b_single>
112

>  <b_triple>
0

>  <chi0>
51.450443

>  <chi0v>
41.308395

>  <chi0v_C>
29.504824

>  <chi0_C>
32.379375

>  <chi1>
34.073029

>  <chi1v>
25.992413

>  <chi1v_C>
15.447884

>  <chi1_C>
18.761589

>  <chiral>
10

>  <chiral_u>
0

>  <density>
0.77189946

>  <diameter>
22

>  <FCharge>
0

>  <GCUT_PEOE_0>
-0.86279202

>  <GCUT_PEOE_1>
-0.39001167

>  <GCUT_PEOE_2>
0.076360062

>  <GCUT_PEOE_3>
3.2362394

>  <GCUT_SLOGP_0>
-1.3636525

>  <GCUT_SLOGP_1>
-0.40343481

>  <GCUT_SLOGP_2>
0.13822752

>  <GCUT_SLOGP_3>
3.1614659

>  <GCUT_SMR_0>
-0.52864462

>  <GCUT_SMR_1>
-0.22258842

>  <GCUT_SMR_2>
0.19129492

>  <GCUT_SMR_3>
3.4894323

>  <Kier1>
61.848888

>  <Kier2>
32.670326

>  <Kier3>
20.388006

>  <KierA1>
49.436871

>  <KierA2>
26.026442

>  <KierA3>
16.20409

>  <KierFlex>
18.122055

>  <lip_acc>
20

>  <lip_don>
15

>  <lip_druglike>
0

>  <lip_violation>
3

>  <logP(o/w)>
0.63099998

>  <logS>
-8.8558903

>  <mr>
27.387518

>  <mutagenic>
0

>  <nmol>
1

>  <opr_brigid>
42

>  <opr_leadlike>
0

>  <opr_nring>
4

>  <opr_nrot>
32

>  <opr_violation>
4

>  <PC+>
0

>  <PC->
0

>  <PEOE_PC+>
7.7834582

>  <PEOE_PC->
-7.7834582

>  <PEOE_RPC+>
0.031675238

>  <PEOE_RPC->
0.050478779

>  <PEOE_VSA+0>
166.78064

>  <PEOE_VSA+1>
146.21849

>  <PEOE_VSA+2>
53.351814

>  <PEOE_VSA+3>
68.952103

>  <PEOE_VSA+4>
121.61923

>  <PEOE_VSA+5>
0

>  <PEOE_VSA+6>
0

>  <PEOE_VSA-0>
104.37346

>  <PEOE_VSA-1>
202.78711

>  <PEOE_VSA-2>
0

>  <PEOE_VSA-3>
0

>  <PEOE_VSA-4>
0

>  <PEOE_VSA-5>
94.968445

>  <PEOE_VSA-6>
37.699989

>  <PEOE_VSA_FHYD>
0.74488354

>  <PEOE_VSA_FNEG>
0.44126254

>  <PEOE_VSA_FPNEG>
0.13310084

>  <PEOE_VSA_FPOL>
0.25511646

>  <PEOE_VSA_FPOS>
0.55873746

>  <PEOE_VSA_FPPOS>
0.12201563

>  <PEOE_VSA_HYD>
742.46362

>  <PEOE_VSA_NEG>
439.82901

>  <PEOE_VSA_PNEG>
132.66843

>  <PEOE_VSA_POL>
254.28767

>  <PEOE_VSA_POS>
556.9223

>  <PEOE_VSA_PPOS>
121.61923

>  <petitjean>
0.45454547

>  <petitjeanSC>
0.83333331

>  <Q_PC+>
0

>  <Q_PC->
0

>  <Q_RPC+>
0

>  <Q_RPC->
0

>  <Q_VSA_FHYD>
1

>  <Q_VSA_FNEG>
0

>  <Q_VSA_FPNEG>
0

>  <Q_VSA_FPOL>
0

>  <Q_VSA_FPOS>
1

>  <Q_VSA_FPPOS>
0

>  <Q_VSA_HYD>
996.75128

>  <Q_VSA_NEG>
0

>  <Q_VSA_PNEG>
0

>  <Q_VSA_POL>
0

>  <Q_VSA_POS>
996.75128

>  <Q_VSA_PPOS>
0

>  <radius>
12

>  <reactive>
1

>  <rings>
5

>  <RPC+>
0

>  <RPC->
0

>  <rsynth>
1

>  <SlogP>
-0.80549002

>  <SlogP_VSA0>
268.0253

>  <SlogP_VSA1>
36.811485

>  <SlogP_VSA2>
228.61409

>  <SlogP_VSA3>
73.832962

>  <SlogP_VSA4>
9.5567245

>  <SlogP_VSA5>
56.605217

>  <SlogP_VSA6>
0

>  <SlogP_VSA7>
268.93604

>  <SlogP_VSA8>
56.605217

>  <SlogP_VSA9>
127.01553

>  <SMR>
27.20558

>  <SMR_VSA0>
167.03551

>  <SMR_VSA1>
76.155678

>  <SMR_VSA2>
142.86078

>  <SMR_VSA3>
54.349773

>  <SMR_VSA4>
70.511475

>  <SMR_VSA5>
377.42938

>  <SMR_VSA6>
110.64445

>  <SMR_VSA7>
127.01553

>  <TPSA>
332.22

>  <VAdjEq>
0.19316673

>  <VAdjMa>
7.2288189

>  <VDistEq>
4.1355429

>  <VDistMa>
12.099571

>  <vdw_area>
996.75128

>  <vdw_vol>
1320.4557

>  <vsa_acc>
94.968445

>  <vsa_acid>
0

>  <vsa_base>
0

>  <vsa_don>
45.460609

>  <vsa_hyd>
602.73389

>  <vsa_other>
90.646713

>  <vsa_pol>
216.61479

>  <Weight>
1019.259

>  <weinerPath>
23347

>  <weinerPol>
112

>  <zagreb>
352

$$$$