Clc1cc(Cl)ccc1[C@@]1(O[C@H](CO1)COc1ccc(N2CCN(CC2)c2ccc(N3C=NN(C(CC)C)C3=O)cc2)cc1)Cn1ncnc1
  MOE2013           2D

 49 55  0  0  1  0  0  0  0  0999 V2000
    0.0000    0.0000    0.0000 Cl  0  0  0  0  0  0  0  0  0  0  0  0
   -1.5000    0.0090    0.0000 C   0  0  0  0  0  0  0  0  0  0  0  0
   -2.2420    1.3120    0.0000 C   0  0  0  0  0  0  0  0  0  0  0  0
   -3.7420    1.3210    0.0000 C   0  0  0  0  0  0  0  0  0  0  0  0
   -4.4840    2.6250    0.0000 Cl  0  0  0  0  0  0  0  0  0  0  0  0
   -4.5000    0.0270    0.0000 C   0  0  0  0  0  0  0  0  0  0  0  0
   -3.7580   -1.2770    0.0000 C   0  0  0  0  0  0  0  0  0  0  0  0
   -2.2580   -1.2860    0.0000 C   0  0  0  0  0  0  0  0  0  0  0  0
   -1.5160   -2.5890    0.0000 C   0  0  2  0  0  0  0  0  0  0  0  0
   -0.1310   -2.0110    0.0000 O   0  0  0  0  0  0  0  0  0  0  0  0
    0.8460   -3.1490    0.0000 C   0  0  2  0  0  0  0  0  0  0  0  0
    0.0660   -4.4300    0.0000 C   0  0  0  0  0  0  0  0  0  0  0  0
   -1.3940   -4.0840    0.0000 O   0  0  0  0  0  0  0  0  0  0  0  0
    2.3410   -3.0270    0.0000 C   0  0  0  0  0  0  0  0  0  0  0  0
    3.1940   -4.2610    0.0000 O   0  0  0  0  0  0  0  0  0  0  0  0
    4.6890   -4.1390    0.0000 C   0  0  0  0  0  0  0  0  0  0  0  0
    5.5420   -5.3730    0.0000 C   0  0  0  0  0  0  0  0  0  0  0  0
    7.0370   -5.2510    0.0000 C   0  0  0  0  0  0  0  0  0  0  0  0
    7.6790   -3.8960    0.0000 C   0  0  0  0  0  0  0  0  0  0  0  0
    9.1740   -3.7740    0.0000 N   0  0  0  0  0  0  0  0  0  0  0  0
    9.8160   -2.4180    0.0000 C   0  0  0  0  0  0  0  0  0  0  0  0
   11.3110   -2.2970    0.0000 C   0  0  0  0  0  0  0  0  0  0  0  0
   12.1640   -3.5300    0.0000 N   0  0  0  0  0  0  0  0  0  0  0  0
   11.5220   -4.8860    0.0000 C   0  0  0  0  0  0  0  0  0  0  0  0
   10.0270   -5.0080    0.0000 C   0  0  0  0  0  0  0  0  0  0  0  0
   13.6590   -3.4090    0.0000 C   0  0  0  0  0  0  0  0  0  0  0  0
   14.5120   -4.6430    0.0000 C   0  0  0  0  0  0  0  0  0  0  0  0
   16.0070   -4.5210    0.0000 C   0  0  0  0  0  0  0  0  0  0  0  0
   16.6490   -3.1650    0.0000 C   0  0  0  0  0  0  0  0  0  0  0  0
   18.1450   -3.0430    0.0000 N   0  0  0  0  0  0  0  0  0  0  0  0
   18.9250   -1.7620    0.0000 C   0  0  0  0  0  0  0  0  0  0  0  0
   20.3840   -2.1080    0.0000 N   0  0  0  0  0  0  0  0  0  0  0  0
   20.5060   -3.6030    0.0000 N   0  0  0  0  0  0  0  0  0  0  0  0
   21.7870   -4.3840    0.0000 C   0  0  3  0  0  0  0  0  0  0  0  0
   23.1030   -3.6640    0.0000 C   0  0  0  0  0  0  0  0  0  0  0  0
   24.3850   -4.4450    0.0000 C   0  0  0  0  0  0  0  0  0  0  0  0
   21.7520   -5.8830    0.0000 C   0  0  0  0  0  0  0  0  0  0  0  0
   19.1220   -4.1810    0.0000 C   0  0  0  0  0  0  0  0  0  0  0  0
   18.7760   -5.6410    0.0000 O   0  0  0  0  0  0  0  0  0  0  0  0
   15.7960   -1.9310    0.0000 C   0  0  0  0  0  0  0  0  0  0  0  0
   14.3010   -2.0530    0.0000 C   0  0  0  0  0  0  0  0  0  0  0  0
    6.8260   -2.6620    0.0000 C   0  0  0  0  0  0  0  0  0  0  0  0
    5.3310   -2.7840    0.0000 C   0  0  0  0  0  0  0  0  0  0  0  0
   -3.0150   -2.6320    0.0000 C   0  0  0  0  0  0  0  0  0  0  0  0
   -3.7270   -3.9530    0.0000 N   0  0  0  0  0  0  0  0  0  0  0  0
   -3.0780   -5.3050    0.0000 N   0  0  0  0  0  0  0  0  0  0  0  0
   -4.1630   -6.3400    0.0000 C   0  0  0  0  0  0  0  0  0  0  0  0
   -5.4830   -5.6280    0.0000 N   0  0  0  0  0  0  0  0  0  0  0  0
   -5.2140   -4.1520    0.0000 C   0  0  0  0  0  0  0  0  0  0  0  0
  1  2  1  0  0  0  0
  2  3  2  0  0  0  0
  2  8  1  0  0  0  0
  3  4  1  0  0  0  0
  4  5  1  0  0  0  0
  4  6  2  0  0  0  0
  6  7  1  0  0  0  0
  7  8  2  0  0  0  0
  9  8  1  6  0  0  0
  9 10  1  0  0  0  0
  9 13  1  0  0  0  0
  9 44  1  1  0  0  0
 10 11  1  0  0  0  0
 11 12  1  0  0  0  0
 11 14  1  1  0  0  0
 12 13  1  0  0  0  0
 14 15  1  0  0  0  0
 15 16  1  0  0  0  0
 16 17  1  0  0  0  0
 16 43  2  0  0  0  0
 17 18  2  0  0  0  0
 18 19  1  0  0  0  0
 19 20  1  0  0  0  0
 19 42  2  0  0  0  0
 20 21  1  0  0  0  0
 20 25  1  0  0  0  0
 21 22  1  0  0  0  0
 22 23  1  0  0  0  0
 23 24  1  0  0  0  0
 23 26  1  0  0  0  0
 24 25  1  0  0  0  0
 26 27  1  0  0  0  0
 26 41  2  0  0  0  0
 27 28  2  0  0  0  0
 28 29  1  0  0  0  0
 29 30  1  0  0  0  0
 29 40  2  0  0  0  0
 30 31  1  0  0  0  0
 30 38  1  0  0  0  0
 31 32  2  0  0  0  0
 32 33  1  0  0  0  0
 33 34  1  0  0  0  0
 33 38  1  0  0  0  0
 34 35  1  0  0  0  0
 34 37  1  0  0  0  0
 35 36  1  0  0  0  0
 38 39  2  0  0  0  0
 40 41  1  0  0  0  0
 42 43  1  0  0  0  0
 44 45  1  0  0  0  0
 45 46  1  0  0  0  0
 45 49  1  0  0  0  0
 46 47  2  0  0  0  0
 47 48  1  0  0  0  0
 48 49  2  0  0  0  0
M  END
>  <Index>
1611

>  <ID>
HT1147

>  <class>
1

>  <apol>
103.30614

>  <ast_fraglike>
0

>  <ast_fraglike_ext>
0

>  <ast_violation>
3

>  <ast_violation_ext>
4

>  <a_acc>
7

>  <a_acid>
0

>  <a_aro>
23

>  <a_base>
0

>  <a_count>
87

>  <a_don>
0

>  <a_donacc>
7

>  <a_heavy>
49

>  <a_hyd>
32

>  <a_IC>
147.58994

>  <a_ICM>
1.696436

>  <a_nB>
0

>  <a_nBr>
0

>  <a_nC>
35

>  <a_nCl>
2

>  <a_nF>
0

>  <a_nH>
38

>  <a_nI>
0

>  <a_nN>
8

>  <a_nO>
4

>  <a_nP>
0

>  <a_nS>
0

>  <balabanJ>
0.80673105

>  <BCUT_PEOE_0>
-2.7235858

>  <BCUT_PEOE_1>
-0.58645993

>  <BCUT_PEOE_2>
0.59113777

>  <BCUT_PEOE_3>
2.7002428

>  <BCUT_SLOGP_0>
-2.8536105

>  <BCUT_SLOGP_1>
-0.45912588

>  <BCUT_SLOGP_2>
0.80591482

>  <BCUT_SLOGP_3>
2.6955874

>  <BCUT_SMR_0>
-2.4148068

>  <BCUT_SMR_1>
-0.34604669

>  <BCUT_SMR_2>
0.85431087

>  <BCUT_SMR_3>
2.9360981

>  <bpol>
60.307865

>  <b_1rotN>
11

>  <b_1rotR>
0.2

>  <b_ar>
23

>  <b_count>
93

>  <b_double>
2

>  <b_heavy>
55

>  <b_max1len>
5

>  <b_rotN>
11

>  <b_rotR>
0.2

>  <b_single>
68

>  <b_triple>
0

>  <chi0>
33.959244

>  <chi0v>
28.872948

>  <chi0v_C>
21.394459

>  <chi0_C>
23.829851

>  <chi1>
23.813633

>  <chi1v>
17.16353

>  <chi1v_C>
9.4935236

>  <chi1_C>
11.883743

>  <chiral>
3

>  <chiral_u>
1

>  <density>
0.78418261

>  <diameter>
27

>  <FCharge>
0

>  <GCUT_PEOE_0>
-0.83613062

>  <GCUT_PEOE_1>
-0.39788041

>  <GCUT_PEOE_2>
0.029817786

>  <GCUT_PEOE_3>
2.8769913

>  <GCUT_SLOGP_0>
-1.0168697

>  <GCUT_SLOGP_1>
-0.31104359

>  <GCUT_SLOGP_2>
0.16445385

>  <GCUT_SLOGP_3>
2.9389379

>  <GCUT_SMR_0>
-0.52541465

>  <GCUT_SMR_1>
-0.18233219

>  <GCUT_SMR_2>
0.19305076

>  <GCUT_SMR_3>
3.1482177

>  <Kier1>
37.320992

>  <Kier2>
16.989586

>  <Kier3>
8.707819

>  <KierA1>
29.828983

>  <KierA2>
13.51236

>  <KierA3>
6.9015622

>  <KierFlex>
8.2257128

>  <lip_acc>
12

>  <lip_don>
0

>  <lip_druglike>
0

>  <lip_violation>
3

>  <logP(o/w)>
6.1440001

>  <logS>
-8.5733099

>  <mr>
18.799877

>  <mutagenic>
0

>  <nmol>
1

>  <opr_brigid>
39

>  <opr_leadlike>
0

>  <opr_nring>
7

>  <opr_nrot>
14

>  <opr_violation>
5

>  <PC+>
0

>  <PC->
0

>  <PEOE_PC+>
3.772701

>  <PEOE_PC->
-3.772701

>  <PEOE_RPC+>
0.093113385

>  <PEOE_RPC->
0.090667151

>  <PEOE_VSA+0>
141.14287

>  <PEOE_VSA+1>
133.76869

>  <PEOE_VSA+2>
94.604195

>  <PEOE_VSA+3>
0

>  <PEOE_VSA+4>
1.1085443

>  <PEOE_VSA+5>
0

>  <PEOE_VSA+6>
17.440542

>  <PEOE_VSA-0>
149.99803

>  <PEOE_VSA-1>
90.166473

>  <PEOE_VSA-2>
0

>  <PEOE_VSA-3>
18.842079

>  <PEOE_VSA-4>
19.249496

>  <PEOE_VSA-5>
0

>  <PEOE_VSA-6>
7.5112681

>  <PEOE_VSA_FHYD>
0.93275797

>  <PEOE_VSA_FNEG>
0.42409274

>  <PEOE_VSA_FPNEG>
0.039714288

>  <PEOE_VSA_FPOL>
0.067242041

>  <PEOE_VSA_FPOS>
0.57590723

>  <PEOE_VSA_FPPOS>
0.027527753

>  <PEOE_VSA_HYD>
628.52234

>  <PEOE_VSA_NEG>
285.76736

>  <PEOE_VSA_PNEG>
26.760765

>  <PEOE_VSA_POL>
45.309853

>  <PEOE_VSA_POS>
388.06485

>  <PEOE_VSA_PPOS>
18.549088

>  <petitjean>
0.48148149

>  <petitjeanSC>
0.9285714

>  <Q_PC+>
0

>  <Q_PC->
0

>  <Q_RPC+>
0

>  <Q_RPC->
0

>  <Q_VSA_FHYD>
1

>  <Q_VSA_FNEG>
0

>  <Q_VSA_FPNEG>
0

>  <Q_VSA_FPOL>
0

>  <Q_VSA_FPOS>
1

>  <Q_VSA_FPPOS>
0

>  <Q_VSA_HYD>
673.83221

>  <Q_VSA_NEG>
0

>  <Q_VSA_PNEG>
0

>  <Q_VSA_POL>
0

>  <Q_VSA_POS>
673.83221

>  <Q_VSA_PPOS>
0

>  <radius>
14

>  <reactive>
1

>  <rings>
7

>  <RPC+>
0

>  <RPC->
0

>  <rsynth>
1

>  <SlogP>
6.8206

>  <SlogP_VSA0>
20.372829

>  <SlogP_VSA1>
43.056854

>  <SlogP_VSA2>
49.235924

>  <SlogP_VSA3>
115.61083

>  <SlogP_VSA4>
3.185575

>  <SlogP_VSA5>
16.663008

>  <SlogP_VSA6>
7.0012131

>  <SlogP_VSA7>
227.64609

>  <SlogP_VSA8>
18.868406

>  <SlogP_VSA9>
200.76479

>  <SMR>
19.007299

>  <SMR_VSA0>
45.861992

>  <SMR_VSA1>
65.889793

>  <SMR_VSA2>
9.372942

>  <SMR_VSA3>
25.880835

>  <SMR_VSA4>
8.2702427

>  <SMR_VSA5>
264.95407

>  <SMR_VSA6>
120.44079

>  <SMR_VSA7>
161.73485

>  <TPSA>
100.79

>  <VAdjEq>
0.26834276

>  <VAdjMa>
6.7813597

>  <VDistEq>
4.5460687

>  <VDistMa>
10.878242

>  <vdw_area>
673.83221

>  <vdw_vol>
899.85034

>  <vsa_acc>
45.602844

>  <vsa_acid>
0

>  <vsa_base>
0

>  <vsa_don>
0

>  <vsa_hyd>
508.2605

>  <vsa_other>
92.920639

>  <vsa_pol>
45.602844

>  <Weight>
705.64697

>  <weinerPath>
12096

>  <weinerPol>
81

>  <zagreb>
268

$$$$