S1c2c(N(c3c1cccc3)CCCN1CCN(CC1)CCOC(=O)CCCCCC)cc(cc2)C(F)(F)F
  MOE2013           2D

 38 41  0  0  1  0  0  0  0  0999 V2000
    0.0000    0.0000    0.0000 S   0  0  0  0  0  0  0  0  0  0  0  0
   -0.0110   -1.5000    0.0000 C   0  0  0  0  0  0  0  0  0  0  0  0
    1.2830   -2.2590    0.0000 C   0  0  0  0  0  0  0  0  0  0  0  0
    2.5870   -1.5190    0.0000 N   0  0  3  0  0  0  0  0  0  0  0  0
    2.5980   -0.0190    0.0000 C   0  0  0  0  0  0  0  0  0  0  0  0
    1.3040    0.7410    0.0000 C   0  0  0  0  0  0  0  0  0  0  0  0
    1.3150    2.2410    0.0000 C   0  0  0  0  0  0  0  0  0  0  0  0
    2.6200    2.9810    0.0000 C   0  0  0  0  0  0  0  0  0  0  0  0
    3.9130    2.2220    0.0000 C   0  0  0  0  0  0  0  0  0  0  0  0
    3.9020    0.7220    0.0000 C   0  0  0  0  0  0  0  0  0  0  0  0
    3.8810   -2.2780    0.0000 C   0  0  0  0  0  0  0  0  0  0  0  0
    5.1850   -1.5370    0.0000 C   0  0  0  0  0  0  0  0  0  0  0  0
    6.4790   -2.2970    0.0000 C   0  0  0  0  0  0  0  0  0  0  0  0
    7.7830   -1.5560    0.0000 N   0  0  0  0  0  0  0  0  0  0  0  0
    7.7940   -0.0560    0.0000 C   0  0  0  0  0  0  0  0  0  0  0  0
    9.0980    0.6850    0.0000 C   0  0  0  0  0  0  0  0  0  0  0  0
   10.3920   -0.0750    0.0000 N   0  0  0  0  0  0  0  0  0  0  0  0
   10.3810   -1.5750    0.0000 C   0  0  0  0  0  0  0  0  0  0  0  0
    9.0770   -2.3150    0.0000 C   0  0  0  0  0  0  0  0  0  0  0  0
   11.6960    0.6660    0.0000 C   0  0  0  0  0  0  0  0  0  0  0  0
   12.9900   -0.0930    0.0000 C   0  0  0  0  0  0  0  0  0  0  0  0
   14.2940    0.6470    0.0000 O   0  0  0  0  0  0  0  0  0  0  0  0
   15.5880   -0.1120    0.0000 C   0  0  0  0  0  0  0  0  0  0  0  0
   15.5770   -1.6120    0.0000 O   0  0  0  0  0  0  0  0  0  0  0  0
   16.8920    0.6290    0.0000 C   0  0  0  0  0  0  0  0  0  0  0  0
   18.1860   -0.1310    0.0000 C   0  0  0  0  0  0  0  0  0  0  0  0
   19.4900    0.6100    0.0000 C   0  0  0  0  0  0  0  0  0  0  0  0
   20.7840   -0.1490    0.0000 C   0  0  0  0  0  0  0  0  0  0  0  0
   22.0880    0.5910    0.0000 C   0  0  0  0  0  0  0  0  0  0  0  0
   23.3820   -0.1680    0.0000 C   0  0  0  0  0  0  0  0  0  0  0  0
    1.2720   -3.7590    0.0000 C   0  0  0  0  0  0  0  0  0  0  0  0
   -0.0320   -4.5000    0.0000 C   0  0  0  0  0  0  0  0  0  0  0  0
   -1.3260   -3.7410    0.0000 C   0  0  0  0  0  0  0  0  0  0  0  0
   -1.3150   -2.2410    0.0000 C   0  0  0  0  0  0  0  0  0  0  0  0
   -0.0430   -6.0000    0.0000 C   0  0  0  0  0  0  0  0  0  0  0  0
    1.4570   -6.0110    0.0000 F   0  0  0  0  0  0  0  0  0  0  0  0
   -1.5430   -5.9890    0.0000 F   0  0  0  0  0  0  0  0  0  0  0  0
   -0.0540   -7.5000    0.0000 F   0  0  0  0  0  0  0  0  0  0  0  0
  1  2  1  0  0  0  0
  1  6  1  0  0  0  0
  2  3  1  0  0  0  0
  2 34  2  0  0  0  0
  3  4  1  0  0  0  0
  3 31  2  0  0  0  0
  4  5  1  0  0  0  0
  4 11  1  0  0  0  0
  5  6  1  0  0  0  0
  5 10  2  0  0  0  0
  6  7  2  0  0  0  0
  7  8  1  0  0  0  0
  8  9  2  0  0  0  0
  9 10  1  0  0  0  0
 11 12  1  0  0  0  0
 12 13  1  0  0  0  0
 13 14  1  0  0  0  0
 14 15  1  0  0  0  0
 14 19  1  0  0  0  0
 15 16  1  0  0  0  0
 16 17  1  0  0  0  0
 17 18  1  0  0  0  0
 17 20  1  0  0  0  0
 18 19  1  0  0  0  0
 20 21  1  0  0  0  0
 21 22  1  0  0  0  0
 22 23  1  0  0  0  0
 23 24  2  0  0  0  0
 23 25  1  0  0  0  0
 25 26  1  0  0  0  0
 26 27  1  0  0  0  0
 27 28  1  0  0  0  0
 28 29  1  0  0  0  0
 29 30  1  0  0  0  0
 31 32  1  0  0  0  0
 32 33  2  0  0  0  0
 32 35  1  0  0  0  0
 33 34  1  0  0  0  0
 35 36  1  0  0  0  0
 35 37  1  0  0  0  0
 35 38  1  0  0  0  0
M  END
>  <Index>
1575

>  <ID>
HT0914

>  <class>
1

>  <apol>
85.853134

>  <ast_fraglike>
0

>  <ast_fraglike_ext>
0

>  <ast_violation>
2

>  <ast_violation_ext>
3

>  <a_acc>
3

>  <a_acid>
0

>  <a_aro>
12

>  <a_base>
0

>  <a_count>
76

>  <a_don>
0

>  <a_donacc>
3

>  <a_heavy>
38

>  <a_hyd>
32

>  <a_IC>
123.03002

>  <a_ICM>
1.618816

>  <a_nB>
0

>  <a_nBr>
0

>  <a_nC>
29

>  <a_nCl>
0

>  <a_nF>
3

>  <a_nH>
38

>  <a_nI>
0

>  <a_nN>
3

>  <a_nO>
2

>  <a_nP>
0

>  <a_nS>
1

>  <balabanJ>
1.1667234

>  <BCUT_PEOE_0>
-2.798759

>  <BCUT_PEOE_1>
-0.50582576

>  <BCUT_PEOE_2>
0.55573082

>  <BCUT_PEOE_3>
2.6964729

>  <BCUT_SLOGP_0>
-2.9125166

>  <BCUT_SLOGP_1>
-0.39691934

>  <BCUT_SLOGP_2>
0.67206955

>  <BCUT_SLOGP_3>
2.7582979

>  <BCUT_SMR_0>
-2.515281

>  <BCUT_SMR_1>
-0.32947645

>  <BCUT_SMR_2>
0.71008939

>  <BCUT_SMR_3>
2.9711249

>  <bpol>
56.244865

>  <b_1rotN>
12

>  <b_1rotR>
0.29268292

>  <b_ar>
12

>  <b_count>
79

>  <b_double>
1

>  <b_heavy>
41

>  <b_max1len>
7

>  <b_rotN>
14

>  <b_rotR>
0.34146342

>  <b_single>
66

>  <b_triple>
0

>  <chi0>
26.959608

>  <chi0v>
22.957722

>  <chi0v_C>
18.440947

>  <chi0_C>
19.813345

>  <chi1>
18.346687

>  <chi1v>
14.525467

>  <chi1v_C>
9.3760443

>  <chi1_C>
11.020186

>  <chiral>
0

>  <chiral_u>
0

>  <density>
0.7543534

>  <diameter>
22

>  <FCharge>
0

>  <GCUT_PEOE_0>
-0.85810548

>  <GCUT_PEOE_1>
-0.38431051

>  <GCUT_PEOE_2>
-0.027877742

>  <GCUT_PEOE_3>
2.8893645

>  <GCUT_SLOGP_0>
-0.96558398

>  <GCUT_SLOGP_1>
-0.27829644

>  <GCUT_SLOGP_2>
0.1580974

>  <GCUT_SLOGP_3>
2.9528687

>  <GCUT_SMR_0>
-0.53203195

>  <GCUT_SMR_1>
-0.16272591

>  <GCUT_SMR_2>
0.15822898

>  <GCUT_SMR_3>
3.1509027

>  <Kier1>
30.947056

>  <Kier2>
15.290816

>  <Kier3>
9.257143

>  <KierA1>
26.893768

>  <KierA2>
13.235593

>  <KierA3>
7.9907608

>  <KierFlex>
9.3672361

>  <lip_acc>
5

>  <lip_don>
0

>  <lip_druglike>
0

>  <lip_violation>
2

>  <logP(o/w)>
6.6297598

>  <logS>
-7.6213198

>  <mr>
14.89775

>  <mutagenic>
0

>  <nmol>
1

>  <opr_brigid>
22

>  <opr_leadlike>
0

>  <opr_nring>
4

>  <opr_nrot>
14

>  <opr_violation>
3

>  <PC+>
0

>  <PC->
0

>  <PEOE_PC+>
2.6357059

>  <PEOE_PC->
-2.6357059

>  <PEOE_RPC+>
0.15839034

>  <PEOE_RPC->
0.11910234

>  <PEOE_VSA+0>
246.51208

>  <PEOE_VSA+1>
55.548306

>  <PEOE_VSA+2>
0

>  <PEOE_VSA+3>
0

>  <PEOE_VSA+4>
0

>  <PEOE_VSA+5>
14.708499

>  <PEOE_VSA+6>
9.0455017

>  <PEOE_VSA-0>
78.677147

>  <PEOE_VSA-1>
89.12204

>  <PEOE_VSA-2>
0

>  <PEOE_VSA-3>
35.725906

>  <PEOE_VSA-4>
0

>  <PEOE_VSA-5>
13.566921

>  <PEOE_VSA-6>
2.503756

>  <PEOE_VSA_FHYD>
0.92698216

>  <PEOE_VSA_FNEG>
0.40262499

>  <PEOE_VSA_FPNEG>
0.029465305

>  <PEOE_VSA_FPOL>
0.073017851

>  <PEOE_VSA_FPOS>
0.59737498

>  <PEOE_VSA_FPPOS>
0.043552544

>  <PEOE_VSA_HYD>
505.58548

>  <PEOE_VSA_NEG>
219.59578

>  <PEOE_VSA_PNEG>
16.070677

>  <PEOE_VSA_POL>
39.824677

>  <PEOE_VSA_POS>
325.81439

>  <PEOE_VSA_PPOS>
23.754002

>  <petitjean>
0.5

>  <petitjeanSC>
1

>  <Q_PC+>
0

>  <Q_PC->
0

>  <Q_RPC+>
0

>  <Q_RPC->
0

>  <Q_VSA_FHYD>
1

>  <Q_VSA_FNEG>
0

>  <Q_VSA_FPNEG>
0

>  <Q_VSA_FPOL>
0

>  <Q_VSA_FPOS>
1

>  <Q_VSA_FPPOS>
0

>  <Q_VSA_HYD>
545.41016

>  <Q_VSA_NEG>
0

>  <Q_VSA_PNEG>
0

>  <Q_VSA_POL>
0

>  <Q_VSA_POS>
545.41016

>  <Q_VSA_PPOS>
0

>  <radius>
11

>  <reactive>
0

>  <rings>
4

>  <RPC+>
0

>  <RPC->
0

>  <rsynth>
1

>  <SlogP>
7.1409001

>  <SlogP_VSA0>
3.1243138

>  <SlogP_VSA1>
13.994092

>  <SlogP_VSA2>
34.862103

>  <SlogP_VSA3>
150.00331

>  <SlogP_VSA4>
3.185575

>  <SlogP_VSA5>
3.1014678

>  <SlogP_VSA6>
7.7595162

>  <SlogP_VSA7>
123.50229

>  <SlogP_VSA8>
113.21043

>  <SlogP_VSA9>
115.93939

>  <SMR>
14.6348

>  <SMR_VSA0>
34.862103

>  <SMR_VSA1>
51.128967

>  <SMR_VSA2>
13.985298

>  <SMR_VSA3>
3.185575

>  <SMR_VSA4>
5.513495

>  <SMR_VSA5>
236.71272

>  <SMR_VSA6>
157.74876

>  <SMR_VSA7>
65.545555

>  <TPSA>
36.02

>  <VAdjEq>
0.31455502

>  <VAdjMa>
6.3575521

>  <VDistEq>
4.245223

>  <VDistMa>
10.153223

>  <vdw_area>
545.41016

>  <vdw_vol>
728.70618

>  <vsa_acc>
13.566921

>  <vsa_acid>
0

>  <vsa_base>
0

>  <vsa_don>
0

>  <vsa_hyd>
487.58276

>  <vsa_other>
17.212255

>  <vsa_pol>
13.566921

>  <Weight>
549.70197

>  <weinerPath>
5890

>  <weinerPol>
58

>  <zagreb>
194

$$$$