O(CCCCC)c1ccc(cc1)-c1ccc(cc1)-c1ccc(cc1)C(=O)NC1C[C@@H](O)[C@@H](O)NC(=O)C2N(C[C@H](C)[C@@H]2O)C(=O)C(NC(=O)C(NC(=O)C2N(C[C@H](O)C2)C(=O)C(NC1=O)[C@H](O)C)[C@H](O)[C@@H](O)c1ccc(O)cc1)[C@H](O)C
  MOE2013           2D

 82 88  0  0  1  0  0  0  0  0999 V2000
    0.0000    0.0000    0.0000 O   0  0  0  0  0  0  0  0  0  0  0  0
    0.7560    1.2950    0.0000 C   0  0  0  0  0  0  0  0  0  0  0  0
    2.2560    1.2880    0.0000 C   0  0  0  0  0  0  0  0  0  0  0  0
    3.0120    2.5840    0.0000 C   0  0  0  0  0  0  0  0  0  0  0  0
    4.5120    2.5770    0.0000 C   0  0  0  0  0  0  0  0  0  0  0  0
    5.2690    3.8720    0.0000 C   0  0  0  0  0  0  0  0  0  0  0  0
   -1.5000    0.0070    0.0000 C   0  0  0  0  0  0  0  0  0  0  0  0
   -2.2560   -1.2880    0.0000 C   0  0  0  0  0  0  0  0  0  0  0  0
   -3.7560   -1.2810    0.0000 C   0  0  0  0  0  0  0  0  0  0  0  0
   -4.5000    0.0210    0.0000 C   0  0  0  0  0  0  0  0  0  0  0  0
   -3.7440    1.3170    0.0000 C   0  0  0  0  0  0  0  0  0  0  0  0
   -2.2440    1.3100    0.0000 C   0  0  0  0  0  0  0  0  0  0  0  0
   -6.0000    0.0290    0.0000 C   0  0  0  0  0  0  0  0  0  0  0  0
   -6.7440    1.3310    0.0000 C   0  0  0  0  0  0  0  0  0  0  0  0
   -8.2440    1.3380    0.0000 C   0  0  0  0  0  0  0  0  0  0  0  0
   -9.0000    0.0430    0.0000 C   0  0  0  0  0  0  0  0  0  0  0  0
   -8.2560   -1.2600    0.0000 C   0  0  0  0  0  0  0  0  0  0  0  0
   -6.7560   -1.2670    0.0000 C   0  0  0  0  0  0  0  0  0  0  0  0
  -10.5000    0.0500    0.0000 C   0  0  0  0  0  0  0  0  0  0  0  0
  -11.2440    1.3530    0.0000 C   0  0  0  0  0  0  0  0  0  0  0  0
  -12.7440    1.3600    0.0000 C   0  0  0  0  0  0  0  0  0  0  0  0
  -13.5000    0.0640    0.0000 C   0  0  0  0  0  0  0  0  0  0  0  0
  -12.7560   -1.2380    0.0000 C   0  0  0  0  0  0  0  0  0  0  0  0
  -11.2560   -1.2450    0.0000 C   0  0  0  0  0  0  0  0  0  0  0  0
  -15.0000    0.0720    0.0000 C   0  0  0  0  0  0  0  0  0  0  0  0
  -15.7560   -1.2240    0.0000 O   0  0  0  0  0  0  0  0  0  0  0  0
  -15.7440    1.3740    0.0000 N   0  0  0  0  0  0  0  0  0  0  0  0
  -17.2440    1.3810    0.0000 C   0  0  3  0  0  0  0  0  0  0  0  0
  -17.8420    0.1160    0.0000 C   0  0  0  0  0  0  0  0  0  0  0  0
  -19.0040   -0.5570    0.0000 C   0  0  1  0  0  0  0  0  0  0  0  0
  -18.5840   -1.9970    0.0000 O   0  0  0  0  0  0  0  0  0  0  0  0
  -20.3620   -0.6160    0.0000 C   0  0  1  0  0  0  0  0  0  0  0  0
  -20.9040   -2.0140    0.0000 O   0  0  0  0  0  0  0  0  0  0  0  0
  -21.4230    0.4390    0.0000 N   0  0  0  0  0  0  0  0  0  0  0  0
  -22.8490    0.0870    0.0000 C   0  0  0  0  0  0  0  0  0  0  0  0
  -23.0530   -1.3990    0.0000 O   0  0  0  0  0  0  0  0  0  0  0  0
  -24.0280    0.7540    0.0000 C   0  0  3  0  0  0  0  0  0  0  0  0
  -24.6380    2.0060    0.0000 N   0  0  0  0  0  0  0  0  0  0  0  0
  -26.1620    1.8520    0.0000 C   0  0  0  0  0  0  0  0  0  0  0  0
  -26.4260    0.3710    0.0000 C   0  0  2  0  0  0  0  0  0  0  0  0
  -27.7780   -0.2790    0.0000 C   0  0  0  0  0  0  0  0  0  0  0  0
  -25.1060   -0.3450    0.0000 C   0  0  2  0  0  0  0  0  0  0  0  0
  -24.8830   -1.8290    0.0000 O   0  0  0  0  0  0  0  0  0  0  0  0
  -24.4170    3.3500    0.0000 C   0  0  0  0  0  0  0  0  0  0  0  0
  -25.6950    4.1350    0.0000 O   0  0  0  0  0  0  0  0  0  0  0  0
  -23.2360    4.2170    0.0000 C   0  0  3  0  0  0  0  0  0  0  0  0
  -23.3780    5.7250    0.0000 N   0  0  0  0  0  0  0  0  0  0  0  0
  -22.1720    6.5940    0.0000 C   0  0  0  0  0  0  0  0  0  0  0  0
  -20.8050    5.9770    0.0000 O   0  0  0  0  0  0  0  0  0  0  0  0
  -22.3180    8.1010    0.0000 C   0  0  3  0  0  0  0  0  0  0  0  0
  -21.0230    8.9240    0.0000 N   0  0  0  0  0  0  0  0  0  0  0  0
  -19.7340    8.2610    0.0000 C   0  0  0  0  0  0  0  0  0  0  0  0
  -19.9330    6.7740    0.0000 O   0  0  0  0  0  0  0  0  0  0  0  0
  -18.4280    8.5380    0.0000 C   0  0  3  0  0  0  0  0  0  0  0  0
  -17.1630    7.8590    0.0000 N   0  0  0  0  0  0  0  0  0  0  0  0
  -16.0510    8.7970    0.0000 C   0  0  0  0  0  0  0  0  0  0  0  0
  -16.6720   10.2060    0.0000 C   0  0  2  0  0  0  0  0  0  0  0  0
  -15.9360   11.5130    0.0000 O   0  0  0  0  0  0  0  0  0  0  0  0
  -18.1870   10.0070    0.0000 C   0  0  0  0  0  0  0  0  0  0  0  0
  -16.7190    6.5530    0.0000 C   0  0  0  0  0  0  0  0  0  0  0  0
  -15.3990    5.8390    0.0000 O   0  0  0  0  0  0  0  0  0  0  0  0
  -17.6080    5.3120    0.0000 C   0  0  3  0  0  0  0  0  0  0  0  0
  -16.9890    3.9650    0.0000 N   0  0  0  0  0  0  0  0  0  0  0  0
  -17.8650    2.7280    0.0000 C   0  0  0  0  0  0  0  0  0  0  0  0
  -19.3590    2.8660    0.0000 O   0  0  0  0  0  0  0  0  0  0  0  0
  -15.6170    5.1220    0.0000 C   0  0  2  0  0  0  0  0  0  0  0  0
  -14.7460    6.3430    0.0000 O   0  0  0  0  0  0  0  0  0  0  0  0
  -14.9940    3.7570    0.0000 C   0  0  0  0  0  0  0  0  0  0  0  0
  -23.6670    8.7560    0.0000 C   0  0  2  0  0  0  0  0  0  0  0  0
  -24.9090    7.9160    0.0000 O   0  0  0  0  0  0  0  0  0  0  0  0
  -23.7740   10.2530    0.0000 C   0  0  1  0  0  0  0  0  0  0  0  0
  -22.5310   11.0930    0.0000 O   0  0  0  0  0  0  0  0  0  0  0  0
  -25.1230   10.9080    0.0000 C   0  0  0  0  0  0  0  0  0  0  0  0
  -26.3650   10.0680    0.0000 C   0  0  0  0  0  0  0  0  0  0  0  0
  -27.7140   10.7240    0.0000 C   0  0  0  0  0  0  0  0  0  0  0  0
  -27.8210   12.2200    0.0000 C   0  0  0  0  0  0  0  0  0  0  0  0
  -29.1700   12.8760    0.0000 O   0  0  0  0  0  0  0  0  0  0  0  0
  -26.5780   13.0600    0.0000 C   0  0  0  0  0  0  0  0  0  0  0  0
  -25.2290   12.4050    0.0000 C   0  0  0  0  0  0  0  0  0  0  0  0
  -24.3120    5.2620    0.0000 C   0  0  2  0  0  0  0  0  0  0  0  0
  -25.7550    4.8530    0.0000 O   0  0  0  0  0  0  0  0  0  0  0  0
  -23.9450    6.7160    0.0000 C   0  0  0  0  0  0  0  0  0  0  0  0
  1  2  1  0  0  0  0
  1  7  1  0  0  0  0
  2  3  1  0  0  0  0
  3  4  1  0  0  0  0
  4  5  1  0  0  0  0
  5  6  1  0  0  0  0
  7  8  1  0  0  0  0
  7 12  2  0  0  0  0
  8  9  2  0  0  0  0
  9 10  1  0  0  0  0
 10 11  2  0  0  0  0
 10 13  1  0  0  0  0
 11 12  1  0  0  0  0
 13 14  1  0  0  0  0
 13 18  2  0  0  0  0
 14 15  2  0  0  0  0
 15 16  1  0  0  0  0
 16 17  2  0  0  0  0
 16 19  1  0  0  0  0
 17 18  1  0  0  0  0
 19 20  1  0  0  0  0
 19 24  2  0  0  0  0
 20 21  2  0  0  0  0
 21 22  1  0  0  0  0
 22 23  2  0  0  0  0
 22 25  1  0  0  0  0
 23 24  1  0  0  0  0
 25 26  2  0  0  0  0
 25 27  1  0  0  0  0
 27 28  1  0  0  0  0
 28 29  1  0  0  0  0
 28 64  1  0  0  0  0
 29 30  1  0  0  0  0
 30 31  1  1  0  0  0
 30 32  1  0  0  0  0
 32 33  1  1  0  0  0
 32 34  1  0  0  0  0
 34 35  1  0  0  0  0
 35 36  2  0  0  0  0
 35 37  1  0  0  0  0
 37 38  1  0  0  0  0
 37 42  1  0  0  0  0
 38 39  1  0  0  0  0
 38 44  1  0  0  0  0
 39 40  1  0  0  0  0
 40 41  1  1  0  0  0
 40 42  1  0  0  0  0
 42 43  1  1  0  0  0
 44 45  2  0  0  0  0
 44 46  1  0  0  0  0
 46 47  1  0  0  0  0
 46 80  1  0  0  0  0
 47 48  1  0  0  0  0
 48 49  2  0  0  0  0
 48 50  1  0  0  0  0
 50 51  1  0  0  0  0
 50 69  1  0  0  0  0
 51 52  1  0  0  0  0
 52 53  2  0  0  0  0
 52 54  1  0  0  0  0
 54 55  1  0  0  0  0
 54 59  1  0  0  0  0
 55 56  1  0  0  0  0
 55 60  1  0  0  0  0
 56 57  1  0  0  0  0
 57 58  1  1  0  0  0
 57 59  1  0  0  0  0
 60 61  2  0  0  0  0
 60 62  1  0  0  0  0
 62 63  1  0  0  0  0
 62 66  1  0  0  0  0
 63 64  1  0  0  0  0
 64 65  2  0  0  0  0
 66 67  1  0  0  0  0
 66 68  1  6  0  0  0
 69 70  1  6  0  0  0
 69 71  1  0  0  0  0
 71 72  1  6  0  0  0
 71 73  1  0  0  0  0
 73 74  1  0  0  0  0
 73 79  2  0  0  0  0
 74 75  2  0  0  0  0
 75 76  1  0  0  0  0
 76 77  1  0  0  0  0
 76 78  2  0  0  0  0
 78 79  1  0  0  0  0
 80 81  1  0  0  0  0
 80 82  1  6  0  0  0
M  END
>  <Index>
1436

>  <ID>
HT0159

>  <class>
1

>  <apol>
172.08989

>  <ast_fraglike>
0

>  <ast_fraglike_ext>
0

>  <ast_violation>
3

>  <ast_violation_ext>
5

>  <a_acc>
17

>  <a_acid>
0

>  <a_aro>
24

>  <a_base>
0

>  <a_count>
155

>  <a_don>
14

>  <a_donacc>
31

>  <a_heavy>
82

>  <a_hyd>
50

>  <a_IC>
247.04083

>  <a_ICM>
1.5938119

>  <a_nB>
0

>  <a_nBr>
0

>  <a_nC>
58

>  <a_nCl>
0

>  <a_nF>
0

>  <a_nH>
73

>  <a_nI>
0

>  <a_nN>
7

>  <a_nO>
17

>  <a_nP>
0

>  <a_nS>
0

>  <balabanJ>
1.0805914

>  <BCUT_PEOE_0>
-2.6463897

>  <BCUT_PEOE_1>
-0.64129227

>  <BCUT_PEOE_2>
0.70002359

>  <BCUT_PEOE_3>
2.8002536

>  <BCUT_SLOGP_0>
-2.8851583

>  <BCUT_SLOGP_1>
-0.55618817

>  <BCUT_SLOGP_2>
0.57105708

>  <BCUT_SLOGP_3>
2.6999185

>  <BCUT_SMR_0>
-2.4138546

>  <BCUT_SMR_1>
-0.49986199

>  <BCUT_SMR_2>
0.8218435

>  <BCUT_SMR_3>
3.0338485

>  <bpol>
95.686111

>  <b_1rotN>
14

>  <b_1rotR>
0.15909091

>  <b_ar>
24

>  <b_count>
161

>  <b_double>
7

>  <b_heavy>
88

>  <b_max1len>
6

>  <b_rotN>
15

>  <b_rotR>
0.17045455

>  <b_single>
130

>  <b_triple>
0

>  <chi0>
59.688412

>  <chi0v>
45.740047

>  <chi0v_C>
35.054714

>  <chi0_C>
38.291069

>  <chi1>
38.96545

>  <chi1v>
27.278484

>  <chi1v_C>
18.778175

>  <chi1_C>
22.587286

>  <chiral>
15

>  <chiral_u>
6

>  <density>
0.77276546

>  <diameter>
36

>  <FCharge>
0

>  <GCUT_PEOE_0>
-0.83299315

>  <GCUT_PEOE_1>
-0.40945074

>  <GCUT_PEOE_2>
0.098577634

>  <GCUT_PEOE_3>
3.3381836

>  <GCUT_SLOGP_0>
-1.1682682

>  <GCUT_SLOGP_1>
-0.40311918

>  <GCUT_SLOGP_2>
0.068797007

>  <GCUT_SLOGP_3>
3.229327

>  <GCUT_SMR_0>
-0.53250682

>  <GCUT_SMR_1>
-0.23951069

>  <GCUT_SMR_2>
0.19305076

>  <GCUT_SMR_3>
3.5647969

>  <Kier1>
69.473396

>  <Kier2>
32.653061

>  <Kier3>
18.348091

>  <KierA1>
54.307552

>  <KierA2>
25.443516

>  <KierA3>
14.265869

>  <KierFlex>
16.850914

>  <lip_acc>
24

>  <lip_don>
14

>  <lip_druglike>
0

>  <lip_violation>
3

>  <logP(o/w)>
1.085

>  <logS>
-10.39139

>  <mr>
29.642357

>  <mutagenic>
0

>  <nmol>
1

>  <opr_brigid>
53

>  <opr_leadlike>
0

>  <opr_nring>
6

>  <opr_nrot>
27

>  <opr_violation>
5

>  <PC+>
0

>  <PC->
0

>  <PEOE_PC+>
9.1996098

>  <PEOE_PC->
-9.1996098

>  <PEOE_RPC+>
0.027461533

>  <PEOE_RPC->
0.042388499

>  <PEOE_VSA+0>
152.63046

>  <PEOE_VSA+1>
196.51117

>  <PEOE_VSA+2>
33.590549

>  <PEOE_VSA+3>
52.491005

>  <PEOE_VSA+4>
170.61475

>  <PEOE_VSA+5>
12.949531

>  <PEOE_VSA+6>
0

>  <PEOE_VSA-0>
130.76878

>  <PEOE_VSA-1>
177.44702

>  <PEOE_VSA-2>
0

>  <PEOE_VSA-3>
0

>  <PEOE_VSA-4>
0

>  <PEOE_VSA-5>
94.968445

>  <PEOE_VSA-6>
73.096077

>  <PEOE_VSA_FHYD>
0.67889768

>  <PEOE_VSA_FNEG>
0.43493229

>  <PEOE_VSA_FPNEG>
0.15347408

>  <PEOE_VSA_FPOL>
0.32110229

>  <PEOE_VSA_FPOS>
0.56506771

>  <PEOE_VSA_FPPOS>
0.16762823

>  <PEOE_VSA_HYD>
743.43903

>  <PEOE_VSA_NEG>
476.28033

>  <PEOE_VSA_PNEG>
168.06451

>  <PEOE_VSA_POL>
351.62878

>  <PEOE_VSA_POS>
618.78748

>  <PEOE_VSA_PPOS>
183.56427

>  <petitjean>
0.5

>  <petitjeanSC>
1

>  <Q_PC+>
0

>  <Q_PC->
0

>  <Q_RPC+>
0

>  <Q_RPC->
0

>  <Q_VSA_FHYD>
1

>  <Q_VSA_FNEG>
0

>  <Q_VSA_FPNEG>
0

>  <Q_VSA_FPOL>
0

>  <Q_VSA_FPOS>
1

>  <Q_VSA_FPPOS>
0

>  <Q_VSA_HYD>
1095.0677

>  <Q_VSA_NEG>
0

>  <Q_VSA_PNEG>
0

>  <Q_VSA_POL>
0

>  <Q_VSA_POS>
1095.0677

>  <Q_VSA_PPOS>
0

>  <radius>
18

>  <reactive>
0

>  <rings>
7

>  <RPC+>
0

>  <RPC->
0

>  <rsynth>
0.902439

>  <SlogP>
-0.83160001

>  <SlogP_VSA0>
329.52069

>  <SlogP_VSA1>
43.060112

>  <SlogP_VSA2>
211.91682

>  <SlogP_VSA3>
57.805416

>  <SlogP_VSA4>
34.644161

>  <SlogP_VSA5>
0

>  <SlogP_VSA6>
0

>  <SlogP_VSA7>
295.03326

>  <SlogP_VSA8>
100.81068

>  <SlogP_VSA9>
143.79091

>  <SMR>
29.349621

>  <SMR_VSA0>
167.03551

>  <SMR_VSA1>
245.71556

>  <SMR_VSA2>
94.464546

>  <SMR_VSA3>
92.070183

>  <SMR_VSA4>
12.7423

>  <SMR_VSA5>
376.63297

>  <SMR_VSA6>
94.616898

>  <SMR_VSA7>
133.30406

>  <TPSA>
377.42001

>  <VAdjEq>
0.17483048

>  <VAdjMa>
7.4594316

>  <VDistEq>
4.7278819

>  <VDistMa>
12.428274

>  <vdw_area>
1095.0677

>  <vdw_vol>
1475.5498

>  <vsa_acc>
97.472198

>  <vsa_acid>
0

>  <vsa_base>
0

>  <vsa_don>
28.41288

>  <vsa_hyd>
644.05341

>  <vsa_other>
103.59624

>  <vsa_pol>
247.98737

>  <Weight>
1140.254

>  <weinerPath>
39238

>  <weinerPol>
144

>  <zagreb>
428

$$$$