s1cc(nc1N)/C(=N/OC)/C(=O)N[C@H]1[C@H]2SCC(CSc3nnnn3C)=C(N2C1=O)C(O)=O
  MOE2013           2D

 33 36  0  0  1  0  0  0  0  0999 V2000
    0.0000    0.0000    0.0000 S   0  0  0  0  0  0  0  0  0  0  0  0
   -1.4980   -0.0760    0.0000 C   0  0  0  0  0  0  0  0  0  0  0  0
   -2.0330    1.3250    0.0000 C   0  0  0  0  0  0  0  0  0  0  0  0
   -0.8660    2.2670    0.0000 N   0  0  0  0  0  0  0  0  0  0  0  0
    0.3900    1.4480    0.0000 C   0  0  0  0  0  0  0  0  0  0  0  0
    1.7920    1.9840    0.0000 N   0  0  0  0  0  0  0  0  0  0  0  0
   -3.4820    1.7160    0.0000 C   0  0  0  0  0  0  0  0  0  0  0  0
   -3.8680    3.1650    0.0000 N   0  0  0  0  0  0  0  0  0  0  0  0
   -5.3160    3.5550    0.0000 O   0  0  0  0  0  0  0  0  0  0  0  0
   -5.7020    5.0050    0.0000 C   0  0  0  0  0  0  0  0  0  0  0  0
   -4.5440    0.6570    0.0000 C   0  0  0  0  0  0  0  0  0  0  0  0
   -4.1580   -0.7930    0.0000 O   0  0  0  0  0  0  0  0  0  0  0  0
   -5.9920    1.0470    0.0000 N   0  0  0  0  0  0  0  0  0  0  0  0
   -7.0550   -0.0120    0.0000 C   0  0  1  0  0  0  0  0  0  0  0  0
   -8.5550   -0.0100    0.0000 C   0  0  1  0  0  0  0  0  0  0  0  0
   -9.8520    0.7420    0.0000 S   0  0  0  0  0  0  0  0  0  0  0  0
  -11.1530   -0.0060    0.0000 C   0  0  0  0  0  0  0  0  0  0  0  0
  -11.1550   -1.5060    0.0000 C   0  0  0  0  0  0  0  0  0  0  0  0
  -12.4550   -2.2540    0.0000 C   0  0  0  0  0  0  0  0  0  0  0  0
  -13.7530   -1.5020    0.0000 S   0  0  0  0  0  0  0  0  0  0  0  0
  -15.0530   -2.2500    0.0000 C   0  0  0  0  0  0  0  0  0  0  0  0
  -15.2120   -3.7410    0.0000 N   0  0  0  0  0  0  0  0  0  0  0  0
  -16.6800   -4.0510    0.0000 N   0  0  0  0  0  0  0  0  0  0  0  0
  -17.4280   -2.7500    0.0000 N   0  0  0  0  0  0  0  0  0  0  0  0
  -16.4230   -1.6370    0.0000 N   0  0  0  0  0  0  0  0  0  0  0  0
  -16.7320   -0.1700    0.0000 C   0  0  0  0  0  0  0  0  0  0  0  0
   -9.8570   -2.2580    0.0000 C   0  0  0  0  0  0  0  0  0  0  0  0
   -8.5570   -1.5100    0.0000 N   0  0  0  0  0  0  0  0  0  0  0  0
   -7.0570   -1.5120    0.0000 C   0  0  0  0  0  0  0  0  0  0  0  0
   -5.9980   -2.5740    0.0000 O   0  0  0  0  0  0  0  0  0  0  0  0
   -9.8590   -3.7580    0.0000 C   0  0  0  0  0  0  0  0  0  0  0  0
   -8.5620   -4.5100    0.0000 O   0  0  0  0  0  0  0  0  0  0  0  0
  -11.1600   -4.5060    0.0000 O   0  0  0  0  0  0  0  0  0  0  0  0
  1  2  1  0  0  0  0
  1  5  1  0  0  0  0
  2  3  2  0  0  0  0
  3  4  1  0  0  0  0
  3  7  1  0  0  0  0
  4  5  2  0  0  0  0
  5  6  1  0  0  0  0
  7  8  2  0  0  0  0
  7 11  1  0  0  0  0
  8  9  1  0  0  0  0
  9 10  1  0  0  0  0
 11 12  2  0  0  0  0
 11 13  1  0  0  0  0
 14 13  1  6  0  0  0
 14 15  1  0  0  0  0
 14 29  1  0  0  0  0
 15 16  1  6  0  0  0
 15 28  1  0  0  0  0
 16 17  1  0  0  0  0
 17 18  1  0  0  0  0
 18 19  1  0  0  0  0
 18 27  2  0  0  0  0
 19 20  1  0  0  0  0
 20 21  1  0  0  0  0
 21 22  2  0  0  0  0
 21 25  1  0  0  0  0
 22 23  1  0  0  0  0
 23 24  2  0  0  0  0
 24 25  1  0  0  0  0
 25 26  1  0  0  0  0
 27 28  1  0  0  0  0
 27 31  1  0  0  0  0
 28 29  1  0  0  0  0
 29 30  2  0  0  0  0
 31 32  1  0  0  0  0
 31 33  2  0  0  0  0
M  END
>  <Index>
1471

>  <ID>
HT0406

>  <class>
1

>  <apol>
62.10548

>  <ast_fraglike>
0

>  <ast_fraglike_ext>
0

>  <ast_violation>
3

>  <ast_violation_ext>
5

>  <a_acc>
9

>  <a_acid>
0

>  <a_aro>
10

>  <a_base>
0

>  <a_count>
50

>  <a_don>
4

>  <a_donacc>
13

>  <a_heavy>
33

>  <a_hyd>
13

>  <a_IC>
103.81209

>  <a_ICM>
2.0762417

>  <a_nB>
0

>  <a_nBr>
0

>  <a_nC>
16

>  <a_nCl>
0

>  <a_nF>
0

>  <a_nH>
17

>  <a_nI>
0

>  <a_nN>
9

>  <a_nO>
5

>  <a_nP>
0

>  <a_nS>
3

>  <balabanJ>
1.3550862

>  <BCUT_PEOE_0>
-2.6847401

>  <BCUT_PEOE_1>
-0.4893581

>  <BCUT_PEOE_2>
0.57752609

>  <BCUT_PEOE_3>
2.7344048

>  <BCUT_SLOGP_0>
-2.8932638

>  <BCUT_SLOGP_1>
-0.48441806

>  <BCUT_SLOGP_2>
0.52785337

>  <BCUT_SLOGP_3>
2.6219556

>  <BCUT_SMR_0>
-2.3985066

>  <BCUT_SMR_1>
-0.30298904

>  <BCUT_SMR_2>
0.7863313

>  <BCUT_SMR_3>
3.0193021

>  <bpol>
35.494518

>  <b_1rotN>
8

>  <b_1rotR>
0.22222222

>  <b_ar>
10

>  <b_count>
53

>  <b_double>
5

>  <b_heavy>
36

>  <b_max1len>
3

>  <b_rotN>
9

>  <b_rotR>
0.25

>  <b_single>
38

>  <b_triple>
0

>  <chi0>
23.697941

>  <chi0v>
19.608551

>  <chi0v_C>
9.6462641

>  <chi0_C>
10.472174

>  <chi1>
15.811769

>  <chi1v>
12.113611

>  <chi1v_C>
2.6177905

>  <chi1_C>
3.2247448

>  <chiral>
2

>  <chiral_u>
0

>  <density>
0.94106883

>  <diameter>
16

>  <FCharge>
0

>  <GCUT_PEOE_0>
-0.82316399

>  <GCUT_PEOE_1>
-0.44995847

>  <GCUT_PEOE_2>
0.053459816

>  <GCUT_PEOE_3>
2.619658

>  <GCUT_SLOGP_0>
-1.3345556

>  <GCUT_SLOGP_1>
-0.41872719

>  <GCUT_SLOGP_2>
0.10323628

>  <GCUT_SLOGP_3>
2.5819619

>  <GCUT_SMR_0>
-0.52878338

>  <GCUT_SMR_1>
-0.22152711

>  <GCUT_SMR_2>
0.28382602

>  <GCUT_SMR_3>
2.9131832

>  <Kier1>
26.074074

>  <Kier2>
11.372781

>  <Kier3>
5.5555553

>  <KierA1>
22.23823

>  <KierA2>
9.6491671

>  <KierA3>
4.6957026

>  <KierFlex>
6.5024362

>  <lip_acc>
14

>  <lip_don>
4

>  <lip_druglike>
0

>  <lip_violation>
2

>  <logP(o/w)>
-1.212

>  <logS>
-4.5108199

>  <mr>
12.052576

>  <mutagenic>
1

>  <nmol>
1

>  <opr_brigid>
20

>  <opr_leadlike>
0

>  <opr_nring>
4

>  <opr_nrot>
8

>  <opr_violation>
2

>  <PC+>
0

>  <PC->
0

>  <PEOE_PC+>
3.3702631

>  <PEOE_PC->
-3.3702631

>  <PEOE_RPC+>
0.091369234

>  <PEOE_RPC->
0.099918358

>  <PEOE_VSA+0>
74.451141

>  <PEOE_VSA+1>
70.456146

>  <PEOE_VSA+2>
32.205559

>  <PEOE_VSA+3>
35.079182

>  <PEOE_VSA+4>
23.490797

>  <PEOE_VSA+5>
25.899061

>  <PEOE_VSA+6>
14.708499

>  <PEOE_VSA-0>
28.527546

>  <PEOE_VSA-1>
33.991585

>  <PEOE_VSA-2>
40.066917

>  <PEOE_VSA-3>
0

>  <PEOE_VSA-4>
5.6825762

>  <PEOE_VSA-5>
53.254242

>  <PEOE_VSA-6>
7.9044313

>  <PEOE_VSA_FHYD>
0.70622748

>  <PEOE_VSA_FNEG>
0.38012245

>  <PEOE_VSA_FPNEG>
0.1499632

>  <PEOE_VSA_FPOL>
0.29377252

>  <PEOE_VSA_FPOS>
0.61987758

>  <PEOE_VSA_FPPOS>
0.14380932

>  <PEOE_VSA_HYD>
314.77808

>  <PEOE_VSA_NEG>
169.42729

>  <PEOE_VSA_PNEG>
66.841248

>  <PEOE_VSA_POL>
130.93961

>  <PEOE_VSA_POS>
276.29041

>  <PEOE_VSA_PPOS>
64.098358

>  <petitjean>
0.5

>  <petitjeanSC>
1

>  <Q_PC+>
0

>  <Q_PC->
0

>  <Q_RPC+>
0

>  <Q_RPC->
0

>  <Q_VSA_FHYD>
1

>  <Q_VSA_FNEG>
0

>  <Q_VSA_FPNEG>
0

>  <Q_VSA_FPOL>
0

>  <Q_VSA_FPOS>
1

>  <Q_VSA_FPPOS>
0

>  <Q_VSA_HYD>
445.71768

>  <Q_VSA_NEG>
0

>  <Q_VSA_PNEG>
0

>  <Q_VSA_POL>
0

>  <Q_VSA_POS>
445.71768

>  <Q_VSA_PPOS>
0

>  <radius>
8

>  <reactive>
1

>  <rings>
4

>  <RPC+>
0

>  <RPC->
0

>  <rsynth>
0.54545456

>  <SlogP>
-0.51059997

>  <SlogP_VSA0>
50.90794

>  <SlogP_VSA1>
92.450172

>  <SlogP_VSA2>
89.134506

>  <SlogP_VSA3>
59.852356

>  <SlogP_VSA4>
2.7567475

>  <SlogP_VSA5>
61.419132

>  <SlogP_VSA6>
0

>  <SlogP_VSA7>
15.81601

>  <SlogP_VSA8>
0

>  <SlogP_VSA9>
129.1147

>  <SMR>
11.95619

>  <SMR_VSA0>
82.805412

>  <SMR_VSA1>
90.830254

>  <SMR_VSA2>
44.089058

>  <SMR_VSA3>
15.028167

>  <SMR_VSA4>
0.50074643

>  <SMR_VSA5>
48.7132

>  <SMR_VSA6>
55.486908

>  <SMR_VSA7>
163.99782

>  <TPSA>
190.81

>  <VAdjEq>
0.3512581

>  <VAdjMa>
6.1699252

>  <VDistEq>
3.7950449

>  <VDistMa>
9.7919512

>  <vdw_area>
445.71768

>  <vdw_vol>
543.60315

>  <vsa_acc>
79.441727

>  <vsa_acid>
0

>  <vsa_base>
0

>  <vsa_don>
23.425066

>  <vsa_hyd>
213.17622

>  <vsa_other>
79.542717

>  <vsa_pol>
130.00063

>  <Weight>
511.56799

>  <weinerPath>
3413

>  <weinerPol>
51

>  <zagreb>
176

$$$$