O1C(C)C(OC2OC(C)C(OC(=O)CC)C(O)(C2)C)C(N(C)C)C(O)C1OC1C(OC)C(OC(=O)CC)CC(OC(C/C=CC=CC(O)C(CC1CC=O)C)C)=O
  MOE2013           2D

 57 59  0  0  1  0  0  0  0  0999 V2000
    0.0000    0.0000    0.0000 O   0  0  0  0  0  0  0  0  0  0  0  0
    0.7560   -1.2960    0.0000 C   0  0  3  0  0  0  0  0  0  0  0  0
    2.2560   -1.2890    0.0000 C   0  0  0  0  0  0  0  0  0  0  0  0
    0.0110   -2.5980    0.0000 C   0  0  3  0  0  0  0  0  0  0  0  0
    0.7670   -3.8940    0.0000 O   0  0  0  0  0  0  0  0  0  0  0  0
    2.2670   -3.8870    0.0000 C   0  0  3  0  0  0  0  0  0  0  0  0
    3.0110   -2.5850    0.0000 O   0  0  0  0  0  0  0  0  0  0  0  0
    4.5110   -2.5790    0.0000 C   0  0  3  0  0  0  0  0  0  0  0  0
    5.2560   -1.2760    0.0000 C   0  0  0  0  0  0  0  0  0  0  0  0
    5.2670   -3.8740    0.0000 C   0  0  3  0  0  0  0  0  0  0  0  0
    6.7670   -3.8680    0.0000 O   0  0  0  0  0  0  0  0  0  0  0  0
    7.5110   -2.5660    0.0000 C   0  0  0  0  0  0  0  0  0  0  0  0
    6.7560   -1.2700    0.0000 O   0  0  0  0  0  0  0  0  0  0  0  0
    9.0110   -2.5590    0.0000 C   0  0  0  0  0  0  0  0  0  0  0  0
    9.7560   -1.2570    0.0000 C   0  0  0  0  0  0  0  0  0  0  0  0
    4.5220   -5.1770    0.0000 C   0  0  3  0  0  0  0  0  0  0  0  0
    4.5290   -6.6770    0.0000 O   0  0  0  0  0  0  0  0  0  0  0  0
    3.0220   -5.1830    0.0000 C   0  0  0  0  0  0  0  0  0  0  0  0
    5.8250   -5.9210    0.0000 C   0  0  0  0  0  0  0  0  0  0  0  0
   -1.4890   -2.6050    0.0000 C   0  0  3  0  0  0  0  0  0  0  0  0
   -2.2330   -3.9070    0.0000 N   0  0  0  0  0  0  0  0  0  0  0  0
   -1.4770   -5.2030    0.0000 C   0  0  0  0  0  0  0  0  0  0  0  0
   -3.7330   -3.9130    0.0000 C   0  0  0  0  0  0  0  0  0  0  0  0
   -2.2440   -1.3090    0.0000 C   0  0  3  0  0  0  0  0  0  0  0  0
   -3.6520   -1.8280    0.0000 O   0  0  0  0  0  0  0  0  0  0  0  0
   -1.5000   -0.0060    0.0000 C   0  0  3  0  0  0  0  0  0  0  0  0
   -1.7670    1.4700    0.0000 O   0  0  0  0  0  0  0  0  0  0  0  0
   -2.9990    2.3250    0.0000 C   0  0  3  0  0  0  0  0  0  0  0  0
   -4.1540    1.6370    0.0000 C   0  0  3  0  0  0  0  0  0  0  0  0
   -3.9290    0.1550    0.0000 O   0  0  0  0  0  0  0  0  0  0  0  0
   -5.1000   -0.7820    0.0000 C   0  0  0  0  0  0  0  0  0  0  0  0
   -5.5950    1.9820    0.0000 C   0  0  3  0  0  0  0  0  0  0  0  0
   -5.1870    0.5390    0.0000 O   0  0  0  0  0  0  0  0  0  0  0  0
   -6.2330   -0.5370    0.0000 C   0  0  0  0  0  0  0  0  0  0  0  0
   -5.8240   -1.9800    0.0000 O   0  0  0  0  0  0  0  0  0  0  0  0
   -7.6870   -0.1690    0.0000 C   0  0  0  0  0  0  0  0  0  0  0  0
   -8.7330   -1.2440    0.0000 C   0  0  0  0  0  0  0  0  0  0  0  0
   -6.6420    0.9340    0.0000 C   0  0  0  0  0  0  0  0  0  0  0  0
   -7.9870    0.9160    0.0000 C   0  0  0  0  0  0  0  0  0  0  0  0
   -9.1890    1.5710    0.0000 O   0  0  0  0  0  0  0  0  0  0  0  0
   -9.6170    2.9560    0.0000 C   0  0  3  0  0  0  0  0  0  0  0  0
   -8.7100    4.1280    0.0000 C   0  0  0  0  0  0  0  0  0  0  0  0
   -9.2750    5.5350    0.0000 C   0  0  0  0  0  0  0  0  0  0  0  0
   -8.2640    6.6840    0.0000 C   0  0  0  0  0  0  0  0  0  0  0  0
   -6.8100    6.3260    0.0000 C   0  0  0  0  0  0  0  0  0  0  0  0
   -5.7570    7.3910    0.0000 C   0  0  0  0  0  0  0  0  0  0  0  0
   -4.2950    6.9370    0.0000 C   0  0  3  0  0  0  0  0  0  0  0  0
   -3.1640    7.9220    0.0000 O   0  0  0  0  0  0  0  0  0  0  0  0
   -4.0490    5.4420    0.0000 C   0  0  3  0  0  0  0  0  0  0  0  0
   -2.6640    4.9150    0.0000 C   0  0  0  0  0  0  0  0  0  0  0  0
   -2.3100    3.5070    0.0000 C   0  0  3  0  0  0  0  0  0  0  0  0
   -0.8100    3.5580    0.0000 C   0  0  0  0  0  0  0  0  0  0  0  0
   -0.1050    4.8820    0.0000 C   0  0  0  0  0  0  0  0  0  0  0  0
    1.3940    4.9330    0.0000 O   0  0  0  0  0  0  0  0  0  0  0  0
   -5.2110    4.4930    0.0000 C   0  0  0  0  0  0  0  0  0  0  0  0
  -11.0930    3.2250    0.0000 C   0  0  0  0  0  0  0  0  0  0  0  0
   -8.3470   -0.5400    0.0000 O   0  0  0  0  0  0  0  0  0  0  0  0
  1  2  1  0  0  0  0
  1 26  1  0  0  0  0
  2  3  1  0  0  0  0
  2  4  1  0  0  0  0
  4  5  1  0  0  0  0
  4 20  1  0  0  0  0
  5  6  1  0  0  0  0
  6  7  1  0  0  0  0
  6 18  1  0  0  0  0
  7  8  1  0  0  0  0
  8  9  1  0  0  0  0
  8 10  1  0  0  0  0
 10 11  1  0  0  0  0
 10 16  1  0  0  0  0
 11 12  1  0  0  0  0
 12 13  2  0  0  0  0
 12 14  1  0  0  0  0
 14 15  1  0  0  0  0
 16 17  1  0  0  0  0
 16 18  1  0  0  0  0
 16 19  1  0  0  0  0
 20 21  1  0  0  0  0
 20 24  1  0  0  0  0
 21 22  1  0  0  0  0
 21 23  1  0  0  0  0
 24 25  1  0  0  0  0
 24 26  1  0  0  0  0
 26 27  1  0  0  0  0
 27 28  1  0  0  0  0
 28 29  1  0  0  0  0
 28 51  1  0  0  0  0
 29 30  1  0  0  0  0
 29 32  1  0  0  0  0
 30 31  1  0  0  0  0
 32 33  1  0  0  0  0
 32 38  1  0  0  0  0
 33 34  1  0  0  0  0
 34 35  2  0  0  0  0
 34 36  1  0  0  0  0
 36 37  1  0  0  0  0
 38 39  1  0  0  0  0
 39 40  1  0  0  0  0
 39 57  2  0  0  0  0
 40 41  1  0  0  0  0
 41 42  1  0  0  0  0
 41 56  1  0  0  0  0
 42 43  1  0  0  0  0
 43 44  2  3  0  0  0
 44 45  1  0  0  0  0
 45 46  2  3  0  0  0
 46 47  1  0  0  0  0
 47 48  1  0  0  0  0
 47 49  1  0  0  0  0
 49 50  1  0  0  0  0
 49 55  1  0  0  0  0
 50 51  1  0  0  0  0
 51 52  1  0  0  0  0
 52 53  1  0  0  0  0
 53 54  2  0  0  0  0
M  END
>  <Index>
1654

>  <ID>
HT1395

>  <class>
1

>  <apol>
129.96513

>  <ast_fraglike>
0

>  <ast_fraglike_ext>
0

>  <ast_violation>
2

>  <ast_violation_ext>
4

>  <a_acc>
13

>  <a_acid>
0

>  <a_aro>
0

>  <a_base>
0

>  <a_count>
124

>  <a_don>
3

>  <a_donacc>
16

>  <a_heavy>
57

>  <a_hyd>
35

>  <a_IC>
177.62938

>  <a_ICM>
1.432495

>  <a_nB>
0

>  <a_nBr>
0

>  <a_nC>
41

>  <a_nCl>
0

>  <a_nF>
0

>  <a_nH>
67

>  <a_nI>
0

>  <a_nN>
1

>  <a_nO>
15

>  <a_nP>
0

>  <a_nS>
0

>  <balabanJ>
1.9851004

>  <BCUT_PEOE_0>
-2.8116236

>  <BCUT_PEOE_1>
-0.44926366

>  <BCUT_PEOE_2>
0.54777062

>  <BCUT_PEOE_3>
2.837781

>  <BCUT_SLOGP_0>
-2.9522662

>  <BCUT_SLOGP_1>
-0.41305423

>  <BCUT_SLOGP_2>
0.46739134

>  <BCUT_SLOGP_3>
2.7685237

>  <BCUT_SMR_0>
-2.5899093

>  <BCUT_SMR_1>
-0.36378509

>  <BCUT_SMR_2>
0.63661325

>  <BCUT_SMR_3>
3.0449693

>  <bpol>
94.384872

>  <b_1rotN>
12

>  <b_1rotR>
0.20338982

>  <b_ar>
0

>  <b_count>
126

>  <b_double>
6

>  <b_heavy>
59

>  <b_max1len>
4

>  <b_rotN>
14

>  <b_rotR>
0.23728813

>  <b_single>
120

>  <b_triple>
0

>  <chi0>
42.61179

>  <chi0v>
35.184586

>  <chi0v_C>
28.496754

>  <chi0_C>
29.377586

>  <chi1>
26.86105

>  <chi1v>
20.115576

>  <chi1v_C>
13.525823

>  <chi1_C>
14.448326

>  <chiral>
16

>  <chiral_u>
16

>  <density>
0.74303639

>  <diameter>
22

>  <FCharge>
0

>  <GCUT_PEOE_0>
-0.85206801

>  <GCUT_PEOE_1>
-0.35980779

>  <GCUT_PEOE_2>
0.04886625

>  <GCUT_PEOE_3>
3.417968

>  <GCUT_SLOGP_0>
-0.96996391

>  <GCUT_SLOGP_1>
-0.28923693

>  <GCUT_SLOGP_2>
-0.0082121762

>  <GCUT_SLOGP_3>
3.3811605

>  <GCUT_SMR_0>
-0.53336293

>  <GCUT_SMR_1>
-0.19227801

>  <GCUT_SMR_2>
0.1271822

>  <GCUT_SMR_3>
3.6204243

>  <Kier1>
51.350761

>  <Kier2>
24.589926

>  <Kier3>
15.097633

>  <KierA1>
46.788994

>  <KierA2>
22.367224

>  <KierA3>
13.716532

>  <KierFlex>
18.360348

>  <lip_acc>
16

>  <lip_don>
3

>  <lip_druglike>
0

>  <lip_violation>
2

>  <logP(o/w)>
3.18748

>  <logS>
-4.3269601

>  <mr>
20.923758

>  <mutagenic>
0

>  <nmol>
1

>  <opr_brigid>
28

>  <opr_leadlike>
0

>  <opr_nring>
2

>  <opr_nrot>
29

>  <opr_violation>
3

>  <PC+>
0

>  <PC->
0

>  <PEOE_PC+>
5.9080639

>  <PEOE_PC->
-5.9080639

>  <PEOE_RPC+>
0.044855047

>  <PEOE_RPC->
0.065587282

>  <PEOE_VSA+0>
243.21451

>  <PEOE_VSA+1>
121.67963

>  <PEOE_VSA+2>
47.294914

>  <PEOE_VSA+3>
22.309816

>  <PEOE_VSA+4>
30.972517

>  <PEOE_VSA+5>
44.125496

>  <PEOE_VSA+6>
0

>  <PEOE_VSA-0>
138.87071

>  <PEOE_VSA-1>
105.26265

>  <PEOE_VSA-2>
0

>  <PEOE_VSA-3>
0

>  <PEOE_VSA-4>
0

>  <PEOE_VSA-5>
40.700764

>  <PEOE_VSA-6>
56.89959

>  <PEOE_VSA_FHYD>
0.79714298

>  <PEOE_VSA_FNEG>
0.40141129

>  <PEOE_VSA_FPNEG>
0.11464448

>  <PEOE_VSA_FPOL>
0.20285699

>  <PEOE_VSA_FPOS>
0.59858871

>  <PEOE_VSA_FPPOS>
0.08821252

>  <PEOE_VSA_HYD>
678.63226

>  <PEOE_VSA_NEG>
341.7337

>  <PEOE_VSA_PNEG>
97.600349

>  <PEOE_VSA_POL>
172.69836

>  <PEOE_VSA_POS>
509.59689

>  <PEOE_VSA_PPOS>
75.098015

>  <petitjean>
0.5

>  <petitjeanSC>
1

>  <Q_PC+>
0

>  <Q_PC->
0

>  <Q_RPC+>
0

>  <Q_RPC->
0

>  <Q_VSA_FHYD>
1

>  <Q_VSA_FNEG>
0

>  <Q_VSA_FPNEG>
0

>  <Q_VSA_FPOL>
0

>  <Q_VSA_FPOS>
1

>  <Q_VSA_FPPOS>
0

>  <Q_VSA_HYD>
851.33063

>  <Q_VSA_NEG>
0

>  <Q_VSA_PNEG>
0

>  <Q_VSA_POL>
0

>  <Q_VSA_POS>
851.33063

>  <Q_VSA_PPOS>
0

>  <radius>
11

>  <reactive>
1

>  <rings>
3

>  <RPC+>
0

>  <RPC->
0

>  <rsynth>
0.63157892

>  <SlogP>
2.7674

>  <SlogP_VSA0>
76.155678

>  <SlogP_VSA1>
26.360706

>  <SlogP_VSA2>
289.31467

>  <SlogP_VSA3>
0

>  <SlogP_VSA4>
8.8215923

>  <SlogP_VSA5>
101.17825

>  <SlogP_VSA6>
0

>  <SlogP_VSA7>
70.572739

>  <SlogP_VSA8>
132.07884

>  <SlogP_VSA9>
233.2821

>  <SMR>
20.530439

>  <SMR_VSA0>
183.44797

>  <SMR_VSA1>
79.279991

>  <SMR_VSA2>
8.8215923

>  <SMR_VSA3>
85.721466

>  <SMR_VSA4>
0

>  <SMR_VSA5>
202.65158

>  <SMR_VSA6>
23.236393

>  <SMR_VSA7>
354.60556

>  <TPSA>
206.05

>  <VAdjEq>
0.22515193

>  <VAdjMa>
6.8826432

>  <VDistEq>
4.1386619

>  <VDistMa>
11.417174

>  <vdw_area>
851.33063

>  <vdw_vol>
1095.4767

>  <vsa_acc>
66.786461

>  <vsa_acid>
0

>  <vsa_base>
0

>  <vsa_don>
0

>  <vsa_hyd>
578.91174

>  <vsa_other>
103.11224

>  <vsa_pol>
107.48723

>  <Weight>
813.979

>  <weinerPath>
13446

>  <weinerPol>
98

>  <zagreb>
284

$$$$