Fc1ccc(cc1)-c1c2c(nc(C3CC3)c1C=C[C@@H](O)C[C@@H](O)CC(O)=O)cccc2
  MOE2013           2D

 31 34  0  0  1  0  0  0  0  0999 V2000
    0.0000    0.0000    0.0000 F   0  0  0  0  0  0  0  0  0  0  0  0
    0.7400   -1.3050    0.0000 C   0  0  0  0  0  0  0  0  0  0  0  0
   -0.0200   -2.5980    0.0000 C   0  0  0  0  0  0  0  0  0  0  0  0
    0.7190   -3.9030    0.0000 C   0  0  0  0  0  0  0  0  0  0  0  0
    2.2190   -3.9150    0.0000 C   0  0  0  0  0  0  0  0  0  0  0  0
    2.9800   -2.6210    0.0000 C   0  0  0  0  0  0  0  0  0  0  0  0
    2.2400   -1.3170    0.0000 C   0  0  0  0  0  0  0  0  0  0  0  0
    2.9590   -5.2190    0.0000 C   0  0  0  0  0  0  0  0  0  0  0  0
    2.1990   -6.5130    0.0000 C   0  0  0  0  0  0  0  0  0  0  0  0
    2.9390   -7.8170    0.0000 C   0  0  0  0  0  0  0  0  0  0  0  0
    4.4390   -7.8290    0.0000 N   0  0  0  0  0  0  0  0  0  0  0  0
    5.1990   -6.5360    0.0000 C   0  0  0  0  0  0  0  0  0  0  0  0
    6.6990   -6.5480    0.0000 C   0  0  0  0  0  0  0  0  0  0  0  0
    8.0040   -5.8080    0.0000 C   0  0  0  0  0  0  0  0  0  0  0  0
    7.9920   -7.3080    0.0000 C   0  0  0  0  0  0  0  0  0  0  0  0
    4.4590   -5.2310    0.0000 C   0  0  0  0  0  0  0  0  0  0  0  0
    5.2190   -3.9380    0.0000 C   0  0  0  0  0  0  0  0  0  0  0  0
    6.7190   -3.9500    0.0000 C   0  0  0  0  0  0  0  0  0  0  0  0
    7.4790   -2.6570    0.0000 C   0  0  1  0  0  0  0  0  0  0  0  0
    6.7400   -1.3520    0.0000 O   0  0  0  0  0  0  0  0  0  0  0  0
    8.9790   -2.6680    0.0000 C   0  0  0  0  0  0  0  0  0  0  0  0
    9.7400   -1.3750    0.0000 C   0  0  1  0  0  0  0  0  0  0  0  0
    9.0000   -0.0700    0.0000 O   0  0  0  0  0  0  0  0  0  0  0  0
   11.2390   -1.3870    0.0000 C   0  0  0  0  0  0  0  0  0  0  0  0
   12.0000   -0.0940    0.0000 C   0  0  0  0  0  0  0  0  0  0  0  0
   13.5000   -0.1060    0.0000 O   0  0  0  0  0  0  0  0  0  0  0  0
   11.2600    1.2110    0.0000 O   0  0  0  0  0  0  0  0  0  0  0  0
    2.1790   -9.1110    0.0000 C   0  0  0  0  0  0  0  0  0  0  0  0
    0.6790   -9.0990    0.0000 C   0  0  0  0  0  0  0  0  0  0  0  0
   -0.0610   -7.7940    0.0000 C   0  0  0  0  0  0  0  0  0  0  0  0
    0.6990   -6.5010    0.0000 C   0  0  0  0  0  0  0  0  0  0  0  0
  1  2  1  0  0  0  0
  2  3  1  0  0  0  0
  2  7  2  0  0  0  0
  3  4  2  0  0  0  0
  4  5  1  0  0  0  0
  5  6  2  0  0  0  0
  5  8  1  0  0  0  0
  6  7  1  0  0  0  0
  8  9  1  0  0  0  0
  8 16  2  0  0  0  0
  9 10  1  0  0  0  0
  9 31  2  0  0  0  0
 10 11  1  0  0  0  0
 10 28  2  0  0  0  0
 11 12  2  0  0  0  0
 12 13  1  0  0  0  0
 12 16  1  0  0  0  0
 13 14  1  0  0  0  0
 13 15  1  0  0  0  0
 14 15  1  0  0  0  0
 16 17  1  0  0  0  0
 17 18  2  3  0  0  0
 18 19  1  0  0  0  0
 19 20  1  1  0  0  0
 19 21  1  0  0  0  0
 21 22  1  0  0  0  0
 22 23  1  1  0  0  0
 22 24  1  0  0  0  0
 24 25  1  0  0  0  0
 25 26  1  0  0  0  0
 25 27  2  0  0  0  0
 28 29  1  0  0  0  0
 29 30  2  0  0  0  0
 30 31  1  0  0  0  0
M  END
>  <Index>
1694

>  <ID>
HT1698

>  <class>
1

>  <apol>
64.868034

>  <ast_fraglike>
0

>  <ast_fraglike_ext>
0

>  <ast_violation>
4

>  <ast_violation_ext>
5

>  <a_acc>
5

>  <a_acid>
0

>  <a_aro>
16

>  <a_base>
0

>  <a_count>
55

>  <a_don>
4

>  <a_donacc>
9

>  <a_heavy>
31

>  <a_hyd>
25

>  <a_IC>
83.839279

>  <a_ICM>
1.5243505

>  <a_nB>
0

>  <a_nBr>
0

>  <a_nC>
25

>  <a_nCl>
0

>  <a_nF>
1

>  <a_nH>
24

>  <a_nI>
0

>  <a_nN>
1

>  <a_nO>
4

>  <a_nP>
0

>  <a_nS>
0

>  <balabanJ>
1.4559528

>  <BCUT_PEOE_0>
-2.5839064

>  <BCUT_PEOE_1>
-0.60505593

>  <BCUT_PEOE_2>
0.65008152

>  <BCUT_PEOE_3>
2.7463334

>  <BCUT_SLOGP_0>
-2.64013

>  <BCUT_SLOGP_1>
-0.53807992

>  <BCUT_SLOGP_2>
0.75831795

>  <BCUT_SLOGP_3>
2.8927338

>  <BCUT_SMR_0>
-2.3626616

>  <BCUT_SMR_1>
-0.43927282

>  <BCUT_SMR_2>
0.84924805

>  <BCUT_SMR_3>
3.0001206

>  <bpol>
29.717968

>  <b_1rotN>
8

>  <b_1rotR>
0.23529412

>  <b_ar>
17

>  <b_count>
58

>  <b_double>
2

>  <b_heavy>
34

>  <b_max1len>
6

>  <b_rotN>
8

>  <b_rotR>
0.23529412

>  <b_single>
39

>  <b_triple>
0

>  <chi0>
21.957455

>  <chi0v>
16.909048

>  <chi0v_C>
14.333981

>  <chi0_C>
16.250347

>  <chi1>
14.918724

>  <chi1v>
10.367854

>  <chi1v_C>
8.787529

>  <chi1_C>
11.215476

>  <chiral>
2

>  <chiral_u>
0

>  <density>
0.75105602

>  <diameter>
14

>  <FCharge>
0

>  <GCUT_PEOE_0>
-0.7931127

>  <GCUT_PEOE_1>
-0.42595899

>  <GCUT_PEOE_2>
0.083469868

>  <GCUT_PEOE_3>
2.7645631

>  <GCUT_SLOGP_0>
-0.87814623

>  <GCUT_SLOGP_1>
-0.32817683

>  <GCUT_SLOGP_2>
0.16445385

>  <GCUT_SLOGP_3>
2.8974259

>  <GCUT_SMR_0>
-0.5246743

>  <GCUT_SMR_1>
-0.22757693

>  <GCUT_SMR_2>
0.2154963

>  <GCUT_SMR_3>
3.0594115

>  <Kier1>
24.134949

>  <Kier2>
10.950521

>  <Kier3>
5.9259257

>  <KierA1>
18.168606

>  <KierA2>
8.1600056

>  <KierA3>
4.3829918

>  <KierFlex>
4.7824492

>  <lip_acc>
5

>  <lip_don>
3

>  <lip_druglike>
1

>  <lip_violation>
0

>  <logP(o/w)>
4.5300002

>  <logS>
-5.4635

>  <mr>
11.716016

>  <mutagenic>
0

>  <nmol>
1

>  <opr_brigid>
21

>  <opr_leadlike>
1

>  <opr_nring>
4

>  <opr_nrot>
8

>  <opr_violation>
1

>  <PC+>
0

>  <PC->
0

>  <PEOE_PC+>
2.4078834

>  <PEOE_PC->
-2.4078834

>  <PEOE_RPC+>
0.10883577

>  <PEOE_RPC->
0.16246226

>  <PEOE_VSA+0>
53.715405

>  <PEOE_VSA+1>
83.094902

>  <PEOE_VSA+2>
9.0208454

>  <PEOE_VSA+3>
0

>  <PEOE_VSA+4>
30.972517

>  <PEOE_VSA+5>
14.708499

>  <PEOE_VSA+6>
0

>  <PEOE_VSA-0>
56.375877

>  <PEOE_VSA-1>
85.784325

>  <PEOE_VSA-2>
0

>  <PEOE_VSA-3>
0

>  <PEOE_VSA-4>
11.908636

>  <PEOE_VSA-5>
19.249496

>  <PEOE_VSA-6>
23.30262

>  <PEOE_VSA_FHYD>
0.74199116

>  <PEOE_VSA_FNEG>
0.50658125

>  <PEOE_VSA_FPNEG>
0.14031462

>  <PEOE_VSA_FPOL>
0.25800881

>  <PEOE_VSA_FPOS>
0.49341878

>  <PEOE_VSA_FPPOS>
0.1176942

>  <PEOE_VSA_HYD>
287.99136

>  <PEOE_VSA_NEG>
196.62096

>  <PEOE_VSA_PNEG>
54.460754

>  <PEOE_VSA_POL>
100.14177

>  <PEOE_VSA_POS>
191.51218

>  <PEOE_VSA_PPOS>
45.681019

>  <petitjean>
0.5

>  <petitjeanSC>
1

>  <Q_PC+>
0

>  <Q_PC->
0

>  <Q_RPC+>
0

>  <Q_RPC->
0

>  <Q_VSA_FHYD>
1

>  <Q_VSA_FNEG>
0

>  <Q_VSA_FPNEG>
0

>  <Q_VSA_FPOL>
0

>  <Q_VSA_FPOS>
1

>  <Q_VSA_FPPOS>
0

>  <Q_VSA_HYD>
388.13312

>  <Q_VSA_NEG>
0

>  <Q_VSA_PNEG>
0

>  <Q_VSA_POL>
0

>  <Q_VSA_POS>
388.13312

>  <Q_VSA_PPOS>
0

>  <radius>
7

>  <reactive>
0

>  <rings>
4

>  <RPC+>
0

>  <RPC->
0

>  <rsynth>
0.61290324

>  <SlogP>
4.5180998

>  <SlogP_VSA0>
50.770454

>  <SlogP_VSA1>
24.530994

>  <SlogP_VSA2>
45.920532

>  <SlogP_VSA3>
25.385227

>  <SlogP_VSA4>
5.9423227

>  <SlogP_VSA5>
0

>  <SlogP_VSA6>
4.4107962

>  <SlogP_VSA7>
169.87691

>  <SlogP_VSA8>
93.116806

>  <SlogP_VSA9>
14.960114

>  <SMR>
11.70294

>  <SMR_VSA0>
23.862217

>  <SMR_VSA1>
82.516098

>  <SMR_VSA2>
34.506245

>  <SMR_VSA3>
23.290417

>  <SMR_VSA4>
11.088251

>  <SMR_VSA5>
234.26228

>  <SMR_VSA6>
25.388649

>  <SMR_VSA7>
0

>  <TPSA>
90.650002

>  <VAdjEq>
0.36875206

>  <VAdjMa>
6.0874629

>  <VDistEq>
3.5640109

>  <VDistMa>
9.6419039

>  <vdw_area>
388.13312

>  <vdw_vol>
561.16718

>  <vsa_acc>
5.6825762

>  <vsa_acid>
0

>  <vsa_base>
0

>  <vsa_don>
0

>  <vsa_hyd>
283.60724

>  <vsa_other>
14.708499

>  <vsa_pol>
59.95026

>  <Weight>
421.46799

>  <weinerPath>
2681

>  <weinerPol>
49

>  <zagreb>
164

$$$$