s1cc(nc1N)/C(=NOC)/C(=O)N[C@H]1[C@H]2SCC(COC)=C(N2C1=O)C(OC(OC(OC(C)C)=O)C)=O
  MOE2013           2D

 37 39  0  0  1  0  0  0  0  0999 V2000
    0.0000    0.0000    0.0000 S   0  0  0  0  0  0  0  0  0  0  0  0
   -1.4850   -0.2110    0.0000 C   0  0  0  0  0  0  0  0  0  0  0  0
   -1.7430   -1.6890    0.0000 C   0  0  0  0  0  0  0  0  0  0  0  0
   -0.4180   -2.3910    0.0000 N   0  0  0  0  0  0  0  0  0  0  0  0
    0.6600   -1.3470    0.0000 C   0  0  0  0  0  0  0  0  0  0  0  0
    2.1370   -1.6050    0.0000 N   0  0  0  0  0  0  0  0  0  0  0  0
   -3.0910   -2.3480    0.0000 C   0  0  0  0  0  0  0  0  0  0  0  0
   -3.1930   -3.8450    0.0000 N   0  0  0  0  0  0  0  0  0  0  0  0
   -1.9480   -4.6820    0.0000 O   0  0  0  0  0  0  0  0  0  0  0  0
   -2.0500   -6.1780    0.0000 C   0  0  0  0  0  0  0  0  0  0  0  0
   -4.3350   -1.5110    0.0000 C   0  0  0  0  0  0  0  0  0  0  0  0
   -4.2330   -0.0150    0.0000 O   0  0  0  0  0  0  0  0  0  0  0  0
   -5.6830   -2.1710    0.0000 N   0  0  0  0  0  0  0  0  0  0  0  0
   -6.9270   -1.3340    0.0000 C   0  0  1  0  0  0  0  0  0  0  0  0
   -7.2160    0.1380    0.0000 C   0  0  1  0  0  0  0  0  0  0  0  0
   -6.7300    1.5570    0.0000 S   0  0  0  0  0  0  0  0  0  0  0  0
   -7.7150    2.6880    0.0000 C   0  0  0  0  0  0  0  0  0  0  0  0
   -9.1870    2.3990    0.0000 C   0  0  0  0  0  0  0  0  0  0  0  0
  -10.1730    3.5300    0.0000 C   0  0  0  0  0  0  0  0  0  0  0  0
   -9.6870    4.9490    0.0000 O   0  0  0  0  0  0  0  0  0  0  0  0
  -10.6730    6.0790    0.0000 C   0  0  0  0  0  0  0  0  0  0  0  0
   -9.6740    0.9800    0.0000 C   0  0  0  0  0  0  0  0  0  0  0  0
   -8.6880   -0.1500    0.0000 N   0  0  0  0  0  0  0  0  0  0  0  0
   -8.3990   -1.6220    0.0000 C   0  0  0  0  0  0  0  0  0  0  0  0
   -9.2360   -2.8670    0.0000 O   0  0  0  0  0  0  0  0  0  0  0  0
  -11.1460    0.6920    0.0000 C   0  0  0  0  0  0  0  0  0  0  0  0
  -11.6320   -0.7270    0.0000 O   0  0  0  0  0  0  0  0  0  0  0  0
  -13.1040   -1.0160    0.0000 C   0  0  3  0  0  0  0  0  0  0  0  0
  -13.5900   -2.4350    0.0000 O   0  0  0  0  0  0  0  0  0  0  0  0
  -15.0620   -2.7230    0.0000 C   0  0  0  0  0  0  0  0  0  0  0  0
  -15.5480   -4.1420    0.0000 O   0  0  0  0  0  0  0  0  0  0  0  0
  -17.0200   -4.4310    0.0000 C   0  0  0  0  0  0  0  0  0  0  0  0
  -18.0060   -3.3000    0.0000 C   0  0  0  0  0  0  0  0  0  0  0  0
  -17.5070   -5.8500    0.0000 C   0  0  0  0  0  0  0  0  0  0  0  0
  -16.0480   -1.5920    0.0000 O   0  0  0  0  0  0  0  0  0  0  0  0
  -14.0900    0.1150    0.0000 C   0  0  0  0  0  0  0  0  0  0  0  0
  -12.1310    1.8220    0.0000 O   0  0  0  0  0  0  0  0  0  0  0  0
  1  2  1  0  0  0  0
  1  5  1  0  0  0  0
  2  3  2  0  0  0  0
  3  4  1  0  0  0  0
  3  7  1  0  0  0  0
  4  5  2  0  0  0  0
  5  6  1  0  0  0  0
  7  8  2  3  0  0  0
  7 11  1  0  0  0  0
  8  9  1  0  0  0  0
  9 10  1  0  0  0  0
 11 12  2  0  0  0  0
 11 13  1  0  0  0  0
 14 13  1  6  0  0  0
 14 15  1  0  0  0  0
 14 24  1  0  0  0  0
 15 16  1  6  0  0  0
 15 23  1  0  0  0  0
 16 17  1  0  0  0  0
 17 18  1  0  0  0  0
 18 19  1  0  0  0  0
 18 22  2  0  0  0  0
 19 20  1  0  0  0  0
 20 21  1  0  0  0  0
 22 23  1  0  0  0  0
 22 26  1  0  0  0  0
 23 24  1  0  0  0  0
 24 25  2  0  0  0  0
 26 27  1  0  0  0  0
 26 37  2  0  0  0  0
 27 28  1  0  0  0  0
 28 29  1  0  0  0  0
 28 36  1  0  0  0  0
 29 30  1  0  0  0  0
 30 31  1  0  0  0  0
 30 35  2  0  0  0  0
 31 32  1  0  0  0  0
 32 33  1  0  0  0  0
 32 34  1  0  0  0  0
M  END
>  <Index>
1475

>  <ID>
HT0419

>  <class>
1

>  <apol>
73.481415

>  <ast_fraglike>
0

>  <ast_fraglike_ext>
0

>  <ast_violation>
2

>  <ast_violation_ext>
4

>  <a_acc>
7

>  <a_acid>
0

>  <a_aro>
5

>  <a_base>
0

>  <a_count>
64

>  <a_don>
2

>  <a_donacc>
9

>  <a_heavy>
37

>  <a_hyd>
16

>  <a_IC>
121.24041

>  <a_ICM>
1.8943814

>  <a_nB>
0

>  <a_nBr>
0

>  <a_nC>
21

>  <a_nCl>
0

>  <a_nF>
0

>  <a_nH>
27

>  <a_nI>
0

>  <a_nN>
5

>  <a_nO>
9

>  <a_nP>
0

>  <a_nS>
2

>  <balabanJ>
1.6377839

>  <BCUT_PEOE_0>
-2.6863306

>  <BCUT_PEOE_1>
-0.35572207

>  <BCUT_PEOE_2>
0.39930272

>  <BCUT_PEOE_3>
2.7365916

>  <BCUT_SLOGP_0>
-2.8940101

>  <BCUT_SLOGP_1>
-0.30355865

>  <BCUT_SLOGP_2>
0.42142239

>  <BCUT_SLOGP_3>
2.6146648

>  <BCUT_SMR_0>
-2.4026628

>  <BCUT_SMR_1>
-0.12689146

>  <BCUT_SMR_2>
0.58970439

>  <BCUT_SMR_3>
3.0181248

>  <bpol>
50.788589

>  <b_1rotN>
10

>  <b_1rotR>
0.25641027

>  <b_ar>
5

>  <b_count>
66

>  <b_double>
6

>  <b_heavy>
39

>  <b_max1len>
4

>  <b_rotN>
14

>  <b_rotR>
0.35897437

>  <b_single>
55

>  <b_triple>
0

>  <chi0>
27.275291

>  <chi0v>
22.343679

>  <chi0v_C>
13.800965

>  <chi0_C>
14.626874

>  <chi1>
17.564989

>  <chi1v>
12.869758

>  <chi1v_C>
4.3498411

>  <chi1_C>
4.9567957

>  <chiral>
3

>  <chiral_u>
1

>  <density>
0.86740834

>  <diameter>
18

>  <FCharge>
0

>  <GCUT_PEOE_0>
-0.82462913

>  <GCUT_PEOE_1>
-0.39046058

>  <GCUT_PEOE_2>
-0.014023675

>  <GCUT_PEOE_3>
2.7019584

>  <GCUT_SLOGP_0>
-1.3345566

>  <GCUT_SLOGP_1>
-0.36263281

>  <GCUT_SLOGP_2>
0.066708632

>  <GCUT_SLOGP_3>
2.6463451

>  <GCUT_SMR_0>
-0.52991778

>  <GCUT_SMR_1>
-0.14796539

>  <GCUT_SMR_2>
0.1784907

>  <GCUT_SMR_3>
2.9681263

>  <Kier1>
31.526627

>  <Kier2>
14.578512

>  <Kier3>
8.0277777

>  <KierA1>
27.399202

>  <KierA2>
12.618453

>  <KierA3>
6.9281187

>  <KierFlex>
9.344203

>  <lip_acc>
14

>  <lip_don>
3

>  <lip_druglike>
0

>  <lip_violation>
2

>  <logP(o/w)>
1.165

>  <logS>
-5.1510701

>  <mr>
13.437618

>  <mutagenic>
1

>  <nmol>
1

>  <opr_brigid>
15

>  <opr_leadlike>
0

>  <opr_nring>
3

>  <opr_nrot>
10

>  <opr_violation>
2

>  <PC+>
0

>  <PC->
0

>  <PEOE_PC+>
4.0855126

>  <PEOE_PC->
-4.0855126

>  <PEOE_RPC+>
0.10011735

>  <PEOE_RPC->
0.092671454

>  <PEOE_VSA+0>
82.594276

>  <PEOE_VSA+1>
120.17007

>  <PEOE_VSA+2>
32.205559

>  <PEOE_VSA+3>
46.234089

>  <PEOE_VSA+4>
0

>  <PEOE_VSA+5>
25.899061

>  <PEOE_VSA+6>
35.666977

>  <PEOE_VSA-0>
58.451572

>  <PEOE_VSA-1>
14.230966

>  <PEOE_VSA-2>
30.64588

>  <PEOE_VSA-3>
0

>  <PEOE_VSA-4>
19.249496

>  <PEOE_VSA-5>
60.765511

>  <PEOE_VSA-6>
2.6406472

>  <PEOE_VSA_FHYD>
0.72724241

>  <PEOE_VSA_FNEG>
0.35174018

>  <PEOE_VSA_FPNEG>
0.15632154

>  <PEOE_VSA_FPOL>
0.27275759

>  <PEOE_VSA_FPOS>
0.64825982

>  <PEOE_VSA_FPPOS>
0.11643605

>  <PEOE_VSA_HYD>
384.53241

>  <PEOE_VSA_NEG>
185.98407

>  <PEOE_VSA_PNEG>
82.655655

>  <PEOE_VSA_POL>
144.22169

>  <PEOE_VSA_POS>
342.77005

>  <PEOE_VSA_PPOS>
61.56604

>  <petitjean>
0.5

>  <petitjeanSC>
1

>  <Q_PC+>
0

>  <Q_PC->
0

>  <Q_RPC+>
0

>  <Q_RPC->
0

>  <Q_VSA_FHYD>
1

>  <Q_VSA_FNEG>
0

>  <Q_VSA_FPNEG>
0

>  <Q_VSA_FPOL>
0

>  <Q_VSA_FPOS>
1

>  <Q_VSA_FPPOS>
0

>  <Q_VSA_HYD>
528.75409

>  <Q_VSA_NEG>
0

>  <Q_VSA_PNEG>
0

>  <Q_VSA_POL>
0

>  <Q_VSA_POS>
528.75409

>  <Q_VSA_PPOS>
0

>  <radius>
9

>  <reactive>
1

>  <rings>
3

>  <RPC+>
0

>  <RPC->
0

>  <rsynth>
0.56756759

>  <SlogP>
0.82700002

>  <SlogP_VSA0>
50.90794

>  <SlogP_VSA1>
50.732941

>  <SlogP_VSA2>
148.12921

>  <SlogP_VSA3>
38.159824

>  <SlogP_VSA4>
2.7567475

>  <SlogP_VSA5>
96.109917

>  <SlogP_VSA6>
0

>  <SlogP_VSA7>
15.81601

>  <SlogP_VSA8>
0

>  <SlogP_VSA9>
187.83824

>  <SMR>
13.22541

>  <SMR_VSA0>
150.66718

>  <SMR_VSA1>
39.309704

>  <SMR_VSA2>
18.01075

>  <SMR_VSA3>
30.023317

>  <SMR_VSA4>
0.50074643

>  <SMR_VSA5>
48.7132

>  <SMR_VSA6>
68.982918

>  <SMR_VSA7>
234.24301

>  <TPSA>
180.97

>  <VAdjEq>
0.31532151

>  <VAdjMa>
6.2854023

>  <VDistEq>
3.92207

>  <VDistMa>
10.133896

>  <vdw_area>
528.75409

>  <vdw_vol>
642.84027

>  <vsa_acc>
73.339279

>  <vsa_acid>
0

>  <vsa_base>
0

>  <vsa_don>
23.425066

>  <vsa_hyd>
296.13235

>  <vsa_other>
109.55434

>  <vsa_pol>
96.764343

>  <Weight>
557.60498

>  <weinerPath>
4697

>  <weinerPol>
56

>  <zagreb>
188

$$$$