FC(F)(F)c1cc(NC(=O)C(C)C)ccc1[N+](=O)[O-]
  MOE2013           2D

 19 19  0  0  0  0  0  0  0  0999 V2000
    0.0000    0.0000    0.0000 F   0  0  0  0  0  0  0  0  0  0  0  0
   -0.7490   -1.3000    0.0000 C   0  0  0  0  0  0  0  0  0  0  0  0
   -2.0480   -0.5510    0.0000 F   0  0  0  0  0  0  0  0  0  0  0  0
   -1.4970   -2.6000    0.0000 F   0  0  0  0  0  0  0  0  0  0  0  0
    0.5510   -2.0480    0.0000 C   0  0  0  0  0  0  0  0  0  0  0  0
    1.8500   -1.2970    0.0000 C   0  0  0  0  0  0  0  0  0  0  0  0
    3.1490   -2.0460    0.0000 C   0  0  0  0  0  0  0  0  0  0  0  0
    4.4480   -1.2940    0.0000 N   0  0  0  0  0  0  0  0  0  0  0  0
    5.7470   -2.0430    0.0000 C   0  0  0  0  0  0  0  0  0  0  0  0
    5.7490   -3.5430    0.0000 O   0  0  0  0  0  0  0  0  0  0  0  0
    7.0460   -1.2910    0.0000 C   0  0  0  0  0  0  0  0  0  0  0  0
    7.0440    0.2090    0.0000 C   0  0  0  0  0  0  0  0  0  0  0  0
    8.3460   -2.0400    0.0000 C   0  0  0  0  0  0  0  0  0  0  0  0
    3.1510   -3.5460    0.0000 C   0  0  0  0  0  0  0  0  0  0  0  0
    1.8530   -4.2970    0.0000 C   0  0  0  0  0  0  0  0  0  0  0  0
    0.5530   -3.5480    0.0000 C   0  0  0  0  0  0  0  0  0  0  0  0
   -0.7450   -4.3000    0.0000 N   0  3  0  0  0  0  0  0  0  0  0  0
   -2.0450   -3.5510    0.0000 O   0  0  0  0  0  0  0  0  0  0  0  0
   -0.7440   -5.8000    0.0000 O   0  5  0  0  0  0  0  0  0  0  0  0
  1  2  1  0  0  0  0
  2  3  1  0  0  0  0
  2  4  1  0  0  0  0
  2  5  1  0  0  0  0
  5  6  1  0  0  0  0
  5 16  2  0  0  0  0
  6  7  2  0  0  0  0
  7  8  1  0  0  0  0
  7 14  1  0  0  0  0
  8  9  1  0  0  0  0
  9 10  2  0  0  0  0
  9 11  1  0  0  0  0
 11 12  1  0  0  0  0
 11 13  1  0  0  0  0
 14 15  2  0  0  0  0
 15 16  1  0  0  0  0
 16 17  1  0  0  0  0
 17 18  2  0  0  0  0
 17 19  1  0  0  0  0
M  CHG  1  17   1
M  CHG  1  19  -1
M  END
>  <Index>
1578

>  <ID>
HT0922

>  <class>
1

>  <apol>
32.971722

>  <ast_fraglike>
0

>  <ast_fraglike_ext>
0

>  <ast_violation>
1

>  <ast_violation_ext>
1

>  <a_acc>
1

>  <a_acid>
0

>  <a_aro>
6

>  <a_base>
0

>  <a_count>
30

>  <a_don>
1

>  <a_donacc>
2

>  <a_heavy>
19

>  <a_hyd>
14

>  <a_IC>
59.589447

>  <a_ICM>
1.9863149

>  <a_nB>
0

>  <a_nBr>
0

>  <a_nC>
11

>  <a_nCl>
0

>  <a_nF>
3

>  <a_nH>
11

>  <a_nI>
0

>  <a_nN>
2

>  <a_nO>
3

>  <a_nP>
0

>  <a_nS>
0

>  <balabanJ>
2.7010489

>  <BCUT_PEOE_0>
-2.5122862

>  <BCUT_PEOE_1>
-0.3638106

>  <BCUT_PEOE_2>
0.38841543

>  <BCUT_PEOE_3>
2.5259264

>  <BCUT_SLOGP_0>
-2.5209591

>  <BCUT_SLOGP_1>
-0.25236604

>  <BCUT_SLOGP_2>
0.45770839

>  <BCUT_SLOGP_3>
2.5675063

>  <BCUT_SMR_0>
-2.2743597

>  <BCUT_SMR_1>
-0.16820414

>  <BCUT_SMR_2>
0.55819654

>  <BCUT_SMR_3>
2.7721379

>  <bpol>
18.508278

>  <b_1rotN>
3

>  <b_1rotR>
0.15789473

>  <b_ar>
6

>  <b_count>
30

>  <b_double>
2

>  <b_heavy>
19

>  <b_max1len>
4

>  <b_rotN>
5

>  <b_rotR>
0.2631579

>  <b_single>
22

>  <b_triple>
0

>  <chi0>
14.792529

>  <chi0v>
10.115252

>  <chi0v_C>
6.809401

>  <chi0_C>
7.5080719

>  <chi1>
8.6249161

>  <chi1v>
5.2912354

>  <chi1v_C>
3.4314096

>  <chi1_C>
4.2430353

>  <chiral>
0

>  <chiral_u>
0

>  <density>
0.91518998

>  <diameter>
9

>  <FCharge>
0

>  <GCUT_PEOE_0>
-0.81318027

>  <GCUT_PEOE_1>
-0.4171949

>  <GCUT_PEOE_2>
0.0018644637

>  <GCUT_PEOE_3>
2.3895471

>  <GCUT_SLOGP_0>
-1.0000378

>  <GCUT_SLOGP_1>
-0.20426667

>  <GCUT_SLOGP_2>
0.23703803

>  <GCUT_SLOGP_3>
2.4795344

>  <GCUT_SMR_0>
-0.51935726

>  <GCUT_SMR_1>
-0.15201841

>  <GCUT_SMR_2>
0.15300751

>  <GCUT_SMR_3>
2.6249335

>  <Kier1>
17.052631

>  <Kier2>
6.6352043

>  <Kier3>
4.7950053

>  <KierA1>
12.580356

>  <KierA2>
4.8050504

>  <KierA3>
3.4222739

>  <KierFlex>
3.1815393

>  <lip_acc>
5

>  <lip_don>
1

>  <lip_druglike>
1

>  <lip_violation>
0

>  <logP(o/w)>
2.9467599

>  <logS>
-3.84465

>  <mr>
6.1051521

>  <mutagenic>
0

>  <nmol>
1

>  <opr_brigid>
6

>  <opr_leadlike>
1

>  <opr_nring>
1

>  <opr_nrot>
3

>  <opr_violation>
0

>  <PC+>
0

>  <PC->
0

>  <PEOE_PC+>
1.7723529

>  <PEOE_PC->
-1.7723529

>  <PEOE_RPC+>
0.23906347

>  <PEOE_RPC->
0.18388481

>  <PEOE_VSA+0>
48.812157

>  <PEOE_VSA+1>
16.824192

>  <PEOE_VSA+2>
2.2085397

>  <PEOE_VSA+3>
8.6190128

>  <PEOE_VSA+4>
12.949531

>  <PEOE_VSA+5>
6.6995511

>  <PEOE_VSA+6>
9.0455017

>  <PEOE_VSA-0>
24.509808

>  <PEOE_VSA-1>
37.495354

>  <PEOE_VSA-2>
0

>  <PEOE_VSA-3>
35.725906

>  <PEOE_VSA-4>
0

>  <PEOE_VSA-5>
47.497971

>  <PEOE_VSA-6>
0.13689101

>  <PEOE_VSA_FHYD>
0.69532132

>  <PEOE_VSA_FNEG>
0.58024657

>  <PEOE_VSA_FPNEG>
0.19014059

>  <PEOE_VSA_FPOL>
0.30467865

>  <PEOE_VSA_FPOS>
0.41975343

>  <PEOE_VSA_FPPOS>
0.11453807

>  <PEOE_VSA_HYD>
174.19498

>  <PEOE_VSA_NEG>
145.36594

>  <PEOE_VSA_PNEG>
47.634861

>  <PEOE_VSA_POL>
76.329445

>  <PEOE_VSA_POS>
105.15849

>  <PEOE_VSA_PPOS>
28.694584

>  <petitjean>
0.44444445

>  <petitjeanSC>
0.80000001

>  <Q_PC+>
0

>  <Q_PC->
0

>  <Q_RPC+>
0

>  <Q_RPC->
0

>  <Q_VSA_FHYD>
1

>  <Q_VSA_FNEG>
0

>  <Q_VSA_FPNEG>
0

>  <Q_VSA_FPOL>
0

>  <Q_VSA_FPOS>
1

>  <Q_VSA_FPPOS>
0

>  <Q_VSA_HYD>
250.52441

>  <Q_VSA_NEG>
0

>  <Q_VSA_PNEG>
0

>  <Q_VSA_POL>
0

>  <Q_VSA_POS>
250.52441

>  <Q_VSA_PPOS>
0

>  <radius>
5

>  <reactive>
0

>  <rings>
1

>  <RPC+>
0

>  <RPC->
0

>  <rsynth>
1

>  <SlogP>
3.5195999

>  <SlogP_VSA0>
0

>  <SlogP_VSA1>
30.35515

>  <SlogP_VSA2>
23.862217

>  <SlogP_VSA3>
50.935009

>  <SlogP_VSA4>
7.5963712

>  <SlogP_VSA5>
0

>  <SlogP_VSA6>
7.7595162

>  <SlogP_VSA7>
52.929554

>  <SlogP_VSA8>
0

>  <SlogP_VSA9>
117.04587

>  <SMR>
6.1683102

>  <SMR_VSA0>
30.947832

>  <SMR_VSA1>
44.880341

>  <SMR_VSA2>
63.10532

>  <SMR_VSA3>
3.185575

>  <SMR_VSA4>
23.524246

>  <SMR_VSA5>
52.929554

>  <SMR_VSA6>
5.2587838

>  <SMR_VSA7>
66.652031

>  <TPSA>
74.919998

>  <VAdjEq>
0.48546076

>  <VAdjMa>
5.2479277

>  <VDistEq>
3.0200377

>  <VDistMa>
8.21175

>  <vdw_area>
250.52441

>  <vdw_vol>
301.81055

>  <vsa_acc>
13.566921

>  <vsa_acid>
0

>  <vsa_base>
0

>  <vsa_don>
5.6825762

>  <vsa_hyd>
172.858

>  <vsa_other>
46.880581

>  <vsa_pol>
19.249496

>  <Weight>
276.21399

>  <weinerPath>
706

>  <weinerPol>
28

>  <zagreb>
94

$$$$