Ic1c(C(=O)N(CC(O)CO)C)c(I)c(NC(=O)C(CO)CO)c(I)c1C(=O)N(CC(O)CO)C
  MOE2013           2D

 35 35  0  0  1  0  0  0  0  0999 V2000
    0.0000    0.0000    0.0000 I   0  0  0  0  0  0  0  0  0  0  0  0
    0.7590    1.2940    0.0000 C   0  0  0  0  0  0  0  0  0  0  0  0
    0.0190    2.5980    0.0000 C   0  0  0  0  0  0  0  0  0  0  0  0
   -1.4810    2.6090    0.0000 C   0  0  0  0  0  0  0  0  0  0  0  0
   -2.2410    1.3150    0.0000 O   0  0  0  0  0  0  0  0  0  0  0  0
   -2.2220    3.9130    0.0000 N   0  0  0  0  0  0  0  0  0  0  0  0
   -3.7220    3.9240    0.0000 C   0  0  0  0  0  0  0  0  0  0  0  0
   -4.4630    5.2280    0.0000 C   0  0  3  0  0  0  0  0  0  0  0  0
   -3.7040    6.5220    0.0000 O   0  0  0  0  0  0  0  0  0  0  0  0
   -5.9630    5.2390    0.0000 C   0  0  0  0  0  0  0  0  0  0  0  0
   -6.7030    6.5430    0.0000 O   0  0  0  0  0  0  0  0  0  0  0  0
   -1.4630    5.2070    0.0000 C   0  0  0  0  0  0  0  0  0  0  0  0
    0.7780    3.8920    0.0000 C   0  0  0  0  0  0  0  0  0  0  0  0
    0.0370    5.1960    0.0000 I   0  0  0  0  0  0  0  0  0  0  0  0
    2.2780    3.8810    0.0000 C   0  0  0  0  0  0  0  0  0  0  0  0
    3.0370    5.1750    0.0000 N   0  0  0  0  0  0  0  0  0  0  0  0
    4.5370    5.1640    0.0000 C   0  0  0  0  0  0  0  0  0  0  0  0
    5.2780    3.8600    0.0000 O   0  0  0  0  0  0  0  0  0  0  0  0
    5.2960    6.4580    0.0000 C   0  0  0  0  0  0  0  0  0  0  0  0
    4.5550    7.7620    0.0000 C   0  0  0  0  0  0  0  0  0  0  0  0
    5.3150    9.0560    0.0000 O   0  0  0  0  0  0  0  0  0  0  0  0
    6.7960    6.4470    0.0000 C   0  0  0  0  0  0  0  0  0  0  0  0
    7.5550    7.7410    0.0000 O   0  0  0  0  0  0  0  0  0  0  0  0
    3.0180    2.5770    0.0000 C   0  0  0  0  0  0  0  0  0  0  0  0
    4.5180    2.5660    0.0000 I   0  0  0  0  0  0  0  0  0  0  0  0
    2.2590    1.2830    0.0000 C   0  0  0  0  0  0  0  0  0  0  0  0
    3.0000   -0.0210    0.0000 C   0  0  0  0  0  0  0  0  0  0  0  0
    2.2410   -1.3150    0.0000 O   0  0  0  0  0  0  0  0  0  0  0  0
    4.5000   -0.0320    0.0000 N   0  0  0  0  0  0  0  0  0  0  0  0
    5.2410   -1.3360    0.0000 C   0  0  0  0  0  0  0  0  0  0  0  0
    6.7410   -1.3470    0.0000 C   0  0  3  0  0  0  0  0  0  0  0  0
    7.5000   -0.0540    0.0000 O   0  0  0  0  0  0  0  0  0  0  0  0
    7.4810   -2.6520    0.0000 C   0  0  0  0  0  0  0  0  0  0  0  0
    8.9810   -2.6620    0.0000 O   0  0  0  0  0  0  0  0  0  0  0  0
    5.2590    1.2620    0.0000 C   0  0  0  0  0  0  0  0  0  0  0  0
  1  2  1  0  0  0  0
  2  3  1  0  0  0  0
  2 26  2  0  0  0  0
  3  4  1  0  0  0  0
  3 13  2  0  0  0  0
  4  5  2  0  0  0  0
  4  6  1  0  0  0  0
  6  7  1  0  0  0  0
  6 12  1  0  0  0  0
  7  8  1  0  0  0  0
  8  9  1  0  0  0  0
  8 10  1  0  0  0  0
 10 11  1  0  0  0  0
 13 14  1  0  0  0  0
 13 15  1  0  0  0  0
 15 16  1  0  0  0  0
 15 24  2  0  0  0  0
 16 17  1  0  0  0  0
 17 18  2  0  0  0  0
 17 19  1  0  0  0  0
 19 20  1  0  0  0  0
 19 22  1  0  0  0  0
 20 21  1  0  0  0  0
 22 23  1  0  0  0  0
 24 25  1  0  0  0  0
 24 26  1  0  0  0  0
 26 27  1  0  0  0  0
 27 28  2  0  0  0  0
 27 29  1  0  0  0  0
 29 30  1  0  0  0  0
 29 35  1  0  0  0  0
 30 31  1  0  0  0  0
 31 32  1  0  0  0  0
 31 33  1  0  0  0  0
 33 34  1  0  0  0  0
M  END
>  <Index>
1599

>  <ID>
HT1100

>  <class>
1

>  <apol>
80.438202

>  <ast_fraglike>
0

>  <ast_fraglike_ext>
0

>  <ast_violation>
3

>  <ast_violation_ext>
5

>  <a_acc>
9

>  <a_acid>
0

>  <a_aro>
6

>  <a_base>
0

>  <a_count>
63

>  <a_don>
7

>  <a_donacc>
16

>  <a_heavy>
35

>  <a_hyd>
20

>  <a_IC>
117.48504

>  <a_ICM>
1.8648418

>  <a_nB>
0

>  <a_nBr>
0

>  <a_nC>
20

>  <a_nCl>
0

>  <a_nF>
0

>  <a_nH>
28

>  <a_nI>
3

>  <a_nN>
3

>  <a_nO>
9

>  <a_nP>
0

>  <a_nS>
0

>  <balabanJ>
3.3309374

>  <BCUT_PEOE_0>
-2.5936935

>  <BCUT_PEOE_1>
-0.54058141

>  <BCUT_PEOE_2>
0.64701718

>  <BCUT_PEOE_3>
2.5843856

>  <BCUT_SLOGP_0>
-2.7498915

>  <BCUT_SLOGP_1>
-0.61562276

>  <BCUT_SLOGP_2>
0.55913478

>  <BCUT_SLOGP_3>
2.4572308

>  <BCUT_SMR_0>
-2.3446338

>  <BCUT_SMR_1>
-0.42341971

>  <BCUT_SMR_2>
0.80817252

>  <BCUT_SMR_3>
2.8345022

>  <bpol>
48.873795

>  <b_1rotN>
14

>  <b_1rotR>
0.40000001

>  <b_ar>
6

>  <b_count>
63

>  <b_double>
3

>  <b_heavy>
35

>  <b_max1len>
7

>  <b_rotN>
15

>  <b_rotR>
0.42857143

>  <b_single>
54

>  <b_triple>
0

>  <chi0>
27.032652

>  <chi0v>
25.383533

>  <chi0v_C>
12.474691

>  <chi0_C>
13.170844

>  <chi1>
16.35108

>  <chi1v>
13.409137

>  <chi1v_C>
4.7381649

>  <chi1_C>
5.4494896

>  <chiral>
2

>  <chiral_u>
2

>  <density>
1.2366673

>  <diameter>
14

>  <FCharge>
0

>  <GCUT_PEOE_0>
-0.8463515

>  <GCUT_PEOE_1>
-0.42485887

>  <GCUT_PEOE_2>
0.13123867

>  <GCUT_PEOE_3>
2.7443614

>  <GCUT_SLOGP_0>
-1.0006263

>  <GCUT_SLOGP_1>
-0.45976561

>  <GCUT_SLOGP_2>
0.0037915562

>  <GCUT_SLOGP_3>
2.735821

>  <GCUT_SMR_0>
-0.52288502

>  <GCUT_SMR_1>
-0.2179846

>  <GCUT_SMR_2>
0.2781716

>  <GCUT_SMR_3>
3.0763717

>  <Kier1>
33.028572

>  <Kier2>
15.421075

>  <Kier3>
8.5

>  <KierA1>
35.958652

>  <KierA2>
16.831394

>  <KierA3>
9.2941971

>  <KierFlex>
17.292408

>  <lip_acc>
12

>  <lip_don>
7

>  <lip_druglike>
0

>  <lip_violation>
3

>  <logP(o/w)>
-0.35600001

>  <logS>
-3.1830499

>  <mr>
15.343445

>  <mutagenic>
0

>  <nmol>
1

>  <opr_brigid>
6

>  <opr_leadlike>
0

>  <opr_nring>
1

>  <opr_nrot>
12

>  <opr_violation>
4

>  <PC+>
0

>  <PC->
0

>  <PEOE_PC+>
4.2811832

>  <PEOE_PC->
-4.2811832

>  <PEOE_RPC+>
0.059915438

>  <PEOE_RPC->
0.092071183

>  <PEOE_VSA+0>
105.75983

>  <PEOE_VSA+1>
146.52725

>  <PEOE_VSA+2>
0

>  <PEOE_VSA+3>
8.6190128

>  <PEOE_VSA+4>
74.894569

>  <PEOE_VSA+5>
25.899061

>  <PEOE_VSA+6>
0

>  <PEOE_VSA-0>
140.97005

>  <PEOE_VSA-1>
0

>  <PEOE_VSA-2>
0

>  <PEOE_VSA-3>
0

>  <PEOE_VSA-4>
0

>  <PEOE_VSA-5>
40.700764

>  <PEOE_VSA-6>
46.742134

>  <PEOE_VSA_FHYD>
0.68101597

>  <PEOE_VSA_FNEG>
0.38706666

>  <PEOE_VSA_FPNEG>
0.14818001

>  <PEOE_VSA_FPOL>
0.31898406

>  <PEOE_VSA_FPOS>
0.61293334

>  <PEOE_VSA_FPPOS>
0.17080404

>  <PEOE_VSA_HYD>
401.87613

>  <PEOE_VSA_NEG>
228.41293

>  <PEOE_VSA_PNEG>
87.442894

>  <PEOE_VSA_POL>
188.23653

>  <PEOE_VSA_POS>
361.69971

>  <PEOE_VSA_PPOS>
100.79363

>  <petitjean>
0.42857143

>  <petitjeanSC>
0.75

>  <Q_PC+>
0

>  <Q_PC->
0

>  <Q_RPC+>
0

>  <Q_RPC->
0

>  <Q_VSA_FHYD>
1

>  <Q_VSA_FNEG>
0

>  <Q_VSA_FPNEG>
0

>  <Q_VSA_FPOL>
0

>  <Q_VSA_FPOS>
1

>  <Q_VSA_FPPOS>
0

>  <Q_VSA_HYD>
590.11267

>  <Q_VSA_NEG>
0

>  <Q_VSA_PNEG>
0

>  <Q_VSA_POL>
0

>  <Q_VSA_POS>
590.11267

>  <Q_VSA_PPOS>
0

>  <radius>
8

>  <reactive>
0

>  <rings>
1

>  <RPC+>
0

>  <RPC->
0

>  <rsynth>
1

>  <SlogP>
-1.1099

>  <SlogP_VSA0>
152.31136

>  <SlogP_VSA1>
40.035728

>  <SlogP_VSA2>
41.778442

>  <SlogP_VSA3>
120.58419

>  <SlogP_VSA4>
58.506378

>  <SlogP_VSA5>
65.794373

>  <SlogP_VSA6>
0

>  <SlogP_VSA7>
0

>  <SlogP_VSA8>
0

>  <SlogP_VSA9>
173.10277

>  <SMR>
15.09905

>  <SMR_VSA0>
71.586647

>  <SMR_VSA1>
158.55998

>  <SMR_VSA2>
9.3897247

>  <SMR_VSA3>
19.308449

>  <SMR_VSA4>
20.767498

>  <SMR_VSA5>
0

>  <SMR_VSA6>
136.36053

>  <SMR_VSA7>
236.1404

>  <TPSA>
191.10001

>  <VAdjEq>
0.31599712

>  <VAdjMa>
6.129283

>  <VDistEq>
3.5654671

>  <VDistMa>
10.018992

>  <vdw_area>
590.11267

>  <vdw_vol>
675.33765

>  <vsa_acc>
40.700764

>  <vsa_acid>
0

>  <vsa_base>
0

>  <vsa_don>
5.6825762

>  <vsa_hyd>
376.96436

>  <vsa_other>
38.848595

>  <vsa_pol>
127.78487

>  <Weight>
835.16797

>  <weinerPath>
3584

>  <weinerPol>
61

>  <zagreb>
168

$$$$