S1[C@H]2N([C@@H](C(O)=O)C1(C)C)C(=O)[C@H]2NC(=O)[C@H](C(O)=O)c1ccsc1
  MOE2013           2D

 25 27  0  0  1  0  0  0  0  0999 V2000
    0.0000    0.0000    0.0000 S   0  0  0  0  0  0  0  0  0  0  0  0
    1.3050    0.7390    0.0000 C   0  0  1  0  0  0  0  0  0  0  0  0
    1.0050    2.2090    0.0000 N   0  0  0  0  0  0  0  0  0  0  0  0
   -0.4850    2.3780    0.0000 C   0  0  1  0  0  0  0  0  0  0  0  0
   -1.2250    3.6830    0.0000 C   0  0  0  0  0  0  0  0  0  0  0  0
   -2.7250    3.6950    0.0000 O   0  0  0  0  0  0  0  0  0  0  0  0
   -0.4640    4.9760    0.0000 O   0  0  0  0  0  0  0  0  0  0  0  0
   -1.1070    1.0130    0.0000 C   0  0  0  0  0  0  0  0  0  0  0  0
   -2.2030   -0.0110    0.0000 C   0  0  0  0  0  0  0  0  0  0  0  0
   -2.5160    1.5250    0.0000 C   0  0  0  0  0  0  0  0  0  0  0  0
    2.4750    2.5090    0.0000 C   0  0  0  0  0  0  0  0  0  0  0  0
    3.3020    3.7600    0.0000 O   0  0  0  0  0  0  0  0  0  0  0  0
    2.7750    1.0390    0.0000 C   0  0  1  0  0  0  0  0  0  0  0  0
    4.0260    0.2120    0.0000 N   0  0  0  0  0  0  0  0  0  0  0  0
    5.3680    0.8820    0.0000 C   0  0  0  0  0  0  0  0  0  0  0  0
    5.4590    2.3790    0.0000 O   0  0  0  0  0  0  0  0  0  0  0  0
    6.6190    0.0550    0.0000 C   0  0  2  0  0  0  0  0  0  0  0  0
    6.5290   -1.4420    0.0000 C   0  0  0  0  0  0  0  0  0  0  0  0
    7.7800   -2.2690    0.0000 O   0  0  0  0  0  0  0  0  0  0  0  0
    5.1870   -2.1120    0.0000 O   0  0  0  0  0  0  0  0  0  0  0  0
    7.9610    0.7250    0.0000 C   0  0  0  0  0  0  0  0  0  0  0  0
    9.2920    0.0330    0.0000 C   0  0  0  0  0  0  0  0  0  0  0  0
   10.3620    1.0850    0.0000 C   0  0  0  0  0  0  0  0  0  0  0  0
    9.6920    2.4270    0.0000 S   0  0  0  0  0  0  0  0  0  0  0  0
    8.2080    2.2050    0.0000 C   0  0  0  0  0  0  0  0  0  0  0  0
  1  8  1  0  0  0  0
  2  1  1  1  0  0  0
  2  3  1  0  0  0  0
  2 13  1  0  0  0  0
  3  4  1  0  0  0  0
  3 11  1  0  0  0  0
  4  5  1  6  0  0  0
  4  8  1  0  0  0  0
  5  6  1  0  0  0  0
  5  7  2  0  0  0  0
  8  9  1  0  0  0  0
  8 10  1  0  0  0  0
 11 12  2  0  0  0  0
 11 13  1  0  0  0  0
 13 14  1  1  0  0  0
 14 15  1  0  0  0  0
 15 16  2  0  0  0  0
 17 15  1  1  0  0  0
 17 18  1  0  0  0  0
 17 21  1  0  0  0  0
 18 19  1  0  0  0  0
 18 20  2  0  0  0  0
 21 22  1  0  0  0  0
 21 25  2  0  0  0  0
 22 23  2  0  0  0  0
 23 24  1  0  0  0  0
 24 25  1  0  0  0  0
M  END
>  <Index>
1743

>  <ID>
HT2057

>  <class>
1

>  <apol>
49.880688

>  <ast_fraglike>
0

>  <ast_fraglike_ext>
0

>  <ast_violation>
3

>  <ast_violation_ext>
5

>  <a_acc>
6

>  <a_acid>
0

>  <a_aro>
5

>  <a_base>
0

>  <a_count>
41

>  <a_don>
5

>  <a_donacc>
11

>  <a_heavy>
25

>  <a_hyd>
13

>  <a_IC>
77.546501

>  <a_ICM>
1.891378

>  <a_nB>
0

>  <a_nBr>
0

>  <a_nC>
15

>  <a_nCl>
0

>  <a_nF>
0

>  <a_nH>
16

>  <a_nI>
0

>  <a_nN>
2

>  <a_nO>
6

>  <a_nP>
0

>  <a_nS>
2

>  <balabanJ>
1.6767601

>  <BCUT_PEOE_0>
-2.6444781

>  <BCUT_PEOE_1>
-0.53627914

>  <BCUT_PEOE_2>
0.51151603

>  <BCUT_PEOE_3>
2.8506017

>  <BCUT_SLOGP_0>
-2.9002113

>  <BCUT_SLOGP_1>
-0.51716048

>  <BCUT_SLOGP_2>
0.49606919

>  <BCUT_SLOGP_3>
2.7545574

>  <BCUT_SMR_0>
-2.3907645

>  <BCUT_SMR_1>
-0.32042426

>  <BCUT_SMR_2>
0.72304142

>  <BCUT_SMR_3>
3.1313157

>  <bpol>
28.523312

>  <b_1rotN>
5

>  <b_1rotR>
0.18518518

>  <b_ar>
5

>  <b_count>
43

>  <b_double>
4

>  <b_heavy>
27

>  <b_max1len>
4

>  <b_rotN>
6

>  <b_rotR>
0.22222222

>  <b_single>
34

>  <b_triple>
0

>  <chi0>
18.516144

>  <chi0v>
14.965575

>  <chi0v_C>
9.0414515

>  <chi0_C>
9.8174725

>  <chi1>
11.647572

>  <chi1v>
9.2521505

>  <chi1v_C>
3.9760678

>  <chi1_C>
4.6051717

>  <chiral>
4

>  <chiral_u>
0

>  <density>
0.89913732

>  <diameter>
11

>  <FCharge>
0

>  <GCUT_PEOE_0>
-0.83763987

>  <GCUT_PEOE_1>
-0.45535183

>  <GCUT_PEOE_2>
0.091896921

>  <GCUT_PEOE_3>
2.7076058

>  <GCUT_SLOGP_0>
-1.1647617

>  <GCUT_SLOGP_1>
-0.42570022

>  <GCUT_SLOGP_2>
0.091213793

>  <GCUT_SLOGP_3>
2.6516953

>  <GCUT_SMR_0>
-0.53657353

>  <GCUT_SMR_1>
-0.23238148

>  <GCUT_SMR_2>
0.24365383

>  <GCUT_SMR_3>
2.9727447

>  <Kier1>
19.753086

>  <Kier2>
7.197279

>  <Kier3>
3.453032

>  <KierA1>
17.663208

>  <KierA2>
6.4044061

>  <KierA3>
3.0614023

>  <KierFlex>
4.5248938

>  <lip_acc>
8

>  <lip_don>
3

>  <lip_druglike>
1

>  <lip_violation>
0

>  <logP(o/w)>
0.63700002

>  <logS>
-3.0037601

>  <mr>
9.2287474

>  <mutagenic>
0

>  <nmol>
1

>  <opr_brigid>
13

>  <opr_leadlike>
1

>  <opr_nring>
3

>  <opr_nrot>
5

>  <opr_violation>
0

>  <PC+>
0

>  <PC->
0

>  <PEOE_PC+>
2.9327819

>  <PEOE_PC->
-2.9327819

>  <PEOE_RPC+>
0.096760184

>  <PEOE_RPC->
0.11636017

>  <PEOE_VSA+0>
34.123089

>  <PEOE_VSA+1>
21.326929

>  <PEOE_VSA+2>
11.413943

>  <PEOE_VSA+3>
28.379631

>  <PEOE_VSA+4>
33.597878

>  <PEOE_VSA+5>
42.366531

>  <PEOE_VSA+6>
0

>  <PEOE_VSA-0>
39.703896

>  <PEOE_VSA-1>
12.254904

>  <PEOE_VSA-2>
48.222549

>  <PEOE_VSA-3>
0

>  <PEOE_VSA-4>
0

>  <PEOE_VSA-5>
54.267685

>  <PEOE_VSA-6>
15.671971

>  <PEOE_VSA_FHYD>
0.5725413

>  <PEOE_VSA_FNEG>
0.49840769

>  <PEOE_VSA_FPNEG>
0.20490393

>  <PEOE_VSA_FPOL>
0.42745873

>  <PEOE_VSA_FPOS>
0.50159228

>  <PEOE_VSA_FPPOS>
0.22255479

>  <PEOE_VSA_HYD>
195.42494

>  <PEOE_VSA_NEG>
170.121

>  <PEOE_VSA_PNEG>
69.939651

>  <PEOE_VSA_POL>
145.90407

>  <PEOE_VSA_POS>
171.20799

>  <PEOE_VSA_PPOS>
75.964409

>  <petitjean>
0.45454547

>  <petitjeanSC>
0.83333331

>  <Q_PC+>
0

>  <Q_PC->
0

>  <Q_RPC+>
0

>  <Q_RPC->
0

>  <Q_VSA_FHYD>
1

>  <Q_VSA_FNEG>
0

>  <Q_VSA_FPNEG>
0

>  <Q_VSA_FPOL>
0

>  <Q_VSA_FPOS>
1

>  <Q_VSA_FPPOS>
0

>  <Q_VSA_HYD>
341.32901

>  <Q_VSA_NEG>
0

>  <Q_VSA_PNEG>
0

>  <Q_VSA_POL>
0

>  <Q_VSA_POS>
341.32901

>  <Q_VSA_PPOS>
0

>  <radius>
6

>  <reactive>
0

>  <rings>
3

>  <RPC+>
0

>  <RPC->
0

>  <rsynth>
1

>  <SlogP>
0.54799998

>  <SlogP_VSA0>
18.01075

>  <SlogP_VSA1>
29.132809

>  <SlogP_VSA2>
105.75993

>  <SlogP_VSA3>
50.770454

>  <SlogP_VSA4>
3.185575

>  <SlogP_VSA5>
0

>  <SlogP_VSA6>
4.4107962

>  <SlogP_VSA7>
49.275204

>  <SlogP_VSA8>
0

>  <SlogP_VSA9>
130.14926

>  <SMR>
9.0355301

>  <SMR_VSA0>
95.448868

>  <SMR_VSA1>
3.1243138

>  <SMR_VSA2>
68.781204

>  <SMR_VSA3>
17.907436

>  <SMR_VSA4>
0

>  <SMR_VSA5>
49.275204

>  <SMR_VSA6>
26.008495

>  <SMR_VSA7>
130.14926

>  <TPSA>
124.01

>  <VAdjEq>
0.42433795

>  <VAdjMa>
5.7548876

>  <VDistEq>
3.3080933

>  <VDistMa>
9.0050516

>  <vdw_area>
341.32901

>  <vdw_vol>
427.55762

>  <vsa_acc>
27.133842

>  <vsa_acid>
0

>  <vsa_base>
0

>  <vsa_don>
5.6825762

>  <vsa_hyd>
176.20753

>  <vsa_other>
55.316059

>  <vsa_pol>
87.084099

>  <Weight>
384.43298

>  <weinerPath>
1474

>  <weinerPol>
40

>  <zagreb>
138

$$$$