O1[C@@H](CC)[C@]2(OC(=O)N([C@@H]2[C@@H](C)C(=O)[C@@H](C[C@](OC)(C)[C@@H](O[C@@H]2O[C@@H](C[C@H](N(C)C)[C@H]2O)C)[C@@H](C)C(=O)[C@@H](C)C1=O)C)CCCCn1cc(nc1)-c1cccnc1)C
  MOE2013           2D

 58 62  0  0  1  0  0  0  0  0999 V2000
    0.0000    0.0000    0.0000 O   0  0  0  0  0  0  0  0  0  0  0  0
    0.9910   -1.1060    0.0000 C   0  0  1  0  0  0  0  0  0  0  0  0
    1.5590    0.2820    0.0000 C   0  0  0  0  0  0  0  0  0  0  0  0
    0.6410    1.4680    0.0000 C   0  0  0  0  0  0  0  0  0  0  0  0
    2.3850   -1.0180    0.0000 C   0  0  1  0  0  0  0  0  0  0  0  0
    2.6930    0.4670    0.0000 O   0  0  0  0  0  0  0  0  0  0  0  0
    4.2130    0.5610    0.0000 C   0  0  0  0  0  0  0  0  0  0  0  0
    5.0240    1.8230    0.0000 O   0  0  0  0  0  0  0  0  0  0  0  0
    4.7570   -0.8610    0.0000 N   0  0  0  0  0  0  0  0  0  0  0  0
    3.5370   -1.7590    0.0000 C   0  0  2  0  0  0  0  0  0  0  0  0
    4.0290   -3.0640    0.0000 C   0  0  1  0  0  0  0  0  0  0  0  0
    5.5190   -3.2350    0.0000 C   0  0  0  0  0  0  0  0  0  0  0  0
    3.1830   -4.3300    0.0000 C   0  0  0  0  0  0  0  0  0  0  0  0
    3.8280   -5.6840    0.0000 O   0  0  0  0  0  0  0  0  0  0  0  0
    1.6980   -4.1940    0.0000 C   0  0  1  0  0  0  0  0  0  0  0  0
    0.8110   -5.4030    0.0000 C   0  0  0  0  0  0  0  0  0  0  0  0
   -0.7040   -5.1530    0.0000 C   0  0  2  0  0  0  0  0  0  0  0  0
   -0.4210   -6.6260    0.0000 O   0  0  0  0  0  0  0  0  0  0  0  0
   -1.5550   -7.6080    0.0000 C   0  0  0  0  0  0  0  0  0  0  0  0
   -2.2030   -5.1800    0.0000 C   0  0  0  0  0  0  0  0  0  0  0  0
   -1.1480   -3.7050    0.0000 C   0  0  1  0  0  0  0  0  0  0  0  0
   -3.3790   -4.8320    0.0000 O   0  0  0  0  0  0  0  0  0  0  0  0
   -5.0530   -3.7370    0.0000 C   0  0  2  0  0  0  0  0  0  0  0  0
   -4.9690   -2.2390    0.0000 O   0  0  0  0  0  0  0  0  0  0  0  0
   -6.2240   -1.4180    0.0000 C   0  0  1  0  0  0  0  0  0  0  0  0
   -7.5630   -2.0940    0.0000 C   0  0  0  0  0  0  0  0  0  0  0  0
   -7.6470   -3.5920    0.0000 C   0  0  2  0  0  0  0  0  0  0  0  0
   -8.9860   -4.2680    0.0000 N   0  0  0  0  0  0  0  0  0  0  0  0
  -10.2410   -3.4460    0.0000 C   0  0  0  0  0  0  0  0  0  0  0  0
   -9.0690   -5.7650    0.0000 C   0  0  0  0  0  0  0  0  0  0  0  0
   -6.3920   -4.4130    0.0000 C   0  0  1  0  0  0  0  0  0  0  0  0
   -6.2140   -5.9030    0.0000 O   0  0  0  0  0  0  0  0  0  0  0  0
   -6.1400    0.0800    0.0000 C   0  0  0  0  0  0  0  0  0  0  0  0
   -2.5860   -3.3610    0.0000 C   0  0  1  0  0  0  0  0  0  0  0  0
   -3.5730   -4.4910    0.0000 C   0  0  0  0  0  0  0  0  0  0  0  0
   -3.1140   -2.0040    0.0000 C   0  0  0  0  0  0  0  0  0  0  0  0
   -4.6130   -1.9460    0.0000 O   0  0  0  0  0  0  0  0  0  0  0  0
   -2.5120   -0.7510    0.0000 C   0  0  1  0  0  0  0  0  0  0  0  0
   -3.6370    0.2420    0.0000 C   0  0  0  0  0  0  0  0  0  0  0  0
   -1.3870   -0.0280    0.0000 C   0  0  0  0  0  0  0  0  0  0  0  0
   -1.8240    1.4070    0.0000 O   0  0  0  0  0  0  0  0  0  0  0  0
    2.3140   -5.5610    0.0000 C   0  0  0  0  0  0  0  0  0  0  0  0
    6.1970   -1.2840    0.0000 C   0  0  0  0  0  0  0  0  0  0  0  0
    7.2820   -0.2480    0.0000 C   0  0  0  0  0  0  0  0  0  0  0  0
    8.7210   -0.6710    0.0000 C   0  0  0  0  0  0  0  0  0  0  0  0
    9.8070    0.3650    0.0000 C   0  0  0  0  0  0  0  0  0  0  0  0
   11.2460   -0.0580    0.0000 N   0  0  0  0  0  0  0  0  0  0  0  0
   12.4340    0.8580    0.0000 C   0  0  0  0  0  0  0  0  0  0  0  0
   13.6720    0.0120    0.0000 C   0  0  0  0  0  0  0  0  0  0  0  0
   13.2500   -1.4270    0.0000 N   0  0  0  0  0  0  0  0  0  0  0  0
   11.7500   -1.4710    0.0000 C   0  0  0  0  0  0  0  0  0  0  0  0
   15.0850    0.5160    0.0000 C   0  0  0  0  0  0  0  0  0  0  0  0
   16.2280   -0.4550    0.0000 C   0  0  0  0  0  0  0  0  0  0  0  0
   17.6410    0.0490    0.0000 C   0  0  0  0  0  0  0  0  0  0  0  0
   17.9100    1.5250    0.0000 C   0  0  0  0  0  0  0  0  0  0  0  0
   16.7670    2.4960    0.0000 N   0  0  0  0  0  0  0  0  0  0  0  0
   15.3540    1.9920    0.0000 C   0  0  0  0  0  0  0  0  0  0  0  0
    2.0200   -2.4730    0.0000 C   0  0  0  0  0  0  0  0  0  0  0  0
  1  2  1  0  0  0  0
  1 40  1  0  0  0  0
  2  3  1  1  0  0  0
  2  5  1  0  0  0  0
  3  4  1  0  0  0  0
  5  6  1  0  0  0  0
  5 10  1  0  0  0  0
  5 58  1  6  0  0  0
  6  7  1  0  0  0  0
  7  8  2  0  0  0  0
  7  9  1  0  0  0  0
  9 43  1  0  0  0  0
 10  9  1  6  0  0  0
 10 11  1  0  0  0  0
 11 12  1  1  0  0  0
 11 13  1  0  0  0  0
 13 14  2  0  0  0  0
 13 15  1  0  0  0  0
 15 16  1  0  0  0  0
 15 42  1  6  0  0  0
 16 17  1  0  0  0  0
 17 18  1  1  0  0  0
 17 20  1  6  0  0  0
 17 21  1  0  0  0  0
 18 19  1  0  0  0  0
 21 22  1  1  0  0  0
 21 34  1  0  0  0  0
 23 22  1  1  0  0  0
 23 24  1  0  0  0  0
 23 31  1  0  0  0  0
 24 25  1  0  0  0  0
 25 26  1  0  0  0  0
 25 33  1  1  0  0  0
 26 27  1  0  0  0  0
 27 28  1  1  0  0  0
 27 31  1  0  0  0  0
 28 29  1  0  0  0  0
 28 30  1  0  0  0  0
 31 32  1  6  0  0  0
 34 35  1  1  0  0  0
 34 36  1  0  0  0  0
 36 37  2  0  0  0  0
 36 38  1  0  0  0  0
 38 39  1  1  0  0  0
 38 40  1  0  0  0  0
 40 41  2  0  0  0  0
 43 44  1  0  0  0  0
 44 45  1  0  0  0  0
 45 46  1  0  0  0  0
 46 47  1  0  0  0  0
 47 48  1  0  0  0  0
 47 51  1  0  0  0  0
 48 49  2  0  0  0  0
 49 50  1  0  0  0  0
 49 52  1  0  0  0  0
 50 51  2  0  0  0  0
 52 53  1  0  0  0  0
 52 57  2  0  0  0  0
 53 54  2  0  0  0  0
 54 55  1  0  0  0  0
 55 56  2  0  0  0  0
 56 57  1  0  0  0  0
M  END
>  <Index>
1734

>  <ID>
HT1994

>  <class>
1

>  <apol>
132.54155

>  <ast_fraglike>
0

>  <ast_fraglike_ext>
0

>  <ast_violation>
3

>  <ast_violation_ext>
5

>  <a_acc>
11

>  <a_acid>
0

>  <a_aro>
11

>  <a_base>
0

>  <a_count>
123

>  <a_don>
1

>  <a_donacc>
12

>  <a_heavy>
58

>  <a_hyd>
37

>  <a_IC>
184.31708

>  <a_ICM>
1.4985127

>  <a_nB>
0

>  <a_nBr>
0

>  <a_nC>
43

>  <a_nCl>
0

>  <a_nF>
0

>  <a_nH>
65

>  <a_nI>
0

>  <a_nN>
5

>  <a_nO>
10

>  <a_nP>
0

>  <a_nS>
0

>  <balabanJ>
1.3848861

>  <BCUT_PEOE_0>
-2.7985461

>  <BCUT_PEOE_1>
-0.45565209

>  <BCUT_PEOE_2>
0.3396036

>  <BCUT_PEOE_3>
2.8477018

>  <BCUT_SLOGP_0>
-2.9015496

>  <BCUT_SLOGP_1>
-0.39489967

>  <BCUT_SLOGP_2>
0.37055182

>  <BCUT_SLOGP_3>
2.7690725

>  <BCUT_SMR_0>
-2.5685315

>  <BCUT_SMR_1>
-0.26394475

>  <BCUT_SMR_2>
0.52599198

>  <BCUT_SMR_3>
3.0716941

>  <bpol>
93.050453

>  <b_1rotN>
11

>  <b_1rotR>
0.17741935

>  <b_ar>
11

>  <b_count>
127

>  <b_double>
4

>  <b_heavy>
62

>  <b_max1len>
5

>  <b_rotN>
11

>  <b_rotR>
0.17741935

>  <b_single>
112

>  <b_triple>
0

>  <chi0>
42.68914

>  <chi0v>
36.122219

>  <chi0v_C>
29.764702

>  <chi0_C>
31.007343

>  <chi1>
27.359154

>  <chi1v>
20.765272

>  <chi1v_C>
13.505831

>  <chi1_C>
14.504508

>  <chiral>
13

>  <chiral_u>
0

>  <density>
0.72740471

>  <diameter>
24

>  <FCharge>
0

>  <GCUT_PEOE_0>
-0.85737401

>  <GCUT_PEOE_1>
-0.34969071

>  <GCUT_PEOE_2>
-0.061209247

>  <GCUT_PEOE_3>
3.5018082

>  <GCUT_SLOGP_0>
-0.97335792

>  <GCUT_SLOGP_1>
-0.30023327

>  <GCUT_SLOGP_2>
-0.011824756

>  <GCUT_SLOGP_3>
3.4779046

>  <GCUT_SMR_0>
-0.53309613

>  <GCUT_SMR_1>
-0.19848204

>  <GCUT_SMR_2>
0.096000351

>  <GCUT_SMR_3>
3.7111921

>  <Kier1>
49.022373

>  <Kier2>
21.119093

>  <Kier3>
11.03872

>  <KierA1>
41.906742

>  <KierA2>
18.002087

>  <KierA3>
9.3910198

>  <KierFlex>
13.00705

>  <lip_acc>
15

>  <lip_don>
1

>  <lip_druglike>
0

>  <lip_violation>
3

>  <logP(o/w)>
3.8427401

>  <logS>
-5.3373899

>  <mr>
21.881191

>  <mutagenic>
0

>  <nmol>
1

>  <opr_brigid>
35

>  <opr_leadlike>
0

>  <opr_nring>
4

>  <opr_nrot>
25

>  <opr_violation>
4

>  <PC+>
0

>  <PC->
0

>  <PEOE_PC+>
5.1931467

>  <PEOE_PC->
-5.1931467

>  <PEOE_RPC+>
0.070142664

>  <PEOE_RPC->
0.074177511

>  <PEOE_VSA+0>
315.97845

>  <PEOE_VSA+1>
105.51263

>  <PEOE_VSA+2>
17.628834

>  <PEOE_VSA+3>
19.613428

>  <PEOE_VSA+4>
10.324173

>  <PEOE_VSA+5>
14.708499

>  <PEOE_VSA+6>
19.199511

>  <PEOE_VSA-0>
189.48447

>  <PEOE_VSA-1>
74.990707

>  <PEOE_VSA-2>
0

>  <PEOE_VSA-3>
0

>  <PEOE_VSA-4>
19.249496

>  <PEOE_VSA-5>
48.887096

>  <PEOE_VSA-6>
17.782564

>  <PEOE_VSA_FHYD>
0.84748363

>  <PEOE_VSA_FNEG>
0.41060558

>  <PEOE_VSA_FPNEG>
0.10068338

>  <PEOE_VSA_FPOL>
0.15251635

>  <PEOE_VSA_FPOS>
0.58939439

>  <PEOE_VSA_FPPOS>
0.051832978

>  <PEOE_VSA_HYD>
723.20856

>  <PEOE_VSA_NEG>
350.39432

>  <PEOE_VSA_PNEG>
85.919159

>  <PEOE_VSA_POL>
130.15134

>  <PEOE_VSA_POS>
502.96555

>  <PEOE_VSA_PPOS>
44.232182

>  <petitjean>
0.5

>  <petitjeanSC>
1

>  <Q_PC+>
0

>  <Q_PC->
0

>  <Q_RPC+>
0

>  <Q_RPC->
0

>  <Q_VSA_FHYD>
1

>  <Q_VSA_FNEG>
0

>  <Q_VSA_FPNEG>
0

>  <Q_VSA_FPOL>
0

>  <Q_VSA_FPOS>
1

>  <Q_VSA_FPPOS>
0

>  <Q_VSA_HYD>
853.35986

>  <Q_VSA_NEG>
0

>  <Q_VSA_PNEG>
0

>  <Q_VSA_POL>
0

>  <Q_VSA_POS>
853.35986

>  <Q_VSA_PPOS>
0

>  <radius>
12

>  <reactive>
1

>  <rings>
5

>  <RPC+>
0

>  <RPC->
0

>  <rsynth>
0.63793105

>  <SlogP>
5.1956

>  <SlogP_VSA0>
25.385227

>  <SlogP_VSA1>
68.156105

>  <SlogP_VSA2>
168.95113

>  <SlogP_VSA3>
18.439579

>  <SlogP_VSA4>
17.643185

>  <SlogP_VSA5>
101.17825

>  <SlogP_VSA6>
0

>  <SlogP_VSA7>
109.6573

>  <SlogP_VSA8>
94.342026

>  <SlogP_VSA9>
308.90991

>  <SMR>
21.44558

>  <SMR_VSA0>
150.4483

>  <SMR_VSA1>
67.104004

>  <SMR_VSA2>
17.643185

>  <SMR_VSA3>
42.365036

>  <SMR_VSA4>
5.9423227

>  <SMR_VSA5>
216.49658

>  <SMR_VSA6>
44.8769

>  <SMR_VSA7>
367.78638

>  <TPSA>
171.85001

>  <VAdjEq>
0.2277095

>  <VAdjMa>
6.9541965

>  <VDistEq>
4.2529845

>  <VDistMa>
11.439185

>  <vdw_area>
853.35986

>  <vdw_vol>
1116.3221

>  <vsa_acc>
73.144104

>  <vsa_acid>
0

>  <vsa_base>
0

>  <vsa_don>
0

>  <vsa_hyd>
615.85736

>  <vsa_other>
95.331581

>  <vsa_pol>
86.711021

>  <Weight>
812.01801

>  <weinerPath>
14388

>  <weinerPol>
109

>  <zagreb>
308

$$$$