Clc1nc(nc(OC)c1NC=1NCCN=1)C
  MOE2013           2D

 16 17  0  0  0  0  0  0  0  0999 V2000
    0.0000    0.0000    0.0000 Cl  0  0  0  0  0  0  0  0  0  0  0  0
    1.2960    0.7560    0.0000 C   0  0  0  0  0  0  0  0  0  0  0  0
    2.5980    0.0120    0.0000 N   0  0  0  0  0  0  0  0  0  0  0  0
    3.8940    0.7670    0.0000 C   0  0  0  0  0  0  0  0  0  0  0  0
    3.8870    2.2670    0.0000 N   0  0  0  0  0  0  0  0  0  0  0  0
    2.5850    3.0120    0.0000 C   0  0  0  0  0  0  0  0  0  0  0  0
    2.5780    4.5110    0.0000 O   0  0  0  0  0  0  0  0  0  0  0  0
    3.8740    5.2670    0.0000 C   0  0  0  0  0  0  0  0  0  0  0  0
    1.2890    2.2560    0.0000 C   0  0  0  0  0  0  0  0  0  0  0  0
   -0.0130    3.0000    0.0000 N   0  0  0  0  0  0  0  0  0  0  0  0
   -1.3090    2.2440    0.0000 C   0  0  0  0  0  0  0  0  0  0  0  0
   -2.6820    2.8480    0.0000 N   0  0  0  0  0  0  0  0  0  0  0  0
   -3.6810    1.7290    0.0000 C   0  0  0  0  0  0  0  0  0  0  0  0
   -2.9250    0.4330    0.0000 C   0  0  0  0  0  0  0  0  0  0  0  0
   -1.4590    0.7520    0.0000 N   0  0  0  0  0  0  0  0  0  0  0  0
    5.1960    0.0230    0.0000 C   0  0  0  0  0  0  0  0  0  0  0  0
  1  2  1  0  0  0  0
  2  3  1  0  0  0  0
  2  9  2  0  0  0  0
  3  4  2  0  0  0  0
  4  5  1  0  0  0  0
  4 16  1  0  0  0  0
  5  6  2  0  0  0  0
  6  7  1  0  0  0  0
  6  9  1  0  0  0  0
  7  8  1  0  0  0  0
  9 10  1  0  0  0  0
 10 11  1  0  0  0  0
 11 12  1  0  0  0  0
 11 15  2  0  0  0  0
 12 13  1  0  0  0  0
 13 14  1  0  0  0  0
 14 15  1  0  0  0  0
M  END
>  <Index>
1661

>  <ID>
HT1440

>  <class>
1

>  <apol>
32.323517

>  <ast_fraglike>
1

>  <ast_fraglike_ext>
1

>  <ast_violation>
0

>  <ast_violation_ext>
0

>  <a_acc>
3

>  <a_acid>
0

>  <a_aro>
6

>  <a_base>
0

>  <a_count>
28

>  <a_don>
2

>  <a_donacc>
5

>  <a_heavy>
16

>  <a_hyd>
6

>  <a_IC>
51.447422

>  <a_ICM>
1.8374079

>  <a_nB>
0

>  <a_nBr>
0

>  <a_nC>
9

>  <a_nCl>
1

>  <a_nF>
0

>  <a_nH>
12

>  <a_nI>
0

>  <a_nN>
5

>  <a_nO>
1

>  <a_nP>
0

>  <a_nS>
0

>  <balabanJ>
1.9412476

>  <BCUT_PEOE_0>
-2.3924232

>  <BCUT_PEOE_1>
-0.36693561

>  <BCUT_PEOE_2>
0.36871025

>  <BCUT_PEOE_3>
2.4778178

>  <BCUT_SLOGP_0>
-2.6166394

>  <BCUT_SLOGP_1>
-0.29355332

>  <BCUT_SLOGP_2>
0.43757787

>  <BCUT_SLOGP_3>
2.3844502

>  <BCUT_SMR_0>
-2.1279593

>  <BCUT_SMR_1>
-0.11684354

>  <BCUT_SMR_2>
0.54079479

>  <BCUT_SMR_3>
2.7651634

>  <bpol>
20.734484

>  <b_1rotN>
2

>  <b_1rotR>
0.11764706

>  <b_ar>
6

>  <b_count>
29

>  <b_double>
1

>  <b_heavy>
17

>  <b_max1len>
2

>  <b_rotN>
3

>  <b_rotR>
0.17647059

>  <b_single>
22

>  <b_triple>
0

>  <chi0>
11.543606

>  <chi0v>
9.7979965

>  <chi0v_C>
5.9142137

>  <chi0_C>
6.3009648

>  <chi1>
7.7027087

>  <chi1v>
5.2171345

>  <chi1v_C>
1.5

>  <chi1_C>
1.7440169

>  <chiral>
0

>  <chiral_u>
0

>  <density>
0.84030539

>  <diameter>
8

>  <FCharge>
0

>  <GCUT_PEOE_0>
-0.84436125

>  <GCUT_PEOE_1>
-0.41222042

>  <GCUT_PEOE_2>
0.039187998

>  <GCUT_PEOE_3>
2.2677014

>  <GCUT_SLOGP_0>
-1.1700944

>  <GCUT_SLOGP_1>
-0.42557523

>  <GCUT_SLOGP_2>
0.15207312

>  <GCUT_SLOGP_3>
2.3098931

>  <GCUT_SMR_0>
-0.50484407

>  <GCUT_SMR_1>
-0.13855599

>  <GCUT_SMR_2>
0.18270259

>  <GCUT_SMR_3>
2.5550468

>  <Kier1>
12.456747

>  <Kier2>
5.5576558

>  <Kier3>
3.0297265

>  <KierA1>
10.079264

>  <KierA2>
4.4282856

>  <KierA3>
2.3862703

>  <KierFlex>
2.7896161

>  <lip_acc>
6

>  <lip_don>
2

>  <lip_druglike>
1

>  <lip_violation>
0

>  <logP(o/w)>
0.597

>  <logS>
-1.97414

>  <mr>
6.0283689

>  <mutagenic>
0

>  <nmol>
1

>  <opr_brigid>
11

>  <opr_leadlike>
1

>  <opr_nring>
2

>  <opr_nrot>
3

>  <opr_violation>
0

>  <PC+>
0

>  <PC->
0

>  <PEOE_PC+>
1.7443836

>  <PEOE_PC->
-1.7443836

>  <PEOE_RPC+>
0.11338957

>  <PEOE_RPC->
0.20296745

>  <PEOE_VSA+0>
50.986141

>  <PEOE_VSA+1>
43.050026

>  <PEOE_VSA+2>
17.890114

>  <PEOE_VSA+3>
54.87989

>  <PEOE_VSA+4>
0

>  <PEOE_VSA+5>
0

>  <PEOE_VSA+6>
0

>  <PEOE_VSA-0>
18.747677

>  <PEOE_VSA-1>
29.581947

>  <PEOE_VSA-2>
0

>  <PEOE_VSA-3>
0

>  <PEOE_VSA-4>
11.365152

>  <PEOE_VSA-5>
5.6825762

>  <PEOE_VSA-6>
2.7775381

>  <PEOE_VSA_FHYD>
0.91562319

>  <PEOE_VSA_FNEG>
0.29006886

>  <PEOE_VSA_FPNEG>
0.084376819

>  <PEOE_VSA_FPOL>
0.084376819

>  <PEOE_VSA_FPOS>
0.70993114

>  <PEOE_VSA_FPPOS>
0

>  <PEOE_VSA_HYD>
215.13579

>  <PEOE_VSA_NEG>
68.154892

>  <PEOE_VSA_PNEG>
19.825266

>  <PEOE_VSA_POL>
19.825266

>  <PEOE_VSA_POS>
166.80617

>  <PEOE_VSA_PPOS>
0

>  <petitjean>
0.5

>  <petitjeanSC>
1

>  <Q_PC+>
0

>  <Q_PC->
0

>  <Q_RPC+>
0

>  <Q_RPC->
0

>  <Q_VSA_FHYD>
1

>  <Q_VSA_FNEG>
0

>  <Q_VSA_FPNEG>
0

>  <Q_VSA_FPOL>
0

>  <Q_VSA_FPOS>
1

>  <Q_VSA_FPPOS>
0

>  <Q_VSA_HYD>
234.96106

>  <Q_VSA_NEG>
0

>  <Q_VSA_PNEG>
0

>  <Q_VSA_POL>
0

>  <Q_VSA_POS>
234.96106

>  <Q_VSA_PPOS>
0

>  <radius>
4

>  <reactive>
0

>  <rings>
2

>  <RPC+>
0

>  <RPC->
0

>  <rsynth>
1

>  <SlogP>
0.81812

>  <SlogP_VSA0>
29.010639

>  <SlogP_VSA1>
53.480904

>  <SlogP_VSA2>
0

>  <SlogP_VSA3>
36.879158

>  <SlogP_VSA4>
2.3279202

>  <SlogP_VSA5>
52.169399

>  <SlogP_VSA6>
3.0717793

>  <SlogP_VSA7>
0

>  <SlogP_VSA8>
0

>  <SlogP_VSA9>
80.046005

>  <SMR>
6.2258401

>  <SMR_VSA0>
0

>  <SMR_VSA1>
61.356476

>  <SMR_VSA2>
18.01075

>  <SMR_VSA3>
10.2143

>  <SMR_VSA4>
20.767498

>  <SMR_VSA5>
0

>  <SMR_VSA6>
38.778248

>  <SMR_VSA7>
107.85853

>  <TPSA>
71.43

>  <VAdjEq>
0.56510133

>  <VAdjMa>
5.0874629

>  <VDistEq>
2.799556

>  <VDistMa>
7.7123823

>  <vdw_area>
234.96106

>  <vdw_vol>
287.61209

>  <vsa_acc>
17.047728

>  <vsa_acid>
0

>  <vsa_base>
0

>  <vsa_don>
11.365152

>  <vsa_hyd>
141.94739

>  <vsa_other>
51.336182

>  <vsa_pol>
28.41288

>  <Weight>
241.68199

>  <weinerPath>
432

>  <weinerPol>
21

>  <zagreb>
80

$$$$