Clc1cc2NC(NS(=O)(=O)c2cc1S(=O)(=O)N)C(Cl)(Cl)Cl
  MOE2013           2D

 21 22  0  0  1  0  0  0  0  0999 V2000
    0.0000    0.0000    0.0000 Cl  0  0  0  0  0  0  0  0  0  0  0  0
    1.2970   -0.7540    0.0000 C   0  0  0  0  0  0  0  0  0  0  0  0
    2.5980   -0.0070    0.0000 C   0  0  0  0  0  0  0  0  0  0  0  0
    3.8950   -0.7610    0.0000 C   0  0  0  0  0  0  0  0  0  0  0  0
    5.1960   -0.0140    0.0000 N   0  0  0  0  0  0  0  0  0  0  0  0
    6.4930   -0.7680    0.0000 C   0  0  3  0  0  0  0  0  0  0  0  0
    6.4890   -2.2680    0.0000 N   0  0  0  0  0  0  0  0  0  0  0  0
    5.1880   -3.0140    0.0000 S   0  0  0  0  0  0  0  0  0  0  0  0
    5.9340   -4.3160    0.0000 O   0  0  0  0  0  0  0  0  0  0  0  0
    4.4340   -4.3110    0.0000 O   0  0  0  0  0  0  0  0  0  0  0  0
    3.8910   -2.2610    0.0000 C   0  0  0  0  0  0  0  0  0  0  0  0
    2.5900   -3.0070    0.0000 C   0  0  0  0  0  0  0  0  0  0  0  0
    1.2930   -2.2540    0.0000 C   0  0  0  0  0  0  0  0  0  0  0  0
   -0.0080   -3.0000    0.0000 S   0  0  0  0  0  0  0  0  0  0  0  0
   -0.7550   -1.6990    0.0000 O   0  0  0  0  0  0  0  0  0  0  0  0
    0.7380   -4.3010    0.0000 O   0  0  0  0  0  0  0  0  0  0  0  0
   -1.3090   -3.7460    0.0000 N   0  0  0  0  0  0  0  0  0  0  0  0
    7.7940   -0.0220    0.0000 C   0  0  0  0  0  0  0  0  0  0  0  0
    9.0950    0.7250    0.0000 Cl  0  0  0  0  0  0  0  0  0  0  0  0
    7.0480    1.2790    0.0000 Cl  0  0  0  0  0  0  0  0  0  0  0  0
    8.5410   -1.3230    0.0000 Cl  0  0  0  0  0  0  0  0  0  0  0  0
  1  2  1  0  0  0  0
  2  3  1  0  0  0  0
  2 13  2  0  0  0  0
  3  4  2  0  0  0  0
  4  5  1  0  0  0  0
  4 11  1  0  0  0  0
  5  6  1  0  0  0  0
  6  7  1  0  0  0  0
  6 18  1  0  0  0  0
  7  8  1  0  0  0  0
  8  9  2  0  0  0  0
  8 10  2  0  0  0  0
  8 11  1  0  0  0  0
 11 12  2  0  0  0  0
 12 13  1  0  0  0  0
 13 14  1  0  0  0  0
 14 15  2  0  0  0  0
 14 16  2  0  0  0  0
 14 17  1  0  0  0  0
 18 19  1  0  0  0  0
 18 20  1  0  0  0  0
 18 21  1  0  0  0  0
M  END
>  <Index>
1733

>  <ID>
HT1988

>  <class>
1

>  <apol>
39.775551

>  <ast_fraglike>
0

>  <ast_fraglike_ext>
0

>  <ast_violation>
2

>  <ast_violation_ext>
3

>  <a_acc>
4

>  <a_acid>
0

>  <a_aro>
6

>  <a_base>
0

>  <a_count>
28

>  <a_don>
3

>  <a_donacc>
7

>  <a_heavy>
21

>  <a_hyd>
10

>  <a_IC>
68.199562

>  <a_ICM>
2.4356987

>  <a_nB>
0

>  <a_nBr>
0

>  <a_nC>
8

>  <a_nCl>
4

>  <a_nF>
0

>  <a_nH>
7

>  <a_nI>
0

>  <a_nN>
3

>  <a_nO>
4

>  <a_nP>
0

>  <a_nS>
2

>  <balabanJ>
2.2277362

>  <BCUT_PEOE_0>
-2.5820389

>  <BCUT_PEOE_1>
-0.48863548

>  <BCUT_PEOE_2>
0.53114963

>  <BCUT_PEOE_3>
2.6140008

>  <BCUT_SLOGP_0>
-2.7827678

>  <BCUT_SLOGP_1>
-0.44427645

>  <BCUT_SLOGP_2>
0.68949997

>  <BCUT_SLOGP_3>
2.5357289

>  <BCUT_SMR_0>
-2.2632055

>  <BCUT_SMR_1>
-0.35107821

>  <BCUT_SMR_2>
0.669649

>  <BCUT_SMR_3>
2.9265332

>  <bpol>
22.944448

>  <b_1rotN>
1

>  <b_1rotR>
0.045454547

>  <b_ar>
6

>  <b_count>
29

>  <b_double>
0

>  <b_heavy>
22

>  <b_max1len>
3

>  <b_rotN>
2

>  <b_rotR>
0.090909094

>  <b_single>
23

>  <b_triple>
0

>  <chi0>
16.215178

>  <chi0v>
14.427458

>  <chi0v_C>
4.2320509

>  <chi0_C>
4.8009648

>  <chi1>
9.3213339

>  <chi1v>
9.582737

>  <chi1v_C>
1.9433757

>  <chi1_C>
2.588335

>  <chiral>
1

>  <chiral_u>
1

>  <density>
1.1785886

>  <diameter>
9

>  <FCharge>
0

>  <GCUT_PEOE_0>
-0.87788504

>  <GCUT_PEOE_1>
-0.39675659

>  <GCUT_PEOE_2>
0.036648095

>  <GCUT_PEOE_3>
2.5145226

>  <GCUT_SLOGP_0>
-1.3482838

>  <GCUT_SLOGP_1>
-0.45820129

>  <GCUT_SLOGP_2>
0.34140223

>  <GCUT_SLOGP_3>
2.5259316

>  <GCUT_SMR_0>
-0.47769767

>  <GCUT_SMR_1>
-0.16963436

>  <GCUT_SMR_2>
0.4253

>  <GCUT_SMR_3>
2.8020642

>  <Kier1>
17.355371

>  <Kier2>
5.2739224

>  <Kier3>
3.5045972

>  <KierA1>
22.611301

>  <KierA2>
6.9615698

>  <KierA3>
4.6723132

>  <KierFlex>
7.4957213

>  <lip_acc>
7

>  <lip_don>
4

>  <lip_druglike>
1

>  <lip_violation>
0

>  <logP(o/w)>
1.09208

>  <logS>
-4.4175501

>  <mr>
8.0025311

>  <mutagenic>
1

>  <nmol>
1

>  <opr_brigid>
11

>  <opr_leadlike>
1

>  <opr_nring>
2

>  <opr_nrot>
1

>  <opr_violation>
0

>  <PC+>
0

>  <PC->
0

>  <PEOE_PC+>
1.7629929

>  <PEOE_PC->
-1.7629929

>  <PEOE_RPC+>
0.17569457

>  <PEOE_RPC->
0.21548112

>  <PEOE_VSA+0>
38.308571

>  <PEOE_VSA+1>
24.786757

>  <PEOE_VSA+2>
26.880259

>  <PEOE_VSA+3>
0

>  <PEOE_VSA+4>
0

>  <PEOE_VSA+5>
0

>  <PEOE_VSA+6>
8.3692026

>  <PEOE_VSA-0>
20.873917

>  <PEOE_VSA-1>
118.32779

>  <PEOE_VSA-2>
34.546043

>  <PEOE_VSA-3>
9.0437498

>  <PEOE_VSA-4>
32.016521

>  <PEOE_VSA-5>
0

>  <PEOE_VSA-6>
0.13689101

>  <PEOE_VSA_FHYD>
0.87065446

>  <PEOE_VSA_FNEG>
0.68608993

>  <PEOE_VSA_FPNEG>
0.10263157

>  <PEOE_VSA_FPOL>
0.12934551

>  <PEOE_VSA_FPOS>
0.31391007

>  <PEOE_VSA_FPPOS>
0.026713941

>  <PEOE_VSA_HYD>
272.76709

>  <PEOE_VSA_NEG>
214.94492

>  <PEOE_VSA_PNEG>
32.153416

>  <PEOE_VSA_POL>
40.522617

>  <PEOE_VSA_POS>
98.344788

>  <PEOE_VSA_PPOS>
8.3692026

>  <petitjean>
0.44444445

>  <petitjeanSC>
0.80000001

>  <Q_PC+>
0

>  <Q_PC->
0

>  <Q_RPC+>
0

>  <Q_RPC->
0

>  <Q_VSA_FHYD>
1

>  <Q_VSA_FNEG>
0

>  <Q_VSA_FPNEG>
0

>  <Q_VSA_FPOL>
0

>  <Q_VSA_FPOS>
1

>  <Q_VSA_FPPOS>
0

>  <Q_VSA_HYD>
313.2897

>  <Q_VSA_NEG>
0

>  <Q_VSA_PNEG>
0

>  <Q_VSA_POL>
0

>  <Q_VSA_POS>
313.2897

>  <Q_VSA_PPOS>
0

>  <radius>
5

>  <reactive>
1

>  <rings>
2

>  <RPC+>
0

>  <RPC->
0

>  <rsynth>
1

>  <SlogP>
1.3875

>  <SlogP_VSA0>
47.69643

>  <SlogP_VSA1>
114.35413

>  <SlogP_VSA2>
16.834627

>  <SlogP_VSA3>
0

>  <SlogP_VSA4>
0

>  <SlogP_VSA5>
3.1014678

>  <SlogP_VSA6>
3.5006065

>  <SlogP_VSA7>
35.286369

>  <SlogP_VSA8>
0

>  <SlogP_VSA9>
159.35132

>  <SMR>
8.0847397

>  <SMR_VSA0>
96.343376

>  <SMR_VSA1>
0

>  <SMR_VSA2>
19.506466

>  <SMR_VSA3>
7.0537477

>  <SMR_VSA4>
52.058933

>  <SMR_VSA5>
35.286369

>  <SMR_VSA6>
0

>  <SMR_VSA7>
169.87607

>  <TPSA>
118.36

>  <VAdjEq>
0.46827638

>  <VAdjMa>
5.4594316

>  <VDistEq>
2.9635973

>  <VDistMa>
8.5145626

>  <vdw_area>
313.2897

>  <vdw_vol>
352.20517

>  <vsa_acc>
64.033043

>  <vsa_acid>
0

>  <vsa_base>
0

>  <vsa_don>
33.892902

>  <vsa_hyd>
169.53328

>  <vsa_other>
31.401779

>  <vsa_pol>
97.925949

>  <Weight>
415.10501

>  <weinerPath>
840

>  <weinerPol>
37

>  <zagreb>
118

$$$$