O1c2c(cccc2)C(=O)C(C(CC(=O)C)c2ccccc2)=C1O
  MOE2013           2D

 23 25  0  0  1  0  0  0  0  0999 V2000
    0.0000    0.0000    0.0000 O   0  0  0  0  0  0  0  0  0  0  0  0
    1.2980    0.7510    0.0000 C   0  0  0  0  0  0  0  0  0  0  0  0
    1.2970    2.2510    0.0000 C   0  0  0  0  0  0  0  0  0  0  0  0
    2.5950    3.0020    0.0000 C   0  0  0  0  0  0  0  0  0  0  0  0
    3.8950    2.2530    0.0000 C   0  0  0  0  0  0  0  0  0  0  0  0
    3.8960    0.7530    0.0000 C   0  0  0  0  0  0  0  0  0  0  0  0
    2.5980    0.0020    0.0000 C   0  0  0  0  0  0  0  0  0  0  0  0
   -0.0030    3.0000    0.0000 C   0  0  0  0  0  0  0  0  0  0  0  0
   -0.0040    4.5000    0.0000 O   0  0  0  0  0  0  0  0  0  0  0  0
   -1.3010    2.2490    0.0000 C   0  0  0  0  0  0  0  0  0  0  0  0
   -2.6010    2.9980    0.0000 C   0  0  3  0  0  0  0  0  0  0  0  0
   -2.6020    4.4980    0.0000 C   0  0  0  0  0  0  0  0  0  0  0  0
   -3.9020    5.2470    0.0000 C   0  0  0  0  0  0  0  0  0  0  0  0
   -3.9030    6.7470    0.0000 O   0  0  0  0  0  0  0  0  0  0  0  0
   -5.2000    4.4960    0.0000 C   0  0  0  0  0  0  0  0  0  0  0  0
   -3.8990    2.2470    0.0000 C   0  0  0  0  0  0  0  0  0  0  0  0
   -3.8980    0.7470    0.0000 C   0  0  0  0  0  0  0  0  0  0  0  0
   -5.1960   -0.0040    0.0000 C   0  0  0  0  0  0  0  0  0  0  0  0
   -6.4960    0.7440    0.0000 C   0  0  0  0  0  0  0  0  0  0  0  0
   -6.4970    2.2440    0.0000 C   0  0  0  0  0  0  0  0  0  0  0  0
   -5.1990    2.9960    0.0000 C   0  0  0  0  0  0  0  0  0  0  0  0
   -1.3000    0.7490    0.0000 C   0  0  0  0  0  0  0  0  0  0  0  0
   -2.5980   -0.0020    0.0000 O   0  0  0  0  0  0  0  0  0  0  0  0
  1  2  1  0  0  0  0
  1 22  1  0  0  0  0
  2  3  1  0  0  0  0
  2  7  2  0  0  0  0
  3  4  2  0  0  0  0
  3  8  1  0  0  0  0
  4  5  1  0  0  0  0
  5  6  2  0  0  0  0
  6  7  1  0  0  0  0
  8  9  2  0  0  0  0
  8 10  1  0  0  0  0
 10 11  1  0  0  0  0
 10 22  2  0  0  0  0
 11 12  1  0  0  0  0
 11 16  1  0  0  0  0
 12 13  1  0  0  0  0
 13 14  2  0  0  0  0
 13 15  1  0  0  0  0
 16 17  1  0  0  0  0
 16 21  2  0  0  0  0
 17 18  2  0  0  0  0
 18 19  1  0  0  0  0
 19 20  2  0  0  0  0
 20 21  1  0  0  0  0
 22 23  1  0  0  0  0
M  END
>  <Index>
1764

>  <ID>
HT2196

>  <class>
1

>  <apol>
47.316689

>  <ast_fraglike>
0

>  <ast_fraglike_ext>
0

>  <ast_violation>
2

>  <ast_violation_ext>
3

>  <a_acc>
3

>  <a_acid>
0

>  <a_aro>
12

>  <a_base>
0

>  <a_count>
39

>  <a_don>
2

>  <a_donacc>
5

>  <a_heavy>
23

>  <a_hyd>
16

>  <a_IC>
53.420063

>  <a_ICM>
1.3697453

>  <a_nB>
0

>  <a_nBr>
0

>  <a_nC>
19

>  <a_nCl>
0

>  <a_nF>
0

>  <a_nH>
16

>  <a_nI>
0

>  <a_nN>
0

>  <a_nO>
4

>  <a_nP>
0

>  <a_nS>
0

>  <balabanJ>
1.7864592

>  <BCUT_PEOE_0>
-2.4982777

>  <BCUT_PEOE_1>
-0.63418722

>  <BCUT_PEOE_2>
0.62112945

>  <BCUT_PEOE_3>
2.5555649

>  <BCUT_SLOGP_0>
-2.4525921

>  <BCUT_SLOGP_1>
-0.5497247

>  <BCUT_SLOGP_2>
0.72180504

>  <BCUT_SLOGP_3>
2.6183708

>  <BCUT_SMR_0>
-2.2453334

>  <BCUT_SMR_1>
-0.42813641

>  <BCUT_SMR_2>
0.76472932

>  <BCUT_SMR_3>
2.8149302

>  <bpol>
21.323313

>  <b_1rotN>
4

>  <b_1rotR>
0.16

>  <b_ar>
12

>  <b_count>
41

>  <b_double>
3

>  <b_heavy>
25

>  <b_max1len>
5

>  <b_rotN>
4

>  <b_rotR>
0.16

>  <b_single>
26

>  <b_triple>
0

>  <chi0>
16.396976

>  <chi0v>
12.652568

>  <chi0v_C>
10.98061

>  <chi0_C>
12.68987

>  <chi1>
11.075387

>  <chi1v>
7.3672891

>  <chi1v_C>
6.3271856

>  <chi1_C>
8.5268402

>  <chiral>
1

>  <chiral_u>
1

>  <density>
0.74013263

>  <diameter>
10

>  <FCharge>
0

>  <GCUT_PEOE_0>
-0.75859743

>  <GCUT_PEOE_1>
-0.42356417

>  <GCUT_PEOE_2>
0.067217395

>  <GCUT_PEOE_3>
2.6151218

>  <GCUT_SLOGP_0>
-0.81143409

>  <GCUT_SLOGP_1>
-0.29420912

>  <GCUT_SLOGP_2>
0.14827563

>  <GCUT_SLOGP_3>
2.7067177

>  <GCUT_SMR_0>
-0.49105513

>  <GCUT_SMR_1>
-0.22624484

>  <GCUT_SMR_2>
0.20321637

>  <GCUT_SMR_3>
2.8879726

>  <Kier1>
17.811199

>  <Kier2>
7.9200001

>  <Kier3>
3.9837031

>  <KierA1>
12.623818

>  <KierA2>
5.5178261

>  <KierA3>
2.7393954

>  <KierFlex>
3.0285232

>  <lip_acc>
4

>  <lip_don>
1

>  <lip_druglike>
1

>  <lip_violation>
0

>  <logP(o/w)>
2.9360001

>  <logS>
-4.37923

>  <mr>
8.7128038

>  <mutagenic>
0

>  <nmol>
1

>  <opr_brigid>
17

>  <opr_leadlike>
1

>  <opr_nring>
3

>  <opr_nrot>
4

>  <opr_violation>
0

>  <PC+>
0

>  <PC->
0

>  <PEOE_PC+>
1.7552406

>  <PEOE_PC->
-1.7552406

>  <PEOE_RPC+>
0.12498929

>  <PEOE_RPC->
0.19363153

>  <PEOE_VSA+0>
34.293629

>  <PEOE_VSA+1>
51.264072

>  <PEOE_VSA+2>
8.458519

>  <PEOE_VSA+3>
23.167019

>  <PEOE_VSA+4>
10.324173

>  <PEOE_VSA+5>
0

>  <PEOE_VSA+6>
0

>  <PEOE_VSA-0>
45.466026

>  <PEOE_VSA-1>
85.784325

>  <PEOE_VSA-2>
0

>  <PEOE_VSA-3>
0

>  <PEOE_VSA-4>
0

>  <PEOE_VSA-5>
29.637598

>  <PEOE_VSA-6>
7.7675405

>  <PEOE_VSA_FHYD>
0.83884102

>  <PEOE_VSA_FNEG>
0.56946868

>  <PEOE_VSA_FPNEG>
0.1262992

>  <PEOE_VSA_FPOL>
0.16115898

>  <PEOE_VSA_FPOS>
0.43053135

>  <PEOE_VSA_FPPOS>
0.034859776

>  <PEOE_VSA_HYD>
248.43359

>  <PEOE_VSA_NEG>
168.65549

>  <PEOE_VSA_PNEG>
37.40514

>  <PEOE_VSA_POL>
47.729309

>  <PEOE_VSA_POS>
127.50742

>  <PEOE_VSA_PPOS>
10.324173

>  <petitjean>
0.5

>  <petitjeanSC>
1

>  <Q_PC+>
0

>  <Q_PC->
0

>  <Q_RPC+>
0

>  <Q_RPC->
0

>  <Q_VSA_FHYD>
1

>  <Q_VSA_FNEG>
0

>  <Q_VSA_FPNEG>
0

>  <Q_VSA_FPOL>
0

>  <Q_VSA_FPOS>
1

>  <Q_VSA_FPPOS>
0

>  <Q_VSA_HYD>
296.1629

>  <Q_VSA_NEG>
0

>  <Q_VSA_PNEG>
0

>  <Q_VSA_POL>
0

>  <Q_VSA_POS>
296.1629

>  <Q_VSA_PPOS>
0

>  <radius>
5

>  <reactive>
1

>  <rings>
3

>  <RPC+>
0

>  <RPC->
0

>  <rsynth>
1

>  <SlogP>
3.7941999

>  <SlogP_VSA0>
10.999887

>  <SlogP_VSA1>
11.375222

>  <SlogP_VSA2>
23.862217

>  <SlogP_VSA3>
25.385227

>  <SlogP_VSA4>
30.233366

>  <SlogP_VSA5>
10.486856

>  <SlogP_VSA6>
4.4107962

>  <SlogP_VSA7>
158.78867

>  <SlogP_VSA8>
18.868406

>  <SlogP_VSA9>
38.569443

>  <SMR>
8.5536299

>  <SMR_VSA0>
47.724434

>  <SMR_VSA1>
10.999887

>  <SMR_VSA2>
25.385227

>  <SMR_VSA3>
26.51223

>  <SMR_VSA4>
0

>  <SMR_VSA5>
177.65706

>  <SMR_VSA6>
11.375222

>  <SMR_VSA7>
33.326015

>  <TPSA>
63.599998

>  <VAdjEq>
0.45137304

>  <VAdjMa>
5.643856

>  <VDistEq>
3.0480061

>  <VDistMa>
8.7969408

>  <vdw_area>
296.1629

>  <vdw_vol>
416.59152

>  <vsa_acc>
13.566921

>  <vsa_acid>
0

>  <vsa_base>
0

>  <vsa_don>
0

>  <vsa_hyd>
204.78607

>  <vsa_other>
34.129295

>  <vsa_pol>
40.700764

>  <Weight>
308.33298

>  <weinerPath>
1092

>  <weinerPol>
38

>  <zagreb>
120

$$$$