O1Cc2c(c(O)c(CC=C(CCC(OCCN3CCOCC3)=O)/C)c(OC)c2C)C1=O
  MOE2013           2D

 31 33  0  0  0  0  0  0  0  0999 V2000
    0.0000    0.0000    0.0000 O   0  0  0  0  0  0  0  0  0  0  0  0
    0.8280   -1.2500    0.0000 C   0  0  0  0  0  0  0  0  0  0  0  0
    2.2740   -0.8490    0.0000 C   0  0  0  0  0  0  0  0  0  0  0  0
    2.3380    0.6500    0.0000 C   0  0  0  0  0  0  0  0  0  0  0  0
    3.6690    1.3430    0.0000 C   0  0  0  0  0  0  0  0  0  0  0  0
    3.7330    2.8420    0.0000 O   0  0  0  0  0  0  0  0  0  0  0  0
    4.9340    0.5380    0.0000 C   0  0  0  0  0  0  0  0  0  0  0  0
    6.2640    1.2310    0.0000 C   0  0  0  0  0  0  0  0  0  0  0  0
    7.5300    0.4260    0.0000 C   0  0  0  0  0  0  0  0  0  0  0  0
    8.8600    1.1190    0.0000 C   0  0  0  0  0  0  0  0  0  0  0  0
   10.1250    0.3130    0.0000 C   0  0  0  0  0  0  0  0  0  0  0  0
   11.4560    1.0070    0.0000 C   0  0  0  0  0  0  0  0  0  0  0  0
   12.7210    0.2010    0.0000 C   0  0  0  0  0  0  0  0  0  0  0  0
   14.0510    0.8950    0.0000 O   0  0  0  0  0  0  0  0  0  0  0  0
   15.3170    0.0890    0.0000 C   0  0  0  0  0  0  0  0  0  0  0  0
   16.6470    0.7820    0.0000 C   0  0  0  0  0  0  0  0  0  0  0  0
   17.9120   -0.0230    0.0000 N   0  0  0  0  0  0  0  0  0  0  0  0
   17.8480   -1.5210    0.0000 C   0  0  0  0  0  0  0  0  0  0  0  0
   19.1130   -2.3270    0.0000 C   0  0  0  0  0  0  0  0  0  0  0  0
   20.4430   -1.6340    0.0000 O   0  0  0  0  0  0  0  0  0  0  0  0
   20.5080   -0.1350    0.0000 C   0  0  0  0  0  0  0  0  0  0  0  0
   19.2430    0.6700    0.0000 C   0  0  0  0  0  0  0  0  0  0  0  0
   12.6560   -1.2970    0.0000 O   0  0  0  0  0  0  0  0  0  0  0  0
    8.9250    2.6170    0.0000 C   0  0  0  0  0  0  0  0  0  0  0  0
    4.8690   -0.9610    0.0000 C   0  0  0  0  0  0  0  0  0  0  0  0
    6.1350   -1.7660    0.0000 O   0  0  0  0  0  0  0  0  0  0  0  0
    6.0700   -3.2650    0.0000 C   0  0  0  0  0  0  0  0  0  0  0  0
    3.5390   -1.6540    0.0000 C   0  0  0  0  0  0  0  0  0  0  0  0
    3.4740   -3.1530    0.0000 C   0  0  0  0  0  0  0  0  0  0  0  0
    0.9330    1.1740    0.0000 C   0  0  0  0  0  0  0  0  0  0  0  0
    0.5320    2.6200    0.0000 O   0  0  0  0  0  0  0  0  0  0  0  0
  1  2  1  0  0  0  0
  1 30  1  0  0  0  0
  2  3  1  0  0  0  0
  3  4  1  0  0  0  0
  3 28  2  0  0  0  0
  4  5  2  0  0  0  0
  4 30  1  0  0  0  0
  5  6  1  0  0  0  0
  5  7  1  0  0  0  0
  7  8  1  0  0  0  0
  7 25  2  0  0  0  0
  8  9  1  0  0  0  0
  9 10  2  3  0  0  0
 10 11  1  0  0  0  0
 10 24  1  0  0  0  0
 11 12  1  0  0  0  0
 12 13  1  0  0  0  0
 13 14  1  0  0  0  0
 13 23  2  0  0  0  0
 14 15  1  0  0  0  0
 15 16  1  0  0  0  0
 16 17  1  0  0  0  0
 17 18  1  0  0  0  0
 17 22  1  0  0  0  0
 18 19  1  0  0  0  0
 19 20  1  0  0  0  0
 20 21  1  0  0  0  0
 21 22  1  0  0  0  0
 25 26  1  0  0  0  0
 25 28  1  0  0  0  0
 26 27  1  0  0  0  0
 28 29  1  0  0  0  0
 30 31  2  0  0  0  0
M  END
>  <Index>
1662

>  <ID>
HT1442

>  <class>
1

>  <apol>
67.864586

>  <ast_fraglike>
0

>  <ast_fraglike_ext>
0

>  <ast_violation>
2

>  <ast_violation_ext>
3

>  <a_acc>
6

>  <a_acid>
0

>  <a_aro>
6

>  <a_base>
0

>  <a_count>
62

>  <a_don>
1

>  <a_donacc>
7

>  <a_heavy>
31

>  <a_hyd>
21

>  <a_IC>
91.886673

>  <a_ICM>
1.4820431

>  <a_nB>
0

>  <a_nBr>
0

>  <a_nC>
23

>  <a_nCl>
0

>  <a_nF>
0

>  <a_nH>
31

>  <a_nI>
0

>  <a_nN>
1

>  <a_nO>
7

>  <a_nP>
0

>  <a_nS>
0

>  <balabanJ>
1.3701863

>  <BCUT_PEOE_0>
-2.717108

>  <BCUT_PEOE_1>
-0.22683236

>  <BCUT_PEOE_2>
0.060382552

>  <BCUT_PEOE_3>
2.6442499

>  <BCUT_SLOGP_0>
-2.8362839

>  <BCUT_SLOGP_1>
-0.078190193

>  <BCUT_SLOGP_2>
0.13217179

>  <BCUT_SLOGP_3>
2.6188197

>  <BCUT_SMR_0>
-2.4519973

>  <BCUT_SMR_1>
0.051180623

>  <BCUT_SMR_2>
0.20667723

>  <BCUT_SMR_3>
2.8971598

>  <bpol>
45.449417

>  <b_1rotN>
9

>  <b_1rotR>
0.27272728

>  <b_ar>
6

>  <b_count>
64

>  <b_double>
3

>  <b_heavy>
33

>  <b_max1len>
5

>  <b_rotN>
10

>  <b_rotR>
0.30303031

>  <b_single>
55

>  <b_triple>
0

>  <chi0>
22.380104

>  <chi0v>
18.492334

>  <chi0v_C>
15.148418

>  <chi0_C>
15.974327

>  <chi1>
14.917923

>  <chi1v>
10.616997

>  <chi1v_C>
6.8611369

>  <chi1_C>
8.0292749

>  <chiral>
0

>  <chiral_u>
0

>  <density>
0.74497455

>  <diameter>
17

>  <FCharge>
0

>  <GCUT_PEOE_0>
-0.84337306

>  <GCUT_PEOE_1>
-0.38604686

>  <GCUT_PEOE_2>
-0.099617444

>  <GCUT_PEOE_3>
2.7263722

>  <GCUT_SLOGP_0>
-0.96267354

>  <GCUT_SLOGP_1>
-0.27932385

>  <GCUT_SLOGP_2>
-0.037

>  <GCUT_SLOGP_3>
2.8124416

>  <GCUT_SMR_0>
-0.51679295

>  <GCUT_SMR_1>
-0.12941736

>  <GCUT_SMR_2>
-0.025913494

>  <GCUT_SMR_3>
2.9769895

>  <Kier1>
25.619835

>  <Kier2>
12.459259

>  <Kier3>
6.7566791

>  <KierA1>
21.684061

>  <KierA2>
10.483671

>  <KierA3>
5.6609983

>  <KierFlex>
7.3331795

>  <lip_acc>
8

>  <lip_don>
1

>  <lip_druglike>
1

>  <lip_violation>
0

>  <logP(o/w)>
1.937

>  <logS>
-3.59744

>  <mr>
11.545483

>  <mutagenic>
0

>  <nmol>
1

>  <opr_brigid>
17

>  <opr_leadlike>
1

>  <opr_nring>
3

>  <opr_nrot>
11

>  <opr_violation>
1

>  <PC+>
0

>  <PC->
0

>  <PEOE_PC+>
2.8024127

>  <PEOE_PC->
-2.8024127

>  <PEOE_RPC+>
0.1059699

>  <PEOE_RPC->
0.13461347

>  <PEOE_VSA+0>
152.26143

>  <PEOE_VSA+1>
130.11539

>  <PEOE_VSA+2>
0

>  <PEOE_VSA+3>
0

>  <PEOE_VSA+4>
10.324173

>  <PEOE_VSA+5>
29.416998

>  <PEOE_VSA+6>
0

>  <PEOE_VSA-0>
59.31506

>  <PEOE_VSA-1>
14.463444

>  <PEOE_VSA-2>
0

>  <PEOE_VSA-3>
0

>  <PEOE_VSA-4>
0

>  <PEOE_VSA-5>
27.133842

>  <PEOE_VSA-6>
17.782564

>  <PEOE_VSA_FHYD>
0.80795121

>  <PEOE_VSA_FNEG>
0.26926368

>  <PEOE_VSA_FPNEG>
0.10189449

>  <PEOE_VSA_FPOL>
0.19204877

>  <PEOE_VSA_FPOS>
0.73073632

>  <PEOE_VSA_FPPOS>
0.090154283

>  <PEOE_VSA_HYD>
356.15533

>  <PEOE_VSA_NEG>
118.69491

>  <PEOE_VSA_PNEG>
44.916405

>  <PEOE_VSA_POL>
84.657578

>  <PEOE_VSA_POS>
322.11798

>  <PEOE_VSA_PPOS>
39.741173

>  <petitjean>
0.47058824

>  <petitjeanSC>
0.8888889

>  <Q_PC+>
0

>  <Q_PC->
0

>  <Q_RPC+>
0

>  <Q_RPC->
0

>  <Q_VSA_FHYD>
1

>  <Q_VSA_FNEG>
0

>  <Q_VSA_FPNEG>
0

>  <Q_VSA_FPOL>
0

>  <Q_VSA_FPOS>
1

>  <Q_VSA_FPPOS>
0

>  <Q_VSA_HYD>
440.8129

>  <Q_VSA_NEG>
0

>  <Q_VSA_PNEG>
0

>  <Q_VSA_POL>
0

>  <Q_VSA_POS>
440.8129

>  <Q_VSA_PPOS>
0

>  <radius>
9

>  <reactive>
1

>  <rings>
3

>  <RPC+>
0

>  <RPC->
0

>  <rsynth>
1

>  <SlogP>
2.79039

>  <SlogP_VSA0>
36.385113

>  <SlogP_VSA1>
18.615242

>  <SlogP_VSA2>
56.861881

>  <SlogP_VSA3>
118.09751

>  <SlogP_VSA4>
36.604515

>  <SlogP_VSA5>
57.437847

>  <SlogP_VSA6>
0

>  <SlogP_VSA7>
17.643185

>  <SlogP_VSA8>
37.736813

>  <SlogP_VSA9>
98.065147

>  <SMR>
11.36333

>  <SMR_VSA0>
80.724098

>  <SMR_VSA1>
39.50943

>  <SMR_VSA2>
0

>  <SMR_VSA3>
26.41473

>  <SMR_VSA4>
0

>  <SMR_VSA5>
95.17466

>  <SMR_VSA6>
133.58844

>  <SMR_VSA7>
102.0359

>  <TPSA>
94.529999

>  <VAdjEq>
0.36097246

>  <VAdjMa>
6.044394

>  <VDistEq>
3.9308181

>  <VDistMa>
9.572176

>  <vdw_area>
440.8129

>  <vdw_vol>
581.90039

>  <vsa_acc>
32.141354

>  <vsa_acid>
0

>  <vsa_base>
0

>  <vsa_don>
0

>  <vsa_hyd>
334.80145

>  <vsa_other>
34.424511

>  <vsa_pol>
45.708275

>  <Weight>
433.50098

>  <weinerPath>
3259

>  <weinerPol>
48

>  <zagreb>
156

$$$$