O1[C@H](CC)[C@@](O)([C@@H]2O[C@@H](N[C@@H]([C@@H](C[C@](O)(C)[C@H](O[C@@H]3O[C@@H](C[C@H](N(C)C)[C@H]3O)C)[C@@H](C)[C@H](O[C@@H]3O[C@@H](C)[C@H](O)[C@](OC)(C3)C)[C@@H](C)C1=O)C)[C@@H]2C)COCCOC)C
  MOE2013           2D

 58 61  0  0  1  0  0  0  0  0999 V2000
    0.0000    0.0000    0.0000 O   0  0  0  0  0  0  0  0  0  0  0  0
    1.4140    0.0930    0.0000 C   0  0  2  0  0  0  0  0  0  0  0  0
    1.9310    1.5010    0.0000 C   0  0  0  0  0  0  0  0  0  0  0  0
    0.9690    2.6530    0.0000 C   0  0  0  0  0  0  0  0  0  0  0  0
    2.4460   -0.9040    0.0000 C   0  0  1  0  0  0  0  0  0  0  0  0
    3.2750    0.3460    0.0000 O   0  0  0  0  0  0  0  0  0  0  0  0
    2.6800   -2.1870    0.0000 C   0  0  2  0  0  0  0  0  0  0  0  0
    4.1780   -2.1150    0.0000 O   0  0  0  0  0  0  0  0  0  0  0  0
    4.9800   -3.3950    0.0000 C   0  0  1  0  0  0  0  0  0  0  0  0
    4.2640   -4.7250    0.0000 N   0  0  0  0  0  0  0  0  0  0  0  0
    2.7660   -4.7530    0.0000 C   0  0  1  0  0  0  0  0  0  0  0  0
    2.6150   -6.0500    0.0000 C   0  0  1  0  0  0  0  0  0  0  0  0
    1.6240   -7.0940    0.0000 C   0  0  0  0  0  0  0  0  0  0  0  0
    0.2030   -7.0330    0.0000 C   0  0  2  0  0  0  0  0  0  0  0  0
    0.3820   -8.5220    0.0000 O   0  0  0  0  0  0  0  0  0  0  0  0
   -0.8930   -8.0570    0.0000 C   0  0  0  0  0  0  0  0  0  0  0  0
   -0.8030   -6.1200    0.0000 C   0  0  2  0  0  0  0  0  0  0  0  0
   -2.0580   -6.9420    0.0000 O   0  0  0  0  0  0  0  0  0  0  0  0
   -1.9730   -8.4400    0.0000 C   0  0  2  0  0  0  0  0  0  0  0  0
   -0.6340   -9.1160    0.0000 O   0  0  0  0  0  0  0  0  0  0  0  0
   -0.5500  -10.6130    0.0000 C   0  0  1  0  0  0  0  0  0  0  0  0
   -1.8050  -11.4350    0.0000 C   0  0  0  0  0  0  0  0  0  0  0  0
   -3.1440  -10.7590    0.0000 C   0  0  2  0  0  0  0  0  0  0  0  0
   -4.3990  -11.5800    0.0000 N   0  0  0  0  0  0  0  0  0  0  0  0
   -4.3150  -13.0780    0.0000 C   0  0  0  0  0  0  0  0  0  0  0  0
   -5.7380  -10.9040    0.0000 C   0  0  0  0  0  0  0  0  0  0  0  0
   -3.2280   -9.2610    0.0000 C   0  0  1  0  0  0  0  0  0  0  0  0
   -4.5670   -8.5850    0.0000 O   0  0  0  0  0  0  0  0  0  0  0  0
    0.7890  -11.2890    0.0000 C   0  0  0  0  0  0  0  0  0  0  0  0
   -1.2360   -4.8370    0.0000 C   0  0  1  0  0  0  0  0  0  0  0  0
   -2.7320   -4.7250    0.0000 C   0  0  0  0  0  0  0  0  0  0  0  0
   -0.5560   -3.5170    0.0000 C   0  0  2  0  0  0  0  0  0  0  0  0
   -1.9440   -4.0860    0.0000 O   0  0  0  0  0  0  0  0  0  0  0  0
   -3.1310   -3.1690    0.0000 C   0  0  2  0  0  0  0  0  0  0  0  0
   -4.3990   -3.9710    0.0000 O   0  0  0  0  0  0  0  0  0  0  0  0
   -5.7270   -3.2740    0.0000 C   0  0  1  0  0  0  0  0  0  0  0  0
   -6.9950   -4.0760    0.0000 C   0  0  0  0  0  0  0  0  0  0  0  0
   -5.7870   -1.7750    0.0000 C   0  0  2  0  0  0  0  0  0  0  0  0
   -7.1160   -1.0780    0.0000 O   0  0  0  0  0  0  0  0  0  0  0  0
   -4.5200   -0.9730    0.0000 C   0  0  2  0  0  0  0  0  0  0  0  0
   -5.3210    0.2940    0.0000 O   0  0  0  0  0  0  0  0  0  0  0  0
   -4.6240    1.6230    0.0000 C   0  0  0  0  0  0  0  0  0  0  0  0
   -3.1910   -1.6700    0.0000 C   0  0  0  0  0  0  0  0  0  0  0  0
   -3.8230    0.3550    0.0000 C   0  0  0  0  0  0  0  0  0  0  0  0
   -1.3410   -2.2550    0.0000 C   0  0  1  0  0  0  0  0  0  0  0  0
   -2.8240   -2.4750    0.0000 C   0  0  0  0  0  0  0  0  0  0  0  0
   -0.9890   -0.9370    0.0000 C   0  0  0  0  0  0  0  0  0  0  0  0
   -2.2780   -0.1710    0.0000 O   0  0  0  0  0  0  0  0  0  0  0  0
    3.9730   -6.6860    0.0000 C   0  0  0  0  0  0  0  0  0  0  0  0
    1.9810   -3.4950    0.0000 C   0  0  2  0  0  0  0  0  0  0  0  0
    0.4820   -3.5450    0.0000 C   0  0  0  0  0  0  0  0  0  0  0  0
    6.4790   -3.3450    0.0000 C   0  0  0  0  0  0  0  0  0  0  0  0
    7.2720   -4.6180    0.0000 O   0  0  0  0  0  0  0  0  0  0  0  0
    8.7710   -4.5680    0.0000 C   0  0  0  0  0  0  0  0  0  0  0  0
    9.5640   -5.8420    0.0000 C   0  0  0  0  0  0  0  0  0  0  0  0
   11.0630   -5.7920    0.0000 O   0  0  0  0  0  0  0  0  0  0  0  0
   11.8560   -7.0650    0.0000 C   0  0  0  0  0  0  0  0  0  0  0  0
    3.9430   -0.8140    0.0000 C   0  0  0  0  0  0  0  0  0  0  0  0
  1  2  1  0  0  0  0
  1 47  1  0  0  0  0
  2  3  1  6  0  0  0
  2  5  1  0  0  0  0
  3  4  1  0  0  0  0
  5  6  1  1  0  0  0
  5  7  1  0  0  0  0
  5 58  1  6  0  0  0
  7  8  1  6  0  0  0
  7 50  1  0  0  0  0
  8  9  1  0  0  0  0
  9 10  1  0  0  0  0
  9 52  1  6  0  0  0
 11 10  1  1  0  0  0
 11 12  1  0  0  0  0
 11 50  1  0  0  0  0
 12 13  1  0  0  0  0
 12 49  1  6  0  0  0
 13 14  1  0  0  0  0
 14 15  1  1  0  0  0
 14 16  1  6  0  0  0
 14 17  1  0  0  0  0
 17 18  1  6  0  0  0
 17 30  1  0  0  0  0
 19 18  1  6  0  0  0
 19 20  1  0  0  0  0
 19 27  1  0  0  0  0
 20 21  1  0  0  0  0
 21 22  1  0  0  0  0
 21 29  1  6  0  0  0
 22 23  1  0  0  0  0
 23 24  1  6  0  0  0
 23 27  1  0  0  0  0
 24 25  1  0  0  0  0
 24 26  1  0  0  0  0
 27 28  1  1  0  0  0
 30 31  1  1  0  0  0
 30 32  1  0  0  0  0
 32 33  1  6  0  0  0
 32 45  1  0  0  0  0
 34 33  1  6  0  0  0
 34 35  1  0  0  0  0
 34 43  1  0  0  0  0
 35 36  1  0  0  0  0
 36 37  1  1  0  0  0
 36 38  1  0  0  0  0
 38 39  1  6  0  0  0
 38 40  1  0  0  0  0
 40 41  1  6  0  0  0
 40 43  1  0  0  0  0
 40 44  1  1  0  0  0
 41 42  1  0  0  0  0
 45 46  1  1  0  0  0
 45 47  1  0  0  0  0
 47 48  2  0  0  0  0
 50 51  1  6  0  0  0
 52 53  1  0  0  0  0
 53 54  1  0  0  0  0
 54 55  1  0  0  0  0
 55 56  1  0  0  0  0
 56 57  1  0  0  0  0
M  END
>  <Index>
1534

>  <ID>
HT0695

>  <class>
1

>  <apol>
139.35785

>  <ast_fraglike>
0

>  <ast_fraglike_ext>
0

>  <ast_violation>
3

>  <ast_violation_ext>
5

>  <a_acc>
15

>  <a_acid>
0

>  <a_aro>
0

>  <a_base>
0

>  <a_count>
136

>  <a_don>
5

>  <a_donacc>
20

>  <a_heavy>
58

>  <a_hyd>
38

>  <a_IC>
191.85327

>  <a_ICM>
1.4106858

>  <a_nB>
0

>  <a_nBr>
0

>  <a_nC>
42

>  <a_nCl>
0

>  <a_nF>
0

>  <a_nH>
78

>  <a_nI>
0

>  <a_nN>
2

>  <a_nO>
14

>  <a_nP>
0

>  <a_nS>
0

>  <balabanJ>
1.8293248

>  <BCUT_PEOE_0>
-2.8656106

>  <BCUT_PEOE_1>
-0.20132789

>  <BCUT_PEOE_2>
0.10638433

>  <BCUT_PEOE_3>
2.8661697

>  <BCUT_SLOGP_0>
-2.9774094

>  <BCUT_SLOGP_1>
-0.12436058

>  <BCUT_SLOGP_2>
0.123

>  <BCUT_SLOGP_3>
2.8042519

>  <BCUT_SMR_0>
-2.630132

>  <BCUT_SMR_1>
0.053368989

>  <BCUT_SMR_2>
0.16403286

>  <BCUT_SMR_3>
3.0913882

>  <bpol>
106.11214

>  <b_1rotN>
12

>  <b_1rotR>
0.19672132

>  <b_ar>
0

>  <b_count>
139

>  <b_double>
1

>  <b_heavy>
61

>  <b_max1len>
8

>  <b_rotN>
12

>  <b_rotR>
0.19672132

>  <b_single>
138

>  <b_triple>
0

>  <chi0>
43.490471

>  <chi0v>
37.583252

>  <chi0v_C>
30.764702

>  <chi0_C>
30.842052

>  <chi1>
27.019167

>  <chi1v>
21.352388

>  <chi1v_C>
13.77118

>  <chi1_C>
13.815839

>  <chiral>
20

>  <chiral_u>
0

>  <density>
0.72632128

>  <diameter>
20

>  <FCharge>
0

>  <GCUT_PEOE_0>
-0.85631645

>  <GCUT_PEOE_1>
-0.32603821

>  <GCUT_PEOE_2>
-0.10007089

>  <GCUT_PEOE_3>
3.6693721

>  <GCUT_SLOGP_0>
-1.1557858

>  <GCUT_SLOGP_1>
-0.31187645

>  <GCUT_SLOGP_2>
-0.037

>  <GCUT_SLOGP_3>
3.6395628

>  <GCUT_SMR_0>
-0.53537256

>  <GCUT_SMR_1>
-0.12845992

>  <GCUT_SMR_2>
-0.040972669

>  <GCUT_SMR_3>
3.8700392

>  <Kier1>
50.642838

>  <Kier2>
21.119093

>  <Kier3>
11.780616

>  <KierA1>
49.851963

>  <KierA2>
20.783457

>  <KierA3>
11.591162

>  <KierFlex>
17.863726

>  <lip_acc>
16

>  <lip_don>
5

>  <lip_druglike>
0

>  <lip_violation>
2

>  <logP(o/w)>
3.66574

>  <logS>
-4.2967

>  <mr>
21.496964

>  <mutagenic>
0

>  <nmol>
1

>  <opr_brigid>
30

>  <opr_leadlike>
0

>  <opr_nring>
3

>  <opr_nrot>
27

>  <opr_violation>
3

>  <PC+>
0

>  <PC->
0

>  <PEOE_PC+>
6.1321349

>  <PEOE_PC->
-6.1321349

>  <PEOE_RPC+>
0.043679811

>  <PEOE_RPC->
0.063009486

>  <PEOE_VSA+0>
278.25784

>  <PEOE_VSA+1>
172.38733

>  <PEOE_VSA+2>
27.82481

>  <PEOE_VSA+3>
22.309816

>  <PEOE_VSA+4>
41.296692

>  <PEOE_VSA+5>
14.708499

>  <PEOE_VSA+6>
0

>  <PEOE_VSA-0>
166.3197

>  <PEOE_VSA-1>
93.738388

>  <PEOE_VSA-2>
0

>  <PEOE_VSA-3>
0

>  <PEOE_VSA-4>
0

>  <PEOE_VSA-5>
13.703812

>  <PEOE_VSA-6>
53.603966

>  <PEOE_VSA_FHYD>
0.86052948

>  <PEOE_VSA_FNEG>
0.37026018

>  <PEOE_VSA_FPNEG>
0.07612703

>  <PEOE_VSA_FPOL>
0.1394705

>  <PEOE_VSA_FPOS>
0.62973982

>  <PEOE_VSA_FPPOS>
0.06334348

>  <PEOE_VSA_HYD>
760.83789

>  <PEOE_VSA_NEG>
327.36588

>  <PEOE_VSA_PNEG>
67.307777

>  <PEOE_VSA_POL>
123.31297

>  <PEOE_VSA_POS>
556.78497

>  <PEOE_VSA_PPOS>
56.005188

>  <petitjean>
0.5

>  <petitjeanSC>
1

>  <Q_PC+>
0

>  <Q_PC->
0

>  <Q_RPC+>
0

>  <Q_RPC->
0

>  <Q_VSA_FHYD>
1

>  <Q_VSA_FNEG>
0

>  <Q_VSA_FPNEG>
0

>  <Q_VSA_FPOL>
0

>  <Q_VSA_FPOS>
1

>  <Q_VSA_FPPOS>
0

>  <Q_VSA_HYD>
884.15088

>  <Q_VSA_NEG>
0

>  <Q_VSA_PNEG>
0

>  <Q_VSA_POL>
0

>  <Q_VSA_POS>
884.15088

>  <Q_VSA_PPOS>
0

>  <radius>
10

>  <reactive>
1

>  <rings>
4

>  <RPC+>
0

>  <RPC->
0

>  <rsynth>
0.53448278

>  <SlogP>
2.2017

>  <SlogP_VSA0>
119.55166

>  <SlogP_VSA1>
10.869778

>  <SlogP_VSA2>
205.66716

>  <SlogP_VSA3>
62.778774

>  <SlogP_VSA4>
17.643185

>  <SlogP_VSA5>
136.56212

>  <SlogP_VSA6>
0

>  <SlogP_VSA7>
0

>  <SlogP_VSA8>
75.473625

>  <SlogP_VSA9>
333.26016

>  <SMR>
21.35239

>  <SMR_VSA0>
122.86121

>  <SMR_VSA1>
104.66522

>  <SMR_VSA2>
35.653934

>  <SMR_VSA3>
82.805954

>  <SMR_VSA4>
0

>  <SMR_VSA5>
75.473625

>  <SMR_VSA6>
70.524239

>  <SMR_VSA7>
469.82227

>  <TPSA>
196.33

>  <VAdjEq>
0.22490348

>  <VAdjMa>
6.9307375

>  <VDistEq>
3.9275346

>  <VDistMa>
11.496979

>  <vdw_area>
884.15088

>  <vdw_vol>
1149.7474

>  <vsa_acc>
33.59697

>  <vsa_acid>
0

>  <vsa_base>
0

>  <vsa_don>
0

>  <vsa_hyd>
652.51111

>  <vsa_other>
59.578785

>  <vsa_pol>
93.547226

>  <Weight>
835.086

>  <weinerPath>
12725

>  <weinerPol>
112

>  <zagreb>
306

$$$$