Ic1c(C(=O)NC(CO)CO)c(I)c(NC(=O)[C@@H](O)C)c(I)c1C(=O)NC(CO)CO
  MOE2013           2D

 31 31  0  0  1  0  0  0  0  0999 V2000
    0.0000    0.0000    0.0000 I   0  0  0  0  0  0  0  0  0  0  0  0
    0.7460   -1.3010    0.0000 C   0  0  0  0  0  0  0  0  0  0  0  0
   -0.0070   -2.5980    0.0000 C   0  0  0  0  0  0  0  0  0  0  0  0
   -1.5070   -2.5940    0.0000 C   0  0  0  0  0  0  0  0  0  0  0  0
   -2.2610   -3.8910    0.0000 O   0  0  0  0  0  0  0  0  0  0  0  0
   -2.2540   -1.2930    0.0000 N   0  0  0  0  0  0  0  0  0  0  0  0
   -3.7540   -1.2890    0.0000 C   0  0  0  0  0  0  0  0  0  0  0  0
   -4.5070   -2.5860    0.0000 C   0  0  0  0  0  0  0  0  0  0  0  0
   -6.0070   -2.5810    0.0000 O   0  0  0  0  0  0  0  0  0  0  0  0
   -4.5000    0.0120    0.0000 C   0  0  0  0  0  0  0  0  0  0  0  0
   -6.0000    0.0170    0.0000 O   0  0  0  0  0  0  0  0  0  0  0  0
    0.7390   -3.8990    0.0000 C   0  0  0  0  0  0  0  0  0  0  0  0
   -0.0140   -5.1960    0.0000 I   0  0  0  0  0  0  0  0  0  0  0  0
    2.2390   -3.9030    0.0000 C   0  0  0  0  0  0  0  0  0  0  0  0
    2.9860   -5.2040    0.0000 N   0  0  0  0  0  0  0  0  0  0  0  0
    2.2320   -6.5010    0.0000 C   0  0  0  0  0  0  0  0  0  0  0  0
    0.7320   -6.4970    0.0000 O   0  0  0  0  0  0  0  0  0  0  0  0
    2.9780   -7.8030    0.0000 C   0  0  1  0  0  0  0  0  0  0  0  0
    4.4780   -7.8070    0.0000 O   0  0  0  0  0  0  0  0  0  0  0  0
    2.2250   -9.0990    0.0000 C   0  0  0  0  0  0  0  0  0  0  0  0
    2.9930   -2.6060    0.0000 C   0  0  0  0  0  0  0  0  0  0  0  0
    4.4930   -2.6110    0.0000 I   0  0  0  0  0  0  0  0  0  0  0  0
    2.2460   -1.3050    0.0000 C   0  0  0  0  0  0  0  0  0  0  0  0
    3.0000   -0.0080    0.0000 C   0  0  0  0  0  0  0  0  0  0  0  0
    2.2540    1.2930    0.0000 O   0  0  0  0  0  0  0  0  0  0  0  0
    4.5000   -0.0120    0.0000 N   0  0  0  0  0  0  0  0  0  0  0  0
    5.2540    1.2840    0.0000 C   0  0  0  0  0  0  0  0  0  0  0  0
    4.5070    2.5860    0.0000 C   0  0  0  0  0  0  0  0  0  0  0  0
    5.2610    3.8830    0.0000 O   0  0  0  0  0  0  0  0  0  0  0  0
    6.7540    1.2800    0.0000 C   0  0  0  0  0  0  0  0  0  0  0  0
    7.5070    2.5770    0.0000 O   0  0  0  0  0  0  0  0  0  0  0  0
  1  2  1  0  0  0  0
  2  3  2  0  0  0  0
  2 23  1  0  0  0  0
  3  4  1  0  0  0  0
  3 12  1  0  0  0  0
  4  5  2  0  0  0  0
  4  6  1  0  0  0  0
  6  7  1  0  0  0  0
  7  8  1  0  0  0  0
  7 10  1  0  0  0  0
  8  9  1  0  0  0  0
 10 11  1  0  0  0  0
 12 13  1  0  0  0  0
 12 14  2  0  0  0  0
 14 15  1  0  0  0  0
 14 21  1  0  0  0  0
 15 16  1  0  0  0  0
 16 17  2  0  0  0  0
 16 18  1  0  0  0  0
 18 19  1  0  0  0  0
 18 20  1  1  0  0  0
 21 22  1  0  0  0  0
 21 23  2  0  0  0  0
 23 24  1  0  0  0  0
 24 25  2  0  0  0  0
 24 26  1  0  0  0  0
 26 27  1  0  0  0  0
 27 28  1  0  0  0  0
 27 30  1  0  0  0  0
 28 29  1  0  0  0  0
 30 31  1  0  0  0  0
M  END
>  <Index>
1604

>  <ID>
HT1111

>  <class>
1

>  <apol>
70.355446

>  <ast_fraglike>
0

>  <ast_fraglike_ext>
0

>  <ast_violation>
3

>  <ast_violation_ext>
5

>  <a_acc>
8

>  <a_acid>
0

>  <a_aro>
6

>  <a_base>
0

>  <a_count>
53

>  <a_don>
8

>  <a_donacc>
16

>  <a_heavy>
31

>  <a_hyd>
17

>  <a_IC>
102.47565

>  <a_ICM>
1.9335028

>  <a_nB>
0

>  <a_nBr>
0

>  <a_nC>
17

>  <a_nCl>
0

>  <a_nF>
0

>  <a_nH>
22

>  <a_nI>
3

>  <a_nN>
3

>  <a_nO>
8

>  <a_nP>
0

>  <a_nS>
0

>  <balabanJ>
3.2309296

>  <BCUT_PEOE_0>
-2.5654657

>  <BCUT_PEOE_1>
-0.6868301

>  <BCUT_PEOE_2>
0.72098231

>  <BCUT_PEOE_3>
2.5650046

>  <BCUT_SLOGP_0>
-2.7872372

>  <BCUT_SLOGP_1>
-0.65735203

>  <BCUT_SLOGP_2>
0.59000206

>  <BCUT_SLOGP_3>
2.4136138

>  <BCUT_SMR_0>
-2.3220828

>  <BCUT_SMR_1>
-0.44410357

>  <BCUT_SMR_2>
0.89207786

>  <BCUT_SMR_3>
2.8155231

>  <bpol>
39.674553

>  <b_1rotN>
10

>  <b_1rotR>
0.32258064

>  <b_ar>
6

>  <b_count>
53

>  <b_double>
3

>  <b_heavy>
31

>  <b_max1len>
6

>  <b_rotN>
13

>  <b_rotR>
0.41935483

>  <b_single>
44

>  <b_triple>
0

>  <chi0>
23.877951

>  <chi0v>
22.62768

>  <chi0v_C>
10.060478

>  <chi0_C>
10.75663

>  <chi1>
14.529712

>  <chi1v>
12.015045

>  <chi1v_C>
4.4990187

>  <chi1_C>
5.2103434

>  <chiral>
1

>  <chiral_u>
0

>  <density>
1.316437

>  <diameter>
12

>  <FCharge>
0

>  <GCUT_PEOE_0>
-0.82262444

>  <GCUT_PEOE_1>
-0.45846662

>  <GCUT_PEOE_2>
0.14609975

>  <GCUT_PEOE_3>
2.6289811

>  <GCUT_SLOGP_0>
-1.1637874

>  <GCUT_SLOGP_1>
-0.46539634

>  <GCUT_SLOGP_2>
0.064985871

>  <GCUT_SLOGP_3>
2.6175163

>  <GCUT_SMR_0>
-0.51898152

>  <GCUT_SMR_1>
-0.22409861

>  <GCUT_SMR_2>
0.27216741

>  <GCUT_SMR_3>
2.9776292

>  <Kier1>
29.032259

>  <Kier2>
13.645214

>  <Kier3>
7.5

>  <KierA1>
31.958557

>  <KierA2>
15.069051

>  <KierA3>
8.3020763

>  <KierFlex>
15.535004

>  <lip_acc>
11

>  <lip_don>
8

>  <lip_druglike>
0

>  <lip_violation>
3

>  <logP(o/w)>
0.461

>  <logS>
-4.1683002

>  <mr>
13.788127

>  <mutagenic>
0

>  <nmol>
1

>  <opr_brigid>
6

>  <opr_leadlike>
0

>  <opr_nring>
1

>  <opr_nrot>
10

>  <opr_violation>
3

>  <PC+>
0

>  <PC->
0

>  <PEOE_PC+>
3.9253192

>  <PEOE_PC->
-3.9253192

>  <PEOE_RPC+>
0.064830102

>  <PEOE_RPC->
0.10009615

>  <PEOE_VSA+0>
15.836252

>  <PEOE_VSA+1>
130.21317

>  <PEOE_VSA+2>
4.9049287

>  <PEOE_VSA+3>
25.857038

>  <PEOE_VSA+4>
51.620865

>  <PEOE_VSA+5>
38.848595

>  <PEOE_VSA+6>
0

>  <PEOE_VSA-0>
159.71771

>  <PEOE_VSA-1>
0

>  <PEOE_VSA-2>
0

>  <PEOE_VSA-3>
0

>  <PEOE_VSA-4>
0

>  <PEOE_VSA-5>
40.700764

>  <PEOE_VSA-6>
39.248375

>  <PEOE_VSA_FHYD>
0.66383398

>  <PEOE_VSA_FNEG>
0.47276446

>  <PEOE_VSA_FPNEG>
0.15770687

>  <PEOE_VSA_FPOL>
0.33616602

>  <PEOE_VSA_FPOS>
0.52723551

>  <PEOE_VSA_FPPOS>
0.17845915

>  <PEOE_VSA_HYD>
336.52908

>  <PEOE_VSA_NEG>
239.66685

>  <PEOE_VSA_PNEG>
79.949135

>  <PEOE_VSA_POL>
170.41859

>  <PEOE_VSA_POS>
267.28082

>  <PEOE_VSA_PPOS>
90.46946

>  <petitjean>
0.41666666

>  <petitjeanSC>
0.71428573

>  <Q_PC+>
0

>  <Q_PC->
0

>  <Q_RPC+>
0

>  <Q_RPC->
0

>  <Q_VSA_FHYD>
1

>  <Q_VSA_FNEG>
0

>  <Q_VSA_FPNEG>
0

>  <Q_VSA_FPOL>
0

>  <Q_VSA_FPOS>
1

>  <Q_VSA_FPPOS>
0

>  <Q_VSA_HYD>
506.94769

>  <Q_VSA_NEG>
0

>  <Q_VSA_PNEG>
0

>  <Q_VSA_POL>
0

>  <Q_VSA_POS>
506.94769

>  <Q_VSA_PPOS>
0

>  <radius>
7

>  <reactive>
0

>  <rings>
1

>  <RPC+>
0

>  <RPC->
0

>  <rsynth>
1

>  <SlogP>
-1.0143

>  <SlogP_VSA0>
162.94763

>  <SlogP_VSA1>
33.787102

>  <SlogP_VSA2>
43.273731

>  <SlogP_VSA3>
83.705032

>  <SlogP_VSA4>
54.095581

>  <SlogP_VSA5>
0

>  <SlogP_VSA6>
0

>  <SlogP_VSA7>
0

>  <SlogP_VSA8>
0

>  <SlogP_VSA9>
206.42879

>  <SMR>
13.57551

>  <SMR_VSA0>
71.586647

>  <SMR_VSA1>
126.92613

>  <SMR_VSA2>
41.000431

>  <SMR_VSA3>
20.803736

>  <SMR_VSA4>
20.767498

>  <SMR_VSA5>
0

>  <SMR_VSA6>
99.481384

>  <SMR_VSA7>
203.67204

>  <TPSA>
188.45

>  <VAdjEq>
0.3451173

>  <VAdjMa>
5.9541965

>  <VDistEq>
3.4186544

>  <VDistMa>
9.6684866

>  <vdw_area>
506.94769

>  <vdw_vol>
590.29639

>  <vsa_acc>
40.700764

>  <vsa_acid>
0

>  <vsa_base>
0

>  <vsa_don>
17.047728

>  <vsa_hyd>
300.70691

>  <vsa_other>
38.848595

>  <vsa_pol>
125.58309

>  <Weight>
777.08801

>  <weinerPath>
2572

>  <weinerPol>
53

>  <zagreb>
148

$$$$