O=C1N(Cc2ccc(cc2)-c2ccccc2-c2nn[nH]n2)C(=NC12CCCC2)CCCC
  MOE2013           2D

 32 36  0  0  0  0  0  0  0  0999 V2000
    0.0000    0.0000    0.0000 O   0  0  0  0  0  0  0  0  0  0  0  0
    1.4630    0.3320    0.0000 C   0  0  0  0  0  0  0  0  0  0  0  0
    2.0530    1.7110    0.0000 N   0  0  0  0  0  0  0  0  0  0  0  0
    1.2850    3.0000    0.0000 C   0  0  0  0  0  0  0  0  0  0  0  0
   -0.2150    2.9790    0.0000 C   0  0  0  0  0  0  0  0  0  0  0  0
   -0.9830    4.2670    0.0000 C   0  0  0  0  0  0  0  0  0  0  0  0
   -2.4830    4.2460    0.0000 C   0  0  0  0  0  0  0  0  0  0  0  0
   -3.2140    2.9360    0.0000 C   0  0  0  0  0  0  0  0  0  0  0  0
   -2.4460    1.6480    0.0000 C   0  0  0  0  0  0  0  0  0  0  0  0
   -0.9460    1.6690    0.0000 C   0  0  0  0  0  0  0  0  0  0  0  0
   -4.7140    2.9150    0.0000 C   0  0  0  0  0  0  0  0  0  0  0  0
   -5.4460    1.6060    0.0000 C   0  0  0  0  0  0  0  0  0  0  0  0
   -6.9460    1.5850    0.0000 C   0  0  0  0  0  0  0  0  0  0  0  0
   -7.7140    2.8730    0.0000 C   0  0  0  0  0  0  0  0  0  0  0  0
   -6.9820    4.1830    0.0000 C   0  0  0  0  0  0  0  0  0  0  0  0
   -5.4820    4.2040    0.0000 C   0  0  0  0  0  0  0  0  0  0  0  0
   -4.7510    5.5130    0.0000 C   0  0  0  0  0  0  0  0  0  0  0  0
   -3.2610    5.6910    0.0000 N   0  0  0  0  0  0  0  0  0  0  0  0
   -2.9700    7.1620    0.0000 N   0  0  0  0  0  0  0  0  0  0  0  0
   -4.2790    7.8940    0.0000 N   0  0  0  0  0  0  0  0  0  0  0  0
   -5.3800    6.8750    0.0000 N   0  0  0  0  0  0  0  0  0  0  0  0
    3.5470    1.5750    0.0000 C   0  0  0  0  0  0  0  0  0  0  0  0
    3.8800    0.1130    0.0000 N   0  0  0  0  0  0  0  0  0  0  0  0
    2.5910   -0.6550    0.0000 C   0  0  0  0  0  0  0  0  0  0  0  0
    3.7200   -1.6430    0.0000 C   0  0  0  0  0  0  0  0  0  0  0  0
    3.1290   -3.0220    0.0000 C   0  0  0  0  0  0  0  0  0  0  0  0
    1.6360   -2.8860    0.0000 C   0  0  0  0  0  0  0  0  0  0  0  0
    1.3030   -1.4240    0.0000 C   0  0  0  0  0  0  0  0  0  0  0  0
    4.5350    2.7040    0.0000 C   0  0  0  0  0  0  0  0  0  0  0  0
    6.0070    2.4130    0.0000 C   0  0  0  0  0  0  0  0  0  0  0  0
    6.9950    3.5420    0.0000 C   0  0  0  0  0  0  0  0  0  0  0  0
    8.4660    3.2500    0.0000 C   0  0  0  0  0  0  0  0  0  0  0  0
  1  2  2  0  0  0  0
  2  3  1  0  0  0  0
  2 24  1  0  0  0  0
  3  4  1  0  0  0  0
  3 22  1  0  0  0  0
  4  5  1  0  0  0  0
  5  6  1  0  0  0  0
  5 10  2  0  0  0  0
  6  7  2  0  0  0  0
  7  8  1  0  0  0  0
  8  9  2  0  0  0  0
  8 11  1  0  0  0  0
  9 10  1  0  0  0  0
 11 12  1  0  0  0  0
 11 16  2  0  0  0  0
 12 13  2  0  0  0  0
 13 14  1  0  0  0  0
 14 15  2  0  0  0  0
 15 16  1  0  0  0  0
 16 17  1  0  0  0  0
 17 18  1  0  0  0  0
 17 21  2  0  0  0  0
 18 19  2  0  0  0  0
 19 20  1  0  0  0  0
 20 21  1  0  0  0  0
 22 23  2  0  0  0  0
 22 29  1  0  0  0  0
 23 24  1  0  0  0  0
 24 25  1  0  0  0  0
 24 28  1  0  0  0  0
 25 26  1  0  0  0  0
 26 27  1  0  0  0  0
 27 28  1  0  0  0  0
 29 30  1  0  0  0  0
 30 31  1  0  0  0  0
 31 32  1  0  0  0  0
M  END
>  <Index>
1610

>  <ID>
HT1123

>  <class>
1

>  <apol>
70.072205

>  <ast_fraglike>
0

>  <ast_fraglike_ext>
0

>  <ast_violation>
3

>  <ast_violation_ext>
5

>  <a_acc>
6

>  <a_acid>
0

>  <a_aro>
17

>  <a_base>
0

>  <a_count>
60

>  <a_don>
2

>  <a_donacc>
8

>  <a_heavy>
32

>  <a_hyd>
22

>  <a_IC>
88.201317

>  <a_ICM>
1.470022

>  <a_nB>
0

>  <a_nBr>
0

>  <a_nC>
25

>  <a_nCl>
0

>  <a_nF>
0

>  <a_nH>
28

>  <a_nI>
0

>  <a_nN>
6

>  <a_nO>
1

>  <a_nP>
0

>  <a_nS>
0

>  <balabanJ>
1.1742235

>  <BCUT_PEOE_0>
-2.5901768

>  <BCUT_PEOE_1>
-0.57899636

>  <BCUT_PEOE_2>
0.58794361

>  <BCUT_PEOE_3>
2.7944422

>  <BCUT_SLOGP_0>
-2.5669563

>  <BCUT_SLOGP_1>
-0.47892767

>  <BCUT_SLOGP_2>
0.66396868

>  <BCUT_SLOGP_3>
2.8424962

>  <BCUT_SMR_0>
-2.3377254

>  <BCUT_SMR_1>
-0.43868792

>  <BCUT_SMR_2>
0.82688564

>  <BCUT_SMR_3>
3.0367823

>  <bpol>
35.527798

>  <b_1rotN>
7

>  <b_1rotR>
0.19444445

>  <b_ar>
17

>  <b_count>
64

>  <b_double>
2

>  <b_heavy>
36

>  <b_max1len>
5

>  <b_rotN>
7

>  <b_rotR>
0.19444445

>  <b_single>
45

>  <b_triple>
0

>  <chi0>
21.968044

>  <chi0v>
18.419973

>  <chi0v_C>
15.275657

>  <chi0_C>
16.85516

>  <chi1>
15.699438

>  <chi1v>
11.529244

>  <chi1v_C>
9.0200377

>  <chi1_C>
10.968875

>  <chiral>
0

>  <chiral_u>
0

>  <density>
0.71857244

>  <diameter>
15

>  <FCharge>
0

>  <GCUT_PEOE_0>
-0.81206673

>  <GCUT_PEOE_1>
-0.40354115

>  <GCUT_PEOE_2>
0.064839907

>  <GCUT_PEOE_3>
2.8616097

>  <GCUT_SLOGP_0>
-0.96598172

>  <GCUT_SLOGP_1>
-0.30314302

>  <GCUT_SLOGP_2>
0.12197958

>  <GCUT_SLOGP_3>
2.9365158

>  <GCUT_SMR_0>
-0.53139472

>  <GCUT_SMR_1>
-0.19459891

>  <GCUT_SMR_2>
0.21359237

>  <GCUT_SMR_3>
3.1249728

>  <Kier1>
23.728395

>  <Kier2>
10.726644

>  <Kier3>
5.0347223

>  <KierA1>
17.28437

>  <KierA2>
7.7277451

>  <KierA3>
3.5989478

>  <KierFlex>
4.1740375

>  <lip_acc>
7

>  <lip_don>
1

>  <lip_druglike>
1

>  <lip_violation>
1

>  <logP(o/w)>
5.513

>  <logS>
-7.3140502

>  <mr>
12.466624

>  <mutagenic>
0

>  <nmol>
1

>  <opr_brigid>
27

>  <opr_leadlike>
0

>  <opr_nring>
5

>  <opr_nrot>
8

>  <opr_violation>
2

>  <PC+>
0

>  <PC->
0

>  <PEOE_PC+>
2.08781

>  <PEOE_PC->
-2.08781

>  <PEOE_RPC+>
0.1229133

>  <PEOE_RPC->
0.14087155

>  <PEOE_VSA+0>
83.421417

>  <PEOE_VSA+1>
55.846184

>  <PEOE_VSA+2>
11.190562

>  <PEOE_VSA+3>
0

>  <PEOE_VSA+4>
19.809576

>  <PEOE_VSA+5>
12.949531

>  <PEOE_VSA+6>
0

>  <PEOE_VSA-0>
45.889061

>  <PEOE_VSA-1>
142.89085

>  <PEOE_VSA-2>
18.842079

>  <PEOE_VSA-3>
7.6138182

>  <PEOE_VSA-4>
0

>  <PEOE_VSA-5>
19.249496

>  <PEOE_VSA-6>
0

>  <PEOE_VSA_FHYD>
0.87548894

>  <PEOE_VSA_FNEG>
0.56136906

>  <PEOE_VSA_FPNEG>
0.046084218

>  <PEOE_VSA_FPOL>
0.12451109

>  <PEOE_VSA_FPOS>
0.43863094

>  <PEOE_VSA_FPPOS>
0.078426875

>  <PEOE_VSA_HYD>
365.69397

>  <PEOE_VSA_NEG>
234.48531

>  <PEOE_VSA_PNEG>
19.249496

>  <PEOE_VSA_POL>
52.008602

>  <PEOE_VSA_POS>
183.21727

>  <PEOE_VSA_PPOS>
32.759106

>  <petitjean>
0.46666667

>  <petitjeanSC>
0.875

>  <Q_PC+>
0

>  <Q_PC->
0

>  <Q_RPC+>
0

>  <Q_RPC->
0

>  <Q_VSA_FHYD>
1

>  <Q_VSA_FNEG>
0

>  <Q_VSA_FPNEG>
0

>  <Q_VSA_FPOL>
0

>  <Q_VSA_FPOS>
1

>  <Q_VSA_FPPOS>
0

>  <Q_VSA_HYD>
417.70258

>  <Q_VSA_NEG>
0

>  <Q_VSA_PNEG>
0

>  <Q_VSA_POL>
0

>  <Q_VSA_POS>
417.70258

>  <Q_VSA_PPOS>
0

>  <radius>
8

>  <reactive>
0

>  <rings>
5

>  <RPC+>
0

>  <RPC->
0

>  <rsynth>
1

>  <SlogP>
5.0437999

>  <SlogP_VSA0>
0

>  <SlogP_VSA1>
60.577518

>  <SlogP_VSA2>
40.402702

>  <SlogP_VSA3>
0

>  <SlogP_VSA4>
3.185575

>  <SlogP_VSA5>
16.78553

>  <SlogP_VSA6>
0

>  <SlogP_VSA7>
153.03012

>  <SlogP_VSA8>
132.07884

>  <SlogP_VSA9>
51.765594

>  <SMR>
12.39637

>  <SMR_VSA0>
23.862217

>  <SMR_VSA1>
69.776344

>  <SMR_VSA2>
16.540485

>  <SMR_VSA3>
3.185575

>  <SMR_VSA4>
11.884645

>  <SMR_VSA5>
291.66388

>  <SMR_VSA6>
7.5867038

>  <SMR_VSA7>
33.326015

>  <TPSA>
87.129997

>  <VAdjEq>
0.36708876

>  <VAdjMa>
6.1699252

>  <VDistEq>
3.7259567

>  <VDistMa>
9.6982937

>  <vdw_area>
417.70258

>  <vdw_vol>
596.37689

>  <vsa_acc>
41.83004

>  <vsa_acid>
0

>  <vsa_base>
0

>  <vsa_don>
0

>  <vsa_hyd>
295.66953

>  <vsa_other>
35.330658

>  <vsa_pol>
64.410583

>  <Weight>
428.53998

>  <weinerPath>
3125

>  <weinerPol>
51

>  <zagreb>
174

$$$$