O1[C@@H](C[C@@H](O)CC1=O)CC[C@@H]1[C@@H]2C(=C[C@@H](C[C@@H]2OC(=O)[C@H](CC)C)C)C=C[C@@H]1C
  MOE2013           2D

 29 31  0  0  1  0  0  0  0  0999 V2000
    0.0000    0.0000    0.0000 O   0  0  0  0  0  0  0  0  0  0  0  0
    0.0050   -1.5000    0.0000 C   0  0  1  0  0  0  0  0  0  0  0  0
   -1.2920   -2.2540    0.0000 C   0  0  0  0  0  0  0  0  0  0  0  0
   -2.5940   -1.5080    0.0000 C   0  0  1  0  0  0  0  0  0  0  0  0
   -3.8900   -2.2620    0.0000 O   0  0  0  0  0  0  0  0  0  0  0  0
   -2.5980   -0.0080    0.0000 C   0  0  0  0  0  0  0  0  0  0  0  0
   -1.3010    0.7460    0.0000 C   0  0  0  0  0  0  0  0  0  0  0  0
   -1.3060    2.2460    0.0000 O   0  0  0  0  0  0  0  0  0  0  0  0
    1.3060   -2.2460    0.0000 C   0  0  0  0  0  0  0  0  0  0  0  0
    2.6030   -1.4920    0.0000 C   0  0  0  0  0  0  0  0  0  0  0  0
    3.9040   -2.2380    0.0000 C   0  0  2  0  0  0  0  0  0  0  0  0
    5.2010   -1.4840    0.0000 C   0  0  2  0  0  0  0  0  0  0  0  0
    6.5020   -2.2300    0.0000 C   0  0  0  0  0  0  0  0  0  0  0  0
    7.7990   -1.4760    0.0000 C   0  0  0  0  0  0  0  0  0  0  0  0
    7.7940    0.0240    0.0000 C   0  0  1  0  0  0  0  0  0  0  0  0
    6.4930    0.7700    0.0000 C   0  0  0  0  0  0  0  0  0  0  0  0
    5.1960    0.0160    0.0000 C   0  0  2  0  0  0  0  0  0  0  0  0
    3.8950    0.7620    0.0000 O   0  0  0  0  0  0  0  0  0  0  0  0
    3.8900    2.2620    0.0000 C   0  0  0  0  0  0  0  0  0  0  0  0
    5.1870    3.0160    0.0000 O   0  0  0  0  0  0  0  0  0  0  0  0
    2.5890    3.0080    0.0000 C   0  0  2  0  0  0  0  0  0  0  0  0
    2.5840    4.5080    0.0000 C   0  0  0  0  0  0  0  0  0  0  0  0
    1.2830    5.2540    0.0000 C   0  0  0  0  0  0  0  0  0  0  0  0
    1.2920    2.2540    0.0000 C   0  0  0  0  0  0  0  0  0  0  0  0
    9.0910    0.7770    0.0000 C   0  0  0  0  0  0  0  0  0  0  0  0
    6.5060   -3.7300    0.0000 C   0  0  0  0  0  0  0  0  0  0  0  0
    5.2100   -4.4840    0.0000 C   0  0  0  0  0  0  0  0  0  0  0  0
    3.9080   -3.7380    0.0000 C   0  0  2  0  0  0  0  0  0  0  0  0
    2.6120   -4.4920    0.0000 C   0  0  0  0  0  0  0  0  0  0  0  0
  1  2  1  0  0  0  0
  1  7  1  0  0  0  0
  2  3  1  0  0  0  0
  2  9  1  6  0  0  0
  3  4  1  0  0  0  0
  4  5  1  1  0  0  0
  4  6  1  0  0  0  0
  6  7  1  0  0  0  0
  7  8  2  0  0  0  0
  9 10  1  0  0  0  0
 11 10  1  6  0  0  0
 11 12  1  0  0  0  0
 11 28  1  0  0  0  0
 12 13  1  1  0  0  0
 12 17  1  0  0  0  0
 13 14  2  0  0  0  0
 13 26  1  0  0  0  0
 14 15  1  0  0  0  0
 15 16  1  0  0  0  0
 15 25  1  1  0  0  0
 16 17  1  0  0  0  0
 17 18  1  1  0  0  0
 18 19  1  0  0  0  0
 19 20  2  0  0  0  0
 19 21  1  0  0  0  0
 21 22  1  0  0  0  0
 21 24  1  1  0  0  0
 22 23  1  0  0  0  0
 26 27  2  0  0  0  0
 27 28  1  0  0  0  0
 28 29  1  6  0  0  0
M  END
>  <Index>
1627

>  <ID>
HT1245

>  <class>
1

>  <apol>
70.254547

>  <ast_fraglike>
0

>  <ast_fraglike_ext>
0

>  <ast_violation>
2

>  <ast_violation_ext>
3

>  <a_acc>
3

>  <a_acid>
0

>  <a_aro>
0

>  <a_base>
0

>  <a_count>
65

>  <a_don>
1

>  <a_donacc>
4

>  <a_heavy>
29

>  <a_hyd>
22

>  <a_IC>
83.687866

>  <a_ICM>
1.2875056

>  <a_nB>
0

>  <a_nBr>
0

>  <a_nC>
24

>  <a_nCl>
0

>  <a_nF>
0

>  <a_nH>
36

>  <a_nI>
0

>  <a_nN>
0

>  <a_nO>
5

>  <a_nP>
0

>  <a_nS>
0

>  <balabanJ>
1.6834055

>  <BCUT_PEOE_0>
-2.8231277

>  <BCUT_PEOE_1>
-0.49690759

>  <BCUT_PEOE_2>
0.56487781

>  <BCUT_PEOE_3>
2.8041193

>  <BCUT_SLOGP_0>
-2.7874877

>  <BCUT_SLOGP_1>
-0.46106943

>  <BCUT_SLOGP_2>
0.55501044

>  <BCUT_SLOGP_3>
2.8566062

>  <BCUT_SMR_0>
-2.5744784

>  <BCUT_SMR_1>
-0.38365576

>  <BCUT_SMR_2>
0.65576065

>  <BCUT_SMR_3>
3.0530977

>  <bpol>
45.103451

>  <b_1rotN>
6

>  <b_1rotR>
0.19354838

>  <b_ar>
0

>  <b_count>
67

>  <b_double>
4

>  <b_heavy>
31

>  <b_max1len>
5

>  <b_rotN>
7

>  <b_rotR>
0.22580644

>  <b_single>
63

>  <b_triple>
0

>  <chi0>
21.129028

>  <chi0v>
18.1737

>  <chi0v_C>
16.093494

>  <chi0_C>
16.714813

>  <chi1>
13.778096

>  <chi1v>
11.259498

>  <chi1v_C>
9.713398

>  <chi1_C>
10.413052

>  <chiral>
8

>  <chiral_u>
0

>  <density>
0.69881129

>  <diameter>
13

>  <FCharge>
0

>  <GCUT_PEOE_0>
-0.79550207

>  <GCUT_PEOE_1>
-0.36795142

>  <GCUT_PEOE_2>
0.049645074

>  <GCUT_PEOE_3>
3.1030049

>  <GCUT_SLOGP_0>
-0.87573683

>  <GCUT_SLOGP_1>
-0.29109639

>  <GCUT_SLOGP_2>
0.077497445

>  <GCUT_SLOGP_3>
3.1648967

>  <GCUT_SMR_0>
-0.53533542

>  <GCUT_SMR_1>
-0.21560857

>  <GCUT_SMR_2>
0.14959437

>  <GCUT_SMR_3>
3.3314013

>  <Kier1>
23.658689

>  <Kier2>
10.543388

>  <Kier3>
6.0357141

>  <KierA1>
20.961767

>  <KierA2>
9.2993469

>  <KierA3>
5.3058376

>  <KierFlex>
6.7217503

>  <lip_acc>
5

>  <lip_don>
1

>  <lip_druglike>
1

>  <lip_violation>
0

>  <logP(o/w)>
4.0640001

>  <logS>
-4.2277498

>  <mr>
11.266318

>  <mutagenic>
0

>  <nmol>
1

>  <opr_brigid>
17

>  <opr_leadlike>
1

>  <opr_nring>
3

>  <opr_nrot>
7

>  <opr_violation>
0

>  <PC+>
0

>  <PC->
0

>  <PEOE_PC+>
2.2513576

>  <PEOE_PC->
-2.2513576

>  <PEOE_RPC+>
0.11782711

>  <PEOE_RPC->
0.17376204

>  <PEOE_VSA+0>
132.39751

>  <PEOE_VSA+1>
49.008415

>  <PEOE_VSA+2>
0

>  <PEOE_VSA+3>
0

>  <PEOE_VSA+4>
10.324173

>  <PEOE_VSA+5>
29.416998

>  <PEOE_VSA+6>
0

>  <PEOE_VSA-0>
37.013794

>  <PEOE_VSA-1>
111.75542

>  <PEOE_VSA-2>
0

>  <PEOE_VSA-3>
0

>  <PEOE_VSA-4>
0

>  <PEOE_VSA-5>
27.133842

>  <PEOE_VSA-6>
12.775052

>  <PEOE_VSA_FHYD>
0.80564868

>  <PEOE_VSA_FNEG>
0.46038678

>  <PEOE_VSA_FPNEG>
0.09738028

>  <PEOE_VSA_FPOL>
0.19435132

>  <PEOE_VSA_FPOS>
0.53961319

>  <PEOE_VSA_FPPOS>
0.096971028

>  <PEOE_VSA_HYD>
330.17514

>  <PEOE_VSA_NEG>
188.67812

>  <PEOE_VSA_PNEG>
39.908894

>  <PEOE_VSA_POL>
79.650063

>  <PEOE_VSA_POS>
221.14709

>  <PEOE_VSA_PPOS>
39.741173

>  <petitjean>
0.46153846

>  <petitjeanSC>
0.85714287

>  <Q_PC+>
0

>  <Q_PC->
0

>  <Q_RPC+>
0

>  <Q_RPC->
0

>  <Q_VSA_FHYD>
1

>  <Q_VSA_FNEG>
0

>  <Q_VSA_FPNEG>
0

>  <Q_VSA_FPOL>
0

>  <Q_VSA_FPOS>
1

>  <Q_VSA_FPPOS>
0

>  <Q_VSA_HYD>
409.8252

>  <Q_VSA_NEG>
0

>  <Q_VSA_PNEG>
0

>  <Q_VSA_POL>
0

>  <Q_VSA_POS>
409.8252

>  <Q_VSA_PPOS>
0

>  <radius>
7

>  <reactive>
1

>  <rings>
3

>  <RPC+>
0

>  <RPC->
0

>  <rsynth>
1

>  <SlogP>
4.1954999

>  <SlogP_VSA0>
25.385227

>  <SlogP_VSA1>
15.490929

>  <SlogP_VSA2>
89.130157

>  <SlogP_VSA3>
0

>  <SlogP_VSA4>
22.05398

>  <SlogP_VSA5>
3.185575

>  <SlogP_VSA6>
0

>  <SlogP_VSA7>
52.929554

>  <SlogP_VSA8>
113.21043

>  <SlogP_VSA9>
133.30406

>  <SMR>
11.08378

>  <SMR_VSA0>
69.724205

>  <SMR_VSA1>
25.385227

>  <SMR_VSA2>
22.05398

>  <SMR_VSA3>
22.591522

>  <SMR_VSA4>
0

>  <SMR_VSA5>
166.13998

>  <SMR_VSA6>
15.490929

>  <SMR_VSA7>
133.30406

>  <TPSA>
72.830002

>  <VAdjEq>
0.3796615

>  <VAdjMa>
5.9541965

>  <VDistEq>
3.4917691

>  <VDistMa>
9.4474201

>  <vdw_area>
409.8252

>  <vdw_vol>
578.90735

>  <vsa_acc>
27.133842

>  <vsa_acid>
0

>  <vsa_base>
0

>  <vsa_don>
0

>  <vsa_hyd>
298.53705

>  <vsa_other>
34.424511

>  <vsa_pol>
40.700764

>  <Weight>
404.547

>  <weinerPath>
2246

>  <weinerPol>
47

>  <zagreb>
150

$$$$