s1cccc1CC(=O)N[C@@]1(OC)[C@H]2SCC(COC(=O)N)=C(N2C1=O)C(O)=O
  MOE2013           2D

 28 30  0  0  1  0  0  0  0  0999 V2000
    0.0000    0.0000    0.0000 S   0  0  0  0  0  0  0  0  0  0  0  0
    1.2730   -0.7940    0.0000 C   0  0  0  0  0  0  0  0  0  0  0  0
    0.9110   -2.2500    0.0000 C   0  0  0  0  0  0  0  0  0  0  0  0
   -0.5850   -2.3550    0.0000 C   0  0  0  0  0  0  0  0  0  0  0  0
   -1.1480   -0.9650    0.0000 C   0  0  0  0  0  0  0  0  0  0  0  0
   -2.6040   -0.6030    0.0000 C   0  0  0  0  0  0  0  0  0  0  0  0
   -3.6450   -1.6830    0.0000 C   0  0  0  0  0  0  0  0  0  0  0  0
   -3.2300   -3.1250    0.0000 O   0  0  0  0  0  0  0  0  0  0  0  0
   -5.1010   -1.3220    0.0000 N   0  0  0  0  0  0  0  0  0  0  0  0
   -6.1420   -2.4020    0.0000 C   0  0  1  0  0  0  0  0  0  0  0  0
   -4.7460   -2.9500    0.0000 O   0  0  0  0  0  0  0  0  0  0  0  0
   -4.5230   -4.4330    0.0000 C   0  0  0  0  0  0  0  0  0  0  0  0
   -7.4040   -1.5910    0.0000 C   0  0  1  0  0  0  0  0  0  0  0  0
   -8.0920   -0.2580    0.0000 S   0  0  0  0  0  0  0  0  0  0  0  0
   -9.5900   -0.1880    0.0000 C   0  0  0  0  0  0  0  0  0  0  0  0
  -10.4010   -1.4500    0.0000 C   0  0  0  0  0  0  0  0  0  0  0  0
  -11.8990   -1.3790    0.0000 C   0  0  0  0  0  0  0  0  0  0  0  0
  -12.5870   -0.0460    0.0000 O   0  0  0  0  0  0  0  0  0  0  0  0
  -14.0850    0.0250    0.0000 C   0  0  0  0  0  0  0  0  0  0  0  0
  -14.7730    1.3580    0.0000 O   0  0  0  0  0  0  0  0  0  0  0  0
  -14.8960   -1.2380    0.0000 N   0  0  0  0  0  0  0  0  0  0  0  0
   -9.7130   -2.7830    0.0000 C   0  0  0  0  0  0  0  0  0  0  0  0
   -8.2150   -2.8530    0.0000 N   0  0  0  0  0  0  0  0  0  0  0  0
   -6.9520   -3.6640    0.0000 C   0  0  0  0  0  0  0  0  0  0  0  0
   -6.6330   -5.1290    0.0000 O   0  0  0  0  0  0  0  0  0  0  0  0
  -10.5230   -4.0450    0.0000 C   0  0  0  0  0  0  0  0  0  0  0  0
  -12.0220   -3.9740    0.0000 O   0  0  0  0  0  0  0  0  0  0  0  0
   -9.8350   -5.3780    0.0000 O   0  0  0  0  0  0  0  0  0  0  0  0
  1  2  1  0  0  0  0
  1  5  1  0  0  0  0
  2  3  2  0  0  0  0
  3  4  1  0  0  0  0
  4  5  2  0  0  0  0
  5  6  1  0  0  0  0
  6  7  1  0  0  0  0
  7  8  2  0  0  0  0
  7  9  1  0  0  0  0
 10  9  1  6  0  0  0
 10 11  1  1  0  0  0
 10 13  1  0  0  0  0
 10 24  1  0  0  0  0
 11 12  1  0  0  0  0
 13 14  1  6  0  0  0
 13 23  1  0  0  0  0
 14 15  1  0  0  0  0
 15 16  1  0  0  0  0
 16 17  1  0  0  0  0
 16 22  2  0  0  0  0
 17 18  1  0  0  0  0
 18 19  1  0  0  0  0
 19 20  2  0  0  0  0
 19 21  1  0  0  0  0
 22 23  1  0  0  0  0
 22 26  1  0  0  0  0
 23 24  1  0  0  0  0
 24 25  2  0  0  0  0
 26 27  1  0  0  0  0
 26 28  2  0  0  0  0
M  END
>  <Index>
1474

>  <ID>
HT0415

>  <class>
1

>  <apol>
54.20948

>  <ast_fraglike>
0

>  <ast_fraglike_ext>
0

>  <ast_violation>
3

>  <ast_violation_ext>
5

>  <a_acc>
6

>  <a_acid>
0

>  <a_aro>
5

>  <a_base>
0

>  <a_count>
45

>  <a_don>
4

>  <a_donacc>
10

>  <a_heavy>
28

>  <a_hyd>
13

>  <a_IC>
87.24015

>  <a_ICM>
1.9386699

>  <a_nB>
0

>  <a_nBr>
0

>  <a_nC>
16

>  <a_nCl>
0

>  <a_nF>
0

>  <a_nH>
17

>  <a_nI>
0

>  <a_nN>
3

>  <a_nO>
7

>  <a_nP>
0

>  <a_nS>
2

>  <balabanJ>
1.6774766

>  <BCUT_PEOE_0>
-2.6938624

>  <BCUT_PEOE_1>
-0.54036641

>  <BCUT_PEOE_2>
0.46399623

>  <BCUT_PEOE_3>
2.779125

>  <BCUT_SLOGP_0>
-2.921999

>  <BCUT_SLOGP_1>
-0.48475417

>  <BCUT_SLOGP_2>
0.49507421

>  <BCUT_SLOGP_3>
2.6222081

>  <BCUT_SMR_0>
-2.4317801

>  <BCUT_SMR_1>
-0.32629418

>  <BCUT_SMR_2>
0.65123701

>  <BCUT_SMR_3>
3.0328431

>  <bpol>
32.788521

>  <b_1rotN>
7

>  <b_1rotR>
0.23333333

>  <b_ar>
5

>  <b_count>
47

>  <b_double>
5

>  <b_heavy>
30

>  <b_max1len>
5

>  <b_rotN>
9

>  <b_rotR>
0.30000001

>  <b_single>
37

>  <b_triple>
0

>  <chi0>
20.474327

>  <chi0v>
16.301477

>  <chi0v_C>
9.4307213

>  <chi0_C>
10.361443

>  <chi1>
13.296567

>  <chi1v>
9.9402046

>  <chi1v_C>
3.4082305

>  <chi1_C>
4.2852583

>  <chiral>
2

>  <chiral_u>
0

>  <density>
0.90265375

>  <diameter>
14

>  <FCharge>
0

>  <GCUT_PEOE_0>
-0.8025555

>  <GCUT_PEOE_1>
-0.47766376

>  <GCUT_PEOE_2>
0.044636637

>  <GCUT_PEOE_3>
2.6615179

>  <GCUT_SLOGP_0>
-1.3703188

>  <GCUT_SLOGP_1>
-0.42496917

>  <GCUT_SLOGP_2>
0.11980266

>  <GCUT_SLOGP_3>
2.596276

>  <GCUT_SMR_0>
-0.53254145

>  <GCUT_SMR_1>
-0.21988495

>  <GCUT_SMR_2>
0.23555109

>  <GCUT_SMR_3>
2.9278738

>  <Kier1>
22.68

>  <Kier2>
9.4276857

>  <Kier3>
4.54179

>  <KierA1>
19.549397

>  <KierA2>
8.0794163

>  <KierA3>
3.876255

>  <KierFlex>
5.6409893

>  <lip_acc>
10

>  <lip_don>
4

>  <lip_druglike>
1

>  <lip_violation>
0

>  <logP(o/w)>
0.34599999

>  <logS>
-3.7667999

>  <mr>
10.178554

>  <mutagenic>
0

>  <nmol>
1

>  <opr_brigid>
14

>  <opr_leadlike>
1

>  <opr_nring>
3

>  <opr_nrot>
7

>  <opr_violation>
1

>  <PC+>
0

>  <PC->
0

>  <PEOE_PC+>
3.4286335

>  <PEOE_PC->
-3.4286335

>  <PEOE_RPC+>
0.1045296

>  <PEOE_RPC->
0.1012957

>  <PEOE_VSA+0>
65.703278

>  <PEOE_VSA+1>
49.074383

>  <PEOE_VSA+2>
11.821573

>  <PEOE_VSA+3>
45.617657

>  <PEOE_VSA+4>
23.273705

>  <PEOE_VSA+5>
12.949531

>  <PEOE_VSA+6>
33.908009

>  <PEOE_VSA-0>
2.2085397

>  <PEOE_VSA-1>
28.694408

>  <PEOE_VSA-2>
33.991585

>  <PEOE_VSA-3>
0

>  <PEOE_VSA-4>
13.566921

>  <PEOE_VSA-5>
43.204517

>  <PEOE_VSA-6>
17.059307

>  <PEOE_VSA_FHYD>
0.6222198

>  <PEOE_VSA_FNEG>
0.3640382

>  <PEOE_VSA_FPNEG>
0.19374415

>  <PEOE_VSA_FPOL>
0.3777802

>  <PEOE_VSA_FPOS>
0.63596177

>  <PEOE_VSA_FPPOS>
0.18403605

>  <PEOE_VSA_HYD>
237.11142

>  <PEOE_VSA_NEG>
138.72528

>  <PEOE_VSA_PNEG>
73.83075

>  <PEOE_VSA_POL>
143.96199

>  <PEOE_VSA_POS>
242.34813

>  <PEOE_VSA_PPOS>
70.131248

>  <petitjean>
0.5

>  <petitjeanSC>
1

>  <Q_PC+>
0

>  <Q_PC->
0

>  <Q_RPC+>
0

>  <Q_RPC->
0

>  <Q_VSA_FHYD>
1

>  <Q_VSA_FNEG>
0

>  <Q_VSA_FPNEG>
0

>  <Q_VSA_FPOL>
0

>  <Q_VSA_FPOS>
1

>  <Q_VSA_FPPOS>
0

>  <Q_VSA_HYD>
381.07343

>  <Q_VSA_NEG>
0

>  <Q_VSA_PNEG>
0

>  <Q_VSA_POL>
0

>  <Q_VSA_POS>
381.07343

>  <Q_VSA_PPOS>
0

>  <radius>
7

>  <reactive>
0

>  <rings>
3

>  <RPC+>
0

>  <RPC->
0

>  <rsynth>
0.39285713

>  <SlogP>
0.098569997

>  <SlogP_VSA0>
50.90794

>  <SlogP_VSA1>
28.703981

>  <SlogP_VSA2>
95.933556

>  <SlogP_VSA3>
63.545048

>  <SlogP_VSA4>
1.3584013

>  <SlogP_VSA5>
60.194595

>  <SlogP_VSA6>
0

>  <SlogP_VSA7>
51.102379

>  <SlogP_VSA8>
0

>  <SlogP_VSA9>
87.359444

>  <SMR>
9.91959

>  <SMR_VSA0>
117.44864

>  <SMR_VSA1>
3.1243138

>  <SMR_VSA2>
43.395977

>  <SMR_VSA3>
9.647851

>  <SMR_VSA4>
32.897186

>  <SMR_VSA5>
69.970787

>  <SMR_VSA6>
63.739491

>  <SMR_VSA7>
98.881096

>  <TPSA>
148.25999

>  <VAdjEq>
0.38983503

>  <VAdjMa>
5.9068904

>  <VDistEq>
3.5361001

>  <VDistMa>
9.3269644

>  <vdw_area>
381.07343

>  <vdw_vol>
473.55701

>  <vsa_acc>
43.204517

>  <vsa_acid>
0

>  <vsa_base>
0

>  <vsa_don>
23.425066

>  <vsa_hyd>
202.00104

>  <vsa_other>
62.310829

>  <vsa_pol>
93.763428

>  <Weight>
427.45801

>  <weinerPath>
2071

>  <weinerPol>
44

>  <zagreb>
148

$$$$