O(C(=O)C)c1ccc(cc1)C(c1ccc(OC(=O)C)cc1)=C1CCCCC1
  MOE2013           2D

 27 29  0  0  0  0  0  0  0  0999 V2000
    0.0000    0.0000    0.0000 O   0  0  0  0  0  0  0  0  0  0  0  0
    1.2990    0.7500    0.0000 C   0  0  0  0  0  0  0  0  0  0  0  0
    1.2990    2.2500    0.0000 O   0  0  0  0  0  0  0  0  0  0  0  0
    2.5980    0.0000    0.0000 C   0  0  0  0  0  0  0  0  0  0  0  0
   -1.2990    0.7500    0.0000 C   0  0  0  0  0  0  0  0  0  0  0  0
   -1.2990    2.2500    0.0000 C   0  0  0  0  0  0  0  0  0  0  0  0
   -2.5980    3.0000    0.0000 C   0  0  0  0  0  0  0  0  0  0  0  0
   -3.8970    2.2500    0.0000 C   0  0  0  0  0  0  0  0  0  0  0  0
   -3.8970    0.7500    0.0000 C   0  0  0  0  0  0  0  0  0  0  0  0
   -2.5980    0.0000    0.0000 C   0  0  0  0  0  0  0  0  0  0  0  0
   -5.1960    3.0000    0.0000 C   0  0  0  0  0  0  0  0  0  0  0  0
   -6.4950    2.2500    0.0000 C   0  0  0  0  0  0  0  0  0  0  0  0
   -6.4950    0.7500    0.0000 C   0  0  0  0  0  0  0  0  0  0  0  0
   -7.7940    0.0000    0.0000 C   0  0  0  0  0  0  0  0  0  0  0  0
   -9.0930    0.7500    0.0000 C   0  0  0  0  0  0  0  0  0  0  0  0
  -10.3920    0.0000    0.0000 O   0  0  0  0  0  0  0  0  0  0  0  0
  -11.6910    0.7500    0.0000 C   0  0  0  0  0  0  0  0  0  0  0  0
  -12.9900    0.0000    0.0000 O   0  0  0  0  0  0  0  0  0  0  0  0
  -11.6910    2.2500    0.0000 C   0  0  0  0  0  0  0  0  0  0  0  0
   -9.0930    2.2500    0.0000 C   0  0  0  0  0  0  0  0  0  0  0  0
   -7.7940    3.0000    0.0000 C   0  0  0  0  0  0  0  0  0  0  0  0
   -5.1960    4.5000    0.0000 C   0  0  0  0  0  0  0  0  0  0  0  0
   -3.8970    5.2500    0.0000 C   0  0  0  0  0  0  0  0  0  0  0  0
   -3.8970    6.7500    0.0000 C   0  0  0  0  0  0  0  0  0  0  0  0
   -5.1960    7.5000    0.0000 C   0  0  0  0  0  0  0  0  0  0  0  0
   -6.4950    6.7500    0.0000 C   0  0  0  0  0  0  0  0  0  0  0  0
   -6.4950    5.2500    0.0000 C   0  0  0  0  0  0  0  0  0  0  0  0
  1  2  1  0  0  0  0
  1  5  1  0  0  0  0
  2  3  2  0  0  0  0
  2  4  1  0  0  0  0
  5  6  1  0  0  0  0
  5 10  2  0  0  0  0
  6  7  2  0  0  0  0
  7  8  1  0  0  0  0
  8  9  2  0  0  0  0
  8 11  1  0  0  0  0
  9 10  1  0  0  0  0
 11 12  1  0  0  0  0
 11 22  2  3  0  0  0
 12 13  1  0  0  0  0
 12 21  2  0  0  0  0
 13 14  2  0  0  0  0
 14 15  1  0  0  0  0
 15 16  1  0  0  0  0
 15 20  2  0  0  0  0
 16 17  1  0  0  0  0
 17 18  2  0  0  0  0
 17 19  1  0  0  0  0
 20 21  1  0  0  0  0
 22 23  1  0  0  0  0
 22 27  1  0  0  0  0
 23 24  1  0  0  0  0
 24 25  1  0  0  0  0
 25 26  1  0  0  0  0
 26 27  1  0  0  0  0
M  END
>  <Index>
1509

>  <ID>
HT0565

>  <class>
1

>  <apol>
59.691032

>  <ast_fraglike>
0

>  <ast_fraglike_ext>
0

>  <ast_violation>
2

>  <ast_violation_ext>
3

>  <a_acc>
2

>  <a_acid>
0

>  <a_aro>
12

>  <a_base>
0

>  <a_count>
51

>  <a_don>
0

>  <a_donacc>
2

>  <a_heavy>
27

>  <a_hyd>
21

>  <a_IC>
67.212669

>  <a_ICM>
1.3178954

>  <a_nB>
0

>  <a_nBr>
0

>  <a_nC>
23

>  <a_nCl>
0

>  <a_nF>
0

>  <a_nH>
24

>  <a_nI>
0

>  <a_nN>
0

>  <a_nO>
4

>  <a_nP>
0

>  <a_nS>
0

>  <balabanJ>
1.5907785

>  <BCUT_PEOE_0>
-2.7151518

>  <BCUT_PEOE_1>
-0.64202303

>  <BCUT_PEOE_2>
0.70383126

>  <BCUT_PEOE_3>
2.6541622

>  <BCUT_SLOGP_0>
-2.5443919

>  <BCUT_SLOGP_1>
-0.53807992

>  <BCUT_SLOGP_2>
0.78404272

>  <BCUT_SLOGP_3>
2.8244648

>  <BCUT_SMR_0>
-2.4537005

>  <BCUT_SMR_1>
-0.49918815

>  <BCUT_SMR_2>
0.85431087

>  <BCUT_SMR_3>
2.9203088

>  <bpol>
31.984968

>  <b_1rotN>
4

>  <b_1rotR>
0.13793103

>  <b_ar>
12

>  <b_count>
53

>  <b_double>
3

>  <b_heavy>
29

>  <b_max1len>
2

>  <b_rotN>
6

>  <b_rotR>
0.20689656

>  <b_single>
38

>  <b_triple>
0

>  <chi0>
19.225405

>  <chi0v>
15.78733

>  <chi0v_C>
14.154336

>  <chi0_C>
15.811191

>  <chi1>
13.024878

>  <chi1v>
9.3245859

>  <chi1v_C>
8.0998411

>  <chi1_C>
10.237184

>  <chiral>
0

>  <chiral_u>
0

>  <density>
0.70566911

>  <diameter>
14

>  <FCharge>
0

>  <GCUT_PEOE_0>
-0.79040688

>  <GCUT_PEOE_1>
-0.43955532

>  <GCUT_PEOE_2>
0.083032511

>  <GCUT_PEOE_3>
2.7214251

>  <GCUT_SLOGP_0>
-0.9111771

>  <GCUT_SLOGP_1>
-0.30752316

>  <GCUT_SLOGP_2>
0.16101724

>  <GCUT_SLOGP_3>
2.8750467

>  <GCUT_SMR_0>
-0.52439386

>  <GCUT_SMR_1>
-0.21605732

>  <GCUT_SMR_2>
0.19305076

>  <GCUT_SMR_3>
2.9995039

>  <Kier1>
21.702734

>  <Kier2>
10.683761

>  <Kier3>
6.5

>  <KierA1>
16.250753

>  <KierA2>
7.9042826

>  <KierA3>
4.7661114

>  <KierFlex>
4.7574277

>  <lip_acc>
4

>  <lip_don>
0

>  <lip_druglike>
1

>  <lip_violation>
1

>  <logP(o/w)>
5.4920001

>  <logS>
-6.7570701

>  <mr>
10.605726

>  <mutagenic>
0

>  <nmol>
1

>  <opr_brigid>
19

>  <opr_leadlike>
1

>  <opr_nring>
3

>  <opr_nrot>
6

>  <opr_violation>
1

>  <PC+>
0

>  <PC->
0

>  <PEOE_PC+>
1.7338856

>  <PEOE_PC->
-1.7338856

>  <PEOE_RPC+>
0.15225673

>  <PEOE_RPC->
0.16029222

>  <PEOE_VSA+0>
105.74153

>  <PEOE_VSA+1>
51.040127

>  <PEOE_VSA+2>
0

>  <PEOE_VSA+3>
0

>  <PEOE_VSA+4>
0

>  <PEOE_VSA+5>
29.416998

>  <PEOE_VSA+6>
0

>  <PEOE_VSA-0>
90.450485

>  <PEOE_VSA-1>
59.92947

>  <PEOE_VSA-2>
0

>  <PEOE_VSA-3>
0

>  <PEOE_VSA-4>
0

>  <PEOE_VSA-5>
32.141354

>  <PEOE_VSA-6>
0

>  <PEOE_VSA_FHYD>
0.83304852

>  <PEOE_VSA_FNEG>
0.49501336

>  <PEOE_VSA_FPNEG>
0.087170094

>  <PEOE_VSA_FPOL>
0.16695151

>  <PEOE_VSA_FPOS>
0.50498664

>  <PEOE_VSA_FPPOS>
0.079781406

>  <PEOE_VSA_HYD>
307.16162

>  <PEOE_VSA_NEG>
182.52132

>  <PEOE_VSA_PNEG>
32.141354

>  <PEOE_VSA_POL>
61.558353

>  <PEOE_VSA_POS>
186.19865

>  <PEOE_VSA_PPOS>
29.416998

>  <petitjean>
0.5

>  <petitjeanSC>
1

>  <Q_PC+>
0

>  <Q_PC->
0

>  <Q_RPC+>
0

>  <Q_RPC->
0

>  <Q_VSA_FHYD>
1

>  <Q_VSA_FNEG>
0

>  <Q_VSA_FPNEG>
0

>  <Q_VSA_FPOL>
0

>  <Q_VSA_FPOS>
1

>  <Q_VSA_FPPOS>
0

>  <Q_VSA_HYD>
368.71997

>  <Q_VSA_NEG>
0

>  <Q_VSA_PNEG>
0

>  <Q_VSA_POL>
0

>  <Q_VSA_POS>
368.71997

>  <Q_VSA_PPOS>
0

>  <radius>
7

>  <reactive>
0

>  <rings>
3

>  <RPC+>
0

>  <RPC->
0

>  <rsynth>
0.2962963

>  <SlogP>
5.1204901

>  <SlogP_VSA0>
21.999775

>  <SlogP_VSA1>
15.490929

>  <SlogP_VSA2>
47.724434

>  <SlogP_VSA3>
3.185575

>  <SlogP_VSA4>
6.37115

>  <SlogP_VSA5>
3.185575

>  <SlogP_VSA6>
0

>  <SlogP_VSA7>
141.14548

>  <SlogP_VSA8>
94.342026

>  <SlogP_VSA9>
77.138885

>  <SMR>
10.3547

>  <SMR_VSA0>
47.724434

>  <SMR_VSA1>
21.999775

>  <SMR_VSA2>
3.185575

>  <SMR_VSA3>
20.043581

>  <SMR_VSA4>
0

>  <SMR_VSA5>
235.4875

>  <SMR_VSA6>
15.490929

>  <SMR_VSA7>
66.652031

>  <TPSA>
52.599998

>  <VAdjEq>
0.40063059

>  <VAdjMa>
5.8579812

>  <VDistEq>
3.5467377

>  <VDistMa>
9.2186451

>  <vdw_area>
368.71997

>  <vdw_vol>
516.44739

>  <vsa_acc>
27.133842

>  <vsa_acid>
0

>  <vsa_base>
0

>  <vsa_don>
0

>  <vsa_hyd>
290.07852

>  <vsa_other>
34.424511

>  <vsa_pol>
27.133842

>  <Weight>
364.44098

>  <weinerPath>
1954

>  <weinerPol>
39

>  <zagreb>
136

$$$$