O(CC)C(=O)[C@@H](N[C@H](C(=O)N1[C@@H]2[C@H](C[C@H]1C(O)=O)CCC2)C)CCc1ccccc1
  MOE2013           2D

 30 32  0  0  1  0  0  0  0  0999 V2000
    0.0000    0.0000    0.0000 O   0  0  0  0  0  0  0  0  0  0  0  0
   -1.2990   -0.7500    0.0000 C   0  0  0  0  0  0  0  0  0  0  0  0
   -2.5980    0.0000    0.0000 C   0  0  0  0  0  0  0  0  0  0  0  0
    1.2990   -0.7500    0.0000 C   0  0  0  0  0  0  0  0  0  0  0  0
    1.2990   -2.2500    0.0000 O   0  0  0  0  0  0  0  0  0  0  0  0
    2.5980    0.0000    0.0000 C   0  0  1  0  0  0  0  0  0  0  0  0
    3.8970   -0.7500    0.0000 N   0  0  0  0  0  0  0  0  0  0  0  0
    5.1960    0.0000    0.0000 C   0  0  2  0  0  0  0  0  0  0  0  0
    6.4950   -0.7500    0.0000 C   0  0  0  0  0  0  0  0  0  0  0  0
    6.4950   -2.2500    0.0000 O   0  0  0  0  0  0  0  0  0  0  0  0
    7.7940    0.0000    0.0000 N   0  0  0  0  0  0  0  0  0  0  0  0
    7.9510    1.4910    0.0000 C   0  0  2  0  0  0  0  0  0  0  0  0
    9.4180    1.8030    0.0000 C   0  0  2  0  0  0  0  0  0  0  0  0
   10.1680    0.5040    0.0000 C   0  0  0  0  0  0  0  0  0  0  0  0
    9.1650   -0.6110    0.0000 C   0  0  1  0  0  0  0  0  0  0  0  0
    9.4760   -2.0780    0.0000 C   0  0  0  0  0  0  0  0  0  0  0  0
    8.3620   -3.0810    0.0000 O   0  0  0  0  0  0  0  0  0  0  0  0
   10.9030   -2.5410    0.0000 O   0  0  0  0  0  0  0  0  0  0  0  0
    9.5750    3.2950    0.0000 C   0  0  0  0  0  0  0  0  0  0  0  0
    8.2050    3.9050    0.0000 C   0  0  0  0  0  0  0  0  0  0  0  0
    7.2010    2.7900    0.0000 C   0  0  0  0  0  0  0  0  0  0  0  0
    5.1960    1.5000    0.0000 C   0  0  0  0  0  0  0  0  0  0  0  0
    2.5980    1.5000    0.0000 C   0  0  0  0  0  0  0  0  0  0  0  0
    1.2990    2.2500    0.0000 C   0  0  0  0  0  0  0  0  0  0  0  0
    1.2990    3.7500    0.0000 C   0  0  0  0  0  0  0  0  0  0  0  0
    2.5980    4.5000    0.0000 C   0  0  0  0  0  0  0  0  0  0  0  0
    2.5980    6.0000    0.0000 C   0  0  0  0  0  0  0  0  0  0  0  0
    1.2990    6.7500    0.0000 C   0  0  0  0  0  0  0  0  0  0  0  0
    0.0000    6.0000    0.0000 C   0  0  0  0  0  0  0  0  0  0  0  0
    0.0000    4.5000    0.0000 C   0  0  0  0  0  0  0  0  0  0  0  0
  1  2  1  0  0  0  0
  1  4  1  0  0  0  0
  2  3  1  0  0  0  0
  4  5  2  0  0  0  0
  6  4  1  6  0  0  0
  6  7  1  0  0  0  0
  6 23  1  0  0  0  0
  7  8  1  0  0  0  0
  8  9  1  0  0  0  0
  8 22  1  1  0  0  0
  9 10  2  0  0  0  0
  9 11  1  0  0  0  0
 11 12  1  0  0  0  0
 11 15  1  0  0  0  0
 12 13  1  0  0  0  0
 12 21  1  1  0  0  0
 13 14  1  0  0  0  0
 13 19  1  1  0  0  0
 14 15  1  0  0  0  0
 15 16  1  1  0  0  0
 16 17  1  0  0  0  0
 16 18  2  0  0  0  0
 19 20  1  0  0  0  0
 20 21  1  0  0  0  0
 23 24  1  0  0  0  0
 24 25  1  0  0  0  0
 25 26  1  0  0  0  0
 25 30  2  0  0  0  0
 26 27  2  0  0  0  0
 27 28  1  0  0  0  0
 28 29  2  0  0  0  0
 29 30  1  0  0  0  0
M  END
>  <Index>
1711

>  <ID>
HT1798

>  <class>
1

>  <apol>
68.027374

>  <ast_fraglike>
0

>  <ast_fraglike_ext>
0

>  <ast_violation>
2

>  <ast_violation_ext>
3

>  <a_acc>
5

>  <a_acid>
0

>  <a_aro>
6

>  <a_base>
0

>  <a_count>
62

>  <a_don>
3

>  <a_donacc>
8

>  <a_heavy>
30

>  <a_hyd>
20

>  <a_IC>
91.508606

>  <a_ICM>
1.4759452

>  <a_nB>
0

>  <a_nBr>
0

>  <a_nC>
23

>  <a_nCl>
0

>  <a_nF>
0

>  <a_nH>
32

>  <a_nI>
0

>  <a_nN>
2

>  <a_nO>
5

>  <a_nP>
0

>  <a_nS>
0

>  <balabanJ>
1.6142496

>  <BCUT_PEOE_0>
-2.6426816

>  <BCUT_PEOE_1>
-0.51664025

>  <BCUT_PEOE_2>
0.56701136

>  <BCUT_PEOE_3>
2.871866

>  <BCUT_SLOGP_0>
-2.824156

>  <BCUT_SLOGP_1>
-0.46329769

>  <BCUT_SLOGP_2>
0.60462731

>  <BCUT_SLOGP_3>
2.8950982

>  <BCUT_SMR_0>
-2.3862631

>  <BCUT_SMR_1>
-0.38618591

>  <BCUT_SMR_2>
0.69447047

>  <BCUT_SMR_3>
3.1220441

>  <bpol>
42.412624

>  <b_1rotN>
10

>  <b_1rotR>
0.3125

>  <b_ar>
6

>  <b_count>
64

>  <b_double>
3

>  <b_heavy>
32

>  <b_max1len>
7

>  <b_rotN>
11

>  <b_rotR>
0.34375

>  <b_single>
55

>  <b_triple>
0

>  <chi0>
21.672998

>  <chi0v>
17.750671

>  <chi0v_C>
14.72325

>  <chi0_C>
15.681434

>  <chi1>
14.417923

>  <chi1v>
10.935428

>  <chi1v_C>
8.2892942

>  <chi1_C>
9.3837767

>  <chiral>
5

>  <chiral_u>
0

>  <density>
0.72654754

>  <diameter>
13

>  <FCharge>
0

>  <GCUT_PEOE_0>
-0.83630353

>  <GCUT_PEOE_1>
-0.38761577

>  <GCUT_PEOE_2>
0.061583024

>  <GCUT_PEOE_3>
2.9684207

>  <GCUT_SLOGP_0>
-1.1550131

>  <GCUT_SLOGP_1>
-0.33783969

>  <GCUT_SLOGP_2>
0.10409941

>  <GCUT_SLOGP_3>
2.9458413

>  <GCUT_SMR_0>
-0.53625131

>  <GCUT_SMR_1>
-0.21948355

>  <GCUT_SMR_2>
0.16624223

>  <GCUT_SMR_3>
3.1970472

>  <Kier1>
24.638672

>  <Kier2>
11.743802

>  <Kier3>
6.2925091

>  <KierA1>
20.26367

>  <KierA2>
9.5897627

>  <KierA3>
5.1124067

>  <KierFlex>
6.4774599

>  <lip_acc>
7

>  <lip_don>
2

>  <lip_druglike>
1

>  <lip_violation>
0

>  <logP(o/w)>
3.332

>  <logS>
-3.69472

>  <mr>
11.466311

>  <mutagenic>
0

>  <nmol>
1

>  <opr_brigid>
15

>  <opr_leadlike>
1

>  <opr_nring>
3

>  <opr_nrot>
9

>  <opr_violation>
0

>  <PC+>
0

>  <PC->
0

>  <PEOE_PC+>
2.7102258

>  <PEOE_PC->
-2.7102258

>  <PEOE_RPC+>
0.10420109

>  <PEOE_RPC->
0.12165625

>  <PEOE_VSA+0>
84.188293

>  <PEOE_VSA+1>
68.16246

>  <PEOE_VSA+2>
11.764974

>  <PEOE_VSA+3>
0

>  <PEOE_VSA+4>
23.273705

>  <PEOE_VSA+5>
29.416998

>  <PEOE_VSA+6>
0

>  <PEOE_VSA-0>
83.210464

>  <PEOE_VSA-1>
69.97583

>  <PEOE_VSA-2>
0

>  <PEOE_VSA-3>
0

>  <PEOE_VSA-4>
0

>  <PEOE_VSA-5>
40.837654

>  <PEOE_VSA-6>
10.271297

>  <PEOE_VSA_FHYD>
0.75350451

>  <PEOE_VSA_FNEG>
0.4851447

>  <PEOE_VSA_FPNEG>
0.12136962

>  <PEOE_VSA_FPOL>
0.24649546

>  <PEOE_VSA_FPOS>
0.51485533

>  <PEOE_VSA_FPPOS>
0.12512584

>  <PEOE_VSA_HYD>
317.30203

>  <PEOE_VSA_NEG>
204.29524

>  <PEOE_VSA_PNEG>
51.108952

>  <PEOE_VSA_POL>
103.79965

>  <PEOE_VSA_POS>
216.80643

>  <PEOE_VSA_PPOS>
52.690701

>  <petitjean>
0.46153846

>  <petitjeanSC>
0.85714287

>  <Q_PC+>
0

>  <Q_PC->
0

>  <Q_RPC+>
0

>  <Q_RPC->
0

>  <Q_VSA_FHYD>
1

>  <Q_VSA_FNEG>
0

>  <Q_VSA_FPNEG>
0

>  <Q_VSA_FPOL>
0

>  <Q_VSA_FPOS>
1

>  <Q_VSA_FPPOS>
0

>  <Q_VSA_HYD>
421.10168

>  <Q_VSA_NEG>
0

>  <Q_VSA_PNEG>
0

>  <Q_VSA_POL>
0

>  <Q_VSA_POS>
421.10168

>  <Q_VSA_PPOS>
0

>  <radius>
7

>  <reactive>
0

>  <rings>
3

>  <RPC+>
0

>  <RPC->
0

>  <rsynth>
0.63333333

>  <SlogP>
2.3831699

>  <SlogP_VSA0>
18.01075

>  <SlogP_VSA1>
23.874025

>  <SlogP_VSA2>
98.514412

>  <SlogP_VSA3>
46.311485

>  <SlogP_VSA4>
7.5963712

>  <SlogP_VSA5>
18.868406

>  <SlogP_VSA6>
0

>  <SlogP_VSA7>
88.215919

>  <SlogP_VSA8>
94.342026

>  <SlogP_VSA9>
66.652031

>  <SMR>
11.17975

>  <SMR_VSA0>
82.58654

>  <SMR_VSA1>
3.1243138

>  <SMR_VSA2>
47.806774

>  <SMR_VSA3>
19.113449

>  <SMR_VSA4>
0

>  <SMR_VSA5>
201.42636

>  <SMR_VSA6>
41.675972

>  <SMR_VSA7>
66.652031

>  <TPSA>
95.940002

>  <VAdjEq>
0.37005648

>  <VAdjMa>
6

>  <VDistEq>
3.5583222

>  <VDistMa>
9.5446815

>  <vdw_area>
421.10168

>  <vdw_vol>
573.28387

>  <vsa_acc>
27.133842

>  <vsa_acid>
0

>  <vsa_base>
0

>  <vsa_don>
0

>  <vsa_hyd>
285.9841

>  <vsa_other>
44.870285

>  <vsa_pol>
59.95026

>  <Weight>
416.51801

>  <weinerPath>
2546

>  <weinerPol>
45

>  <zagreb>
152

$$$$