Oc1cc2CC[C@H]3[C@@H]4CC[C@H](O)[C@]4(CC[C@@H]3c2cc1)C
  MOE2013           2D

 20 23  0  0  1  0  0  0  0  0999 V2000
    0.0000    0.0000    0.0000 O   0  0  0  0  0  0  0  0  0  0  0  0
   -1.5000    0.0010    0.0000 C   0  0  0  0  0  0  0  0  0  0  0  0
   -2.2490    1.3000    0.0000 C   0  0  0  0  0  0  0  0  0  0  0  0
   -3.7490    1.3010    0.0000 C   0  0  0  0  0  0  0  0  0  0  0  0
   -4.4980    2.6010    0.0000 C   0  0  0  0  0  0  0  0  0  0  0  0
   -5.9980    2.6020    0.0000 C   0  0  0  0  0  0  0  0  0  0  0  0
   -6.7490    1.3030    0.0000 C   0  0  1  0  0  0  0  0  0  0  0  0
   -8.2490    1.3040    0.0000 C   0  0  2  0  0  0  0  0  0  0  0  0
   -9.2520    2.4200    0.0000 C   0  0  0  0  0  0  0  0  0  0  0  0
  -10.6230    1.8110    0.0000 C   0  0  0  0  0  0  0  0  0  0  0  0
  -10.4670    0.3190    0.0000 C   0  0  2  0  0  0  0  0  0  0  0  0
  -11.5820   -0.6840    0.0000 O   0  0  0  0  0  0  0  0  0  0  0  0
   -9.0000    0.0060    0.0000 C   0  0  1  0  0  0  0  0  0  0  0  0
   -8.2510   -1.2940    0.0000 C   0  0  0  0  0  0  0  0  0  0  0  0
   -6.7510   -1.2950    0.0000 C   0  0  0  0  0  0  0  0  0  0  0  0
   -6.0000    0.0040    0.0000 C   0  0  2  0  0  0  0  0  0  0  0  0
   -4.5000    0.0030    0.0000 C   0  0  0  0  0  0  0  0  0  0  0  0
   -3.7510   -1.2970    0.0000 C   0  0  0  0  0  0  0  0  0  0  0  0
   -2.2510   -1.2980    0.0000 C   0  0  0  0  0  0  0  0  0  0  0  0
   -9.8820   -1.2070    0.0000 C   0  0  0  0  0  0  0  0  0  0  0  0
  1  2  1  0  0  0  0
  2  3  1  0  0  0  0
  2 19  2  0  0  0  0
  3  4  2  0  0  0  0
  4  5  1  0  0  0  0
  4 17  1  0  0  0  0
  5  6  1  0  0  0  0
  7  6  1  6  0  0  0
  7  8  1  0  0  0  0
  7 16  1  0  0  0  0
  8  9  1  1  0  0  0
  8 13  1  0  0  0  0
  9 10  1  0  0  0  0
 10 11  1  0  0  0  0
 11 12  1  1  0  0  0
 11 13  1  0  0  0  0
 13 14  1  0  0  0  0
 13 20  1  1  0  0  0
 14 15  1  0  0  0  0
 16 15  1  1  0  0  0
 16 17  1  0  0  0  0
 17 18  2  0  0  0  0
 18 19  1  0  0  0  0
M  END
>  <Index>
1556

>  <ID>
HT0794

>  <class>
1

>  <apol>
49.287033

>  <ast_fraglike>
0

>  <ast_fraglike_ext>
0

>  <ast_violation>
1

>  <ast_violation_ext>
1

>  <a_acc>
2

>  <a_acid>
0

>  <a_aro>
6

>  <a_base>
0

>  <a_count>
44

>  <a_don>
2

>  <a_donacc>
4

>  <a_heavy>
20

>  <a_hyd>
18

>  <a_IC>
53.117241

>  <a_ICM>
1.2072101

>  <a_nB>
0

>  <a_nBr>
0

>  <a_nC>
18

>  <a_nCl>
0

>  <a_nF>
0

>  <a_nH>
24

>  <a_nI>
0

>  <a_nN>
0

>  <a_nO>
2

>  <a_nP>
0

>  <a_nS>
0

>  <balabanJ>
1.5684366

>  <BCUT_PEOE_0>
-2.8853424

>  <BCUT_PEOE_1>
-0.57724309

>  <BCUT_PEOE_2>
0.62703317

>  <BCUT_PEOE_3>
2.9270682

>  <BCUT_SLOGP_0>
-2.8037889

>  <BCUT_SLOGP_1>
-0.54807258

>  <BCUT_SLOGP_2>
0.60339248

>  <BCUT_SLOGP_3>
3.0056038

>  <BCUT_SMR_0>
-2.6303475

>  <BCUT_SMR_1>
-0.46108723

>  <BCUT_SMR_2>
0.7343992

>  <BCUT_SMR_3>
3.1789525

>  <bpol>
26.236967

>  <b_1rotN>
0

>  <b_1rotR>
0

>  <b_ar>
6

>  <b_count>
47

>  <b_double>
0

>  <b_heavy>
23

>  <b_max1len>
3

>  <b_rotN>
0

>  <b_rotR>
0

>  <b_single>
41

>  <b_triple>
0

>  <chi0>
13.905413

>  <chi0v>
12.17852

>  <chi0v_C>
11.284093

>  <chi0_C>
11.905413

>  <chi1>
9.5931721

>  <chi1v>
8.0926313

>  <chi1v_C>
7.610826

>  <chi1_C>
8.4384718

>  <chiral>
5

>  <chiral_u>
0

>  <density>
0.68546617

>  <diameter>
10

>  <FCharge>
0

>  <GCUT_PEOE_0>
-0.80335909

>  <GCUT_PEOE_1>
-0.39791432

>  <GCUT_PEOE_2>
0.071031623

>  <GCUT_PEOE_3>
3.1078901

>  <GCUT_SLOGP_0>
-0.88360137

>  <GCUT_SLOGP_1>
-0.30639267

>  <GCUT_SLOGP_2>
0.086227879

>  <GCUT_SLOGP_3>
3.2065091

>  <GCUT_SMR_0>
-0.53566217

>  <GCUT_SMR_1>
-0.24061581

>  <GCUT_SMR_2>
0.16568822

>  <GCUT_SMR_3>
3.3431427

>  <Kier1>
13.648394

>  <Kier2>
4.75

>  <Kier3>
1.9608401

>  <KierA1>
12.06131

>  <KierA2>
4.1687865

>  <KierA3>
1.7122431

>  <KierFlex>
2.5140512

>  <lip_acc>
2

>  <lip_don>
2

>  <lip_druglike>
1

>  <lip_violation>
0

>  <logP(o/w)>
3.8510001

>  <logS>
-4.21839

>  <mr>
7.9002476

>  <mutagenic>
0

>  <nmol>
1

>  <opr_brigid>
20

>  <opr_leadlike>
1

>  <opr_nring>
4

>  <opr_nrot>
0

>  <opr_violation>
0

>  <PC+>
0

>  <PC->
0

>  <PEOE_PC+>
1.3170083

>  <PEOE_PC->
-1.3170083

>  <PEOE_RPC+>
0.16500536

>  <PEOE_RPC->
0.29706624

>  <PEOE_VSA+0>
76.776947

>  <PEOE_VSA+1>
30.424992

>  <PEOE_VSA+2>
0

>  <PEOE_VSA+3>
0

>  <PEOE_VSA+4>
20.648346

>  <PEOE_VSA+5>
0

>  <PEOE_VSA+6>
0

>  <PEOE_VSA-0>
81.134766

>  <PEOE_VSA-1>
31.002581

>  <PEOE_VSA-2>
0

>  <PEOE_VSA-3>
0

>  <PEOE_VSA-4>
0

>  <PEOE_VSA-5>
0

>  <PEOE_VSA-6>
15.535081

>  <PEOE_VSA_FHYD>
0.8583945

>  <PEOE_VSA_FNEG>
0.49965197

>  <PEOE_VSA_FPNEG>
0.060797259

>  <PEOE_VSA_FPOL>
0.14160551

>  <PEOE_VSA_FPOS>
0.50034803

>  <PEOE_VSA_FPPOS>
0.08080826

>  <PEOE_VSA_HYD>
219.33929

>  <PEOE_VSA_NEG>
127.67243

>  <PEOE_VSA_PNEG>
15.535081

>  <PEOE_VSA_POL>
36.183426

>  <PEOE_VSA_POS>
127.85029

>  <PEOE_VSA_PPOS>
20.648346

>  <petitjean>
0.5

>  <petitjeanSC>
1

>  <Q_PC+>
0

>  <Q_PC->
0

>  <Q_RPC+>
0

>  <Q_RPC->
0

>  <Q_VSA_FHYD>
1

>  <Q_VSA_FNEG>
0

>  <Q_VSA_FPNEG>
0

>  <Q_VSA_FPOL>
0

>  <Q_VSA_FPOS>
1

>  <Q_VSA_FPPOS>
0

>  <Q_VSA_HYD>
255.52272

>  <Q_VSA_NEG>
0

>  <Q_VSA_PNEG>
0

>  <Q_VSA_POL>
0

>  <Q_VSA_POS>
255.52272

>  <Q_VSA_PPOS>
0

>  <radius>
5

>  <reactive>
0

>  <rings>
4

>  <RPC+>
0

>  <RPC->
0

>  <rsynth>
0.34999999

>  <SlogP>
3.60917

>  <SlogP_VSA0>
50.770454

>  <SlogP_VSA1>
0

>  <SlogP_VSA2>
6.4686494

>  <SlogP_VSA3>
0

>  <SlogP_VSA4>
15.192742

>  <SlogP_VSA5>
18.868406

>  <SlogP_VSA6>
4.4107962

>  <SlogP_VSA7>
52.929554

>  <SlogP_VSA8>
94.342026

>  <SlogP_VSA9>
38.569443

>  <SMR>
7.8730602

>  <SMR_VSA0>
0

>  <SMR_VSA1>
50.770454

>  <SMR_VSA2>
8.8215923

>  <SMR_VSA3>
22.494022

>  <SMR_VSA4>
0

>  <SMR_VSA5>
166.13998

>  <SMR_VSA6>
0

>  <SMR_VSA7>
33.326015

>  <TPSA>
40.459999

>  <VAdjEq>
0.51481563

>  <VAdjMa>
5.523562

>  <VDistEq>
2.957881

>  <VDistMa>
8.3559732

>  <vdw_area>
255.52272

>  <vdw_vol>
397.37628

>  <vsa_acc>
0

>  <vsa_acid>
0

>  <vsa_base>
0

>  <vsa_don>
0

>  <vsa_hyd>
199.64464

>  <vsa_other>
0

>  <vsa_pol>
27.133842

>  <Weight>
272.388

>  <weinerPath>
724

>  <weinerPol>
39

>  <zagreb>
118

$$$$