S1c2c(N(c3c1cccc3)CCC1N(CCCC1)C)cc(SC)cc2
  MOE2013           2D

 25 28  0  0  1  0  0  0  0  0999 V2000
    0.0000    0.0000    0.0000 S   0  0  0  0  0  0  0  0  0  0  0  0
   -0.7570   -1.2950    0.0000 C   0  0  0  0  0  0  0  0  0  0  0  0
   -0.0150   -2.5980    0.0000 C   0  0  0  0  0  0  0  0  0  0  0  0
    1.4850   -2.6060    0.0000 N   0  0  3  0  0  0  0  0  0  0  0  0
    2.2430   -1.3120    0.0000 C   0  0  0  0  0  0  0  0  0  0  0  0
    1.5000   -0.0080    0.0000 C   0  0  0  0  0  0  0  0  0  0  0  0
    2.2570    1.2860    0.0000 C   0  0  0  0  0  0  0  0  0  0  0  0
    3.7570    1.2780    0.0000 C   0  0  0  0  0  0  0  0  0  0  0  0
    4.5000   -0.0250    0.0000 C   0  0  0  0  0  0  0  0  0  0  0  0
    3.7430   -1.3200    0.0000 C   0  0  0  0  0  0  0  0  0  0  0  0
    2.2280   -3.9100    0.0000 C   0  0  0  0  0  0  0  0  0  0  0  0
    3.7280   -3.9180    0.0000 C   0  0  0  0  0  0  0  0  0  0  0  0
    4.4710   -5.2210    0.0000 C   0  0  3  0  0  0  0  0  0  0  0  0
    5.9710   -5.2300    0.0000 N   0  0  3  0  0  0  0  0  0  0  0  0
    6.7130   -6.5330    0.0000 C   0  0  0  0  0  0  0  0  0  0  0  0
    5.9560   -7.8280    0.0000 C   0  0  0  0  0  0  0  0  0  0  0  0
    4.4560   -7.8190    0.0000 C   0  0  0  0  0  0  0  0  0  0  0  0
    3.7130   -6.5160    0.0000 C   0  0  0  0  0  0  0  0  0  0  0  0
    6.7280   -3.9350    0.0000 C   0  0  0  0  0  0  0  0  0  0  0  0
   -0.7720   -3.8930    0.0000 C   0  0  0  0  0  0  0  0  0  0  0  0
   -2.2720   -3.8840    0.0000 C   0  0  0  0  0  0  0  0  0  0  0  0
   -3.0290   -5.1790    0.0000 S   0  0  0  0  0  0  0  0  0  0  0  0
   -4.5290   -5.1710    0.0000 C   0  0  0  0  0  0  0  0  0  0  0  0
   -3.0150   -2.5810    0.0000 C   0  0  0  0  0  0  0  0  0  0  0  0
   -2.2570   -1.2860    0.0000 C   0  0  0  0  0  0  0  0  0  0  0  0
  1  2  1  0  0  0  0
  1  6  1  0  0  0  0
  2  3  1  0  0  0  0
  2 25  2  0  0  0  0
  3  4  1  0  0  0  0
  3 20  2  0  0  0  0
  4  5  1  0  0  0  0
  4 11  1  0  0  0  0
  5  6  1  0  0  0  0
  5 10  2  0  0  0  0
  6  7  2  0  0  0  0
  7  8  1  0  0  0  0
  8  9  2  0  0  0  0
  9 10  1  0  0  0  0
 11 12  1  0  0  0  0
 12 13  1  0  0  0  0
 13 14  1  0  0  0  0
 13 18  1  0  0  0  0
 14 15  1  0  0  0  0
 14 19  1  0  0  0  0
 15 16  1  0  0  0  0
 16 17  1  0  0  0  0
 17 18  1  0  0  0  0
 20 21  1  0  0  0  0
 21 22  1  0  0  0  0
 21 24  2  0  0  0  0
 22 23  1  0  0  0  0
 24 25  1  0  0  0  0
M  END
>  <Index>
1742

>  <ID>
HT2046

>  <class>
1

>  <apol>
62.296619

>  <ast_fraglike>
0

>  <ast_fraglike_ext>
0

>  <ast_violation>
2

>  <ast_violation_ext>
3

>  <a_acc>
1

>  <a_acid>
0

>  <a_aro>
12

>  <a_base>
0

>  <a_count>
51

>  <a_don>
0

>  <a_donacc>
1

>  <a_heavy>
25

>  <a_hyd>
23

>  <a_IC>
70.843597

>  <a_ICM>
1.3890901

>  <a_nB>
0

>  <a_nBr>
0

>  <a_nC>
21

>  <a_nCl>
0

>  <a_nF>
0

>  <a_nH>
26

>  <a_nI>
0

>  <a_nN>
2

>  <a_nO>
0

>  <a_nP>
0

>  <a_nS>
2

>  <balabanJ>
1.4580986

>  <BCUT_PEOE_0>
-2.817729

>  <BCUT_PEOE_1>
-0.57144034

>  <BCUT_PEOE_2>
0.60735327

>  <BCUT_PEOE_3>
2.7348669

>  <BCUT_SLOGP_0>
-2.8245835

>  <BCUT_SLOGP_1>
-0.44216442

>  <BCUT_SLOGP_2>
0.75965971

>  <BCUT_SLOGP_3>
2.7789536

>  <BCUT_SMR_0>
-2.5459476

>  <BCUT_SMR_1>
-0.38163167

>  <BCUT_SMR_2>
0.83013433

>  <BCUT_SMR_3>
3.0026686

>  <bpol>
36.943382

>  <b_1rotN>
4

>  <b_1rotR>
0.14285715

>  <b_ar>
12

>  <b_count>
54

>  <b_double>
0

>  <b_heavy>
28

>  <b_max1len>
4

>  <b_rotN>
4

>  <b_rotR>
0.14285715

>  <b_single>
42

>  <b_triple>
0

>  <chi0>
17.225405

>  <chi0v>
16.70536

>  <chi0v_C>
13.361443

>  <chi0_C>
14.656489

>  <chi1>
12.258351

>  <chi1v>
11.228825

>  <chi1v_C>
6.3818808

>  <chi1_C>
7.932653

>  <chiral>
1

>  <chiral_u>
1

>  <density>
0.71751243

>  <diameter>
11

>  <FCharge>
0

>  <GCUT_PEOE_0>
-0.85779893

>  <GCUT_PEOE_1>
-0.39647457

>  <GCUT_PEOE_2>
0.0057510408

>  <GCUT_PEOE_3>
2.8294153

>  <GCUT_SLOGP_0>
-0.95360464

>  <GCUT_SLOGP_1>
-0.23222423

>  <GCUT_SLOGP_2>
0.15912257

>  <GCUT_SLOGP_3>
2.9469891

>  <GCUT_SMR_0>
-0.52366561

>  <GCUT_SMR_1>
-0.17046806

>  <GCUT_SMR_2>
0.20491262

>  <GCUT_SMR_3>
3.1128306

>  <Kier1>
18.367348

>  <Kier2>
8.3471403

>  <Kier3>
3.9835391

>  <KierA1>
16.762796

>  <KierA2>
7.5876555

>  <KierA3>
3.6103046

>  <KierFlex>
5.0876131

>  <lip_acc>
2

>  <lip_don>
0

>  <lip_druglike>
1

>  <lip_violation>
1

>  <logP(o/w)>
5.7189999

>  <logS>
-5.6154099

>  <mr>
11.017037

>  <mutagenic>
0

>  <nmol>
1

>  <opr_brigid>
22

>  <opr_leadlike>
1

>  <opr_nring>
4

>  <opr_nrot>
6

>  <opr_violation>
1

>  <PC+>
0

>  <PC->
0

>  <PEOE_PC+>
1.2692744

>  <PEOE_PC->
-1.2692744

>  <PEOE_RPC+>
0.050788473

>  <PEOE_RPC->
0.23821183

>  <PEOE_VSA+0>
123.33353

>  <PEOE_VSA+1>
29.857702

>  <PEOE_VSA+2>
0

>  <PEOE_VSA+3>
0

>  <PEOE_VSA+4>
0

>  <PEOE_VSA+5>
0

>  <PEOE_VSA+6>
0

>  <PEOE_VSA-0>
144.53322

>  <PEOE_VSA-1>
52.971741

>  <PEOE_VSA-2>
19.760618

>  <PEOE_VSA-3>
0

>  <PEOE_VSA-4>
0

>  <PEOE_VSA-5>
0

>  <PEOE_VSA-6>
0

>  <PEOE_VSA_FHYD>
1

>  <PEOE_VSA_FNEG>
0.5864802

>  <PEOE_VSA_FPNEG>
0

>  <PEOE_VSA_FPOL>
0

>  <PEOE_VSA_FPOS>
0.41351983

>  <PEOE_VSA_FPPOS>
0

>  <PEOE_VSA_HYD>
370.45679

>  <PEOE_VSA_NEG>
217.26556

>  <PEOE_VSA_PNEG>
0

>  <PEOE_VSA_POL>
0

>  <PEOE_VSA_POS>
153.19122

>  <PEOE_VSA_PPOS>
0

>  <petitjean>
0.45454547

>  <petitjeanSC>
0.83333331

>  <Q_PC+>
0

>  <Q_PC->
0

>  <Q_RPC+>
0

>  <Q_RPC->
0

>  <Q_VSA_FHYD>
1

>  <Q_VSA_FNEG>
0

>  <Q_VSA_FPNEG>
0

>  <Q_VSA_FPOL>
0

>  <Q_VSA_FPOS>
1

>  <Q_VSA_FPPOS>
0

>  <Q_VSA_HYD>
370.45679

>  <Q_VSA_NEG>
0

>  <Q_VSA_PNEG>
0

>  <Q_VSA_POL>
0

>  <Q_VSA_POS>
370.45679

>  <Q_VSA_PPOS>
0

>  <radius>
6

>  <reactive>
0

>  <rings>
4

>  <RPC+>
0

>  <RPC->
0

>  <rsynth>
1

>  <SlogP>
5.8856001

>  <SlogP_VSA0>
3.1243138

>  <SlogP_VSA1>
3.1243138

>  <SlogP_VSA2>
3.9819686

>  <SlogP_VSA3>
36.879158

>  <SlogP_VSA4>
0

>  <SlogP_VSA5>
69.240562

>  <SlogP_VSA6>
0

>  <SlogP_VSA7>
123.50229

>  <SlogP_VSA8>
75.473625

>  <SlogP_VSA9>
69.952576

>  <SMR>
11.0682

>  <SMR_VSA0>
0

>  <SMR_VSA1>
3.1243138

>  <SMR_VSA2>
7.776516

>  <SMR_VSA3>
3.9819686

>  <SMR_VSA4>
5.513495

>  <SMR_VSA5>
198.97591

>  <SMR_VSA6>
36.879158

>  <SMR_VSA7>
129.02745

>  <TPSA>
6.48

>  <VAdjEq>
0.43513325

>  <VAdjMa>
5.8073549

>  <VDistEq>
3.2350502

>  <VDistMa>
9.0205889

>  <vdw_area>
370.45679

>  <vdw_vol>
516.48584

>  <vsa_acc>
0

>  <vsa_acid>
0

>  <vsa_base>
0

>  <vsa_don>
0

>  <vsa_hyd>
351.9501

>  <vsa_other>
0

>  <vsa_pol>
0

>  <Weight>
370.58499

>  <weinerPath>
1444

>  <weinerPol>
42

>  <zagreb>
134

$$$$