P(O[C@H](OC(=O)CC)C(C)C)(=O)(CCCCc1ccccc1)CC(=O)N1C[C@@H](C[C@H]1C(O)=O)C1CCCCC1
  MOE2013           2D

 39 41  0  0  1  0  0  0  0  0999 V2000
    0.0000    0.0000    0.0000 P   0  0  3  0  0  0  0  0  0  0  0  0
   -1.5000   -0.0060    0.0000 O   0  0  0  0  0  0  0  0  0  0  0  0
   -2.2560    1.2890    0.0000 C   0  0  2  0  0  0  0  0  0  0  0  0
   -1.5110    2.5920    0.0000 O   0  0  0  0  0  0  0  0  0  0  0  0
   -2.2670    3.8870    0.0000 C   0  0  0  0  0  0  0  0  0  0  0  0
   -1.5220    5.1900    0.0000 O   0  0  0  0  0  0  0  0  0  0  0  0
   -3.7670    3.8810    0.0000 C   0  0  0  0  0  0  0  0  0  0  0  0
   -4.5220    5.1770    0.0000 C   0  0  0  0  0  0  0  0  0  0  0  0
   -3.7560    1.2830    0.0000 C   0  0  0  0  0  0  0  0  0  0  0  0
   -4.5000   -0.0190    0.0000 C   0  0  0  0  0  0  0  0  0  0  0  0
   -4.5110    2.5790    0.0000 C   0  0  0  0  0  0  0  0  0  0  0  0
   -0.0060    1.5000    0.0000 O   0  0  0  0  0  0  0  0  0  0  0  0
    0.0060   -1.5000    0.0000 C   0  0  0  0  0  0  0  0  0  0  0  0
   -1.2890   -2.2560    0.0000 C   0  0  0  0  0  0  0  0  0  0  0  0
   -1.2830   -3.7560    0.0000 C   0  0  0  0  0  0  0  0  0  0  0  0
   -2.5790   -4.5110    0.0000 C   0  0  0  0  0  0  0  0  0  0  0  0
   -2.5720   -6.0110    0.0000 C   0  0  0  0  0  0  0  0  0  0  0  0
   -1.2700   -6.7560    0.0000 C   0  0  0  0  0  0  0  0  0  0  0  0
   -1.2640   -8.2560    0.0000 C   0  0  0  0  0  0  0  0  0  0  0  0
   -2.5590   -9.0110    0.0000 C   0  0  0  0  0  0  0  0  0  0  0  0
   -3.8620   -8.2670    0.0000 C   0  0  0  0  0  0  0  0  0  0  0  0
   -3.8680   -6.7670    0.0000 C   0  0  0  0  0  0  0  0  0  0  0  0
    1.5000    0.0060    0.0000 C   0  0  0  0  0  0  0  0  0  0  0  0
    2.2440    1.3090    0.0000 C   0  0  0  0  0  0  0  0  0  0  0  0
    1.4890    2.6050    0.0000 O   0  0  0  0  0  0  0  0  0  0  0  0
    3.7440    1.3150    0.0000 N   0  0  0  0  0  0  0  0  0  0  0  0
    4.6310    0.1050    0.0000 C   0  0  0  0  0  0  0  0  0  0  0  0
    6.0560    0.5750    0.0000 C   0  0  1  0  0  0  0  0  0  0  0  0
    6.0490    2.0750    0.0000 C   0  0  0  0  0  0  0  0  0  0  0  0
    4.6210    2.5320    0.0000 C   0  0  1  0  0  0  0  0  0  0  0  0
    4.1510    3.9570    0.0000 C   0  0  0  0  0  0  0  0  0  0  0  0
    5.1500    5.0760    0.0000 O   0  0  0  0  0  0  0  0  0  0  0  0
    2.6830    4.2630    0.0000 O   0  0  0  0  0  0  0  0  0  0  0  0
    7.2730   -0.3010    0.0000 C   0  0  0  0  0  0  0  0  0  0  0  0
    7.1230   -1.7940    0.0000 C   0  0  0  0  0  0  0  0  0  0  0  0
    8.3400   -2.6700    0.0000 C   0  0  0  0  0  0  0  0  0  0  0  0
    9.7080   -2.0540    0.0000 C   0  0  0  0  0  0  0  0  0  0  0  0
    9.8580   -0.5620    0.0000 C   0  0  0  0  0  0  0  0  0  0  0  0
    8.6410    0.3150    0.0000 C   0  0  0  0  0  0  0  0  0  0  0  0
  1  2  1  0  0  0  0
  1 12  2  0  0  0  0
  1 13  1  0  0  0  0
  1 23  1  0  0  0  0
  3  2  1  1  0  0  0
  3  4  1  0  0  0  0
  3  9  1  0  0  0  0
  4  5  1  0  0  0  0
  5  6  2  0  0  0  0
  5  7  1  0  0  0  0
  7  8  1  0  0  0  0
  9 10  1  0  0  0  0
  9 11  1  0  0  0  0
 13 14  1  0  0  0  0
 14 15  1  0  0  0  0
 15 16  1  0  0  0  0
 16 17  1  0  0  0  0
 17 18  1  0  0  0  0
 17 22  2  0  0  0  0
 18 19  2  0  0  0  0
 19 20  1  0  0  0  0
 20 21  2  0  0  0  0
 21 22  1  0  0  0  0
 23 24  1  0  0  0  0
 24 25  2  0  0  0  0
 24 26  1  0  0  0  0
 26 27  1  0  0  0  0
 26 30  1  0  0  0  0
 27 28  1  0  0  0  0
 28 29  1  0  0  0  0
 28 34  1  1  0  0  0
 29 30  1  0  0  0  0
 30 31  1  6  0  0  0
 31 32  1  0  0  0  0
 31 33  2  0  0  0  0
 34 35  1  0  0  0  0
 34 39  1  0  0  0  0
 35 36  1  0  0  0  0
 36 37  1  0  0  0  0
 37 38  1  0  0  0  0
 38 39  1  0  0  0  0
M  END
>  <Index>
1581

>  <ID>
HT0938

>  <class>
1

>  <apol>
93.816475

>  <ast_fraglike>
0

>  <ast_fraglike_ext>
0

>  <ast_violation>
3

>  <ast_violation_ext>
5

>  <a_acc>
6

>  <a_acid>
0

>  <a_aro>
6

>  <a_base>
0

>  <a_count>
85

>  <a_don>
2

>  <a_donacc>
8

>  <a_heavy>
39

>  <a_hyd>
26

>  <a_IC>
123.85618

>  <a_ICM>
1.4571315

>  <a_nB>
0

>  <a_nBr>
0

>  <a_nC>
30

>  <a_nCl>
0

>  <a_nF>
0

>  <a_nH>
46

>  <a_nI>
0

>  <a_nN>
1

>  <a_nO>
7

>  <a_nP>
1

>  <a_nS>
0

>  <balabanJ>
1.6751444

>  <BCUT_PEOE_0>
-2.8270643

>  <BCUT_PEOE_1>
-0.51615423

>  <BCUT_PEOE_2>
0.57980216

>  <BCUT_PEOE_3>
2.8433602

>  <BCUT_SLOGP_0>
-2.7268052

>  <BCUT_SLOGP_1>
-0.46377704

>  <BCUT_SLOGP_2>
0.59017378

>  <BCUT_SLOGP_3>
2.9141378

>  <BCUT_SMR_0>
-2.5753176

>  <BCUT_SMR_1>
-0.38983917

>  <BCUT_SMR_2>
0.71222848

>  <BCUT_SMR_3>
3.093437

>  <bpol>
67.411522

>  <b_1rotN>
15

>  <b_1rotR>
0.36585367

>  <b_ar>
6

>  <b_count>
87

>  <b_double>
3

>  <b_heavy>
41

>  <b_max1len>
10

>  <b_rotN>
16

>  <b_rotR>
0.39024389

>  <b_single>
78

>  <b_triple>
0

>  <chi0>
28.415638

>  <chi0v>
24.651449

>  <chi0v_C>
19.965891

>  <chi0_C>
20.924074

>  <chi1>
18.614012

>  <chi1v>
16.632088

>  <chi1v_C>
11.329735

>  <chi1_C>
12.44429

>  <chiral>
4

>  <chiral_u>
1

>  <density>
0.72712171

>  <diameter>
17

>  <FCharge>
0

>  <GCUT_PEOE_0>
-0.8328076

>  <GCUT_PEOE_1>
-0.39526823

>  <GCUT_PEOE_2>
0.058697753

>  <GCUT_PEOE_3>
3.1246405

>  <GCUT_SLOGP_0>
-1.2945318

>  <GCUT_SLOGP_1>
-0.32915354

>  <GCUT_SLOGP_2>
0.10026686

>  <GCUT_SLOGP_3>
3.1576085

>  <GCUT_SMR_0>
-0.53461748

>  <GCUT_SMR_1>
-0.21605732

>  <GCUT_SMR_2>
0.17032896

>  <GCUT_SMR_3>
3.3484361

>  <Kier1>
33.501488

>  <Kier2>
16.588648

>  <Kier3>
10.650519

>  <KierA1>
30.192478

>  <KierA2>
14.907804

>  <KierA3>
9.5519123

>  <KierFlex>
11.541117

>  <lip_acc>
8

>  <lip_don>
1

>  <lip_druglike>
0

>  <lip_violation>
2

>  <logP(o/w)>
5.4239998

>  <logS>
-6.4225898

>  <mr>
15.602008

>  <mutagenic>
0

>  <nmol>
1

>  <opr_brigid>
17

>  <opr_leadlike>
0

>  <opr_nring>
3

>  <opr_nrot>
17

>  <opr_violation>
3

>  <PC+>
0

>  <PC->
0

>  <PEOE_PC+>
3.4192846

>  <PEOE_PC->
-3.4192846

>  <PEOE_RPC+>
0.082590155

>  <PEOE_RPC->
0.12090212

>  <PEOE_VSA+0>
166.91676

>  <PEOE_VSA+1>
57.141071

>  <PEOE_VSA+2>
39.231194

>  <PEOE_VSA+3>
0

>  <PEOE_VSA+4>
10.324173

>  <PEOE_VSA+5>
36.278957

>  <PEOE_VSA+6>
0

>  <PEOE_VSA-0>
54.41642

>  <PEOE_VSA-1>
143.62149

>  <PEOE_VSA-2>
0

>  <PEOE_VSA-3>
15.729136

>  <PEOE_VSA-4>
0

>  <PEOE_VSA-5>
27.133842

>  <PEOE_VSA-6>
28.504189

>  <PEOE_VSA_FHYD>
0.82350826

>  <PEOE_VSA_FNEG>
0.46505499

>  <PEOE_VSA_FPNEG>
0.096044011

>  <PEOE_VSA_FPOL>
0.17649171

>  <PEOE_VSA_FPOS>
0.53494501

>  <PEOE_VSA_FPPOS>
0.080447704

>  <PEOE_VSA_HYD>
477.05609

>  <PEOE_VSA_NEG>
269.40509

>  <PEOE_VSA_PNEG>
55.638031

>  <PEOE_VSA_POL>
102.24117

>  <PEOE_VSA_POS>
309.89215

>  <PEOE_VSA_PPOS>
46.60313

>  <petitjean>
0.47058824

>  <petitjeanSC>
0.8888889

>  <Q_PC+>
0

>  <Q_PC->
0

>  <Q_RPC+>
0

>  <Q_RPC->
0

>  <Q_VSA_FHYD>
1

>  <Q_VSA_FNEG>
0

>  <Q_VSA_FPNEG>
0

>  <Q_VSA_FPOL>
0

>  <Q_VSA_FPOS>
1

>  <Q_VSA_FPPOS>
0

>  <Q_VSA_HYD>
579.29724

>  <Q_VSA_NEG>
0

>  <Q_VSA_PNEG>
0

>  <Q_VSA_POL>
0

>  <Q_VSA_POS>
579.29724

>  <Q_VSA_PPOS>
0

>  <radius>
9

>  <reactive>
0

>  <rings>
3

>  <RPC+>
0

>  <RPC->
0

>  <rsynth>
0.64102566

>  <SlogP>
5.0510702

>  <SlogP_VSA0>
22.433765

>  <SlogP_VSA1>
23.874025

>  <SlogP_VSA2>
102.01664

>  <SlogP_VSA3>
75.903282

>  <SlogP_VSA4>
16.417963

>  <SlogP_VSA5>
18.868406

>  <SlogP_VSA6>
0

>  <SlogP_VSA7>
88.215919

>  <SlogP_VSA8>
169.81564

>  <SlogP_VSA9>
112.88215

>  <SMR>
14.99468

>  <SMR_VSA0>
111.94193

>  <SMR_VSA1>
3.1243138

>  <SMR_VSA2>
38.617615

>  <SMR_VSA3>
15.694046

>  <SMR_VSA4>
0

>  <SMR_VSA5>
276.89996

>  <SMR_VSA6>
71.267769

>  <SMR_VSA7>
112.88215

>  <TPSA>
110.21

>  <VAdjEq>
0.30278754

>  <VAdjMa>
6.3575521

>  <VDistEq>
3.8338296

>  <VDistMa>
10.318009

>  <vdw_area>
579.29724

>  <vdw_vol>
775.20996

>  <vsa_acc>
47.52895

>  <vsa_acid>
0

>  <vsa_base>
0

>  <vsa_don>
0

>  <vsa_hyd>
395.84399

>  <vsa_other>
68.199715

>  <vsa_pol>
74.662788

>  <Weight>
563.672

>  <weinerPath>
5262

>  <weinerPol>
57

>  <zagreb>
194

$$$$