Fc1cc(F)ccc1[C@@]1(OC[C@H](C1)COc1ccc(N2CCN(CC2)c2ccc(N3C=NN([C@H]([C@@H](O)C)CC)C3=O)cc2)cc1)Cn1ncnc1
  MOE2013           2D

 51 57  0  0  1  0  0  0  0  0999 V2000
    0.0000    0.0000    0.0000 F   0  0  0  0  0  0  0  0  0  0  0  0
   -1.5000    0.0020    0.0000 C   0  0  0  0  0  0  0  0  0  0  0  0
   -2.2480    1.3020    0.0000 C   0  0  0  0  0  0  0  0  0  0  0  0
   -3.7480    1.3050    0.0000 C   0  0  0  0  0  0  0  0  0  0  0  0
   -4.4960    2.6050    0.0000 F   0  0  0  0  0  0  0  0  0  0  0  0
   -4.5000    0.0070    0.0000 C   0  0  0  0  0  0  0  0  0  0  0  0
   -3.7520   -1.2930    0.0000 C   0  0  0  0  0  0  0  0  0  0  0  0
   -2.2520   -1.2960    0.0000 C   0  0  0  0  0  0  0  0  0  0  0  0
   -1.5040   -2.5960    0.0000 C   0  0  2  0  0  0  0  0  0  0  0  0
   -1.2710   -4.0780    0.0000 O   0  0  0  0  0  0  0  0  0  0  0  0
    0.2100   -4.3150    0.0000 C   0  0  0  0  0  0  0  0  0  0  0  0
    0.8930   -2.9790    0.0000 C   0  0  2  0  0  0  0  0  0  0  0  0
   -0.1660   -1.9170    0.0000 C   0  0  0  0  0  0  0  0  0  0  0  0
    2.3750   -2.7470    0.0000 C   0  0  0  0  0  0  0  0  0  0  0  0
    3.3170   -3.9140    0.0000 O   0  0  0  0  0  0  0  0  0  0  0  0
    4.7990   -3.6810    0.0000 C   0  0  0  0  0  0  0  0  0  0  0  0
    5.7410   -4.8490    0.0000 C   0  0  0  0  0  0  0  0  0  0  0  0
    7.2230   -4.6160    0.0000 C   0  0  0  0  0  0  0  0  0  0  0  0
    7.7620   -3.2170    0.0000 C   0  0  0  0  0  0  0  0  0  0  0  0
    9.2440   -2.9840    0.0000 N   0  0  0  0  0  0  0  0  0  0  0  0
    9.7840   -1.5850    0.0000 C   0  0  0  0  0  0  0  0  0  0  0  0
   11.2660   -1.3520    0.0000 C   0  0  0  0  0  0  0  0  0  0  0  0
   12.2080   -2.5190    0.0000 N   0  0  0  0  0  0  0  0  0  0  0  0
   11.6680   -3.9190    0.0000 C   0  0  0  0  0  0  0  0  0  0  0  0
   10.1870   -4.1510    0.0000 C   0  0  0  0  0  0  0  0  0  0  0  0
   13.6900   -2.2870    0.0000 C   0  0  0  0  0  0  0  0  0  0  0  0
   14.6320   -3.4540    0.0000 C   0  0  0  0  0  0  0  0  0  0  0  0
   16.1140   -3.2220    0.0000 C   0  0  0  0  0  0  0  0  0  0  0  0
   16.6540   -1.8220    0.0000 C   0  0  0  0  0  0  0  0  0  0  0  0
   18.1360   -1.5900    0.0000 N   0  0  0  0  0  0  0  0  0  0  0  0
   18.8190   -0.2540    0.0000 C   0  0  0  0  0  0  0  0  0  0  0  0
   20.3000   -0.4910    0.0000 N   0  0  0  0  0  0  0  0  0  0  0  0
   20.5320   -1.9730    0.0000 N   0  0  0  0  0  0  0  0  0  0  0  0
   21.8680   -2.6560    0.0000 C   0  0  2  0  0  0  0  0  0  0  0  0
   23.1270   -1.8410    0.0000 C   0  0  1  0  0  0  0  0  0  0  0  0
   24.4620   -2.5240    0.0000 O   0  0  0  0  0  0  0  0  0  0  0  0
   23.0510   -0.3430    0.0000 C   0  0  0  0  0  0  0  0  0  0  0  0
   21.9440   -4.1540    0.0000 C   0  0  0  0  0  0  0  0  0  0  0  0
   23.2790   -4.8370    0.0000 C   0  0  0  0  0  0  0  0  0  0  0  0
   19.1950   -2.6520    0.0000 C   0  0  0  0  0  0  0  0  0  0  0  0
   18.9580   -4.1330    0.0000 O   0  0  0  0  0  0  0  0  0  0  0  0
   15.7120   -0.6550    0.0000 C   0  0  0  0  0  0  0  0  0  0  0  0
   14.2300   -0.8870    0.0000 C   0  0  0  0  0  0  0  0  0  0  0  0
    6.8200   -2.0490    0.0000 C   0  0  0  0  0  0  0  0  0  0  0  0
    5.3380   -2.2820    0.0000 C   0  0  0  0  0  0  0  0  0  0  0  0
   -3.0030   -2.6460    0.0000 C   0  0  0  0  0  0  0  0  0  0  0  0
   -3.7090   -3.9690    0.0000 N   0  0  0  0  0  0  0  0  0  0  0  0
   -5.1950   -4.1760    0.0000 N   0  0  0  0  0  0  0  0  0  0  0  0
   -5.4580   -5.6530    0.0000 C   0  0  0  0  0  0  0  0  0  0  0  0
   -4.1340   -6.3590    0.0000 N   0  0  0  0  0  0  0  0  0  0  0  0
   -3.0540   -5.3180    0.0000 C   0  0  0  0  0  0  0  0  0  0  0  0
  1  2  1  0  0  0  0
  2  3  2  0  0  0  0
  2  8  1  0  0  0  0
  3  4  1  0  0  0  0
  4  5  1  0  0  0  0
  4  6  2  0  0  0  0
  6  7  1  0  0  0  0
  7  8  2  0  0  0  0
  9  8  1  1  0  0  0
  9 10  1  0  0  0  0
  9 13  1  0  0  0  0
  9 46  1  6  0  0  0
 10 11  1  0  0  0  0
 11 12  1  0  0  0  0
 12 13  1  0  0  0  0
 12 14  1  6  0  0  0
 14 15  1  0  0  0  0
 15 16  1  0  0  0  0
 16 17  1  0  0  0  0
 16 45  2  0  0  0  0
 17 18  2  0  0  0  0
 18 19  1  0  0  0  0
 19 20  1  0  0  0  0
 19 44  2  0  0  0  0
 20 21  1  0  0  0  0
 20 25  1  0  0  0  0
 21 22  1  0  0  0  0
 22 23  1  0  0  0  0
 23 24  1  0  0  0  0
 23 26  1  0  0  0  0
 24 25  1  0  0  0  0
 26 27  1  0  0  0  0
 26 43  2  0  0  0  0
 27 28  2  0  0  0  0
 28 29  1  0  0  0  0
 29 30  1  0  0  0  0
 29 42  2  0  0  0  0
 30 31  1  0  0  0  0
 30 40  1  0  0  0  0
 31 32  2  0  0  0  0
 32 33  1  0  0  0  0
 33 40  1  0  0  0  0
 34 33  1  6  0  0  0
 34 35  1  0  0  0  0
 34 38  1  0  0  0  0
 35 36  1  6  0  0  0
 35 37  1  0  0  0  0
 38 39  1  0  0  0  0
 40 41  2  0  0  0  0
 42 43  1  0  0  0  0
 44 45  1  0  0  0  0
 46 47  1  0  0  0  0
 47 48  1  0  0  0  0
 47 51  1  0  0  0  0
 48 49  2  0  0  0  0
 49 50  1  0  0  0  0
 50 51  2  0  0  0  0
M  END
>  <Index>
1697

>  <ID>
HT1713

>  <class>
1

>  <apol>
106.24731

>  <ast_fraglike>
0

>  <ast_fraglike_ext>
0

>  <ast_violation>
3

>  <ast_violation_ext>
4

>  <a_acc>
7

>  <a_acid>
0

>  <a_aro>
23

>  <a_base>
0

>  <a_count>
93

>  <a_don>
1

>  <a_donacc>
8

>  <a_heavy>
51

>  <a_hyd>
35

>  <a_IC>
154.91466

>  <a_ICM>
1.6657491

>  <a_nB>
0

>  <a_nBr>
0

>  <a_nC>
37

>  <a_nCl>
0

>  <a_nF>
2

>  <a_nH>
42

>  <a_nI>
0

>  <a_nN>
8

>  <a_nO>
4

>  <a_nP>
0

>  <a_nS>
0

>  <balabanJ>
0.80424327

>  <BCUT_PEOE_0>
-2.7236185

>  <BCUT_PEOE_1>
-0.59180701

>  <BCUT_PEOE_2>
0.61465985

>  <BCUT_PEOE_3>
2.7741082

>  <BCUT_SLOGP_0>
-2.8536103

>  <BCUT_SLOGP_1>
-0.51732117

>  <BCUT_SLOGP_2>
0.69564408

>  <BCUT_SLOGP_3>
2.8289065

>  <BCUT_SMR_0>
-2.4150679

>  <BCUT_SMR_1>
-0.42369059

>  <BCUT_SMR_2>
0.80123514

>  <BCUT_SMR_3>
2.9976499

>  <bpol>
64.330696

>  <b_1rotN>
12

>  <b_1rotR>
0.21052632

>  <b_ar>
23

>  <b_count>
99

>  <b_double>
2

>  <b_heavy>
57

>  <b_max1len>
6

>  <b_rotN>
12

>  <b_rotR>
0.21052632

>  <b_single>
74

>  <b_triple>
0

>  <chi0>
35.536594

>  <chi0v>
28.684511

>  <chi0v_C>
22.678915

>  <chi0_C>
25.114309

>  <chi1>
24.724316

>  <chi1v>
17.32111

>  <chi1v_C>
10.588658

>  <chi1_C>
12.978878

>  <chiral>
4

>  <chiral_u>
0

>  <density>
0.76095009

>  <diameter>
27

>  <FCharge>
0

>  <GCUT_PEOE_0>
-0.8361401

>  <GCUT_PEOE_1>
-0.41080016

>  <GCUT_PEOE_2>
0.024420949

>  <GCUT_PEOE_3>
2.9499462

>  <GCUT_SLOGP_0>
-1.0171026

>  <GCUT_SLOGP_1>
-0.3165257

>  <GCUT_SLOGP_2>
0.13302611

>  <GCUT_SLOGP_3>
3.0131724

>  <GCUT_SMR_0>
-0.52888173

>  <GCUT_SMR_1>
-0.21587457

>  <GCUT_SMR_2>
0.18731943

>  <GCUT_SMR_3>
3.20945

>  <Kier1>
39.242844

>  <Kier2>
17.853956

>  <Kier3>
9.1836739

>  <KierA1>
29.614786

>  <KierA2>
13.39311

>  <KierA3>
6.860064

>  <KierFlex>
7.7771392

>  <lip_acc>
12

>  <lip_don>
1

>  <lip_druglike>
0

>  <lip_violation>
3

>  <logP(o/w)>
4.7690001

>  <logS>
-7.57165

>  <mr>
18.841782

>  <mutagenic>
0

>  <nmol>
1

>  <opr_brigid>
39

>  <opr_leadlike>
0

>  <opr_nring>
7

>  <opr_nrot>
15

>  <opr_violation>
5

>  <PC+>
0

>  <PC->
0

>  <PEOE_PC+>
4.0595207

>  <PEOE_PC->
-4.0595207

>  <PEOE_RPC+>
0.086556032

>  <PEOE_RPC->
0.096059777

>  <PEOE_VSA+0>
161.67418

>  <PEOE_VSA+1>
147.34621

>  <PEOE_VSA+2>
94.54863

>  <PEOE_VSA+3>
0

>  <PEOE_VSA+4>
10.324173

>  <PEOE_VSA+5>
0

>  <PEOE_VSA+6>
17.440542

>  <PEOE_VSA-0>
146.44444

>  <PEOE_VSA-1>
31.002581

>  <PEOE_VSA-2>
0

>  <PEOE_VSA-3>
18.842079

>  <PEOE_VSA-4>
43.066769

>  <PEOE_VSA-5>
0

>  <PEOE_VSA-6>
12.775052

>  <PEOE_VSA_FHYD>
0.87767249

>  <PEOE_VSA_FNEG>
0.36890119

>  <PEOE_VSA_FPNEG>
0.081704035

>  <PEOE_VSA_FPOL>
0.12232752

>  <PEOE_VSA_FPOS>
0.63109881

>  <PEOE_VSA_FPPOS>
0.040623482

>  <PEOE_VSA_HYD>
599.85809

>  <PEOE_VSA_NEG>
252.13092

>  <PEOE_VSA_PNEG>
55.84182

>  <PEOE_VSA_POL>
83.606537

>  <PEOE_VSA_POS>
431.33374

>  <PEOE_VSA_PPOS>
27.764715

>  <petitjean>
0.48148149

>  <petitjeanSC>
0.9285714

>  <Q_PC+>
0

>  <Q_PC->
0

>  <Q_RPC+>
0

>  <Q_RPC->
0

>  <Q_VSA_FHYD>
1

>  <Q_VSA_FNEG>
0

>  <Q_VSA_FPNEG>
0

>  <Q_VSA_FPOL>
0

>  <Q_VSA_FPOS>
1

>  <Q_VSA_FPPOS>
0

>  <Q_VSA_HYD>
683.46466

>  <Q_VSA_NEG>
0

>  <Q_VSA_PNEG>
0

>  <Q_VSA_POL>
0

>  <Q_VSA_POS>
683.46466

>  <Q_VSA_PPOS>
0

>  <radius>
14

>  <reactive>
0

>  <rings>
7

>  <RPC+>
0

>  <RPC->
0

>  <rsynth>
0.60784316

>  <SlogP>
5.8165002

>  <SlogP_VSA0>
45.758057

>  <SlogP_VSA1>
43.056854

>  <SlogP_VSA2>
56.478073

>  <SlogP_VSA3>
115.61083

>  <SlogP_VSA4>
7.5963712

>  <SlogP_VSA5>
16.663008

>  <SlogP_VSA6>
0

>  <SlogP_VSA7>
227.64609

>  <SlogP_VSA8>
37.736813

>  <SlogP_VSA9>
152.38773

>  <SMR>
18.92098

>  <SMR_VSA0>
34.862103

>  <SMR_VSA1>
121.19525

>  <SMR_VSA2>
32.025772

>  <SMR_VSA3>
18.879622

>  <SMR_VSA4>
8.2702427

>  <SMR_VSA5>
283.82248

>  <SMR_VSA6>
120.44079

>  <SMR_VSA7>
83.437561

>  <TPSA>
111.79

>  <VAdjEq>
0.25958195

>  <VAdjMa>
6.83289

>  <VDistEq>
4.5890093

>  <VDistMa>
10.993138

>  <vdw_area>
683.46466

>  <vdw_vol>
920.94214

>  <vsa_acc>
43.099087

>  <vsa_acid>
0

>  <vsa_base>
0

>  <vsa_don>
0

>  <vsa_hyd>
499.93311

>  <vsa_other>
91.812096

>  <vsa_pol>
56.666008

>  <Weight>
700.79095

>  <weinerPath>
13566

>  <weinerPol>
85

>  <zagreb>
278

$$$$