S1[C@H]2N(C(C(OC(OC(=O)C)C)=O)=C(C1)COC(=O)N)C(=O)[C@H]2NC(=O)C(=NOC)c1occc1
  MOE2013           2D

 35 37  0  0  1  0  0  0  0  0999 V2000
    0.0000    0.0000    0.0000 S   0  0  0  0  0  0  0  0  0  0  0  0
    0.7390   -1.3050    0.0000 C   0  0  1  0  0  0  0  0  0  0  0  0
   -0.0210   -2.5980    0.0000 N   0  0  0  0  0  0  0  0  0  0  0  0
   -1.5210   -2.5860    0.0000 C   0  0  0  0  0  0  0  0  0  0  0  0
   -2.2820   -3.8780    0.0000 C   0  0  0  0  0  0  0  0  0  0  0  0
   -1.5430   -5.1840    0.0000 O   0  0  0  0  0  0  0  0  0  0  0  0
   -2.3040   -6.4760    0.0000 C   0  0  3  0  0  0  0  0  0  0  0  0
   -3.8040   -6.4640    0.0000 O   0  0  0  0  0  0  0  0  0  0  0  0
   -4.5640   -7.7570    0.0000 C   0  0  0  0  0  0  0  0  0  0  0  0
   -3.8250   -9.0620    0.0000 O   0  0  0  0  0  0  0  0  0  0  0  0
   -6.0640   -7.7440    0.0000 C   0  0  0  0  0  0  0  0  0  0  0  0
   -1.5640   -7.7820    0.0000 C   0  0  0  0  0  0  0  0  0  0  0  0
   -3.7820   -3.8660    0.0000 O   0  0  0  0  0  0  0  0  0  0  0  0
   -2.2610   -1.2800    0.0000 C   0  0  0  0  0  0  0  0  0  0  0  0
   -1.5000    0.0120    0.0000 C   0  0  0  0  0  0  0  0  0  0  0  0
   -3.7610   -1.2680    0.0000 C   0  0  0  0  0  0  0  0  0  0  0  0
   -4.5000    0.0370    0.0000 O   0  0  0  0  0  0  0  0  0  0  0  0
   -6.0000    0.0500    0.0000 C   0  0  0  0  0  0  0  0  0  0  0  0
   -6.7600   -1.2430    0.0000 O   0  0  0  0  0  0  0  0  0  0  0  0
   -6.7390    1.3550    0.0000 N   0  0  0  0  0  0  0  0  0  0  0  0
    1.2710   -3.3590    0.0000 C   0  0  0  0  0  0  0  0  0  0  0  0
    1.6480   -4.8110    0.0000 O   0  0  0  0  0  0  0  0  0  0  0  0
    2.0320   -2.0660    0.0000 C   0  0  1  0  0  0  0  0  0  0  0  0
    3.4840   -1.6900    0.0000 N   0  0  0  0  0  0  0  0  0  0  0  0
    3.8840   -0.2440    0.0000 C   0  0  0  0  0  0  0  0  0  0  0  0
    2.8320    0.8250    0.0000 O   0  0  0  0  0  0  0  0  0  0  0  0
    5.3360    0.1320    0.0000 C   0  0  0  0  0  0  0  0  0  0  0  0
    6.3880   -0.9370    0.0000 N   0  0  0  0  0  0  0  0  0  0  0  0
    7.8400   -0.5610    0.0000 O   0  0  0  0  0  0  0  0  0  0  0  0
    8.8920   -1.6300    0.0000 C   0  0  0  0  0  0  0  0  0  0  0  0
    5.7360    1.5780    0.0000 C   0  0  0  0  0  0  0  0  0  0  0  0
    7.1410    2.1040    0.0000 O   0  0  0  0  0  0  0  0  0  0  0  0
    7.0750    3.6020    0.0000 C   0  0  0  0  0  0  0  0  0  0  0  0
    5.6290    4.0030    0.0000 C   0  0  0  0  0  0  0  0  0  0  0  0
    4.8020    2.7510    0.0000 C   0  0  0  0  0  0  0  0  0  0  0  0
  1 15  1  0  0  0  0
  2  1  1  6  0  0  0
  2  3  1  0  0  0  0
  2 23  1  0  0  0  0
  3  4  1  0  0  0  0
  3 21  1  0  0  0  0
  4  5  1  0  0  0  0
  4 14  2  0  0  0  0
  5  6  1  0  0  0  0
  5 13  2  0  0  0  0
  6  7  1  0  0  0  0
  7  8  1  0  0  0  0
  7 12  1  0  0  0  0
  8  9  1  0  0  0  0
  9 10  2  0  0  0  0
  9 11  1  0  0  0  0
 14 15  1  0  0  0  0
 14 16  1  0  0  0  0
 16 17  1  0  0  0  0
 17 18  1  0  0  0  0
 18 19  2  0  0  0  0
 18 20  1  0  0  0  0
 21 22  2  0  0  0  0
 21 23  1  0  0  0  0
 23 24  1  6  0  0  0
 24 25  1  0  0  0  0
 25 26  2  0  0  0  0
 25 27  1  0  0  0  0
 27 28  2  3  0  0  0
 27 31  1  0  0  0  0
 28 29  1  0  0  0  0
 29 30  1  0  0  0  0
 31 32  1  0  0  0  0
 31 35  2  0  0  0  0
 32 33  1  0  0  0  0
 33 34  2  0  0  0  0
 34 35  1  0  0  0  0
M  END
>  <Index>
1480

>  <ID>
HT0428

>  <class>
1

>  <apol>
65.189445

>  <ast_fraglike>
0

>  <ast_fraglike_ext>
0

>  <ast_violation>
2

>  <ast_violation_ext>
4

>  <a_acc>
6

>  <a_acid>
0

>  <a_aro>
5

>  <a_base>
0

>  <a_count>
57

>  <a_don>
2

>  <a_donacc>
8

>  <a_heavy>
35

>  <a_hyd>
12

>  <a_IC>
106.70939

>  <a_ICM>
1.8720946

>  <a_nB>
0

>  <a_nBr>
0

>  <a_nC>
20

>  <a_nCl>
0

>  <a_nF>
0

>  <a_nH>
22

>  <a_nI>
0

>  <a_nN>
4

>  <a_nO>
10

>  <a_nP>
0

>  <a_nS>
1

>  <balabanJ>
1.6816547

>  <BCUT_PEOE_0>
-2.6847155

>  <BCUT_PEOE_1>
-0.54983735

>  <BCUT_PEOE_2>
0.4863238

>  <BCUT_PEOE_3>
2.7369618

>  <BCUT_SLOGP_0>
-2.8939662

>  <BCUT_SLOGP_1>
-0.46716106

>  <BCUT_SLOGP_2>
0.50465226

>  <BCUT_SLOGP_3>
2.6134074

>  <BCUT_SMR_0>
-2.4017179

>  <BCUT_SMR_1>
-0.3466157

>  <BCUT_SMR_2>
0.66768348

>  <BCUT_SMR_3>
3.017977

>  <bpol>
42.680553

>  <b_1rotN>
9

>  <b_1rotR>
0.24324325

>  <b_ar>
5

>  <b_count>
59

>  <b_double>
7

>  <b_heavy>
37

>  <b_max1len>
3

>  <b_rotN>
13

>  <b_rotR>
0.35135135

>  <b_single>
47

>  <b_triple>
0

>  <chi0>
25.697941

>  <chi0v>
19.65732

>  <chi0v_C>
12.378315

>  <chi0_C>
13.463737

>  <chi1>
16.633137

>  <chi1v>
11.11503

>  <chi1v_C>
4.3618073

>  <chi1_C>
5.3794456

>  <chiral>
3

>  <chiral_u>
1

>  <density>
0.87733442

>  <diameter>
15

>  <FCharge>
0

>  <GCUT_PEOE_0>
-0.83653766

>  <GCUT_PEOE_1>
-0.4260698

>  <GCUT_PEOE_2>
0.023050427

>  <GCUT_PEOE_3>
2.6833267

>  <GCUT_SLOGP_0>
-1.3703219

>  <GCUT_SLOGP_1>
-0.37887332

>  <GCUT_SLOGP_2>
0.085734211

>  <GCUT_SLOGP_3>
2.6160672

>  <GCUT_SMR_0>
-0.52971047

>  <GCUT_SMR_1>
-0.20260575

>  <GCUT_SMR_2>
0.21051842

>  <GCUT_SMR_3>
2.947926

>  <Kier1>
29.554419

>  <Kier2>
13.693048

>  <Kier3>
7.5294118

>  <KierA1>
23.734051

>  <KierA2>
10.921453

>  <KierA3>
5.9757257

>  <KierFlex>
7.4060092

>  <lip_acc>
14

>  <lip_don>
3

>  <lip_druglike>
0

>  <lip_violation>
2

>  <logP(o/w)>
-0.213

>  <logS>
-5.04633

>  <mr>
12.028625

>  <mutagenic>
0

>  <nmol>
1

>  <opr_brigid>
15

>  <opr_leadlike>
0

>  <opr_nring>
3

>  <opr_nrot>
9

>  <opr_violation>
2

>  <PC+>
0

>  <PC->
0

>  <PEOE_PC+>
4.1499386

>  <PEOE_PC->
-4.1499386

>  <PEOE_RPC+>
0.086361215

>  <PEOE_RPC->
0.1111201

>  <PEOE_VSA+0>
63.548141

>  <PEOE_VSA+1>
101.1077

>  <PEOE_VSA+2>
19.23292

>  <PEOE_VSA+3>
52.170017

>  <PEOE_VSA+4>
0

>  <PEOE_VSA+5>
40.607563

>  <PEOE_VSA+6>
33.908009

>  <PEOE_VSA-0>
45.466026

>  <PEOE_VSA-1>
0

>  <PEOE_VSA-2>
30.64588

>  <PEOE_VSA-3>
0

>  <PEOE_VSA-4>
13.566921

>  <PEOE_VSA-5>
67.681313

>  <PEOE_VSA-6>
9.2917662

>  <PEOE_VSA_FHYD>
0.65413558

>  <PEOE_VSA_FNEG>
0.34920943

>  <PEOE_VSA_FPNEG>
0.18972133

>  <PEOE_VSA_FPOL>
0.34586439

>  <PEOE_VSA_FPOS>
0.65079057

>  <PEOE_VSA_FPPOS>
0.15614307

>  <PEOE_VSA_HYD>
312.17068

>  <PEOE_VSA_NEG>
166.6519

>  <PEOE_VSA_PNEG>
90.540001

>  <PEOE_VSA_POL>
165.05557

>  <PEOE_VSA_POS>
310.57434

>  <PEOE_VSA_PPOS>
74.515572

>  <petitjean>
0.46666667

>  <petitjeanSC>
0.875

>  <Q_PC+>
0

>  <Q_PC->
0

>  <Q_RPC+>
0

>  <Q_RPC->
0

>  <Q_VSA_FHYD>
1

>  <Q_VSA_FNEG>
0

>  <Q_VSA_FPNEG>
0

>  <Q_VSA_FPOL>
0

>  <Q_VSA_FPOS>
1

>  <Q_VSA_FPPOS>
0

>  <Q_VSA_HYD>
477.22626

>  <Q_VSA_NEG>
0

>  <Q_VSA_PNEG>
0

>  <Q_VSA_POL>
0

>  <Q_VSA_POS>
477.22626

>  <Q_VSA_PPOS>
0

>  <radius>
8

>  <reactive>
1

>  <rings>
3

>  <RPC+>
0

>  <RPC->
0

>  <rsynth>
0.5714286

>  <SlogP>
-0.1683

>  <SlogP_VSA0>
50.90794

>  <SlogP_VSA1>
39.206192

>  <SlogP_VSA2>
154.52289

>  <SlogP_VSA3>
38.159824

>  <SlogP_VSA4>
5.4488211

>  <SlogP_VSA5>
70.233398

>  <SlogP_VSA6>
0

>  <SlogP_VSA7>
55.192799

>  <SlogP_VSA8>
0

>  <SlogP_VSA9>
122.73379

>  <SMR>
11.71591

>  <SMR_VSA0>
173.03685

>  <SMR_VSA1>
22.524176

>  <SMR_VSA2>
18.01075

>  <SMR_VSA3>
26.246742

>  <SMR_VSA4>
32.897186

>  <SMR_VSA5>
55.192799

>  <SMR_VSA6>
74.241699

>  <SMR_VSA7>
134.25543

>  <TPSA>
189.06

>  <VAdjEq>
0.32906306

>  <VAdjMa>
6.2094536

>  <VDistEq>
3.7618723

>  <VDistMa>
9.9880238

>  <vdw_area>
477.22626

>  <vdw_vol>
581.85339

>  <vsa_acc>
78.719864

>  <vsa_acid>
0

>  <vsa_base>
0

>  <vsa_don>
23.425066

>  <vsa_hyd>
209.97922

>  <vsa_other>
142.358

>  <vsa_pol>
102.14493

>  <Weight>
510.47998

>  <weinerPath>
3907

>  <weinerPol>
52

>  <zagreb>
178

$$$$