S(=O)(Cc1nccc(OCC(F)(F)F)c1C)c1[nH]c2c(n1)cccc2
  MOE2013           2D

 25 27  0  0  1  0  0  0  0  0999 V2000
    0.0000    0.0000    0.0000 S   0  0  3  0  0  0  0  0  0  0  0  0
    0.7510   -1.2980    0.0000 O   0  0  0  0  0  0  0  0  0  0  0  0
    0.7490    1.3000    0.0000 C   0  0  0  0  0  0  0  0  0  0  0  0
    2.2490    1.3010    0.0000 C   0  0  0  0  0  0  0  0  0  0  0  0
    3.0000    0.0030    0.0000 N   0  0  0  0  0  0  0  0  0  0  0  0
    4.5000    0.0040    0.0000 C   0  0  0  0  0  0  0  0  0  0  0  0
    5.2490    1.3040    0.0000 C   0  0  0  0  0  0  0  0  0  0  0  0
    4.4980    2.6020    0.0000 C   0  0  0  0  0  0  0  0  0  0  0  0
    5.2470    3.9020    0.0000 O   0  0  0  0  0  0  0  0  0  0  0  0
    6.7470    3.9030    0.0000 C   0  0  0  0  0  0  0  0  0  0  0  0
    7.4950    5.2030    0.0000 C   0  0  0  0  0  0  0  0  0  0  0  0
    8.7950    4.4540    0.0000 F   0  0  0  0  0  0  0  0  0  0  0  0
    6.1960    5.9520    0.0000 F   0  0  0  0  0  0  0  0  0  0  0  0
    8.2440    6.5020    0.0000 F   0  0  0  0  0  0  0  0  0  0  0  0
    2.9980    2.6010    0.0000 C   0  0  0  0  0  0  0  0  0  0  0  0
    2.2470    3.8990    0.0000 C   0  0  0  0  0  0  0  0  0  0  0  0
   -1.5000   -0.0010    0.0000 C   0  0  0  0  0  0  0  0  0  0  0  0
   -2.3810   -1.2160    0.0000 N   0  0  0  0  0  0  0  0  0  0  0  0
   -3.8080   -0.7530    0.0000 C   0  0  0  0  0  0  0  0  0  0  0  0
   -3.8090    0.7470    0.0000 C   0  0  0  0  0  0  0  0  0  0  0  0
   -2.3830    1.2110    0.0000 N   0  0  0  0  0  0  0  0  0  0  0  0
   -5.1090    1.4950    0.0000 C   0  0  0  0  0  0  0  0  0  0  0  0
   -6.4070    0.7440    0.0000 C   0  0  0  0  0  0  0  0  0  0  0  0
   -6.4060   -0.7560    0.0000 C   0  0  0  0  0  0  0  0  0  0  0  0
   -5.1060   -1.5050    0.0000 C   0  0  0  0  0  0  0  0  0  0  0  0
  1  2  2  0  0  0  0
  1  3  1  0  0  0  0
  1 17  1  0  0  0  0
  3  4  1  0  0  0  0
  4  5  1  0  0  0  0
  4 15  2  0  0  0  0
  5  6  2  0  0  0  0
  6  7  1  0  0  0  0
  7  8  2  0  0  0  0
  8  9  1  0  0  0  0
  8 15  1  0  0  0  0
  9 10  1  0  0  0  0
 10 11  1  0  0  0  0
 11 12  1  0  0  0  0
 11 13  1  0  0  0  0
 11 14  1  0  0  0  0
 15 16  1  0  0  0  0
 17 18  1  0  0  0  0
 17 21  2  0  0  0  0
 18 19  1  0  0  0  0
 19 20  1  0  0  0  0
 19 25  2  0  0  0  0
 20 21  1  0  0  0  0
 20 22  2  0  0  0  0
 22 23  1  0  0  0  0
 23 24  2  0  0  0  0
 24 25  1  0  0  0  0
M  END
>  <Index>
1518

>  <ID>
HT0623

>  <class>
1

>  <apol>
46.9701

>  <ast_fraglike>
0

>  <ast_fraglike_ext>
0

>  <ast_violation>
3

>  <ast_violation_ext>
4

>  <a_acc>
5

>  <a_acid>
0

>  <a_aro>
15

>  <a_base>
0

>  <a_count>
39

>  <a_don>
2

>  <a_donacc>
7

>  <a_heavy>
25

>  <a_hyd>
18

>  <a_IC>
77.31794

>  <a_ICM>
1.9825114

>  <a_nB>
0

>  <a_nBr>
0

>  <a_nC>
16

>  <a_nCl>
0

>  <a_nF>
3

>  <a_nH>
14

>  <a_nI>
0

>  <a_nN>
3

>  <a_nO>
2

>  <a_nP>
0

>  <a_nS>
1

>  <balabanJ>
1.4958628

>  <BCUT_PEOE_0>
-2.3637459

>  <BCUT_PEOE_1>
-0.58802575

>  <BCUT_PEOE_2>
0.59105569

>  <BCUT_PEOE_3>
2.4983709

>  <BCUT_SLOGP_0>
-2.4525046

>  <BCUT_SLOGP_1>
-0.50148004

>  <BCUT_SLOGP_2>
0.67875862

>  <BCUT_SLOGP_3>
2.5096982

>  <BCUT_SMR_0>
-2.1552792

>  <BCUT_SMR_1>
-0.41421989

>  <BCUT_SMR_2>
0.76783353

>  <BCUT_SMR_3>
2.730428

>  <bpol>
28.507898

>  <b_1rotN>
5

>  <b_1rotR>
0.18518518

>  <b_ar>
16

>  <b_count>
41

>  <b_double>
0

>  <b_heavy>
27

>  <b_max1len>
3

>  <b_rotN>
6

>  <b_rotR>
0.22222222

>  <b_single>
25

>  <b_triple>
0

>  <chi0>
18.026733

>  <chi0v>
13.947877

>  <chi0v_C>
9.378315

>  <chi0_C>
10.620955

>  <chi1>
11.832318

>  <chi1v>
8.6236286

>  <chi1v_C>
4.1564655

>  <chi1_C>
5.5638967

>  <chiral>
0

>  <chiral_u>
0

>  <density>
0.88032174

>  <diameter>
13

>  <FCharge>
0

>  <GCUT_PEOE_0>
-0.84835625

>  <GCUT_PEOE_1>
-0.40386787

>  <GCUT_PEOE_2>
0.03884273

>  <GCUT_PEOE_3>
2.4863536

>  <GCUT_SLOGP_0>
-0.91273594

>  <GCUT_SLOGP_1>
-0.34056461

>  <GCUT_SLOGP_2>
0.23294757

>  <GCUT_SLOGP_3>
2.5682549

>  <GCUT_SMR_0>
-0.50592357

>  <GCUT_SMR_1>
-0.1807376

>  <GCUT_SMR_2>
0.19308831

>  <GCUT_SMR_3>
2.7612166

>  <Kier1>
19.753086

>  <Kier2>
8.3471403

>  <Kier3>
5.2584882

>  <KierA1>
15.796437

>  <KierA2>
6.6089396

>  <KierA3>
4.1324215

>  <KierFlex>
4.1759081

>  <lip_acc>
5

>  <lip_don>
1

>  <lip_druglike>
1

>  <lip_violation>
0

>  <logP(o/w)>
1.78976

>  <logS>
-4.6530099

>  <mr>
9.0047398

>  <mutagenic>
0

>  <nmol>
1

>  <opr_brigid>
16

>  <opr_leadlike>
1

>  <opr_nring>
3

>  <opr_nrot>
5

>  <opr_violation>
0

>  <PC+>
0

>  <PC->
0

>  <PEOE_PC+>
2.4246099

>  <PEOE_PC->
-2.4246099

>  <PEOE_RPC+>
0.17043997

>  <PEOE_RPC->
0.25185233

>  <PEOE_VSA+0>
44.887321

>  <PEOE_VSA+1>
71.211037

>  <PEOE_VSA+2>
14.951293

>  <PEOE_VSA+3>
19.296389

>  <PEOE_VSA+4>
0

>  <PEOE_VSA+5>
0

>  <PEOE_VSA+6>
22.212126

>  <PEOE_VSA-0>
55.51239

>  <PEOE_VSA-1>
24.509808

>  <PEOE_VSA-2>
0

>  <PEOE_VSA-3>
41.408482

>  <PEOE_VSA-4>
0

>  <PEOE_VSA-5>
5.8194671

>  <PEOE_VSA-6>
18.512018

>  <PEOE_VSA_FHYD>
0.85378373

>  <PEOE_VSA_FNEG>
0.45791033

>  <PEOE_VSA_FPNEG>
0.076437108

>  <PEOE_VSA_FPOL>
0.14621627

>  <PEOE_VSA_FPOS>
0.5420897

>  <PEOE_VSA_FPPOS>
0.069779165

>  <PEOE_VSA_HYD>
271.7767

>  <PEOE_VSA_NEG>
145.76216

>  <PEOE_VSA_PNEG>
24.331486

>  <PEOE_VSA_POL>
46.54361

>  <PEOE_VSA_POS>
172.55817

>  <PEOE_VSA_PPOS>
22.212126

>  <petitjean>
0.46153846

>  <petitjeanSC>
0.85714287

>  <Q_PC+>
0

>  <Q_PC->
0

>  <Q_RPC+>
0

>  <Q_RPC->
0

>  <Q_VSA_FHYD>
1

>  <Q_VSA_FNEG>
0

>  <Q_VSA_FPNEG>
0

>  <Q_VSA_FPOL>
0

>  <Q_VSA_FPOS>
1

>  <Q_VSA_FPPOS>
0

>  <Q_VSA_HYD>
318.32031

>  <Q_VSA_NEG>
0

>  <Q_VSA_PNEG>
0

>  <Q_VSA_POL>
0

>  <Q_VSA_POS>
318.32031

>  <Q_VSA_PPOS>
0

>  <radius>
7

>  <reactive>
0

>  <rings>
3

>  <RPC+>
0

>  <RPC->
0

>  <rsynth>
1

>  <SlogP>
3.78162

>  <SlogP_VSA0>
10.999887

>  <SlogP_VSA1>
65.41642

>  <SlogP_VSA2>
36.334934

>  <SlogP_VSA3>
20.926258

>  <SlogP_VSA4>
5.9423227

>  <SlogP_VSA5>
0.69307917

>  <SlogP_VSA6>
0

>  <SlogP_VSA7>
109.71855

>  <SlogP_VSA8>
0

>  <SlogP_VSA9>
100.68335

>  <SMR>
8.6935101

>  <SMR_VSA0>
24.085844

>  <SMR_VSA1>
89.451286

>  <SMR_VSA2>
25.238125

>  <SMR_VSA3>
11.185751

>  <SMR_VSA4>
4.2882738

>  <SMR_VSA5>
122.66384

>  <SMR_VSA6>
20.926258

>  <SMR_VSA7>
52.87542

>  <TPSA>
87.080002

>  <VAdjEq>
0.42433795

>  <VAdjMa>
5.7548876

>  <VDistEq>
3.5334995

>  <VDistMa>
8.9752445

>  <vdw_area>
318.32031

>  <vdw_vol>
419.58182

>  <vsa_acc>
24.194593

>  <vsa_acid>
0

>  <vsa_base>
0

>  <vsa_don>
0

>  <vsa_hyd>
244.13058

>  <vsa_other>
26.303333

>  <vsa_pol>
35.559746

>  <Weight>
369.367

>  <weinerPath>
1631

>  <weinerPol>
36

>  <zagreb>
132

$$$$