Fc1cc(F)ccc1C(O)(Cn1ncnc1)Cn1ncnc1
  MOE2013           2D

 22 24  0  0  0  0  0  0  0  0999 V2000
    0.0000    0.0000    0.0000 F   0  0  0  0  0  0  0  0  0  0  0  0
    0.7540   -1.2970    0.0000 C   0  0  0  0  0  0  0  0  0  0  0  0
    2.2540   -1.2930    0.0000 C   0  0  0  0  0  0  0  0  0  0  0  0
    3.0070   -2.5890    0.0000 C   0  0  0  0  0  0  0  0  0  0  0  0
    4.5070   -2.5850    0.0000 F   0  0  0  0  0  0  0  0  0  0  0  0
    2.2610   -3.8910    0.0000 C   0  0  0  0  0  0  0  0  0  0  0  0
    0.7610   -3.8950    0.0000 C   0  0  0  0  0  0  0  0  0  0  0  0
    0.0070   -2.5980    0.0000 C   0  0  0  0  0  0  0  0  0  0  0  0
   -1.4930   -2.6020    0.0000 C   0  0  0  0  0  0  0  0  0  0  0  0
   -2.9930   -2.6070    0.0000 O   0  0  0  0  0  0  0  0  0  0  0  0
   -1.4970   -1.1020    0.0000 C   0  0  0  0  0  0  0  0  0  0  0  0
   -2.7980   -0.3560    0.0000 N   0  0  0  0  0  0  0  0  0  0  0  0
   -2.9590    1.1350    0.0000 N   0  0  0  0  0  0  0  0  0  0  0  0
   -4.4270    1.4430    0.0000 C   0  0  0  0  0  0  0  0  0  0  0  0
   -5.1730    0.1420    0.0000 N   0  0  0  0  0  0  0  0  0  0  0  0
   -4.1670   -0.9700    0.0000 C   0  0  0  0  0  0  0  0  0  0  0  0
   -1.4880   -4.1020    0.0000 C   0  0  0  0  0  0  0  0  0  0  0  0
   -2.7850   -4.8560    0.0000 N   0  0  0  0  0  0  0  0  0  0  0  0
   -4.1570   -4.2500    0.0000 N   0  0  0  0  0  0  0  0  0  0  0  0
   -5.1580   -5.3680    0.0000 C   0  0  0  0  0  0  0  0  0  0  0  0
   -4.4040   -6.6640    0.0000 N   0  0  0  0  0  0  0  0  0  0  0  0
   -2.9380   -6.3480    0.0000 C   0  0  0  0  0  0  0  0  0  0  0  0
  1  2  1  0  0  0  0
  2  3  1  0  0  0  0
  2  8  2  0  0  0  0
  3  4  2  0  0  0  0
  4  5  1  0  0  0  0
  4  6  1  0  0  0  0
  6  7  2  0  0  0  0
  7  8  1  0  0  0  0
  8  9  1  0  0  0  0
  9 10  1  0  0  0  0
  9 11  1  0  0  0  0
  9 17  1  0  0  0  0
 11 12  1  0  0  0  0
 12 13  1  0  0  0  0
 12 16  1  0  0  0  0
 13 14  2  0  0  0  0
 14 15  1  0  0  0  0
 15 16  2  0  0  0  0
 17 18  1  0  0  0  0
 18 19  1  0  0  0  0
 18 22  1  0  0  0  0
 19 20  2  0  0  0  0
 20 21  1  0  0  0  0
 21 22  2  0  0  0  0
M  END
>  <Index>
1570

>  <ID>
HT0889

>  <class>
1

>  <apol>
39.397514

>  <ast_fraglike>
0

>  <ast_fraglike_ext>
0

>  <ast_violation>
2

>  <ast_violation_ext>
3

>  <a_acc>
5

>  <a_acid>
0

>  <a_aro>
16

>  <a_base>
0

>  <a_count>
34

>  <a_don>
1

>  <a_donacc>
6

>  <a_heavy>
22

>  <a_hyd>
11

>  <a_IC>
64.338692

>  <a_ICM>
1.8923146

>  <a_nB>
0

>  <a_nBr>
0

>  <a_nC>
13

>  <a_nCl>
0

>  <a_nF>
2

>  <a_nH>
12

>  <a_nI>
0

>  <a_nN>
6

>  <a_nO>
1

>  <a_nP>
0

>  <a_nS>
0

>  <balabanJ>
1.7139099

>  <BCUT_PEOE_0>
-2.5515108

>  <BCUT_PEOE_1>
-0.61341786

>  <BCUT_PEOE_2>
0.56768495

>  <BCUT_PEOE_3>
2.6110854

>  <BCUT_SLOGP_0>
-2.4828672

>  <BCUT_SLOGP_1>
-0.46844169

>  <BCUT_SLOGP_2>
0.77869219

>  <BCUT_SLOGP_3>
2.6972194

>  <BCUT_SMR_0>
-2.3281541

>  <BCUT_SMR_1>
-0.4077138

>  <BCUT_SMR_2>
0.77940202

>  <BCUT_SMR_3>
2.8262873

>  <bpol>
22.124483

>  <b_1rotN>
5

>  <b_1rotR>
0.20833333

>  <b_ar>
16

>  <b_count>
36

>  <b_double>
0

>  <b_heavy>
24

>  <b_max1len>
4

>  <b_rotN>
5

>  <b_rotR>
0.20833333

>  <b_single>
20

>  <b_triple>
0

>  <chi0>
15.57914

>  <chi0v>
11.34209

>  <chi0v_C>
7.4556656

>  <chi0_C>
8.5960121

>  <chi1>
10.566298

>  <chi1v>
6.3947587

>  <chi1v_C>
2.6951406

>  <chi1_C>
3.4621084

>  <chiral>
0

>  <chiral_u>
0

>  <density>
0.8534264

>  <diameter>
9

>  <FCharge>
0

>  <GCUT_PEOE_0>
-0.82598299

>  <GCUT_PEOE_1>
-0.42112628

>  <GCUT_PEOE_2>
0.002617581

>  <GCUT_PEOE_3>
2.5626822

>  <GCUT_SLOGP_0>
-0.89942437

>  <GCUT_SLOGP_1>
-0.30203456

>  <GCUT_SLOGP_2>
0.19309296

>  <GCUT_SLOGP_3>
2.6269352

>  <GCUT_SMR_0>
-0.51470155

>  <GCUT_SMR_1>
-0.19297661

>  <GCUT_SMR_2>
0.1932752

>  <GCUT_SMR_3>
2.800801

>  <Kier1>
16.84375

>  <Kier2>
7.2664361

>  <Kier3>
4.1103301

>  <KierA1>
11.702123

>  <KierA2>
4.9526834

>  <KierA3>
2.7628069

>  <KierFlex>
2.6344051

>  <lip_acc>
7

>  <lip_don>
1

>  <lip_druglike>
1

>  <lip_violation>
0

>  <logP(o/w)>
-1.124

>  <logS>
-2.3195601

>  <mr>
7.5367618

>  <mutagenic>
0

>  <nmol>
1

>  <opr_brigid>
16

>  <opr_leadlike>
1

>  <opr_nring>
3

>  <opr_nrot>
5

>  <opr_violation>
0

>  <PC+>
0

>  <PC->
0

>  <PEOE_PC+>
2.1268198

>  <PEOE_PC->
-2.1268198

>  <PEOE_RPC+>
0.099104241

>  <PEOE_RPC->
0.17875184

>  <PEOE_VSA+0>
14.463444

>  <PEOE_VSA+1>
56.242352

>  <PEOE_VSA+2>
120.05094

>  <PEOE_VSA+3>
0

>  <PEOE_VSA+4>
10.324173

>  <PEOE_VSA+5>
0

>  <PEOE_VSA+6>
0

>  <PEOE_VSA-0>
12.254904

>  <PEOE_VSA-1>
12.254904

>  <PEOE_VSA-2>
0

>  <PEOE_VSA-3>
18.842079

>  <PEOE_VSA-4>
35.182423

>  <PEOE_VSA-5>
0

>  <PEOE_VSA-6>
7.7675405

>  <PEOE_VSA_FHYD>
0.81462306

>  <PEOE_VSA_FNEG>
0.3003028

>  <PEOE_VSA_FPNEG>
0.14945212

>  <PEOE_VSA_FPOL>
0.18537694

>  <PEOE_VSA_FPOS>
0.6996972

>  <PEOE_VSA_FPPOS>
0.035924815

>  <PEOE_VSA_HYD>
234.10863

>  <PEOE_VSA_NEG>
86.301849

>  <PEOE_VSA_PNEG>
42.949963

>  <PEOE_VSA_POL>
53.274136

>  <PEOE_VSA_POS>
201.08092

>  <PEOE_VSA_PPOS>
10.324173

>  <petitjean>
0.44444445

>  <petitjeanSC>
0.80000001

>  <Q_PC+>
0

>  <Q_PC->
0

>  <Q_RPC+>
0

>  <Q_RPC->
0

>  <Q_VSA_FHYD>
1

>  <Q_VSA_FNEG>
0

>  <Q_VSA_FPNEG>
0

>  <Q_VSA_FPOL>
0

>  <Q_VSA_FPOS>
1

>  <Q_VSA_FPPOS>
0

>  <Q_VSA_HYD>
287.38275

>  <Q_VSA_NEG>
0

>  <Q_VSA_PNEG>
0

>  <Q_VSA_POL>
0

>  <Q_VSA_POS>
287.38275

>  <Q_VSA_PPOS>
0

>  <radius>
5

>  <reactive>
0

>  <rings>
3

>  <RPC+>
0

>  <RPC->
0

>  <rsynth>
0.5

>  <SlogP>
1.5801001

>  <SlogP_VSA0>
25.385227

>  <SlogP_VSA1>
70.450218

>  <SlogP_VSA2>
18.242037

>  <SlogP_VSA3>
0

>  <SlogP_VSA4>
3.185575

>  <SlogP_VSA5>
0

>  <SlogP_VSA6>
0

>  <SlogP_VSA7>
120.07167

>  <SlogP_VSA8>
0

>  <SlogP_VSA9>
66.799385

>  <SMR>
7.0825801

>  <SMR_VSA0>
0

>  <SMR_VSA1>
125.75567

>  <SMR_VSA2>
18.242037

>  <SMR_VSA3>
3.185575

>  <SMR_VSA4>
0

>  <SMR_VSA5>
156.95082

>  <SMR_VSA6>
0

>  <SMR_VSA7>
0

>  <TPSA>
81.650002

>  <VAdjEq>
0.46637034

>  <VAdjMa>
5.5849624

>  <VDistEq>
3.0211732

>  <VDistMa>
8.6635313

>  <vdw_area>
287.38275

>  <vdw_vol>
358.87805

>  <vsa_acc>
30.207232

>  <vsa_acid>
0

>  <vsa_base>
0

>  <vsa_don>
0

>  <vsa_hyd>
132.092

>  <vsa_other>
99.162071

>  <vsa_pol>
43.774151

>  <Weight>
306.276

>  <weinerPath>
1000

>  <weinerPol>
30

>  <zagreb>
116

$$$$