O1[C@@H](C)[C@H](C)[C@H](O)[C@H](C=CC=CC=CC=CC=CC=CC=C[C@H](O[C@@H]2O[C@H](C)[C@@H](O)[C@H](N)[C@@H]2O)C[C@@H]2O[C@@](O)(C[C@H](O)[C@H]2C(O)=O)C[C@@H](O)C[C@@H](O)[C@H](O)CC[C@@H](O)C[C@@H](O)CC1=O)C
  MOE2013           2D

 65 67  0  0  1  0  0  0  0  0999 V2000
    0.0000    0.0000    0.0000 O   0  0  0  0  0  0  0  0  0  0  0  0
   -1.5080   -0.0010    0.0000 C   0  0  1  0  0  0  0  0  0  0  0  0
   -2.2670   -1.2950    0.0000 C   0  0  0  0  0  0  0  0  0  0  0  0
   -2.2410    1.3130    0.0000 C   0  0  2  0  0  0  0  0  0  0  0  0
   -3.7400    1.3420    0.0000 C   0  0  0  0  0  0  0  0  0  0  0  0
   -1.4610    2.5930    0.0000 C   0  0  2  0  0  0  0  0  0  0  0  0
    0.0390    2.5560    0.0000 O   0  0  0  0  0  0  0  0  0  0  0  0
   -2.1780    3.9120    0.0000 C   0  0  2  0  0  0  0  0  0  0  0  0
   -1.3920    5.1880    0.0000 C   0  0  0  0  0  0  0  0  0  0  0  0
   -2.1000    6.5120    0.0000 C   0  0  0  0  0  0  0  0  0  0  0  0
   -1.3050    7.7820    0.0000 C   0  0  0  0  0  0  0  0  0  0  0  0
   -2.0010    9.1110    0.0000 C   0  0  0  0  0  0  0  0  0  0  0  0
   -1.1690   10.3750    0.0000 C   0  0  0  0  0  0  0  0  0  0  0  0
    0.3260   10.2590    0.0000 C   0  0  0  0  0  0  0  0  0  0  0  0
    1.1800   11.4950    0.0000 C   0  0  0  0  0  0  0  0  0  0  0  0
    2.6700   11.3680    0.0000 C   0  0  0  0  0  0  0  0  0  0  0  0
    3.5360   12.6020    0.0000 C   0  0  0  0  0  0  0  0  0  0  0  0
    5.0560   12.3730    0.0000 C   0  0  0  0  0  0  0  0  0  0  0  0
    5.5230   10.9400    0.0000 C   0  0  0  0  0  0  0  0  0  0  0  0
    6.9840   10.6230    0.0000 C   0  0  0  0  0  0  0  0  0  0  0  0
    7.4330    9.1860    0.0000 C   0  0  0  0  0  0  0  0  0  0  0  0
    8.8930    8.8630    0.0000 C   0  0  0  0  0  0  0  0  0  0  0  0
    9.3400    7.4300    0.0000 C   0  0  2  0  0  0  0  0  0  0  0  0
    8.3230    6.3280    0.0000 O   0  0  0  0  0  0  0  0  0  0  0  0
    6.8600    6.6580    0.0000 C   0  0  2  0  0  0  0  0  0  0  0  0
    6.4140    8.0900    0.0000 O   0  0  0  0  0  0  0  0  0  0  0  0
    4.9510    8.4200    0.0000 C   0  0  2  0  0  0  0  0  0  0  0  0
    4.5050    9.8520    0.0000 C   0  0  0  0  0  0  0  0  0  0  0  0
    3.9330    7.3170    0.0000 C   0  0  1  0  0  0  0  0  0  0  0  0
    2.4700    7.6470    0.0000 O   0  0  0  0  0  0  0  0  0  0  0  0
    4.3790    5.8850    0.0000 C   0  0  2  0  0  0  0  0  0  0  0  0
    3.3620    4.7830    0.0000 N   0  0  0  0  0  0  0  0  0  0  0  0
    5.8430    5.5550    0.0000 C   0  0  2  0  0  0  0  0  0  0  0  0
    6.2890    4.1230    0.0000 O   0  0  0  0  0  0  0  0  0  0  0  0
   10.8040    7.0990    0.0000 C   0  0  0  0  0  0  0  0  0  0  0  0
   11.4830    5.9620    0.0000 C   0  0  2  0  0  0  0  0  0  0  0  0
   11.2710    4.5040    0.0000 O   0  0  0  0  0  0  0  0  0  0  0  0
   12.4480    3.5770    0.0000 C   0  0  1  0  0  0  0  0  0  0  0  0
   11.1680    2.7940    0.0000 O   0  0  0  0  0  0  0  0  0  0  0  0
   13.8440    4.1280    0.0000 C   0  0  0  0  0  0  0  0  0  0  0  0
   14.0540    5.6180    0.0000 C   0  0  2  0  0  0  0  0  0  0  0  0
   15.4440    6.1820    0.0000 O   0  0  0  0  0  0  0  0  0  0  0  0
   12.8550    6.5490    0.0000 C   0  0  1  0  0  0  0  0  0  0  0  0
   13.0460    8.0370    0.0000 C   0  0  0  0  0  0  0  0  0  0  0  0
   11.8530    8.9460    0.0000 O   0  0  0  0  0  0  0  0  0  0  0  0
   14.4300    8.6150    0.0000 O   0  0  0  0  0  0  0  0  0  0  0  0
   12.7420    2.3340    0.0000 C   0  0  0  0  0  0  0  0  0  0  0  0
   12.7580    0.9680    0.0000 C   0  0  1  0  0  0  0  0  0  0  0  0
   14.1490    0.4060    0.0000 O   0  0  0  0  0  0  0  0  0  0  0  0
   11.7340   -0.0680    0.0000 C   0  0  0  0  0  0  0  0  0  0  0  0
   10.2620    0.2190    0.0000 C   0  0  1  0  0  0  0  0  0  0  0  0
    9.7730    1.6370    0.0000 O   0  0  0  0  0  0  0  0  0  0  0  0
    9.2820   -0.9140    0.0000 C   0  0  2  0  0  0  0  0  0  0  0  0
    9.7800   -2.3290    0.0000 O   0  0  0  0  0  0  0  0  0  0  0  0
    7.8040   -0.6440    0.0000 C   0  0  0  0  0  0  0  0  0  0  0  0
    6.8510   -1.8050    0.0000 C   0  0  0  0  0  0  0  0  0  0  0  0
    5.3710   -1.5720    0.0000 C   0  0  1  0  0  0  0  0  0  0  0  0
    4.8310   -0.1720    0.0000 O   0  0  0  0  0  0  0  0  0  0  0  0
    4.4330   -2.7360    0.0000 C   0  0  0  0  0  0  0  0  0  0  0  0
    2.9800   -2.6100    0.0000 C   0  0  1  0  0  0  0  0  0  0  0  0
    2.1670   -3.8700    0.0000 O   0  0  0  0  0  0  0  0  0  0  0  0
    2.2510   -1.3080    0.0000 C   0  0  0  0  0  0  0  0  0  0  0  0
    0.7430   -1.2960    0.0000 C   0  0  0  0  0  0  0  0  0  0  0  0
   -0.0130   -2.5910    0.0000 O   0  0  0  0  0  0  0  0  0  0  0  0
   -3.6780    3.9530    0.0000 C   0  0  0  0  0  0  0  0  0  0  0  0
  1  2  1  0  0  0  0
  1 63  1  0  0  0  0
  2  3  1  1  0  0  0
  2  4  1  0  0  0  0
  4  5  1  6  0  0  0
  4  6  1  0  0  0  0
  6  7  1  1  0  0  0
  6  8  1  0  0  0  0
  8  9  1  0  0  0  0
  8 65  1  1  0  0  0
  9 10  2  3  0  0  0
 10 11  1  0  0  0  0
 11 12  2  3  0  0  0
 12 13  1  0  0  0  0
 13 14  2  3  0  0  0
 14 15  1  0  0  0  0
 15 16  2  3  0  0  0
 16 17  1  0  0  0  0
 17 18  2  3  0  0  0
 18 19  1  0  0  0  0
 19 20  2  3  0  0  0
 20 21  1  0  0  0  0
 21 22  2  3  0  0  0
 22 23  1  0  0  0  0
 23 24  1  1  0  0  0
 23 35  1  0  0  0  0
 25 24  1  1  0  0  0
 25 26  1  0  0  0  0
 25 33  1  0  0  0  0
 26 27  1  0  0  0  0
 27 28  1  1  0  0  0
 27 29  1  0  0  0  0
 29 30  1  6  0  0  0
 29 31  1  0  0  0  0
 31 32  1  1  0  0  0
 31 33  1  0  0  0  0
 33 34  1  1  0  0  0
 36 35  1  1  0  0  0
 36 37  1  0  0  0  0
 36 43  1  0  0  0  0
 37 38  1  0  0  0  0
 38 39  1  6  0  0  0
 38 40  1  0  0  0  0
 38 47  1  0  0  0  0
 40 41  1  0  0  0  0
 41 42  1  1  0  0  0
 41 43  1  0  0  0  0
 43 44  1  6  0  0  0
 44 45  1  0  0  0  0
 44 46  2  0  0  0  0
 47 48  1  0  0  0  0
 48 49  1  1  0  0  0
 48 50  1  0  0  0  0
 50 51  1  0  0  0  0
 51 52  1  6  0  0  0
 51 53  1  0  0  0  0
 53 54  1  6  0  0  0
 53 55  1  0  0  0  0
 55 56  1  0  0  0  0
 56 57  1  0  0  0  0
 57 58  1  6  0  0  0
 57 59  1  0  0  0  0
 59 60  1  0  0  0  0
 60 61  1  1  0  0  0
 60 62  1  0  0  0  0
 62 63  1  0  0  0  0
 63 64  2  0  0  0  0
M  END
>  <Index>
1434

>  <ID>
HT0152

>  <class>
1

>  <apol>
146.12988

>  <ast_fraglike>
0

>  <ast_fraglike_ext>
0

>  <ast_violation>
3

>  <ast_violation_ext>
5

>  <a_acc>
17

>  <a_acid>
0

>  <a_aro>
0

>  <a_base>
0

>  <a_count>
138

>  <a_don>
13

>  <a_donacc>
30

>  <a_heavy>
65

>  <a_hyd>
43

>  <a_IC>
198.56664

>  <a_ICM>
1.4388887

>  <a_nB>
0

>  <a_nBr>
0

>  <a_nC>
47

>  <a_nCl>
0

>  <a_nF>
0

>  <a_nH>
73

>  <a_nI>
0

>  <a_nN>
1

>  <a_nO>
17

>  <a_nP>
0

>  <a_nS>
0

>  <balabanJ>
1.7104591

>  <BCUT_PEOE_0>
-2.7829115

>  <BCUT_PEOE_1>
-0.53821701

>  <BCUT_PEOE_2>
0.61682785

>  <BCUT_PEOE_3>
2.8334618

>  <BCUT_SLOGP_0>
-2.9567969

>  <BCUT_SLOGP_1>
-0.56391329

>  <BCUT_SLOGP_2>
0.60076272

>  <BCUT_SLOGP_3>
2.7534568

>  <BCUT_SMR_0>
-2.572612

>  <BCUT_SMR_1>
-0.41134253

>  <BCUT_SMR_2>
0.70382398

>  <BCUT_SMR_3>
3.0326126

>  <bpol>
88.724113

>  <b_1rotN>
3

>  <b_1rotR>
0.044776119

>  <b_ar>
0

>  <b_count>
140

>  <b_double>
9

>  <b_heavy>
67

>  <b_max1len>
4

>  <b_rotN>
3

>  <b_rotR>
0.044776119

>  <b_single>
131

>  <b_triple>
0

>  <chi0>
48.431782

>  <chi0v>
37.578251

>  <chi0v_C>
29.632063

>  <chi0_C>
31.603355

>  <chi1>
30.615496

>  <chi1v>
22.317848

>  <chi1v_C>
16.982801

>  <chi1_C>
19.398651

>  <chiral>
19

>  <chiral_u>
0

>  <density>
0.74977797

>  <diameter>
25

>  <FCharge>
0

>  <GCUT_PEOE_0>
-0.82156199

>  <GCUT_PEOE_1>
-0.37496397

>  <GCUT_PEOE_2>
0.10052017

>  <GCUT_PEOE_3>
3.2342653

>  <GCUT_SLOGP_0>
-1.3638116

>  <GCUT_SLOGP_1>
-0.36706343

>  <GCUT_SLOGP_2>
0.11430997

>  <GCUT_SLOGP_3>
3.2051303

>  <GCUT_SMR_0>
-0.53447831

>  <GCUT_SMR_1>
-0.22951142

>  <GCUT_SMR_2>
0.17325909

>  <GCUT_SMR_3>
3.4370265

>  <Kier1>
59.309422

>  <Kier2>
30.011343

>  <Kier3>
20.706675

>  <KierA1>
52.864647

>  <KierA2>
26.700695

>  <KierA3>
18.398724

>  <KierFlex>
21.715734

>  <lip_acc>
18

>  <lip_don>
13

>  <lip_druglike>
0

>  <lip_violation>
3

>  <logP(o/w)>
2.674

>  <logS>
-4.2048202

>  <mr>
23.743616

>  <mutagenic>
0

>  <nmol>
1

>  <opr_brigid>
46

>  <opr_leadlike>
0

>  <opr_nring>
2

>  <opr_nrot>
31

>  <opr_violation>
4

>  <PC+>
0

>  <PC->
0

>  <PEOE_PC+>
7.5112119

>  <PEOE_PC->
-7.5112119

>  <PEOE_RPC+>
0.035640083

>  <PEOE_RPC->
0.052148607

>  <PEOE_VSA+0>
167.03223

>  <PEOE_VSA+1>
194.40262

>  <PEOE_VSA+2>
22.142954

>  <PEOE_VSA+3>
12.263453

>  <PEOE_VSA+4>
113.5659

>  <PEOE_VSA+5>
29.416998

>  <PEOE_VSA+6>
0

>  <PEOE_VSA-0>
63.599297

>  <PEOE_VSA-1>
209.06401

>  <PEOE_VSA-2>
0

>  <PEOE_VSA-3>
0

>  <PEOE_VSA-4>
0

>  <PEOE_VSA-5>
27.133842

>  <PEOE_VSA-6>
102.10909

>  <PEOE_VSA_FHYD>
0.71062291

>  <PEOE_VSA_FNEG>
0.42722788

>  <PEOE_VSA_FPNEG>
0.13738573

>  <PEOE_VSA_FPOL>
0.28937709

>  <PEOE_VSA_FPOS>
0.57277215

>  <PEOE_VSA_FPPOS>
0.15199137

>  <PEOE_VSA_HYD>
668.50452

>  <PEOE_VSA_NEG>
401.90622

>  <PEOE_VSA_PNEG>
129.24294

>  <PEOE_VSA_POL>
272.22583

>  <PEOE_VSA_POS>
538.82416

>  <PEOE_VSA_PPOS>
142.98289

>  <petitjean>
0.28

>  <petitjeanSC>
0.3888889

>  <Q_PC+>
0

>  <Q_PC->
0

>  <Q_RPC+>
0

>  <Q_RPC->
0

>  <Q_VSA_FHYD>
1

>  <Q_VSA_FNEG>
0

>  <Q_VSA_FPNEG>
0

>  <Q_VSA_FPOL>
0

>  <Q_VSA_FPOS>
1

>  <Q_VSA_FPPOS>
0

>  <Q_VSA_HYD>
940.73035

>  <Q_VSA_NEG>
0

>  <Q_VSA_PNEG>
0

>  <Q_VSA_POL>
0

>  <Q_VSA_POS>
940.73035

>  <Q_VSA_PPOS>
0

>  <radius>
18

>  <reactive>
1

>  <rings>
3

>  <RPC+>
0

>  <RPC->
0

>  <rsynth>
0.44615385

>  <SlogP>
0.71170002

>  <SlogP_VSA0>
286.74945

>  <SlogP_VSA1>
15.490929

>  <SlogP_VSA2>
188.32489

>  <SlogP_VSA3>
25.385227

>  <SlogP_VSA4>
13.232388

>  <SlogP_VSA5>
0

>  <SlogP_VSA6>
0

>  <SlogP_VSA7>
247.00458

>  <SlogP_VSA8>
150.94725

>  <SlogP_VSA9>
133.30406

>  <SMR>
23.69912

>  <SMR_VSA0>
91.723984

>  <SMR_VSA1>
253.85226

>  <SMR_VSA2>
38.617615

>  <SMR_VSA3>
96.600914

>  <SMR_VSA4>
32.897186

>  <SMR_VSA5>
397.95181

>  <SMR_VSA6>
15.490929

>  <SMR_VSA7>
133.30406

>  <TPSA>
319.60999

>  <VAdjEq>
0.20292571

>  <VAdjMa>
7.0660892

>  <VDistEq>
4.4280367

>  <VDistMa>
11.796713

>  <vdw_area>
940.73035

>  <vdw_vol>
1232.4862

>  <vsa_acc>
21.07819

>  <vsa_acid>
0

>  <vsa_base>
0

>  <vsa_don>
0

>  <vsa_hyd>
588.7066

>  <vsa_other>
47.737797

>  <vsa_pol>
201.62373

>  <Weight>
924.091

>  <weinerPath>
22044

>  <weinerPol>
103

>  <zagreb>
318

$$$$