O(C)c1cc2c(nccc2[C@@H](O)[C@H]2N3C[C@@H]([C@H](C2)CC3)C=C)cc1
  MOE2013           2D

 24 27  0  0  1  0  0  0  0  0999 V2000
    0.0000    0.0000    0.0000 O   0  0  0  0  0  0  0  0  0  0  0  0
   -1.5000   -0.0100    0.0000 C   0  0  0  0  0  0  0  0  0  0  0  0
    0.7590   -1.2940    0.0000 C   0  0  0  0  0  0  0  0  0  0  0  0
    2.2590   -1.2830    0.0000 C   0  0  0  0  0  0  0  0  0  0  0  0
    3.0180   -2.5770    0.0000 C   0  0  0  0  0  0  0  0  0  0  0  0
    2.2770   -3.8810    0.0000 C   0  0  0  0  0  0  0  0  0  0  0  0
    3.0360   -5.1750    0.0000 N   0  0  0  0  0  0  0  0  0  0  0  0
    4.5360   -5.1650    0.0000 C   0  0  0  0  0  0  0  0  0  0  0  0
    5.2770   -3.8600    0.0000 C   0  0  0  0  0  0  0  0  0  0  0  0
    4.5180   -2.5670    0.0000 C   0  0  0  0  0  0  0  0  0  0  0  0
    5.2590   -1.2620    0.0000 C   0  0  1  0  0  0  0  0  0  0  0  0
    4.5000    0.0310    0.0000 O   0  0  0  0  0  0  0  0  0  0  0  0
    6.7590   -1.2520    0.0000 C   0  0  1  0  0  0  0  0  0  0  0  0
    8.0490   -0.2530    0.0000 N   0  0  3  0  0  0  0  0  0  0  0  0
    8.1560    1.2140    0.0000 C   0  0  0  0  0  0  0  0  0  0  0  0
    9.2160    0.3190    0.0000 C   0  0  1  0  0  0  0  0  0  0  0  0
    9.0930   -1.1230    0.0000 C   0  0  2  0  0  0  0  0  0  0  0  0
    7.8470   -2.0710    0.0000 C   0  0  0  0  0  0  0  0  0  0  0  0
   10.5270   -1.8360    0.0000 C   0  0  0  0  0  0  0  0  0  0  0  0
    9.7930   -0.9310    0.0000 C   0  0  0  0  0  0  0  0  0  0  0  0
   10.6020    0.8930    0.0000 C   0  0  0  0  0  0  0  0  0  0  0  0
   10.7970    2.3800    0.0000 C   0  0  0  0  0  0  0  0  0  0  0  0
    0.7770   -3.8920    0.0000 C   0  0  0  0  0  0  0  0  0  0  0  0
    0.0180   -2.5980    0.0000 C   0  0  0  0  0  0  0  0  0  0  0  0
  1  2  1  0  0  0  0
  1  3  1  0  0  0  0
  3  4  1  0  0  0  0
  3 24  2  0  0  0  0
  4  5  2  0  0  0  0
  5  6  1  0  0  0  0
  5 10  1  0  0  0  0
  6  7  1  0  0  0  0
  6 23  2  0  0  0  0
  7  8  2  0  0  0  0
  8  9  1  0  0  0  0
  9 10  2  0  0  0  0
 10 11  1  0  0  0  0
 11 12  1  1  0  0  0
 11 13  1  0  0  0  0
 13 14  1  1  0  0  0
 13 18  1  0  0  0  0
 14 15  1  0  0  0  0
 14 20  1  0  0  0  0
 15 16  1  0  0  0  0
 16 17  1  0  0  0  0
 16 21  1  6  0  0  0
 17 18  1  0  0  0  0
 17 19  1  1  0  0  0
 19 20  1  0  0  0  0
 21 22  2  0  0  0  0
 23 24  1  0  0  0  0
M  END
>  <Index>
1710

>  <ID>
HT1790

>  <class>
1

>  <apol>
55.00703

>  <ast_fraglike>
0

>  <ast_fraglike_ext>
0

>  <ast_violation>
3

>  <ast_violation_ext>
4

>  <a_acc>
4

>  <a_acid>
0

>  <a_aro>
10

>  <a_base>
0

>  <a_count>
48

>  <a_don>
1

>  <a_donacc>
5

>  <a_heavy>
24

>  <a_hyd>
20

>  <a_IC>
67.60054

>  <a_ICM>
1.4083445

>  <a_nB>
0

>  <a_nBr>
0

>  <a_nC>
20

>  <a_nCl>
0

>  <a_nF>
0

>  <a_nH>
24

>  <a_nI>
0

>  <a_nN>
2

>  <a_nO>
2

>  <a_nP>
0

>  <a_nS>
0

>  <balabanJ>
1.4634196

>  <BCUT_PEOE_0>
-2.907095

>  <BCUT_PEOE_1>
-0.59050947

>  <BCUT_PEOE_2>
0.60681129

>  <BCUT_PEOE_3>
2.8452537

>  <BCUT_SLOGP_0>
-2.9229503

>  <BCUT_SLOGP_1>
-0.53782898

>  <BCUT_SLOGP_2>
0.64400125

>  <BCUT_SLOGP_3>
2.8598366

>  <BCUT_SMR_0>
-2.6418777

>  <BCUT_SMR_1>
-0.39043638

>  <BCUT_SMR_2>
0.74600792

>  <BCUT_SMR_3>
3.1059954

>  <bpol>
31.452969

>  <b_1rotN>
4

>  <b_1rotR>
0.14814815

>  <b_ar>
11

>  <b_count>
51

>  <b_double>
1

>  <b_heavy>
27

>  <b_max1len>
4

>  <b_rotN>
4

>  <b_rotR>
0.14814815

>  <b_single>
39

>  <b_triple>
0

>  <chi0>
16.681435

>  <chi0v>
14.058926

>  <chi0v_C>
12.309036

>  <chi0_C>
13.68987

>  <chi1>
11.70704

>  <chi1v>
8.6829901

>  <chi1v_C>
6.439959

>  <chi1_C>
7.9562564

>  <chiral>
4

>  <chiral_u>
0

>  <density>
0.69930238

>  <diameter>
12

>  <FCharge>
0

>  <GCUT_PEOE_0>
-0.8489871

>  <GCUT_PEOE_1>
-0.41208896

>  <GCUT_PEOE_2>
0.051889453

>  <GCUT_PEOE_3>
2.9162807

>  <GCUT_SLOGP_0>
-0.9527958

>  <GCUT_SLOGP_1>
-0.32904956

>  <GCUT_SLOGP_2>
0.11949125

>  <GCUT_SLOGP_3>
2.978549

>  <GCUT_SMR_0>
-0.52269238

>  <GCUT_SMR_1>
-0.20971419

>  <GCUT_SMR_2>
0.16281939

>  <GCUT_SMR_3>
3.1685472

>  <Kier1>
17.415638

>  <Kier2>
7.3188691

>  <Kier3>
3.2410715

>  <KierA1>
14.071748

>  <KierA2>
5.8552427

>  <KierA3>
2.5744591

>  <KierFlex>
3.4330623

>  <lip_acc>
4

>  <lip_don>
1

>  <lip_druglike>
1

>  <lip_violation>
0

>  <logP(o/w)>
2.77

>  <logS>
-3.0364201

>  <mr>
9.48242

>  <mutagenic>
0

>  <nmol>
1

>  <opr_brigid>
21

>  <opr_leadlike>
1

>  <opr_nring>
4

>  <opr_nrot>
8

>  <opr_violation>
0

>  <PC+>
0

>  <PC->
0

>  <PEOE_PC+>
1.7095057

>  <PEOE_PC->
-1.7095057

>  <PEOE_RPC+>
0.12301793

>  <PEOE_RPC->
0.22556403

>  <PEOE_VSA+0>
107.20964

>  <PEOE_VSA+1>
71.247635

>  <PEOE_VSA+2>
0

>  <PEOE_VSA+3>
0

>  <PEOE_VSA+4>
10.324173

>  <PEOE_VSA+5>
0

>  <PEOE_VSA+6>
0

>  <PEOE_VSA-0>
81.823105

>  <PEOE_VSA-1>
12.254904

>  <PEOE_VSA-2>
22.301268

>  <PEOE_VSA-3>
0

>  <PEOE_VSA-4>
0

>  <PEOE_VSA-5>
5.6825762

>  <PEOE_VSA-6>
10.271297

>  <PEOE_VSA_FHYD>
0.91816616

>  <PEOE_VSA_FNEG>
0.41210568

>  <PEOE_VSA_FPNEG>
0.0496828

>  <PEOE_VSA_FPOL>
0.081833854

>  <PEOE_VSA_FPOS>
0.58789432

>  <PEOE_VSA_FPPOS>
0.032151055

>  <PEOE_VSA_HYD>
294.83655

>  <PEOE_VSA_NEG>
132.33315

>  <PEOE_VSA_PNEG>
15.953873

>  <PEOE_VSA_POL>
26.278046

>  <PEOE_VSA_POS>
188.78145

>  <PEOE_VSA_PPOS>
10.324173

>  <petitjean>
0.5

>  <petitjeanSC>
1

>  <Q_PC+>
0

>  <Q_PC->
0

>  <Q_RPC+>
0

>  <Q_RPC->
0

>  <Q_VSA_FHYD>
1

>  <Q_VSA_FNEG>
0

>  <Q_VSA_FPNEG>
0

>  <Q_VSA_FPOL>
0

>  <Q_VSA_FPOS>
1

>  <Q_VSA_FPPOS>
0

>  <Q_VSA_HYD>
321.11459

>  <Q_VSA_NEG>
0

>  <Q_VSA_PNEG>
0

>  <Q_VSA_POL>
0

>  <Q_VSA_POS>
321.11459

>  <Q_VSA_PPOS>
0

>  <radius>
6

>  <reactive>
0

>  <rings>
4

>  <RPC+>
0

>  <RPC->
0

>  <rsynth>
0.58333331

>  <SlogP>
3.2686999

>  <SlogP_VSA0>
36.385113

>  <SlogP_VSA1>
19.909843

>  <SlogP_VSA2>
3.9819686

>  <SlogP_VSA3>
36.879158

>  <SlogP_VSA4>
12.007167

>  <SlogP_VSA5>
35.383869

>  <SlogP_VSA6>
0

>  <SlogP_VSA7>
110.14738

>  <SlogP_VSA8>
44.20546

>  <SlogP_VSA9>
37.344223

>  <SMR>
9.5137796

>  <SMR_VSA0>
0

>  <SMR_VSA1>
56.294956

>  <SMR_VSA2>
8.8215923

>  <SMR_VSA3>
18.879622

>  <SMR_VSA4>
4.7171016

>  <SMR_VSA5>
143.16708

>  <SMR_VSA6>
36.879158

>  <SMR_VSA7>
67.484665

>  <TPSA>
45.59

>  <VAdjEq>
0.44886449

>  <VAdjMa>
5.7548876

>  <VDistEq>
3.2671726

>  <VDistMa>
8.8857107

>  <vdw_area>
321.11459

>  <vdw_vol>
463.9252

>  <vsa_acc>
8.1863317

>  <vsa_acid>
0

>  <vsa_base>
0

>  <vsa_don>
0

>  <vsa_hyd>
275.77515

>  <vsa_other>
0

>  <vsa_pol>
21.753254

>  <Weight>
324.42398

>  <weinerPath>
1286

>  <weinerPol>
42

>  <zagreb>
132

$$$$