Clc1ccc(NC(=NC(=NC(C)C)N)N)cc1
  MOE2013           2D

 17 17  0  0  0  0  0  0  0  0999 V2000
    0.0000    0.0000    0.0000 Cl  0  0  0  0  0  0  0  0  0  0  0  0
    1.5000    0.0010    0.0000 C   0  0  0  0  0  0  0  0  0  0  0  0
    2.2500    1.3000    0.0000 C   0  0  0  0  0  0  0  0  0  0  0  0
    3.7500    1.3000    0.0000 C   0  0  0  0  0  0  0  0  0  0  0  0
    4.5000    0.0020    0.0000 C   0  0  0  0  0  0  0  0  0  0  0  0
    6.0000    0.0020    0.0000 N   0  0  0  0  0  0  0  0  0  0  0  0
    6.7500    1.3010    0.0000 C   0  0  0  0  0  0  0  0  0  0  0  0
    8.2500    1.3020    0.0000 N   0  0  0  0  0  0  0  0  0  0  0  0
    8.9990    2.6010    0.0000 C   0  0  0  0  0  0  0  0  0  0  0  0
   10.4990    2.6020    0.0000 N   0  0  0  0  0  0  0  0  0  0  0  0
   11.2490    3.9010    0.0000 C   0  0  0  0  0  0  0  0  0  0  0  0
   12.7490    3.9010    0.0000 C   0  0  0  0  0  0  0  0  0  0  0  0
   10.4980    5.2000    0.0000 C   0  0  0  0  0  0  0  0  0  0  0  0
    8.2490    3.9000    0.0000 N   0  0  0  0  0  0  0  0  0  0  0  0
    5.9990    2.6000    0.0000 N   0  0  0  0  0  0  0  0  0  0  0  0
    3.7500   -1.2980    0.0000 C   0  0  0  0  0  0  0  0  0  0  0  0
    2.2500   -1.2980    0.0000 C   0  0  0  0  0  0  0  0  0  0  0  0
  1  2  1  0  0  0  0
  2  3  1  0  0  0  0
  2 17  2  0  0  0  0
  3  4  2  0  0  0  0
  4  5  1  0  0  0  0
  5  6  1  0  0  0  0
  5 16  2  0  0  0  0
  6  7  1  0  0  0  0
  7  8  2  3  0  0  0
  7 15  1  0  0  0  0
  8  9  1  0  0  0  0
  9 10  2  3  0  0  0
  9 14  1  0  0  0  0
 10 11  1  0  0  0  0
 11 12  1  0  0  0  0
 11 13  1  0  0  0  0
 16 17  1  0  0  0  0
M  END
>  <Index>
1703

>  <ID>
HT1753

>  <class>
1

>  <apol>
37.708687

>  <ast_fraglike>
1

>  <ast_fraglike_ext>
0

>  <ast_violation>
0

>  <ast_violation_ext>
1

>  <a_acc>
2

>  <a_acid>
0

>  <a_aro>
6

>  <a_base>
0

>  <a_count>
33

>  <a_don>
3

>  <a_donacc>
5

>  <a_heavy>
17

>  <a_hyd>
10

>  <a_IC>
52.801617

>  <a_ICM>
1.600049

>  <a_nB>
0

>  <a_nBr>
0

>  <a_nC>
11

>  <a_nCl>
1

>  <a_nF>
0

>  <a_nH>
16

>  <a_nI>
0

>  <a_nN>
5

>  <a_nO>
0

>  <a_nP>
0

>  <a_nS>
0

>  <balabanJ>
2.1879215

>  <BCUT_PEOE_0>
-2.4831605

>  <BCUT_PEOE_1>
-0.57759124

>  <BCUT_PEOE_2>
0.60145003

>  <BCUT_PEOE_3>
2.463043

>  <BCUT_SLOGP_0>
-2.5800335

>  <BCUT_SLOGP_1>
-0.33735645

>  <BCUT_SLOGP_2>
0.80674833

>  <BCUT_SLOGP_3>
2.5077236

>  <BCUT_SMR_0>
-2.2464445

>  <BCUT_SMR_1>
-0.32560048

>  <BCUT_SMR_2>
0.85779816

>  <BCUT_SMR_3>
2.7020493

>  <bpol>
19.891312

>  <b_1rotN>
3

>  <b_1rotR>
0.17647059

>  <b_ar>
6

>  <b_count>
33

>  <b_double>
2

>  <b_heavy>
17

>  <b_max1len>
4

>  <b_rotN>
4

>  <b_rotR>
0.23529412

>  <b_single>
25

>  <b_triple>
0

>  <chi0>
12.836499

>  <chi0v>
10.569773

>  <chi0v_C>
6.8867512

>  <chi0_C>
7.7151785

>  <chi1>
7.9692345

>  <chi1v>
5.5493841

>  <chi1v_C>
2.9760678

>  <chi1_C>
3.7876937

>  <chiral>
0

>  <chiral_u>
0

>  <density>
0.76540834

>  <diameter>
11

>  <FCharge>
0

>  <GCUT_PEOE_0>
-0.83476192

>  <GCUT_PEOE_1>
-0.37054673

>  <GCUT_PEOE_2>
0.039678231

>  <GCUT_PEOE_3>
2.2461343

>  <GCUT_SLOGP_0>
-1.3768283

>  <GCUT_SLOGP_1>
-0.29940134

>  <GCUT_SLOGP_2>
0.17700326

>  <GCUT_SLOGP_3>
2.317066

>  <GCUT_SMR_0>
-0.51610088

>  <GCUT_SMR_1>
-0.13100222

>  <GCUT_SMR_2>
0.22530997

>  <GCUT_SMR_3>
2.5500188

>  <Kier1>
15.058824

>  <Kier2>
7.4380164

>  <Kier3>
6.4793386

>  <KierA1>
11.427454

>  <KierA2>
5.5384407

>  <KierA3>
4.7520108

>  <KierFlex>
3.7229576

>  <lip_acc>
5

>  <lip_don>
5

>  <lip_druglike>
1

>  <lip_violation>
0

>  <logP(o/w)>
2.401

>  <logS>
-3.44695

>  <mr>
6.8434095

>  <mutagenic>
0

>  <nmol>
1

>  <opr_brigid>
8

>  <opr_leadlike>
1

>  <opr_nring>
1

>  <opr_nrot>
4

>  <opr_violation>
0

>  <PC+>
0

>  <PC->
0

>  <PEOE_PC+>
1.8164896

>  <PEOE_PC->
-1.8164896

>  <PEOE_RPC+>
0.12113439

>  <PEOE_RPC->
0.20332371

>  <PEOE_VSA+0>
39.957573

>  <PEOE_VSA+1>
21.326929

>  <PEOE_VSA+2>
0

>  <PEOE_VSA+3>
43.095066

>  <PEOE_VSA+4>
31.363148

>  <PEOE_VSA+5>
0

>  <PEOE_VSA+6>
0

>  <PEOE_VSA-0>
86.514969

>  <PEOE_VSA-1>
29.581947

>  <PEOE_VSA-2>
0

>  <PEOE_VSA-3>
5.6825762

>  <PEOE_VSA-4>
5.6825762

>  <PEOE_VSA-5>
0

>  <PEOE_VSA-6>
13.43913

>  <PEOE_VSA_FHYD>
0.81750959

>  <PEOE_VSA_FNEG>
0.5093233

>  <PEOE_VSA_FPNEG>
0.06912028

>  <PEOE_VSA_FPOL>
0.18249038

>  <PEOE_VSA_FPOS>
0.49067667

>  <PEOE_VSA_FPPOS>
0.1133701

>  <PEOE_VSA_HYD>
226.15906

>  <PEOE_VSA_NEG>
140.9012

>  <PEOE_VSA_PNEG>
19.121706

>  <PEOE_VSA_POL>
50.484856

>  <PEOE_VSA_POS>
135.74272

>  <PEOE_VSA_PPOS>
31.363148

>  <petitjean>
0.45454547

>  <petitjeanSC>
0.83333331

>  <Q_PC+>
0

>  <Q_PC->
0

>  <Q_RPC+>
0

>  <Q_RPC->
0

>  <Q_VSA_FHYD>
1

>  <Q_VSA_FNEG>
0

>  <Q_VSA_FPNEG>
0

>  <Q_VSA_FPOL>
0

>  <Q_VSA_FPOS>
1

>  <Q_VSA_FPPOS>
0

>  <Q_VSA_HYD>
276.64392

>  <Q_VSA_NEG>
0

>  <Q_VSA_PNEG>
0

>  <Q_VSA_POL>
0

>  <Q_VSA_POS>
276.64392

>  <Q_VSA_PPOS>
0

>  <radius>
6

>  <reactive>
0

>  <rings>
1

>  <RPC+>
0

>  <RPC->
0

>  <rsynth>
1

>  <SlogP>
1.7897

>  <SlogP_VSA0>
65.794373

>  <SlogP_VSA1>
21.808937

>  <SlogP_VSA2>
3.9819686

>  <SlogP_VSA3>
0

>  <SlogP_VSA4>
0

>  <SlogP_VSA5>
33.57106

>  <SlogP_VSA6>
3.5006065

>  <SlogP_VSA7>
70.572739

>  <SlogP_VSA8>
0

>  <SlogP_VSA9>
108.55742

>  <SMR>
7.3455501

>  <SMR_VSA0>
0

>  <SMR_VSA1>
33.57106

>  <SMR_VSA2>
0

>  <SMR_VSA3>
7.4825754

>  <SMR_VSA4>
86.561874

>  <SMR_VSA5>
70.572739

>  <SMR_VSA6>
3.7981856

>  <SMR_VSA7>
105.80067

>  <TPSA>
88.790001

>  <VAdjEq>
0.52255934

>  <VAdjMa>
5.0874629

>  <VDistEq>
3.2421758

>  <VDistMa>
7.8373165

>  <vdw_area>
276.64392

>  <vdw_vol>
331.5054

>  <vsa_acc>
11.365152

>  <vsa_acid>
0

>  <vsa_base>
0

>  <vsa_don>
41.167557

>  <vsa_hyd>
169.55167

>  <vsa_other>
31.363148

>  <vsa_pol>
52.532707

>  <Weight>
253.737

>  <weinerPath>
608

>  <weinerPol>
19

>  <zagreb>
78

$$$$