Oc1ccc(NC(=O)C)cc1
  MOE2013           2D

 11 11  0  0  0  0  0  0  0  0999 V2000
    0.0000    0.0000    0.0000 O   0  0  0  0  0  0  0  0  0  0  0  0
    1.5000    0.0000    0.0000 C   0  0  0  0  0  0  0  0  0  0  0  0
    2.2500   -1.2990    0.0000 C   0  0  0  0  0  0  0  0  0  0  0  0
    3.7500   -1.2990    0.0000 C   0  0  0  0  0  0  0  0  0  0  0  0
    4.5000    0.0000    0.0000 C   0  0  0  0  0  0  0  0  0  0  0  0
    6.0000    0.0000    0.0000 N   0  0  0  0  0  0  0  0  0  0  0  0
    6.7500   -1.2990    0.0000 C   0  0  0  0  0  0  0  0  0  0  0  0
    8.2500   -1.2990    0.0000 O   0  0  0  0  0  0  0  0  0  0  0  0
    6.0000   -2.5980    0.0000 C   0  0  0  0  0  0  0  0  0  0  0  0
    3.7500    1.2990    0.0000 C   0  0  0  0  0  0  0  0  0  0  0  0
    2.2500    1.2990    0.0000 C   0  0  0  0  0  0  0  0  0  0  0  0
  1  2  1  0  0  0  0
  2  3  1  0  0  0  0
  2 11  2  0  0  0  0
  3  4  2  0  0  0  0
  4  5  1  0  0  0  0
  5  6  1  0  0  0  0
  5 10  2  0  0  0  0
  6  7  1  0  0  0  0
  7  8  2  0  0  0  0
  7  9  1  0  0  0  0
 10 11  1  0  0  0  0
M  END
>  <Index>
1421

>  <ID>
HT0053

>  <class>
1

>  <apol>
22.785137

>  <ast_fraglike>
1

>  <ast_fraglike_ext>
1

>  <ast_violation>
0

>  <ast_violation_ext>
0

>  <a_acc>
2

>  <a_acid>
0

>  <a_aro>
6

>  <a_base>
0

>  <a_count>
20

>  <a_don>
2

>  <a_donacc>
4

>  <a_heavy>
11

>  <a_hyd>
7

>  <a_IC>
31.909237

>  <a_ICM>
1.5954618

>  <a_nB>
0

>  <a_nBr>
0

>  <a_nC>
8

>  <a_nCl>
0

>  <a_nF>
0

>  <a_nH>
9

>  <a_nI>
0

>  <a_nN>
1

>  <a_nO>
2

>  <a_nP>
0

>  <a_nS>
0

>  <balabanJ>
2.2054572

>  <BCUT_PEOE_0>
-2.2998581

>  <BCUT_PEOE_1>
-0.61590123

>  <BCUT_PEOE_2>
0.62525588

>  <BCUT_PEOE_3>
2.2784643

>  <BCUT_SLOGP_0>
-2.3489609

>  <BCUT_SLOGP_1>
-0.55154735

>  <BCUT_SLOGP_2>
0.67019856

>  <BCUT_SLOGP_3>
2.3865898

>  <BCUT_SMR_0>
-1.9821142

>  <BCUT_SMR_1>
-0.44730929

>  <BCUT_SMR_2>
0.78438872

>  <BCUT_SMR_3>
2.5906546

>  <bpol>
11.456863

>  <b_1rotN>
1

>  <b_1rotR>
0.090909094

>  <b_ar>
6

>  <b_count>
20

>  <b_double>
1

>  <b_heavy>
11

>  <b_max1len>
2

>  <b_rotN>
2

>  <b_rotR>
0.18181819

>  <b_single>
13

>  <b_triple>
0

>  <chi0>
8.2675848

>  <chi0v>
6.1648631

>  <chi0v_C>
4.809401

>  <chi0_C>
5.5604777

>  <chi1>
5.1815405

>  <chi1v>
3.2490981

>  <chi1v_C>
2.3213673

>  <chi1_C>
3.2103434

>  <chiral>
0

>  <chiral_u>
0

>  <density>
0.74203622

>  <diameter>
7

>  <FCharge>
0

>  <GCUT_PEOE_0>
-0.81409049

>  <GCUT_PEOE_1>
-0.45780459

>  <GCUT_PEOE_2>
0.082701199

>  <GCUT_PEOE_3>
2.0724747

>  <GCUT_SLOGP_0>
-0.99736053

>  <GCUT_SLOGP_1>
-0.31261334

>  <GCUT_SLOGP_2>
0.12389528

>  <GCUT_SLOGP_3>
2.2220063

>  <GCUT_SMR_0>
-0.46823248

>  <GCUT_SMR_1>
-0.23143777

>  <GCUT_SMR_2>
0.20670979

>  <GCUT_SMR_3>
2.373507

>  <Kier1>
9.090909

>  <Kier2>
4.1326532

>  <Kier3>
3.2653062

>  <KierA1>
6.1692924

>  <KierA2>
2.6813617

>  <KierA3>
2.0340402

>  <KierFlex>
1.5038276

>  <lip_acc>
3

>  <lip_don>
2

>  <lip_druglike>
1

>  <lip_violation>
0

>  <logP(o/w)>
0.889

>  <logS>
-1.23238

>  <mr>
4.2307181

>  <mutagenic>
0

>  <nmol>
1

>  <opr_brigid>
6

>  <opr_leadlike>
1

>  <opr_nring>
1

>  <opr_nrot>
1

>  <opr_violation>
0

>  <PC+>
0

>  <PC->
0

>  <PEOE_PC+>
1.091136

>  <PEOE_PC->
-1.091136

>  <PEOE_RPC+>
0.20358108

>  <PEOE_RPC->
0.32977641

>  <PEOE_VSA+0>
38.243385

>  <PEOE_VSA+1>
25.520063

>  <PEOE_VSA+2>
0

>  <PEOE_VSA+3>
8.6190128

>  <PEOE_VSA+4>
23.273705

>  <PEOE_VSA+5>
0

>  <PEOE_VSA+6>
0

>  <PEOE_VSA-0>
49.019615

>  <PEOE_VSA-1>
0

>  <PEOE_VSA-2>
0

>  <PEOE_VSA-3>
0

>  <PEOE_VSA-4>
0

>  <PEOE_VSA-5>
13.566921

>  <PEOE_VSA-6>
7.9044313

>  <PEOE_VSA_FHYD>
0.73069018

>  <PEOE_VSA_FNEG>
0.42426834

>  <PEOE_VSA_FPNEG>
0.12923095

>  <PEOE_VSA_FPOL>
0.26930982

>  <PEOE_VSA_FPOS>
0.57573169

>  <PEOE_VSA_FPPOS>
0.14007887

>  <PEOE_VSA_HYD>
121.40208

>  <PEOE_VSA_NEG>
70.490967

>  <PEOE_VSA_PNEG>
21.471352

>  <PEOE_VSA_POL>
44.745056

>  <PEOE_VSA_POS>
95.656166

>  <PEOE_VSA_PPOS>
23.273705

>  <petitjean>
0.42857143

>  <petitjeanSC>
0.75

>  <Q_PC+>
0

>  <Q_PC->
0

>  <Q_RPC+>
0

>  <Q_RPC->
0

>  <Q_VSA_FHYD>
1

>  <Q_VSA_FNEG>
0

>  <Q_VSA_FPNEG>
0

>  <Q_VSA_FPOL>
0

>  <Q_VSA_FPOS>
1

>  <Q_VSA_FPPOS>
0

>  <Q_VSA_HYD>
166.14714

>  <Q_VSA_NEG>
0

>  <Q_VSA_PNEG>
0

>  <Q_VSA_POL>
0

>  <Q_VSA_POS>
166.14714

>  <Q_VSA_PPOS>
0

>  <radius>
4

>  <reactive>
0

>  <rings>
1

>  <RPC+>
0

>  <RPC->
0

>  <rsynth>
1

>  <SlogP>
1.3506

>  <SlogP_VSA0>
25.385227

>  <SlogP_VSA1>
23.269535

>  <SlogP_VSA2>
23.862217

>  <SlogP_VSA3>
0

>  <SlogP_VSA4>
0

>  <SlogP_VSA5>
0

>  <SlogP_VSA6>
0

>  <SlogP_VSA7>
70.572739

>  <SlogP_VSA8>
0

>  <SlogP_VSA9>
41.326191

>  <SMR>
4.2410498

>  <SMR_VSA0>
23.862217

>  <SMR_VSA1>
25.385227

>  <SMR_VSA2>
0

>  <SMR_VSA3>
5.2434282

>  <SMR_VSA4>
20.767498

>  <SMR_VSA5>
70.572739

>  <SMR_VSA6>
5.2587838

>  <SMR_VSA7>
33.326015

>  <TPSA>
49.330002

>  <VAdjEq>
0.68403846

>  <VAdjMa>
4.4594316

>  <VDistEq>
2.5872664

>  <VDistMa>
6.5690522

>  <vdw_area>
166.14714

>  <vdw_vol>
203.71646

>  <vsa_acc>
13.566921

>  <vsa_acid>
0

>  <vsa_base>
0

>  <vsa_don>
5.6825762

>  <vsa_hyd>
107.8005

>  <vsa_other>
12.949531

>  <vsa_pol>
32.816418

>  <Weight>
151.16499

>  <weinerPath>
166

>  <weinerPol>
11

>  <zagreb>
50

$$$$