S1C(SC1C(=O)N[C@@]1(OC)[C@H]2SCC(CSc3nnnn3C)=C(N2C1=O)C(O)=O)=C(/C(=O)N)C(O)=O
  MOE2013           2D

 36 39  0  0  1  0  0  0  0  0999 V2000
    0.0000    0.0000    0.0000 S   0  0  0  0  0  0  0  0  0  0  0  0
    1.2120   -0.8830    0.0000 C   0  0  0  0  0  0  0  0  0  0  0  0
    0.3290   -2.0960    0.0000 S   0  0  0  0  0  0  0  0  0  0  0  0
   -0.8830   -1.2120    0.0000 C   0  0  0  0  0  0  0  0  0  0  0  0
   -2.3650   -1.4450    0.0000 C   0  0  0  0  0  0  0  0  0  0  0  0
   -2.9040   -2.8450    0.0000 O   0  0  0  0  0  0  0  0  0  0  0  0
   -3.3080   -0.2780    0.0000 N   0  0  0  0  0  0  0  0  0  0  0  0
   -4.7890   -0.5110    0.0000 C   0  0  1  0  0  0  0  0  0  0  0  0
   -4.0070   -1.7910    0.0000 O   0  0  0  0  0  0  0  0  0  0  0  0
   -4.7250   -3.1080    0.0000 C   0  0  0  0  0  0  0  0  0  0  0  0
   -6.1970   -1.0280    0.0000 C   0  0  1  0  0  0  0  0  0  0  0  0
   -7.1580   -2.1800    0.0000 S   0  0  0  0  0  0  0  0  0  0  0  0
   -8.6360   -1.9240    0.0000 C   0  0  0  0  0  0  0  0  0  0  0  0
   -9.1530   -0.5160    0.0000 C   0  0  0  0  0  0  0  0  0  0  0  0
  -10.6310   -0.2600    0.0000 C   0  0  0  0  0  0  0  0  0  0  0  0
  -11.5920   -1.4130    0.0000 S   0  0  0  0  0  0  0  0  0  0  0  0
  -13.0700   -1.1570    0.0000 C   0  0  0  0  0  0  0  0  0  0  0  0
  -13.7320    0.1900    0.0000 N   0  0  0  0  0  0  0  0  0  0  0  0
  -15.2160   -0.0240    0.0000 N   0  0  0  0  0  0  0  0  0  0  0  0
  -15.4720   -1.5020    0.0000 N   0  0  0  0  0  0  0  0  0  0  0  0
  -14.1460   -2.2020    0.0000 N   0  0  0  0  0  0  0  0  0  0  0  0
  -13.9320   -3.6870    0.0000 C   0  0  0  0  0  0  0  0  0  0  0  0
   -8.1930    0.6360    0.0000 C   0  0  0  0  0  0  0  0  0  0  0  0
   -6.7150    0.3800    0.0000 N   0  0  0  0  0  0  0  0  0  0  0  0
   -5.3070    0.8970    0.0000 C   0  0  0  0  0  0  0  0  0  0  0  0
   -4.6770    2.2580    0.0000 O   0  0  0  0  0  0  0  0  0  0  0  0
   -8.7100    2.0440    0.0000 C   0  0  0  0  0  0  0  0  0  0  0  0
   -7.7490    3.1960    0.0000 O   0  0  0  0  0  0  0  0  0  0  0  0
  -10.1880    2.2990    0.0000 O   0  0  0  0  0  0  0  0  0  0  0  0
    2.6940   -0.6510    0.0000 C   0  0  0  0  0  0  0  0  0  0  0  0
    3.2340    0.7490    0.0000 C   0  0  0  0  0  0  0  0  0  0  0  0
    2.2910    1.9160    0.0000 O   0  0  0  0  0  0  0  0  0  0  0  0
    4.7150    0.9820    0.0000 N   0  0  0  0  0  0  0  0  0  0  0  0
    3.6370   -1.8170    0.0000 C   0  0  0  0  0  0  0  0  0  0  0  0
    3.0970   -3.2170    0.0000 O   0  0  0  0  0  0  0  0  0  0  0  0
    5.1190   -1.5850    0.0000 O   0  0  0  0  0  0  0  0  0  0  0  0
  1  2  1  0  0  0  0
  1  4  1  0  0  0  0
  2  3  1  0  0  0  0
  2 30  2  3  0  0  0
  3  4  1  0  0  0  0
  4  5  1  0  0  0  0
  5  6  2  0  0  0  0
  5  7  1  0  0  0  0
  8  7  1  1  0  0  0
  8  9  1  6  0  0  0
  8 11  1  0  0  0  0
  8 25  1  0  0  0  0
  9 10  1  0  0  0  0
 11 12  1  0  0  0  0
 11 24  1  1  0  0  0
 12 13  1  0  0  0  0
 13 14  1  0  0  0  0
 14 15  1  0  0  0  0
 14 23  2  0  0  0  0
 15 16  1  0  0  0  0
 16 17  1  0  0  0  0
 17 18  2  0  0  0  0
 17 21  1  0  0  0  0
 18 19  1  0  0  0  0
 19 20  2  0  0  0  0
 20 21  1  0  0  0  0
 21 22  1  0  0  0  0
 23 24  1  0  0  0  0
 23 27  1  0  0  0  0
 24 25  1  0  0  0  0
 25 26  2  0  0  0  0
 27 28  1  0  0  0  0
 27 29  2  0  0  0  0
 30 31  1  0  0  0  0
 30 34  1  0  0  0  0
 31 32  2  0  0  0  0
 31 33  1  0  0  0  0
 34 35  1  0  0  0  0
 34 36  2  0  0  0  0
M  END
>  <Index>
1473

>  <ID>
HT0413

>  <class>
1

>  <apol>
66.971481

>  <ast_fraglike>
0

>  <ast_fraglike_ext>
0

>  <ast_violation>
3

>  <ast_violation_ext>
5

>  <a_acc>
11

>  <a_acid>
0

>  <a_aro>
5

>  <a_base>
0

>  <a_count>
53

>  <a_don>
6

>  <a_donacc>
17

>  <a_heavy>
36

>  <a_hyd>
14

>  <a_IC>
112.95456

>  <a_ICM>
2.1312182

>  <a_nB>
0

>  <a_nBr>
0

>  <a_nC>
17

>  <a_nCl>
0

>  <a_nF>
0

>  <a_nH>
17

>  <a_nI>
0

>  <a_nN>
7

>  <a_nO>
8

>  <a_nP>
0

>  <a_nS>
4

>  <balabanJ>
1.3725584

>  <BCUT_PEOE_0>
-2.695461

>  <BCUT_PEOE_1>
-0.53309411

>  <BCUT_PEOE_2>
0.45940977

>  <BCUT_PEOE_3>
2.7812333

>  <BCUT_SLOGP_0>
-2.9231846

>  <BCUT_SLOGP_1>
-0.51042366

>  <BCUT_SLOGP_2>
0.44318956

>  <BCUT_SLOGP_3>
2.6413789

>  <BCUT_SMR_0>
-2.4304547

>  <BCUT_SMR_1>
-0.31765005

>  <BCUT_SMR_2>
0.693582

>  <BCUT_SMR_3>
3.0416486

>  <bpol>
38.370518

>  <b_1rotN>
9

>  <b_1rotR>
0.23076923

>  <b_ar>
5

>  <b_count>
56

>  <b_double>
7

>  <b_heavy>
39

>  <b_max1len>
5

>  <b_rotN>
10

>  <b_rotR>
0.25641027

>  <b_single>
44

>  <b_triple>
0

>  <chi0>
26.361078

>  <chi0v>
21.625229

>  <chi0v_C>
10.068914

>  <chi0_C>
10.842417

>  <chi1>
17.011782

>  <chi1v>
13.543667

>  <chi1v_C>
2.784457

>  <chi1_C>
3.3938468

>  <chiral>
2

>  <chiral_u>
0

>  <density>
0.98647285

>  <diameter>
17

>  <FCharge>
0

>  <GCUT_PEOE_0>
-0.81630349

>  <GCUT_PEOE_1>
-0.4847658

>  <GCUT_PEOE_2>
0.038554322

>  <GCUT_PEOE_3>
2.6859777

>  <GCUT_SLOGP_0>
-1.3704492

>  <GCUT_SLOGP_1>
-0.47928357

>  <GCUT_SLOGP_2>
0.098072797

>  <GCUT_SLOGP_3>
2.6406653

>  <GCUT_SMR_0>
-0.53208643

>  <GCUT_SMR_1>
-0.22704303

>  <GCUT_SMR_2>
0.25383672

>  <GCUT_SMR_3>
2.9741712

>  <Kier1>
28.994083

>  <Kier2>
11.623096

>  <Kier3>
5.4064627

>  <KierA1>
26.207661

>  <KierA2>
10.474655

>  <KierA3>
4.8620543

>  <KierFlex>
7.6254501

>  <lip_acc>
15

>  <lip_don>
5

>  <lip_druglike>
0

>  <lip_violation>
2

>  <logP(o/w)>
-0.74199998

>  <logS>
-5.9621

>  <mr>
12.965201

>  <mutagenic>
0

>  <nmol>
1

>  <opr_brigid>
19

>  <opr_leadlike>
0

>  <opr_nring>
4

>  <opr_nrot>
9

>  <opr_violation>
2

>  <PC+>
0

>  <PC->
0

>  <PEOE_PC+>
4.0946188

>  <PEOE_PC->
-4.0946188

>  <PEOE_RPC+>
0.075206131

>  <PEOE_RPC->
0.089301452

>  <PEOE_VSA+0>
99.448799

>  <PEOE_VSA+1>
27.487593

>  <PEOE_VSA+2>
16.637186

>  <PEOE_VSA+3>
25.857038

>  <PEOE_VSA+4>
46.7645

>  <PEOE_VSA+5>
40.607563

>  <PEOE_VSA+6>
14.708499

>  <PEOE_VSA-0>
28.527546

>  <PEOE_VSA-1>
59.281853

>  <PEOE_VSA-2>
29.181658

>  <PEOE_VSA-3>
0

>  <PEOE_VSA-4>
0

>  <PEOE_VSA-5>
67.834602

>  <PEOE_VSA-6>
24.826847

>  <PEOE_VSA_FHYD>
0.59526867

>  <PEOE_VSA_FNEG>
0.43571973

>  <PEOE_VSA_FPNEG>
0.19257781

>  <PEOE_VSA_FPOL>
0.4047313

>  <PEOE_VSA_FPOS>
0.56428027

>  <PEOE_VSA_FPPOS>
0.21215351

>  <PEOE_VSA_HYD>
286.42166

>  <PEOE_VSA_NEG>
209.65251

>  <PEOE_VSA_PNEG>
92.661453

>  <PEOE_VSA_POL>
194.74202

>  <PEOE_VSA_POS>
271.51117

>  <PEOE_VSA_PPOS>
102.08056

>  <petitjean>
0.47058824

>  <petitjeanSC>
0.8888889

>  <Q_PC+>
0

>  <Q_PC->
0

>  <Q_RPC+>
0

>  <Q_RPC->
0

>  <Q_VSA_FHYD>
1

>  <Q_VSA_FNEG>
0

>  <Q_VSA_FPNEG>
0

>  <Q_VSA_FPOL>
0

>  <Q_VSA_FPOS>
1

>  <Q_VSA_FPPOS>
0

>  <Q_VSA_HYD>
481.1637

>  <Q_VSA_NEG>
0

>  <Q_VSA_PNEG>
0

>  <Q_VSA_POL>
0

>  <Q_VSA_POS>
481.1637

>  <Q_VSA_PPOS>
0

>  <radius>
9

>  <reactive>
0

>  <rings>
4

>  <RPC+>
0

>  <RPC->
0

>  <rsynth>
0.19444445

>  <SlogP>
-1.0383

>  <SlogP_VSA0>
50.90794

>  <SlogP_VSA1>
85.91214

>  <SlogP_VSA2>
133.79921

>  <SlogP_VSA3>
85.237579

>  <SlogP_VSA4>
0

>  <SlogP_VSA5>
45.204845

>  <SlogP_VSA6>
0

>  <SlogP_VSA7>
0

>  <SlogP_VSA8>
0

>  <SlogP_VSA9>
161.77534

>  <SMR>
12.82697

>  <SMR_VSA0>
130.31097

>  <SMR_VSA1>
54.644863

>  <SMR_VSA2>
69.474281

>  <SMR_VSA3>
12.616139

>  <SMR_VSA4>
32.897186

>  <SMR_VSA5>
0

>  <SMR_VSA6>
65.734406

>  <SMR_VSA7>
197.15923

>  <TPSA>
219.92999

>  <VAdjEq>
0.3281796

>  <VAdjMa>
6.2854023

>  <VDistEq>
3.9027357

>  <VDistMa>
10.037271

>  <vdw_area>
481.1637

>  <vdw_vol>
583.52136

>  <vsa_acc>
78.944565

>  <vsa_acid>
0

>  <vsa_base>
0

>  <vsa_don>
23.425066

>  <vsa_hyd>
216.28305

>  <vsa_other>
81.432213

>  <vsa_pol>
156.63731

>  <Weight>
575.62799

>  <weinerPath>
4350

>  <weinerPol>
61

>  <zagreb>
196

$$$$