N(=C(N)/N)/C(N(C)C)=N
  MOE2013           2D

  9  8  0  0  0  0  0  0  0  0999 V2000
    0.0000    0.0000    0.0000 N   0  0  0  0  0  0  0  0  0  0  0  0
   -1.2980   -0.7530    0.0000 C   0  0  0  0  0  0  0  0  0  0  0  0
   -2.5980   -0.0050    0.0000 N   0  0  0  0  0  0  0  0  0  0  0  0
   -1.2950   -2.2530    0.0000 N   0  0  0  0  0  0  0  0  0  0  0  0
    1.3010   -0.7470    0.0000 C   0  0  0  0  0  0  0  0  0  0  0  0
    2.5980    0.0050    0.0000 N   0  0  0  0  0  0  0  0  0  0  0  0
    3.8990   -0.7420    0.0000 C   0  0  0  0  0  0  0  0  0  0  0  0
    2.5950    1.5050    0.0000 C   0  0  0  0  0  0  0  0  0  0  0  0
    1.3040   -2.2470    0.0000 N   0  0  0  0  0  0  0  0  0  0  0  0
  1  2  2  0  0  0  0
  1  5  1  0  0  0  0
  2  3  1  0  0  0  0
  2  4  1  0  0  0  0
  5  6  1  0  0  0  0
  5  9  2  0  0  0  0
  6  7  1  0  0  0  0
  6  8  1  0  0  0  0
M  END
>  <Index>
1640

>  <ID>
HT1328

>  <class>
1

>  <apol>
19.874723

>  <ast_fraglike>
1

>  <ast_fraglike_ext>
1

>  <ast_violation>
0

>  <ast_violation_ext>
0

>  <a_acc>
2

>  <a_acid>
0

>  <a_aro>
0

>  <a_base>
0

>  <a_count>
20

>  <a_don>
3

>  <a_donacc>
5

>  <a_heavy>
9

>  <a_hyd>
2

>  <a_IC>
28.775173

>  <a_ICM>
1.4387587

>  <a_nB>
0

>  <a_nBr>
0

>  <a_nC>
4

>  <a_nCl>
0

>  <a_nF>
0

>  <a_nH>
11

>  <a_nI>
0

>  <a_nN>
5

>  <a_nO>
0

>  <a_nP>
0

>  <a_nS>
0

>  <balabanJ>
3.4381251

>  <BCUT_PEOE_0>
-2.4586136

>  <BCUT_PEOE_1>
-0.21014707

>  <BCUT_PEOE_2>
0.27413762

>  <BCUT_PEOE_3>
2.3370888

>  <BCUT_SLOGP_0>
-2.6597159

>  <BCUT_SLOGP_1>
-0.18859479

>  <BCUT_SLOGP_2>
0.22424632

>  <BCUT_SLOGP_3>
2.2394164

>  <BCUT_SMR_0>
-2.1553864

>  <BCUT_SMR_1>
-0.00019008883

>  <BCUT_SMR_2>
0.38455898

>  <BCUT_SMR_3>
2.6337857

>  <bpol>
14.005277

>  <b_1rotN>
2

>  <b_1rotR>
0.25

>  <b_ar>
0

>  <b_count>
19

>  <b_double>
2

>  <b_heavy>
8

>  <b_max1len>
4

>  <b_rotN>
2

>  <b_rotR>
0.25

>  <b_single>
17

>  <b_triple>
0

>  <chi0>
7.4391575

>  <chi0v>
5.5491276

>  <chi0v_C>
3

>  <chi0_C>
3.1547005

>  <chi1>
4.036581

>  <chi1v>
2.3925979

>  <chi1v_C>
0

>  <chi1_C>
0

>  <chiral>
0

>  <chiral_u>
0

>  <density>
0.73329335

>  <diameter>
5

>  <FCharge>
0

>  <GCUT_PEOE_0>
-0.8590278

>  <GCUT_PEOE_1>
-0.33037782

>  <GCUT_PEOE_2>
-0.0012886366

>  <GCUT_PEOE_3>
1.9664787

>  <GCUT_SLOGP_0>
-1.3840367

>  <GCUT_SLOGP_1>
-0.31040832

>  <GCUT_SLOGP_2>
0.054200001

>  <GCUT_SLOGP_3>
1.8775862

>  <GCUT_SMR_0>
-0.49898258

>  <GCUT_SMR_1>
-0.10942523

>  <GCUT_SMR_2>
0.071113959

>  <GCUT_SMR_3>
2.2471359

>  <Kier1>
9

>  <Kier2>
3.9200001

>  <Kier3>
4.5

>  <KierA1>
5.8524199

>  <KierA2>
2.3902857

>  <KierA3>
2.5742869

>  <KierFlex>
1.5543283

>  <lip_acc>
5

>  <lip_don>
5

>  <lip_druglike>
1

>  <lip_violation>
0

>  <logP(o/w)>
-0.43799999

>  <logS>
-0.23438001

>  <mr>
3.3034995

>  <mutagenic>
0

>  <nmol>
1

>  <opr_brigid>
2

>  <opr_leadlike>
1

>  <opr_nring>
0

>  <opr_nrot>
2

>  <opr_violation>
0

>  <PC+>
0

>  <PC->
0

>  <PEOE_PC+>
1.5326287

>  <PEOE_PC->
-1.5326287

>  <PEOE_RPC+>
0.14466639

>  <PEOE_RPC->
0.24126247

>  <PEOE_VSA+0>
72.069695

>  <PEOE_VSA+1>
0

>  <PEOE_VSA+2>
0

>  <PEOE_VSA+3>
58.776638

>  <PEOE_VSA+4>
15.681574

>  <PEOE_VSA+5>
0

>  <PEOE_VSA+6>
0

>  <PEOE_VSA-0>
0

>  <PEOE_VSA-1>
0

>  <PEOE_VSA-2>
0

>  <PEOE_VSA-3>
5.6825762

>  <PEOE_VSA-4>
0

>  <PEOE_VSA-5>
12.196804

>  <PEOE_VSA-6>
13.302238

>  <PEOE_VSA_FHYD>
0.76827008

>  <PEOE_VSA_FNEG>
0.17546397

>  <PEOE_VSA_FPNEG>
0.1434872

>  <PEOE_VSA_FPOL>
0.23172994

>  <PEOE_VSA_FPOS>
0.82453603

>  <PEOE_VSA_FPPOS>
0.088242732

>  <PEOE_VSA_HYD>
136.52892

>  <PEOE_VSA_NEG>
31.18162

>  <PEOE_VSA_PNEG>
25.499043

>  <PEOE_VSA_POL>
41.180618

>  <PEOE_VSA_POS>
146.52791

>  <PEOE_VSA_PPOS>
15.681574

>  <petitjean>
0.40000001

>  <petitjeanSC>
0.66666669

>  <Q_PC+>
0

>  <Q_PC->
0

>  <Q_RPC+>
0

>  <Q_RPC->
0

>  <Q_VSA_FHYD>
1

>  <Q_VSA_FNEG>
0

>  <Q_VSA_FPNEG>
0

>  <Q_VSA_FPOL>
0

>  <Q_VSA_FPOS>
1

>  <Q_VSA_FPPOS>
0

>  <Q_VSA_HYD>
177.70953

>  <Q_VSA_NEG>
0

>  <Q_VSA_PNEG>
0

>  <Q_VSA_POL>
0

>  <Q_VSA_POS>
177.70953

>  <Q_VSA_PPOS>
0

>  <radius>
3

>  <reactive>
0

>  <rings>
0

>  <RPC+>
0

>  <RPC->
0

>  <rsynth>
1

>  <SlogP>
-1.24383

>  <SlogP_VSA0>
65.794373

>  <SlogP_VSA1>
6.9224992

>  <SlogP_VSA2>
0

>  <SlogP_VSA3>
0

>  <SlogP_VSA4>
0

>  <SlogP_VSA5>
82.579903

>  <SlogP_VSA6>
0

>  <SlogP_VSA7>
31.671967

>  <SlogP_VSA8>
0

>  <SlogP_VSA9>
0

>  <SMR>
3.7223499

>  <SMR_VSA0>
0

>  <SMR_VSA1>
19.909843

>  <SMR_VSA2>
31.671967

>  <SMR_VSA3>
0

>  <SMR_VSA4>
65.794373

>  <SMR_VSA5>
0

>  <SMR_VSA6>
3.7981856

>  <SMR_VSA7>
65.794373

>  <TPSA>
91.489998

>  <VAdjEq>
0.71696228

>  <VAdjMa>
4

>  <VDistEq>
2.2607846

>  <VDistMa>
5.9966536

>  <vdw_area>
177.70953

>  <vdw_vol>
176.14641

>  <vsa_acc>
5.6825762

>  <vsa_acid>
0

>  <vsa_base>
0

>  <vsa_don>
35.484978

>  <vsa_hyd>
67.79892

>  <vsa_other>
31.363148

>  <vsa_pol>
58.910046

>  <Weight>
129.16699

>  <weinerPath>
96

>  <weinerPol>
8

>  <zagreb>
36

$$$$