S(=O)(Cc1nccc(OC)c1OC)c1[nH]c2c(n1)cc(OC(F)F)cc2
  MOE2013           2D

 26 28  0  0  1  0  0  0  0  0999 V2000
    0.0000    0.0000    0.0000 S   0  0  3  0  0  0  0  0  0  0  0  0
   -0.7390   -1.3050    0.0000 O   0  0  0  0  0  0  0  0  0  0  0  0
   -0.7610    1.2930    0.0000 C   0  0  0  0  0  0  0  0  0  0  0  0
   -2.2610    1.2800    0.0000 C   0  0  0  0  0  0  0  0  0  0  0  0
   -3.0000   -0.0260    0.0000 N   0  0  0  0  0  0  0  0  0  0  0  0
   -4.5000   -0.0380    0.0000 C   0  0  0  0  0  0  0  0  0  0  0  0
   -5.2610    1.2540    0.0000 C   0  0  0  0  0  0  0  0  0  0  0  0
   -4.5220    2.5600    0.0000 C   0  0  0  0  0  0  0  0  0  0  0  0
   -5.2830    3.8520    0.0000 O   0  0  0  0  0  0  0  0  0  0  0  0
   -6.7830    3.8390    0.0000 C   0  0  0  0  0  0  0  0  0  0  0  0
   -3.0220    2.5720    0.0000 C   0  0  0  0  0  0  0  0  0  0  0  0
   -2.2830    3.8780    0.0000 O   0  0  0  0  0  0  0  0  0  0  0  0
   -3.0440    5.1700    0.0000 C   0  0  0  0  0  0  0  0  0  0  0  0
    1.5000    0.0130    0.0000 C   0  0  0  0  0  0  0  0  0  0  0  0
    2.3710    1.2340    0.0000 N   0  0  0  0  0  0  0  0  0  0  0  0
    3.8020    0.7820    0.0000 C   0  0  0  0  0  0  0  0  0  0  0  0
    3.8150   -0.7170    0.0000 C   0  0  0  0  0  0  0  0  0  0  0  0
    2.3920   -1.1930    0.0000 N   0  0  0  0  0  0  0  0  0  0  0  0
    5.1200   -1.4560    0.0000 C   0  0  0  0  0  0  0  0  0  0  0  0
    6.4130   -0.6950    0.0000 C   0  0  0  0  0  0  0  0  0  0  0  0
    7.7180   -1.4340    0.0000 O   0  0  0  0  0  0  0  0  0  0  0  0
    9.0100   -0.6730    0.0000 C   0  0  0  0  0  0  0  0  0  0  0  0
    8.9980    0.8270    0.0000 F   0  0  0  0  0  0  0  0  0  0  0  0
   10.3160   -1.4120    0.0000 F   0  0  0  0  0  0  0  0  0  0  0  0
    6.4000    0.8050    0.0000 C   0  0  0  0  0  0  0  0  0  0  0  0
    5.0940    1.5440    0.0000 C   0  0  0  0  0  0  0  0  0  0  0  0
  1  2  2  0  0  0  0
  1  3  1  0  0  0  0
  1 14  1  0  0  0  0
  3  4  1  0  0  0  0
  4  5  1  0  0  0  0
  4 11  2  0  0  0  0
  5  6  2  0  0  0  0
  6  7  1  0  0  0  0
  7  8  2  0  0  0  0
  8  9  1  0  0  0  0
  8 11  1  0  0  0  0
  9 10  1  0  0  0  0
 11 12  1  0  0  0  0
 12 13  1  0  0  0  0
 14 15  1  0  0  0  0
 14 18  2  0  0  0  0
 15 16  1  0  0  0  0
 16 17  1  0  0  0  0
 16 26  2  0  0  0  0
 17 18  1  0  0  0  0
 17 19  2  0  0  0  0
 19 20  1  0  0  0  0
 20 21  1  0  0  0  0
 20 25  2  0  0  0  0
 21 22  1  0  0  0  0
 22 23  1  0  0  0  0
 22 24  1  0  0  0  0
 25 26  1  0  0  0  0
M  END
>  <Index>
1683

>  <ID>
HT1586

>  <class>
1

>  <apol>
48.683895

>  <ast_fraglike>
0

>  <ast_fraglike_ext>
0

>  <ast_violation>
3

>  <ast_violation_ext>
4

>  <a_acc>
7

>  <a_acid>
0

>  <a_aro>
15

>  <a_base>
0

>  <a_count>
41

>  <a_don>
2

>  <a_donacc>
9

>  <a_heavy>
26

>  <a_hyd>
17

>  <a_IC>
82.301384

>  <a_ICM>
2.0073509

>  <a_nB>
0

>  <a_nBr>
0

>  <a_nC>
16

>  <a_nCl>
0

>  <a_nF>
2

>  <a_nH>
15

>  <a_nI>
0

>  <a_nN>
3

>  <a_nO>
4

>  <a_nP>
0

>  <a_nS>
1

>  <balabanJ>
1.5231729

>  <BCUT_PEOE_0>
-2.32775

>  <BCUT_PEOE_1>
-0.57608694

>  <BCUT_PEOE_2>
0.47849691

>  <BCUT_PEOE_3>
2.4365849

>  <BCUT_SLOGP_0>
-2.3081236

>  <BCUT_SLOGP_1>
-0.53509396

>  <BCUT_SLOGP_2>
0.58238548

>  <BCUT_SLOGP_3>
2.5057166

>  <BCUT_SMR_0>
-2.0569096

>  <BCUT_SMR_1>
-0.33114839

>  <BCUT_SMR_2>
0.67060035

>  <BCUT_SMR_3>
2.7188683

>  <bpol>
32.230106

>  <b_1rotN>
7

>  <b_1rotR>
0.25

>  <b_ar>
16

>  <b_count>
43

>  <b_double>
0

>  <b_heavy>
28

>  <b_max1len>
3

>  <b_rotN>
7

>  <b_rotR>
0.25

>  <b_single>
27

>  <b_triple>
0

>  <chi0>
18.681435

>  <chi0v>
14.679302

>  <chi0v_C>
9.6712084

>  <chi0_C>
10.861443

>  <chi1>
12.51157

>  <chi1v>
8.7220201

>  <chi1v_C>
3.2135956

>  <chi1_C>
4.4494896

>  <chiral>
0

>  <chiral_u>
0

>  <density>
0.87576056

>  <diameter>
14

>  <FCharge>
0

>  <GCUT_PEOE_0>
-0.84822208

>  <GCUT_PEOE_1>
-0.45640928

>  <GCUT_PEOE_2>
-0.029244281

>  <GCUT_PEOE_3>
2.4765885

>  <GCUT_SLOGP_0>
-0.8900907

>  <GCUT_SLOGP_1>
-0.37940288

>  <GCUT_SLOGP_2>
0.1210122

>  <GCUT_SLOGP_3>
2.5752339

>  <GCUT_SMR_0>
-0.48484457

>  <GCUT_SMR_1>
-0.18529955

>  <GCUT_SMR_2>
0.12004901

>  <GCUT_SMR_3>
2.7564797

>  <Kier1>
20.727041

>  <Kier2>
9.4674559

>  <Kier3>
5.0934258

>  <KierA1>
16.85323

>  <KierA2>
7.6304059

>  <KierA3>
4.0792637

>  <KierFlex>
4.9460378

>  <lip_acc>
7

>  <lip_don>
1

>  <lip_druglike>
1

>  <lip_violation>
0

>  <logP(o/w)>
1.04366

>  <logS>
-3.5941801

>  <mr>
9.3706417

>  <mutagenic>
0

>  <nmol>
1

>  <opr_brigid>
16

>  <opr_leadlike>
1

>  <opr_nring>
3

>  <opr_nrot>
7

>  <opr_violation>
0

>  <PC+>
0

>  <PC->
0

>  <PEOE_PC+>
2.7513375

>  <PEOE_PC->
-2.7513375

>  <PEOE_RPC+>
0.12763669

>  <PEOE_RPC->
0.22194405

>  <PEOE_VSA+0>
79.877937

>  <PEOE_VSA+1>
77.30764

>  <PEOE_VSA+2>
27.881975

>  <PEOE_VSA+3>
19.296389

>  <PEOE_VSA+4>
0

>  <PEOE_VSA+5>
0

>  <PEOE_VSA+6>
31.696165

>  <PEOE_VSA-0>
49.019615

>  <PEOE_VSA-1>
0

>  <PEOE_VSA-2>
0

>  <PEOE_VSA-3>
29.499847

>  <PEOE_VSA-4>
0

>  <PEOE_VSA-5>
8.3232231

>  <PEOE_VSA-6>
21.015774

>  <PEOE_VSA_FHYD>
0.82253021

>  <PEOE_VSA_FNEG>
0.31361628

>  <PEOE_VSA_FPNEG>
0.085307978

>  <PEOE_VSA_FPOL>
0.1774698

>  <PEOE_VSA_FPOS>
0.68638372

>  <PEOE_VSA_FPPOS>
0.092161827

>  <PEOE_VSA_HYD>
282.88339

>  <PEOE_VSA_NEG>
107.85846

>  <PEOE_VSA_PNEG>
29.338997

>  <PEOE_VSA_POL>
61.03516

>  <PEOE_VSA_POS>
236.0601

>  <PEOE_VSA_PPOS>
31.696165

>  <petitjean>
0.5

>  <petitjeanSC>
1

>  <Q_PC+>
0

>  <Q_PC->
0

>  <Q_RPC+>
0

>  <Q_RPC->
0

>  <Q_VSA_FHYD>
1

>  <Q_VSA_FNEG>
0

>  <Q_VSA_FPNEG>
0

>  <Q_VSA_FPOL>
0

>  <Q_VSA_FPOS>
1

>  <Q_VSA_FPPOS>
0

>  <Q_VSA_HYD>
343.91858

>  <Q_VSA_NEG>
0

>  <Q_VSA_PNEG>
0

>  <Q_VSA_POL>
0

>  <Q_VSA_POS>
343.91858

>  <Q_VSA_PPOS>
0

>  <radius>
7

>  <reactive>
0

>  <rings>
3

>  <RPC+>
0

>  <RPC->
0

>  <rsynth>
1

>  <SlogP>
3.1507001

>  <SlogP_VSA0>
32.999664

>  <SlogP_VSA1>
57.656902

>  <SlogP_VSA2>
54.674469

>  <SlogP_VSA3>
0

>  <SlogP_VSA4>
2.7567475

>  <SlogP_VSA5>
71.460815

>  <SlogP_VSA6>
0

>  <SlogP_VSA7>
92.075371

>  <SlogP_VSA8>
0

>  <SlogP_VSA9>
62.884075

>  <SMR>
9.0384102

>  <SMR_VSA0>
24.085844

>  <SMR_VSA1>
96.490952

>  <SMR_VSA2>
17.478609

>  <SMR_VSA3>
36.826569

>  <SMR_VSA4>
4.2882738

>  <SMR_VSA5>
105.02066

>  <SMR_VSA6>
0

>  <SMR_VSA7>
90.317139

>  <TPSA>
105.54

>  <VAdjEq>
0.41210872

>  <VAdjMa>
5.8073549

>  <VDistEq>
3.5816407

>  <VDistMa>
9.088356

>  <vdw_area>
343.91858

>  <vdw_vol>
437.76236

>  <vsa_acc>
29.202106

>  <vsa_acid>
0

>  <vsa_base>
0

>  <vsa_don>
0

>  <vsa_hyd>
264.00952

>  <vsa_other>
26.303333

>  <vsa_pol>
40.567257

>  <Weight>
383.375

>  <weinerPath>
1806

>  <weinerPol>
40

>  <zagreb>
134

$$$$