s1cc(nc1N)/C(=NOC)/C(=O)N[C@H]1[C@H]2SCC=C(N2C1=O)C(O)=O
  MOE2013           2D

 25 27  0  0  1  0  0  0  0  0999 V2000
    0.0000    0.0000    0.0000 S   0  0  0  0  0  0  0  0  0  0  0  0
    1.3740    0.6020    0.0000 C   0  0  0  0  0  0  0  0  0  0  0  0
    1.2270    2.0940    0.0000 C   0  0  0  0  0  0  0  0  0  0  0  0
   -0.2390    2.4150    0.0000 N   0  0  0  0  0  0  0  0  0  0  0  0
   -0.9970    1.1210    0.0000 C   0  0  0  0  0  0  0  0  0  0  0  0
   -2.4890    0.9740    0.0000 N   0  0  0  0  0  0  0  0  0  0  0  0
    2.3480    3.0910    0.0000 C   0  0  0  0  0  0  0  0  0  0  0  0
    2.0450    4.5600    0.0000 N   0  0  0  0  0  0  0  0  0  0  0  0
    0.6210    5.0330    0.0000 O   0  0  0  0  0  0  0  0  0  0  0  0
    0.3190    6.5020    0.0000 C   0  0  0  0  0  0  0  0  0  0  0  0
    3.7710    2.6180    0.0000 C   0  0  0  0  0  0  0  0  0  0  0  0
    4.0740    1.1490    0.0000 O   0  0  0  0  0  0  0  0  0  0  0  0
    4.8920    3.6150    0.0000 N   0  0  0  0  0  0  0  0  0  0  0  0
    6.3160    3.1430    0.0000 C   0  0  1  0  0  0  0  0  0  0  0  0
    7.6570    3.8150    0.0000 C   0  0  1  0  0  0  0  0  0  0  0  0
    8.4810    5.0680    0.0000 S   0  0  0  0  0  0  0  0  0  0  0  0
    9.9790    4.9800    0.0000 C   0  0  0  0  0  0  0  0  0  0  0  0
   10.6520    3.6400    0.0000 C   0  0  0  0  0  0  0  0  0  0  0  0
    9.8270    2.3870    0.0000 C   0  0  0  0  0  0  0  0  0  0  0  0
    8.3290    2.4750    0.0000 N   0  0  0  0  0  0  0  0  0  0  0  0
    6.9890    1.8020    0.0000 C   0  0  0  0  0  0  0  0  0  0  0  0
    6.5160    0.3780    0.0000 O   0  0  0  0  0  0  0  0  0  0  0  0
   10.4990    1.0460    0.0000 C   0  0  0  0  0  0  0  0  0  0  0  0
   11.9970    0.9580    0.0000 O   0  0  0  0  0  0  0  0  0  0  0  0
    9.6740   -0.2070    0.0000 O   0  0  0  0  0  0  0  0  0  0  0  0
  1  2  1  0  0  0  0
  1  5  1  0  0  0  0
  2  3  2  0  0  0  0
  3  4  1  0  0  0  0
  3  7  1  0  0  0  0
  4  5  2  0  0  0  0
  5  6  1  0  0  0  0
  7  8  2  3  0  0  0
  7 11  1  0  0  0  0
  8  9  1  0  0  0  0
  9 10  1  0  0  0  0
 11 12  2  0  0  0  0
 11 13  1  0  0  0  0
 14 13  1  1  0  0  0
 14 15  1  0  0  0  0
 14 21  1  0  0  0  0
 15 16  1  0  0  0  0
 15 20  1  1  0  0  0
 16 17  1  0  0  0  0
 17 18  1  0  0  0  0
 18 19  2  0  0  0  0
 19 20  1  0  0  0  0
 19 23  1  0  0  0  0
 20 21  1  0  0  0  0
 21 22  2  0  0  0  0
 23 24  1  0  0  0  0
 23 25  2  0  0  0  0
M  END
>  <Index>
1478

>  <ID>
HT0425

>  <class>
1

>  <apol>
46.858311

>  <ast_fraglike>
0

>  <ast_fraglike_ext>
0

>  <ast_violation>
3

>  <ast_violation_ext>
5

>  <a_acc>
6

>  <a_acid>
0

>  <a_aro>
5

>  <a_base>
0

>  <a_count>
38

>  <a_don>
4

>  <a_donacc>
10

>  <a_heavy>
25

>  <a_hyd>
10

>  <a_IC>
77.990532

>  <a_ICM>
2.0523825

>  <a_nB>
0

>  <a_nBr>
0

>  <a_nC>
13

>  <a_nCl>
0

>  <a_nF>
0

>  <a_nH>
13

>  <a_nI>
0

>  <a_nN>
5

>  <a_nO>
5

>  <a_nP>
0

>  <a_nS>
2

>  <balabanJ>
1.6102258

>  <BCUT_PEOE_0>
-2.6763177

>  <BCUT_PEOE_1>
-0.59280986

>  <BCUT_PEOE_2>
0.6446979

>  <BCUT_PEOE_3>
2.7267034

>  <BCUT_SLOGP_0>
-2.8910089

>  <BCUT_SLOGP_1>
-0.58921123

>  <BCUT_SLOGP_2>
0.69407922

>  <BCUT_SLOGP_3>
2.5953934

>  <BCUT_SMR_0>
-2.3919497

>  <BCUT_SMR_1>
-0.41208899

>  <BCUT_SMR_2>
0.88934898

>  <BCUT_SMR_3>
3.0081625

>  <bpol>
26.861691

>  <b_1rotN>
5

>  <b_1rotR>
0.18518518

>  <b_ar>
5

>  <b_count>
40

>  <b_double>
5

>  <b_heavy>
27

>  <b_max1len>
3

>  <b_rotN>
6

>  <b_rotR>
0.22222222

>  <b_single>
30

>  <b_triple>
0

>  <chi0>
18.137465

>  <chi0v>
14.465196

>  <chi0v_C>
7.5165076

>  <chi0_C>
8.3174725

>  <chi1>
11.934759

>  <chi1v>
8.8806028

>  <chi1v_C>
2.3576071

>  <chi1_C>
2.9831634

>  <chiral>
2

>  <chiral_u>
0

>  <density>
0.93036801

>  <diameter>
12

>  <FCharge>
0

>  <GCUT_PEOE_0>
-0.82312715

>  <GCUT_PEOE_1>
-0.46340725

>  <GCUT_PEOE_2>
0.10945988

>  <GCUT_PEOE_3>
2.4865508

>  <GCUT_SLOGP_0>
-1.3345546

>  <GCUT_SLOGP_1>
-0.42478755

>  <GCUT_SLOGP_2>
0.14520609

>  <GCUT_SLOGP_3>
2.4192085

>  <GCUT_SMR_0>
-0.5285008

>  <GCUT_SMR_1>
-0.2390397

>  <GCUT_SMR_2>
0.30262303

>  <GCUT_SMR_3>
2.7754626

>  <Kier1>
19.753086

>  <Kier2>
8.3471403

>  <Kier3>
3.9835391

>  <KierA1>
16.621599

>  <KierA2>
6.9704642

>  <KierA3>
3.3075643

>  <KierFlex>
4.6344104

>  <lip_acc>
10

>  <lip_don>
4

>  <lip_druglike>
1

>  <lip_violation>
0

>  <logP(o/w)>
-0.523

>  <logS>
-3.2391601

>  <mr>
9.0431175

>  <mutagenic>
1

>  <nmol>
1

>  <opr_brigid>
15

>  <opr_leadlike>
1

>  <opr_nring>
3

>  <opr_nrot>
5

>  <opr_violation>
1

>  <PC+>
0

>  <PC->
0

>  <PEOE_PC+>
2.9247663

>  <PEOE_PC->
-2.9247663

>  <PEOE_RPC+>
0.10518497

>  <PEOE_RPC->
0.11513781

>  <PEOE_VSA+0>
19.208147

>  <PEOE_VSA+1>
74.721535

>  <PEOE_VSA+2>
32.205559

>  <PEOE_VSA+3>
35.079182

>  <PEOE_VSA+4>
10.324173

>  <PEOE_VSA+5>
25.899061

>  <PEOE_VSA+6>
14.708499

>  <PEOE_VSA-0>
12.254904

>  <PEOE_VSA-1>
14.230966

>  <PEOE_VSA-2>
30.64588

>  <PEOE_VSA-3>
0

>  <PEOE_VSA-4>
5.6825762

>  <PEOE_VSA-5>
53.254242

>  <PEOE_VSA-6>
7.9044313

>  <PEOE_VSA_FHYD>
0.64960945

>  <PEOE_VSA_FNEG>
0.36883646

>  <PEOE_VSA_FPNEG>
0.19886176

>  <PEOE_VSA_FPOL>
0.35039058

>  <PEOE_VSA_FPOS>
0.63116354

>  <PEOE_VSA_FPPOS>
0.15152881

>  <PEOE_VSA_HYD>
218.34618

>  <PEOE_VSA_NEG>
123.973

>  <PEOE_VSA_PNEG>
66.841248

>  <PEOE_VSA_POL>
117.77298

>  <PEOE_VSA_POS>
212.14616

>  <PEOE_VSA_PPOS>
50.931732

>  <petitjean>
0.5

>  <petitjeanSC>
1

>  <Q_PC+>
0

>  <Q_PC->
0

>  <Q_RPC+>
0

>  <Q_RPC->
0

>  <Q_VSA_FHYD>
1

>  <Q_VSA_FNEG>
0

>  <Q_VSA_FPNEG>
0

>  <Q_VSA_FPOL>
0

>  <Q_VSA_FPOS>
1

>  <Q_VSA_FPPOS>
0

>  <Q_VSA_HYD>
336.11914

>  <Q_VSA_NEG>
0

>  <Q_VSA_PNEG>
0

>  <Q_VSA_POL>
0

>  <Q_VSA_POS>
336.11914

>  <Q_VSA_PPOS>
0

>  <radius>
6

>  <reactive>
1

>  <rings>
3

>  <RPC+>
0

>  <RPC->
0

>  <rsynth>
1

>  <SlogP>
-0.55580002

>  <SlogP_VSA0>
50.90794

>  <SlogP_VSA1>
40.929623

>  <SlogP_VSA2>
89.134506

>  <SlogP_VSA3>
42.61879

>  <SlogP_VSA4>
2.7567475

>  <SlogP_VSA5>
57.540478

>  <SlogP_VSA6>
0

>  <SlogP_VSA7>
33.459194

>  <SlogP_VSA8>
0

>  <SlogP_VSA9>
63.997974

>  <SMR>
9.0814896

>  <SMR_VSA0>
82.805412

>  <SMR_VSA1>
39.309704

>  <SMR_VSA2>
43.395977

>  <SMR_VSA3>
11.842591

>  <SMR_VSA4>
0.50074643

>  <SMR_VSA5>
66.356384

>  <SMR_VSA6>
38.253342

>  <SMR_VSA7>
98.881096

>  <TPSA>
147.21001

>  <VAdjEq>
0.42433795

>  <VAdjMa>
5.7548876

>  <VDistEq>
3.3891559

>  <VDistMa>
9.0021448

>  <vdw_area>
336.11914

>  <vdw_vol>
412.10468

>  <vsa_acc>
43.701679

>  <vsa_acid>
0

>  <vsa_base>
0

>  <vsa_don>
23.425066

>  <vsa_hyd>
155.33154

>  <vsa_other>
66.376099

>  <vsa_pol>
94.26059

>  <Weight>
383.409

>  <weinerPath>
1531

>  <weinerPol>
38

>  <zagreb>
132

$$$$