O1[C@H](/C(=C/[C@H]2C[C@@H](OC)[C@H](O)CC2)/C)[C@H](C)[C@@H](O)CC(=O)[C@H](C=C(/C[C@@H](C[C@H](OC)[C@H]2O[C@](O)([C@@H](C[C@@H]2OC)C)C(=O)C(=O)N2[C@@H](CCCC2)C1=O)C)C)CC=C
  MOE2013           2D

 57 60  0  0  1  0  0  0  0  0999 V2000
    0.0000    0.0000    0.0000 O   0  0  0  0  0  0  0  0  0  0  0  0
    0.7480    1.2820    0.0000 C   0  0  2  0  0  0  0  0  0  0  0  0
    2.2480    1.2790    0.0000 C   0  0  0  0  0  0  0  0  0  0  0  0
    3.0000    2.5770    0.0000 C   0  0  0  0  0  0  0  0  0  0  0  0
    4.5000    2.5750    0.0000 C   0  0  1  0  0  0  0  0  0  0  0  0
    5.2520    3.8730    0.0000 C   0  0  0  0  0  0  0  0  0  0  0  0
    6.7520    3.8700    0.0000 C   0  0  1  0  0  0  0  0  0  0  0  0
    7.5040    5.1680    0.0000 O   0  0  0  0  0  0  0  0  0  0  0  0
    9.0040    5.1650    0.0000 C   0  0  0  0  0  0  0  0  0  0  0  0
    7.5000    2.5700    0.0000 C   0  0  2  0  0  0  0  0  0  0  0  0
    9.0000    2.5670    0.0000 O   0  0  0  0  0  0  0  0  0  0  0  0
    6.7480    1.2720    0.0000 C   0  0  0  0  0  0  0  0  0  0  0  0
    5.2480    1.2740    0.0000 C   0  0  0  0  0  0  0  0  0  0  0  0
    2.9950   -0.0210    0.0000 C   0  0  0  0  0  0  0  0  0  0  0  0
   -0.0120    2.5950    0.0000 C   0  0  2  0  0  0  0  0  0  0  0  0
   -1.5120    2.5930    0.0000 C   0  0  0  0  0  0  0  0  0  0  0  0
    0.7270    3.8780    0.0000 C   0  0  1  0  0  0  0  0  0  0  0  0
    2.2250    3.7940    0.0000 O   0  0  0  0  0  0  0  0  0  0  0  0
    0.1530    5.1950    0.0000 C   0  0  0  0  0  0  0  0  0  0  0  0
   -1.1770    5.6670    0.0000 C   0  0  0  0  0  0  0  0  0  0  0  0
   -1.3460    7.1570    0.0000 O   0  0  0  0  0  0  0  0  0  0  0  0
   -2.4410    4.8630    0.0000 C   0  0  2  0  0  0  0  0  0  0  0  0
   -3.7590    5.5360    0.0000 C   0  0  0  0  0  0  0  0  0  0  0  0
   -5.0530    5.0770    0.0000 C   0  0  0  0  0  0  0  0  0  0  0  0
   -5.6490    3.7220    0.0000 C   0  0  0  0  0  0  0  0  0  0  0  0
   -7.1340    3.5410    0.0000 C   0  0  1  0  0  0  0  0  0  0  0  0
   -7.8640    2.3330    0.0000 C   0  0  0  0  0  0  0  0  0  0  0  0
   -7.4960    0.9520    0.0000 C   0  0  2  0  0  0  0  0  0  0  0  0
   -8.7560    0.1380    0.0000 O   0  0  0  0  0  0  0  0  0  0  0  0
  -10.0910    0.8220    0.0000 C   0  0  0  0  0  0  0  0  0  0  0  0
   -6.4820    0.1210    0.0000 C   0  0  1  0  0  0  0  0  0  0  0  0
   -5.0060    0.1040    0.0000 O   0  0  0  0  0  0  0  0  0  0  0  0
   -4.2780   -1.2050    0.0000 C   0  0  2  0  0  0  0  0  0  0  0  0
   -3.2900   -0.0770    0.0000 O   0  0  0  0  0  0  0  0  0  0  0  0
   -5.0230   -2.4910    0.0000 C   0  0  1  0  0  0  0  0  0  0  0  0
   -6.5380   -2.4740    0.0000 C   0  0  0  0  0  0  0  0  0  0  0  0
   -7.2710   -1.1540    0.0000 C   0  0  2  0  0  0  0  0  0  0  0  0
   -8.7710   -1.1190    0.0000 O   0  0  0  0  0  0  0  0  0  0  0  0
   -9.5510   -2.4000    0.0000 C   0  0  0  0  0  0  0  0  0  0  0  0
   -4.2800   -3.7950    0.0000 C   0  0  0  0  0  0  0  0  0  0  0  0
   -3.0690   -1.6630    0.0000 C   0  0  0  0  0  0  0  0  0  0  0  0
   -2.0690   -0.5460    0.0000 O   0  0  0  0  0  0  0  0  0  0  0  0
   -2.3840   -3.0060    0.0000 C   0  0  0  0  0  0  0  0  0  0  0  0
   -3.2750   -4.2120    0.0000 O   0  0  0  0  0  0  0  0  0  0  0  0
   -1.0380   -3.2420    0.0000 N   0  0  0  0  0  0  0  0  0  0  0  0
    0.2120   -2.5730    0.0000 C   0  0  1  0  0  0  0  0  0  0  0  0
    1.5210   -3.3270    0.0000 C   0  0  0  0  0  0  0  0  0  0  0  0
    1.4740   -4.8480    0.0000 C   0  0  0  0  0  0  0  0  0  0  0  0
    0.1520   -5.5540    0.0000 C   0  0  0  0  0  0  0  0  0  0  0  0
   -1.1390   -4.7460    0.0000 C   0  0  0  0  0  0  0  0  0  0  0  0
    0.7640   -1.3250    0.0000 C   0  0  0  0  0  0  0  0  0  0  0  0
    2.2610   -1.2450    0.0000 O   0  0  0  0  0  0  0  0  0  0  0  0
   -7.9490    4.8010    0.0000 C   0  0  0  0  0  0  0  0  0  0  0  0
   -6.0740    6.1750    0.0000 C   0  0  0  0  0  0  0  0  0  0  0  0
   -2.5120    6.3620    0.0000 C   0  0  0  0  0  0  0  0  0  0  0  0
   -3.8450    7.0490    0.0000 C   0  0  0  0  0  0  0  0  0  0  0  0
   -3.9160    8.5480    0.0000 C   0  0  0  0  0  0  0  0  0  0  0  0
  1  2  1  0  0  0  0
  1 51  1  0  0  0  0
  2  3  1  1  0  0  0
  2 15  1  0  0  0  0
  3  4  2  0  0  0  0
  3 14  1  0  0  0  0
  5  4  1  1  0  0  0
  5  6  1  0  0  0  0
  5 13  1  0  0  0  0
  6  7  1  0  0  0  0
  7  8  1  1  0  0  0
  7 10  1  0  0  0  0
  8  9  1  0  0  0  0
 10 11  1  6  0  0  0
 10 12  1  0  0  0  0
 12 13  1  0  0  0  0
 15 16  1  6  0  0  0
 15 17  1  0  0  0  0
 17 18  1  6  0  0  0
 17 19  1  0  0  0  0
 19 20  1  0  0  0  0
 20 21  2  0  0  0  0
 20 22  1  0  0  0  0
 22 23  1  0  0  0  0
 22 55  1  6  0  0  0
 23 24  2  3  0  0  0
 24 25  1  0  0  0  0
 24 54  1  0  0  0  0
 25 26  1  0  0  0  0
 26 27  1  0  0  0  0
 26 53  1  1  0  0  0
 27 28  1  0  0  0  0
 28 29  1  1  0  0  0
 28 31  1  0  0  0  0
 29 30  1  0  0  0  0
 31 32  1  1  0  0  0
 31 37  1  0  0  0  0
 32 33  1  0  0  0  0
 33 34  1  6  0  0  0
 33 35  1  0  0  0  0
 33 41  1  0  0  0  0
 35 36  1  0  0  0  0
 35 40  1  6  0  0  0
 36 37  1  0  0  0  0
 37 38  1  6  0  0  0
 38 39  1  0  0  0  0
 41 42  2  0  0  0  0
 41 43  1  0  0  0  0
 43 44  2  0  0  0  0
 43 45  1  0  0  0  0
 45 46  1  0  0  0  0
 45 50  1  0  0  0  0
 46 47  1  0  0  0  0
 46 51  1  6  0  0  0
 47 48  1  0  0  0  0
 48 49  1  0  0  0  0
 49 50  1  0  0  0  0
 51 52  2  0  0  0  0
 55 56  1  0  0  0  0
 56 57  2  0  0  0  0
M  END
>  <Index>
1731

>  <ID>
HT1971

>  <class>
1

>  <apol>
134.17271

>  <ast_fraglike>
0

>  <ast_fraglike_ext>
0

>  <ast_violation>
3

>  <ast_violation_ext>
5

>  <a_acc>
11

>  <a_acid>
0

>  <a_aro>
0

>  <a_base>
0

>  <a_count>
126

>  <a_don>
3

>  <a_donacc>
14

>  <a_heavy>
57

>  <a_hyd>
39

>  <a_IC>
174.41454

>  <a_ICM>
1.3842424

>  <a_nB>
0

>  <a_nBr>
0

>  <a_nC>
44

>  <a_nCl>
0

>  <a_nF>
0

>  <a_nH>
69

>  <a_nI>
0

>  <a_nN>
1

>  <a_nO>
12

>  <a_nP>
0

>  <a_nS>
0

>  <balabanJ>
1.7103463

>  <BCUT_PEOE_0>
-2.7902093

>  <BCUT_PEOE_1>
-0.47550935

>  <BCUT_PEOE_2>
0.51924145

>  <BCUT_PEOE_3>
2.8292644

>  <BCUT_SLOGP_0>
-2.8811934

>  <BCUT_SLOGP_1>
-0.42368194

>  <BCUT_SLOGP_2>
0.42893934

>  <BCUT_SLOGP_3>
2.8028491

>  <BCUT_SMR_0>
-2.5703771

>  <BCUT_SMR_1>
-0.34521177

>  <BCUT_SMR_2>
0.6147964

>  <BCUT_SMR_3>
3.0377088

>  <bpol>
90.82328

>  <b_1rotN>
7

>  <b_1rotR>
0.11666667

>  <b_ar>
0

>  <b_count>
129

>  <b_double>
7

>  <b_heavy>
60

>  <b_max1len>
4

>  <b_rotN>
7

>  <b_rotR>
0.11666667

>  <b_single>
122

>  <b_triple>
0

>  <chi0>
42.18914

>  <chi0v>
35.393082

>  <chi0v_C>
29.929993

>  <chi0_C>
31.076258

>  <chi1>
26.983057

>  <chi1v>
20.886057

>  <chi1v_C>
15.720017

>  <chi1_C>
17.019678

>  <chiral>
14

>  <chiral_u>
0

>  <density>
0.71982431

>  <diameter>
19

>  <FCharge>
0

>  <GCUT_PEOE_0>
-0.82371378

>  <GCUT_PEOE_1>
-0.37677863

>  <GCUT_PEOE_2>
0.048212972

>  <GCUT_PEOE_3>
3.4193258

>  <GCUT_SLOGP_0>
-0.98279423

>  <GCUT_SLOGP_1>
-0.30315867

>  <GCUT_SLOGP_2>
-0.008580978

>  <GCUT_SLOGP_3>
3.420964

>  <GCUT_SMR_0>
-0.53534335

>  <GCUT_SMR_1>
-0.20596427

>  <GCUT_SMR_2>
0.13635814

>  <GCUT_SMR_3>
3.6353018

>  <Kier1>
49.653332

>  <Kier2>
22.904272

>  <Kier3>
12.565097

>  <KierA1>
44.182018

>  <KierA2>
20.33662

>  <KierA3>
11.139701

>  <KierFlex>
15.763385

>  <lip_acc>
13

>  <lip_don>
3

>  <lip_druglike>
0

>  <lip_violation>
2

>  <logP(o/w)>
4.572

>  <logS>
-6.4347701

>  <mr>
21.577118

>  <mutagenic>
0

>  <nmol>
1

>  <opr_brigid>
38

>  <opr_leadlike>
0

>  <opr_nring>
3

>  <opr_nrot>
25

>  <opr_violation>
4

>  <PC+>
0

>  <PC->
0

>  <PEOE_PC+>
5.407846

>  <PEOE_PC->
-5.407846

>  <PEOE_RPC+>
0.054771904

>  <PEOE_RPC->
0.072303794

>  <PEOE_VSA+0>
284.5636

>  <PEOE_VSA+1>
123.26807

>  <PEOE_VSA+2>
16.509409

>  <PEOE_VSA+3>
0

>  <PEOE_VSA+4>
32.081062

>  <PEOE_VSA+5>
36.11655

>  <PEOE_VSA+6>
0

>  <PEOE_VSA-0>
126.71703

>  <PEOE_VSA-1>
95.216286

>  <PEOE_VSA-2>
22.301268

>  <PEOE_VSA-3>
0

>  <PEOE_VSA-4>
0

>  <PEOE_VSA-5>
54.267685

>  <PEOE_VSA-6>
35.8214

>  <PEOE_VSA_FHYD>
0.80856949

>  <PEOE_VSA_FNEG>
0.40432808

>  <PEOE_VSA_FPNEG>
0.10895294

>  <PEOE_VSA_FPOL>
0.19143052

>  <PEOE_VSA_FPOS>
0.59567189

>  <PEOE_VSA_FPPOS>
0.082477584

>  <PEOE_VSA_HYD>
668.57562

>  <PEOE_VSA_NEG>
334.32367

>  <PEOE_VSA_PNEG>
90.089088

>  <PEOE_VSA_POL>
158.2867

>  <PEOE_VSA_POS>
492.53867

>  <PEOE_VSA_PPOS>
68.197609

>  <petitjean>
0.42105263

>  <petitjeanSC>
0.72727275

>  <Q_PC+>
0

>  <Q_PC->
0

>  <Q_RPC+>
0

>  <Q_RPC->
0

>  <Q_VSA_FHYD>
1

>  <Q_VSA_FNEG>
0

>  <Q_VSA_FPNEG>
0

>  <Q_VSA_FPOL>
0

>  <Q_VSA_FPOS>
1

>  <Q_VSA_FPPOS>
0

>  <Q_VSA_HYD>
826.86237

>  <Q_VSA_NEG>
0

>  <Q_VSA_PNEG>
0

>  <Q_VSA_POL>
0

>  <Q_VSA_POS>
826.86237

>  <Q_VSA_PPOS>
0

>  <radius>
11

>  <reactive>
1

>  <rings>
4

>  <RPC+>
0

>  <RPC->
0

>  <rsynth>
0.47368422

>  <SlogP>
4.6389999

>  <SlogP_VSA0>
76.155678

>  <SlogP_VSA1>
27.503784

>  <SlogP_VSA2>
199.71082

>  <SlogP_VSA3>
18.439579

>  <SlogP_VSA4>
22.05398

>  <SlogP_VSA5>
112.52275

>  <SlogP_VSA6>
0

>  <SlogP_VSA7>
52.929554

>  <SlogP_VSA8>
207.55246

>  <SlogP_VSA9>
198.73087

>  <SMR>
21.259239

>  <SMR_VSA0>
150.4483

>  <SMR_VSA1>
79.279991

>  <SMR_VSA2>
22.05398

>  <SMR_VSA3>
55.633663

>  <SMR_VSA4>
0

>  <SMR_VSA5>
260.48203

>  <SMR_VSA6>
42.819046

>  <SMR_VSA7>
304.88248

>  <TPSA>
178.36

>  <VAdjEq>
0.22805569

>  <VAdjMa>
6.9068904

>  <VDistEq>
3.9525137

>  <VDistMa>
11.446915

>  <vdw_area>
826.86237

>  <vdw_vol>
1116.9822

>  <vsa_acc>
64.282707

>  <vsa_acid>
0

>  <vsa_base>
0

>  <vsa_don>
0

>  <vsa_hyd>
606.41339

>  <vsa_other>
48.18737

>  <vsa_pol>
104.98347

>  <Weight>
804.03101

>  <weinerPath>
12629

>  <weinerPol>
105

>  <zagreb>
292

$$$$