O1[C@H](CC)[C@](O)(C)[C@H](O)[C@@H](C)C(=O)[C@@H](C[C@](O)(C)[C@@H](O[C@@H]2O[C@@H](C[C@H](N(C)C)[C@H]2O)C)[C@@H](C)[C@H](O[C@@H]2O[C@@H](C)[C@H](O)[C@](OC)(C2)C)[C@@H](C)C1=O)C
  MOE2013           2D

 51 53  0  0  1  0  0  0  0  0999 V2000
    0.0000    0.0000    0.0000 O   0  0  0  0  0  0  0  0  0  0  0  0
   -1.2900   -0.5790    0.0000 C   0  0  2  0  0  0  0  0  0  0  0  0
   -1.3420   -2.0780    0.0000 C   0  0  0  0  0  0  0  0  0  0  0  0
   -0.0690   -2.8720    0.0000 C   0  0  0  0  0  0  0  0  0  0  0  0
   -2.6070    0.1260    0.0000 C   0  0  2  0  0  0  0  0  0  0  0  0
   -3.3370    1.4360    0.0000 O   0  0  0  0  0  0  0  0  0  0  0  0
   -1.8620    1.4280    0.0000 C   0  0  0  0  0  0  0  0  0  0  0  0
   -3.8760   -0.6630    0.0000 C   0  0  2  0  0  0  0  0  0  0  0  0
   -3.7270   -2.1560    0.0000 O   0  0  0  0  0  0  0  0  0  0  0  0
   -5.2010   -0.1700    0.0000 C   0  0  1  0  0  0  0  0  0  0  0  0
   -6.1740   -1.3110    0.0000 C   0  0  0  0  0  0  0  0  0  0  0  0
   -5.8760    1.0200    0.0000 C   0  0  0  0  0  0  0  0  0  0  0  0
   -7.3210    0.6170    0.0000 O   0  0  0  0  0  0  0  0  0  0  0  0
   -5.9130    2.3540    0.0000 C   0  0  1  0  0  0  0  0  0  0  0  0
   -5.3110    3.5800    0.0000 C   0  0  0  0  0  0  0  0  0  0  0  0
   -4.0210    4.1590    0.0000 C   0  0  2  0  0  0  0  0  0  0  0  0
   -4.4920    5.5830    0.0000 O   0  0  0  0  0  0  0  0  0  0  0  0
   -3.2950    5.4710    0.0000 C   0  0  0  0  0  0  0  0  0  0  0  0
   -2.7040    3.4540    0.0000 C   0  0  1  0  0  0  0  0  0  0  0  0
   -2.4210    5.4340    0.0000 O   0  0  0  0  0  0  0  0  0  0  0  0
   -3.6010    6.3600    0.0000 C   0  0  2  0  0  0  0  0  0  0  0  0
   -2.8940    7.6830    0.0000 O   0  0  0  0  0  0  0  0  0  0  0  0
   -3.6860    8.9570    0.0000 C   0  0  1  0  0  0  0  0  0  0  0  0
   -5.1850    8.9080    0.0000 C   0  0  0  0  0  0  0  0  0  0  0  0
   -5.8920    7.5850    0.0000 C   0  0  2  0  0  0  0  0  0  0  0  0
   -7.3910    7.5360    0.0000 N   0  0  0  0  0  0  0  0  0  0  0  0
   -8.1830    8.8100    0.0000 C   0  0  0  0  0  0  0  0  0  0  0  0
   -8.0980    6.2130    0.0000 C   0  0  0  0  0  0  0  0  0  0  0  0
   -5.1000    6.3110    0.0000 C   0  0  1  0  0  0  0  0  0  0  0  0
   -5.8070    4.9890    0.0000 O   0  0  0  0  0  0  0  0  0  0  0  0
   -2.9780   10.2800    0.0000 C   0  0  0  0  0  0  0  0  0  0  0  0
   -1.4350    4.2430    0.0000 C   0  0  1  0  0  0  0  0  0  0  0  0
   -1.5850    5.7360    0.0000 C   0  0  0  0  0  0  0  0  0  0  0  0
   -0.1100    3.7490    0.0000 C   0  0  2  0  0  0  0  0  0  0  0  0
    0.8630    4.8910    0.0000 O   0  0  0  0  0  0  0  0  0  0  0  0
    2.3380    4.6200    0.0000 C   0  0  2  0  0  0  0  0  0  0  0  0
    2.8410    3.2060    0.0000 O   0  0  0  0  0  0  0  0  0  0  0  0
    4.3160    2.9350    0.0000 C   0  0  1  0  0  0  0  0  0  0  0  0
    4.8180    1.5210    0.0000 C   0  0  0  0  0  0  0  0  0  0  0  0
    5.2890    4.0770    0.0000 C   0  0  2  0  0  0  0  0  0  0  0  0
    6.7640    3.8050    0.0000 O   0  0  0  0  0  0  0  0  0  0  0  0
    4.7860    5.4900    0.0000 C   0  0  2  0  0  0  0  0  0  0  0  0
    6.1990    5.9920    0.0000 O   0  0  0  0  0  0  0  0  0  0  0  0
    6.4710    7.4680    0.0000 C   0  0  0  0  0  0  0  0  0  0  0  0
    3.3110    5.7610    0.0000 C   0  0  0  0  0  0  0  0  0  0  0  0
    5.0580    6.9650    0.0000 C   0  0  0  0  0  0  0  0  0  0  0  0
    0.5650    2.5600    0.0000 C   0  0  1  0  0  0  0  0  0  0  0  0
    2.0100    2.9620    0.0000 C   0  0  0  0  0  0  0  0  0  0  0  0
    0.6020    1.2260    0.0000 C   0  0  0  0  0  0  0  0  0  0  0  0
    2.0670    0.9070    0.0000 O   0  0  0  0  0  0  0  0  0  0  0  0
   -7.3780    2.6730    0.0000 C   0  0  0  0  0  0  0  0  0  0  0  0
  1  2  1  0  0  0  0
  1 49  1  0  0  0  0
  2  3  1  6  0  0  0
  2  5  1  0  0  0  0
  3  4  1  0  0  0  0
  5  6  1  6  0  0  0
  5  7  1  1  0  0  0
  5  8  1  0  0  0  0
  8  9  1  6  0  0  0
  8 10  1  0  0  0  0
 10 11  1  1  0  0  0
 10 12  1  0  0  0  0
 12 13  2  0  0  0  0
 12 14  1  0  0  0  0
 14 15  1  0  0  0  0
 14 51  1  6  0  0  0
 15 16  1  0  0  0  0
 16 17  1  1  0  0  0
 16 18  1  6  0  0  0
 16 19  1  0  0  0  0
 19 20  1  1  0  0  0
 19 32  1  0  0  0  0
 21 20  1  1  0  0  0
 21 22  1  0  0  0  0
 21 29  1  0  0  0  0
 22 23  1  0  0  0  0
 23 24  1  0  0  0  0
 23 31  1  1  0  0  0
 24 25  1  0  0  0  0
 25 26  1  1  0  0  0
 25 29  1  0  0  0  0
 26 27  1  0  0  0  0
 26 28  1  0  0  0  0
 29 30  1  6  0  0  0
 32 33  1  1  0  0  0
 32 34  1  0  0  0  0
 34 35  1  6  0  0  0
 34 47  1  0  0  0  0
 36 35  1  1  0  0  0
 36 37  1  0  0  0  0
 36 45  1  0  0  0  0
 37 38  1  0  0  0  0
 38 39  1  6  0  0  0
 38 40  1  0  0  0  0
 40 41  1  1  0  0  0
 40 42  1  0  0  0  0
 42 43  1  1  0  0  0
 42 45  1  0  0  0  0
 42 46  1  6  0  0  0
 43 44  1  0  0  0  0
 47 48  1  1  0  0  0
 47 49  1  0  0  0  0
 49 50  2  0  0  0  0
M  END
>  <Index>
1551

>  <ID>
HT0785

>  <class>
1

>  <apol>
121.32113

>  <ast_fraglike>
0

>  <ast_fraglike_ext>
0

>  <ast_violation>
3

>  <ast_violation_ext>
5

>  <a_acc>
13

>  <a_acid>
0

>  <a_aro>
0

>  <a_base>
0

>  <a_count>
118

>  <a_don>
5

>  <a_donacc>
18

>  <a_heavy>
51

>  <a_hyd>
33

>  <a_IC>
164.86841

>  <a_ICM>
1.39719

>  <a_nB>
0

>  <a_nBr>
0

>  <a_nC>
37

>  <a_nCl>
0

>  <a_nF>
0

>  <a_nH>
67

>  <a_nI>
0

>  <a_nN>
1

>  <a_nO>
13

>  <a_nP>
0

>  <a_nS>
0

>  <balabanJ>
2.173291

>  <BCUT_PEOE_0>
-2.8165276

>  <BCUT_PEOE_1>
-0.43872455

>  <BCUT_PEOE_2>
0.31393608

>  <BCUT_PEOE_3>
2.841392

>  <BCUT_SLOGP_0>
-2.9130328

>  <BCUT_SLOGP_1>
-0.39585912

>  <BCUT_SLOGP_2>
0.32290852

>  <BCUT_SLOGP_3>
2.7729871

>  <BCUT_SMR_0>
-2.5931668

>  <BCUT_SMR_1>
-0.26328337

>  <BCUT_SMR_2>
0.49131307

>  <BCUT_SMR_3>
3.0551839

>  <bpol>
88.636871

>  <b_1rotN>
7

>  <b_1rotR>
0.13207547

>  <b_ar>
0

>  <b_count>
120

>  <b_double>
2

>  <b_heavy>
53

>  <b_max1len>
5

>  <b_rotN>
7

>  <b_rotR>
0.13207547

>  <b_single>
118

>  <b_triple>
0

>  <chi0>
38.963371

>  <chi0v>
32.93795

>  <chi0v_C>
26.988682

>  <chi0_C>
27.143381

>  <chi1>
23.425518

>  <chi1v>
18.494118

>  <chi1v_C>
12.773616

>  <chi1_C>
12.907591

>  <chiral>
18

>  <chiral_u>
0

>  <density>
0.73179477

>  <diameter>
14

>  <FCharge>
0

>  <GCUT_PEOE_0>
-0.85631549

>  <GCUT_PEOE_1>
-0.32663924

>  <GCUT_PEOE_2>
-0.078495085

>  <GCUT_PEOE_3>
3.5400639

>  <GCUT_SLOGP_0>
-0.96319818

>  <GCUT_SLOGP_1>
-0.33563814

>  <GCUT_SLOGP_2>
-0.037

>  <GCUT_SLOGP_3>
3.5095558

>  <GCUT_SMR_0>
-0.53529656

>  <GCUT_SMR_1>
-0.20479083

>  <GCUT_SMR_2>
0.074646778

>  <GCUT_SMR_3>
3.7392793

>  <Kier1>
45.38982

>  <Kier2>
17.853956

>  <Kier3>
10.062015

>  <KierA1>
43.78574

>  <KierA2>
17.21036

>  <KierA3>
9.6942911

>  <KierFlex>
14.77585

>  <lip_acc>
14

>  <lip_don>
5

>  <lip_druglike>
0

>  <lip_violation>
2

>  <logP(o/w)>
2.7609999

>  <logS>
-3.5613799

>  <mr>
18.753395

>  <mutagenic>
0

>  <nmol>
1

>  <opr_brigid>
26

>  <opr_leadlike>
0

>  <opr_nring>
2

>  <opr_nrot>
24

>  <opr_violation>
3

>  <PC+>
0

>  <PC->
0

>  <PEOE_PC+>
5.38201

>  <PEOE_PC->
-5.38201

>  <PEOE_RPC+>
0.04976774

>  <PEOE_RPC->
0.072125748

>  <PEOE_VSA+0>
245.84885

>  <PEOE_VSA+1>
84.879593

>  <PEOE_VSA+2>
18.268377

>  <PEOE_VSA+3>
22.309816

>  <PEOE_VSA+4>
51.620865

>  <PEOE_VSA+5>
14.708499

>  <PEOE_VSA+6>
0

>  <PEOE_VSA-0>
166.3197

>  <PEOE_VSA-1>
93.738388

>  <PEOE_VSA-2>
0

>  <PEOE_VSA-3>
0

>  <PEOE_VSA-4>
0

>  <PEOE_VSA-5>
27.133842

>  <PEOE_VSA-6>
53.860237

>  <PEOE_VSA_FHYD>
0.81080562

>  <PEOE_VSA_FNEG>
0.43798301

>  <PEOE_VSA_FPNEG>
0.1040135

>  <PEOE_VSA_FPOL>
0.1891944

>  <PEOE_VSA_FPOS>
0.56201702

>  <PEOE_VSA_FPPOS>
0.085180908

>  <PEOE_VSA_HYD>
631.36475

>  <PEOE_VSA_NEG>
341.05219

>  <PEOE_VSA_PNEG>
80.99408

>  <PEOE_VSA_POL>
147.32344

>  <PEOE_VSA_POS>
437.63599

>  <PEOE_VSA_PPOS>
66.329361

>  <petitjean>
0.42857143

>  <petitjeanSC>
0.75

>  <Q_PC+>
0

>  <Q_PC->
0

>  <Q_RPC+>
0

>  <Q_RPC->
0

>  <Q_VSA_FHYD>
1

>  <Q_VSA_FNEG>
0

>  <Q_VSA_FPNEG>
0

>  <Q_VSA_FPOL>
0

>  <Q_VSA_FPOS>
1

>  <Q_VSA_FPPOS>
0

>  <Q_VSA_HYD>
778.68817

>  <Q_VSA_NEG>
0

>  <Q_VSA_PNEG>
0

>  <Q_VSA_POL>
0

>  <Q_VSA_POS>
778.68817

>  <Q_VSA_PPOS>
0

>  <radius>
8

>  <reactive>
1

>  <rings>
3

>  <RPC+>
0

>  <RPC->
0

>  <rsynth>
0.64705884

>  <SlogP>
1.7855999

>  <SlogP_VSA0>
126.92613

>  <SlogP_VSA1>
16.557388

>  <SlogP_VSA2>
186.50793

>  <SlogP_VSA3>
0

>  <SlogP_VSA4>
17.643185

>  <SlogP_VSA5>
101.17825

>  <SlogP_VSA6>
0

>  <SlogP_VSA7>
0

>  <SlogP_VSA8>
75.473625

>  <SlogP_VSA9>
333.26016

>  <SMR>
18.625799

>  <SMR_VSA0>
113.72376

>  <SMR_VSA1>
130.05045

>  <SMR_VSA2>
17.643185

>  <SMR_VSA3>
72.784164

>  <SMR_VSA4>
0

>  <SMR_VSA5>
75.473625

>  <SMR_VSA6>
13.433075

>  <SMR_VSA7>
434.43839

>  <TPSA>
193.91

>  <VAdjEq>
0.24573661

>  <VAdjMa>
6.7279205

>  <VDistEq>
3.6785717

>  <VDistMa>
11.136739

>  <vdw_area>
778.68817

>  <vdw_vol>
1002.9274

>  <vsa_acc>
39.652622

>  <vsa_acid>
0

>  <vsa_base>
0

>  <vsa_don>
0

>  <vsa_hyd>
543.97766

>  <vsa_other>
55.087772

>  <vsa_pol>
107.48723

>  <Weight>
733.93701

>  <weinerPath>
8842

>  <weinerPol>
101

>  <zagreb>
270

$$$$