S(=O)(=O)(N)c1ccc(-n2nc(cc2-c2ccc(cc2)C)C(F)(F)F)cc1
  MOE2013           2D

 26 28  0  0  0  0  0  0  0  0999 V2000
    0.0000    0.0000    0.0000 S   0  0  0  0  0  0  0  0  0  0  0  0
   -0.0090   -1.5000    0.0000 O   0  0  0  0  0  0  0  0  0  0  0  0
    0.0090    1.5000    0.0000 O   0  0  0  0  0  0  0  0  0  0  0  0
    1.5000   -0.0090    0.0000 N   0  0  0  0  0  0  0  0  0  0  0  0
   -1.5000    0.0090    0.0000 C   0  0  0  0  0  0  0  0  0  0  0  0
   -2.2580   -1.2860    0.0000 C   0  0  0  0  0  0  0  0  0  0  0  0
   -3.7580   -1.2770    0.0000 C   0  0  0  0  0  0  0  0  0  0  0  0
   -4.5000    0.0260    0.0000 C   0  0  0  0  0  0  0  0  0  0  0  0
   -6.0000    0.0350    0.0000 N   0  0  0  0  0  0  0  0  0  0  0  0
   -6.8890   -1.1730    0.0000 N   0  0  0  0  0  0  0  0  0  0  0  0
   -8.3130   -0.7010    0.0000 C   0  0  0  0  0  0  0  0  0  0  0  0
   -8.3040    0.7990    0.0000 C   0  0  0  0  0  0  0  0  0  0  0  0
   -6.8740    1.2540    0.0000 C   0  0  0  0  0  0  0  0  0  0  0  0
   -6.4030    2.6780    0.0000 C   0  0  0  0  0  0  0  0  0  0  0  0
   -7.4000    3.7980    0.0000 C   0  0  0  0  0  0  0  0  0  0  0  0
   -6.9280    5.2220    0.0000 C   0  0  0  0  0  0  0  0  0  0  0  0
   -5.4590    5.5250    0.0000 C   0  0  0  0  0  0  0  0  0  0  0  0
   -4.4620    4.4050    0.0000 C   0  0  0  0  0  0  0  0  0  0  0  0
   -4.9340    2.9810    0.0000 C   0  0  0  0  0  0  0  0  0  0  0  0
   -4.9870    6.9490    0.0000 C   0  0  0  0  0  0  0  0  0  0  0  0
   -9.5310   -1.5760    0.0000 C   0  0  0  0  0  0  0  0  0  0  0  0
  -10.4060   -0.3570    0.0000 F   0  0  0  0  0  0  0  0  0  0  0  0
   -8.6570   -2.7950    0.0000 F   0  0  0  0  0  0  0  0  0  0  0  0
  -10.7500   -2.4500    0.0000 F   0  0  0  0  0  0  0  0  0  0  0  0
   -3.7420    1.3210    0.0000 C   0  0  0  0  0  0  0  0  0  0  0  0
   -2.2420    1.3120    0.0000 C   0  0  0  0  0  0  0  0  0  0  0  0
  1  2  2  0  0  0  0
  1  3  2  0  0  0  0
  1  4  1  0  0  0  0
  1  5  1  0  0  0  0
  5  6  1  0  0  0  0
  5 26  2  0  0  0  0
  6  7  2  0  0  0  0
  7  8  1  0  0  0  0
  8  9  1  0  0  0  0
  8 25  2  0  0  0  0
  9 10  1  0  0  0  0
  9 13  1  0  0  0  0
 10 11  2  0  0  0  0
 11 12  1  0  0  0  0
 11 21  1  0  0  0  0
 12 13  2  0  0  0  0
 13 14  1  0  0  0  0
 14 15  1  0  0  0  0
 14 19  2  0  0  0  0
 15 16  2  0  0  0  0
 16 17  1  0  0  0  0
 17 18  2  0  0  0  0
 17 20  1  0  0  0  0
 18 19  1  0  0  0  0
 21 22  1  0  0  0  0
 21 23  1  0  0  0  0
 21 24  1  0  0  0  0
 25 26  1  0  0  0  0
M  END
>  <Index>
1482

>  <ID>
HT0430

>  <class>
1

>  <apol>
48.730103

>  <ast_fraglike>
0

>  <ast_fraglike_ext>
0

>  <ast_violation>
2

>  <ast_violation_ext>
3

>  <a_acc>
3

>  <a_acid>
0

>  <a_aro>
17

>  <a_base>
0

>  <a_count>
40

>  <a_don>
1

>  <a_donacc>
4

>  <a_heavy>
26

>  <a_hyd>
20

>  <a_IC>
78.577515

>  <a_ICM>
1.9644378

>  <a_nB>
0

>  <a_nBr>
0

>  <a_nC>
17

>  <a_nCl>
0

>  <a_nF>
3

>  <a_nH>
14

>  <a_nI>
0

>  <a_nN>
3

>  <a_nO>
2

>  <a_nP>
0

>  <a_nS>
1

>  <balabanJ>
1.6869076

>  <BCUT_PEOE_0>
-2.325495

>  <BCUT_PEOE_1>
-0.62216789

>  <BCUT_PEOE_2>
0.69889909

>  <BCUT_PEOE_3>
2.3897088

>  <BCUT_SLOGP_0>
-2.5720878

>  <BCUT_SLOGP_1>
-0.53807992

>  <BCUT_SLOGP_2>
0.80591482

>  <BCUT_SLOGP_3>
2.4685965

>  <BCUT_SMR_0>
-1.993363

>  <BCUT_SMR_1>
-0.49986199

>  <BCUT_SMR_2>
0.85431087

>  <BCUT_SMR_3>
2.7218058

>  <bpol>
26.709898

>  <b_1rotN>
3

>  <b_1rotR>
0.10714286

>  <b_ar>
17

>  <b_count>
42

>  <b_double>
0

>  <b_heavy>
28

>  <b_max1len>
3

>  <b_rotN>
4

>  <b_rotR>
0.14285715

>  <b_single>
25

>  <b_triple>
0

>  <chi0>
19.11252

>  <chi0v>
14.343064

>  <chi0v_C>
9.6961527

>  <chi0_C>
11.328063

>  <chi1>
12.05368

>  <chi1v>
8.9773312

>  <chi1v_C>
5.2200847

>  <chi1_C>
7.2818418

>  <chiral>
0

>  <chiral_u>
0

>  <density>
0.87575549

>  <diameter>
12

>  <FCharge>
0

>  <GCUT_PEOE_0>
-0.81587708

>  <GCUT_PEOE_1>
-0.38768524

>  <GCUT_PEOE_2>
0.080169797

>  <GCUT_PEOE_3>
2.5373871

>  <GCUT_SLOGP_0>
-1.3482726

>  <GCUT_SLOGP_1>
-0.3031131

>  <GCUT_SLOGP_2>
0.1737565

>  <GCUT_SLOGP_3>
2.6470435

>  <GCUT_SMR_0>
-0.47889569

>  <GCUT_SMR_1>
-0.20412143

>  <GCUT_SMR_2>
0.19305076

>  <GCUT_SMR_3>
2.8233032

>  <Kier1>
20.727041

>  <Kier2>
7.7879934

>  <Kier3>
4.8994083

>  <KierA1>
16.263817

>  <KierA2>
6.0477204

>  <KierA3>
3.7763617

>  <KierFlex>
3.7830391

>  <lip_acc>
5

>  <lip_don>
2

>  <lip_druglike>
1

>  <lip_violation>
0

>  <logP(o/w)>
3.11676

>  <logS>
-5.8439698

>  <mr>
9.2867546

>  <mutagenic>
0

>  <nmol>
1

>  <opr_brigid>
17

>  <opr_leadlike>
1

>  <opr_nring>
3

>  <opr_nrot>
3

>  <opr_violation>
0

>  <PC+>
0

>  <PC->
0

>  <PEOE_PC+>
1.9196509

>  <PEOE_PC->
-1.9196509

>  <PEOE_RPC+>
0.22710395

>  <PEOE_RPC->
0.12335873

>  <PEOE_VSA+0>
66.858139

>  <PEOE_VSA+1>
51.787575

>  <PEOE_VSA+2>
0

>  <PEOE_VSA+3>
6.6995511

>  <PEOE_VSA+4>
0

>  <PEOE_VSA+5>
4.1846013

>  <PEOE_VSA+6>
9.0455017

>  <PEOE_VSA-0>
55.51239

>  <PEOE_VSA-1>
51.228157

>  <PEOE_VSA-2>
0

>  <PEOE_VSA-3>
54.190697

>  <PEOE_VSA-4>
32.016521

>  <PEOE_VSA-5>
0

>  <PEOE_VSA-6>
0

>  <PEOE_VSA_FHYD>
0.86351895

>  <PEOE_VSA_FNEG>
0.58200389

>  <PEOE_VSA_FPNEG>
0.096574023

>  <PEOE_VSA_FPOL>
0.13648105

>  <PEOE_VSA_FPOS>
0.41799608

>  <PEOE_VSA_FPPOS>
0.039907027

>  <PEOE_VSA_HYD>
286.27652

>  <PEOE_VSA_NEG>
192.94777

>  <PEOE_VSA_PNEG>
32.016521

>  <PEOE_VSA_POL>
45.246628

>  <PEOE_VSA_POS>
138.57538

>  <PEOE_VSA_PPOS>
13.230103

>  <petitjean>
0.5

>  <petitjeanSC>
1

>  <Q_PC+>
0

>  <Q_PC->
0

>  <Q_RPC+>
0

>  <Q_RPC->
0

>  <Q_VSA_FHYD>
1

>  <Q_VSA_FNEG>
0

>  <Q_VSA_FPNEG>
0

>  <Q_VSA_FPOL>
0

>  <Q_VSA_FPOS>
1

>  <Q_VSA_FPPOS>
0

>  <Q_VSA_HYD>
331.52313

>  <Q_VSA_NEG>
0

>  <Q_VSA_PNEG>
0

>  <Q_VSA_POL>
0

>  <Q_VSA_POS>
331.52313

>  <Q_VSA_PPOS>
0

>  <radius>
6

>  <reactive>
0

>  <rings>
3

>  <RPC+>
0

>  <RPC->
0

>  <rsynth>
1

>  <SlogP>
3.8254199

>  <SlogP_VSA0>
31.291433

>  <SlogP_VSA1>
66.611267

>  <SlogP_VSA2>
6.6407428

>  <SlogP_VSA3>
0

>  <SlogP_VSA4>
5.9423227

>  <SlogP_VSA5>
1.5507339

>  <SlogP_VSA6>
7.7595162

>  <SlogP_VSA7>
167.48773

>  <SlogP_VSA8>
0

>  <SlogP_VSA9>
78.206352

>  <SMR>
9.0229197

>  <SMR_VSA0>
48.171688

>  <SMR_VSA1>
63.31992

>  <SMR_VSA2>
9.3102503

>  <SMR_VSA3>
5.9423227

>  <SMR_VSA4>
39.990505

>  <SMR_VSA5>
158.78867

>  <SMR_VSA6>
0

>  <SMR_VSA7>
39.966759

>  <TPSA>
77.980003

>  <VAdjEq>
0.41210872

>  <VAdjMa>
5.8073549

>  <VDistEq>
3.3687842

>  <VDistMa>
9.122283

>  <vdw_area>
331.52313

>  <vdw_vol>
435.48456

>  <vsa_acc>
41.437561

>  <vsa_acid>
0

>  <vsa_base>
0

>  <vsa_don>
20.13512

>  <vsa_hyd>
245.15665

>  <vsa_other>
10.105608

>  <vsa_pol>
61.572681

>  <Weight>
381.37799

>  <weinerPath>
1654

>  <weinerPol>
41

>  <zagreb>
142

$$$$