Clc1cc2c(N(C)C(=O)CN=C2c2ccccc2)cc1
  MOE2013           2D

 20 22  0  0  0  0  0  0  0  0999 V2000
    0.0000    0.0000    0.0000 Cl  0  0  0  0  0  0  0  0  0  0  0  0
    1.1160   -1.0030    0.0000 C   0  0  0  0  0  0  0  0  0  0  0  0
    0.8050   -2.4700    0.0000 C   0  0  0  0  0  0  0  0  0  0  0  0
    1.9210   -3.4730    0.0000 C   0  0  0  0  0  0  0  0  0  0  0  0
    3.3470   -3.0080    0.0000 C   0  0  0  0  0  0  0  0  0  0  0  0
    4.5980   -3.8350    0.0000 N   0  0  0  0  0  0  0  0  0  0  0  0
    5.8860   -3.0660    0.0000 C   0  0  0  0  0  0  0  0  0  0  0  0
    4.7330   -5.3290    0.0000 C   0  0  0  0  0  0  0  0  0  0  0  0
    6.1380   -5.8550    0.0000 O   0  0  0  0  0  0  0  0  0  0  0  0
    3.6500   -6.3660    0.0000 C   0  0  0  0  0  0  0  0  0  0  0  0
    2.1630   -6.1650    0.0000 N   0  0  0  0  0  0  0  0  0  0  0  0
    1.3940   -4.8770    0.0000 C   0  0  0  0  0  0  0  0  0  0  0  0
   -0.1000   -5.0120    0.0000 C   0  0  0  0  0  0  0  0  0  0  0  0
   -0.7300   -6.3730    0.0000 C   0  0  0  0  0  0  0  0  0  0  0  0
   -2.2240   -6.5080    0.0000 C   0  0  0  0  0  0  0  0  0  0  0  0
   -3.0880   -5.2820    0.0000 C   0  0  0  0  0  0  0  0  0  0  0  0
   -2.4570   -3.9200    0.0000 C   0  0  0  0  0  0  0  0  0  0  0  0
   -0.9630   -3.7860    0.0000 C   0  0  0  0  0  0  0  0  0  0  0  0
    3.6570   -1.5410    0.0000 C   0  0  0  0  0  0  0  0  0  0  0  0
    2.5420   -0.5380    0.0000 C   0  0  0  0  0  0  0  0  0  0  0  0
  1  2  1  0  0  0  0
  2  3  1  0  0  0  0
  2 20  2  0  0  0  0
  3  4  2  0  0  0  0
  4  5  1  0  0  0  0
  4 12  1  0  0  0  0
  5  6  1  0  0  0  0
  5 19  2  0  0  0  0
  6  7  1  0  0  0  0
  6  8  1  0  0  0  0
  8  9  2  0  0  0  0
  8 10  1  0  0  0  0
 10 11  1  0  0  0  0
 11 12  2  0  0  0  0
 12 13  1  0  0  0  0
 13 14  1  0  0  0  0
 13 18  2  0  0  0  0
 14 15  2  0  0  0  0
 15 16  1  0  0  0  0
 16 17  2  0  0  0  0
 17 18  1  0  0  0  0
 19 20  1  0  0  0  0
M  END
>  <Index>
1522

>  <ID>
HT0636

>  <class>
1

>  <apol>
42.010307

>  <ast_fraglike>
0

>  <ast_fraglike_ext>
0

>  <ast_violation>
1

>  <ast_violation_ext>
1

>  <a_acc>
2

>  <a_acid>
0

>  <a_aro>
12

>  <a_base>
0

>  <a_count>
33

>  <a_don>
0

>  <a_donacc>
2

>  <a_heavy>
20

>  <a_hyd>
15

>  <a_IC>
52.359291

>  <a_ICM>
1.5866451

>  <a_nB>
0

>  <a_nBr>
0

>  <a_nC>
16

>  <a_nCl>
1

>  <a_nF>
0

>  <a_nH>
13

>  <a_nI>
0

>  <a_nN>
2

>  <a_nO>
1

>  <a_nP>
0

>  <a_nS>
0

>  <balabanJ>
1.8048301

>  <BCUT_PEOE_0>
-2.3992569

>  <BCUT_PEOE_1>
-0.59961963

>  <BCUT_PEOE_2>
0.62027055

>  <BCUT_PEOE_3>
2.4249942

>  <BCUT_SLOGP_0>
-2.5308385

>  <BCUT_SLOGP_1>
-0.46274725

>  <BCUT_SLOGP_2>
0.78449517

>  <BCUT_SLOGP_3>
2.4318204

>  <BCUT_SMR_0>
-2.0784142

>  <BCUT_SMR_1>
-0.42152348

>  <BCUT_SMR_2>
0.86350912

>  <BCUT_SMR_3>
2.7446651

>  <bpol>
18.88969

>  <b_1rotN>
1

>  <b_1rotR>
0.045454547

>  <b_ar>
12

>  <b_count>
35

>  <b_double>
2

>  <b_heavy>
22

>  <b_max1len>
2

>  <b_rotN>
1

>  <b_rotR>
0.045454547

>  <b_single>
21

>  <b_triple>
0

>  <chi0>
14.112519

>  <chi0v>
11.762478

>  <chi0v_C>
9.3259087

>  <chi0_C>
10.828063

>  <chi1>
9.6647034

>  <chi1v>
6.7076035

>  <chi1v_C>
4.5022707

>  <chi1_C>
6.357738

>  <chiral>
0

>  <chiral_u>
0

>  <density>
0.76512945

>  <diameter>
8

>  <FCharge>
0

>  <GCUT_PEOE_0>
-0.82644606

>  <GCUT_PEOE_1>
-0.40744007

>  <GCUT_PEOE_2>
0.065225966

>  <GCUT_PEOE_3>
2.5099084

>  <GCUT_SLOGP_0>
-1.0001423

>  <GCUT_SLOGP_1>
-0.28705946

>  <GCUT_SLOGP_2>
0.15371285

>  <GCUT_SLOGP_3>
2.5974557

>  <GCUT_SMR_0>
-0.46826077

>  <GCUT_SMR_1>
-0.19320787

>  <GCUT_SMR_2>
0.22595792

>  <GCUT_SMR_3>
2.8295438

>  <Kier1>
14.917356

>  <Kier2>
6.405827

>  <Kier3>
3.1224489

>  <KierA1>
10.983979

>  <KierA2>
4.6342187

>  <KierA3>
2.2298164

>  <KierFlex>
2.5451083

>  <lip_acc>
3

>  <lip_don>
0

>  <lip_druglike>
1

>  <lip_violation>
0

>  <logP(o/w)>
3.109

>  <logS>
-4.5316901

>  <mr>
8.0551805

>  <mutagenic>
0

>  <nmol>
1

>  <opr_brigid>
18

>  <opr_leadlike>
1

>  <opr_nring>
3

>  <opr_nrot>
1

>  <opr_violation>
0

>  <PC+>
0

>  <PC->
0

>  <PEOE_PC+>
1.3391987

>  <PEOE_PC->
-1.3391987

>  <PEOE_RPC+>
0.18592724

>  <PEOE_RPC->
0.23376244

>  <PEOE_VSA+0>
44.971672

>  <PEOE_VSA+1>
56.052963

>  <PEOE_VSA+2>
13.192325

>  <PEOE_VSA+3>
0

>  <PEOE_VSA+4>
12.949531

>  <PEOE_VSA+5>
0

>  <PEOE_VSA+6>
0

>  <PEOE_VSA-0>
36.764713

>  <PEOE_VSA-1>
90.856468

>  <PEOE_VSA-2>
0

>  <PEOE_VSA-3>
0

>  <PEOE_VSA-4>
0

>  <PEOE_VSA-5>
19.249496

>  <PEOE_VSA-6>
0

>  <PEOE_VSA_FHYD>
0.88250124

>  <PEOE_VSA_FNEG>
0.53595167

>  <PEOE_VSA_FPNEG>
0.070244111

>  <PEOE_VSA_FPOL>
0.11749876

>  <PEOE_VSA_FPOS>
0.46404833

>  <PEOE_VSA_FPPOS>
0.047254652

>  <PEOE_VSA_HYD>
241.83813

>  <PEOE_VSA_NEG>
146.87068

>  <PEOE_VSA_PNEG>
19.249496

>  <PEOE_VSA_POL>
32.199028

>  <PEOE_VSA_POS>
127.16649

>  <PEOE_VSA_PPOS>
12.949531

>  <petitjean>
0.5

>  <petitjeanSC>
1

>  <Q_PC+>
0

>  <Q_PC->
0

>  <Q_RPC+>
0

>  <Q_RPC->
0

>  <Q_VSA_FHYD>
1

>  <Q_VSA_FNEG>
0

>  <Q_VSA_FPNEG>
0

>  <Q_VSA_FPOL>
0

>  <Q_VSA_FPOS>
1

>  <Q_VSA_FPPOS>
0

>  <Q_VSA_HYD>
274.03717

>  <Q_VSA_NEG>
0

>  <Q_VSA_PNEG>
0

>  <Q_VSA_POL>
0

>  <Q_VSA_POS>
274.03717

>  <Q_VSA_PPOS>
0

>  <radius>
4

>  <reactive>
0

>  <rings>
3

>  <RPC+>
0

>  <RPC->
0

>  <rsynth>
1

>  <SlogP>
3.1538

>  <SlogP_VSA0>
3.1243138

>  <SlogP_VSA1>
8.0155315

>  <SlogP_VSA2>
23.862217

>  <SlogP_VSA3>
18.439579

>  <SlogP_VSA4>
6.37115

>  <SlogP_VSA5>
49.682716

>  <SlogP_VSA6>
3.5006065

>  <SlogP_VSA7>
141.14548

>  <SlogP_VSA8>
0

>  <SlogP_VSA9>
41.905392

>  <SMR>
8.1809998

>  <SMR_VSA0>
23.862217

>  <SMR_VSA1>
16.78553

>  <SMR_VSA2>
3.1243138

>  <SMR_VSA3>
9.8717566

>  <SMR_VSA4>
2.7567475

>  <SMR_VSA5>
141.14548

>  <SMR_VSA6>
26.455109

>  <SMR_VSA7>
72.04583

>  <TPSA>
32.669998

>  <VAdjEq>
0.49991596

>  <VAdjMa>
5.4594316

>  <VDistEq>
2.8391504

>  <VDistMa>
8.39081

>  <vdw_area>
274.03717

>  <vdw_vol>
372.15402

>  <vsa_acc>
19.249496

>  <vsa_acid>
0

>  <vsa_base>
0

>  <vsa_don>
0

>  <vsa_hyd>
225.88525

>  <vsa_other>
19.649082

>  <vsa_pol>
19.249496

>  <Weight>
284.746

>  <weinerPath>
726

>  <weinerPol>
36

>  <zagreb>
106

$$$$