Clc1cc2N=C(N3CCN(CC3)C)c3c(Nc2cc1)cccc3
  MOE2013           2D

 23 26  0  0  0  0  0  0  0  0999 V2000
    0.0000    0.0000    0.0000 Cl  0  0  0  0  0  0  0  0  0  0  0  0
    0.7960   -1.2710    0.0000 C   0  0  0  0  0  0  0  0  0  0  0  0
    2.2950   -1.2170    0.0000 C   0  0  0  0  0  0  0  0  0  0  0  0
    3.0920   -2.4880    0.0000 C   0  0  0  0  0  0  0  0  0  0  0  0
    4.5660   -2.2110    0.0000 N   0  0  0  0  0  0  0  0  0  0  0  0
    5.7020   -3.1900    0.0000 C   0  0  0  0  0  0  0  0  0  0  0  0
    7.0780   -2.5910    0.0000 N   0  0  0  0  0  0  0  0  0  0  0  0
    7.2470   -1.1010    0.0000 C   0  0  0  0  0  0  0  0  0  0  0  0
    8.6230   -0.5030    0.0000 C   0  0  0  0  0  0  0  0  0  0  0  0
    9.8290   -1.3940    0.0000 N   0  0  0  0  0  0  0  0  0  0  0  0
    9.6590   -2.8850    0.0000 C   0  0  0  0  0  0  0  0  0  0  0  0
    8.2840   -3.4830    0.0000 C   0  0  0  0  0  0  0  0  0  0  0  0
   11.2040   -0.7960    0.0000 C   0  0  0  0  0  0  0  0  0  0  0  0
    5.6440   -4.6890    0.0000 C   0  0  0  0  0  0  0  0  0  0  0  0
    4.4360   -5.5780    0.0000 C   0  0  0  0  0  0  0  0  0  0  0  0
    2.9860   -5.1900    0.0000 N   0  0  0  0  0  0  0  0  0  0  0  0
    2.3890   -3.8140    0.0000 C   0  0  0  0  0  0  0  0  0  0  0  0
    0.8900   -3.8680    0.0000 C   0  0  0  0  0  0  0  0  0  0  0  0
    0.0940   -2.5960    0.0000 C   0  0  0  0  0  0  0  0  0  0  0  0
    4.6020   -7.0690    0.0000 C   0  0  0  0  0  0  0  0  0  0  0  0
    5.9760   -7.6700    0.0000 C   0  0  0  0  0  0  0  0  0  0  0  0
    7.1840   -6.7810    0.0000 C   0  0  0  0  0  0  0  0  0  0  0  0
    7.0180   -5.2900    0.0000 C   0  0  0  0  0  0  0  0  0  0  0  0
  1  2  1  0  0  0  0
  2  3  1  0  0  0  0
  2 19  2  0  0  0  0
  3  4  2  0  0  0  0
  4  5  1  0  0  0  0
  4 17  1  0  0  0  0
  5  6  2  0  0  0  0
  6  7  1  0  0  0  0
  6 14  1  0  0  0  0
  7  8  1  0  0  0  0
  7 12  1  0  0  0  0
  8  9  1  0  0  0  0
  9 10  1  0  0  0  0
 10 11  1  0  0  0  0
 10 13  1  0  0  0  0
 11 12  1  0  0  0  0
 14 15  1  0  0  0  0
 14 23  2  0  0  0  0
 15 16  1  0  0  0  0
 15 20  2  0  0  0  0
 16 17  1  0  0  0  0
 17 18  2  0  0  0  0
 18 19  1  0  0  0  0
 20 21  1  0  0  0  0
 21 22  2  0  0  0  0
 22 23  1  0  0  0  0
M  END
>  <Index>
1505

>  <ID>
HT0539

>  <class>
1

>  <apol>
50.929066

>  <ast_fraglike>
0

>  <ast_fraglike_ext>
0

>  <ast_violation>
2

>  <ast_violation_ext>
2

>  <a_acc>
2

>  <a_acid>
0

>  <a_aro>
12

>  <a_base>
0

>  <a_count>
42

>  <a_don>
1

>  <a_donacc>
3

>  <a_heavy>
23

>  <a_hyd>
18

>  <a_IC>
62.708057

>  <a_ICM>
1.493049

>  <a_nB>
0

>  <a_nBr>
0

>  <a_nC>
18

>  <a_nCl>
1

>  <a_nF>
0

>  <a_nH>
19

>  <a_nI>
0

>  <a_nN>
4

>  <a_nO>
0

>  <a_nP>
0

>  <a_nS>
0

>  <balabanJ>
1.543957

>  <BCUT_PEOE_0>
-2.7493777

>  <BCUT_PEOE_1>
-0.56545931

>  <BCUT_PEOE_2>
0.60362589

>  <BCUT_PEOE_3>
2.6450422

>  <BCUT_SLOGP_0>
-2.8710952

>  <BCUT_SLOGP_1>
-0.42807102

>  <BCUT_SLOGP_2>
0.77848005

>  <BCUT_SLOGP_3>
2.5403962

>  <BCUT_SMR_0>
-2.4586172

>  <BCUT_SMR_1>
-0.37842476

>  <BCUT_SMR_2>
0.83739358

>  <BCUT_SMR_3>
2.9281926

>  <bpol>
27.130934

>  <b_1rotN>
1

>  <b_1rotR>
0.03846154

>  <b_ar>
12

>  <b_count>
45

>  <b_double>
1

>  <b_heavy>
26

>  <b_max1len>
2

>  <b_rotN>
1

>  <b_rotR>
0.03846154

>  <b_single>
32

>  <b_triple>
0

>  <chi0>
15.811191

>  <chi0v>
13.845413

>  <chi0v_C>
10.869879

>  <chi0_C>
12.242276

>  <chi1>
11.20351

>  <chi1v>
8.265276

>  <chi1v_C>
4.8153839

>  <chi1_C>
6.4494896

>  <chiral>
0

>  <chiral_u>
0

>  <density>
0.74258256

>  <diameter>
10

>  <FCharge>
0

>  <GCUT_PEOE_0>
-0.86638808

>  <GCUT_PEOE_1>
-0.38246936

>  <GCUT_PEOE_2>
0.041141126

>  <GCUT_PEOE_3>
2.7048855

>  <GCUT_SLOGP_0>
-0.96674621

>  <GCUT_SLOGP_1>
-0.29420286

>  <GCUT_SLOGP_2>
0.16506132

>  <GCUT_SLOGP_3>
2.7835379

>  <GCUT_SMR_0>
-0.51363444

>  <GCUT_SMR_1>
-0.17246203

>  <GCUT_SMR_2>
0.20424521

>  <GCUT_SMR_3>
3.005801

>  <Kier1>
16.467455

>  <Kier2>
7.0869246

>  <Kier3>
3.52

>  <KierA1>
12.901339

>  <KierA2>
5.486237

>  <KierA3>
2.7003298

>  <KierFlex>
3.0773826

>  <lip_acc>
4

>  <lip_don>
1

>  <lip_druglike>
1

>  <lip_violation>
0

>  <logP(o/w)>
3.075

>  <logS>
-4.0994902

>  <mr>
9.2331457

>  <mutagenic>
0

>  <nmol>
1

>  <opr_brigid>
23

>  <opr_leadlike>
1

>  <opr_nring>
4

>  <opr_nrot>
3

>  <opr_violation>
0

>  <PC+>
0

>  <PC->
0

>  <PEOE_PC+>
1.5475407

>  <PEOE_PC->
-1.5475407

>  <PEOE_RPC+>
0.089851193

>  <PEOE_RPC->
0.2280549

>  <PEOE_VSA+0>
102.75439

>  <PEOE_VSA+1>
53.618797

>  <PEOE_VSA+2>
19.809576

>  <PEOE_VSA+3>
0

>  <PEOE_VSA+4>
0

>  <PEOE_VSA+5>
0

>  <PEOE_VSA+6>
0

>  <PEOE_VSA-0>
84.513206

>  <PEOE_VSA-1>
54.091755

>  <PEOE_VSA-2>
0

>  <PEOE_VSA-3>
0

>  <PEOE_VSA-4>
5.6825762

>  <PEOE_VSA-5>
0.13689101

>  <PEOE_VSA-6>
0

>  <PEOE_VSA_FHYD>
0.9818486

>  <PEOE_VSA_FNEG>
0.45047158

>  <PEOE_VSA_FPNEG>
0.018151393

>  <PEOE_VSA_FPOL>
0.018151393

>  <PEOE_VSA_FPOS>
0.54952842

>  <PEOE_VSA_FPPOS>
0

>  <PEOE_VSA_HYD>
314.78772

>  <PEOE_VSA_NEG>
144.42442

>  <PEOE_VSA_PNEG>
5.8194671

>  <PEOE_VSA_POL>
5.8194671

>  <PEOE_VSA_POS>
176.18277

>  <PEOE_VSA_PPOS>
0

>  <petitjean>
0.5

>  <petitjeanSC>
1

>  <Q_PC+>
0

>  <Q_PC->
0

>  <Q_RPC+>
0

>  <Q_RPC->
0

>  <Q_VSA_FHYD>
1

>  <Q_VSA_FNEG>
0

>  <Q_VSA_FPNEG>
0

>  <Q_VSA_FPOL>
0

>  <Q_VSA_FPOS>
1

>  <Q_VSA_FPPOS>
0

>  <Q_VSA_HYD>
320.60721

>  <Q_VSA_NEG>
0

>  <Q_VSA_PNEG>
0

>  <Q_VSA_POL>
0

>  <Q_VSA_POS>
320.60721

>  <Q_VSA_PPOS>
0

>  <radius>
5

>  <reactive>
0

>  <rings>
4

>  <RPC+>
0

>  <RPC->
0

>  <rsynth>
1

>  <SlogP>
3.7227001

>  <SlogP_VSA0>
0

>  <SlogP_VSA1>
26.587299

>  <SlogP_VSA2>
0

>  <SlogP_VSA3>
73.758316

>  <SlogP_VSA4>
3.185575

>  <SlogP_VSA5>
49.682716

>  <SlogP_VSA6>
3.5006065

>  <SlogP_VSA7>
123.50229

>  <SlogP_VSA8>
0

>  <SlogP_VSA9>
47.418888

>  <SMR>
9.6443701

>  <SMR_VSA0>
0

>  <SMR_VSA1>
23.034157

>  <SMR_VSA2>
0

>  <SMR_VSA3>
6.6861815

>  <SMR_VSA4>
26.280993

>  <SMR_VSA5>
123.50229

>  <SMR_VSA6>
76.086235

>  <SMR_VSA7>
72.04583

>  <TPSA>
30.870001

>  <VAdjEq>
0.46357921

>  <VAdjMa>
5.7004399

>  <VDistEq>
3.0642488

>  <VDistMa>
8.7875357

>  <vdw_area>
320.60721

>  <vdw_vol>
440.12747

>  <vsa_acc>
5.6825762

>  <vsa_acid>
0

>  <vsa_base>
0

>  <vsa_don>
5.6825762

>  <vsa_hyd>
282.16583

>  <vsa_other>
11.190562

>  <vsa_pol>
11.365152

>  <Weight>
326.83099

>  <weinerPath>
1082

>  <weinerPol>
41

>  <zagreb>
126

$$$$