S(c1n(cnc1[N+](=O)[O-])C)c1ncnc2nc[nH]c12
  MOE2013           2D

 19 21  0  0  0  0  0  0  0  0999 V2000
    0.0000    0.0000    0.0000 S   0  0  0  0  0  0  0  0  0  0  0  0
    0.7510   -1.2990    0.0000 C   0  0  0  0  0  0  0  0  0  0  0  0
    0.1410   -2.6690    0.0000 N   0  0  0  0  0  0  0  0  0  0  0  0
    1.2570   -3.6720    0.0000 C   0  0  0  0  0  0  0  0  0  0  0  0
    2.5550   -2.9220    0.0000 N   0  0  0  0  0  0  0  0  0  0  0  0
    2.2430   -1.4550    0.0000 C   0  0  0  0  0  0  0  0  0  0  0  0
    3.2460   -0.3390    0.0000 N   0  3  0  0  0  0  0  0  0  0  0  0
    2.7810    1.0870    0.0000 O   0  0  0  0  0  0  0  0  0  0  0  0
    4.7130   -0.6500    0.0000 O   0  5  0  0  0  0  0  0  0  0  0  0
   -1.3260   -2.9820    0.0000 C   0  0  0  0  0  0  0  0  0  0  0  0
   -1.5000   -0.0010    0.0000 C   0  0  0  0  0  0  0  0  0  0  0  0
   -2.2490   -1.3000    0.0000 N   0  0  0  0  0  0  0  0  0  0  0  0
   -3.7490   -1.3010    0.0000 C   0  0  0  0  0  0  0  0  0  0  0  0
   -4.5000   -0.0030    0.0000 N   0  0  0  0  0  0  0  0  0  0  0  0
   -3.7510    1.2970    0.0000 C   0  0  0  0  0  0  0  0  0  0  0  0
   -4.2150    2.7230    0.0000 N   0  0  0  0  0  0  0  0  0  0  0  0
   -3.0020    3.6060    0.0000 C   0  0  0  0  0  0  0  0  0  0  0  0
   -1.7880    2.7250    0.0000 N   0  0  0  0  0  0  0  0  0  0  0  0
   -2.2510    1.2980    0.0000 C   0  0  0  0  0  0  0  0  0  0  0  0
  1  2  1  0  0  0  0
  1 11  1  0  0  0  0
  2  3  1  0  0  0  0
  2  6  2  0  0  0  0
  3  4  1  0  0  0  0
  3 10  1  0  0  0  0
  4  5  2  0  0  0  0
  5  6  1  0  0  0  0
  6  7  1  0  0  0  0
  7  8  2  0  0  0  0
  7  9  1  0  0  0  0
 11 12  1  0  0  0  0
 11 19  2  0  0  0  0
 12 13  2  0  0  0  0
 13 14  1  0  0  0  0
 14 15  2  0  0  0  0
 15 16  1  0  0  0  0
 15 19  1  0  0  0  0
 16 17  2  0  0  0  0
 17 18  1  0  0  0  0
 18 19  1  0  0  0  0
M  CHG  1   7   1
M  CHG  1   9  -1
M  END
>  <Index>
1442

>  <ID>
HT0213

>  <class>
1

>  <apol>
32.711552

>  <ast_fraglike>
0

>  <ast_fraglike_ext>
0

>  <ast_violation>
1

>  <ast_violation_ext>
1

>  <a_acc>
5

>  <a_acid>
0

>  <a_aro>
14

>  <a_base>
0

>  <a_count>
26

>  <a_don>
2

>  <a_donacc>
7

>  <a_heavy>
19

>  <a_hyd>
6

>  <a_IC>
52.379139

>  <a_ICM>
2.0145822

>  <a_nB>
0

>  <a_nBr>
0

>  <a_nC>
9

>  <a_nCl>
0

>  <a_nF>
0

>  <a_nH>
7

>  <a_nI>
0

>  <a_nN>
7

>  <a_nO>
2

>  <a_nP>
0

>  <a_nS>
1

>  <balabanJ>
1.6645358

>  <BCUT_PEOE_0>
-2.1904109

>  <BCUT_PEOE_1>
-0.54032129

>  <BCUT_PEOE_2>
0.64188659

>  <BCUT_PEOE_3>
2.3267589

>  <BCUT_SLOGP_0>
-2.1389122

>  <BCUT_SLOGP_1>
-0.48006645

>  <BCUT_SLOGP_2>
0.69107044

>  <BCUT_SLOGP_3>
2.4113948

>  <BCUT_SMR_0>
-1.9584546

>  <BCUT_SMR_1>
-0.34156439

>  <BCUT_SMR_2>
0.87763941

>  <BCUT_SMR_3>
2.5727165

>  <bpol>
19.10845

>  <b_1rotN>
3

>  <b_1rotR>
0.14285715

>  <b_ar>
15

>  <b_count>
28

>  <b_double>
1

>  <b_heavy>
21

>  <b_max1len>
2

>  <b_rotN>
3

>  <b_rotR>
0.14285715

>  <b_single>
12

>  <b_triple>
0

>  <chi0>
13.405413

>  <chi0v>
10.456573

>  <chi0v_C>
5.2320509

>  <chi0_C>
6.0080719

>  <chi1>
9.1647034

>  <chi1v>
5.9584174

>  <chi1v_C>
0.75

>  <chi1_C>
1

>  <chiral>
0

>  <chiral_u>
0

>  <density>
0.92871672

>  <diameter>
8

>  <FCharge>
0

>  <GCUT_PEOE_0>
-0.82919872

>  <GCUT_PEOE_1>
-0.49748722

>  <GCUT_PEOE_2>
0.081541806

>  <GCUT_PEOE_3>
2.2821527

>  <GCUT_SLOGP_0>
-0.81021786

>  <GCUT_SLOGP_1>
-0.30038774

>  <GCUT_SLOGP_2>
0.17920586

>  <GCUT_SLOGP_3>
2.3607941

>  <GCUT_SMR_0>
-0.49305633

>  <GCUT_SMR_1>
-0.1790707

>  <GCUT_SMR_2>
0.28820339

>  <GCUT_SMR_3>
2.554122

>  <Kier1>
13.959184

>  <Kier2>
5.7800002

>  <Kier3>
2.7412255

>  <KierA1>
10.051

>  <KierA2>
4.0788455

>  <KierA3>
1.904129

>  <KierFlex>
2.1577094

>  <lip_acc>
9

>  <lip_don>
1

>  <lip_druglike>
1

>  <lip_violation>
0

>  <logP(o/w)>
1.03306

>  <logS>
-4.5394402

>  <mr>
6.674623

>  <mutagenic>
1

>  <nmol>
1

>  <opr_brigid>
15

>  <opr_leadlike>
1

>  <opr_nring>
3

>  <opr_nrot>
3

>  <opr_violation>
1

>  <PC+>
0

>  <PC->
0

>  <PEOE_PC+>
2.2065444

>  <PEOE_PC->
-2.2065444

>  <PEOE_RPC+>
0.1566952

>  <PEOE_RPC->
0.17765886

>  <PEOE_VSA+0>
0

>  <PEOE_VSA+1>
57.271774

>  <PEOE_VSA+2>
49.408249

>  <PEOE_VSA+3>
19.809576

>  <PEOE_VSA+4>
29.91254

>  <PEOE_VSA+5>
0

>  <PEOE_VSA+6>
11.190562

>  <PEOE_VSA-0>
19.760618

>  <PEOE_VSA-1>
9.7106104

>  <PEOE_VSA-2>
0

>  <PEOE_VSA-3>
0

>  <PEOE_VSA-4>
17.047728

>  <PEOE_VSA-5>
0

>  <PEOE_VSA-6>
34.06794

>  <PEOE_VSA_FHYD>
0.62841922

>  <PEOE_VSA_FNEG>
0.32471201

>  <PEOE_VSA_FPNEG>
0.2059624

>  <PEOE_VSA_FPOL>
0.37158078

>  <PEOE_VSA_FPOS>
0.67528796

>  <PEOE_VSA_FPPOS>
0.16561837

>  <PEOE_VSA_HYD>
155.96083

>  <PEOE_VSA_NEG>
80.586899

>  <PEOE_VSA_PNEG>
51.115669

>  <PEOE_VSA_POL>
92.218773

>  <PEOE_VSA_POS>
167.5927

>  <PEOE_VSA_PPOS>
41.103104

>  <petitjean>
0.5

>  <petitjeanSC>
1

>  <Q_PC+>
0

>  <Q_PC->
0

>  <Q_RPC+>
0

>  <Q_RPC->
0

>  <Q_VSA_FHYD>
1

>  <Q_VSA_FNEG>
0

>  <Q_VSA_FPNEG>
0

>  <Q_VSA_FPOL>
0

>  <Q_VSA_FPOS>
1

>  <Q_VSA_FPPOS>
0

>  <Q_VSA_HYD>
248.1796

>  <Q_VSA_NEG>
0

>  <Q_VSA_PNEG>
0

>  <Q_VSA_POL>
0

>  <Q_VSA_POS>
248.1796

>  <Q_VSA_PPOS>
0

>  <radius>
4

>  <reactive>
1

>  <rings>
3

>  <RPC+>
0

>  <RPC->
0

>  <rsynth>
1

>  <SlogP>
1.505

>  <SlogP_VSA0>
0

>  <SlogP_VSA1>
76.126823

>  <SlogP_VSA2>
16.78553

>  <SlogP_VSA3>
50.935009

>  <SlogP_VSA4>
0

>  <SlogP_VSA5>
2.243813

>  <SlogP_VSA6>
0

>  <SlogP_VSA7>
54.216034

>  <SlogP_VSA8>
0

>  <SlogP_VSA9>
67.444649

>  <SMR>
6.5951099

>  <SMR_VSA0>
7.0856161

>  <SMR_VSA1>
69.041214

>  <SMR_VSA2>
69.964348

>  <SMR_VSA3>
0

>  <SMR_VSA4>
6.187367

>  <SMR_VSA5>
50.35659

>  <SMR_VSA6>
0

>  <SMR_VSA7>
65.11673

>  <TPSA>
118.1

>  <VAdjEq>
0.51875818

>  <VAdjMa>
5.3923173

>  <VDistEq>
2.9087162

>  <VDistMa>
8.2176237

>  <vdw_area>
248.1796

>  <vdw_vol>
298.54959

>  <vsa_acc>
17.047728

>  <vsa_acid>
0

>  <vsa_base>
0

>  <vsa_don>
0

>  <vsa_hyd>
81.738892

>  <vsa_other>
130.68373

>  <vsa_pol>
28.41288

>  <Weight>
277.26801

>  <weinerPath>
676

>  <weinerPol>
28

>  <zagreb>
102

$$$$