Clc1ccc(cc1)C(N1CCN(CC1)CCOCCO)c1ccccc1
  MOE2013           2D

 26 28  0  0  1  0  0  0  0  0999 V2000
    0.0000    0.0000    0.0000 Cl  0  0  0  0  0  0  0  0  0  0  0  0
    1.2970   -0.7540    0.0000 C   0  0  0  0  0  0  0  0  0  0  0  0
    1.2920   -2.2540    0.0000 C   0  0  0  0  0  0  0  0  0  0  0  0
    2.5880   -3.0080    0.0000 C   0  0  0  0  0  0  0  0  0  0  0  0
    3.8900   -2.2630    0.0000 C   0  0  0  0  0  0  0  0  0  0  0  0
    3.8950   -0.7630    0.0000 C   0  0  0  0  0  0  0  0  0  0  0  0
    2.5980   -0.0080    0.0000 C   0  0  0  0  0  0  0  0  0  0  0  0
    5.1860   -3.0170    0.0000 C   0  0  3  0  0  0  0  0  0  0  0  0
    6.4880   -2.2710    0.0000 N   0  0  0  0  0  0  0  0  0  0  0  0
    6.4930   -0.7710    0.0000 C   0  0  0  0  0  0  0  0  0  0  0  0
    7.7940   -0.0250    0.0000 C   0  0  0  0  0  0  0  0  0  0  0  0
    9.0910   -0.7790    0.0000 N   0  0  0  0  0  0  0  0  0  0  0  0
    9.0860   -2.2790    0.0000 C   0  0  0  0  0  0  0  0  0  0  0  0
    7.7850   -3.0250    0.0000 C   0  0  0  0  0  0  0  0  0  0  0  0
   10.3920   -0.0330    0.0000 C   0  0  0  0  0  0  0  0  0  0  0  0
   11.6890   -0.7880    0.0000 C   0  0  0  0  0  0  0  0  0  0  0  0
   12.9900   -0.0420    0.0000 O   0  0  0  0  0  0  0  0  0  0  0  0
   14.2870   -0.7960    0.0000 C   0  0  0  0  0  0  0  0  0  0  0  0
   15.5880   -0.0500    0.0000 C   0  0  0  0  0  0  0  0  0  0  0  0
   16.8850   -0.8040    0.0000 O   0  0  0  0  0  0  0  0  0  0  0  0
    5.1820   -4.5170    0.0000 C   0  0  0  0  0  0  0  0  0  0  0  0
    3.8800   -5.2630    0.0000 C   0  0  0  0  0  0  0  0  0  0  0  0
    3.8750   -6.7630    0.0000 C   0  0  0  0  0  0  0  0  0  0  0  0
    5.1720   -7.5170    0.0000 C   0  0  0  0  0  0  0  0  0  0  0  0
    6.4730   -6.7710    0.0000 C   0  0  0  0  0  0  0  0  0  0  0  0
    6.4780   -5.2710    0.0000 C   0  0  0  0  0  0  0  0  0  0  0  0
  1  2  1  0  0  0  0
  2  3  1  0  0  0  0
  2  7  2  0  0  0  0
  3  4  2  0  0  0  0
  4  5  1  0  0  0  0
  5  6  2  0  0  0  0
  5  8  1  0  0  0  0
  6  7  1  0  0  0  0
  8  9  1  0  0  0  0
  8 21  1  0  0  0  0
  9 10  1  0  0  0  0
  9 14  1  0  0  0  0
 10 11  1  0  0  0  0
 11 12  1  0  0  0  0
 12 13  1  0  0  0  0
 12 15  1  0  0  0  0
 13 14  1  0  0  0  0
 15 16  1  0  0  0  0
 16 17  1  0  0  0  0
 17 18  1  0  0  0  0
 18 19  1  0  0  0  0
 19 20  1  0  0  0  0
 21 22  1  0  0  0  0
 21 26  2  0  0  0  0
 22 23  2  0  0  0  0
 23 24  1  0  0  0  0
 24 25  2  0  0  0  0
 25 26  1  0  0  0  0
M  END
>  <Index>
1593

>  <ID>
HT1064

>  <class>
1

>  <apol>
60.947411

>  <ast_fraglike>
0

>  <ast_fraglike_ext>
0

>  <ast_violation>
3

>  <ast_violation_ext>
4

>  <a_acc>
4

>  <a_acid>
0

>  <a_aro>
12

>  <a_base>
0

>  <a_count>
53

>  <a_don>
1

>  <a_donacc>
5

>  <a_heavy>
26

>  <a_hyd>
22

>  <a_IC>
78.959152

>  <a_ICM>
1.4897954

>  <a_nB>
0

>  <a_nBr>
0

>  <a_nC>
21

>  <a_nCl>
1

>  <a_nF>
0

>  <a_nH>
27

>  <a_nI>
0

>  <a_nN>
2

>  <a_nO>
2

>  <a_nP>
0

>  <a_nS>
0

>  <balabanJ>
1.5200155

>  <BCUT_PEOE_0>
-2.7872989

>  <BCUT_PEOE_1>
-0.61477453

>  <BCUT_PEOE_2>
0.65884328

>  <BCUT_PEOE_3>
2.6887286

>  <BCUT_SLOGP_0>
-2.8927591

>  <BCUT_SLOGP_1>
-0.49763528

>  <BCUT_SLOGP_2>
0.76290953

>  <BCUT_SLOGP_3>
2.6316428

>  <BCUT_SMR_0>
-2.503299

>  <BCUT_SMR_1>
-0.46306258

>  <BCUT_SMR_2>
0.85431087

>  <BCUT_SMR_3>
2.964921

>  <bpol>
35.812588

>  <b_1rotN>
8

>  <b_1rotR>
0.2857143

>  <b_ar>
12

>  <b_count>
55

>  <b_double>
0

>  <b_heavy>
28

>  <b_max1len>
7

>  <b_rotN>
8

>  <b_rotR>
0.2857143

>  <b_single>
43

>  <b_triple>
0

>  <chi0>
18.192024

>  <chi0v>
15.814139

>  <chi0v_C>
12.930357

>  <chi0_C>
14.330216

>  <chi1>
12.775188

>  <chi1v>
9.6092634

>  <chi1v_C>
6.309401

>  <chi1_C>
8.1161566

>  <chiral>
1

>  <chiral_u>
1

>  <density>
0.7199384

>  <diameter>
15

>  <FCharge>
0

>  <GCUT_PEOE_0>
-0.85095686

>  <GCUT_PEOE_1>
-0.38179877

>  <GCUT_PEOE_2>
0.072496027

>  <GCUT_PEOE_3>
2.8210945

>  <GCUT_SLOGP_0>
-0.96416014

>  <GCUT_SLOGP_1>
-0.26386139

>  <GCUT_SLOGP_2>
0.155642

>  <GCUT_SLOGP_3>
2.8640642

>  <GCUT_SMR_0>
-0.51974344

>  <GCUT_SMR_1>
-0.20389295

>  <GCUT_SMR_2>
0.19305076

>  <GCUT_SMR_3>
3.0838208

>  <Kier1>
20.727041

>  <Kier2>
11.111111

>  <Kier3>
6.2608695

>  <KierA1>
18.132496

>  <KierA2>
9.6656895

>  <KierA3>
5.4245229

>  <KierFlex>
6.7408876

>  <lip_acc>
4

>  <lip_don>
1

>  <lip_druglike>
1

>  <lip_violation>
0

>  <logP(o/w)>
3.2049999

>  <logS>
-3.7453499

>  <mr>
10.739425

>  <mutagenic>
0

>  <nmol>
1

>  <opr_brigid>
18

>  <opr_leadlike>
1

>  <opr_nring>
3

>  <opr_nrot>
10

>  <opr_violation>
0

>  <PC+>
0

>  <PC->
0

>  <PEOE_PC+>
1.9860978

>  <PEOE_PC->
-1.9860978

>  <PEOE_RPC+>
0.10548013

>  <PEOE_RPC->
0.19774711

>  <PEOE_VSA+0>
113.13523

>  <PEOE_VSA+1>
116.24602

>  <PEOE_VSA+2>
0

>  <PEOE_VSA+3>
0

>  <PEOE_VSA+4>
10.324173

>  <PEOE_VSA+5>
0

>  <PEOE_VSA+6>
0

>  <PEOE_VSA-0>
28.926888

>  <PEOE_VSA-1>
115.36627

>  <PEOE_VSA-2>
0

>  <PEOE_VSA-3>
0

>  <PEOE_VSA-4>
0

>  <PEOE_VSA-5>
0

>  <PEOE_VSA-6>
10.271297

>  <PEOE_VSA_FHYD>
0.94776303

>  <PEOE_VSA_FNEG>
0.39202705

>  <PEOE_VSA_FPNEG>
0.026051436

>  <PEOE_VSA_FPOL>
0.052236982

>  <PEOE_VSA_FPOS>
0.60797292

>  <PEOE_VSA_FPPOS>
0.026185548

>  <PEOE_VSA_HYD>
373.67441

>  <PEOE_VSA_NEG>
154.56445

>  <PEOE_VSA_PNEG>
10.271297

>  <PEOE_VSA_POL>
20.595469

>  <PEOE_VSA_POS>
239.70541

>  <PEOE_VSA_PPOS>
10.324173

>  <petitjean>
0.46666667

>  <petitjeanSC>
0.875

>  <Q_PC+>
0

>  <Q_PC->
0

>  <Q_RPC+>
0

>  <Q_RPC->
0

>  <Q_VSA_FHYD>
1

>  <Q_VSA_FNEG>
0

>  <Q_VSA_FPNEG>
0

>  <Q_VSA_FPOL>
0

>  <Q_VSA_FPOS>
1

>  <Q_VSA_FPPOS>
0

>  <Q_VSA_HYD>
394.26987

>  <Q_VSA_NEG>
0

>  <Q_VSA_PNEG>
0

>  <Q_VSA_POL>
0

>  <Q_VSA_POS>
394.26987

>  <Q_VSA_PPOS>
0

>  <radius>
8

>  <reactive>
0

>  <rings>
3

>  <RPC+>
0

>  <RPC->
0

>  <rsynth>
1

>  <SlogP>
3.1514001

>  <SlogP_VSA0>
25.385227

>  <SlogP_VSA1>
6.2486277

>  <SlogP_VSA2>
10.999887

>  <SlogP_VSA3>
154.97667

>  <SlogP_VSA4>
6.37115

>  <SlogP_VSA5>
0

>  <SlogP_VSA6>
3.5006065

>  <SlogP_VSA7>
158.78867

>  <SlogP_VSA8>
3.9819686

>  <SlogP_VSA9>
39.148643

>  <SMR>
10.57658

>  <SMR_VSA0>
10.999887

>  <SMR_VSA1>
31.633854

>  <SMR_VSA2>
0

>  <SMR_VSA3>
13.853725

>  <SMR_VSA4>
0

>  <SMR_VSA5>
158.78867

>  <SMR_VSA6>
154.97667

>  <SMR_VSA7>
39.148643

>  <TPSA>
35.939999

>  <VAdjEq>
0.41210872

>  <VAdjMa>
5.8073549

>  <VDistEq>
3.6059597

>  <VDistMa>
9.091013

>  <vdw_area>
394.26987

>  <vdw_vol>
520.75568

>  <vsa_acc>
2.503756

>  <vsa_acid>
0

>  <vsa_base>
0

>  <vsa_don>
0

>  <vsa_hyd>
355.16772

>  <vsa_other>
0

>  <vsa_pol>
16.070677

>  <Weight>
374.91199

>  <weinerPath>
1831

>  <weinerPol>
37

>  <zagreb>
128

$$$$