S([C@H]1C[C@H](NC1)C(=O)N(C)C)C=1[C@@H]([C@H]2N(C=1C(O)=O)C(=O)[C@@H]2[C@H](O)C)C
  MOE2013           2D

 26 28  0  0  1  0  0  0  0  0999 V2000
    0.0000    0.0000    0.0000 S   0  0  0  0  0  0  0  0  0  0  0  0
    1.2590    0.8150    0.0000 C   0  0  1  0  0  0  0  0  0  0  0  0
    2.6590    0.2760    0.0000 C   0  0  0  0  0  0  0  0  0  0  0  0
    3.6040    1.4410    0.0000 C   0  0  2  0  0  0  0  0  0  0  0  0
    2.7890    2.7000    0.0000 N   0  0  0  0  0  0  0  0  0  0  0  0
    1.3390    2.3130    0.0000 C   0  0  0  0  0  0  0  0  0  0  0  0
    5.1020    1.3600    0.0000 C   0  0  0  0  0  0  0  0  0  0  0  0
    5.7810    0.0230    0.0000 O   0  0  0  0  0  0  0  0  0  0  0  0
    5.9200    2.6180    0.0000 N   0  0  0  0  0  0  0  0  0  0  0  0
    5.2410    3.9550    0.0000 C   0  0  0  0  0  0  0  0  0  0  0  0
    7.4180    2.5370    0.0000 C   0  0  0  0  0  0  0  0  0  0  0  0
   -1.3360    0.6830    0.0000 C   0  0  0  0  0  0  0  0  0  0  0  0
   -1.5690    2.1640    0.0000 C   0  0  1  0  0  0  0  0  0  0  0  0
   -3.0500    2.4010    0.0000 C   0  0  1  0  0  0  0  0  0  0  0  0
   -3.7320    1.0650    0.0000 N   0  0  0  0  0  0  0  0  0  0  0  0
   -2.6730    0.0030    0.0000 C   0  0  0  0  0  0  0  0  0  0  0  0
   -2.9090   -1.4780    0.0000 C   0  0  0  0  0  0  0  0  0  0  0  0
   -1.7450   -2.4230    0.0000 O   0  0  0  0  0  0  0  0  0  0  0  0
   -4.3100   -2.0140    0.0000 O   0  0  0  0  0  0  0  0  0  0  0  0
   -5.0680    1.7480    0.0000 C   0  0  0  0  0  0  0  0  0  0  0  0
   -6.4950    1.2860    0.0000 O   0  0  0  0  0  0  0  0  0  0  0  0
   -4.3850    3.0830    0.0000 C   0  0  2  0  0  0  0  0  0  0  0  0
   -4.8470    4.5110    0.0000 C   0  0  2  0  0  0  0  0  0  0  0  0
   -6.3140    4.8240    0.0000 O   0  0  0  0  0  0  0  0  0  0  0  0
   -3.8420    5.6240    0.0000 C   0  0  0  0  0  0  0  0  0  0  0  0
   -0.5070    3.2240    0.0000 C   0  0  0  0  0  0  0  0  0  0  0  0
  1 12  1  0  0  0  0
  2  1  1  6  0  0  0
  2  3  1  0  0  0  0
  2  6  1  0  0  0  0
  3  4  1  0  0  0  0
  4  5  1  0  0  0  0
  4  7  1  6  0  0  0
  5  6  1  0  0  0  0
  7  8  2  0  0  0  0
  7  9  1  0  0  0  0
  9 10  1  0  0  0  0
  9 11  1  0  0  0  0
 12 13  1  0  0  0  0
 12 16  2  0  0  0  0
 13 14  1  0  0  0  0
 13 26  1  1  0  0  0
 14 15  1  1  0  0  0
 14 22  1  0  0  0  0
 15 16  1  0  0  0  0
 15 20  1  0  0  0  0
 16 17  1  0  0  0  0
 17 18  1  0  0  0  0
 17 19  2  0  0  0  0
 20 21  2  0  0  0  0
 22 20  1  6  0  0  0
 22 23  1  0  0  0  0
 23 24  1  0  0  0  0
 23 25  1  6  0  0  0
M  END
>  <Index>
1638

>  <ID>
HT1316

>  <class>
1

>  <apol>
56.799824

>  <ast_fraglike>
0

>  <ast_fraglike_ext>
0

>  <ast_violation>
3

>  <ast_violation_ext>
5

>  <a_acc>
6

>  <a_acid>
0

>  <a_aro>
0

>  <a_base>
0

>  <a_count>
51

>  <a_don>
4

>  <a_donacc>
10

>  <a_heavy>
26

>  <a_hyd>
15

>  <a_IC>
87.345894

>  <a_ICM>
1.7126645

>  <a_nB>
0

>  <a_nBr>
0

>  <a_nC>
17

>  <a_nCl>
0

>  <a_nF>
0

>  <a_nH>
25

>  <a_nI>
0

>  <a_nN>
3

>  <a_nO>
5

>  <a_nP>
0

>  <a_nS>
1

>  <balabanJ>
1.6936814

>  <BCUT_PEOE_0>
-2.7329874

>  <BCUT_PEOE_1>
-0.4680233

>  <BCUT_PEOE_2>
0.51643997

>  <BCUT_PEOE_3>
2.8367743

>  <BCUT_SLOGP_0>
-2.860635

>  <BCUT_SLOGP_1>
-0.46874231

>  <BCUT_SLOGP_2>
0.51530796

>  <BCUT_SLOGP_3>
2.7708127

>  <BCUT_SMR_0>
-2.499064

>  <BCUT_SMR_1>
-0.34333003

>  <BCUT_SMR_2>
0.61937362

>  <BCUT_SMR_3>
3.0887849

>  <bpol>
37.104176

>  <b_1rotN>
6

>  <b_1rotR>
0.21428572

>  <b_ar>
0

>  <b_count>
53

>  <b_double>
4

>  <b_heavy>
28

>  <b_max1len>
4

>  <b_rotN>
6

>  <b_rotR>
0.21428572

>  <b_single>
49

>  <b_triple>
0

>  <chi0>
19.333981

>  <chi0v>
16.116659

>  <chi0v_C>
11.378315

>  <chi0_C>
11.765066

>  <chi1>
12.145642

>  <chi1v>
9.6248035

>  <chi1v_C>
4.745471

>  <chi1_C>
5.0461121

>  <chiral>
6

>  <chiral_u>
0

>  <density>
0.80449361

>  <diameter>
12

>  <FCharge>
0

>  <GCUT_PEOE_0>
-0.85731024

>  <GCUT_PEOE_1>
-0.40228146

>  <GCUT_PEOE_2>
0.05365821

>  <GCUT_PEOE_3>
2.8584256

>  <GCUT_SLOGP_0>
-1.1589053

>  <GCUT_SLOGP_1>
-0.38684419

>  <GCUT_SLOGP_2>
0.060298845

>  <GCUT_SLOGP_3>
2.8364048

>  <GCUT_SMR_0>
-0.54824108

>  <GCUT_SMR_1>
-0.20608151

>  <GCUT_SMR_2>
0.14793836

>  <GCUT_SMR_3>
3.1139634

>  <Kier1>
20.727041

>  <Kier2>
7.7879934

>  <Kier3>
3.5603333

>  <KierA1>
18.755146

>  <KierA2>
7.0176516

>  <KierA3>
3.1985865

>  <KierFlex>
5.0621953

>  <lip_acc>
8

>  <lip_don>
3

>  <lip_druglike>
1

>  <lip_violation>
0

>  <logP(o/w)>
-0.59600002

>  <logS>
-1.72841

>  <mr>
9.6667891

>  <mutagenic>
0

>  <nmol>
1

>  <opr_brigid>
13

>  <opr_leadlike>
1

>  <opr_nring>
3

>  <opr_nrot>
6

>  <opr_violation>
0

>  <PC+>
0

>  <PC->
0

>  <PEOE_PC+>
2.7037973

>  <PEOE_PC->
-2.7037973

>  <PEOE_RPC+>
0.11416993

>  <PEOE_RPC->
0.14469646

>  <PEOE_VSA+0>
145.52765

>  <PEOE_VSA+1>
23.993008

>  <PEOE_VSA+2>
15.318564

>  <PEOE_VSA+3>
0

>  <PEOE_VSA+4>
46.547409

>  <PEOE_VSA+5>
0

>  <PEOE_VSA+6>
14.708499

>  <PEOE_VSA-0>
27.44899

>  <PEOE_VSA-1>
18.747677

>  <PEOE_VSA-2>
19.760618

>  <PEOE_VSA-3>
0

>  <PEOE_VSA-4>
0

>  <PEOE_VSA-5>
40.700764

>  <PEOE_VSA-6>
15.671971

>  <PEOE_VSA_FHYD>
0.68072581

>  <PEOE_VSA_FNEG>
0.33203495

>  <PEOE_VSA_FPNEG>
0.15301001

>  <PEOE_VSA_FPOL>
0.31927419

>  <PEOE_VSA_FPOS>
0.66796505

>  <PEOE_VSA_FPPOS>
0.16626419

>  <PEOE_VSA_HYD>
250.79651

>  <PEOE_VSA_NEG>
122.33002

>  <PEOE_VSA_PNEG>
56.372734

>  <PEOE_VSA_POL>
117.62864

>  <PEOE_VSA_POS>
246.09512

>  <PEOE_VSA_PPOS>
61.255905

>  <petitjean>
0.5

>  <petitjeanSC>
1

>  <Q_PC+>
0

>  <Q_PC->
0

>  <Q_RPC+>
0

>  <Q_RPC->
0

>  <Q_VSA_FHYD>
1

>  <Q_VSA_FNEG>
0

>  <Q_VSA_FPNEG>
0

>  <Q_VSA_FPOL>
0

>  <Q_VSA_FPOS>
1

>  <Q_VSA_FPPOS>
0

>  <Q_VSA_HYD>
368.42514

>  <Q_VSA_NEG>
0

>  <Q_VSA_PNEG>
0

>  <Q_VSA_POL>
0

>  <Q_VSA_POS>
368.42514

>  <Q_VSA_PPOS>
0

>  <radius>
6

>  <reactive>
0

>  <rings>
3

>  <RPC+>
0

>  <RPC->
0

>  <rsynth>
1

>  <SlogP>
-0.308

>  <SlogP_VSA0>
43.395977

>  <SlogP_VSA1>
24.51166

>  <SlogP_VSA2>
88.795189

>  <SlogP_VSA3>
43.824806

>  <SlogP_VSA4>
8.8215923

>  <SlogP_VSA5>
70.10186

>  <SlogP_VSA6>
0

>  <SlogP_VSA7>
0

>  <SlogP_VSA8>
18.868406

>  <SlogP_VSA9>
98.871574

>  <SMR>
9.6112299

>  <SMR_VSA0>
71.586647

>  <SMR_VSA1>
31.633854

>  <SMR_VSA2>
52.217567

>  <SMR_VSA3>
21.516024

>  <SMR_VSA4>
0

>  <SMR_VSA5>
18.868406

>  <SMR_VSA6>
36.70261

>  <SMR_VSA7>
164.66594

>  <TPSA>
110.18

>  <VAdjEq>
0.41210872

>  <VAdjMa>
5.8073549

>  <VDistEq>
3.3929026

>  <VDistMa>
9.1161518

>  <vdw_area>
368.42514

>  <vdw_vol>
476.65884

>  <vsa_acc>
27.133842

>  <vsa_acid>
0

>  <vsa_base>
0

>  <vsa_don>
0

>  <vsa_hyd>
223.8279

>  <vsa_other>
40.607563

>  <vsa_pol>
73.517181

>  <Weight>
383.46899

>  <weinerPath>
1652

>  <weinerPol>
43

>  <zagreb>
142

$$$$