S1[C@H]2N(C(C(O)=O)=C(C1)COC(=O)N)C(=O)[C@H]2NC(=O)C(=N/OC)c1occc1
  MOE2013           2D

 29 31  0  0  1  0  0  0  0  0999 V2000
    0.0000    0.0000    0.0000 S   0  0  0  0  0  0  0  0  0  0  0  0
   -0.7430    1.3030    0.0000 C   0  0  1  0  0  0  0  0  0  0  0  0
    0.0150    2.5980    0.0000 N   0  0  0  0  0  0  0  0  0  0  0  0
    1.5150    2.5890    0.0000 C   0  0  0  0  0  0  0  0  0  0  0  0
    2.2720    3.8840    0.0000 C   0  0  0  0  0  0  0  0  0  0  0  0
    1.5300    5.1870    0.0000 O   0  0  0  0  0  0  0  0  0  0  0  0
    3.7720    3.8760    0.0000 O   0  0  0  0  0  0  0  0  0  0  0  0
    2.2570    1.2860    0.0000 C   0  0  0  0  0  0  0  0  0  0  0  0
    1.5000   -0.0090    0.0000 C   0  0  0  0  0  0  0  0  0  0  0  0
    3.7570    1.2780    0.0000 C   0  0  0  0  0  0  0  0  0  0  0  0
    4.5000   -0.0260    0.0000 O   0  0  0  0  0  0  0  0  0  0  0  0
    6.0000   -0.0340    0.0000 C   0  0  0  0  0  0  0  0  0  0  0  0
    6.7570    1.2600    0.0000 O   0  0  0  0  0  0  0  0  0  0  0  0
    6.7420   -1.3380    0.0000 N   0  0  0  0  0  0  0  0  0  0  0  0
   -1.2800    3.3550    0.0000 C   0  0  0  0  0  0  0  0  0  0  0  0
   -1.6600    4.8070    0.0000 O   0  0  0  0  0  0  0  0  0  0  0  0
   -2.0370    2.0610    0.0000 C   0  0  1  0  0  0  0  0  0  0  0  0
   -3.4880    1.6810    0.0000 N   0  0  0  0  0  0  0  0  0  0  0  0
   -4.5430    2.7470    0.0000 C   0  0  0  0  0  0  0  0  0  0  0  0
   -4.1460    4.1940    0.0000 O   0  0  0  0  0  0  0  0  0  0  0  0
   -5.9940    2.3680    0.0000 C   0  0  0  0  0  0  0  0  0  0  0  0
   -6.3910    0.9210    0.0000 N   0  0  0  0  0  0  0  0  0  0  0  0
   -7.8420    0.5410    0.0000 O   0  0  0  0  0  0  0  0  0  0  0  0
   -8.2380   -0.9060    0.0000 C   0  0  0  0  0  0  0  0  0  0  0  0
   -7.0490    3.4340    0.0000 C   0  0  0  0  0  0  0  0  0  0  0  0
   -6.8050    4.9140    0.0000 O   0  0  0  0  0  0  0  0  0  0  0  0
   -8.1380    5.6030    0.0000 C   0  0  0  0  0  0  0  0  0  0  0  0
   -9.2050    4.5480    0.0000 C   0  0  0  0  0  0  0  0  0  0  0  0
   -8.5310    3.2080    0.0000 C   0  0  0  0  0  0  0  0  0  0  0  0
  1  9  1  0  0  0  0
  2  1  1  6  0  0  0
  2  3  1  0  0  0  0
  2 17  1  0  0  0  0
  3  4  1  0  0  0  0
  3 15  1  0  0  0  0
  4  5  1  0  0  0  0
  4  8  2  0  0  0  0
  5  6  1  0  0  0  0
  5  7  2  0  0  0  0
  8  9  1  0  0  0  0
  8 10  1  0  0  0  0
 10 11  1  0  0  0  0
 11 12  1  0  0  0  0
 12 13  2  0  0  0  0
 12 14  1  0  0  0  0
 15 16  2  0  0  0  0
 15 17  1  0  0  0  0
 17 18  1  6  0  0  0
 18 19  1  0  0  0  0
 19 20  2  0  0  0  0
 19 21  1  0  0  0  0
 21 22  2  3  0  0  0
 21 25  1  0  0  0  0
 22 23  1  0  0  0  0
 23 24  1  0  0  0  0
 25 26  1  0  0  0  0
 25 29  2  0  0  0  0
 26 27  1  0  0  0  0
 27 28  2  0  0  0  0
 28 29  1  0  0  0  0
M  END
>  <Index>
1481

>  <ID>
HT0429

>  <class>
1

>  <apol>
52.544689

>  <ast_fraglike>
0

>  <ast_fraglike_ext>
0

>  <ast_violation>
3

>  <ast_violation_ext>
5

>  <a_acc>
6

>  <a_acid>
0

>  <a_aro>
5

>  <a_base>
0

>  <a_count>
45

>  <a_don>
4

>  <a_donacc>
10

>  <a_heavy>
29

>  <a_hyd>
10

>  <a_IC>
87.133392

>  <a_ICM>
1.9362975

>  <a_nB>
0

>  <a_nBr>
0

>  <a_nC>
16

>  <a_nCl>
0

>  <a_nF>
0

>  <a_nH>
16

>  <a_nI>
0

>  <a_nN>
4

>  <a_nO>
8

>  <a_nP>
0

>  <a_nS>
1

>  <balabanJ>
1.6207769

>  <BCUT_PEOE_0>
-2.6836908

>  <BCUT_PEOE_1>
-0.57962018

>  <BCUT_PEOE_2>
0.59174609

>  <BCUT_PEOE_3>
2.7356029

>  <BCUT_SLOGP_0>
-2.8937125

>  <BCUT_SLOGP_1>
-0.52323747

>  <BCUT_SLOGP_2>
0.57626003

>  <BCUT_SLOGP_3>
2.6115787

>  <BCUT_SMR_0>
-2.4001496

>  <BCUT_SMR_1>
-0.41294891

>  <BCUT_SMR_2>
0.74838459

>  <BCUT_SMR_3>
3.0170255

>  <bpol>
31.331312

>  <b_1rotN>
7

>  <b_1rotR>
0.22580644

>  <b_ar>
5

>  <b_count>
47

>  <b_double>
6

>  <b_heavy>
31

>  <b_max1len>
3

>  <b_rotN>
9

>  <b_rotR>
0.29032257

>  <b_single>
36

>  <b_triple>
0

>  <chi0>
21.129028

>  <chi0v>
15.802439

>  <chi0v_C>
9.3009653

>  <chi0_C>
10.309036

>  <chi1>
13.845443

>  <chi1v>
9.1775103

>  <chi1v_C>
3.284457

>  <chi1_C>
4.2247448

>  <chiral>
2

>  <chiral_u>
0

>  <density>
0.90265536

>  <diameter>
14

>  <FCharge>
0

>  <GCUT_PEOE_0>
-0.83653545

>  <GCUT_PEOE_1>
-0.431393

>  <GCUT_PEOE_2>
0.082348906

>  <GCUT_PEOE_3>
2.5924861

>  <GCUT_SLOGP_0>
-1.3703181

>  <GCUT_SLOGP_1>
-0.42856577

>  <GCUT_SLOGP_2>
0.099580251

>  <GCUT_SLOGP_3>
2.5224619

>  <GCUT_SMR_0>
-0.52912641

>  <GCUT_SMR_1>
-0.21500389

>  <GCUT_SMR_2>
0.25712493

>  <GCUT_SMR_3>
2.8662171

>  <Kier1>
23.658689

>  <Kier2>
10.543388

>  <Kier3>
5.2577777

>  <KierA1>
18.734169

>  <KierA2>
8.2748413

>  <KierA3>
4.0994954

>  <KierFlex>
5.3455954

>  <lip_acc>
12

>  <lip_don>
4

>  <lip_druglike>
1

>  <lip_violation>
1

>  <logP(o/w)>
-0.91100001

>  <logS>
-4.01053

>  <mr>
9.879405

>  <mutagenic>
0

>  <nmol>
1

>  <opr_brigid>
15

>  <opr_leadlike>
1

>  <opr_nring>
3

>  <opr_nrot>
7

>  <opr_violation>
1

>  <PC+>
0

>  <PC->
0

>  <PEOE_PC+>
3.6342416

>  <PEOE_PC->
-3.6342416

>  <PEOE_RPC+>
0.098615818

>  <PEOE_RPC->
0.12688799

>  <PEOE_VSA+0>
19.208147

>  <PEOE_VSA+1>
96.842308

>  <PEOE_VSA+2>
19.23292

>  <PEOE_VSA+3>
41.01511

>  <PEOE_VSA+4>
10.324173

>  <PEOE_VSA+5>
25.899061

>  <PEOE_VSA+6>
33.908009

>  <PEOE_VSA-0>
26.718348

>  <PEOE_VSA-1>
0

>  <PEOE_VSA-2>
30.64588

>  <PEOE_VSA-3>
0

>  <PEOE_VSA-4>
13.566921

>  <PEOE_VSA-5>
49.106876

>  <PEOE_VSA-6>
17.059307

>  <PEOE_VSA_FHYD>
0.60924703

>  <PEOE_VSA_FNEG>
0.35746455

>  <PEOE_VSA_FPNEG>
0.20789434

>  <PEOE_VSA_FPOL>
0.390753

>  <PEOE_VSA_FPOS>
0.64253545

>  <PEOE_VSA_FPPOS>
0.18285866

>  <PEOE_VSA_HYD>
233.6627

>  <PEOE_VSA_NEG>
137.09734

>  <PEOE_VSA_PNEG>
79.733109

>  <PEOE_VSA_POL>
149.86435

>  <PEOE_VSA_POS>
246.42973

>  <PEOE_VSA_PPOS>
70.131248

>  <petitjean>
0.5

>  <petitjeanSC>
1

>  <Q_PC+>
0

>  <Q_PC->
0

>  <Q_RPC+>
0

>  <Q_RPC->
0

>  <Q_VSA_FHYD>
1

>  <Q_VSA_FNEG>
0

>  <Q_VSA_FPNEG>
0

>  <Q_VSA_FPOL>
0

>  <Q_VSA_FPOS>
1

>  <Q_VSA_FPPOS>
0

>  <Q_VSA_HYD>
383.52707

>  <Q_VSA_NEG>
0

>  <Q_VSA_PNEG>
0

>  <Q_VSA_POL>
0

>  <Q_VSA_POS>
383.52707

>  <Q_VSA_PPOS>
0

>  <radius>
7

>  <reactive>
1

>  <rings>
3

>  <RPC+>
0

>  <RPC->
0

>  <rsynth>
0.48275861

>  <SlogP>
-0.53600001

>  <SlogP_VSA0>
50.90794

>  <SlogP_VSA1>
31.46073

>  <SlogP_VSA2>
100.1344

>  <SlogP_VSA3>
63.545048

>  <SlogP_VSA4>
5.4488211

>  <SlogP_VSA5>
70.233398

>  <SlogP_VSA6>
0

>  <SlogP_VSA7>
55.192799

>  <SlogP_VSA8>
0

>  <SlogP_VSA9>
56.081757

>  <SMR>
9.7474899

>  <SMR_VSA0>
127.17487

>  <SMR_VSA1>
22.524176

>  <SMR_VSA2>
43.395977

>  <SMR_VSA3>
17.72024

>  <SMR_VSA4>
32.897186

>  <SMR_VSA5>
55.192799

>  <SMR_VSA6>
66.496239

>  <SMR_VSA7>
67.603409

>  <TPSA>
173.75999

>  <VAdjEq>
0.3796615

>  <VAdjMa>
5.9541965

>  <VDistEq>
3.6140857

>  <VDistMa>
9.4251375

>  <vdw_area>
383.52707

>  <vdw_vol>
470.15729

>  <vsa_acc>
51.586025

>  <vsa_acid>
0

>  <vsa_base>
0

>  <vsa_don>
23.425066

>  <vsa_hyd>
151.16232

>  <vsa_other>
107.93349

>  <vsa_pol>
102.14493

>  <Weight>
424.38998

>  <weinerPath>
2349

>  <weinerPol>
44

>  <zagreb>
150

$$$$