Clc1cc(C(=O)NCCN(CC)CC)c(OC)cc1N
  MOE2013           2D

 20 20  0  0  0  0  0  0  0  0999 V2000
    0.0000    0.0000    0.0000 Cl  0  0  0  0  0  0  0  0  0  0  0  0
   -0.7420    1.3040    0.0000 C   0  0  0  0  0  0  0  0  0  0  0  0
   -2.2420    1.3130    0.0000 C   0  0  0  0  0  0  0  0  0  0  0  0
   -2.9840    2.6160    0.0000 C   0  0  0  0  0  0  0  0  0  0  0  0
   -4.4840    2.6260    0.0000 C   0  0  0  0  0  0  0  0  0  0  0  0
   -5.2260    3.9290    0.0000 O   0  0  0  0  0  0  0  0  0  0  0  0
   -5.2420    1.3310    0.0000 N   0  0  0  0  0  0  0  0  0  0  0  0
   -6.7420    1.3400    0.0000 C   0  0  0  0  0  0  0  0  0  0  0  0
   -7.5000    0.0460    0.0000 C   0  0  0  0  0  0  0  0  0  0  0  0
   -9.0000    0.0550    0.0000 N   0  0  0  0  0  0  0  0  0  0  0  0
   -9.7580   -1.2390    0.0000 C   0  0  0  0  0  0  0  0  0  0  0  0
   -9.0160   -2.5430    0.0000 C   0  0  0  0  0  0  0  0  0  0  0  0
   -9.7420    1.3590    0.0000 C   0  0  0  0  0  0  0  0  0  0  0  0
  -11.2420    1.3680    0.0000 C   0  0  0  0  0  0  0  0  0  0  0  0
   -2.2260    3.9110    0.0000 C   0  0  0  0  0  0  0  0  0  0  0  0
   -2.9680    5.2140    0.0000 O   0  0  0  0  0  0  0  0  0  0  0  0
   -2.2100    6.5090    0.0000 C   0  0  0  0  0  0  0  0  0  0  0  0
   -0.7260    3.9020    0.0000 C   0  0  0  0  0  0  0  0  0  0  0  0
    0.0160    2.5980    0.0000 C   0  0  0  0  0  0  0  0  0  0  0  0
    1.5160    2.5890    0.0000 N   0  0  0  0  0  0  0  0  0  0  0  0
  1  2  1  0  0  0  0
  2  3  1  0  0  0  0
  2 19  2  0  0  0  0
  3  4  2  0  0  0  0
  4  5  1  0  0  0  0
  4 15  1  0  0  0  0
  5  6  2  0  0  0  0
  5  7  1  0  0  0  0
  7  8  1  0  0  0  0
  8  9  1  0  0  0  0
  9 10  1  0  0  0  0
 10 11  1  0  0  0  0
 10 13  1  0  0  0  0
 11 12  1  0  0  0  0
 13 14  1  0  0  0  0
 15 16  1  0  0  0  0
 15 18  2  0  0  0  0
 16 17  1  0  0  0  0
 18 19  1  0  0  0  0
 19 20  1  0  0  0  0
M  END
>  <Index>
1649

>  <ID>
HT1376

>  <class>
1

>  <apol>
46.393448

>  <ast_fraglike>
1

>  <ast_fraglike_ext>
0

>  <ast_violation>
0

>  <ast_violation_ext>
1

>  <a_acc>
3

>  <a_acid>
0

>  <a_aro>
6

>  <a_base>
0

>  <a_count>
42

>  <a_don>
2

>  <a_donacc>
5

>  <a_heavy>
20

>  <a_hyd>
14

>  <a_IC>
68.311981

>  <a_ICM>
1.6264757

>  <a_nB>
0

>  <a_nBr>
0

>  <a_nC>
14

>  <a_nCl>
1

>  <a_nF>
0

>  <a_nH>
22

>  <a_nI>
0

>  <a_nN>
3

>  <a_nO>
2

>  <a_nP>
0

>  <a_nS>
0

>  <balabanJ>
2.4265146

>  <BCUT_PEOE_0>
-2.6817372

>  <BCUT_PEOE_1>
-0.27490166

>  <BCUT_PEOE_2>
0.25799096

>  <BCUT_PEOE_3>
2.5747447

>  <BCUT_SLOGP_0>
-2.7911084

>  <BCUT_SLOGP_1>
-0.18355027

>  <BCUT_SLOGP_2>
0.43694052

>  <BCUT_SLOGP_3>
2.5199735

>  <BCUT_SMR_0>
-2.3993266

>  <BCUT_SMR_1>
-0.058218982

>  <BCUT_SMR_2>
0.44114336

>  <BCUT_SMR_3>
2.8486657

>  <bpol>
29.324554

>  <b_1rotN>
7

>  <b_1rotR>
0.34999999

>  <b_ar>
6

>  <b_count>
42

>  <b_double>
1

>  <b_heavy>
20

>  <b_max1len>
7

>  <b_rotN>
8

>  <b_rotR>
0.40000001

>  <b_single>
35

>  <b_triple>
0

>  <chi0>
15.120955

>  <chi0v>
12.958081

>  <chi0v_C>
9.4831276

>  <chi0_C>
10.129392

>  <chi1>
9.527606

>  <chi1v>
7.0432692

>  <chi1v_C>
3.8189142

>  <chi1_C>
4.5472069

>  <chiral>
0

>  <chiral_u>
0

>  <density>
0.74770886

>  <diameter>
11

>  <FCharge>
0

>  <GCUT_PEOE_0>
-0.85718888

>  <GCUT_PEOE_1>
-0.34831005

>  <GCUT_PEOE_2>
-0.024181953

>  <GCUT_PEOE_3>
2.5015702

>  <GCUT_SLOGP_0>
-1.3343023

>  <GCUT_SLOGP_1>
-0.25694439

>  <GCUT_SLOGP_2>
0.12048326

>  <GCUT_SLOGP_3>
2.5272772

>  <GCUT_SMR_0>
-0.52160752

>  <GCUT_SMR_1>
-0.10801258

>  <GCUT_SMR_2>
0.11414585

>  <GCUT_SMR_3>
2.7617102

>  <Kier1>
18.049999

>  <Kier2>
9.1065092

>  <Kier3>
5.3789062

>  <KierA1>
15.4806

>  <KierA2>
7.7431908

>  <KierA3>
4.5448775

>  <KierFlex>
5.9934621

>  <lip_acc>
5

>  <lip_don>
3

>  <lip_druglike>
1

>  <lip_violation>
0

>  <logP(o/w)>
1.71

>  <logS>
-2.58887

>  <mr>
8.1584721

>  <mutagenic>
1

>  <nmol>
1

>  <opr_brigid>
6

>  <opr_leadlike>
1

>  <opr_nring>
1

>  <opr_nrot>
7

>  <opr_violation>
0

>  <PC+>
0

>  <PC->
0

>  <PEOE_PC+>
1.8008858

>  <PEOE_PC->
-1.8008858

>  <PEOE_RPC+>
0.14138925

>  <PEOE_RPC->
0.19473369

>  <PEOE_VSA+0>
117.79726

>  <PEOE_VSA+1>
36.513737

>  <PEOE_VSA+2>
17.238026

>  <PEOE_VSA+3>
8.6190128

>  <PEOE_VSA+4>
0

>  <PEOE_VSA+5>
12.949531

>  <PEOE_VSA+6>
0

>  <PEOE_VSA-0>
50.894459

>  <PEOE_VSA-1>
67.077301

>  <PEOE_VSA-2>
0

>  <PEOE_VSA-3>
0

>  <PEOE_VSA-4>
0

>  <PEOE_VSA-5>
13.566921

>  <PEOE_VSA-6>
9.2917662

>  <PEOE_VSA_FHYD>
0.89277309

>  <PEOE_VSA_FNEG>
0.42171368

>  <PEOE_VSA_FPNEG>
0.06844984

>  <PEOE_VSA_FPOL>
0.10722692

>  <PEOE_VSA_FPOS>
0.57828629

>  <PEOE_VSA_FPPOS>
0.038777087

>  <PEOE_VSA_HYD>
298.1398

>  <PEOE_VSA_NEG>
140.83044

>  <PEOE_VSA_PNEG>
22.858686

>  <PEOE_VSA_POL>
35.80822

>  <PEOE_VSA_POS>
193.11757

>  <PEOE_VSA_PPOS>
12.949531

>  <petitjean>
0.45454547

>  <petitjeanSC>
0.83333331

>  <Q_PC+>
0

>  <Q_PC->
0

>  <Q_RPC+>
0

>  <Q_RPC->
0

>  <Q_VSA_FHYD>
1

>  <Q_VSA_FNEG>
0

>  <Q_VSA_FPNEG>
0

>  <Q_VSA_FPOL>
0

>  <Q_VSA_FPOS>
1

>  <Q_VSA_FPPOS>
0

>  <Q_VSA_HYD>
333.94803

>  <Q_VSA_NEG>
0

>  <Q_VSA_PNEG>
0

>  <Q_VSA_POL>
0

>  <Q_VSA_POS>
333.94803

>  <Q_VSA_PPOS>
0

>  <radius>
6

>  <reactive>
0

>  <rings>
1

>  <RPC+>
0

>  <RPC->
0

>  <rsynth>
1

>  <SlogP>
2.0023999

>  <SlogP_VSA0>
61.907825

>  <SlogP_VSA1>
8.3830976

>  <SlogP_VSA2>
0

>  <SlogP_VSA3>
73.758316

>  <SlogP_VSA4>
27.047791

>  <SlogP_VSA5>
35.383869

>  <SlogP_VSA6>
3.5006065

>  <SlogP_VSA7>
35.286369

>  <SlogP_VSA8>
0

>  <SlogP_VSA9>
113.80085

>  <SMR>
8.2537603

>  <SMR_VSA0>
23.862217

>  <SMR_VSA1>
14.124202

>  <SMR_VSA2>
18.01075

>  <SMR_VSA3>
11.929609

>  <SMR_VSA4>
2.7567475

>  <SMR_VSA5>
68.183556

>  <SMR_VSA6>
79.017097

>  <SMR_VSA7>
141.18454

>  <TPSA>
67.589996

>  <VAdjEq>
0.4689956

>  <VAdjMa>
5.321928

>  <VDistEq>
3.288985

>  <VDistMa>
8.3326426

>  <vdw_area>
333.94803

>  <vdw_vol>
400.96088

>  <vsa_acc>
16.070677

>  <vsa_acid>
0

>  <vsa_base>
0

>  <vsa_don>
23.425066

>  <vsa_hyd>
258.75864

>  <vsa_other>
12.949531

>  <vsa_pol>
39.495743

>  <Weight>
299.802

>  <weinerPath>
902

>  <weinerPol>
29

>  <zagreb>
92

$$$$