O(C1CCCC1)c1cc2CC[C@H]3[C@@H]4CC[C@@](O)(C#C)[C@]4(CC[C@@H]3c2cc1)C
  MOE2013           2D

 27 31  0  0  1  0  0  0  0  0999 V2000
    0.0000    0.0000    0.0000 O   0  0  0  0  0  0  0  0  0  0  0  0
   -0.7410   -1.3040    0.0000 C   0  0  0  0  0  0  0  0  0  0  0  0
   -0.1220   -2.6700    0.0000 C   0  0  0  0  0  0  0  0  0  0  0  0
   -1.2300   -3.6810    0.0000 C   0  0  0  0  0  0  0  0  0  0  0  0
   -2.5340   -2.9400    0.0000 C   0  0  0  0  0  0  0  0  0  0  0  0
   -2.2320   -1.4710    0.0000 C   0  0  0  0  0  0  0  0  0  0  0  0
    1.5000    0.0100    0.0000 C   0  0  0  0  0  0  0  0  0  0  0  0
    2.2410    1.3140    0.0000 C   0  0  0  0  0  0  0  0  0  0  0  0
    3.7410    1.3240    0.0000 C   0  0  0  0  0  0  0  0  0  0  0  0
    4.4830    2.6280    0.0000 C   0  0  0  0  0  0  0  0  0  0  0  0
    5.9830    2.6380    0.0000 C   0  0  0  0  0  0  0  0  0  0  0  0
    6.7410    1.3440    0.0000 C   0  0  1  0  0  0  0  0  0  0  0  0
    8.2410    1.3530    0.0000 C   0  0  2  0  0  0  0  0  0  0  0  0
    9.2380    2.4750    0.0000 C   0  0  0  0  0  0  0  0  0  0  0  0
   10.6120    1.8740    0.0000 C   0  0  0  0  0  0  0  0  0  0  0  0
   10.4650    0.3810    0.0000 C   0  0  1  0  0  0  0  0  0  0  0  0
   10.8630   -1.0650    0.0000 O   0  0  0  0  0  0  0  0  0  0  0  0
   11.9290    0.0530    0.0000 C   0  0  0  0  0  0  0  0  0  0  0  0
   13.3920   -0.2750    0.0000 C   0  0  0  0  0  0  0  0  0  0  0  0
    9.0000    0.0590    0.0000 C   0  0  1  0  0  0  0  0  0  0  0  0
    8.2580   -1.2450    0.0000 C   0  0  0  0  0  0  0  0  0  0  0  0
    6.7580   -1.2540    0.0000 C   0  0  0  0  0  0  0  0  0  0  0  0
    6.0000    0.0400    0.0000 C   0  0  2  0  0  0  0  0  0  0  0  0
    4.5000    0.0300    0.0000 C   0  0  0  0  0  0  0  0  0  0  0  0
    3.7580   -1.2740    0.0000 C   0  0  0  0  0  0  0  0  0  0  0  0
    2.2590   -1.2840    0.0000 C   0  0  0  0  0  0  0  0  0  0  0  0
    9.8890   -1.1480    0.0000 C   0  0  0  0  0  0  0  0  0  0  0  0
  1  2  1  0  0  0  0
  1  7  1  0  0  0  0
  2  3  1  0  0  0  0
  2  6  1  0  0  0  0
  3  4  1  0  0  0  0
  4  5  1  0  0  0  0
  5  6  1  0  0  0  0
  7  8  1  0  0  0  0
  7 26  2  0  0  0  0
  8  9  2  0  0  0  0
  9 10  1  0  0  0  0
  9 24  1  0  0  0  0
 10 11  1  0  0  0  0
 12 11  1  1  0  0  0
 12 13  1  0  0  0  0
 12 23  1  0  0  0  0
 13 14  1  6  0  0  0
 13 20  1  0  0  0  0
 14 15  1  0  0  0  0
 15 16  1  0  0  0  0
 16 17  1  6  0  0  0
 16 18  1  1  0  0  0
 16 20  1  0  0  0  0
 18 19  3  0  0  0  0
 20 21  1  0  0  0  0
 20 27  1  6  0  0  0
 21 22  1  0  0  0  0
 22 23  1  0  0  0  0
 23 24  1  6  0  0  0
 24 25  2  0  0  0  0
 25 26  1  0  0  0  0
M  END
>  <Index>
1708

>  <ID>
HT1788

>  <class>
1

>  <apol>
66.941376

>  <ast_fraglike>
0

>  <ast_fraglike_ext>
0

>  <ast_violation>
2

>  <ast_violation_ext>
3

>  <a_acc>
2

>  <a_acid>
0

>  <a_aro>
6

>  <a_base>
0

>  <a_count>
59

>  <a_don>
1

>  <a_donacc>
3

>  <a_heavy>
27

>  <a_hyd>
25

>  <a_IC>
68.979538

>  <a_ICM>
1.1691446

>  <a_nB>
0

>  <a_nBr>
0

>  <a_nC>
25

>  <a_nCl>
0

>  <a_nF>
0

>  <a_nH>
32

>  <a_nI>
0

>  <a_nN>
0

>  <a_nO>
2

>  <a_nP>
0

>  <a_nS>
0

>  <balabanJ>
1.2626331

>  <BCUT_PEOE_0>
-2.8824642

>  <BCUT_PEOE_1>
-0.5437445

>  <BCUT_PEOE_2>
0.59734142

>  <BCUT_PEOE_3>
2.9363878

>  <BCUT_SLOGP_0>
-2.8058302

>  <BCUT_SLOGP_1>
-0.54250145

>  <BCUT_SLOGP_2>
0.60886961

>  <BCUT_SLOGP_3>
3.0056543

>  <BCUT_SMR_0>
-2.6298289

>  <BCUT_SMR_1>
-0.39859393

>  <BCUT_SMR_2>
0.73590094

>  <BCUT_SMR_3>
3.1829071

>  <bpol>
36.898624

>  <b_1rotN>
2

>  <b_1rotR>
0.064516127

>  <b_ar>
6

>  <b_count>
63

>  <b_double>
0

>  <b_heavy>
31

>  <b_max1len>
3

>  <b_rotN>
3

>  <b_rotR>
0.096774191

>  <b_single>
56

>  <b_triple>
1

>  <chi0>
18.648054

>  <chi0v>
16.545332

>  <chi0v_C>
15.68987

>  <chi0_C>
16.940947

>  <chi1>
13.038754

>  <chi1v>
11.03606

>  <chi1v_C>
10.372627

>  <chi1_C>
11.722259

>  <chiral>
5

>  <chiral_u>
0

>  <density>
0.66908127

>  <diameter>
14

>  <FCharge>
0

>  <GCUT_PEOE_0>
-0.79592961

>  <GCUT_PEOE_1>
-0.37968573

>  <GCUT_PEOE_2>
0.045250822

>  <GCUT_PEOE_3>
3.1937001

>  <GCUT_SLOGP_0>
-0.88999188

>  <GCUT_SLOGP_1>
-0.30642736

>  <GCUT_SLOGP_2>
0.11085233

>  <GCUT_SLOGP_3>
3.2882276

>  <GCUT_SMR_0>
-0.53547466

>  <GCUT_SMR_1>
-0.21679907

>  <GCUT_SMR_2>
0.16281281

>  <GCUT_SMR_3>
3.4315495

>  <Kier1>
18.992716

>  <Kier2>
7.0529513

>  <Kier3>
2.970839

>  <KierA1>
16.472599

>  <KierA2>
6.0819454

>  <KierA3>
2.5508919

>  <KierFlex>
3.7105722

>  <lip_acc>
2

>  <lip_don>
1

>  <lip_druglike>
1

>  <lip_violation>
1

>  <logP(o/w)>
6.0240002

>  <logS>
-6.50529

>  <mr>
10.782357

>  <mutagenic>
0

>  <nmol>
1

>  <opr_brigid>
26

>  <opr_leadlike>
0

>  <opr_nring>
5

>  <opr_nrot>
4

>  <opr_violation>
2

>  <PC+>
0

>  <PC->
0

>  <PEOE_PC+>
1.6008984

>  <PEOE_PC->
-1.6008984

>  <PEOE_RPC+>
0.13205512

>  <PEOE_RPC->
0.23486045

>  <PEOE_VSA+0>
110.90004

>  <PEOE_VSA+1>
30.424992

>  <PEOE_VSA+2>
4.2653861

>  <PEOE_VSA+3>
0

>  <PEOE_VSA+4>
10.324173

>  <PEOE_VSA+5>
0

>  <PEOE_VSA+6>
0

>  <PEOE_VSA-0>
98.537392

>  <PEOE_VSA-1>
64.213699

>  <PEOE_VSA-2>
25.854858

>  <PEOE_VSA-3>
0

>  <PEOE_VSA-4>
0

>  <PEOE_VSA-5>
0

>  <PEOE_VSA-6>
10.271297

>  <PEOE_VSA_FHYD>
0.94195056

>  <PEOE_VSA_FNEG>
0.56054628

>  <PEOE_VSA_FPNEG>
0.028950205

>  <PEOE_VSA_FPOL>
0.058049444

>  <PEOE_VSA_FPOS>
0.43945369

>  <PEOE_VSA_FPPOS>
0.029099239

>  <PEOE_VSA_HYD>
334.19638

>  <PEOE_VSA_NEG>
198.87726

>  <PEOE_VSA_PNEG>
10.271297

>  <PEOE_VSA_POL>
20.595469

>  <PEOE_VSA_POS>
155.91458

>  <PEOE_VSA_PPOS>
10.324173

>  <petitjean>
0.5

>  <petitjeanSC>
1

>  <Q_PC+>
0

>  <Q_PC->
0

>  <Q_RPC+>
0

>  <Q_RPC->
0

>  <Q_VSA_FHYD>
1

>  <Q_VSA_FNEG>
0

>  <Q_VSA_FPNEG>
0

>  <Q_VSA_FPOL>
0

>  <Q_VSA_FPOS>
1

>  <Q_VSA_FPPOS>
0

>  <Q_VSA_HYD>
354.79184

>  <Q_VSA_NEG>
0

>  <Q_VSA_PNEG>
0

>  <Q_VSA_POL>
0

>  <Q_VSA_POS>
354.79184

>  <Q_VSA_PPOS>
0

>  <radius>
7

>  <reactive>
0

>  <rings>
5

>  <RPC+>
0

>  <RPC->
0

>  <rsynth>
0.18518518

>  <SlogP>
5.2283778

>  <SlogP_VSA0>
36.385113

>  <SlogP_VSA1>
0

>  <SlogP_VSA2>
6.4686494

>  <SlogP_VSA3>
17.030573

>  <SlogP_VSA4>
46.680923

>  <SlogP_VSA5>
18.868406

>  <SlogP_VSA6>
4.4107962

>  <SlogP_VSA7>
52.929554

>  <SlogP_VSA8>
169.81564

>  <SlogP_VSA9>
38.569443

>  <SMR>
10.77258

>  <SMR_VSA0>
0

>  <SMR_VSA1>
36.385113

>  <SMR_VSA2>
8.8215923

>  <SMR_VSA3>
39.524597

>  <SMR_VSA4>
0

>  <SMR_VSA5>
241.6136

>  <SMR_VSA6>
31.488184

>  <SMR_VSA7>
33.326015

>  <TPSA>
29.459999

>  <VAdjEq>
0.41972107

>  <VAdjMa>
5.9541965

>  <VDistEq>
3.5193462

>  <VDistMa>
9.1855202

>  <vdw_area>
354.79184

>  <vdw_vol>
544.82019

>  <vsa_acc>
2.503756

>  <vsa_acid>
0

>  <vsa_base>
0

>  <vsa_don>
0

>  <vsa_hyd>
308.09555

>  <vsa_other>
0

>  <vsa_pol>
16.070677

>  <Weight>
364.52899

>  <weinerPath>
1843

>  <weinerPol>
52

>  <zagreb>
158

$$$$