O(C(=O)C=1C(C(=C(OC)/O)C(=NC=1C)C)c1ccccc1[N+](=O)[O-])C
  MOE2013           2D

 25 26  0  0  1  0  0  0  0  0999 V2000
    0.0000    0.0000    0.0000 O   0  0  0  0  0  0  0  0  0  0  0  0
    0.7420   -1.3030    0.0000 C   0  0  0  0  0  0  0  0  0  0  0  0
   -0.0150   -2.5980    0.0000 O   0  0  0  0  0  0  0  0  0  0  0  0
    2.1890   -1.7000    0.0000 C   0  0  0  0  0  0  0  0  0  0  0  0
    3.4230   -0.8470    0.0000 C   0  0  3  0  0  0  0  0  0  0  0  0
    4.7780   -1.4890    0.0000 C   0  0  0  0  0  0  0  0  0  0  0  0
    6.0120   -0.6360    0.0000 C   0  0  0  0  0  0  0  0  0  0  0  0
    7.3680   -1.2780    0.0000 O   0  0  0  0  0  0  0  0  0  0  0  0
    8.6020   -0.4250    0.0000 C   0  0  0  0  0  0  0  0  0  0  0  0
    5.8900    0.8590    0.0000 O   0  0  0  0  0  0  0  0  0  0  0  0
    4.9000   -2.9840    0.0000 C   0  0  0  0  0  0  0  0  0  0  0  0
    3.6660   -3.8370    0.0000 N   0  0  0  0  0  0  0  0  0  0  0  0
    2.3110   -3.1950    0.0000 C   0  0  0  0  0  0  0  0  0  0  0  0
    1.0770   -4.0480    0.0000 C   0  0  0  0  0  0  0  0  0  0  0  0
    6.2560   -3.6260    0.0000 C   0  0  0  0  0  0  0  0  0  0  0  0
    3.8190    0.5990    0.0000 C   0  0  0  0  0  0  0  0  0  0  0  0
    5.3140    0.7210    0.0000 C   0  0  0  0  0  0  0  0  0  0  0  0
    5.9560    2.0770    0.0000 C   0  0  0  0  0  0  0  0  0  0  0  0
    5.1030    3.3110    0.0000 C   0  0  0  0  0  0  0  0  0  0  0  0
    3.6080    3.1890    0.0000 C   0  0  0  0  0  0  0  0  0  0  0  0
    2.9660    1.8330    0.0000 C   0  0  0  0  0  0  0  0  0  0  0  0
    1.4730    1.9730    0.0000 N   0  3  0  0  0  0  0  0  0  0  0  0
    0.6050    0.7490    0.0000 O   0  0  0  0  0  0  0  0  0  0  0  0
    0.8470    3.3360    0.0000 O   0  5  0  0  0  0  0  0  0  0  0  0
   -1.5000    0.0090    0.0000 C   0  0  0  0  0  0  0  0  0  0  0  0
  1  2  1  0  0  0  0
  1 25  1  0  0  0  0
  2  3  2  0  0  0  0
  2  4  1  0  0  0  0
  4  5  1  0  0  0  0
  4 13  2  0  0  0  0
  5  6  1  0  0  0  0
  5 16  1  0  0  0  0
  6  7  2  3  0  0  0
  6 11  1  0  0  0  0
  7  8  1  0  0  0  0
  7 10  1  0  0  0  0
  8  9  1  0  0  0  0
 11 12  2  0  0  0  0
 11 15  1  0  0  0  0
 12 13  1  0  0  0  0
 13 14  1  0  0  0  0
 16 17  1  0  0  0  0
 16 21  2  0  0  0  0
 17 18  2  0  0  0  0
 18 19  1  0  0  0  0
 19 20  2  0  0  0  0
 20 21  1  0  0  0  0
 21 22  1  0  0  0  0
 22 23  2  0  0  0  0
 22 24  1  0  0  0  0
M  CHG  1  22   1
M  CHG  1  24  -1
M  END
>  <Index>
1667

>  <ID>
HT1489

>  <class>
1

>  <apol>
48.934273

>  <ast_fraglike>
0

>  <ast_fraglike_ext>
0

>  <ast_violation>
3

>  <ast_violation_ext>
4

>  <a_acc>
4

>  <a_acid>
0

>  <a_aro>
6

>  <a_base>
0

>  <a_count>
43

>  <a_don>
1

>  <a_donacc>
5

>  <a_heavy>
25

>  <a_hyd>
15

>  <a_IC>
71.274094

>  <a_ICM>
1.657537

>  <a_nB>
0

>  <a_nBr>
0

>  <a_nC>
17

>  <a_nCl>
0

>  <a_nF>
0

>  <a_nH>
18

>  <a_nI>
0

>  <a_nN>
2

>  <a_nO>
6

>  <a_nP>
0

>  <a_nS>
0

>  <balabanJ>
2.4447894

>  <BCUT_PEOE_0>
-2.4559784

>  <BCUT_PEOE_1>
-0.5196721

>  <BCUT_PEOE_2>
0.47271523

>  <BCUT_PEOE_3>
2.5284607

>  <BCUT_SLOGP_0>
-2.4213099

>  <BCUT_SLOGP_1>
-0.42633006

>  <BCUT_SLOGP_2>
0.51962119

>  <BCUT_SLOGP_3>
2.588521

>  <BCUT_SMR_0>
-2.1864598

>  <BCUT_SMR_1>
-0.23690827

>  <BCUT_SMR_2>
0.68355989

>  <BCUT_SMR_3>
2.7979226

>  <bpol>
27.043726

>  <b_1rotN>
4

>  <b_1rotR>
0.15384616

>  <b_ar>
6

>  <b_count>
44

>  <b_double>
5

>  <b_heavy>
26

>  <b_max1len>
2

>  <b_rotN>
5

>  <b_rotR>
0.1923077

>  <b_single>
33

>  <b_triple>
0

>  <chi0>
18.723249

>  <chi0v>
14.269633

>  <chi0v_C>
10.886751

>  <chi0_C>
12.02458

>  <chi1>
11.827805

>  <chi1v>
7.3818202

>  <chi1v_C>
4.6933756

>  <chi1_C>
6.1378636

>  <chiral>
1

>  <chiral_u>
1

>  <density>
0.79386538

>  <diameter>
8

>  <FCharge>
0

>  <GCUT_PEOE_0>
-0.76985073

>  <GCUT_PEOE_1>
-0.41850442

>  <GCUT_PEOE_2>
-0.023842668

>  <GCUT_PEOE_3>
2.6865242

>  <GCUT_SLOGP_0>
-0.84482998

>  <GCUT_SLOGP_1>
-0.28308925

>  <GCUT_SLOGP_2>
0.08741089

>  <GCUT_SLOGP_3>
2.7547894

>  <GCUT_SMR_0>
-0.49169308

>  <GCUT_SMR_1>
-0.16898562

>  <GCUT_SMR_2>
0.16642764

>  <GCUT_SMR_3>
2.9460831

>  <Kier1>
21.301775

>  <Kier2>
9.2739229

>  <Kier3>
4.4659748

>  <KierA1>
15.942019

>  <KierA2>
6.8503089

>  <KierA3>
3.2665734

>  <KierFlex>
4.3683105

>  <lip_acc>
8

>  <lip_don>
1

>  <lip_druglike>
1

>  <lip_violation>
0

>  <logP(o/w)>
2.49

>  <logS>
-3.9298201

>  <mr>
8.9360209

>  <mutagenic>
1

>  <nmol>
1

>  <opr_brigid>
13

>  <opr_leadlike>
1

>  <opr_nring>
2

>  <opr_nrot>
4

>  <opr_violation>
0

>  <PC+>
0

>  <PC->
0

>  <PEOE_PC+>
2.2262857

>  <PEOE_PC->
-2.2262857

>  <PEOE_RPC+>
0.13123892

>  <PEOE_RPC->
0.15280157

>  <PEOE_VSA+0>
109.9241

>  <PEOE_VSA+1>
48.890434

>  <PEOE_VSA+2>
0

>  <PEOE_VSA+3>
14.708499

>  <PEOE_VSA+4>
10.324173

>  <PEOE_VSA+5>
21.408051

>  <PEOE_VSA+6>
0

>  <PEOE_VSA-0>
37.495354

>  <PEOE_VSA-1>
36.764713

>  <PEOE_VSA-2>
0

>  <PEOE_VSA-3>
0

>  <PEOE_VSA-4>
0

>  <PEOE_VSA-5>
53.180546

>  <PEOE_VSA-6>
12.775052

>  <PEOE_VSA_FHYD>
0.71723288

>  <PEOE_VSA_FNEG>
0.4058682

>  <PEOE_VSA_FPNEG>
0.19091505

>  <PEOE_VSA_FPOL>
0.28276712

>  <PEOE_VSA_FPOS>
0.59413177

>  <PEOE_VSA_FPPOS>
0.091852084

>  <PEOE_VSA_HYD>
247.7831

>  <PEOE_VSA_NEG>
140.21567

>  <PEOE_VSA_PNEG>
65.955597

>  <PEOE_VSA_POL>
97.68782

>  <PEOE_VSA_POS>
205.25526

>  <PEOE_VSA_PPOS>
31.732224

>  <petitjean>
0.5

>  <petitjeanSC>
1

>  <Q_PC+>
0

>  <Q_PC->
0

>  <Q_RPC+>
0

>  <Q_RPC->
0

>  <Q_VSA_FHYD>
1

>  <Q_VSA_FNEG>
0

>  <Q_VSA_FPNEG>
0

>  <Q_VSA_FPOL>
0

>  <Q_VSA_FPOS>
1

>  <Q_VSA_FPPOS>
0

>  <Q_VSA_HYD>
345.47092

>  <Q_VSA_NEG>
0

>  <Q_VSA_PNEG>
0

>  <Q_VSA_POL>
0

>  <Q_VSA_POS>
345.47092

>  <Q_VSA_PPOS>
0

>  <radius>
4

>  <reactive>
1

>  <rings>
2

>  <RPC+>
0

>  <RPC->
0

>  <rsynth>
1

>  <SlogP>
3.0158999

>  <SlogP_VSA0>
0

>  <SlogP_VSA1>
17.587828

>  <SlogP_VSA2>
45.861992

>  <SlogP_VSA3>
76.320236

>  <SlogP_VSA4>
3.185575

>  <SlogP_VSA5>
103.98244

>  <SlogP_VSA6>
4.4107962

>  <SlogP_VSA7>
70.572739

>  <SlogP_VSA8>
0

>  <SlogP_VSA9>
69.408775

>  <SMR>
9.0326204

>  <SMR_VSA0>
52.947609

>  <SMR_VSA1>
16.78553

>  <SMR_VSA2>
76.320236

>  <SMR_VSA3>
24.025549

>  <SMR_VSA4>
2.7567475

>  <SMR_VSA5>
70.572739

>  <SMR_VSA6>
10.502212

>  <SMR_VSA7>
137.41977

>  <TPSA>
113.94

>  <VAdjEq>
0.41335541

>  <VAdjMa>
5.7004399

>  <VDistEq>
2.865324

>  <VDistMa>
9.0749369

>  <vdw_area>
345.47092

>  <vdw_vol>
436.26917

>  <vsa_acc>
21.753254

>  <vsa_acid>
0

>  <vsa_base>
0

>  <vsa_don>
0

>  <vsa_hyd>
219.62903

>  <vsa_other>
72.551353

>  <vsa_pol>
35.320175

>  <Weight>
346.33899

>  <weinerPath>
1280

>  <weinerPol>
45

>  <zagreb>
126

$$$$