O1[C@@H](C/C=CC=C[C@H](O)[C@@H](C[C@H](CC=O)[C@H](O[C@@H]2O[C@H](C)[C@@H](O[C@@H]3O[C@@H](C)[C@H](OC(=O)CC(C)C)[C@](O)(C3)C)[C@H](N(C)C)[C@H]2O)[C@@H](OC)[C@@H](OC(=O)C)CC1=O)C)C
  MOE2013           2D

 58 60  0  0  1  0  0  0  0  0999 V2000
    0.0000    0.0000    0.0000 O   0  0  0  0  0  0  0  0  0  0  0  0
   -0.7350   -1.2880    0.0000 C   0  0  1  0  0  0  0  0  0  0  0  0
   -2.2420   -1.3060    0.0000 C   0  0  0  0  0  0  0  0  0  0  0  0
   -2.9870    0.0120    0.0000 C   0  0  0  0  0  0  0  0  0  0  0  0
   -4.4680    0.0280    0.0000 C   0  0  0  0  0  0  0  0  0  0  0  0
   -5.3200    1.1800    0.0000 C   0  0  0  0  0  0  0  0  0  0  0  0
   -5.0240    2.5810    0.0000 C   0  0  0  0  0  0  0  0  0  0  0  0
   -3.6820    3.2090    0.0000 C   0  0  2  0  0  0  0  0  0  0  0  0
   -2.4520    2.3510    0.0000 O   0  0  0  0  0  0  0  0  0  0  0  0
   -3.5510    4.7190    0.0000 C   0  0  1  0  0  0  0  0  0  0  0  0
   -2.1750    5.3310    0.0000 C   0  0  0  0  0  0  0  0  0  0  0  0
   -0.9700    4.4680    0.0000 C   0  0  2  0  0  0  0  0  0  0  0  0
   -0.8100    5.9590    0.0000 C   0  0  0  0  0  0  0  0  0  0  0  0
   -2.0220    6.8430    0.0000 C   0  0  0  0  0  0  0  0  0  0  0  0
   -1.8620    8.3350    0.0000 O   0  0  0  0  0  0  0  0  0  0  0  0
    0.4180    5.0680    0.0000 C   0  0  2  0  0  0  0  0  0  0  0  0
    0.6620    6.5480    0.0000 O   0  0  0  0  0  0  0  0  0  0  0  0
    2.0660    7.0760    0.0000 C   0  0  2  0  0  0  0  0  0  0  0  0
    3.2260    6.1250    0.0000 O   0  0  0  0  0  0  0  0  0  0  0  0
    4.6290    6.6530    0.0000 C   0  0  2  0  0  0  0  0  0  0  0  0
    5.7890    5.7020    0.0000 C   0  0  0  0  0  0  0  0  0  0  0  0
    4.8740    8.1330    0.0000 C   0  0  1  0  0  0  0  0  0  0  0  0
    6.2770    8.6620    0.0000 O   0  0  0  0  0  0  0  0  0  0  0  0
    7.4370    7.7100    0.0000 C   0  0  2  0  0  0  0  0  0  0  0  0
    7.1930    6.2300    0.0000 O   0  0  0  0  0  0  0  0  0  0  0  0
    8.3520    5.2790    0.0000 C   0  0  1  0  0  0  0  0  0  0  0  0
    8.1080    3.7990    0.0000 C   0  0  0  0  0  0  0  0  0  0  0  0
    9.7560    5.8070    0.0000 C   0  0  2  0  0  0  0  0  0  0  0  0
   10.9160    4.8560    0.0000 O   0  0  0  0  0  0  0  0  0  0  0  0
   10.6720    3.3760    0.0000 C   0  0  0  0  0  0  0  0  0  0  0  0
    9.2680    2.8470    0.0000 O   0  0  0  0  0  0  0  0  0  0  0  0
   11.8310    2.4240    0.0000 C   0  0  0  0  0  0  0  0  0  0  0  0
   13.2350    2.9530    0.0000 C   0  0  0  0  0  0  0  0  0  0  0  0
   14.3950    2.0010    0.0000 C   0  0  0  0  0  0  0  0  0  0  0  0
   13.4790    4.4330    0.0000 C   0  0  0  0  0  0  0  0  0  0  0  0
   10.0000    7.2870    0.0000 C   0  0  2  0  0  0  0  0  0  0  0  0
   10.9520    8.4470    0.0000 O   0  0  0  0  0  0  0  0  0  0  0  0
    8.8410    8.2390    0.0000 C   0  0  0  0  0  0  0  0  0  0  0  0
   11.4800    7.0430    0.0000 C   0  0  0  0  0  0  0  0  0  0  0  0
    3.7140    9.0850    0.0000 C   0  0  2  0  0  0  0  0  0  0  0  0
    3.9580   10.5640    0.0000 N   0  0  0  0  0  0  0  0  0  0  0  0
    5.3620   11.0930    0.0000 C   0  0  0  0  0  0  0  0  0  0  0  0
    2.7990   11.5160    0.0000 C   0  0  0  0  0  0  0  0  0  0  0  0
    2.3100    8.5560    0.0000 C   0  0  1  0  0  0  0  0  0  0  0  0
    1.1510    9.5080    0.0000 O   0  0  0  0  0  0  0  0  0  0  0  0
    1.5760    4.0200    0.0000 C   0  0  1  0  0  0  0  0  0  0  0  0
    3.0210    4.4230    0.0000 O   0  0  0  0  0  0  0  0  0  0  0  0
    4.0920    3.3730    0.0000 C   0  0  0  0  0  0  0  0  0  0  0  0
    1.1460    2.5900    0.0000 C   0  0  1  0  0  0  0  0  0  0  0  0
    2.6120    2.9080    0.0000 O   0  0  0  0  0  0  0  0  0  0  0  0
    3.6210    1.7980    0.0000 C   0  0  0  0  0  0  0  0  0  0  0  0
    3.1630    0.3690    0.0000 O   0  0  0  0  0  0  0  0  0  0  0  0
    5.0870    2.1150    0.0000 C   0  0  0  0  0  0  0  0  0  0  0  0
    2.1290    1.4670    0.0000 C   0  0  0  0  0  0  0  0  0  0  0  0
    1.5110    0.0340    0.0000 C   0  0  0  0  0  0  0  0  0  0  0  0
    2.3500   -1.2100    0.0000 O   0  0  0  0  0  0  0  0  0  0  0  0
   -4.7730    5.5890    0.0000 C   0  0  0  0  0  0  0  0  0  0  0  0
    0.0260   -2.5800    0.0000 C   0  0  0  0  0  0  0  0  0  0  0  0
  1  2  1  0  0  0  0
  1 55  1  0  0  0  0
  2  3  1  0  0  0  0
  2 58  1  6  0  0  0
  3  4  1  0  0  0  0
  4  5  2  3  0  0  0
  5  6  1  0  0  0  0
  6  7  2  3  0  0  0
  7  8  1  0  0  0  0
  8  9  1  1  0  0  0
  8 10  1  0  0  0  0
 10 11  1  0  0  0  0
 10 57  1  6  0  0  0
 11 12  1  0  0  0  0
 12 13  1  6  0  0  0
 12 16  1  0  0  0  0
 13 14  1  0  0  0  0
 14 15  2  0  0  0  0
 16 17  1  6  0  0  0
 16 46  1  0  0  0  0
 18 17  1  1  0  0  0
 18 19  1  0  0  0  0
 18 44  1  0  0  0  0
 19 20  1  0  0  0  0
 20 21  1  1  0  0  0
 20 22  1  0  0  0  0
 22 23  1  6  0  0  0
 22 40  1  0  0  0  0
 24 23  1  1  0  0  0
 24 25  1  0  0  0  0
 24 38  1  0  0  0  0
 25 26  1  0  0  0  0
 26 27  1  6  0  0  0
 26 28  1  0  0  0  0
 28 29  1  1  0  0  0
 28 36  1  0  0  0  0
 29 30  1  0  0  0  0
 30 31  2  0  0  0  0
 30 32  1  0  0  0  0
 32 33  1  0  0  0  0
 33 34  1  0  0  0  0
 33 35  1  0  0  0  0
 36 37  1  1  0  0  0
 36 38  1  0  0  0  0
 36 39  1  6  0  0  0
 40 41  1  1  0  0  0
 40 44  1  0  0  0  0
 41 42  1  0  0  0  0
 41 43  1  0  0  0  0
 44 45  1  6  0  0  0
 46 47  1  1  0  0  0
 46 49  1  0  0  0  0
 47 48  1  0  0  0  0
 49 50  1  1  0  0  0
 49 54  1  0  0  0  0
 50 51  1  0  0  0  0
 51 52  2  0  0  0  0
 51 53  1  0  0  0  0
 54 55  1  0  0  0  0
 55 56  2  0  0  0  0
M  END
>  <Index>
1612

>  <ID>
HT1153

>  <class>
1

>  <apol>
133.05872

>  <ast_fraglike>
0

>  <ast_fraglike_ext>
0

>  <ast_violation>
3

>  <ast_violation_ext>
5

>  <a_acc>
13

>  <a_acid>
0

>  <a_aro>
0

>  <a_base>
0

>  <a_count>
127

>  <a_don>
3

>  <a_donacc>
16

>  <a_heavy>
58

>  <a_hyd>
36

>  <a_IC>
180.99408

>  <a_ICM>
1.4251502

>  <a_nB>
0

>  <a_nBr>
0

>  <a_nC>
42

>  <a_nCl>
0

>  <a_nF>
0

>  <a_nH>
69

>  <a_nI>
0

>  <a_nN>
1

>  <a_nO>
15

>  <a_nP>
0

>  <a_nS>
0

>  <balabanJ>
1.9479383

>  <BCUT_PEOE_0>
-2.8117142

>  <BCUT_PEOE_1>
-0.44927096

>  <BCUT_PEOE_2>
0.54830277

>  <BCUT_PEOE_3>
2.8379006

>  <BCUT_SLOGP_0>
-2.9522791

>  <BCUT_SLOGP_1>
-0.41306177

>  <BCUT_SLOGP_2>
0.46739313

>  <BCUT_SLOGP_3>
2.7684326

>  <BCUT_SMR_0>
-2.590008

>  <BCUT_SMR_1>
-0.36391556

>  <BCUT_SMR_2>
0.63675237

>  <BCUT_SMR_3>
3.0450945

>  <bpol>
96.571281

>  <b_1rotN>
12

>  <b_1rotR>
0.2

>  <b_ar>
0

>  <b_count>
129

>  <b_double>
6

>  <b_heavy>
60

>  <b_max1len>
4

>  <b_rotN>
14

>  <b_rotR>
0.23333333

>  <b_single>
123

>  <b_triple>
0

>  <chi0>
43.482033

>  <chi0v>
36.054829

>  <chi0v_C>
29.366997

>  <chi0_C>
30.247829

>  <chi1>
27.178886

>  <chi1v>
20.410759

>  <chi1v_C>
13.821005

>  <chi1_C>
14.766163

>  <chiral>
16

>  <chiral_u>
0

>  <density>
0.73935324

>  <diameter>
23

>  <FCharge>
0

>  <GCUT_PEOE_0>
-0.85206783

>  <GCUT_PEOE_1>
-0.35986349

>  <GCUT_PEOE_2>
0.048886985

>  <GCUT_PEOE_3>
3.4173288

>  <GCUT_SLOGP_0>
-0.96996385

>  <GCUT_SLOGP_1>
-0.28923589

>  <GCUT_SLOGP_2>
-0.008212422

>  <GCUT_SLOGP_3>
3.3801074

>  <GCUT_SMR_0>
-0.5334084

>  <GCUT_SMR_1>
-0.19227813

>  <GCUT_SMR_2>
0.12719627

>  <GCUT_SMR_3>
3.6196258

>  <Kier1>
52.345001

>  <Kier2>
24.740761

>  <Kier3>
15.946746

>  <KierA1>
47.773567

>  <KierA2>
22.542904

>  <KierA3>
14.513669

>  <KierFlex>
18.568188

>  <lip_acc>
16

>  <lip_don>
3

>  <lip_druglike>
0

>  <lip_violation>
2

>  <logP(o/w)>
3.51248

>  <logS>
-5.1556301

>  <mr>
21.353077

>  <mutagenic>
0

>  <nmol>
1

>  <opr_brigid>
28

>  <opr_leadlike>
0

>  <opr_nring>
2

>  <opr_nrot>
29

>  <opr_violation>
3

>  <PC+>
0

>  <PC->
0

>  <PEOE_PC+>
5.9581642

>  <PEOE_PC->
-5.9581642

>  <PEOE_RPC+>
0.044477876

>  <PEOE_RPC->
0.065035783

>  <PEOE_VSA+0>
261.79166

>  <PEOE_VSA+1>
121.67963

>  <PEOE_VSA+2>
47.294914

>  <PEOE_VSA+3>
22.309816

>  <PEOE_VSA+4>
30.972517

>  <PEOE_VSA+5>
44.125496

>  <PEOE_VSA+6>
0

>  <PEOE_VSA-0>
138.87071

>  <PEOE_VSA-1>
105.26265

>  <PEOE_VSA-2>
0

>  <PEOE_VSA-3>
0

>  <PEOE_VSA-4>
0

>  <PEOE_VSA-5>
40.700764

>  <PEOE_VSA-6>
56.89959

>  <PEOE_VSA_FHYD>
0.80147505

>  <PEOE_VSA_FNEG>
0.39283904

>  <PEOE_VSA_FPNEG>
0.11219621

>  <PEOE_VSA_FPOL>
0.19852492

>  <PEOE_VSA_FPOS>
0.60716099

>  <PEOE_VSA_FPPOS>
0.086328715

>  <PEOE_VSA_HYD>
697.20935

>  <PEOE_VSA_NEG>
341.7337

>  <PEOE_VSA_PNEG>
97.600349

>  <PEOE_VSA_POL>
172.69836

>  <PEOE_VSA_POS>
528.17401

>  <PEOE_VSA_PPOS>
75.098015

>  <petitjean>
0.47826087

>  <petitjeanSC>
0.91666669

>  <Q_PC+>
0

>  <Q_PC->
0

>  <Q_RPC+>
0

>  <Q_RPC->
0

>  <Q_VSA_FHYD>
1

>  <Q_VSA_FNEG>
0

>  <Q_VSA_FPNEG>
0

>  <Q_VSA_FPOL>
0

>  <Q_VSA_FPOS>
1

>  <Q_VSA_FPPOS>
0

>  <Q_VSA_HYD>
869.90778

>  <Q_VSA_NEG>
0

>  <Q_VSA_PNEG>
0

>  <Q_VSA_POL>
0

>  <Q_VSA_POS>
869.90778

>  <Q_VSA_PPOS>
0

>  <radius>
12

>  <reactive>
1

>  <rings>
3

>  <RPC+>
0

>  <RPC->
0

>  <rsynth>
0.63793105

>  <SlogP>
3.0134001

>  <SlogP_VSA0>
76.155678

>  <SlogP_VSA1>
26.360706

>  <SlogP_VSA2>
289.31467

>  <SlogP_VSA3>
0

>  <SlogP_VSA4>
13.232388

>  <SlogP_VSA5>
101.17825

>  <SlogP_VSA6>
0

>  <SlogP_VSA7>
70.572739

>  <SlogP_VSA8>
113.21043

>  <SlogP_VSA9>
266.60812

>  <SMR>
20.98514

>  <SMR_VSA0>
183.44797

>  <SMR_VSA1>
79.279991

>  <SMR_VSA2>
13.232388

>  <SMR_VSA3>
85.721466

>  <SMR_VSA4>
0

>  <SMR_VSA5>
183.78317

>  <SMR_VSA6>
23.236393

>  <SMR_VSA7>
387.93158

>  <TPSA>
206.05

>  <VAdjEq>
0.22208287

>  <VAdjMa>
6.9068904

>  <VDistEq>
4.2164636

>  <VDistMa>
11.456266

>  <vdw_area>
869.90778

>  <vdw_vol>
1119.9059

>  <vsa_acc>
66.786461

>  <vsa_acid>
0

>  <vsa_base>
0

>  <vsa_don>
0

>  <vsa_hyd>
594.72028

>  <vsa_other>
103.11224

>  <vsa_pol>
107.48723

>  <Weight>
828.00598

>  <weinerPath>
14434

>  <weinerPol>
98

>  <zagreb>
290

$$$$