s1c(nnc1SCC=1CS[C@H]2N(C=1C(O)=O)C(=O)[C@H]2NC(=O)Cn1nnnc1)C
  MOE2013           2D

 29 32  0  0  1  0  0  0  0  0999 V2000
    0.0000    0.0000    0.0000 S   0  0  0  0  0  0  0  0  0  0  0  0
    1.2520    0.8260    0.0000 C   0  0  0  0  0  0  0  0  0  0  0  0
    0.8530    2.2720    0.0000 N   0  0  0  0  0  0  0  0  0  0  0  0
   -0.6460    2.3400    0.0000 N   0  0  0  0  0  0  0  0  0  0  0  0
   -1.1730    0.9350    0.0000 C   0  0  0  0  0  0  0  0  0  0  0  0
   -2.6190    0.5360    0.0000 S   0  0  0  0  0  0  0  0  0  0  0  0
   -3.6870    1.5880    0.0000 C   0  0  0  0  0  0  0  0  0  0  0  0
   -5.1330    1.1890    0.0000 C   0  0  0  0  0  0  0  0  0  0  0  0
   -5.5110   -0.2630    0.0000 C   0  0  0  0  0  0  0  0  0  0  0  0
   -6.9560   -0.6620    0.0000 S   0  0  0  0  0  0  0  0  0  0  0  0
   -8.0250    0.3910    0.0000 C   0  0  1  0  0  0  0  0  0  0  0  0
   -7.6480    1.8430    0.0000 N   0  0  0  0  0  0  0  0  0  0  0  0
   -6.2020    2.2420    0.0000 C   0  0  0  0  0  0  0  0  0  0  0  0
   -5.8250    3.6940    0.0000 C   0  0  0  0  0  0  0  0  0  0  0  0
   -4.3790    4.0930    0.0000 O   0  0  0  0  0  0  0  0  0  0  0  0
   -6.8940    4.7460    0.0000 O   0  0  0  0  0  0  0  0  0  0  0  0
   -9.1000    2.2200    0.0000 C   0  0  0  0  0  0  0  0  0  0  0  0
   -9.8600    3.5130    0.0000 O   0  0  0  0  0  0  0  0  0  0  0  0
   -9.4770    0.7680    0.0000 C   0  0  1  0  0  0  0  0  0  0  0  0
  -10.7700    0.0080    0.0000 N   0  0  0  0  0  0  0  0  0  0  0  0
  -12.0750    0.7480    0.0000 C   0  0  0  0  0  0  0  0  0  0  0  0
  -12.0860    2.2480    0.0000 O   0  0  0  0  0  0  0  0  0  0  0  0
  -13.3680   -0.0120    0.0000 C   0  0  0  0  0  0  0  0  0  0  0  0
  -14.6730    0.7280    0.0000 N   0  0  0  0  0  0  0  0  0  0  0  0
  -14.8410    2.2190    0.0000 N   0  0  0  0  0  0  0  0  0  0  0  0
  -16.3110    2.5200    0.0000 N   0  0  0  0  0  0  0  0  0  0  0  0
  -17.0510    1.2150    0.0000 N   0  0  0  0  0  0  0  0  0  0  0  0
  -16.0390    0.1080    0.0000 C   0  0  0  0  0  0  0  0  0  0  0  0
    2.6560    0.3000    0.0000 C   0  0  0  0  0  0  0  0  0  0  0  0
  1  2  1  0  0  0  0
  1  5  1  0  0  0  0
  2  3  2  0  0  0  0
  2 29  1  0  0  0  0
  3  4  1  0  0  0  0
  4  5  2  0  0  0  0
  5  6  1  0  0  0  0
  6  7  1  0  0  0  0
  7  8  1  0  0  0  0
  8  9  1  0  0  0  0
  8 13  2  0  0  0  0
  9 10  1  0  0  0  0
 11 10  1  6  0  0  0
 11 12  1  0  0  0  0
 11 19  1  0  0  0  0
 12 13  1  0  0  0  0
 12 17  1  0  0  0  0
 13 14  1  0  0  0  0
 14 15  1  0  0  0  0
 14 16  2  0  0  0  0
 17 18  2  0  0  0  0
 17 19  1  0  0  0  0
 19 20  1  6  0  0  0
 20 21  1  0  0  0  0
 21 22  2  0  0  0  0
 21 23  1  0  0  0  0
 23 24  1  0  0  0  0
 24 25  1  0  0  0  0
 24 28  1  0  0  0  0
 25 26  2  0  0  0  0
 26 27  1  0  0  0  0
 27 28  2  0  0  0  0
M  END
>  <Index>
1466

>  <ID>
HT0400

>  <class>
1

>  <apol>
54.683102

>  <ast_fraglike>
0

>  <ast_fraglike_ext>
0

>  <ast_violation>
2

>  <ast_violation_ext>
4

>  <a_acc>
9

>  <a_acid>
0

>  <a_aro>
10

>  <a_base>
0

>  <a_count>
43

>  <a_don>
3

>  <a_donacc>
12

>  <a_heavy>
29

>  <a_hyd>
13

>  <a_IC>
89.968559

>  <a_ICM>
2.0922921

>  <a_nB>
0

>  <a_nBr>
0

>  <a_nC>
14

>  <a_nCl>
0

>  <a_nF>
0

>  <a_nH>
14

>  <a_nI>
0

>  <a_nN>
8

>  <a_nO>
4

>  <a_nP>
0

>  <a_nS>
3

>  <balabanJ>
1.3038719

>  <BCUT_PEOE_0>
-2.6881762

>  <BCUT_PEOE_1>
-0.49225745

>  <BCUT_PEOE_2>
0.48590556

>  <BCUT_PEOE_3>
2.7360981

>  <BCUT_SLOGP_0>
-2.893873

>  <BCUT_SLOGP_1>
-0.48788774

>  <BCUT_SLOGP_2>
0.53498578

>  <BCUT_SLOGP_3>
2.6241455

>  <BCUT_SMR_0>
-2.4024169

>  <BCUT_SMR_1>
-0.29759485

>  <BCUT_SMR_2>
0.81448442

>  <BCUT_SMR_3>
3.0203204

>  <bpol>
30.958899

>  <b_1rotN>
7

>  <b_1rotR>
0.21875

>  <b_ar>
10

>  <b_count>
46

>  <b_double>
4

>  <b_heavy>
32

>  <b_max1len>
3

>  <b_rotN>
8

>  <b_rotR>
0.25

>  <b_single>
32

>  <b_triple>
0

>  <chi0>
20.543242

>  <chi0v>
17.330059

>  <chi0v_C>
8.3533716

>  <chi0_C>
9.02458

>  <chi1>
13.935561

>  <chi1v>
11.11885

>  <chi1v_C>
2.6826687

>  <chi1_C>
3.1354284

>  <chiral>
2

>  <chiral_u>
0

>  <density>
0.95560467

>  <diameter>
16

>  <FCharge>
0

>  <GCUT_PEOE_0>
-0.82438189

>  <GCUT_PEOE_1>
-0.48027197

>  <GCUT_PEOE_2>
0.036099527

>  <GCUT_PEOE_3>
2.5863404

>  <GCUT_SLOGP_0>
-1.1646148

>  <GCUT_SLOGP_1>
-0.45546797

>  <GCUT_SLOGP_2>
0.10828739

>  <GCUT_SLOGP_3>
2.5604115

>  <GCUT_SMR_0>
-0.52907574

>  <GCUT_SMR_1>
-0.22984263

>  <GCUT_SMR_2>
0.30161285

>  <GCUT_SMR_3>
2.8766818

>  <Kier1>
22.203125

>  <Kier2>
9.6465025

>  <Kier3>
4.9240375

>  <KierA1>
19.412958

>  <KierA2>
8.3919363

>  <KierA3>
4.2677994

>  <KierFlex>
5.6176653

>  <lip_acc>
12

>  <lip_don>
2

>  <lip_druglike>
1

>  <lip_violation>
1

>  <logP(o/w)>
-0.85399997

>  <logS>
-3.9619501

>  <mr>
10.717241

>  <mutagenic>
0

>  <nmol>
1

>  <opr_brigid>
19

>  <opr_leadlike>
0

>  <opr_nring>
4

>  <opr_nrot>
7

>  <opr_violation>
2

>  <PC+>
0

>  <PC->
0

>  <PEOE_PC+>
2.7751937

>  <PEOE_PC->
-2.7751937

>  <PEOE_RPC+>
0.11096103

>  <PEOE_RPC->
0.12274434

>  <PEOE_VSA+0>
59.888065

>  <PEOE_VSA+1>
27.713219

>  <PEOE_VSA+2>
53.66217

>  <PEOE_VSA+3>
8.6190128

>  <PEOE_VSA+4>
43.034321

>  <PEOE_VSA+5>
12.949531

>  <PEOE_VSA+6>
14.708499

>  <PEOE_VSA-0>
47.275223

>  <PEOE_VSA-1>
0

>  <PEOE_VSA-2>
48.942276

>  <PEOE_VSA-3>
18.842079

>  <PEOE_VSA-4>
0

>  <PEOE_VSA-5>
40.700764

>  <PEOE_VSA-6>
7.9044313

>  <PEOE_VSA_FHYD>
0.68952304

>  <PEOE_VSA_FNEG>
0.42594457

>  <PEOE_VSA_FPNEG>
0.1264971

>  <PEOE_VSA_FPOL>
0.31047699

>  <PEOE_VSA_FPOS>
0.57405543

>  <PEOE_VSA_FPPOS>
0.18397987

>  <PEOE_VSA_HYD>
264.94205

>  <PEOE_VSA_NEG>
163.66476

>  <PEOE_VSA_PNEG>
48.605194

>  <PEOE_VSA_POL>
119.29755

>  <PEOE_VSA_POS>
220.57481

>  <PEOE_VSA_PPOS>
70.692352

>  <petitjean>
0.5

>  <petitjeanSC>
1

>  <Q_PC+>
0

>  <Q_PC->
0

>  <Q_RPC+>
0

>  <Q_RPC->
0

>  <Q_VSA_FHYD>
1

>  <Q_VSA_FNEG>
0

>  <Q_VSA_FPNEG>
0

>  <Q_VSA_FPOL>
0

>  <Q_VSA_FPOS>
1

>  <Q_VSA_FPPOS>
0

>  <Q_VSA_HYD>
384.23959

>  <Q_VSA_NEG>
0

>  <Q_VSA_PNEG>
0

>  <Q_VSA_POL>
0

>  <Q_VSA_POS>
384.23959

>  <Q_VSA_PPOS>
0

>  <radius>
8

>  <reactive>
0

>  <rings>
4

>  <RPC+>
0

>  <RPC->
0

>  <rsynth>
0.48275861

>  <SlogP>
-0.36967999

>  <SlogP_VSA0>
18.01075

>  <SlogP_VSA1>
106.23391

>  <SlogP_VSA2>
77.915749

>  <SlogP_VSA3>
59.852356

>  <SlogP_VSA4>
0.92957383

>  <SlogP_VSA5>
5.9423227

>  <SlogP_VSA6>
0

>  <SlogP_VSA7>
16.78553

>  <SlogP_VSA8>
0

>  <SlogP_VSA9>
147.48236

>  <SMR>
10.30785

>  <SMR_VSA0>
71.586647

>  <SMR_VSA1>
87.970879

>  <SMR_VSA2>
43.395977

>  <SMR_VSA3>
13.200993

>  <SMR_VSA4>
0

>  <SMR_VSA5>
35.225109

>  <SMR_VSA6>
52.73016

>  <SMR_VSA7>
129.04279

>  <TPSA>
156.09

>  <VAdjEq>
0.38828552

>  <VAdjMa>
6

>  <VDistEq>
3.7308617

>  <VDistMa>
9.4040966

>  <vdw_area>
384.23959

>  <vdw_vol>
475.63184

>  <vsa_acc>
81.715965

>  <vsa_acid>
0

>  <vsa_base>
0

>  <vsa_don>
5.6825762

>  <vsa_hyd>
188.16946

>  <vsa_other>
65.398079

>  <vsa_pol>
114.53239

>  <Weight>
454.51599

>  <weinerPath>
2468

>  <weinerPol>
41

>  <zagreb>
156

$$$$