NC12CC3(CC(C1)(CC(C3)C2)C)C
  MOE2013           2D

 13 15  0  0  1  0  0  0  0  0999 V2000
    0.0000    0.0000    0.0000 N   0  0  0  0  0  0  0  0  0  0  0  0
    0.0560   -1.4990    0.0000 C   0  0  0  0  0  0  0  0  0  0  0  0
   -1.3110   -2.0890    0.0000 C   0  0  0  0  0  0  0  0  0  0  0  0
   -1.2840   -3.5620    0.0000 C   0  0  3  0  0  0  0  0  0  0  0  0
    0.2220   -4.0040    0.0000 C   0  0  0  0  0  0  0  0  0  0  0  0
    1.6410   -3.3770    0.0000 C   0  0  3  0  0  0  0  0  0  0  0  0
    1.5960   -1.9010    0.0000 C   0  0  0  0  0  0  0  0  0  0  0  0
    2.6040   -4.5520    0.0000 C   0  0  0  0  0  0  0  0  0  0  0  0
    0.9940   -3.9870    0.0000 C   0  0  0  0  0  0  0  0  0  0  0  0
   -0.3260   -4.5790    0.0000 C   0  0  0  0  0  0  0  0  0  0  0  0
    0.9130   -2.6090    0.0000 C   0  0  0  0  0  0  0  0  0  0  0  0
    3.0300   -2.8110    0.0000 C   0  0  0  0  0  0  0  0  0  0  0  0
   -2.6730   -4.1270    0.0000 C   0  0  0  0  0  0  0  0  0  0  0  0
  1  2  1  0  0  0  0
  2  3  1  0  0  0  0
  2  7  1  0  0  0  0
  2 11  1  0  0  0  0
  3  4  1  0  0  0  0
  4  5  1  0  0  0  0
  4 10  1  0  0  0  0
  4 13  1  0  0  0  0
  5  6  1  0  0  0  0
  6  7  1  0  0  0  0
  6  8  1  0  0  0  0
  6 12  1  0  0  0  0
  8  9  1  0  0  0  0
  9 10  1  0  0  0  0
  9 11  1  0  0  0  0
M  END
>  <Index>
1634

>  <ID>
HT1297

>  <class>
1

>  <apol>
36.222652

>  <ast_fraglike>
1

>  <ast_fraglike_ext>
1

>  <ast_violation>
0

>  <ast_violation_ext>
0

>  <a_acc>
1

>  <a_acid>
0

>  <a_aro>
0

>  <a_base>
0

>  <a_count>
34

>  <a_don>
1

>  <a_donacc>
2

>  <a_heavy>
13

>  <a_hyd>
12

>  <a_IC>
37.715519

>  <a_ICM>
1.10928

>  <a_nB>
0

>  <a_nBr>
0

>  <a_nC>
12

>  <a_nCl>
0

>  <a_nF>
0

>  <a_nH>
21

>  <a_nI>
0

>  <a_nN>
1

>  <a_nO>
0

>  <a_nP>
0

>  <a_nS>
0

>  <balabanJ>
2.0314968

>  <BCUT_PEOE_0>
-3.0345573

>  <BCUT_PEOE_1>
0.0095314309

>  <BCUT_PEOE_2>
0.040088315

>  <BCUT_PEOE_3>
2.9780478

>  <BCUT_SLOGP_0>
-2.9922695

>  <BCUT_SLOGP_1>
0.070339382

>  <BCUT_SLOGP_2>
0.123

>  <BCUT_SLOGP_3>
3.064853

>  <BCUT_SMR_0>
-2.7742906

>  <BCUT_SMR_1>
0.1057

>  <BCUT_SMR_2>
0.16474937

>  <BCUT_SMR_3>
3.2384121

>  <bpol>
22.297346

>  <b_1rotN>
0

>  <b_1rotR>
0

>  <b_ar>
0

>  <b_count>
36

>  <b_double>
0

>  <b_heavy>
15

>  <b_max1len>
2

>  <b_rotN>
0

>  <b_rotR>
0

>  <b_single>
36

>  <b_triple>
0

>  <chi0>
9.3199911

>  <chi0v>
8.8973408

>  <chi0v_C>
8.3199911

>  <chi0_C>
8.3199911

>  <chi1>
5.9067254

>  <chi1v>
5.6954007

>  <chi1v_C>
5.4067254

>  <chi1_C>
5.4067254

>  <chiral>
2

>  <chiral_u>
2

>  <density>
0.64031512

>  <diameter>
4

>  <FCharge>
0

>  <GCUT_PEOE_0>
-0.83956963

>  <GCUT_PEOE_1>
-0.25569099

>  <GCUT_PEOE_2>
-0.13118072

>  <GCUT_PEOE_3>
3.0435104

>  <GCUT_SLOGP_0>
-1.3636006

>  <GCUT_SLOGP_1>
-0.19935967

>  <GCUT_SLOGP_2>
-0.037

>  <GCUT_SLOGP_3>
3.1285527

>  <GCUT_SMR_0>
-0.53635597

>  <GCUT_SMR_1>
-0.096836947

>  <GCUT_SMR_2>
-0.054299999

>  <GCUT_SMR_3>
3.2700474

>  <Kier1>
8.3199997

>  <Kier2>
1.9917696

>  <Kier3>
1.1019284

>  <KierA1>
8.3199997

>  <KierA2>
1.9917696

>  <KierA3>
1.1019284

>  <KierFlex>
1.2747325

>  <lip_acc>
1

>  <lip_don>
2

>  <lip_druglike>
1

>  <lip_violation>
0

>  <logP(o/w)>
2.816

>  <logS>
-3.1388199

>  <mr>
5.3085175

>  <mutagenic>
0

>  <nmol>
1

>  <opr_brigid>
12

>  <opr_leadlike>
1

>  <opr_nring>
3

>  <opr_nrot>
0

>  <opr_violation>
0

>  <PC+>
0

>  <PC->
0

>  <PEOE_PC+>
0.76322675

>  <PEOE_PC->
-0.76322675

>  <PEOE_RPC+>
0.15555739

>  <PEOE_RPC->
0.42526996

>  <PEOE_VSA+0>
81.042336

>  <PEOE_VSA+1>
0

>  <PEOE_VSA+2>
17.238026

>  <PEOE_VSA+3>
0

>  <PEOE_VSA+4>
0

>  <PEOE_VSA+5>
0

>  <PEOE_VSA+6>
0

>  <PEOE_VSA-0>
52.207878

>  <PEOE_VSA-1>
37.495354

>  <PEOE_VSA-2>
0

>  <PEOE_VSA-3>
0

>  <PEOE_VSA-4>
0

>  <PEOE_VSA-5>
0

>  <PEOE_VSA-6>
6.6511192

>  <PEOE_VSA_FHYD>
0.9658277

>  <PEOE_VSA_FNEG>
0.49505225

>  <PEOE_VSA_FPNEG>
0.034172319

>  <PEOE_VSA_FPOL>
0.034172319

>  <PEOE_VSA_FPOS>
0.50494772

>  <PEOE_VSA_FPPOS>
0

>  <PEOE_VSA_HYD>
187.9836

>  <PEOE_VSA_NEG>
96.354355

>  <PEOE_VSA_PNEG>
6.6511192

>  <PEOE_VSA_POL>
6.6511192

>  <PEOE_VSA_POS>
98.280357

>  <PEOE_VSA_PPOS>
0

>  <petitjean>
0.25

>  <petitjeanSC>
0.33333334

>  <Q_PC+>
0

>  <Q_PC->
0

>  <Q_RPC+>
0

>  <Q_RPC->
0

>  <Q_VSA_FHYD>
1

>  <Q_VSA_FNEG>
0

>  <Q_VSA_FPNEG>
0

>  <Q_VSA_FPOL>
0

>  <Q_VSA_FPOS>
1

>  <Q_VSA_FPPOS>
0

>  <Q_VSA_HYD>
194.63472

>  <Q_VSA_NEG>
0

>  <Q_VSA_PNEG>
0

>  <Q_VSA_POL>
0

>  <Q_VSA_POS>
194.63472

>  <Q_VSA_PPOS>
0

>  <radius>
3

>  <reactive>
0

>  <rings>
3

>  <RPC+>
0

>  <RPC->
0

>  <rsynth>
1

>  <SlogP>
2.6940999

>  <SlogP_VSA0>
32.897186

>  <SlogP_VSA1>
0

>  <SlogP_VSA2>
0

>  <SlogP_VSA3>
0

>  <SlogP_VSA4>
4.4107962

>  <SlogP_VSA5>
0

>  <SlogP_VSA6>
0

>  <SlogP_VSA7>
0

>  <SlogP_VSA8>
113.21043

>  <SlogP_VSA9>
66.652031

>  <SMR>
5.4324398

>  <SMR_VSA0>
0

>  <SMR_VSA1>
0

>  <SMR_VSA2>
4.4107962

>  <SMR_VSA3>
0

>  <SMR_VSA4>
32.897186

>  <SMR_VSA5>
113.21043

>  <SMR_VSA6>
0

>  <SMR_VSA7>
66.652031

>  <TPSA>
26.02

>  <VAdjEq>
0.67461002

>  <VAdjMa>
4.9068904

>  <VDistEq>
1.9542824

>  <VDistMa>
7.1586466

>  <vdw_area>
194.63472

>  <vdw_vol>
280.02933

>  <vsa_acc>
0

>  <vsa_acid>
0

>  <vsa_base>
0

>  <vsa_don>
0

>  <vsa_hyd>
155.8764

>  <vsa_other>
0

>  <vsa_pol>
17.742489

>  <Weight>
179.30699

>  <weinerPath>
192

>  <weinerPol>
21

>  <zagreb>
84

$$$$