N(Cc1c2c(ccc1)cccc2)(CC=CC#CC(C)(C)C)C
  MOE2013           2D

 22 23  0  0  1  0  0  0  0  0999 V2000
    0.0000    0.0000    0.0000 N   0  0  3  0  0  0  0  0  0  0  0  0
   -1.5000   -0.0120    0.0000 C   0  0  0  0  0  0  0  0  0  0  0  0
   -2.2400   -1.3160    0.0000 C   0  0  0  0  0  0  0  0  0  0  0  0
   -3.7400   -1.3280    0.0000 C   0  0  0  0  0  0  0  0  0  0  0  0
   -4.4800   -2.6330    0.0000 C   0  0  0  0  0  0  0  0  0  0  0  0
   -3.7200   -3.9260    0.0000 C   0  0  0  0  0  0  0  0  0  0  0  0
   -2.2200   -3.9140    0.0000 C   0  0  0  0  0  0  0  0  0  0  0  0
   -1.4800   -2.6100    0.0000 C   0  0  0  0  0  0  0  0  0  0  0  0
   -5.9800   -2.6440    0.0000 C   0  0  0  0  0  0  0  0  0  0  0  0
   -6.7400   -1.3510    0.0000 C   0  0  0  0  0  0  0  0  0  0  0  0
   -6.0000   -0.0460    0.0000 C   0  0  0  0  0  0  0  0  0  0  0  0
   -4.5000   -0.0350    0.0000 C   0  0  0  0  0  0  0  0  0  0  0  0
    0.7400    1.3050    0.0000 C   0  0  0  0  0  0  0  0  0  0  0  0
    2.2400    1.3160    0.0000 C   0  0  0  0  0  0  0  0  0  0  0  0
    2.9800    2.6210    0.0000 C   0  0  0  0  0  0  0  0  0  0  0  0
    4.4800    2.6330    0.0000 C   0  0  0  0  0  0  0  0  0  0  0  0
    5.9800    2.6440    0.0000 C   0  0  0  0  0  0  0  0  0  0  0  0
    7.4800    2.6560    0.0000 C   0  0  0  0  0  0  0  0  0  0  0  0
    7.4680    4.1560    0.0000 C   0  0  0  0  0  0  0  0  0  0  0  0
    7.4910    1.1560    0.0000 C   0  0  0  0  0  0  0  0  0  0  0  0
    8.9800    2.6670    0.0000 C   0  0  0  0  0  0  0  0  0  0  0  0
    0.7600   -1.2930    0.0000 C   0  0  0  0  0  0  0  0  0  0  0  0
  1  2  1  0  0  0  0
  1 13  1  0  0  0  0
  1 22  1  0  0  0  0
  2  3  1  0  0  0  0
  3  4  1  0  0  0  0
  3  8  2  0  0  0  0
  4  5  1  0  0  0  0
  4 12  2  0  0  0  0
  5  6  1  0  0  0  0
  5  9  2  0  0  0  0
  6  7  2  0  0  0  0
  7  8  1  0  0  0  0
  9 10  1  0  0  0  0
 10 11  2  0  0  0  0
 11 12  1  0  0  0  0
 13 14  1  0  0  0  0
 14 15  2  3  0  0  0
 15 16  1  0  0  0  0
 16 17  3  0  0  0  0
 17 18  1  0  0  0  0
 18 19  1  0  0  0  0
 18 20  1  0  0  0  0
 18 21  1  0  0  0  0
M  END
>  <Index>
1736

>  <ID>
HT2008

>  <class>
1

>  <apol>
54.729824

>  <ast_fraglike>
0

>  <ast_fraglike_ext>
0

>  <ast_violation>
1

>  <ast_violation_ext>
2

>  <a_acc>
1

>  <a_acid>
0

>  <a_aro>
10

>  <a_base>
0

>  <a_count>
47

>  <a_don>
0

>  <a_donacc>
1

>  <a_heavy>
22

>  <a_hyd>
21

>  <a_IC>
52.730606

>  <a_ICM>
1.1219277

>  <a_nB>
0

>  <a_nBr>
0

>  <a_nC>
21

>  <a_nCl>
0

>  <a_nF>
0

>  <a_nH>
25

>  <a_nI>
0

>  <a_nN>
1

>  <a_nO>
0

>  <a_nP>
0

>  <a_nS>
0

>  <balabanJ>
1.6287897

>  <BCUT_PEOE_0>
-2.5827093

>  <BCUT_PEOE_1>
-0.50112957

>  <BCUT_PEOE_2>
0.56208348

>  <BCUT_PEOE_3>
2.5509012

>  <BCUT_SLOGP_0>
-2.5866084

>  <BCUT_SLOGP_1>
-0.3896814

>  <BCUT_SLOGP_2>
0.67188048

>  <BCUT_SLOGP_3>
2.6573012

>  <BCUT_SMR_0>
-2.3413632

>  <BCUT_SMR_1>
-0.35460404

>  <BCUT_SMR_2>
0.71233416

>  <BCUT_SMR_3>
2.7948077

>  <bpol>
29.310175

>  <b_1rotN>
5

>  <b_1rotR>
0.2173913

>  <b_ar>
11

>  <b_count>
48

>  <b_double>
1

>  <b_heavy>
23

>  <b_max1len>
5

>  <b_rotN>
6

>  <b_rotR>
0.26086956

>  <b_single>
35

>  <b_triple>
1

>  <chi0>
16.001789

>  <chi0v>
14.05758

>  <chi0v_C>
13.610366

>  <chi0_C>
15.424439

>  <chi1>
10.455308

>  <chi1v>
7.7848463

>  <chi1v_C>
6.7051773

>  <chi1_C>
9.0614614

>  <chiral>
0

>  <chiral_u>
0

>  <density>
0.62033701

>  <diameter>
13

>  <FCharge>
0

>  <GCUT_PEOE_0>
-0.85121781

>  <GCUT_PEOE_1>
-0.33782595

>  <GCUT_PEOE_2>
0.039845008

>  <GCUT_PEOE_3>
2.5436339

>  <GCUT_SLOGP_0>
-0.92403489

>  <GCUT_SLOGP_1>
-0.24159634

>  <GCUT_SLOGP_2>
0.12855914

>  <GCUT_SLOGP_3>
2.6759422

>  <GCUT_SMR_0>
-0.52495325

>  <GCUT_SMR_1>
-0.16900341

>  <GCUT_SMR_2>
0.15448223

>  <GCUT_SMR_3>
2.8387513

>  <Kier1>
18.340265

>  <Kier2>
8.7408953

>  <Kier3>
6.5743942

>  <KierA1>
13.648394

>  <KierA2>
6.405827

>  <KierA3>
4.7647057

>  <KierFlex>
3.9740567

>  <lip_acc>
1

>  <lip_don>
0

>  <lip_druglike>
1

>  <lip_violation>
1

>  <logP(o/w)>
5.8920002

>  <logS>
-6.4347401

>  <mr>
9.4921532

>  <mutagenic>
0

>  <nmol>
1

>  <opr_brigid>
13

>  <opr_leadlike>
1

>  <opr_nring>
2

>  <opr_nrot>
6

>  <opr_violation>
1

>  <PC+>
0

>  <PC->
0

>  <PEOE_PC+>
1.1570259

>  <PEOE_PC->
-1.1570259

>  <PEOE_RPC+>
0.06129564

>  <PEOE_RPC->
0.25714356

>  <PEOE_VSA+0>
94.630829

>  <PEOE_VSA+1>
38.388474

>  <PEOE_VSA+2>
0

>  <PEOE_VSA+3>
0

>  <PEOE_VSA+4>
0

>  <PEOE_VSA+5>
0

>  <PEOE_VSA+6>
0

>  <PEOE_VSA-0>
98.362244

>  <PEOE_VSA-1>
129.65622

>  <PEOE_VSA-2>
0

>  <PEOE_VSA-3>
0

>  <PEOE_VSA-4>
0

>  <PEOE_VSA-5>
0

>  <PEOE_VSA-6>
0

>  <PEOE_VSA_FHYD>
1

>  <PEOE_VSA_FNEG>
0.63156402

>  <PEOE_VSA_FPNEG>
0

>  <PEOE_VSA_FPOL>
0

>  <PEOE_VSA_FPOS>
0.36843598

>  <PEOE_VSA_FPPOS>
0

>  <PEOE_VSA_HYD>
361.03775

>  <PEOE_VSA_NEG>
228.01846

>  <PEOE_VSA_PNEG>
0

>  <PEOE_VSA_POL>
0

>  <PEOE_VSA_POS>
133.0193

>  <PEOE_VSA_PPOS>
0

>  <petitjean>
0.46153846

>  <petitjeanSC>
0.85714287

>  <Q_PC+>
0

>  <Q_PC->
0

>  <Q_RPC+>
0

>  <Q_RPC->
0

>  <Q_VSA_FHYD>
1

>  <Q_VSA_FNEG>
0

>  <Q_VSA_FPNEG>
0

>  <Q_VSA_FPOL>
0

>  <Q_VSA_FPOS>
1

>  <Q_VSA_FPPOS>
0

>  <Q_VSA_HYD>
361.03775

>  <Q_VSA_NEG>
0

>  <Q_VSA_PNEG>
0

>  <Q_VSA_POL>
0

>  <Q_VSA_POS>
361.03775

>  <Q_VSA_PPOS>
0

>  <radius>
7

>  <reactive>
0

>  <rings>
2

>  <RPC+>
0

>  <RPC->
0

>  <rsynth>
0.5

>  <SlogP>
5.1437082

>  <SlogP_VSA0>
0

>  <SlogP_VSA1>
3.1243138

>  <SlogP_VSA2>
0

>  <SlogP_VSA3>
52.500725

>  <SlogP_VSA4>
3.185575

>  <SlogP_VSA5>
32.897186

>  <SlogP_VSA6>
0

>  <SlogP_VSA7>
163.93459

>  <SlogP_VSA8>
0

>  <SlogP_VSA9>
118.41763

>  <SMR>
9.6857996

>  <SMR_VSA0>
0

>  <SMR_VSA1>
3.1243138

>  <SMR_VSA2>
0

>  <SMR_VSA3>
37.246723

>  <SMR_VSA4>
5.1459289

>  <SMR_VSA5>
177.22824

>  <SMR_VSA6>
18.439579

>  <SMR_VSA7>
132.87523

>  <TPSA>
3.24

>  <VAdjEq>
0.4530769

>  <VAdjMa>
5.523562

>  <VDistEq>
3.555872

>  <VDistMa>
8.5747614

>  <vdw_area>
361.03775

>  <vdw_vol>
469.80591

>  <vsa_acc>
0

>  <vsa_acid>
0

>  <vsa_base>
0

>  <vsa_don>
0

>  <vsa_hyd>
343.24289

>  <vsa_other>
0

>  <vsa_pol>
0

>  <Weight>
291.43799

>  <weinerPath>
1273

>  <weinerPol>
28

>  <zagreb>
108

$$$$