O(CCn1c2c(nc1N1CCCN(CC1)C)cccc2)CC
  MOE2013           2D

 22 24  0  0  1  0  0  0  0  0999 V2000
    0.0000    0.0000    0.0000 O   0  0  0  0  0  0  0  0  0  0  0  0
   -0.0090   -1.5000    0.0000 C   0  0  0  0  0  0  0  0  0  0  0  0
    1.2850   -2.2580    0.0000 C   0  0  0  0  0  0  0  0  0  0  0  0
    1.2760   -3.7580    0.0000 N   0  0  0  0  0  0  0  0  0  0  0  0
    0.0570   -4.6320    0.0000 C   0  0  0  0  0  0  0  0  0  0  0  0
    0.5120   -6.0620    0.0000 C   0  0  0  0  0  0  0  0  0  0  0  0
    2.0120   -6.0710    0.0000 N   0  0  0  0  0  0  0  0  0  0  0  0
    2.4840   -4.6470    0.0000 C   0  0  0  0  0  0  0  0  0  0  0  0
    3.9140   -4.1920    0.0000 N   0  0  3  0  0  0  0  0  0  0  0  0
    4.1240   -2.7070    0.0000 C   0  0  0  0  0  0  0  0  0  0  0  0
    5.4170   -1.9470    0.0000 C   0  0  0  0  0  0  0  0  0  0  0  0
    6.8180   -2.4830    0.0000 C   0  0  0  0  0  0  0  0  0  0  0  0
    7.2720   -3.9120    0.0000 N   0  0  3  0  0  0  0  0  0  0  0  0
    6.4380   -5.1590    0.0000 C   0  0  0  0  0  0  0  0  0  0  0  0
    4.9430   -5.2830    0.0000 C   0  0  0  0  0  0  0  0  0  0  0  0
    8.7570   -4.1240    0.0000 C   0  0  0  0  0  0  0  0  0  0  0  0
   -0.4980   -7.1700    0.0000 C   0  0  0  0  0  0  0  0  0  0  0  0
   -1.9640   -6.8490    0.0000 C   0  0  0  0  0  0  0  0  0  0  0  0
   -2.4190   -5.4200    0.0000 C   0  0  0  0  0  0  0  0  0  0  0  0
   -1.4080   -4.3110    0.0000 C   0  0  0  0  0  0  0  0  0  0  0  0
   -1.2940    0.7580    0.0000 C   0  0  0  0  0  0  0  0  0  0  0  0
   -1.2850    2.2580    0.0000 C   0  0  0  0  0  0  0  0  0  0  0  0
  1  2  1  0  0  0  0
  1 21  1  0  0  0  0
  2  3  1  0  0  0  0
  3  4  1  0  0  0  0
  4  5  1  0  0  0  0
  4  8  1  0  0  0  0
  5  6  1  0  0  0  0
  5 20  2  0  0  0  0
  6  7  1  0  0  0  0
  6 17  2  0  0  0  0
  7  8  2  0  0  0  0
  8  9  1  0  0  0  0
  9 10  1  0  0  0  0
  9 15  1  0  0  0  0
 10 11  1  0  0  0  0
 11 12  1  0  0  0  0
 12 13  1  0  0  0  0
 13 14  1  0  0  0  0
 13 16  1  0  0  0  0
 14 15  1  0  0  0  0
 17 18  1  0  0  0  0
 18 19  2  0  0  0  0
 19 20  1  0  0  0  0
 21 22  1  0  0  0  0
M  END
>  <Index>
1545

>  <ID>
HT0750

>  <class>
1

>  <apol>
52.458618

>  <ast_fraglike>
0

>  <ast_fraglike_ext>
0

>  <ast_violation>
1

>  <ast_violation_ext>
2

>  <a_acc>
3

>  <a_acid>
0

>  <a_aro>
9

>  <a_base>
0

>  <a_count>
48

>  <a_don>
0

>  <a_donacc>
3

>  <a_heavy>
22

>  <a_hyd>
16

>  <a_IC>
68.379898

>  <a_ICM>
1.4245813

>  <a_nB>
0

>  <a_nBr>
0

>  <a_nC>
17

>  <a_nCl>
0

>  <a_nF>
0

>  <a_nH>
26

>  <a_nI>
0

>  <a_nN>
4

>  <a_nO>
1

>  <a_nP>
0

>  <a_nS>
0

>  <balabanJ>
1.6610709

>  <BCUT_PEOE_0>
-2.6221404

>  <BCUT_PEOE_1>
-0.33537102

>  <BCUT_PEOE_2>
0.35312539

>  <BCUT_PEOE_3>
2.6569269

>  <BCUT_SLOGP_0>
-2.7221391

>  <BCUT_SLOGP_1>
-0.31790635

>  <BCUT_SLOGP_2>
0.42593697

>  <BCUT_SLOGP_3>
2.6001332

>  <BCUT_SMR_0>
-2.3450727

>  <BCUT_SMR_1>
-0.091893382

>  <BCUT_SMR_2>
0.61518055

>  <BCUT_SMR_3>
2.9361784

>  <bpol>
37.59938

>  <b_1rotN>
5

>  <b_1rotR>
0.20833333

>  <b_ar>
10

>  <b_count>
50

>  <b_double>
0

>  <b_heavy>
24

>  <b_max1len>
6

>  <b_rotN>
5

>  <b_rotR>
0.20833333

>  <b_single>
40

>  <b_triple>
0

>  <chi0>
15.363597

>  <chi0v>
13.663358

>  <chi0v_C>
11.466255

>  <chi0_C>
12.217332

>  <chi1>
10.792025

>  <chi1v>
8.258194

>  <chi1v_C>
4.5344572

>  <chi1_C>
5.3569369

>  <chiral>
0

>  <chiral_u>
0

>  <density>
0.68171299

>  <diameter>
11

>  <FCharge>
0

>  <GCUT_PEOE_0>
-0.85807538

>  <GCUT_PEOE_1>
-0.34589931

>  <GCUT_PEOE_2>
-0.069711961

>  <GCUT_PEOE_3>
2.7683434

>  <GCUT_SLOGP_0>
-0.98906571

>  <GCUT_SLOGP_1>
-0.30369574

>  <GCUT_SLOGP_2>
0.011487467

>  <GCUT_SLOGP_3>
2.8028307

>  <GCUT_SMR_0>
-0.52050495

>  <GCUT_SMR_1>
-0.12788585

>  <GCUT_SMR_2>
0.13215582

>  <GCUT_SMR_3>
3.0367146

>  <Kier1>
16.84375

>  <Kier2>
8.203125

>  <Kier3>
4.1103301

>  <KierA1>
13.69772

>  <KierA2>
6.600915

>  <KierA3>
3.282263

>  <KierFlex>
4.1098857

>  <lip_acc>
5

>  <lip_don>
0

>  <lip_druglike>
1

>  <lip_violation>
0

>  <logP(o/w)>
2.1860001

>  <logS>
-2.94609

>  <mr>
8.8733225

>  <mutagenic>
0

>  <nmol>
1

>  <opr_brigid>
17

>  <opr_leadlike>
1

>  <opr_nring>
3

>  <opr_nrot>
8

>  <opr_violation>
0

>  <PC+>
0

>  <PC->
0

>  <PEOE_PC+>
1.7253566

>  <PEOE_PC->
-1.7253566

>  <PEOE_RPC+>
0.1077247

>  <PEOE_RPC->
0.21924488

>  <PEOE_VSA+0>
135.96677

>  <PEOE_VSA+1>
71.004257

>  <PEOE_VSA+2>
0

>  <PEOE_VSA+3>
15.681574

>  <PEOE_VSA+4>
0

>  <PEOE_VSA+5>
0

>  <PEOE_VSA+6>
0

>  <PEOE_VSA-0>
88.389816

>  <PEOE_VSA-1>
24.509808

>  <PEOE_VSA-2>
0

>  <PEOE_VSA-3>
0

>  <PEOE_VSA-4>
5.6825762

>  <PEOE_VSA-5>
0

>  <PEOE_VSA-6>
2.503756

>  <PEOE_VSA_FHYD>
0.97618443

>  <PEOE_VSA_FNEG>
0.35226178

>  <PEOE_VSA_FPNEG>
0.023815578

>  <PEOE_VSA_FPOL>
0.023815578

>  <PEOE_VSA_FPOS>
0.64773822

>  <PEOE_VSA_FPPOS>
0

>  <PEOE_VSA_HYD>
335.55222

>  <PEOE_VSA_NEG>
121.08595

>  <PEOE_VSA_PNEG>
8.1863317

>  <PEOE_VSA_POL>
8.1863317

>  <PEOE_VSA_POS>
222.6526

>  <PEOE_VSA_PPOS>
0

>  <petitjean>
0.45454547

>  <petitjeanSC>
0.83333331

>  <Q_PC+>
0

>  <Q_PC->
0

>  <Q_RPC+>
0

>  <Q_RPC->
0

>  <Q_VSA_FHYD>
1

>  <Q_VSA_FNEG>
0

>  <Q_VSA_FPNEG>
0

>  <Q_VSA_FPOL>
0

>  <Q_VSA_FPOS>
1

>  <Q_VSA_FPPOS>
0

>  <Q_VSA_HYD>
343.73856

>  <Q_VSA_NEG>
0

>  <Q_VSA_PNEG>
0

>  <Q_VSA_POL>
0

>  <Q_VSA_POS>
343.73856

>  <Q_VSA_PPOS>
0

>  <radius>
6

>  <reactive>
0

>  <rings>
3

>  <RPC+>
0

>  <RPC->
0

>  <rsynth>
1

>  <SlogP>
2.4811001

>  <SlogP_VSA0>
3.1243138

>  <SlogP_VSA1>
21.808937

>  <SlogP_VSA2>
10.999887

>  <SlogP_VSA3>
115.61083

>  <SlogP_VSA4>
0

>  <SlogP_VSA5>
32.897186

>  <SlogP_VSA6>
0

>  <SlogP_VSA7>
74.861008

>  <SlogP_VSA8>
18.868406

>  <SlogP_VSA9>
53.664684

>  <SMR>
9.0757999

>  <SMR_VSA0>
10.999887

>  <SMR_VSA1>
21.808937

>  <SMR_VSA2>
3.1243138

>  <SMR_VSA3>
0

>  <SMR_VSA4>
6.187367

>  <SMR_VSA5>
107.88072

>  <SMR_VSA6>
115.61083

>  <SMR_VSA7>
66.223206

>  <TPSA>
33.529999

>  <VAdjEq>
0.46637034

>  <VAdjMa>
5.5849624

>  <VDistEq>
3.1706772

>  <VDistMa>
8.6429033

>  <vdw_area>
343.73856

>  <vdw_vol>
443.62073

>  <vsa_acc>
8.1863317

>  <vsa_acid>
0

>  <vsa_base>
0

>  <vsa_don>
0

>  <vsa_hyd>
301.36395

>  <vsa_other>
15.681574

>  <vsa_pol>
8.1863317

>  <Weight>
302.422

>  <weinerPath>
1041

>  <weinerPol>
35

>  <zagreb>
112

$$$$