O1[C@H](CC)[C@](O)(C)[C@H](O)[C@@H](C)C(=N/OCOCCOC)[C@@H](C[C@](O)(C)[C@@H](O[C@@H]2O[C@@H](C[C@H](N(C)C)[C@H]2O)C)[C@@H](C)[C@H](O[C@@H]2O[C@@H](C)[C@H](O)[C@](OC)(C2)C)[C@@H](C)C1=O)C
  MOE2013           2D

 58 60  0  0  1  0  0  0  0  0999 V2000
    0.0000    0.0000    0.0000 O   0  0  0  0  0  0  0  0  0  0  0  0
    1.2880   -0.5820    0.0000 C   0  0  2  0  0  0  0  0  0  0  0  0
    2.4450    0.3730    0.0000 C   0  0  0  0  0  0  0  0  0  0  0  0
    2.1960    1.8530    0.0000 C   0  0  0  0  0  0  0  0  0  0  0  0
    1.6350   -2.0350    0.0000 C   0  0  2  0  0  0  0  0  0  0  0  0
    0.1660   -2.3410    0.0000 O   0  0  0  0  0  0  0  0  0  0  0  0
    1.1380   -3.4500    0.0000 C   0  0  0  0  0  0  0  0  0  0  0  0
    3.0660   -2.4620    0.0000 C   0  0  2  0  0  0  0  0  0  0  0  0
    4.0850   -1.3600    0.0000 O   0  0  0  0  0  0  0  0  0  0  0  0
    3.5750   -3.7810    0.0000 C   0  0  1  0  0  0  0  0  0  0  0  0
    5.0750   -3.7520    0.0000 C   0  0  0  0  0  0  0  0  0  0  0  0
    3.1320   -5.0750    0.0000 C   0  0  0  0  0  0  0  0  0  0  0  0
    4.3920   -5.8900    0.0000 N   0  0  0  0  0  0  0  0  0  0  0  0
    5.7270   -5.2070    0.0000 O   0  0  0  0  0  0  0  0  0  0  0  0
    6.9870   -6.0210    0.0000 C   0  0  0  0  0  0  0  0  0  0  0  0
    8.3220   -5.3380    0.0000 O   0  0  0  0  0  0  0  0  0  0  0  0
    9.5810   -6.1530    0.0000 C   0  0  0  0  0  0  0  0  0  0  0  0
   10.9170   -5.4700    0.0000 C   0  0  0  0  0  0  0  0  0  0  0  0
   12.1760   -6.2840    0.0000 O   0  0  0  0  0  0  0  0  0  0  0  0
   13.5110   -5.6010    0.0000 C   0  0  0  0  0  0  0  0  0  0  0  0
    2.1580   -5.9870    0.0000 C   0  0  1  0  0  0  0  0  0  0  0  0
    0.8410   -6.3490    0.0000 C   0  0  0  0  0  0  0  0  0  0  0  0
   -0.4470   -5.7680    0.0000 C   0  0  2  0  0  0  0  0  0  0  0  0
   -1.4150   -6.9140    0.0000 O   0  0  0  0  0  0  0  0  0  0  0  0
   -1.9450   -5.8350    0.0000 C   0  0  0  0  0  0  0  0  0  0  0  0
   -0.7930   -4.3140    0.0000 C   0  0  1  0  0  0  0  0  0  0  0  0
   -2.1700   -4.9100    0.0000 O   0  0  0  0  0  0  0  0  0  0  0  0
   -2.3420   -6.4000    0.0000 C   0  0  2  0  0  0  0  0  0  0  0  0
   -1.1380   -7.2940    0.0000 O   0  0  0  0  0  0  0  0  0  0  0  0
   -1.3100   -8.7840    0.0000 C   0  0  1  0  0  0  0  0  0  0  0  0
   -2.6870   -9.3800    0.0000 C   0  0  0  0  0  0  0  0  0  0  0  0
   -3.8910   -8.4860    0.0000 C   0  0  2  0  0  0  0  0  0  0  0  0
   -5.2680   -9.0820    0.0000 N   0  0  0  0  0  0  0  0  0  0  0  0
   -6.4720   -8.1870    0.0000 C   0  0  0  0  0  0  0  0  0  0  0  0
   -5.4400  -10.5720    0.0000 C   0  0  0  0  0  0  0  0  0  0  0  0
   -3.7190   -6.9960    0.0000 C   0  0  1  0  0  0  0  0  0  0  0  0
   -4.9230   -6.1010    0.0000 O   0  0  0  0  0  0  0  0  0  0  0  0
   -0.1060   -9.6790    0.0000 C   0  0  0  0  0  0  0  0  0  0  0  0
   -2.2250   -3.8870    0.0000 C   0  0  1  0  0  0  0  0  0  0  0  0
   -3.2430   -4.9890    0.0000 C   0  0  0  0  0  0  0  0  0  0  0  0
   -2.7340   -2.5680    0.0000 C   0  0  2  0  0  0  0  0  0  0  0  0
   -4.2340   -2.5970    0.0000 O   0  0  0  0  0  0  0  0  0  0  0  0
   -5.0090   -1.3130    0.0000 C   0  0  2  0  0  0  0  0  0  0  0  0
   -4.2840    0.0010    0.0000 O   0  0  0  0  0  0  0  0  0  0  0  0
   -5.0580    1.2850    0.0000 C   0  0  1  0  0  0  0  0  0  0  0  0
   -4.3330    2.5980    0.0000 C   0  0  0  0  0  0  0  0  0  0  0  0
   -6.5580    1.2560    0.0000 C   0  0  2  0  0  0  0  0  0  0  0  0
   -7.3330    2.5410    0.0000 O   0  0  0  0  0  0  0  0  0  0  0  0
   -7.2830   -0.0570    0.0000 C   0  0  2  0  0  0  0  0  0  0  0  0
   -8.5960    0.6680    0.0000 O   0  0  0  0  0  0  0  0  0  0  0  0
   -9.8810   -0.1070    0.0000 C   0  0  0  0  0  0  0  0  0  0  0  0
   -6.5080   -1.3410    0.0000 C   0  0  0  0  0  0  0  0  0  0  0  0
   -8.5670   -0.8320    0.0000 C   0  0  0  0  0  0  0  0  0  0  0  0
   -2.2910   -1.2740    0.0000 C   0  0  1  0  0  0  0  0  0  0  0  0
   -3.5500   -0.4590    0.0000 C   0  0  0  0  0  0  0  0  0  0  0  0
   -1.3170   -0.3630    0.0000 C   0  0  0  0  0  0  0  0  0  0  0  0
   -2.0500    0.9460    0.0000 O   0  0  0  0  0  0  0  0  0  0  0  0
    2.8910   -7.2950    0.0000 C   0  0  0  0  0  0  0  0  0  0  0  0
  1  2  1  0  0  0  0
  1 56  1  0  0  0  0
  2  3  1  6  0  0  0
  2  5  1  0  0  0  0
  3  4  1  0  0  0  0
  5  6  1  6  0  0  0
  5  7  1  1  0  0  0
  5  8  1  0  0  0  0
  8  9  1  6  0  0  0
  8 10  1  0  0  0  0
 10 11  1  1  0  0  0
 10 12  1  0  0  0  0
 12 13  2  3  0  0  0
 12 21  1  0  0  0  0
 13 14  1  0  0  0  0
 14 15  1  0  0  0  0
 15 16  1  0  0  0  0
 16 17  1  0  0  0  0
 17 18  1  0  0  0  0
 18 19  1  0  0  0  0
 19 20  1  0  0  0  0
 21 22  1  0  0  0  0
 21 58  1  6  0  0  0
 22 23  1  0  0  0  0
 23 24  1  1  0  0  0
 23 25  1  6  0  0  0
 23 26  1  0  0  0  0
 26 27  1  1  0  0  0
 26 39  1  0  0  0  0
 28 27  1  6  0  0  0
 28 29  1  0  0  0  0
 28 36  1  0  0  0  0
 29 30  1  0  0  0  0
 30 31  1  0  0  0  0
 30 38  1  6  0  0  0
 31 32  1  0  0  0  0
 32 33  1  6  0  0  0
 32 36  1  0  0  0  0
 33 34  1  0  0  0  0
 33 35  1  0  0  0  0
 36 37  1  1  0  0  0
 39 40  1  1  0  0  0
 39 41  1  0  0  0  0
 41 42  1  6  0  0  0
 41 54  1  0  0  0  0
 43 42  1  1  0  0  0
 43 44  1  0  0  0  0
 43 52  1  0  0  0  0
 44 45  1  0  0  0  0
 45 46  1  6  0  0  0
 45 47  1  0  0  0  0
 47 48  1  1  0  0  0
 47 49  1  0  0  0  0
 49 50  1  1  0  0  0
 49 52  1  0  0  0  0
 49 53  1  6  0  0  0
 50 51  1  0  0  0  0
 54 55  1  1  0  0  0
 54 56  1  0  0  0  0
 56 57  2  0  0  0  0
M  END
>  <Index>
1721

>  <ID>
HT1853

>  <class>
1

>  <apol>
137.06627

>  <ast_fraglike>
0

>  <ast_fraglike_ext>
0

>  <ast_violation>
3

>  <ast_violation_ext>
5

>  <a_acc>
15

>  <a_acid>
0

>  <a_aro>
0

>  <a_base>
0

>  <a_count>
134

>  <a_don>
5

>  <a_donacc>
20

>  <a_heavy>
58

>  <a_hyd>
36

>  <a_IC>
191.75047

>  <a_ICM>
1.4309736

>  <a_nB>
0

>  <a_nBr>
0

>  <a_nC>
41

>  <a_nCl>
0

>  <a_nF>
0

>  <a_nH>
76

>  <a_nI>
0

>  <a_nN>
2

>  <a_nO>
15

>  <a_nP>
0

>  <a_nS>
0

>  <balabanJ>
2.1843517

>  <BCUT_PEOE_0>
-2.8179498

>  <BCUT_PEOE_1>
-0.19213846

>  <BCUT_PEOE_2>
0.10376363

>  <BCUT_PEOE_3>
2.839926

>  <BCUT_SLOGP_0>
-2.9130707

>  <BCUT_SLOGP_1>
-0.10682286

>  <BCUT_SLOGP_2>
0.123

>  <BCUT_SLOGP_3>
2.7740457

>  <BCUT_SMR_0>
-2.593281

>  <BCUT_SMR_1>
0.070863694

>  <BCUT_SMR_2>
0.19666384

>  <BCUT_SMR_3>
3.0560701

>  <bpol>
103.26573

>  <b_1rotN>
13

>  <b_1rotR>
0.21666667

>  <b_ar>
0

>  <b_count>
136

>  <b_double>
2

>  <b_heavy>
60

>  <b_max1len>
7

>  <b_rotN>
13

>  <b_rotR>
0.21666667

>  <b_single>
134

>  <b_triple>
0

>  <chi0>
43.91312

>  <chi0v>
37.322979

>  <chi0v_C>
30.110001

>  <chi0_C>
30.264702

>  <chi1>
26.963524

>  <chi1v>
20.759123

>  <chi1v_C>
13.273616

>  <chi1_C>
13.407591

>  <chiral>
18

>  <chiral_u>
0

>  <density>
0.7344088

>  <diameter>
20

>  <FCharge>
0

>  <GCUT_PEOE_0>
-0.85631597

>  <GCUT_PEOE_1>
-0.32714596

>  <GCUT_PEOE_2>
-0.086221561

>  <GCUT_PEOE_3>
3.5859625

>  <GCUT_SLOGP_0>
-0.96319848

>  <GCUT_SLOGP_1>
-0.31648406

>  <GCUT_SLOGP_2>
-0.037

>  <GCUT_SLOGP_3>
3.5602949

>  <GCUT_SMR_0>
-0.53529656

>  <GCUT_SMR_1>
-0.12097306

>  <GCUT_SMR_2>
-0.016870238

>  <GCUT_SMR_3>
3.7888746

>  <Kier1>
52.345001

>  <Kier2>
22.566847

>  <Kier3>
13.041966

>  <KierA1>
50.718639

>  <KierA2>
21.85338

>  <KierA3>
12.624749

>  <KierFlex>
19.109892

>  <lip_acc>
17

>  <lip_don>
5

>  <lip_druglike>
0

>  <lip_violation>
2

>  <logP(o/w)>
3.1477399

>  <logS>
-3.7797101

>  <mr>
21.352156

>  <mutagenic>
0

>  <nmol>
1

>  <opr_brigid>
27

>  <opr_leadlike>
0

>  <opr_nring>
2

>  <opr_nrot>
30

>  <opr_violation>
3

>  <PC+>
0

>  <PC->
0

>  <PEOE_PC+>
6.1812572

>  <PEOE_PC->
-6.1812572

>  <PEOE_RPC+>
0.043332689

>  <PEOE_RPC->
0.062808558

>  <PEOE_VSA+0>
270.8465

>  <PEOE_VSA+1>
159.87021

>  <PEOE_VSA+2>
9.8098574

>  <PEOE_VSA+3>
43.511089

>  <PEOE_VSA+4>
51.620865

>  <PEOE_VSA+5>
14.708499

>  <PEOE_VSA+6>
0

>  <PEOE_VSA-0>
166.3197

>  <PEOE_VSA-1>
93.738388

>  <PEOE_VSA-2>
10.885262

>  <PEOE_VSA-3>
0

>  <PEOE_VSA-4>
5.9023595

>  <PEOE_VSA-5>
13.566921

>  <PEOE_VSA-6>
58.867752

>  <PEOE_VSA_FHYD>
0.83919656

>  <PEOE_VSA_FNEG>
0.38824141

>  <PEOE_VSA_FPNEG>
0.087075256

>  <PEOE_VSA_FPOL>
0.16080344

>  <PEOE_VSA_FPOS>
0.61175859

>  <PEOE_VSA_FPPOS>
0.073728174

>  <PEOE_VSA_HYD>
754.98102

>  <PEOE_VSA_NEG>
349.2804

>  <PEOE_VSA_PNEG>
78.337029

>  <PEOE_VSA_POL>
144.6664

>  <PEOE_VSA_POS>
550.367

>  <PEOE_VSA_PPOS>
66.329361

>  <petitjean>
0.5

>  <petitjeanSC>
1

>  <Q_PC+>
0

>  <Q_PC->
0

>  <Q_RPC+>
0

>  <Q_RPC->
0

>  <Q_VSA_FHYD>
1

>  <Q_VSA_FNEG>
0

>  <Q_VSA_FPNEG>
0

>  <Q_VSA_FPOL>
0

>  <Q_VSA_FPOS>
1

>  <Q_VSA_FPPOS>
0

>  <Q_VSA_HYD>
899.6474

>  <Q_VSA_NEG>
0

>  <Q_VSA_PNEG>
0

>  <Q_VSA_POL>
0

>  <Q_VSA_POS>
899.6474

>  <Q_VSA_PPOS>
0

>  <radius>
10

>  <reactive>
1

>  <rings>
3

>  <RPC+>
0

>  <RPC->
0

>  <rsynth>
0.70689654

>  <SlogP>
2.2096

>  <SlogP_VSA0>
126.92613

>  <SlogP_VSA1>
13.626526

>  <SlogP_VSA2>
195.86426

>  <SlogP_VSA3>
64.836632

>  <SlogP_VSA4>
17.643185

>  <SlogP_VSA5>
155.96198

>  <SlogP_VSA6>
0

>  <SlogP_VSA7>
0

>  <SlogP_VSA8>
75.473625

>  <SlogP_VSA9>
333.26016

>  <SMR>
21.246599

>  <SMR_VSA0>
123.08009

>  <SMR_VSA1>
149.4503

>  <SMR_VSA2>
17.643185

>  <SMR_VSA3>
72.784164

>  <SMR_VSA4>
0

>  <SMR_VSA5>
75.473625

>  <SMR_VSA6>
75.338844

>  <SMR_VSA7>
469.82227

>  <TPSA>
216.89

>  <VAdjEq>
0.22208287

>  <VAdjMa>
6.9068904

>  <VDistEq>
3.9399326

>  <VDistMa>
11.49924

>  <vdw_area>
899.6474

>  <vdw_vol>
1139.7712

>  <vsa_acc>
41.978474

>  <vsa_acid>
0

>  <vsa_base>
0

>  <vsa_don>
0

>  <vsa_hyd>
623.75305

>  <vsa_other>
87.539619

>  <vsa_pol>
109.81308

>  <Weight>
837.05798

>  <weinerPath>
12923

>  <weinerPol>
109

>  <zagreb>
298

$$$$