s1cc(nc1N)/C(=NOC)/C(=O)N[C@H]1[C@H]2SCC(COC(=O)C)=C(N2C1=O)C(O)=O
  MOE2013           2D

 30 32  0  0  1  0  0  0  0  0999 V2000
    0.0000    0.0000    0.0000 S   0  0  0  0  0  0  0  0  0  0  0  0
    1.4300    0.4520    0.0000 C   0  0  0  0  0  0  0  0  0  0  0  0
    1.4420    1.9520    0.0000 C   0  0  0  0  0  0  0  0  0  0  0  0
    0.0190    2.4270    0.0000 N   0  0  0  0  0  0  0  0  0  0  0  0
   -0.8720    1.2210    0.0000 C   0  0  0  0  0  0  0  0  0  0  0  0
   -2.3720    1.2320    0.0000 N   0  0  0  0  0  0  0  0  0  0  0  0
    2.6630    2.8240    0.0000 C   0  0  0  0  0  0  0  0  0  0  0  0
    2.5180    4.3170    0.0000 N   0  0  0  0  0  0  0  0  0  0  0  0
    1.1520    4.9380    0.0000 O   0  0  0  0  0  0  0  0  0  0  0  0
    1.0070    6.4310    0.0000 C   0  0  0  0  0  0  0  0  0  0  0  0
    4.0280    2.2030    0.0000 C   0  0  0  0  0  0  0  0  0  0  0  0
    4.1730    0.7100    0.0000 O   0  0  0  0  0  0  0  0  0  0  0  0
    5.2490    3.0750    0.0000 N   0  0  0  0  0  0  0  0  0  0  0  0
    6.6140    2.4540    0.0000 C   0  0  1  0  0  0  0  0  0  0  0  0
    8.0190    2.9800    0.0000 C   0  0  1  0  0  0  0  0  0  0  0  0
    8.9720    4.1390    0.0000 S   0  0  0  0  0  0  0  0  0  0  0  0
   10.4520    3.8920    0.0000 C   0  0  0  0  0  0  0  0  0  0  0  0
   10.9780    2.4880    0.0000 C   0  0  0  0  0  0  0  0  0  0  0  0
   12.4570    2.2410    0.0000 C   0  0  0  0  0  0  0  0  0  0  0  0
   13.4110    3.3990    0.0000 O   0  0  0  0  0  0  0  0  0  0  0  0
   14.8900    3.1530    0.0000 C   0  0  0  0  0  0  0  0  0  0  0  0
   15.8440    4.3110    0.0000 O   0  0  0  0  0  0  0  0  0  0  0  0
   15.4170    1.7480    0.0000 C   0  0  0  0  0  0  0  0  0  0  0  0
   10.0250    1.3290    0.0000 C   0  0  0  0  0  0  0  0  0  0  0  0
    8.5450    1.5760    0.0000 N   0  0  0  0  0  0  0  0  0  0  0  0
    7.1400    1.0490    0.0000 C   0  0  0  0  0  0  0  0  0  0  0  0
    6.5190   -0.3160    0.0000 O   0  0  0  0  0  0  0  0  0  0  0  0
   10.5510   -0.0750    0.0000 C   0  0  0  0  0  0  0  0  0  0  0  0
    9.5980   -1.2330    0.0000 O   0  0  0  0  0  0  0  0  0  0  0  0
   12.0310   -0.3220    0.0000 O   0  0  0  0  0  0  0  0  0  0  0  0
  1  2  1  0  0  0  0
  1  5  1  0  0  0  0
  2  3  2  0  0  0  0
  3  4  1  0  0  0  0
  3  7  1  0  0  0  0
  4  5  2  0  0  0  0
  5  6  1  0  0  0  0
  7  8  2  3  0  0  0
  7 11  1  0  0  0  0
  8  9  1  0  0  0  0
  9 10  1  0  0  0  0
 11 12  2  0  0  0  0
 11 13  1  0  0  0  0
 14 13  1  1  0  0  0
 14 15  1  0  0  0  0
 14 26  1  0  0  0  0
 15 16  1  0  0  0  0
 15 25  1  1  0  0  0
 16 17  1  0  0  0  0
 17 18  1  0  0  0  0
 18 19  1  0  0  0  0
 18 24  2  0  0  0  0
 19 20  1  0  0  0  0
 20 21  1  0  0  0  0
 21 22  2  0  0  0  0
 21 23  1  0  0  0  0
 24 25  1  0  0  0  0
 24 28  1  0  0  0  0
 25 26  1  0  0  0  0
 26 27  2  0  0  0  0
 28 29  1  0  0  0  0
 28 30  2  0  0  0  0
M  END
>  <Index>
1472

>  <ID>
HT0412

>  <class>
1

>  <apol>
56.409481

>  <ast_fraglike>
0

>  <ast_fraglike_ext>
0

>  <ast_violation>
3

>  <ast_violation_ext>
5

>  <a_acc>
7

>  <a_acid>
0

>  <a_aro>
5

>  <a_base>
0

>  <a_count>
47

>  <a_don>
4

>  <a_donacc>
11

>  <a_heavy>
30

>  <a_hyd>
12

>  <a_IC>
94.31768

>  <a_ICM>
2.0067592

>  <a_nB>
0

>  <a_nBr>
0

>  <a_nC>
16

>  <a_nCl>
0

>  <a_nF>
0

>  <a_nH>
17

>  <a_nI>
0

>  <a_nN>
5

>  <a_nO>
7

>  <a_nP>
0

>  <a_nS>
2

>  <balabanJ>
1.6234859

>  <BCUT_PEOE_0>
-2.6840024

>  <BCUT_PEOE_1>
-0.48805711

>  <BCUT_PEOE_2>
0.57758713

>  <BCUT_PEOE_3>
2.7354264

>  <BCUT_SLOGP_0>
-2.893697

>  <BCUT_SLOGP_1>
-0.48425424

>  <BCUT_SLOGP_2>
0.52790397

>  <BCUT_SLOGP_3>
2.6121321

>  <BCUT_SMR_0>
-2.4002705

>  <BCUT_SMR_1>
-0.3029882

>  <BCUT_SMR_2>
0.77570564

>  <BCUT_SMR_3>
3.0171263

>  <bpol>
34.108521

>  <b_1rotN>
7

>  <b_1rotR>
0.21875

>  <b_ar>
5

>  <b_count>
49

>  <b_double>
6

>  <b_heavy>
32

>  <b_max1len>
3

>  <b_rotN>
9

>  <b_rotR>
0.28125

>  <b_single>
38

>  <b_triple>
0

>  <chi0>
21.999271

>  <chi0v>
17.411449

>  <chi0v_C>
9.6462641

>  <chi0_C>
10.472174

>  <chi1>
14.23929

>  <chi1v>
10.33771

>  <chi1v_C>
3.1177905

>  <chi1_C>
3.8020952

>  <chiral>
2

>  <chiral_u>
0

>  <density>
0.91601431

>  <diameter>
15

>  <FCharge>
0

>  <GCUT_PEOE_0>
-0.82318097

>  <GCUT_PEOE_1>
-0.46294308

>  <GCUT_PEOE_2>
0.053508703

>  <GCUT_PEOE_3>
2.6004574

>  <GCUT_SLOGP_0>
-1.3345555

>  <GCUT_SLOGP_1>
-0.41932288

>  <GCUT_SLOGP_2>
0.10324202

>  <GCUT_SLOGP_3>
2.5357614

>  <GCUT_SMR_0>
-0.52910936

>  <GCUT_SMR_1>
-0.22191107

>  <GCUT_SMR_2>
0.28488615

>  <GCUT_SMR_3>
2.8803923

>  <Kier1>
24.638672

>  <Kier2>
10.744802

>  <Kier3>
5.5067639

>  <KierA1>
20.686972

>  <KierA2>
8.9642591

>  <KierA3>
4.5735641

>  <KierFlex>
6.1814451

>  <lip_acc>
12

>  <lip_don>
4

>  <lip_druglike>
1

>  <lip_violation>
1

>  <logP(o/w)>
-0.64499998

>  <logS>
-3.6642799

>  <mr>
10.713508

>  <mutagenic>
1

>  <nmol>
1

>  <opr_brigid>
15

>  <opr_leadlike>
0

>  <opr_nring>
3

>  <opr_nrot>
7

>  <opr_violation>
2

>  <PC+>
0

>  <PC->
0

>  <PEOE_PC+>
3.4600267

>  <PEOE_PC->
-3.4600267

>  <PEOE_RPC+>
0.089013033

>  <PEOE_RPC->
0.097326182

>  <PEOE_VSA+0>
50.751984

>  <PEOE_VSA+1>
93.938217

>  <PEOE_VSA+2>
32.205559

>  <PEOE_VSA+3>
35.079182

>  <PEOE_VSA+4>
10.324173

>  <PEOE_VSA+5>
40.607563

>  <PEOE_VSA+6>
14.708499

>  <PEOE_VSA-0>
2.2085397

>  <PEOE_VSA-1>
14.230966

>  <PEOE_VSA-2>
30.64588

>  <PEOE_VSA-3>
0

>  <PEOE_VSA-4>
5.6825762

>  <PEOE_VSA-5>
66.821159

>  <PEOE_VSA-6>
10.408187

>  <PEOE_VSA_FHYD>
0.63555545

>  <PEOE_VSA_FNEG>
0.31892377

>  <PEOE_VSA_FPNEG>
0.2034087

>  <PEOE_VSA_FPOL>
0.36444458

>  <PEOE_VSA_FPOS>
0.68107623

>  <PEOE_VSA_FPPOS>
0.16103588

>  <PEOE_VSA_HYD>
259.06033

>  <PEOE_VSA_NEG>
129.99731

>  <PEOE_VSA_PNEG>
82.911926

>  <PEOE_VSA_POL>
148.55215

>  <PEOE_VSA_POS>
277.61517

>  <PEOE_VSA_PPOS>
65.640236

>  <petitjean>
0.46666667

>  <petitjeanSC>
0.875

>  <Q_PC+>
0

>  <Q_PC->
0

>  <Q_RPC+>
0

>  <Q_RPC->
0

>  <Q_VSA_FHYD>
1

>  <Q_VSA_FNEG>
0

>  <Q_VSA_FPNEG>
0

>  <Q_VSA_FPOL>
0

>  <Q_VSA_FPOS>
1

>  <Q_VSA_FPPOS>
0

>  <Q_VSA_HYD>
407.61249

>  <Q_VSA_NEG>
0

>  <Q_VSA_PNEG>
0

>  <Q_VSA_POL>
0

>  <Q_VSA_POS>
407.61249

>  <Q_VSA_PPOS>
0

>  <radius>
8

>  <reactive>
1

>  <rings>
3

>  <RPC+>
0

>  <RPC->
0

>  <rsynth>
0.5

>  <SlogP>
-0.6225

>  <SlogP_VSA0>
50.90794

>  <SlogP_VSA1>
48.675087

>  <SlogP_VSA2>
123.99661

>  <SlogP_VSA3>
63.545048

>  <SlogP_VSA4>
2.7567475

>  <SlogP_VSA5>
60.726051

>  <SlogP_VSA6>
0

>  <SlogP_VSA7>
15.81601

>  <SlogP_VSA8>
0

>  <SlogP_VSA9>
97.32399

>  <SMR>
10.63909

>  <SMR_VSA0>
117.66752

>  <SMR_VSA1>
39.309704

>  <SMR_VSA2>
43.395977

>  <SMR_VSA3>
15.028167

>  <SMR_VSA4>
0.50074643

>  <SMR_VSA5>
48.7132

>  <SMR_VSA6>
66.925064

>  <SMR_VSA7>
132.20711

>  <TPSA>
173.50999

>  <VAdjEq>
0.37005648

>  <VAdjMa>
6

>  <VDistEq>
3.6624897

>  <VDistMa>
9.5229187

>  <vdw_area>
407.61249

>  <vdw_vol>
497.23239

>  <vsa_acc>
57.2686

>  <vsa_acid>
0

>  <vsa_base>
0

>  <vsa_don>
23.425066

>  <vsa_hyd>
193.1985

>  <vsa_other>
83.588348

>  <vsa_pol>
107.82751

>  <Weight>
455.47198

>  <weinerPath>
2584

>  <weinerPol>
46

>  <zagreb>
156

$$$$