O1[C@@H]2[C@]34CCN([C@H](Cc5c3c1c(OC)cc5)[C@]4(O)CCC2=O)C
  MOE2013           2D

 23 27  0  0  1  0  0  0  0  0999 V2000
    0.0000    0.0000    0.0000 O   0  0  0  0  0  0  0  0  0  0  0  0
   -1.7680    0.1180    0.0000 C   0  0  2  0  0  0  0  0  0  0  0  0
   -1.8520    1.5420    0.0000 C   0  0  2  0  0  0  0  0  0  0  0  0
   -1.5460    2.9670    0.0000 C   0  0  0  0  0  0  0  0  0  0  0  0
   -2.8470    4.6810    0.0000 C   0  0  0  0  0  0  0  0  0  0  0  0
   -4.2850    4.6010    0.0000 N   0  0  3  0  0  0  0  0  0  0  0  0
   -3.2180    3.6260    0.0000 C   0  0  2  0  0  0  0  0  0  0  0  0
   -2.0120    4.4060    0.0000 C   0  0  0  0  0  0  0  0  0  0  0  0
   -0.7250    3.7580    0.0000 C   0  0  0  0  0  0  0  0  0  0  0  0
   -0.6460    2.3280    0.0000 C   0  0  0  0  0  0  0  0  0  0  0  0
    0.6280    1.6780    0.0000 C   0  0  0  0  0  0  0  0  0  0  0  0
    1.8290    2.4660    0.0000 C   0  0  0  0  0  0  0  0  0  0  0  0
    3.1680    1.7910    0.0000 O   0  0  0  0  0  0  0  0  0  0  0  0
    4.4230    2.6130    0.0000 C   0  0  0  0  0  0  0  0  0  0  0  0
    1.7490    3.8970    0.0000 C   0  0  0  0  0  0  0  0  0  0  0  0
    0.4670    4.5380    0.0000 C   0  0  0  0  0  0  0  0  0  0  0  0
   -3.1350    2.1850    0.0000 C   0  0  1  0  0  0  0  0  0  0  0  0
   -4.4710    2.8660    0.0000 O   0  0  0  0  0  0  0  0  0  0  0  0
   -4.3330    1.4040    0.0000 C   0  0  0  0  0  0  0  0  0  0  0  0
   -4.2460   -0.0300    0.0000 C   0  0  0  0  0  0  0  0  0  0  0  0
   -2.9630   -0.6730    0.0000 C   0  0  0  0  0  0  0  0  0  0  0  0
   -2.8730   -2.1700    0.0000 O   0  0  0  0  0  0  0  0  0  0  0  0
   -5.6980    5.1050    0.0000 C   0  0  0  0  0  0  0  0  0  0  0  0
  1 11  1  0  0  0  0
  2  1  1  1  0  0  0
  2  3  1  0  0  0  0
  2 21  1  0  0  0  0
  3  4  1  6  0  0  0
  3 10  1  0  0  0  0
  3 17  1  0  0  0  0
  4  5  1  0  0  0  0
  5  6  1  0  0  0  0
  6 23  1  0  0  0  0
  7  6  1  6  0  0  0
  7  8  1  0  0  0  0
  7 17  1  0  0  0  0
  8  9  1  0  0  0  0
  9 10  1  0  0  0  0
  9 16  2  0  0  0  0
 10 11  2  0  0  0  0
 11 12  1  0  0  0  0
 12 13  1  0  0  0  0
 12 15  2  0  0  0  0
 13 14  1  0  0  0  0
 15 16  1  0  0  0  0
 17 18  1  6  0  0  0
 17 19  1  0  0  0  0
 19 20  1  0  0  0  0
 20 21  1  0  0  0  0
 21 22  2  0  0  0  0
M  END
>  <Index>
1681

>  <ID>
HT1566

>  <class>
1

>  <apol>
49.990654

>  <ast_fraglike>
0

>  <ast_fraglike_ext>
0

>  <ast_violation>
2

>  <ast_violation_ext>
2

>  <a_acc>
5

>  <a_acid>
0

>  <a_aro>
6

>  <a_base>
0

>  <a_count>
44

>  <a_don>
1

>  <a_donacc>
6

>  <a_heavy>
23

>  <a_hyd>
17

>  <a_IC>
64.917679

>  <a_ICM>
1.4754018

>  <a_nB>
0

>  <a_nBr>
0

>  <a_nC>
18

>  <a_nCl>
0

>  <a_nF>
0

>  <a_nH>
21

>  <a_nI>
0

>  <a_nN>
1

>  <a_nO>
4

>  <a_nP>
0

>  <a_nS>
0

>  <balabanJ>
1.6796846

>  <BCUT_PEOE_0>
-2.8864448

>  <BCUT_PEOE_1>
-0.50404721

>  <BCUT_PEOE_2>
0.41877177

>  <BCUT_PEOE_3>
2.9324799

>  <BCUT_SLOGP_0>
-2.9906743

>  <BCUT_SLOGP_1>
-0.45522839

>  <BCUT_SLOGP_2>
0.44883314

>  <BCUT_SLOGP_3>
2.8616328

>  <BCUT_SMR_0>
-2.6431296

>  <BCUT_SMR_1>
-0.29630765

>  <BCUT_SMR_2>
0.66184747

>  <BCUT_SMR_3>
3.1694734

>  <bpol>
29.727346

>  <b_1rotN>
1

>  <b_1rotR>
0.037037037

>  <b_ar>
6

>  <b_count>
48

>  <b_double>
1

>  <b_heavy>
27

>  <b_max1len>
2

>  <b_rotN>
1

>  <b_rotR>
0.037037037

>  <b_single>
41

>  <b_triple>
0

>  <chi0>
15.982763

>  <chi0v>
13.464108

>  <chi0v_C>
11.344935

>  <chi0_C>
11.991199

>  <chi1>
11.025841

>  <chi1v>
8.3507404

>  <chi1v_C>
5.8491707

>  <chi1_C>
6.6977072

>  <chiral>
4

>  <chiral_u>
0

>  <density>
0.75926214

>  <diameter>
9

>  <FCharge>
0

>  <GCUT_PEOE_0>
-0.85216951

>  <GCUT_PEOE_1>
-0.4064793

>  <GCUT_PEOE_2>
-0.019796554

>  <GCUT_PEOE_3>
3.1418266

>  <GCUT_SLOGP_0>
-0.9635694

>  <GCUT_SLOGP_1>
-0.37440521

>  <GCUT_SLOGP_2>
0.010047689

>  <GCUT_SLOGP_3>
3.1402807

>  <GCUT_SMR_0>
-0.52123368

>  <GCUT_SMR_1>
-0.19308698

>  <GCUT_SMR_2>
0.14083685

>  <GCUT_SMR_3>
3.380399

>  <Kier1>
15.270233

>  <Kier2>
4.791111

>  <Kier3>
1.6070124

>  <KierA1>
13.159409

>  <KierA2>
4.0993528

>  <KierA3>
1.3675414

>  <KierFlex>
2.3454375

>  <lip_acc>
5

>  <lip_don>
1

>  <lip_druglike>
1

>  <lip_violation>
0

>  <logP(o/w)>
0.76300001

>  <logS>
-2.2123401

>  <mr>
8.3358603

>  <mutagenic>
0

>  <nmol>
1

>  <opr_brigid>
22

>  <opr_leadlike>
1

>  <opr_nring>
5

>  <opr_nrot>
1

>  <opr_violation>
1

>  <PC+>
0

>  <PC->
0

>  <PEOE_PC+>
1.8402625

>  <PEOE_PC->
-1.8402625

>  <PEOE_RPC+>
0.11425903

>  <PEOE_RPC->
0.20976385

>  <PEOE_VSA+0>
98.768875

>  <PEOE_VSA+1>
25.592316

>  <PEOE_VSA+2>
21.821968

>  <PEOE_VSA+3>
8.458519

>  <PEOE_VSA+4>
10.324173

>  <PEOE_VSA+5>
0

>  <PEOE_VSA+6>
0

>  <PEOE_VSA-0>
76.998398

>  <PEOE_VSA-1>
12.254904

>  <PEOE_VSA-2>
0

>  <PEOE_VSA-3>
0

>  <PEOE_VSA-4>
0

>  <PEOE_VSA-5>
13.566921

>  <PEOE_VSA-6>
12.775052

>  <PEOE_VSA_FHYD>
0.86931139

>  <PEOE_VSA_FNEG>
0.41201457

>  <PEOE_VSA_FPNEG>
0.093890317

>  <PEOE_VSA_FPOL>
0.13068862

>  <PEOE_VSA_FPOS>
0.5879854

>  <PEOE_VSA_FPPOS>
0.036798302

>  <PEOE_VSA_HYD>
243.89497

>  <PEOE_VSA_NEG>
115.59528

>  <PEOE_VSA_PNEG>
26.341974

>  <PEOE_VSA_POL>
36.666145

>  <PEOE_VSA_POS>
164.96585

>  <PEOE_VSA_PPOS>
10.324173

>  <petitjean>
0.44444445

>  <petitjeanSC>
0.80000001

>  <Q_PC+>
0

>  <Q_PC->
0

>  <Q_RPC+>
0

>  <Q_RPC->
0

>  <Q_VSA_FHYD>
1

>  <Q_VSA_FNEG>
0

>  <Q_VSA_FPNEG>
0

>  <Q_VSA_FPOL>
0

>  <Q_VSA_FPOS>
1

>  <Q_VSA_FPPOS>
0

>  <Q_VSA_HYD>
280.56113

>  <Q_VSA_NEG>
0

>  <Q_VSA_PNEG>
0

>  <Q_VSA_POL>
0

>  <Q_VSA_POS>
280.56113

>  <Q_VSA_PPOS>
0

>  <radius>
5

>  <reactive>
1

>  <rings>
5

>  <RPC+>
0

>  <RPC->
0

>  <rsynth>
0.043478262

>  <SlogP>
1.04817

>  <SlogP_VSA0>
47.385002

>  <SlogP_VSA1>
8.8119249

>  <SlogP_VSA2>
34.312836

>  <SlogP_VSA3>
18.439579

>  <SlogP_VSA4>
6.37115

>  <SlogP_VSA5>
87.14946

>  <SlogP_VSA6>
0

>  <SlogP_VSA7>
35.286369

>  <SlogP_VSA8>
56.605217

>  <SlogP_VSA9>
10.486856

>  <SMR>
8.3017797

>  <SMR_VSA0>
23.862217

>  <SMR_VSA1>
50.509315

>  <SMR_VSA2>
0

>  <SMR_VSA3>
27.308624

>  <SMR_VSA4>
0

>  <SMR_VSA5>
110.75999

>  <SMR_VSA6>
24.12719

>  <SMR_VSA7>
68.281059

>  <TPSA>
59

>  <VAdjEq>
0.47555268

>  <VAdjMa>
5.7548876

>  <VDistEq>
2.7195027

>  <VDistMa>
8.8216581

>  <vdw_area>
280.56113

>  <vdw_vol>
415.36246

>  <vsa_acc>
18.574432

>  <vsa_acid>
0

>  <vsa_base>
0

>  <vsa_don>
0

>  <vsa_hyd>
221.20055

>  <vsa_other>
8.458519

>  <vsa_pol>
32.141354

>  <Weight>
315.36899

>  <weinerPath>
907

>  <weinerPol>
57

>  <zagreb>
144

$$$$