Clc1cc2NC(NS(=O)(=O)c2cc1S(=O)(=O)N)CC(C)C
  MOE2013           2D

 21 22  0  0  1  0  0  0  0  0999 V2000
    0.0000    0.0000    0.0000 Cl  0  0  0  0  0  0  0  0  0  0  0  0
    0.7610   -1.2930    0.0000 C   0  0  0  0  0  0  0  0  0  0  0  0
    2.2610   -1.2800    0.0000 C   0  0  0  0  0  0  0  0  0  0  0  0
    3.0220   -2.5720    0.0000 C   0  0  0  0  0  0  0  0  0  0  0  0
    4.5220   -2.5590    0.0000 N   0  0  0  0  0  0  0  0  0  0  0  0
    5.2830   -3.8520    0.0000 C   0  0  3  0  0  0  0  0  0  0  0  0
    4.5450   -5.1570    0.0000 N   0  0  0  0  0  0  0  0  0  0  0  0
    3.0450   -5.1700    0.0000 S   0  0  0  0  0  0  0  0  0  0  0  0
    3.0580   -6.6700    0.0000 O   0  0  0  0  0  0  0  0  0  0  0  0
    1.7520   -5.9310    0.0000 O   0  0  0  0  0  0  0  0  0  0  0  0
    2.2840   -3.8780    0.0000 C   0  0  0  0  0  0  0  0  0  0  0  0
    0.7840   -3.8900    0.0000 C   0  0  0  0  0  0  0  0  0  0  0  0
    0.0220   -2.5980    0.0000 C   0  0  0  0  0  0  0  0  0  0  0  0
   -1.4780   -2.6110    0.0000 S   0  0  0  0  0  0  0  0  0  0  0  0
   -1.4650   -4.1110    0.0000 O   0  0  0  0  0  0  0  0  0  0  0  0
   -1.4900   -1.1110    0.0000 O   0  0  0  0  0  0  0  0  0  0  0  0
   -2.9770   -2.6240    0.0000 N   0  0  0  0  0  0  0  0  0  0  0  0
    6.7830   -3.8390    0.0000 C   0  0  0  0  0  0  0  0  0  0  0  0
    7.5220   -2.5330    0.0000 C   0  0  0  0  0  0  0  0  0  0  0  0
    9.0220   -2.5200    0.0000 C   0  0  0  0  0  0  0  0  0  0  0  0
    6.7610   -1.2410    0.0000 C   0  0  0  0  0  0  0  0  0  0  0  0
  1  2  1  0  0  0  0
  2  3  1  0  0  0  0
  2 13  2  0  0  0  0
  3  4  2  0  0  0  0
  4  5  1  0  0  0  0
  4 11  1  0  0  0  0
  5  6  1  0  0  0  0
  6  7  1  0  0  0  0
  6 18  1  0  0  0  0
  7  8  1  0  0  0  0
  8  9  2  0  0  0  0
  8 10  2  0  0  0  0
  8 11  1  0  0  0  0
 11 12  2  0  0  0  0
 12 13  1  0  0  0  0
 13 14  1  0  0  0  0
 14 15  2  0  0  0  0
 14 16  2  0  0  0  0
 14 17  1  0  0  0  0
 18 19  1  0  0  0  0
 19 20  1  0  0  0  0
 19 21  1  0  0  0  0
M  END
>  <Index>
1457

>  <ID>
HT0339

>  <class>
1

>  <apol>
44.516689

>  <ast_fraglike>
0

>  <ast_fraglike_ext>
0

>  <ast_violation>
2

>  <ast_violation_ext>
3

>  <a_acc>
4

>  <a_acid>
0

>  <a_aro>
6

>  <a_base>
0

>  <a_count>
37

>  <a_don>
3

>  <a_donacc>
7

>  <a_heavy>
21

>  <a_hyd>
11

>  <a_IC>
75.941139

>  <a_ICM>
2.0524633

>  <a_nB>
0

>  <a_nBr>
0

>  <a_nC>
11

>  <a_nCl>
1

>  <a_nF>
0

>  <a_nH>
16

>  <a_nI>
0

>  <a_nN>
3

>  <a_nO>
4

>  <a_nP>
0

>  <a_nS>
2

>  <balabanJ>
2.146456

>  <BCUT_PEOE_0>
-2.7213104

>  <BCUT_PEOE_1>
-0.47290075

>  <BCUT_PEOE_2>
0.51295346

>  <BCUT_PEOE_3>
2.657855

>  <BCUT_SLOGP_0>
-2.8000751

>  <BCUT_SLOGP_1>
-0.43233967

>  <BCUT_SLOGP_2>
0.56184655

>  <BCUT_SLOGP_3>
2.7029223

>  <BCUT_SMR_0>
-2.4381788

>  <BCUT_SMR_1>
-0.35510629

>  <BCUT_SMR_2>
0.63552856

>  <BCUT_SMR_3>
2.9578021

>  <bpol>
31.523312

>  <b_1rotN>
3

>  <b_1rotR>
0.13636364

>  <b_ar>
6

>  <b_count>
38

>  <b_double>
0

>  <b_heavy>
22

>  <b_max1len>
5

>  <b_rotN>
3

>  <b_rotR>
0.13636364

>  <b_single>
32

>  <b_triple>
0

>  <chi0>
15.999636

>  <chi0v>
13.810234

>  <chi0v_C>
7.0165076

>  <chi0_C>
7.585422

>  <chi1>
9.5038557

>  <chi1v>
9.5644188

>  <chi1v_C>
3.6258976

>  <chi1_C>
4.2708569

>  <chiral>
1

>  <chiral_u>
1

>  <density>
0.93704361

>  <diameter>
10

>  <FCharge>
0

>  <GCUT_PEOE_0>
-0.88856047

>  <GCUT_PEOE_1>
-0.39675659

>  <GCUT_PEOE_2>
0.0309739

>  <GCUT_PEOE_3>
2.6579435

>  <GCUT_SLOGP_0>
-1.3482859

>  <GCUT_SLOGP_1>
-0.41042256

>  <GCUT_SLOGP_2>
0.12677391

>  <GCUT_SLOGP_3>
2.6808546

>  <GCUT_SMR_0>
-0.53245521

>  <GCUT_SMR_1>
-0.17976493

>  <GCUT_SMR_2>
0.15094025

>  <GCUT_SMR_3>
2.925787

>  <Kier1>
17.355371

>  <Kier2>
5.8938775

>  <Kier3>
3.8548484

>  <KierA1>
18.683956

>  <KierA2>
6.3690338

>  <KierA3>
4.1776333

>  <KierFlex>
5.6666069

>  <lip_acc>
7

>  <lip_don>
4

>  <lip_druglike>
1

>  <lip_violation>
0

>  <logP(o/w)>
1.339

>  <logS>
-3.5692101

>  <mr>
8.0987644

>  <mutagenic>
0

>  <nmol>
1

>  <opr_brigid>
11

>  <opr_leadlike>
1

>  <opr_nring>
2

>  <opr_nrot>
3

>  <opr_violation>
0

>  <PC+>
0

>  <PC->
0

>  <PEOE_PC+>
1.740343

>  <PEOE_PC->
-1.740343

>  <PEOE_RPC+>
0.17798117

>  <PEOE_RPC->
0.22016431

>  <PEOE_VSA+0>
84.334015

>  <PEOE_VSA+1>
17.149784

>  <PEOE_VSA+2>
26.880259

>  <PEOE_VSA+3>
0

>  <PEOE_VSA+4>
0

>  <PEOE_VSA+5>
0

>  <PEOE_VSA+6>
8.3692026

>  <PEOE_VSA-0>
29.57523

>  <PEOE_VSA-1>
67.077301

>  <PEOE_VSA-2>
34.546043

>  <PEOE_VSA-3>
9.0437498

>  <PEOE_VSA-4>
32.016521

>  <PEOE_VSA-5>
0

>  <PEOE_VSA-6>
0.13689101

>  <PEOE_VSA_FHYD>
0.86891359

>  <PEOE_VSA_FNEG>
0.55768222

>  <PEOE_VSA_FPNEG>
0.10401293

>  <PEOE_VSA_FPOL>
0.13108642

>  <PEOE_VSA_FPOS>
0.44231781

>  <PEOE_VSA_FPPOS>
0.027073495

>  <PEOE_VSA_HYD>
268.60638

>  <PEOE_VSA_NEG>
172.39574

>  <PEOE_VSA_PNEG>
32.153416

>  <PEOE_VSA_POL>
40.522617

>  <PEOE_VSA_POS>
136.73326

>  <PEOE_VSA_PPOS>
8.3692026

>  <petitjean>
0.5

>  <petitjeanSC>
1

>  <Q_PC+>
0

>  <Q_PC->
0

>  <Q_RPC+>
0

>  <Q_RPC->
0

>  <Q_VSA_FHYD>
1

>  <Q_VSA_FNEG>
0

>  <Q_VSA_FPNEG>
0

>  <Q_VSA_FPOL>
0

>  <Q_VSA_FPOS>
1

>  <Q_VSA_FPPOS>
0

>  <Q_VSA_HYD>
309.129

>  <Q_VSA_NEG>
0

>  <Q_VSA_PNEG>
0

>  <Q_VSA_POL>
0

>  <Q_VSA_POS>
309.129

>  <Q_VSA_PPOS>
0

>  <radius>
5

>  <reactive>
0

>  <rings>
2

>  <RPC+>
0

>  <RPC->
0

>  <rsynth>
1

>  <SlogP>
1.0634

>  <SlogP_VSA0>
47.69643

>  <SlogP_VSA1>
114.35413

>  <SlogP_VSA2>
16.834627

>  <SlogP_VSA3>
0

>  <SlogP_VSA4>
4.4107962

>  <SlogP_VSA5>
3.1014678

>  <SlogP_VSA6>
3.5006065

>  <SlogP_VSA7>
35.286369

>  <SlogP_VSA8>
18.868406

>  <SlogP_VSA9>
108.55742

>  <SMR>
8.0012398

>  <SMR_VSA0>
96.343376

>  <SMR_VSA1>
0

>  <SMR_VSA2>
23.917261

>  <SMR_VSA3>
7.0537477

>  <SMR_VSA4>
52.058933

>  <SMR_VSA5>
54.154774

>  <SMR_VSA6>
0

>  <SMR_VSA7>
119.08216

>  <TPSA>
118.36

>  <VAdjEq>
0.46827638

>  <VAdjMa>
5.4594316

>  <VDistEq>
3.0578728

>  <VDistMa>
8.5025845

>  <vdw_area>
309.129

>  <vdw_vol>
377.62491

>  <vsa_acc>
64.033043

>  <vsa_acid>
0

>  <vsa_base>
0

>  <vsa_don>
33.892902

>  <vsa_hyd>
157.62137

>  <vsa_other>
31.401779

>  <vsa_pol>
97.925949

>  <Weight>
353.85098

>  <weinerPath>
874

>  <weinerPol>
35

>  <zagreb>
114

$$$$