Ic1c(C(=O)NCC(O)CO)c(I)c(N(C(=O)CO)C)c(I)c1C(=O)NCC(O)CO
  MOE2013           2D

 31 31  0  0  1  0  0  0  0  0999 V2000
    0.0000    0.0000    0.0000 I   0  0  0  0  0  0  0  0  0  0  0  0
    0.7580    1.2950    0.0000 C   0  0  0  0  0  0  0  0  0  0  0  0
    2.2580    1.2860    0.0000 C   0  0  0  0  0  0  0  0  0  0  0  0
    3.0000   -0.0180    0.0000 C   0  0  0  0  0  0  0  0  0  0  0  0
    2.2420   -1.3120    0.0000 O   0  0  0  0  0  0  0  0  0  0  0  0
    4.5000   -0.0270    0.0000 N   0  0  0  0  0  0  0  0  0  0  0  0
    5.2420   -1.3300    0.0000 C   0  0  0  0  0  0  0  0  0  0  0  0
    6.7420   -1.3390    0.0000 C   0  0  3  0  0  0  0  0  0  0  0  0
    7.5000   -0.0450    0.0000 O   0  0  0  0  0  0  0  0  0  0  0  0
    7.4840   -2.6430    0.0000 C   0  0  0  0  0  0  0  0  0  0  0  0
    8.9840   -2.6520    0.0000 O   0  0  0  0  0  0  0  0  0  0  0  0
    3.0160    2.5800    0.0000 C   0  0  0  0  0  0  0  0  0  0  0  0
    4.5150    2.5710    0.0000 I   0  0  0  0  0  0  0  0  0  0  0  0
    2.2730    3.8840    0.0000 C   0  0  0  0  0  0  0  0  0  0  0  0
    3.0310    5.1780    0.0000 N   0  0  0  0  0  0  0  0  0  0  0  0
    2.2890    6.4820    0.0000 C   0  0  0  0  0  0  0  0  0  0  0  0
    0.7890    6.4910    0.0000 O   0  0  0  0  0  0  0  0  0  0  0  0
    3.0470    7.7760    0.0000 C   0  0  0  0  0  0  0  0  0  0  0  0
    2.3040    9.0800    0.0000 O   0  0  0  0  0  0  0  0  0  0  0  0
    4.5310    5.1690    0.0000 C   0  0  0  0  0  0  0  0  0  0  0  0
    0.7730    3.8930    0.0000 C   0  0  0  0  0  0  0  0  0  0  0  0
    0.0310    5.1960    0.0000 I   0  0  0  0  0  0  0  0  0  0  0  0
    0.0160    2.5980    0.0000 C   0  0  0  0  0  0  0  0  0  0  0  0
   -1.4840    2.6070    0.0000 C   0  0  0  0  0  0  0  0  0  0  0  0
   -2.2270    3.9110    0.0000 O   0  0  0  0  0  0  0  0  0  0  0  0
   -2.2420    1.3120    0.0000 N   0  0  0  0  0  0  0  0  0  0  0  0
   -3.7420    1.3210    0.0000 C   0  0  0  0  0  0  0  0  0  0  0  0
   -4.5000    0.0270    0.0000 C   0  0  3  0  0  0  0  0  0  0  0  0
   -3.7580   -1.2770    0.0000 O   0  0  0  0  0  0  0  0  0  0  0  0
   -6.0000    0.0360    0.0000 C   0  0  0  0  0  0  0  0  0  0  0  0
   -6.7580   -1.2590    0.0000 O   0  0  0  0  0  0  0  0  0  0  0  0
  1  2  1  0  0  0  0
  2  3  1  0  0  0  0
  2 23  2  0  0  0  0
  3  4  1  0  0  0  0
  3 12  2  0  0  0  0
  4  5  2  0  0  0  0
  4  6  1  0  0  0  0
  6  7  1  0  0  0  0
  7  8  1  0  0  0  0
  8  9  1  0  0  0  0
  8 10  1  0  0  0  0
 10 11  1  0  0  0  0
 12 13  1  0  0  0  0
 12 14  1  0  0  0  0
 14 15  1  0  0  0  0
 14 21  2  0  0  0  0
 15 16  1  0  0  0  0
 15 20  1  0  0  0  0
 16 17  2  0  0  0  0
 16 18  1  0  0  0  0
 18 19  1  0  0  0  0
 21 22  1  0  0  0  0
 21 23  1  0  0  0  0
 23 24  1  0  0  0  0
 24 25  2  0  0  0  0
 24 26  1  0  0  0  0
 26 27  1  0  0  0  0
 27 28  1  0  0  0  0
 28 29  1  0  0  0  0
 28 30  1  0  0  0  0
 30 31  1  0  0  0  0
M  END
>  <Index>
1603

>  <ID>
HT1110

>  <class>
1

>  <apol>
70.355446

>  <ast_fraglike>
0

>  <ast_fraglike_ext>
0

>  <ast_violation>
3

>  <ast_violation_ext>
5

>  <a_acc>
8

>  <a_acid>
0

>  <a_aro>
6

>  <a_base>
0

>  <a_count>
53

>  <a_don>
7

>  <a_donacc>
15

>  <a_heavy>
31

>  <a_hyd>
17

>  <a_IC>
102.47565

>  <a_ICM>
1.9335028

>  <a_nB>
0

>  <a_nBr>
0

>  <a_nC>
17

>  <a_nCl>
0

>  <a_nF>
0

>  <a_nH>
22

>  <a_nI>
3

>  <a_nN>
3

>  <a_nO>
8

>  <a_nP>
0

>  <a_nS>
0

>  <balabanJ>
3.1765513

>  <BCUT_PEOE_0>
-2.5502043

>  <BCUT_PEOE_1>
-0.60399312

>  <BCUT_PEOE_2>
0.63129842

>  <BCUT_PEOE_3>
2.5526755

>  <BCUT_SLOGP_0>
-2.7596135

>  <BCUT_SLOGP_1>
-0.58155239

>  <BCUT_SLOGP_2>
0.5986194

>  <BCUT_SLOGP_3>
2.4110293

>  <BCUT_SMR_0>
-2.3129542

>  <BCUT_SMR_1>
-0.38936472

>  <BCUT_SMR_2>
0.89116919

>  <BCUT_SMR_3>
2.8030016

>  <bpol>
40.994553

>  <b_1rotN>
11

>  <b_1rotR>
0.3548387

>  <b_ar>
6

>  <b_count>
53

>  <b_double>
3

>  <b_heavy>
31

>  <b_max1len>
6

>  <b_rotN>
13

>  <b_rotR>
0.41935483

>  <b_single>
44

>  <b_triple>
0

>  <chi0>
23.877951

>  <chi0v>
22.704649

>  <chi0v_C>
10.190234

>  <chi0_C>
10.886387

>  <chi1>
14.508544

>  <chi1v>
11.968728

>  <chi1v_C>
3.9865465

>  <chi1_C>
4.7079082

>  <chiral>
2

>  <chiral_u>
2

>  <density>
1.3128434

>  <diameter>
14

>  <FCharge>
0

>  <GCUT_PEOE_0>
-0.83003014

>  <GCUT_PEOE_1>
-0.46239752

>  <GCUT_PEOE_2>
0.12351047

>  <GCUT_PEOE_3>
2.6230159

>  <GCUT_SLOGP_0>
-1.1630626

>  <GCUT_SLOGP_1>
-0.48229611

>  <GCUT_SLOGP_2>
0.047766354

>  <GCUT_SLOGP_3>
2.6182165

>  <GCUT_SMR_0>
-0.52247512

>  <GCUT_SMR_1>
-0.22287343

>  <GCUT_SMR_2>
0.28664768

>  <GCUT_SMR_3>
2.9789567

>  <Kier1>
29.032259

>  <Kier2>
13.645214

>  <Kier3>
7.5

>  <KierA1>
31.958557

>  <KierA2>
15.069051

>  <KierA3>
8.3020763

>  <KierFlex>
15.535004

>  <lip_acc>
11

>  <lip_don>
7

>  <lip_druglike>
0

>  <lip_violation>
3

>  <logP(o/w)>
0.19599999

>  <logS>
-3.7351

>  <mr>
13.791408

>  <mutagenic>
0

>  <nmol>
1

>  <opr_brigid>
6

>  <opr_leadlike>
0

>  <opr_nring>
1

>  <opr_nrot>
10

>  <opr_violation>
3

>  <PC+>
0

>  <PC->
0

>  <PEOE_PC+>
3.8852153

>  <PEOE_PC->
-3.8852153

>  <PEOE_RPC+>
0.065432347

>  <PEOE_RPC->
0.10099968

>  <PEOE_VSA+0>
65.459587

>  <PEOE_VSA+1>
108.09389

>  <PEOE_VSA+2>
14.951293

>  <PEOE_VSA+3>
17.238026

>  <PEOE_VSA+4>
51.620865

>  <PEOE_VSA+5>
38.848595

>  <PEOE_VSA+6>
0

>  <PEOE_VSA-0>
140.97005

>  <PEOE_VSA-1>
0

>  <PEOE_VSA-2>
0

>  <PEOE_VSA-3>
0

>  <PEOE_VSA-4>
0

>  <PEOE_VSA-5>
40.700764

>  <PEOE_VSA-6>
39.111485

>  <PEOE_VSA_FHYD>
0.67063153

>  <PEOE_VSA_FNEG>
0.42704955

>  <PEOE_VSA_FPNEG>
0.15437734

>  <PEOE_VSA_FPOL>
0.32936847

>  <PEOE_VSA_FPOS>
0.57295042

>  <PEOE_VSA_FPPOS>
0.17499112

>  <PEOE_VSA_HYD>
346.71286

>  <PEOE_VSA_NEG>
220.78229

>  <PEOE_VSA_PNEG>
79.812248

>  <PEOE_VSA_POL>
170.28171

>  <PEOE_VSA_POS>
296.21225

>  <PEOE_VSA_PPOS>
90.46946

>  <petitjean>
0.5

>  <petitjeanSC>
1

>  <Q_PC+>
0

>  <Q_PC->
0

>  <Q_RPC+>
0

>  <Q_RPC->
0

>  <Q_VSA_FHYD>
1

>  <Q_VSA_FNEG>
0

>  <Q_VSA_FPNEG>
0

>  <Q_VSA_FPOL>
0

>  <Q_VSA_FPOS>
1

>  <Q_VSA_FPPOS>
0

>  <Q_VSA_HYD>
516.99457

>  <Q_VSA_NEG>
0

>  <Q_VSA_PNEG>
0

>  <Q_VSA_POL>
0

>  <Q_VSA_POS>
516.99457

>  <Q_VSA_PPOS>
0

>  <radius>
7

>  <reactive>
0

>  <rings>
1

>  <RPC+>
0

>  <RPC->
0

>  <rsynth>
1

>  <SlogP>
-1.3785

>  <SlogP_VSA0>
166.07195

>  <SlogP_VSA1>
15.776351

>  <SlogP_VSA2>
41.778442

>  <SlogP_VSA3>
99.657928

>  <SlogP_VSA4>
54.095581

>  <SlogP_VSA5>
32.897186

>  <SlogP_VSA6>
0

>  <SlogP_VSA7>
0

>  <SlogP_VSA8>
0

>  <SlogP_VSA9>
173.10277

>  <SMR>
13.59404

>  <SMR_VSA0>
71.586647

>  <SMR_VSA1>
126.92613

>  <SMR_VSA2>
44.124744

>  <SMR_VSA3>
19.308449

>  <SMR_VSA4>
2.7567475

>  <SMR_VSA5>
0

>  <SMR_VSA6>
115.43428

>  <SMR_VSA7>
203.24321

>  <TPSA>
179.66

>  <VAdjEq>
0.3451173

>  <VAdjMa>
5.9541965

>  <VDistEq>
3.5010529

>  <VDistMa>
9.6575203

>  <vdw_area>
516.99457

>  <vdw_vol>
591.91217

>  <vsa_acc>
40.700764

>  <vsa_acid>
0

>  <vsa_base>
0

>  <vsa_don>
11.365152

>  <vsa_hyd>
318.79788

>  <vsa_other>
38.848595

>  <vsa_pol>
119.90052

>  <Weight>
777.08801

>  <weinerPath>
2624

>  <weinerPol>
53

>  <zagreb>
148

$$$$