S(=O)(=O)(N)c1cc2S(=O)(=O)CCCc2cc1C
  MOE2013           2D

 17 18  0  0  0  0  0  0  0  0999 V2000
    0.0000    0.0000    0.0000 S   0  0  0  0  0  0  0  0  0  0  0  0
    0.7470    1.3010    0.0000 O   0  0  0  0  0  0  0  0  0  0  0  0
   -0.7470   -1.3010    0.0000 O   0  0  0  0  0  0  0  0  0  0  0  0
    1.3010   -0.7470    0.0000 N   0  0  0  0  0  0  0  0  0  0  0  0
   -1.3010    0.7470    0.0000 C   0  0  0  0  0  0  0  0  0  0  0  0
   -2.5980   -0.0050    0.0000 C   0  0  0  0  0  0  0  0  0  0  0  0
   -3.8990    0.7420    0.0000 C   0  0  0  0  0  0  0  0  0  0  0  0
   -5.1960   -0.0110    0.0000 S   0  0  0  0  0  0  0  0  0  0  0  0
   -5.9440   -1.3110    0.0000 O   0  0  0  0  0  0  0  0  0  0  0  0
   -4.4440   -1.3080    0.0000 O   0  0  0  0  0  0  0  0  0  0  0  0
   -6.4970    0.7370    0.0000 C   0  0  0  0  0  0  0  0  0  0  0  0
   -6.5000    2.2370    0.0000 C   0  0  0  0  0  0  0  0  0  0  0  0
   -5.2020    2.9890    0.0000 C   0  0  0  0  0  0  0  0  0  0  0  0
   -3.9020    2.2420    0.0000 C   0  0  0  0  0  0  0  0  0  0  0  0
   -2.6040    2.9950    0.0000 C   0  0  0  0  0  0  0  0  0  0  0  0
   -1.3040    2.2470    0.0000 C   0  0  0  0  0  0  0  0  0  0  0  0
   -0.0060    3.0000    0.0000 C   0  0  0  0  0  0  0  0  0  0  0  0
  1  2  2  0  0  0  0
  1  3  2  0  0  0  0
  1  4  1  0  0  0  0
  1  5  1  0  0  0  0
  5  6  1  0  0  0  0
  5 16  2  0  0  0  0
  6  7  2  0  0  0  0
  7  8  1  0  0  0  0
  7 14  1  0  0  0  0
  8  9  2  0  0  0  0
  8 10  2  0  0  0  0
  8 11  1  0  0  0  0
 11 12  1  0  0  0  0
 12 13  1  0  0  0  0
 13 14  1  0  0  0  0
 14 15  2  0  0  0  0
 15 16  1  0  0  0  0
 16 17  1  0  0  0  0
M  END
>  <Index>
1648

>  <ID>
HT1373

>  <class>
1

>  <apol>
36.376308

>  <ast_fraglike>
0

>  <ast_fraglike_ext>
0

>  <ast_violation>
1

>  <ast_violation_ext>
2

>  <a_acc>
4

>  <a_acid>
0

>  <a_aro>
6

>  <a_base>
0

>  <a_count>
30

>  <a_don>
1

>  <a_donacc>
5

>  <a_heavy>
17

>  <a_hyd>
10

>  <a_IC>
55.881721

>  <a_ICM>
1.8627241

>  <a_nB>
0

>  <a_nBr>
0

>  <a_nC>
10

>  <a_nCl>
0

>  <a_nF>
0

>  <a_nH>
13

>  <a_nI>
0

>  <a_nN>
1

>  <a_nO>
4

>  <a_nP>
0

>  <a_nS>
2

>  <balabanJ>
2.1891959

>  <BCUT_PEOE_0>
-2.602973

>  <BCUT_PEOE_1>
-0.47705549

>  <BCUT_PEOE_2>
0.39681837

>  <BCUT_PEOE_3>
2.6766455

>  <BCUT_SLOGP_0>
-2.6313603

>  <BCUT_SLOGP_1>
-0.37979984

>  <BCUT_SLOGP_2>
0.4339405

>  <BCUT_SLOGP_3>
2.6574006

>  <BCUT_SMR_0>
-2.3401399

>  <BCUT_SMR_1>
-0.16745868

>  <BCUT_SMR_2>
0.56105822

>  <BCUT_SMR_3>
2.9554448

>  <bpol>
26.503691

>  <b_1rotN>
1

>  <b_1rotR>
0.055555556

>  <b_ar>
6

>  <b_count>
31

>  <b_double>
0

>  <b_heavy>
18

>  <b_max1len>
3

>  <b_rotN>
1

>  <b_rotR>
0.055555556

>  <b_single>
25

>  <b_triple>
0

>  <chi0>
12.844935

>  <chi0v>
10.935854

>  <chi0v_C>
6.276021

>  <chi0_C>
6.8449349

>  <chi1>
7.7161622

>  <chi1v>
8.3061314

>  <chi1v_C>
3.5082538

>  <chi1_C>
4.2852583

>  <chiral>
0

>  <chiral_u>
0

>  <density>
0.90247571

>  <diameter>
7

>  <FCharge>
0

>  <GCUT_PEOE_0>
-0.88624257

>  <GCUT_PEOE_1>
-0.40390822

>  <GCUT_PEOE_2>
-0.01857077

>  <GCUT_PEOE_3>
2.6102595

>  <GCUT_SLOGP_0>
-1.3482944

>  <GCUT_SLOGP_1>
-0.43569267

>  <GCUT_SLOGP_2>
0.017731482

>  <GCUT_SLOGP_3>
2.6182151

>  <GCUT_SMR_0>
-0.51315093

>  <GCUT_SMR_1>
-0.14151482

>  <GCUT_SMR_2>
0.10550335

>  <GCUT_SMR_3>
2.8605802

>  <Kier1>
13.432098

>  <Kier2>
4.2806182

>  <Kier3>
2.5599999

>  <KierA1>
13.982661

>  <KierA2>
4.4677014

>  <KierA3>
2.6774042

>  <KierFlex>
3.6747267

>  <lip_acc>
5

>  <lip_don>
2

>  <lip_druglike>
1

>  <lip_violation>
0

>  <logP(o/w)>
0.25

>  <logS>
-2.29829

>  <mr>
6.5281048

>  <mutagenic>
0

>  <nmol>
1

>  <opr_brigid>
11

>  <opr_leadlike>
1

>  <opr_nring>
2

>  <opr_nrot>
2

>  <opr_violation>
0

>  <PC+>
0

>  <PC->
0

>  <PEOE_PC+>
1.8054237

>  <PEOE_PC->
-1.8054237

>  <PEOE_RPC+>
0.16301553

>  <PEOE_RPC->
0.26172435

>  <PEOE_VSA+0>
65.902649

>  <PEOE_VSA+1>
12.947851

>  <PEOE_VSA+2>
20.785675

>  <PEOE_VSA+3>
10.677375

>  <PEOE_VSA+4>
0

>  <PEOE_VSA+5>
8.3692026

>  <PEOE_VSA+6>
0

>  <PEOE_VSA-0>
39.703896

>  <PEOE_VSA-1>
0

>  <PEOE_VSA-2>
6.5127993

>  <PEOE_VSA-3>
9.0437498

>  <PEOE_VSA-4>
32.016521

>  <PEOE_VSA-5>
0

>  <PEOE_VSA-6>
32.016521

>  <PEOE_VSA_FHYD>
0.69575852

>  <PEOE_VSA_FNEG>
0.50128317

>  <PEOE_VSA_FPNEG>
0.26907328

>  <PEOE_VSA_FPOL>
0.30424151

>  <PEOE_VSA_FPOS>
0.4987168

>  <PEOE_VSA_FPPOS>
0.035168227

>  <PEOE_VSA_HYD>
165.57399

>  <PEOE_VSA_NEG>
119.29349

>  <PEOE_VSA_PNEG>
64.033043

>  <PEOE_VSA_POL>
72.402252

>  <PEOE_VSA_POS>
118.68275

>  <PEOE_VSA_PPOS>
8.3692026

>  <petitjean>
0.42857143

>  <petitjeanSC>
0.75

>  <Q_PC+>
0

>  <Q_PC->
0

>  <Q_RPC+>
0

>  <Q_RPC->
0

>  <Q_VSA_FHYD>
1

>  <Q_VSA_FNEG>
0

>  <Q_VSA_FPNEG>
0

>  <Q_VSA_FPOL>
0

>  <Q_VSA_FPOS>
1

>  <Q_VSA_FPPOS>
0

>  <Q_VSA_HYD>
237.97624

>  <Q_VSA_NEG>
0

>  <Q_VSA_PNEG>
0

>  <Q_VSA_POL>
0

>  <Q_VSA_POS>
237.97624

>  <Q_VSA_PPOS>
0

>  <radius>
4

>  <reactive>
0

>  <rings>
2

>  <RPC+>
0

>  <RPC->
0

>  <rsynth>
1

>  <SlogP>
0.36228999

>  <SlogP_VSA0>
31.291433

>  <SlogP_VSA1>
96.343376

>  <SlogP_VSA2>
13.52001

>  <SlogP_VSA3>
17.233564

>  <SlogP_VSA4>
6.37115

>  <SlogP_VSA5>
21.969873

>  <SlogP_VSA6>
0

>  <SlogP_VSA7>
35.286369

>  <SlogP_VSA8>
18.868406

>  <SlogP_VSA9>
33.326015

>  <SMR>
6.2926002

>  <SMR_VSA0>
96.343376

>  <SMR_VSA1>
0

>  <SMR_VSA2>
3.1014678

>  <SMR_VSA3>
6.37115

>  <SMR_VSA4>
31.291433

>  <SMR_VSA5>
73.023178

>  <SMR_VSA6>
17.233564

>  <SMR_VSA7>
46.846024

>  <TPSA>
94.300003

>  <VAdjEq>
0.54234898

>  <VAdjMa>
5.1699252

>  <VDistEq>
2.633986

>  <VDistMa>
7.9134102

>  <vdw_area>
237.97624

>  <vdw_vol>
305.10406

>  <vsa_acc>
64.033043

>  <vsa_acid>
0

>  <vsa_base>
0

>  <vsa_don>
20.13512

>  <vsa_hyd>
123.21326

>  <vsa_other>
16.618408

>  <vsa_pol>
84.168167

>  <Weight>
275.349

>  <weinerPath>
460

>  <weinerPol>
29

>  <zagreb>
94

$$$$