OC(C1CCN(CC1)CCCC(O)c1ccc(cc1)C(C(O)=O)(C)C)(c1ccccc1)c1ccccc1
  MOE2013           2D

 37 40  0  0  1  0  0  0  0  0999 V2000
    0.0000    0.0000    0.0000 O   0  0  0  0  0  0  0  0  0  0  0  0
    0.0170    1.5000    0.0000 C   0  0  0  0  0  0  0  0  0  0  0  0
    1.5170    1.4830    0.0000 C   0  0  0  0  0  0  0  0  0  0  0  0
    2.2520    0.1750    0.0000 C   0  0  0  0  0  0  0  0  0  0  0  0
    3.7520    0.1580    0.0000 C   0  0  0  0  0  0  0  0  0  0  0  0
    4.5170    1.4480    0.0000 N   0  0  0  0  0  0  0  0  0  0  0  0
    3.7820    2.7560    0.0000 C   0  0  0  0  0  0  0  0  0  0  0  0
    2.2820    2.7730    0.0000 C   0  0  0  0  0  0  0  0  0  0  0  0
    6.0170    1.4310    0.0000 C   0  0  0  0  0  0  0  0  0  0  0  0
    6.7520    0.1230    0.0000 C   0  0  0  0  0  0  0  0  0  0  0  0
    8.2520    0.1060    0.0000 C   0  0  0  0  0  0  0  0  0  0  0  0
    8.9870   -1.2010    0.0000 C   0  0  3  0  0  0  0  0  0  0  0  0
    8.2220   -2.4920    0.0000 O   0  0  0  0  0  0  0  0  0  0  0  0
   10.4870   -1.2190    0.0000 C   0  0  0  0  0  0  0  0  0  0  0  0
   11.2520    0.0720    0.0000 C   0  0  0  0  0  0  0  0  0  0  0  0
   12.7510    0.0540    0.0000 C   0  0  0  0  0  0  0  0  0  0  0  0
   13.4860   -1.2530    0.0000 C   0  0  0  0  0  0  0  0  0  0  0  0
   12.7220   -2.5430    0.0000 C   0  0  0  0  0  0  0  0  0  0  0  0
   11.2220   -2.5260    0.0000 C   0  0  0  0  0  0  0  0  0  0  0  0
   14.9860   -1.2700    0.0000 C   0  0  0  0  0  0  0  0  0  0  0  0
   16.4860   -1.2880    0.0000 C   0  0  0  0  0  0  0  0  0  0  0  0
   17.2510    0.0030    0.0000 O   0  0  0  0  0  0  0  0  0  0  0  0
   17.2210   -2.5950    0.0000 O   0  0  0  0  0  0  0  0  0  0  0  0
   14.9690   -2.7700    0.0000 C   0  0  0  0  0  0  0  0  0  0  0  0
   15.0040    0.2300    0.0000 C   0  0  0  0  0  0  0  0  0  0  0  0
   -1.4830    1.5170    0.0000 C   0  0  0  0  0  0  0  0  0  0  0  0
   -2.2480    0.2270    0.0000 C   0  0  0  0  0  0  0  0  0  0  0  0
   -3.7470    0.2440    0.0000 C   0  0  0  0  0  0  0  0  0  0  0  0
   -4.4820    1.5520    0.0000 C   0  0  0  0  0  0  0  0  0  0  0  0
   -3.7180    2.8420    0.0000 C   0  0  0  0  0  0  0  0  0  0  0  0
   -2.2180    2.8250    0.0000 C   0  0  0  0  0  0  0  0  0  0  0  0
    0.0340    3.0000    0.0000 C   0  0  0  0  0  0  0  0  0  0  0  0
    1.3420    3.7350    0.0000 C   0  0  0  0  0  0  0  0  0  0  0  0
    1.3590    5.2350    0.0000 C   0  0  0  0  0  0  0  0  0  0  0  0
    0.0690    6.0000    0.0000 C   0  0  0  0  0  0  0  0  0  0  0  0
   -1.2390    5.2650    0.0000 C   0  0  0  0  0  0  0  0  0  0  0  0
   -1.2560    3.7650    0.0000 C   0  0  0  0  0  0  0  0  0  0  0  0
  1  2  1  0  0  0  0
  2  3  1  0  0  0  0
  2 26  1  0  0  0  0
  2 32  1  0  0  0  0
  3  4  1  0  0  0  0
  3  8  1  0  0  0  0
  4  5  1  0  0  0  0
  5  6  1  0  0  0  0
  6  7  1  0  0  0  0
  6  9  1  0  0  0  0
  7  8  1  0  0  0  0
  9 10  1  0  0  0  0
 10 11  1  0  0  0  0
 11 12  1  0  0  0  0
 12 13  1  0  0  0  0
 12 14  1  0  0  0  0
 14 15  1  0  0  0  0
 14 19  2  0  0  0  0
 15 16  2  0  0  0  0
 16 17  1  0  0  0  0
 17 18  2  0  0  0  0
 17 20  1  0  0  0  0
 18 19  1  0  0  0  0
 20 21  1  0  0  0  0
 20 24  1  0  0  0  0
 20 25  1  0  0  0  0
 21 22  1  0  0  0  0
 21 23  2  0  0  0  0
 26 27  1  0  0  0  0
 26 31  2  0  0  0  0
 27 28  2  0  0  0  0
 28 29  1  0  0  0  0
 29 30  2  0  0  0  0
 30 31  1  0  0  0  0
 32 33  1  0  0  0  0
 32 37  2  0  0  0  0
 33 34  2  0  0  0  0
 34 35  1  0  0  0  0
 35 36  2  0  0  0  0
 36 37  1  0  0  0  0
M  END
>  <Index>
1567

>  <ID>
HT0871

>  <class>
1

>  <apol>
86.632927

>  <ast_fraglike>
0

>  <ast_fraglike_ext>
0

>  <ast_violation>
4

>  <ast_violation_ext>
5

>  <a_acc>
5

>  <a_acid>
0

>  <a_aro>
18

>  <a_base>
0

>  <a_count>
76

>  <a_don>
4

>  <a_donacc>
9

>  <a_heavy>
37

>  <a_hyd>
31

>  <a_IC>
100.71181

>  <a_ICM>
1.3251554

>  <a_nB>
0

>  <a_nBr>
0

>  <a_nC>
32

>  <a_nCl>
0

>  <a_nF>
0

>  <a_nH>
39

>  <a_nI>
0

>  <a_nN>
1

>  <a_nO>
4

>  <a_nP>
0

>  <a_nS>
0

>  <balabanJ>
1.2017764

>  <BCUT_PEOE_0>
-2.8204756

>  <BCUT_PEOE_1>
-0.64810228

>  <BCUT_PEOE_2>
0.69778067

>  <BCUT_PEOE_3>
2.7650676

>  <BCUT_SLOGP_0>
-2.8225222

>  <BCUT_SLOGP_1>
-0.53807992

>  <BCUT_SLOGP_2>
0.73114407

>  <BCUT_SLOGP_3>
2.8134899

>  <BCUT_SMR_0>
-2.5578854

>  <BCUT_SMR_1>
-0.49986199

>  <BCUT_SMR_2>
0.85431087

>  <BCUT_SMR_3>
3.0207241

>  <bpol>
45.573074

>  <b_1rotN>
10

>  <b_1rotR>
0.25

>  <b_ar>
18

>  <b_count>
79

>  <b_double>
1

>  <b_heavy>
40

>  <b_max1len>
6

>  <b_rotN>
10

>  <b_rotR>
0.25

>  <b_single>
60

>  <b_triple>
0

>  <chi0>
26.468044

>  <chi0v>
21.884455

>  <chi0v_C>
19.687351

>  <chi0_C>
21.890694

>  <chi1>
17.724236

>  <chi1v>
13.303049

>  <chi1v_C>
11.44483

>  <chi1_C>
14.26744

>  <chiral>
1

>  <chiral_u>
1

>  <density>
0.68573231

>  <diameter>
19

>  <FCharge>
0

>  <GCUT_PEOE_0>
-0.85822523

>  <GCUT_PEOE_1>
-0.38927785

>  <GCUT_PEOE_2>
0.079518102

>  <GCUT_PEOE_3>
3.0216181

>  <GCUT_SLOGP_0>
-0.95249087

>  <GCUT_SLOGP_1>
-0.28666976

>  <GCUT_SLOGP_2>
0.14417286

>  <GCUT_SLOGP_3>
3.1035085

>  <GCUT_SMR_0>
-0.5306235

>  <GCUT_SMR_1>
-0.21605732

>  <GCUT_SMR_2>
0.19305076

>  <GCUT_SMR_3>
3.2696605

>  <Kier1>
29.969999

>  <Kier2>
13.573407

>  <Kier3>
7.2049861

>  <KierA1>
23.899303

>  <KierA2>
10.752102

>  <KierA3>
5.6800342

>  <KierFlex>
6.9450741

>  <lip_acc>
5

>  <lip_don>
3

>  <lip_druglike>
0

>  <lip_violation>
2

>  <logP(o/w)>
7.2950001

>  <logS>
-5.8537102

>  <mr>
14.822876

>  <mutagenic>
0

>  <nmol>
1

>  <opr_brigid>
24

>  <opr_leadlike>
0

>  <opr_nring>
4

>  <opr_nrot>
12

>  <opr_violation>
3

>  <PC+>
0

>  <PC->
0

>  <PEOE_PC+>
2.7793884

>  <PEOE_PC->
-2.7793884

>  <PEOE_RPC+>
0.097014233

>  <PEOE_RPC->
0.13930459

>  <PEOE_VSA+0>
89.573105

>  <PEOE_VSA+1>
68.885719

>  <PEOE_VSA+2>
0

>  <PEOE_VSA+3>
0

>  <PEOE_VSA+4>
30.972517

>  <PEOE_VSA+5>
14.708499

>  <PEOE_VSA+6>
0

>  <PEOE_VSA-0>
120.71174

>  <PEOE_VSA-1>
171.56865

>  <PEOE_VSA-2>
0

>  <PEOE_VSA-3>
0

>  <PEOE_VSA-4>
0

>  <PEOE_VSA-5>
13.566921

>  <PEOE_VSA-6>
23.30262

>  <PEOE_VSA_FHYD>
0.84520507

>  <PEOE_VSA_FNEG>
0.61720651

>  <PEOE_VSA_FPNEG>
0.069136038

>  <PEOE_VSA_FPOL>
0.15479493

>  <PEOE_VSA_FPOS>
0.38279346

>  <PEOE_VSA_FPPOS>
0.0856589

>  <PEOE_VSA_HYD>
450.73923

>  <PEOE_VSA_NEG>
329.14993

>  <PEOE_VSA_PNEG>
36.869541

>  <PEOE_VSA_POL>
82.55056

>  <PEOE_VSA_POS>
204.13985

>  <PEOE_VSA_PPOS>
45.681019

>  <petitjean>
0.47368422

>  <petitjeanSC>
0.89999998

>  <Q_PC+>
0

>  <Q_PC->
0

>  <Q_RPC+>
0

>  <Q_RPC->
0

>  <Q_VSA_FHYD>
1

>  <Q_VSA_FNEG>
0

>  <Q_VSA_FPNEG>
0

>  <Q_VSA_FPOL>
0

>  <Q_VSA_FPOS>
1

>  <Q_VSA_FPPOS>
0

>  <Q_VSA_HYD>
533.28979

>  <Q_VSA_NEG>
0

>  <Q_VSA_PNEG>
0

>  <Q_VSA_POL>
0

>  <Q_VSA_POS>
533.28979

>  <Q_VSA_PPOS>
0

>  <radius>
10

>  <reactive>
0

>  <rings>
4

>  <RPC+>
0

>  <RPC->
0

>  <rsynth>
1

>  <SlogP>
5.9175

>  <SlogP_VSA0>
50.770454

>  <SlogP_VSA1>
10.869778

>  <SlogP_VSA2>
23.862217

>  <SlogP_VSA3>
80.703964

>  <SlogP_VSA4>
17.153095

>  <SlogP_VSA5>
0

>  <SlogP_VSA6>
0

>  <SlogP_VSA7>
247.00458

>  <SlogP_VSA8>
81.942268

>  <SlogP_VSA9>
66.652031

>  <SMR>
14.65724

>  <SMR_VSA0>
23.862217

>  <SMR_VSA1>
53.894768

>  <SMR_VSA2>
29.796022

>  <SMR_VSA3>
19.210949

>  <SMR_VSA4>
0

>  <SMR_VSA5>
322.47821

>  <SMR_VSA6>
63.064198

>  <SMR_VSA7>
66.652031

>  <TPSA>
81

>  <VAdjEq>
0.32120815

>  <VAdjMa>
6.321928

>  <VDistEq>
4.0947576

>  <VDistMa>
10.08168

>  <vdw_area>
533.28979

>  <vdw_vol>
731.57849

>  <vsa_acc>
0

>  <vsa_acid>
0

>  <vsa_base>
0

>  <vsa_don>
0

>  <vsa_hyd>
423.76953

>  <vsa_other>
14.708499

>  <vsa_pol>
54.267685

>  <Weight>
501.66699

>  <weinerPath>
5214

>  <weinerPol>
64

>  <zagreb>
194

$$$$