Clc1ccccc1CN1CCc2sccc2C1
  MOE2013           2D

 17 19  0  0  1  0  0  0  0  0999 V2000
    0.0000    0.0000    0.0000 Cl  0  0  0  0  0  0  0  0  0  0  0  0
    0.7540    1.2970    0.0000 C   0  0  0  0  0  0  0  0  0  0  0  0
    0.0080    2.5980    0.0000 C   0  0  0  0  0  0  0  0  0  0  0  0
    0.7610    3.8950    0.0000 C   0  0  0  0  0  0  0  0  0  0  0  0
    2.2610    3.8910    0.0000 C   0  0  0  0  0  0  0  0  0  0  0  0
    3.0070    2.5890    0.0000 C   0  0  0  0  0  0  0  0  0  0  0  0
    2.2540    1.2930    0.0000 C   0  0  0  0  0  0  0  0  0  0  0  0
    3.0000   -0.0090    0.0000 C   0  0  0  0  0  0  0  0  0  0  0  0
    4.5000   -0.0130    0.0000 N   0  0  3  0  0  0  0  0  0  0  0  0
    5.2540    1.2840    0.0000 C   0  0  0  0  0  0  0  0  0  0  0  0
    6.7540    1.2800    0.0000 C   0  0  0  0  0  0  0  0  0  0  0  0
    7.5000   -0.0220    0.0000 C   0  0  0  0  0  0  0  0  0  0  0  0
    8.9660   -0.3380    0.0000 S   0  0  0  0  0  0  0  0  0  0  0  0
    9.1190   -1.8300    0.0000 C   0  0  0  0  0  0  0  0  0  0  0  0
    7.7470   -2.4360    0.0000 C   0  0  0  0  0  0  0  0  0  0  0  0
    6.7460   -1.3190    0.0000 C   0  0  0  0  0  0  0  0  0  0  0  0
    5.2460   -1.3140    0.0000 C   0  0  0  0  0  0  0  0  0  0  0  0
  1  2  1  0  0  0  0
  2  3  1  0  0  0  0
  2  7  2  0  0  0  0
  3  4  2  0  0  0  0
  4  5  1  0  0  0  0
  5  6  2  0  0  0  0
  6  7  1  0  0  0  0
  7  8  1  0  0  0  0
  8  9  1  0  0  0  0
  9 10  1  0  0  0  0
  9 17  1  0  0  0  0
 10 11  1  0  0  0  0
 11 12  1  0  0  0  0
 12 13  1  0  0  0  0
 12 16  2  0  0  0  0
 13 14  1  0  0  0  0
 14 15  2  0  0  0  0
 15 16  1  0  0  0  0
 16 17  1  0  0  0  0
M  END
>  <Index>
1744

>  <ID>
HT2058

>  <class>
1

>  <apol>
40.155102

>  <ast_fraglike>
0

>  <ast_fraglike_ext>
0

>  <ast_violation>
1

>  <ast_violation_ext>
1

>  <a_acc>
1

>  <a_acid>
0

>  <a_aro>
11

>  <a_base>
0

>  <a_count>
31

>  <a_don>
0

>  <a_donacc>
1

>  <a_heavy>
17

>  <a_hyd>
16

>  <a_IC>
46.974148

>  <a_ICM>
1.5152951

>  <a_nB>
0

>  <a_nBr>
0

>  <a_nC>
14

>  <a_nCl>
1

>  <a_nF>
0

>  <a_nH>
14

>  <a_nI>
0

>  <a_nN>
1

>  <a_nO>
0

>  <a_nP>
0

>  <a_nS>
1

>  <balabanJ>
1.5186994

>  <BCUT_PEOE_0>
-2.6631465

>  <BCUT_PEOE_1>
-0.51791877

>  <BCUT_PEOE_2>
0.64161664

>  <BCUT_PEOE_3>
2.5768454

>  <BCUT_SLOGP_0>
-2.6379321

>  <BCUT_SLOGP_1>
-0.39797586

>  <BCUT_SLOGP_2>
0.80034631

>  <BCUT_SLOGP_3>
2.6552796

>  <BCUT_SMR_0>
-2.3702598

>  <BCUT_SMR_1>
-0.37014404

>  <BCUT_SMR_2>
0.88381082

>  <BCUT_SMR_3>
2.8731666

>  <bpol>
19.984898

>  <b_1rotN>
2

>  <b_1rotR>
0.10526316

>  <b_ar>
11

>  <b_count>
33

>  <b_double>
0

>  <b_heavy>
19

>  <b_max1len>
2

>  <b_rotN>
2

>  <b_rotR>
0.10526316

>  <b_single>
22

>  <b_triple>
0

>  <chi0>
11.664926

>  <chi0v>
11.098381

>  <chi0v_C>
8.2925291

>  <chi0_C>
9.3804693

>  <chi1>
8.3264999

>  <chi1v>
7.0951281

>  <chi1v_C>
4.2600188

>  <chi1_C>
5.6161566

>  <chiral>
0

>  <chiral_u>
0

>  <density>
0.77369809

>  <diameter>
9

>  <FCharge>
0

>  <GCUT_PEOE_0>
-0.84480697

>  <GCUT_PEOE_1>
-0.38143203

>  <GCUT_PEOE_2>
0.058946203

>  <GCUT_PEOE_3>
2.5125806

>  <GCUT_SLOGP_0>
-0.89272189

>  <GCUT_SLOGP_1>
-0.23507671

>  <GCUT_SLOGP_2>
0.20074154

>  <GCUT_SLOGP_3>
2.6499169

>  <GCUT_SMR_0>
-0.51113296

>  <GCUT_SMR_1>
-0.16541727

>  <GCUT_SMR_2>
0.25626639

>  <GCUT_SMR_3>
2.8077185

>  <Kier1>
12.055402

>  <Kier2>
5.3254437

>  <Kier3>
2.7128029

>  <KierA1>
11.308774

>  <KierA2>
4.9745612

>  <KierA3>
2.525569

>  <KierFlex>
3.3091877

>  <lip_acc>
1

>  <lip_don>
0

>  <lip_druglike>
1

>  <lip_violation>
0

>  <logP(o/w)>
3.7690001

>  <logS>
-3.7490599

>  <mr>
7.5536971

>  <mutagenic>
0

>  <nmol>
1

>  <opr_brigid>
16

>  <opr_leadlike>
1

>  <opr_nring>
3

>  <opr_nrot>
3

>  <opr_violation>
0

>  <PC+>
0

>  <PC->
0

>  <PEOE_PC+>
0.95299929

>  <PEOE_PC->
-0.95299929

>  <PEOE_RPC+>
0.16431434

>  <PEOE_RPC->
0.30817273

>  <PEOE_VSA+0>
82.485191

>  <PEOE_VSA+1>
21.326929

>  <PEOE_VSA+2>
0

>  <PEOE_VSA+3>
19.760618

>  <PEOE_VSA+4>
0

>  <PEOE_VSA+5>
0

>  <PEOE_VSA+6>
0

>  <PEOE_VSA-0>
25.373297

>  <PEOE_VSA-1>
82.786163

>  <PEOE_VSA-2>
14.230966

>  <PEOE_VSA-3>
0

>  <PEOE_VSA-4>
0

>  <PEOE_VSA-5>
0

>  <PEOE_VSA-6>
0

>  <PEOE_VSA_FHYD>
1

>  <PEOE_VSA_FNEG>
0.49759656

>  <PEOE_VSA_FPNEG>
0

>  <PEOE_VSA_FPOL>
0

>  <PEOE_VSA_FPOS>
0.50240344

>  <PEOE_VSA_FPPOS>
0

>  <PEOE_VSA_HYD>
245.96317

>  <PEOE_VSA_NEG>
122.39043

>  <PEOE_VSA_PNEG>
0

>  <PEOE_VSA_POL>
0

>  <PEOE_VSA_POS>
123.57275

>  <PEOE_VSA_PPOS>
0

>  <petitjean>
0.44444445

>  <petitjeanSC>
0.80000001

>  <Q_PC+>
0

>  <Q_PC->
0

>  <Q_RPC+>
0

>  <Q_RPC->
0

>  <Q_VSA_FHYD>
1

>  <Q_VSA_FNEG>
0

>  <Q_VSA_FPNEG>
0

>  <Q_VSA_FPOL>
0

>  <Q_VSA_FPOS>
1

>  <Q_VSA_FPPOS>
0

>  <Q_VSA_HYD>
245.96317

>  <Q_VSA_NEG>
0

>  <Q_VSA_PNEG>
0

>  <Q_VSA_POL>
0

>  <Q_VSA_POS>
245.96317

>  <Q_VSA_PPOS>
0

>  <radius>
5

>  <reactive>
0

>  <rings>
3

>  <RPC+>
0

>  <RPC->
0

>  <rsynth>
1

>  <SlogP>
4.4925699

>  <SlogP_VSA0>
0

>  <SlogP_VSA1>
3.1243138

>  <SlogP_VSA2>
0

>  <SlogP_VSA3>
18.439579

>  <SlogP_VSA4>
7.7295513

>  <SlogP_VSA5>
18.868406

>  <SlogP_VSA6>
3.5006065

>  <SlogP_VSA7>
104.03193

>  <SlogP_VSA8>
0

>  <SlogP_VSA9>
107.30549

>  <SMR>
7.3999

>  <SMR_VSA0>
0

>  <SMR_VSA1>
3.1243138

>  <SMR_VSA2>
0

>  <SMR_VSA3>
11.230158

>  <SMR_VSA4>
0

>  <SMR_VSA5>
159.7795

>  <SMR_VSA6>
18.439579

>  <SMR_VSA7>
70.426331

>  <TPSA>
3.24

>  <VAdjEq>
0.56150466

>  <VAdjMa>
5.2479277

>  <VDistEq>
2.9891045

>  <VDistMa>
7.8562651

>  <vdw_area>
245.96317

>  <vdw_vol>
340.94952

>  <vsa_acc>
0

>  <vsa_acid>
0

>  <vsa_base>
0

>  <vsa_don>
0

>  <vsa_hyd>
235.99803

>  <vsa_other>
0

>  <vsa_pol>
0

>  <Weight>
263.79199

>  <weinerPath>
533

>  <weinerPol>
23

>  <zagreb>
90

$$$$