O=C1N(N(C(=O)C1CCCC)c1ccccc1)c1ccccc1
  MOE2013           2D

 23 25  0  0  0  0  0  0  0  0999 V2000
    0.0000    0.0000    0.0000 O   0  0  0  0  0  0  0  0  0  0  0  0
   -1.2530   -0.8250    0.0000 C   0  0  0  0  0  0  0  0  0  0  0  0
   -2.6570   -0.2960    0.0000 N   0  0  0  0  0  0  0  0  0  0  0  0
   -3.5940   -1.4670    0.0000 N   0  0  0  0  0  0  0  0  0  0  0  0
   -2.7690   -2.7200    0.0000 C   0  0  0  0  0  0  0  0  0  0  0  0
   -3.2980   -4.1240    0.0000 O   0  0  0  0  0  0  0  0  0  0  0  0
   -1.3220   -2.3230    0.0000 C   0  0  0  0  0  0  0  0  0  0  0  0
   -0.1510   -3.2600    0.0000 C   0  0  0  0  0  0  0  0  0  0  0  0
    1.2460   -2.7140    0.0000 C   0  0  0  0  0  0  0  0  0  0  0  0
    2.4180   -3.6510    0.0000 C   0  0  0  0  0  0  0  0  0  0  0  0
    3.8150   -3.1050    0.0000 C   0  0  0  0  0  0  0  0  0  0  0  0
   -5.0920   -1.3980    0.0000 C   0  0  0  0  0  0  0  0  0  0  0  0
   -5.9010   -2.6610    0.0000 C   0  0  0  0  0  0  0  0  0  0  0  0
   -7.4000   -2.5910    0.0000 C   0  0  0  0  0  0  0  0  0  0  0  0
   -8.0890   -1.2590    0.0000 C   0  0  0  0  0  0  0  0  0  0  0  0
   -7.2790    0.0040    0.0000 C   0  0  0  0  0  0  0  0  0  0  0  0
   -5.7810   -0.0650    0.0000 C   0  0  0  0  0  0  0  0  0  0  0  0
   -3.0540    1.1510    0.0000 C   0  0  0  0  0  0  0  0  0  0  0  0
   -1.9990    2.2180    0.0000 C   0  0  0  0  0  0  0  0  0  0  0  0
   -2.3960    3.6650    0.0000 C   0  0  0  0  0  0  0  0  0  0  0  0
   -3.8480    4.0440    0.0000 C   0  0  0  0  0  0  0  0  0  0  0  0
   -4.9020    2.9770    0.0000 C   0  0  0  0  0  0  0  0  0  0  0  0
   -4.5050    1.5300    0.0000 C   0  0  0  0  0  0  0  0  0  0  0  0
  1  2  2  0  0  0  0
  2  3  1  0  0  0  0
  2  7  1  0  0  0  0
  3  4  1  0  0  0  0
  3 18  1  0  0  0  0
  4  5  1  0  0  0  0
  4 12  1  0  0  0  0
  5  6  2  0  0  0  0
  5  7  1  0  0  0  0
  7  8  1  0  0  0  0
  8  9  1  0  0  0  0
  9 10  1  0  0  0  0
 10 11  1  0  0  0  0
 12 13  1  0  0  0  0
 12 17  2  0  0  0  0
 13 14  2  0  0  0  0
 14 15  1  0  0  0  0
 15 16  2  0  0  0  0
 16 17  1  0  0  0  0
 18 19  1  0  0  0  0
 18 23  2  0  0  0  0
 19 20  2  0  0  0  0
 20 21  1  0  0  0  0
 21 22  2  0  0  0  0
 22 23  1  0  0  0  0
M  END
>  <Index>
1691

>  <ID>
HT1660

>  <class>
1

>  <apol>
50.579861

>  <ast_fraglike>
0

>  <ast_fraglike_ext>
0

>  <ast_violation>
2

>  <ast_violation_ext>
3

>  <a_acc>
2

>  <a_acid>
0

>  <a_aro>
12

>  <a_base>
0

>  <a_count>
43

>  <a_don>
0

>  <a_donacc>
2

>  <a_heavy>
23

>  <a_hyd>
17

>  <a_IC>
62.180199

>  <a_ICM>
1.4460511

>  <a_nB>
0

>  <a_nBr>
0

>  <a_nC>
19

>  <a_nCl>
0

>  <a_nF>
0

>  <a_nH>
20

>  <a_nI>
0

>  <a_nN>
2

>  <a_nO>
2

>  <a_nP>
0

>  <a_nS>
0

>  <balabanJ>
1.7853974

>  <BCUT_PEOE_0>
-2.6090014

>  <BCUT_PEOE_1>
-0.59685707

>  <BCUT_PEOE_2>
0.70141345

>  <BCUT_PEOE_3>
2.6794879

>  <BCUT_SLOGP_0>
-2.5323577

>  <BCUT_SLOGP_1>
-0.53807992

>  <BCUT_SLOGP_2>
0.80591482

>  <BCUT_SLOGP_3>
2.723053

>  <BCUT_SMR_0>
-2.3750508

>  <BCUT_SMR_1>
-0.41891032

>  <BCUT_SMR_2>
0.85431087

>  <BCUT_SMR_3>
2.9333394

>  <bpol>
26.420139

>  <b_1rotN>
5

>  <b_1rotR>
0.2

>  <b_ar>
12

>  <b_count>
45

>  <b_double>
2

>  <b_heavy>
25

>  <b_max1len>
6

>  <b_rotN>
5

>  <b_rotR>
0.2

>  <b_single>
31

>  <b_triple>
0

>  <chi0>
16.233841

>  <chi0v>
13.183097

>  <chi0v_C>
11.472174

>  <chi0_C>
13.07914

>  <chi1>
11.236382

>  <chi1v>
8.0167484

>  <chi1v_C>
6.5140724

>  <chi1_C>
8.4150152

>  <chiral>
0

>  <chiral_u>
0

>  <density>
0.70357889

>  <diameter>
10

>  <FCharge>
0

>  <GCUT_PEOE_0>
-0.83111167

>  <GCUT_PEOE_1>
-0.38441512

>  <GCUT_PEOE_2>
0.081635259

>  <GCUT_PEOE_3>
2.6732504

>  <GCUT_SLOGP_0>
-1.067979

>  <GCUT_SLOGP_1>
-0.30171204

>  <GCUT_SLOGP_2>
0.16445385

>  <GCUT_SLOGP_3>
2.725378

>  <GCUT_SMR_0>
-0.53018636

>  <GCUT_SMR_1>
-0.21605732

>  <GCUT_SMR_2>
0.19305076

>  <GCUT_SMR_3>
2.9499304

>  <Kier1>
17.811199

>  <Kier2>
8.3927336

>  <Kier3>
3.8194444

>  <KierA1>
12.4722

>  <KierA2>
5.7732482

>  <KierA3>
2.5919597

>  <KierFlex>
3.1306567

>  <lip_acc>
4

>  <lip_don>
0

>  <lip_druglike>
1

>  <lip_violation>
0

>  <logP(o/w)>
4.0760002

>  <logS>
-5.2615299

>  <mr>
9.1251526

>  <mutagenic>
0

>  <nmol>
1

>  <opr_brigid>
17

>  <opr_leadlike>
1

>  <opr_nring>
3

>  <opr_nrot>
5

>  <opr_violation>
0

>  <PC+>
0

>  <PC->
0

>  <PEOE_PC+>
1.6790174

>  <PEOE_PC->
-1.6790174

>  <PEOE_RPC+>
0.15425462

>  <PEOE_RPC->
0.16084176

>  <PEOE_VSA+0>
42.653858

>  <PEOE_VSA+1>
56.052963

>  <PEOE_VSA+2>
0

>  <PEOE_VSA+3>
0

>  <PEOE_VSA+4>
0

>  <PEOE_VSA+5>
25.899061

>  <PEOE_VSA+6>
0

>  <PEOE_VSA-0>
57.720928

>  <PEOE_VSA-1>
109.67973

>  <PEOE_VSA-2>
0

>  <PEOE_VSA-3>
0

>  <PEOE_VSA-4>
0

>  <PEOE_VSA-5>
27.133842

>  <PEOE_VSA-6>
0

>  <PEOE_VSA_FHYD>
0.83382577

>  <PEOE_VSA_FNEG>
0.60955775

>  <PEOE_VSA_FPNEG>
0.085021652

>  <PEOE_VSA_FPOL>
0.16617422

>  <PEOE_VSA_FPOS>
0.39044222

>  <PEOE_VSA_FPPOS>
0.081152566

>  <PEOE_VSA_HYD>
266.10748

>  <PEOE_VSA_NEG>
194.5345

>  <PEOE_VSA_PNEG>
27.133842

>  <PEOE_VSA_POL>
53.032902

>  <PEOE_VSA_POS>
124.60588

>  <PEOE_VSA_PPOS>
25.899061

>  <petitjean>
0.40000001

>  <petitjeanSC>
0.66666669

>  <Q_PC+>
0

>  <Q_PC->
0

>  <Q_RPC+>
0

>  <Q_RPC->
0

>  <Q_VSA_FHYD>
1

>  <Q_VSA_FNEG>
0

>  <Q_VSA_FPNEG>
0

>  <Q_VSA_FPOL>
0

>  <Q_VSA_FPOS>
1

>  <Q_VSA_FPPOS>
0

>  <Q_VSA_HYD>
319.14038

>  <Q_VSA_NEG>
0

>  <Q_VSA_PNEG>
0

>  <Q_VSA_POL>
0

>  <Q_VSA_POS>
319.14038

>  <Q_VSA_PPOS>
0

>  <radius>
6

>  <reactive>
0

>  <rings>
3

>  <RPC+>
0

>  <RPC->
0

>  <rsynth>
1

>  <SlogP>
3.7878001

>  <SlogP_VSA0>
6.0035834

>  <SlogP_VSA1>
10.517568

>  <SlogP_VSA2>
47.724434

>  <SlogP_VSA3>
0

>  <SlogP_VSA4>
4.4107962

>  <SlogP_VSA5>
0

>  <SlogP_VSA6>
0

>  <SlogP_VSA7>
176.43184

>  <SlogP_VSA8>
56.605217

>  <SlogP_VSA9>
38.839512

>  <SMR>
9.0871

>  <SMR_VSA0>
47.724434

>  <SMR_VSA1>
0

>  <SMR_VSA2>
10.41438

>  <SMR_VSA3>
0

>  <SMR_VSA4>
5.513495

>  <SMR_VSA5>
233.03706

>  <SMR_VSA6>
10.517568

>  <SMR_VSA7>
33.326015

>  <TPSA>
40.619999

>  <VAdjEq>
0.45137304

>  <VAdjMa>
5.643856

>  <VDistEq>
3.0811992

>  <VDistMa>
8.7939205

>  <vdw_area>
319.14038

>  <vdw_vol>
438.30338

>  <vsa_acc>
27.133842

>  <vsa_acid>
0

>  <vsa_base>
0

>  <vsa_don>
0

>  <vsa_hyd>
250.52652

>  <vsa_other>
25.899061

>  <vsa_pol>
27.133842

>  <Weight>
308.38098

>  <weinerPath>
1109

>  <weinerPol>
37

>  <zagreb>
118

$$$$