Clc1ccc(cc1)C(=O)n1c2c(cc(OC)cc2)c(CC(O)=O)c1C
  MOE2013           2D

 25 27  0  0  0  0  0  0  0  0999 V2000
    0.0000    0.0000    0.0000 Cl  0  0  0  0  0  0  0  0  0  0  0  0
    1.5000   -0.0090    0.0000 C   0  0  0  0  0  0  0  0  0  0  0  0
    2.2580    1.2860    0.0000 C   0  0  0  0  0  0  0  0  0  0  0  0
    3.7580    1.2770    0.0000 C   0  0  0  0  0  0  0  0  0  0  0  0
    4.5000   -0.0260    0.0000 C   0  0  0  0  0  0  0  0  0  0  0  0
    3.7420   -1.3210    0.0000 C   0  0  0  0  0  0  0  0  0  0  0  0
    2.2420   -1.3120    0.0000 C   0  0  0  0  0  0  0  0  0  0  0  0
    6.0000   -0.0350    0.0000 C   0  0  0  0  0  0  0  0  0  0  0  0
    6.7420   -1.3390    0.0000 O   0  0  0  0  0  0  0  0  0  0  0  0
    6.7570    1.2590    0.0000 N   0  0  0  0  0  0  0  0  0  0  0  0
    8.2500    1.4080    0.0000 C   0  0  0  0  0  0  0  0  0  0  0  0
    8.5710    2.8730    0.0000 C   0  0  0  0  0  0  0  0  0  0  0  0
   10.0000    3.3280    0.0000 C   0  0  0  0  0  0  0  0  0  0  0  0
   11.1090    2.3180    0.0000 C   0  0  0  0  0  0  0  0  0  0  0  0
   12.5380    2.7730    0.0000 O   0  0  0  0  0  0  0  0  0  0  0  0
   13.6470    1.7630    0.0000 C   0  0  0  0  0  0  0  0  0  0  0  0
   10.7880    0.8520    0.0000 C   0  0  0  0  0  0  0  0  0  0  0  0
    9.3590    0.3970    0.0000 C   0  0  0  0  0  0  0  0  0  0  0  0
    7.2760    3.6300    0.0000 C   0  0  0  0  0  0  0  0  0  0  0  0
    7.1280    5.1230    0.0000 C   0  0  0  0  0  0  0  0  0  0  0  0
    8.3470    5.9980    0.0000 C   0  0  0  0  0  0  0  0  0  0  0  0
    9.7130    5.3800    0.0000 O   0  0  0  0  0  0  0  0  0  0  0  0
    8.1990    7.4900    0.0000 O   0  0  0  0  0  0  0  0  0  0  0  0
    6.1550    2.6330    0.0000 C   0  0  0  0  0  0  0  0  0  0  0  0
    4.6900    2.9540    0.0000 C   0  0  0  0  0  0  0  0  0  0  0  0
  1  2  1  0  0  0  0
  2  3  1  0  0  0  0
  2  7  2  0  0  0  0
  3  4  2  0  0  0  0
  4  5  1  0  0  0  0
  5  6  2  0  0  0  0
  5  8  1  0  0  0  0
  6  7  1  0  0  0  0
  8  9  2  0  0  0  0
  8 10  1  0  0  0  0
 10 11  1  0  0  0  0
 10 24  1  0  0  0  0
 11 12  1  0  0  0  0
 11 18  2  0  0  0  0
 12 13  2  0  0  0  0
 12 19  1  0  0  0  0
 13 14  1  0  0  0  0
 14 15  1  0  0  0  0
 14 17  2  0  0  0  0
 15 16  1  0  0  0  0
 17 18  1  0  0  0  0
 19 20  1  0  0  0  0
 19 24  2  0  0  0  0
 20 21  1  0  0  0  0
 21 22  1  0  0  0  0
 21 23  2  0  0  0  0
 24 25  1  0  0  0  0
M  END
>  <Index>
1598

>  <ID>
HT1096

>  <class>
1

>  <apol>
50.596687

>  <ast_fraglike>
0

>  <ast_fraglike_ext>
0

>  <ast_violation>
3

>  <ast_violation_ext>
4

>  <a_acc>
4

>  <a_acid>
0

>  <a_aro>
15

>  <a_base>
0

>  <a_count>
41

>  <a_don>
2

>  <a_donacc>
6

>  <a_heavy>
25

>  <a_hyd>
18

>  <a_IC>
66.949013

>  <a_ICM>
1.6329026

>  <a_nB>
0

>  <a_nBr>
0

>  <a_nC>
19

>  <a_nCl>
1

>  <a_nF>
0

>  <a_nH>
16

>  <a_nI>
0

>  <a_nN>
1

>  <a_nO>
4

>  <a_nP>
0

>  <a_nS>
0

>  <balabanJ>
1.7641709

>  <BCUT_PEOE_0>
-2.2999675

>  <BCUT_PEOE_1>
-0.58252817

>  <BCUT_PEOE_2>
0.52326465

>  <BCUT_PEOE_3>
2.4086096

>  <BCUT_SLOGP_0>
-2.3327489

>  <BCUT_SLOGP_1>
-0.5117023

>  <BCUT_SLOGP_2>
0.73138279

>  <BCUT_SLOGP_3>
2.4775817

>  <BCUT_SMR_0>
-2.0439348

>  <BCUT_SMR_1>
-0.34700221

>  <BCUT_SMR_2>
0.80520219

>  <BCUT_SMR_3>
2.7026448

>  <bpol>
23.723312

>  <b_1rotN>
5

>  <b_1rotR>
0.18518518

>  <b_ar>
16

>  <b_count>
43

>  <b_double>
2

>  <b_heavy>
27

>  <b_max1len>
2

>  <b_rotN>
5

>  <b_rotR>
0.18518518

>  <b_single>
25

>  <b_triple>
0

>  <chi0>
18.137465

>  <chi0v>
14.501624

>  <chi0v_C>
11.248559

>  <chi0_C>
12.853006

>  <chi1>
11.917923

>  <chi1v>
7.9985023

>  <chi1v_C>
5.5165076

>  <chi1_C>
7.4931664

>  <chiral>
0

>  <chiral_u>
0

>  <density>
0.79430062

>  <diameter>
12

>  <FCharge>
0

>  <GCUT_PEOE_0>
-0.80848604

>  <GCUT_PEOE_1>
-0.43479782

>  <GCUT_PEOE_2>
0.057437699

>  <GCUT_PEOE_3>
2.6132295

>  <GCUT_SLOGP_0>
-0.89829993

>  <GCUT_SLOGP_1>
-0.33647203

>  <GCUT_SLOGP_2>
0.14762172

>  <GCUT_SLOGP_3>
2.7169464

>  <GCUT_SMR_0>
-0.48363942

>  <GCUT_SMR_1>
-0.20941971

>  <GCUT_SMR_2>
0.20714541

>  <GCUT_SMR_3>
2.9171443

>  <Kier1>
19.753086

>  <Kier2>
8.3471403

>  <Kier3>
4.1352797

>  <KierA1>
14.996656

>  <KierA2>
6.2590914

>  <KierA3>
3.0720692

>  <KierFlex>
3.7546179

>  <lip_acc>
5

>  <lip_don>
1

>  <lip_druglike>
1

>  <lip_violation>
0

>  <logP(o/w)>
4.3730001

>  <logS>
-4.8529301

>  <mr>
9.6372404

>  <mutagenic>
0

>  <nmol>
1

>  <opr_brigid>
16

>  <opr_leadlike>
1

>  <opr_nring>
3

>  <opr_nrot>
5

>  <opr_violation>
0

>  <PC+>
0

>  <PC->
0

>  <PEOE_PC+>
1.8747717

>  <PEOE_PC->
-1.8747717

>  <PEOE_RPC+>
0.14082786

>  <PEOE_RPC->
0.18556502

>  <PEOE_VSA+0>
61.960964

>  <PEOE_VSA+1>
66.513245

>  <PEOE_VSA+2>
0

>  <PEOE_VSA+3>
0

>  <PEOE_VSA+4>
10.324173

>  <PEOE_VSA+5>
27.65803

>  <PEOE_VSA+6>
0

>  <PEOE_VSA-0>
106.74055

>  <PEOE_VSA-1>
29.581947

>  <PEOE_VSA-2>
0

>  <PEOE_VSA-3>
0

>  <PEOE_VSA-4>
0

>  <PEOE_VSA-5>
27.133842

>  <PEOE_VSA-6>
10.271297

>  <PEOE_VSA_FHYD>
0.77839249

>  <PEOE_VSA_FNEG>
0.51068717

>  <PEOE_VSA_FPNEG>
0.10995559

>  <PEOE_VSA_FPOL>
0.22160752

>  <PEOE_VSA_FPOS>
0.48931283

>  <PEOE_VSA_FPPOS>
0.11165193

>  <PEOE_VSA_HYD>
264.79669

>  <PEOE_VSA_NEG>
173.72763

>  <PEOE_VSA_PNEG>
37.40514

>  <PEOE_VSA_POL>
75.387344

>  <PEOE_VSA_POS>
166.45641

>  <PEOE_VSA_PPOS>
37.982204

>  <petitjean>
0.5

>  <petitjeanSC>
1

>  <Q_PC+>
0

>  <Q_PC->
0

>  <Q_RPC+>
0

>  <Q_RPC->
0

>  <Q_VSA_FHYD>
1

>  <Q_VSA_FNEG>
0

>  <Q_VSA_FPNEG>
0

>  <Q_VSA_FPOL>
0

>  <Q_VSA_FPOS>
1

>  <Q_VSA_FPPOS>
0

>  <Q_VSA_HYD>
340.18405

>  <Q_VSA_NEG>
0

>  <Q_VSA_PNEG>
0

>  <Q_VSA_POL>
0

>  <Q_VSA_POS>
340.18405

>  <Q_VSA_PPOS>
0

>  <radius>
6

>  <reactive>
0

>  <rings>
3

>  <RPC+>
0

>  <RPC->
0

>  <rsynth>
1

>  <SlogP>
3.92729

>  <SlogP_VSA0>
10.999887

>  <SlogP_VSA1>
14.90334

>  <SlogP_VSA2>
23.862217

>  <SlogP_VSA3>
25.385227

>  <SlogP_VSA4>
32.990112

>  <SlogP_VSA5>
54.252274

>  <SlogP_VSA6>
3.5006065

>  <SlogP_VSA7>
128.21939

>  <SlogP_VSA8>
0

>  <SlogP_VSA9>
77.718086

>  <SMR>
9.5747299

>  <SMR_VSA0>
47.724434

>  <SMR_VSA1>
12.898981

>  <SMR_VSA2>
25.385227

>  <SMR_VSA3>
17.871933

>  <SMR_VSA4>
4.7171016

>  <SMR_VSA5>
142.3707

>  <SMR_VSA6>
13.004248

>  <SMR_VSA7>
107.85853

>  <TPSA>
68.529999

>  <VAdjEq>
0.42433795

>  <VAdjMa>
5.7548876

>  <VDistEq>
3.2664471

>  <VDistMa>
9.0199146

>  <vdw_area>
340.18405

>  <vdw_vol>
450.45035

>  <vsa_acc>
16.070677

>  <vsa_acid>
0

>  <vsa_base>
0

>  <vsa_don>
0

>  <vsa_hyd>
254.11977

>  <vsa_other>
27.65803

>  <vsa_pol>
43.204517

>  <Weight>
357.793

>  <weinerPath>
1424

>  <weinerPol>
42

>  <zagreb>
132

$$$$