O1[C@@H]2[C@]34[C@@]5([C@H](N(CC3)CC3CC3)Cc3c4c1c(O)cc3)C[C@H]([C@](O)(C(C)(C)C)C)[C@]2(OC)CC5
  MOE2013           2D

 34 40  0  0  1  0  0  0  0  0999 V2000
    0.0000    0.0000    0.0000 O   0  0  0  0  0  0  0  0  0  0  0  0
    0.6190   -1.5020    0.0000 C   0  0  2  0  0  0  0  0  0  0  0  0
   -0.7580   -2.0530    0.0000 C   0  0  2  0  0  0  0  0  0  0  0  0
   -0.9660   -3.5140    0.0000 C   0  0  1  0  0  0  0  0  0  0  0  0
   -2.3310   -4.0510    0.0000 C   0  0  2  0  0  0  0  0  0  0  0  0
   -2.9270   -5.3960    0.0000 N   0  0  3  0  0  0  0  0  0  0  0  0
   -3.3580   -4.1230    0.0000 C   0  0  0  0  0  0  0  0  0  0  0  0
   -2.4410   -2.9820    0.0000 C   0  0  0  0  0  0  0  0  0  0  0  0
   -2.9970   -6.8940    0.0000 C   0  0  0  0  0  0  0  0  0  0  0  0
   -4.3290   -7.5830    0.0000 C   0  0  0  0  0  0  0  0  0  0  0  0
   -5.1380   -8.8460    0.0000 C   0  0  0  0  0  0  0  0  0  0  0  0
   -5.8270   -7.5140    0.0000 C   0  0  0  0  0  0  0  0  0  0  0  0
   -3.4960   -3.1350    0.0000 C   0  0  0  0  0  0  0  0  0  0  0  0
   -3.2630   -1.6840    0.0000 C   0  0  0  0  0  0  0  0  0  0  0  0
   -1.8970   -1.1460    0.0000 C   0  0  0  0  0  0  0  0  0  0  0  0
   -1.6510    0.3270    0.0000 C   0  0  0  0  0  0  0  0  0  0  0  0
   -2.8370    1.2170    0.0000 C   0  0  0  0  0  0  0  0  0  0  0  0
   -2.6380    2.7040    0.0000 O   0  0  0  0  0  0  0  0  0  0  0  0
   -4.2080    0.6710    0.0000 C   0  0  0  0  0  0  0  0  0  0  0  0
   -4.4040   -0.7760    0.0000 C   0  0  0  0  0  0  0  0  0  0  0  0
    0.1940   -4.4360    0.0000 C   0  0  0  0  0  0  0  0  0  0  0  0
    1.5700   -3.8860    0.0000 C   0  0  2  0  0  0  0  0  0  0  0  0
    2.7510   -4.8110    0.0000 C   0  0  2  0  0  0  0  0  0  0  0  0
    3.6760   -3.6310    0.0000 O   0  0  0  0  0  0  0  0  0  0  0  0
    3.9310   -5.7370    0.0000 C   0  0  0  0  0  0  0  0  0  0  0  0
    3.0060   -6.9170    0.0000 C   0  0  0  0  0  0  0  0  0  0  0  0
    5.1120   -6.6620    0.0000 C   0  0  0  0  0  0  0  0  0  0  0  0
    4.8570   -4.5560    0.0000 C   0  0  0  0  0  0  0  0  0  0  0  0
    1.8250   -5.9920    0.0000 C   0  0  0  0  0  0  0  0  0  0  0  0
    1.7770   -2.4130    0.0000 C   0  0  1  0  0  0  0  0  0  0  0  0
    3.1700   -1.8560    0.0000 O   0  0  0  0  0  0  0  0  0  0  0  0
    3.3840   -0.3720    0.0000 C   0  0  0  0  0  0  0  0  0  0  0  0
    0.3210   -2.2010    0.0000 C   0  0  0  0  0  0  0  0  0  0  0  0
    0.4840   -3.6590    0.0000 C   0  0  0  0  0  0  0  0  0  0  0  0
  1 16  1  0  0  0  0
  2  1  1  1  0  0  0
  2  3  1  0  0  0  0
  2 30  1  0  0  0  0
  3  4  1  0  0  0  0
  3  8  1  6  0  0  0
  3 15  1  0  0  0  0
  4  5  1  0  0  0  0
  4 21  1  6  0  0  0
  4 34  1  1  0  0  0
  5  6  1  0  0  0  0
  5 13  1  6  0  0  0
  6  7  1  0  0  0  0
  6  9  1  0  0  0  0
  7  8  1  0  0  0  0
  9 10  1  0  0  0  0
 10 11  1  0  0  0  0
 10 12  1  0  0  0  0
 11 12  1  0  0  0  0
 13 14  1  0  0  0  0
 14 15  1  0  0  0  0
 14 20  2  0  0  0  0
 15 16  2  0  0  0  0
 16 17  1  0  0  0  0
 17 18  1  0  0  0  0
 17 19  2  0  0  0  0
 19 20  1  0  0  0  0
 22 21  1  1  0  0  0
 22 23  1  0  0  0  0
 22 30  1  0  0  0  0
 23 24  1  0  0  0  0
 23 25  1  6  0  0  0
 23 29  1  1  0  0  0
 25 26  1  0  0  0  0
 25 27  1  0  0  0  0
 25 28  1  0  0  0  0
 30 31  1  1  0  0  0
 30 33  1  0  0  0  0
 31 32  1  0  0  0  0
 33 34  1  0  0  0  0
M  END
>  <Index>
1455

>  <ID>
HT0329

>  <class>
1

>  <apol>
82.686516

>  <ast_fraglike>
0

>  <ast_fraglike_ext>
0

>  <ast_violation>
3

>  <ast_violation_ext>
4

>  <a_acc>
5

>  <a_acid>
0

>  <a_aro>
6

>  <a_base>
0

>  <a_count>
75

>  <a_don>
2

>  <a_donacc>
7

>  <a_heavy>
34

>  <a_hyd>
29

>  <a_IC>
98.620323

>  <a_ICM>
1.3149376

>  <a_nB>
0

>  <a_nBr>
0

>  <a_nC>
29

>  <a_nCl>
0

>  <a_nF>
0

>  <a_nH>
41

>  <a_nI>
0

>  <a_nN>
1

>  <a_nO>
4

>  <a_nP>
0

>  <a_nS>
0

>  <balabanJ>
1.4184848

>  <BCUT_PEOE_0>
-3.0181401

>  <BCUT_PEOE_1>
-0.34617397

>  <BCUT_PEOE_2>
0.39396048

>  <BCUT_PEOE_3>
3.0393839

>  <BCUT_SLOGP_0>
-3.0611908

>  <BCUT_SLOGP_1>
-0.32266542

>  <BCUT_SLOGP_2>
0.37884554

>  <BCUT_SLOGP_3>
3.0223937

>  <BCUT_SMR_0>
-2.776957

>  <BCUT_SMR_1>
-0.20069684

>  <BCUT_SMR_2>
0.54914838

>  <BCUT_SMR_3>
3.2791848

>  <bpol>
50.633488

>  <b_1rotN>
4

>  <b_1rotR>
0.1

>  <b_ar>
6

>  <b_count>
81

>  <b_double>
0

>  <b_heavy>
40

>  <b_max1len>
5

>  <b_rotN>
5

>  <b_rotR>
0.125

>  <b_single>
75

>  <b_triple>
0

>  <chi0>
23.88854

>  <chi0v>
21.4862

>  <chi0v_C>
19.328062

>  <chi0_C>
19.896976

>  <chi1>
16.016588

>  <chi1v>
13.553135

>  <chi1v_C>
11.163068

>  <chi1_C>
11.912251

>  <chiral>
7

>  <chiral_u>
0

>  <density>
0.70467991

>  <diameter>
10

>  <FCharge>
0

>  <GCUT_PEOE_0>
-0.85398555

>  <GCUT_PEOE_1>
-0.36171022

>  <GCUT_PEOE_2>
-0.073095597

>  <GCUT_PEOE_3>
3.6399848

>  <GCUT_SLOGP_0>
-0.96149385

>  <GCUT_SLOGP_1>
-0.30752406

>  <GCUT_SLOGP_2>
-0.037

>  <GCUT_SLOGP_3>
3.6677508

>  <GCUT_SMR_0>
-0.53780234

>  <GCUT_SMR_1>
-0.18790448

>  <GCUT_SMR_2>
0.071042605

>  <GCUT_SMR_3>
3.8681831

>  <Kier1>
23.141251

>  <Kier2>
6.8963265

>  <Kier3>
2.4860208

>  <KierA1>
21.55414

>  <KierA2>
6.4090734

>  <KierA3>
2.3067651

>  <KierFlex>
4.0630021

>  <lip_acc>
5

>  <lip_don>
2

>  <lip_druglike>
1

>  <lip_violation>
0

>  <logP(o/w)>
4.8249998

>  <logS>
-4.1974201

>  <mr>
12.930479

>  <mutagenic>
0

>  <nmol>
1

>  <opr_brigid>
28

>  <opr_leadlike>
0

>  <opr_nring>
7

>  <opr_nrot>
5

>  <opr_violation>
2

>  <PC+>
0

>  <PC->
0

>  <PEOE_PC+>
2.3591096

>  <PEOE_PC->
-2.3591096

>  <PEOE_RPC+>
0.092162624

>  <PEOE_RPC->
0.16444917

>  <PEOE_VSA+0>
195.28601

>  <PEOE_VSA+1>
25.592316

>  <PEOE_VSA+2>
21.821968

>  <PEOE_VSA+3>
0

>  <PEOE_VSA+4>
20.648346

>  <PEOE_VSA+5>
0

>  <PEOE_VSA+6>
0

>  <PEOE_VSA-0>
96.32885

>  <PEOE_VSA-1>
68.49794

>  <PEOE_VSA-2>
0

>  <PEOE_VSA-3>
0

>  <PEOE_VSA-4>
0

>  <PEOE_VSA-5>
0

>  <PEOE_VSA-6>
20.542593

>  <PEOE_VSA_FHYD>
0.90820307

>  <PEOE_VSA_FNEG>
0.41310886

>  <PEOE_VSA_FPNEG>
0.045780629

>  <PEOE_VSA_FPOL>
0.091796935

>  <PEOE_VSA_FPOS>
0.58689117

>  <PEOE_VSA_FPPOS>
0.046016306

>  <PEOE_VSA_HYD>
407.52707

>  <PEOE_VSA_NEG>
185.36938

>  <PEOE_VSA_PNEG>
20.542593

>  <PEOE_VSA_POL>
41.190937

>  <PEOE_VSA_POS>
263.34863

>  <PEOE_VSA_PPOS>
20.648346

>  <petitjean>
0.5

>  <petitjeanSC>
1

>  <Q_PC+>
0

>  <Q_PC->
0

>  <Q_RPC+>
0

>  <Q_RPC->
0

>  <Q_VSA_FHYD>
1

>  <Q_VSA_FNEG>
0

>  <Q_VSA_FPNEG>
0

>  <Q_VSA_FPOL>
0

>  <Q_VSA_FPOS>
1

>  <Q_VSA_FPPOS>
0

>  <Q_VSA_HYD>
448.71802

>  <Q_VSA_NEG>
0

>  <Q_VSA_PNEG>
0

>  <Q_VSA_POL>
0

>  <Q_VSA_POS>
448.71802

>  <Q_VSA_PPOS>
0

>  <radius>
5

>  <reactive>
0

>  <rings>
7

>  <RPC+>
0

>  <RPC->
0

>  <rsynth>
0

>  <SlogP>
4.4137702

>  <SlogP_VSA0>
61.77034

>  <SlogP_VSA1>
3.1243138

>  <SlogP_VSA2>
21.450506

>  <SlogP_VSA3>
36.879158

>  <SlogP_VSA4>
15.192742

>  <SlogP_VSA5>
54.252274

>  <SlogP_VSA6>
0

>  <SlogP_VSA7>
35.286369

>  <SlogP_VSA8>
113.21043

>  <SlogP_VSA9>
143.79091

>  <SMR>
13.01996

>  <SMR_VSA0>
10.999887

>  <SMR_VSA1>
64.894653

>  <SMR_VSA2>
8.8215923

>  <SMR_VSA3>
27.308624

>  <SMR_VSA4>
0

>  <SMR_VSA5>
167.3652

>  <SMR_VSA6>
36.879158

>  <SMR_VSA7>
168.68793

>  <TPSA>
62.16

>  <VAdjEq>
0.36294666

>  <VAdjMa>
6.321928

>  <VDistEq>
3.1431215

>  <VDistMa>
9.9545603

>  <vdw_area>
448.71802

>  <vdw_vol>
663.63464

>  <vsa_acc>
5.0075121

>  <vsa_acid>
0

>  <vsa_base>
0

>  <vsa_don>
0

>  <vsa_hyd>
377.07697

>  <vsa_other>
0

>  <vsa_pol>
32.141354

>  <Weight>
467.64999

>  <weinerPath>
2624

>  <weinerPol>
86

>  <zagreb>
220

$$$$