SC[C@H](C(=O)N1CCC[C@H]1C(O)=O)C
  MOE2013           2D

 14 14  0  0  1  0  0  0  0  0999 V2000
    0.0000    0.0000    0.0000 S   0  0  0  0  0  0  0  0  0  0  0  0
   -1.5000   -0.0020    0.0000 C   0  0  0  0  0  0  0  0  0  0  0  0
   -2.2520    1.2950    0.0000 C   0  0  2  0  0  0  0  0  0  0  0  0
   -3.7520    1.2930    0.0000 C   0  0  0  0  0  0  0  0  0  0  0  0
   -4.5000   -0.0070    0.0000 O   0  0  0  0  0  0  0  0  0  0  0  0
   -4.5040    2.5910    0.0000 N   0  0  0  0  0  0  0  0  0  0  0  0
   -3.8960    3.9620    0.0000 C   0  0  0  0  0  0  0  0  0  0  0  0
   -5.0130    4.9640    0.0000 C   0  0  0  0  0  0  0  0  0  0  0  0
   -6.3110    4.2120    0.0000 C   0  0  0  0  0  0  0  0  0  0  0  0
   -5.9960    2.7450    0.0000 C   0  0  1  0  0  0  0  0  0  0  0  0
   -6.9980    1.6290    0.0000 C   0  0  0  0  0  0  0  0  0  0  0  0
   -6.5320    0.2030    0.0000 O   0  0  0  0  0  0  0  0  0  0  0  0
   -8.4660    1.9380    0.0000 O   0  0  0  0  0  0  0  0  0  0  0  0
   -1.5040    2.5960    0.0000 C   0  0  0  0  0  0  0  0  0  0  0  0
  1  2  1  0  0  0  0
  2  3  1  0  0  0  0
  3  4  1  0  0  0  0
  3 14  1  6  0  0  0
  4  5  2  0  0  0  0
  4  6  1  0  0  0  0
  6  7  1  0  0  0  0
  6 10  1  0  0  0  0
  7  8  1  0  0  0  0
  8  9  1  0  0  0  0
  9 10  1  0  0  0  0
 10 11  1  6  0  0  0
 11 12  1  0  0  0  0
 11 13  2  0  0  0  0
M  END
>  <Index>
1460

>  <ID>
HT0369

>  <class>
1

>  <apol>
32.247894

>  <ast_fraglike>
1

>  <ast_fraglike_ext>
0

>  <ast_violation>
0

>  <ast_violation_ext>
1

>  <a_acc>
3

>  <a_acid>
0

>  <a_aro>
0

>  <a_base>
0

>  <a_count>
29

>  <a_don>
2

>  <a_donacc>
5

>  <a_heavy>
14

>  <a_hyd>
7

>  <a_IC>
48.993877

>  <a_ICM>
1.6894441

>  <a_nB>
0

>  <a_nBr>
0

>  <a_nC>
9

>  <a_nCl>
0

>  <a_nF>
0

>  <a_nH>
15

>  <a_nI>
0

>  <a_nN>
1

>  <a_nO>
3

>  <a_nP>
0

>  <a_nS>
1

>  <balabanJ>
2.579812

>  <BCUT_PEOE_0>
-2.5622227

>  <BCUT_PEOE_1>
-0.52663022

>  <BCUT_PEOE_2>
0.49872395

>  <BCUT_PEOE_3>
2.7318563

>  <BCUT_SLOGP_0>
-2.672914

>  <BCUT_SLOGP_1>
-0.49816832

>  <BCUT_SLOGP_2>
0.47349069

>  <BCUT_SLOGP_3>
2.6964891

>  <BCUT_SMR_0>
-2.3016026

>  <BCUT_SMR_1>
-0.34803894

>  <BCUT_SMR_2>
0.63650364

>  <BCUT_SMR_3>
2.9815142

>  <bpol>
22.574104

>  <b_1rotN>
4

>  <b_1rotR>
0.2857143

>  <b_ar>
0

>  <b_count>
29

>  <b_double>
2

>  <b_heavy>
14

>  <b_max1len>
5

>  <b_rotN>
4

>  <b_rotR>
0.2857143

>  <b_single>
27

>  <b_triple>
0

>  <chi0>
10.715178

>  <chi0v>
9.0356922

>  <chi0v_C>
5.9831276

>  <chi0_C>
6.1378284

>  <chi1>
6.5745859

>  <chi1v>
5.3497691

>  <chi1v_C>
2.9711971

>  <chi1_C>
3.0605135

>  <chiral>
2

>  <chiral_u>
0

>  <density>
0.804874

>  <diameter>
7

>  <FCharge>
0

>  <GCUT_PEOE_0>
-0.83855218

>  <GCUT_PEOE_1>
-0.4386147

>  <GCUT_PEOE_2>
0.058654245

>  <GCUT_PEOE_3>
2.5240421

>  <GCUT_SLOGP_0>
-0.9778561

>  <GCUT_SLOGP_1>
-0.39195251

>  <GCUT_SLOGP_2>
0.044779342

>  <GCUT_SLOGP_3>
2.4919958

>  <GCUT_SMR_0>
-0.52482486

>  <GCUT_SMR_1>
-0.18862161

>  <GCUT_SMR_2>
0.16837616

>  <GCUT_SMR_3>
2.7591927

>  <Kier1>
12.071428

>  <Kier2>
5.1855955

>  <Kier3>
2.75

>  <KierA1>
11.351971

>  <KierA2>
4.8519602

>  <KierA3>
2.5631454

>  <KierFlex>
3.9342365

>  <lip_acc>
4

>  <lip_don>
1

>  <lip_druglike>
1

>  <lip_violation>
0

>  <logP(o/w)>
0.68099999

>  <logS>
-1.27749

>  <mr>
5.6065035

>  <mutagenic>
0

>  <nmol>
1

>  <opr_brigid>
5

>  <opr_leadlike>
1

>  <opr_nring>
1

>  <opr_nrot>
4

>  <opr_violation>
0

>  <PC+>
0

>  <PC->
0

>  <PEOE_PC+>
1.4801316

>  <PEOE_PC->
-1.4801316

>  <PEOE_RPC+>
0.19078532

>  <PEOE_RPC->
0.22282389

>  <PEOE_VSA+0>
75.054329

>  <PEOE_VSA+1>
4.2653861

>  <PEOE_VSA+2>
10.927058

>  <PEOE_VSA+3>
0

>  <PEOE_VSA+4>
23.273705

>  <PEOE_VSA+5>
14.708499

>  <PEOE_VSA+6>
0

>  <PEOE_VSA-0>
17.402626

>  <PEOE_VSA-1>
18.747677

>  <PEOE_VSA-2>
0

>  <PEOE_VSA-3>
26.362989

>  <PEOE_VSA-4>
0

>  <PEOE_VSA-5>
27.133842

>  <PEOE_VSA-6>
7.7675405

>  <PEOE_VSA_FHYD>
0.67699695

>  <PEOE_VSA_FNEG>
0.43171909

>  <PEOE_VSA_FPNEG>
0.15467478

>  <PEOE_VSA_FPOL>
0.32300302

>  <PEOE_VSA_FPOS>
0.56828088

>  <PEOE_VSA_FPPOS>
0.16832826

>  <PEOE_VSA_HYD>
152.76007

>  <PEOE_VSA_NEG>
97.414673

>  <PEOE_VSA_PNEG>
34.901382

>  <PEOE_VSA_POL>
72.883583

>  <PEOE_VSA_POS>
128.22897

>  <PEOE_VSA_PPOS>
37.982204

>  <petitjean>
0.42857143

>  <petitjeanSC>
0.75

>  <Q_PC+>
0

>  <Q_PC->
0

>  <Q_RPC+>
0

>  <Q_RPC->
0

>  <Q_VSA_FHYD>
1

>  <Q_VSA_FNEG>
0

>  <Q_VSA_FPNEG>
0

>  <Q_VSA_FPOL>
0

>  <Q_VSA_FPOS>
1

>  <Q_VSA_FPPOS>
0

>  <Q_VSA_HYD>
225.64365

>  <Q_VSA_NEG>
0

>  <Q_VSA_PNEG>
0

>  <Q_VSA_POL>
0

>  <Q_VSA_POS>
225.64365

>  <Q_VSA_PPOS>
0

>  <radius>
4

>  <reactive>
1

>  <rings>
1

>  <RPC+>
0

>  <RPC->
0

>  <rsynth>
1

>  <SlogP>
0.6279

>  <SlogP_VSA0>
0

>  <SlogP_VSA1>
16.128561

>  <SlogP_VSA2>
51.706402

>  <SlogP_VSA3>
61.058369

>  <SlogP_VSA4>
4.4107962

>  <SlogP_VSA5>
0

>  <SlogP_VSA6>
0

>  <SlogP_VSA7>
0

>  <SlogP_VSA8>
83.843925

>  <SlogP_VSA9>
33.326015

>  <SMR>
5.5388799

>  <SMR_VSA0>
47.724434

>  <SMR_VSA1>
3.1243138

>  <SMR_VSA2>
29.796022

>  <SMR_VSA3>
3.9819686

>  <SMR_VSA4>
0

>  <SMR_VSA5>
37.736813

>  <SMR_VSA6>
48.677391

>  <SMR_VSA7>
79.433128

>  <TPSA>
96.410004

>  <VAdjEq>
0.59167278

>  <VAdjMa>
4.8073549

>  <VDistEq>
2.6126969

>  <VDistMa>
7.33038

>  <vdw_area>
225.64365

>  <vdw_vol>
269.96646

>  <vsa_acc>
13.566921

>  <vsa_acid>
0

>  <vsa_base>
0

>  <vsa_don>
0

>  <vsa_hyd>
108.01759

>  <vsa_other>
59.042542

>  <vsa_pol>
40.700764

>  <Weight>
217.289

>  <weinerPath>
297

>  <weinerPol>
19

>  <zagreb>
66

$$$$