Clc1cc2NC(NS(=O)(=O)c2cc1S(=O)(=O)N)C(C)c1ccccc1
  MOE2013           2D

 25 27  0  0  1  0  0  0  0  0999 V2000
    0.0000    0.0000    0.0000 Cl  0  0  0  0  0  0  0  0  0  0  0  0
   -1.3020   -0.7450    0.0000 C   0  0  0  0  0  0  0  0  0  0  0  0
   -2.5980    0.0100    0.0000 C   0  0  0  0  0  0  0  0  0  0  0  0
   -3.9000   -0.7350    0.0000 C   0  0  0  0  0  0  0  0  0  0  0  0
   -5.1960    0.0200    0.0000 N   0  0  0  0  0  0  0  0  0  0  0  0
   -6.4980   -0.7260    0.0000 C   0  0  3  0  0  0  0  0  0  0  0  0
   -6.5040   -2.2260    0.0000 N   0  0  0  0  0  0  0  0  0  0  0  0
   -5.2070   -2.9800    0.0000 S   0  0  0  0  0  0  0  0  0  0  0  0
   -4.4620   -4.2820    0.0000 O   0  0  0  0  0  0  0  0  0  0  0  0
   -5.9620   -4.2770    0.0000 O   0  0  0  0  0  0  0  0  0  0  0  0
   -3.9060   -2.2350    0.0000 C   0  0  0  0  0  0  0  0  0  0  0  0
   -2.6090   -2.9900    0.0000 C   0  0  0  0  0  0  0  0  0  0  0  0
   -1.3080   -2.2450    0.0000 C   0  0  0  0  0  0  0  0  0  0  0  0
   -0.0110   -3.0000    0.0000 S   0  0  0  0  0  0  0  0  0  0  0  0
    0.7440   -1.7040    0.0000 O   0  0  0  0  0  0  0  0  0  0  0  0
   -0.7660   -4.2960    0.0000 O   0  0  0  0  0  0  0  0  0  0  0  0
    1.2850   -3.7550    0.0000 N   0  0  0  0  0  0  0  0  0  0  0  0
   -7.7940    0.0290    0.0000 C   0  0  3  0  0  0  0  0  0  0  0  0
   -7.7890    1.5290    0.0000 C   0  0  0  0  0  0  0  0  0  0  0  0
   -9.0960   -0.7160    0.0000 C   0  0  0  0  0  0  0  0  0  0  0  0
  -10.3920    0.0390    0.0000 C   0  0  0  0  0  0  0  0  0  0  0  0
  -11.6940   -0.7060    0.0000 C   0  0  0  0  0  0  0  0  0  0  0  0
  -11.7000   -2.2060    0.0000 C   0  0  0  0  0  0  0  0  0  0  0  0
  -10.4040   -2.9610    0.0000 C   0  0  0  0  0  0  0  0  0  0  0  0
   -9.1020   -2.2160    0.0000 C   0  0  0  0  0  0  0  0  0  0  0  0
  1  2  1  0  0  0  0
  2  3  1  0  0  0  0
  2 13  2  0  0  0  0
  3  4  2  0  0  0  0
  4  5  1  0  0  0  0
  4 11  1  0  0  0  0
  5  6  1  0  0  0  0
  6  7  1  0  0  0  0
  6 18  1  0  0  0  0
  7  8  1  0  0  0  0
  8  9  2  0  0  0  0
  8 10  2  0  0  0  0
  8 11  1  0  0  0  0
 11 12  2  0  0  0  0
 12 13  1  0  0  0  0
 13 14  1  0  0  0  0
 14 15  2  0  0  0  0
 14 16  2  0  0  0  0
 14 17  1  0  0  0  0
 18 19  1  0  0  0  0
 18 20  1  0  0  0  0
 20 21  1  0  0  0  0
 20 25  2  0  0  0  0
 21 22  2  0  0  0  0
 22 23  1  0  0  0  0
 23 24  2  0  0  0  0
 24 25  1  0  0  0  0
M  END
>  <Index>
1447

>  <ID>
HT0232

>  <class>
1

>  <apol>
51.556686

>  <ast_fraglike>
0

>  <ast_fraglike_ext>
0

>  <ast_violation>
2

>  <ast_violation_ext>
3

>  <a_acc>
4

>  <a_acid>
0

>  <a_aro>
12

>  <a_base>
0

>  <a_count>
41

>  <a_don>
3

>  <a_donacc>
7

>  <a_heavy>
25

>  <a_hyd>
15

>  <a_IC>
82.301384

>  <a_ICM>
2.0073509

>  <a_nB>
0

>  <a_nBr>
0

>  <a_nC>
15

>  <a_nCl>
1

>  <a_nF>
0

>  <a_nH>
16

>  <a_nI>
0

>  <a_nN>
3

>  <a_nO>
4

>  <a_nP>
0

>  <a_nS>
2

>  <balabanJ>
1.7251757

>  <BCUT_PEOE_0>
-2.6767478

>  <BCUT_PEOE_1>
-0.60693175

>  <BCUT_PEOE_2>
0.65844566

>  <BCUT_PEOE_3>
2.634038

>  <BCUT_SLOGP_0>
-2.7925339

>  <BCUT_SLOGP_1>
-0.50804216

>  <BCUT_SLOGP_2>
0.76164389

>  <BCUT_SLOGP_3>
2.6331062

>  <BCUT_SMR_0>
-2.3678896

>  <BCUT_SMR_1>
-0.4604646

>  <BCUT_SMR_2>
0.80768639

>  <BCUT_SMR_3>
2.9483259

>  <bpol>
31.523312

>  <b_1rotN>
3

>  <b_1rotR>
0.11111111

>  <b_ar>
12

>  <b_count>
43

>  <b_double>
0

>  <b_heavy>
27

>  <b_max1len>
4

>  <b_rotN>
3

>  <b_rotR>
0.11111111

>  <b_single>
31

>  <b_triple>
0

>  <chi0>
18.405413

>  <chi0v>
15.489879

>  <chi0v_C>
8.6961527

>  <chi0_C>
9.9911995

>  <chi1>
11.593172

>  <chi1v>
10.703264

>  <chi1v_C>
4.7647429

>  <chi1_C>
6.3601732

>  <chiral>
2

>  <chiral_u>
2

>  <density>
0.90569842

>  <diameter>
12

>  <FCharge>
0

>  <GCUT_PEOE_0>
-0.88693827

>  <GCUT_PEOE_1>
-0.3944937

>  <GCUT_PEOE_2>
0.072369337

>  <GCUT_PEOE_3>
2.7112734

>  <GCUT_SLOGP_0>
-1.348287

>  <GCUT_SLOGP_1>
-0.41954592

>  <GCUT_SLOGP_2>
0.15585257

>  <GCUT_SLOGP_3>
2.751158

>  <GCUT_SMR_0>
-0.51247567

>  <GCUT_SMR_1>
-0.18290684

>  <GCUT_SMR_2>
0.18156795

>  <GCUT_SMR_3>
2.9939587

>  <Kier1>
19.753086

>  <Kier2>
7.197279

>  <Kier3>
4.1352797

>  <KierA1>
19.092773

>  <KierA2>
6.9464879

>  <KierA3>
3.9868095

>  <KierFlex>
5.305109

>  <lip_acc>
7

>  <lip_don>
4

>  <lip_druglike>
1

>  <lip_violation>
0

>  <logP(o/w)>
1.83

>  <logS>
-4.0409298

>  <mr>
9.7021914

>  <mutagenic>
0

>  <nmol>
1

>  <opr_brigid>
17

>  <opr_leadlike>
1

>  <opr_nring>
3

>  <opr_nrot>
3

>  <opr_violation>
0

>  <PC+>
0

>  <PC->
0

>  <PEOE_PC+>
1.9397635

>  <PEOE_PC->
-1.9397635

>  <PEOE_RPC+>
0.15968351

>  <PEOE_RPC->
0.19729632

>  <PEOE_VSA+0>
63.007088

>  <PEOE_VSA+1>
38.476715

>  <PEOE_VSA+2>
26.880259

>  <PEOE_VSA+3>
0

>  <PEOE_VSA+4>
0

>  <PEOE_VSA+5>
0

>  <PEOE_VSA+6>
8.3692026

>  <PEOE_VSA-0>
23.082457

>  <PEOE_VSA-1>
109.60414

>  <PEOE_VSA-2>
34.546043

>  <PEOE_VSA-3>
9.0437498

>  <PEOE_VSA-4>
32.016521

>  <PEOE_VSA-5>
0

>  <PEOE_VSA-6>
0.13689101

>  <PEOE_VSA_FHYD>
0.88259864

>  <PEOE_VSA_FNEG>
0.60385895

>  <PEOE_VSA_FPNEG>
0.093154274

>  <PEOE_VSA_FPOL>
0.11740137

>  <PEOE_VSA_FPOS>
0.39614105

>  <PEOE_VSA_FPPOS>
0.024247097

>  <PEOE_VSA_HYD>
304.64044

>  <PEOE_VSA_NEG>
208.42981

>  <PEOE_VSA_PNEG>
32.153416

>  <PEOE_VSA_POL>
40.522617

>  <PEOE_VSA_POS>
136.73326

>  <PEOE_VSA_PPOS>
8.3692026

>  <petitjean>
0.5

>  <petitjeanSC>
1

>  <Q_PC+>
0

>  <Q_PC->
0

>  <Q_RPC+>
0

>  <Q_RPC->
0

>  <Q_VSA_FHYD>
1

>  <Q_VSA_FNEG>
0

>  <Q_VSA_FPNEG>
0

>  <Q_VSA_FPOL>
0

>  <Q_VSA_FPOS>
1

>  <Q_VSA_FPPOS>
0

>  <Q_VSA_HYD>
345.16309

>  <Q_VSA_NEG>
0

>  <Q_VSA_PNEG>
0

>  <Q_VSA_POL>
0

>  <Q_VSA_POS>
345.16309

>  <Q_VSA_PPOS>
0

>  <radius>
6

>  <reactive>
0

>  <rings>
3

>  <RPC+>
0

>  <RPC->
0

>  <rsynth>
1

>  <SlogP>
1.821

>  <SlogP_VSA0>
47.69643

>  <SlogP_VSA1>
114.35413

>  <SlogP_VSA2>
16.834627

>  <SlogP_VSA3>
0

>  <SlogP_VSA4>
3.185575

>  <SlogP_VSA5>
3.1014678

>  <SlogP_VSA6>
7.9114027

>  <SlogP_VSA7>
123.50229

>  <SlogP_VSA8>
0

>  <SlogP_VSA9>
75.231407

>  <SMR>
9.54144

>  <SMR_VSA0>
96.343376

>  <SMR_VSA1>
0

>  <SMR_VSA2>
19.506466

>  <SMR_VSA3>
14.650119

>  <SMR_VSA4>
52.058933

>  <SMR_VSA5>
123.50229

>  <SMR_VSA6>
0

>  <SMR_VSA7>
85.756142

>  <TPSA>
118.36

>  <VAdjEq>
0.42433795

>  <VAdjMa>
5.7548876

>  <VDistEq>
3.3211215

>  <VDistMa>
8.9997587

>  <vdw_area>
345.16309

>  <vdw_vol>
443.74042

>  <vsa_acc>
64.033043

>  <vsa_acid>
0

>  <vsa_base>
0

>  <vsa_don>
33.892902

>  <vsa_hyd>
193.65544

>  <vsa_other>
31.401779

>  <vsa_pol>
97.925949

>  <Weight>
401.89499

>  <weinerPath>
1436

>  <weinerPol>
44

>  <zagreb>
138

$$$$