ClCC(O)Cn1c(ncc1[N+](=O)[O-])C
  MOE2013           2D

 14 14  0  0  1  0  0  0  0  0999 V2000
    0.0000    0.0000    0.0000 Cl  0  0  0  0  0  0  0  0  0  0  0  0
   -1.3030   -0.7430    0.0000 C   0  0  0  0  0  0  0  0  0  0  0  0
   -2.5980    0.0140    0.0000 C   0  0  3  0  0  0  0  0  0  0  0  0
   -2.5900    1.5140    0.0000 O   0  0  0  0  0  0  0  0  0  0  0  0
   -3.9010   -0.7290    0.0000 C   0  0  0  0  0  0  0  0  0  0  0  0
   -5.1960    0.0280    0.0000 N   0  0  0  0  0  0  0  0  0  0  0  0
   -5.3450    1.5210    0.0000 C   0  0  0  0  0  0  0  0  0  0  0  0
   -6.8100    1.8410    0.0000 N   0  0  0  0  0  0  0  0  0  0  0  0
   -7.5670    0.5460    0.0000 C   0  0  0  0  0  0  0  0  0  0  0  0
   -6.5700   -0.5740    0.0000 C   0  0  0  0  0  0  0  0  0  0  0  0
   -6.8900   -2.0400    0.0000 N   0  3  0  0  0  0  0  0  0  0  0  0
   -5.7800   -3.0490    0.0000 O   0  0  0  0  0  0  0  0  0  0  0  0
   -8.3190   -2.4950    0.0000 O   0  5  0  0  0  0  0  0  0  0  0  0
   -4.2240    2.5190    0.0000 C   0  0  0  0  0  0  0  0  0  0  0  0
  1  2  1  0  0  0  0
  2  3  1  0  0  0  0
  3  4  1  0  0  0  0
  3  5  1  0  0  0  0
  5  6  1  0  0  0  0
  6  7  1  0  0  0  0
  6 10  1  0  0  0  0
  7  8  2  0  0  0  0
  7 14  1  0  0  0  0
  8  9  1  0  0  0  0
  9 10  2  0  0  0  0
 10 11  1  0  0  0  0
 11 12  2  0  0  0  0
 11 13  1  0  0  0  0
M  CHG  1  11   1
M  CHG  1  13  -1
M  END
>  <Index>
1677

>  <ID>
HT1544

>  <class>
1

>  <apol>
26.87393

>  <ast_fraglike>
1

>  <ast_fraglike_ext>
0

>  <ast_violation>
0

>  <ast_violation_ext>
1

>  <a_acc>
2

>  <a_acid>
0

>  <a_aro>
5

>  <a_base>
0

>  <a_count>
24

>  <a_don>
1

>  <a_donacc>
3

>  <a_heavy>
14

>  <a_hyd>
7

>  <a_IC>
47.658558

>  <a_ICM>
1.9857733

>  <a_nB>
0

>  <a_nBr>
0

>  <a_nC>
7

>  <a_nCl>
1

>  <a_nF>
0

>  <a_nH>
10

>  <a_nI>
0

>  <a_nN>
3

>  <a_nO>
3

>  <a_nP>
0

>  <a_nS>
0

>  <balabanJ>
2.5476799

>  <BCUT_PEOE_0>
-2.4876058

>  <BCUT_PEOE_1>
-0.42279494

>  <BCUT_PEOE_2>
0.41489467

>  <BCUT_PEOE_3>
2.5643873

>  <BCUT_SLOGP_0>
-2.5751534

>  <BCUT_SLOGP_1>
-0.32957882

>  <BCUT_SLOGP_2>
0.47345531

>  <BCUT_SLOGP_3>
2.5184057

>  <BCUT_SMR_0>
-2.2773452

>  <BCUT_SMR_1>
-0.14246716

>  <BCUT_SMR_2>
0.65999782

>  <BCUT_SMR_3>
2.7680786

>  <bpol>
15.90807

>  <b_1rotN>
4

>  <b_1rotR>
0.2857143

>  <b_ar>
5

>  <b_count>
24

>  <b_double>
1

>  <b_heavy>
14

>  <b_max1len>
4

>  <b_rotN>
4

>  <b_rotR>
0.2857143

>  <b_single>
18

>  <b_triple>
0

>  <chi0>
10.715178

>  <chi0v>
8.3081589

>  <chi0v_C>
4.5689139

>  <chi0_C>
4.8533711

>  <chi1>
6.5577493

>  <chi1v>
4.4991565

>  <chi1v_C>
1.6051717

>  <chi1_C>
1.8020952

>  <chiral>
1

>  <chiral_u>
1

>  <density>
0.91193432

>  <diameter>
7

>  <FCharge>
0

>  <GCUT_PEOE_0>
-0.80667168

>  <GCUT_PEOE_1>
-0.38396353

>  <GCUT_PEOE_2>
-0.0068770954

>  <GCUT_PEOE_3>
2.338788

>  <GCUT_SLOGP_0>
-0.90097123

>  <GCUT_SLOGP_1>
-0.29548484

>  <GCUT_SLOGP_2>
0.089870282

>  <GCUT_SLOGP_3>
2.3366537

>  <GCUT_SMR_0>
-0.51534343

>  <GCUT_SMR_1>
-0.14235702

>  <GCUT_SMR_2>
0.23082286

>  <GCUT_SMR_3>
2.5403755

>  <Kier1>
12.071428

>  <Kier2>
5.1855955

>  <Kier3>
2.994329

>  <KierA1>
10.47719

>  <KierA2>
4.4478807

>  <KierA3>
2.5451953

>  <KierFlex>
3.3286638

>  <lip_acc>
6

>  <lip_don>
1

>  <lip_druglike>
1

>  <lip_violation>
0

>  <logP(o/w)>
0.68400002

>  <logS>
-1.5396301

>  <mr>
5.0429225

>  <mutagenic>
1

>  <nmol>
1

>  <opr_brigid>
5

>  <opr_leadlike>
1

>  <opr_nring>
1

>  <opr_nrot>
4

>  <opr_violation>
0

>  <PC+>
0

>  <PC->
0

>  <PEOE_PC+>
1.7061116

>  <PEOE_PC->
-1.7061116

>  <PEOE_RPC+>
0.17647596

>  <PEOE_RPC->
0.22982197

>  <PEOE_VSA+0>
40.074608

>  <PEOE_VSA+1>
41.905933

>  <PEOE_VSA+2>
4.2653861

>  <PEOE_VSA+3>
16.745916

>  <PEOE_VSA+4>
21.514736

>  <PEOE_VSA+5>
0

>  <PEOE_VSA+6>
11.190562

>  <PEOE_VSA-0>
0

>  <PEOE_VSA-1>
4.0280342

>  <PEOE_VSA-2>
35.264523

>  <PEOE_VSA-3>
0

>  <PEOE_VSA-4>
0

>  <PEOE_VSA-5>
0

>  <PEOE_VSA-6>
41.698589

>  <PEOE_VSA_FHYD>
0.65663171

>  <PEOE_VSA_FNEG>
0.373768

>  <PEOE_VSA_FPNEG>
0.19243583

>  <PEOE_VSA_FPOL>
0.34336829

>  <PEOE_VSA_FPOS>
0.62623203

>  <PEOE_VSA_FPPOS>
0.15093248

>  <PEOE_VSA_HYD>
142.28439

>  <PEOE_VSA_NEG>
80.991142

>  <PEOE_VSA_PNEG>
41.698589

>  <PEOE_VSA_POL>
74.403885

>  <PEOE_VSA_POS>
135.69714

>  <PEOE_VSA_PPOS>
32.705299

>  <petitjean>
0.42857143

>  <petitjeanSC>
0.75

>  <Q_PC+>
0

>  <Q_PC->
0

>  <Q_RPC+>
0

>  <Q_RPC->
0

>  <Q_VSA_FHYD>
1

>  <Q_VSA_FNEG>
0

>  <Q_VSA_FPNEG>
0

>  <Q_VSA_FPOL>
0

>  <Q_VSA_FPOS>
1

>  <Q_VSA_FPPOS>
0

>  <Q_VSA_HYD>
216.68828

>  <Q_VSA_NEG>
0

>  <Q_VSA_PNEG>
0

>  <Q_VSA_POL>
0

>  <Q_VSA_POS>
216.68828

>  <Q_VSA_PPOS>
0

>  <radius>
4

>  <reactive>
1

>  <rings>
1

>  <RPC+>
0

>  <RPC->
0

>  <rsynth>
1

>  <SlogP>
0.96582001

>  <SlogP_VSA0>
25.385227

>  <SlogP_VSA1>
25.770239

>  <SlogP_VSA2>
6.4686494

>  <SlogP_VSA3>
70.118446

>  <SlogP_VSA4>
2.3279202

>  <SlogP_VSA5>
0

>  <SlogP_VSA6>
0

>  <SlogP_VSA7>
17.214357

>  <SlogP_VSA8>
0

>  <SlogP_VSA9>
93.242157

>  <SMR>
5.0550199

>  <SMR_VSA0>
7.0856161

>  <SMR_VSA1>
44.069847

>  <SMR_VSA2>
50.935009

>  <SMR_VSA3>
8.7965698

>  <SMR_VSA4>
2.3279202

>  <SMR_VSA5>
35.653934

>  <SMR_VSA6>
19.183437

>  <SMR_VSA7>
72.474655

>  <TPSA>
83.870003

>  <VAdjEq>
0.59167278

>  <VAdjMa>
4.8073549

>  <VDistEq>
2.6355395

>  <VDistMa>
7.3261395

>  <vdw_area>
216.68828

>  <vdw_vol>
240.83752

>  <vsa_acc>
5.6825762

>  <vsa_acid>
0

>  <vsa_base>
0

>  <vsa_don>
0

>  <vsa_hyd>
130.19566

>  <vsa_other>
56.312172

>  <vsa_pol>
19.249496

>  <Weight>
219.62799

>  <weinerPath>
302

>  <weinerPol>
18

>  <zagreb>
66

$$$$