O=C1CC[C@@H]2[C@@H]3[C@H]([C@@H]4CC[C@H](OC(=O)CCCCCCCCC)[C@]4(CC3)C)CCC2=C1
  MOE2013           2D

 31 34  0  0  1  0  0  0  0  0999 V2000
    0.0000    0.0000    0.0000 O   0  0  0  0  0  0  0  0  0  0  0  0
    1.5000    0.0070    0.0000 C   0  0  0  0  0  0  0  0  0  0  0  0
    2.2440    1.3100    0.0000 C   0  0  0  0  0  0  0  0  0  0  0  0
    3.7440    1.3170    0.0000 C   0  0  0  0  0  0  0  0  0  0  0  0
    4.5000    0.0210    0.0000 C   0  0  2  0  0  0  0  0  0  0  0  0
    6.0000    0.0290    0.0000 C   0  0  2  0  0  0  0  0  0  0  0  0
    6.7560   -1.2670    0.0000 C   0  0  2  0  0  0  0  0  0  0  0  0
    8.2560   -1.2600    0.0000 C   0  0  2  0  0  0  0  0  0  0  0  0
    9.2650   -2.3700    0.0000 C   0  0  0  0  0  0  0  0  0  0  0  0
   10.6320   -1.7530    0.0000 C   0  0  0  0  0  0  0  0  0  0  0  0
   10.4690   -0.2620    0.0000 C   0  0  2  0  0  0  0  0  0  0  0  0
   11.5790    0.7470    0.0000 O   0  0  0  0  0  0  0  0  0  0  0  0
   13.0070    0.2900    0.0000 C   0  0  0  0  0  0  0  0  0  0  0  0
   13.3260   -1.1750    0.0000 O   0  0  0  0  0  0  0  0  0  0  0  0
   14.1170    1.2990    0.0000 C   0  0  0  0  0  0  0  0  0  0  0  0
   15.5460    0.8430    0.0000 C   0  0  0  0  0  0  0  0  0  0  0  0
   16.6560    1.8520    0.0000 C   0  0  0  0  0  0  0  0  0  0  0  0
   18.0850    1.3950    0.0000 C   0  0  0  0  0  0  0  0  0  0  0  0
   19.1950    2.4040    0.0000 C   0  0  0  0  0  0  0  0  0  0  0  0
   20.6230    1.9470    0.0000 C   0  0  0  0  0  0  0  0  0  0  0  0
   21.7330    2.9560    0.0000 C   0  0  0  0  0  0  0  0  0  0  0  0
   23.1620    2.4990    0.0000 C   0  0  0  0  0  0  0  0  0  0  0  0
   24.2720    3.5080    0.0000 C   0  0  0  0  0  0  0  0  0  0  0  0
    9.0000    0.0430    0.0000 C   0  0  1  0  0  0  0  0  0  0  0  0
    8.2440    1.3380    0.0000 C   0  0  0  0  0  0  0  0  0  0  0  0
    6.7440    1.3310    0.0000 C   0  0  0  0  0  0  0  0  0  0  0  0
    9.8760    1.2610    0.0000 C   0  0  0  0  0  0  0  0  0  0  0  0
    6.0120   -2.5690    0.0000 C   0  0  0  0  0  0  0  0  0  0  0  0
    4.5120   -2.5770    0.0000 C   0  0  0  0  0  0  0  0  0  0  0  0
    3.7560   -1.2810    0.0000 C   0  0  0  0  0  0  0  0  0  0  0  0
    2.2560   -1.2880    0.0000 C   0  0  0  0  0  0  0  0  0  0  0  0
  1  2  2  0  0  0  0
  2  3  1  0  0  0  0
  2 31  1  0  0  0  0
  3  4  1  0  0  0  0
  5  4  1  6  0  0  0
  5  6  1  0  0  0  0
  5 30  1  0  0  0  0
  6  7  1  0  0  0  0
  6 26  1  1  0  0  0
  7  8  1  0  0  0  0
  7 28  1  6  0  0  0
  8  9  1  1  0  0  0
  8 24  1  0  0  0  0
  9 10  1  0  0  0  0
 10 11  1  0  0  0  0
 11 12  1  1  0  0  0
 11 24  1  0  0  0  0
 12 13  1  0  0  0  0
 13 14  2  0  0  0  0
 13 15  1  0  0  0  0
 15 16  1  0  0  0  0
 16 17  1  0  0  0  0
 17 18  1  0  0  0  0
 18 19  1  0  0  0  0
 19 20  1  0  0  0  0
 20 21  1  0  0  0  0
 21 22  1  0  0  0  0
 22 23  1  0  0  0  0
 24 25  1  0  0  0  0
 24 27  1  1  0  0  0
 25 26  1  0  0  0  0
 28 29  1  0  0  0  0
 29 30  1  0  0  0  0
 30 31  2  0  0  0  0
M  END
>  <Index>
1665

>  <ID>
HT1461

>  <class>
1

>  <apol>
81.024895

>  <ast_fraglike>
0

>  <ast_fraglike_ext>
0

>  <ast_violation>
2

>  <ast_violation_ext>
3

>  <a_acc>
2

>  <a_acid>
0

>  <a_aro>
0

>  <a_base>
0

>  <a_count>
75

>  <a_don>
0

>  <a_donacc>
2

>  <a_heavy>
31

>  <a_hyd>
26

>  <a_IC>
87.585587

>  <a_ICM>
1.1678078

>  <a_nB>
0

>  <a_nBr>
0

>  <a_nC>
28

>  <a_nCl>
0

>  <a_nF>
0

>  <a_nH>
44

>  <a_nI>
0

>  <a_nN>
0

>  <a_nO>
3

>  <a_nP>
0

>  <a_nS>
0

>  <balabanJ>
1.2489032

>  <BCUT_PEOE_0>
-2.9294903

>  <BCUT_PEOE_1>
-0.48780096

>  <BCUT_PEOE_2>
0.41938379

>  <BCUT_PEOE_3>
2.9496598

>  <BCUT_SLOGP_0>
-2.8501794

>  <BCUT_SLOGP_1>
-0.41000226

>  <BCUT_SLOGP_2>
0.42985576

>  <BCUT_SLOGP_3>
3.0248928

>  <BCUT_SMR_0>
-2.6745827

>  <BCUT_SMR_1>
-0.32358077

>  <BCUT_SMR_2>
0.59443903

>  <BCUT_SMR_3>
3.2013078

>  <bpol>
51.933109

>  <b_1rotN>
9

>  <b_1rotR>
0.2647059

>  <b_ar>
0

>  <b_count>
78

>  <b_double>
3

>  <b_heavy>
34

>  <b_max1len>
10

>  <b_rotN>
10

>  <b_rotR>
0.29411766

>  <b_single>
75

>  <b_triple>
0

>  <chi0>
21.846724

>  <chi0v>
20.002556

>  <chi0v_C>
18.777811

>  <chi0_C>
19.139618

>  <chi1>
15.025023

>  <chi1v>
13.454012

>  <chi1v_C>
12.605937

>  <chi1_C>
13.053826

>  <chiral>
6

>  <chiral_u>
0

>  <density>
0.66003478

>  <diameter>
20

>  <FCharge>
0

>  <GCUT_PEOE_0>
-0.80272818

>  <GCUT_PEOE_1>
-0.39229667

>  <GCUT_PEOE_2>
0.0068290983

>  <GCUT_PEOE_3>
3.2891932

>  <GCUT_SLOGP_0>
-0.85167569

>  <GCUT_SLOGP_1>
-0.28157812

>  <GCUT_SLOGP_2>
0.026670389

>  <GCUT_SLOGP_3>
3.3735013

>  <GCUT_SMR_0>
-0.53793204

>  <GCUT_SMR_1>
-0.21191959

>  <GCUT_SMR_2>
0.12736532

>  <GCUT_SMR_3>
3.513098

>  <Kier1>
24.134949

>  <Kier2>
10.950521

>  <Kier3>
5.3994489

>  <KierA1>
22.139332

>  <KierA2>
10.0151

>  <KierA3>
4.9274402

>  <KierFlex>
7.1525035

>  <lip_acc>
3

>  <lip_don>
0

>  <lip_druglike>
1

>  <lip_violation>
1

>  <logP(o/w)>
6.9039998

>  <logS>
-8.3752298

>  <mr>
12.649731

>  <mutagenic>
0

>  <nmol>
1

>  <opr_brigid>
20

>  <opr_leadlike>
1

>  <opr_nring>
4

>  <opr_nrot>
9

>  <opr_violation>
1

>  <PC+>
0

>  <PC->
0

>  <PEOE_PC+>
1.8341209

>  <PEOE_PC->
-1.8341209

>  <PEOE_RPC+>
0.14308284

>  <PEOE_RPC->
0.16973931

>  <PEOE_VSA+0>
196.54884

>  <PEOE_VSA+1>
13.4357

>  <PEOE_VSA+2>
0

>  <PEOE_VSA+3>
8.458519

>  <PEOE_VSA+4>
0

>  <PEOE_VSA+5>
14.708499

>  <PEOE_VSA+6>
0

>  <PEOE_VSA-0>
81.86541

>  <PEOE_VSA-1>
91.911774

>  <PEOE_VSA-2>
0

>  <PEOE_VSA-3>
0

>  <PEOE_VSA-4>
0

>  <PEOE_VSA-5>
27.133842

>  <PEOE_VSA-6>
2.503756

>  <PEOE_VSA_FHYD>
0.89842069

>  <PEOE_VSA_FNEG>
0.46594244

>  <PEOE_VSA_FPNEG>
0.067887962

>  <PEOE_VSA_FPOL>
0.10157929

>  <PEOE_VSA_FPOS>
0.53405756

>  <PEOE_VSA_FPPOS>
0.033691328

>  <PEOE_VSA_HYD>
392.22025

>  <PEOE_VSA_NEG>
203.41478

>  <PEOE_VSA_PNEG>
29.637598

>  <PEOE_VSA_POL>
44.346096

>  <PEOE_VSA_POS>
233.15157

>  <PEOE_VSA_PPOS>
14.708499

>  <petitjean>
0.5

>  <petitjeanSC>
1

>  <Q_PC+>
0

>  <Q_PC->
0

>  <Q_RPC+>
0

>  <Q_RPC->
0

>  <Q_VSA_FHYD>
1

>  <Q_VSA_FNEG>
0

>  <Q_VSA_FPNEG>
0

>  <Q_VSA_FPOL>
0

>  <Q_VSA_FPOS>
1

>  <Q_VSA_FPPOS>
0

>  <Q_VSA_HYD>
436.56635

>  <Q_VSA_NEG>
0

>  <Q_VSA_PNEG>
0

>  <Q_VSA_POL>
0

>  <Q_VSA_POS>
436.56635

>  <Q_VSA_PPOS>
0

>  <radius>
10

>  <reactive>
1

>  <rings>
4

>  <RPC+>
0

>  <RPC->
0

>  <rsynth>
1

>  <SlogP>
7.1806998

>  <SlogP_VSA0>
0

>  <SlogP_VSA1>
13.433075

>  <SlogP_VSA2>
65.19297

>  <SlogP_VSA3>
0

>  <SlogP_VSA4>
17.643185

>  <SlogP_VSA5>
3.185575

>  <SlogP_VSA6>
0

>  <SlogP_VSA7>
17.643185

>  <SlogP_VSA8>
301.8945

>  <SlogP_VSA9>
66.652031

>  <SMR>
12.4583

>  <SMR_VSA0>
58.724319

>  <SMR_VSA1>
0

>  <SMR_VSA2>
17.643185

>  <SMR_VSA3>
9.6542244

>  <SMR_VSA4>
0

>  <SMR_VSA5>
319.53766

>  <SMR_VSA6>
13.433075

>  <SMR_VSA7>
66.652031

>  <TPSA>
43.369999

>  <VAdjEq>
0.36875206

>  <VAdjMa>
6.0874629

>  <VDistEq>
3.9529152

>  <VDistMa>
9.5569382

>  <vdw_area>
436.56635

>  <vdw_vol>
649.44604

>  <vsa_acc>
27.133842

>  <vsa_acid>
0

>  <vsa_base>
0

>  <vsa_don>
0

>  <vsa_hyd>
347.06253

>  <vsa_other>
25.670774

>  <vsa_pol>
27.133842

>  <Weight>
428.65698

>  <weinerPath>
3140

>  <weinerPol>
52

>  <zagreb>
164

$$$$