S1[C@H]2N([C@@H](C(O)=O)C1(C)C)C(=O)[C@H]2NC(=O)c1c(OC)cccc1OC
  MOE2013           2D

 26 28  0  0  1  0  0  0  0  0999 V2000
    0.0000    0.0000    0.0000 S   0  0  0  0  0  0  0  0  0  0  0  0
   -1.0510   -1.0700    0.0000 C   0  0  1  0  0  0  0  0  0  0  0  0
   -0.3590   -2.4000    0.0000 N   0  0  0  0  0  0  0  0  0  0  0  0
    1.1210   -2.1530    0.0000 C   0  0  1  0  0  0  0  0  0  0  0  0
    2.1910   -3.2040    0.0000 C   0  0  0  0  0  0  0  0  0  0  0  0
    3.6360   -2.8030    0.0000 O   0  0  0  0  0  0  0  0  0  0  0  0
    1.8150   -4.6560    0.0000 O   0  0  0  0  0  0  0  0  0  0  0  0
    1.3420   -0.6690    0.0000 C   0  0  0  0  0  0  0  0  0  0  0  0
    2.1150    0.6170    0.0000 C   0  0  0  0  0  0  0  0  0  0  0  0
    2.8390   -0.7740    0.0000 C   0  0  0  0  0  0  0  0  0  0  0  0
   -1.6890   -3.0930    0.0000 C   0  0  0  0  0  0  0  0  0  0  0  0
   -2.1400   -4.5240    0.0000 O   0  0  0  0  0  0  0  0  0  0  0  0
   -2.3820   -1.7630    0.0000 C   0  0  1  0  0  0  0  0  0  0  0  0
   -3.8120   -1.3120    0.0000 N   0  0  0  0  0  0  0  0  0  0  0  0
   -4.9180   -2.3250    0.0000 C   0  0  0  0  0  0  0  0  0  0  0  0
   -4.5940   -3.7890    0.0000 O   0  0  0  0  0  0  0  0  0  0  0  0
   -6.3490   -1.8740    0.0000 C   0  0  0  0  0  0  0  0  0  0  0  0
   -6.6740   -0.4100    0.0000 C   0  0  0  0  0  0  0  0  0  0  0  0
   -5.5680    0.6040    0.0000 O   0  0  0  0  0  0  0  0  0  0  0  0
   -5.8920    2.0680    0.0000 C   0  0  0  0  0  0  0  0  0  0  0  0
   -8.1040    0.0420    0.0000 C   0  0  0  0  0  0  0  0  0  0  0  0
   -9.2100   -0.9720    0.0000 C   0  0  0  0  0  0  0  0  0  0  0  0
   -8.8850   -2.4360    0.0000 C   0  0  0  0  0  0  0  0  0  0  0  0
   -7.4550   -2.8870    0.0000 C   0  0  0  0  0  0  0  0  0  0  0  0
   -7.1300   -4.3520    0.0000 O   0  0  0  0  0  0  0  0  0  0  0  0
   -8.2360   -5.3650    0.0000 C   0  0  0  0  0  0  0  0  0  0  0  0
  1  8  1  0  0  0  0
  2  1  1  1  0  0  0
  2  3  1  0  0  0  0
  2 13  1  0  0  0  0
  3  4  1  0  0  0  0
  3 11  1  0  0  0  0
  4  5  1  6  0  0  0
  4  8  1  0  0  0  0
  5  6  1  0  0  0  0
  5  7  2  0  0  0  0
  8  9  1  0  0  0  0
  8 10  1  0  0  0  0
 11 12  2  0  0  0  0
 11 13  1  0  0  0  0
 13 14  1  1  0  0  0
 14 15  1  0  0  0  0
 15 16  2  0  0  0  0
 15 17  1  0  0  0  0
 17 18  1  0  0  0  0
 17 24  2  0  0  0  0
 18 19  1  0  0  0  0
 18 21  2  0  0  0  0
 19 20  1  0  0  0  0
 21 22  1  0  0  0  0
 22 23  2  0  0  0  0
 23 24  1  0  0  0  0
 24 25  1  0  0  0  0
 25 26  1  0  0  0  0
M  END
>  <Index>
1643

>  <ID>
HT1342

>  <class>
1

>  <apol>
53.167858

>  <ast_fraglike>
0

>  <ast_fraglike_ext>
0

>  <ast_violation>
2

>  <ast_violation_ext>
4

>  <a_acc>
6

>  <a_acid>
0

>  <a_aro>
6

>  <a_base>
0

>  <a_count>
46

>  <a_don>
3

>  <a_donacc>
9

>  <a_heavy>
26

>  <a_hyd>
15

>  <a_IC>
80.648643

>  <a_ICM>
1.7532314

>  <a_nB>
0

>  <a_nBr>
0

>  <a_nC>
17

>  <a_nCl>
0

>  <a_nF>
0

>  <a_nH>
20

>  <a_nI>
0

>  <a_nN>
2

>  <a_nO>
6

>  <a_nP>
0

>  <a_nS>
1

>  <balabanJ>
1.6979371

>  <BCUT_PEOE_0>
-2.6404355

>  <BCUT_PEOE_1>
-0.52691597

>  <BCUT_PEOE_2>
0.52588117

>  <BCUT_PEOE_3>
2.8493166

>  <BCUT_SLOGP_0>
-2.8948829

>  <BCUT_SLOGP_1>
-0.50992775

>  <BCUT_SLOGP_2>
0.55880505

>  <BCUT_SLOGP_3>
2.7543046

>  <BCUT_SMR_0>
-2.3875673

>  <BCUT_SMR_1>
-0.31975856

>  <BCUT_SMR_2>
0.71046603

>  <BCUT_SMR_3>
3.1303353

>  <bpol>
33.490139

>  <b_1rotN>
5

>  <b_1rotR>
0.17857143

>  <b_ar>
6

>  <b_count>
48

>  <b_double>
3

>  <b_heavy>
28

>  <b_max1len>
4

>  <b_rotN>
6

>  <b_rotR>
0.21428572

>  <b_single>
39

>  <b_triple>
0

>  <chi0>
19.223249

>  <chi0v>
15.624516

>  <chi0v_C>
10.964102

>  <chi0_C>
11.817472

>  <chi1>
12.223581

>  <chi1v>
8.8522587

>  <chi1v_C>
4.1933756

>  <chi1_C>
5.1051717

>  <chiral>
3

>  <chiral_u>
0

>  <density>
0.82744628

>  <diameter>
11

>  <FCharge>
0

>  <GCUT_PEOE_0>
-0.83735144

>  <GCUT_PEOE_1>
-0.39676031

>  <GCUT_PEOE_2>
0.03577058

>  <GCUT_PEOE_3>
2.7187569

>  <GCUT_SLOGP_0>
-1.1641091

>  <GCUT_SLOGP_1>
-0.39558226

>  <GCUT_SLOGP_2>
0.13170692

>  <GCUT_SLOGP_3>
2.6920786

>  <GCUT_SMR_0>
-0.53648877

>  <GCUT_SMR_1>
-0.20953204

>  <GCUT_SMR_2>
0.15384406

>  <GCUT_SMR_3>
2.9853904

>  <Kier1>
20.727041

>  <Kier2>
7.7879934

>  <Kier3>
3.5603333

>  <KierA1>
17.585842

>  <KierA2>
6.5619159

>  <KierA3>
2.9849334

>  <KierFlex>
4.4383388

>  <lip_acc>
8

>  <lip_don>
2

>  <lip_druglike>
1

>  <lip_violation>
0

>  <logP(o/w)>
1.4450001

>  <logS>
-3.5188999

>  <mr>
9.5260973

>  <mutagenic>
0

>  <nmol>
1

>  <opr_brigid>
14

>  <opr_leadlike>
1

>  <opr_nring>
3

>  <opr_nrot>
5

>  <opr_violation>
0

>  <PC+>
0

>  <PC->
0

>  <PEOE_PC+>
2.8148558

>  <PEOE_PC->
-2.8148558

>  <PEOE_RPC+>
0.10081387

>  <PEOE_RPC->
0.12329814

>  <PEOE_VSA+0>
75.587631

>  <PEOE_VSA+1>
70.310211

>  <PEOE_VSA+2>
11.413943

>  <PEOE_VSA+3>
8.6190128

>  <PEOE_VSA+4>
10.324173

>  <PEOE_VSA+5>
40.607563

>  <PEOE_VSA+6>
0

>  <PEOE_VSA-0>
62.005161

>  <PEOE_VSA-1>
12.254904

>  <PEOE_VSA-2>
19.760618

>  <PEOE_VSA-3>
0

>  <PEOE_VSA-4>
0

>  <PEOE_VSA-5>
40.700764

>  <PEOE_VSA-6>
12.911943

>  <PEOE_VSA_FHYD>
0.71318078

>  <PEOE_VSA_FNEG>
0.40503442

>  <PEOE_VSA_FPNEG>
0.14708726

>  <PEOE_VSA_FPOL>
0.28681922

>  <PEOE_VSA_FPOS>
0.59496558

>  <PEOE_VSA_FPPOS>
0.13973197

>  <PEOE_VSA_HYD>
259.95148

>  <PEOE_VSA_NEG>
147.63339

>  <PEOE_VSA_PNEG>
53.612705

>  <PEOE_VSA_POL>
104.54444

>  <PEOE_VSA_POS>
216.86253

>  <PEOE_VSA_PPOS>
50.931732

>  <petitjean>
0.45454547

>  <petitjeanSC>
0.83333331

>  <Q_PC+>
0

>  <Q_PC->
0

>  <Q_RPC+>
0

>  <Q_RPC->
0

>  <Q_VSA_FHYD>
1

>  <Q_VSA_FNEG>
0

>  <Q_VSA_FPNEG>
0

>  <Q_VSA_FPOL>
0

>  <Q_VSA_FPOS>
1

>  <Q_VSA_FPPOS>
0

>  <Q_VSA_HYD>
364.49591

>  <Q_VSA_NEG>
0

>  <Q_VSA_PNEG>
0

>  <Q_VSA_POL>
0

>  <Q_VSA_POS>
364.49591

>  <Q_VSA_PPOS>
0

>  <radius>
6

>  <reactive>
0

>  <rings>
3

>  <RPC+>
0

>  <RPC->
0

>  <rsynth>
1

>  <SlogP>
0.94910002

>  <SlogP_VSA0>
40.010525

>  <SlogP_VSA1>
21.387344

>  <SlogP_VSA2>
58.035496

>  <SlogP_VSA3>
25.385227

>  <SlogP_VSA4>
27.047791

>  <SlogP_VSA5>
70.767738

>  <SlogP_VSA6>
0

>  <SlogP_VSA7>
52.929554

>  <SlogP_VSA8>
0

>  <SlogP_VSA9>
109.35843

>  <SMR>
9.4528999

>  <SMR_VSA0>
71.586647

>  <SMR_VSA1>
25.12409

>  <SMR_VSA2>
43.395977

>  <SMR_VSA3>
23.983496

>  <SMR_VSA4>
0

>  <SMR_VSA5>
52.929554

>  <SMR_VSA6>
18.263031

>  <SMR_VSA7>
169.63931

>  <TPSA>
105.17

>  <VAdjEq>
0.41210872

>  <VAdjMa>
5.8073549

>  <VDistEq>
3.3317902

>  <VDistMa>
9.1213856

>  <vdw_area>
364.49591

>  <vdw_vol>
459.75311

>  <vsa_acc>
32.141354

>  <vsa_acid>
0

>  <vsa_base>
0

>  <vsa_don>
5.6825762

>  <vsa_hyd>
238.52016

>  <vsa_other>
40.607563

>  <vsa_pol>
64.957771

>  <Weight>
380.42099

>  <weinerPath>
1630

>  <weinerPol>
45

>  <zagreb>
142

$$$$