O=C(NCCN(CC)CC)c1ccc(N)cc1
  MOE2013           2D

 17 17  0  0  0  0  0  0  0  0999 V2000
    0.0000    0.0000    0.0000 O   0  0  0  0  0  0  0  0  0  0  0  0
    0.7470    1.3010    0.0000 C   0  0  0  0  0  0  0  0  0  0  0  0
   -0.0060    2.5980    0.0000 N   0  0  0  0  0  0  0  0  0  0  0  0
   -1.5060    2.5950    0.0000 C   0  0  0  0  0  0  0  0  0  0  0  0
   -2.2590    3.8920    0.0000 C   0  0  0  0  0  0  0  0  0  0  0  0
   -3.7590    3.8890    0.0000 N   0  0  0  0  0  0  0  0  0  0  0  0
   -4.5110    5.1860    0.0000 C   0  0  0  0  0  0  0  0  0  0  0  0
   -3.7640    6.4870    0.0000 C   0  0  0  0  0  0  0  0  0  0  0  0
   -4.5060    2.5880    0.0000 C   0  0  0  0  0  0  0  0  0  0  0  0
   -6.0060    2.5850    0.0000 C   0  0  0  0  0  0  0  0  0  0  0  0
    2.2470    1.3040    0.0000 C   0  0  0  0  0  0  0  0  0  0  0  0
    2.9940    2.6050    0.0000 C   0  0  0  0  0  0  0  0  0  0  0  0
    4.4940    2.6080    0.0000 C   0  0  0  0  0  0  0  0  0  0  0  0
    5.2470    1.3110    0.0000 C   0  0  0  0  0  0  0  0  0  0  0  0
    6.7470    1.3140    0.0000 N   0  0  0  0  0  0  0  0  0  0  0  0
    4.5000    0.0100    0.0000 C   0  0  0  0  0  0  0  0  0  0  0  0
    3.0000    0.0070    0.0000 C   0  0  0  0  0  0  0  0  0  0  0  0
  1  2  2  0  0  0  0
  2  3  1  0  0  0  0
  2 11  1  0  0  0  0
  3  4  1  0  0  0  0
  4  5  1  0  0  0  0
  5  6  1  0  0  0  0
  6  7  1  0  0  0  0
  6  9  1  0  0  0  0
  7  8  1  0  0  0  0
  9 10  1  0  0  0  0
 11 12  1  0  0  0  0
 11 17  2  0  0  0  0
 12 13  2  0  0  0  0
 13 14  1  0  0  0  0
 14 15  1  0  0  0  0
 14 16  2  0  0  0  0
 16 17  1  0  0  0  0
M  END
>  <Index>
1700

>  <ID>
HT1743

>  <class>
1

>  <apol>
40.984653

>  <ast_fraglike>
1

>  <ast_fraglike_ext>
0

>  <ast_violation>
0

>  <ast_violation_ext>
1

>  <a_acc>
2

>  <a_acid>
0

>  <a_aro>
6

>  <a_base>
0

>  <a_count>
38

>  <a_don>
2

>  <a_donacc>
4

>  <a_heavy>
17

>  <a_hyd>
12

>  <a_IC>
54.321976

>  <a_ICM>
1.4295257

>  <a_nB>
0

>  <a_nBr>
0

>  <a_nC>
13

>  <a_nCl>
0

>  <a_nF>
0

>  <a_nH>
21

>  <a_nI>
0

>  <a_nN>
3

>  <a_nO>
1

>  <a_nP>
0

>  <a_nS>
0

>  <balabanJ>
2.1465437

>  <BCUT_PEOE_0>
-2.6817992

>  <BCUT_PEOE_1>
-0.40610373

>  <BCUT_PEOE_2>
0.42364374

>  <BCUT_PEOE_3>
2.5743592

>  <BCUT_SLOGP_0>
-2.7912099

>  <BCUT_SLOGP_1>
-0.36462581

>  <BCUT_SLOGP_2>
0.47903585

>  <BCUT_SLOGP_3>
2.5195312

>  <BCUT_SMR_0>
-2.3993087

>  <BCUT_SMR_1>
-0.22343829

>  <BCUT_SMR_2>
0.53341007

>  <BCUT_SMR_3>
2.8483789

>  <bpol>
25.895348

>  <b_1rotN>
6

>  <b_1rotR>
0.35294119

>  <b_ar>
6

>  <b_count>
38

>  <b_double>
1

>  <b_heavy>
17

>  <b_max1len>
7

>  <b_rotN>
7

>  <b_rotR>
0.41176471

>  <b_single>
31

>  <b_triple>
0

>  <chi0>
12.673362

>  <chi0v>
10.570641

>  <chi0v_C>
8.6378279

>  <chi0_C>
9.3889055

>  <chi1>
8.1682339

>  <chi1v>
6.0306168

>  <chi1v_C>
3.9855807

>  <chi1_C>
4.8805399

>  <chiral>
0

>  <chiral_u>
0

>  <density>
0.67253882

>  <diameter>
11

>  <FCharge>
0

>  <GCUT_PEOE_0>
-0.85719353

>  <GCUT_PEOE_1>
-0.35522172

>  <GCUT_PEOE_2>
0.042663749

>  <GCUT_PEOE_3>
2.4527864

>  <GCUT_SLOGP_0>
-1.3342881

>  <GCUT_SLOGP_1>
-0.28060645

>  <GCUT_SLOGP_2>
0.12770256

>  <GCUT_SLOGP_3>
2.4496102

>  <GCUT_SMR_0>
-0.52159607

>  <GCUT_SMR_1>
-0.17173162

>  <GCUT_SMR_2>
0.12152483

>  <GCUT_SMR_3>
2.7079611

>  <Kier1>
15.058824

>  <Kier2>
8.1632652

>  <Kier3>
5.4444447

>  <KierA1>
11.460001

>  <KierA2>
6.0970321

>  <KierA3>
4.0058651

>  <KierFlex>
4.1101174

>  <lip_acc>
4

>  <lip_don>
3

>  <lip_druglike>
1

>  <lip_violation>
0

>  <logP(o/w)>
1.092

>  <logS>
-1.8042001

>  <mr>
6.9914727

>  <mutagenic>
1

>  <nmol>
1

>  <opr_brigid>
6

>  <opr_leadlike>
1

>  <opr_nring>
1

>  <opr_nrot>
6

>  <opr_violation>
0

>  <PC+>
0

>  <PC->
0

>  <PEOE_PC+>
1.5170298

>  <PEOE_PC->
-1.5170298

>  <PEOE_RPC+>
0.16617122

>  <PEOE_RPC->
0.23121721

>  <PEOE_VSA+0>
95.008148

>  <PEOE_VSA+1>
17.061544

>  <PEOE_VSA+2>
17.238026

>  <PEOE_VSA+3>
8.6190128

>  <PEOE_VSA+4>
0

>  <PEOE_VSA+5>
12.949531

>  <PEOE_VSA+6>
0

>  <PEOE_VSA-0>
75.404266

>  <PEOE_VSA-1>
37.495354

>  <PEOE_VSA-2>
0

>  <PEOE_VSA-3>
0

>  <PEOE_VSA-4>
0

>  <PEOE_VSA-5>
13.566921

>  <PEOE_VSA-6>
6.7880106

>  <PEOE_VSA_FHYD>
0.88278478

>  <PEOE_VSA_FNEG>
0.46899015

>  <PEOE_VSA_FPNEG>
0.071639299

>  <PEOE_VSA_FPOL>
0.11721525

>  <PEOE_VSA_FPOS>
0.53100985

>  <PEOE_VSA_FPPOS>
0.045575947

>  <PEOE_VSA_HYD>
250.82635

>  <PEOE_VSA_NEG>
133.25455

>  <PEOE_VSA_PNEG>
20.354931

>  <PEOE_VSA_POL>
33.304462

>  <PEOE_VSA_POS>
150.87625

>  <PEOE_VSA_PPOS>
12.949531

>  <petitjean>
0.45454547

>  <petitjeanSC>
0.83333331

>  <Q_PC+>
0

>  <Q_PC->
0

>  <Q_RPC+>
0

>  <Q_RPC->
0

>  <Q_VSA_FHYD>
1

>  <Q_VSA_FNEG>
0

>  <Q_VSA_FPNEG>
0

>  <Q_VSA_FPOL>
0

>  <Q_VSA_FPOS>
1

>  <Q_VSA_FPPOS>
0

>  <Q_VSA_HYD>
284.1308

>  <Q_VSA_NEG>
0

>  <Q_VSA_PNEG>
0

>  <Q_VSA_POL>
0

>  <Q_VSA_POS>
284.1308

>  <Q_VSA_PPOS>
0

>  <radius>
6

>  <reactive>
0

>  <rings>
1

>  <RPC+>
0

>  <RPC->
0

>  <rsynth>
1

>  <SlogP>
1.3404

>  <SlogP_VSA0>
50.90794

>  <SlogP_VSA1>
8.3830976

>  <SlogP_VSA2>
0

>  <SlogP_VSA3>
73.758316

>  <SlogP_VSA4>
27.047791

>  <SlogP_VSA5>
0

>  <SlogP_VSA6>
0

>  <SlogP_VSA7>
70.572739

>  <SlogP_VSA8>
0

>  <SlogP_VSA9>
69.408775

>  <SMR>
7.0975599

>  <SMR_VSA0>
23.862217

>  <SMR_VSA1>
3.1243138

>  <SMR_VSA2>
18.01075

>  <SMR_VSA3>
3.185575

>  <SMR_VSA4>
2.7567475

>  <SMR_VSA5>
103.46992

>  <SMR_VSA6>
79.017097

>  <SMR_VSA7>
66.652031

>  <TPSA>
58.360001

>  <VAdjEq>
0.52255934

>  <VAdjMa>
5.0874629

>  <VDistEq>
3.2634485

>  <VDistMa>
7.8330927

>  <vdw_area>
284.1308

>  <vdw_vol>
349.91437

>  <vsa_acc>
13.566921

>  <vsa_acid>
0

>  <vsa_base>
0

>  <vsa_don>
23.425066

>  <vsa_hyd>
212.157

>  <vsa_other>
12.949531

>  <vsa_pol>
36.991985

>  <Weight>
235.33099

>  <weinerPath>
618

>  <weinerPol>
21

>  <zagreb>
76

$$$$