O1[C@@H](C)[C@@H](O)[C@@H](N)C[C@@H]1O[C@@H]1c2c(C[C@@](O)(C1)C(=O)CO)c(O)c1c(C(=O)c3c(cccc3OC)C1=O)c2O
  MOE2013           2D

 39 43  0  0  1  0  0  0  0  0999 V2000
    0.0000    0.0000    0.0000 O   0  0  0  0  0  0  0  0  0  0  0  0
    1.5000    0.0100    0.0000 C   0  0  1  0  0  0  0  0  0  0  0  0
    2.2590   -1.2840    0.0000 C   0  0  0  0  0  0  0  0  0  0  0  0
    2.2410    1.3140    0.0000 C   0  0  1  0  0  0  0  0  0  0  0  0
    3.7410    1.3240    0.0000 O   0  0  0  0  0  0  0  0  0  0  0  0
    1.4820    2.6080    0.0000 C   0  0  1  0  0  0  0  0  0  0  0  0
    2.2230    3.9120    0.0000 N   0  0  0  0  0  0  0  0  0  0  0  0
   -0.0180    2.5980    0.0000 C   0  0  0  0  0  0  0  0  0  0  0  0
   -0.7590    1.2940    0.0000 C   0  0  2  0  0  0  0  0  0  0  0  0
   -2.2590    1.2840    0.0000 O   0  0  0  0  0  0  0  0  0  0  0  0
   -3.0180    2.5780    0.0000 C   0  0  2  0  0  0  0  0  0  0  0  0
   -4.5180    2.5670    0.0000 C   0  0  0  0  0  0  0  0  0  0  0  0
   -5.2760    3.8610    0.0000 C   0  0  0  0  0  0  0  0  0  0  0  0
   -4.5350    5.1650    0.0000 C   0  0  0  0  0  0  0  0  0  0  0  0
   -3.0350    5.1760    0.0000 C   0  0  1  0  0  0  0  0  0  0  0  0
   -1.7410    5.9340    0.0000 O   0  0  0  0  0  0  0  0  0  0  0  0
   -2.2760    3.8820    0.0000 C   0  0  0  0  0  0  0  0  0  0  0  0
   -3.0450    6.6760    0.0000 C   0  0  0  0  0  0  0  0  0  0  0  0
   -4.3500    7.4170    0.0000 O   0  0  0  0  0  0  0  0  0  0  0  0
   -1.7520    7.4340    0.0000 C   0  0  0  0  0  0  0  0  0  0  0  0
   -1.7620    8.9340    0.0000 O   0  0  0  0  0  0  0  0  0  0  0  0
   -6.7760    3.8510    0.0000 C   0  0  0  0  0  0  0  0  0  0  0  0
   -7.5350    5.1450    0.0000 O   0  0  0  0  0  0  0  0  0  0  0  0
   -7.5170    2.5470    0.0000 C   0  0  0  0  0  0  0  0  0  0  0  0
   -6.7590    1.2530    0.0000 C   0  0  0  0  0  0  0  0  0  0  0  0
   -7.5000   -0.0510    0.0000 C   0  0  0  0  0  0  0  0  0  0  0  0
   -6.7410   -1.3450    0.0000 O   0  0  0  0  0  0  0  0  0  0  0  0
   -9.0000   -0.0610    0.0000 C   0  0  0  0  0  0  0  0  0  0  0  0
   -9.7590    1.2330    0.0000 C   0  0  0  0  0  0  0  0  0  0  0  0
  -11.2590    1.2230    0.0000 C   0  0  0  0  0  0  0  0  0  0  0  0
  -12.0000   -0.0820    0.0000 C   0  0  0  0  0  0  0  0  0  0  0  0
  -11.2410   -1.3750    0.0000 C   0  0  0  0  0  0  0  0  0  0  0  0
   -9.7410   -1.3650    0.0000 C   0  0  0  0  0  0  0  0  0  0  0  0
   -8.9820   -2.6590    0.0000 O   0  0  0  0  0  0  0  0  0  0  0  0
   -9.7230   -3.9630    0.0000 C   0  0  0  0  0  0  0  0  0  0  0  0
   -9.0170    2.5370    0.0000 C   0  0  0  0  0  0  0  0  0  0  0  0
   -9.7760    3.8310    0.0000 O   0  0  0  0  0  0  0  0  0  0  0  0
   -5.2590    1.2630    0.0000 C   0  0  0  0  0  0  0  0  0  0  0  0
   -4.5000   -0.0310    0.0000 O   0  0  0  0  0  0  0  0  0  0  0  0
  1  2  1  0  0  0  0
  1  9  1  0  0  0  0
  2  3  1  6  0  0  0
  2  4  1  0  0  0  0
  4  5  1  6  0  0  0
  4  6  1  0  0  0  0
  6  7  1  6  0  0  0
  6  8  1  0  0  0  0
  8  9  1  0  0  0  0
  9 10  1  1  0  0  0
 11 10  1  6  0  0  0
 11 12  1  0  0  0  0
 11 17  1  0  0  0  0
 12 13  1  0  0  0  0
 12 38  2  0  0  0  0
 13 14  1  0  0  0  0
 13 22  2  0  0  0  0
 14 15  1  0  0  0  0
 15 16  1  1  0  0  0
 15 17  1  0  0  0  0
 15 18  1  6  0  0  0
 18 19  2  0  0  0  0
 18 20  1  0  0  0  0
 20 21  1  0  0  0  0
 22 23  1  0  0  0  0
 22 24  1  0  0  0  0
 24 25  2  0  0  0  0
 24 36  1  0  0  0  0
 25 26  1  0  0  0  0
 25 38  1  0  0  0  0
 26 27  2  0  0  0  0
 26 28  1  0  0  0  0
 28 29  1  0  0  0  0
 28 33  2  0  0  0  0
 29 30  2  0  0  0  0
 29 36  1  0  0  0  0
 30 31  1  0  0  0  0
 31 32  2  0  0  0  0
 32 33  1  0  0  0  0
 33 34  1  0  0  0  0
 34 35  1  0  0  0  0
 36 37  2  0  0  0  0
 38 39  1  0  0  0  0
M  END
>  <Index>
1541

>  <ID>
HT0719

>  <class>
1

>  <apol>
76.778999

>  <ast_fraglike>
0

>  <ast_fraglike_ext>
0

>  <ast_violation>
3

>  <ast_violation_ext>
5

>  <a_acc>
12

>  <a_acid>
0

>  <a_aro>
12

>  <a_base>
0

>  <a_count>
68

>  <a_don>
6

>  <a_donacc>
18

>  <a_heavy>
39

>  <a_hyd>
23

>  <a_IC>
106.63032

>  <a_ICM>
1.5680928

>  <a_nB>
0

>  <a_nBr>
0

>  <a_nC>
27

>  <a_nCl>
0

>  <a_nF>
0

>  <a_nH>
29

>  <a_nI>
0

>  <a_nN>
1

>  <a_nO>
11

>  <a_nP>
0

>  <a_nS>
0

>  <balabanJ>
1.4874921

>  <BCUT_PEOE_0>
-2.7534289

>  <BCUT_PEOE_1>
-0.59744149

>  <BCUT_PEOE_2>
0.6347934

>  <BCUT_PEOE_3>
2.7712181

>  <BCUT_SLOGP_0>
-2.9030905

>  <BCUT_SLOGP_1>
-0.55116314

>  <BCUT_SLOGP_2>
0.62079364

>  <BCUT_SLOGP_3>
2.7499509

>  <BCUT_SMR_0>
-2.5259449

>  <BCUT_SMR_1>
-0.4290697

>  <BCUT_SMR_2>
0.76558435

>  <BCUT_SMR_3>
2.9902647

>  <bpol>
39.665005

>  <b_1rotN>
5

>  <b_1rotR>
0.11627907

>  <b_ar>
12

>  <b_count>
72

>  <b_double>
3

>  <b_heavy>
43

>  <b_max1len>
6

>  <b_rotN>
5

>  <b_rotR>
0.11627907

>  <b_single>
57

>  <b_triple>
0

>  <chi0>
28.386023

>  <chi0v>
21.210136

>  <chi0v_C>
15.947229

>  <chi0_C>
17.264702

>  <chi1>
18.427776

>  <chi1v>
12.411801

>  <chi1v_C>
8.6656675

>  <chi1_C>
10.43087

>  <chiral>
6

>  <chiral_u>
0

>  <density>
0.82178414

>  <diameter>
14

>  <FCharge>
0

>  <GCUT_PEOE_0>
-0.82896698

>  <GCUT_PEOE_1>
-0.43987748

>  <GCUT_PEOE_2>
0.081412219

>  <GCUT_PEOE_3>
3.0640163

>  <GCUT_SLOGP_0>
-1.3636994

>  <GCUT_SLOGP_1>
-0.38165528

>  <GCUT_SLOGP_2>
0.051285114

>  <GCUT_SLOGP_3>
3.0932858

>  <GCUT_SMR_0>
-0.52201724

>  <GCUT_SMR_1>
-0.22808231

>  <GCUT_SMR_2>
0.19622

>  <GCUT_SMR_3>
3.3052013

>  <Kier1>
30.457544

>  <Kier2>
11.588773

>  <Kier3>
5.1278634

>  <KierA1>
24.961258

>  <KierA2>
9.4452286

>  <KierA3>
4.1628561

>  <KierFlex>
6.0452514

>  <lip_acc>
12

>  <lip_don>
7

>  <lip_druglike>
0

>  <lip_violation>
3

>  <logP(o/w)>
0.50700003

>  <logS>
-3.8296001

>  <mr>
13.280972

>  <mutagenic>
0

>  <nmol>
1

>  <opr_brigid>
27

>  <opr_leadlike>
0

>  <opr_nring>
5

>  <opr_nrot>
8

>  <opr_violation>
4

>  <PC+>
0

>  <PC->
0

>  <PEOE_PC+>
4.2805691

>  <PEOE_PC->
-4.2805691

>  <PEOE_RPC+>
0.050776623

>  <PEOE_RPC->
0.090570942

>  <PEOE_VSA+0>
101.3185

>  <PEOE_VSA+1>
97.900597

>  <PEOE_VSA+2>
32.18932

>  <PEOE_VSA+3>
36.530468

>  <PEOE_VSA+4>
51.620865

>  <PEOE_VSA+5>
0

>  <PEOE_VSA+6>
0

>  <PEOE_VSA-0>
33.211121

>  <PEOE_VSA-1>
24.509808

>  <PEOE_VSA-2>
0

>  <PEOE_VSA-3>
0

>  <PEOE_VSA-4>
0

>  <PEOE_VSA-5>
40.700764

>  <PEOE_VSA-6>
53.000088

>  <PEOE_VSA_FHYD>
0.69144922

>  <PEOE_VSA_FNEG>
0.3215026

>  <PEOE_VSA_FPNEG>
0.19894804

>  <PEOE_VSA_FPOL>
0.30855078

>  <PEOE_VSA_FPOS>
0.67849743

>  <PEOE_VSA_FPPOS>
0.10960273

>  <PEOE_VSA_HYD>
325.65982

>  <PEOE_VSA_NEG>
151.42178

>  <PEOE_VSA_PNEG>
93.700851

>  <PEOE_VSA_POL>
145.32172

>  <PEOE_VSA_POS>
319.55975

>  <PEOE_VSA_PPOS>
51.620865

>  <petitjean>
0.5

>  <petitjeanSC>
1

>  <Q_PC+>
0

>  <Q_PC->
0

>  <Q_RPC+>
0

>  <Q_RPC->
0

>  <Q_VSA_FHYD>
1

>  <Q_VSA_FNEG>
0

>  <Q_VSA_FPNEG>
0

>  <Q_VSA_FPOL>
0

>  <Q_VSA_FPOS>
1

>  <Q_VSA_FPPOS>
0

>  <Q_VSA_HYD>
470.98154

>  <Q_VSA_NEG>
0

>  <Q_VSA_PNEG>
0

>  <Q_VSA_POL>
0

>  <Q_VSA_POS>
470.98154

>  <Q_VSA_PPOS>
0

>  <radius>
7

>  <reactive>
1

>  <rings>
5

>  <RPC+>
0

>  <RPC->
0

>  <rsynth>
0.58974361

>  <SlogP>
0.096770003

>  <SlogP_VSA0>
170.82321

>  <SlogP_VSA1>
17.062834

>  <SlogP_VSA2>
71.307762

>  <SlogP_VSA3>
20.926258

>  <SlogP_VSA4>
66.837883

>  <SlogP_VSA5>
54.252274

>  <SlogP_VSA6>
0

>  <SlogP_VSA7>
52.929554

>  <SlogP_VSA8>
44.20546

>  <SlogP_VSA9>
49.056297

>  <SMR>
13.18654

>  <SMR_VSA0>
93.586426

>  <SMR_VSA1>
137.92603

>  <SMR_VSA2>
0

>  <SMR_VSA3>
66.758156

>  <SMR_VSA4>
32.897186

>  <SMR_VSA5>
109.53477

>  <SMR_VSA6>
37.98909

>  <SMR_VSA7>
68.709885

>  <TPSA>
206.07001

>  <VAdjEq>
0.31356117

>  <VAdjMa>
6.4262648

>  <VDistEq>
3.5642774

>  <VDistMa>
10.328881

>  <vdw_area>
470.98154

>  <vdw_vol>
661.3963

>  <vsa_acc>
48.212032

>  <vsa_acid>
0

>  <vsa_base>
0

>  <vsa_don>
0

>  <vsa_hyd>
252.67822

>  <vsa_other>
40.084057

>  <vsa_pol>
133.78912

>  <Weight>
543.52496

>  <weinerPath>
4392

>  <weinerPol>
83

>  <zagreb>
220

$$$$