Oc1cc2CC[C@H]3[C@@H]4CC[C@H](OC(=O)CCC5CCCC5)[C@]4(CC[C@@H]3c2cc1)C
  MOE2013           2D

 29 33  0  0  1  0  0  0  0  0999 V2000
    0.0000    0.0000    0.0000 O   0  0  0  0  0  0  0  0  0  0  0  0
    1.5000    0.0040    0.0000 C   0  0  0  0  0  0  0  0  0  0  0  0
    2.2540   -1.2930    0.0000 C   0  0  0  0  0  0  0  0  0  0  0  0
    3.7540   -1.2890    0.0000 C   0  0  0  0  0  0  0  0  0  0  0  0
    4.5070   -2.5860    0.0000 C   0  0  0  0  0  0  0  0  0  0  0  0
    6.0070   -2.5820    0.0000 C   0  0  0  0  0  0  0  0  0  0  0  0
    6.7530   -1.2810    0.0000 C   0  0  1  0  0  0  0  0  0  0  0  0
    8.2530   -1.2770    0.0000 C   0  0  2  0  0  0  0  0  0  0  0  0
    9.2600   -2.3890    0.0000 C   0  0  0  0  0  0  0  0  0  0  0  0
   10.6290   -1.7750    0.0000 C   0  0  0  0  0  0  0  0  0  0  0  0
   10.4680   -0.2840    0.0000 C   0  0  2  0  0  0  0  0  0  0  0  0
   11.5800    0.7230    0.0000 O   0  0  0  0  0  0  0  0  0  0  0  0
   13.0080    0.2640    0.0000 C   0  0  0  0  0  0  0  0  0  0  0  0
   13.3240   -1.2030    0.0000 O   0  0  0  0  0  0  0  0  0  0  0  0
   14.1200    1.2700    0.0000 C   0  0  0  0  0  0  0  0  0  0  0  0
   15.5480    0.8110    0.0000 C   0  0  0  0  0  0  0  0  0  0  0  0
   16.6600    1.8170    0.0000 C   0  0  0  0  0  0  0  0  0  0  0  0
   18.1280    1.5090    0.0000 C   0  0  0  0  0  0  0  0  0  0  0  0
   18.8740    2.8100    0.0000 C   0  0  0  0  0  0  0  0  0  0  0  0
   17.8680    3.9220    0.0000 C   0  0  0  0  0  0  0  0  0  0  0  0
   16.4990    3.3090    0.0000 C   0  0  0  0  0  0  0  0  0  0  0  0
    9.0000    0.0240    0.0000 C   0  0  1  0  0  0  0  0  0  0  0  0
    8.2460    1.3210    0.0000 C   0  0  0  0  0  0  0  0  0  0  0  0
    6.7460    1.3170    0.0000 C   0  0  0  0  0  0  0  0  0  0  0  0
    6.0000    0.0160    0.0000 C   0  0  2  0  0  0  0  0  0  0  0  0
    4.5000    0.0120    0.0000 C   0  0  0  0  0  0  0  0  0  0  0  0
    3.7460    1.3090    0.0000 C   0  0  0  0  0  0  0  0  0  0  0  0
    2.2460    1.3050    0.0000 C   0  0  0  0  0  0  0  0  0  0  0  0
    9.8780    1.2400    0.0000 C   0  0  0  0  0  0  0  0  0  0  0  0
  1  2  1  0  0  0  0
  2  3  1  0  0  0  0
  2 28  2  0  0  0  0
  3  4  2  0  0  0  0
  4  5  1  0  0  0  0
  4 26  1  0  0  0  0
  5  6  1  0  0  0  0
  7  6  1  6  0  0  0
  7  8  1  0  0  0  0
  7 25  1  0  0  0  0
  8  9  1  1  0  0  0
  8 22  1  0  0  0  0
  9 10  1  0  0  0  0
 10 11  1  0  0  0  0
 11 12  1  1  0  0  0
 11 22  1  0  0  0  0
 12 13  1  0  0  0  0
 13 14  2  0  0  0  0
 13 15  1  0  0  0  0
 15 16  1  0  0  0  0
 16 17  1  0  0  0  0
 17 18  1  0  0  0  0
 17 21  1  0  0  0  0
 18 19  1  0  0  0  0
 19 20  1  0  0  0  0
 20 21  1  0  0  0  0
 22 23  1  0  0  0  0
 22 29  1  1  0  0  0
 23 24  1  0  0  0  0
 25 24  1  1  0  0  0
 25 26  1  0  0  0  0
 26 27  2  0  0  0  0
 27 28  1  0  0  0  0
M  END
>  <Index>
1554

>  <ID>
HT0792

>  <class>
1

>  <apol>
72.170547

>  <ast_fraglike>
0

>  <ast_fraglike_ext>
0

>  <ast_violation>
2

>  <ast_violation_ext>
3

>  <a_acc>
2

>  <a_acid>
0

>  <a_aro>
6

>  <a_base>
0

>  <a_count>
65

>  <a_don>
1

>  <a_donacc>
3

>  <a_heavy>
29

>  <a_hyd>
25

>  <a_IC>
78.370285

>  <a_ICM>
1.2056967

>  <a_nB>
0

>  <a_nBr>
0

>  <a_nC>
26

>  <a_nCl>
0

>  <a_nF>
0

>  <a_nH>
36

>  <a_nI>
0

>  <a_nN>
0

>  <a_nO>
3

>  <a_nP>
0

>  <a_nS>
0

>  <balabanJ>
1.1966935

>  <BCUT_PEOE_0>
-2.8850751

>  <BCUT_PEOE_1>
-0.53641564

>  <BCUT_PEOE_2>
0.57207286

>  <BCUT_PEOE_3>
2.9308689

>  <BCUT_SLOGP_0>
-2.803349

>  <BCUT_SLOGP_1>
-0.44447377

>  <BCUT_SLOGP_2>
0.64783257

>  <BCUT_SLOGP_3>
3.007792

>  <BCUT_SMR_0>
-2.63064

>  <BCUT_SMR_1>
-0.41663826

>  <BCUT_SMR_2>
0.69440979

>  <BCUT_SMR_3>
3.1813464

>  <bpol>
42.22945

>  <b_1rotN>
4

>  <b_1rotR>
0.12121212

>  <b_ar>
6

>  <b_count>
69

>  <b_double>
1

>  <b_heavy>
33

>  <b_max1len>
4

>  <b_rotN>
5

>  <b_rotR>
0.15151516

>  <b_single>
62

>  <b_triple>
0

>  <chi0>
20.009861

>  <chi0v>
17.867794

>  <chi0v_C>
16.604084

>  <chi0_C>
17.302753

>  <chi1>
14.042662

>  <chi1v>
12.056682

>  <chi1v_C>
11.189124

>  <chi1_C>
12.071465

>  <chiral>
5

>  <chiral_u>
0

>  <density>
0.68112242

>  <diameter>
16

>  <FCharge>
0

>  <GCUT_PEOE_0>
-0.8021822

>  <GCUT_PEOE_1>
-0.38241532

>  <GCUT_PEOE_2>
0.043342926

>  <GCUT_PEOE_3>
3.2246146

>  <GCUT_SLOGP_0>
-0.85166276

>  <GCUT_SLOGP_1>
-0.27432188

>  <GCUT_SLOGP_2>
0.11309859

>  <GCUT_SLOGP_3>
3.3182366

>  <GCUT_SMR_0>
-0.53913105

>  <GCUT_SMR_1>
-0.21517374

>  <GCUT_SMR_2>
0.14779659

>  <GCUT_SMR_3>
3.4555423

>  <Kier1>
20.877869

>  <Kier2>
8.5014582

>  <Kier3>
3.9756353

>  <KierA1>
18.579655

>  <KierA2>
7.5327387

>  <KierA3>
3.5113406

>  <KierFlex>
4.8260579

>  <lip_acc>
3

>  <lip_don>
1

>  <lip_druglike>
1

>  <lip_violation>
1

>  <logP(o/w)>
6.5469999

>  <logS>
-7.51229

>  <mr>
11.525579

>  <mutagenic>
0

>  <nmol>
1

>  <opr_brigid>
25

>  <opr_leadlike>
0

>  <opr_nring>
5

>  <opr_nrot>
5

>  <opr_violation>
2

>  <PC+>
0

>  <PC->
0

>  <PEOE_PC+>
1.7880392

>  <PEOE_PC->
-1.7880392

>  <PEOE_RPC+>
0.14677541

>  <PEOE_RPC->
0.20123924

>  <PEOE_VSA+0>
140.92828

>  <PEOE_VSA+1>
30.424992

>  <PEOE_VSA+2>
0

>  <PEOE_VSA+3>
0

>  <PEOE_VSA+4>
10.324173

>  <PEOE_VSA+5>
14.708499

>  <PEOE_VSA+6>
0

>  <PEOE_VSA-0>
89.836082

>  <PEOE_VSA-1>
65.807831

>  <PEOE_VSA-2>
0

>  <PEOE_VSA-3>
0

>  <PEOE_VSA-4>
0

>  <PEOE_VSA-5>
13.566921

>  <PEOE_VSA-6>
10.271297

>  <PEOE_VSA_FHYD>
0.86997861

>  <PEOE_VSA_FNEG>
0.47751364

>  <PEOE_VSA_FPNEG>
0.063421763

>  <PEOE_VSA_FPOL>
0.13002139

>  <PEOE_VSA_FPOS>
0.52248639

>  <PEOE_VSA_FPPOS>
0.066599622

>  <PEOE_VSA_HYD>
326.99719

>  <PEOE_VSA_NEG>
179.48213

>  <PEOE_VSA_PNEG>
23.838217

>  <PEOE_VSA_POL>
48.870888

>  <PEOE_VSA_POS>
196.38594

>  <PEOE_VSA_PPOS>
25.032671

>  <petitjean>
0.5

>  <petitjeanSC>
1

>  <Q_PC+>
0

>  <Q_PC->
0

>  <Q_RPC+>
0

>  <Q_RPC->
0

>  <Q_VSA_FHYD>
1

>  <Q_VSA_FNEG>
0

>  <Q_VSA_FPNEG>
0

>  <Q_VSA_FPOL>
0

>  <Q_VSA_FPOS>
1

>  <Q_VSA_FPPOS>
0

>  <Q_VSA_HYD>
375.86807

>  <Q_VSA_NEG>
0

>  <Q_VSA_PNEG>
0

>  <Q_VSA_POL>
0

>  <Q_VSA_POS>
375.86807

>  <Q_VSA_PPOS>
0

>  <radius>
8

>  <reactive>
0

>  <rings>
5

>  <RPC+>
0

>  <RPC->
0

>  <rsynth>
0.55172414

>  <SlogP>
6.1304698

>  <SlogP_VSA0>
25.385227

>  <SlogP_VSA1>
7.7454643

>  <SlogP_VSA2>
41.330753

>  <SlogP_VSA3>
0

>  <SlogP_VSA4>
19.603539

>  <SlogP_VSA5>
18.868406

>  <SlogP_VSA6>
4.4107962

>  <SlogP_VSA7>
52.929554

>  <SlogP_VSA8>
207.55246

>  <SlogP_VSA9>
38.569443

>  <SMR>
11.37958

>  <SMR_VSA0>
34.862103

>  <SMR_VSA1>
25.385227

>  <SMR_VSA2>
13.232388

>  <SMR_VSA3>
22.494022

>  <SMR_VSA4>
0

>  <SMR_VSA5>
279.35043

>  <SMR_VSA6>
7.7454643

>  <SMR_VSA7>
33.326015

>  <TPSA>
46.529999

>  <VAdjEq>
0.39679351

>  <VAdjMa>
6.044394

>  <VDistEq>
3.6937017

>  <VDistMa>
9.3905182

>  <vdw_area>
375.86807

>  <vdw_vol>
582.23163

>  <vsa_acc>
13.566921

>  <vsa_acid>
0

>  <vsa_base>
0

>  <vsa_don>
0

>  <vsa_hyd>
296.70413

>  <vsa_other>
17.212255

>  <vsa_pol>
27.133842

>  <Weight>
396.57098

>  <weinerPath>
2367

>  <weinerPol>
50

>  <zagreb>
164

$$$$