S1[C@H]2N([C@@H](C(O)=O)C1(C)C)C(=O)[C@H]2NC(=O)[C@H](NC(=O)N1CCN(CC)C(=O)C1=O)c1ccccc1
  MOE2013           2D

 36 39  0  0  1  0  0  0  0  0999 V2000
    0.0000    0.0000    0.0000 S   0  0  0  0  0  0  0  0  0  0  0  0
   -1.2930    0.7600    0.0000 C   0  0  1  0  0  0  0  0  0  0  0  0
   -0.9700    2.2250    0.0000 N   0  0  0  0  0  0  0  0  0  0  0  0
    0.5230    2.3700    0.0000 C   0  0  1  0  0  0  0  0  0  0  0  0
    1.2830    3.6630    0.0000 C   0  0  0  0  0  0  0  0  0  0  0  0
    2.7830    3.6520    0.0000 O   0  0  0  0  0  0  0  0  0  0  0  0
    0.5430    4.9680    0.0000 O   0  0  0  0  0  0  0  0  0  0  0  0
    1.1220    0.9950    0.0000 C   0  0  0  0  0  0  0  0  0  0  0  0
    2.2020   -0.0460    0.0000 C   0  0  0  0  0  0  0  0  0  0  0  0
    2.5400    1.4850    0.0000 C   0  0  0  0  0  0  0  0  0  0  0  0
   -2.4350    2.5480    0.0000 C   0  0  0  0  0  0  0  0  0  0  0  0
   -3.2420    3.8120    0.0000 O   0  0  0  0  0  0  0  0  0  0  0  0
   -2.7580    1.0830    0.0000 C   0  0  1  0  0  0  0  0  0  0  0  0
   -4.0220    0.2760    0.0000 N   0  0  0  0  0  0  0  0  0  0  0  0
   -5.3530    0.9680    0.0000 C   0  0  0  0  0  0  0  0  0  0  0  0
   -5.4200    2.4660    0.0000 O   0  0  0  0  0  0  0  0  0  0  0  0
   -6.6180    0.1600    0.0000 C   0  0  2  0  0  0  0  0  0  0  0  0
   -7.9490    0.8520    0.0000 N   0  0  0  0  0  0  0  0  0  0  0  0
   -9.2130    0.0450    0.0000 C   0  0  0  0  0  0  0  0  0  0  0  0
   -9.1460   -1.4540    0.0000 O   0  0  0  0  0  0  0  0  0  0  0  0
  -10.5440    0.7360    0.0000 N   0  0  0  0  0  0  0  0  0  0  0  0
  -10.6110    2.2340    0.0000 C   0  0  0  0  0  0  0  0  0  0  0  0
  -11.9420    2.9260    0.0000 C   0  0  0  0  0  0  0  0  0  0  0  0
  -13.2070    2.1190    0.0000 N   0  0  0  0  0  0  0  0  0  0  0  0
  -14.5380    2.8100    0.0000 C   0  0  0  0  0  0  0  0  0  0  0  0
  -14.6050    4.3090    0.0000 C   0  0  0  0  0  0  0  0  0  0  0  0
  -13.1400    0.6200    0.0000 C   0  0  0  0  0  0  0  0  0  0  0  0
  -14.4040   -0.1870    0.0000 O   0  0  0  0  0  0  0  0  0  0  0  0
  -11.8090   -0.0710    0.0000 C   0  0  0  0  0  0  0  0  0  0  0  0
  -11.7420   -1.5700    0.0000 O   0  0  0  0  0  0  0  0  0  0  0  0
   -6.5510   -1.3380    0.0000 C   0  0  0  0  0  0  0  0  0  0  0  0
   -5.2200   -2.0290    0.0000 C   0  0  0  0  0  0  0  0  0  0  0  0
   -5.1530   -3.5280    0.0000 C   0  0  0  0  0  0  0  0  0  0  0  0
   -6.4170   -4.3350    0.0000 C   0  0  0  0  0  0  0  0  0  0  0  0
   -7.7480   -3.6440    0.0000 C   0  0  0  0  0  0  0  0  0  0  0  0
   -7.8150   -2.1450    0.0000 C   0  0  0  0  0  0  0  0  0  0  0  0
  1  8  1  0  0  0  0
  2  1  1  6  0  0  0
  2  3  1  0  0  0  0
  2 13  1  0  0  0  0
  3  4  1  0  0  0  0
  3 11  1  0  0  0  0
  4  5  1  1  0  0  0
  4  8  1  0  0  0  0
  5  6  1  0  0  0  0
  5  7  2  0  0  0  0
  8  9  1  0  0  0  0
  8 10  1  0  0  0  0
 11 12  2  0  0  0  0
 11 13  1  0  0  0  0
 13 14  1  6  0  0  0
 14 15  1  0  0  0  0
 15 16  2  0  0  0  0
 17 15  1  1  0  0  0
 17 18  1  0  0  0  0
 17 31  1  0  0  0  0
 18 19  1  0  0  0  0
 19 20  2  0  0  0  0
 19 21  1  0  0  0  0
 21 22  1  0  0  0  0
 21 29  1  0  0  0  0
 22 23  1  0  0  0  0
 23 24  1  0  0  0  0
 24 25  1  0  0  0  0
 24 27  1  0  0  0  0
 25 26  1  0  0  0  0
 27 28  2  0  0  0  0
 27 29  1  0  0  0  0
 29 30  2  0  0  0  0
 31 32  1  0  0  0  0
 31 36  2  0  0  0  0
 32 33  2  0  0  0  0
 33 34  1  0  0  0  0
 34 35  2  0  0  0  0
 35 36  1  0  0  0  0
M  END
>  <Index>
1693

>  <ID>
HT1682

>  <class>
1

>  <apol>
72.497414

>  <ast_fraglike>
0

>  <ast_fraglike_ext>
0

>  <ast_violation>
3

>  <ast_violation_ext>
5

>  <a_acc>
7

>  <a_acid>
0

>  <a_aro>
6

>  <a_base>
0

>  <a_count>
63

>  <a_don>
4

>  <a_donacc>
11

>  <a_heavy>
36

>  <a_hyd>
18

>  <a_IC>
112.88362

>  <a_ICM>
1.7918035

>  <a_nB>
0

>  <a_nBr>
0

>  <a_nC>
23

>  <a_nCl>
0

>  <a_nF>
0

>  <a_nH>
27

>  <a_nI>
0

>  <a_nN>
5

>  <a_nO>
7

>  <a_nP>
0

>  <a_nS>
1

>  <balabanJ>
1.4427253

>  <BCUT_PEOE_0>
-2.6510794

>  <BCUT_PEOE_1>
-0.54527158

>  <BCUT_PEOE_2>
0.54172027

>  <BCUT_PEOE_3>
2.8505356

>  <BCUT_SLOGP_0>
-2.9029088

>  <BCUT_SLOGP_1>
-0.51830703

>  <BCUT_SLOGP_2>
0.5592882

>  <BCUT_SLOGP_3>
2.7546284

>  <BCUT_SMR_0>
-2.3929963

>  <BCUT_SMR_1>
-0.34815297

>  <BCUT_SMR_2>
0.72779161

>  <BCUT_SMR_3>
3.1313672

>  <bpol>
44.804588

>  <b_1rotN>
7

>  <b_1rotR>
0.17948718

>  <b_ar>
6

>  <b_count>
66

>  <b_double>
6

>  <b_heavy>
39

>  <b_max1len>
4

>  <b_rotN>
9

>  <b_rotR>
0.23076923

>  <b_single>
54

>  <b_triple>
0

>  <chi0>
26.361078

>  <chi0v>
20.780561

>  <chi0v_C>
14.317472

>  <chi0_C>
15.507708

>  <chi1>
16.97327

>  <chi1v>
12.349189

>  <chi1v_C>
6.1444993

>  <chi1_C>
7.3122783

>  <chiral>
4

>  <chiral_u>
0

>  <density>
0.82580346

>  <diameter>
16

>  <FCharge>
0

>  <GCUT_PEOE_0>
-0.84246141

>  <GCUT_PEOE_1>
-0.40644881

>  <GCUT_PEOE_2>
0.067459866

>  <GCUT_PEOE_3>
2.8518455

>  <GCUT_SLOGP_0>
-1.1656165

>  <GCUT_SLOGP_1>
-0.37771371

>  <GCUT_SLOGP_2>
0.093689732

>  <GCUT_SLOGP_3>
2.7854123

>  <GCUT_SMR_0>
-0.5366776

>  <GCUT_SMR_1>
-0.22142634

>  <GCUT_SMR_2>
0.19431172

>  <GCUT_SMR_3>
3.110733

>  <Kier1>
28.994083

>  <Kier2>
11.623096

>  <Kier3>
5.6734085

>  <KierA1>
22.715477

>  <KierA2>
9.0388479

>  <KierA3>
4.3891068

>  <KierFlex>
5.7033815

>  <lip_acc>
12

>  <lip_don>
3

>  <lip_druglike>
0

>  <lip_violation>
2

>  <logP(o/w)>
-0.083999999

>  <logS>
-4.2558799

>  <mr>
12.957481

>  <mutagenic>
0

>  <nmol>
1

>  <opr_brigid>
20

>  <opr_leadlike>
0

>  <opr_nring>
4

>  <opr_nrot>
6

>  <opr_violation>
2

>  <PC+>
0

>  <PC->
0

>  <PEOE_PC+>
4.0490227

>  <PEOE_PC->
-4.0490227

>  <PEOE_RPC+>
0.080625355

>  <PEOE_RPC->
0.084018759

>  <PEOE_VSA+0>
86.496223

>  <PEOE_VSA+1>
55.45002

>  <PEOE_VSA+2>
14.559904

>  <PEOE_VSA+3>
17.238026

>  <PEOE_VSA+4>
23.273705

>  <PEOE_VSA+5>
27.65803

>  <PEOE_VSA+6>
43.339603

>  <PEOE_VSA-0>
58.451572

>  <PEOE_VSA-1>
61.274521

>  <PEOE_VSA-2>
19.760618

>  <PEOE_VSA-3>
0

>  <PEOE_VSA-4>
13.566921

>  <PEOE_VSA-5>
67.834602

>  <PEOE_VSA-6>
8.0413227

>  <PEOE_VSA_FHYD>
0.63031286

>  <PEOE_VSA_FNEG>
0.46067378

>  <PEOE_VSA_FPNEG>
0.17998539

>  <PEOE_VSA_FPOL>
0.36968711

>  <PEOE_VSA_FPOS>
0.53932625

>  <PEOE_VSA_FPPOS>
0.18970174

>  <PEOE_VSA_HYD>
313.23087

>  <PEOE_VSA_NEG>
228.92955

>  <PEOE_VSA_PNEG>
89.442848

>  <PEOE_VSA_POL>
183.71419

>  <PEOE_VSA_POS>
268.0155

>  <PEOE_VSA_PPOS>
94.271339

>  <petitjean>
0.5

>  <petitjeanSC>
1

>  <Q_PC+>
0

>  <Q_PC->
0

>  <Q_RPC+>
0

>  <Q_RPC->
0

>  <Q_VSA_FHYD>
1

>  <Q_VSA_FNEG>
0

>  <Q_VSA_FPNEG>
0

>  <Q_VSA_FPOL>
0

>  <Q_VSA_FPOS>
1

>  <Q_VSA_FPPOS>
0

>  <Q_VSA_HYD>
496.94507

>  <Q_VSA_NEG>
0

>  <Q_VSA_PNEG>
0

>  <Q_VSA_POL>
0

>  <Q_VSA_POS>
496.94507

>  <Q_VSA_PPOS>
0

>  <radius>
8

>  <reactive>
0

>  <rings>
4

>  <RPC+>
0

>  <RPC->
0

>  <rsynth>
1

>  <SlogP>
-0.14480001

>  <SlogP_VSA0>
36.0215

>  <SlogP_VSA1>
42.983498

>  <SlogP_VSA2>
129.62215

>  <SlogP_VSA3>
80.703964

>  <SlogP_VSA4>
3.185575

>  <SlogP_VSA5>
0

>  <SlogP_VSA6>
0

>  <SlogP_VSA7>
88.215919

>  <SlogP_VSA8>
3.9819686

>  <SlogP_VSA9>
156.0598

>  <SMR>
12.74522

>  <SMR_VSA0>
143.17329

>  <SMR_VSA1>
9.372942

>  <SMR_VSA2>
61.406727

>  <SMR_VSA3>
17.478609

>  <SMR_VSA4>
0

>  <SMR_VSA5>
88.215919

>  <SMR_VSA6>
88.929291

>  <SMR_VSA7>
132.19759

>  <TPSA>
156.42999

>  <VAdjEq>
0.3281796

>  <VAdjMa>
6.2854023

>  <VDistEq>
3.7434754

>  <VDistMa>
10.070228

>  <vdw_area>
496.94507

>  <vdw_vol>
626.73871

>  <vsa_acc>
67.834602

>  <vsa_acid>
0

>  <vsa_base>
0

>  <vsa_don>
11.365152

>  <vsa_hyd>
278.90976

>  <vsa_other>
83.947166

>  <vsa_pol>
106.3336

>  <Weight>
517.56299

>  <weinerPath>
4075

>  <weinerPol>
63

>  <zagreb>
196

$$$$