n1(c2CCCCCCc2c2c1cccc2)CCCN(C)C
  MOE2013           2D

 21 23  0  0  0  0  0  0  0  0999 V2000
    0.0000    0.0000    0.0000 N   0  0  0  0  0  0  0  0  0  0  0  0
   -1.4670   -0.3140    0.0000 C   0  0  0  0  0  0  0  0  0  0  0  0
   -1.8530   -1.7630    0.0000 C   0  0  0  0  0  0  0  0  0  0  0  0
   -3.1510   -2.5150    0.0000 C   0  0  0  0  0  0  0  0  0  0  0  0
   -4.6000   -2.1290    0.0000 C   0  0  0  0  0  0  0  0  0  0  0  0
   -5.3520   -0.8310    0.0000 C   0  0  0  0  0  0  0  0  0  0  0  0
   -4.9660    0.6180    0.0000 C   0  0  0  0  0  0  0  0  0  0  0  0
   -3.6680    1.3700    0.0000 C   0  0  0  0  0  0  0  0  0  0  0  0
   -2.2190    0.9840    0.0000 C   0  0  0  0  0  0  0  0  0  0  0  0
   -1.2170    2.1000    0.0000 C   0  0  0  0  0  0  0  0  0  0  0  0
    0.1550    1.4920    0.0000 C   0  0  0  0  0  0  0  0  0  0  0  0
    1.3670    2.3750    0.0000 C   0  0  0  0  0  0  0  0  0  0  0  0
    1.2080    3.8670    0.0000 C   0  0  0  0  0  0  0  0  0  0  0  0
   -0.1630    4.4750    0.0000 C   0  0  0  0  0  0  0  0  0  0  0  0
   -1.3750    3.5920    0.0000 C   0  0  0  0  0  0  0  0  0  0  0  0
    1.1160   -1.0020    0.0000 C   0  0  0  0  0  0  0  0  0  0  0  0
    2.5420   -0.5370    0.0000 C   0  0  0  0  0  0  0  0  0  0  0  0
    3.6580   -1.5390    0.0000 C   0  0  0  0  0  0  0  0  0  0  0  0
    5.0840   -1.0730    0.0000 N   0  0  0  0  0  0  0  0  0  0  0  0
    5.3940    0.3950    0.0000 C   0  0  0  0  0  0  0  0  0  0  0  0
    6.2000   -2.0750    0.0000 C   0  0  0  0  0  0  0  0  0  0  0  0
  1  2  1  0  0  0  0
  1 11  1  0  0  0  0
  1 16  1  0  0  0  0
  2  3  1  0  0  0  0
  2  9  2  0  0  0  0
  3  4  1  0  0  0  0
  4  5  1  0  0  0  0
  5  6  1  0  0  0  0
  6  7  1  0  0  0  0
  7  8  1  0  0  0  0
  8  9  1  0  0  0  0
  9 10  1  0  0  0  0
 10 11  1  0  0  0  0
 10 15  2  0  0  0  0
 11 12  2  0  0  0  0
 12 13  1  0  0  0  0
 13 14  2  0  0  0  0
 14 15  1  0  0  0  0
 16 17  1  0  0  0  0
 17 18  1  0  0  0  0
 18 19  1  0  0  0  0
 19 20  1  0  0  0  0
 19 21  1  0  0  0  0
M  END
>  <Index>
1609

>  <ID>
HT1121

>  <class>
1

>  <apol>
54.310204

>  <ast_fraglike>
0

>  <ast_fraglike_ext>
0

>  <ast_violation>
1

>  <ast_violation_ext>
2

>  <a_acc>
1

>  <a_acid>
0

>  <a_aro>
9

>  <a_base>
0

>  <a_count>
49

>  <a_don>
0

>  <a_donacc>
1

>  <a_heavy>
21

>  <a_hyd>
19

>  <a_IC>
57.804222

>  <a_ICM>
1.179678

>  <a_nB>
0

>  <a_nBr>
0

>  <a_nC>
19

>  <a_nCl>
0

>  <a_nF>
0

>  <a_nH>
28

>  <a_nI>
0

>  <a_nN>
2

>  <a_nO>
0

>  <a_nP>
0

>  <a_nS>
0

>  <balabanJ>
1.6882689

>  <BCUT_PEOE_0>
-2.6908543

>  <BCUT_PEOE_1>
-0.52150303

>  <BCUT_PEOE_2>
0.33797199

>  <BCUT_PEOE_3>
2.6435602

>  <BCUT_SLOGP_0>
-2.6754663

>  <BCUT_SLOGP_1>
-0.42200342

>  <BCUT_SLOGP_2>
0.47480091

>  <BCUT_SLOGP_3>
2.7768273

>  <BCUT_SMR_0>
-2.4342709

>  <BCUT_SMR_1>
-0.38441253

>  <BCUT_SMR_2>
0.56608963

>  <BCUT_SMR_3>
2.9100885

>  <bpol>
34.569798

>  <b_1rotN>
4

>  <b_1rotR>
0.17391305

>  <b_ar>
10

>  <b_count>
51

>  <b_double>
0

>  <b_heavy>
23

>  <b_max1len>
6

>  <b_rotN>
4

>  <b_rotR>
0.17391305

>  <b_single>
41

>  <b_triple>
0

>  <chi0>
14.656489

>  <chi0v>
13.567789

>  <chi0v_C>
12.673362

>  <chi0_C>
13.501789

>  <chi1>
10.270857

>  <chi1v>
8.5085535

>  <chi1v_C>
6.5344572

>  <chi1_C>
7.6329932

>  <chiral>
0

>  <chiral_u>
0

>  <density>
0.63413197

>  <diameter>
10

>  <FCharge>
0

>  <GCUT_PEOE_0>
-0.87081468

>  <GCUT_PEOE_1>
-0.33581662

>  <GCUT_PEOE_2>
-0.09575031

>  <GCUT_PEOE_3>
2.8620143

>  <GCUT_SLOGP_0>
-0.95322299

>  <GCUT_SLOGP_1>
-0.27999973

>  <GCUT_SLOGP_2>
0.036855578

>  <GCUT_SLOGP_3>
2.9810541

>  <GCUT_SMR_0>
-0.53340584

>  <GCUT_SMR_1>
-0.18049732

>  <GCUT_SMR_2>
0.11550205

>  <GCUT_SMR_3>
3.1341438

>  <Kier1>
15.879017

>  <Kier2>
7.5130072

>  <Kier3>
3.6734693

>  <KierA1>
13.208201

>  <KierA2>
6.1880708

>  <KierA3>
3.0028219

>  <KierFlex>
3.8920612

>  <lip_acc>
2

>  <lip_don>
0

>  <lip_druglike>
1

>  <lip_violation>
0

>  <logP(o/w)>
4.8769999

>  <logS>
-3.7876999

>  <mr>
8.9609308

>  <mutagenic>
0

>  <nmol>
1

>  <opr_brigid>
17

>  <opr_leadlike>
1

>  <opr_nring>
3

>  <opr_nrot>
6

>  <opr_violation>
1

>  <PC+>
0

>  <PC->
0

>  <PEOE_PC+>
1.1693234

>  <PEOE_PC->
-1.1693234

>  <PEOE_RPC+>
0.054584641

>  <PEOE_RPC->
0.29374209

>  <PEOE_VSA+0>
131.16924

>  <PEOE_VSA+1>
17.061544

>  <PEOE_VSA+2>
0

>  <PEOE_VSA+3>
0

>  <PEOE_VSA+4>
0

>  <PEOE_VSA+5>
0

>  <PEOE_VSA+6>
0

>  <PEOE_VSA-0>
117.63971

>  <PEOE_VSA-1>
54.167339

>  <PEOE_VSA-2>
0

>  <PEOE_VSA-3>
0

>  <PEOE_VSA-4>
0

>  <PEOE_VSA-5>
0

>  <PEOE_VSA-6>
0

>  <PEOE_VSA_FHYD>
1

>  <PEOE_VSA_FNEG>
0.53683358

>  <PEOE_VSA_FPNEG>
0

>  <PEOE_VSA_FPOL>
0

>  <PEOE_VSA_FPOS>
0.46316642

>  <PEOE_VSA_FPPOS>
0

>  <PEOE_VSA_HYD>
320.03781

>  <PEOE_VSA_NEG>
171.80705

>  <PEOE_VSA_PNEG>
0

>  <PEOE_VSA_POL>
0

>  <PEOE_VSA_POS>
148.23077

>  <PEOE_VSA_PPOS>
0

>  <petitjean>
0.5

>  <petitjeanSC>
1

>  <Q_PC+>
0

>  <Q_PC->
0

>  <Q_RPC+>
0

>  <Q_RPC->
0

>  <Q_VSA_FHYD>
1

>  <Q_VSA_FNEG>
0

>  <Q_VSA_FPNEG>
0

>  <Q_VSA_FPOL>
0

>  <Q_VSA_FPOS>
1

>  <Q_VSA_FPPOS>
0

>  <Q_VSA_HYD>
320.03781

>  <Q_VSA_NEG>
0

>  <Q_VSA_PNEG>
0

>  <Q_VSA_POL>
0

>  <Q_VSA_POS>
320.03781

>  <Q_VSA_PPOS>
0

>  <radius>
5

>  <reactive>
0

>  <rings>
3

>  <RPC+>
0

>  <RPC->
0

>  <rsynth>
1

>  <SlogP>
4.5183401

>  <SlogP_VSA0>
0

>  <SlogP_VSA1>
5.0234065

>  <SlogP_VSA2>
0

>  <SlogP_VSA3>
18.439579

>  <SlogP_VSA4>
5.9423227

>  <SlogP_VSA5>
103.53119

>  <SlogP_VSA6>
0

>  <SlogP_VSA7>
75.289841

>  <SlogP_VSA8>
94.342026

>  <SlogP_VSA9>
18.439579

>  <SMR>
9.1190004

>  <SMR_VSA0>
0

>  <SMR_VSA1>
5.0234065

>  <SMR_VSA2>
0

>  <SMR_VSA3>
5.9423227

>  <SMR_VSA4>
4.7171016

>  <SMR_VSA5>
221.09116

>  <SMR_VSA6>
18.439579

>  <SMR_VSA7>
65.794373

>  <TPSA>
8.1700001

>  <VAdjEq>
0.48250595

>  <VAdjMa>
5.523562

>  <VDistEq>
3.1028109

>  <VDistMa>
8.5055885

>  <vdw_area>
320.03781

>  <vdw_vol>
448.56119

>  <vsa_acc>
0

>  <vsa_acid>
0

>  <vsa_base>
0

>  <vsa_don>
0

>  <vsa_hyd>
300.10754

>  <vsa_other>
0

>  <vsa_pol>
0

>  <Weight>
284.44699

>  <weinerPath>
900

>  <weinerPol>
34

>  <zagreb>
108

$$$$