Oc1ccc(cc1C(=O)N)[C@@H](O)CN[C@@H](CCc1ccccc1)C
  MOE2013           2D

 24 25  0  0  1  0  0  0  0  0999 V2000
    0.0000    0.0000    0.0000 O   0  0  0  0  0  0  0  0  0  0  0  0
    1.5000   -0.0110    0.0000 C   0  0  0  0  0  0  0  0  0  0  0  0
    2.2410   -1.3150    0.0000 C   0  0  0  0  0  0  0  0  0  0  0  0
    3.7410   -1.3260    0.0000 C   0  0  0  0  0  0  0  0  0  0  0  0
    4.5000   -0.0320    0.0000 C   0  0  0  0  0  0  0  0  0  0  0  0
    3.7590    1.2720    0.0000 C   0  0  0  0  0  0  0  0  0  0  0  0
    2.2590    1.2830    0.0000 C   0  0  0  0  0  0  0  0  0  0  0  0
    1.5180    2.5870    0.0000 C   0  0  0  0  0  0  0  0  0  0  0  0
    2.2780    3.8810    0.0000 O   0  0  0  0  0  0  0  0  0  0  0  0
    0.0180    2.5980    0.0000 N   0  0  0  0  0  0  0  0  0  0  0  0
    6.0000   -0.0430    0.0000 C   0  0  1  0  0  0  0  0  0  0  0  0
    6.7590    1.2510    0.0000 O   0  0  0  0  0  0  0  0  0  0  0  0
    6.7410   -1.3470    0.0000 C   0  0  0  0  0  0  0  0  0  0  0  0
    8.2410   -1.3580    0.0000 N   0  0  0  0  0  0  0  0  0  0  0  0
    8.9810   -2.6620    0.0000 C   0  0  1  0  0  0  0  0  0  0  0  0
   10.4810   -2.6720    0.0000 C   0  0  0  0  0  0  0  0  0  0  0  0
   11.2220   -3.9770    0.0000 C   0  0  0  0  0  0  0  0  0  0  0  0
   12.7220   -3.9870    0.0000 C   0  0  0  0  0  0  0  0  0  0  0  0
   13.4810   -2.6940    0.0000 C   0  0  0  0  0  0  0  0  0  0  0  0
   14.9810   -2.7040    0.0000 C   0  0  0  0  0  0  0  0  0  0  0  0
   15.7220   -4.0090    0.0000 C   0  0  0  0  0  0  0  0  0  0  0  0
   14.9630   -5.3020    0.0000 C   0  0  0  0  0  0  0  0  0  0  0  0
   13.4630   -5.2920    0.0000 C   0  0  0  0  0  0  0  0  0  0  0  0
    8.2220   -3.9560    0.0000 C   0  0  0  0  0  0  0  0  0  0  0  0
  1  2  1  0  0  0  0
  2  3  1  0  0  0  0
  2  7  2  0  0  0  0
  3  4  2  0  0  0  0
  4  5  1  0  0  0  0
  5  6  2  0  0  0  0
  5 11  1  0  0  0  0
  6  7  1  0  0  0  0
  7  8  1  0  0  0  0
  8  9  2  0  0  0  0
  8 10  1  0  0  0  0
 11 12  1  1  0  0  0
 11 13  1  0  0  0  0
 13 14  1  0  0  0  0
 14 15  1  0  0  0  0
 15 16  1  0  0  0  0
 15 24  1  1  0  0  0
 16 17  1  0  0  0  0
 17 18  1  0  0  0  0
 18 19  1  0  0  0  0
 18 23  2  0  0  0  0
 19 20  2  0  0  0  0
 20 21  1  0  0  0  0
 21 22  2  0  0  0  0
 22 23  1  0  0  0  0
M  END
>  <Index>
1529

>  <ID>
HT0672

>  <class>
1

>  <apol>
54.04903

>  <ast_fraglike>
0

>  <ast_fraglike_ext>
0

>  <ast_violation>
3

>  <ast_violation_ext>
5

>  <a_acc>
4

>  <a_acid>
0

>  <a_aro>
12

>  <a_base>
0

>  <a_count>
48

>  <a_don>
4

>  <a_donacc>
8

>  <a_heavy>
24

>  <a_hyd>
18

>  <a_IC>
70.573593

>  <a_ICM>
1.4702832

>  <a_nB>
0

>  <a_nBr>
0

>  <a_nC>
19

>  <a_nCl>
0

>  <a_nF>
0

>  <a_nH>
24

>  <a_nI>
0

>  <a_nN>
2

>  <a_nO>
3

>  <a_nP>
0

>  <a_nS>
0

>  <balabanJ>
1.6518635

>  <BCUT_PEOE_0>
-2.6808946

>  <BCUT_PEOE_1>
-0.60679585

>  <BCUT_PEOE_2>
0.68794751

>  <BCUT_PEOE_3>
2.6116636

>  <BCUT_SLOGP_0>
-2.7676098

>  <BCUT_SLOGP_1>
-0.55328798

>  <BCUT_SLOGP_2>
0.70659506

>  <BCUT_SLOGP_3>
2.6215231

>  <BCUT_SMR_0>
-2.4124629

>  <BCUT_SMR_1>
-0.48529577

>  <BCUT_SMR_2>
0.79971725

>  <BCUT_SMR_3>
2.8753393

>  <bpol>
27.194967

>  <b_1rotN>
8

>  <b_1rotR>
0.31999999

>  <b_ar>
12

>  <b_count>
49

>  <b_double>
1

>  <b_heavy>
25

>  <b_max1len>
8

>  <b_rotN>
8

>  <b_rotR>
0.31999999

>  <b_single>
36

>  <b_triple>
0

>  <chi0>
17.526733

>  <chi0v>
13.774849

>  <chi0v_C>
11.394823

>  <chi0_C>
12.819627

>  <chi1>
11.469234

>  <chi1v>
8.0516262

>  <chi1v_C>
6.434793

>  <chi1_C>
8.251585

>  <chiral>
2

>  <chiral_u>
0

>  <density>
0.70773906

>  <diameter>
14

>  <FCharge>
0

>  <GCUT_PEOE_0>
-0.84420753

>  <GCUT_PEOE_1>
-0.38451314

>  <GCUT_PEOE_2>
0.095339566

>  <GCUT_PEOE_3>
2.6348896

>  <GCUT_SLOGP_0>
-1.3703693

>  <GCUT_SLOGP_1>
-0.31651852

>  <GCUT_SLOGP_2>
0.14717856

>  <GCUT_SLOGP_3>
2.6942947

>  <GCUT_SMR_0>
-0.523265

>  <GCUT_SMR_1>
-0.22303033

>  <GCUT_SMR_2>
0.19392478

>  <GCUT_SMR_3>
2.8893769

>  <Kier1>
20.313601

>  <Kier2>
10.222222

>  <Kier3>
6.6824455

>  <KierA1>
15.457772

>  <KierA2>
7.679389

>  <KierA3>
4.9738679

>  <KierFlex>
4.9460936

>  <lip_acc>
5

>  <lip_don>
5

>  <lip_druglike>
1

>  <lip_violation>
0

>  <logP(o/w)>
2.5639999

>  <logS>
-3.17136

>  <mr>
9.4877338

>  <mutagenic>
0

>  <nmol>
1

>  <opr_brigid>
12

>  <opr_leadlike>
1

>  <opr_nring>
2

>  <opr_nrot>
8

>  <opr_violation>
0

>  <PC+>
0

>  <PC->
0

>  <PEOE_PC+>
2.2910023

>  <PEOE_PC->
-2.2910023

>  <PEOE_RPC+>
0.10999487

>  <PEOE_RPC->
0.16844825

>  <PEOE_VSA+0>
58.992146

>  <PEOE_VSA+1>
53.960461

>  <PEOE_VSA+2>
8.6190128

>  <PEOE_VSA+3>
17.238026

>  <PEOE_VSA+4>
20.648346

>  <PEOE_VSA+5>
12.949531

>  <PEOE_VSA+6>
0

>  <PEOE_VSA-0>
65.077194

>  <PEOE_VSA-1>
73.529427

>  <PEOE_VSA-2>
0

>  <PEOE_VSA-3>
0

>  <PEOE_VSA-4>
0

>  <PEOE_VSA-5>
13.566921

>  <PEOE_VSA-6>
22.323092

>  <PEOE_VSA_FHYD>
0.79969138

>  <PEOE_VSA_FNEG>
0.50301105

>  <PEOE_VSA_FPNEG>
0.10345801

>  <PEOE_VSA_FPOL>
0.20030861

>  <PEOE_VSA_FPOS>
0.49698892

>  <PEOE_VSA_FPPOS>
0.096850604

>  <PEOE_VSA_HYD>
277.41626

>  <PEOE_VSA_NEG>
174.49663

>  <PEOE_VSA_PNEG>
35.890011

>  <PEOE_VSA_POL>
69.487885

>  <PEOE_VSA_POS>
172.40752

>  <PEOE_VSA_PPOS>
33.597878

>  <petitjean>
0.5

>  <petitjeanSC>
1

>  <Q_PC+>
0

>  <Q_PC->
0

>  <Q_RPC+>
0

>  <Q_RPC->
0

>  <Q_VSA_FHYD>
1

>  <Q_VSA_FNEG>
0

>  <Q_VSA_FPNEG>
0

>  <Q_VSA_FPOL>
0

>  <Q_VSA_FPOS>
1

>  <Q_VSA_FPPOS>
0

>  <Q_VSA_HYD>
346.90414

>  <Q_VSA_NEG>
0

>  <Q_VSA_PNEG>
0

>  <Q_VSA_POL>
0

>  <Q_VSA_POS>
346.90414

>  <Q_VSA_PPOS>
0

>  <radius>
7

>  <reactive>
0

>  <rings>
2

>  <RPC+>
0

>  <RPC->
0

>  <rsynth>
1

>  <SlogP>
2.23087

>  <SlogP_VSA0>
101.67839

>  <SlogP_VSA1>
5.2587838

>  <SlogP_VSA2>
3.9819686

>  <SlogP_VSA3>
18.439579

>  <SlogP_VSA4>
33.418941

>  <SlogP_VSA5>
18.868406

>  <SlogP_VSA6>
0

>  <SlogP_VSA7>
141.14548

>  <SlogP_VSA8>
25.337055

>  <SlogP_VSA9>
38.569443

>  <SMR>
9.3923197

>  <SMR_VSA0>
23.862217

>  <SMR_VSA1>
50.770454

>  <SMR_VSA2>
18.01075

>  <SMR_VSA3>
25.250771

>  <SMR_VSA4>
32.897186

>  <SMR_VSA5>
178.88228

>  <SMR_VSA6>
23.698362

>  <SMR_VSA7>
33.326015

>  <TPSA>
95.580002

>  <VAdjEq>
0.42571631

>  <VAdjMa>
5.643856

>  <VDistEq>
3.6489365

>  <VDistMa>
8.8359604

>  <vdw_area>
346.90414

>  <vdw_vol>
464.02979

>  <vsa_acc>
13.566921

>  <vsa_acid>
0

>  <vsa_base>
0

>  <vsa_don>
17.742489

>  <vsa_hyd>
238.03511

>  <vsa_other>
12.949531

>  <vsa_pol>
64.125832

>  <Weight>
328.41199

>  <weinerPath>
1607

>  <weinerPol>
33

>  <zagreb>
116

$$$$