Oc1c2c(c(N=CCNCCO)ccc2NCCNCCO)c(O)c2c1c(O)ccc2O
  MOE2013           2D

 32 34  0  0  0  0  0  0  0  0999 V2000
    0.0000    0.0000    0.0000 O   0  0  0  0  0  0  0  0  0  0  0  0
    1.5000    0.0000    0.0000 C   0  0  0  0  0  0  0  0  0  0  0  0
    2.2500   -1.2990    0.0000 C   0  0  0  0  0  0  0  0  0  0  0  0
    3.7500   -1.2990    0.0000 C   0  0  0  0  0  0  0  0  0  0  0  0
    4.5000   -2.5980    0.0000 C   0  0  0  0  0  0  0  0  0  0  0  0
    6.0000   -2.5980    0.0000 N   0  0  0  0  0  0  0  0  0  0  0  0
    6.7500   -3.8970    0.0000 C   0  0  0  0  0  0  0  0  0  0  0  0
    8.2500   -3.8970    0.0000 C   0  0  0  0  0  0  0  0  0  0  0  0
    9.0000   -5.1960    0.0000 N   0  0  0  0  0  0  0  0  0  0  0  0
   10.5000   -5.1960    0.0000 C   0  0  0  0  0  0  0  0  0  0  0  0
   11.2500   -6.4950    0.0000 C   0  0  0  0  0  0  0  0  0  0  0  0
   12.7500   -6.4950    0.0000 O   0  0  0  0  0  0  0  0  0  0  0  0
    3.7500   -3.8970    0.0000 C   0  0  0  0  0  0  0  0  0  0  0  0
    2.2500   -3.8970    0.0000 C   0  0  0  0  0  0  0  0  0  0  0  0
    1.5000   -2.5980    0.0000 C   0  0  0  0  0  0  0  0  0  0  0  0
    0.0000   -2.5980    0.0000 N   0  0  0  0  0  0  0  0  0  0  0  0
   -0.7500   -3.8970    0.0000 C   0  0  0  0  0  0  0  0  0  0  0  0
   -2.2500   -3.8970    0.0000 C   0  0  0  0  0  0  0  0  0  0  0  0
   -3.0000   -5.1960    0.0000 N   0  0  0  0  0  0  0  0  0  0  0  0
   -4.5000   -5.1960    0.0000 C   0  0  0  0  0  0  0  0  0  0  0  0
   -5.2500   -6.4950    0.0000 C   0  0  0  0  0  0  0  0  0  0  0  0
   -6.7500   -6.4950    0.0000 O   0  0  0  0  0  0  0  0  0  0  0  0
    4.5000    0.0000    0.0000 C   0  0  0  0  0  0  0  0  0  0  0  0
    6.0000    0.0000    0.0000 O   0  0  0  0  0  0  0  0  0  0  0  0
    3.7500    1.2990    0.0000 C   0  0  0  0  0  0  0  0  0  0  0  0
    2.2500    1.2990    0.0000 C   0  0  0  0  0  0  0  0  0  0  0  0
    1.5000    2.5980    0.0000 C   0  0  0  0  0  0  0  0  0  0  0  0
    0.0000    2.5980    0.0000 O   0  0  0  0  0  0  0  0  0  0  0  0
    2.2500    3.8970    0.0000 C   0  0  0  0  0  0  0  0  0  0  0  0
    3.7500    3.8970    0.0000 C   0  0  0  0  0  0  0  0  0  0  0  0
    4.5000    2.5980    0.0000 C   0  0  0  0  0  0  0  0  0  0  0  0
    6.0000    2.5980    0.0000 O   0  0  0  0  0  0  0  0  0  0  0  0
  1  2  1  0  0  0  0
  2  3  1  0  0  0  0
  2 26  2  0  0  0  0
  3  4  1  0  0  0  0
  3 15  2  0  0  0  0
  4  5  2  0  0  0  0
  4 23  1  0  0  0  0
  5  6  1  0  0  0  0
  5 13  1  0  0  0  0
  6  7  2  3  0  0  0
  7  8  1  0  0  0  0
  8  9  1  0  0  0  0
  9 10  1  0  0  0  0
 10 11  1  0  0  0  0
 11 12  1  0  0  0  0
 13 14  2  0  0  0  0
 14 15  1  0  0  0  0
 15 16  1  0  0  0  0
 16 17  1  0  0  0  0
 17 18  1  0  0  0  0
 18 19  1  0  0  0  0
 19 20  1  0  0  0  0
 20 21  1  0  0  0  0
 21 22  1  0  0  0  0
 23 24  1  0  0  0  0
 23 25  2  0  0  0  0
 25 26  1  0  0  0  0
 25 31  1  0  0  0  0
 26 27  1  0  0  0  0
 27 28  1  0  0  0  0
 27 29  2  0  0  0  0
 29 30  1  0  0  0  0
 30 31  2  0  0  0  0
 31 32  1  0  0  0  0
M  END
>  <Index>
1656

>  <ID>
HT1418

>  <class>
1

>  <apol>
66.602203

>  <ast_fraglike>
0

>  <ast_fraglike_ext>
0

>  <ast_violation>
3

>  <ast_violation_ext>
5

>  <a_acc>
9

>  <a_acid>
0

>  <a_aro>
14

>  <a_base>
0

>  <a_count>
60

>  <a_don>
9

>  <a_donacc>
18

>  <a_heavy>
32

>  <a_hyd>
21

>  <a_IC>
98.190224

>  <a_ICM>
1.6365038

>  <a_nB>
0

>  <a_nBr>
0

>  <a_nC>
22

>  <a_nCl>
0

>  <a_nF>
0

>  <a_nH>
28

>  <a_nI>
0

>  <a_nN>
4

>  <a_nO>
6

>  <a_nP>
0

>  <a_nS>
0

>  <balabanJ>
1.7285397

>  <BCUT_PEOE_0>
-2.5969608

>  <BCUT_PEOE_1>
-0.72515899

>  <BCUT_PEOE_2>
0.76611185

>  <BCUT_PEOE_3>
2.51001

>  <BCUT_SLOGP_0>
-2.7877445

>  <BCUT_SLOGP_1>
-0.70260465

>  <BCUT_SLOGP_2>
0.67970264

>  <BCUT_SLOGP_3>
2.5677981

>  <BCUT_SMR_0>
-2.3156383

>  <BCUT_SMR_1>
-0.56571168

>  <BCUT_SMR_2>
0.87841451

>  <BCUT_SMR_3>
2.7865679

>  <bpol>
33.909798

>  <b_1rotN>
11

>  <b_1rotR>
0.32352942

>  <b_ar>
16

>  <b_count>
62

>  <b_double>
1

>  <b_heavy>
34

>  <b_max1len>
8

>  <b_rotN>
11

>  <b_rotR>
0.32352942

>  <b_single>
45

>  <b_triple>
0

>  <chi0>
23.087212

>  <chi0v>
17.466993

>  <chi0v_C>
12.836499

>  <chi0_C>
14.258784

>  <chi1>
15.506437

>  <chi1v>
10.256071

>  <chi1v_C>
6.2296157

>  <chi1_C>
7.9663267

>  <chiral>
0

>  <chiral_u>
0

>  <density>
0.76929736

>  <diameter>
17

>  <FCharge>
0

>  <GCUT_PEOE_0>
-0.84297168

>  <GCUT_PEOE_1>
-0.44414607

>  <GCUT_PEOE_2>
0.16955636

>  <GCUT_PEOE_3>
2.7384698

>  <GCUT_SLOGP_0>
-1.1540816

>  <GCUT_SLOGP_1>
-0.33923179

>  <GCUT_SLOGP_2>
0.12831187

>  <GCUT_SLOGP_3>
2.9194212

>  <GCUT_SMR_0>
-0.51517487

>  <GCUT_SMR_1>
-0.24073642

>  <GCUT_SMR_2>
0.25634032

>  <GCUT_SMR_3>
3.0512488

>  <Kier1>
26.602076

>  <Kier2>
13.185255

>  <Kier3>
6.3720703

>  <KierA1>
21.184158

>  <KierA2>
10.418149

>  <KierA3>
5.0071082

>  <KierFlex>
6.8968663

>  <lip_acc>
10

>  <lip_don>
9

>  <lip_druglike>
1

>  <lip_violation>
1

>  <logP(o/w)>
0.42300001

>  <logS>
-2.77494

>  <mr>
11.827441

>  <mutagenic>
1

>  <nmol>
1

>  <opr_brigid>
17

>  <opr_leadlike>
0

>  <opr_nring>
3

>  <opr_nrot>
11

>  <opr_violation>
3

>  <PC+>
0

>  <PC->
0

>  <PEOE_PC+>
3.5214496

>  <PEOE_PC->
-3.5214496

>  <PEOE_RPC+>
0.061726019

>  <PEOE_RPC->
0.11181627

>  <PEOE_VSA+0>
140.89511

>  <PEOE_VSA+1>
108.82469

>  <PEOE_VSA+2>
25.857038

>  <PEOE_VSA+3>
0

>  <PEOE_VSA+4>
61.945034

>  <PEOE_VSA+5>
0

>  <PEOE_VSA+6>
0

>  <PEOE_VSA-0>
49.019615

>  <PEOE_VSA-1>
0

>  <PEOE_VSA-2>
0

>  <PEOE_VSA-3>
0

>  <PEOE_VSA-4>
0

>  <PEOE_VSA-5>
5.8194671

>  <PEOE_VSA-6>
46.879025

>  <PEOE_VSA_FHYD>
0.73899567

>  <PEOE_VSA_FNEG>
0.23157752

>  <PEOE_VSA_FPNEG>
0.11997654

>  <PEOE_VSA_FPOL>
0.2610043

>  <PEOE_VSA_FPOS>
0.76842248

>  <PEOE_VSA_FPPOS>
0.14102778

>  <PEOE_VSA_HYD>
324.59647

>  <PEOE_VSA_NEG>
101.71811

>  <PEOE_VSA_PNEG>
52.69849

>  <PEOE_VSA_POL>
114.64352

>  <PEOE_VSA_POS>
337.52188

>  <PEOE_VSA_PPOS>
61.945034

>  <petitjean>
0.47058824

>  <petitjeanSC>
0.8888889

>  <Q_PC+>
0

>  <Q_PC->
0

>  <Q_RPC+>
0

>  <Q_RPC->
0

>  <Q_VSA_FHYD>
1

>  <Q_VSA_FNEG>
0

>  <Q_VSA_FPNEG>
0

>  <Q_VSA_FPOL>
0

>  <Q_VSA_FPOS>
1

>  <Q_VSA_FPPOS>
0

>  <Q_VSA_HYD>
439.23999

>  <Q_VSA_NEG>
0

>  <Q_VSA_PNEG>
0

>  <Q_VSA_POL>
0

>  <Q_VSA_POS>
439.23999

>  <Q_VSA_PPOS>
0

>  <radius>
9

>  <reactive>
0

>  <rings>
3

>  <RPC+>
0

>  <RPC->
0

>  <rsynth>
0.375

>  <SlogP>
1.0934

>  <SlogP_VSA0>
188.33286

>  <SlogP_VSA1>
18.01075

>  <SlogP_VSA2>
17.214357

>  <SlogP_VSA3>
134.05042

>  <SlogP_VSA4>
0

>  <SlogP_VSA5>
16.78553

>  <SlogP_VSA6>
0

>  <SlogP_VSA7>
80.864594

>  <SlogP_VSA8>
0

>  <SlogP_VSA9>
26.487207

>  <SMR>
12.46659

>  <SMR_VSA0>
0

>  <SMR_VSA1>
169.09689

>  <SMR_VSA2>
36.0215

>  <SMR_VSA3>
20.973713

>  <SMR_VSA4>
33.816105

>  <SMR_VSA5>
70.572739

>  <SMR_VSA6>
134.05042

>  <SMR_VSA7>
17.214357

>  <TPSA>
169.83

>  <VAdjEq>
0.35236704

>  <VAdjMa>
6.0874629

>  <VDistEq>
3.6855123

>  <VDistMa>
9.7179117

>  <vdw_area>
439.23999

>  <vdw_vol>
577.78436

>  <vsa_acc>
5.6825762

>  <vsa_acid>
0

>  <vsa_base>
0

>  <vsa_don>
5.6825762

>  <vsa_hyd>
264.9158

>  <vsa_other>
20.299505

>  <vsa_pol>
104.13183

>  <Weight>
444.48798

>  <weinerPath>
2996

>  <weinerPol>
55

>  <zagreb>
160

$$$$