Fc1cc(F)ccc1-c1cc(C(O)=O)c(O)cc1
  MOE2013           2D

 18 19  0  0  0  0  0  0  0  0999 V2000
    0.0000    0.0000    0.0000 F   0  0  0  0  0  0  0  0  0  0  0  0
    0.7560   -1.2950    0.0000 C   0  0  0  0  0  0  0  0  0  0  0  0
    2.2560   -1.2880    0.0000 C   0  0  0  0  0  0  0  0  0  0  0  0
    3.0130   -2.5840    0.0000 C   0  0  0  0  0  0  0  0  0  0  0  0
    4.5130   -2.5760    0.0000 F   0  0  0  0  0  0  0  0  0  0  0  0
    2.2690   -3.8860    0.0000 C   0  0  0  0  0  0  0  0  0  0  0  0
    0.7690   -3.8930    0.0000 C   0  0  0  0  0  0  0  0  0  0  0  0
    0.0130   -2.5980    0.0000 C   0  0  0  0  0  0  0  0  0  0  0  0
   -1.4870   -2.6050    0.0000 C   0  0  0  0  0  0  0  0  0  0  0  0
   -2.2310   -3.9080    0.0000 C   0  0  0  0  0  0  0  0  0  0  0  0
   -3.7310   -3.9150    0.0000 C   0  0  0  0  0  0  0  0  0  0  0  0
   -4.4750   -5.2180    0.0000 C   0  0  0  0  0  0  0  0  0  0  0  0
   -5.9750   -5.2250    0.0000 O   0  0  0  0  0  0  0  0  0  0  0  0
   -3.7190   -6.5130    0.0000 O   0  0  0  0  0  0  0  0  0  0  0  0
   -4.4870   -2.6200    0.0000 C   0  0  0  0  0  0  0  0  0  0  0  0
   -5.9870   -2.6270    0.0000 O   0  0  0  0  0  0  0  0  0  0  0  0
   -3.7440   -1.3170    0.0000 C   0  0  0  0  0  0  0  0  0  0  0  0
   -2.2440   -1.3100    0.0000 C   0  0  0  0  0  0  0  0  0  0  0  0
  1  2  1  0  0  0  0
  2  3  1  0  0  0  0
  2  8  2  0  0  0  0
  3  4  2  0  0  0  0
  4  5  1  0  0  0  0
  4  6  1  0  0  0  0
  6  7  2  0  0  0  0
  7  8  1  0  0  0  0
  8  9  1  0  0  0  0
  9 10  1  0  0  0  0
  9 18  2  0  0  0  0
 10 11  2  0  0  0  0
 11 12  1  0  0  0  0
 11 15  1  0  0  0  0
 12 13  1  0  0  0  0
 12 14  2  0  0  0  0
 15 16  1  0  0  0  0
 15 17  2  0  0  0  0
 17 18  1  0  0  0  0
M  END
>  <Index>
1528

>  <ID>
HT0662

>  <class>
1

>  <apol>
31.734344

>  <ast_fraglike>
0

>  <ast_fraglike_ext>
0

>  <ast_violation>
1

>  <ast_violation_ext>
1

>  <a_acc>
3

>  <a_acid>
0

>  <a_aro>
12

>  <a_base>
0

>  <a_count>
26

>  <a_don>
3

>  <a_donacc>
6

>  <a_heavy>
18

>  <a_hyd>
14

>  <a_IC>
43.35083

>  <a_ICM>
1.6673396

>  <a_nB>
0

>  <a_nBr>
0

>  <a_nC>
13

>  <a_nCl>
0

>  <a_nF>
2

>  <a_nH>
8

>  <a_nI>
0

>  <a_nN>
0

>  <a_nO>
3

>  <a_nP>
0

>  <a_nS>
0

>  <balabanJ>
1.9816948

>  <BCUT_PEOE_0>
-2.2294397

>  <BCUT_PEOE_1>
-0.66163582

>  <BCUT_PEOE_2>
0.68814862

>  <BCUT_PEOE_3>
2.2556894

>  <BCUT_SLOGP_0>
-2.117265

>  <BCUT_SLOGP_1>
-0.53713995

>  <BCUT_SLOGP_2>
0.83390969

>  <BCUT_SLOGP_3>
2.4186673

>  <BCUT_SMR_0>
-1.9140946

>  <BCUT_SMR_1>
-0.48240244

>  <BCUT_SMR_2>
0.84426749

>  <BCUT_SMR_3>
2.5697174

>  <bpol>
12.109656

>  <b_1rotN>
2

>  <b_1rotR>
0.10526316

>  <b_ar>
12

>  <b_count>
27

>  <b_double>
1

>  <b_heavy>
19

>  <b_max1len>
1

>  <b_rotN>
2

>  <b_rotR>
0.10526316

>  <b_single>
14

>  <b_triple>
0

>  <chi0>
13.284093

>  <chi0v>
9.022706

>  <chi0v_C>
6.9641018

>  <chi0_C>
8.2840929

>  <chi1>
8.4860706

>  <chi1v>
5.0053701

>  <chi1v_C>
3.9760678

>  <chi1_C>
5.5993195

>  <chiral>
0

>  <chiral_u>
0

>  <density>
0.85456437

>  <diameter>
9

>  <FCharge>
0

>  <GCUT_PEOE_0>
-0.75824898

>  <GCUT_PEOE_1>
-0.4683539

>  <GCUT_PEOE_2>
0.11713692

>  <GCUT_PEOE_3>
2.2972322

>  <GCUT_SLOGP_0>
-0.85427374

>  <GCUT_SLOGP_1>
-0.30500546

>  <GCUT_SLOGP_2>
0.24014999

>  <GCUT_SLOGP_3>
2.4465551

>  <GCUT_SMR_0>
-0.42817324

>  <GCUT_SMR_1>
-0.22946268

>  <GCUT_SMR_2>
0.23478799

>  <GCUT_SMR_3>
2.590457

>  <Kier1>
14.409972

>  <Kier2>
5.9698215

>  <Kier3>
3.3217993

>  <KierA1>
10.016016

>  <KierA2>
4.0518394

>  <KierA3>
2.2149982

>  <KierFlex>
2.254627

>  <lip_acc>
3

>  <lip_don>
2

>  <lip_druglike>
1

>  <lip_violation>
0

>  <logP(o/w)>
3.6110001

>  <logS>
-4.0086699

>  <mr>
6.153626

>  <mutagenic>
0

>  <nmol>
1

>  <opr_brigid>
12

>  <opr_leadlike>
1

>  <opr_nring>
2

>  <opr_nrot>
2

>  <opr_violation>
0

>  <PC+>
0

>  <PC->
0

>  <PEOE_PC+>
1.5651264

>  <PEOE_PC->
-1.5651264

>  <PEOE_RPC+>
0.18768522

>  <PEOE_RPC->
0.22940806

>  <PEOE_VSA+0>
14.463444

>  <PEOE_VSA+1>
36.259377

>  <PEOE_VSA+2>
18.041691

>  <PEOE_VSA+3>
0

>  <PEOE_VSA+4>
20.648346

>  <PEOE_VSA+5>
14.708499

>  <PEOE_VSA+6>
0

>  <PEOE_VSA-0>
51.228157

>  <PEOE_VSA-1>
12.254904

>  <PEOE_VSA-2>
0

>  <PEOE_VSA-3>
0

>  <PEOE_VSA-4>
23.817272

>  <PEOE_VSA-5>
13.566921

>  <PEOE_VSA-6>
15.535081

>  <PEOE_VSA_FHYD>
0.59969777

>  <PEOE_VSA_FNEG>
0.52784503

>  <PEOE_VSA_FPNEG>
0.23997092

>  <PEOE_VSA_FPOL>
0.4003022

>  <PEOE_VSA_FPOS>
0.47215497

>  <PEOE_VSA_FPPOS>
0.16033128

>  <PEOE_VSA_HYD>
132.24757

>  <PEOE_VSA_NEG>
116.40233

>  <PEOE_VSA_PNEG>
52.919273

>  <PEOE_VSA_POL>
88.276115

>  <PEOE_VSA_POS>
104.12135

>  <PEOE_VSA_PPOS>
35.356846

>  <petitjean>
0.44444445

>  <petitjeanSC>
0.80000001

>  <Q_PC+>
0

>  <Q_PC->
0

>  <Q_RPC+>
0

>  <Q_RPC->
0

>  <Q_VSA_FHYD>
1

>  <Q_VSA_FNEG>
0

>  <Q_VSA_FPNEG>
0

>  <Q_VSA_FPOL>
0

>  <Q_VSA_FPOS>
1

>  <Q_VSA_FPPOS>
0

>  <Q_VSA_HYD>
220.52368

>  <Q_VSA_NEG>
0

>  <Q_VSA_PNEG>
0

>  <Q_VSA_POL>
0

>  <Q_VSA_POS>
220.52368

>  <Q_VSA_PPOS>
0

>  <radius>
5

>  <reactive>
0

>  <rings>
2

>  <RPC+>
0

>  <RPC->
0

>  <rsynth>
1

>  <SlogP>
3.0355999

>  <SlogP_VSA0>
25.385227

>  <SlogP_VSA1>
7.7454643

>  <SlogP_VSA2>
18.242037

>  <SlogP_VSA3>
25.385227

>  <SlogP_VSA4>
27.047791

>  <SlogP_VSA5>
0

>  <SlogP_VSA6>
0

>  <SlogP_VSA7>
112.23026

>  <SlogP_VSA8>
0

>  <SlogP_VSA9>
35.163654

>  <SMR>
6.04181

>  <SMR_VSA0>
23.862217

>  <SMR_VSA1>
55.305454

>  <SMR_VSA2>
43.627262

>  <SMR_VSA3>
8.4290028

>  <SMR_VSA4>
6.37115

>  <SMR_VSA5>
105.85911

>  <SMR_VSA6>
7.7454643

>  <SMR_VSA7>
0

>  <TPSA>
57.529999

>  <VAdjEq>
0.52150291

>  <VAdjMa>
5.2479277

>  <VDistEq>
2.9615283

>  <VDistMa>
8.0485153

>  <vdw_area>
220.52368

>  <vdw_vol>
292.78073

>  <vsa_acc>
0

>  <vsa_acid>
0

>  <vsa_base>
0

>  <vsa_don>
0

>  <vsa_hyd>
151.79407

>  <vsa_other>
14.708499

>  <vsa_pol>
40.700764

>  <Weight>
250.2

>  <weinerPath>
597

>  <weinerPol>
28

>  <zagreb>
92

$$$$