Clc1ccc(cc1)-c1nn(cc1CC(O)=O)-c1ccccc1
  MOE2013           2D

 22 24  0  0  0  0  0  0  0  0999 V2000
    0.0000    0.0000    0.0000 Cl  0  0  0  0  0  0  0  0  0  0  0  0
    1.5000    0.0090    0.0000 C   0  0  0  0  0  0  0  0  0  0  0  0
    2.2580   -1.2850    0.0000 C   0  0  0  0  0  0  0  0  0  0  0  0
    3.7580   -1.2760    0.0000 C   0  0  0  0  0  0  0  0  0  0  0  0
    4.5000    0.0280    0.0000 C   0  0  0  0  0  0  0  0  0  0  0  0
    3.7420    1.3220    0.0000 C   0  0  0  0  0  0  0  0  0  0  0  0
    2.2420    1.3130    0.0000 C   0  0  0  0  0  0  0  0  0  0  0  0
    6.0000    0.0370    0.0000 C   0  0  0  0  0  0  0  0  0  0  0  0
    6.8890   -1.1710    0.0000 N   0  0  0  0  0  0  0  0  0  0  0  0
    8.3130   -0.6980    0.0000 N   0  0  0  0  0  0  0  0  0  0  0  0
    8.3030    0.8020    0.0000 C   0  0  0  0  0  0  0  0  0  0  0  0
    6.8740    1.2560    0.0000 C   0  0  0  0  0  0  0  0  0  0  0  0
    6.4020    2.6800    0.0000 C   0  0  0  0  0  0  0  0  0  0  0  0
    7.3980    3.8010    0.0000 C   0  0  0  0  0  0  0  0  0  0  0  0
    6.9260    5.2250    0.0000 O   0  0  0  0  0  0  0  0  0  0  0  0
    8.8680    3.4980    0.0000 O   0  0  0  0  0  0  0  0  0  0  0  0
    9.5320   -1.5730    0.0000 C   0  0  0  0  0  0  0  0  0  0  0  0
    9.3840   -3.0650    0.0000 C   0  0  0  0  0  0  0  0  0  0  0  0
   10.6030   -3.9390    0.0000 C   0  0  0  0  0  0  0  0  0  0  0  0
   11.9700   -3.3210    0.0000 C   0  0  0  0  0  0  0  0  0  0  0  0
   12.1170   -1.8280    0.0000 C   0  0  0  0  0  0  0  0  0  0  0  0
   10.8980   -0.9540    0.0000 C   0  0  0  0  0  0  0  0  0  0  0  0
  1  2  1  0  0  0  0
  2  3  1  0  0  0  0
  2  7  2  0  0  0  0
  3  4  2  0  0  0  0
  4  5  1  0  0  0  0
  5  6  2  0  0  0  0
  5  8  1  0  0  0  0
  6  7  1  0  0  0  0
  8  9  2  0  0  0  0
  8 12  1  0  0  0  0
  9 10  1  0  0  0  0
 10 11  1  0  0  0  0
 10 17  1  0  0  0  0
 11 12  2  0  0  0  0
 12 13  1  0  0  0  0
 13 14  1  0  0  0  0
 14 15  1  0  0  0  0
 14 16  2  0  0  0  0
 17 18  1  0  0  0  0
 17 22  2  0  0  0  0
 18 19  2  0  0  0  0
 19 20  1  0  0  0  0
 20 21  2  0  0  0  0
 21 22  1  0  0  0  0
M  END
>  <Index>
1623

>  <ID>
HT1231

>  <class>
1

>  <apol>
44.572308

>  <ast_fraglike>
0

>  <ast_fraglike_ext>
0

>  <ast_violation>
2

>  <ast_violation_ext>
3

>  <a_acc>
3

>  <a_acid>
0

>  <a_aro>
17

>  <a_base>
0

>  <a_count>
35

>  <a_don>
2

>  <a_donacc>
5

>  <a_heavy>
22

>  <a_hyd>
17

>  <a_IC>
57.93232

>  <a_ICM>
1.6552092

>  <a_nB>
0

>  <a_nBr>
0

>  <a_nC>
17

>  <a_nCl>
1

>  <a_nF>
0

>  <a_nH>
13

>  <a_nI>
0

>  <a_nN>
2

>  <a_nO>
2

>  <a_nP>
0

>  <a_nS>
0

>  <balabanJ>
1.6341516

>  <BCUT_PEOE_0>
-2.2470276

>  <BCUT_PEOE_1>
-0.63224399

>  <BCUT_PEOE_2>
0.69852895

>  <BCUT_PEOE_3>
2.3712716

>  <BCUT_SLOGP_0>
-2.3092434

>  <BCUT_SLOGP_1>
-0.52412593

>  <BCUT_SLOGP_2>
0.80591482

>  <BCUT_SLOGP_3>
2.4228005

>  <BCUT_SMR_0>
-1.9993937

>  <BCUT_SMR_1>
-0.47104445

>  <BCUT_SMR_2>
0.85431087

>  <BCUT_SMR_3>
2.6419168

>  <bpol>
17.569691

>  <b_1rotN>
4

>  <b_1rotR>
0.16666667

>  <b_ar>
17

>  <b_count>
37

>  <b_double>
1

>  <b_heavy>
24

>  <b_max1len>
2

>  <b_rotN>
4

>  <b_rotR>
0.16666667

>  <b_single>
19

>  <b_triple>
0

>  <chi0>
15.526733

>  <chi0v>
12.364392

>  <chi0v_C>
9.4806099

>  <chi0_C>
11.242276

>  <chi1>
10.63103

>  <chi1v>
7.127923

>  <chi1v_C>
5.2278328

>  <chi1_C>
7.3409014

>  <chiral>
0

>  <chiral_u>
0

>  <density>
0.78504658

>  <diameter>
11

>  <FCharge>
0

>  <GCUT_PEOE_0>
-0.82592362

>  <GCUT_PEOE_1>
-0.39331421

>  <GCUT_PEOE_2>
0.081728809

>  <GCUT_PEOE_3>
2.4483519

>  <GCUT_SLOGP_0>
-0.89087462

>  <GCUT_SLOGP_1>
-0.27258492

>  <GCUT_SLOGP_2>
0.16445385

>  <GCUT_SLOGP_3>
2.5631227

>  <GCUT_SMR_0>
-0.45936096

>  <GCUT_SMR_1>
-0.21605732

>  <GCUT_SMR_2>
0.23266011

>  <GCUT_SMR_3>
2.751327

>  <Kier1>
16.84375

>  <Kier2>
7.7134986

>  <Kier3>
4.3083901

>  <KierA1>
12.275512

>  <KierA2>
5.5296569

>  <KierA3>
3.0518236

>  <KierFlex>
3.0854259

>  <lip_acc>
4

>  <lip_don>
1

>  <lip_druglike>
1

>  <lip_violation>
0

>  <logP(o/w)>
3.812

>  <logS>
-4.6991301

>  <mr>
8.6994362

>  <mutagenic>
0

>  <nmol>
1

>  <opr_brigid>
17

>  <opr_leadlike>
1

>  <opr_nring>
3

>  <opr_nrot>
4

>  <opr_violation>
0

>  <PC+>
0

>  <PC->
0

>  <PEOE_PC+>
1.525928

>  <PEOE_PC->
-1.525928

>  <PEOE_RPC+>
0.17305005

>  <PEOE_RPC->
0.21693082

>  <PEOE_VSA+0>
34.213512

>  <PEOE_VSA+1>
64.754272

>  <PEOE_VSA+2>
0

>  <PEOE_VSA+3>
0

>  <PEOE_VSA+4>
10.324173

>  <PEOE_VSA+5>
14.708499

>  <PEOE_VSA+6>
0

>  <PEOE_VSA-0>
49.019615

>  <PEOE_VSA-1>
90.856468

>  <PEOE_VSA-2>
0

>  <PEOE_VSA-3>
9.4210396

>  <PEOE_VSA-4>
0

>  <PEOE_VSA-5>
13.566921

>  <PEOE_VSA-6>
7.7675405

>  <PEOE_VSA_FHYD>
0.84262699

>  <PEOE_VSA_FNEG>
0.57913452

>  <PEOE_VSA_FPNEG>
0.072410524

>  <PEOE_VSA_FPOL>
0.15737301

>  <PEOE_VSA_FPOS>
0.42086551

>  <PEOE_VSA_FPPOS>
0.084962487

>  <PEOE_VSA_HYD>
248.26491

>  <PEOE_VSA_NEG>
170.63158

>  <PEOE_VSA_PNEG>
21.334461

>  <PEOE_VSA_POL>
46.367134

>  <PEOE_VSA_POS>
124.00046

>  <PEOE_VSA_PPOS>
25.032671

>  <petitjean>
0.45454547

>  <petitjeanSC>
0.83333331

>  <Q_PC+>
0

>  <Q_PC->
0

>  <Q_RPC+>
0

>  <Q_RPC->
0

>  <Q_VSA_FHYD>
1

>  <Q_VSA_FNEG>
0

>  <Q_VSA_FPNEG>
0

>  <Q_VSA_FPOL>
0

>  <Q_VSA_FPOS>
1

>  <Q_VSA_FPPOS>
0

>  <Q_VSA_HYD>
294.63205

>  <Q_VSA_NEG>
0

>  <Q_VSA_PNEG>
0

>  <Q_VSA_POL>
0

>  <Q_VSA_POS>
294.63205

>  <Q_VSA_PPOS>
0

>  <radius>
6

>  <reactive>
0

>  <rings>
3

>  <RPC+>
0

>  <RPC->
0

>  <rsynth>
1

>  <SlogP>
3.8197701

>  <SlogP_VSA0>
0

>  <SlogP_VSA1>
26.185041

>  <SlogP_VSA2>
23.862217

>  <SlogP_VSA3>
25.385227

>  <SlogP_VSA4>
3.185575

>  <SlogP_VSA5>
18.868406

>  <SlogP_VSA6>
3.5006065

>  <SlogP_VSA7>
184.70209

>  <SlogP_VSA8>
0

>  <SlogP_VSA9>
39.148643

>  <SMR>
8.5349798

>  <SMR_VSA0>
23.862217

>  <SMR_VSA1>
18.439579

>  <SMR_VSA2>
25.385227

>  <SMR_VSA3>
6.6861815

>  <SMR_VSA4>
8.69907

>  <SMR_VSA5>
194.87141

>  <SMR_VSA6>
7.7454643

>  <SMR_VSA7>
39.148643

>  <TPSA>
55.119999

>  <VAdjEq>
0.46637034

>  <VAdjMa>
5.5849624

>  <VDistEq>
3.1918485

>  <VDistMa>
8.6401339

>  <vdw_area>
294.63205

>  <vdw_vol>
398.39163

>  <vsa_acc>
9.4210396

>  <vsa_acid>
0

>  <vsa_base>
0

>  <vsa_don>
0

>  <vsa_hyd>
230.30232

>  <vsa_other>
14.708499

>  <vsa_pol>
36.554882

>  <Weight>
312.75598

>  <weinerPath>
1057

>  <weinerPol>
31

>  <zagreb>
114

$$$$