OC(=O)CC1(CCCCC1)CN
  MOE2013           2D

 12 12  0  0  0  0  0  0  0  0999 V2000
    0.0000    0.0000    0.0000 O   0  0  0  0  0  0  0  0  0  0  0  0
   -1.3000   -0.7480    0.0000 C   0  0  0  0  0  0  0  0  0  0  0  0
   -1.3020   -2.2480    0.0000 O   0  0  0  0  0  0  0  0  0  0  0  0
   -2.5980    0.0030    0.0000 C   0  0  0  0  0  0  0  0  0  0  0  0
   -3.8980   -0.7450    0.0000 C   0  0  0  0  0  0  0  0  0  0  0  0
   -5.3980   -0.7430    0.0000 C   0  0  0  0  0  0  0  0  0  0  0  0
   -6.1500   -2.0410    0.0000 C   0  0  0  0  0  0  0  0  0  0  0  0
   -5.4010   -3.3410    0.0000 C   0  0  0  0  0  0  0  0  0  0  0  0
   -3.9010   -3.3430    0.0000 C   0  0  0  0  0  0  0  0  0  0  0  0
   -3.1500   -2.0450    0.0000 C   0  0  0  0  0  0  0  0  0  0  0  0
   -3.8960    0.7550    0.0000 C   0  0  0  0  0  0  0  0  0  0  0  0
   -5.1940    1.5070    0.0000 N   0  0  0  0  0  0  0  0  0  0  0  0
  1  2  1  0  0  0  0
  2  3  2  0  0  0  0
  2  4  1  0  0  0  0
  4  5  1  0  0  0  0
  5  6  1  0  0  0  0
  5 10  1  0  0  0  0
  5 11  1  0  0  0  0
  6  7  1  0  0  0  0
  7  8  1  0  0  0  0
  8  9  1  0  0  0  0
  9 10  1  0  0  0  0
 11 12  1  0  0  0  0
M  END
>  <Index>
1583

>  <ID>
HT0947

>  <class>
1

>  <apol>
29.87948

>  <ast_fraglike>
1

>  <ast_fraglike_ext>
0

>  <ast_violation>
0

>  <ast_violation_ext>
1

>  <a_acc>
3

>  <a_acid>
0

>  <a_aro>
0

>  <a_base>
0

>  <a_count>
29

>  <a_don>
3

>  <a_donacc>
6

>  <a_heavy>
12

>  <a_hyd>
8

>  <a_IC>
40.865257

>  <a_ICM>
1.4091468

>  <a_nB>
0

>  <a_nBr>
0

>  <a_nC>
9

>  <a_nCl>
0

>  <a_nF>
0

>  <a_nH>
17

>  <a_nI>
0

>  <a_nN>
1

>  <a_nO>
2

>  <a_nP>
0

>  <a_nS>
0

>  <balabanJ>
2.4815419

>  <BCUT_PEOE_0>
-2.8406591

>  <BCUT_PEOE_1>
-0.34290802

>  <BCUT_PEOE_2>
0.34583509

>  <BCUT_PEOE_3>
2.8000414

>  <BCUT_SLOGP_0>
-2.812474

>  <BCUT_SLOGP_1>
-0.30089736

>  <BCUT_SLOGP_2>
0.33713478

>  <BCUT_SLOGP_3>
2.9040453

>  <BCUT_SMR_0>
-2.5898848

>  <BCUT_SMR_1>
-0.17423017

>  <BCUT_SMR_2>
0.44726035

>  <BCUT_SMR_3>
3.0494976

>  <bpol>
18.882519

>  <b_1rotN>
3

>  <b_1rotR>
0.25

>  <b_ar>
0

>  <b_count>
29

>  <b_double>
1

>  <b_heavy>
12

>  <b_max1len>
5

>  <b_rotN>
3

>  <b_rotR>
0.25

>  <b_single>
28

>  <b_triple>
0

>  <chi0>
9.0270977

>  <chi0v>
7.3825598

>  <chi0v_C>
5.9497476

>  <chi0_C>
6.0270977

>  <chi1>
5.684269

>  <chi1v>
4.6037464

>  <chi1v_C>
3.767767

>  <chi1_C>
3.8224618

>  <chiral>
0

>  <chiral_u>
0

>  <density>
0.70112807

>  <diameter>
6

>  <FCharge>
0

>  <GCUT_PEOE_0>
-0.83900243

>  <GCUT_PEOE_1>
-0.37534311

>  <GCUT_PEOE_2>
0.051847741

>  <GCUT_PEOE_3>
2.6580272

>  <GCUT_SLOGP_0>
-1.3635622

>  <GCUT_SLOGP_1>
-0.26710194

>  <GCUT_SLOGP_2>
0.048965909

>  <GCUT_SLOGP_3>
2.7300825

>  <GCUT_SMR_0>
-0.52829653

>  <GCUT_SMR_1>
-0.18329239

>  <GCUT_SMR_2>
0.12533014

>  <GCUT_SMR_3>
2.8760436

>  <Kier1>
10.083333

>  <Kier2>
4.296875

>  <Kier3>
2.7777777

>  <KierA1>
9.3023129

>  <KierA2>
3.932668

>  <KierA3>
2.5264907

>  <KierFlex>
3.0485756

>  <lip_acc>
3

>  <lip_don>
3

>  <lip_druglike>
1

>  <lip_violation>
0

>  <logP(o/w)>
0.99800003

>  <logS>
-1.20859

>  <mr>
4.7572055

>  <mutagenic>
0

>  <nmol>
1

>  <opr_brigid>
6

>  <opr_leadlike>
1

>  <opr_nring>
1

>  <opr_nrot>
5

>  <opr_violation>
0

>  <PC+>
0

>  <PC->
0

>  <PEOE_PC+>
1.1841547

>  <PEOE_PC->
-1.1841547

>  <PEOE_RPC+>
0.21970251

>  <PEOE_RPC->
0.27973816

>  <PEOE_VSA+0>
68.416718

>  <PEOE_VSA+1>
0

>  <PEOE_VSA+2>
17.238026

>  <PEOE_VSA+3>
0

>  <PEOE_VSA+4>
10.324173

>  <PEOE_VSA+5>
14.708499

>  <PEOE_VSA+6>
0

>  <PEOE_VSA-0>
30.594952

>  <PEOE_VSA-1>
26.103939

>  <PEOE_VSA-2>
0

>  <PEOE_VSA-3>
0

>  <PEOE_VSA-4>
0

>  <PEOE_VSA-5>
13.566921

>  <PEOE_VSA-6>
14.418659

>  <PEOE_VSA_FHYD>
0.72862905

>  <PEOE_VSA_FNEG>
0.4334527

>  <PEOE_VSA_FPNEG>
0.14324261

>  <PEOE_VSA_FPOL>
0.27137095

>  <PEOE_VSA_FPOS>
0.56654727

>  <PEOE_VSA_FPPOS>
0.12812832

>  <PEOE_VSA_HYD>
142.35364

>  <PEOE_VSA_NEG>
84.684471

>  <PEOE_VSA_PNEG>
27.98558

>  <PEOE_VSA_POL>
53.018253

>  <PEOE_VSA_POS>
110.68742

>  <PEOE_VSA_PPOS>
25.032671

>  <petitjean>
0.5

>  <petitjeanSC>
1

>  <Q_PC+>
0

>  <Q_PC->
0

>  <Q_RPC+>
0

>  <Q_RPC->
0

>  <Q_VSA_FHYD>
1

>  <Q_VSA_FNEG>
0

>  <Q_VSA_FPNEG>
0

>  <Q_VSA_FPOL>
0

>  <Q_VSA_FPOS>
1

>  <Q_VSA_FPPOS>
0

>  <Q_VSA_HYD>
195.37189

>  <Q_VSA_NEG>
0

>  <Q_VSA_PNEG>
0

>  <Q_VSA_POL>
0

>  <Q_VSA_POS>
195.37189

>  <Q_VSA_PPOS>
0

>  <radius>
3

>  <reactive>
0

>  <rings>
1

>  <RPC+>
0

>  <RPC->
0

>  <rsynth>
0

>  <SlogP>
1.3703001

>  <SlogP_VSA0>
32.897186

>  <SlogP_VSA1>
7.7454643

>  <SlogP_VSA2>
23.862217

>  <SlogP_VSA3>
43.824806

>  <SlogP_VSA4>
0

>  <SlogP_VSA5>
0

>  <SlogP_VSA6>
0

>  <SlogP_VSA7>
0

>  <SlogP_VSA8>
113.21043

>  <SlogP_VSA9>
0

>  <SMR>
4.6825199

>  <SMR_VSA0>
23.862217

>  <SMR_VSA1>
0

>  <SMR_VSA2>
25.385227

>  <SMR_VSA3>
0

>  <SMR_VSA4>
32.897186

>  <SMR_VSA5>
113.21043

>  <SMR_VSA6>
26.185041

>  <SMR_VSA7>
0

>  <TPSA>
63.32

>  <VAdjEq>
0.65002245

>  <VAdjMa>
4.5849624

>  <VDistEq>
2.4121423

>  <VDistMa>
6.8762913

>  <vdw_area>
195.37189

>  <vdw_vol>
244.23499

>  <vsa_acc>
0

>  <vsa_acid>
0

>  <vsa_base>
0

>  <vsa_don>
0

>  <vsa_hyd>
115.15047

>  <vsa_other>
14.708499

>  <vsa_pol>
44.876331

>  <Weight>
171.23999

>  <weinerPath>
193

>  <weinerPol>
15

>  <zagreb>
56

$$$$