Clc1cc2NC(=NS(=O)(=O)c2cc1S(=O)(=O)N)CSCc1ccccc1
  MOE2013           2D

 26 28  0  0  0  0  0  0  0  0999 V2000
    0.0000    0.0000    0.0000 Cl  0  0  0  0  0  0  0  0  0  0  0  0
    1.3000    0.7470    0.0000 C   0  0  0  0  0  0  0  0  0  0  0  0
    2.5980   -0.0050    0.0000 C   0  0  0  0  0  0  0  0  0  0  0  0
    3.8990    0.7420    0.0000 C   0  0  0  0  0  0  0  0  0  0  0  0
    5.1960   -0.0100    0.0000 N   0  0  0  0  0  0  0  0  0  0  0  0
    6.4970    0.7370    0.0000 C   0  0  0  0  0  0  0  0  0  0  0  0
    6.5000    2.2370    0.0000 N   0  0  0  0  0  0  0  0  0  0  0  0
    5.2020    2.9900    0.0000 S   0  0  0  0  0  0  0  0  0  0  0  0
    4.4550    4.2900    0.0000 O   0  0  0  0  0  0  0  0  0  0  0  0
    5.9550    4.2870    0.0000 O   0  0  0  0  0  0  0  0  0  0  0  0
    3.9010    2.2420    0.0000 C   0  0  0  0  0  0  0  0  0  0  0  0
    2.6040    2.9950    0.0000 C   0  0  0  0  0  0  0  0  0  0  0  0
    1.3030    2.2470    0.0000 C   0  0  0  0  0  0  0  0  0  0  0  0
    0.0060    3.0000    0.0000 S   0  0  0  0  0  0  0  0  0  0  0  0
   -0.7470    1.7020    0.0000 O   0  0  0  0  0  0  0  0  0  0  0  0
    0.7580    4.2980    0.0000 O   0  0  0  0  0  0  0  0  0  0  0  0
   -1.2920    3.7530    0.0000 N   0  0  0  0  0  0  0  0  0  0  0  0
    7.7940   -0.0150    0.0000 C   0  0  0  0  0  0  0  0  0  0  0  0
    9.0950    0.7320    0.0000 S   0  0  0  0  0  0  0  0  0  0  0  0
   10.3920   -0.0200    0.0000 C   0  0  0  0  0  0  0  0  0  0  0  0
   11.6930    0.7270    0.0000 C   0  0  0  0  0  0  0  0  0  0  0  0
   11.6960    2.2270    0.0000 C   0  0  0  0  0  0  0  0  0  0  0  0
   12.9960    2.9750    0.0000 C   0  0  0  0  0  0  0  0  0  0  0  0
   14.2940    2.2220    0.0000 C   0  0  0  0  0  0  0  0  0  0  0  0
   14.2910    0.7220    0.0000 C   0  0  0  0  0  0  0  0  0  0  0  0
   12.9900   -0.0250    0.0000 C   0  0  0  0  0  0  0  0  0  0  0  0
  1  2  1  0  0  0  0
  2  3  1  0  0  0  0
  2 13  2  0  0  0  0
  3  4  2  0  0  0  0
  4  5  1  0  0  0  0
  4 11  1  0  0  0  0
  5  6  1  0  0  0  0
  6  7  2  0  0  0  0
  6 18  1  0  0  0  0
  7  8  1  0  0  0  0
  8  9  2  0  0  0  0
  8 10  2  0  0  0  0
  8 11  1  0  0  0  0
 11 12  2  0  0  0  0
 12 13  1  0  0  0  0
 13 14  1  0  0  0  0
 14 15  2  0  0  0  0
 14 16  2  0  0  0  0
 14 17  1  0  0  0  0
 18 19  1  0  0  0  0
 19 20  1  0  0  0  0
 20 21  1  0  0  0  0
 21 22  1  0  0  0  0
 21 26  2  0  0  0  0
 22 23  2  0  0  0  0
 23 24  1  0  0  0  0
 24 25  2  0  0  0  0
 25 26  1  0  0  0  0
M  END
>  <Index>
1450

>  <ID>
HT0255

>  <class>
1

>  <apol>
53.1231

>  <ast_fraglike>
0

>  <ast_fraglike_ext>
0

>  <ast_violation>
2

>  <ast_violation_ext>
4

>  <a_acc>
5

>  <a_acid>
0

>  <a_aro>
12

>  <a_base>
0

>  <a_count>
40

>  <a_don>
2

>  <a_donacc>
7

>  <a_heavy>
26

>  <a_hyd>
16

>  <a_IC>
83.461021

>  <a_ICM>
2.0865254

>  <a_nB>
0

>  <a_nBr>
0

>  <a_nC>
15

>  <a_nCl>
1

>  <a_nF>
0

>  <a_nH>
14

>  <a_nI>
0

>  <a_nN>
3

>  <a_nO>
4

>  <a_nP>
0

>  <a_nS>
3

>  <balabanJ>
1.5455066

>  <BCUT_PEOE_0>
-2.4639423

>  <BCUT_PEOE_1>
-0.51997757

>  <BCUT_PEOE_2>
0.58220941

>  <BCUT_PEOE_3>
2.4959204

>  <BCUT_SLOGP_0>
-2.5739591

>  <BCUT_SLOGP_1>
-0.41819003

>  <BCUT_SLOGP_2>
0.68457401

>  <BCUT_SLOGP_3>
2.5553005

>  <BCUT_SMR_0>
-2.0857947

>  <BCUT_SMR_1>
-0.39089093

>  <BCUT_SMR_2>
0.79008085

>  <BCUT_SMR_3>
2.8322961

>  <bpol>
32.276897

>  <b_1rotN>
5

>  <b_1rotR>
0.17857143

>  <b_ar>
12

>  <b_count>
42

>  <b_double>
1

>  <b_heavy>
28

>  <b_max1len>
4

>  <b_rotN>
5

>  <b_rotR>
0.17857143

>  <b_single>
29

>  <b_triple>
0

>  <chi0>
18.949383

>  <chi0v>
16.42135

>  <chi0v_C>
8.4556656

>  <chi0_C>
9.828063

>  <chi1>
12.165651

>  <chi1v>
11.77467

>  <chi1v_C>
4.272491

>  <chi1_C>
5.932653

>  <chiral>
0

>  <chiral_u>
0

>  <density>
0.94046634

>  <diameter>
14

>  <FCharge>
0

>  <GCUT_PEOE_0>
-0.91999567

>  <GCUT_PEOE_1>
-0.39675659

>  <GCUT_PEOE_2>
0.058854736

>  <GCUT_PEOE_3>
2.5329356

>  <GCUT_SLOGP_0>
-1.3482747

>  <GCUT_SLOGP_1>
-0.41896391

>  <GCUT_SLOGP_2>
0.16445385

>  <GCUT_SLOGP_3>
2.6037221

>  <GCUT_SMR_0>
-0.44015875

>  <GCUT_SMR_1>
-0.18006726

>  <GCUT_SMR_2>
0.23279381

>  <GCUT_SMR_3>
2.8448443

>  <Kier1>
20.727041

>  <Kier2>
8.1632652

>  <Kier3>
5.0934258

>  <KierA1>
20.545588

>  <KierA2>
8.08887

>  <KierA3>
5.0457025

>  <KierFlex>
6.3919458

>  <lip_acc>
7

>  <lip_don>
3

>  <lip_druglike>
1

>  <lip_violation>
0

>  <logP(o/w)>
2.7079999

>  <logS>
-5.8038702

>  <mr>
10.36478

>  <mutagenic>
0

>  <nmol>
1

>  <opr_brigid>
17

>  <opr_leadlike>
1

>  <opr_nring>
3

>  <opr_nrot>
5

>  <opr_violation>
0

>  <PC+>
0

>  <PC->
0

>  <PEOE_PC+>
2.019464

>  <PEOE_PC->
-2.019464

>  <PEOE_RPC+>
0.15789032

>  <PEOE_RPC->
0.22060379

>  <PEOE_VSA+0>
85.569504

>  <PEOE_VSA+1>
36.557255

>  <PEOE_VSA+2>
4.5197463

>  <PEOE_VSA+3>
22.360512

>  <PEOE_VSA+4>
0

>  <PEOE_VSA+5>
0

>  <PEOE_VSA+6>
8.3692026

>  <PEOE_VSA-0>
14.463444

>  <PEOE_VSA-1>
90.856468

>  <PEOE_VSA-2>
40.091728

>  <PEOE_VSA-3>
28.804367

>  <PEOE_VSA-4>
32.016521

>  <PEOE_VSA-5>
0

>  <PEOE_VSA-6>
0.13689101

>  <PEOE_VSA_FHYD>
0.8885963

>  <PEOE_VSA_FNEG>
0.56734544

>  <PEOE_VSA_FPNEG>
0.088395327

>  <PEOE_VSA_FPOL>
0.11140372

>  <PEOE_VSA_FPOS>
0.43265459

>  <PEOE_VSA_FPPOS>
0.023008393

>  <PEOE_VSA_HYD>
323.22302

>  <PEOE_VSA_NEG>
206.36942

>  <PEOE_VSA_PNEG>
32.153416

>  <PEOE_VSA_POL>
40.522617

>  <PEOE_VSA_POS>
157.37622

>  <PEOE_VSA_PPOS>
8.3692026

>  <petitjean>
0.5

>  <petitjeanSC>
1

>  <Q_PC+>
0

>  <Q_PC->
0

>  <Q_RPC+>
0

>  <Q_RPC->
0

>  <Q_VSA_FHYD>
1

>  <Q_VSA_FNEG>
0

>  <Q_VSA_FPNEG>
0

>  <Q_VSA_FPOL>
0

>  <Q_VSA_FPOS>
1

>  <Q_VSA_FPPOS>
0

>  <Q_VSA_HYD>
363.74564

>  <Q_VSA_NEG>
0

>  <Q_VSA_PNEG>
0

>  <Q_VSA_POL>
0

>  <Q_VSA_POS>
363.74564

>  <Q_VSA_PPOS>
0

>  <radius>
7

>  <reactive>
0

>  <rings>
3

>  <RPC+>
0

>  <RPC->
0

>  <rsynth>
1

>  <SlogP>
2.6998999

>  <SlogP_VSA0>
31.291433

>  <SlogP_VSA1>
116.68204

>  <SlogP_VSA2>
13.281486

>  <SlogP_VSA3>
17.233564

>  <SlogP_VSA4>
3.185575

>  <SlogP_VSA5>
18.281244

>  <SlogP_VSA6>
3.5006065

>  <SlogP_VSA7>
123.50229

>  <SlogP_VSA8>
0

>  <SlogP_VSA9>
91.358498

>  <SMR>
10.38787

>  <SMR_VSA0>
96.343376

>  <SMR_VSA1>
15.179776

>  <SMR_VSA2>
3.1014678

>  <SMR_VSA3>
6.6861815

>  <SMR_VSA4>
52.058933

>  <SMR_VSA5>
140.73586

>  <SMR_VSA6>
19.561485

>  <SMR_VSA7>
84.649673

>  <TPSA>
118.69

>  <VAdjEq>
0.41210872

>  <VAdjMa>
5.8073549

>  <VDistEq>
3.5744481

>  <VDistMa>
9.0791292

>  <vdw_area>
363.74564

>  <vdw_vol>
459.28809

>  <vsa_acc>
72.108253

>  <vsa_acid>
0

>  <vsa_base>
0

>  <vsa_don>
25.817696

>  <vsa_hyd>
217.36818

>  <vsa_other>
31.401779

>  <vsa_pol>
97.925949

>  <Weight>
431.94501

>  <weinerPath>
1784

>  <weinerPol>
42

>  <zagreb>
140

$$$$