Clc1cc(C(=O)NCCc2ccc(S(=O)(=O)NC(=O)NC3CCCCC3)cc2)c(OC)cc1
  MOE2013           2D

 33 35  0  0  0  0  0  0  0  0999 V2000
    0.0000    0.0000    0.0000 Cl  0  0  0  0  0  0  0  0  0  0  0  0
    0.7580   -1.2940    0.0000 C   0  0  0  0  0  0  0  0  0  0  0  0
    2.2580   -1.2850    0.0000 C   0  0  0  0  0  0  0  0  0  0  0  0
    3.0160   -2.5800    0.0000 C   0  0  0  0  0  0  0  0  0  0  0  0
    4.5160   -2.5700    0.0000 C   0  0  0  0  0  0  0  0  0  0  0  0
    5.2740   -3.8650    0.0000 O   0  0  0  0  0  0  0  0  0  0  0  0
    5.2580   -1.2670    0.0000 N   0  0  0  0  0  0  0  0  0  0  0  0
    6.7580   -1.2570    0.0000 C   0  0  0  0  0  0  0  0  0  0  0  0
    7.5000    0.0460    0.0000 C   0  0  0  0  0  0  0  0  0  0  0  0
    9.0000    0.0550    0.0000 C   0  0  0  0  0  0  0  0  0  0  0  0
    9.7420    1.3590    0.0000 C   0  0  0  0  0  0  0  0  0  0  0  0
   11.2420    1.3680    0.0000 C   0  0  0  0  0  0  0  0  0  0  0  0
   12.0000    0.0740    0.0000 C   0  0  0  0  0  0  0  0  0  0  0  0
   13.5000    0.0830    0.0000 S   0  0  0  0  0  0  0  0  0  0  0  0
   13.5090   -1.4170    0.0000 O   0  0  0  0  0  0  0  0  0  0  0  0
   13.4910    1.5830    0.0000 O   0  0  0  0  0  0  0  0  0  0  0  0
   15.0000    0.0920    0.0000 N   0  0  0  0  0  0  0  0  0  0  0  0
   15.7420    1.3960    0.0000 C   0  0  0  0  0  0  0  0  0  0  0  0
   14.9840    2.6900    0.0000 O   0  0  0  0  0  0  0  0  0  0  0  0
   17.2420    1.4050    0.0000 N   0  0  0  0  0  0  0  0  0  0  0  0
   17.9840    2.7090    0.0000 C   0  0  0  0  0  0  0  0  0  0  0  0
   19.4840    2.7180    0.0000 C   0  0  0  0  0  0  0  0  0  0  0  0
   20.2260    4.0220    0.0000 C   0  0  0  0  0  0  0  0  0  0  0  0
   19.4680    5.3160    0.0000 C   0  0  0  0  0  0  0  0  0  0  0  0
   17.9680    5.3070    0.0000 C   0  0  0  0  0  0  0  0  0  0  0  0
   17.2260    4.0030    0.0000 C   0  0  0  0  0  0  0  0  0  0  0  0
   11.2580   -1.2300    0.0000 C   0  0  0  0  0  0  0  0  0  0  0  0
    9.7580   -1.2390    0.0000 C   0  0  0  0  0  0  0  0  0  0  0  0
    2.2740   -3.8830    0.0000 C   0  0  0  0  0  0  0  0  0  0  0  0
    3.0320   -5.1780    0.0000 O   0  0  0  0  0  0  0  0  0  0  0  0
    2.2900   -6.4810    0.0000 C   0  0  0  0  0  0  0  0  0  0  0  0
    0.7740   -3.8920    0.0000 C   0  0  0  0  0  0  0  0  0  0  0  0
    0.0160   -2.5980    0.0000 C   0  0  0  0  0  0  0  0  0  0  0  0
  1  2  1  0  0  0  0
  2  3  1  0  0  0  0
  2 33  2  0  0  0  0
  3  4  2  0  0  0  0
  4  5  1  0  0  0  0
  4 29  1  0  0  0  0
  5  6  2  0  0  0  0
  5  7  1  0  0  0  0
  7  8  1  0  0  0  0
  8  9  1  0  0  0  0
  9 10  1  0  0  0  0
 10 11  1  0  0  0  0
 10 28  2  0  0  0  0
 11 12  2  0  0  0  0
 12 13  1  0  0  0  0
 13 14  1  0  0  0  0
 13 27  2  0  0  0  0
 14 15  2  0  0  0  0
 14 16  2  0  0  0  0
 14 17  1  0  0  0  0
 17 18  1  0  0  0  0
 18 19  2  0  0  0  0
 18 20  1  0  0  0  0
 20 21  1  0  0  0  0
 21 22  1  0  0  0  0
 21 26  1  0  0  0  0
 22 23  1  0  0  0  0
 23 24  1  0  0  0  0
 24 25  1  0  0  0  0
 25 26  1  0  0  0  0
 27 28  1  0  0  0  0
 29 30  1  0  0  0  0
 29 32  2  0  0  0  0
 30 31  1  0  0  0  0
 32 33  1  0  0  0  0
M  END
>  <Index>
1588

>  <ID>
HT0995

>  <class>
1

>  <apol>
71.540207

>  <ast_fraglike>
0

>  <ast_fraglike_ext>
0

>  <ast_violation>
3

>  <ast_violation_ext>
5

>  <a_acc>
5

>  <a_acid>
0

>  <a_aro>
12

>  <a_base>
0

>  <a_count>
61

>  <a_don>
3

>  <a_donacc>
8

>  <a_heavy>
33

>  <a_hyd>
22

>  <a_IC>
106.76259

>  <a_ICM>
1.7502064

>  <a_nB>
0

>  <a_nBr>
0

>  <a_nC>
23

>  <a_nCl>
1

>  <a_nF>
0

>  <a_nH>
28

>  <a_nI>
0

>  <a_nN>
3

>  <a_nO>
5

>  <a_nP>
0

>  <a_nS>
1

>  <balabanJ>
1.3389518

>  <BCUT_PEOE_0>
-2.8065374

>  <BCUT_PEOE_1>
-0.62590206

>  <BCUT_PEOE_2>
0.59882605

>  <BCUT_PEOE_3>
2.7123089

>  <BCUT_SLOGP_0>
-2.7951713

>  <BCUT_SLOGP_1>
-0.53807992

>  <BCUT_SLOGP_2>
0.7126022

>  <BCUT_SLOGP_3>
2.8320704

>  <BCUT_SMR_0>
-2.5291383

>  <BCUT_SMR_1>
-0.42762235

>  <BCUT_SMR_2>
0.78269184

>  <BCUT_SMR_3>
2.9867754

>  <bpol>
43.317795

>  <b_1rotN>
8

>  <b_1rotR>
0.22857143

>  <b_ar>
12

>  <b_count>
63

>  <b_double>
2

>  <b_heavy>
35

>  <b_max1len>
4

>  <b_rotN>
11

>  <b_rotR>
0.31428573

>  <b_single>
49

>  <b_triple>
0

>  <chi0>
23.846724

>  <chi0v>
19.96843

>  <chi0v_C>
14.068549

>  <chi0_C>
15.518297

>  <chi1>
15.780025

>  <chi1v>
12.683991

>  <chi1v_C>
7.4794512

>  <chi1_C>
9.1573982

>  <chiral>
0

>  <chiral_u>
0

>  <density>
0.80306673

>  <diameter>
19

>  <FCharge>
0

>  <GCUT_PEOE_0>
-0.91882569

>  <GCUT_PEOE_1>
-0.42632425

>  <GCUT_PEOE_2>
0.064852886

>  <GCUT_PEOE_3>
2.678035

>  <GCUT_SLOGP_0>
-1.1809708

>  <GCUT_SLOGP_1>
-0.35167611

>  <GCUT_SLOGP_2>
0.16445385

>  <GCUT_SLOGP_3>
2.7148163

>  <GCUT_SMR_0>
-0.52668738

>  <GCUT_SMR_1>
-0.20723963

>  <GCUT_SMR_2>
0.1867782

>  <GCUT_SMR_3>
2.9380269

>  <Kier1>
27.585306

>  <Kier2>
13.347222

>  <Kier3>
8.5612364

>  <KierA1>
23.425711

>  <KierA2>
11.273905

>  <KierA3>
7.2031708

>  <KierFlex>
8.0030079

>  <lip_acc>
8

>  <lip_don>
3

>  <lip_druglike>
1

>  <lip_violation>
0

>  <logP(o/w)>
4.1360002

>  <logS>
-5.8825898

>  <mr>
12.977388

>  <mutagenic>
0

>  <nmol>
1

>  <opr_brigid>
18

>  <opr_leadlike>
1

>  <opr_nring>
3

>  <opr_nrot>
9

>  <opr_violation>
1

>  <PC+>
0

>  <PC->
0

>  <PEOE_PC+>
2.7494471

>  <PEOE_PC->
-2.7494471

>  <PEOE_RPC+>
0.11513105

>  <PEOE_RPC->
0.17967504

>  <PEOE_VSA+0>
131.20033

>  <PEOE_VSA+1>
61.939934

>  <PEOE_VSA+2>
17.440542

>  <PEOE_VSA+3>
17.238026

>  <PEOE_VSA+4>
10.105608

>  <PEOE_VSA+5>
12.949531

>  <PEOE_VSA+6>
4.1846013

>  <PEOE_VSA-0>
124.74948

>  <PEOE_VSA-1>
55.685886

>  <PEOE_VSA-2>
0

>  <PEOE_VSA-3>
2.5295215

>  <PEOE_VSA-4>
0

>  <PEOE_VSA-5>
13.566921

>  <PEOE_VSA-6>
16.34446

>  <PEOE_VSA_FHYD>
0.8778652

>  <PEOE_VSA_FNEG>
0.45492718

>  <PEOE_VSA_FPNEG>
0.063922107

>  <PEOE_VSA_FPOL>
0.12213478

>  <PEOE_VSA_FPOS>
0.54507285

>  <PEOE_VSA_FPPOS>
0.058212679

>  <PEOE_VSA_HYD>
410.78372

>  <PEOE_VSA_NEG>
212.87627

>  <PEOE_VSA_PNEG>
29.911381

>  <PEOE_VSA_POL>
57.151119

>  <PEOE_VSA_POS>
255.05856

>  <PEOE_VSA_PPOS>
27.23974

>  <petitjean>
0.47368422

>  <petitjeanSC>
0.89999998

>  <Q_PC+>
0

>  <Q_PC->
0

>  <Q_RPC+>
0

>  <Q_RPC->
0

>  <Q_VSA_FHYD>
1

>  <Q_VSA_FNEG>
0

>  <Q_VSA_FPNEG>
0

>  <Q_VSA_FPOL>
0

>  <Q_VSA_FPOS>
1

>  <Q_VSA_FPPOS>
0

>  <Q_VSA_HYD>
467.93484

>  <Q_VSA_NEG>
0

>  <Q_VSA_PNEG>
0

>  <Q_VSA_POL>
0

>  <Q_VSA_POS>
467.93484

>  <Q_VSA_PPOS>
0

>  <radius>
10

>  <reactive>
0

>  <rings>
3

>  <RPC+>
0

>  <RPC->
0

>  <rsynth>
1

>  <SlogP>
3.64167

>  <SlogP_VSA0>
63.426388

>  <SlogP_VSA1>
58.260429

>  <SlogP_VSA2>
10.622711

>  <SlogP_VSA3>
18.439579

>  <SlogP_VSA4>
30.233366

>  <SlogP_VSA5>
55.803009

>  <SlogP_VSA6>
3.5006065

>  <SlogP_VSA7>
123.50229

>  <SlogP_VSA8>
94.342026

>  <SlogP_VSA9>
68.254288

>  <SMR>
12.62094

>  <SMR_VSA0>
95.896118

>  <SMR_VSA1>
10.999887

>  <SMR_VSA2>
53.977234

>  <SMR_VSA3>
19.097153

>  <SMR_VSA4>
0

>  <SMR_VSA5>
236.71272

>  <SMR_VSA6>
28.528318

>  <SMR_VSA7>
81.173256

>  <TPSA>
113.6

>  <VAdjEq>
0.3442024

>  <VAdjMa>
6.129283

>  <VDistEq>
4.0739555

>  <VDistMa>
9.7481441

>  <vdw_area>
467.93484

>  <vdw_vol>
615.15686

>  <vsa_acc>
61.654121

>  <vsa_acid>
0

>  <vsa_base>
0

>  <vsa_don>
19.440359

>  <vsa_hyd>
319.3298

>  <vsa_other>
40.495682

>  <vsa_pol>
81.094482

>  <Weight>
494.01199

>  <weinerPath>
3998

>  <weinerPol>
49

>  <zagreb>
166

$$$$