O1C[C@]2([C@H](CC1=O)CC[C@H]1[C@@H]3CC[C@@](O)(C)[C@]3(CC[C@@H]12)C)C
  MOE2013           2D

 22 25  0  0  1  0  0  0  0  0999 V2000
    0.0000    0.0000    0.0000 O   0  0  0  0  0  0  0  0  0  0  0  0
   -1.5000   -0.0110    0.0000 C   0  0  0  0  0  0  0  0  0  0  0  0
   -2.2600    1.2820    0.0000 C   0  0  1  0  0  0  0  0  0  0  0  0
   -1.5200    2.5870    0.0000 C   0  0  2  0  0  0  0  0  0  0  0  0
   -0.0200    2.5980    0.0000 C   0  0  0  0  0  0  0  0  0  0  0  0
    0.7400    1.3050    0.0000 C   0  0  0  0  0  0  0  0  0  0  0  0
    2.2400    1.3160    0.0000 O   0  0  0  0  0  0  0  0  0  0  0  0
   -2.2800    3.8800    0.0000 C   0  0  0  0  0  0  0  0  0  0  0  0
   -3.7800    3.8680    0.0000 C   0  0  0  0  0  0  0  0  0  0  0  0
   -4.5200    2.5640    0.0000 C   0  0  1  0  0  0  0  0  0  0  0  0
   -6.0200    2.5520    0.0000 C   0  0  2  0  0  0  0  0  0  0  0  0
   -7.0320    3.6590    0.0000 C   0  0  0  0  0  0  0  0  0  0  0  0
   -8.3970    3.0390    0.0000 C   0  0  0  0  0  0  0  0  0  0  0  0
   -8.2290    1.5480    0.0000 C   0  0  1  0  0  0  0  0  0  0  0  0
   -8.6060    0.0960    0.0000 O   0  0  0  0  0  0  0  0  0  0  0  0
   -9.6880    1.1990    0.0000 C   0  0  0  0  0  0  0  0  0  0  0  0
   -6.7600    1.2470    0.0000 C   0  0  1  0  0  0  0  0  0  0  0  0
   -6.0000   -0.0460    0.0000 C   0  0  0  0  0  0  0  0  0  0  0  0
   -4.5000   -0.0340    0.0000 C   0  0  0  0  0  0  0  0  0  0  0  0
   -3.7600    1.2700    0.0000 C   0  0  2  0  0  0  0  0  0  0  0  0
   -7.6320    0.0270    0.0000 C   0  0  0  0  0  0  0  0  0  0  0  0
   -3.0230   -0.0100    0.0000 C   0  0  0  0  0  0  0  0  0  0  0  0
  1  2  1  0  0  0  0
  1  6  1  0  0  0  0
  2  3  1  0  0  0  0
  3  4  1  0  0  0  0
  3 20  1  0  0  0  0
  3 22  1  1  0  0  0
  4  5  1  1  0  0  0
  4  8  1  0  0  0  0
  5  6  1  0  0  0  0
  6  7  2  0  0  0  0
  8  9  1  0  0  0  0
 10  9  1  6  0  0  0
 10 11  1  0  0  0  0
 10 20  1  0  0  0  0
 11 12  1  1  0  0  0
 11 17  1  0  0  0  0
 12 13  1  0  0  0  0
 13 14  1  0  0  0  0
 14 15  1  1  0  0  0
 14 16  1  6  0  0  0
 14 17  1  0  0  0  0
 17 18  1  0  0  0  0
 17 21  1  1  0  0  0
 18 19  1  0  0  0  0
 20 19  1  1  0  0  0
M  END
>  <Index>
1679

>  <ID>
HT1553

>  <class>
1

>  <apol>
55.849789

>  <ast_fraglike>
0

>  <ast_fraglike_ext>
0

>  <ast_violation>
2

>  <ast_violation_ext>
2

>  <a_acc>
2

>  <a_acid>
0

>  <a_aro>
0

>  <a_base>
0

>  <a_count>
52

>  <a_don>
1

>  <a_donacc>
3

>  <a_heavy>
22

>  <a_hyd>
18

>  <a_IC>
63.750637

>  <a_ICM>
1.2259738

>  <a_nB>
0

>  <a_nBr>
0

>  <a_nC>
19

>  <a_nCl>
0

>  <a_nF>
0

>  <a_nH>
30

>  <a_nI>
0

>  <a_nN>
0

>  <a_nO>
3

>  <a_nP>
0

>  <a_nS>
0

>  <balabanJ>
1.6365592

>  <BCUT_PEOE_0>
-2.9725442

>  <BCUT_PEOE_1>
-0.27697176

>  <BCUT_PEOE_2>
0.36924973

>  <BCUT_PEOE_3>
2.9838138

>  <BCUT_SLOGP_0>
-2.9166718

>  <BCUT_SLOGP_1>
-0.32170168

>  <BCUT_SLOGP_2>
0.30246115

>  <BCUT_SLOGP_3>
3.0483334

>  <BCUT_SMR_0>
-2.7239404

>  <BCUT_SMR_1>
-0.16496411

>  <BCUT_SMR_2>
0.46678028

>  <BCUT_SMR_3>
3.2325296

>  <bpol>
35.670212

>  <b_1rotN>
0

>  <b_1rotR>
0

>  <b_ar>
0

>  <b_count>
55

>  <b_double>
1

>  <b_heavy>
25

>  <b_max1len>
4

>  <b_rotN>
0

>  <b_rotR>
0

>  <b_single>
54

>  <b_triple>
0

>  <chi0>
15.750712

>  <chi0v>
14.229965

>  <chi0v_C>
12.966255

>  <chi0_C>
13.043606

>  <chi1>
10.27844

>  <chi1v>
9.1586771

>  <chi1v_C>
8.2381468

>  <chi1_C>
8.2928419

>  <chiral>
7

>  <chiral_u>
0

>  <density>
0.69201952

>  <diameter>
10

>  <FCharge>
0

>  <GCUT_PEOE_0>
-0.8048287

>  <GCUT_PEOE_1>
-0.38620374

>  <GCUT_PEOE_2>
-0.048570089

>  <GCUT_PEOE_3>
3.3383865

>  <GCUT_SLOGP_0>
-0.88377202

>  <GCUT_SLOGP_1>
-0.29547352

>  <GCUT_SLOGP_2>
-0.037

>  <GCUT_SLOGP_3>
3.4074192

>  <GCUT_SMR_0>
-0.54160661

>  <GCUT_SMR_1>
-0.17456019

>  <GCUT_SMR_2>
0.059700873

>  <GCUT_SMR_3>
3.5549526

>  <Kier1>
15.5232

>  <Kier2>
4.7619047

>  <Kier3>
1.9771072

>  <KierA1>
14.877172

>  <KierA2>
4.5541172

>  <KierA3>
1.8879508

>  <KierFlex>
3.0796542

>  <lip_acc>
3

>  <lip_don>
1

>  <lip_druglike>
1

>  <lip_violation>
0

>  <logP(o/w)>
3.7449999

>  <logS>
-3.9266

>  <mr>
8.4977913

>  <mutagenic>
0

>  <nmol>
1

>  <opr_brigid>
20

>  <opr_leadlike>
1

>  <opr_nring>
4

>  <opr_nrot>
0

>  <opr_violation>
0

>  <PC+>
0

>  <PC->
0

>  <PEOE_PC+>
1.4994543

>  <PEOE_PC->
-1.4994543

>  <PEOE_RPC+>
0.17503744

>  <PEOE_RPC->
0.25895947

>  <PEOE_VSA+0>
123.86674

>  <PEOE_VSA+1>
23.482065

>  <PEOE_VSA+2>
0

>  <PEOE_VSA+3>
0

>  <PEOE_VSA+4>
10.324173

>  <PEOE_VSA+5>
14.708499

>  <PEOE_VSA+6>
0

>  <PEOE_VSA-0>
70.955559

>  <PEOE_VSA-1>
37.495354

>  <PEOE_VSA-2>
0

>  <PEOE_VSA-3>
0

>  <PEOE_VSA-4>
0

>  <PEOE_VSA-5>
13.566921

>  <PEOE_VSA-6>
10.271297

>  <PEOE_VSA_FHYD>
0.83959436

>  <PEOE_VSA_FNEG>
0.43420377

>  <PEOE_VSA_FPNEG>
0.078242593

>  <PEOE_VSA_FPOL>
0.16040567

>  <PEOE_VSA_FPOS>
0.5657962

>  <PEOE_VSA_FPPOS>
0.082163073

>  <PEOE_VSA_HYD>
255.79971

>  <PEOE_VSA_NEG>
132.28912

>  <PEOE_VSA_PNEG>
23.838217

>  <PEOE_VSA_POL>
48.870888

>  <PEOE_VSA_POS>
172.38147

>  <PEOE_VSA_PPOS>
25.032671

>  <petitjean>
0.5

>  <petitjeanSC>
1

>  <Q_PC+>
0

>  <Q_PC->
0

>  <Q_RPC+>
0

>  <Q_RPC->
0

>  <Q_VSA_FHYD>
1

>  <Q_VSA_FNEG>
0

>  <Q_VSA_FPNEG>
0

>  <Q_VSA_FPOL>
0

>  <Q_VSA_FPOS>
1

>  <Q_VSA_FPPOS>
0

>  <Q_VSA_HYD>
304.67059

>  <Q_VSA_NEG>
0

>  <Q_VSA_PNEG>
0

>  <Q_VSA_POL>
0

>  <Q_VSA_POS>
304.67059

>  <Q_VSA_PPOS>
0

>  <radius>
5

>  <reactive>
1

>  <rings>
4

>  <RPC+>
0

>  <RPC->
0

>  <rsynth>
0

>  <SlogP>
3.5431001

>  <SlogP_VSA0>
25.385227

>  <SlogP_VSA1>
7.7454643

>  <SlogP_VSA2>
34.862103

>  <SlogP_VSA3>
20.926258

>  <SlogP_VSA4>
17.643185

>  <SlogP_VSA5>
0

>  <SlogP_VSA6>
0

>  <SlogP_VSA7>
0

>  <SlogP_VSA8>
132.07884

>  <SlogP_VSA9>
99.978043

>  <SMR>
8.4075804

>  <SMR_VSA0>
34.862103

>  <SMR_VSA1>
25.385227

>  <SMR_VSA2>
17.643185

>  <SMR_VSA3>
0

>  <SMR_VSA4>
0

>  <SMR_VSA5>
132.07884

>  <SMR_VSA6>
28.671722

>  <SMR_VSA7>
99.978043

>  <TPSA>
46.529999

>  <VAdjEq>
0.47938794

>  <VAdjMa>
5.643856

>  <VDistEq>
2.9879878

>  <VDistMa>
8.6431408

>  <vdw_area>
304.67059

>  <vdw_vol>
442.82855

>  <vsa_acc>
13.566921

>  <vsa_acid>
0

>  <vsa_base>
0

>  <vsa_don>
0

>  <vsa_hyd>
229.77745

>  <vsa_other>
17.212255

>  <vsa_pol>
27.133842

>  <Weight>
306.44598

>  <weinerPath>
907

>  <weinerPol>
48

>  <zagreb>
134

$$$$