S1[C@H]2N(C(C(O)=O)=C(C1)C)C(=O)[C@H]2NC(=O)[C@H](N)c1ccc(O)cc1
  MOE2013           2D

 25 27  0  0  1  0  0  0  0  0999 V2000
    0.0000    0.0000    0.0000 S   0  0  0  0  0  0  0  0  0  0  0  0
    0.7500    1.2990    0.0000 C   0  0  1  0  0  0  0  0  0  0  0  0
    0.0010    2.5980    0.0000 N   0  0  0  0  0  0  0  0  0  0  0  0
   -1.4990    2.5980    0.0000 C   0  0  0  0  0  0  0  0  0  0  0  0
   -2.2490    3.8980    0.0000 C   0  0  0  0  0  0  0  0  0  0  0  0
   -1.4990    5.1970    0.0000 O   0  0  0  0  0  0  0  0  0  0  0  0
   -3.7490    3.8980    0.0000 O   0  0  0  0  0  0  0  0  0  0  0  0
   -2.2500    1.3000    0.0000 C   0  0  0  0  0  0  0  0  0  0  0  0
   -1.5000    0.0000    0.0000 C   0  0  0  0  0  0  0  0  0  0  0  0
   -3.7500    1.3000    0.0000 C   0  0  0  0  0  0  0  0  0  0  0  0
    1.3000    3.3480    0.0000 C   0  0  0  0  0  0  0  0  0  0  0  0
    1.6890    4.7970    0.0000 O   0  0  0  0  0  0  0  0  0  0  0  0
    2.0500    2.0490    0.0000 C   0  0  1  0  0  0  0  0  0  0  0  0
    3.4980    1.6600    0.0000 N   0  0  0  0  0  0  0  0  0  0  0  0
    4.5590    2.7200    0.0000 C   0  0  0  0  0  0  0  0  0  0  0  0
    4.1710    4.1690    0.0000 O   0  0  0  0  0  0  0  0  0  0  0  0
    6.0080    2.3320    0.0000 C   0  0  2  0  0  0  0  0  0  0  0  0
    6.3960    0.8830    0.0000 N   0  0  0  0  0  0  0  0  0  0  0  0
    7.0690    3.3920    0.0000 C   0  0  0  0  0  0  0  0  0  0  0  0
    8.5180    3.0030    0.0000 C   0  0  0  0  0  0  0  0  0  0  0  0
    9.5790    4.0640    0.0000 C   0  0  0  0  0  0  0  0  0  0  0  0
    9.1910    5.5130    0.0000 C   0  0  0  0  0  0  0  0  0  0  0  0
   10.2520    6.5730    0.0000 O   0  0  0  0  0  0  0  0  0  0  0  0
    7.7420    5.9010    0.0000 C   0  0  0  0  0  0  0  0  0  0  0  0
    6.6810    4.8410    0.0000 C   0  0  0  0  0  0  0  0  0  0  0  0
  1  9  1  0  0  0  0
  2  1  1  1  0  0  0
  2  3  1  0  0  0  0
  2 13  1  0  0  0  0
  3  4  1  0  0  0  0
  3 11  1  0  0  0  0
  4  5  1  0  0  0  0
  4  8  2  0  0  0  0
  5  6  1  0  0  0  0
  5  7  2  0  0  0  0
  8  9  1  0  0  0  0
  8 10  1  0  0  0  0
 11 12  2  0  0  0  0
 11 13  1  0  0  0  0
 13 14  1  1  0  0  0
 14 15  1  0  0  0  0
 15 16  2  0  0  0  0
 15 17  1  0  0  0  0
 17 18  1  1  0  0  0
 17 19  1  0  0  0  0
 19 20  1  0  0  0  0
 19 25  2  0  0  0  0
 20 21  2  0  0  0  0
 21 22  1  0  0  0  0
 22 23  1  0  0  0  0
 22 24  2  0  0  0  0
 24 25  1  0  0  0  0
M  END
>  <Index>
1464

>  <ID>
HT0395

>  <class>
1

>  <apol>
49.705482

>  <ast_fraglike>
0

>  <ast_fraglike_ext>
0

>  <ast_violation>
3

>  <ast_violation_ext>
5

>  <a_acc>
6

>  <a_acid>
0

>  <a_aro>
6

>  <a_base>
0

>  <a_count>
42

>  <a_don>
5

>  <a_donacc>
11

>  <a_heavy>
25

>  <a_hyd>
14

>  <a_IC>
76.625938

>  <a_ICM>
1.824427

>  <a_nB>
0

>  <a_nBr>
0

>  <a_nC>
16

>  <a_nCl>
0

>  <a_nF>
0

>  <a_nH>
17

>  <a_nI>
0

>  <a_nN>
3

>  <a_nO>
5

>  <a_nP>
0

>  <a_nS>
1

>  <balabanJ>
1.5682645

>  <BCUT_PEOE_0>
-2.6902122

>  <BCUT_PEOE_1>
-0.60587215

>  <BCUT_PEOE_2>
0.64513403

>  <BCUT_PEOE_3>
2.7353396

>  <BCUT_SLOGP_0>
-2.8977118

>  <BCUT_SLOGP_1>
-0.5557009

>  <BCUT_SLOGP_2>
0.62303197

>  <BCUT_SLOGP_3>
2.6263168

>  <BCUT_SMR_0>
-2.4045298

>  <BCUT_SMR_1>
-0.44290727

>  <BCUT_SMR_2>
0.78926039

>  <BCUT_SMR_3>
3.0180736

>  <bpol>
25.718519

>  <b_1rotN>
4

>  <b_1rotR>
0.14814815

>  <b_ar>
6

>  <b_count>
44

>  <b_double>
4

>  <b_heavy>
27

>  <b_max1len>
3

>  <b_rotN>
5

>  <b_rotR>
0.18518518

>  <b_single>
34

>  <b_triple>
0

>  <chi0>
18.3006

>  <chi0v>
14.11704

>  <chi0v_C>
9.248559

>  <chi0_C>
10.309036

>  <chi1>
11.807438

>  <chi1v>
8.5844183

>  <chi1v_C>
4.3742795

>  <chi1_C>
5.6185918

>  <chiral>
3

>  <chiral_u>
0

>  <density>
0.8425687

>  <diameter>
13

>  <FCharge>
0

>  <GCUT_PEOE_0>
-0.82509035

>  <GCUT_PEOE_1>
-0.44155777

>  <GCUT_PEOE_2>
0.09281753

>  <GCUT_PEOE_3>
2.6050718

>  <GCUT_SLOGP_0>
-1.337459

>  <GCUT_SLOGP_1>
-0.404378

>  <GCUT_SLOGP_2>
0.13488308

>  <GCUT_SLOGP_3>
2.5834644

>  <GCUT_SMR_0>
-0.52949601

>  <GCUT_SMR_1>
-0.23435509

>  <GCUT_SMR_2>
0.22154671

>  <GCUT_SMR_3>
2.881062

>  <Kier1>
19.753086

>  <Kier2>
7.9349999

>  <Kier3>
3.8399999

>  <KierA1>
16.084623

>  <KierA2>
6.4025898

>  <KierA3>
3.0772526

>  <KierFlex>
4.1193295

>  <lip_acc>
8

>  <lip_don>
5

>  <lip_druglike>
1

>  <lip_violation>
0

>  <logP(o/w)>
-0.029999999

>  <logS>
-2.6814499

>  <mr>
9.1089172

>  <mutagenic>
0

>  <nmol>
1

>  <opr_brigid>
15

>  <opr_leadlike>
1

>  <opr_nring>
3

>  <opr_nrot>
4

>  <opr_violation>
0

>  <PC+>
0

>  <PC->
0

>  <PEOE_PC+>
2.8283119

>  <PEOE_PC->
-2.8283119

>  <PEOE_RPC+>
0.10886435

>  <PEOE_RPC->
0.12722513

>  <PEOE_VSA+0>
32.004307

>  <PEOE_VSA+1>
38.316223

>  <PEOE_VSA+2>
35.351521

>  <PEOE_VSA+3>
8.6190128

>  <PEOE_VSA+4>
33.597878

>  <PEOE_VSA+5>
12.949531

>  <PEOE_VSA+6>
14.708499

>  <PEOE_VSA-0>
47.674564

>  <PEOE_VSA-1>
24.509808

>  <PEOE_VSA-2>
19.760618

>  <PEOE_VSA-3>
0

>  <PEOE_VSA-4>
0

>  <PEOE_VSA-5>
40.700764

>  <PEOE_VSA-6>
22.323092

>  <PEOE_VSA_FHYD>
0.62398243

>  <PEOE_VSA_FNEG>
0.46886969

>  <PEOE_VSA_FPNEG>
0.19068332

>  <PEOE_VSA_FPOL>
0.3760176

>  <PEOE_VSA_FPOS>
0.53113031

>  <PEOE_VSA_FPPOS>
0.18533427

>  <PEOE_VSA_HYD>
206.23605

>  <PEOE_VSA_NEG>
154.96884

>  <PEOE_VSA_PNEG>
63.023853

>  <PEOE_VSA_POL>
124.27976

>  <PEOE_VSA_POS>
175.54697

>  <PEOE_VSA_PPOS>
61.255905

>  <petitjean>
0.46153846

>  <petitjeanSC>
0.85714287

>  <Q_PC+>
0

>  <Q_PC->
0

>  <Q_RPC+>
0

>  <Q_RPC->
0

>  <Q_VSA_FHYD>
1

>  <Q_VSA_FNEG>
0

>  <Q_VSA_FPNEG>
0

>  <Q_VSA_FPOL>
0

>  <Q_VSA_FPOS>
1

>  <Q_VSA_FPPOS>
0

>  <Q_VSA_HYD>
330.51581

>  <Q_VSA_NEG>
0

>  <Q_VSA_PNEG>
0

>  <Q_VSA_POL>
0

>  <Q_VSA_POS>
330.51581

>  <Q_VSA_PPOS>
0

>  <radius>
7

>  <reactive>
0

>  <rings>
3

>  <RPC+>
0

>  <RPC->
0

>  <rsynth>
1

>  <SlogP>
0.24600001

>  <SlogP_VSA0>
76.293167

>  <SlogP_VSA1>
21.387344

>  <SlogP_VSA2>
77.915749

>  <SlogP_VSA3>
42.61879

>  <SlogP_VSA4>
3.185575

>  <SlogP_VSA5>
5.9423227

>  <SlogP_VSA6>
0

>  <SlogP_VSA7>
70.572739

>  <SlogP_VSA8>
3.9819686

>  <SlogP_VSA9>
70.788986

>  <SMR>
9.0505695

>  <SMR_VSA0>
71.586647

>  <SMR_VSA1>
28.509541

>  <SMR_VSA2>
43.395977

>  <SMR_VSA3>
24.68239

>  <SMR_VSA4>
32.897186

>  <SMR_VSA5>
70.572739

>  <SMR_VSA6>
35.496597

>  <SMR_VSA7>
65.545555

>  <TPSA>
132.96001

>  <VAdjEq>
0.42433795

>  <VAdjMa>
5.7548876

>  <VDistEq>
3.475621

>  <VDistMa>
8.980792

>  <vdw_area>
330.51581

>  <vdw_vol>
431.293

>  <vsa_acc>
27.133842

>  <vsa_acid>
0

>  <vsa_base>
0

>  <vsa_don>
5.6825762

>  <vsa_hyd>
171.83746

>  <vsa_other>
40.607563

>  <vsa_pol>
91.259666

>  <Weight>
363.39398

>  <weinerPath>
1570

>  <weinerPol>
41

>  <zagreb>
134

$$$$