Clc1ccc(cc1)C1(CCC1)C(N(C)C)CC(C)C
  MOE2013           2D

 19 20  0  0  1  0  0  0  0  0999 V2000
    0.0000    0.0000    0.0000 Cl  0  0  0  0  0  0  0  0  0  0  0  0
   -1.5000   -0.0090    0.0000 C   0  0  0  0  0  0  0  0  0  0  0  0
   -2.2420   -1.3120    0.0000 C   0  0  0  0  0  0  0  0  0  0  0  0
   -3.7420   -1.3210    0.0000 C   0  0  0  0  0  0  0  0  0  0  0  0
   -4.5000   -0.0260    0.0000 C   0  0  0  0  0  0  0  0  0  0  0  0
   -3.7570    1.2770    0.0000 C   0  0  0  0  0  0  0  0  0  0  0  0
   -2.2570    1.2860    0.0000 C   0  0  0  0  0  0  0  0  0  0  0  0
   -6.0000   -0.0350    0.0000 C   0  0  0  0  0  0  0  0  0  0  0  0
   -6.0240   -1.5350    0.0000 C   0  0  0  0  0  0  0  0  0  0  0  0
   -7.5240   -1.5100    0.0000 C   0  0  0  0  0  0  0  0  0  0  0  0
   -7.5000   -0.0110    0.0000 C   0  0  0  0  0  0  0  0  0  0  0  0
   -6.2040    1.4510    0.0000 C   0  0  3  0  0  0  0  0  0  0  0  0
   -7.5930    2.0170    0.0000 N   0  0  0  0  0  0  0  0  0  0  0  0
   -7.7980    3.5030    0.0000 C   0  0  0  0  0  0  0  0  0  0  0  0
   -8.7780    1.0970    0.0000 C   0  0  0  0  0  0  0  0  0  0  0  0
   -5.0200    2.3710    0.0000 C   0  0  0  0  0  0  0  0  0  0  0  0
   -5.2240    3.8570    0.0000 C   0  0  0  0  0  0  0  0  0  0  0  0
   -4.0390    4.7770    0.0000 C   0  0  0  0  0  0  0  0  0  0  0  0
   -6.6130    4.4230    0.0000 C   0  0  0  0  0  0  0  0  0  0  0  0
  1  2  1  0  0  0  0
  2  3  1  0  0  0  0
  2  7  2  0  0  0  0
  3  4  2  0  0  0  0
  4  5  1  0  0  0  0
  5  6  2  0  0  0  0
  5  8  1  0  0  0  0
  6  7  1  0  0  0  0
  8  9  1  0  0  0  0
  8 11  1  0  0  0  0
  8 12  1  0  0  0  0
  9 10  1  0  0  0  0
 10 11  1  0  0  0  0
 12 13  1  0  0  0  0
 12 16  1  0  0  0  0
 13 14  1  0  0  0  0
 13 15  1  0  0  0  0
 16 17  1  0  0  0  0
 17 18  1  0  0  0  0
 17 19  1  0  0  0  0
M  END
>  <Index>
1723

>  <ID>
HT1884

>  <class>
1

>  <apol>
50.536617

>  <ast_fraglike>
0

>  <ast_fraglike_ext>
0

>  <ast_violation>
1

>  <ast_violation_ext>
2

>  <a_acc>
1

>  <a_acid>
0

>  <a_aro>
6

>  <a_base>
0

>  <a_count>
45

>  <a_don>
0

>  <a_donacc>
1

>  <a_heavy>
19

>  <a_hyd>
18

>  <a_IC>
55.435089

>  <a_ICM>
1.2318908

>  <a_nB>
0

>  <a_nBr>
0

>  <a_nC>
17

>  <a_nCl>
1

>  <a_nF>
0

>  <a_nH>
26

>  <a_nI>
0

>  <a_nN>
1

>  <a_nO>
0

>  <a_nP>
0

>  <a_nS>
0

>  <balabanJ>
2.1088128

>  <BCUT_PEOE_0>
-2.8882565

>  <BCUT_PEOE_1>
-0.42196965

>  <BCUT_PEOE_2>
0.43891165

>  <BCUT_PEOE_3>
2.8368025

>  <BCUT_SLOGP_0>
-2.8653493

>  <BCUT_SLOGP_1>
-0.25219807

>  <BCUT_SLOGP_2>
0.54129553

>  <BCUT_SLOGP_3>
2.9059484

>  <BCUT_SMR_0>
-2.6245706

>  <BCUT_SMR_1>
-0.20217025

>  <BCUT_SMR_2>
0.61403406

>  <BCUT_SMR_3>
3.1000469

>  <bpol>
30.823381

>  <b_1rotN>
5

>  <b_1rotR>
0.25

>  <b_ar>
6

>  <b_count>
46

>  <b_double>
0

>  <b_heavy>
20

>  <b_max1len>
7

>  <b_rotN>
5

>  <b_rotR>
0.25

>  <b_single>
40

>  <b_triple>
0

>  <chi0>
14.043606

>  <chi0v>
13.373635

>  <chi0v_C>
11.792529

>  <chi0_C>
12.466255

>  <chi1>
8.9540319

>  <chi1v>
7.7579188

>  <chi1v_C>
6.0383463

>  <chi1_C>
6.8886476

>  <chiral>
1

>  <chiral_u>
1

>  <density>
0.67022526

>  <diameter>
9

>  <FCharge>
0

>  <GCUT_PEOE_0>
-0.86000216

>  <GCUT_PEOE_1>
-0.3576664

>  <GCUT_PEOE_2>
-0.048475984

>  <GCUT_PEOE_3>
2.8871276

>  <GCUT_SLOGP_0>
-0.95604146

>  <GCUT_SLOGP_1>
-0.2345264

>  <GCUT_SLOGP_2>
0.04764973

>  <GCUT_SLOGP_3>
2.9652066

>  <GCUT_SMR_0>
-0.58233452

>  <GCUT_SMR_1>
-0.10906976

>  <GCUT_SMR_2>
0.10349238

>  <GCUT_SMR_3>
3.1335404

>  <Kier1>
15.39

>  <Kier2>
6.1854935

>  <Kier3>
3.1911356

>  <KierA1>
14.587584

>  <KierA2>
5.844707

>  <KierA3>
3.0080004

>  <KierFlex>
4.4873762

>  <lip_acc>
1

>  <lip_don>
0

>  <lip_druglike>
1

>  <lip_violation>
0

>  <logP(o/w)>
5.1849999

>  <logS>
-4.4282298

>  <mr>
8.3470612

>  <mutagenic>
0

>  <nmol>
1

>  <opr_brigid>
10

>  <opr_leadlike>
1

>  <opr_nring>
2

>  <opr_nrot>
5

>  <opr_violation>
1

>  <PC+>
0

>  <PC->
0

>  <PEOE_PC+>
0.99252254

>  <PEOE_PC->
-0.99252254

>  <PEOE_RPC+>
0.06369146

>  <PEOE_RPC->
0.30686095

>  <PEOE_VSA+0>
101.5042

>  <PEOE_VSA+1>
17.061544

>  <PEOE_VSA+2>
0

>  <PEOE_VSA+3>
0

>  <PEOE_VSA+4>
0

>  <PEOE_VSA+5>
0

>  <PEOE_VSA+6>
0

>  <PEOE_VSA-0>
99.299667

>  <PEOE_VSA-1>
100.28842

>  <PEOE_VSA-2>
0

>  <PEOE_VSA-3>
0

>  <PEOE_VSA-4>
0

>  <PEOE_VSA-5>
0

>  <PEOE_VSA-6>
0

>  <PEOE_VSA_FHYD>
1

>  <PEOE_VSA_FNEG>
0.62733203

>  <PEOE_VSA_FPNEG>
0

>  <PEOE_VSA_FPOL>
0

>  <PEOE_VSA_FPOS>
0.37266797

>  <PEOE_VSA_FPPOS>
0

>  <PEOE_VSA_HYD>
318.15384

>  <PEOE_VSA_NEG>
199.58809

>  <PEOE_VSA_PNEG>
0

>  <PEOE_VSA_POL>
0

>  <PEOE_VSA_POS>
118.56574

>  <PEOE_VSA_PPOS>
0

>  <petitjean>
0.44444445

>  <petitjeanSC>
0.80000001

>  <Q_PC+>
0

>  <Q_PC->
0

>  <Q_RPC+>
0

>  <Q_RPC->
0

>  <Q_VSA_FHYD>
1

>  <Q_VSA_FNEG>
0

>  <Q_VSA_FPNEG>
0

>  <Q_VSA_FPOL>
0

>  <Q_VSA_FPOS>
1

>  <Q_VSA_FPPOS>
0

>  <Q_VSA_HYD>
318.15384

>  <Q_VSA_NEG>
0

>  <Q_VSA_PNEG>
0

>  <Q_VSA_POL>
0

>  <Q_VSA_POS>
318.15384

>  <Q_VSA_PPOS>
0

>  <radius>
5

>  <reactive>
0

>  <rings>
2

>  <RPC+>
0

>  <RPC->
0

>  <rsynth>
0

>  <SlogP>
4.7379999

>  <SlogP_VSA0>
0

>  <SlogP_VSA1>
3.1243138

>  <SlogP_VSA2>
3.9819686

>  <SlogP_VSA3>
0

>  <SlogP_VSA4>
7.5963712

>  <SlogP_VSA5>
65.794373

>  <SlogP_VSA6>
3.5006065

>  <SlogP_VSA7>
70.572739

>  <SlogP_VSA8>
75.473625

>  <SlogP_VSA9>
105.80067

>  <SMR>
8.3910999

>  <SMR_VSA0>
0

>  <SMR_VSA1>
3.1243138

>  <SMR_VSA2>
4.4107962

>  <SMR_VSA3>
10.66815

>  <SMR_VSA4>
0

>  <SMR_VSA5>
146.04636

>  <SMR_VSA6>
0

>  <SMR_VSA7>
171.59505

>  <TPSA>
3.24

>  <VAdjEq>
0.5023343

>  <VAdjMa>
5.321928

>  <VDistEq>
2.9029338

>  <VDistMa>
8.2332516

>  <vdw_area>
318.15384

>  <vdw_vol>
417.55365

>  <vsa_acc>
0

>  <vsa_acid>
0

>  <vsa_base>
0

>  <vsa_don>
0

>  <vsa_hyd>
298.30209

>  <vsa_other>
0

>  <vsa_pol>
0

>  <Weight>
279.85498

>  <weinerPath>
666

>  <weinerPol>
29

>  <zagreb>
98

$$$$