Clc1cc2NC(N(S(=O)(=O)c2cc1S(=O)(=O)N)C)CSCC(F)(F)F
  MOE2013           2D

 25 26  0  0  1  0  0  0  0  0999 V2000
    0.0000    0.0000    0.0000 Cl  0  0  0  0  0  0  0  0  0  0  0  0
    0.7530   -1.2970    0.0000 C   0  0  0  0  0  0  0  0  0  0  0  0
    2.2530   -1.2940    0.0000 C   0  0  0  0  0  0  0  0  0  0  0  0
    3.0060   -2.5910    0.0000 C   0  0  0  0  0  0  0  0  0  0  0  0
    4.5060   -2.5870    0.0000 N   0  0  0  0  0  0  0  0  0  0  0  0
    5.2590   -3.8850    0.0000 C   0  0  3  0  0  0  0  0  0  0  0  0
    4.5120   -5.1860    0.0000 N   0  0  3  0  0  0  0  0  0  0  0  0
    3.0120   -5.1890    0.0000 S   0  0  0  0  0  0  0  0  0  0  0  0
    3.0160   -6.6890    0.0000 O   0  0  0  0  0  0  0  0  0  0  0  0
    1.7150   -5.9420    0.0000 O   0  0  0  0  0  0  0  0  0  0  0  0
    2.2590   -3.8920    0.0000 C   0  0  0  0  0  0  0  0  0  0  0  0
    0.7590   -3.8950    0.0000 C   0  0  0  0  0  0  0  0  0  0  0  0
    0.0060   -2.5980    0.0000 C   0  0  0  0  0  0  0  0  0  0  0  0
   -1.4940   -2.6020    0.0000 S   0  0  0  0  0  0  0  0  0  0  0  0
   -1.4970   -1.1020    0.0000 O   0  0  0  0  0  0  0  0  0  0  0  0
   -1.4900   -4.1020    0.0000 O   0  0  0  0  0  0  0  0  0  0  0  0
   -2.9940   -2.6050    0.0000 N   0  0  0  0  0  0  0  0  0  0  0  0
    5.2650   -6.4830    0.0000 C   0  0  0  0  0  0  0  0  0  0  0  0
    6.7590   -3.8810    0.0000 C   0  0  0  0  0  0  0  0  0  0  0  0
    7.5060   -2.5800    0.0000 S   0  0  0  0  0  0  0  0  0  0  0  0
    9.0060   -2.5770    0.0000 C   0  0  0  0  0  0  0  0  0  0  0  0
    9.7530   -1.2760    0.0000 C   0  0  0  0  0  0  0  0  0  0  0  0
   11.0540   -2.0230    0.0000 F   0  0  0  0  0  0  0  0  0  0  0  0
   10.5000    0.0250    0.0000 F   0  0  0  0  0  0  0  0  0  0  0  0
    8.4520   -0.5290    0.0000 F   0  0  0  0  0  0  0  0  0  0  0  0
  1  2  1  0  0  0  0
  2  3  1  0  0  0  0
  2 13  2  0  0  0  0
  3  4  2  0  0  0  0
  4  5  1  0  0  0  0
  4 11  1  0  0  0  0
  5  6  1  0  0  0  0
  6  7  1  0  0  0  0
  6 19  1  0  0  0  0
  7  8  1  0  0  0  0
  7 18  1  0  0  0  0
  8  9  2  0  0  0  0
  8 10  2  0  0  0  0
  8 11  1  0  0  0  0
 11 12  2  0  0  0  0
 12 13  1  0  0  0  0
 13 14  1  0  0  0  0
 14 15  2  0  0  0  0
 14 16  2  0  0  0  0
 14 17  1  0  0  0  0
 19 20  1  0  0  0  0
 20 21  1  0  0  0  0
 21 22  1  0  0  0  0
 22 23  1  0  0  0  0
 22 24  1  0  0  0  0
 22 25  1  0  0  0  0
M  END
>  <Index>
1696

>  <ID>
HT1708

>  <class>
1

>  <apol>
47.087311

>  <ast_fraglike>
0

>  <ast_fraglike_ext>
0

>  <ast_violation>
2

>  <ast_violation_ext>
4

>  <a_acc>
4

>  <a_acid>
0

>  <a_aro>
6

>  <a_base>
0

>  <a_count>
38

>  <a_don>
2

>  <a_donacc>
6

>  <a_heavy>
25

>  <a_hyd>
15

>  <a_IC>
90.997116

>  <a_ICM>
2.3946609

>  <a_nB>
0

>  <a_nBr>
0

>  <a_nC>
11

>  <a_nCl>
1

>  <a_nF>
3

>  <a_nH>
13

>  <a_nI>
0

>  <a_nN>
3

>  <a_nO>
4

>  <a_nP>
0

>  <a_nS>
3

>  <balabanJ>
2.0970788

>  <BCUT_PEOE_0>
-2.6668706

>  <BCUT_PEOE_1>
-0.24766694

>  <BCUT_PEOE_2>
0.27372965

>  <BCUT_PEOE_3>
2.6487429

>  <BCUT_SLOGP_0>
-2.7850661

>  <BCUT_SLOGP_1>
-0.3339

>  <BCUT_SLOGP_2>
0.460621

>  <BCUT_SLOGP_3>
2.5875826

>  <BCUT_SMR_0>
-2.3481848

>  <BCUT_SMR_1>
-0.056510188

>  <BCUT_SMR_2>
0.49218705

>  <BCUT_SMR_3>
2.9680531

>  <bpol>
35.45269

>  <b_1rotN>
4

>  <b_1rotR>
0.15384616

>  <b_ar>
6

>  <b_count>
39

>  <b_double>
0

>  <b_heavy>
26

>  <b_max1len>
6

>  <b_rotN>
5

>  <b_rotR>
0.1923077

>  <b_single>
33

>  <b_triple>
0

>  <chi0>
19.206743

>  <chi0v>
15.745843

>  <chi0v_C>
6.6462646

>  <chi0_C>
7.2151785

>  <chi1>
11.232018

>  <chi1v>
11.006108

>  <chi1v_C>
2.4165022

>  <chi1_C>
3.0614614

>  <chiral>
1

>  <chiral_u>
1

>  <density>
1.0701537

>  <diameter>
12

>  <FCharge>
0

>  <GCUT_PEOE_0>
-0.88568264

>  <GCUT_PEOE_1>
-0.37444565

>  <GCUT_PEOE_2>
-0.055644751

>  <GCUT_PEOE_3>
2.6623631

>  <GCUT_SLOGP_0>
-1.3482822

>  <GCUT_SLOGP_1>
-0.4252938

>  <GCUT_SLOGP_2>
0.24147694

>  <GCUT_SLOGP_3>
2.6669462

>  <GCUT_SMR_0>
-0.50268692

>  <GCUT_SMR_1>
-0.11113491

>  <GCUT_SMR_2>
0.19065481

>  <GCUT_SMR_3>
2.9430687

>  <Kier1>
21.301775

>  <Kier2>
7.197279

>  <Kier3>
4.8379841

>  <KierA1>
23.555952

>  <KierA2>
7.9927177

>  <KierA3>
5.389689

>  <KierFlex>
7.5310431

>  <lip_acc>
7

>  <lip_don>
3

>  <lip_druglike>
1

>  <lip_violation>
0

>  <logP(o/w)>
0.55176002

>  <logS>
-4.1602402

>  <mr>
8.9332962

>  <mutagenic>
0

>  <nmol>
1

>  <opr_brigid>
11

>  <opr_leadlike>
1

>  <opr_nring>
2

>  <opr_nrot>
4

>  <opr_violation>
0

>  <PC+>
0

>  <PC->
0

>  <PEOE_PC+>
2.1754093

>  <PEOE_PC->
-2.1754093

>  <PEOE_RPC+>
0.18332817

>  <PEOE_RPC->
0.17575203

>  <PEOE_VSA+0>
99.041931

>  <PEOE_VSA+1>
19.208147

>  <PEOE_VSA+2>
16.774651

>  <PEOE_VSA+3>
10.105608

>  <PEOE_VSA+4>
0

>  <PEOE_VSA+5>
0

>  <PEOE_VSA+6>
17.414705

>  <PEOE_VSA-0>
31.551292

>  <PEOE_VSA-1>
29.581947

>  <PEOE_VSA-2>
32.016521

>  <PEOE_VSA-3>
64.530273

>  <PEOE_VSA-4>
32.016521

>  <PEOE_VSA-5>
0

>  <PEOE_VSA-6>
0.13689101

>  <PEOE_VSA_FHYD>
0.85933274

>  <PEOE_VSA_FNEG>
0.53872031

>  <PEOE_VSA_FPNEG>
0.091246814

>  <PEOE_VSA_FPOL>
0.14066726

>  <PEOE_VSA_FPOS>
0.46127969

>  <PEOE_VSA_FPPOS>
0.049420454

>  <PEOE_VSA_HYD>
302.81036

>  <PEOE_VSA_NEG>
189.83345

>  <PEOE_VSA_PNEG>
32.153416

>  <PEOE_VSA_POL>
49.568119

>  <PEOE_VSA_POS>
162.54504

>  <PEOE_VSA_PPOS>
17.414705

>  <petitjean>
0.5

>  <petitjeanSC>
1

>  <Q_PC+>
0

>  <Q_PC->
0

>  <Q_RPC+>
0

>  <Q_RPC->
0

>  <Q_VSA_FHYD>
1

>  <Q_VSA_FNEG>
0

>  <Q_VSA_FPNEG>
0

>  <Q_VSA_FPOL>
0

>  <Q_VSA_FPOS>
1

>  <Q_VSA_FPPOS>
0

>  <Q_VSA_HYD>
352.37851

>  <Q_VSA_NEG>
0

>  <Q_VSA_PNEG>
0

>  <Q_VSA_POL>
0

>  <Q_VSA_POS>
352.37851

>  <Q_VSA_PPOS>
0

>  <radius>
6

>  <reactive>
0

>  <rings>
2

>  <RPC+>
0

>  <RPC->
0

>  <rsynth>
1

>  <SlogP>
1.655

>  <SlogP_VSA0>
31.291433

>  <SlogP_VSA1>
123.6322

>  <SlogP_VSA2>
16.834627

>  <SlogP_VSA3>
34.467129

>  <SlogP_VSA4>
0

>  <SlogP_VSA5>
35.998657

>  <SlogP_VSA6>
3.5006065

>  <SlogP_VSA7>
35.286369

>  <SlogP_VSA8>
0

>  <SlogP_VSA9>
119.00527

>  <SMR>
8.8565702

>  <SMR_VSA0>
96.343376

>  <SMR_VSA1>
46.398899

>  <SMR_VSA2>
10.860984

>  <SMR_VSA3>
7.0537477

>  <SMR_VSA4>
52.058933

>  <SMR_VSA5>
35.286369

>  <SMR_VSA6>
34.467129

>  <SMR_VSA7>
117.54686

>  <TPSA>
109.57

>  <VAdjEq>
0.41335541

>  <VAdjMa>
5.7004399

>  <VDistEq>
3.3713751

>  <VDistMa>
8.9906902

>  <vdw_area>
352.37851

>  <vdw_vol>
411.05029

>  <vsa_acc>
64.033043

>  <vsa_acid>
0

>  <vsa_base>
0

>  <vsa_don>
25.817696

>  <vsa_hyd>
214.78804

>  <vsa_other>
31.401779

>  <vsa_pol>
89.850746

>  <Weight>
439.88699

>  <weinerPath>
1486

>  <weinerPol>
43

>  <zagreb>
136

$$$$