S(=O)(=O)(NC(=O)NC1CCC(CC1)C)c1ccc(cc1)CCNC(=O)n1cc(C)c(CC)c1O
  MOE2013           2D

 34 36  0  0  0  0  0  0  0  0999 V2000
    0.0000    0.0000    0.0000 S   0  0  0  0  0  0  0  0  0  0  0  0
    0.7460   -1.3020    0.0000 O   0  0  0  0  0  0  0  0  0  0  0  0
   -0.7460    1.3020    0.0000 O   0  0  0  0  0  0  0  0  0  0  0  0
   -1.3020   -0.7460    0.0000 N   0  0  0  0  0  0  0  0  0  0  0  0
   -2.5980    0.0090    0.0000 C   0  0  0  0  0  0  0  0  0  0  0  0
   -2.5930    1.5090    0.0000 O   0  0  0  0  0  0  0  0  0  0  0  0
   -3.9000   -0.7370    0.0000 N   0  0  0  0  0  0  0  0  0  0  0  0
   -5.1960    0.0170    0.0000 C   0  0  0  0  0  0  0  0  0  0  0  0
   -6.4980   -0.7280    0.0000 C   0  0  0  0  0  0  0  0  0  0  0  0
   -7.7940    0.0260    0.0000 C   0  0  0  0  0  0  0  0  0  0  0  0
   -7.7890    1.5260    0.0000 C   0  0  0  0  0  0  0  0  0  0  0  0
   -6.4880    2.2720    0.0000 C   0  0  0  0  0  0  0  0  0  0  0  0
   -5.1910    1.5170    0.0000 C   0  0  0  0  0  0  0  0  0  0  0  0
   -9.0860    2.2800    0.0000 C   0  0  0  0  0  0  0  0  0  0  0  0
    1.3020    0.7460    0.0000 C   0  0  0  0  0  0  0  0  0  0  0  0
    1.3070    2.2460    0.0000 C   0  0  0  0  0  0  0  0  0  0  0  0
    2.6080    2.9910    0.0000 C   0  0  0  0  0  0  0  0  0  0  0  0
    3.9050    2.2370    0.0000 C   0  0  0  0  0  0  0  0  0  0  0  0
    3.9000    0.7370    0.0000 C   0  0  0  0  0  0  0  0  0  0  0  0
    2.5980   -0.0090    0.0000 C   0  0  0  0  0  0  0  0  0  0  0  0
    5.2060    2.9830    0.0000 C   0  0  0  0  0  0  0  0  0  0  0  0
    6.5030    2.2280    0.0000 C   0  0  0  0  0  0  0  0  0  0  0  0
    7.8040    2.9740    0.0000 N   0  0  0  0  0  0  0  0  0  0  0  0
    9.1010    2.2200    0.0000 C   0  0  0  0  0  0  0  0  0  0  0  0
    9.0960    0.7200    0.0000 O   0  0  0  0  0  0  0  0  0  0  0  0
   10.4020    2.9650    0.0000 N   0  0  0  0  0  0  0  0  0  0  0  0
   10.5640    4.4570    0.0000 C   0  0  0  0  0  0  0  0  0  0  0  0
   12.0320    4.7640    0.0000 C   0  0  0  0  0  0  0  0  0  0  0  0
   12.6470    6.1320    0.0000 C   0  0  0  0  0  0  0  0  0  0  0  0
   12.7780    3.4620    0.0000 C   0  0  0  0  0  0  0  0  0  0  0  0
   14.2690    3.3000    0.0000 C   0  0  0  0  0  0  0  0  0  0  0  0
   15.1550    4.5110    0.0000 C   0  0  0  0  0  0  0  0  0  0  0  0
   11.7710    2.3510    0.0000 C   0  0  0  0  0  0  0  0  0  0  0  0
   12.0770    0.8830    0.0000 O   0  0  0  0  0  0  0  0  0  0  0  0
  1  2  2  0  0  0  0
  1  3  2  0  0  0  0
  1  4  1  0  0  0  0
  1 15  1  0  0  0  0
  4  5  1  0  0  0  0
  5  6  2  0  0  0  0
  5  7  1  0  0  0  0
  7  8  1  0  0  0  0
  8  9  1  0  0  0  0
  8 13  1  0  0  0  0
  9 10  1  0  0  0  0
 10 11  1  0  0  0  0
 11 12  1  0  0  0  0
 11 14  1  0  0  0  0
 12 13  1  0  0  0  0
 15 16  1  0  0  0  0
 15 20  2  0  0  0  0
 16 17  2  0  0  0  0
 17 18  1  0  0  0  0
 18 19  2  0  0  0  0
 18 21  1  0  0  0  0
 19 20  1  0  0  0  0
 21 22  1  0  0  0  0
 22 23  1  0  0  0  0
 23 24  1  0  0  0  0
 24 25  2  0  0  0  0
 24 26  1  0  0  0  0
 26 27  1  0  0  0  0
 26 33  1  0  0  0  0
 27 28  2  0  0  0  0
 28 29  1  0  0  0  0
 28 30  1  0  0  0  0
 30 31  1  0  0  0  0
 30 33  2  0  0  0  0
 31 32  1  0  0  0  0
 33 34  1  0  0  0  0
M  END
>  <Index>
1586

>  <ID>
HT0987

>  <class>
1

>  <apol>
76.220963

>  <ast_fraglike>
0

>  <ast_fraglike_ext>
0

>  <ast_violation>
4

>  <ast_violation_ext>
6

>  <a_acc>
5

>  <a_acid>
0

>  <a_aro>
11

>  <a_base>
0

>  <a_count>
68

>  <a_don>
4

>  <a_donacc>
9

>  <a_heavy>
34

>  <a_hyd>
21

>  <a_IC>
111.325

>  <a_ICM>
1.6371323

>  <a_nB>
0

>  <a_nBr>
0

>  <a_nC>
24

>  <a_nCl>
0

>  <a_nF>
0

>  <a_nH>
34

>  <a_nI>
0

>  <a_nN>
4

>  <a_nO>
5

>  <a_nP>
0

>  <a_nS>
1

>  <balabanJ>
1.3324606

>  <BCUT_PEOE_0>
-2.8325849

>  <BCUT_PEOE_1>
-0.57575065

>  <BCUT_PEOE_2>
0.59302819

>  <BCUT_PEOE_3>
2.743803

>  <BCUT_SLOGP_0>
-2.8103786

>  <BCUT_SLOGP_1>
-0.45190454

>  <BCUT_SLOGP_2>
0.63906235

>  <BCUT_SLOGP_3>
2.8500581

>  <BCUT_SMR_0>
-2.5590606

>  <BCUT_SMR_1>
-0.38833919

>  <BCUT_SMR_2>
0.74830139

>  <BCUT_SMR_3>
3.0148993

>  <bpol>
49.521038

>  <b_1rotN>
8

>  <b_1rotR>
0.22222222

>  <b_ar>
11

>  <b_count>
70

>  <b_double>
2

>  <b_heavy>
36

>  <b_max1len>
4

>  <b_rotN>
11

>  <b_rotR>
0.30555555

>  <b_single>
57

>  <b_triple>
0

>  <chi0>
24.880104

>  <chi0v>
20.743364

>  <chi0v_C>
15.491199

>  <chi0_C>
16.681435

>  <chi1>
16.101393

>  <chi1v>
13.18884

>  <chi1v_C>
8.2345991

>  <chi1_C>
9.5192051

>  <chiral>
0

>  <chiral_u>
0

>  <density>
0.76031059

>  <diameter>
21

>  <FCharge>
0

>  <GCUT_PEOE_0>
-0.91891181

>  <GCUT_PEOE_1>
-0.39826414

>  <GCUT_PEOE_2>
0.064314611

>  <GCUT_PEOE_3>
2.7449446

>  <GCUT_SLOGP_0>
-1.1809947

>  <GCUT_SLOGP_1>
-0.34774441

>  <GCUT_SLOGP_2>
0.14671864

>  <GCUT_SLOGP_3>
2.7849457

>  <GCUT_SMR_0>
-0.53027713

>  <GCUT_SMR_1>
-0.21212026

>  <GCUT_SMR_2>
0.18112977

>  <GCUT_SMR_3>
2.9995108

>  <Kier1>
28.569445

>  <Kier2>
12.991926

>  <Kier3>
7.9979844

>  <KierA1>
23.54707

>  <KierA2>
10.641977

>  <KierA3>
6.5228949

>  <KierFlex>
7.3702164

>  <lip_acc>
9

>  <lip_don>
4

>  <lip_druglike>
1

>  <lip_violation>
0

>  <logP(o/w)>
4.1849999

>  <logS>
-4.8182402

>  <mr>
13.207117

>  <mutagenic>
0

>  <nmol>
1

>  <opr_brigid>
17

>  <opr_leadlike>
0

>  <opr_nring>
3

>  <opr_nrot>
9

>  <opr_violation>
2

>  <PC+>
0

>  <PC->
0

>  <PEOE_PC+>
2.9781141

>  <PEOE_PC->
-2.9781141

>  <PEOE_RPC+>
0.11035655

>  <PEOE_RPC->
0.16587915

>  <PEOE_VSA+0>
163.29124

>  <PEOE_VSA+1>
29.945944

>  <PEOE_VSA+2>
17.440542

>  <PEOE_VSA+3>
30.187557

>  <PEOE_VSA+4>
20.429781

>  <PEOE_VSA+5>
0

>  <PEOE_VSA+6>
21.625143

>  <PEOE_VSA-0>
117.6423

>  <PEOE_VSA-1>
54.89798

>  <PEOE_VSA-2>
0

>  <PEOE_VSA-3>
2.5295215

>  <PEOE_VSA-4>
13.566921

>  <PEOE_VSA-5>
0

>  <PEOE_VSA-6>
21.608244

>  <PEOE_VSA_FHYD>
0.84339917

>  <PEOE_VSA_FNEG>
0.42631754

>  <PEOE_VSA_FPNEG>
0.071325317

>  <PEOE_VSA_FPOL>
0.15660086

>  <PEOE_VSA_FPOS>
0.57368243

>  <PEOE_VSA_FPPOS>
0.085275538

>  <PEOE_VSA_HYD>
415.93509

>  <PEOE_VSA_NEG>
210.24496

>  <PEOE_VSA_PNEG>
35.175163

>  <PEOE_VSA_POL>
77.230087

>  <PEOE_VSA_POS>
282.9202

>  <PEOE_VSA_PPOS>
42.054924

>  <petitjean>
0.47619048

>  <petitjeanSC>
0.90909094

>  <Q_PC+>
0

>  <Q_PC->
0

>  <Q_RPC+>
0

>  <Q_RPC->
0

>  <Q_VSA_FHYD>
1

>  <Q_VSA_FNEG>
0

>  <Q_VSA_FPNEG>
0

>  <Q_VSA_FPOL>
0

>  <Q_VSA_FPOS>
1

>  <Q_VSA_FPPOS>
0

>  <Q_VSA_HYD>
493.16516

>  <Q_VSA_NEG>
0

>  <Q_VSA_PNEG>
0

>  <Q_VSA_POL>
0

>  <Q_VSA_POS>
493.16516

>  <Q_VSA_PPOS>
0

>  <radius>
11

>  <reactive>
0

>  <rings>
3

>  <RPC+>
0

>  <RPC->
0

>  <rsynth>
0.7647059

>  <SlogP>
3.4314599

>  <SlogP_VSA0>
77.811722

>  <SlogP_VSA1>
59.730694

>  <SlogP_VSA2>
10.622711

>  <SlogP_VSA3>
18.439579

>  <SlogP_VSA4>
13.967521

>  <SlogP_VSA5>
39.287544

>  <SlogP_VSA6>
0

>  <SlogP_VSA7>
87.787094

>  <SlogP_VSA8>
75.473625

>  <SlogP_VSA9>
152.51707

>  <SMR>
12.94277

>  <SMR_VSA0>
95.896118

>  <SMR_VSA1>
27.284319

>  <SMR_VSA2>
58.388027

>  <SMR_VSA3>
18.353294

>  <SMR_VSA4>
0

>  <SMR_VSA5>
200.99753

>  <SMR_VSA6>
28.099491

>  <SMR_VSA7>
106.61879

>  <TPSA>
129.53

>  <VAdjEq>
0.33644459

>  <VAdjMa>
6.1699252

>  <VDistEq>
4.1416411

>  <VDistMa>
9.82903

>  <vdw_area>
493.16516

>  <vdw_vol>
645.29547

>  <vsa_acc>
59.150364

>  <vsa_acid>
0

>  <vsa_base>
0

>  <vsa_don>
19.440359

>  <vsa_hyd>
306.62762

>  <vsa_other>
57.936226

>  <vsa_pol>
92.157646

>  <Weight>
490.625

>  <weinerPath>
4390

>  <weinerPol>
52

>  <zagreb>
174

$$$$