s1cccc1CN(CCN(C)C)c1ncccc1
  MOE2013           2D

 18 19  0  0  1  0  0  0  0  0999 V2000
    0.0000    0.0000    0.0000 S   0  0  0  0  0  0  0  0  0  0  0  0
   -1.5000   -0.0040    0.0000 C   0  0  0  0  0  0  0  0  0  0  0  0
   -1.9600   -1.4310    0.0000 C   0  0  0  0  0  0  0  0  0  0  0  0
   -0.7440   -2.3100    0.0000 C   0  0  0  0  0  0  0  0  0  0  0  0
    0.4670   -1.4250    0.0000 C   0  0  0  0  0  0  0  0  0  0  0  0
    1.8950   -1.8850    0.0000 C   0  0  0  0  0  0  0  0  0  0  0  0
    3.0070   -0.8790    0.0000 N   0  0  3  0  0  0  0  0  0  0  0  0
    2.6920    0.5880    0.0000 C   0  0  0  0  0  0  0  0  0  0  0  0
    3.8040    1.5940    0.0000 C   0  0  0  0  0  0  0  0  0  0  0  0
    3.4880    3.0600    0.0000 N   0  0  0  0  0  0  0  0  0  0  0  0
    2.0600    3.5200    0.0000 C   0  0  0  0  0  0  0  0  0  0  0  0
    4.6000    4.0670    0.0000 C   0  0  0  0  0  0  0  0  0  0  0  0
    4.4350   -1.3390    0.0000 C   0  0  0  0  0  0  0  0  0  0  0  0
    5.5470   -0.3320    0.0000 N   0  0  0  0  0  0  0  0  0  0  0  0
    6.9750   -0.7920    0.0000 C   0  0  0  0  0  0  0  0  0  0  0  0
    7.2900   -2.2590    0.0000 C   0  0  0  0  0  0  0  0  0  0  0  0
    6.1780   -3.2650    0.0000 C   0  0  0  0  0  0  0  0  0  0  0  0
    4.7500   -2.8050    0.0000 C   0  0  0  0  0  0  0  0  0  0  0  0
  1  2  1  0  0  0  0
  1  5  1  0  0  0  0
  2  3  2  0  0  0  0
  3  4  1  0  0  0  0
  4  5  2  0  0  0  0
  5  6  1  0  0  0  0
  6  7  1  0  0  0  0
  7  8  1  0  0  0  0
  7 13  1  0  0  0  0
  8  9  1  0  0  0  0
  9 10  1  0  0  0  0
 10 11  1  0  0  0  0
 10 12  1  0  0  0  0
 13 14  1  0  0  0  0
 13 18  2  0  0  0  0
 14 15  2  0  0  0  0
 15 16  1  0  0  0  0
 16 17  2  0  0  0  0
 17 18  1  0  0  0  0
M  END
>  <Index>
1641

>  <ID>
HT1336

>  <class>
1

>  <apol>
43.509068

>  <ast_fraglike>
1

>  <ast_fraglike_ext>
0

>  <ast_violation>
0

>  <ast_violation_ext>
1

>  <a_acc>
2

>  <a_acid>
0

>  <a_aro>
11

>  <a_base>
0

>  <a_count>
37

>  <a_don>
0

>  <a_donacc>
2

>  <a_heavy>
18

>  <a_hyd>
14

>  <a_IC>
53.981297

>  <a_ICM>
1.458954

>  <a_nB>
0

>  <a_nBr>
0

>  <a_nC>
14

>  <a_nCl>
0

>  <a_nF>
0

>  <a_nH>
19

>  <a_nI>
0

>  <a_nN>
3

>  <a_nO>
0

>  <a_nP>
0

>  <a_nS>
1

>  <balabanJ>
1.8380609

>  <BCUT_PEOE_0>
-2.6436713

>  <BCUT_PEOE_1>
-0.52499473

>  <BCUT_PEOE_2>
0.56547922

>  <BCUT_PEOE_3>
2.5407815

>  <BCUT_SLOGP_0>
-2.7391393

>  <BCUT_SLOGP_1>
-0.43915176

>  <BCUT_SLOGP_2>
0.65580481

>  <BCUT_SLOGP_3>
2.528893

>  <BCUT_SMR_0>
-2.3499503

>  <BCUT_SMR_1>
-0.36795357

>  <BCUT_SMR_2>
0.71546578

>  <BCUT_SMR_3>
2.8327513

>  <bpol>
28.330933

>  <b_1rotN>
6

>  <b_1rotR>
0.31578946

>  <b_ar>
11

>  <b_count>
38

>  <b_double>
0

>  <b_heavy>
19

>  <b_max1len>
7

>  <b_rotN>
6

>  <b_rotR>
0.31578946

>  <b_single>
27

>  <b_triple>
0

>  <chi0>
12.794683

>  <chi0v>
11.729157

>  <chi0v_C>
9.1627722

>  <chi0_C>
10.225768

>  <chi1>
8.7540197

>  <chi1v>
6.9655724

>  <chi1v_C>
3.0975704

>  <chi1_C>
4.2247448

>  <chiral>
0

>  <chiral_u>
0

>  <density>
0.70239335

>  <diameter>
8

>  <FCharge>
0

>  <GCUT_PEOE_0>
-0.86105764

>  <GCUT_PEOE_1>
-0.34560558

>  <GCUT_PEOE_2>
0.014366778

>  <GCUT_PEOE_3>
2.4919605

>  <GCUT_SLOGP_0>
-0.96781802

>  <GCUT_SLOGP_1>
-0.25329798

>  <GCUT_SLOGP_2>
0.12203519

>  <GCUT_SLOGP_3>
2.5696473

>  <GCUT_SMR_0>
-0.51513499

>  <GCUT_SMR_1>
-0.1811045

>  <GCUT_SMR_2>
0.15211722

>  <GCUT_SMR_3>
2.7798862

>  <Kier1>
14.409972

>  <Kier2>
7.5555553

>  <Kier3>
4.8979592

>  <KierA1>
12.033255

>  <KierA2>
6.2377682

>  <KierA3>
4.0096354

>  <KierFlex>
4.1700363

>  <lip_acc>
3

>  <lip_don>
0

>  <lip_druglike>
1

>  <lip_violation>
0

>  <logP(o/w)>
2.1889999

>  <logS>
-1.83787

>  <mr>
7.8553615

>  <mutagenic>
0

>  <nmol>
1

>  <opr_brigid>
11

>  <opr_leadlike>
1

>  <opr_nring>
2

>  <opr_nrot>
6

>  <opr_violation>
0

>  <PC+>
0

>  <PC->
0

>  <PEOE_PC+>
1.2952003

>  <PEOE_PC->
-1.2952003

>  <PEOE_RPC+>
0.12149997

>  <PEOE_RPC->
0.23712471

>  <PEOE_VSA+0>
111.77291

>  <PEOE_VSA+1>
25.592316

>  <PEOE_VSA+2>
11.190562

>  <PEOE_VSA+3>
19.760618

>  <PEOE_VSA+4>
0

>  <PEOE_VSA+5>
0

>  <PEOE_VSA+6>
0

>  <PEOE_VSA-0>
70.987183

>  <PEOE_VSA-1>
40.949314

>  <PEOE_VSA-2>
14.230966

>  <PEOE_VSA-3>
0

>  <PEOE_VSA-4>
5.6825762

>  <PEOE_VSA-5>
0

>  <PEOE_VSA-6>
0

>  <PEOE_VSA_FHYD>
0.98106861

>  <PEOE_VSA_FNEG>
0.43925643

>  <PEOE_VSA_FPNEG>
0.018931417

>  <PEOE_VSA_FPOL>
0.018931417

>  <PEOE_VSA_FPOS>
0.56074357

>  <PEOE_VSA_FPPOS>
0

>  <PEOE_VSA_HYD>
294.48386

>  <PEOE_VSA_NEG>
131.85004

>  <PEOE_VSA_PNEG>
5.6825762

>  <PEOE_VSA_POL>
5.6825762

>  <PEOE_VSA_POS>
168.31641

>  <PEOE_VSA_PPOS>
0

>  <petitjean>
0.5

>  <petitjeanSC>
1

>  <Q_PC+>
0

>  <Q_PC->
0

>  <Q_RPC+>
0

>  <Q_RPC->
0

>  <Q_VSA_FHYD>
1

>  <Q_VSA_FNEG>
0

>  <Q_VSA_FPNEG>
0

>  <Q_VSA_FPOL>
0

>  <Q_VSA_FPOS>
1

>  <Q_VSA_FPPOS>
0

>  <Q_VSA_HYD>
300.16644

>  <Q_VSA_NEG>
0

>  <Q_VSA_PNEG>
0

>  <Q_VSA_POL>
0

>  <Q_VSA_POS>
300.16644

>  <Q_VSA_PPOS>
0

>  <radius>
4

>  <reactive>
0

>  <rings>
2

>  <RPC+>
0

>  <RPC->
0

>  <rsynth>
1

>  <SlogP>
2.9777

>  <SlogP_VSA0>
3.1243138

>  <SlogP_VSA1>
19.909843

>  <SlogP_VSA2>
0

>  <SlogP_VSA3>
36.879158

>  <SlogP_VSA4>
1.3584013

>  <SlogP_VSA5>
65.794373

>  <SlogP_VSA6>
0

>  <SlogP_VSA7>
121.24629

>  <SlogP_VSA8>
0

>  <SlogP_VSA9>
52.045185

>  <SMR>
7.8365002

>  <SMR_VSA0>
0

>  <SMR_VSA1>
19.909843

>  <SMR_VSA2>
3.1243138

>  <SMR_VSA3>
1.3584013

>  <SMR_VSA4>
2.3279202

>  <SMR_VSA5>
139.68587

>  <SMR_VSA6>
36.879158

>  <SMR_VSA7>
97.07206

>  <TPSA>
19.370001

>  <VAdjEq>
0.52150291

>  <VAdjMa>
5.2479277

>  <VDistEq>
2.9484785

>  <VDistMa>
8.0586195

>  <vdw_area>
300.16644

>  <vdw_vol>
372.14618

>  <vsa_acc>
5.6825762

>  <vsa_acid>
0

>  <vsa_base>
0

>  <vsa_don>
0

>  <vsa_hyd>
269.7692

>  <vsa_other>
11.190562

>  <vsa_pol>
5.6825762

>  <Weight>
261.39301

>  <weinerPath>
637

>  <weinerPol>
20

>  <zagreb>
86

$$$$