OC=1[C@]2(O)[C@@H](C[C@H]3C(C2=O)=C(O)c2c(C3)c(N(C)C)ccc2O)[C@H](N(C)C)C(=O)C=1C(=O)N
  MOE2013           2D

 33 36  0  0  1  0  0  0  0  0999 V2000
    0.0000    0.0000    0.0000 O   0  0  0  0  0  0  0  0  0  0  0  0
   -0.7390   -1.3050    0.0000 C   0  0  0  0  0  0  0  0  0  0  0  0
   -2.2390   -1.3180    0.0000 C   0  0  2  0  0  0  0  0  0  0  0  0
   -1.5000   -0.0130    0.0000 O   0  0  0  0  0  0  0  0  0  0  0  0
   -2.9770   -2.6240    0.0000 C   0  0  1  0  0  0  0  0  0  0  0  0
   -4.4770   -2.6370    0.0000 C   0  0  0  0  0  0  0  0  0  0  0  0
   -5.2390   -1.3440    0.0000 C   0  0  1  0  0  0  0  0  0  0  0  0
   -4.5000   -0.0390    0.0000 C   0  0  0  0  0  0  0  0  0  0  0  0
   -3.0000   -0.0260    0.0000 C   0  0  0  0  0  0  0  0  0  0  0  0
   -2.2610    1.2800    0.0000 O   0  0  0  0  0  0  0  0  0  0  0  0
   -5.2610    1.2540    0.0000 C   0  0  0  0  0  0  0  0  0  0  0  0
   -4.5220    2.5590    0.0000 O   0  0  0  0  0  0  0  0  0  0  0  0
   -6.7610    1.2410    0.0000 C   0  0  0  0  0  0  0  0  0  0  0  0
   -7.5000   -0.0650    0.0000 C   0  0  0  0  0  0  0  0  0  0  0  0
   -6.7390   -1.3570    0.0000 C   0  0  0  0  0  0  0  0  0  0  0  0
   -9.0000   -0.0780    0.0000 C   0  0  0  0  0  0  0  0  0  0  0  0
   -9.7380   -1.3830    0.0000 N   0  0  0  0  0  0  0  0  0  0  0  0
  -11.2380   -1.3960    0.0000 C   0  0  0  0  0  0  0  0  0  0  0  0
   -8.9770   -2.6760    0.0000 C   0  0  0  0  0  0  0  0  0  0  0  0
   -9.7610    1.2150    0.0000 C   0  0  0  0  0  0  0  0  0  0  0  0
   -9.0220    2.5200    0.0000 C   0  0  0  0  0  0  0  0  0  0  0  0
   -7.5220    2.5330    0.0000 C   0  0  0  0  0  0  0  0  0  0  0  0
   -6.7830    3.8390    0.0000 O   0  0  0  0  0  0  0  0  0  0  0  0
   -2.2160   -3.9160    0.0000 C   0  0  2  0  0  0  0  0  0  0  0  0
   -2.9550   -5.2220    0.0000 N   0  0  0  0  0  0  0  0  0  0  0  0
   -2.1940   -6.5140    0.0000 C   0  0  0  0  0  0  0  0  0  0  0  0
   -4.4550   -5.2350    0.0000 C   0  0  0  0  0  0  0  0  0  0  0  0
   -0.7160   -3.9030    0.0000 C   0  0  0  0  0  0  0  0  0  0  0  0
    0.0450   -5.1960    0.0000 O   0  0  0  0  0  0  0  0  0  0  0  0
    0.0220   -2.5980    0.0000 C   0  0  0  0  0  0  0  0  0  0  0  0
    1.5220   -2.5850    0.0000 C   0  0  0  0  0  0  0  0  0  0  0  0
    2.2610   -1.2800    0.0000 O   0  0  0  0  0  0  0  0  0  0  0  0
    2.2840   -3.8780    0.0000 N   0  0  0  0  0  0  0  0  0  0  0  0
  1  2  1  0  0  0  0
  2  3  1  0  0  0  0
  2 30  2  0  0  0  0
  3  4  1  1  0  0  0
  3  5  1  0  0  0  0
  3  9  1  0  0  0  0
  5  6  1  6  0  0  0
  5 24  1  0  0  0  0
  6  7  1  0  0  0  0
  7  8  1  6  0  0  0
  7 15  1  0  0  0  0
  8  9  1  0  0  0  0
  8 11  2  0  0  0  0
  9 10  2  0  0  0  0
 11 12  1  0  0  0  0
 11 13  1  0  0  0  0
 13 14  2  0  0  0  0
 13 22  1  0  0  0  0
 14 15  1  0  0  0  0
 14 16  1  0  0  0  0
 16 17  1  0  0  0  0
 16 20  2  0  0  0  0
 17 18  1  0  0  0  0
 17 19  1  0  0  0  0
 20 21  1  0  0  0  0
 21 22  2  0  0  0  0
 22 23  1  0  0  0  0
 24 25  1  1  0  0  0
 24 28  1  0  0  0  0
 25 26  1  0  0  0  0
 25 27  1  0  0  0  0
 28 29  2  0  0  0  0
 28 30  1  0  0  0  0
 30 31  1  0  0  0  0
 31 32  2  0  0  0  0
 31 33  1  0  0  0  0
M  END
>  <Index>
1655

>  <ID>
HT1407

>  <class>
1

>  <apol>
67.397408

>  <ast_fraglike>
0

>  <ast_fraglike_ext>
0

>  <ast_violation>
3

>  <ast_violation_ext>
4

>  <a_acc>
8

>  <a_acid>
0

>  <a_aro>
6

>  <a_base>
0

>  <a_count>
60

>  <a_don>
7

>  <a_donacc>
15

>  <a_heavy>
33

>  <a_hyd>
20

>  <a_IC>
97.583176

>  <a_ICM>
1.6263863

>  <a_nB>
0

>  <a_nBr>
0

>  <a_nC>
23

>  <a_nCl>
0

>  <a_nF>
0

>  <a_nH>
27

>  <a_nI>
0

>  <a_nN>
3

>  <a_nO>
7

>  <a_nP>
0

>  <a_nS>
0

>  <balabanJ>
1.7498753

>  <BCUT_PEOE_0>
-2.7735937

>  <BCUT_PEOE_1>
-0.55145115

>  <BCUT_PEOE_2>
0.53364068

>  <BCUT_PEOE_3>
2.8307769

>  <BCUT_SLOGP_0>
-2.8690076

>  <BCUT_SLOGP_1>
-0.4995077

>  <BCUT_SLOGP_2>
0.5023151

>  <BCUT_SLOGP_3>
2.7825699

>  <BCUT_SMR_0>
-2.5365293

>  <BCUT_SMR_1>
-0.34571731

>  <BCUT_SMR_2>
0.71400213

>  <BCUT_SMR_3>
3.0630157

>  <bpol>
35.69059

>  <b_1rotN>
3

>  <b_1rotR>
0.083333336

>  <b_ar>
6

>  <b_count>
63

>  <b_double>
5

>  <b_heavy>
36

>  <b_max1len>
4

>  <b_rotN>
3

>  <b_rotR>
0.083333336

>  <b_single>
52

>  <b_triple>
0

>  <chi0>
24.566031

>  <chi0v>
18.786341

>  <chi0v_C>
14.300965

>  <chi0_C>
15.411331

>  <chi1>
15.333035

>  <chi1v>
10.504476

>  <chi1v_C>
6.4383407

>  <chi1_C>
7.815515

>  <chiral>
4

>  <chiral_u>
0

>  <density>
0.79043078

>  <diameter>
12

>  <FCharge>
0

>  <GCUT_PEOE_0>
-0.84918219

>  <GCUT_PEOE_1>
-0.4295252

>  <GCUT_PEOE_2>
0.024548391

>  <GCUT_PEOE_3>
3.1105726

>  <GCUT_SLOGP_0>
-1.3705202

>  <GCUT_SLOGP_1>
-0.38623658

>  <GCUT_SLOGP_2>
0.055489037

>  <GCUT_SLOGP_3>
3.1069536

>  <GCUT_SMR_0>
-0.52340984

>  <GCUT_SMR_1>
-0.20832831

>  <GCUT_SMR_2>
0.17122646

>  <GCUT_SMR_3>
3.3588195

>  <Kier1>
26.074074

>  <Kier2>
9.1414986

>  <Kier3>
3.8049941

>  <KierA1>
20.39813

>  <KierA2>
7.0932708

>  <KierA3>
2.9349134

>  <KierFlex>
4.3845296

>  <lip_acc>
10

>  <lip_don>
6

>  <lip_druglike>
1

>  <lip_violation>
1

>  <logP(o/w)>
-0.27500001

>  <logS>
-2.4556201

>  <mr>
11.599611

>  <mutagenic>
0

>  <nmol>
1

>  <opr_brigid>
21

>  <opr_leadlike>
0

>  <opr_nring>
4

>  <opr_nrot>
3

>  <opr_violation>
3

>  <PC+>
0

>  <PC->
0

>  <PEOE_PC+>
3.4325898

>  <PEOE_PC->
-3.4325898

>  <PEOE_RPC+>
0.074353732

>  <PEOE_RPC->
0.10893287

>  <PEOE_VSA+0>
87.893578

>  <PEOE_VSA+1>
32.859158

>  <PEOE_VSA+2>
10.667059

>  <PEOE_VSA+3>
25.696545

>  <PEOE_VSA+4>
49.755211

>  <PEOE_VSA+5>
12.949531

>  <PEOE_VSA+6>
0

>  <PEOE_VSA-0>
137.07573

>  <PEOE_VSA-1>
0

>  <PEOE_VSA-2>
0

>  <PEOE_VSA-3>
0

>  <PEOE_VSA-4>
0

>  <PEOE_VSA-5>
40.700764

>  <PEOE_VSA-6>
37.721279

>  <PEOE_VSA_FHYD>
0.67580825

>  <PEOE_VSA_FNEG>
0.49503431

>  <PEOE_VSA_FPNEG>
0.18014851

>  <PEOE_VSA_FPOL>
0.32419175

>  <PEOE_VSA_FPOS>
0.50496566

>  <PEOE_VSA_FPPOS>
0.14404325

>  <PEOE_VSA_HYD>
294.19208

>  <PEOE_VSA_NEG>
215.49777

>  <PEOE_VSA_PNEG>
78.422043

>  <PEOE_VSA_POL>
141.12679

>  <PEOE_VSA_POS>
219.82108

>  <PEOE_VSA_PPOS>
62.704742

>  <petitjean>
0.5

>  <petitjeanSC>
1

>  <Q_PC+>
0

>  <Q_PC->
0

>  <Q_RPC+>
0

>  <Q_RPC->
0

>  <Q_VSA_FHYD>
1

>  <Q_VSA_FNEG>
0

>  <Q_VSA_FPNEG>
0

>  <Q_VSA_FPOL>
0

>  <Q_VSA_FPOS>
1

>  <Q_VSA_FPPOS>
0

>  <Q_VSA_HYD>
435.31885

>  <Q_VSA_NEG>
0

>  <Q_VSA_PNEG>
0

>  <Q_VSA_POL>
0

>  <Q_VSA_POS>
435.31885

>  <Q_VSA_PPOS>
0

>  <radius>
6

>  <reactive>
0

>  <rings>
4

>  <RPC+>
0

>  <RPC->
0

>  <rsynth>
0.27272728

>  <SlogP>
0.02997

>  <SlogP_VSA0>
86.791954

>  <SlogP_VSA1>
19.75832

>  <SlogP_VSA2>
75.568619

>  <SlogP_VSA3>
50.770454

>  <SlogP_VSA4>
15.192742

>  <SlogP_VSA5>
162.07173

>  <SlogP_VSA6>
0

>  <SlogP_VSA7>
40.529797

>  <SlogP_VSA8>
18.868406

>  <SlogP_VSA9>
8.0001755

>  <SMR>
11.85716

>  <SMR_VSA0>
71.586647

>  <SMR_VSA1>
53.894768

>  <SMR_VSA2>
62.716358

>  <SMR_VSA3>
27.211124

>  <SMR_VSA4>
40.897362

>  <SMR_VSA5>
73.023178

>  <SMR_VSA6>
16.634007

>  <SMR_VSA7>
131.58875

>  <TPSA>
164.63

>  <VAdjEq>
0.3512581

>  <VAdjMa>
6.1699252

>  <VDistEq>
3.3213925

>  <VDistMa>
9.8463755

>  <vdw_area>
435.31885

>  <vdw_vol>
578.77679

>  <vsa_acc>
13.566921

>  <vsa_acid>
0

>  <vsa_base>
0

>  <vsa_don>
17.742489

>  <vsa_hyd>
250.85773

>  <vsa_other>
29.86657

>  <vsa_pol>
112.71094

>  <Weight>
457.483

>  <weinerPath>
2672

>  <weinerPol>
75

>  <zagreb>
188

$$$$