S1c2c(N(c3c1cccc3)CCCN1CCN(CC1)C)cc(SCC)cc2
  MOE2013           2D

 27 30  0  0  1  0  0  0  0  0999 V2000
    0.0000    0.0000    0.0000 S   0  0  0  0  0  0  0  0  0  0  0  0
   -0.7460   -1.3010    0.0000 C   0  0  0  0  0  0  0  0  0  0  0  0
    0.0080   -2.5980    0.0000 C   0  0  0  0  0  0  0  0  0  0  0  0
    1.5080   -2.5930    0.0000 N   0  0  3  0  0  0  0  0  0  0  0  0
    2.2540   -1.2920    0.0000 C   0  0  0  0  0  0  0  0  0  0  0  0
    1.5000    0.0050    0.0000 C   0  0  0  0  0  0  0  0  0  0  0  0
    2.2460    1.3060    0.0000 C   0  0  0  0  0  0  0  0  0  0  0  0
    3.7460    1.3110    0.0000 C   0  0  0  0  0  0  0  0  0  0  0  0
    4.5000    0.0150    0.0000 C   0  0  0  0  0  0  0  0  0  0  0  0
    3.7540   -1.2870    0.0000 C   0  0  0  0  0  0  0  0  0  0  0  0
    2.2630   -3.8900    0.0000 C   0  0  0  0  0  0  0  0  0  0  0  0
    3.7630   -3.8850    0.0000 C   0  0  0  0  0  0  0  0  0  0  0  0
    4.5170   -5.1820    0.0000 C   0  0  0  0  0  0  0  0  0  0  0  0
    6.0170   -5.1770    0.0000 N   0  0  0  0  0  0  0  0  0  0  0  0
    6.7710   -6.4730    0.0000 C   0  0  0  0  0  0  0  0  0  0  0  0
    8.2710   -6.4680    0.0000 C   0  0  0  0  0  0  0  0  0  0  0  0
    9.0170   -5.1670    0.0000 N   0  0  0  0  0  0  0  0  0  0  0  0
    8.2630   -3.8700    0.0000 C   0  0  0  0  0  0  0  0  0  0  0  0
    6.7630   -3.8750    0.0000 C   0  0  0  0  0  0  0  0  0  0  0  0
   10.5170   -5.1620    0.0000 C   0  0  0  0  0  0  0  0  0  0  0  0
   -0.7370   -3.9000    0.0000 C   0  0  0  0  0  0  0  0  0  0  0  0
   -2.2370   -3.9040    0.0000 C   0  0  0  0  0  0  0  0  0  0  0  0
   -2.9830   -5.2060    0.0000 S   0  0  0  0  0  0  0  0  0  0  0  0
   -4.4830   -5.2110    0.0000 C   0  0  0  0  0  0  0  0  0  0  0  0
   -5.2290   -6.5120    0.0000 C   0  0  0  0  0  0  0  0  0  0  0  0
   -2.9920   -2.6080    0.0000 C   0  0  0  0  0  0  0  0  0  0  0  0
   -2.2460   -1.3060    0.0000 C   0  0  0  0  0  0  0  0  0  0  0  0
  1  2  1  0  0  0  0
  1  6  1  0  0  0  0
  2  3  1  0  0  0  0
  2 27  2  0  0  0  0
  3  4  1  0  0  0  0
  3 21  2  0  0  0  0
  4  5  1  0  0  0  0
  4 11  1  0  0  0  0
  5  6  1  0  0  0  0
  5 10  2  0  0  0  0
  6  7  2  0  0  0  0
  7  8  1  0  0  0  0
  8  9  2  0  0  0  0
  9 10  1  0  0  0  0
 11 12  1  0  0  0  0
 12 13  1  0  0  0  0
 13 14  1  0  0  0  0
 14 15  1  0  0  0  0
 14 19  1  0  0  0  0
 15 16  1  0  0  0  0
 16 17  1  0  0  0  0
 17 18  1  0  0  0  0
 17 20  1  0  0  0  0
 18 19  1  0  0  0  0
 21 22  1  0  0  0  0
 22 23  1  0  0  0  0
 22 26  2  0  0  0  0
 23 24  1  0  0  0  0
 24 25  1  0  0  0  0
 26 27  1  0  0  0  0
M  END
>  <Index>
1741

>  <ID>
HT2040

>  <class>
1

>  <apol>
67.156998

>  <ast_fraglike>
0

>  <ast_fraglike_ext>
0

>  <ast_violation>
2

>  <ast_violation_ext>
3

>  <a_acc>
2

>  <a_acid>
0

>  <a_aro>
12

>  <a_base>
0

>  <a_count>
56

>  <a_don>
0

>  <a_donacc>
2

>  <a_heavy>
27

>  <a_hyd>
24

>  <a_IC>
79.46804

>  <a_ICM>
1.4190722

>  <a_nB>
0

>  <a_nBr>
0

>  <a_nC>
22

>  <a_nCl>
0

>  <a_nF>
0

>  <a_nH>
29

>  <a_nI>
0

>  <a_nN>
3

>  <a_nO>
0

>  <a_nP>
0

>  <a_nS>
2

>  <balabanJ>
1.3637854

>  <BCUT_PEOE_0>
-2.7903397

>  <BCUT_PEOE_1>
-0.49733296

>  <BCUT_PEOE_2>
0.53733236

>  <BCUT_PEOE_3>
2.6804943

>  <BCUT_SLOGP_0>
-2.8981588

>  <BCUT_SLOGP_1>
-0.34765801

>  <BCUT_SLOGP_2>
0.69523394

>  <BCUT_SLOGP_3>
2.6279194

>  <BCUT_SMR_0>
-2.5038617

>  <BCUT_SMR_1>
-0.30017769

>  <BCUT_SMR_2>
0.74995857

>  <BCUT_SMR_3>
2.9587862

>  <bpol>
42.203003

>  <b_1rotN>
6

>  <b_1rotR>
0.2

>  <b_ar>
12

>  <b_count>
59

>  <b_double>
0

>  <b_heavy>
30

>  <b_max1len>
4

>  <b_rotN>
6

>  <b_rotR>
0.2

>  <b_single>
47

>  <b_triple>
0

>  <chi0>
18.639618

>  <chi0v>
17.989437

>  <chi0v_C>
14.198306

>  <chi0_C>
15.493353

>  <chi1>
13.241515

>  <chi1v>
11.767427

>  <chi1v_C>
6.272491

>  <chi1_C>
7.8232632

>  <chiral>
0

>  <chiral_u>
0

>  <density>
0.7151292

>  <diameter>
14

>  <FCharge>
0

>  <GCUT_PEOE_0>
-0.86208165

>  <GCUT_PEOE_1>
-0.35870883

>  <GCUT_PEOE_2>
-0.027462631

>  <GCUT_PEOE_3>
2.7990084

>  <GCUT_SLOGP_0>
-0.96427566

>  <GCUT_SLOGP_1>
-0.25869995

>  <GCUT_SLOGP_2>
0.15126225

>  <GCUT_SLOGP_3>
2.8998778

>  <GCUT_SMR_0>
-0.51972866

>  <GCUT_SMR_1>
-0.14925791

>  <GCUT_SMR_2>
0.18700656

>  <GCUT_SMR_3>
3.0884755

>  <Kier1>
20.280001

>  <Kier2>
9.6668653

>  <Kier3>
4.9507437

>  <KierA1>
18.639233

>  <KierA2>
8.8547659

>  <KierA3>
4.5234795

>  <KierFlex>
6.1128163

>  <lip_acc>
3

>  <lip_don>
0

>  <lip_druglike>
1

>  <lip_violation>
1

>  <logP(o/w)>
4.6620002

>  <logS>
-5.2351999

>  <mr>
11.807259

>  <mutagenic>
0

>  <nmol>
1

>  <opr_brigid>
22

>  <opr_leadlike>
1

>  <opr_nring>
4

>  <opr_nrot>
8

>  <opr_violation>
1

>  <PC+>
0

>  <PC->
0

>  <PEOE_PC+>
1.4875072

>  <PEOE_PC->
-1.4875072

>  <PEOE_RPC+>
0.043337345

>  <PEOE_RPC->
0.20364098

>  <PEOE_VSA+0>
198.94534

>  <PEOE_VSA+1>
29.857702

>  <PEOE_VSA+2>
0

>  <PEOE_VSA+3>
0

>  <PEOE_VSA+4>
0

>  <PEOE_VSA+5>
0

>  <PEOE_VSA+6>
0

>  <PEOE_VSA-0>
103.8919

>  <PEOE_VSA-1>
63.018105

>  <PEOE_VSA-2>
19.760618

>  <PEOE_VSA-3>
0

>  <PEOE_VSA-4>
0

>  <PEOE_VSA-5>
0

>  <PEOE_VSA-6>
0

>  <PEOE_VSA_FHYD>
1

>  <PEOE_VSA_FNEG>
0.44929591

>  <PEOE_VSA_FPNEG>
0

>  <PEOE_VSA_FPOL>
0

>  <PEOE_VSA_FPOS>
0.55070412

>  <PEOE_VSA_FPPOS>
0

>  <PEOE_VSA_HYD>
415.47366

>  <PEOE_VSA_NEG>
186.67062

>  <PEOE_VSA_PNEG>
0

>  <PEOE_VSA_POL>
0

>  <PEOE_VSA_POS>
228.80305

>  <PEOE_VSA_PPOS>
0

>  <petitjean>
0.5

>  <petitjeanSC>
1

>  <Q_PC+>
0

>  <Q_PC->
0

>  <Q_RPC+>
0

>  <Q_RPC->
0

>  <Q_VSA_FHYD>
1

>  <Q_VSA_FNEG>
0

>  <Q_VSA_FPNEG>
0

>  <Q_VSA_FPOL>
0

>  <Q_VSA_FPOS>
1

>  <Q_VSA_FPPOS>
0

>  <Q_VSA_HYD>
415.47366

>  <Q_VSA_NEG>
0

>  <Q_VSA_PNEG>
0

>  <Q_VSA_POL>
0

>  <Q_VSA_POS>
415.47366

>  <Q_VSA_PPOS>
0

>  <radius>
7

>  <reactive>
0

>  <rings>
4

>  <RPC+>
0

>  <RPC->
0

>  <rsynth>
1

>  <SlogP>
5.0387998

>  <SlogP_VSA0>
3.1243138

>  <SlogP_VSA1>
6.2486277

>  <SlogP_VSA2>
0

>  <SlogP_VSA3>
127.87103

>  <SlogP_VSA4>
0

>  <SlogP_VSA5>
37.549389

>  <SlogP_VSA6>
0

>  <SlogP_VSA7>
123.50229

>  <SlogP_VSA8>
18.868406

>  <SlogP_VSA9>
103.27859

>  <SMR>
11.8967

>  <SMR_VSA0>
0

>  <SMR_VSA1>
6.2486277

>  <SMR_VSA2>
7.776516

>  <SMR_VSA3>
0

>  <SMR_VSA4>
5.513495

>  <SMR_VSA5>
142.3707

>  <SMR_VSA6>
127.87103

>  <SMR_VSA7>
130.66228

>  <TPSA>
9.7200003

>  <VAdjEq>
0.41024774

>  <VAdjMa>
5.9068904

>  <VDistEq>
3.5111639

>  <VDistMa>
9.2200089

>  <vdw_area>
415.47366

>  <vdw_vol>
558.81793

>  <vsa_acc>
0

>  <vsa_acid>
0

>  <vsa_base>
0

>  <vsa_don>
0

>  <vsa_hyd>
394.8316

>  <vsa_other>
0

>  <vsa_pol>
0

>  <Weight>
399.62698

>  <weinerPath>
1920

>  <weinerPol>
43

>  <zagreb>
142

$$$$