Clc1cc2NC(NS(=O)(=O)c2cc1S(=O)(=O)N)CC1CCCC1
  MOE2013           2D

 23 25  0  0  1  0  0  0  0  0999 V2000
    0.0000    0.0000    0.0000 Cl  0  0  0  0  0  0  0  0  0  0  0  0
    1.2990    0.7500    0.0000 C   0  0  0  0  0  0  0  0  0  0  0  0
    2.5980    0.0000    0.0000 C   0  0  0  0  0  0  0  0  0  0  0  0
    3.8970    0.7500    0.0000 C   0  0  0  0  0  0  0  0  0  0  0  0
    5.1960    0.0000    0.0000 N   0  0  0  0  0  0  0  0  0  0  0  0
    6.4950    0.7500    0.0000 C   0  0  3  0  0  0  0  0  0  0  0  0
    6.4950    2.2500    0.0000 N   0  0  0  0  0  0  0  0  0  0  0  0
    5.1960    3.0000    0.0000 S   0  0  0  0  0  0  0  0  0  0  0  0
    4.4460    4.2990    0.0000 O   0  0  0  0  0  0  0  0  0  0  0  0
    5.9460    4.2990    0.0000 O   0  0  0  0  0  0  0  0  0  0  0  0
    3.8970    2.2500    0.0000 C   0  0  0  0  0  0  0  0  0  0  0  0
    2.5980    3.0000    0.0000 C   0  0  0  0  0  0  0  0  0  0  0  0
    1.2990    2.2500    0.0000 C   0  0  0  0  0  0  0  0  0  0  0  0
    0.0000    3.0000    0.0000 S   0  0  0  0  0  0  0  0  0  0  0  0
   -0.7500    1.7010    0.0000 O   0  0  0  0  0  0  0  0  0  0  0  0
    0.7500    4.2990    0.0000 O   0  0  0  0  0  0  0  0  0  0  0  0
   -1.2990    3.7500    0.0000 N   0  0  0  0  0  0  0  0  0  0  0  0
    7.7940    0.0000    0.0000 C   0  0  0  0  0  0  0  0  0  0  0  0
    9.0930    0.7490    0.0000 C   0  0  0  0  0  0  0  0  0  0  0  0
   10.4640    0.1390    0.0000 C   0  0  0  0  0  0  0  0  0  0  0  0
   11.4670    1.2540    0.0000 C   0  0  0  0  0  0  0  0  0  0  0  0
   10.7170    2.5530    0.0000 C   0  0  0  0  0  0  0  0  0  0  0  0
    9.2500    2.2410    0.0000 C   0  0  0  0  0  0  0  0  0  0  0  0
  1  2  1  0  0  0  0
  2  3  1  0  0  0  0
  2 13  2  0  0  0  0
  3  4  2  0  0  0  0
  4  5  1  0  0  0  0
  4 11  1  0  0  0  0
  5  6  1  0  0  0  0
  6  7  1  0  0  0  0
  6 18  1  0  0  0  0
  7  8  1  0  0  0  0
  8  9  2  0  0  0  0
  8 10  2  0  0  0  0
  8 11  1  0  0  0  0
 11 12  2  0  0  0  0
 12 13  1  0  0  0  0
 13 14  1  0  0  0  0
 14 15  2  0  0  0  0
 14 16  2  0  0  0  0
 14 17  1  0  0  0  0
 18 19  1  0  0  0  0
 19 20  1  0  0  0  0
 19 23  1  0  0  0  0
 20 21  1  0  0  0  0
 21 22  1  0  0  0  0
 22 23  1  0  0  0  0
M  END
>  <Index>
1510

>  <ID>
HT0566

>  <class>
1

>  <apol>
49.370274

>  <ast_fraglike>
0

>  <ast_fraglike_ext>
0

>  <ast_violation>
2

>  <ast_violation_ext>
4

>  <a_acc>
4

>  <a_acid>
0

>  <a_aro>
6

>  <a_base>
0

>  <a_count>
41

>  <a_don>
3

>  <a_donacc>
7

>  <a_heavy>
23

>  <a_hyd>
13

>  <a_IC>
81.740379

>  <a_ICM>
1.9936677

>  <a_nB>
0

>  <a_nBr>
0

>  <a_nC>
13

>  <a_nCl>
1

>  <a_nF>
0

>  <a_nH>
18

>  <a_nI>
0

>  <a_nN>
3

>  <a_nO>
4

>  <a_nP>
0

>  <a_nS>
2

>  <balabanJ>
1.693942

>  <BCUT_PEOE_0>
-2.7156956

>  <BCUT_PEOE_1>
-0.53970259

>  <BCUT_PEOE_2>
0.57812971

>  <BCUT_PEOE_3>
2.7704384

>  <BCUT_SLOGP_0>
-2.7991784

>  <BCUT_SLOGP_1>
-0.47446814

>  <BCUT_SLOGP_2>
0.65003765

>  <BCUT_SLOGP_3>
2.8979669

>  <BCUT_SMR_0>
-2.4303775

>  <BCUT_SMR_1>
-0.41867766

>  <BCUT_SMR_2>
0.70321798

>  <BCUT_SMR_3>
3.0402467

>  <bpol>
33.709724

>  <b_1rotN>
3

>  <b_1rotR>
0.12

>  <b_ar>
6

>  <b_count>
43

>  <b_double>
0

>  <b_heavy>
25

>  <b_max1len>
4

>  <b_rotN>
3

>  <b_rotR>
0.12

>  <b_single>
37

>  <b_triple>
0

>  <chi0>
16.828062

>  <chi0v>
14.638661

>  <chi0v_C>
7.8449349

>  <chi0_C>
8.4138489

>  <chi1>
10.665651

>  <chi1v>
10.726214

>  <chi1v_C>
4.7876935

>  <chi1_C>
5.432653

>  <chiral>
1

>  <chiral_u>
1

>  <density>
0.92074847

>  <diameter>
11

>  <FCharge>
0

>  <GCUT_PEOE_0>
-0.88862497

>  <GCUT_PEOE_1>
-0.39309308

>  <GCUT_PEOE_2>
0.046739902

>  <GCUT_PEOE_3>
2.769537

>  <GCUT_SLOGP_0>
-1.3482866

>  <GCUT_SLOGP_1>
-0.39938685

>  <GCUT_SLOGP_2>
0.14015506

>  <GCUT_SLOGP_3>
2.8202789

>  <GCUT_SMR_0>
-0.53613096

>  <GCUT_SMR_1>
-0.18071304

>  <GCUT_SMR_2>
0.15948232

>  <GCUT_SMR_3>
3.0289438

>  <Kier1>
17.811199

>  <Kier2>
6.3786983

>  <Kier3>
3.8194444

>  <KierA1>
19.049721

>  <KierA2>
6.8435488

>  <KierA3>
4.1074328

>  <KierFlex>
5.6681604

>  <lip_acc>
7

>  <lip_don>
4

>  <lip_druglike>
1

>  <lip_violation>
0

>  <logP(o/w)>
1.729

>  <logS>
-4.4976101

>  <mr>
8.8678331

>  <mutagenic>
0

>  <nmol>
1

>  <opr_brigid>
16

>  <opr_leadlike>
1

>  <opr_nring>
3

>  <opr_nrot>
4

>  <opr_violation>
0

>  <PC+>
0

>  <PC->
0

>  <PEOE_PC+>
1.8148469

>  <PEOE_PC->
-1.8148469

>  <PEOE_RPC+>
0.17067459

>  <PEOE_RPC->
0.21112593

>  <PEOE_VSA+0>
92.864792

>  <PEOE_VSA+1>
17.149784

>  <PEOE_VSA+2>
26.880259

>  <PEOE_VSA+3>
0

>  <PEOE_VSA+4>
0

>  <PEOE_VSA+5>
0

>  <PEOE_VSA+6>
8.3692026

>  <PEOE_VSA-0>
29.57523

>  <PEOE_VSA-1>
64.387199

>  <PEOE_VSA-2>
34.546043

>  <PEOE_VSA-3>
9.0437498

>  <PEOE_VSA-4>
32.016521

>  <PEOE_VSA-5>
0

>  <PEOE_VSA-6>
0.13689101

>  <PEOE_VSA_FHYD>
0.87134439

>  <PEOE_VSA_FNEG>
0.53879994

>  <PEOE_VSA_FPNEG>
0.10208416

>  <PEOE_VSA_FPOL>
0.12865561

>  <PEOE_VSA_FPOS>
0.46120006

>  <PEOE_VSA_FPPOS>
0.026571454

>  <PEOE_VSA_HYD>
274.44705

>  <PEOE_VSA_NEG>
169.70564

>  <PEOE_VSA_PNEG>
32.153416

>  <PEOE_VSA_POL>
40.522617

>  <PEOE_VSA_POS>
145.26404

>  <PEOE_VSA_PPOS>
8.3692026

>  <petitjean>
0.45454547

>  <petitjeanSC>
0.83333331

>  <Q_PC+>
0

>  <Q_PC->
0

>  <Q_RPC+>
0

>  <Q_RPC->
0

>  <Q_VSA_FHYD>
1

>  <Q_VSA_FNEG>
0

>  <Q_VSA_FPNEG>
0

>  <Q_VSA_FPOL>
0

>  <Q_VSA_FPOS>
1

>  <Q_VSA_FPPOS>
0

>  <Q_VSA_HYD>
314.96967

>  <Q_VSA_NEG>
0

>  <Q_VSA_PNEG>
0

>  <Q_VSA_POL>
0

>  <Q_VSA_POS>
314.96967

>  <Q_VSA_PPOS>
0

>  <radius>
6

>  <reactive>
0

>  <rings>
3

>  <RPC+>
0

>  <RPC->
0

>  <rsynth>
1

>  <SlogP>
1.5976

>  <SlogP_VSA0>
47.69643

>  <SlogP_VSA1>
114.35413

>  <SlogP_VSA2>
16.834627

>  <SlogP_VSA3>
0

>  <SlogP_VSA4>
4.4107962

>  <SlogP_VSA5>
3.1014678

>  <SlogP_VSA6>
3.5006065

>  <SlogP_VSA7>
35.286369

>  <SlogP_VSA8>
94.342026

>  <SlogP_VSA9>
41.905392

>  <SMR>
8.7132397

>  <SMR_VSA0>
96.343376

>  <SMR_VSA1>
0

>  <SMR_VSA2>
23.917261

>  <SMR_VSA3>
7.0537477

>  <SMR_VSA4>
52.058933

>  <SMR_VSA5>
129.6284

>  <SMR_VSA6>
0

>  <SMR_VSA7>
52.43013

>  <TPSA>
118.36

>  <VAdjEq>
0.45137304

>  <VAdjMa>
5.643856

>  <VDistEq>
3.2357578

>  <VDistMa>
8.7539177

>  <vdw_area>
314.96967

>  <vdw_vol>
412.58716

>  <vsa_acc>
64.033043

>  <vsa_acid>
0

>  <vsa_base>
0

>  <vsa_don>
33.892902

>  <vsa_hyd>
162.03845

>  <vsa_other>
31.401779

>  <vsa_pol>
97.925949

>  <Weight>
379.88901

>  <weinerPath>
1153

>  <weinerPol>
37

>  <zagreb>
128

$$$$