OC=1C[C@@H]2CC[C@H]3[C@@H]4CC[C@](O)(C)[C@@]4(CC[C@@H]3[C@@]2(CC=1C=O)C)C
  MOE2013           2D

 24 27  0  0  1  0  0  0  0  0999 V2000
    0.0000    0.0000    0.0000 O   0  0  0  0  0  0  0  0  0  0  0  0
   -1.5000   -0.0040    0.0000 C   0  0  0  0  0  0  0  0  0  0  0  0
   -2.2530    1.2930    0.0000 C   0  0  0  0  0  0  0  0  0  0  0  0
   -3.7530    1.2890    0.0000 C   0  0  2  0  0  0  0  0  0  0  0  0
   -4.5070    2.5870    0.0000 C   0  0  0  0  0  0  0  0  0  0  0  0
   -6.0070    2.5830    0.0000 C   0  0  0  0  0  0  0  0  0  0  0  0
   -6.7530    1.2820    0.0000 C   0  0  1  0  0  0  0  0  0  0  0  0
   -8.2530    1.2780    0.0000 C   0  0  2  0  0  0  0  0  0  0  0  0
   -9.2600    2.3900    0.0000 C   0  0  0  0  0  0  0  0  0  0  0  0
  -10.6290    1.7760    0.0000 C   0  0  0  0  0  0  0  0  0  0  0  0
  -10.4680    0.2850    0.0000 C   0  0  2  0  0  0  0  0  0  0  0  0
  -11.9290   -0.0560    0.0000 O   0  0  0  0  0  0  0  0  0  0  0  0
  -10.8530   -1.1650    0.0000 C   0  0  0  0  0  0  0  0  0  0  0  0
   -9.0000   -0.0230    0.0000 C   0  0  2  0  0  0  0  0  0  0  0  0
   -8.2470   -1.3200    0.0000 C   0  0  0  0  0  0  0  0  0  0  0  0
   -6.7470   -1.3160    0.0000 C   0  0  0  0  0  0  0  0  0  0  0  0
   -6.0000   -0.0150    0.0000 C   0  0  2  0  0  0  0  0  0  0  0  0
   -4.5000   -0.0120    0.0000 C   0  0  2  0  0  0  0  0  0  0  0  0
   -3.7470   -1.3090    0.0000 C   0  0  0  0  0  0  0  0  0  0  0  0
   -2.2470   -1.3050    0.0000 C   0  0  0  0  0  0  0  0  0  0  0  0
   -1.4930   -2.6020    0.0000 C   0  0  0  0  0  0  0  0  0  0  0  0
    0.0070   -2.5980    0.0000 O   0  0  0  0  0  0  0  0  0  0  0  0
   -5.2690   -1.2990    0.0000 C   0  0  0  0  0  0  0  0  0  0  0  0
   -9.8790   -1.2390    0.0000 C   0  0  0  0  0  0  0  0  0  0  0  0
  1  2  1  0  0  0  0
  2  3  1  0  0  0  0
  2 20  2  0  0  0  0
  4  3  1  1  0  0  0
  4  5  1  0  0  0  0
  4 18  1  0  0  0  0
  5  6  1  0  0  0  0
  7  6  1  6  0  0  0
  7  8  1  0  0  0  0
  7 17  1  0  0  0  0
  8  9  1  1  0  0  0
  8 14  1  0  0  0  0
  9 10  1  0  0  0  0
 10 11  1  0  0  0  0
 11 12  1  6  0  0  0
 11 13  1  1  0  0  0
 11 14  1  0  0  0  0
 14 15  1  0  0  0  0
 14 24  1  6  0  0  0
 15 16  1  0  0  0  0
 17 16  1  1  0  0  0
 17 18  1  0  0  0  0
 18 19  1  0  0  0  0
 18 23  1  6  0  0  0
 19 20  1  0  0  0  0
 20 21  1  0  0  0  0
 21 22  2  0  0  0  0
M  END
>  <Index>
1682

>  <ID>
HT1569

>  <class>
1

>  <apol>
60.703377

>  <ast_fraglike>
0

>  <ast_fraglike_ext>
0

>  <ast_violation>
2

>  <ast_violation_ext>
2

>  <a_acc>
3

>  <a_acid>
0

>  <a_aro>
0

>  <a_base>
0

>  <a_count>
56

>  <a_don>
3

>  <a_donacc>
6

>  <a_heavy>
24

>  <a_hyd>
20

>  <a_IC>
68.218323

>  <a_ICM>
1.2181844

>  <a_nB>
0

>  <a_nBr>
0

>  <a_nC>
21

>  <a_nCl>
0

>  <a_nF>
0

>  <a_nH>
32

>  <a_nI>
0

>  <a_nN>
0

>  <a_nO>
3

>  <a_nP>
0

>  <a_nS>
0

>  <balabanJ>
1.6356723

>  <BCUT_PEOE_0>
-2.977798

>  <BCUT_PEOE_1>
-0.2908504

>  <BCUT_PEOE_2>
0.36829782

>  <BCUT_PEOE_3>
2.9806378

>  <BCUT_SLOGP_0>
-2.8985281

>  <BCUT_SLOGP_1>
-0.27387017

>  <BCUT_SLOGP_2>
0.39964724

>  <BCUT_SLOGP_3>
3.056854

>  <BCUT_SMR_0>
-2.723968

>  <BCUT_SMR_1>
-0.13764486

>  <BCUT_SMR_2>
0.4934541

>  <BCUT_SMR_3>
3.2329066

>  <bpol>
35.940624

>  <b_1rotN>
1

>  <b_1rotR>
0.037037037

>  <b_ar>
0

>  <b_count>
59

>  <b_double>
2

>  <b_heavy>
27

>  <b_max1len>
4

>  <b_rotN>
1

>  <b_rotR>
0.037037037

>  <b_single>
57

>  <b_triple>
0

>  <chi0>
17.328062

>  <chi0v>
15.346281

>  <chi0v_C>
14.043606

>  <chi0_C>
14.328063

>  <chi1>
11.227129

>  <chi1v>
9.8132915

>  <chi1v_C>
9.1303759

>  <chi1_C>
9.4426718

>  <chiral>
7

>  <chiral_u>
0

>  <density>
0.68745315

>  <diameter>
10

>  <FCharge>
0

>  <GCUT_PEOE_0>
-0.80560243

>  <GCUT_PEOE_1>
-0.36015084

>  <GCUT_PEOE_2>
-0.020031683

>  <GCUT_PEOE_3>
3.3801911

>  <GCUT_SLOGP_0>
-0.88373458

>  <GCUT_SLOGP_1>
-0.28432941

>  <GCUT_SLOGP_2>
0.042815894

>  <GCUT_SLOGP_3>
3.4652407

>  <GCUT_SMR_0>
-0.54211336

>  <GCUT_SMR_1>
-0.16634588

>  <GCUT_SMR_2>
0.10405922

>  <GCUT_SMR_3>
3.6024389

>  <Kier1>
17.415638

>  <Kier2>
5.4972839

>  <Kier3>
2.2642014

>  <KierA1>
16.191078

>  <KierA2>
5.0938644

>  <KierA3>
2.093056

>  <KierFlex>
3.436465

>  <lip_acc>
3

>  <lip_don>
2

>  <lip_druglike>
1

>  <lip_violation>
0

>  <logP(o/w)>
4.217

>  <logS>
-4.5627398

>  <mr>
9.3536282

>  <mutagenic>
1

>  <nmol>
1

>  <opr_brigid>
20

>  <opr_leadlike>
1

>  <opr_nring>
4

>  <opr_nrot>
1

>  <opr_violation>
0

>  <PC+>
0

>  <PC->
0

>  <PEOE_PC+>
1.627568

>  <PEOE_PC->
-1.627568

>  <PEOE_RPC+>
0.13326146

>  <PEOE_RPC->
0.23857552

>  <PEOE_VSA+0>
125.90473

>  <PEOE_VSA+1>
8.458519

>  <PEOE_VSA+2>
22.770269

>  <PEOE_VSA+3>
0

>  <PEOE_VSA+4>
20.648346

>  <PEOE_VSA+5>
0

>  <PEOE_VSA+6>
0

>  <PEOE_VSA-0>
88.358185

>  <PEOE_VSA-1>
37.495354

>  <PEOE_VSA-2>
0

>  <PEOE_VSA-3>
0

>  <PEOE_VSA-4>
0

>  <PEOE_VSA-5>
13.566921

>  <PEOE_VSA-6>
15.535081

>  <PEOE_VSA_FHYD>
0.85048163

>  <PEOE_VSA_FNEG>
0.4656992

>  <PEOE_VSA_FPNEG>
0.087462366

>  <PEOE_VSA_FPOL>
0.14951834

>  <PEOE_VSA_FPOS>
0.5343008

>  <PEOE_VSA_FPPOS>
0.062055979

>  <PEOE_VSA_HYD>
282.98706

>  <PEOE_VSA_NEG>
154.95554

>  <PEOE_VSA_PNEG>
29.102001

>  <PEOE_VSA_POL>
49.750347

>  <PEOE_VSA_POS>
177.78188

>  <PEOE_VSA_PPOS>
20.648346

>  <petitjean>
0.5

>  <petitjeanSC>
1

>  <Q_PC+>
0

>  <Q_PC->
0

>  <Q_RPC+>
0

>  <Q_RPC->
0

>  <Q_VSA_FHYD>
1

>  <Q_VSA_FNEG>
0

>  <Q_VSA_FPNEG>
0

>  <Q_VSA_FPOL>
0

>  <Q_VSA_FPOS>
1

>  <Q_VSA_FPPOS>
0

>  <Q_VSA_HYD>
332.7374

>  <Q_VSA_NEG>
0

>  <Q_VSA_PNEG>
0

>  <Q_VSA_POL>
0

>  <Q_VSA_POS>
332.7374

>  <Q_VSA_PPOS>
0

>  <radius>
5

>  <reactive>
1

>  <rings>
4

>  <RPC+>
0

>  <RPC->
0

>  <rsynth>
0.125

>  <SlogP>
4.401

>  <SlogP_VSA0>
25.385227

>  <SlogP_VSA1>
0

>  <SlogP_VSA2>
44.007435

>  <SlogP_VSA3>
25.385227

>  <SlogP_VSA4>
17.643185

>  <SlogP_VSA5>
8.4290028

>  <SlogP_VSA6>
0

>  <SlogP_VSA7>
0

>  <SlogP_VSA8>
150.94725

>  <SlogP_VSA9>
99.978043

>  <SMR>
9.3452597

>  <SMR_VSA0>
23.862217

>  <SMR_VSA1>
25.385227

>  <SMR_VSA2>
43.028412

>  <SMR_VSA3>
8.4290028

>  <SMR_VSA4>
0

>  <SMR_VSA5>
150.94725

>  <SMR_VSA6>
0

>  <SMR_VSA7>
120.12327

>  <TPSA>
57.529999

>  <VAdjEq>
0.44886449

>  <VAdjMa>
5.7548876

>  <VDistEq>
3.0825088

>  <VDistMa>
8.8982344

>  <vdw_area>
332.7374

>  <vdw_vol>
483.64603

>  <vsa_acc>
0

>  <vsa_acid>
0

>  <vsa_base>
0

>  <vsa_don>
0

>  <vsa_hyd>
234.19452

>  <vsa_other>
22.058474

>  <vsa_pol>
40.700764

>  <Weight>
332.48398

>  <weinerPath>
1160

>  <weinerPol>
53

>  <zagreb>
144

$$$$