P(O)(O)(=O)[C@H]1O[C@H]1C
  MOE2013           2D

  8  8  0  0  1  0  0  0  0  0999 V2000
    0.0000    0.0000    0.0000 P   0  0  0  0  0  0  0  0  0  0  0  0
    0.7400   -1.3050    0.0000 O   0  0  0  0  0  0  0  0  0  0  0  0
   -1.3050   -0.7400    0.0000 O   0  0  0  0  0  0  0  0  0  0  0  0
   -0.7400    1.3050    0.0000 O   0  0  0  0  0  0  0  0  0  0  0  0
    1.3050    0.7400    0.0000 C   0  0  1  0  0  0  0  0  0  0  0  0
    2.0640    2.0340    0.0000 O   0  0  0  0  0  0  0  0  0  0  0  0
    2.8040    0.7290    0.0000 C   0  0  1  0  0  0  0  0  0  0  0  0
    4.0980   -0.0300    0.0000 C   0  0  0  0  0  0  0  0  0  0  0  0
  1  2  1  0  0  0  0
  1  3  1  0  0  0  0
  1  4  2  0  0  0  0
  5  1  1  1  0  0  0
  5  6  1  0  0  0  0
  5  7  1  0  0  0  0
  6  7  1  0  0  0  0
  7  8  1  1  0  0  0
M  END
>  <Index>
1580

>  <ID>
HT0937

>  <class>
1

>  <apol>
16.785551

>  <ast_fraglike>
0

>  <ast_fraglike_ext>
0

>  <ast_violation>
1

>  <ast_violation_ext>
1

>  <a_acc>
4

>  <a_acid>
0

>  <a_aro>
0

>  <a_base>
0

>  <a_count>
15

>  <a_don>
3

>  <a_donacc>
7

>  <a_heavy>
8

>  <a_hyd>
3

>  <a_IC>
26.196987

>  <a_ICM>
1.7464658

>  <a_nB>
0

>  <a_nBr>
0

>  <a_nC>
3

>  <a_nCl>
0

>  <a_nF>
0

>  <a_nH>
7

>  <a_nI>
0

>  <a_nN>
0

>  <a_nO>
4

>  <a_nP>
1

>  <a_nS>
0

>  <balabanJ>
2.3899639

>  <BCUT_PEOE_0>
-2.3112719

>  <BCUT_PEOE_1>
-0.74770194

>  <BCUT_PEOE_2>
0.56007588

>  <BCUT_PEOE_3>
2.8167708

>  <BCUT_SLOGP_0>
-2.3930678

>  <BCUT_SLOGP_1>
-1.1523613

>  <BCUT_SLOGP_2>
0.35914618

>  <BCUT_SLOGP_3>
2.7697272

>  <BCUT_SMR_0>
-2.1072519

>  <BCUT_SMR_1>
-0.54333949

>  <BCUT_SMR_2>
0.65651941

>  <BCUT_SMR_3>
3.0124025

>  <bpol>
18.006449

>  <b_1rotN>
1

>  <b_1rotR>
0.125

>  <b_ar>
0

>  <b_count>
15

>  <b_double>
0

>  <b_heavy>
8

>  <b_max1len>
4

>  <b_rotN>
1

>  <b_rotR>
0.125

>  <b_single>
15

>  <b_triple>
0

>  <chi0>
6.3618073

>  <chi0v>
5.2072649

>  <chi0v_C>
2.1547005

>  <chi0_C>
2.1547005

>  <chi1>
3.5158553

>  <chi1v>
3.9044073

>  <chi1v_C>
0.91068363

>  <chi1_C>
0.91068363

>  <chiral>
2

>  <chiral_u>
0

>  <density>
1.0078027

>  <diameter>
4

>  <FCharge>
0

>  <GCUT_PEOE_0>
-0.72961044

>  <GCUT_PEOE_1>
-0.4463369

>  <GCUT_PEOE_2>
0.093249395

>  <GCUT_PEOE_3>
2.0746427

>  <GCUT_SLOGP_0>
-1.2940634

>  <GCUT_SLOGP_1>
-0.54339206

>  <GCUT_SLOGP_2>
-0.022413455

>  <GCUT_SLOGP_3>
2.0845072

>  <GCUT_SMR_0>
-0.49593866

>  <GCUT_SMR_1>
-0.25135872

>  <GCUT_SMR_2>
0.1796775

>  <GCUT_SMR_3>
2.2766426

>  <Kier1>
6.125

>  <Kier2>
1.4911243

>  <Kier3>
0.91836733

>  <KierA1>
7.5980849

>  <KierA2>
1.9117185

>  <KierA3>
1.2113749

>  <KierFlex>
1.8156749

>  <lip_acc>
4

>  <lip_don>
2

>  <lip_druglike>
1

>  <lip_violation>
0

>  <logP(o/w)>
-1.207

>  <logS>
0.57955998

>  <mr>
2.8224318

>  <mutagenic>
1

>  <nmol>
1

>  <opr_brigid>
3

>  <opr_leadlike>
1

>  <opr_nring>
1

>  <opr_nrot>
1

>  <opr_violation>
0

>  <PC+>
0

>  <PC->
0

>  <PEOE_PC+>
1.2444426

>  <PEOE_PC->
-1.2444426

>  <PEOE_RPC+>
0.25284582

>  <PEOE_RPC->
0.27304575

>  <PEOE_VSA+0>
12.796158

>  <PEOE_VSA+1>
4.2653861

>  <PEOE_VSA+2>
29.818661

>  <PEOE_VSA+3>
0

>  <PEOE_VSA+4>
6.4254417

>  <PEOE_VSA+5>
0

>  <PEOE_VSA+6>
13.666999

>  <PEOE_VSA-0>
18.747677

>  <PEOE_VSA-1>
0

>  <PEOE_VSA-2>
0

>  <PEOE_VSA-3>
0

>  <PEOE_VSA-4>
15.729136

>  <PEOE_VSA-5>
0

>  <PEOE_VSA-6>
22.363268

>  <PEOE_VSA_FHYD>
0.53005767

>  <PEOE_VSA_FNEG>
0.45908108

>  <PEOE_VSA_FPNEG>
0.30766147

>  <PEOE_VSA_FPOL>
0.46994236

>  <PEOE_VSA_FPOS>
0.54091889

>  <PEOE_VSA_FPPOS>
0.1622809

>  <PEOE_VSA_HYD>
65.627884

>  <PEOE_VSA_NEG>
56.84008

>  <PEOE_VSA_PNEG>
38.092403

>  <PEOE_VSA_POL>
58.184845

>  <PEOE_VSA_POS>
66.972641

>  <PEOE_VSA_PPOS>
20.09244

>  <petitjean>
0.5

>  <petitjeanSC>
1

>  <Q_PC+>
0

>  <Q_PC->
0

>  <Q_RPC+>
0

>  <Q_RPC->
0

>  <Q_VSA_FHYD>
1

>  <Q_VSA_FNEG>
0

>  <Q_VSA_FPNEG>
0

>  <Q_VSA_FPOL>
0

>  <Q_VSA_FPOS>
1

>  <Q_VSA_FPPOS>
0

>  <Q_VSA_HYD>
123.81273

>  <Q_VSA_NEG>
0

>  <Q_VSA_PNEG>
0

>  <Q_VSA_POL>
0

>  <Q_VSA_POS>
123.81273

>  <Q_VSA_PPOS>
0

>  <radius>
2

>  <reactive>
1

>  <rings>
1

>  <RPC+>
0

>  <RPC->
0

>  <rsynth>
0

>  <SlogP>
-1.1612999

>  <SlogP_VSA0>
65.047699

>  <SlogP_VSA1>
0

>  <SlogP_VSA2>
21.108021

>  <SlogP_VSA3>
0

>  <SlogP_VSA4>
0

>  <SlogP_VSA5>
0

>  <SlogP_VSA6>
0

>  <SlogP_VSA7>
0

>  <SlogP_VSA8>
0

>  <SlogP_VSA9>
48.125488

>  <SMR>
2.5692599

>  <SMR_VSA0>
33.433655

>  <SMR_VSA1>
42.613937

>  <SMR_VSA2>
0

>  <SMR_VSA3>
10.108133

>  <SMR_VSA4>
0

>  <SMR_VSA5>
0

>  <SMR_VSA6>
0

>  <SMR_VSA7>
48.125488

>  <TPSA>
70.059998

>  <VAdjEq>
0.8112781

>  <VAdjMa>
4

>  <VDistEq>
1.892153

>  <VDistMa>
5.6637831

>  <vdw_area>
123.81273

>  <vdw_vol>
136.9901

>  <vsa_acc>
2.503756

>  <vsa_acid>
0

>  <vsa_base>
0

>  <vsa_don>
0

>  <vsa_hyd>
47.846001

>  <vsa_other>
13.666999

>  <vsa_pol>
49.691166

>  <Weight>
138.05901

>  <weinerPath>
61

>  <weinerPol>
7

>  <zagreb>
42

$$$$