O1Cc2c(cccc2)C(c2c1cccc2)=C/CCN(C)C
  MOE2013           2D

 21 23  0  0  0  0  0  0  0  0999 V2000
    0.0000    0.0000    0.0000 O   0  0  0  0  0  0  0  0  0  0  0  0
   -1.3560    0.6420    0.0000 C   0  0  0  0  0  0  0  0  0  0  0  0
   -1.7000    2.1020    0.0000 C   0  0  0  0  0  0  0  0  0  0  0  0
   -0.7730    3.2820    0.0000 C   0  0  0  0  0  0  0  0  0  0  0  0
   -1.3320    4.6740    0.0000 C   0  0  0  0  0  0  0  0  0  0  0  0
   -2.8170    4.8860    0.0000 C   0  0  0  0  0  0  0  0  0  0  0  0
   -3.7430    3.7060    0.0000 C   0  0  0  0  0  0  0  0  0  0  0  0
   -3.1850    2.3140    0.0000 C   0  0  0  0  0  0  0  0  0  0  0  0
    0.7270    3.2940    0.0000 C   0  0  0  0  0  0  0  0  0  0  0  0
    1.6690    2.1260    0.0000 C   0  0  0  0  0  0  0  0  0  0  0  0
    1.3460    0.6610    0.0000 C   0  0  0  0  0  0  0  0  0  0  0  0
    2.4530   -0.3510    0.0000 C   0  0  0  0  0  0  0  0  0  0  0  0
    3.8830    0.1020    0.0000 C   0  0  0  0  0  0  0  0  0  0  0  0
    4.2070    1.5670    0.0000 C   0  0  0  0  0  0  0  0  0  0  0  0
    3.1000    2.5790    0.0000 C   0  0  0  0  0  0  0  0  0  0  0  0
    1.3670    4.6500    0.0000 C   0  0  0  0  0  0  0  0  0  0  0  0
    2.8620    4.7730    0.0000 C   0  0  0  0  0  0  0  0  0  0  0  0
    3.5030    6.1300    0.0000 C   0  0  0  0  0  0  0  0  0  0  0  0
    4.9980    6.2530    0.0000 N   0  0  0  0  0  0  0  0  0  0  0  0
    5.8520    5.0200    0.0000 C   0  0  0  0  0  0  0  0  0  0  0  0
    5.6390    7.6090    0.0000 C   0  0  0  0  0  0  0  0  0  0  0  0
  1  2  1  0  0  0  0
  1 11  1  0  0  0  0
  2  3  1  0  0  0  0
  3  4  1  0  0  0  0
  3  8  2  0  0  0  0
  4  5  2  0  0  0  0
  4  9  1  0  0  0  0
  5  6  1  0  0  0  0
  6  7  2  0  0  0  0
  7  8  1  0  0  0  0
  9 10  1  0  0  0  0
  9 16  2  3  0  0  0
 10 11  1  0  0  0  0
 10 15  2  0  0  0  0
 11 12  2  0  0  0  0
 12 13  1  0  0  0  0
 13 14  2  0  0  0  0
 14 15  1  0  0  0  0
 16 17  1  0  0  0  0
 17 18  1  0  0  0  0
 18 19  1  0  0  0  0
 19 20  1  0  0  0  0
 19 21  1  0  0  0  0
M  END
>  <Index>
1540

>  <ID>
HT0716

>  <class>
1

>  <apol>
49.344654

>  <ast_fraglike>
0

>  <ast_fraglike_ext>
0

>  <ast_violation>
1

>  <ast_violation_ext>
1

>  <a_acc>
2

>  <a_acid>
0

>  <a_aro>
12

>  <a_base>
0

>  <a_count>
42

>  <a_don>
0

>  <a_donacc>
2

>  <a_heavy>
21

>  <a_hyd>
19

>  <a_IC>
53.528042

>  <a_ICM>
1.2744772

>  <a_nB>
0

>  <a_nBr>
0

>  <a_nC>
19

>  <a_nCl>
0

>  <a_nF>
0

>  <a_nH>
21

>  <a_nI>
0

>  <a_nN>
1

>  <a_nO>
1

>  <a_nP>
0

>  <a_nS>
0

>  <balabanJ>
1.7133598

>  <BCUT_PEOE_0>
-2.607471

>  <BCUT_PEOE_1>
-0.55866694

>  <BCUT_PEOE_2>
0.60531753

>  <BCUT_PEOE_3>
2.4972813

>  <BCUT_SLOGP_0>
-2.6599362

>  <BCUT_SLOGP_1>
-0.45610291

>  <BCUT_SLOGP_2>
0.71214736

>  <BCUT_SLOGP_3>
2.5503006

>  <BCUT_SMR_0>
-2.3218675

>  <BCUT_SMR_1>
-0.4154999

>  <BCUT_SMR_2>
0.7569229

>  <BCUT_SMR_3>
2.7776551

>  <bpol>
26.853348

>  <b_1rotN>
3

>  <b_1rotR>
0.13043478

>  <b_ar>
12

>  <b_count>
44

>  <b_double>
1

>  <b_heavy>
23

>  <b_max1len>
6

>  <b_rotN>
3

>  <b_rotR>
0.13043478

>  <b_single>
31

>  <b_triple>
0

>  <chi0>
14.656489

>  <chi0v>
12.672935

>  <chi0v_C>
11.817472

>  <chi0_C>
13.372033

>  <chi1>
10.25402

>  <chi1v>
7.4086318

>  <chi1v_C>
5.7051773

>  <chi1_C>
7.7828231

>  <chiral>
0

>  <chiral_u>
0

>  <density>
0.6595217

>  <diameter>
9

>  <FCharge>
0

>  <GCUT_PEOE_0>
-0.86318815

>  <GCUT_PEOE_1>
-0.3563616

>  <GCUT_PEOE_2>
0.050248101

>  <GCUT_PEOE_3>
2.6335905

>  <GCUT_SLOGP_0>
-0.9530592

>  <GCUT_SLOGP_1>
-0.27684131

>  <GCUT_SLOGP_2>
0.14030114

>  <GCUT_SLOGP_3>
2.7671812

>  <GCUT_SMR_0>
-0.51704186

>  <GCUT_SMR_1>
-0.1872661

>  <GCUT_SMR_2>
0.16317685

>  <GCUT_SMR_3>
2.9227657

>  <Kier1>
15.879017

>  <Kier2>
7.5130072

>  <Kier3>
3.8548484

>  <KierA1>
11.983418

>  <KierA2>
5.5836325

>  <KierA3>
2.8312824

>  <KierFlex>
3.1862381

>  <lip_acc>
2

>  <lip_don>
0

>  <lip_druglike>
1

>  <lip_violation>
0

>  <logP(o/w)>
4.165

>  <logS>
-3.5943401

>  <mr>
8.7207632

>  <mutagenic>
0

>  <nmol>
1

>  <opr_brigid>
18

>  <opr_leadlike>
1

>  <opr_nring>
3

>  <opr_nrot>
3

>  <opr_violation>
0

>  <PC+>
0

>  <PC->
0

>  <PEOE_PC+>
1.2417873

>  <PEOE_PC->
-1.2417873

>  <PEOE_RPC+>
0.067881264

>  <PEOE_RPC->
0.27338359

>  <PEOE_VSA+0>
58.054726

>  <PEOE_VSA+1>
70.329056

>  <PEOE_VSA+2>
0

>  <PEOE_VSA+3>
0

>  <PEOE_VSA+4>
0

>  <PEOE_VSA+5>
0

>  <PEOE_VSA+6>
0

>  <PEOE_VSA-0>
74.059212

>  <PEOE_VSA-1>
98.03923

>  <PEOE_VSA-2>
0

>  <PEOE_VSA-3>
0

>  <PEOE_VSA-4>
0

>  <PEOE_VSA-5>
0

>  <PEOE_VSA-6>
2.503756

>  <PEOE_VSA_FHYD>
0.99173641

>  <PEOE_VSA_FNEG>
0.57627153

>  <PEOE_VSA_FPNEG>
0.0082636038

>  <PEOE_VSA_FPOL>
0.0082636038

>  <PEOE_VSA_FPOS>
0.42372847

>  <PEOE_VSA_FPPOS>
0

>  <PEOE_VSA_HYD>
300.48224

>  <PEOE_VSA_NEG>
174.6022

>  <PEOE_VSA_PNEG>
2.503756

>  <PEOE_VSA_POL>
2.503756

>  <PEOE_VSA_POS>
128.38379

>  <PEOE_VSA_PPOS>
0

>  <petitjean>
0.44444445

>  <petitjeanSC>
0.80000001

>  <Q_PC+>
0

>  <Q_PC->
0

>  <Q_RPC+>
0

>  <Q_RPC->
0

>  <Q_VSA_FHYD>
1

>  <Q_VSA_FNEG>
0

>  <Q_VSA_FPNEG>
0

>  <Q_VSA_FPOL>
0

>  <Q_VSA_FPOS>
1

>  <Q_VSA_FPPOS>
0

>  <Q_VSA_HYD>
302.98599

>  <Q_VSA_NEG>
0

>  <Q_VSA_PNEG>
0

>  <Q_VSA_POL>
0

>  <Q_VSA_POS>
302.98599

>  <Q_VSA_PPOS>
0

>  <radius>
5

>  <reactive>
0

>  <rings>
3

>  <RPC+>
0

>  <RPC->
0

>  <rsynth>
1

>  <SlogP>
4.0460901

>  <SlogP_VSA0>
10.999887

>  <SlogP_VSA1>
3.1243138

>  <SlogP_VSA2>
0

>  <SlogP_VSA3>
21.625153

>  <SlogP_VSA4>
9.5567245

>  <SlogP_VSA5>
65.794373

>  <SlogP_VSA6>
0

>  <SlogP_VSA7>
158.78867

>  <SlogP_VSA8>
18.868406

>  <SlogP_VSA9>
26.169687

>  <SMR>
8.6609001

>  <SMR_VSA0>
0

>  <SMR_VSA1>
14.124202

>  <SMR_VSA2>
3.185575

>  <SMR_VSA3>
14.800153

>  <SMR_VSA4>
0

>  <SMR_VSA5>
198.58333

>  <SMR_VSA6>
18.439579

>  <SMR_VSA7>
65.794373

>  <TPSA>
12.47

>  <VAdjEq>
0.48250595

>  <VAdjMa>
5.523562

>  <VDistEq>
3.0281317

>  <VDistMa>
8.515563

>  <vdw_area>
302.98599

>  <vdw_vol>
423.61456

>  <vsa_acc>
2.503756

>  <vsa_acid>
0

>  <vsa_base>
0

>  <vsa_don>
0

>  <vsa_hyd>
285.53452

>  <vsa_other>
0

>  <vsa_pol>
2.503756

>  <Weight>
279.383

>  <weinerPath>
882

>  <weinerPol>
35

>  <zagreb>
108

$$$$