O(c1cc(ccc1)C(C(O)=O)C)c1ccccc1
  MOE2013           2D

 18 19  0  0  1  0  0  0  0  0999 V2000
    0.0000    0.0000    0.0000 O   0  0  0  0  0  0  0  0  0  0  0  0
    1.3010    0.7470    0.0000 C   0  0  0  0  0  0  0  0  0  0  0  0
    2.5980   -0.0060    0.0000 C   0  0  0  0  0  0  0  0  0  0  0  0
    3.8990    0.7410    0.0000 C   0  0  0  0  0  0  0  0  0  0  0  0
    3.9020    2.2410    0.0000 C   0  0  0  0  0  0  0  0  0  0  0  0
    2.6050    2.9940    0.0000 C   0  0  0  0  0  0  0  0  0  0  0  0
    1.3040    2.2470    0.0000 C   0  0  0  0  0  0  0  0  0  0  0  0
    5.1960   -0.0110    0.0000 C   0  0  3  0  0  0  0  0  0  0  0  0
    6.4970    0.7360    0.0000 C   0  0  0  0  0  0  0  0  0  0  0  0
    6.5000    2.2360    0.0000 O   0  0  0  0  0  0  0  0  0  0  0  0
    7.7940   -0.0170    0.0000 O   0  0  0  0  0  0  0  0  0  0  0  0
    5.1930   -1.5110    0.0000 C   0  0  0  0  0  0  0  0  0  0  0  0
   -1.2970    0.7530    0.0000 C   0  0  0  0  0  0  0  0  0  0  0  0
   -1.2940    2.2530    0.0000 C   0  0  0  0  0  0  0  0  0  0  0  0
   -2.5910    3.0060    0.0000 C   0  0  0  0  0  0  0  0  0  0  0  0
   -3.8920    2.2590    0.0000 C   0  0  0  0  0  0  0  0  0  0  0  0
   -3.8950    0.7590    0.0000 C   0  0  0  0  0  0  0  0  0  0  0  0
   -2.5980    0.0060    0.0000 C   0  0  0  0  0  0  0  0  0  0  0  0
  1  2  1  0  0  0  0
  1 13  1  0  0  0  0
  2  3  1  0  0  0  0
  2  7  2  0  0  0  0
  3  4  2  0  0  0  0
  4  5  1  0  0  0  0
  4  8  1  0  0  0  0
  5  6  2  0  0  0  0
  6  7  1  0  0  0  0
  8  9  1  0  0  0  0
  8 12  1  0  0  0  0
  9 10  1  0  0  0  0
  9 11  2  0  0  0  0
 13 14  1  0  0  0  0
 13 18  2  0  0  0  0
 14 15  2  0  0  0  0
 15 16  1  0  0  0  0
 16 17  2  0  0  0  0
 17 18  1  0  0  0  0
M  END
>  <Index>
1565

>  <ID>
HT0862

>  <class>
1

>  <apol>
38.141102

>  <ast_fraglike>
0

>  <ast_fraglike_ext>
0

>  <ast_violation>
1

>  <ast_violation_ext>
2

>  <a_acc>
2

>  <a_acid>
0

>  <a_aro>
12

>  <a_base>
0

>  <a_count>
32

>  <a_don>
2

>  <a_donacc>
4

>  <a_heavy>
18

>  <a_hyd>
14

>  <a_IC>
43.338783

>  <a_ICM>
1.354337

>  <a_nB>
0

>  <a_nBr>
0

>  <a_nC>
15

>  <a_nCl>
0

>  <a_nF>
0

>  <a_nH>
14

>  <a_nI>
0

>  <a_nN>
0

>  <a_nO>
3

>  <a_nP>
0

>  <a_nS>
0

>  <balabanJ>
1.7954082

>  <BCUT_PEOE_0>
-2.4242201

>  <BCUT_PEOE_1>
-0.62212217

>  <BCUT_PEOE_2>
0.68026048

>  <BCUT_PEOE_3>
2.4719605

>  <BCUT_SLOGP_0>
-2.3806345

>  <BCUT_SLOGP_1>
-0.52091944

>  <BCUT_SLOGP_2>
0.78390366

>  <BCUT_SLOGP_3>
2.5476272

>  <BCUT_SMR_0>
-2.1822038

>  <BCUT_SMR_1>
-0.47993791

>  <BCUT_SMR_2>
0.83010918

>  <BCUT_SMR_3>
2.7177579

>  <bpol>
18.178898

>  <b_1rotN>
4

>  <b_1rotR>
0.21052632

>  <b_ar>
12

>  <b_count>
33

>  <b_double>
1

>  <b_heavy>
19

>  <b_max1len>
3

>  <b_rotN>
4

>  <b_rotR>
0.21052632

>  <b_single>
20

>  <b_triple>
0

>  <chi0>
12.957819

>  <chi0v>
10.037213

>  <chi0v_C>
8.7735023

>  <chi0_C>
10.250712

>  <chi1>
8.6647034

>  <chi1v>
5.7227306

>  <chi1v_C>
4.8867512

>  <chi1_C>
6.6935067

>  <chiral>
1

>  <chiral_u>
1

>  <density>
0.71786207

>  <diameter>
10

>  <FCharge>
0

>  <GCUT_PEOE_0>
-0.75981766

>  <GCUT_PEOE_1>
-0.42763957

>  <GCUT_PEOE_2>
0.070354819

>  <GCUT_PEOE_3>
2.3659179

>  <GCUT_SLOGP_0>
-0.87403697

>  <GCUT_SLOGP_1>
-0.32490727

>  <GCUT_SLOGP_2>
0.16009121

>  <GCUT_SLOGP_3>
2.5206907

>  <GCUT_SMR_0>
-0.50069314

>  <GCUT_SMR_1>
-0.2266043

>  <GCUT_SMR_2>
0.18966471

>  <GCUT_SMR_3>
2.6462493

>  <Kier1>
14.409972

>  <Kier2>
6.9632001

>  <Kier3>
4.2666669

>  <KierA1>
10.248212

>  <KierA2>
4.8433371

>  <KierA3>
2.9191182

>  <KierFlex>
2.75753

>  <lip_acc>
3

>  <lip_don>
1

>  <lip_druglike>
1

>  <lip_violation>
0

>  <logP(o/w)>
3.688

>  <logS>
-3.4002299

>  <mr>
7.030056

>  <mutagenic>
0

>  <nmol>
1

>  <opr_brigid>
12

>  <opr_leadlike>
1

>  <opr_nring>
2

>  <opr_nrot>
4

>  <opr_violation>
0

>  <PC+>
0

>  <PC->
0

>  <PEOE_PC+>
1.404139

>  <PEOE_PC->
-1.404139

>  <PEOE_RPC+>
0.19000715

>  <PEOE_RPC->
0.2356029

>  <PEOE_VSA+0>
17.061544

>  <PEOE_VSA+1>
55.305511

>  <PEOE_VSA+2>
0

>  <PEOE_VSA+3>
0

>  <PEOE_VSA+4>
10.324173

>  <PEOE_VSA+5>
14.708499

>  <PEOE_VSA+6>
0

>  <PEOE_VSA-0>
69.97583

>  <PEOE_VSA-1>
61.274521

>  <PEOE_VSA-2>
0

>  <PEOE_VSA-3>
0

>  <PEOE_VSA-4>
0

>  <PEOE_VSA-5>
13.566921

>  <PEOE_VSA-6>
10.271297

>  <PEOE_VSA_FHYD>
0.80644298

>  <PEOE_VSA_FNEG>
0.61424065

>  <PEOE_VSA_FPNEG>
0.094413154

>  <PEOE_VSA_FPOL>
0.19355704

>  <PEOE_VSA_FPOS>
0.38575938

>  <PEOE_VSA_FPPOS>
0.099143893

>  <PEOE_VSA_HYD>
203.61742

>  <PEOE_VSA_NEG>
155.08858

>  <PEOE_VSA_PNEG>
23.838217

>  <PEOE_VSA_POL>
48.870888

>  <PEOE_VSA_POS>
97.399727

>  <PEOE_VSA_PPOS>
25.032671

>  <petitjean>
0.5

>  <petitjeanSC>
1

>  <Q_PC+>
0

>  <Q_PC->
0

>  <Q_RPC+>
0

>  <Q_RPC->
0

>  <Q_VSA_FHYD>
1

>  <Q_VSA_FNEG>
0

>  <Q_VSA_FPNEG>
0

>  <Q_VSA_FPOL>
0

>  <Q_VSA_FPOS>
1

>  <Q_VSA_FPPOS>
0

>  <Q_VSA_HYD>
252.4883

>  <Q_VSA_NEG>
0

>  <Q_VSA_PNEG>
0

>  <Q_VSA_POL>
0

>  <Q_VSA_POS>
252.4883

>  <Q_VSA_PPOS>
0

>  <radius>
5

>  <reactive>
0

>  <rings>
2

>  <RPC+>
0

>  <RPC->
0

>  <rsynth>
0.3888889

>  <SlogP>
3.6670001

>  <SlogP_VSA0>
10.999887

>  <SlogP_VSA1>
7.7454643

>  <SlogP_VSA2>
23.862217

>  <SlogP_VSA3>
25.385227

>  <SlogP_VSA4>
3.185575

>  <SlogP_VSA5>
0

>  <SlogP_VSA6>
4.4107962

>  <SlogP_VSA7>
158.78867

>  <SlogP_VSA8>
0

>  <SlogP_VSA9>
43.81287

>  <SMR>
6.9008799

>  <SMR_VSA0>
23.862217

>  <SMR_VSA1>
10.999887

>  <SMR_VSA2>
25.385227

>  <SMR_VSA3>
18.083227

>  <SMR_VSA4>
0

>  <SMR_VSA5>
158.78867

>  <SMR_VSA6>
7.7454643

>  <SMR_VSA7>
33.326015

>  <TPSA>
46.529999

>  <VAdjEq>
0.52150291

>  <VAdjMa>
5.2479277

>  <VDistEq>
3.1283426

>  <VDistMa>
8.0269279

>  <vdw_area>
252.4883

>  <vdw_vol>
337.49377

>  <vsa_acc>
0

>  <vsa_acid>
0

>  <vsa_base>
0

>  <vsa_don>
0

>  <vsa_hyd>
193.01901

>  <vsa_other>
17.212255

>  <vsa_pol>
27.133842

>  <Weight>
242.27399

>  <weinerPath>
650

>  <weinerPol>
24

>  <zagreb>
88

$$$$