OC(=O)C1CCn2c1ccc2C(=O)c1ccccc1
  MOE2013           2D

 19 21  0  0  1  0  0  0  0  0999 V2000
    0.0000    0.0000    0.0000 O   0  0  0  0  0  0  0  0  0  0  0  0
   -1.3030   -0.7440    0.0000 C   0  0  0  0  0  0  0  0  0  0  0  0
   -1.3100   -2.2440    0.0000 O   0  0  0  0  0  0  0  0  0  0  0  0
   -2.5980    0.0130    0.0000 C   0  0  3  0  0  0  0  0  0  0  0  0
   -2.7480    1.5050    0.0000 C   0  0  0  0  0  0  0  0  0  0  0  0
   -4.2130    1.8240    0.0000 C   0  0  0  0  0  0  0  0  0  0  0  0
   -4.9700    0.5290    0.0000 N   0  0  0  0  0  0  0  0  0  0  0  0
   -3.9710   -0.5910    0.0000 C   0  0  0  0  0  0  0  0  0  0  0  0
   -4.7280   -1.8860    0.0000 C   0  0  0  0  0  0  0  0  0  0  0  0
   -6.1930   -1.5670    0.0000 C   0  0  0  0  0  0  0  0  0  0  0  0
   -6.3430   -0.0750    0.0000 C   0  0  0  0  0  0  0  0  0  0  0  0
   -7.6380    0.6810    0.0000 C   0  0  0  0  0  0  0  0  0  0  0  0
   -7.6310    2.1810    0.0000 O   0  0  0  0  0  0  0  0  0  0  0  0
   -8.9410   -0.0620    0.0000 C   0  0  0  0  0  0  0  0  0  0  0  0
   -8.9480   -1.5620    0.0000 C   0  0  0  0  0  0  0  0  0  0  0  0
  -10.2510   -2.3060    0.0000 C   0  0  0  0  0  0  0  0  0  0  0  0
  -11.5460   -1.5500    0.0000 C   0  0  0  0  0  0  0  0  0  0  0  0
  -11.5390   -0.0500    0.0000 C   0  0  0  0  0  0  0  0  0  0  0  0
  -10.2360    0.6940    0.0000 C   0  0  0  0  0  0  0  0  0  0  0  0
  1  2  1  0  0  0  0
  2  3  2  0  0  0  0
  2  4  1  0  0  0  0
  4  5  1  0  0  0  0
  4  8  1  0  0  0  0
  5  6  1  0  0  0  0
  6  7  1  0  0  0  0
  7  8  1  0  0  0  0
  7 11  1  0  0  0  0
  8  9  2  0  0  0  0
  9 10  1  0  0  0  0
 10 11  2  0  0  0  0
 11 12  1  0  0  0  0
 12 13  2  0  0  0  0
 12 14  1  0  0  0  0
 14 15  1  0  0  0  0
 14 19  2  0  0  0  0
 15 16  2  0  0  0  0
 16 17  1  0  0  0  0
 17 18  2  0  0  0  0
 18 19  1  0  0  0  0
M  END
>  <Index>
1615

>  <ID>
HT1161

>  <class>
1

>  <apol>
38.57431

>  <ast_fraglike>
1

>  <ast_fraglike_ext>
1

>  <ast_violation>
0

>  <ast_violation_ext>
0

>  <a_acc>
3

>  <a_acid>
0

>  <a_aro>
11

>  <a_base>
0

>  <a_count>
32

>  <a_don>
2

>  <a_donacc>
5

>  <a_heavy>
19

>  <a_hyd>
13

>  <a_IC>
48.536037

>  <a_ICM>
1.5167512

>  <a_nB>
0

>  <a_nBr>
0

>  <a_nC>
15

>  <a_nCl>
0

>  <a_nF>
0

>  <a_nH>
13

>  <a_nI>
0

>  <a_nN>
1

>  <a_nO>
3

>  <a_nP>
0

>  <a_nS>
0

>  <balabanJ>
1.6425577

>  <BCUT_PEOE_0>
-2.4407306

>  <BCUT_PEOE_1>
-0.60806501

>  <BCUT_PEOE_2>
0.66246426

>  <BCUT_PEOE_3>
2.6376369

>  <BCUT_SLOGP_0>
-2.3874328

>  <BCUT_SLOGP_1>
-0.51115513

>  <BCUT_SLOGP_2>
0.76381963

>  <BCUT_SLOGP_3>
2.7134168

>  <BCUT_SMR_0>
-2.2228944

>  <BCUT_SMR_1>
-0.46208611

>  <BCUT_SMR_2>
0.82264268

>  <BCUT_SMR_3>
2.8866825

>  <bpol>
18.107691

>  <b_1rotN>
3

>  <b_1rotR>
0.14285715

>  <b_ar>
11

>  <b_count>
34

>  <b_double>
2

>  <b_heavy>
21

>  <b_max1len>
2

>  <b_rotN>
3

>  <b_rotR>
0.14285715

>  <b_single>
21

>  <b_triple>
0

>  <chi0>
13.405413

>  <chi0v>
10.243939

>  <chi0v_C>
8.5330153

>  <chi0_C>
9.828063

>  <chi1>
9.1815405

>  <chi1v>
6.2022624

>  <chi1v_C>
4.8069658

>  <chi1_C>
6.3745747

>  <chiral>
1

>  <chiral_u>
1

>  <density>
0.75542492

>  <diameter>
10

>  <FCharge>
0

>  <GCUT_PEOE_0>
-0.8651253

>  <GCUT_PEOE_1>
-0.4238171

>  <GCUT_PEOE_2>
0.07717827

>  <GCUT_PEOE_3>
2.5360582

>  <GCUT_SLOGP_0>
-0.87406033

>  <GCUT_SLOGP_1>
-0.32245907

>  <GCUT_SLOGP_2>
0.15564252

>  <GCUT_SLOGP_3>
2.6044226

>  <GCUT_SMR_0>
-0.51789874

>  <GCUT_SMR_1>
-0.22419831

>  <GCUT_SMR_2>
0.21690713

>  <GCUT_SMR_3>
2.8085206

>  <Kier1>
13.959184

>  <Kier2>
5.7800002

>  <Kier3>
2.6122448

>  <KierA1>
9.7420406

>  <KierA2>
3.9454167

>  <KierA3>
1.7523443

>  <KierFlex>
2.0229688

>  <lip_acc>
4

>  <lip_don>
1

>  <lip_druglike>
1

>  <lip_violation>
0

>  <logP(o/w)>
2.3800001

>  <logS>
-2.3568001

>  <mr>
7.1399813

>  <mutagenic>
0

>  <nmol>
1

>  <opr_brigid>
15

>  <opr_leadlike>
1

>  <opr_nring>
3

>  <opr_nrot>
3

>  <opr_violation>
0

>  <PC+>
0

>  <PC->
0

>  <PEOE_PC+>
1.5963289

>  <PEOE_PC->
-1.5963289

>  <PEOE_RPC+>
0.16823882

>  <PEOE_RPC->
0.213305

>  <PEOE_VSA+0>
43.427345

>  <PEOE_VSA+1>
36.557255

>  <PEOE_VSA+2>
0

>  <PEOE_VSA+3>
0

>  <PEOE_VSA+4>
18.782692

>  <PEOE_VSA+5>
14.708499

>  <PEOE_VSA+6>
0

>  <PEOE_VSA-0>
33.211121

>  <PEOE_VSA-1>
61.274521

>  <PEOE_VSA-2>
0

>  <PEOE_VSA-3>
0

>  <PEOE_VSA-4>
0

>  <PEOE_VSA-5>
27.133842

>  <PEOE_VSA-6>
7.7675405

>  <PEOE_VSA_FHYD>
0.71839011

>  <PEOE_VSA_FNEG>
0.53275764

>  <PEOE_VSA_FPNEG>
0.14370821

>  <PEOE_VSA_FPOL>
0.28160989

>  <PEOE_VSA_FPOS>
0.46724233

>  <PEOE_VSA_FPPOS>
0.13790168

>  <PEOE_VSA_HYD>
174.47025

>  <PEOE_VSA_NEG>
129.38702

>  <PEOE_VSA_PNEG>
34.901382

>  <PEOE_VSA_POL>
68.39257

>  <PEOE_VSA_POS>
113.47579

>  <PEOE_VSA_PPOS>
33.491192

>  <petitjean>
0.5

>  <petitjeanSC>
1

>  <Q_PC+>
0

>  <Q_PC->
0

>  <Q_RPC+>
0

>  <Q_RPC->
0

>  <Q_VSA_FHYD>
1

>  <Q_VSA_FNEG>
0

>  <Q_VSA_FPNEG>
0

>  <Q_VSA_FPOL>
0

>  <Q_VSA_FPOS>
1

>  <Q_VSA_FPPOS>
0

>  <Q_VSA_HYD>
242.86281

>  <Q_VSA_NEG>
0

>  <Q_VSA_PNEG>
0

>  <Q_VSA_POL>
0

>  <Q_VSA_POS>
242.86281

>  <Q_VSA_PPOS>
0

>  <radius>
5

>  <reactive>
1

>  <rings>
3

>  <RPC+>
0

>  <RPC->
0

>  <rsynth>
1

>  <SlogP>
2.5574

>  <SlogP_VSA0>
0

>  <SlogP_VSA1>
15.332168

>  <SlogP_VSA2>
23.862217

>  <SlogP_VSA3>
25.385227

>  <SlogP_VSA4>
32.561287

>  <SlogP_VSA5>
0

>  <SlogP_VSA6>
4.4107962

>  <SlogP_VSA7>
123.50229

>  <SlogP_VSA8>
18.868406

>  <SlogP_VSA9>
18.439579

>  <SMR>
6.9505301

>  <SMR_VSA0>
47.724434

>  <SMR_VSA1>
1.8990928

>  <SMR_VSA2>
25.385227

>  <SMR_VSA3>
13.109866

>  <SMR_VSA4>
0

>  <SMR_VSA5>
160.81027

>  <SMR_VSA6>
13.433075

>  <SMR_VSA7>
0

>  <TPSA>
59.299999

>  <VAdjEq>
0.51875818

>  <VAdjMa>
5.3923173

>  <VDistEq>
3.0640965

>  <VDistMa>
8.1937027

>  <vdw_area>
242.86281

>  <vdw_vol>
337.91974

>  <vsa_acc>
13.566921

>  <vsa_acid>
0

>  <vsa_base>
0

>  <vsa_don>
0

>  <vsa_hyd>
164.58365

>  <vsa_other>
23.167019

>  <vsa_pol>
40.700764

>  <Weight>
255.27299

>  <weinerPath>
693

>  <weinerPol>
29

>  <zagreb>
102

$$$$