Clc1cc2NC=NS(=O)(=O)c2cc1S(=O)(=O)N
  MOE2013           2D

 17 18  0  0  0  0  0  0  0  0999 V2000
    0.0000    0.0000    0.0000 Cl  0  0  0  0  0  0  0  0  0  0  0  0
   -0.7470   -1.3010    0.0000 C   0  0  0  0  0  0  0  0  0  0  0  0
   -2.2470   -1.3040    0.0000 C   0  0  0  0  0  0  0  0  0  0  0  0
   -2.9950   -2.6040    0.0000 C   0  0  0  0  0  0  0  0  0  0  0  0
   -4.4950   -2.6070    0.0000 N   0  0  0  0  0  0  0  0  0  0  0  0
   -5.2420   -3.9080    0.0000 C   0  0  0  0  0  0  0  0  0  0  0  0
   -4.4890   -5.2050    0.0000 N   0  0  0  0  0  0  0  0  0  0  0  0
   -2.9890   -5.2020    0.0000 S   0  0  0  0  0  0  0  0  0  0  0  0
   -1.6890   -5.9500    0.0000 O   0  0  0  0  0  0  0  0  0  0  0  0
   -2.9860   -6.7020    0.0000 O   0  0  0  0  0  0  0  0  0  0  0  0
   -2.2420   -3.9020    0.0000 C   0  0  0  0  0  0  0  0  0  0  0  0
   -0.7420   -3.8990    0.0000 C   0  0  0  0  0  0  0  0  0  0  0  0
    0.0050   -2.5980    0.0000 C   0  0  0  0  0  0  0  0  0  0  0  0
    1.5050   -2.5950    0.0000 S   0  0  0  0  0  0  0  0  0  0  0  0
    1.5020   -1.0950    0.0000 O   0  0  0  0  0  0  0  0  0  0  0  0
    1.5080   -4.0950    0.0000 O   0  0  0  0  0  0  0  0  0  0  0  0
    3.0050   -2.5920    0.0000 N   0  0  0  0  0  0  0  0  0  0  0  0
  1  2  1  0  0  0  0
  2  3  1  0  0  0  0
  2 13  2  0  0  0  0
  3  4  2  0  0  0  0
  4  5  1  0  0  0  0
  4 11  1  0  0  0  0
  5  6  1  0  0  0  0
  6  7  2  0  0  0  0
  7  8  1  0  0  0  0
  8  9  2  0  0  0  0
  8 10  2  0  0  0  0
  8 11  1  0  0  0  0
 11 12  2  0  0  0  0
 12 13  1  0  0  0  0
 13 14  1  0  0  0  0
 14 15  2  0  0  0  0
 14 16  2  0  0  0  0
 14 17  1  0  0  0  0
M  END
>  <Index>
1489

>  <ID>
HT0460

>  <class>
1

>  <apol>
30.808758

>  <ast_fraglike>
0

>  <ast_fraglike_ext>
0

>  <ast_violation>
1

>  <ast_violation_ext>
2

>  <a_acc>
5

>  <a_acid>
0

>  <a_aro>
6

>  <a_base>
0

>  <a_count>
23

>  <a_don>
2

>  <a_donacc>
7

>  <a_heavy>
17

>  <a_hyd>
7

>  <a_IC>
54.125778

>  <a_ICM>
2.3532946

>  <a_nB>
0

>  <a_nBr>
0

>  <a_nC>
7

>  <a_nCl>
1

>  <a_nF>
0

>  <a_nH>
6

>  <a_nI>
0

>  <a_nN>
3

>  <a_nO>
4

>  <a_nP>
0

>  <a_nS>
2

>  <balabanJ>
2.1909263

>  <BCUT_PEOE_0>
-2.3690531

>  <BCUT_PEOE_1>
-0.5558216

>  <BCUT_PEOE_2>
0.59056407

>  <BCUT_PEOE_3>
2.4779072

>  <BCUT_SLOGP_0>
-2.572541

>  <BCUT_SLOGP_1>
-0.4884142

>  <BCUT_SLOGP_2>
0.72541976

>  <BCUT_SLOGP_3>
2.4718385

>  <BCUT_SMR_0>
-2.0181286

>  <BCUT_SMR_1>
-0.34405395

>  <BCUT_SMR_2>
0.81710118

>  <BCUT_SMR_3>
2.7903008

>  <bpol>
21.251242

>  <b_1rotN>
1

>  <b_1rotR>
0.055555556

>  <b_ar>
6

>  <b_count>
24

>  <b_double>
1

>  <b_heavy>
18

>  <b_max1len>
3

>  <b_rotN>
1

>  <b_rotR>
0.055555556

>  <b_single>
17

>  <b_triple>
0

>  <chi0>
12.844935

>  <chi0v>
10.472991

>  <chi0v_C>
3.7320509

>  <chi0_C>
4.4307213

>  <chi1>
7.7161622

>  <chi1v>
7.4980955

>  <chi1v_C>
1.6547005

>  <chi1_C>
2.2996597

>  <chiral>
0

>  <chiral_u>
0

>  <density>
1.0829597

>  <diameter>
7

>  <FCharge>
0

>  <GCUT_PEOE_0>
-0.92505509

>  <GCUT_PEOE_1>
-0.42310062

>  <GCUT_PEOE_2>
0.046546955

>  <GCUT_PEOE_3>
2.3648038

>  <GCUT_SLOGP_0>
-1.3482714

>  <GCUT_SLOGP_1>
-0.48167977

>  <GCUT_SLOGP_2>
0.16861273

>  <GCUT_SLOGP_3>
2.391824

>  <GCUT_SMR_0>
-0.41618669

>  <GCUT_SMR_1>
-0.16154125

>  <GCUT_SMR_2>
0.27018589

>  <GCUT_SMR_3>
2.6499925

>  <Kier1>
13.432098

>  <Kier2>
4.2806182

>  <Kier3>
2.5599999

>  <KierA1>
13.946887

>  <KierA2>
4.4555359

>  <KierA3>
2.6697648

>  <KierFlex>
3.6553445

>  <lip_acc>
7

>  <lip_don>
3

>  <lip_druglike>
1

>  <lip_violation>
0

>  <logP(o/w)>
0.46900001

>  <logS>
-2.9403701

>  <mr>
6.137094

>  <mutagenic>
0

>  <nmol>
1

>  <opr_brigid>
11

>  <opr_leadlike>
1

>  <opr_nring>
2

>  <opr_nrot>
1

>  <opr_violation>
0

>  <PC+>
0

>  <PC->
0

>  <PEOE_PC+>
1.5434591

>  <PEOE_PC->
-1.5434591

>  <PEOE_RPC+>
0.20657369

>  <PEOE_RPC->
0.29072779

>  <PEOE_VSA+0>
35.962646

>  <PEOE_VSA+1>
19.495708

>  <PEOE_VSA+2>
4.5197463

>  <PEOE_VSA+3>
22.360512

>  <PEOE_VSA+4>
0

>  <PEOE_VSA+5>
0

>  <PEOE_VSA+6>
8.3692026

>  <PEOE_VSA-0>
33.491833

>  <PEOE_VSA-1>
29.581947

>  <PEOE_VSA-2>
40.091728

>  <PEOE_VSA-3>
9.0437498

>  <PEOE_VSA-4>
32.016521

>  <PEOE_VSA-5>
0

>  <PEOE_VSA-6>
0.13689101

>  <PEOE_VSA_FHYD>
0.82761502

>  <PEOE_VSA_FNEG>
0.61412501

>  <PEOE_VSA_FPNEG>
0.13678201

>  <PEOE_VSA_FPOL>
0.17238496

>  <PEOE_VSA_FPOS>
0.38587496

>  <PEOE_VSA_FPPOS>
0.03560295

>  <PEOE_VSA_HYD>
194.54787

>  <PEOE_VSA_NEG>
144.36267

>  <PEOE_VSA_PNEG>
32.153416

>  <PEOE_VSA_POL>
40.522617

>  <PEOE_VSA_POS>
90.707817

>  <PEOE_VSA_PPOS>
8.3692026

>  <petitjean>
0.42857143

>  <petitjeanSC>
0.75

>  <Q_PC+>
0

>  <Q_PC->
0

>  <Q_RPC+>
0

>  <Q_RPC->
0

>  <Q_VSA_FHYD>
1

>  <Q_VSA_FNEG>
0

>  <Q_VSA_FPNEG>
0

>  <Q_VSA_FPOL>
0

>  <Q_VSA_FPOS>
1

>  <Q_VSA_FPPOS>
0

>  <Q_VSA_HYD>
235.0705

>  <Q_VSA_NEG>
0

>  <Q_VSA_PNEG>
0

>  <Q_VSA_POL>
0

>  <Q_VSA_POS>
235.0705

>  <Q_VSA_PPOS>
0

>  <radius>
4

>  <reactive>
0

>  <rings>
2

>  <RPC+>
0

>  <RPC->
0

>  <rsynth>
1

>  <SlogP>
0.12989999

>  <SlogP_VSA0>
31.291433

>  <SlogP_VSA1>
114.35413

>  <SlogP_VSA2>
30.067015

>  <SlogP_VSA3>
0

>  <SlogP_VSA4>
0

>  <SlogP_VSA5>
18.281244

>  <SlogP_VSA6>
3.5006065

>  <SlogP_VSA7>
35.286369

>  <SlogP_VSA8>
0

>  <SlogP_VSA9>
41.905392

>  <SMR>
6.2125702

>  <SMR_VSA0>
96.343376

>  <SMR_VSA1>
15.179776

>  <SMR_VSA2>
3.1014678

>  <SMR_VSA3>
3.5006065

>  <SMR_VSA4>
52.058933

>  <SMR_VSA5>
35.286369

>  <SMR_VSA6>
0

>  <SMR_VSA7>
69.21566

>  <TPSA>
118.69

>  <VAdjEq>
0.54234898

>  <VAdjMa>
5.1699252

>  <VDistEq>
2.633986

>  <VDistMa>
7.9134102

>  <vdw_area>
235.0705

>  <vdw_vol>
273.07297

>  <vsa_acc>
72.108253

>  <vsa_acid>
0

>  <vsa_base>
0

>  <vsa_don>
25.817696

>  <vsa_hyd>
80.787437

>  <vsa_other>
45.001736

>  <vsa_pol>
97.925949

>  <Weight>
295.72699

>  <weinerPath>
460

>  <weinerPol>
29

>  <zagreb>
94

$$$$