Clc1cc(NCc2occc2)c(cc1S(=O)(=O)N)C(O)=O
  MOE2013           2D

 21 22  0  0  0  0  0  0  0  0999 V2000
    0.0000    0.0000    0.0000 Cl  0  0  0  0  0  0  0  0  0  0  0  0
   -0.7420    1.3030    0.0000 C   0  0  0  0  0  0  0  0  0  0  0  0
   -2.2420    1.3120    0.0000 C   0  0  0  0  0  0  0  0  0  0  0  0
   -2.9850    2.6160    0.0000 C   0  0  0  0  0  0  0  0  0  0  0  0
   -4.4850    2.6250    0.0000 N   0  0  0  0  0  0  0  0  0  0  0  0
   -5.2420    1.3300    0.0000 C   0  0  0  0  0  0  0  0  0  0  0  0
   -6.7420    1.3390    0.0000 C   0  0  0  0  0  0  0  0  0  0  0  0
   -7.6170    2.5580    0.0000 O   0  0  0  0  0  0  0  0  0  0  0  0
   -9.0460    2.1020    0.0000 C   0  0  0  0  0  0  0  0  0  0  0  0
   -9.0550    0.6030    0.0000 C   0  0  0  0  0  0  0  0  0  0  0  0
   -7.6310    0.1310    0.0000 C   0  0  0  0  0  0  0  0  0  0  0  0
   -2.2270    3.9100    0.0000 C   0  0  0  0  0  0  0  0  0  0  0  0
   -0.7270    3.9010    0.0000 C   0  0  0  0  0  0  0  0  0  0  0  0
    0.0150    2.5980    0.0000 C   0  0  0  0  0  0  0  0  0  0  0  0
    1.5150    2.5890    0.0000 S   0  0  0  0  0  0  0  0  0  0  0  0
    1.5240    4.0890    0.0000 O   0  0  0  0  0  0  0  0  0  0  0  0
    1.5060    1.0890    0.0000 O   0  0  0  0  0  0  0  0  0  0  0  0
    3.0150    2.5800    0.0000 N   0  0  0  0  0  0  0  0  0  0  0  0
   -2.9690    5.2140    0.0000 C   0  0  0  0  0  0  0  0  0  0  0  0
   -2.2120    6.5080    0.0000 O   0  0  0  0  0  0  0  0  0  0  0  0
   -4.4690    5.2230    0.0000 O   0  0  0  0  0  0  0  0  0  0  0  0
  1  2  1  0  0  0  0
  2  3  1  0  0  0  0
  2 14  2  0  0  0  0
  3  4  2  0  0  0  0
  4  5  1  0  0  0  0
  4 12  1  0  0  0  0
  5  6  1  0  0  0  0
  6  7  1  0  0  0  0
  7  8  1  0  0  0  0
  7 11  2  0  0  0  0
  8  9  1  0  0  0  0
  9 10  2  0  0  0  0
 10 11  1  0  0  0  0
 12 13  2  0  0  0  0
 12 19  1  0  0  0  0
 13 14  1  0  0  0  0
 14 15  1  0  0  0  0
 15 16  2  0  0  0  0
 15 17  2  0  0  0  0
 15 18  1  0  0  0  0
 19 20  1  0  0  0  0
 19 21  2  0  0  0  0
M  END
>  <Index>
1582

>  <ID>
HT0945

>  <class>
1

>  <apol>
39.744724

>  <ast_fraglike>
0

>  <ast_fraglike_ext>
0

>  <ast_violation>
3

>  <ast_violation_ext>
5

>  <a_acc>
4

>  <a_acid>
0

>  <a_aro>
11

>  <a_base>
0

>  <a_count>
32

>  <a_don>
4

>  <a_donacc>
8

>  <a_heavy>
21

>  <a_hyd>
10

>  <a_IC>
65.317062

>  <a_ICM>
2.0411582

>  <a_nB>
0

>  <a_nBr>
0

>  <a_nC>
12

>  <a_nCl>
1

>  <a_nF>
0

>  <a_nH>
11

>  <a_nI>
0

>  <a_nN>
2

>  <a_nO>
5

>  <a_nP>
0

>  <a_nS>
1

>  <balabanJ>
1.9682306

>  <BCUT_PEOE_0>
-2.3767881

>  <BCUT_PEOE_1>
-0.62318337

>  <BCUT_PEOE_2>
0.72193617

>  <BCUT_PEOE_3>
2.4112983

>  <BCUT_SLOGP_0>
-2.5715327

>  <BCUT_SLOGP_1>
-0.48990574

>  <BCUT_SLOGP_2>
0.83167654

>  <BCUT_SLOGP_3>
2.4773343

>  <BCUT_SMR_0>
-2.0696931

>  <BCUT_SMR_1>
-0.44363832

>  <BCUT_SMR_2>
0.90409487

>  <BCUT_SMR_3>
2.7433565

>  <bpol>
21.795277

>  <b_1rotN>
5

>  <b_1rotR>
0.22727273

>  <b_ar>
11

>  <b_count>
33

>  <b_double>
1

>  <b_heavy>
22

>  <b_max1len>
3

>  <b_rotN>
5

>  <b_rotR>
0.22727273

>  <b_single>
21

>  <b_triple>
0

>  <chi0>
15.620955

>  <chi0v>
12.110053

>  <chi0v_C>
6.5938582

>  <chi0_C>
7.7067423

>  <chi1>
9.7867126

>  <chi1v>
7.5711322

>  <chi1v_C>
3.2135956

>  <chi1_C>
4.4494896

>  <chiral>
0

>  <chiral_u>
0

>  <density>
0.92991853

>  <diameter>
10

>  <FCharge>
0

>  <GCUT_PEOE_0>
-0.8451857

>  <GCUT_PEOE_1>
-0.43387857

>  <GCUT_PEOE_2>
0.12925312

>  <GCUT_PEOE_3>
2.4127376

>  <GCUT_SLOGP_0>
-1.348271

>  <GCUT_SLOGP_1>
-0.36941594

>  <GCUT_SLOGP_2>
0.2274574

>  <GCUT_SLOGP_3>
2.4944599

>  <GCUT_SMR_0>
-0.46980354

>  <GCUT_SMR_1>
-0.19665365

>  <GCUT_SMR_2>
0.29530683

>  <GCUT_SMR_3>
2.6939375

>  <Kier1>
17.355371

>  <Kier2>
7.0507812

>  <Kier3>
4.4875345

>  <KierA1>
15.352035

>  <KierA2>
6.196559

>  <KierA3>
3.9242642

>  <KierFlex>
4.5299897

>  <lip_acc>
7

>  <lip_don>
4

>  <lip_druglike>
1

>  <lip_violation>
0

>  <logP(o/w)>
0.82300001

>  <logS>
-3.63111

>  <mr>
7.740808

>  <mutagenic>
0

>  <nmol>
1

>  <opr_brigid>
11

>  <opr_leadlike>
1

>  <opr_nring>
2

>  <opr_nrot>
5

>  <opr_violation>
0

>  <PC+>
0

>  <PC->
0

>  <PEOE_PC+>
2.1289914

>  <PEOE_PC->
-2.1289914

>  <PEOE_RPC+>
0.1413243

>  <PEOE_RPC->
0.21912025

>  <PEOE_VSA+0>
34.043186

>  <PEOE_VSA+1>
71.752968

>  <PEOE_VSA+2>
25.862665

>  <PEOE_VSA+3>
0

>  <PEOE_VSA+4>
10.324173

>  <PEOE_VSA+5>
14.708499

>  <PEOE_VSA+6>
4.1846013

>  <PEOE_VSA-0>
36.764713

>  <PEOE_VSA-1>
29.581947

>  <PEOE_VSA-2>
0

>  <PEOE_VSA-3>
9.0437498

>  <PEOE_VSA-4>
32.016521

>  <PEOE_VSA-5>
13.703812

>  <PEOE_VSA-6>
10.271297

>  <PEOE_VSA_FHYD>
0.70844644

>  <PEOE_VSA_FNEG>
0.44954109

>  <PEOE_VSA_FPNEG>
0.1915828

>  <PEOE_VSA_FPOL>
0.29155359

>  <PEOE_VSA_FPOS>
0.55045891

>  <PEOE_VSA_FPPOS>
0.09997078

>  <PEOE_VSA_HYD>
207.04922

>  <PEOE_VSA_NEG>
131.38203

>  <PEOE_VSA_PNEG>
55.991631

>  <PEOE_VSA_POL>
85.208908

>  <PEOE_VSA_POS>
160.8761

>  <PEOE_VSA_PPOS>
29.217274

>  <petitjean>
0.5

>  <petitjeanSC>
1

>  <Q_PC+>
0

>  <Q_PC->
0

>  <Q_RPC+>
0

>  <Q_RPC->
0

>  <Q_VSA_FHYD>
1

>  <Q_VSA_FNEG>
0

>  <Q_VSA_FPNEG>
0

>  <Q_VSA_FPOL>
0

>  <Q_VSA_FPOS>
1

>  <Q_VSA_FPPOS>
0

>  <Q_VSA_HYD>
292.25812

>  <Q_VSA_NEG>
0

>  <Q_VSA_PNEG>
0

>  <Q_VSA_POL>
0

>  <Q_VSA_POS>
292.25812

>  <Q_VSA_PPOS>
0

>  <radius>
5

>  <reactive>
0

>  <rings>
2

>  <RPC+>
0

>  <RPC->
0

>  <rsynth>
1

>  <SlogP>
2.1571

>  <SlogP_VSA0>
31.291433

>  <SlogP_VSA1>
73.927902

>  <SlogP_VSA2>
6.6407428

>  <SlogP_VSA3>
25.385227

>  <SlogP_VSA4>
32.496613

>  <SlogP_VSA5>
11.058081

>  <SlogP_VSA6>
3.5006065

>  <SlogP_VSA7>
90.479164

>  <SlogP_VSA8>
0

>  <SlogP_VSA9>
60.344971

>  <SMR>
7.6024199

>  <SMR_VSA0>
81.541252

>  <SMR_VSA1>
0

>  <SMR_VSA2>
26.935961

>  <SMR_VSA3>
12.135002

>  <SMR_VSA4>
52.058933

>  <SMR_VSA5>
108.91875

>  <SMR_VSA6>
7.7454643

>  <SMR_VSA7>
45.789387

>  <TPSA>
122.63

>  <VAdjEq>
0.46827638

>  <VAdjMa>
5.4594316

>  <VDistEq>
3.1737554

>  <VDistMa>
8.4964733

>  <vdw_area>
292.25812

>  <vdw_vol>
355.67416

>  <vsa_acc>
32.016521

>  <vsa_acid>
0

>  <vsa_base>
0

>  <vsa_don>
25.817696

>  <vsa_hyd>
130.72787

>  <vsa_other>
57.834858

>  <vsa_pol>
84.968063

>  <Weight>
330.74799

>  <weinerPath>
939

>  <weinerPol>
30

>  <zagreb>
108

$$$$