O(CC(O)CNC(C)C)c1ccc(cc1)CC(=O)N
  MOE2013           2D

 19 19  0  0  1  0  0  0  0  0999 V2000
    0.0000    0.0000    0.0000 O   0  0  0  0  0  0  0  0  0  0  0  0
    1.2980    0.7520    0.0000 C   0  0  0  0  0  0  0  0  0  0  0  0
    2.5980    0.0040    0.0000 C   0  0  3  0  0  0  0  0  0  0  0  0
    2.6000   -1.4960    0.0000 O   0  0  0  0  0  0  0  0  0  0  0  0
    3.8960    0.7550    0.0000 C   0  0  0  0  0  0  0  0  0  0  0  0
    5.1960    0.0070    0.0000 N   0  0  0  0  0  0  0  0  0  0  0  0
    6.4940    0.7590    0.0000 C   0  0  0  0  0  0  0  0  0  0  0  0
    7.7940    0.0110    0.0000 C   0  0  0  0  0  0  0  0  0  0  0  0
    6.4920    2.2590    0.0000 C   0  0  0  0  0  0  0  0  0  0  0  0
   -1.3000    0.7480    0.0000 C   0  0  0  0  0  0  0  0  0  0  0  0
   -1.3020    2.2480    0.0000 C   0  0  0  0  0  0  0  0  0  0  0  0
   -2.6020    2.9960    0.0000 C   0  0  0  0  0  0  0  0  0  0  0  0
   -3.9000    2.2450    0.0000 C   0  0  0  0  0  0  0  0  0  0  0  0
   -3.8980    0.7450    0.0000 C   0  0  0  0  0  0  0  0  0  0  0  0
   -2.5980   -0.0040    0.0000 C   0  0  0  0  0  0  0  0  0  0  0  0
   -5.2000    2.9930    0.0000 C   0  0  0  0  0  0  0  0  0  0  0  0
   -6.4980    2.2410    0.0000 C   0  0  0  0  0  0  0  0  0  0  0  0
   -7.7980    2.9890    0.0000 O   0  0  0  0  0  0  0  0  0  0  0  0
   -6.4960    0.7410    0.0000 N   0  0  0  0  0  0  0  0  0  0  0  0
  1  2  1  0  0  0  0
  1 10  1  0  0  0  0
  2  3  1  0  0  0  0
  3  4  1  0  0  0  0
  3  5  1  0  0  0  0
  5  6  1  0  0  0  0
  6  7  1  0  0  0  0
  7  8  1  0  0  0  0
  7  9  1  0  0  0  0
 10 11  1  0  0  0  0
 10 15  2  0  0  0  0
 11 12  2  0  0  0  0
 12 13  1  0  0  0  0
 13 14  2  0  0  0  0
 13 16  1  0  0  0  0
 14 15  1  0  0  0  0
 16 17  1  0  0  0  0
 17 18  2  0  0  0  0
 17 19  1  0  0  0  0
M  END
>  <Index>
1440

>  <ID>
HT0192

>  <class>
1

>  <apol>
43.915447

>  <ast_fraglike>
0

>  <ast_fraglike_ext>
0

>  <ast_violation>
1

>  <ast_violation_ext>
2

>  <a_acc>
4

>  <a_acid>
0

>  <a_aro>
6

>  <a_base>
0

>  <a_count>
41

>  <a_don>
3

>  <a_donacc>
7

>  <a_heavy>
19

>  <a_hyd>
13

>  <a_IC>
61.494282

>  <a_ICM>
1.4998605

>  <a_nB>
0

>  <a_nBr>
0

>  <a_nC>
14

>  <a_nCl>
0

>  <a_nF>
0

>  <a_nH>
22

>  <a_nI>
0

>  <a_nN>
2

>  <a_nO>
3

>  <a_nP>
0

>  <a_nS>
0

>  <balabanJ>
2.0923667

>  <BCUT_PEOE_0>
-2.6557279

>  <BCUT_PEOE_1>
-0.54978114

>  <BCUT_PEOE_2>
0.53369218

>  <BCUT_PEOE_3>
2.5983081

>  <BCUT_SLOGP_0>
-2.8163364

>  <BCUT_SLOGP_1>
-0.52488357

>  <BCUT_SLOGP_2>
0.53635091

>  <BCUT_SLOGP_3>
2.5236678

>  <BCUT_SMR_0>
-2.3943934

>  <BCUT_SMR_1>
-0.37793788

>  <BCUT_SMR_2>
0.66722882

>  <BCUT_SMR_3>
2.8449204

>  <bpol>
26.924555

>  <b_1rotN>
8

>  <b_1rotR>
0.42105263

>  <b_ar>
6

>  <b_count>
41

>  <b_double>
1

>  <b_heavy>
19

>  <b_max1len>
7

>  <b_rotN>
8

>  <b_rotR>
0.42105263

>  <b_single>
34

>  <b_triple>
0

>  <chi0>
14.250712

>  <chi0v>
11.426482

>  <chi0v_C>
9.0854216

>  <chi0_C>
9.8364992

>  <chi1>
8.9692345

>  <chi1v>
6.3856969

>  <chi1v_C>
4.499671

>  <chi1_C>
5.4206867

>  <chiral>
1

>  <chiral_u>
1

>  <density>
0.70906228

>  <diameter>
13

>  <FCharge>
0

>  <GCUT_PEOE_0>
-0.84582663

>  <GCUT_PEOE_1>
-0.37746561

>  <GCUT_PEOE_2>
0.078623474

>  <GCUT_PEOE_3>
2.4665761

>  <GCUT_SLOGP_0>
-1.3703803

>  <GCUT_SLOGP_1>
-0.35748768

>  <GCUT_SLOGP_2>
0.088685401

>  <GCUT_SLOGP_3>
2.483628

>  <GCUT_SMR_0>
-0.52159441

>  <GCUT_SMR_1>
-0.21184398

>  <GCUT_SMR_2>
0.15954033

>  <GCUT_SMR_3>
2.7097878

>  <Kier1>
17.052631

>  <Kier2>
9.03125

>  <Kier3>
8

>  <KierA1>
13.794971

>  <KierA2>
7.213623

>  <KierA3>
6.3266873

>  <KierFlex>
5.2374587

>  <lip_acc>
5

>  <lip_don>
4

>  <lip_druglike>
1

>  <lip_violation>
0

>  <logP(o/w)>
0.73199999

>  <logS>
-1.96767

>  <mr>
7.4711394

>  <mutagenic>
0

>  <nmol>
1

>  <opr_brigid>
6

>  <opr_leadlike>
1

>  <opr_nring>
1

>  <opr_nrot>
8

>  <opr_violation>
0

>  <PC+>
0

>  <PC->
0

>  <PEOE_PC+>
1.9965822

>  <PEOE_PC->
-1.9965822

>  <PEOE_RPC+>
0.11156432

>  <PEOE_RPC->
0.19445109

>  <PEOE_VSA+0>
63.25753

>  <PEOE_VSA+1>
66.873756

>  <PEOE_VSA+2>
8.6190128

>  <PEOE_VSA+3>
17.238026

>  <PEOE_VSA+4>
23.273705

>  <PEOE_VSA+5>
0

>  <PEOE_VSA+6>
0

>  <PEOE_VSA-0>
64.213699

>  <PEOE_VSA-1>
24.509808

>  <PEOE_VSA-2>
0

>  <PEOE_VSA-3>
0

>  <PEOE_VSA-4>
0

>  <PEOE_VSA-5>
13.566921

>  <PEOE_VSA-6>
17.059307

>  <PEOE_VSA_FHYD>
0.8194983

>  <PEOE_VSA_FNEG>
0.39968196

>  <PEOE_VSA_FPNEG>
0.10256203

>  <PEOE_VSA_FPOL>
0.1805017

>  <PEOE_VSA_FPOS>
0.60031801

>  <PEOE_VSA_FPPOS>
0.077939674

>  <PEOE_VSA_HYD>
244.71184

>  <PEOE_VSA_NEG>
119.34974

>  <PEOE_VSA_PNEG>
30.626228

>  <PEOE_VSA_POL>
53.899933

>  <PEOE_VSA_POS>
179.26202

>  <PEOE_VSA_PPOS>
23.273705

>  <petitjean>
0.46153846

>  <petitjeanSC>
0.85714287

>  <Q_PC+>
0

>  <Q_PC->
0

>  <Q_RPC+>
0

>  <Q_RPC->
0

>  <Q_VSA_FHYD>
1

>  <Q_VSA_FNEG>
0

>  <Q_VSA_FPNEG>
0

>  <Q_VSA_FPOL>
0

>  <Q_VSA_FPOS>
1

>  <Q_VSA_FPPOS>
0

>  <Q_VSA_HYD>
298.61176

>  <Q_VSA_NEG>
0

>  <Q_VSA_PNEG>
0

>  <Q_VSA_POL>
0

>  <Q_VSA_POS>
298.61176

>  <Q_VSA_PPOS>
0

>  <radius>
7

>  <reactive>
0

>  <rings>
1

>  <RPC+>
0

>  <RPC->
0

>  <rsynth>
1

>  <SlogP>
0.45207

>  <SlogP_VSA0>
87.293053

>  <SlogP_VSA1>
5.2587838

>  <SlogP_VSA2>
34.312836

>  <SlogP_VSA3>
39.365837

>  <SlogP_VSA4>
3.185575

>  <SlogP_VSA5>
18.868406

>  <SlogP_VSA6>
0

>  <SlogP_VSA7>
70.572739

>  <SlogP_VSA8>
0

>  <SlogP_VSA9>
71.895454

>  <SMR>
7.3980899

>  <SMR_VSA0>
23.862217

>  <SMR_VSA1>
36.385113

>  <SMR_VSA2>
18.01075

>  <SMR_VSA3>
18.879622

>  <SMR_VSA4>
32.897186

>  <SMR_VSA5>
89.441139

>  <SMR_VSA6>
44.624619

>  <SMR_VSA7>
66.652031

>  <TPSA>
84.580002

>  <VAdjEq>
0.48546076

>  <VAdjMa>
5.2479277

>  <VDistEq>
3.5080242

>  <VDistMa>
8.1378775

>  <vdw_area>
298.61176

>  <vdw_vol>
375.62427

>  <vsa_acc>
16.070677

>  <vsa_acid>
0

>  <vsa_base>
0

>  <vsa_don>
17.742489

>  <vsa_hyd>
206.04248

>  <vsa_other>
12.949531

>  <vsa_pol>
53.062664

>  <Weight>
266.341

>  <weinerPath>
890

>  <weinerPol>
21

>  <zagreb>
86

$$$$