Clc1cc2N(c3c(Sc2cc1)cccc3)CCCN1CCN(CC1)C
  MOE2013           2D

 25 28  0  0  1  0  0  0  0  0999 V2000
    0.0000    0.0000    0.0000 Cl  0  0  0  0  0  0  0  0  0  0  0  0
    0.7550    1.2960    0.0000 C   0  0  0  0  0  0  0  0  0  0  0  0
    2.2550    1.2910    0.0000 C   0  0  0  0  0  0  0  0  0  0  0  0
    3.0090    2.5880    0.0000 C   0  0  0  0  0  0  0  0  0  0  0  0
    4.5090    2.5820    0.0000 N   0  0  3  0  0  0  0  0  0  0  0  0
    5.2640    3.8790    0.0000 C   0  0  0  0  0  0  0  0  0  0  0  0
    4.5180    5.1800    0.0000 C   0  0  0  0  0  0  0  0  0  0  0  0
    3.0180    5.1860    0.0000 S   0  0  0  0  0  0  0  0  0  0  0  0
    2.2640    3.8890    0.0000 C   0  0  0  0  0  0  0  0  0  0  0  0
    0.7640    3.8940    0.0000 C   0  0  0  0  0  0  0  0  0  0  0  0
    0.0090    2.5980    0.0000 C   0  0  0  0  0  0  0  0  0  0  0  0
    5.2730    6.4770    0.0000 C   0  0  0  0  0  0  0  0  0  0  0  0
    6.7730    6.4710    0.0000 C   0  0  0  0  0  0  0  0  0  0  0  0
    7.5180    5.1700    0.0000 C   0  0  0  0  0  0  0  0  0  0  0  0
    6.7640    3.8730    0.0000 C   0  0  0  0  0  0  0  0  0  0  0  0
    5.2550    1.2810    0.0000 C   0  0  0  0  0  0  0  0  0  0  0  0
    6.7550    1.2750    0.0000 C   0  0  0  0  0  0  0  0  0  0  0  0
    7.5000   -0.0260    0.0000 C   0  0  0  0  0  0  0  0  0  0  0  0
    9.0000   -0.0320    0.0000 N   0  0  0  0  0  0  0  0  0  0  0  0
    9.7450   -1.3330    0.0000 C   0  0  0  0  0  0  0  0  0  0  0  0
   11.2450   -1.3390    0.0000 C   0  0  0  0  0  0  0  0  0  0  0  0
   12.0000   -0.0420    0.0000 N   0  0  0  0  0  0  0  0  0  0  0  0
   11.2540    1.2600    0.0000 C   0  0  0  0  0  0  0  0  0  0  0  0
    9.7550    1.2650    0.0000 C   0  0  0  0  0  0  0  0  0  0  0  0
   13.5000   -0.0470    0.0000 C   0  0  0  0  0  0  0  0  0  0  0  0
  1  2  1  0  0  0  0
  2  3  1  0  0  0  0
  2 11  2  0  0  0  0
  3  4  2  0  0  0  0
  4  5  1  0  0  0  0
  4  9  1  0  0  0  0
  5  6  1  0  0  0  0
  5 16  1  0  0  0  0
  6  7  1  0  0  0  0
  6 15  2  0  0  0  0
  7  8  1  0  0  0  0
  7 12  2  0  0  0  0
  8  9  1  0  0  0  0
  9 10  2  0  0  0  0
 10 11  1  0  0  0  0
 12 13  1  0  0  0  0
 13 14  2  0  0  0  0
 14 15  1  0  0  0  0
 16 17  1  0  0  0  0
 17 18  1  0  0  0  0
 18 19  1  0  0  0  0
 19 20  1  0  0  0  0
 19 24  1  0  0  0  0
 20 21  1  0  0  0  0
 21 22  1  0  0  0  0
 22 23  1  0  0  0  0
 22 25  1  0  0  0  0
 23 24  1  0  0  0  0
M  END
>  <Index>
1701

>  <ID>
HT1747

>  <class>
1

>  <apol>
59.583031

>  <ast_fraglike>
0

>  <ast_fraglike_ext>
0

>  <ast_violation>
2

>  <ast_violation_ext>
3

>  <a_acc>
2

>  <a_acid>
0

>  <a_aro>
12

>  <a_base>
0

>  <a_count>
49

>  <a_don>
0

>  <a_donacc>
2

>  <a_heavy>
25

>  <a_hyd>
22

>  <a_IC>
73.888229

>  <a_ICM>
1.5079231

>  <a_nB>
0

>  <a_nBr>
0

>  <a_nC>
20

>  <a_nCl>
1

>  <a_nF>
0

>  <a_nH>
24

>  <a_nI>
0

>  <a_nN>
3

>  <a_nO>
0

>  <a_nP>
0

>  <a_nS>
1

>  <balabanJ>
1.3565066

>  <BCUT_PEOE_0>
-2.7903285

>  <BCUT_PEOE_1>
-0.55194277

>  <BCUT_PEOE_2>
0.5852322

>  <BCUT_PEOE_3>
2.6804869

>  <BCUT_SLOGP_0>
-2.8981581

>  <BCUT_SLOGP_1>
-0.4010343

>  <BCUT_SLOGP_2>
0.7920565

>  <BCUT_SLOGP_3>
2.6246023

>  <BCUT_SMR_0>
-2.5038564

>  <BCUT_SMR_1>
-0.3468467

>  <BCUT_SMR_2>
0.8462823

>  <BCUT_SMR_3>
2.9587381

>  <bpol>
34.876968

>  <b_1rotN>
4

>  <b_1rotR>
0.14285715

>  <b_ar>
12

>  <b_count>
52

>  <b_double>
0

>  <b_heavy>
28

>  <b_max1len>
4

>  <b_rotN>
4

>  <b_rotR>
0.14285715

>  <b_single>
40

>  <b_triple>
0

>  <chi0>
17.225405

>  <chi0v>
16.191479

>  <chi0v_C>
12.491199

>  <chi0_C>
13.786246

>  <chi1>
12.20351

>  <chi1v>
10.14887

>  <chi1v_C>
5.5653839

>  <chi1_C>
7.1161566

>  <chiral>
0

>  <chiral_u>
0

>  <density>
0.74265701

>  <diameter>
12

>  <FCharge>
0

>  <GCUT_PEOE_0>
-0.86207992

>  <GCUT_PEOE_1>
-0.36365804

>  <GCUT_PEOE_2>
0.02415614

>  <GCUT_PEOE_3>
2.7582927

>  <GCUT_SLOGP_0>
-0.96427536

>  <GCUT_SLOGP_1>
-0.2745952

>  <GCUT_SLOGP_2>
0.15812014

>  <GCUT_SLOGP_3>
2.8478224

>  <GCUT_SMR_0>
-0.51970208

>  <GCUT_SMR_1>
-0.16280332

>  <GCUT_SMR_2>
0.20151639

>  <GCUT_SMR_3>
3.0423853

>  <Kier1>
18.367348

>  <Kier2>
8.3471403

>  <Kier3>
4.2958579

>  <KierA1>
16.66894

>  <KierA2>
7.543294

>  <KierA3>
3.8698759

>  <KierFlex>
5.0295486

>  <lip_acc>
3

>  <lip_don>
0

>  <lip_druglike>
1

>  <lip_violation>
0

>  <logP(o/w)>
4.1490002

>  <logS>
-4.6208801

>  <mr>
10.681784

>  <mutagenic>
0

>  <nmol>
1

>  <opr_brigid>
22

>  <opr_leadlike>
1

>  <opr_nring>
4

>  <opr_nrot>
6

>  <opr_violation>
1

>  <PC+>
0

>  <PC->
0

>  <PEOE_PC+>
1.3749952

>  <PEOE_PC->
-1.3749952

>  <PEOE_RPC+>
0.04714283

>  <PEOE_RPC->
0.22030436

>  <PEOE_VSA+0>
177.95357

>  <PEOE_VSA+1>
29.857702

>  <PEOE_VSA+2>
0

>  <PEOE_VSA+3>
0

>  <PEOE_VSA+4>
0

>  <PEOE_VSA+5>
0

>  <PEOE_VSA+6>
0

>  <PEOE_VSA-0>
93.214523

>  <PEOE_VSA-1>
73.852371

>  <PEOE_VSA-2>
0

>  <PEOE_VSA-3>
0

>  <PEOE_VSA-4>
0

>  <PEOE_VSA-5>
0

>  <PEOE_VSA-6>
0

>  <PEOE_VSA_FHYD>
1

>  <PEOE_VSA_FNEG>
0.44565651

>  <PEOE_VSA_FPNEG>
0

>  <PEOE_VSA_FPOL>
0

>  <PEOE_VSA_FPOS>
0.55434346

>  <PEOE_VSA_FPPOS>
0

>  <PEOE_VSA_HYD>
374.87817

>  <PEOE_VSA_NEG>
167.06689

>  <PEOE_VSA_PNEG>
0

>  <PEOE_VSA_POL>
0

>  <PEOE_VSA_POS>
207.81126

>  <PEOE_VSA_PPOS>
0

>  <petitjean>
0.5

>  <petitjeanSC>
1

>  <Q_PC+>
0

>  <Q_PC->
0

>  <Q_RPC+>
0

>  <Q_RPC->
0

>  <Q_VSA_FHYD>
1

>  <Q_VSA_FNEG>
0

>  <Q_VSA_FPNEG>
0

>  <Q_VSA_FPOL>
0

>  <Q_VSA_FPOS>
1

>  <Q_VSA_FPPOS>
0

>  <Q_VSA_HYD>
374.87817

>  <Q_VSA_NEG>
0

>  <Q_VSA_PNEG>
0

>  <Q_VSA_POL>
0

>  <Q_VSA_POS>
374.87817

>  <Q_VSA_PPOS>
0

>  <radius>
6

>  <reactive>
0

>  <rings>
4

>  <RPC+>
0

>  <RPC->
0

>  <rsynth>
1

>  <SlogP>
4.5802002

>  <SlogP_VSA0>
3.1243138

>  <SlogP_VSA1>
6.2486277

>  <SlogP_VSA2>
0

>  <SlogP_VSA3>
110.63747

>  <SlogP_VSA4>
0

>  <SlogP_VSA5>
35.998657

>  <SlogP_VSA6>
3.5006065

>  <SlogP_VSA7>
123.50229

>  <SlogP_VSA8>
18.868406

>  <SlogP_VSA9>
76.881683

>  <SMR>
10.7578

>  <SMR_VSA0>
0

>  <SMR_VSA1>
6.2486277

>  <SMR_VSA2>
6.2257819

>  <SMR_VSA3>
3.5006065

>  <SMR_VSA4>
5.513495

>  <SMR_VSA5>
142.3707

>  <SMR_VSA6>
110.63747

>  <SMR_VSA7>
104.26537

>  <TPSA>
9.7200003

>  <VAdjEq>
0.43513325

>  <VAdjMa>
5.8073549

>  <VDistEq>
3.412262

>  <VDistMa>
8.9912014

>  <vdw_area>
374.87817

>  <vdw_vol>
503.53259

>  <vsa_acc>
0

>  <vsa_acid>
0

>  <vsa_base>
0

>  <vsa_don>
0

>  <vsa_hyd>
357.79507

>  <vsa_other>
0

>  <vsa_pol>
0

>  <Weight>
373.952

>  <weinerPath>
1544

>  <weinerPol>
40

>  <zagreb>
134

$$$$