Fc1cc(ccc1-c1ccccc1)C(C(O)=O)C
  MOE2013           2D

 18 19  0  0  1  0  0  0  0  0999 V2000
    0.0000    0.0000    0.0000 F   0  0  0  0  0  0  0  0  0  0  0  0
    1.3020   -0.7450    0.0000 C   0  0  0  0  0  0  0  0  0  0  0  0
    2.5980    0.0110    0.0000 C   0  0  0  0  0  0  0  0  0  0  0  0
    3.9000   -0.7340    0.0000 C   0  0  0  0  0  0  0  0  0  0  0  0
    3.9060   -2.2340    0.0000 C   0  0  0  0  0  0  0  0  0  0  0  0
    2.6110   -2.9890    0.0000 C   0  0  0  0  0  0  0  0  0  0  0  0
    1.3080   -2.2450    0.0000 C   0  0  0  0  0  0  0  0  0  0  0  0
    0.0120   -3.0000    0.0000 C   0  0  0  0  0  0  0  0  0  0  0  0
    0.0190   -4.5000    0.0000 C   0  0  0  0  0  0  0  0  0  0  0  0
   -1.2770   -5.2550    0.0000 C   0  0  0  0  0  0  0  0  0  0  0  0
   -2.5790   -4.5110    0.0000 C   0  0  0  0  0  0  0  0  0  0  0  0
   -2.5860   -3.0110    0.0000 C   0  0  0  0  0  0  0  0  0  0  0  0
   -1.2900   -2.2550    0.0000 C   0  0  0  0  0  0  0  0  0  0  0  0
    5.1960    0.0220    0.0000 C   0  0  3  0  0  0  0  0  0  0  0  0
    6.4980   -0.7230    0.0000 C   0  0  0  0  0  0  0  0  0  0  0  0
    6.5040   -2.2230    0.0000 O   0  0  0  0  0  0  0  0  0  0  0  0
    7.7940    0.0320    0.0000 O   0  0  0  0  0  0  0  0  0  0  0  0
    5.1900    1.5220    0.0000 C   0  0  0  0  0  0  0  0  0  0  0  0
  1  2  1  0  0  0  0
  2  3  1  0  0  0  0
  2  7  2  0  0  0  0
  3  4  2  0  0  0  0
  4  5  1  0  0  0  0
  4 14  1  0  0  0  0
  5  6  2  0  0  0  0
  6  7  1  0  0  0  0
  7  8  1  0  0  0  0
  8  9  1  0  0  0  0
  8 13  2  0  0  0  0
  9 10  2  0  0  0  0
 10 11  1  0  0  0  0
 11 12  2  0  0  0  0
 12 13  1  0  0  0  0
 14 15  1  0  0  0  0
 14 18  1  0  0  0  0
 15 16  1  0  0  0  0
 15 17  2  0  0  0  0
M  END
>  <Index>
1577

>  <ID>
HT0920

>  <class>
1

>  <apol>
37.229309

>  <ast_fraglike>
0

>  <ast_fraglike_ext>
0

>  <ast_violation>
1

>  <ast_violation_ext>
1

>  <a_acc>
2

>  <a_acid>
0

>  <a_aro>
12

>  <a_base>
0

>  <a_count>
31

>  <a_don>
2

>  <a_donacc>
4

>  <a_heavy>
18

>  <a_hyd>
15

>  <a_IC>
44.87101

>  <a_ICM>
1.4474519

>  <a_nB>
0

>  <a_nBr>
0

>  <a_nC>
15

>  <a_nCl>
0

>  <a_nF>
1

>  <a_nH>
13

>  <a_nI>
0

>  <a_nN>
0

>  <a_nO>
2

>  <a_nP>
0

>  <a_nS>
0

>  <balabanJ>
1.8861228

>  <BCUT_PEOE_0>
-2.422215

>  <BCUT_PEOE_1>
-0.64845896

>  <BCUT_PEOE_2>
0.67949885

>  <BCUT_PEOE_3>
2.4733539

>  <BCUT_SLOGP_0>
-2.3822246

>  <BCUT_SLOGP_1>
-0.51096642

>  <BCUT_SLOGP_2>
0.80591482

>  <BCUT_SLOGP_3>
2.5411935

>  <BCUT_SMR_0>
-2.181901

>  <BCUT_SMR_1>
-0.49955955

>  <BCUT_SMR_2>
0.85429859

>  <BCUT_SMR_3>
2.7194417

>  <bpol>
16.37269

>  <b_1rotN>
3

>  <b_1rotR>
0.15789473

>  <b_ar>
12

>  <b_count>
32

>  <b_double>
1

>  <b_heavy>
19

>  <b_max1len>
3

>  <b_rotN>
3

>  <b_rotR>
0.15789473

>  <b_single>
19

>  <b_triple>
0

>  <chi0>
13.120955

>  <chi0v>
9.9295788

>  <chi0v_C>
8.6961527

>  <chi0_C>
10.120955

>  <chi1>
8.5922241

>  <chi1v>
5.6701312

>  <chi1v_C>
5.0534182

>  <chi1_C>
6.8601732

>  <chiral>
1

>  <chiral_u>
1

>  <density>
0.74025387

>  <diameter>
10

>  <FCharge>
0

>  <GCUT_PEOE_0>
-0.75300914

>  <GCUT_PEOE_1>
-0.44075978

>  <GCUT_PEOE_2>
0.061781995

>  <GCUT_PEOE_3>
2.401603

>  <GCUT_SLOGP_0>
-0.87404341

>  <GCUT_SLOGP_1>
-0.26386139

>  <GCUT_SLOGP_2>
0.16445385

>  <GCUT_SLOGP_3>
2.538826

>  <GCUT_SMR_0>
-0.5006094

>  <GCUT_SMR_1>
-0.21605732

>  <GCUT_SMR_2>
0.19305076

>  <GCUT_SMR_3>
2.6880991

>  <Kier1>
14.409972

>  <Kier2>
6.43787

>  <Kier3>
3.5261707

>  <KierA1>
10.131671

>  <KierA2>
4.4235039

>  <KierA3>
2.3817534

>  <KierFlex>
2.4898601

>  <lip_acc>
2

>  <lip_don>
1

>  <lip_druglike>
1

>  <lip_violation>
0

>  <logP(o/w)>
4.1890001

>  <logS>
-4.3388801

>  <mr>
6.923377

>  <mutagenic>
0

>  <nmol>
1

>  <opr_brigid>
12

>  <opr_leadlike>
1

>  <opr_nring>
2

>  <opr_nrot>
3

>  <opr_violation>
0

>  <PC+>
0

>  <PC->
0

>  <PEOE_PC+>
1.3188852

>  <PEOE_PC->
-1.3188852

>  <PEOE_RPC+>
0.20228943

>  <PEOE_RPC->
0.2508325

>  <PEOE_VSA+0>
19.270084

>  <PEOE_VSA+1>
34.123089

>  <PEOE_VSA+2>
9.0208454

>  <PEOE_VSA+3>
0

>  <PEOE_VSA+4>
10.324173

>  <PEOE_VSA+5>
14.708499

>  <PEOE_VSA+6>
0

>  <PEOE_VSA-0>
35.419662

>  <PEOE_VSA-1>
85.784325

>  <PEOE_VSA-2>
0

>  <PEOE_VSA-3>
0

>  <PEOE_VSA-4>
11.908636

>  <PEOE_VSA-5>
13.566921

>  <PEOE_VSA-6>
7.7675405

>  <PEOE_VSA_FHYD>
0.7590853

>  <PEOE_VSA_FNEG>
0.63849133

>  <PEOE_VSA_FPNEG>
0.13742849

>  <PEOE_VSA_FPOL>
0.24091472

>  <PEOE_VSA_FPOS>
0.36150864

>  <PEOE_VSA_FPPOS>
0.10348622

>  <PEOE_VSA_HYD>
183.61801

>  <PEOE_VSA_NEG>
154.44708

>  <PEOE_VSA_PNEG>
33.243095

>  <PEOE_VSA_POL>
58.275768

>  <PEOE_VSA_POS>
87.446686

>  <PEOE_VSA_PPOS>
25.032671

>  <petitjean>
0.5

>  <petitjeanSC>
1

>  <Q_PC+>
0

>  <Q_PC->
0

>  <Q_RPC+>
0

>  <Q_RPC->
0

>  <Q_VSA_FHYD>
1

>  <Q_VSA_FNEG>
0

>  <Q_VSA_FPNEG>
0

>  <Q_VSA_FPOL>
0

>  <Q_VSA_FPOS>
1

>  <Q_VSA_FPPOS>
0

>  <Q_VSA_HYD>
241.89377

>  <Q_VSA_NEG>
0

>  <Q_VSA_PNEG>
0

>  <Q_VSA_POL>
0

>  <Q_VSA_POS>
241.89377

>  <Q_VSA_PPOS>
0

>  <radius>
5

>  <reactive>
0

>  <rings>
2

>  <RPC+>
0

>  <RPC->
0

>  <rsynth>
1

>  <SlogP>
3.6808

>  <SlogP_VSA0>
0

>  <SlogP_VSA1>
7.7454643

>  <SlogP_VSA2>
32.983234

>  <SlogP_VSA3>
25.385227

>  <SlogP_VSA4>
3.185575

>  <SlogP_VSA5>
0

>  <SlogP_VSA6>
4.4107962

>  <SlogP_VSA7>
147.51663

>  <SlogP_VSA8>
0

>  <SlogP_VSA9>
48.286129

>  <SMR>
6.7886801

>  <SMR_VSA0>
23.862217

>  <SMR_VSA1>
14.960114

>  <SMR_VSA2>
34.506245

>  <SMR_VSA3>
7.5963712

>  <SMR_VSA4>
6.37115

>  <SMR_VSA5>
141.14548

>  <SMR_VSA6>
7.7454643

>  <SMR_VSA7>
33.326015

>  <TPSA>
37.299999

>  <VAdjEq>
0.52150291

>  <VAdjMa>
5.2479277

>  <VDistEq>
3.0826774

>  <VDistMa>
8.026329

>  <vdw_area>
241.89377

>  <vdw_vol>
329.97464

>  <vsa_acc>
0

>  <vsa_acid>
0

>  <vsa_base>
0

>  <vsa_don>
0

>  <vsa_hyd>
185.64005

>  <vsa_other>
14.708499

>  <vsa_pol>
27.133842

>  <Weight>
244.265

>  <weinerPath>
626

>  <weinerPol>
27

>  <zagreb>
90

$$$$