N1(CCN(CC1)C)C(c1ccccc1)c1ccccc1
  MOE2013           2D

 20 22  0  0  0  0  0  0  0  0999 V2000
    0.0000    0.0000    0.0000 N   0  0  0  0  0  0  0  0  0  0  0  0
    0.7500   -1.2990    0.0000 C   0  0  0  0  0  0  0  0  0  0  0  0
    2.2500   -1.2990    0.0000 C   0  0  0  0  0  0  0  0  0  0  0  0
    3.0000    0.0000    0.0000 N   0  0  0  0  0  0  0  0  0  0  0  0
    2.2500    1.2990    0.0000 C   0  0  0  0  0  0  0  0  0  0  0  0
    0.7500    1.2990    0.0000 C   0  0  0  0  0  0  0  0  0  0  0  0
    4.5000    0.0000    0.0000 C   0  0  0  0  0  0  0  0  0  0  0  0
   -1.5000    0.0000    0.0000 C   0  0  0  0  0  0  0  0  0  0  0  0
   -2.2500    1.2990    0.0000 C   0  0  0  0  0  0  0  0  0  0  0  0
   -3.7500    1.2990    0.0000 C   0  0  0  0  0  0  0  0  0  0  0  0
   -4.5000    2.5980    0.0000 C   0  0  0  0  0  0  0  0  0  0  0  0
   -3.7500    3.8970    0.0000 C   0  0  0  0  0  0  0  0  0  0  0  0
   -2.2500    3.8970    0.0000 C   0  0  0  0  0  0  0  0  0  0  0  0
   -1.5000    2.5980    0.0000 C   0  0  0  0  0  0  0  0  0  0  0  0
   -2.2500   -1.2990    0.0000 C   0  0  0  0  0  0  0  0  0  0  0  0
   -3.7500   -1.2990    0.0000 C   0  0  0  0  0  0  0  0  0  0  0  0
   -4.5000   -2.5980    0.0000 C   0  0  0  0  0  0  0  0  0  0  0  0
   -3.7500   -3.8970    0.0000 C   0  0  0  0  0  0  0  0  0  0  0  0
   -2.2500   -3.8970    0.0000 C   0  0  0  0  0  0  0  0  0  0  0  0
   -1.5000   -2.5980    0.0000 C   0  0  0  0  0  0  0  0  0  0  0  0
  1  2  1  0  0  0  0
  1  6  1  0  0  0  0
  1  8  1  0  0  0  0
  2  3  1  0  0  0  0
  3  4  1  0  0  0  0
  4  5  1  0  0  0  0
  4  7  1  0  0  0  0
  5  6  1  0  0  0  0
  8  9  1  0  0  0  0
  8 15  1  0  0  0  0
  9 10  1  0  0  0  0
  9 14  2  0  0  0  0
 10 11  2  0  0  0  0
 11 12  1  0  0  0  0
 12 13  2  0  0  0  0
 13 14  1  0  0  0  0
 15 16  1  0  0  0  0
 15 20  2  0  0  0  0
 16 17  2  0  0  0  0
 17 18  1  0  0  0  0
 18 19  2  0  0  0  0
 19 20  1  0  0  0  0
M  END
>  <Index>
1507

>  <ID>
HT0562

>  <class>
1

>  <apol>
48.549446

>  <ast_fraglike>
0

>  <ast_fraglike_ext>
0

>  <ast_violation>
1

>  <ast_violation_ext>
2

>  <a_acc>
2

>  <a_acid>
0

>  <a_aro>
12

>  <a_base>
0

>  <a_count>
42

>  <a_don>
0

>  <a_donacc>
2

>  <a_heavy>
20

>  <a_hyd>
18

>  <a_IC>
51.311188

>  <a_ICM>
1.2216949

>  <a_nB>
0

>  <a_nBr>
0

>  <a_nC>
18

>  <a_nCl>
0

>  <a_nF>
0

>  <a_nH>
22

>  <a_nI>
0

>  <a_nN>
2

>  <a_nO>
0

>  <a_nP>
0

>  <a_nS>
0

>  <balabanJ>
1.6823888

>  <BCUT_PEOE_0>
-2.7752891

>  <BCUT_PEOE_1>
-0.5659796

>  <BCUT_PEOE_2>
0.62380207

>  <BCUT_PEOE_3>
2.6697946

>  <BCUT_SLOGP_0>
-2.8732071

>  <BCUT_SLOGP_1>
-0.46141538

>  <BCUT_SLOGP_2>
0.72586107

>  <BCUT_SLOGP_3>
2.6256082

>  <BCUT_SMR_0>
-2.4874532

>  <BCUT_SMR_1>
-0.4297317

>  <BCUT_SMR_2>
0.76781034

>  <BCUT_SMR_3>
2.9501846

>  <bpol>
28.010553

>  <b_1rotN>
3

>  <b_1rotR>
0.13636364

>  <b_ar>
12

>  <b_count>
44

>  <b_double>
0

>  <b_heavy>
22

>  <b_max1len>
2

>  <b_rotN>
3

>  <b_rotR>
0.13636364

>  <b_single>
32

>  <b_triple>
0

>  <chi0>
13.786246

>  <chi0v>
12.073708

>  <chi0v_C>
11.17928

>  <chi0_C>
12.631546

>  <chi1>
9.8433371

>  <chi1v>
7.369041

>  <chi1v_C>
5.3987174

>  <chi1_C>
7.2996597

>  <chiral>
0

>  <chiral_u>
0

>  <density>
0.64605755

>  <diameter>
9

>  <FCharge>
0

>  <GCUT_PEOE_0>
-0.85772449

>  <GCUT_PEOE_1>
-0.36460835

>  <GCUT_PEOE_2>
0.065703854

>  <GCUT_PEOE_3>
2.7326994

>  <GCUT_SLOGP_0>
-0.96068186

>  <GCUT_SLOGP_1>
-0.26472306

>  <GCUT_SLOGP_2>
0.1471646

>  <GCUT_SLOGP_3>
2.7935758

>  <GCUT_SMR_0>
-0.51472348

>  <GCUT_SMR_1>
-0.19412023

>  <GCUT_SMR_2>
0.16994575

>  <GCUT_SMR_3>
3.003567

>  <Kier1>
14.917356

>  <Kier2>
7.3198571

>  <Kier3>
3.8144045

>  <KierA1>
11.588001

>  <KierA2>
5.6047225

>  <KierA3>
2.8899062

>  <KierFlex>
3.2473764

>  <lip_acc>
2

>  <lip_don>
0

>  <lip_druglike>
1

>  <lip_violation>
0

>  <logP(o/w)>
3.3889999

>  <logS>
-3.07096

>  <mr>
8.4065046

>  <mutagenic>
0

>  <nmol>
1

>  <opr_brigid>
18

>  <opr_leadlike>
1

>  <opr_nring>
3

>  <opr_nrot>
5

>  <opr_violation>
0

>  <PC+>
0

>  <PC->
0

>  <PEOE_PC+>
1.2527297

>  <PEOE_PC->
-1.2527297

>  <PEOE_RPC+>
0.049562834

>  <PEOE_RPC->
0.24180533

>  <PEOE_VSA+0>
99.688545

>  <PEOE_VSA+1>
50.065208

>  <PEOE_VSA+2>
0

>  <PEOE_VSA+3>
0

>  <PEOE_VSA+4>
0

>  <PEOE_VSA+5>
0

>  <PEOE_VSA+6>
0

>  <PEOE_VSA-0>
27.655767

>  <PEOE_VSA-1>
122.54904

>  <PEOE_VSA-2>
0

>  <PEOE_VSA-3>
0

>  <PEOE_VSA-4>
0

>  <PEOE_VSA-5>
0

>  <PEOE_VSA-6>
0

>  <PEOE_VSA_FHYD>
1

>  <PEOE_VSA_FNEG>
0.50075185

>  <PEOE_VSA_FPNEG>
0

>  <PEOE_VSA_FPOL>
0

>  <PEOE_VSA_FPOS>
0.49924815

>  <PEOE_VSA_FPPOS>
0

>  <PEOE_VSA_HYD>
299.95856

>  <PEOE_VSA_NEG>
150.2048

>  <PEOE_VSA_PNEG>
0

>  <PEOE_VSA_POL>
0

>  <PEOE_VSA_POS>
149.75375

>  <PEOE_VSA_PPOS>
0

>  <petitjean>
0.44444445

>  <petitjeanSC>
0.80000001

>  <Q_PC+>
0

>  <Q_PC->
0

>  <Q_RPC+>
0

>  <Q_RPC->
0

>  <Q_VSA_FHYD>
1

>  <Q_VSA_FNEG>
0

>  <Q_VSA_FPNEG>
0

>  <Q_VSA_FPOL>
0

>  <Q_VSA_FPOS>
1

>  <Q_VSA_FPPOS>
0

>  <Q_VSA_HYD>
299.95856

>  <Q_VSA_NEG>
0

>  <Q_VSA_PNEG>
0

>  <Q_VSA_POL>
0

>  <Q_VSA_POS>
299.95856

>  <Q_VSA_PPOS>
0

>  <radius>
5

>  <reactive>
0

>  <rings>
3

>  <RPC+>
0

>  <RPC->
0

>  <rsynth>
1

>  <SlogP>
3.1189001

>  <SlogP_VSA0>
0

>  <SlogP_VSA1>
6.2486277

>  <SlogP_VSA2>
0

>  <SlogP_VSA3>
73.758316

>  <SlogP_VSA4>
6.37115

>  <SlogP_VSA5>
32.897186

>  <SlogP_VSA6>
0

>  <SlogP_VSA7>
176.43184

>  <SlogP_VSA8>
3.9819686

>  <SlogP_VSA9>
0

>  <SMR>
8.3908005

>  <SMR_VSA0>
0

>  <SMR_VSA1>
6.2486277

>  <SMR_VSA2>
0

>  <SMR_VSA3>
10.353119

>  <SMR_VSA4>
0

>  <SMR_VSA5>
176.43184

>  <SMR_VSA6>
73.758316

>  <SMR_VSA7>
32.897186

>  <TPSA>
6.48

>  <VAdjEq>
0.49991596

>  <VAdjMa>
5.4594316

>  <VDistEq>
2.9597538

>  <VDistMa>
8.3801613

>  <vdw_area>
299.95856

>  <vdw_vol>
412.32858

>  <vsa_acc>
0

>  <vsa_acid>
0

>  <vsa_base>
0

>  <vsa_don>
0

>  <vsa_hyd>
284.29907

>  <vsa_other>
0

>  <vsa_pol>
0

>  <Weight>
266.388

>  <weinerPath>
776

>  <weinerPol>
29

>  <zagreb>
102

$$$$