O(CCCC(C(O)=O)(C)C)c1cc(ccc1C)C
  MOE2013           2D

 18 18  0  0  0  0  0  0  0  0999 V2000
    0.0000    0.0000    0.0000 O   0  0  0  0  0  0  0  0  0  0  0  0
    1.2960   -0.7560    0.0000 C   0  0  0  0  0  0  0  0  0  0  0  0
    2.5980   -0.0110    0.0000 C   0  0  0  0  0  0  0  0  0  0  0  0
    3.8940   -0.7670    0.0000 C   0  0  0  0  0  0  0  0  0  0  0  0
    5.1960   -0.0230    0.0000 C   0  0  0  0  0  0  0  0  0  0  0  0
    6.4980    0.7220    0.0000 C   0  0  0  0  0  0  0  0  0  0  0  0
    6.5050    2.2220    0.0000 O   0  0  0  0  0  0  0  0  0  0  0  0
    7.7940   -0.0340    0.0000 O   0  0  0  0  0  0  0  0  0  0  0  0
    5.9400   -1.3250    0.0000 C   0  0  0  0  0  0  0  0  0  0  0  0
    4.4520    1.2800    0.0000 C   0  0  0  0  0  0  0  0  0  0  0  0
   -1.3020   -0.7440    0.0000 C   0  0  0  0  0  0  0  0  0  0  0  0
   -1.3090   -2.2440    0.0000 C   0  0  0  0  0  0  0  0  0  0  0  0
   -2.6110   -2.9890    0.0000 C   0  0  0  0  0  0  0  0  0  0  0  0
   -3.9070   -2.2330    0.0000 C   0  0  0  0  0  0  0  0  0  0  0  0
   -3.9000   -0.7330    0.0000 C   0  0  0  0  0  0  0  0  0  0  0  0
   -2.5980    0.0110    0.0000 C   0  0  0  0  0  0  0  0  0  0  0  0
   -2.5920    1.5110    0.0000 C   0  0  0  0  0  0  0  0  0  0  0  0
   -2.6180   -4.4890    0.0000 C   0  0  0  0  0  0  0  0  0  0  0  0
  1  2  1  0  0  0  0
  1 11  1  0  0  0  0
  2  3  1  0  0  0  0
  3  4  1  0  0  0  0
  4  5  1  0  0  0  0
  5  6  1  0  0  0  0
  5  9  1  0  0  0  0
  5 10  1  0  0  0  0
  6  7  1  0  0  0  0
  6  8  2  0  0  0  0
 11 12  1  0  0  0  0
 11 16  2  0  0  0  0
 12 13  2  0  0  0  0
 13 14  1  0  0  0  0
 13 18  1  0  0  0  0
 14 15  2  0  0  0  0
 15 16  1  0  0  0  0
 16 17  1  0  0  0  0
M  END
>  <Index>
1585

>  <ID>
HT0970

>  <class>
1

>  <apol>
43.475445

>  <ast_fraglike>
0

>  <ast_fraglike_ext>
0

>  <ast_violation>
1

>  <ast_violation_ext>
2

>  <a_acc>
3

>  <a_acid>
0

>  <a_aro>
6

>  <a_base>
0

>  <a_count>
40

>  <a_don>
2

>  <a_donacc>
5

>  <a_heavy>
18

>  <a_hyd>
14

>  <a_IC>
51.411381

>  <a_ICM>
1.2852845

>  <a_nB>
0

>  <a_nBr>
0

>  <a_nC>
15

>  <a_nCl>
0

>  <a_nF>
0

>  <a_nH>
22

>  <a_nI>
0

>  <a_nN>
0

>  <a_nO>
3

>  <a_nP>
0

>  <a_nS>
0

>  <balabanJ>
2.216861

>  <BCUT_PEOE_0>
-2.6696084

>  <BCUT_PEOE_1>
-0.092544995

>  <BCUT_PEOE_2>
0.056486338

>  <BCUT_PEOE_3>
2.6818664

>  <BCUT_SLOGP_0>
-2.629828

>  <BCUT_SLOGP_1>
-0.037286155

>  <BCUT_SLOGP_2>
0.12787536

>  <BCUT_SLOGP_3>
2.7411695

>  <BCUT_SMR_0>
-2.4410307

>  <BCUT_SMR_1>
0.091671653

>  <BCUT_SMR_2>
0.19968177

>  <BCUT_SMR_3>
2.9105384

>  <bpol>
26.924555

>  <b_1rotN>
6

>  <b_1rotR>
0.33333334

>  <b_ar>
6

>  <b_count>
40

>  <b_double>
1

>  <b_heavy>
18

>  <b_max1len>
6

>  <b_rotN>
6

>  <b_rotR>
0.33333334

>  <b_single>
33

>  <b_triple>
0

>  <chi0>
13.759149

>  <chi0v>
11.617082

>  <chi0v_C>
10.353372

>  <chi0_C>
11.052042

>  <chi1>
8.3262043

>  <chi1v>
6.2621174

>  <chi1v_C>
5.3415871

>  <chi1_C>
6.2632556

>  <chiral>
0

>  <chiral_u>
0

>  <density>
0.67824817

>  <diameter>
10

>  <FCharge>
0

>  <GCUT_PEOE_0>
-0.79097635

>  <GCUT_PEOE_1>
-0.27415681

>  <GCUT_PEOE_2>
-0.10351367

>  <GCUT_PEOE_3>
2.5557902

>  <GCUT_SLOGP_0>
-0.89042896

>  <GCUT_SLOGP_1>
-0.20906083

>  <GCUT_SLOGP_2>
-0.037

>  <GCUT_SLOGP_3>
2.6486506

>  <GCUT_SMR_0>
-0.52705801

>  <GCUT_SMR_1>
-0.094911948

>  <GCUT_SMR_2>
-0.017290046

>  <GCUT_SMR_3>
2.7905452

>  <Kier1>
16.055555

>  <Kier2>
6.9632001

>  <Kier3>
5.2674899

>  <KierA1>
13.235535

>  <KierA2>
5.6702304

>  <KierA3>
4.2505913

>  <KierFlex>
4.1693625

>  <lip_acc>
3

>  <lip_don>
1

>  <lip_druglike>
1

>  <lip_violation>
0

>  <logP(o/w)>
3.6960001

>  <logS>
-2.7544899

>  <mr>
7.2621903

>  <mutagenic>
0

>  <nmol>
1

>  <opr_brigid>
6

>  <opr_leadlike>
1

>  <opr_nring>
1

>  <opr_nrot>
6

>  <opr_violation>
0

>  <PC+>
0

>  <PC->
0

>  <PEOE_PC+>
1.3945767

>  <PEOE_PC->
-1.3945767

>  <PEOE_RPC+>
0.19021976

>  <PEOE_RPC->
0.24697281

>  <PEOE_VSA+0>
68.246178

>  <PEOE_VSA+1>
44.736744

>  <PEOE_VSA+2>
0

>  <PEOE_VSA+3>
0

>  <PEOE_VSA+4>
10.324173

>  <PEOE_VSA+5>
14.708499

>  <PEOE_VSA+6>
0

>  <PEOE_VSA-0>
71.569962

>  <PEOE_VSA-1>
62.005161

>  <PEOE_VSA-2>
0

>  <PEOE_VSA-3>
0

>  <PEOE_VSA-4>
0

>  <PEOE_VSA-5>
13.566921

>  <PEOE_VSA-6>
10.271297

>  <PEOE_VSA_FHYD>
0.83457649

>  <PEOE_VSA_FNEG>
0.53282982

>  <PEOE_VSA_FPNEG>
0.08069019

>  <PEOE_VSA_FPOL>
0.1654235

>  <PEOE_VSA_FPOS>
0.46717018

>  <PEOE_VSA_FPPOS>
0.084733315

>  <PEOE_VSA_HYD>
246.55804

>  <PEOE_VSA_NEG>
157.41335

>  <PEOE_VSA_PNEG>
23.838217

>  <PEOE_VSA_POL>
48.870888

>  <PEOE_VSA_POS>
138.01559

>  <PEOE_VSA_PPOS>
25.032671

>  <petitjean>
0.5

>  <petitjeanSC>
1

>  <Q_PC+>
0

>  <Q_PC->
0

>  <Q_RPC+>
0

>  <Q_RPC->
0

>  <Q_VSA_FHYD>
1

>  <Q_VSA_FNEG>
0

>  <Q_VSA_FPNEG>
0

>  <Q_VSA_FPOL>
0

>  <Q_VSA_FPOS>
1

>  <Q_VSA_FPPOS>
0

>  <Q_VSA_HYD>
295.42892

>  <Q_VSA_NEG>
0

>  <Q_VSA_PNEG>
0

>  <Q_VSA_POL>
0

>  <Q_VSA_POS>
295.42892

>  <Q_VSA_PPOS>
0

>  <radius>
5

>  <reactive>
0

>  <rings>
1

>  <RPC+>
0

>  <RPC->
0

>  <rsynth>
1

>  <SlogP>
3.57324

>  <SlogP_VSA0>
10.999887

>  <SlogP_VSA1>
7.7454643

>  <SlogP_VSA2>
23.862217

>  <SlogP_VSA3>
46.311485

>  <SlogP_VSA4>
6.37115

>  <SlogP_VSA5>
0

>  <SlogP_VSA6>
0

>  <SlogP_VSA7>
52.929554

>  <SlogP_VSA8>
37.736813

>  <SlogP_VSA9>
138.54749

>  <SMR>
7.2061801

>  <SMR_VSA0>
23.862217

>  <SMR_VSA1>
10.999887

>  <SMR_VSA2>
25.385227

>  <SMR_VSA3>
11.614578

>  <SMR_VSA4>
0

>  <SMR_VSA5>
90.666367

>  <SMR_VSA6>
28.671722

>  <SMR_VSA7>
133.30406

>  <TPSA>
46.529999

>  <VAdjEq>
0.50325835

>  <VAdjMa>
5.1699252

>  <VDistEq>
3.2100329

>  <VDistMa>
8.005497

>  <vdw_area>
295.42892

>  <vdw_vol>
369.09497

>  <vsa_acc>
2.503756

>  <vsa_acid>
0

>  <vsa_base>
0

>  <vsa_don>
0

>  <vsa_hyd>
231.61035

>  <vsa_other>
14.708499

>  <vsa_pol>
29.637598

>  <Weight>
250.338

>  <weinerPath>
705

>  <weinerPol>
24

>  <zagreb>
86

$$$$