N(CCCN1c2c(CCc3c1cccc3)cccc2)C
  MOE2013           2D

 20 22  0  0  0  0  0  0  0  0999 V2000
    0.0000    0.0000    0.0000 N   0  0  0  0  0  0  0  0  0  0  0  0
   -1.2970    0.7540    0.0000 C   0  0  0  0  0  0  0  0  0  0  0  0
   -2.5980    0.0080    0.0000 C   0  0  0  0  0  0  0  0  0  0  0  0
   -3.8950    0.7630    0.0000 C   0  0  0  0  0  0  0  0  0  0  0  0
   -5.1960    0.0170    0.0000 N   0  0  0  0  0  0  0  0  0  0  0  0
   -6.4330    0.8650    0.0000 C   0  0  0  0  0  0  0  0  0  0  0  0
   -7.8680    0.4280    0.0000 C   0  0  0  0  0  0  0  0  0  0  0  0
   -8.4210   -0.9670    0.0000 C   0  0  0  0  0  0  0  0  0  0  0  0
   -7.6760   -2.2690    0.0000 C   0  0  0  0  0  0  0  0  0  0  0  0
   -6.1930   -2.4960    0.0000 C   0  0  0  0  0  0  0  0  0  0  0  0
   -5.0900   -1.4790    0.0000 C   0  0  0  0  0  0  0  0  0  0  0  0
   -3.6580   -1.9260    0.0000 C   0  0  0  0  0  0  0  0  0  0  0  0
   -3.3290   -3.3900    0.0000 C   0  0  0  0  0  0  0  0  0  0  0  0
   -4.4320   -4.4060    0.0000 C   0  0  0  0  0  0  0  0  0  0  0  0
   -5.8640   -3.9590    0.0000 C   0  0  0  0  0  0  0  0  0  0  0  0
   -8.9640    1.4510    0.0000 C   0  0  0  0  0  0  0  0  0  0  0  0
   -8.6260    2.9130    0.0000 C   0  0  0  0  0  0  0  0  0  0  0  0
   -7.1910    3.3500    0.0000 C   0  0  0  0  0  0  0  0  0  0  0  0
   -6.0950    2.3270    0.0000 C   0  0  0  0  0  0  0  0  0  0  0  0
    1.3010    0.7460    0.0000 C   0  0  0  0  0  0  0  0  0  0  0  0
  1  2  1  0  0  0  0
  1 20  1  0  0  0  0
  2  3  1  0  0  0  0
  3  4  1  0  0  0  0
  4  5  1  0  0  0  0
  5  6  1  0  0  0  0
  5 11  1  0  0  0  0
  6  7  1  0  0  0  0
  6 19  2  0  0  0  0
  7  8  1  0  0  0  0
  7 16  2  0  0  0  0
  8  9  1  0  0  0  0
  9 10  1  0  0  0  0
 10 11  1  0  0  0  0
 10 15  2  0  0  0  0
 11 12  2  0  0  0  0
 12 13  1  0  0  0  0
 13 14  2  0  0  0  0
 14 15  1  0  0  0  0
 16 17  1  0  0  0  0
 17 18  2  0  0  0  0
 18 19  1  0  0  0  0
M  END
>  <Index>
1516

>  <ID>
HT0611

>  <class>
1

>  <apol>
48.549446

>  <ast_fraglike>
0

>  <ast_fraglike_ext>
0

>  <ast_violation>
1

>  <ast_violation_ext>
2

>  <a_acc>
1

>  <a_acid>
0

>  <a_aro>
12

>  <a_base>
0

>  <a_count>
42

>  <a_don>
1

>  <a_donacc>
2

>  <a_heavy>
20

>  <a_hyd>
18

>  <a_IC>
51.311188

>  <a_ICM>
1.2216949

>  <a_nB>
0

>  <a_nBr>
0

>  <a_nC>
18

>  <a_nCl>
0

>  <a_nF>
0

>  <a_nH>
22

>  <a_nI>
0

>  <a_nN>
2

>  <a_nO>
0

>  <a_nP>
0

>  <a_nS>
0

>  <balabanJ>
1.7351484

>  <BCUT_PEOE_0>
-2.6170466

>  <BCUT_PEOE_1>
-0.57219058

>  <BCUT_PEOE_2>
0.6219371

>  <BCUT_PEOE_3>
2.5587277

>  <BCUT_SLOGP_0>
-2.7155116

>  <BCUT_SLOGP_1>
-0.48371783

>  <BCUT_SLOGP_2>
0.6956358

>  <BCUT_SLOGP_3>
2.613384

>  <BCUT_SMR_0>
-2.3357728

>  <BCUT_SMR_1>
-0.4314788

>  <BCUT_SMR_2>
0.75491518

>  <BCUT_SMR_3>
2.8548961

>  <bpol>
26.690554

>  <b_1rotN>
4

>  <b_1rotR>
0.18181819

>  <b_ar>
12

>  <b_count>
44

>  <b_double>
0

>  <b_heavy>
22

>  <b_max1len>
6

>  <b_rotN>
4

>  <b_rotR>
0.18181819

>  <b_single>
32

>  <b_triple>
0

>  <chi0>
13.786246

>  <chi0v>
12.10155

>  <chi0v_C>
11.154336

>  <chi0_C>
12.501789

>  <chi1>
9.8981781

>  <chi1v>
7.4788022

>  <chi1v_C>
5.8618073

>  <chi1_C>
7.6161566

>  <chiral>
0

>  <chiral_u>
0

>  <density>
0.64859915

>  <diameter>
9

>  <FCharge>
0

>  <GCUT_PEOE_0>
-0.85438794

>  <GCUT_PEOE_1>
-0.36268285

>  <GCUT_PEOE_2>
0.061806444

>  <GCUT_PEOE_3>
2.7225273

>  <GCUT_SLOGP_0>
-1.1526396

>  <GCUT_SLOGP_1>
-0.26393339

>  <GCUT_SLOGP_2>
0.14782788

>  <GCUT_SLOGP_3>
2.8399777

>  <GCUT_SMR_0>
-0.51675332

>  <GCUT_SMR_1>
-0.19396463

>  <GCUT_SMR_2>
0.17363781

>  <GCUT_SMR_3>
3.0167706

>  <Kier1>
14.917356

>  <Kier2>
7.3198571

>  <Kier3>
3.4425001

>  <KierA1>
11.25843

>  <KierA2>
5.4358997

>  <KierA3>
2.5263538

>  <KierFlex>
3.0599852

>  <lip_acc>
2

>  <lip_don>
1

>  <lip_druglike>
1

>  <lip_violation>
0

>  <logP(o/w)>
3.836

>  <logS>
-3.32376

>  <mr>
8.4153519

>  <mutagenic>
0

>  <nmol>
1

>  <opr_brigid>
17

>  <opr_leadlike>
1

>  <opr_nring>
3

>  <opr_nrot>
4

>  <opr_violation>
0

>  <PC+>
0

>  <PC->
0

>  <PEOE_PC+>
1.1539682

>  <PEOE_PC->
-1.1539682

>  <PEOE_RPC+>
0.1054047

>  <PEOE_RPC->
0.27637646

>  <PEOE_VSA+0>
82.041443

>  <PEOE_VSA+1>
34.123089

>  <PEOE_VSA+2>
8.6190128

>  <PEOE_VSA+3>
0

>  <PEOE_VSA+4>
0

>  <PEOE_VSA+5>
0

>  <PEOE_VSA+6>
0

>  <PEOE_VSA-0>
91.461838

>  <PEOE_VSA-1>
73.529427

>  <PEOE_VSA-2>
0

>  <PEOE_VSA-3>
0

>  <PEOE_VSA-4>
0

>  <PEOE_VSA-5>
0

>  <PEOE_VSA-6>
0.13689101

>  <PEOE_VSA_FHYD>
0.99952781

>  <PEOE_VSA_FNEG>
0.56958085

>  <PEOE_VSA_FPNEG>
0.00047218171

>  <PEOE_VSA_FPOL>
0.00047218171

>  <PEOE_VSA_FPOS>
0.43041915

>  <PEOE_VSA_FPPOS>
0

>  <PEOE_VSA_HYD>
289.77481

>  <PEOE_VSA_NEG>
165.12816

>  <PEOE_VSA_PNEG>
0.13689101

>  <PEOE_VSA_POL>
0.13689101

>  <PEOE_VSA_POS>
124.78355

>  <PEOE_VSA_PPOS>
0

>  <petitjean>
0.44444445

>  <petitjeanSC>
0.80000001

>  <Q_PC+>
0

>  <Q_PC->
0

>  <Q_RPC+>
0

>  <Q_RPC->
0

>  <Q_VSA_FHYD>
1

>  <Q_VSA_FNEG>
0

>  <Q_VSA_FPNEG>
0

>  <Q_VSA_FPOL>
0

>  <Q_VSA_FPOS>
1

>  <Q_VSA_FPPOS>
0

>  <Q_VSA_HYD>
289.91171

>  <Q_VSA_NEG>
0

>  <Q_VSA_PNEG>
0

>  <Q_VSA_POL>
0

>  <Q_VSA_POS>
289.91171

>  <Q_VSA_PPOS>
0

>  <radius>
5

>  <reactive>
0

>  <rings>
3

>  <RPC+>
0

>  <RPC->
0

>  <rsynth>
1

>  <SlogP>
3.5327401

>  <SlogP_VSA0>
21.135065

>  <SlogP_VSA1>
0

>  <SlogP_VSA2>
0

>  <SlogP_VSA3>
36.879158

>  <SlogP_VSA4>
6.37115

>  <SlogP_VSA5>
70.633995

>  <SlogP_VSA6>
0

>  <SlogP_VSA7>
141.14548

>  <SlogP_VSA8>
18.868406

>  <SlogP_VSA9>
5.513495

>  <SMR>
8.5841703

>  <SMR_VSA0>
0

>  <SMR_VSA1>
0

>  <SMR_VSA2>
21.135065

>  <SMR_VSA3>
6.37115

>  <SMR_VSA4>
5.513495

>  <SMR_VSA5>
197.75069

>  <SMR_VSA6>
36.879158

>  <SMR_VSA7>
32.897186

>  <TPSA>
15.27

>  <VAdjEq>
0.49991596

>  <VAdjMa>
5.4594316

>  <VDistEq>
2.9541149

>  <VDistMa>
8.3778744

>  <vdw_area>
289.91171

>  <vdw_vol>
410.71283

>  <vsa_acc>
0

>  <vsa_acid>
0

>  <vsa_base>
0

>  <vsa_don>
0

>  <vsa_hyd>
266.2081

>  <vsa_other>
0

>  <vsa_pol>
5.6825762

>  <Weight>
266.388

>  <weinerPath>
759

>  <weinerPol>
34

>  <zagreb>
102

$$$$