O1[C@@H](C)C(OC2O[C@@H](C)[C@H](OC(=O)CCC)[C@](OC(=O)CC)(C2)C)[C@@H](N(C)C)[C@H](O)C1O[C@@H]1[C@H](OC)[C@H](O)CC(O[C@@H](CC=CC=C[C@H](O)[C@@H](C[C@@H]1CC=O)C)C)=O
  MOE2013           2D

 58 60  0  0  1  0  0  0  0  0999 V2000
    0.0000    0.0000    0.0000 O   0  0  0  0  0  0  0  0  0  0  0  0
    1.5000   -0.0080    0.0000 C   0  0  1  0  0  0  0  0  0  0  0  0
    2.2560    1.2880    0.0000 C   0  0  0  0  0  0  0  0  0  0  0  0
    2.2430   -1.3100    0.0000 C   0  0  3  0  0  0  0  0  0  0  0  0
    3.7430   -1.3180    0.0000 O   0  0  0  0  0  0  0  0  0  0  0  0
    4.5000   -0.0230    0.0000 C   0  0  3  0  0  0  0  0  0  0  0  0
    3.7560    1.2800    0.0000 O   0  0  0  0  0  0  0  0  0  0  0  0
    4.5130    2.5760    0.0000 C   0  0  1  0  0  0  0  0  0  0  0  0
    3.7690    3.8780    0.0000 C   0  0  0  0  0  0  0  0  0  0  0  0
    6.0130    2.5680    0.0000 C   0  0  2  0  0  0  0  0  0  0  0  0
    6.7690    3.8630    0.0000 O   0  0  0  0  0  0  0  0  0  0  0  0
    6.0260    5.1660    0.0000 C   0  0  0  0  0  0  0  0  0  0  0  0
    4.5260    5.1740    0.0000 O   0  0  0  0  0  0  0  0  0  0  0  0
    6.7820    6.4610    0.0000 C   0  0  0  0  0  0  0  0  0  0  0  0
    6.0390    7.7640    0.0000 C   0  0  0  0  0  0  0  0  0  0  0  0
    6.7950    9.0590    0.0000 C   0  0  0  0  0  0  0  0  0  0  0  0
    6.7560    1.2650    0.0000 C   0  0  2  0  0  0  0  0  0  0  0  0
    8.0590    2.0090    0.0000 O   0  0  0  0  0  0  0  0  0  0  0  0
    9.3540    1.2520    0.0000 C   0  0  0  0  0  0  0  0  0  0  0  0
   10.6570    1.9960    0.0000 O   0  0  0  0  0  0  0  0  0  0  0  0
    9.3470   -0.2480    0.0000 C   0  0  0  0  0  0  0  0  0  0  0  0
   10.6420   -1.0040    0.0000 C   0  0  0  0  0  0  0  0  0  0  0  0
    6.0000   -0.0300    0.0000 C   0  0  0  0  0  0  0  0  0  0  0  0
    8.0520    0.5090    0.0000 C   0  0  0  0  0  0  0  0  0  0  0  0
    1.4870   -2.6060    0.0000 C   0  0  1  0  0  0  0  0  0  0  0  0
    2.2300   -3.9080    0.0000 N   0  0  0  0  0  0  0  0  0  0  0  0
    1.4740   -5.2040    0.0000 C   0  0  0  0  0  0  0  0  0  0  0  0
    3.7300   -3.9160    0.0000 C   0  0  0  0  0  0  0  0  0  0  0  0
   -0.0130   -2.5980    0.0000 C   0  0  2  0  0  0  0  0  0  0  0  0
   -0.7700   -3.8930    0.0000 O   0  0  0  0  0  0  0  0  0  0  0  0
   -0.7560   -1.2950    0.0000 C   0  0  3  0  0  0  0  0  0  0  0  0
   -2.2560   -1.2880    0.0000 O   0  0  0  0  0  0  0  0  0  0  0  0
   -3.0000    0.0150    0.0000 C   0  0  2  0  0  0  0  0  0  0  0  0
   -2.0370    0.9520    0.0000 C   0  0  2  0  0  0  0  0  0  0  0  0
   -0.6630    0.3500    0.0000 O   0  0  0  0  0  0  0  0  0  0  0  0
    0.5460    1.2380    0.0000 C   0  0  0  0  0  0  0  0  0  0  0  0
   -1.9960    2.4330    0.0000 C   0  0  2  0  0  0  0  0  0  0  0  0
   -3.2840    3.2020    0.0000 O   0  0  0  0  0  0  0  0  0  0  0  0
   -0.7110    3.1720    0.0000 C   0  0  0  0  0  0  0  0  0  0  0  0
   -0.3460    4.4660    0.0000 C   0  0  0  0  0  0  0  0  0  0  0  0
   -0.6660    5.7980    0.0000 O   0  0  0  0  0  0  0  0  0  0  0  0
   -1.8930    6.5700    0.0000 C   0  0  1  0  0  0  0  0  0  0  0  0
   -3.2600    5.9980    0.0000 C   0  0  0  0  0  0  0  0  0  0  0  0
   -4.4720    6.9090    0.0000 C   0  0  0  0  0  0  0  0  0  0  0  0
   -5.8440    6.2310    0.0000 C   0  0  0  0  0  0  0  0  0  0  0  0
   -5.8750    4.7330    0.0000 C   0  0  0  0  0  0  0  0  0  0  0  0
   -7.1780    3.9930    0.0000 C   0  0  0  0  0  0  0  0  0  0  0  0
   -7.1180    2.4630    0.0000 C   0  0  2  0  0  0  0  0  0  0  0  0
   -8.3630    1.6260    0.0000 O   0  0  0  0  0  0  0  0  0  0  0  0
   -5.7380    1.8380    0.0000 C   0  0  1  0  0  0  0  0  0  0  0  0
   -5.5880    0.3640    0.0000 C   0  0  0  0  0  0  0  0  0  0  0  0
   -4.3210   -0.3440    0.0000 C   0  0  2  0  0  0  0  0  0  0  0  0
   -4.5030   -1.8330    0.0000 C   0  0  0  0  0  0  0  0  0  0  0  0
   -5.8840   -2.4190    0.0000 C   0  0  0  0  0  0  0  0  0  0  0  0
   -6.0660   -3.9080    0.0000 O   0  0  0  0  0  0  0  0  0  0  0  0
   -4.5200    2.7130    0.0000 C   0  0  0  0  0  0  0  0  0  0  0  0
   -1.7690    8.0650    0.0000 C   0  0  0  0  0  0  0  0  0  0  0  0
    1.1540    4.4360    0.0000 O   0  0  0  0  0  0  0  0  0  0  0  0
  1  2  1  0  0  0  0
  1 31  1  0  0  0  0
  2  3  1  1  0  0  0
  2  4  1  0  0  0  0
  4  5  1  0  0  0  0
  4 25  1  0  0  0  0
  5  6  1  0  0  0  0
  6  7  1  0  0  0  0
  6 23  1  0  0  0  0
  7  8  1  0  0  0  0
  8  9  1  1  0  0  0
  8 10  1  0  0  0  0
 10 11  1  6  0  0  0
 10 17  1  0  0  0  0
 11 12  1  0  0  0  0
 12 13  2  0  0  0  0
 12 14  1  0  0  0  0
 14 15  1  0  0  0  0
 15 16  1  0  0  0  0
 17 18  1  6  0  0  0
 17 23  1  0  0  0  0
 17 24  1  1  0  0  0
 18 19  1  0  0  0  0
 19 20  2  0  0  0  0
 19 21  1  0  0  0  0
 21 22  1  0  0  0  0
 25 26  1  1  0  0  0
 25 29  1  0  0  0  0
 26 27  1  0  0  0  0
 26 28  1  0  0  0  0
 29 30  1  6  0  0  0
 29 31  1  0  0  0  0
 31 32  1  0  0  0  0
 33 32  1  1  0  0  0
 33 34  1  0  0  0  0
 33 52  1  0  0  0  0
 34 35  1  1  0  0  0
 34 37  1  0  0  0  0
 35 36  1  0  0  0  0
 37 38  1  6  0  0  0
 37 39  1  0  0  0  0
 39 40  1  0  0  0  0
 40 41  1  0  0  0  0
 40 58  2  0  0  0  0
 41 42  1  0  0  0  0
 42 43  1  0  0  0  0
 42 57  1  1  0  0  0
 43 44  1  0  0  0  0
 44 45  2  3  0  0  0
 45 46  1  0  0  0  0
 46 47  2  3  0  0  0
 47 48  1  0  0  0  0
 48 49  1  1  0  0  0
 48 50  1  0  0  0  0
 50 51  1  0  0  0  0
 50 56  1  6  0  0  0
 51 52  1  0  0  0  0
 52 53  1  1  0  0  0
 53 54  1  0  0  0  0
 54 55  2  0  0  0  0
M  END
>  <Index>
1719

>  <ID>
HT1840

>  <class>
1

>  <apol>
133.05872

>  <ast_fraglike>
0

>  <ast_fraglike_ext>
0

>  <ast_violation>
3

>  <ast_violation_ext>
5

>  <a_acc>
13

>  <a_acid>
0

>  <a_aro>
0

>  <a_base>
0

>  <a_count>
127

>  <a_don>
3

>  <a_donacc>
16

>  <a_heavy>
58

>  <a_hyd>
36

>  <a_IC>
180.99408

>  <a_ICM>
1.4251502

>  <a_nB>
0

>  <a_nBr>
0

>  <a_nC>
42

>  <a_nCl>
0

>  <a_nF>
0

>  <a_nH>
69

>  <a_nI>
0

>  <a_nN>
1

>  <a_nO>
15

>  <a_nP>
0

>  <a_nS>
0

>  <balabanJ>
1.9267951

>  <BCUT_PEOE_0>
-2.8115423

>  <BCUT_PEOE_1>
-0.44894481

>  <BCUT_PEOE_2>
0.54116458

>  <BCUT_PEOE_3>
2.8403759

>  <BCUT_SLOGP_0>
-2.9521043

>  <BCUT_SLOGP_1>
-0.41270894

>  <BCUT_SLOGP_2>
0.46657467

>  <BCUT_SLOGP_3>
2.7677391

>  <BCUT_SMR_0>
-2.5903051

>  <BCUT_SMR_1>
-0.35735518

>  <BCUT_SMR_2>
0.62639624

>  <BCUT_SMR_3>
3.0464931

>  <bpol>
96.571281

>  <b_1rotN>
13

>  <b_1rotR>
0.21666667

>  <b_ar>
0

>  <b_count>
129

>  <b_double>
6

>  <b_heavy>
60

>  <b_max1len>
4

>  <b_rotN>
15

>  <b_rotR>
0.25

>  <b_single>
123

>  <b_triple>
0

>  <chi0>
43.318897

>  <chi0v>
35.891693

>  <chi0v_C>
29.203859

>  <chi0_C>
30.084694

>  <chi1>
27.383705

>  <chi1v>
20.618589

>  <chi1v_C>
14.025823

>  <chi1_C>
14.948326

>  <chiral>
16

>  <chiral_u>
3

>  <density>
0.73935324

>  <diameter>
23

>  <FCharge>
0

>  <GCUT_PEOE_0>
-0.85206729

>  <GCUT_PEOE_1>
-0.37819132

>  <GCUT_PEOE_2>
0.04873094

>  <GCUT_PEOE_3>
3.4126272

>  <GCUT_SLOGP_0>
-0.96996987

>  <GCUT_SLOGP_1>
-0.28910249

>  <GCUT_SLOGP_2>
-0.0089015346

>  <GCUT_SLOGP_3>
3.3747585

>  <GCUT_SMR_0>
-0.53353328

>  <GCUT_SMR_1>
-0.21133189

>  <GCUT_SMR_2>
0.12519252

>  <GCUT_SMR_3>
3.6144783

>  <Kier1>
52.345001

>  <Kier2>
25.333334

>  <Kier3>
15.350658

>  <KierA1>
47.773567

>  <KierA2>
23.082834

>  <KierA3>
13.97115

>  <KierFlex>
19.012918

>  <lip_acc>
16

>  <lip_don>
3

>  <lip_druglike>
0

>  <lip_violation>
2

>  <logP(o/w)>
3.6294799

>  <logS>
-4.8421798

>  <mr>
21.39781

>  <mutagenic>
0

>  <nmol>
1

>  <opr_brigid>
28

>  <opr_leadlike>
0

>  <opr_nring>
2

>  <opr_nrot>
30

>  <opr_violation>
3

>  <PC+>
0

>  <PC->
0

>  <PEOE_PC+>
5.9625578

>  <PEOE_PC->
-5.9625578

>  <PEOE_RPC+>
0.044440668

>  <PEOE_RPC->
0.065179564

>  <PEOE_VSA+0>
251.74529

>  <PEOE_VSA+1>
126.58456

>  <PEOE_VSA+2>
42.389984

>  <PEOE_VSA+3>
22.309816

>  <PEOE_VSA+4>
30.972517

>  <PEOE_VSA+5>
44.125496

>  <PEOE_VSA+6>
0

>  <PEOE_VSA-0>
147.57202

>  <PEOE_VSA-1>
105.26265

>  <PEOE_VSA-2>
0

>  <PEOE_VSA-3>
0

>  <PEOE_VSA-4>
0

>  <PEOE_VSA-5>
40.700764

>  <PEOE_VSA-6>
56.89959

>  <PEOE_VSA_FHYD>
0.80116767

>  <PEOE_VSA_FNEG>
0.40346545

>  <PEOE_VSA_FPNEG>
0.11236995

>  <PEOE_VSA_FPOL>
0.19883236

>  <PEOE_VSA_FPOS>
0.59653455

>  <PEOE_VSA_FPPOS>
0.086462401

>  <PEOE_VSA_HYD>
695.86432

>  <PEOE_VSA_NEG>
350.43503

>  <PEOE_VSA_PNEG>
97.600349

>  <PEOE_VSA_POL>
172.69836

>  <PEOE_VSA_POS>
518.12769

>  <PEOE_VSA_PPOS>
75.098015

>  <petitjean>
0.47826087

>  <petitjeanSC>
0.91666669

>  <Q_PC+>
0

>  <Q_PC->
0

>  <Q_RPC+>
0

>  <Q_RPC->
0

>  <Q_VSA_FHYD>
1

>  <Q_VSA_FNEG>
0

>  <Q_VSA_FPNEG>
0

>  <Q_VSA_FPOL>
0

>  <Q_VSA_FPOS>
1

>  <Q_VSA_FPPOS>
0

>  <Q_VSA_HYD>
868.56268

>  <Q_VSA_NEG>
0

>  <Q_VSA_PNEG>
0

>  <Q_VSA_POL>
0

>  <Q_VSA_POS>
868.56268

>  <Q_VSA_PPOS>
0

>  <radius>
12

>  <reactive>
1

>  <rings>
3

>  <RPC+>
0

>  <RPC->
0

>  <rsynth>
0.63793105

>  <SlogP>
3.1575

>  <SlogP_VSA0>
76.155678

>  <SlogP_VSA1>
26.360706

>  <SlogP_VSA2>
289.31467

>  <SlogP_VSA3>
0

>  <SlogP_VSA4>
8.8215923

>  <SlogP_VSA5>
101.17825

>  <SlogP_VSA6>
0

>  <SlogP_VSA7>
70.572739

>  <SlogP_VSA8>
150.94725

>  <SlogP_VSA9>
233.2821

>  <SMR>
20.99214

>  <SMR_VSA0>
183.44797

>  <SMR_VSA1>
79.279991

>  <SMR_VSA2>
8.8215923

>  <SMR_VSA3>
85.721466

>  <SMR_VSA4>
0

>  <SMR_VSA5>
221.51997

>  <SMR_VSA6>
23.236393

>  <SMR_VSA7>
354.60556

>  <TPSA>
206.05

>  <VAdjEq>
0.22208287

>  <VAdjMa>
6.9068904

>  <VDistEq>
4.2200456

>  <VDistMa>
11.455734

>  <vdw_area>
868.56268

>  <vdw_vol>
1119.9059

>  <vsa_acc>
66.786461

>  <vsa_acid>
0

>  <vsa_base>
0

>  <vsa_don>
0

>  <vsa_hyd>
594.72028

>  <vsa_other>
103.11224

>  <vsa_pol>
107.48723

>  <Weight>
828.00598

>  <weinerPath>
14551

>  <weinerPol>
100

>  <zagreb>
288

$$$$