SC(C(=O)NCC(O)=O)C
  MOE2013           2D

 10  9  0  0  1  0  0  0  0  0999 V2000
    0.0000    0.0000    0.0000 S   0  0  0  0  0  0  0  0  0  0  0  0
    1.2980   -0.7510    0.0000 C   0  0  3  0  0  0  0  0  0  0  0  0
    2.5980   -0.0020    0.0000 C   0  0  0  0  0  0  0  0  0  0  0  0
    2.5990    1.4980    0.0000 O   0  0  0  0  0  0  0  0  0  0  0  0
    3.8960   -0.7540    0.0000 N   0  0  0  0  0  0  0  0  0  0  0  0
    5.1960   -0.0050    0.0000 C   0  0  0  0  0  0  0  0  0  0  0  0
    6.4940   -0.7560    0.0000 C   0  0  0  0  0  0  0  0  0  0  0  0
    7.7940   -0.0070    0.0000 O   0  0  0  0  0  0  0  0  0  0  0  0
    6.4930   -2.2560    0.0000 O   0  0  0  0  0  0  0  0  0  0  0  0
    1.2970   -2.2510    0.0000 C   0  0  0  0  0  0  0  0  0  0  0  0
  1  2  1  0  0  0  0
  2  3  1  0  0  0  0
  2 10  1  0  0  0  0
  3  4  2  0  0  0  0
  3  5  1  0  0  0  0
  5  6  1  0  0  0  0
  6  7  1  0  0  0  0
  7  8  1  0  0  0  0
  7  9  2  0  0  0  0
M  END
>  <Index>
1747

>  <ID>
HT2067

>  <class>
1

>  <apol>
21.207136

>  <ast_fraglike>
1

>  <ast_fraglike_ext>
1

>  <ast_violation>
0

>  <ast_violation_ext>
0

>  <a_acc>
3

>  <a_acid>
0

>  <a_aro>
0

>  <a_base>
0

>  <a_count>
19

>  <a_don>
3

>  <a_donacc>
6

>  <a_heavy>
10

>  <a_hyd>
3

>  <a_IC>
35.816769

>  <a_ICM>
1.8850931

>  <a_nB>
0

>  <a_nBr>
0

>  <a_nC>
5

>  <a_nCl>
0

>  <a_nF>
0

>  <a_nH>
9

>  <a_nI>
0

>  <a_nN>
1

>  <a_nO>
3

>  <a_nP>
0

>  <a_nS>
1

>  <balabanJ>
3.33255

>  <BCUT_PEOE_0>
-2.4445486

>  <BCUT_PEOE_1>
-0.50716114

>  <BCUT_PEOE_2>
0.4580768

>  <BCUT_PEOE_3>
2.4785366

>  <BCUT_SLOGP_0>
-2.6661837

>  <BCUT_SLOGP_1>
-0.49031138

>  <BCUT_SLOGP_2>
0.39181513

>  <BCUT_SLOGP_3>
2.4363699

>  <BCUT_SMR_0>
-2.1715407

>  <BCUT_SMR_1>
-0.30409038

>  <BCUT_SMR_2>
0.58493263

>  <BCUT_SMR_3>
2.7612586

>  <bpol>
14.694863

>  <b_1rotN>
3

>  <b_1rotR>
0.33333334

>  <b_ar>
0

>  <b_count>
18

>  <b_double>
2

>  <b_heavy>
9

>  <b_max1len>
4

>  <b_rotN>
4

>  <b_rotR>
0.44444445

>  <b_single>
16

>  <b_triple>
0

>  <chi0>
8.1462641

>  <chi0v>
6.3898082

>  <chi0v_C>
3.284457

>  <chi0_C>
3.4391575

>  <chi1>
4.536581

>  <chi1v>
3.229584

>  <chi1v_C>
1.2195787

>  <chi1_C>
1.3189319

>  <chiral>
1

>  <chiral_u>
1

>  <density>
0.88439244

>  <diameter>
6

>  <FCharge>
0

>  <GCUT_PEOE_0>
-0.81606197

>  <GCUT_PEOE_1>
-0.43545324

>  <GCUT_PEOE_2>
0.10140596

>  <GCUT_PEOE_3>
2.0494955

>  <GCUT_SLOGP_0>
-1.163349

>  <GCUT_SLOGP_1>
-0.46081209

>  <GCUT_SLOGP_2>
0.03709016

>  <GCUT_SLOGP_3>
1.9785734

>  <GCUT_SMR_0>
-0.49377435

>  <GCUT_SMR_1>
-0.21898718

>  <GCUT_SMR_2>
0.19586377

>  <GCUT_SMR_3>
2.3118591

>  <Kier1>
10

>  <Kier2>
4.7603307

>  <Kier3>
5.5308642

>  <KierA1>
9.1549568

>  <KierA2>
4.3110976

>  <KierA3>
4.9646544

>  <KierFlex>
3.9467912

>  <lip_acc>
4

>  <lip_don>
2

>  <lip_druglike>
1

>  <lip_violation>
0

>  <logP(o/w)>
0.0070000002

>  <logS>
-1.07462

>  <mr>
3.9264419

>  <mutagenic>
0

>  <nmol>
1

>  <opr_brigid>
0

>  <opr_leadlike>
1

>  <opr_nring>
0

>  <opr_nrot>
3

>  <opr_violation>
0

>  <PC+>
0

>  <PC->
0

>  <PEOE_PC+>
1.4215156

>  <PEOE_PC->
-1.4215156

>  <PEOE_RPC+>
0.19626383

>  <PEOE_RPC->
0.24327923

>  <PEOE_VSA+0>
12.796158

>  <PEOE_VSA+1>
13.427169

>  <PEOE_VSA+2>
20.973423

>  <PEOE_VSA+3>
8.6190128

>  <PEOE_VSA+4>
23.273705

>  <PEOE_VSA+5>
14.708499

>  <PEOE_VSA+6>
0

>  <PEOE_VSA-0>
18.747677

>  <PEOE_VSA-1>
0

>  <PEOE_VSA-2>
0

>  <PEOE_VSA-3>
26.362989

>  <PEOE_VSA-4>
0

>  <PEOE_VSA-5>
27.133842

>  <PEOE_VSA-6>
7.9044313

>  <PEOE_VSA_FHYD>
0.58021402

>  <PEOE_VSA_FNEG>
0.4607667

>  <PEOE_VSA_FPNEG>
0.20143086

>  <PEOE_VSA_FPOL>
0.41978601

>  <PEOE_VSA_FPOS>
0.53923333

>  <PEOE_VSA_FPPOS>
0.21835515

>  <PEOE_VSA_HYD>
100.92643

>  <PEOE_VSA_NEG>
80.148941

>  <PEOE_VSA_PNEG>
35.038273

>  <PEOE_VSA_POL>
73.020477

>  <PEOE_VSA_POS>
93.797966

>  <PEOE_VSA_PPOS>
37.982204

>  <petitjean>
0.5

>  <petitjeanSC>
1

>  <Q_PC+>
0

>  <Q_PC->
0

>  <Q_RPC+>
0

>  <Q_RPC->
0

>  <Q_VSA_FHYD>
1

>  <Q_VSA_FNEG>
0

>  <Q_VSA_FPNEG>
0

>  <Q_VSA_FPOL>
0

>  <Q_VSA_FPOS>
1

>  <Q_VSA_FPPOS>
0

>  <Q_VSA_HYD>
173.9469

>  <Q_VSA_NEG>
0

>  <Q_VSA_PNEG>
0

>  <Q_VSA_POL>
0

>  <Q_VSA_POS>
173.9469

>  <Q_VSA_PPOS>
0

>  <radius>
3

>  <reactive>
1

>  <rings>
0

>  <RPC+>
0

>  <RPC->
0

>  <rsynth>
1

>  <SlogP>
-0.49450001

>  <SlogP_VSA0>
18.01075

>  <SlogP_VSA1>
13.004248

>  <SlogP_VSA2>
50.500389

>  <SlogP_VSA3>
43.824806

>  <SlogP_VSA4>
0

>  <SlogP_VSA5>
0

>  <SlogP_VSA6>
0

>  <SlogP_VSA7>
0

>  <SlogP_VSA8>
46.107109

>  <SlogP_VSA9>
33.326015

>  <SMR>
3.9094501

>  <SMR_VSA0>
47.724434

>  <SMR_VSA1>
0

>  <SMR_VSA2>
43.395977

>  <SMR_VSA3>
2.7759552

>  <SMR_VSA4>
0

>  <SMR_VSA5>
0

>  <SMR_VSA6>
31.443827

>  <SMR_VSA7>
79.433128

>  <TPSA>
105.2

>  <VAdjEq>
0.68007702

>  <VAdjMa>
4.1699252

>  <VDistEq>
2.5111432

>  <VDistMa>
6.2897353

>  <vdw_area>
173.9469

>  <vdw_vol>
184.53008

>  <vsa_acc>
13.566921

>  <vsa_acid>
0

>  <vsa_base>
0

>  <vsa_don>
5.6825762

>  <vsa_hyd>
53.892555

>  <vsa_other>
59.042542

>  <vsa_pol>
46.383339

>  <Weight>
163.19701

>  <weinerPath>
136

>  <weinerPol>
9

>  <zagreb>
40

$$$$