O=C(N1CCc2nc([nH]c2-c2c1cccc2)C)c1ccc(NC(=O)c2ccccc2-c2ccccc2)cc1
  MOE2013           2D

 38 43  0  0  0  0  0  0  0  0999 V2000
    0.0000    0.0000    0.0000 O   0  0  0  0  0  0  0  0  0  0  0  0
   -0.7510   -1.2980    0.0000 C   0  0  0  0  0  0  0  0  0  0  0  0
   -0.0020   -2.5980    0.0000 N   0  0  0  0  0  0  0  0  0  0  0  0
   -0.8480   -3.8370    0.0000 C   0  0  0  0  0  0  0  0  0  0  0  0
   -0.4070   -5.2710    0.0000 C   0  0  0  0  0  0  0  0  0  0  0  0
    0.9890   -5.8210    0.0000 C   0  0  0  0  0  0  0  0  0  0  0  0
    1.2980   -7.2880    0.0000 N   0  0  0  0  0  0  0  0  0  0  0  0
    2.7900   -7.4480    0.0000 C   0  0  0  0  0  0  0  0  0  0  0  0
    3.4020   -6.0790    0.0000 N   0  0  0  0  0  0  0  0  0  0  0  0
    2.2890   -5.0730    0.0000 C   0  0  0  0  0  0  0  0  0  0  0  0
    2.5130   -3.5890    0.0000 C   0  0  0  0  0  0  0  0  0  0  0  0
    1.4940   -2.4880    0.0000 C   0  0  0  0  0  0  0  0  0  0  0  0
    1.9370   -1.0550    0.0000 C   0  0  0  0  0  0  0  0  0  0  0  0
    3.4000   -0.7230    0.0000 C   0  0  0  0  0  0  0  0  0  0  0  0
    4.4190   -1.8240    0.0000 C   0  0  0  0  0  0  0  0  0  0  0  0
    3.9750   -3.2570    0.0000 C   0  0  0  0  0  0  0  0  0  0  0  0
    3.5370   -8.7480    0.0000 C   0  0  0  0  0  0  0  0  0  0  0  0
   -2.2510   -1.2970    0.0000 C   0  0  0  0  0  0  0  0  0  0  0  0
   -3.0020   -2.5950    0.0000 C   0  0  0  0  0  0  0  0  0  0  0  0
   -4.5020   -2.5940    0.0000 C   0  0  0  0  0  0  0  0  0  0  0  0
   -5.2510   -1.2940    0.0000 C   0  0  0  0  0  0  0  0  0  0  0  0
   -6.7510   -1.2930    0.0000 N   0  0  0  0  0  0  0  0  0  0  0  0
   -7.5000    0.0070    0.0000 C   0  0  0  0  0  0  0  0  0  0  0  0
   -6.7490    1.3050    0.0000 O   0  0  0  0  0  0  0  0  0  0  0  0
   -9.0000    0.0080    0.0000 C   0  0  0  0  0  0  0  0  0  0  0  0
   -9.7510   -1.2900    0.0000 C   0  0  0  0  0  0  0  0  0  0  0  0
  -11.2510   -1.2890    0.0000 C   0  0  0  0  0  0  0  0  0  0  0  0
  -12.0000    0.0110    0.0000 C   0  0  0  0  0  0  0  0  0  0  0  0
  -11.2490    1.3090    0.0000 C   0  0  0  0  0  0  0  0  0  0  0  0
   -9.7490    1.3080    0.0000 C   0  0  0  0  0  0  0  0  0  0  0  0
   -8.9980    2.6060    0.0000 C   0  0  0  0  0  0  0  0  0  0  0  0
   -9.7460    3.9060    0.0000 C   0  0  0  0  0  0  0  0  0  0  0  0
   -8.9950    5.2040    0.0000 C   0  0  0  0  0  0  0  0  0  0  0  0
   -7.4950    5.2030    0.0000 C   0  0  0  0  0  0  0  0  0  0  0  0
   -6.7460    3.9030    0.0000 C   0  0  0  0  0  0  0  0  0  0  0  0
   -7.4980    2.6050    0.0000 C   0  0  0  0  0  0  0  0  0  0  0  0
   -4.5000    0.0040    0.0000 C   0  0  0  0  0  0  0  0  0  0  0  0
   -3.0000    0.0030    0.0000 C   0  0  0  0  0  0  0  0  0  0  0  0
  1  2  2  0  0  0  0
  2  3  1  0  0  0  0
  2 18  1  0  0  0  0
  3  4  1  0  0  0  0
  3 12  1  0  0  0  0
  4  5  1  0  0  0  0
  5  6  1  0  0  0  0
  6  7  1  0  0  0  0
  6 10  2  0  0  0  0
  7  8  2  0  0  0  0
  8  9  1  0  0  0  0
  8 17  1  0  0  0  0
  9 10  1  0  0  0  0
 10 11  1  0  0  0  0
 11 12  1  0  0  0  0
 11 16  2  0  0  0  0
 12 13  2  0  0  0  0
 13 14  1  0  0  0  0
 14 15  2  0  0  0  0
 15 16  1  0  0  0  0
 18 19  1  0  0  0  0
 18 38  2  0  0  0  0
 19 20  2  0  0  0  0
 20 21  1  0  0  0  0
 21 22  1  0  0  0  0
 21 37  2  0  0  0  0
 22 23  1  0  0  0  0
 23 24  2  0  0  0  0
 23 25  1  0  0  0  0
 25 26  1  0  0  0  0
 25 30  2  0  0  0  0
 26 27  2  0  0  0  0
 27 28  1  0  0  0  0
 28 29  2  0  0  0  0
 29 30  1  0  0  0  0
 30 31  1  0  0  0  0
 31 32  1  0  0  0  0
 31 36  2  0  0  0  0
 32 33  2  0  0  0  0
 33 34  1  0  0  0  0
 34 35  2  0  0  0  0
 35 36  1  0  0  0  0
 37 38  1  0  0  0  0
M  END
>  <Index>
1506

>  <ID>
HT0547

>  <class>
1

>  <apol>
79.660622

>  <ast_fraglike>
0

>  <ast_fraglike_ext>
0

>  <ast_violation>
3

>  <ast_violation_ext>
4

>  <a_acc>
4

>  <a_acid>
0

>  <a_aro>
29

>  <a_base>
0

>  <a_count>
64

>  <a_don>
3

>  <a_donacc>
7

>  <a_heavy>
38

>  <a_hyd>
29

>  <a_IC>
91.788567

>  <a_ICM>
1.4341964

>  <a_nB>
0

>  <a_nBr>
0

>  <a_nC>
32

>  <a_nCl>
0

>  <a_nF>
0

>  <a_nH>
26

>  <a_nI>
0

>  <a_nN>
4

>  <a_nO>
2

>  <a_nP>
0

>  <a_nS>
0

>  <balabanJ>
1.026706

>  <BCUT_PEOE_0>
-2.4831975

>  <BCUT_PEOE_1>
-0.6426791

>  <BCUT_PEOE_2>
0.6894998

>  <BCUT_PEOE_3>
2.513763

>  <BCUT_SLOGP_0>
-2.581305

>  <BCUT_SLOGP_1>
-0.53807992

>  <BCUT_SLOGP_2>
0.76643211

>  <BCUT_SLOGP_3>
2.5342638

>  <BCUT_SMR_0>
-2.1994867

>  <BCUT_SMR_1>
-0.47302523

>  <BCUT_SMR_2>
0.85431087

>  <BCUT_SMR_3>
2.8111401

>  <bpol>
34.959381

>  <b_1rotN>
5

>  <b_1rotR>
0.11627907

>  <b_ar>
29

>  <b_count>
69

>  <b_double>
2

>  <b_heavy>
43

>  <b_max1len>
2

>  <b_rotN>
6

>  <b_rotR>
0.13953489

>  <b_single>
38

>  <b_triple>
0

>  <chi0>
26.061903

>  <chi0v>
20.940092

>  <chi0v_C>
18.229168

>  <chi0_C>
21.363232

>  <chi1>
18.580521

>  <chi1v>
12.609208

>  <chi1v_C>
9.9903049

>  <chi1_C>
13.901415

>  <chiral>
0

>  <chiral_u>
0

>  <density>
0.7144931

>  <diameter>
19

>  <FCharge>
0

>  <GCUT_PEOE_0>
-0.83677727

>  <GCUT_PEOE_1>
-0.38881707

>  <GCUT_PEOE_2>
0.079732276

>  <GCUT_PEOE_3>
2.7601271

>  <GCUT_SLOGP_0>
-0.99367058

>  <GCUT_SLOGP_1>
-0.26386139

>  <GCUT_SLOGP_2>
0.16445385

>  <GCUT_SLOGP_3>
2.8568945

>  <GCUT_SMR_0>
-0.49978259

>  <GCUT_SMR_1>
-0.21605732

>  <GCUT_SMR_2>
0.19305076

>  <GCUT_SMR_3>
3.0653234

>  <Kier1>
28.135208

>  <Kier2>
12.886858

>  <Kier3>
6.2782006

>  <KierA1>
18.634314

>  <KierA2>
8.4317665

>  <KierA3>
4.0728688

>  <KierFlex>
4.1347418

>  <lip_acc>
6

>  <lip_don>
2

>  <lip_druglike>
1

>  <lip_violation>
1

>  <logP(o/w)>
5.8210001

>  <logS>
-8.9737301

>  <mr>
14.896384

>  <mutagenic>
0

>  <nmol>
1

>  <opr_brigid>
34

>  <opr_leadlike>
0

>  <opr_nring>
6

>  <opr_nrot>
4

>  <opr_violation>
3

>  <PC+>
0

>  <PC->
0

>  <PEOE_PC+>
2.6668944

>  <PEOE_PC->
-2.6668944

>  <PEOE_RPC+>
0.097085863

>  <PEOE_RPC->
0.12815551

>  <PEOE_VSA+0>
65.076508

>  <PEOE_VSA+1>
92.610214

>  <PEOE_VSA+2>
11.190562

>  <PEOE_VSA+3>
17.238026

>  <PEOE_VSA+4>
0

>  <PEOE_VSA+5>
25.899061

>  <PEOE_VSA+6>
0

>  <PEOE_VSA-0>
96.694183

>  <PEOE_VSA-1>
134.80394

>  <PEOE_VSA-2>
0

>  <PEOE_VSA-3>
0

>  <PEOE_VSA-4>
5.6825762

>  <PEOE_VSA-5>
27.133842

>  <PEOE_VSA-6>
0.27378201

>  <PEOE_VSA_FHYD>
0.8762297

>  <PEOE_VSA_FNEG>
0.55515492

>  <PEOE_VSA_FPNEG>
0.069429316

>  <PEOE_VSA_FPOL>
0.1237703

>  <PEOE_VSA_FPOS>
0.44484511

>  <PEOE_VSA_FPPOS>
0.054340988

>  <PEOE_VSA_HYD>
417.61343

>  <PEOE_VSA_NEG>
264.58832

>  <PEOE_VSA_PNEG>
33.090199

>  <PEOE_VSA_POL>
58.989262

>  <PEOE_VSA_POS>
212.01437

>  <PEOE_VSA_PPOS>
25.899061

>  <petitjean>
0.47368422

>  <petitjeanSC>
0.89999998

>  <Q_PC+>
0

>  <Q_PC->
0

>  <Q_RPC+>
0

>  <Q_RPC->
0

>  <Q_VSA_FHYD>
1

>  <Q_VSA_FNEG>
0

>  <Q_VSA_FPNEG>
0

>  <Q_VSA_FPOL>
0

>  <Q_VSA_FPOS>
1

>  <Q_VSA_FPPOS>
0

>  <Q_VSA_HYD>
476.60269

>  <Q_VSA_NEG>
0

>  <Q_VSA_PNEG>
0

>  <Q_VSA_POL>
0

>  <Q_VSA_POS>
476.60269

>  <Q_VSA_PPOS>
0

>  <radius>
10

>  <reactive>
0

>  <rings>
6

>  <RPC+>
0

>  <RPC->
0

>  <rsynth>
1

>  <SlogP>
6.5072899

>  <SlogP_VSA0>
3.1243138

>  <SlogP_VSA1>
45.313847

>  <SlogP_VSA2>
16.78553

>  <SlogP_VSA3>
18.439579

>  <SlogP_VSA4>
59.180252

>  <SlogP_VSA5>
18.868406

>  <SlogP_VSA6>
0

>  <SlogP_VSA7>
312.24762

>  <SlogP_VSA8>
0

>  <SlogP_VSA9>
38.839512

>  <SMR>
15.04144

>  <SMR_VSA0>
47.724434

>  <SMR_VSA1>
16.78553

>  <SMR_VSA2>
19.909843

>  <SMR_VSA3>
11.455817

>  <SMR_VSA4>
35.837719

>  <SMR_VSA5>
318.80255

>  <SMR_VSA6>
28.957146

>  <SMR_VSA7>
33.326015

>  <TPSA>
78.089996

>  <VAdjEq>
0.325683

>  <VAdjMa>
6.4262648

>  <VDistEq>
3.9878411

>  <VDistMa>
10.178023

>  <vdw_area>
476.60269

>  <vdw_vol>
697.81781

>  <vsa_acc>
27.133842

>  <vsa_acid>
0

>  <vsa_base>
0

>  <vsa_don>
5.6825762

>  <vsa_hyd>
372.10178

>  <vsa_other>
37.089626

>  <vsa_pol>
44.181568

>  <Weight>
498.586

>  <weinerPath>
5138

>  <weinerPol>
68

>  <zagreb>
208

$$$$