Clc1cc2NC(NS(=O)(=O)c2cc1S(=O)(=O)N)C(C(CC)C)C
  MOE2013           2D

 23 24  0  0  1  0  0  0  0  0999 V2000
    0.0000    0.0000    0.0000 Cl  0  0  0  0  0  0  0  0  0  0  0  0
    1.2980   -0.7510    0.0000 C   0  0  0  0  0  0  0  0  0  0  0  0
    2.5980   -0.0020    0.0000 C   0  0  0  0  0  0  0  0  0  0  0  0
    3.8970   -0.7530    0.0000 C   0  0  0  0  0  0  0  0  0  0  0  0
    5.1960   -0.0040    0.0000 N   0  0  0  0  0  0  0  0  0  0  0  0
    6.4950   -0.7550    0.0000 C   0  0  3  0  0  0  0  0  0  0  0  0
    6.4930   -2.2550    0.0000 N   0  0  0  0  0  0  0  0  0  0  0  0
    5.1940   -3.0040    0.0000 S   0  0  0  0  0  0  0  0  0  0  0  0
    5.9430   -4.3040    0.0000 O   0  0  0  0  0  0  0  0  0  0  0  0
    4.4430   -4.3020    0.0000 O   0  0  0  0  0  0  0  0  0  0  0  0
    3.8950   -2.2530    0.0000 C   0  0  0  0  0  0  0  0  0  0  0  0
    2.5960   -3.0020    0.0000 C   0  0  0  0  0  0  0  0  0  0  0  0
    1.2970   -2.2510    0.0000 C   0  0  0  0  0  0  0  0  0  0  0  0
   -0.0020   -3.0000    0.0000 S   0  0  0  0  0  0  0  0  0  0  0  0
    0.7470   -4.3000    0.0000 O   0  0  0  0  0  0  0  0  0  0  0  0
   -0.7510   -1.7000    0.0000 O   0  0  0  0  0  0  0  0  0  0  0  0
   -1.3020   -3.7490    0.0000 N   0  0  0  0  0  0  0  0  0  0  0  0
    7.7940   -0.0060    0.0000 C   0  0  3  0  0  0  0  0  0  0  0  0
    9.0930   -0.7570    0.0000 C   0  0  3  0  0  0  0  0  0  0  0  0
   10.3920   -0.0080    0.0000 C   0  0  0  0  0  0  0  0  0  0  0  0
   11.6910   -0.7590    0.0000 C   0  0  0  0  0  0  0  0  0  0  0  0
    9.0920   -2.2570    0.0000 C   0  0  0  0  0  0  0  0  0  0  0  0
    7.7950    1.4940    0.0000 C   0  0  0  0  0  0  0  0  0  0  0  0
  1  2  1  0  0  0  0
  2  3  1  0  0  0  0
  2 13  2  0  0  0  0
  3  4  2  0  0  0  0
  4  5  1  0  0  0  0
  4 11  1  0  0  0  0
  5  6  1  0  0  0  0
  6  7  1  0  0  0  0
  6 18  1  0  0  0  0
  7  8  1  0  0  0  0
  8  9  2  0  0  0  0
  8 10  2  0  0  0  0
  8 11  1  0  0  0  0
 11 12  2  0  0  0  0
 12 13  1  0  0  0  0
 13 14  1  0  0  0  0
 14 15  2  0  0  0  0
 14 16  2  0  0  0  0
 14 17  1  0  0  0  0
 18 19  1  0  0  0  0
 18 23  1  0  0  0  0
 19 20  1  0  0  0  0
 19 22  1  0  0  0  0
 20 21  1  0  0  0  0
M  END
>  <Index>
1630

>  <ID>
HT1279

>  <class>
1

>  <apol>
50.703861

>  <ast_fraglike>
0

>  <ast_fraglike_ext>
0

>  <ast_violation>
2

>  <ast_violation_ext>
4

>  <a_acc>
4

>  <a_acid>
0

>  <a_aro>
6

>  <a_base>
0

>  <a_count>
43

>  <a_don>
3

>  <a_donacc>
7

>  <a_heavy>
23

>  <a_hyd>
13

>  <a_IC>
84.03022

>  <a_ICM>
1.9541911

>  <a_nB>
0

>  <a_nBr>
0

>  <a_nC>
13

>  <a_nCl>
1

>  <a_nF>
0

>  <a_nH>
20

>  <a_nI>
0

>  <a_nN>
3

>  <a_nO>
4

>  <a_nP>
0

>  <a_nS>
2

>  <balabanJ>
2.1721668

>  <BCUT_PEOE_0>
-2.782136

>  <BCUT_PEOE_1>
-0.41216266

>  <BCUT_PEOE_2>
0.45989612

>  <BCUT_PEOE_3>
2.7140939

>  <BCUT_SLOGP_0>
-2.8390591

>  <BCUT_SLOGP_1>
-0.3472369

>  <BCUT_SLOGP_2>
0.52622241

>  <BCUT_SLOGP_3>
2.7692428

>  <BCUT_SMR_0>
-2.5072997

>  <BCUT_SMR_1>
-0.30367863

>  <BCUT_SMR_2>
0.57998651

>  <BCUT_SMR_3>
3.0007677

>  <bpol>
35.896141

>  <b_1rotN>
4

>  <b_1rotR>
0.16666667

>  <b_ar>
6

>  <b_count>
44

>  <b_double>
0

>  <b_heavy>
24

>  <b_max1len>
6

>  <b_rotN>
4

>  <b_rotR>
0.16666667

>  <b_single>
38

>  <b_triple>
0

>  <chi0>
17.576986

>  <chi0v>
15.387585

>  <chi0v_C>
8.5938578

>  <chi0_C>
9.1627722

>  <chi1>
10.469381

>  <chi1v>
10.529943

>  <chi1v_C>
4.591423

>  <chi1_C>
5.236382

>  <chiral>
3

>  <chiral_u>
3

>  <density>
0.89547479

>  <diameter>
11

>  <FCharge>
0

>  <GCUT_PEOE_0>
-0.88803947

>  <GCUT_PEOE_1>
-0.39675659

>  <GCUT_PEOE_2>
0.011228701

>  <GCUT_PEOE_3>
2.7859962

>  <GCUT_SLOGP_0>
-1.3482877

>  <GCUT_SLOGP_1>
-0.37290692

>  <GCUT_SLOGP_2>
0.10079119

>  <GCUT_SLOGP_3>
2.817873

>  <GCUT_SMR_0>
-0.5354684

>  <GCUT_SMR_1>
-0.17024724

>  <GCUT_SMR_2>
0.13818024

>  <GCUT_SMR_3>
3.046273

>  <Kier1>
19.326389

>  <Kier2>
6.7188368

>  <Kier3>
3.9837031

>  <KierA1>
20.670271

>  <KierA2>
7.2084746

>  <KierA3>
4.2840767

>  <KierFlex>
6.4783096

>  <lip_acc>
7

>  <lip_don>
4

>  <lip_druglike>
1

>  <lip_violation>
0

>  <logP(o/w)>
2.1389999

>  <logS>
-4.2862

>  <mr>
9.043787

>  <mutagenic>
0

>  <nmol>
1

>  <opr_brigid>
11

>  <opr_leadlike>
1

>  <opr_nring>
2

>  <opr_nrot>
4

>  <opr_violation>
0

>  <PC+>
0

>  <PC->
0

>  <PEOE_PC+>
1.8426445

>  <PEOE_PC->
-1.8426445

>  <PEOE_RPC+>
0.16809985

>  <PEOE_RPC->
0.20782883

>  <PEOE_VSA+0>
101.39556

>  <PEOE_VSA+1>
17.149784

>  <PEOE_VSA+2>
26.880259

>  <PEOE_VSA+3>
0

>  <PEOE_VSA+4>
0

>  <PEOE_VSA+5>
0

>  <PEOE_VSA+6>
8.3692026

>  <PEOE_VSA-0>
20.873917

>  <PEOE_VSA-1>
94.526291

>  <PEOE_VSA-2>
34.546043

>  <PEOE_VSA-3>
9.0437498

>  <PEOE_VSA-4>
32.016521

>  <PEOE_VSA-5>
0

>  <PEOE_VSA-6>
0.13689101

>  <PEOE_VSA_FHYD>
0.88252211

>  <PEOE_VSA_FNEG>
0.55413812

>  <PEOE_VSA_FPNEG>
0.093214996

>  <PEOE_VSA_FPOL>
0.11747789

>  <PEOE_VSA_FPOS>
0.44586188

>  <PEOE_VSA_FPPOS>
0.024262903

>  <PEOE_VSA_HYD>
304.41562

>  <PEOE_VSA_NEG>
191.14342

>  <PEOE_VSA_PNEG>
32.153416

>  <PEOE_VSA_POL>
40.522617

>  <PEOE_VSA_POS>
153.79482

>  <PEOE_VSA_PPOS>
8.3692026

>  <petitjean>
0.45454547

>  <petitjeanSC>
0.83333331

>  <Q_PC+>
0

>  <Q_PC->
0

>  <Q_RPC+>
0

>  <Q_RPC->
0

>  <Q_VSA_FHYD>
1

>  <Q_VSA_FNEG>
0

>  <Q_VSA_FPNEG>
0

>  <Q_VSA_FPOL>
0

>  <Q_VSA_FPOS>
1

>  <Q_VSA_FPPOS>
0

>  <Q_VSA_HYD>
344.93823

>  <Q_VSA_NEG>
0

>  <Q_VSA_PNEG>
0

>  <Q_VSA_POL>
0

>  <Q_VSA_POS>
344.93823

>  <Q_VSA_PPOS>
0

>  <radius>
6

>  <reactive>
0

>  <rings>
2

>  <RPC+>
0

>  <RPC->
0

>  <rsynth>
0.69565219

>  <SlogP>
1.6995

>  <SlogP_VSA0>
47.69643

>  <SlogP_VSA1>
114.35413

>  <SlogP_VSA2>
16.834627

>  <SlogP_VSA3>
0

>  <SlogP_VSA4>
8.8215923

>  <SlogP_VSA5>
3.1014678

>  <SlogP_VSA6>
3.5006065

>  <SlogP_VSA7>
35.286369

>  <SlogP_VSA8>
18.868406

>  <SlogP_VSA9>
141.88344

>  <SMR>
8.9176397

>  <SMR_VSA0>
96.343376

>  <SMR_VSA1>
0

>  <SMR_VSA2>
28.328058

>  <SMR_VSA3>
7.0537477

>  <SMR_VSA4>
52.058933

>  <SMR_VSA5>
54.154774

>  <SMR_VSA6>
0

>  <SMR_VSA7>
152.40817

>  <TPSA>
118.36

>  <VAdjEq>
0.43892586

>  <VAdjMa>
5.5849624

>  <VDistEq>
3.1808984

>  <VDistMa>
8.7668238

>  <vdw_area>
344.93823

>  <vdw_vol>
426.48325

>  <vsa_acc>
64.033043

>  <vsa_acid>
0

>  <vsa_base>
0

>  <vsa_don>
33.892902

>  <vsa_hyd>
189.23836

>  <vsa_other>
31.401779

>  <vsa_pol>
97.925949

>  <Weight>
381.905

>  <weinerPath>
1124

>  <weinerPol>
41

>  <zagreb>
124

$$$$