FC(F)(F)c1ccc(OC(CCNC)c2ccccc2)cc1
  MOE2013           2D

 22 23  0  0  1  0  0  0  0  0999 V2000
    0.0000    0.0000    0.0000 F   0  0  0  0  0  0  0  0  0  0  0  0
    0.3840    1.4500    0.0000 C   0  0  0  0  0  0  0  0  0  0  0  0
   -1.0650    1.8340    0.0000 F   0  0  0  0  0  0  0  0  0  0  0  0
    0.7690    2.9000    0.0000 F   0  0  0  0  0  0  0  0  0  0  0  0
    1.8340    1.0650    0.0000 C   0  0  0  0  0  0  0  0  0  0  0  0
    2.8920    2.1290    0.0000 C   0  0  0  0  0  0  0  0  0  0  0  0
    4.3420    1.7440    0.0000 C   0  0  0  0  0  0  0  0  0  0  0  0
    4.7340    0.2960    0.0000 C   0  0  0  0  0  0  0  0  0  0  0  0
    6.1840   -0.0880    0.0000 O   0  0  0  0  0  0  0  0  0  0  0  0
    7.2420    0.9750    0.0000 C   0  0  3  0  0  0  0  0  0  0  0  0
    6.8500    2.4230    0.0000 C   0  0  0  0  0  0  0  0  0  0  0  0
    7.9080    3.4870    0.0000 C   0  0  0  0  0  0  0  0  0  0  0  0
    7.5160    4.9350    0.0000 N   0  0  0  0  0  0  0  0  0  0  0  0
    8.5740    5.9980    0.0000 C   0  0  0  0  0  0  0  0  0  0  0  0
    8.6920    0.5910    0.0000 C   0  0  0  0  0  0  0  0  0  0  0  0
    9.7500    1.6540    0.0000 C   0  0  0  0  0  0  0  0  0  0  0  0
   11.2000    1.2700    0.0000 C   0  0  0  0  0  0  0  0  0  0  0  0
   11.5920   -0.1780    0.0000 C   0  0  0  0  0  0  0  0  0  0  0  0
   10.5340   -1.2410    0.0000 C   0  0  0  0  0  0  0  0  0  0  0  0
    9.0840   -0.8570    0.0000 C   0  0  0  0  0  0  0  0  0  0  0  0
    3.6760   -0.7670    0.0000 C   0  0  0  0  0  0  0  0  0  0  0  0
    2.2260   -0.3820    0.0000 C   0  0  0  0  0  0  0  0  0  0  0  0
  1  2  1  0  0  0  0
  2  3  1  0  0  0  0
  2  4  1  0  0  0  0
  2  5  1  0  0  0  0
  5  6  1  0  0  0  0
  5 22  2  0  0  0  0
  6  7  2  0  0  0  0
  7  8  1  0  0  0  0
  8  9  1  0  0  0  0
  8 21  2  0  0  0  0
  9 10  1  0  0  0  0
 10 11  1  0  0  0  0
 10 15  1  0  0  0  0
 11 12  1  0  0  0  0
 12 13  1  0  0  0  0
 13 14  1  0  0  0  0
 15 16  1  0  0  0  0
 15 20  2  0  0  0  0
 16 17  2  0  0  0  0
 17 18  1  0  0  0  0
 18 19  2  0  0  0  0
 19 20  1  0  0  0  0
 21 22  1  0  0  0  0
M  END
>  <Index>
1572

>  <ID>
HT0910

>  <class>
1

>  <apol>
45.495274

>  <ast_fraglike>
0

>  <ast_fraglike_ext>
0

>  <ast_violation>
2

>  <ast_violation_ext>
3

>  <a_acc>
2

>  <a_acid>
0

>  <a_aro>
12

>  <a_base>
0

>  <a_count>
40

>  <a_don>
1

>  <a_donacc>
3

>  <a_heavy>
22

>  <a_hyd>
20

>  <a_IC>
63.576717

>  <a_ICM>
1.5894179

>  <a_nB>
0

>  <a_nBr>
0

>  <a_nC>
17

>  <a_nCl>
0

>  <a_nF>
3

>  <a_nH>
18

>  <a_nI>
0

>  <a_nN>
1

>  <a_nO>
1

>  <a_nP>
0

>  <a_nS>
0

>  <balabanJ>
1.828146

>  <BCUT_PEOE_0>
-2.5973706

>  <BCUT_PEOE_1>
-0.64152062

>  <BCUT_PEOE_2>
0.68524039

>  <BCUT_PEOE_3>
2.55426

>  <BCUT_SLOGP_0>
-2.6832395

>  <BCUT_SLOGP_1>
-0.53807992

>  <BCUT_SLOGP_2>
0.6948753

>  <BCUT_SLOGP_3>
2.6236069

>  <BCUT_SMR_0>
-2.3365104

>  <BCUT_SMR_1>
-0.49986199

>  <BCUT_SMR_2>
0.80878991

>  <BCUT_SMR_3>
2.8064325

>  <bpol>
25.862726

>  <b_1rotN>
6

>  <b_1rotR>
0.26086956

>  <b_ar>
12

>  <b_count>
41

>  <b_double>
0

>  <b_heavy>
23

>  <b_max1len>
6

>  <b_rotN>
7

>  <b_rotR>
0.30434781

>  <b_single>
29

>  <b_triple>
0

>  <chi0>
16.001789

>  <chi0v>
12.229858

>  <chi0v_C>
10.187716

>  <chi0_C>
11.587576

>  <chi1>
10.50335

>  <chi1v>
7.0393009

>  <chi1v_C>
5.1789742

>  <chi1_C>
6.9797463

>  <chiral>
1

>  <chiral_u>
1

>  <density>
0.76878214

>  <diameter>
11

>  <FCharge>
0

>  <GCUT_PEOE_0>
-0.85376763

>  <GCUT_PEOE_1>
-0.3816469

>  <GCUT_PEOE_2>
0.079471156

>  <GCUT_PEOE_3>
2.532371

>  <GCUT_SLOGP_0>
-1.1525521

>  <GCUT_SLOGP_1>
-0.26386139

>  <GCUT_SLOGP_2>
0.19814764

>  <GCUT_SLOGP_3>
2.6578126

>  <GCUT_SMR_0>
-0.51753175

>  <GCUT_SMR_1>
-0.21605732

>  <GCUT_SMR_2>
0.19305076

>  <GCUT_SMR_3>
2.7928607

>  <Kier1>
18.340265

>  <Kier2>
8.7408953

>  <Kier3>
5.8641977

>  <KierA1>
14.214485

>  <KierA2>
6.6862388

>  <KierA3>
4.443181

>  <KierFlex>
4.3200655

>  <lip_acc>
2

>  <lip_don>
1

>  <lip_druglike>
1

>  <lip_violation>
0

>  <logP(o/w)>
4.7567601

>  <logS>
-4.2284198

>  <mr>
8.2034378

>  <mutagenic>
0

>  <nmol>
1

>  <opr_brigid>
12

>  <opr_leadlike>
1

>  <opr_nring>
2

>  <opr_nrot>
6

>  <opr_violation>
1

>  <PC+>
0

>  <PC->
0

>  <PEOE_PC+>
1.6530278

>  <PEOE_PC->
-1.6530278

>  <PEOE_RPC+>
0.25252023

>  <PEOE_RPC->
0.20377158

>  <PEOE_VSA+0>
29.857702

>  <PEOE_VSA+1>
58.225849

>  <PEOE_VSA+2>
8.6190128

>  <PEOE_VSA+3>
0

>  <PEOE_VSA+4>
0

>  <PEOE_VSA+5>
0

>  <PEOE_VSA+6>
9.0455017

>  <PEOE_VSA-0>
96.360481

>  <PEOE_VSA-1>
61.274521

>  <PEOE_VSA-2>
0

>  <PEOE_VSA-3>
35.725906

>  <PEOE_VSA-4>
0

>  <PEOE_VSA-5>
0

>  <PEOE_VSA-6>
2.6406472

>  <PEOE_VSA_FHYD>
0.96127206

>  <PEOE_VSA_FNEG>
0.64955032

>  <PEOE_VSA_FPNEG>
0.0087511195

>  <PEOE_VSA_FPOL>
0.038727965

>  <PEOE_VSA_FPOS>
0.35044971

>  <PEOE_VSA_FPPOS>
0.029976847

>  <PEOE_VSA_HYD>
290.06348

>  <PEOE_VSA_NEG>
196.00156

>  <PEOE_VSA_PNEG>
2.6406472

>  <PEOE_VSA_POL>
11.68615

>  <PEOE_VSA_POS>
105.74806

>  <PEOE_VSA_PPOS>
9.0455017

>  <petitjean>
0.45454547

>  <petitjeanSC>
0.83333331

>  <Q_PC+>
0

>  <Q_PC->
0

>  <Q_RPC+>
0

>  <Q_RPC->
0

>  <Q_VSA_FHYD>
1

>  <Q_VSA_FNEG>
0

>  <Q_VSA_FPNEG>
0

>  <Q_VSA_FPOL>
0

>  <Q_VSA_FPOS>
1

>  <Q_VSA_FPPOS>
0

>  <Q_VSA_HYD>
301.74963

>  <Q_VSA_NEG>
0

>  <Q_VSA_PNEG>
0

>  <Q_VSA_POL>
0

>  <Q_VSA_POS>
301.74963

>  <Q_VSA_PPOS>
0

>  <radius>
6

>  <reactive>
0

>  <rings>
2

>  <RPC+>
0

>  <RPC->
0

>  <rsynth>
1

>  <SlogP>
4.842

>  <SlogP_VSA0>
29.010639

>  <SlogP_VSA1>
0

>  <SlogP_VSA2>
0

>  <SlogP_VSA3>
18.439579

>  <SlogP_VSA4>
6.37115

>  <SlogP_VSA5>
32.897186

>  <SlogP_VSA6>
7.7595162

>  <SlogP_VSA7>
158.78867

>  <SlogP_VSA8>
25.337055

>  <SlogP_VSA9>
50.123768

>  <SMR>
8.0026703

>  <SMR_VSA0>
0

>  <SMR_VSA1>
55.880226

>  <SMR_VSA2>
25.770267

>  <SMR_VSA3>
18.083227

>  <SMR_VSA4>
0

>  <SMR_VSA5>
177.65706

>  <SMR_VSA6>
18.439579

>  <SMR_VSA7>
32.897186

>  <TPSA>
21.26

>  <VAdjEq>
0.4530769

>  <VAdjMa>
5.523562

>  <VDistEq>
3.3491058

>  <VDistMa>
8.6178093

>  <vdw_area>
301.74963

>  <vdw_vol>
402.36496

>  <vsa_acc>
2.503756

>  <vsa_acid>
0

>  <vsa_base>
0

>  <vsa_don>
0

>  <vsa_hyd>
278.38943

>  <vsa_other>
0

>  <vsa_pol>
8.1863317

>  <Weight>
309.33099

>  <weinerPath>
1148

>  <weinerPol>
30

>  <zagreb>
108

$$$$