Clc1ccc(cc1S(=O)(=O)N)C1(O)NC(=O)c2c1cccc2
  MOE2013           2D

 22 24  0  0  1  0  0  0  0  0999 V2000
    0.0000    0.0000    0.0000 Cl  0  0  0  0  0  0  0  0  0  0  0  0
    1.5000   -0.0010    0.0000 C   0  0  0  0  0  0  0  0  0  0  0  0
    2.2490   -1.3000    0.0000 C   0  0  0  0  0  0  0  0  0  0  0  0
    3.7490   -1.3010    0.0000 C   0  0  0  0  0  0  0  0  0  0  0  0
    4.5000   -0.0020    0.0000 C   0  0  0  0  0  0  0  0  0  0  0  0
    3.7510    1.2970    0.0000 C   0  0  0  0  0  0  0  0  0  0  0  0
    2.2510    1.2980    0.0000 C   0  0  0  0  0  0  0  0  0  0  0  0
    1.5010    2.5970    0.0000 S   0  0  0  0  0  0  0  0  0  0  0  0
    2.8010    3.3470    0.0000 O   0  0  0  0  0  0  0  0  0  0  0  0
    0.2020    1.8480    0.0000 O   0  0  0  0  0  0  0  0  0  0  0  0
    0.7520    3.8970    0.0000 N   0  0  0  0  0  0  0  0  0  0  0  0
    6.0000   -0.0030    0.0000 C   0  0  3  0  0  0  0  0  0  0  0  0
    5.2950   -1.3270    0.0000 O   0  0  0  0  0  0  0  0  0  0  0  0
    6.0790    1.4950    0.0000 N   0  0  0  0  0  0  0  0  0  0  0  0
    7.5280    1.8830    0.0000 C   0  0  0  0  0  0  0  0  0  0  0  0
    8.0660    3.2830    0.0000 O   0  0  0  0  0  0  0  0  0  0  0  0
    8.3450    0.6240    0.0000 C   0  0  0  0  0  0  0  0  0  0  0  0
    7.4000   -0.5410    0.0000 C   0  0  0  0  0  0  0  0  0  0  0  0
    7.9370   -1.9410    0.0000 C   0  0  0  0  0  0  0  0  0  0  0  0
    9.4180   -2.1770    0.0000 C   0  0  0  0  0  0  0  0  0  0  0  0
   10.3630   -1.0110    0.0000 C   0  0  0  0  0  0  0  0  0  0  0  0
    9.8260    0.3890    0.0000 C   0  0  0  0  0  0  0  0  0  0  0  0
  1  2  1  0  0  0  0
  2  3  1  0  0  0  0
  2  7  2  0  0  0  0
  3  4  2  0  0  0  0
  4  5  1  0  0  0  0
  5  6  2  0  0  0  0
  5 12  1  0  0  0  0
  6  7  1  0  0  0  0
  7  8  1  0  0  0  0
  8  9  2  0  0  0  0
  8 10  2  0  0  0  0
  8 11  1  0  0  0  0
 12 13  1  0  0  0  0
 12 14  1  0  0  0  0
 12 18  1  0  0  0  0
 14 15  1  0  0  0  0
 15 16  2  0  0  0  0
 15 17  1  0  0  0  0
 17 18  1  0  0  0  0
 17 22  2  0  0  0  0
 18 19  2  0  0  0  0
 19 20  1  0  0  0  0
 20 21  2  0  0  0  0
 21 22  1  0  0  0  0
M  END
>  <Index>
1493

>  <ID>
HT0472

>  <class>
1

>  <apol>
42.462723

>  <ast_fraglike>
0

>  <ast_fraglike_ext>
0

>  <ast_violation>
2

>  <ast_violation_ext>
3

>  <a_acc>
4

>  <a_acid>
0

>  <a_aro>
12

>  <a_base>
0

>  <a_count>
33

>  <a_don>
3

>  <a_donacc>
7

>  <a_heavy>
22

>  <a_hyd>
13

>  <a_IC>
65.108292

>  <a_ICM>
1.9729785

>  <a_nB>
0

>  <a_nBr>
0

>  <a_nC>
14

>  <a_nCl>
1

>  <a_nF>
0

>  <a_nH>
11

>  <a_nI>
0

>  <a_nN>
2

>  <a_nO>
4

>  <a_nP>
0

>  <a_nS>
1

>  <balabanJ>
1.8113339

>  <BCUT_PEOE_0>
-2.4020433

>  <BCUT_PEOE_1>
-0.62733978

>  <BCUT_PEOE_2>
0.68491942

>  <BCUT_PEOE_3>
2.5343566

>  <BCUT_SLOGP_0>
-2.5738719

>  <BCUT_SLOGP_1>
-0.51945269

>  <BCUT_SLOGP_2>
0.75203294

>  <BCUT_SLOGP_3>
2.5441854

>  <BCUT_SMR_0>
-2.124728

>  <BCUT_SMR_1>
-0.44348717

>  <BCUT_SMR_2>
0.88041675

>  <BCUT_SMR_3>
2.8127792

>  <bpol>
19.879276

>  <b_1rotN>
2

>  <b_1rotR>
0.083333336

>  <b_ar>
12

>  <b_count>
35

>  <b_double>
1

>  <b_heavy>
24

>  <b_max1len>
3

>  <b_rotN>
2

>  <b_rotR>
0.083333336

>  <b_single>
22

>  <b_triple>
0

>  <chi0>
16.120956

>  <chi0v>
12.649399

>  <chi0v_C>
7.5414519

>  <chi0_C>
8.9138489

>  <chi1>
10.232018

>  <chi1v>
8.1295414

>  <chi1v_C>
4.3153839

>  <chi1_C>
6.0268402

>  <chiral>
1

>  <chiral_u>
1

>  <density>
0.90562719

>  <diameter>
9

>  <FCharge>
0

>  <GCUT_PEOE_0>
-0.79598868

>  <GCUT_PEOE_1>
-0.43486726

>  <GCUT_PEOE_2>
0.10421884

>  <GCUT_PEOE_3>
2.5725136

>  <GCUT_SLOGP_0>
-1.3482827

>  <GCUT_SLOGP_1>
-0.43242508

>  <GCUT_SLOGP_2>
0.17537935

>  <GCUT_SLOGP_3>
2.6207819

>  <GCUT_SMR_0>
-0.49478158

>  <GCUT_SMR_1>
-0.19670351

>  <GCUT_SMR_2>
0.28220922

>  <GCUT_SMR_3>
2.8501291

>  <Kier1>
16.84375

>  <Kier2>
5.8171744

>  <Kier3>
2.9219532

>  <KierA1>
14.424356

>  <KierA2>
4.9426818

>  <KierA3>
2.4686098

>  <KierFlex>
3.2406816

>  <lip_acc>
6

>  <lip_don>
4

>  <lip_druglike>
1

>  <lip_violation>
0

>  <logP(o/w)>
1.973

>  <logS>
-4.23563

>  <mr>
8.2048063

>  <mutagenic>
0

>  <nmol>
1

>  <opr_brigid>
16

>  <opr_leadlike>
1

>  <opr_nring>
3

>  <opr_nrot>
2

>  <opr_violation>
0

>  <PC+>
0

>  <PC->
0

>  <PEOE_PC+>
1.9933392

>  <PEOE_PC->
-1.9933392

>  <PEOE_RPC+>
0.15072693

>  <PEOE_RPC->
0.18173726

>  <PEOE_VSA+0>
33.969254

>  <PEOE_VSA+1>
42.112606

>  <PEOE_VSA+2>
4.5197463

>  <PEOE_VSA+3>
8.6190128

>  <PEOE_VSA+4>
10.324173

>  <PEOE_VSA+5>
12.949531

>  <PEOE_VSA+6>
4.1846013

>  <PEOE_VSA-0>
24.509808

>  <PEOE_VSA-1>
78.601562

>  <PEOE_VSA-2>
0

>  <PEOE_VSA-3>
9.0437498

>  <PEOE_VSA-4>
32.016521

>  <PEOE_VSA-5>
13.566921

>  <PEOE_VSA-6>
7.9044313

>  <PEOE_VSA_FHYD>
0.71328413

>  <PEOE_VSA_FNEG>
0.58671671

>  <PEOE_VSA_FPNEG>
0.18945704

>  <PEOE_VSA_FPOL>
0.28671589

>  <PEOE_VSA_FPOS>
0.41328326

>  <PEOE_VSA_FPPOS>
0.097258851

>  <PEOE_VSA_HYD>
201.37573

>  <PEOE_VSA_NEG>
165.64299

>  <PEOE_VSA_PNEG>
53.487877

>  <PEOE_VSA_POL>
80.946182

>  <PEOE_VSA_POS>
116.67892

>  <PEOE_VSA_PPOS>
27.458305

>  <petitjean>
0.44444445

>  <petitjeanSC>
0.80000001

>  <Q_PC+>
0

>  <Q_PC->
0

>  <Q_RPC+>
0

>  <Q_RPC->
0

>  <Q_VSA_FHYD>
1

>  <Q_VSA_FNEG>
0

>  <Q_VSA_FPNEG>
0

>  <Q_VSA_FPOL>
0

>  <Q_VSA_FPOS>
1

>  <Q_VSA_FPPOS>
0

>  <Q_VSA_HYD>
282.32193

>  <Q_VSA_NEG>
0

>  <Q_VSA_PNEG>
0

>  <Q_VSA_POL>
0

>  <Q_VSA_POS>
282.32193

>  <Q_VSA_PPOS>
0

>  <radius>
5

>  <reactive>
0

>  <rings>
3

>  <RPC+>
0

>  <RPC->
0

>  <rsynth>
1

>  <SlogP>
1.2357

>  <SlogP_VSA0>
74.687408

>  <SlogP_VSA1>
53.430473

>  <SlogP_VSA2>
6.6407428

>  <SlogP_VSA3>
0

>  <SlogP_VSA4>
33.418941

>  <SlogP_VSA5>
1.5507339

>  <SlogP_VSA6>
3.5006065

>  <SlogP_VSA7>
123.50229

>  <SlogP_VSA8>
0

>  <SlogP_VSA9>
39.148643

>  <SMR>
7.98492

>  <SMR_VSA0>
72.033905

>  <SMR_VSA1>
25.385227

>  <SMR_VSA2>
19.561485

>  <SMR_VSA3>
13.057331

>  <SMR_VSA4>
31.291433

>  <SMR_VSA5>
123.50229

>  <SMR_VSA6>
5.2587838

>  <SMR_VSA7>
45.789387

>  <TPSA>
109.49

>  <VAdjEq>
0.46637034

>  <VAdjMa>
5.5849624

>  <VDistEq>
3.004796

>  <VDistMa>
8.6535711

>  <vdw_area>
282.32193

>  <vdw_vol>
374.07333

>  <vsa_acc>
45.583443

>  <vsa_acid>
0

>  <vsa_base>
0

>  <vsa_don>
25.817696

>  <vsa_hyd>
155.57138

>  <vsa_other>
23.05514

>  <vsa_pol>
84.968063

>  <Weight>
338.771

>  <weinerPath>
952

>  <weinerPol>
40

>  <zagreb>
124

$$$$