s1cccc1[C@@H](Oc1c2c(ccc1)cccc2)CCNC
  MOE2013           2D

 21 23  0  0  1  0  0  0  0  0999 V2000
    0.0000    0.0000    0.0000 S   0  0  0  0  0  0  0  0  0  0  0  0
   -0.7560    1.2960    0.0000 C   0  0  0  0  0  0  0  0  0  0  0  0
    0.2430    2.4150    0.0000 C   0  0  0  0  0  0  0  0  0  0  0  0
    1.6160    1.8110    0.0000 C   0  0  0  0  0  0  0  0  0  0  0  0
    1.4660    0.3180    0.0000 C   0  0  0  0  0  0  0  0  0  0  0  0
    2.5850   -0.6810    0.0000 C   0  0  1  0  0  0  0  0  0  0  0  0
    4.0090   -0.2110    0.0000 O   0  0  0  0  0  0  0  0  0  0  0  0
    5.1290   -1.2100    0.0000 C   0  0  0  0  0  0  0  0  0  0  0  0
    6.5530   -0.7400    0.0000 C   0  0  0  0  0  0  0  0  0  0  0  0
    7.6720   -1.7390    0.0000 C   0  0  0  0  0  0  0  0  0  0  0  0
    7.3670   -3.2080    0.0000 C   0  0  0  0  0  0  0  0  0  0  0  0
    5.9420   -3.6770    0.0000 C   0  0  0  0  0  0  0  0  0  0  0  0
    4.8230   -2.6780    0.0000 C   0  0  0  0  0  0  0  0  0  0  0  0
    9.0970   -1.2690    0.0000 C   0  0  0  0  0  0  0  0  0  0  0  0
    9.4020    0.1990    0.0000 C   0  0  0  0  0  0  0  0  0  0  0  0
    8.2830    1.1980    0.0000 C   0  0  0  0  0  0  0  0  0  0  0  0
    6.8590    0.7280    0.0000 C   0  0  0  0  0  0  0  0  0  0  0  0
    2.2790   -2.1490    0.0000 C   0  0  0  0  0  0  0  0  0  0  0  0
    0.8550   -2.6190    0.0000 C   0  0  0  0  0  0  0  0  0  0  0  0
    0.5490   -4.0870    0.0000 N   0  0  0  0  0  0  0  0  0  0  0  0
   -0.8750   -4.5570    0.0000 C   0  0  0  0  0  0  0  0  0  0  0  0
  1  2  1  0  0  0  0
  1  5  1  0  0  0  0
  2  3  2  0  0  0  0
  3  4  1  0  0  0  0
  4  5  2  0  0  0  0
  6  5  1  1  0  0  0
  6  7  1  0  0  0  0
  6 18  1  0  0  0  0
  7  8  1  0  0  0  0
  8  9  1  0  0  0  0
  8 13  2  0  0  0  0
  9 10  2  0  0  0  0
  9 17  1  0  0  0  0
 10 11  1  0  0  0  0
 10 14  1  0  0  0  0
 11 12  2  0  0  0  0
 12 13  1  0  0  0  0
 14 15  2  0  0  0  0
 15 16  1  0  0  0  0
 16 17  2  0  0  0  0
 18 19  1  0  0  0  0
 19 20  1  0  0  0  0
 20 21  1  0  0  0  0
M  END
>  <Index>
1512

>  <ID>
HT0574

>  <class>
1

>  <apol>
49.151066

>  <ast_fraglike>
0

>  <ast_fraglike_ext>
0

>  <ast_violation>
1

>  <ast_violation_ext>
2

>  <a_acc>
2

>  <a_acid>
0

>  <a_aro>
15

>  <a_base>
0

>  <a_count>
40

>  <a_don>
1

>  <a_donacc>
3

>  <a_heavy>
21

>  <a_hyd>
19

>  <a_IC>
57.107849

>  <a_ICM>
1.4276962

>  <a_nB>
0

>  <a_nBr>
0

>  <a_nC>
18

>  <a_nCl>
0

>  <a_nF>
0

>  <a_nH>
19

>  <a_nI>
0

>  <a_nN>
1

>  <a_nO>
1

>  <a_nP>
0

>  <a_nS>
1

>  <balabanJ>
1.6009096

>  <BCUT_PEOE_0>
-2.5944734

>  <BCUT_PEOE_1>
-0.60546988

>  <BCUT_PEOE_2>
0.6798743

>  <BCUT_PEOE_3>
2.5480077

>  <BCUT_SLOGP_0>
-2.6822016

>  <BCUT_SLOGP_1>
-0.48880014

>  <BCUT_SLOGP_2>
0.71206909

>  <BCUT_SLOGP_3>
2.629246

>  <BCUT_SMR_0>
-2.3306544

>  <BCUT_SMR_1>
-0.45282492

>  <BCUT_SMR_2>
0.80444551

>  <BCUT_SMR_3>
2.8085783

>  <bpol>
25.626932

>  <b_1rotN>
6

>  <b_1rotR>
0.26086956

>  <b_ar>
16

>  <b_count>
42

>  <b_double>
0

>  <b_heavy>
23

>  <b_max1len>
6

>  <b_rotN>
6

>  <b_rotR>
0.26086956

>  <b_single>
26

>  <b_triple>
0

>  <chi0>
14.493353

>  <chi0v>
12.89806

>  <chi0v_C>
10.765066

>  <chi0_C>
12.372033

>  <chi1>
10.381341

>  <chi1v>
8.0864916

>  <chi1v_C>
5.4736323

>  <chi1_C>
7.4494896

>  <chiral>
1

>  <chiral_u>
0

>  <density>
0.70822769

>  <diameter>
10

>  <FCharge>
0

>  <GCUT_PEOE_0>
-0.85376841

>  <GCUT_PEOE_1>
-0.3891643

>  <GCUT_PEOE_2>
0.08960776

>  <GCUT_PEOE_3>
2.5442338

>  <GCUT_SLOGP_0>
-1.1525475

>  <GCUT_SLOGP_1>
-0.2486019

>  <GCUT_SLOGP_2>
0.19458726

>  <GCUT_SLOGP_3>
2.7101195

>  <GCUT_SMR_0>
-0.517205

>  <GCUT_SMR_1>
-0.19866346

>  <GCUT_SMR_2>
0.20433466

>  <GCUT_SMR_3>
2.8450353

>  <Kier1>
15.879017

>  <Kier2>
8.0222225

>  <Kier3>
4.0500002

>  <KierA1>
12.981449

>  <KierA2>
6.4878211

>  <KierA3>
3.2482464

>  <KierFlex>
4.0105391

>  <lip_acc>
2

>  <lip_don>
1

>  <lip_druglike>
1

>  <lip_violation>
0

>  <logP(o/w)>
4.572

>  <logS>
-4.85642

>  <mr>
9.1028519

>  <mutagenic>
0

>  <nmol>
1

>  <opr_brigid>
16

>  <opr_leadlike>
1

>  <opr_nring>
3

>  <opr_nrot>
6

>  <opr_violation>
1

>  <PC+>
0

>  <PC->
0

>  <PEOE_PC+>
1.3932621

>  <PEOE_PC->
-1.3932621

>  <PEOE_RPC+>
0.11373015

>  <PEOE_RPC->
0.24197452

>  <PEOE_VSA+0>
36.331627

>  <PEOE_VSA+1>
56.017307

>  <PEOE_VSA+2>
8.6190128

>  <PEOE_VSA+3>
19.760618

>  <PEOE_VSA+4>
0

>  <PEOE_VSA+5>
0

>  <PEOE_VSA+6>
0

>  <PEOE_VSA-0>
59.595772

>  <PEOE_VSA-1>
102.22383

>  <PEOE_VSA-2>
14.230966

>  <PEOE_VSA-3>
0

>  <PEOE_VSA-4>
0

>  <PEOE_VSA-5>
0

>  <PEOE_VSA-6>
2.6406472

>  <PEOE_VSA_FHYD>
0.99118078

>  <PEOE_VSA_FNEG>
0.59679163

>  <PEOE_VSA_FPNEG>
0.0088192141

>  <PEOE_VSA_FPOL>
0.0088192141

>  <PEOE_VSA_FPOS>
0.40320837

>  <PEOE_VSA_FPPOS>
0

>  <PEOE_VSA_HYD>
296.77914

>  <PEOE_VSA_NEG>
178.69122

>  <PEOE_VSA_PNEG>
2.6406472

>  <PEOE_VSA_POL>
2.6406472

>  <PEOE_VSA_POS>
120.72857

>  <PEOE_VSA_PPOS>
0

>  <petitjean>
0.5

>  <petitjeanSC>
1

>  <Q_PC+>
0

>  <Q_PC->
0

>  <Q_RPC+>
0

>  <Q_RPC->
0

>  <Q_VSA_FHYD>
1

>  <Q_VSA_FNEG>
0

>  <Q_VSA_FPNEG>
0

>  <Q_VSA_FPOL>
0

>  <Q_VSA_FPOS>
1

>  <Q_VSA_FPPOS>
0

>  <Q_VSA_HYD>
299.41977

>  <Q_VSA_NEG>
0

>  <Q_VSA_PNEG>
0

>  <Q_VSA_POL>
0

>  <Q_VSA_POS>
299.41977

>  <Q_VSA_PPOS>
0

>  <radius>
5

>  <reactive>
0

>  <rings>
3

>  <RPC+>
0

>  <RPC->
0

>  <rsynth>
0.5714286

>  <SlogP>
4.7263999

>  <SlogP_VSA0>
29.010639

>  <SlogP_VSA1>
0

>  <SlogP_VSA2>
0

>  <SlogP_VSA3>
18.439579

>  <SlogP_VSA4>
1.3584013

>  <SlogP_VSA5>
32.897186

>  <SlogP_VSA6>
0

>  <SlogP_VSA7>
179.7506

>  <SlogP_VSA8>
25.337055

>  <SlogP_VSA9>
36.521114

>  <SMR>
9.0290699

>  <SMR_VSA0>
0

>  <SMR_VSA1>
10.999887

>  <SMR_VSA2>
18.01075

>  <SMR_VSA3>
13.070478

>  <SMR_VSA4>
5.1459289

>  <SMR_VSA5>
193.47307

>  <SMR_VSA6>
18.439579

>  <SMR_VSA7>
64.174873

>  <TPSA>
21.26

>  <VAdjEq>
0.48250595

>  <VAdjMa>
5.523562

>  <VDistEq>
3.1063778

>  <VDistMa>
8.51017

>  <vdw_area>
299.41977

>  <vdw_vol>
419.95251

>  <vsa_acc>
2.503756

>  <vsa_acid>
0

>  <vsa_base>
0

>  <vsa_don>
0

>  <vsa_hyd>
275.34781

>  <vsa_other>
0

>  <vsa_pol>
8.1863317

>  <Weight>
297.422

>  <weinerPath>
931

>  <weinerPol>
29

>  <zagreb>
106

$$$$