OC(C1CCN(CC1)CCCC(O)c1ccc(cc1)C(C)(C)C)(c1ccccc1)c1ccccc1
  MOE2013           2D

 35 38  0  0  1  0  0  0  0  0999 V2000
    0.0000    0.0000    0.0000 O   0  0  0  0  0  0  0  0  0  0  0  0
    0.0490   -1.4990    0.0000 C   0  0  0  0  0  0  0  0  0  0  0  0
    1.5480   -1.4500    0.0000 C   0  0  0  0  0  0  0  0  0  0  0  0
    2.2550   -0.1270    0.0000 C   0  0  0  0  0  0  0  0  0  0  0  0
    3.7550   -0.0780    0.0000 C   0  0  0  0  0  0  0  0  0  0  0  0
    4.5470   -1.3520    0.0000 N   0  0  0  0  0  0  0  0  0  0  0  0
    3.8400   -2.6750    0.0000 C   0  0  0  0  0  0  0  0  0  0  0  0
    2.3410   -2.7240    0.0000 C   0  0  0  0  0  0  0  0  0  0  0  0
    6.0460   -1.3020    0.0000 C   0  0  0  0  0  0  0  0  0  0  0  0
    6.7530    0.0210    0.0000 C   0  0  0  0  0  0  0  0  0  0  0  0
    8.2520    0.0700    0.0000 C   0  0  0  0  0  0  0  0  0  0  0  0
    8.9590    1.3930    0.0000 C   0  0  3  0  0  0  0  0  0  0  0  0
    8.1670    2.6660    0.0000 O   0  0  0  0  0  0  0  0  0  0  0  0
   10.4580    1.4420    0.0000 C   0  0  0  0  0  0  0  0  0  0  0  0
   11.2510    0.1680    0.0000 C   0  0  0  0  0  0  0  0  0  0  0  0
   12.7500    0.2170    0.0000 C   0  0  0  0  0  0  0  0  0  0  0  0
   13.4570    1.5400    0.0000 C   0  0  0  0  0  0  0  0  0  0  0  0
   12.6650    2.8140    0.0000 C   0  0  0  0  0  0  0  0  0  0  0  0
   11.1650    2.7650    0.0000 C   0  0  0  0  0  0  0  0  0  0  0  0
   14.9560    1.5890    0.0000 C   0  0  0  0  0  0  0  0  0  0  0  0
   14.9070    3.0890    0.0000 C   0  0  0  0  0  0  0  0  0  0  0  0
   16.4550    1.6390    0.0000 C   0  0  0  0  0  0  0  0  0  0  0  0
   15.0050    0.0900    0.0000 C   0  0  0  0  0  0  0  0  0  0  0  0
    0.0980   -2.9980    0.0000 C   0  0  0  0  0  0  0  0  0  0  0  0
   -1.1750   -3.7910    0.0000 C   0  0  0  0  0  0  0  0  0  0  0  0
   -1.1260   -5.2900    0.0000 C   0  0  0  0  0  0  0  0  0  0  0  0
    0.1970   -5.9970    0.0000 C   0  0  0  0  0  0  0  0  0  0  0  0
    1.4710   -5.2050    0.0000 C   0  0  0  0  0  0  0  0  0  0  0  0
    1.4210   -3.7050    0.0000 C   0  0  0  0  0  0  0  0  0  0  0  0
   -1.4500   -1.5480    0.0000 C   0  0  0  0  0  0  0  0  0  0  0  0
   -2.2420   -0.2750    0.0000 C   0  0  0  0  0  0  0  0  0  0  0  0
   -3.7410   -0.3240    0.0000 C   0  0  0  0  0  0  0  0  0  0  0  0
   -4.4480   -1.6470    0.0000 C   0  0  0  0  0  0  0  0  0  0  0  0
   -3.6560   -2.9210    0.0000 C   0  0  0  0  0  0  0  0  0  0  0  0
   -2.1570   -2.8710    0.0000 C   0  0  0  0  0  0  0  0  0  0  0  0
  1  2  1  0  0  0  0
  2  3  1  0  0  0  0
  2 24  1  0  0  0  0
  2 30  1  0  0  0  0
  3  4  1  0  0  0  0
  3  8  1  0  0  0  0
  4  5  1  0  0  0  0
  5  6  1  0  0  0  0
  6  7  1  0  0  0  0
  6  9  1  0  0  0  0
  7  8  1  0  0  0  0
  9 10  1  0  0  0  0
 10 11  1  0  0  0  0
 11 12  1  0  0  0  0
 12 13  1  0  0  0  0
 12 14  1  0  0  0  0
 14 15  1  0  0  0  0
 14 19  2  0  0  0  0
 15 16  2  0  0  0  0
 16 17  1  0  0  0  0
 17 18  2  0  0  0  0
 17 20  1  0  0  0  0
 18 19  1  0  0  0  0
 20 21  1  0  0  0  0
 20 22  1  0  0  0  0
 20 23  1  0  0  0  0
 24 25  1  0  0  0  0
 24 29  2  0  0  0  0
 25 26  2  0  0  0  0
 26 27  1  0  0  0  0
 27 28  2  0  0  0  0
 28 29  1  0  0  0  0
 30 31  1  0  0  0  0
 30 35  2  0  0  0  0
 31 32  2  0  0  0  0
 32 33  1  0  0  0  0
 33 34  2  0  0  0  0
 34 35  1  0  0  0  0
M  END
>  <Index>
1737

>  <ID>
HT2011

>  <class>
1

>  <apol>
86.362511

>  <ast_fraglike>
0

>  <ast_fraglike_ext>
0

>  <ast_violation>
2

>  <ast_violation_ext>
3

>  <a_acc>
3

>  <a_acid>
0

>  <a_aro>
18

>  <a_base>
0

>  <a_count>
76

>  <a_don>
2

>  <a_donacc>
5

>  <a_heavy>
35

>  <a_hyd>
32

>  <a_IC>
93.182861

>  <a_ICM>
1.2260902

>  <a_nB>
0

>  <a_nBr>
0

>  <a_nC>
32

>  <a_nCl>
0

>  <a_nF>
0

>  <a_nH>
41

>  <a_nI>
0

>  <a_nN>
1

>  <a_nO>
2

>  <a_nP>
0

>  <a_nS>
0

>  <balabanJ>
1.2119783

>  <BCUT_PEOE_0>
-2.820482

>  <BCUT_PEOE_1>
-0.59363723

>  <BCUT_PEOE_2>
0.67953497

>  <BCUT_PEOE_3>
2.7650664

>  <BCUT_SLOGP_0>
-2.8225222

>  <BCUT_SLOGP_1>
-0.53807992

>  <BCUT_SLOGP_2>
0.68898416

>  <BCUT_SLOGP_3>
2.8135087

>  <BCUT_SMR_0>
-2.5578883

>  <BCUT_SMR_1>
-0.47783536

>  <BCUT_SMR_2>
0.77868146

>  <BCUT_SMR_3>
3.0207274

>  <bpol>
46.801487

>  <b_1rotN>
8

>  <b_1rotR>
0.21052632

>  <b_ar>
18

>  <b_count>
79

>  <b_double>
0

>  <b_heavy>
38

>  <b_max1len>
6

>  <b_rotN>
9

>  <b_rotR>
0.23684211

>  <b_single>
61

>  <b_triple>
0

>  <chi0>
24.890694

>  <chi0v>
21.528992

>  <chi0v_C>
20.187351

>  <chi0_C>
22.313345

>  <chi1>
16.780861

>  <chi1v>
13.125319

>  <chi1v_C>
11.69483

>  <chi1_C>
14.478765

>  <chiral>
1

>  <chiral_u>
1

>  <density>
0.65341425

>  <diameter>
18

>  <FCharge>
0

>  <GCUT_PEOE_0>
-0.858226

>  <GCUT_PEOE_1>
-0.38845897

>  <GCUT_PEOE_2>
0.079518102

>  <GCUT_PEOE_3>
3.0230205

>  <GCUT_SLOGP_0>
-0.95248961

>  <GCUT_SLOGP_1>
-0.26386139

>  <GCUT_SLOGP_2>
0.13851997

>  <GCUT_SLOGP_3>
3.10993

>  <GCUT_SMR_0>
-0.53071481

>  <GCUT_SMR_1>
-0.21605732

>  <GCUT_SMR_2>
0.19305076

>  <GCUT_SMR_3>
3.2715821

>  <Kier1>
28.01939

>  <Kier2>
12.697531

>  <Kier3>
7.1053061

>  <KierA1>
22.671007

>  <KierA2>
10.206285

>  <KierA3>
5.6840401

>  <KierFlex>
6.6110501

>  <lip_acc>
3

>  <lip_don>
2

>  <lip_druglike>
1

>  <lip_violation>
1

>  <logP(o/w)>
7.6529999

>  <logS>
-7.43888

>  <mr>
14.533075

>  <mutagenic>
0

>  <nmol>
1

>  <opr_brigid>
24

>  <opr_leadlike>
0

>  <opr_nring>
4

>  <opr_nrot>
11

>  <opr_violation>
3

>  <PC+>
0

>  <PC->
0

>  <PEOE_PC+>
2.2827954

>  <PEOE_PC->
-2.2827954

>  <PEOE_RPC+>
0.09247008

>  <PEOE_RPC->
0.16960853

>  <PEOE_VSA+0>
102.36926

>  <PEOE_VSA+1>
68.885719

>  <PEOE_VSA+2>
0

>  <PEOE_VSA+3>
0

>  <PEOE_VSA+4>
20.648346

>  <PEOE_VSA+5>
0

>  <PEOE_VSA+6>
0

>  <PEOE_VSA-0>
83.216385

>  <PEOE_VSA-1>
227.81169

>  <PEOE_VSA-2>
0

>  <PEOE_VSA-3>
0

>  <PEOE_VSA-4>
0

>  <PEOE_VSA-5>
0

>  <PEOE_VSA-6>
15.535081

>  <PEOE_VSA_FHYD>
0.93021065

>  <PEOE_VSA_FNEG>
0.62986356

>  <PEOE_VSA_FPNEG>
0.029963519

>  <PEOE_VSA_FPOL>
0.069789328

>  <PEOE_VSA_FPOS>
0.37013641

>  <PEOE_VSA_FPPOS>
0.039825805

>  <PEOE_VSA_HYD>
482.28305

>  <PEOE_VSA_NEG>
326.56314

>  <PEOE_VSA_PNEG>
15.535081

>  <PEOE_VSA_POL>
36.183426

>  <PEOE_VSA_POS>
191.90334

>  <PEOE_VSA_PPOS>
20.648346

>  <petitjean>
0.5

>  <petitjeanSC>
1

>  <Q_PC+>
0

>  <Q_PC->
0

>  <Q_RPC+>
0

>  <Q_RPC->
0

>  <Q_VSA_FHYD>
1

>  <Q_VSA_FNEG>
0

>  <Q_VSA_FPNEG>
0

>  <Q_VSA_FPOL>
0

>  <Q_VSA_FPOS>
1

>  <Q_VSA_FPPOS>
0

>  <Q_VSA_HYD>
518.46649

>  <Q_VSA_NEG>
0

>  <Q_VSA_PNEG>
0

>  <Q_VSA_POL>
0

>  <Q_VSA_POS>
518.46649

>  <Q_VSA_PPOS>
0

>  <radius>
9

>  <reactive>
0

>  <rings>
4

>  <RPC+>
0

>  <RPC->
0

>  <rsynth>
1

>  <SlogP>
6.8527999

>  <SlogP_VSA0>
50.770454

>  <SlogP_VSA1>
3.1243138

>  <SlogP_VSA2>
0

>  <SlogP_VSA3>
55.318733

>  <SlogP_VSA4>
17.153095

>  <SlogP_VSA5>
0

>  <SlogP_VSA6>
0

>  <SlogP_VSA7>
247.00458

>  <SlogP_VSA8>
81.942268

>  <SlogP_VSA9>
99.978043

>  <SMR>
14.46106

>  <SMR_VSA0>
0

>  <SMR_VSA1>
53.894768

>  <SMR_VSA2>
4.4107962

>  <SMR_VSA3>
19.210949

>  <SMR_VSA4>
0

>  <SMR_VSA5>
322.47821

>  <SMR_VSA6>
55.318733

>  <SMR_VSA7>
99.978043

>  <TPSA>
43.700001

>  <VAdjEq>
0.33549348

>  <VAdjMa>
6.2479277

>  <VDistEq>
4.0224085

>  <VDistMa>
9.9237289

>  <vdw_area>
518.46649

>  <vdw_vol>
721.87744

>  <vsa_acc>
0

>  <vsa_acid>
0

>  <vsa_base>
0

>  <vsa_don>
0

>  <vsa_hyd>
453.17798

>  <vsa_other>
0

>  <vsa_pol>
27.133842

>  <Weight>
471.685

>  <weinerPath>
4424

>  <weinerPol>
58

>  <zagreb>
184

$$$$