Clc1cc2NC(NS(=O)(=O)c2cc1S(=O)(=O)N)CSCC=C
  MOE2013           2D

 22 23  0  0  1  0  0  0  0  0999 V2000
    0.0000    0.0000    0.0000 Cl  0  0  0  0  0  0  0  0  0  0  0  0
    1.2920    0.7610    0.0000 C   0  0  0  0  0  0  0  0  0  0  0  0
    2.5980    0.0220    0.0000 C   0  0  0  0  0  0  0  0  0  0  0  0
    3.8900    0.7840    0.0000 C   0  0  0  0  0  0  0  0  0  0  0  0
    5.1960    0.0450    0.0000 N   0  0  0  0  0  0  0  0  0  0  0  0
    6.4880    0.8060    0.0000 C   0  0  3  0  0  0  0  0  0  0  0  0
    6.4750    2.3060    0.0000 N   0  0  0  0  0  0  0  0  0  0  0  0
    5.1700    3.0450    0.0000 S   0  0  0  0  0  0  0  0  0  0  0  0
    4.4090    4.3370    0.0000 O   0  0  0  0  0  0  0  0  0  0  0  0
    5.9090    4.3500    0.0000 O   0  0  0  0  0  0  0  0  0  0  0  0
    3.8770    2.2840    0.0000 C   0  0  0  0  0  0  0  0  0  0  0  0
    2.5720    3.0220    0.0000 C   0  0  0  0  0  0  0  0  0  0  0  0
    1.2800    2.2610    0.0000 C   0  0  0  0  0  0  0  0  0  0  0  0
   -0.0260    3.0000    0.0000 S   0  0  0  0  0  0  0  0  0  0  0  0
   -0.7650    1.6940    0.0000 O   0  0  0  0  0  0  0  0  0  0  0  0
    0.7130    4.3050    0.0000 O   0  0  0  0  0  0  0  0  0  0  0  0
   -1.3310    3.7390    0.0000 N   0  0  0  0  0  0  0  0  0  0  0  0
    7.7940    0.0670    0.0000 C   0  0  0  0  0  0  0  0  0  0  0  0
    9.0860    0.8290    0.0000 S   0  0  0  0  0  0  0  0  0  0  0  0
   10.3920    0.0900    0.0000 C   0  0  0  0  0  0  0  0  0  0  0  0
   11.6840    0.8510    0.0000 C   0  0  0  0  0  0  0  0  0  0  0  0
   12.9900    0.1120    0.0000 C   0  0  0  0  0  0  0  0  0  0  0  0
  1  2  1  0  0  0  0
  2  3  1  0  0  0  0
  2 13  2  0  0  0  0
  3  4  2  0  0  0  0
  4  5  1  0  0  0  0
  4 11  1  0  0  0  0
  5  6  1  0  0  0  0
  6  7  1  0  0  0  0
  6 18  1  0  0  0  0
  7  8  1  0  0  0  0
  8  9  2  0  0  0  0
  8 10  2  0  0  0  0
  8 11  1  0  0  0  0
 11 12  2  0  0  0  0
 12 13  1  0  0  0  0
 13 14  1  0  0  0  0
 14 15  2  0  0  0  0
 14 16  2  0  0  0  0
 14 17  1  0  0  0  0
 18 19  1  0  0  0  0
 19 20  1  0  0  0  0
 20 21  1  0  0  0  0
 21 22  2  0  0  0  0
M  END
>  <Index>
1428

>  <ID>
HT0117

>  <class>
1

>  <apol>
46.083103

>  <ast_fraglike>
0

>  <ast_fraglike_ext>
0

>  <ast_violation>
2

>  <ast_violation_ext>
4

>  <a_acc>
4

>  <a_acid>
0

>  <a_aro>
6

>  <a_base>
0

>  <a_count>
36

>  <a_don>
3

>  <a_donacc>
7

>  <a_heavy>
22

>  <a_hyd>
12

>  <a_IC>
77.250809

>  <a_ICM>
2.1458559

>  <a_nB>
0

>  <a_nBr>
0

>  <a_nC>
11

>  <a_nCl>
1

>  <a_nF>
0

>  <a_nH>
14

>  <a_nI>
0

>  <a_nN>
3

>  <a_nO>
4

>  <a_nP>
0

>  <a_nS>
3

>  <balabanJ>
2.0538383

>  <BCUT_PEOE_0>
-2.631294

>  <BCUT_PEOE_1>
-0.56880009

>  <BCUT_PEOE_2>
0.60181266

>  <BCUT_PEOE_3>
2.6033473

>  <BCUT_SLOGP_0>
-2.8001559

>  <BCUT_SLOGP_1>
-0.51236463

>  <BCUT_SLOGP_2>
0.66754413

>  <BCUT_SLOGP_3>
2.5447149

>  <BCUT_SMR_0>
-2.2943225

>  <BCUT_SMR_1>
-0.40797389

>  <BCUT_SMR_2>
0.75310677

>  <BCUT_SMR_3>
2.9366863

>  <bpol>
31.616898

>  <b_1rotN>
5

>  <b_1rotR>
0.2173913

>  <b_ar>
6

>  <b_count>
37

>  <b_double>
1

>  <b_heavy>
23

>  <b_max1len>
6

>  <b_rotN>
5

>  <b_rotR>
0.2173913

>  <b_single>
30

>  <b_triple>
0

>  <chi0>
16.543606

>  <chi0v>
14.449193

>  <chi0v_C>
6.4307213

>  <chi0_C>
7.4222851

>  <chi1>
10.148014

>  <chi1v>
10.550017

>  <chi1v_C>
2.8794453

>  <chi1_C>
3.915015

>  <chiral>
1

>  <chiral_u>
1

>  <density>
0.97410578

>  <diameter>
12

>  <FCharge>
0

>  <GCUT_PEOE_0>
-0.88614506

>  <GCUT_PEOE_1>
-0.40730533

>  <GCUT_PEOE_2>
0.054787971

>  <GCUT_PEOE_3>
2.5777018

>  <GCUT_SLOGP_0>
-1.3482856

>  <GCUT_SLOGP_1>
-0.43051994

>  <GCUT_SLOGP_2>
0.17464034

>  <GCUT_SLOGP_3>
2.5879233

>  <GCUT_SMR_0>
-0.49009883

>  <GCUT_SMR_1>
-0.18231826

>  <GCUT_SMR_2>
0.23977616

>  <GCUT_SMR_3>
2.8706079

>  <Kier1>
18.340265

>  <Kier2>
6.8571429

>  <Kier3>
4.3083901

>  <KierA1>
20.332987

>  <KierA2>
7.6402006

>  <KierA3>
4.8177223

>  <KierFlex>
7.0612769

>  <lip_acc>
7

>  <lip_don>
4

>  <lip_druglike>
1

>  <lip_violation>
0

>  <logP(o/w)>
0.80000001

>  <logS>
-3.4979

>  <mr>
8.7646971

>  <mutagenic>
0

>  <nmol>
1

>  <opr_brigid>
12

>  <opr_leadlike>
1

>  <opr_nring>
2

>  <opr_nrot>
5

>  <opr_violation>
0

>  <PC+>
0

>  <PC->
0

>  <PEOE_PC+>
1.8620152

>  <PEOE_PC->
-1.8620152

>  <PEOE_RPC+>
0.16635109

>  <PEOE_RPC->
0.20544213

>  <PEOE_VSA+0>
73.684464

>  <PEOE_VSA+1>
29.945944

>  <PEOE_VSA+2>
26.880259

>  <PEOE_VSA+3>
0

>  <PEOE_VSA+4>
0

>  <PEOE_VSA+5>
0

>  <PEOE_VSA+6>
8.3692026

>  <PEOE_VSA-0>
31.551292

>  <PEOE_VSA-1>
41.836849

>  <PEOE_VSA-2>
56.847313

>  <PEOE_VSA-3>
28.804367

>  <PEOE_VSA-4>
32.016521

>  <PEOE_VSA-5>
0

>  <PEOE_VSA-6>
0.13689101

>  <PEOE_VSA_FHYD>
0.87723136

>  <PEOE_VSA_FNEG>
0.57924515

>  <PEOE_VSA_FPNEG>
0.097413011

>  <PEOE_VSA_FPOL>
0.12276861

>  <PEOE_VSA_FPOS>
0.42075488

>  <PEOE_VSA_FPPOS>
0.025355604

>  <PEOE_VSA_HYD>
289.55048

>  <PEOE_VSA_NEG>
191.19324

>  <PEOE_VSA_PNEG>
32.153416

>  <PEOE_VSA_POL>
40.522617

>  <PEOE_VSA_POS>
138.87987

>  <PEOE_VSA_PPOS>
8.3692026

>  <petitjean>
0.5

>  <petitjeanSC>
1

>  <Q_PC+>
0

>  <Q_PC->
0

>  <Q_RPC+>
0

>  <Q_RPC->
0

>  <Q_VSA_FHYD>
1

>  <Q_VSA_FNEG>
0

>  <Q_VSA_FPNEG>
0

>  <Q_VSA_FPOL>
0

>  <Q_VSA_FPOS>
1

>  <Q_VSA_FPPOS>
0

>  <Q_VSA_HYD>
330.07309

>  <Q_VSA_NEG>
0

>  <Q_VSA_PNEG>
0

>  <Q_VSA_POL>
0

>  <Q_VSA_POS>
330.07309

>  <Q_VSA_PPOS>
0

>  <radius>
6

>  <reactive>
0

>  <rings>
2

>  <RPC+>
0

>  <RPC->
0

>  <rsynth>
1

>  <SlogP>
0.93650001

>  <SlogP_VSA0>
47.69643

>  <SlogP_VSA1>
114.35413

>  <SlogP_VSA2>
16.834627

>  <SlogP_VSA3>
34.467129

>  <SlogP_VSA4>
0

>  <SlogP_VSA5>
3.1014678

>  <SlogP_VSA6>
3.5006065

>  <SlogP_VSA7>
52.929554

>  <SlogP_VSA8>
0

>  <SlogP_VSA9>
106.22572

>  <SMR>
8.8080397

>  <SMR_VSA0>
96.343376

>  <SMR_VSA1>
0

>  <SMR_VSA2>
19.506466

>  <SMR_VSA3>
7.0537477

>  <SMR_VSA4>
52.058933

>  <SMR_VSA5>
52.929554

>  <SMR_VSA6>
34.467129

>  <SMR_VSA7>
116.75047

>  <TPSA>
118.36

>  <VAdjEq>
0.4530769

>  <VAdjMa>
5.523562

>  <VDistEq>
3.2596099

>  <VDistMa>
8.616312

>  <vdw_area>
330.07309

>  <vdw_vol>
394.10608

>  <vsa_acc>
64.033043

>  <vsa_acid>
0

>  <vsa_base>
0

>  <vsa_don>
33.892902

>  <vsa_hyd>
181.33411

>  <vsa_other>
31.401779

>  <vsa_pol>
97.925949

>  <Weight>
383.901

>  <weinerPath>
1050

>  <weinerPol>
36

>  <zagreb>
116

$$$$