Clc1c(Nc2ccccc2C(O)=O)c(Cl)ccc1C
  MOE2013           2D

 19 20  0  0  0  0  0  0  0  0999 V2000
    0.0000    0.0000    0.0000 Cl  0  0  0  0  0  0  0  0  0  0  0  0
    0.7440    1.3020    0.0000 C   0  0  0  0  0  0  0  0  0  0  0  0
   -0.0110    2.5980    0.0000 C   0  0  0  0  0  0  0  0  0  0  0  0
   -1.5110    2.5920    0.0000 N   0  0  0  0  0  0  0  0  0  0  0  0
   -2.2670    3.8870    0.0000 C   0  0  0  0  0  0  0  0  0  0  0  0
   -1.5220    5.1900    0.0000 C   0  0  0  0  0  0  0  0  0  0  0  0
   -2.2780    6.4850    0.0000 C   0  0  0  0  0  0  0  0  0  0  0  0
   -3.7780    6.4790    0.0000 C   0  0  0  0  0  0  0  0  0  0  0  0
   -4.5220    5.1770    0.0000 C   0  0  0  0  0  0  0  0  0  0  0  0
   -3.7670    3.8810    0.0000 C   0  0  0  0  0  0  0  0  0  0  0  0
   -4.5110    2.5790    0.0000 C   0  0  0  0  0  0  0  0  0  0  0  0
   -3.7560    1.2830    0.0000 O   0  0  0  0  0  0  0  0  0  0  0  0
   -6.0110    2.5720    0.0000 O   0  0  0  0  0  0  0  0  0  0  0  0
    0.7330    3.9000    0.0000 C   0  0  0  0  0  0  0  0  0  0  0  0
   -0.0220    5.1960    0.0000 Cl  0  0  0  0  0  0  0  0  0  0  0  0
    2.2330    3.9070    0.0000 C   0  0  0  0  0  0  0  0  0  0  0  0
    2.9890    2.6110    0.0000 C   0  0  0  0  0  0  0  0  0  0  0  0
    2.2440    1.3090    0.0000 C   0  0  0  0  0  0  0  0  0  0  0  0
    3.0000    0.0130    0.0000 C   0  0  0  0  0  0  0  0  0  0  0  0
  1  2  1  0  0  0  0
  2  3  1  0  0  0  0
  2 18  2  0  0  0  0
  3  4  1  0  0  0  0
  3 14  2  0  0  0  0
  4  5  1  0  0  0  0
  5  6  1  0  0  0  0
  5 10  2  0  0  0  0
  6  7  2  0  0  0  0
  7  8  1  0  0  0  0
  8  9  2  0  0  0  0
  9 10  1  0  0  0  0
 10 11  1  0  0  0  0
 11 12  1  0  0  0  0
 11 13  2  0  0  0  0
 14 15  1  0  0  0  0
 14 16  1  0  0  0  0
 16 17  2  0  0  0  0
 17 18  1  0  0  0  0
 18 19  1  0  0  0  0
M  END
>  <Index>
1631

>  <ID>
HT1284

>  <class>
1

>  <apol>
39.038723

>  <ast_fraglike>
0

>  <ast_fraglike_ext>
0

>  <ast_violation>
1

>  <ast_violation_ext>
1

>  <a_acc>
2

>  <a_acid>
0

>  <a_aro>
12

>  <a_base>
0

>  <a_count>
30

>  <a_don>
3

>  <a_donacc>
5

>  <a_heavy>
19

>  <a_hyd>
15

>  <a_IC>
51.850002

>  <a_ICM>
1.7283334

>  <a_nB>
0

>  <a_nBr>
0

>  <a_nC>
14

>  <a_nCl>
2

>  <a_nF>
0

>  <a_nH>
11

>  <a_nI>
0

>  <a_nN>
1

>  <a_nO>
2

>  <a_nP>
0

>  <a_nS>
0

>  <balabanJ>
2.0172591

>  <BCUT_PEOE_0>
-2.3190198

>  <BCUT_PEOE_1>
-0.61289638

>  <BCUT_PEOE_2>
0.64841354

>  <BCUT_PEOE_3>
2.2886481

>  <BCUT_SLOGP_0>
-2.2110872

>  <BCUT_SLOGP_1>
-0.46271181

>  <BCUT_SLOGP_2>
0.78272825

>  <BCUT_SLOGP_3>
2.4805098

>  <BCUT_SMR_0>
-1.9939626

>  <BCUT_SMR_1>
-0.40965176

>  <BCUT_SMR_2>
0.84564668

>  <BCUT_SMR_3>
2.6312542

>  <bpol>
14.483277

>  <b_1rotN>
3

>  <b_1rotR>
0.15000001

>  <b_ar>
12

>  <b_count>
31

>  <b_double>
1

>  <b_heavy>
20

>  <b_max1len>
2

>  <b_rotN>
3

>  <b_rotR>
0.15000001

>  <b_single>
18

>  <b_triple>
0

>  <chi0>
13.991199

>  <chi0v>
11.58735

>  <chi0v_C>
7.9641018

>  <chi0_C>
9.2840929

>  <chi1>
9.0029078

>  <chi1v>
6.2996583

>  <chi1v_C>
4.2380338

>  <chi1_C>
5.8770099

>  <chiral>
0

>  <chiral_u>
0

>  <density>
0.84469801

>  <diameter>
8

>  <FCharge>
0

>  <GCUT_PEOE_0>
-0.79140955

>  <GCUT_PEOE_1>
-0.42043331

>  <GCUT_PEOE_2>
0.089093491

>  <GCUT_PEOE_3>
2.3407919

>  <GCUT_SLOGP_0>
-0.89542359

>  <GCUT_SLOGP_1>
-0.25308463

>  <GCUT_SLOGP_2>
0.24359867

>  <GCUT_SLOGP_3>
2.527513

>  <GCUT_SMR_0>
-0.47879535

>  <GCUT_SMR_1>
-0.20165528

>  <GCUT_SMR_2>
0.27986431

>  <GCUT_SMR_3>
2.6656604

>  <Kier1>
15.39

>  <Kier2>
6.6352043

>  <Kier3>
3.5555556

>  <KierA1>
12.740488

>  <KierA2>
5.4312439

>  <KierA3>
2.8848398

>  <KierFlex>
3.6419315

>  <lip_acc>
3

>  <lip_don>
2

>  <lip_druglike>
1

>  <lip_violation>
0

>  <logP(o/w)>
4.4390001

>  <logS>
-4.6036501

>  <mr>
7.6938066

>  <mutagenic>
0

>  <nmol>
1

>  <opr_brigid>
12

>  <opr_leadlike>
1

>  <opr_nring>
2

>  <opr_nrot>
3

>  <opr_violation>
1

>  <PC+>
0

>  <PC->
0

>  <PEOE_PC+>
1.3834652

>  <PEOE_PC->
-1.3834652

>  <PEOE_RPC+>
0.21161535

>  <PEOE_RPC->
0.23668917

>  <PEOE_VSA+0>
19.495708

>  <PEOE_VSA+1>
43.539898

>  <PEOE_VSA+2>
8.6190128

>  <PEOE_VSA+3>
0

>  <PEOE_VSA+4>
10.324173

>  <PEOE_VSA+5>
14.708499

>  <PEOE_VSA+6>
0

>  <PEOE_VSA-0>
57.720928

>  <PEOE_VSA-1>
95.928604

>  <PEOE_VSA-2>
0

>  <PEOE_VSA-3>
0

>  <PEOE_VSA-4>
0

>  <PEOE_VSA-5>
13.703812

>  <PEOE_VSA-6>
7.7675405

>  <PEOE_VSA_FHYD>
0.82890868

>  <PEOE_VSA_FNEG>
0.64428115

>  <PEOE_VSA_FPNEG>
0.078994505

>  <PEOE_VSA_FPOL>
0.17109133

>  <PEOE_VSA_FPOS>
0.35571885

>  <PEOE_VSA_FPPOS>
0.092096828

>  <PEOE_VSA_HYD>
225.30415

>  <PEOE_VSA_NEG>
175.12088

>  <PEOE_VSA_PNEG>
21.471352

>  <PEOE_VSA_POL>
46.504025

>  <PEOE_VSA_POS>
96.687294

>  <PEOE_VSA_PPOS>
25.032671

>  <petitjean>
0.5

>  <petitjeanSC>
1

>  <Q_PC+>
0

>  <Q_PC->
0

>  <Q_RPC+>
0

>  <Q_RPC->
0

>  <Q_VSA_FHYD>
1

>  <Q_VSA_FNEG>
0

>  <Q_VSA_FPNEG>
0

>  <Q_VSA_FPOL>
0

>  <Q_VSA_FPOS>
1

>  <Q_VSA_FPPOS>
0

>  <Q_VSA_HYD>
271.80817

>  <Q_VSA_NEG>
0

>  <Q_VSA_PNEG>
0

>  <Q_VSA_POL>
0

>  <Q_VSA_POS>
271.80817

>  <Q_VSA_PPOS>
0

>  <radius>
4

>  <reactive>
0

>  <rings>
2

>  <RPC+>
0

>  <RPC->
0

>  <rsynth>
1

>  <SlogP>
4.7436199

>  <SlogP_VSA0>
0

>  <SlogP_VSA1>
25.756214

>  <SlogP_VSA2>
0

>  <SlogP_VSA3>
25.385227

>  <SlogP_VSA4>
30.233366

>  <SlogP_VSA5>
0

>  <SlogP_VSA6>
7.0012131

>  <SlogP_VSA7>
105.85911

>  <SlogP_VSA8>
0

>  <SlogP_VSA9>
117.1368

>  <SMR>
7.7883

>  <SMR_VSA0>
23.862217

>  <SMR_VSA1>
0

>  <SMR_VSA2>
25.385227

>  <SMR_VSA3>
13.372363

>  <SMR_VSA4>
23.524246

>  <SMR_VSA5>
105.85911

>  <SMR_VSA6>
7.7454643

>  <SMR_VSA7>
111.62331

>  <TPSA>
49.330002

>  <VAdjEq>
0.5023343

>  <VAdjMa>
5.321928

>  <VDistEq>
2.9083142

>  <VDistMa>
8.2244778

>  <vdw_area>
271.80817

>  <vdw_vol>
350.6022

>  <vsa_acc>
0

>  <vsa_acid>
0

>  <vsa_base>
0

>  <vsa_don>
5.6825762

>  <vsa_hyd>
210.27899

>  <vsa_other>
14.708499

>  <vsa_pol>
32.816418

>  <Weight>
296.15298

>  <weinerPath>
682

>  <weinerPol>
30

>  <zagreb>
96

$$$$