O=C1CC[C@@]2([C@@H]3[C@H]([C@@H]4CC[C@@](O)(C)[C@]4(CC3)C)CCC2=C1)C
  MOE2013           2D

 22 25  0  0  1  0  0  0  0  0999 V2000
    0.0000    0.0000    0.0000 O   0  0  0  0  0  0  0  0  0  0  0  0
   -1.5000    0.0110    0.0000 C   0  0  0  0  0  0  0  0  0  0  0  0
   -2.2400    1.3160    0.0000 C   0  0  0  0  0  0  0  0  0  0  0  0
   -3.7400    1.3280    0.0000 C   0  0  0  0  0  0  0  0  0  0  0  0
   -4.5000    0.0340    0.0000 C   0  0  2  0  0  0  0  0  0  0  0  0
   -6.0000    0.0460    0.0000 C   0  0  2  0  0  0  0  0  0  0  0  0
   -6.7600   -1.2470    0.0000 C   0  0  2  0  0  0  0  0  0  0  0  0
   -8.2600   -1.2360    0.0000 C   0  0  2  0  0  0  0  0  0  0  0  0
   -9.2720   -2.3430    0.0000 C   0  0  0  0  0  0  0  0  0  0  0  0
  -10.6370   -1.7220    0.0000 C   0  0  0  0  0  0  0  0  0  0  0  0
  -10.4690   -0.2320    0.0000 C   0  0  1  0  0  0  0  0  0  0  0  0
  -10.8460    1.2200    0.0000 O   0  0  0  0  0  0  0  0  0  0  0  0
  -11.9280    0.1170    0.0000 C   0  0  0  0  0  0  0  0  0  0  0  0
   -9.0000    0.0690    0.0000 C   0  0  1  0  0  0  0  0  0  0  0  0
   -8.2400    1.3620    0.0000 C   0  0  0  0  0  0  0  0  0  0  0  0
   -6.7400    1.3510    0.0000 C   0  0  0  0  0  0  0  0  0  0  0  0
   -9.8720    1.2890    0.0000 C   0  0  0  0  0  0  0  0  0  0  0  0
   -6.0200   -2.5520    0.0000 C   0  0  0  0  0  0  0  0  0  0  0  0
   -4.5200   -2.5640    0.0000 C   0  0  0  0  0  0  0  0  0  0  0  0
   -3.7600   -1.2700    0.0000 C   0  0  0  0  0  0  0  0  0  0  0  0
   -2.2600   -1.2820    0.0000 C   0  0  0  0  0  0  0  0  0  0  0  0
   -5.2630    1.3260    0.0000 C   0  0  0  0  0  0  0  0  0  0  0  0
  1  2  2  0  0  0  0
  2  3  1  0  0  0  0
  2 21  1  0  0  0  0
  3  4  1  0  0  0  0
  4  5  1  0  0  0  0
  5  6  1  0  0  0  0
  5 20  1  0  0  0  0
  5 22  1  6  0  0  0
  6  7  1  0  0  0  0
  6 16  1  6  0  0  0
  7  8  1  0  0  0  0
  7 18  1  1  0  0  0
  8  9  1  6  0  0  0
  8 14  1  0  0  0  0
  9 10  1  0  0  0  0
 10 11  1  0  0  0  0
 11 12  1  6  0  0  0
 11 13  1  1  0  0  0
 11 14  1  0  0  0  0
 14 15  1  0  0  0  0
 14 17  1  6  0  0  0
 15 16  1  0  0  0  0
 18 19  1  0  0  0  0
 19 20  1  0  0  0  0
 20 21  2  0  0  0  0
M  END
>  <Index>
1647

>  <ID>
HT1370

>  <class>
1

>  <apol>
56.807789

>  <ast_fraglike>
0

>  <ast_fraglike_ext>
0

>  <ast_violation>
2

>  <ast_violation_ext>
2

>  <a_acc>
2

>  <a_acid>
0

>  <a_aro>
0

>  <a_base>
0

>  <a_count>
52

>  <a_don>
1

>  <a_donacc>
3

>  <a_heavy>
22

>  <a_hyd>
19

>  <a_IC>
60.777584

>  <a_ICM>
1.1687998

>  <a_nB>
0

>  <a_nBr>
0

>  <a_nC>
20

>  <a_nCl>
0

>  <a_nF>
0

>  <a_nH>
30

>  <a_nI>
0

>  <a_nN>
0

>  <a_nO>
2

>  <a_nP>
0

>  <a_nS>
0

>  <balabanJ>
1.6375484

>  <BCUT_PEOE_0>
-2.9474161

>  <BCUT_PEOE_1>
-0.3574228

>  <BCUT_PEOE_2>
0.37010768

>  <BCUT_PEOE_3>
2.9667108

>  <BCUT_SLOGP_0>
-2.869405

>  <BCUT_SLOGP_1>
-0.3332676

>  <BCUT_SLOGP_2>
0.34670463

>  <BCUT_SLOGP_3>
3.041497

>  <BCUT_SMR_0>
-2.6915562

>  <BCUT_SMR_1>
-0.1907371

>  <BCUT_SMR_2>
0.51132685

>  <BCUT_SMR_3>
3.2196286

>  <bpol>
33.754211

>  <b_1rotN>
0

>  <b_1rotR>
0

>  <b_ar>
0

>  <b_count>
55

>  <b_double>
2

>  <b_heavy>
25

>  <b_max1len>
4

>  <b_rotN>
0

>  <b_rotR>
0

>  <b_single>
53

>  <b_triple>
0

>  <chi0>
15.750712

>  <chi0v>
14.321717

>  <chi0v_C>
13.466255

>  <chi0_C>
13.750712

>  <chi1>
10.27844

>  <chi1v>
9.2416096

>  <chi1v_C>
8.813879

>  <chi1_C>
9.2010899

>  <chiral>
6

>  <chiral_u>
0

>  <density>
0.67109293

>  <diameter>
10

>  <FCharge>
0

>  <GCUT_PEOE_0>
-0.80488002

>  <GCUT_PEOE_1>
-0.3475877

>  <GCUT_PEOE_2>
-0.047521379

>  <GCUT_PEOE_3>
3.3124192

>  <GCUT_SLOGP_0>
-0.88372803

>  <GCUT_SLOGP_1>
-0.29381844

>  <GCUT_SLOGP_2>
-0.0127482

>  <GCUT_SLOGP_3>
3.3991997

>  <GCUT_SMR_0>
-0.53941005

>  <GCUT_SMR_1>
-0.17869237

>  <GCUT_SMR_2>
0.069113433

>  <GCUT_SMR_3>
3.538455

>  <Kier1>
15.5232

>  <Kier2>
4.7619047

>  <Kier3>
1.9771072

>  <KierA1>
14.331991

>  <KierA2>
4.3789988

>  <KierA3>
1.8128842

>  <KierFlex>
2.8527172

>  <lip_acc>
2

>  <lip_don>
1

>  <lip_druglike>
1

>  <lip_violation>
0

>  <logP(o/w)>
3.5090001

>  <logS>
-4.7912798

>  <mr>
8.7324982

>  <mutagenic>
0

>  <nmol>
1

>  <opr_brigid>
20

>  <opr_leadlike>
1

>  <opr_nring>
4

>  <opr_nrot>
0

>  <opr_violation>
0

>  <PC+>
0

>  <PC->
0

>  <PEOE_PC+>
1.2846702

>  <PEOE_PC->
-1.2846702

>  <PEOE_RPC+>
0.16359892

>  <PEOE_RPC->
0.30225489

>  <PEOE_VSA+0>
128.13213

>  <PEOE_VSA+1>
4.2653861

>  <PEOE_VSA+2>
0

>  <PEOE_VSA+3>
8.458519

>  <PEOE_VSA+4>
10.324173

>  <PEOE_VSA+5>
0

>  <PEOE_VSA+6>
0

>  <PEOE_VSA-0>
91.911774

>  <PEOE_VSA-1>
39.703896

>  <PEOE_VSA-2>
0

>  <PEOE_VSA-3>
0

>  <PEOE_VSA-4>
0

>  <PEOE_VSA-5>
13.566921

>  <PEOE_VSA-6>
7.7675405

>  <PEOE_VSA_FHYD>
0.89590436

>  <PEOE_VSA_FNEG>
0.50290984

>  <PEOE_VSA_FPNEG>
0.070149072

>  <PEOE_VSA_FPOL>
0.10409562

>  <PEOE_VSA_FPOS>
0.49709019

>  <PEOE_VSA_FPPOS>
0.03394654

>  <PEOE_VSA_HYD>
272.47171

>  <PEOE_VSA_NEG>
152.95013

>  <PEOE_VSA_PNEG>
21.334461

>  <PEOE_VSA_POL>
31.658634

>  <PEOE_VSA_POS>
151.18021

>  <PEOE_VSA_PPOS>
10.324173

>  <petitjean>
0.5

>  <petitjeanSC>
1

>  <Q_PC+>
0

>  <Q_PC->
0

>  <Q_RPC+>
0

>  <Q_RPC->
0

>  <Q_VSA_FHYD>
1

>  <Q_VSA_FNEG>
0

>  <Q_VSA_FPNEG>
0

>  <Q_VSA_FPOL>
0

>  <Q_VSA_FPOS>
1

>  <Q_VSA_FPPOS>
0

>  <Q_VSA_HYD>
304.13034

>  <Q_VSA_NEG>
0

>  <Q_VSA_PNEG>
0

>  <Q_VSA_POL>
0

>  <Q_VSA_POS>
304.13034

>  <Q_VSA_PPOS>
0

>  <radius>
5

>  <reactive>
1

>  <rings>
4

>  <RPC+>
0

>  <RPC->
0

>  <rsynth>
0

>  <SlogP>
4.2693

>  <SlogP_VSA0>
25.385227

>  <SlogP_VSA1>
5.6876111

>  <SlogP_VSA2>
23.862217

>  <SlogP_VSA3>
0

>  <SlogP_VSA4>
13.232388

>  <SlogP_VSA5>
3.185575

>  <SlogP_VSA6>
0

>  <SlogP_VSA7>
17.643185

>  <SlogP_VSA8>
150.94725

>  <SlogP_VSA9>
99.978043

>  <SMR>
8.7333803

>  <SMR_VSA0>
23.862217

>  <SMR_VSA1>
25.385227

>  <SMR_VSA2>
13.232388

>  <SMR_VSA3>
3.185575

>  <SMR_VSA4>
0

>  <SMR_VSA5>
168.59042

>  <SMR_VSA6>
5.6876111

>  <SMR_VSA7>
99.978043

>  <TPSA>
37.299999

>  <VAdjEq>
0.47938794

>  <VAdjMa>
5.643856

>  <VDistEq>
2.9879878

>  <VDistMa>
8.6431408

>  <vdw_area>
304.13034

>  <vdw_vol>
450.69464

>  <vsa_acc>
13.566921

>  <vsa_acid>
0

>  <vsa_base>
0

>  <vsa_don>
0

>  <vsa_hyd>
239.33595

>  <vsa_other>
8.458519

>  <vsa_pol>
27.133842

>  <Weight>
302.45801

>  <weinerPath>
907

>  <weinerPol>
48

>  <zagreb>
134

$$$$