S(C(=O)C)[C@H]1[C@H]2[C@@H]3CC[C@]4(OC(=O)CC4)[C@]3(CC[C@@H]2[C@@]2(C(=CC(=O)CC2)C1)C)C
  MOE2013           2D

 29 33  0  0  1  0  0  0  0  0999 V2000
    0.0000    0.0000    0.0000 S   0  0  0  0  0  0  0  0  0  0  0  0
    1.2970    0.7540    0.0000 C   0  0  0  0  0  0  0  0  0  0  0  0
    2.5980    0.0070    0.0000 O   0  0  0  0  0  0  0  0  0  0  0  0
    1.2930    2.2540    0.0000 C   0  0  0  0  0  0  0  0  0  0  0  0
    0.0040   -1.5000    0.0000 C   0  0  1  0  0  0  0  0  0  0  0  0
   -1.2930   -2.2540    0.0000 C   0  0  1  0  0  0  0  0  0  0  0  0
   -2.5940   -1.5070    0.0000 C   0  0  2  0  0  0  0  0  0  0  0  0
   -2.9100   -0.0410    0.0000 C   0  0  0  0  0  0  0  0  0  0  0  0
   -4.4020    0.1120    0.0000 C   0  0  0  0  0  0  0  0  0  0  0  0
   -5.0080   -1.2600    0.0000 C   0  0  1  0  0  0  0  0  0  0  0  0
   -5.8440   -2.5060    0.0000 O   0  0  0  0  0  0  0  0  0  0  0  0
   -7.2870   -2.0970    0.0000 C   0  0  0  0  0  0  0  0  0  0  0  0
   -8.4660   -3.0240    0.0000 O   0  0  0  0  0  0  0  0  0  0  0  0
   -7.3430   -0.5980    0.0000 C   0  0  0  0  0  0  0  0  0  0  0  0
   -5.9350   -0.0810    0.0000 C   0  0  0  0  0  0  0  0  0  0  0  0
   -3.8910   -2.2610    0.0000 C   0  0  1  0  0  0  0  0  0  0  0  0
   -3.8870   -3.7610    0.0000 C   0  0  0  0  0  0  0  0  0  0  0  0
   -2.5860   -4.5070    0.0000 C   0  0  0  0  0  0  0  0  0  0  0  0
   -1.2890   -3.7540    0.0000 C   0  0  2  0  0  0  0  0  0  0  0  0
    0.0130   -4.5000    0.0000 C   0  0  2  0  0  0  0  0  0  0  0  0
    1.3090   -3.7460    0.0000 C   0  0  0  0  0  0  0  0  0  0  0  0
    2.6110   -4.4930    0.0000 C   0  0  0  0  0  0  0  0  0  0  0  0
    2.6150   -5.9930    0.0000 C   0  0  0  0  0  0  0  0  0  0  0  0
    3.9160   -6.7390    0.0000 O   0  0  0  0  0  0  0  0  0  0  0  0
    1.3180   -6.7460    0.0000 C   0  0  0  0  0  0  0  0  0  0  0  0
    0.0170   -6.0000    0.0000 C   0  0  0  0  0  0  0  0  0  0  0  0
    1.3050   -2.2460    0.0000 C   0  0  0  0  0  0  0  0  0  0  0  0
   -1.2840   -5.2540    0.0000 C   0  0  0  0  0  0  0  0  0  0  0  0
   -2.5900   -3.0070    0.0000 C   0  0  0  0  0  0  0  0  0  0  0  0
  1  2  1  0  0  0  0
  2  3  2  0  0  0  0
  2  4  1  0  0  0  0
  5  1  1  6  0  0  0
  5 27  1  0  0  0  0
  6  5  1  6  0  0  0
  6  7  1  0  0  0  0
  6 19  1  0  0  0  0
  7  8  1  1  0  0  0
  7 16  1  0  0  0  0
  8  9  1  0  0  0  0
 10  9  1  1  0  0  0
 10 11  1  0  0  0  0
 10 15  1  0  0  0  0
 10 16  1  0  0  0  0
 11 12  1  0  0  0  0
 12 13  2  0  0  0  0
 12 14  1  0  0  0  0
 14 15  1  0  0  0  0
 16 17  1  0  0  0  0
 16 29  1  1  0  0  0
 17 18  1  0  0  0  0
 19 18  1  1  0  0  0
 19 20  1  0  0  0  0
 20 21  1  0  0  0  0
 20 26  1  0  0  0  0
 20 28  1  1  0  0  0
 21 22  2  0  0  0  0
 21 27  1  0  0  0  0
 22 23  1  0  0  0  0
 23 24  2  0  0  0  0
 23 25  1  0  0  0  0
 25 26  1  0  0  0  0
M  END
>  <Index>
1726

>  <ID>
HT1913

>  <class>
1

>  <apol>
69.685379

>  <ast_fraglike>
0

>  <ast_fraglike_ext>
0

>  <ast_violation>
2

>  <ast_violation_ext>
2

>  <a_acc>
3

>  <a_acid>
0

>  <a_aro>
0

>  <a_base>
0

>  <a_count>
61

>  <a_don>
0

>  <a_donacc>
3

>  <a_heavy>
29

>  <a_hyd>
22

>  <a_IC>
83.735878

>  <a_ICM>
1.3727193

>  <a_nB>
0

>  <a_nBr>
0

>  <a_nC>
24

>  <a_nCl>
0

>  <a_nF>
0

>  <a_nH>
32

>  <a_nI>
0

>  <a_nN>
0

>  <a_nO>
4

>  <a_nP>
0

>  <a_nS>
1

>  <balabanJ>
1.5043033

>  <BCUT_PEOE_0>
-2.9445248

>  <BCUT_PEOE_1>
-0.48016131

>  <BCUT_PEOE_2>
0.41167247

>  <BCUT_PEOE_3>
2.9879901

>  <BCUT_SLOGP_0>
-2.8869994

>  <BCUT_SLOGP_1>
-0.40543211

>  <BCUT_SLOGP_2>
0.41038668

>  <BCUT_SLOGP_3>
3.0433693

>  <BCUT_SMR_0>
-2.688365

>  <BCUT_SMR_1>
-0.30326509

>  <BCUT_SMR_2>
0.55929601

>  <BCUT_SMR_3>
3.2397187

>  <bpol>
42.052624

>  <b_1rotN>
1

>  <b_1rotR>
0.030303031

>  <b_ar>
0

>  <b_count>
65

>  <b_double>
4

>  <b_heavy>
33

>  <b_max1len>
2

>  <b_rotN>
2

>  <b_rotR>
0.060606062

>  <b_single>
61

>  <b_triple>
0

>  <chi0>
20.604084

>  <chi0v>
18.60845

>  <chi0v_C>
15.750712

>  <chi0_C>
16.189871

>  <chi1>
13.683925

>  <chi1v>
12.194419

>  <chi1v_C>
9.8543196

>  <chi1_C>
10.373575

>  <chiral>
7

>  <chiral_u>
0

>  <density>
0.74204797

>  <diameter>
12

>  <FCharge>
0

>  <GCUT_PEOE_0>
-0.79427898

>  <GCUT_PEOE_1>
-0.41666064

>  <GCUT_PEOE_2>
-0.033141796

>  <GCUT_PEOE_3>
3.4232674

>  <GCUT_SLOGP_0>
-0.86093724

>  <GCUT_SLOGP_1>
-0.31014708

>  <GCUT_SLOGP_2>
-0.012408319

>  <GCUT_SLOGP_3>
3.4977348

>  <GCUT_SMR_0>
-0.53906256

>  <GCUT_SMR_1>
-0.21368673

>  <GCUT_SMR_2>
0.11613683

>  <GCUT_SMR_3>
3.6583586

>  <Kier1>
20.877869

>  <Kier2>
7

>  <Kier3>
2.9575

>  <KierA1>
19.452211

>  <KierA2>
6.5049286

>  <KierA3>
2.7430375

>  <KierFlex>
4.3632846

>  <lip_acc>
4

>  <lip_don>
0

>  <lip_druglike>
1

>  <lip_violation>
0

>  <logP(o/w)>
4.0190001

>  <logS>
-5.2382898

>  <mr>
11.377474

>  <mutagenic>
0

>  <nmol>
1

>  <opr_brigid>
25

>  <opr_leadlike>
0

>  <opr_nring>
5

>  <opr_nrot>
2

>  <opr_violation>
2

>  <PC+>
0

>  <PC->
0

>  <PEOE_PC+>
1.7418914

>  <PEOE_PC->
-1.7418914

>  <PEOE_RPC+>
0.15085982

>  <PEOE_RPC->
0.17681743

>  <PEOE_VSA+0>
169.00829

>  <PEOE_VSA+1>
4.2653861

>  <PEOE_VSA+2>
0

>  <PEOE_VSA+3>
18.893101

>  <PEOE_VSA+4>
0

>  <PEOE_VSA+5>
14.708499

>  <PEOE_VSA+6>
0

>  <PEOE_VSA-0>
73.164093

>  <PEOE_VSA-1>
59.464512

>  <PEOE_VSA-2>
0

>  <PEOE_VSA-3>
0

>  <PEOE_VSA-4>
0

>  <PEOE_VSA-5>
40.700764

>  <PEOE_VSA-6>
2.503756

>  <PEOE_VSA_FHYD>
0.84867585

>  <PEOE_VSA_FNEG>
0.45944414

>  <PEOE_VSA_FPNEG>
0.11289149

>  <PEOE_VSA_FPOL>
0.15132414

>  <PEOE_VSA_FPOS>
0.54055583

>  <PEOE_VSA_FPPOS>
0.038432654

>  <PEOE_VSA_HYD>
324.79538

>  <PEOE_VSA_NEG>
175.83313

>  <PEOE_VSA_PNEG>
43.204517

>  <PEOE_VSA_POL>
57.913017

>  <PEOE_VSA_POS>
206.87526

>  <PEOE_VSA_PPOS>
14.708499

>  <petitjean>
0.5

>  <petitjeanSC>
1

>  <Q_PC+>
0

>  <Q_PC->
0

>  <Q_RPC+>
0

>  <Q_RPC->
0

>  <Q_VSA_FHYD>
1

>  <Q_VSA_FNEG>
0

>  <Q_VSA_FPNEG>
0

>  <Q_VSA_FPOL>
0

>  <Q_VSA_FPOS>
1

>  <Q_VSA_FPPOS>
0

>  <Q_VSA_HYD>
382.7084

>  <Q_VSA_NEG>
0

>  <Q_VSA_PNEG>
0

>  <Q_VSA_POL>
0

>  <Q_VSA_POS>
382.7084

>  <Q_VSA_PPOS>
0

>  <radius>
6

>  <reactive>
1

>  <rings>
5

>  <RPC+>
0

>  <RPC->
0

>  <rsynth>
1

>  <SlogP>
4.8523002

>  <SlogP_VSA0>
0

>  <SlogP_VSA1>
17.485846

>  <SlogP_VSA2>
85.362495

>  <SlogP_VSA3>
0

>  <SlogP_VSA4>
13.232388

>  <SlogP_VSA5>
3.185575

>  <SlogP_VSA6>
0

>  <SlogP_VSA7>
17.643185

>  <SlogP_VSA8>
169.81564

>  <SlogP_VSA9>
132.19759

>  <SMR>
11.2211

>  <SMR_VSA0>
82.58654

>  <SMR_VSA1>
0

>  <SMR_VSA2>
13.232388

>  <SMR_VSA3>
5.9615302

>  <SMR_VSA4>
0

>  <SMR_VSA5>
187.45883

>  <SMR_VSA6>
17.485846

>  <SMR_VSA7>
132.19759

>  <TPSA>
60.439999

>  <VAdjEq>
0.39679351

>  <VAdjMa>
6.044394

>  <VDistEq>
3.2226024

>  <VDistMa>
9.4666386

>  <vdw_area>
382.7084

>  <vdw_vol>
561.39496

>  <vsa_acc>
40.700764

>  <vsa_acid>
0

>  <vsa_base>
0

>  <vsa_don>
0

>  <vsa_hyd>
279.08966

>  <vsa_other>
36.105354

>  <vsa_pol>
40.700764

>  <Weight>
416.582

>  <weinerPath>
1905

>  <weinerPol>
61

>  <zagreb>
174

$$$$