S1[C@H]2N([C@@H](C(O)=O)C1(C)C)C(=O)[C@H]2NC(=O)Cc1ccccc1
  MOE2013           2D

 23 25  0  0  1  0  0  0  0  0999 V2000
    0.0000    0.0000    0.0000 S   0  0  0  0  0  0  0  0  0  0  0  0
    1.3050   -0.7390    0.0000 C   0  0  1  0  0  0  0  0  0  0  0  0
    1.0050   -2.2090    0.0000 N   0  0  0  0  0  0  0  0  0  0  0  0
   -0.4850   -2.3780    0.0000 C   0  0  1  0  0  0  0  0  0  0  0  0
   -1.2240   -3.6830    0.0000 C   0  0  0  0  0  0  0  0  0  0  0  0
   -2.7240   -3.6960    0.0000 O   0  0  0  0  0  0  0  0  0  0  0  0
   -0.4630   -4.9760    0.0000 O   0  0  0  0  0  0  0  0  0  0  0  0
   -1.1060   -1.0130    0.0000 C   0  0  0  0  0  0  0  0  0  0  0  0
   -2.5160   -1.5250    0.0000 C   0  0  0  0  0  0  0  0  0  0  0  0
   -2.2030    0.0110    0.0000 C   0  0  0  0  0  0  0  0  0  0  0  0
    2.4750   -2.5090    0.0000 C   0  0  0  0  0  0  0  0  0  0  0  0
    3.3030   -3.7600    0.0000 O   0  0  0  0  0  0  0  0  0  0  0  0
    2.7750   -1.0390    0.0000 C   0  0  1  0  0  0  0  0  0  0  0  0
    4.0260   -0.2120    0.0000 N   0  0  0  0  0  0  0  0  0  0  0  0
    5.3680   -0.8820    0.0000 C   0  0  0  0  0  0  0  0  0  0  0  0
    5.4590   -2.3790    0.0000 O   0  0  0  0  0  0  0  0  0  0  0  0
    6.6190   -0.0540    0.0000 C   0  0  0  0  0  0  0  0  0  0  0  0
    7.9620   -0.7240    0.0000 C   0  0  0  0  0  0  0  0  0  0  0  0
    9.2130    0.1030    0.0000 C   0  0  0  0  0  0  0  0  0  0  0  0
   10.5550   -0.5670    0.0000 C   0  0  0  0  0  0  0  0  0  0  0  0
   10.6460   -2.0640    0.0000 C   0  0  0  0  0  0  0  0  0  0  0  0
    9.3950   -2.8910    0.0000 C   0  0  0  0  0  0  0  0  0  0  0  0
    8.0520   -2.2210    0.0000 C   0  0  0  0  0  0  0  0  0  0  0  0
  1  8  1  0  0  0  0
  2  1  1  6  0  0  0
  2  3  1  0  0  0  0
  2 13  1  0  0  0  0
  3  4  1  0  0  0  0
  3 11  1  0  0  0  0
  4  5  1  1  0  0  0
  4  8  1  0  0  0  0
  5  6  1  0  0  0  0
  5  7  2  0  0  0  0
  8  9  1  0  0  0  0
  8 10  1  0  0  0  0
 11 12  2  0  0  0  0
 11 13  1  0  0  0  0
 13 14  1  6  0  0  0
 14 15  1  0  0  0  0
 15 16  2  0  0  0  0
 15 17  1  0  0  0  0
 17 18  1  0  0  0  0
 18 19  1  0  0  0  0
 18 23  2  0  0  0  0
 19 20  2  0  0  0  0
 20 21  1  0  0  0  0
 21 22  2  0  0  0  0
 22 23  1  0  0  0  0
M  END
>  <Index>
1452

>  <ID>
HT0260

>  <class>
1

>  <apol>
48.470276

>  <ast_fraglike>
0

>  <ast_fraglike_ext>
0

>  <ast_violation>
2

>  <ast_violation_ext>
3

>  <a_acc>
4

>  <a_acid>
0

>  <a_aro>
6

>  <a_base>
0

>  <a_count>
41

>  <a_don>
3

>  <a_donacc>
7

>  <a_heavy>
23

>  <a_hyd>
14

>  <a_IC>
70.600983

>  <a_ICM>
1.7219752

>  <a_nB>
0

>  <a_nBr>
0

>  <a_nC>
16

>  <a_nCl>
0

>  <a_nF>
0

>  <a_nH>
18

>  <a_nI>
0

>  <a_nN>
2

>  <a_nO>
4

>  <a_nP>
0

>  <a_nS>
1

>  <balabanJ>
1.5629148

>  <BCUT_PEOE_0>
-2.6451666

>  <BCUT_PEOE_1>
-0.53786004

>  <BCUT_PEOE_2>
0.56246662

>  <BCUT_PEOE_3>
2.849803

>  <BCUT_SLOGP_0>
-2.9002864

>  <BCUT_SLOGP_1>
-0.5059132

>  <BCUT_SLOGP_2>
0.59086215

>  <BCUT_SLOGP_3>
2.7543797

>  <BCUT_SMR_0>
-2.390523

>  <BCUT_SMR_1>
-0.36646411

>  <BCUT_SMR_2>
0.75979799

>  <BCUT_SMR_3>
3.1309264

>  <bpol>
27.471725

>  <b_1rotN>
4

>  <b_1rotR>
0.16

>  <b_ar>
6

>  <b_count>
43

>  <b_double>
3

>  <b_heavy>
25

>  <b_max1len>
4

>  <b_rotN>
5

>  <b_rotR>
0.2

>  <b_single>
34

>  <b_triple>
0

>  <chi0>
16.775656

>  <chi0v>
13.669826

>  <chi0v_C>
9.8259087

>  <chi0_C>
10.784093

>  <chi1>
10.809367

>  <chi1v>
8.2512875

>  <chi1v_C>
4.8171492

>  <chi1_C>
5.9216685

>  <chiral>
3

>  <chiral_u>
0

>  <density>
0.80771756

>  <diameter>
12

>  <FCharge>
0

>  <GCUT_PEOE_0>
-0.83771187

>  <GCUT_PEOE_1>
-0.39484292

>  <GCUT_PEOE_2>
0.068661794

>  <GCUT_PEOE_3>
2.6858878

>  <GCUT_SLOGP_0>
-1.1649739

>  <GCUT_SLOGP_1>
-0.4045226

>  <GCUT_SLOGP_2>
0.11614167

>  <GCUT_SLOGP_3>
2.6368763

>  <GCUT_SMR_0>
-0.53661817

>  <GCUT_SMR_1>
-0.21419701

>  <GCUT_SMR_2>
0.19228721

>  <GCUT_SMR_3>
2.951407

>  <Kier1>
17.811199

>  <Kier2>
6.7188368

>  <Kier3>
3.3833141

>  <KierA1>
14.771276

>  <KierA2>
5.5217657

>  <KierA3>
2.7614512

>  <KierFlex>
3.5462401

>  <lip_acc>
6

>  <lip_don>
2

>  <lip_druglike>
1

>  <lip_violation>
0

>  <logP(o/w)>
1.625

>  <logS>
-3.47961

>  <mr>
8.7237349

>  <mutagenic>
0

>  <nmol>
1

>  <opr_brigid>
14

>  <opr_leadlike>
1

>  <opr_nring>
3

>  <opr_nrot>
4

>  <opr_violation>
0

>  <PC+>
0

>  <PC->
0

>  <PEOE_PC+>
2.3510556

>  <PEOE_PC->
-2.3510556

>  <PEOE_RPC+>
0.12070175

>  <PEOE_RPC->
0.14543043

>  <PEOE_VSA+0>
34.123089

>  <PEOE_VSA+1>
42.824402

>  <PEOE_VSA+2>
11.413943

>  <PEOE_VSA+3>
8.6190128

>  <PEOE_VSA+4>
23.273705

>  <PEOE_VSA+5>
27.65803

>  <PEOE_VSA+6>
0

>  <PEOE_VSA-0>
39.703896

>  <PEOE_VSA-1>
61.274521

>  <PEOE_VSA-2>
19.760618

>  <PEOE_VSA-3>
0

>  <PEOE_VSA-4>
0

>  <PEOE_VSA-5>
40.700764

>  <PEOE_VSA-6>
7.9044313

>  <PEOE_VSA_FHYD>
0.68625712

>  <PEOE_VSA_FNEG>
0.53377718

>  <PEOE_VSA_FPNEG>
0.15320477

>  <PEOE_VSA_FPOL>
0.31374285

>  <PEOE_VSA_FPOS>
0.46622282

>  <PEOE_VSA_FPPOS>
0.16053808

>  <PEOE_VSA_HYD>
217.71948

>  <PEOE_VSA_NEG>
169.34422

>  <PEOE_VSA_PNEG>
48.605194

>  <PEOE_VSA_POL>
99.536926

>  <PEOE_VSA_POS>
147.91219

>  <PEOE_VSA_PPOS>
50.931732

>  <petitjean>
0.5

>  <petitjeanSC>
1

>  <Q_PC+>
0

>  <Q_PC->
0

>  <Q_RPC+>
0

>  <Q_RPC->
0

>  <Q_VSA_FHYD>
1

>  <Q_VSA_FNEG>
0

>  <Q_VSA_FPNEG>
0

>  <Q_VSA_FPOL>
0

>  <Q_VSA_FPOS>
1

>  <Q_VSA_FPPOS>
0

>  <Q_VSA_HYD>
317.25641

>  <Q_VSA_NEG>
0

>  <Q_VSA_PNEG>
0

>  <Q_VSA_POL>
0

>  <Q_VSA_POS>
317.25641

>  <Q_VSA_PPOS>
0

>  <radius>
6

>  <reactive>
0

>  <rings>
3

>  <RPC+>
0

>  <RPC->
0

>  <rsynth>
1

>  <SlogP>
0.86076999

>  <SlogP_VSA0>
18.01075

>  <SlogP_VSA1>
21.387344

>  <SlogP_VSA2>
81.897713

>  <SlogP_VSA3>
25.385227

>  <SlogP_VSA4>
3.185575

>  <SlogP_VSA5>
18.868406

>  <SlogP_VSA6>
0

>  <SlogP_VSA7>
88.215919

>  <SlogP_VSA8>
0

>  <SlogP_VSA9>
98.871574

>  <SMR>
8.5805502

>  <SMR_VSA0>
71.586647

>  <SMR_VSA1>
3.1243138

>  <SMR_VSA2>
43.395977

>  <SMR_VSA3>
13.49664

>  <SMR_VSA4>
0

>  <SMR_VSA5>
107.08433

>  <SMR_VSA6>
18.263031

>  <SMR_VSA7>
98.871574

>  <TPSA>
86.709999

>  <VAdjEq>
0.45137304

>  <VAdjMa>
5.643856

>  <VDistEq>
3.3737557

>  <VDistMa>
8.7356215

>  <vdw_area>
317.25641

>  <vdw_vol>
414.00116

>  <vsa_acc>
27.133842

>  <vsa_acid>
0

>  <vsa_base>
0

>  <vsa_don>
5.6825762

>  <vsa_hyd>
197.71175

>  <vsa_other>
40.607563

>  <vsa_pol>
59.95026

>  <Weight>
334.396

>  <weinerPath>
1247

>  <weinerPol>
35

>  <zagreb>
126

$$$$