O1[C@@H](C[C@@H](OC(=O)[C@@H](NC=O)CC(C)C)CCCCCCCCCCC)[C@H](CCCCCC)C1=O
  MOE2013           2D

 35 35  0  0  1  0  0  0  0  0999 V2000
    0.0000    0.0000    0.0000 O   0  0  0  0  0  0  0  0  0  0  0  0
   -0.8070    1.2640    0.0000 C   0  0  1  0  0  0  0  0  0  0  0  0
   -0.4840    2.7290    0.0000 C   0  0  0  0  0  0  0  0  0  0  0  0
    0.9470    3.1810    0.0000 C   0  0  1  0  0  0  0  0  0  0  0  0
    1.2700    4.6460    0.0000 O   0  0  0  0  0  0  0  0  0  0  0  0
    0.1630    5.6590    0.0000 C   0  0  0  0  0  0  0  0  0  0  0  0
   -1.2670    5.2060    0.0000 O   0  0  0  0  0  0  0  0  0  0  0  0
    0.4870    7.1230    0.0000 C   0  0  1  0  0  0  0  0  0  0  0  0
    1.9170    7.5760    0.0000 N   0  0  0  0  0  0  0  0  0  0  0  0
    3.0240    6.5630    0.0000 C   0  0  0  0  0  0  0  0  0  0  0  0
    4.4540    7.0150    0.0000 O   0  0  0  0  0  0  0  0  0  0  0  0
   -0.6200    8.1360    0.0000 C   0  0  0  0  0  0  0  0  0  0  0  0
   -0.2970    9.6000    0.0000 C   0  0  0  0  0  0  0  0  0  0  0  0
   -1.4040   10.6130    0.0000 C   0  0  0  0  0  0  0  0  0  0  0  0
    1.1330   10.0530    0.0000 C   0  0  0  0  0  0  0  0  0  0  0  0
    2.0530    2.1690    0.0000 C   0  0  0  0  0  0  0  0  0  0  0  0
    3.4840    2.6210    0.0000 C   0  0  0  0  0  0  0  0  0  0  0  0
    4.5900    1.6090    0.0000 C   0  0  0  0  0  0  0  0  0  0  0  0
    6.0210    2.0610    0.0000 C   0  0  0  0  0  0  0  0  0  0  0  0
    7.1270    1.0490    0.0000 C   0  0  0  0  0  0  0  0  0  0  0  0
    8.5570    1.5010    0.0000 C   0  0  0  0  0  0  0  0  0  0  0  0
    9.6640    0.4880    0.0000 C   0  0  0  0  0  0  0  0  0  0  0  0
   11.0940    0.9410    0.0000 C   0  0  0  0  0  0  0  0  0  0  0  0
   12.2010   -0.0720    0.0000 C   0  0  0  0  0  0  0  0  0  0  0  0
   13.6310    0.3810    0.0000 C   0  0  0  0  0  0  0  0  0  0  0  0
   14.7380   -0.6320    0.0000 C   0  0  0  0  0  0  0  0  0  0  0  0
   -2.0710    0.4570    0.0000 C   0  0  2  0  0  0  0  0  0  0  0  0
   -3.5360    0.7810    0.0000 C   0  0  0  0  0  0  0  0  0  0  0  0
   -4.5490   -0.3260    0.0000 C   0  0  0  0  0  0  0  0  0  0  0  0
   -6.0130   -0.0030    0.0000 C   0  0  0  0  0  0  0  0  0  0  0  0
   -7.0260   -1.1090    0.0000 C   0  0  0  0  0  0  0  0  0  0  0  0
   -8.4900   -0.7860    0.0000 C   0  0  0  0  0  0  0  0  0  0  0  0
   -9.5030   -1.8930    0.0000 C   0  0  0  0  0  0  0  0  0  0  0  0
   -1.2640   -0.8070    0.0000 C   0  0  0  0  0  0  0  0  0  0  0  0
   -1.5880   -2.2720    0.0000 O   0  0  0  0  0  0  0  0  0  0  0  0
  1  2  1  0  0  0  0
  1 34  1  0  0  0  0
  2  3  1  6  0  0  0
  2 27  1  0  0  0  0
  3  4  1  0  0  0  0
  4  5  1  0  0  0  0
  4 16  1  1  0  0  0
  5  6  1  0  0  0  0
  6  7  2  0  0  0  0
  8  6  1  6  0  0  0
  8  9  1  0  0  0  0
  8 12  1  0  0  0  0
  9 10  1  0  0  0  0
 10 11  2  0  0  0  0
 12 13  1  0  0  0  0
 13 14  1  0  0  0  0
 13 15  1  0  0  0  0
 16 17  1  0  0  0  0
 17 18  1  0  0  0  0
 18 19  1  0  0  0  0
 19 20  1  0  0  0  0
 20 21  1  0  0  0  0
 21 22  1  0  0  0  0
 22 23  1  0  0  0  0
 23 24  1  0  0  0  0
 24 25  1  0  0  0  0
 25 26  1  0  0  0  0
 27 28  1  1  0  0  0
 27 34  1  0  0  0  0
 28 29  1  0  0  0  0
 29 30  1  0  0  0  0
 30 31  1  0  0  0  0
 31 32  1  0  0  0  0
 32 33  1  0  0  0  0
 34 35  2  0  0  0  0
M  END
>  <Index>
1676

>  <ID>
HT1543

>  <class>
1

>  <apol>
91.490028

>  <ast_fraglike>
0

>  <ast_fraglike_ext>
0

>  <ast_violation>
2

>  <ast_violation_ext>
3

>  <a_acc>
3

>  <a_acid>
0

>  <a_aro>
0

>  <a_base>
0

>  <a_count>
88

>  <a_don>
1

>  <a_donacc>
4

>  <a_heavy>
35

>  <a_hyd>
26

>  <a_IC>
112.35911

>  <a_ICM>
1.276808

>  <a_nB>
0

>  <a_nBr>
0

>  <a_nC>
29

>  <a_nCl>
0

>  <a_nF>
0

>  <a_nH>
53

>  <a_nI>
0

>  <a_nN>
1

>  <a_nO>
5

>  <a_nP>
0

>  <a_nS>
0

>  <balabanJ>
2.5549126

>  <BCUT_PEOE_0>
-2.767487

>  <BCUT_PEOE_1>
-0.4415189

>  <BCUT_PEOE_2>
0.5038355

>  <BCUT_PEOE_3>
2.7908156

>  <BCUT_SLOGP_0>
-2.7941501

>  <BCUT_SLOGP_1>
-0.43000793

>  <BCUT_SLOGP_2>
0.49762604

>  <BCUT_SLOGP_3>
2.8377249

>  <BCUT_SMR_0>
-2.5376472

>  <BCUT_SMR_1>
-0.33085784

>  <BCUT_SMR_2>
0.588934

>  <BCUT_SMR_3>
3.0116801

>  <bpol>
65.305969

>  <b_1rotN>
22

>  <b_1rotR>
0.62857145

>  <b_ar>
0

>  <b_count>
88

>  <b_double>
3

>  <b_heavy>
35

>  <b_max1len>
15

>  <b_rotN>
24

>  <b_rotR>
0.6857143

>  <b_single>
85

>  <b_triple>
0

>  <chi0>
25.890694

>  <chi0v>
23.026159

>  <chi0v_C>
20.484917

>  <chi0_C>
20.769375

>  <chi1>
16.921453

>  <chi1v>
14.530041

>  <chi1v_C>
12.429088

>  <chi1_C>
12.518404

>  <chiral>
4

>  <chiral_u>
0

>  <density>
0.66135263

>  <diameter>
20

>  <FCharge>
0

>  <GCUT_PEOE_0>
-0.81856513

>  <GCUT_PEOE_1>
-0.34089881

>  <GCUT_PEOE_2>
0.057343159

>  <GCUT_PEOE_3>
2.9890697

>  <GCUT_SLOGP_0>
-1.1625131

>  <GCUT_SLOGP_1>
-0.27744561

>  <GCUT_SLOGP_2>
0.066143878

>  <GCUT_SLOGP_3>
3.04775

>  <GCUT_SMR_0>
-0.55129367

>  <GCUT_SMR_1>
-0.20032698

>  <GCUT_SMR_2>
0.12520199

>  <GCUT_SMR_3>
3.1972024

>  <Kier1>
33.028572

>  <Kier2>
20.989796

>  <Kier3>
15.111111

>  <KierA1>
30.035248

>  <KierA2>
19.032288

>  <KierA3>
13.673166

>  <KierFlex>
16.332556

>  <lip_acc>
6

>  <lip_don>
1

>  <lip_druglike>
1

>  <lip_violation>
1

>  <logP(o/w)>
8.8669996

>  <logS>
-10.21151

>  <mr>
14.455365

>  <mutagenic>
1

>  <nmol>
1

>  <opr_brigid>
4

>  <opr_leadlike>
0

>  <opr_nring>
1

>  <opr_nrot>
22

>  <opr_violation>
3

>  <PC+>
0

>  <PC->
0

>  <PEOE_PC+>
2.8501995

>  <PEOE_PC->
-2.8501995

>  <PEOE_RPC+>
0.099993922

>  <PEOE_RPC->
0.12160805

>  <PEOE_VSA+0>
213.43983

>  <PEOE_VSA+1>
22.606016

>  <PEOE_VSA+2>
7.4113464

>  <PEOE_VSA+3>
8.6190128

>  <PEOE_VSA+4>
22.995895

>  <PEOE_VSA+5>
29.416998

>  <PEOE_VSA+6>
0

>  <PEOE_VSA-0>
26.103939

>  <PEOE_VSA-1>
188.10779

>  <PEOE_VSA-2>
0

>  <PEOE_VSA-3>
0

>  <PEOE_VSA-4>
0

>  <PEOE_VSA-5>
40.700764

>  <PEOE_VSA-6>
5.1444035

>  <PEOE_VSA_FHYD>
0.82595205

>  <PEOE_VSA_FNEG>
0.46064782

>  <PEOE_VSA_FPNEG>
0.081207141

>  <PEOE_VSA_FPOL>
0.17404793

>  <PEOE_VSA_FPOS>
0.53935218

>  <PEOE_VSA_FPPOS>
0.092840783

>  <PEOE_VSA_HYD>
466.28793

>  <PEOE_VSA_NEG>
260.05688

>  <PEOE_VSA_PNEG>
45.845165

>  <PEOE_VSA_POL>
98.258057

>  <PEOE_VSA_POS>
304.48911

>  <PEOE_VSA_PPOS>
52.412895

>  <petitjean>
0.5

>  <petitjeanSC>
1

>  <Q_PC+>
0

>  <Q_PC->
0

>  <Q_RPC+>
0

>  <Q_RPC->
0

>  <Q_VSA_FHYD>
1

>  <Q_VSA_FNEG>
0

>  <Q_VSA_FPNEG>
0

>  <Q_VSA_FPOL>
0

>  <Q_VSA_FPOS>
1

>  <Q_VSA_FPPOS>
0

>  <Q_VSA_HYD>
564.54602

>  <Q_VSA_NEG>
0

>  <Q_VSA_PNEG>
0

>  <Q_VSA_POL>
0

>  <Q_VSA_POS>
564.54602

>  <Q_VSA_PPOS>
0

>  <radius>
10

>  <reactive>
1

>  <rings>
1

>  <RPC+>
0

>  <RPC->
0

>  <rsynth>
0.2857143

>  <SlogP>
6.8818998

>  <SlogP_VSA0>
18.01075

>  <SlogP_VSA1>
15.490929

>  <SlogP_VSA2>
130.22209

>  <SlogP_VSA3>
0

>  <SlogP_VSA4>
8.8215923

>  <SlogP_VSA5>
0

>  <SlogP_VSA6>
0

>  <SlogP_VSA7>
0

>  <SlogP_VSA8>
320.76288

>  <SlogP_VSA9>
133.30406

>  <SMR>
14.09127

>  <SMR_VSA0>
93.586426

>  <SMR_VSA1>
0

>  <SMR_VSA2>
26.832342

>  <SMR_VSA3>
16.919268

>  <SMR_VSA4>
0

>  <SMR_VSA5>
320.76288

>  <SMR_VSA6>
15.490929

>  <SMR_VSA7>
153.02045

>  <TPSA>
81.699997

>  <VAdjEq>
0.31599712

>  <VAdjMa>
6.129283

>  <VDistEq>
4.029717

>  <VDistMa>
9.9786997

>  <vdw_area>
564.54602

>  <vdw_vol>
749.59253

>  <vsa_acc>
40.700764

>  <vsa_acid>
0

>  <vsa_base>
0

>  <vsa_don>
5.6825762

>  <vsa_hyd>
414.41187

>  <vsa_other>
60.973995

>  <vsa_pol>
46.383339

>  <Weight>
495.745

>  <weinerPath>
4600

>  <weinerPol>
41

>  <zagreb>
154

$$$$