Clc1ccccc1-c1noc(C)c1C(=O)N[C@H]1[C@H]2SC(C)(C)[C@@H](N2C1=O)C(O)=O
  MOE2013           2D

 29 32  0  0  1  0  0  0  0  0999 V2000
    0.0000    0.0000    0.0000 Cl  0  0  0  0  0  0  0  0  0  0  0  0
   -1.1370   -0.9780    0.0000 C   0  0  0  0  0  0  0  0  0  0  0  0
   -0.8590   -2.4520    0.0000 C   0  0  0  0  0  0  0  0  0  0  0  0
   -1.9960   -3.4300    0.0000 C   0  0  0  0  0  0  0  0  0  0  0  0
   -3.4120   -2.9340    0.0000 C   0  0  0  0  0  0  0  0  0  0  0  0
   -3.6900   -1.4600    0.0000 C   0  0  0  0  0  0  0  0  0  0  0  0
   -2.5530   -0.4820    0.0000 C   0  0  0  0  0  0  0  0  0  0  0  0
   -2.8310    0.9920    0.0000 C   0  0  0  0  0  0  0  0  0  0  0  0
   -1.8020    2.0840    0.0000 N   0  0  0  0  0  0  0  0  0  0  0  0
   -2.5220    3.3990    0.0000 O   0  0  0  0  0  0  0  0  0  0  0  0
   -3.9960    3.1210    0.0000 C   0  0  0  0  0  0  0  0  0  0  0  0
   -5.0880    4.1500    0.0000 C   0  0  0  0  0  0  0  0  0  0  0  0
   -4.1870    1.6330    0.0000 C   0  0  0  0  0  0  0  0  0  0  0  0
   -5.5030    0.9130    0.0000 C   0  0  0  0  0  0  0  0  0  0  0  0
   -5.5370   -0.5860    0.0000 O   0  0  0  0  0  0  0  0  0  0  0  0
   -6.7850    1.6930    0.0000 N   0  0  0  0  0  0  0  0  0  0  0  0
   -8.1000    0.9730    0.0000 C   0  0  1  0  0  0  0  0  0  0  0  0
   -9.5400    1.3940    0.0000 C   0  0  1  0  0  0  0  0  0  0  0  0
  -10.7790    2.2390    0.0000 S   0  0  0  0  0  0  0  0  0  0  0  0
  -11.9660    1.3220    0.0000 C   0  0  0  0  0  0  0  0  0  0  0  0
  -12.9590    2.4470    0.0000 C   0  0  0  0  0  0  0  0  0  0  0  0
  -13.4220    0.9610    0.0000 C   0  0  0  0  0  0  0  0  0  0  0  0
  -11.4610   -0.0900    0.0000 C   0  0  1  0  0  0  0  0  0  0  0  0
   -9.9610   -0.0460    0.0000 N   0  0  0  0  0  0  0  0  0  0  0  0
   -8.5220   -0.4670    0.0000 C   0  0  0  0  0  0  0  0  0  0  0  0
   -7.8020   -1.7830    0.0000 O   0  0  0  0  0  0  0  0  0  0  0  0
  -12.3060   -1.3290    0.0000 C   0  0  0  0  0  0  0  0  0  0  0  0
  -13.8020   -1.2160    0.0000 O   0  0  0  0  0  0  0  0  0  0  0  0
  -11.6560   -2.6810    0.0000 O   0  0  0  0  0  0  0  0  0  0  0  0
  1  2  1  0  0  0  0
  2  3  1  0  0  0  0
  2  7  2  0  0  0  0
  3  4  2  0  0  0  0
  4  5  1  0  0  0  0
  5  6  2  0  0  0  0
  6  7  1  0  0  0  0
  7  8  1  0  0  0  0
  8  9  2  0  0  0  0
  8 13  1  0  0  0  0
  9 10  1  0  0  0  0
 10 11  1  0  0  0  0
 11 12  1  0  0  0  0
 11 13  2  0  0  0  0
 13 14  1  0  0  0  0
 14 15  2  0  0  0  0
 14 16  1  0  0  0  0
 17 16  1  6  0  0  0
 17 18  1  0  0  0  0
 17 25  1  0  0  0  0
 18 19  1  6  0  0  0
 18 24  1  0  0  0  0
 19 20  1  0  0  0  0
 20 21  1  0  0  0  0
 20 22  1  0  0  0  0
 20 23  1  0  0  0  0
 23 24  1  0  0  0  0
 23 27  1  1  0  0  0
 24 25  1  0  0  0  0
 25 26  2  0  0  0  0
 27 28  1  0  0  0  0
 27 29  2  0  0  0  0
M  END
>  <Index>
1504

>  <ID>
HT0538

>  <class>
1

>  <apol>
57.832275

>  <ast_fraglike>
0

>  <ast_fraglike_ext>
0

>  <ast_violation>
2

>  <ast_violation_ext>
4

>  <a_acc>
5

>  <a_acid>
0

>  <a_aro>
11

>  <a_base>
0

>  <a_count>
47

>  <a_don>
3

>  <a_donacc>
8

>  <a_heavy>
29

>  <a_hyd>
17

>  <a_IC>
88.931877

>  <a_ICM>
1.8921676

>  <a_nB>
0

>  <a_nBr>
0

>  <a_nC>
19

>  <a_nCl>
1

>  <a_nF>
0

>  <a_nH>
18

>  <a_nI>
0

>  <a_nN>
3

>  <a_nO>
5

>  <a_nP>
0

>  <a_nS>
1

>  <balabanJ>
1.4448136

>  <BCUT_PEOE_0>
-2.6399934

>  <BCUT_PEOE_1>
-0.54077262

>  <BCUT_PEOE_2>
0.55411822

>  <BCUT_PEOE_3>
2.849396

>  <BCUT_SLOGP_0>
-2.895009

>  <BCUT_SLOGP_1>
-0.46048698

>  <BCUT_SLOGP_2>
0.64035869

>  <BCUT_SLOGP_3>
2.7542505

>  <BCUT_SMR_0>
-2.3874595

>  <BCUT_SMR_1>
-0.35852671

>  <BCUT_SMR_2>
0.75594407

>  <BCUT_SMR_3>
3.130357

>  <bpol>
29.807726

>  <b_1rotN>
4

>  <b_1rotR>
0.125

>  <b_ar>
11

>  <b_count>
50

>  <b_double>
3

>  <b_heavy>
32

>  <b_max1len>
4

>  <b_rotN>
5

>  <b_rotR>
0.15625

>  <b_single>
36

>  <b_triple>
0

>  <chi0>
21.085058

>  <chi0v>
17.374723

>  <chi0v_C>
11.541451

>  <chi0_C>
12.67928

>  <chi1>
13.630734

>  <chi1v>
10.138099

>  <chi1v_C>
5.5267091

>  <chi1_C>
6.8491888

>  <chiral>
3

>  <chiral_u>
0

>  <density>
0.86755961

>  <diameter>
13

>  <FCharge>
0

>  <GCUT_PEOE_0>
-0.83719581

>  <GCUT_PEOE_1>
-0.40156853

>  <GCUT_PEOE_2>
0.06291566

>  <GCUT_PEOE_3>
2.7319076

>  <GCUT_SLOGP_0>
-1.1640171

>  <GCUT_SLOGP_1>
-0.37250987

>  <GCUT_SLOGP_2>
0.14278683

>  <GCUT_SLOGP_3>
2.7088592

>  <GCUT_SMR_0>
-0.53651923

>  <GCUT_SMR_1>
-0.20017767

>  <GCUT_SMR_2>
0.22588532

>  <GCUT_SMR_3>
3.0003276

>  <Kier1>
22.203125

>  <Kier2>
8.1647997

>  <Kier3>
3.7548106

>  <KierA1>
18.95619

>  <KierA2>
6.9294534

>  <KierA3>
3.1727641

>  <KierFlex>
4.5295186

>  <lip_acc>
8

>  <lip_don>
2

>  <lip_druglike>
1

>  <lip_violation>
0

>  <logP(o/w)>
2.55

>  <logS>
-5.50735

>  <mr>
10.843916

>  <mutagenic>
0

>  <nmol>
1

>  <opr_brigid>
19

>  <opr_leadlike>
1

>  <opr_nring>
4

>  <opr_nrot>
4

>  <opr_violation>
0

>  <PC+>
0

>  <PC->
0

>  <PEOE_PC+>
2.7390449

>  <PEOE_PC->
-2.7390449

>  <PEOE_RPC+>
0.10360418

>  <PEOE_RPC->
0.13090312

>  <PEOE_VSA+0>
40.597015

>  <PEOE_VSA+1>
34.377449

>  <PEOE_VSA+2>
28.780554

>  <PEOE_VSA+3>
8.6190128

>  <PEOE_VSA+4>
10.324173

>  <PEOE_VSA+5>
40.607563

>  <PEOE_VSA+6>
0

>  <PEOE_VSA-0>
68.49794

>  <PEOE_VSA-1>
77.231918

>  <PEOE_VSA-2>
19.760618

>  <PEOE_VSA-3>
0

>  <PEOE_VSA-4>
0

>  <PEOE_VSA-5>
40.700764

>  <PEOE_VSA-6>
13.80679

>  <PEOE_VSA_FHYD>
0.7249198

>  <PEOE_VSA_FNEG>
0.57395214

>  <PEOE_VSA_FPNEG>
0.14220458

>  <PEOE_VSA_FPOL>
0.2750802

>  <PEOE_VSA_FPOS>
0.42604786

>  <PEOE_VSA_FPPOS>
0.13287564

>  <PEOE_VSA_HYD>
277.8645

>  <PEOE_VSA_NEG>
219.99803

>  <PEOE_VSA_PNEG>
54.507553

>  <PEOE_VSA_POL>
105.43929

>  <PEOE_VSA_POS>
163.30576

>  <PEOE_VSA_PPOS>
50.931732

>  <petitjean>
0.46153846

>  <petitjeanSC>
0.85714287

>  <Q_PC+>
0

>  <Q_PC->
0

>  <Q_RPC+>
0

>  <Q_RPC->
0

>  <Q_VSA_FHYD>
1

>  <Q_VSA_FNEG>
0

>  <Q_VSA_FPNEG>
0

>  <Q_VSA_FPOL>
0

>  <Q_VSA_FPOS>
1

>  <Q_VSA_FPPOS>
0

>  <Q_VSA_HYD>
383.3038

>  <Q_VSA_NEG>
0

>  <Q_VSA_PNEG>
0

>  <Q_VSA_POL>
0

>  <Q_VSA_POS>
383.3038

>  <Q_VSA_PPOS>
0

>  <radius>
7

>  <reactive>
0

>  <rings>
4

>  <RPC+>
0

>  <RPC->
0

>  <rsynth>
1

>  <SlogP>
2.5487199

>  <SlogP_VSA0>
18.01075

>  <SlogP_VSA1>
40.98394

>  <SlogP_VSA2>
58.035496

>  <SlogP_VSA3>
25.385227

>  <SlogP_VSA4>
32.496613

>  <SlogP_VSA5>
9.7341213

>  <SlogP_VSA6>
3.5006065

>  <SlogP_VSA7>
76.51506

>  <SlogP_VSA8>
0

>  <SlogP_VSA9>
171.34624

>  <SMR>
10.6669

>  <SMR_VSA0>
81.32077

>  <SMR_VSA1>
22.720911

>  <SMR_VSA2>
43.395977

>  <SMR_VSA3>
22.446068

>  <SMR_VSA4>
5.9423227

>  <SMR_VSA5>
70.572739

>  <SMR_VSA6>
18.263031

>  <SMR_VSA7>
171.34624

>  <TPSA>
112.74

>  <VAdjEq>
0.38828552

>  <VAdjMa>
6

>  <VDistEq>
3.4948199

>  <VDistMa>
9.4321089

>  <vdw_area>
383.3038

>  <vdw_vol>
502.43002

>  <vsa_acc>
38.019104

>  <vsa_acid>
0

>  <vsa_base>
0

>  <vsa_don>
5.6825762

>  <vsa_hyd>
238.51299

>  <vsa_other>
54.968441

>  <vsa_pol>
70.835518

>  <Weight>
435.888

>  <weinerPath>
2212

>  <weinerPol>
50

>  <zagreb>
164

$$$$