Fc1ccc(cc1)C1(CCC(N2C[C@@H](C)[C@@](CC2)(C(O)=O)c2ccccc2)CC1)C#N
  MOE2013           2D

 31 34  0  0  1  0  0  0  0  0999 V2000
    0.0000    0.0000    0.0000 F   0  0  0  0  0  0  0  0  0  0  0  0
   -1.5000   -0.0120    0.0000 C   0  0  0  0  0  0  0  0  0  0  0  0
   -2.2610    1.2810    0.0000 C   0  0  0  0  0  0  0  0  0  0  0  0
   -3.7600    1.2680    0.0000 C   0  0  0  0  0  0  0  0  0  0  0  0
   -4.5000   -0.0370    0.0000 C   0  0  0  0  0  0  0  0  0  0  0  0
   -3.7390   -1.3300    0.0000 C   0  0  0  0  0  0  0  0  0  0  0  0
   -2.2390   -1.3170    0.0000 C   0  0  0  0  0  0  0  0  0  0  0  0
   -6.0000   -0.0490    0.0000 C   0  0  0  0  0  0  0  0  0  0  0  0
   -5.9880   -1.5490    0.0000 C   0  0  0  0  0  0  0  0  0  0  0  0
   -7.2800   -2.3100    0.0000 C   0  0  0  0  0  0  0  0  0  0  0  0
   -8.5860   -1.5700    0.0000 C   0  0  0  0  0  0  0  0  0  0  0  0
   -9.8780   -2.3310    0.0000 N   0  0  3  0  0  0  0  0  0  0  0  0
   -9.8660   -3.8310    0.0000 C   0  0  0  0  0  0  0  0  0  0  0  0
  -11.1590   -4.5910    0.0000 C   0  0  1  0  0  0  0  0  0  0  0  0
  -11.1470   -6.0910    0.0000 C   0  0  0  0  0  0  0  0  0  0  0  0
  -12.4640   -3.8520    0.0000 C   0  0  1  0  0  0  0  0  0  0  0  0
  -12.4760   -2.3520    0.0000 C   0  0  0  0  0  0  0  0  0  0  0  0
  -11.1840   -1.5910    0.0000 C   0  0  0  0  0  0  0  0  0  0  0  0
  -13.2040   -5.1570    0.0000 C   0  0  0  0  0  0  0  0  0  0  0  0
  -14.7030   -5.1690    0.0000 O   0  0  0  0  0  0  0  0  0  0  0  0
  -12.4430   -6.4500    0.0000 O   0  0  0  0  0  0  0  0  0  0  0  0
  -13.8780   -3.3500    0.0000 C   0  0  0  0  0  0  0  0  0  0  0  0
  -13.8900   -1.8500    0.0000 C   0  0  0  0  0  0  0  0  0  0  0  0
  -15.1950   -1.1110    0.0000 C   0  0  0  0  0  0  0  0  0  0  0  0
  -16.4880   -1.8720    0.0000 C   0  0  0  0  0  0  0  0  0  0  0  0
  -16.4760   -3.3720    0.0000 C   0  0  0  0  0  0  0  0  0  0  0  0
  -15.1710   -4.1110    0.0000 C   0  0  0  0  0  0  0  0  0  0  0  0
   -8.5980   -0.0700    0.0000 C   0  0  0  0  0  0  0  0  0  0  0  0
   -7.3050    0.6900    0.0000 C   0  0  0  0  0  0  0  0  0  0  0  0
   -5.2600    1.2560    0.0000 C   0  0  0  0  0  0  0  0  0  0  0  0
   -4.5210    2.5610    0.0000 N   0  0  0  0  0  0  0  0  0  0  0  0
  1  2  1  0  0  0  0
  2  3  1  0  0  0  0
  2  7  2  0  0  0  0
  3  4  2  0  0  0  0
  4  5  1  0  0  0  0
  5  6  2  0  0  0  0
  5  8  1  0  0  0  0
  6  7  1  0  0  0  0
  8  9  1  0  0  0  0
  8 29  1  0  0  0  0
  8 30  1  0  0  0  0
  9 10  1  0  0  0  0
 10 11  1  0  0  0  0
 11 12  1  0  0  0  0
 11 28  1  0  0  0  0
 12 13  1  0  0  0  0
 12 18  1  0  0  0  0
 13 14  1  0  0  0  0
 14 15  1  1  0  0  0
 14 16  1  0  0  0  0
 16 17  1  0  0  0  0
 16 19  1  6  0  0  0
 16 22  1  1  0  0  0
 17 18  1  0  0  0  0
 19 20  1  0  0  0  0
 19 21  2  0  0  0  0
 22 23  1  0  0  0  0
 22 27  2  0  0  0  0
 23 24  2  0  0  0  0
 24 25  1  0  0  0  0
 25 26  2  0  0  0  0
 26 27  1  0  0  0  0
 28 29  1  0  0  0  0
 30 31  3  0  0  0  0
M  END
>  <Index>
1618

>  <ID>
HT1194

>  <class>
1

>  <apol>
69.458

>  <ast_fraglike>
0

>  <ast_fraglike_ext>
0

>  <ast_violation>
3

>  <ast_violation_ext>
4

>  <a_acc>
4

>  <a_acid>
0

>  <a_aro>
12

>  <a_base>
0

>  <a_count>
60

>  <a_don>
2

>  <a_donacc>
6

>  <a_heavy>
31

>  <a_hyd>
25

>  <a_IC>
87.320557

>  <a_ICM>
1.4553425

>  <a_nB>
0

>  <a_nBr>
0

>  <a_nC>
26

>  <a_nCl>
0

>  <a_nF>
1

>  <a_nH>
29

>  <a_nI>
0

>  <a_nN>
2

>  <a_nO>
2

>  <a_nP>
0

>  <a_nS>
0

>  <balabanJ>
1.3670434

>  <BCUT_PEOE_0>
-2.8669107

>  <BCUT_PEOE_1>
-0.61617321

>  <BCUT_PEOE_2>
0.65281928

>  <BCUT_PEOE_3>
2.8287399

>  <BCUT_SLOGP_0>
-2.8961933

>  <BCUT_SLOGP_1>
-0.53807992

>  <BCUT_SLOGP_2>
0.76593107

>  <BCUT_SLOGP_3>
2.8468223

>  <BCUT_SMR_0>
-2.6065731

>  <BCUT_SMR_1>
-0.45460409

>  <BCUT_SMR_2>
0.79181391

>  <BCUT_SMR_3>
3.0826678

>  <bpol>
36.504002

>  <b_1rotN>
4

>  <b_1rotR>
0.11764706

>  <b_ar>
12

>  <b_count>
63

>  <b_double>
1

>  <b_heavy>
34

>  <b_max1len>
3

>  <b_rotN>
5

>  <b_rotR>
0.14705883

>  <b_single>
49

>  <b_triple>
1

>  <chi0>
22.062267

>  <chi0v>
17.928453

>  <chi0v_C>
15.8006

>  <chi0_C>
17.484917

>  <chi1>
14.909487

>  <chi1v>
11.114455

>  <chi1v_C>
9.383481

>  <chi1_C>
11.320499

>  <chiral>
2

>  <chiral_u>
0

>  <density>
0.71299225

>  <diameter>
16

>  <FCharge>
0

>  <GCUT_PEOE_0>
-0.85528177

>  <GCUT_PEOE_1>
-0.40338999

>  <GCUT_PEOE_2>
0.080607265

>  <GCUT_PEOE_3>
3.1000679

>  <GCUT_SLOGP_0>
-0.95514804

>  <GCUT_SLOGP_1>
-0.2734108

>  <GCUT_SLOGP_2>
0.16445385

>  <GCUT_SLOGP_3>
3.140404

>  <GCUT_SMR_0>
-0.52710044

>  <GCUT_SMR_1>
-0.21605732

>  <GCUT_SMR_2>
0.19305076

>  <GCUT_SMR_3>
3.3379703

>  <Kier1>
24.134949

>  <Kier2>
10.092

>  <Kier3>
4.665741

>  <KierA1>
18.848694

>  <KierA2>
7.8124862

>  <KierA3>
3.5886469

>  <KierFlex>
4.7501664

>  <lip_acc>
4

>  <lip_don>
1

>  <lip_druglike>
1

>  <lip_violation>
0

>  <logP(o/w)>
6.1919999

>  <logS>
-5.0236702

>  <mr>
12.085408

>  <mutagenic>
0

>  <nmol>
1

>  <opr_brigid>
24

>  <opr_leadlike>
1

>  <opr_nring>
4

>  <opr_nrot>
9

>  <opr_violation>
1

>  <PC+>
0

>  <PC->
0

>  <PEOE_PC+>
2.03704

>  <PEOE_PC->
-2.03704

>  <PEOE_RPC+>
0.13280182

>  <PEOE_RPC->
0.16229138

>  <PEOE_VSA+0>
110.57294

>  <PEOE_VSA+1>
58.687981

>  <PEOE_VSA+2>
9.0208454

>  <PEOE_VSA+3>
0

>  <PEOE_VSA+4>
10.324173

>  <PEOE_VSA+5>
14.708499

>  <PEOE_VSA+6>
0

>  <PEOE_VSA-0>
72.433456

>  <PEOE_VSA-1>
104.53201

>  <PEOE_VSA-2>
0

>  <PEOE_VSA-3>
17.742489

>  <PEOE_VSA-4>
11.908636

>  <PEOE_VSA-5>
13.566921

>  <PEOE_VSA-6>
7.7675405

>  <PEOE_VSA_FHYD>
0.86487263

>  <PEOE_VSA_FNEG>
0.52856314

>  <PEOE_VSA_FPNEG>
0.077082671

>  <PEOE_VSA_FPOL>
0.13512737

>  <PEOE_VSA_FPOS>
0.47143686

>  <PEOE_VSA_FPPOS>
0.058044691

>  <PEOE_VSA_HYD>
372.98972

>  <PEOE_VSA_NEG>
227.95105

>  <PEOE_VSA_PNEG>
33.243095

>  <PEOE_VSA_POL>
58.275768

>  <PEOE_VSA_POS>
203.31444

>  <PEOE_VSA_PPOS>
25.032671

>  <petitjean>
0.5

>  <petitjeanSC>
1

>  <Q_PC+>
0

>  <Q_PC->
0

>  <Q_RPC+>
0

>  <Q_RPC->
0

>  <Q_VSA_FHYD>
1

>  <Q_VSA_FNEG>
0

>  <Q_VSA_FPNEG>
0

>  <Q_VSA_FPOL>
0

>  <Q_VSA_FPOS>
1

>  <Q_VSA_FPPOS>
0

>  <Q_VSA_HYD>
431.26547

>  <Q_VSA_NEG>
0

>  <Q_VSA_PNEG>
0

>  <Q_VSA_POL>
0

>  <Q_VSA_POS>
431.26547

>  <Q_VSA_PPOS>
0

>  <radius>
8

>  <reactive>
0

>  <rings>
4

>  <RPC+>
0

>  <RPC->
0

>  <rsynth>
0.25806451

>  <SlogP>
4.894084

>  <SlogP_VSA0>
0

>  <SlogP_VSA1>
10.869778

>  <SlogP_VSA2>
36.965202

>  <SlogP_VSA3>
109.92548

>  <SlogP_VSA4>
10.781946

>  <SlogP_VSA5>
0

>  <SlogP_VSA6>
0

>  <SlogP_VSA7>
158.78867

>  <SlogP_VSA8>
94.342026

>  <SlogP_VSA9>
48.286129

>  <SMR>
11.70568

>  <SMR_VSA0>
23.862217

>  <SMR_VSA1>
49.143784

>  <SMR_VSA2>
38.917042

>  <SMR_VSA3>
26.954865

>  <SMR_VSA4>
0

>  <SMR_VSA5>
253.13069

>  <SMR_VSA6>
44.624619

>  <SMR_VSA7>
33.326015

>  <TPSA>
64.330002

>  <VAdjEq>
0.36875206

>  <VAdjMa>
6.0874629

>  <VDistEq>
3.7071435

>  <VDistMa>
9.5962992

>  <vdw_area>
431.26547

>  <vdw_vol>
589.80725

>  <vsa_acc>
17.742489

>  <vsa_acid>
0

>  <vsa_base>
0

>  <vsa_don>
0

>  <vsa_hyd>
325.58102

>  <vsa_other>
35.008007

>  <vsa_pol>
44.876331

>  <Weight>
420.52798

>  <weinerPath>
2806

>  <weinerPol>
59

>  <zagreb>
168

$$$$