N1(CCC(CC1)=C1c2c(C=Cc3c1cccc3)cccc2)C
  MOE2013           2D

 22 25  0  0  0  0  0  0  0  0999 V2000
    0.0000    0.0000    0.0000 N   0  0  0  0  0  0  0  0  0  0  0  0
   -0.7500   -1.2990    0.0000 C   0  0  0  0  0  0  0  0  0  0  0  0
   -2.2500   -1.2990    0.0000 C   0  0  0  0  0  0  0  0  0  0  0  0
   -3.0000    0.0000    0.0000 C   0  0  0  0  0  0  0  0  0  0  0  0
   -2.2500    1.2990    0.0000 C   0  0  0  0  0  0  0  0  0  0  0  0
   -0.7500    1.2990    0.0000 C   0  0  0  0  0  0  0  0  0  0  0  0
   -4.5000    0.0000    0.0000 C   0  0  0  0  0  0  0  0  0  0  0  0
   -5.1520   -1.3510    0.0000 C   0  0  0  0  0  0  0  0  0  0  0  0
   -6.6140   -1.6850    0.0000 C   0  0  0  0  0  0  0  0  0  0  0  0
   -7.7870   -0.7500    0.0000 C   0  0  0  0  0  0  0  0  0  0  0  0
   -7.7890    0.7500    0.0000 C   0  0  0  0  0  0  0  0  0  0  0  0
   -6.6140    1.6840    0.0000 C   0  0  0  0  0  0  0  0  0  0  0  0
   -5.1520    1.3510    0.0000 C   0  0  0  0  0  0  0  0  0  0  0  0
   -4.1320    2.4500    0.0000 C   0  0  0  0  0  0  0  0  0  0  0  0
   -4.5740    3.8840    0.0000 C   0  0  0  0  0  0  0  0  0  0  0  0
   -6.0370    4.2170    0.0000 C   0  0  0  0  0  0  0  0  0  0  0  0
   -7.0570    3.1170    0.0000 C   0  0  0  0  0  0  0  0  0  0  0  0
   -7.0560   -3.1180    0.0000 C   0  0  0  0  0  0  0  0  0  0  0  0
   -6.0360   -4.2180    0.0000 C   0  0  0  0  0  0  0  0  0  0  0  0
   -4.5740   -3.8840    0.0000 C   0  0  0  0  0  0  0  0  0  0  0  0
   -4.1310   -2.4510    0.0000 C   0  0  0  0  0  0  0  0  0  0  0  0
    1.5000    0.0000    0.0000 C   0  0  0  0  0  0  0  0  0  0  0  0
  1  2  1  0  0  0  0
  1  6  1  0  0  0  0
  1 22  1  0  0  0  0
  2  3  1  0  0  0  0
  3  4  1  0  0  0  0
  4  5  1  0  0  0  0
  4  7  2  3  0  0  0
  5  6  1  0  0  0  0
  7  8  1  0  0  0  0
  7 13  1  0  0  0  0
  8  9  1  0  0  0  0
  8 21  2  0  0  0  0
  9 10  1  0  0  0  0
  9 18  2  0  0  0  0
 10 11  2  0  0  0  0
 11 12  1  0  0  0  0
 12 13  1  0  0  0  0
 12 17  2  0  0  0  0
 13 14  2  0  0  0  0
 14 15  1  0  0  0  0
 15 16  2  0  0  0  0
 16 17  1  0  0  0  0
 18 19  1  0  0  0  0
 19 20  2  0  0  0  0
 20 21  1  0  0  0  0
M  END
>  <Index>
1513

>  <ID>
HT0575

>  <class>
1

>  <apol>
52.062653

>  <ast_fraglike>
0

>  <ast_fraglike_ext>
0

>  <ast_violation>
1

>  <ast_violation_ext>
1

>  <a_acc>
1

>  <a_acid>
0

>  <a_aro>
12

>  <a_base>
0

>  <a_count>
43

>  <a_don>
0

>  <a_donacc>
1

>  <a_heavy>
22

>  <a_hyd>
21

>  <a_IC>
48.852055

>  <a_ICM>
1.1360942

>  <a_nB>
0

>  <a_nBr>
0

>  <a_nC>
21

>  <a_nCl>
0

>  <a_nF>
0

>  <a_nH>
21

>  <a_nI>
0

>  <a_nN>
1

>  <a_nO>
0

>  <a_nP>
0

>  <a_nS>
0

>  <balabanJ>
1.5936897

>  <BCUT_PEOE_0>
-2.719295

>  <BCUT_PEOE_1>
-0.53039742

>  <BCUT_PEOE_2>
0.59294623

>  <BCUT_PEOE_3>
2.6289387

>  <BCUT_SLOGP_0>
-2.7418923

>  <BCUT_SLOGP_1>
-0.42984164

>  <BCUT_SLOGP_2>
0.69125295

>  <BCUT_SLOGP_3>
2.6661305

>  <BCUT_SMR_0>
-2.4355936

>  <BCUT_SMR_1>
-0.40237349

>  <BCUT_SMR_2>
0.7282846

>  <BCUT_SMR_3>
2.9093044

>  <bpol>
24.937347

>  <b_1rotN>
0

>  <b_1rotR>
0

>  <b_ar>
12

>  <b_count>
46

>  <b_double>
2

>  <b_heavy>
25

>  <b_max1len>
2

>  <b_rotN>
0

>  <b_rotR>
0

>  <b_single>
32

>  <b_triple>
0

>  <chi0>
14.940947

>  <chi0v>
13.049144

>  <chi0v_C>
12.60193

>  <chi0_C>
14.363597

>  <chi1>
10.8265

>  <chi1v>
8.1021605

>  <chi1v_C>
7.022491

>  <chi1_C>
9.4326534

>  <chiral>
0

>  <chiral_u>
0

>  <density>
0.65021956

>  <diameter>
9

>  <FCharge>
0

>  <GCUT_PEOE_0>
-0.85852575

>  <GCUT_PEOE_1>
-0.34196097

>  <GCUT_PEOE_2>
0.060647137

>  <GCUT_PEOE_3>
2.7646155

>  <GCUT_SLOGP_0>
-0.95211732

>  <GCUT_SLOGP_1>
-0.27294347

>  <GCUT_SLOGP_2>
0.1404313

>  <GCUT_SLOGP_3>
2.88764

>  <GCUT_SMR_0>
-0.51357502

>  <GCUT_SMR_1>
-0.18543972

>  <GCUT_SMR_2>
0.16025594

>  <GCUT_SMR_3>
3.0634098

>  <Kier1>
15.5232

>  <Kier2>
6.8571429

>  <Kier3>
3.1653478

>  <KierA1>
11.409105

>  <KierA2>
4.9597645

>  <KierA3>
2.2629981

>  <KierFlex>
2.5721126

>  <lip_acc>
1

>  <lip_don>
0

>  <lip_druglike>
1

>  <lip_violation>
0

>  <logP(o/w)>
4.809

>  <logS>
-4.0636902

>  <mr>
9.1652937

>  <mutagenic>
0

>  <nmol>
1

>  <opr_brigid>
24

>  <opr_leadlike>
1

>  <opr_nring>
4

>  <opr_nrot>
2

>  <opr_violation>
1

>  <PC+>
0

>  <PC->
0

>  <PEOE_PC+>
1.0440087

>  <PEOE_PC->
-1.0440087

>  <PEOE_RPC+>
0.059750367

>  <PEOE_RPC->
0.29188582

>  <PEOE_VSA+0>
73.303894

>  <PEOE_VSA+1>
42.653858

>  <PEOE_VSA+2>
0

>  <PEOE_VSA+3>
0

>  <PEOE_VSA+4>
0

>  <PEOE_VSA+5>
0

>  <PEOE_VSA+6>
0

>  <PEOE_VSA-0>
51.684013

>  <PEOE_VSA-1>
124.75758

>  <PEOE_VSA-2>
0

>  <PEOE_VSA-3>
0

>  <PEOE_VSA-4>
0

>  <PEOE_VSA-5>
0

>  <PEOE_VSA-6>
0

>  <PEOE_VSA_FHYD>
1

>  <PEOE_VSA_FNEG>
0.60342675

>  <PEOE_VSA_FPNEG>
0

>  <PEOE_VSA_FPOL>
0

>  <PEOE_VSA_FPOS>
0.39657325

>  <PEOE_VSA_FPPOS>
0

>  <PEOE_VSA_HYD>
292.39935

>  <PEOE_VSA_NEG>
176.44159

>  <PEOE_VSA_PNEG>
0

>  <PEOE_VSA_POL>
0

>  <PEOE_VSA_POS>
115.95776

>  <PEOE_VSA_PPOS>
0

>  <petitjean>
0.44444445

>  <petitjeanSC>
0.80000001

>  <Q_PC+>
0

>  <Q_PC->
0

>  <Q_RPC+>
0

>  <Q_RPC->
0

>  <Q_VSA_FHYD>
1

>  <Q_VSA_FNEG>
0

>  <Q_VSA_FPNEG>
0

>  <Q_VSA_FPOL>
0

>  <Q_VSA_FPOS>
1

>  <Q_VSA_FPPOS>
0

>  <Q_VSA_HYD>
292.39935

>  <Q_VSA_NEG>
0

>  <Q_VSA_PNEG>
0

>  <Q_VSA_POL>
0

>  <Q_VSA_POS>
292.39935

>  <Q_VSA_PPOS>
0

>  <radius>
5

>  <reactive>
0

>  <rings>
4

>  <RPC+>
0

>  <RPC->
0

>  <rsynth>
1

>  <SlogP>
4.5151901

>  <SlogP_VSA0>
0

>  <SlogP_VSA1>
3.1243138

>  <SlogP_VSA2>
0

>  <SlogP_VSA3>
40.064732

>  <SlogP_VSA4>
12.7423

>  <SlogP_VSA5>
36.082764

>  <SlogP_VSA6>
0

>  <SlogP_VSA7>
141.14548

>  <SlogP_VSA8>
73.023178

>  <SlogP_VSA9>
0

>  <SMR>
9.3502998

>  <SMR_VSA0>
0

>  <SMR_VSA1>
3.1243138

>  <SMR_VSA2>
3.185575

>  <SMR_VSA3>
15.927875

>  <SMR_VSA4>
0

>  <SMR_VSA5>
178.88228

>  <SMR_VSA6>
72.165527

>  <SMR_VSA7>
32.897186

>  <TPSA>
3.24

>  <VAdjEq>
0.47938794

>  <VAdjMa>
5.643856

>  <VDistEq>
2.9295075

>  <VDistMa>
8.6701803

>  <vdw_area>
292.39935

>  <vdw_vol>
442.01373

>  <vsa_acc>
0

>  <vsa_acid>
0

>  <vsa_base>
0

>  <vsa_don>
0

>  <vsa_hyd>
277.45166

>  <vsa_other>
0

>  <vsa_pol>
0

>  <Weight>
287.40601

>  <weinerPath>
928

>  <weinerPol>
40

>  <zagreb>
120

$$$$