Ic1c(C(=O)N(CC(O)CO)C)c(I)c(NC(=O)COC)c(I)c1C(=O)NCC(O)CO
  MOE2013           2D

 32 32  0  0  1  0  0  0  0  0999 V2000
    0.0000    0.0000    0.0000 I   0  0  0  0  0  0  0  0  0  0  0  0
   -0.7550   -1.2960    0.0000 C   0  0  0  0  0  0  0  0  0  0  0  0
   -0.0110   -2.5980    0.0000 C   0  0  0  0  0  0  0  0  0  0  0  0
    1.4890   -2.6040    0.0000 C   0  0  0  0  0  0  0  0  0  0  0  0
    2.2340   -3.9070    0.0000 O   0  0  0  0  0  0  0  0  0  0  0  0
    2.2450   -1.3080    0.0000 N   0  0  0  0  0  0  0  0  0  0  0  0
    3.7450   -1.3150    0.0000 C   0  0  0  0  0  0  0  0  0  0  0  0
    4.5000   -0.0190    0.0000 C   0  0  3  0  0  0  0  0  0  0  0  0
    3.7550    1.2830    0.0000 O   0  0  0  0  0  0  0  0  0  0  0  0
    6.0000   -0.0250    0.0000 C   0  0  0  0  0  0  0  0  0  0  0  0
    6.7550    1.2710    0.0000 O   0  0  0  0  0  0  0  0  0  0  0  0
    1.5000   -0.0060    0.0000 C   0  0  0  0  0  0  0  0  0  0  0  0
   -0.7660   -3.8940    0.0000 C   0  0  0  0  0  0  0  0  0  0  0  0
   -0.0220   -5.1960    0.0000 I   0  0  0  0  0  0  0  0  0  0  0  0
   -2.2660   -3.8880    0.0000 C   0  0  0  0  0  0  0  0  0  0  0  0
   -3.0220   -5.1840    0.0000 N   0  0  0  0  0  0  0  0  0  0  0  0
   -4.5220   -5.1770    0.0000 C   0  0  0  0  0  0  0  0  0  0  0  0
   -5.2660   -3.8750    0.0000 O   0  0  0  0  0  0  0  0  0  0  0  0
   -5.2770   -6.4730    0.0000 C   0  0  0  0  0  0  0  0  0  0  0  0
   -6.7770   -6.4670    0.0000 O   0  0  0  0  0  0  0  0  0  0  0  0
   -7.5330   -7.7630    0.0000 C   0  0  0  0  0  0  0  0  0  0  0  0
   -3.0110   -2.5850    0.0000 C   0  0  0  0  0  0  0  0  0  0  0  0
   -4.5110   -2.5790    0.0000 I   0  0  0  0  0  0  0  0  0  0  0  0
   -2.2550   -1.2900    0.0000 C   0  0  0  0  0  0  0  0  0  0  0  0
   -3.0000    0.0130    0.0000 C   0  0  0  0  0  0  0  0  0  0  0  0
   -2.2450    1.3080    0.0000 O   0  0  0  0  0  0  0  0  0  0  0  0
   -4.5000    0.0190    0.0000 N   0  0  0  0  0  0  0  0  0  0  0  0
   -5.2450    1.3210    0.0000 C   0  0  0  0  0  0  0  0  0  0  0  0
   -6.7440    1.3270    0.0000 C   0  0  3  0  0  0  0  0  0  0  0  0
   -7.5000    0.0310    0.0000 O   0  0  0  0  0  0  0  0  0  0  0  0
   -7.4890    2.6300    0.0000 C   0  0  0  0  0  0  0  0  0  0  0  0
   -8.9890    2.6360    0.0000 O   0  0  0  0  0  0  0  0  0  0  0  0
  1  2  1  0  0  0  0
  2  3  1  0  0  0  0
  2 24  2  0  0  0  0
  3  4  1  0  0  0  0
  3 13  2  0  0  0  0
  4  5  2  0  0  0  0
  4  6  1  0  0  0  0
  6  7  1  0  0  0  0
  6 12  1  0  0  0  0
  7  8  1  0  0  0  0
  8  9  1  0  0  0  0
  8 10  1  0  0  0  0
 10 11  1  0  0  0  0
 13 14  1  0  0  0  0
 13 15  1  0  0  0  0
 15 16  1  0  0  0  0
 15 22  2  0  0  0  0
 16 17  1  0  0  0  0
 17 18  2  0  0  0  0
 17 19  1  0  0  0  0
 19 20  1  0  0  0  0
 20 21  1  0  0  0  0
 22 23  1  0  0  0  0
 22 24  1  0  0  0  0
 24 25  1  0  0  0  0
 25 26  2  0  0  0  0
 25 27  1  0  0  0  0
 27 28  1  0  0  0  0
 28 29  1  0  0  0  0
 29 30  1  0  0  0  0
 29 31  1  0  0  0  0
 31 32  1  0  0  0  0
M  END
>  <Index>
1605

>  <ID>
HT1114

>  <class>
1

>  <apol>
73.449036

>  <ast_fraglike>
0

>  <ast_fraglike_ext>
0

>  <ast_violation>
3

>  <ast_violation_ext>
5

>  <a_acc>
8

>  <a_acid>
0

>  <a_aro>
6

>  <a_base>
0

>  <a_count>
56

>  <a_don>
6

>  <a_donacc>
14

>  <a_heavy>
32

>  <a_hyd>
18

>  <a_IC>
106.60435

>  <a_ICM>
1.9036491

>  <a_nB>
0

>  <a_nBr>
0

>  <a_nC>
18

>  <a_nCl>
0

>  <a_nF>
0

>  <a_nH>
24

>  <a_nI>
3

>  <a_nN>
3

>  <a_nO>
8

>  <a_nP>
0

>  <a_nS>
0

>  <balabanJ>
3.1742318

>  <BCUT_PEOE_0>
-2.5903313

>  <BCUT_PEOE_1>
-0.53978223

>  <BCUT_PEOE_2>
0.59173256

>  <BCUT_PEOE_3>
2.5740874

>  <BCUT_SLOGP_0>
-2.7574668

>  <BCUT_SLOGP_1>
-0.55997318

>  <BCUT_SLOGP_2>
0.54330033

>  <BCUT_SLOGP_3>
2.4273183

>  <BCUT_SMR_0>
-2.3428049

>  <BCUT_SMR_1>
-0.36519068

>  <BCUT_SMR_2>
0.77635533

>  <BCUT_SMR_3>
2.8197429

>  <bpol>
45.09697

>  <b_1rotN>
12

>  <b_1rotR>
0.375

>  <b_ar>
6

>  <b_count>
56

>  <b_double>
3

>  <b_heavy>
32

>  <b_max1len>
7

>  <b_rotN>
14

>  <b_rotR>
0.4375

>  <b_single>
47

>  <b_triple>
0

>  <chi0>
24.585058

>  <chi0v>
23.665684

>  <chi0v_C>
11.190234

>  <chi0_C>
11.886387

>  <chi1>
14.991708

>  <chi1v>
12.338491

>  <chi1v_C>
3.9865465

>  <chi1_C>
4.7079082

>  <chiral>
2

>  <chiral_u>
2

>  <density>
1.2791268

>  <diameter>
14

>  <FCharge>
0

>  <GCUT_PEOE_0>
-0.84528029

>  <GCUT_PEOE_1>
-0.44307622

>  <GCUT_PEOE_2>
0.10867251

>  <GCUT_PEOE_3>
2.6427195

>  <GCUT_SLOGP_0>
-1.1615261

>  <GCUT_SLOGP_1>
-0.45125154

>  <GCUT_SLOGP_2>
0.019433057

>  <GCUT_SLOGP_3>
2.6390529

>  <GCUT_SMR_0>
-0.52270621

>  <GCUT_SMR_1>
-0.21105041

>  <GCUT_SMR_2>
0.27813217

>  <GCUT_SMR_3>
2.9890516

>  <Kier1>
30.03125

>  <Kier2>
14.411157

>  <Kier3>
8.3227043

>  <KierA1>
32.958584

>  <KierA2>
15.863726

>  <KierA3>
9.1810741

>  <KierFlex>
16.338934

>  <lip_acc>
11

>  <lip_don>
6

>  <lip_druglike>
0

>  <lip_violation>
3

>  <logP(o/w)>
0.80800003

>  <logS>
-4.0802798

>  <mr>
14.294416

>  <mutagenic>
0

>  <nmol>
1

>  <opr_brigid>
6

>  <opr_leadlike>
0

>  <opr_nring>
1

>  <opr_nrot>
11

>  <opr_violation>
4

>  <PC+>
0

>  <PC->
0

>  <PEOE_PC+>
3.873661

>  <PEOE_PC->
-3.873661

>  <PEOE_RPC+>
0.066218749

>  <PEOE_RPC->
0.10130094

>  <PEOE_VSA+0>
90.457245

>  <PEOE_VSA+1>
120.89005

>  <PEOE_VSA+2>
14.951293

>  <PEOE_VSA+3>
17.238026

>  <PEOE_VSA+4>
41.296692

>  <PEOE_VSA+5>
38.848595

>  <PEOE_VSA+6>
0

>  <PEOE_VSA-0>
140.97005

>  <PEOE_VSA-1>
0

>  <PEOE_VSA-2>
0

>  <PEOE_VSA-3>
0

>  <PEOE_VSA-4>
0

>  <PEOE_VSA-5>
40.700764

>  <PEOE_VSA-6>
33.847698

>  <PEOE_VSA_FHYD>
0.71310526

>  <PEOE_VSA_FNEG>
0.39970019

>  <PEOE_VSA_FPNEG>
0.13825743

>  <PEOE_VSA_FPOL>
0.28689471

>  <PEOE_VSA_FPOS>
0.60029984

>  <PEOE_VSA_FPPOS>
0.14863728

>  <PEOE_VSA_HYD>
384.50665

>  <PEOE_VSA_NEG>
215.51851

>  <PEOE_VSA_PNEG>
74.548462

>  <PEOE_VSA_POL>
154.69374

>  <PEOE_VSA_POS>
323.68192

>  <PEOE_VSA_PPOS>
80.145287

>  <petitjean>
0.42857143

>  <petitjeanSC>
0.75

>  <Q_PC+>
0

>  <Q_PC->
0

>  <Q_RPC+>
0

>  <Q_RPC->
0

>  <Q_VSA_FHYD>
1

>  <Q_VSA_FNEG>
0

>  <Q_VSA_FPNEG>
0

>  <Q_VSA_FPOL>
0

>  <Q_VSA_FPOS>
1

>  <Q_VSA_FPPOS>
0

>  <Q_VSA_HYD>
539.20038

>  <Q_VSA_NEG>
0

>  <Q_VSA_PNEG>
0

>  <Q_VSA_POL>
0

>  <Q_VSA_POS>
539.20038

>  <Q_VSA_PPOS>
0

>  <radius>
8

>  <reactive>
0

>  <rings>
1

>  <RPC+>
0

>  <RPC->
0

>  <rsynth>
1

>  <SlogP>
-0.40650001

>  <SlogP_VSA0>
119.55166

>  <SlogP_VSA1>
36.911415

>  <SlogP_VSA2>
52.778332

>  <SlogP_VSA3>
99.657928

>  <SlogP_VSA4>
54.095581

>  <SlogP_VSA5>
68.281059

>  <SlogP_VSA6>
0

>  <SlogP_VSA7>
0

>  <SlogP_VSA8>
0

>  <SlogP_VSA9>
173.10277

>  <SMR>
14.05776

>  <SMR_VSA0>
82.58654

>  <SMR_VSA1>
104.66522

>  <SMR_VSA2>
22.989679

>  <SMR_VSA3>
19.308449

>  <SMR_VSA4>
20.767498

>  <SMR_VSA5>
0

>  <SMR_VSA6>
115.43428

>  <SMR_VSA7>
238.62708

>  <TPSA>
168.66

>  <VAdjEq>
0.33729008

>  <VAdjMa>
6

>  <VDistEq>
3.5392628

>  <VDistMa>
9.75068

>  <vdw_area>
539.20038

>  <vdw_vol>
618.48047

>  <vsa_acc>
43.204517

>  <vsa_acid>
0

>  <vsa_base>
0

>  <vsa_don>
11.365152

>  <vsa_hyd>
354.45633

>  <vsa_other>
38.848595

>  <vsa_pol>
108.83736

>  <Weight>
791.11499

>  <weinerPath>
2884

>  <weinerPol>
53

>  <zagreb>
152

$$$$