N(CCCN1c2c(cccc2)C(c2c1cccc2)(C)C)(C)C
  MOE2013           2D

 22 24  0  0  0  0  0  0  0  0999 V2000
    0.0000    0.0000    0.0000 N   0  0  0  0  0  0  0  0  0  0  0  0
   -1.5000    0.0070    0.0000 C   0  0  0  0  0  0  0  0  0  0  0  0
   -2.2560   -1.2880    0.0000 C   0  0  0  0  0  0  0  0  0  0  0  0
   -3.7560   -1.2800    0.0000 C   0  0  0  0  0  0  0  0  0  0  0  0
   -4.5130   -2.5760    0.0000 N   0  0  0  0  0  0  0  0  0  0  0  0
   -3.7690   -3.8780    0.0000 C   0  0  0  0  0  0  0  0  0  0  0  0
   -4.5260   -5.1740    0.0000 C   0  0  0  0  0  0  0  0  0  0  0  0
   -3.7820   -6.4760    0.0000 C   0  0  0  0  0  0  0  0  0  0  0  0
   -2.2820   -6.4840    0.0000 C   0  0  0  0  0  0  0  0  0  0  0  0
   -1.5260   -5.1890    0.0000 C   0  0  0  0  0  0  0  0  0  0  0  0
   -2.2690   -3.8860    0.0000 C   0  0  0  0  0  0  0  0  0  0  0  0
   -6.0260   -5.1660    0.0000 C   0  0  0  0  0  0  0  0  0  0  0  0
   -6.7690   -3.8630    0.0000 C   0  0  0  0  0  0  0  0  0  0  0  0
   -6.0130   -2.5680    0.0000 C   0  0  0  0  0  0  0  0  0  0  0  0
   -6.7560   -1.2650    0.0000 C   0  0  0  0  0  0  0  0  0  0  0  0
   -8.2560   -1.2580    0.0000 C   0  0  0  0  0  0  0  0  0  0  0  0
   -9.0130   -2.5530    0.0000 C   0  0  0  0  0  0  0  0  0  0  0  0
   -8.2690   -3.8560    0.0000 C   0  0  0  0  0  0  0  0  0  0  0  0
   -6.0330   -6.6660    0.0000 C   0  0  0  0  0  0  0  0  0  0  0  0
   -7.3290   -5.9100    0.0000 C   0  0  0  0  0  0  0  0  0  0  0  0
    0.7430   -1.3030    0.0000 C   0  0  0  0  0  0  0  0  0  0  0  0
    0.7560    1.2950    0.0000 C   0  0  0  0  0  0  0  0  0  0  0  0
  1  2  1  0  0  0  0
  1 21  1  0  0  0  0
  1 22  1  0  0  0  0
  2  3  1  0  0  0  0
  3  4  1  0  0  0  0
  4  5  1  0  0  0  0
  5  6  1  0  0  0  0
  5 14  1  0  0  0  0
  6  7  1  0  0  0  0
  6 11  2  0  0  0  0
  7  8  2  0  0  0  0
  7 12  1  0  0  0  0
  8  9  1  0  0  0  0
  9 10  2  0  0  0  0
 10 11  1  0  0  0  0
 12 13  1  0  0  0  0
 12 19  1  0  0  0  0
 12 20  1  0  0  0  0
 13 14  1  0  0  0  0
 13 18  2  0  0  0  0
 14 15  2  0  0  0  0
 15 16  1  0  0  0  0
 16 17  2  0  0  0  0
 17 18  1  0  0  0  0
M  END
>  <Index>
1531

>  <ID>
HT0677

>  <class>
1

>  <apol>
54.736618

>  <ast_fraglike>
0

>  <ast_fraglike_ext>
0

>  <ast_violation>
1

>  <ast_violation_ext>
2

>  <a_acc>
1

>  <a_acid>
0

>  <a_aro>
12

>  <a_base>
0

>  <a_count>
48

>  <a_don>
0

>  <a_donacc>
1

>  <a_heavy>
22

>  <a_hyd>
20

>  <a_IC>
57.428204

>  <a_ICM>
1.1964209

>  <a_nB>
0

>  <a_nBr>
0

>  <a_nC>
20

>  <a_nCl>
0

>  <a_nF>
0

>  <a_nH>
26

>  <a_nI>
0

>  <a_nN>
2

>  <a_nO>
0

>  <a_nP>
0

>  <a_nS>
0

>  <balabanJ>
1.7910557

>  <BCUT_PEOE_0>
-2.677887

>  <BCUT_PEOE_1>
-0.49180871

>  <BCUT_PEOE_2>
0.54110861

>  <BCUT_PEOE_3>
2.6082201

>  <BCUT_SLOGP_0>
-2.7110357

>  <BCUT_SLOGP_1>
-0.40497774

>  <BCUT_SLOGP_2>
0.6430884

>  <BCUT_SLOGP_3>
2.6975381

>  <BCUT_SMR_0>
-2.3882027

>  <BCUT_SMR_1>
-0.35054842

>  <BCUT_SMR_2>
0.68625247

>  <BCUT_SMR_3>
2.9073625

>  <bpol>
32.383381

>  <b_1rotN>
4

>  <b_1rotR>
0.16666667

>  <b_ar>
12

>  <b_count>
50

>  <b_double>
0

>  <b_heavy>
24

>  <b_max1len>
6

>  <b_rotN>
4

>  <b_rotR>
0.16666667

>  <b_single>
38

>  <b_triple>
0

>  <chi0>
15.742276

>  <chi0v>
14.13455

>  <chi0v_C>
13.240123

>  <chi0_C>
14.587576

>  <chi1>
10.514874

>  <chi1v>
8.1287966

>  <chi1v_C>
6.1547008

>  <chi1_C>
7.8770099

>  <chiral>
0

>  <chiral_u>
0

>  <density>
0.63844389

>  <diameter>
9

>  <FCharge>
0

>  <GCUT_PEOE_0>
-0.86397702

>  <GCUT_PEOE_1>
-0.34148702

>  <GCUT_PEOE_2>
-0.0068537625

>  <GCUT_PEOE_3>
2.8350708

>  <GCUT_SLOGP_0>
-0.95435917

>  <GCUT_SLOGP_1>
-0.25193471

>  <GCUT_SLOGP_2>
0.11948926

>  <GCUT_SLOGP_3>
2.9566045

>  <GCUT_SMR_0>
-0.52081901

>  <GCUT_SMR_1>
-0.17691691

>  <GCUT_SMR_2>
0.1426591

>  <GCUT_SMR_3>
3.1252658

>  <Kier1>
16.84375

>  <Kier2>
6.8571429

>  <Kier3>
3.2986112

>  <KierA1>
13.067566

>  <KierA2>
5.2507668

>  <KierA3>
2.5019979

>  <KierFlex>
3.1188517

>  <lip_acc>
2

>  <lip_don>
0

>  <lip_druglike>
1

>  <lip_violation>
0

>  <logP(o/w)>
5.3920002

>  <logS>
-4.4236798

>  <mr>
9.252285

>  <mutagenic>
0

>  <nmol>
1

>  <opr_brigid>
16

>  <opr_leadlike>
1

>  <opr_nring>
3

>  <opr_nrot>
4

>  <opr_violation>
0

>  <PC+>
0

>  <PC->
0

>  <PEOE_PC+>
1.1885402

>  <PEOE_PC->
-1.1885402

>  <PEOE_RPC+>
0.053292543

>  <PEOE_RPC->
0.25939432

>  <PEOE_VSA+0>
103.36838

>  <PEOE_VSA+1>
34.123089

>  <PEOE_VSA+2>
0

>  <PEOE_VSA+3>
0

>  <PEOE_VSA+4>
0

>  <PEOE_VSA+5>
0

>  <PEOE_VSA+6>
0

>  <PEOE_VSA-0>
97.297905

>  <PEOE_VSA-1>
111.02478

>  <PEOE_VSA-2>
0

>  <PEOE_VSA-3>
0

>  <PEOE_VSA-4>
0

>  <PEOE_VSA-5>
0

>  <PEOE_VSA-6>
0

>  <PEOE_VSA_FHYD>
1

>  <PEOE_VSA_FNEG>
0.60241228

>  <PEOE_VSA_FPNEG>
0

>  <PEOE_VSA_FPOL>
0

>  <PEOE_VSA_FPOS>
0.39758775

>  <PEOE_VSA_FPPOS>
0

>  <PEOE_VSA_HYD>
345.81415

>  <PEOE_VSA_NEG>
208.32268

>  <PEOE_VSA_PNEG>
0

>  <PEOE_VSA_POL>
0

>  <PEOE_VSA_POS>
137.49147

>  <PEOE_VSA_PPOS>
0

>  <petitjean>
0.44444445

>  <petitjeanSC>
0.80000001

>  <Q_PC+>
0

>  <Q_PC->
0

>  <Q_RPC+>
0

>  <Q_RPC->
0

>  <Q_VSA_FHYD>
1

>  <Q_VSA_FNEG>
0

>  <Q_VSA_FPNEG>
0

>  <Q_VSA_FPOL>
0

>  <Q_VSA_FPOS>
1

>  <Q_VSA_FPPOS>
0

>  <Q_VSA_HYD>
345.81415

>  <Q_VSA_NEG>
0

>  <Q_VSA_PNEG>
0

>  <Q_VSA_POL>
0

>  <Q_VSA_POS>
345.81415

>  <Q_VSA_PPOS>
0

>  <radius>
5

>  <reactive>
0

>  <rings>
3

>  <RPC+>
0

>  <RPC->
0

>  <rsynth>
1

>  <SlogP>
4.4157

>  <SlogP_VSA0>
3.1243138

>  <SlogP_VSA1>
3.1243138

>  <SlogP_VSA2>
0

>  <SlogP_VSA3>
36.879158

>  <SlogP_VSA4>
6.37115

>  <SlogP_VSA5>
65.794373

>  <SlogP_VSA6>
0

>  <SlogP_VSA7>
141.14548

>  <SlogP_VSA8>
18.868406

>  <SlogP_VSA9>
72.165527

>  <SMR>
9.5188999

>  <SMR_VSA0>
0

>  <SMR_VSA1>
3.1243138

>  <SMR_VSA2>
3.1243138

>  <SMR_VSA3>
6.37115

>  <SMR_VSA4>
5.513495

>  <SMR_VSA5>
160.01389

>  <SMR_VSA6>
36.879158

>  <SMR_VSA7>
132.44641

>  <TPSA>
6.48

>  <VAdjEq>
0.46637034

>  <VAdjMa>
5.5849624

>  <VDistEq>
3.0433009

>  <VDistMa>
8.6511908

>  <vdw_area>
345.81415

>  <vdw_vol>
461.18695

>  <vsa_acc>
0

>  <vsa_acid>
0

>  <vsa_base>
0

>  <vsa_don>
0

>  <vsa_hyd>
327.30746

>  <vsa_other>
0

>  <vsa_pol>
0

>  <Weight>
294.44199

>  <weinerPath>
973

>  <weinerPol>
39

>  <zagreb>
118

$$$$