S1c2c(N(c3c1cccc3)CCCN1CCN(CC1)CCO)cc(cc2)C(F)(F)F
  MOE2013           2D

 30 33  0  0  1  0  0  0  0  0999 V2000
    0.0000    0.0000    0.0000 S   0  0  0  0  0  0  0  0  0  0  0  0
   -0.7390   -1.3050    0.0000 C   0  0  0  0  0  0  0  0  0  0  0  0
    0.0220   -2.5980    0.0000 C   0  0  0  0  0  0  0  0  0  0  0  0
    1.5220   -2.5850    0.0000 N   0  0  3  0  0  0  0  0  0  0  0  0
    2.2610   -1.2800    0.0000 C   0  0  0  0  0  0  0  0  0  0  0  0
    1.5000    0.0130    0.0000 C   0  0  0  0  0  0  0  0  0  0  0  0
    2.2390    1.3180    0.0000 C   0  0  0  0  0  0  0  0  0  0  0  0
    3.7390    1.3300    0.0000 C   0  0  0  0  0  0  0  0  0  0  0  0
    4.5000    0.0380    0.0000 C   0  0  0  0  0  0  0  0  0  0  0  0
    3.7610   -1.2680    0.0000 C   0  0  0  0  0  0  0  0  0  0  0  0
    2.2830   -3.8780    0.0000 C   0  0  0  0  0  0  0  0  0  0  0  0
    3.7820   -3.8660    0.0000 C   0  0  0  0  0  0  0  0  0  0  0  0
    4.5430   -5.1580    0.0000 C   0  0  0  0  0  0  0  0  0  0  0  0
    6.0430   -5.1460    0.0000 N   0  0  0  0  0  0  0  0  0  0  0  0
    6.7820   -3.8410    0.0000 C   0  0  0  0  0  0  0  0  0  0  0  0
    8.2820   -3.8280    0.0000 C   0  0  0  0  0  0  0  0  0  0  0  0
    9.0430   -5.1210    0.0000 N   0  0  0  0  0  0  0  0  0  0  0  0
    8.3040   -6.4260    0.0000 C   0  0  0  0  0  0  0  0  0  0  0  0
    6.8040   -6.4380    0.0000 C   0  0  0  0  0  0  0  0  0  0  0  0
   10.5430   -5.1080    0.0000 C   0  0  0  0  0  0  0  0  0  0  0  0
   11.3040   -6.4010    0.0000 C   0  0  0  0  0  0  0  0  0  0  0  0
   12.8040   -6.3880    0.0000 O   0  0  0  0  0  0  0  0  0  0  0  0
   -0.7170   -3.9030    0.0000 C   0  0  0  0  0  0  0  0  0  0  0  0
   -2.2170   -3.9160    0.0000 C   0  0  0  0  0  0  0  0  0  0  0  0
   -2.9780   -2.6230    0.0000 C   0  0  0  0  0  0  0  0  0  0  0  0
   -2.2390   -1.3180    0.0000 C   0  0  0  0  0  0  0  0  0  0  0  0
   -2.9560   -5.2210    0.0000 C   0  0  0  0  0  0  0  0  0  0  0  0
   -4.2620   -4.4820    0.0000 F   0  0  0  0  0  0  0  0  0  0  0  0
   -1.6510   -5.9600    0.0000 F   0  0  0  0  0  0  0  0  0  0  0  0
   -3.6960   -6.5260    0.0000 F   0  0  0  0  0  0  0  0  0  0  0  0
  1  2  1  0  0  0  0
  1  6  1  0  0  0  0
  2  3  1  0  0  0  0
  2 26  2  0  0  0  0
  3  4  1  0  0  0  0
  3 23  2  0  0  0  0
  4  5  1  0  0  0  0
  4 11  1  0  0  0  0
  5  6  1  0  0  0  0
  5 10  2  0  0  0  0
  6  7  2  0  0  0  0
  7  8  1  0  0  0  0
  8  9  2  0  0  0  0
  9 10  1  0  0  0  0
 11 12  1  0  0  0  0
 12 13  1  0  0  0  0
 13 14  1  0  0  0  0
 14 15  1  0  0  0  0
 14 19  1  0  0  0  0
 15 16  1  0  0  0  0
 16 17  1  0  0  0  0
 17 18  1  0  0  0  0
 17 20  1  0  0  0  0
 18 19  1  0  0  0  0
 20 21  1  0  0  0  0
 21 22  1  0  0  0  0
 23 24  1  0  0  0  0
 24 25  2  0  0  0  0
 24 27  1  0  0  0  0
 25 26  1  0  0  0  0
 27 28  1  0  0  0  0
 27 29  1  0  0  0  0
 27 30  1  0  0  0  0
M  END
>  <Index>
1576

>  <ID>
HT0915

>  <class>
1

>  <apol>
64.729614

>  <ast_fraglike>
0

>  <ast_fraglike_ext>
0

>  <ast_violation>
2

>  <ast_violation_ext>
3

>  <a_acc>
3

>  <a_acid>
0

>  <a_aro>
12

>  <a_base>
0

>  <a_count>
56

>  <a_don>
1

>  <a_donacc>
4

>  <a_heavy>
30

>  <a_hyd>
26

>  <a_IC>
95.383171

>  <a_ICM>
1.7032709

>  <a_nB>
0

>  <a_nBr>
0

>  <a_nC>
22

>  <a_nCl>
0

>  <a_nF>
3

>  <a_nH>
26

>  <a_nI>
0

>  <a_nN>
3

>  <a_nO>
1

>  <a_nP>
0

>  <a_nS>
1

>  <balabanJ>
1.346352

>  <BCUT_PEOE_0>
-2.7987814

>  <BCUT_PEOE_1>
-0.61303371

>  <BCUT_PEOE_2>
0.64472109

>  <BCUT_PEOE_3>
2.6942267

>  <BCUT_SLOGP_0>
-2.9128623

>  <BCUT_SLOGP_1>
-0.47438219

>  <BCUT_SLOGP_2>
0.65632415

>  <BCUT_SLOGP_3>
2.6303654

>  <BCUT_SMR_0>
-2.5147822

>  <BCUT_SMR_1>
-0.41328284

>  <BCUT_SMR_2>
0.81235033

>  <BCUT_SMR_3>
2.9698191

>  <bpol>
40.25238

>  <b_1rotN>
6

>  <b_1rotR>
0.18181819

>  <b_ar>
12

>  <b_count>
59

>  <b_double>
0

>  <b_heavy>
33

>  <b_max1len>
4

>  <b_rotN>
7

>  <b_rotR>
0.21212122

>  <b_single>
47

>  <b_triple>
0

>  <chi0>
21.139618

>  <chi0v>
17.552906

>  <chi0v_C>
13.405413

>  <chi0_C>
14.700459

>  <chi1>
14.45284

>  <chi1v>
11.084111

>  <chi1v_C>
6.3153839

>  <chi1_C>
7.9048314

>  <chiral>
0

>  <chiral_u>
0

>  <density>
0.78921837

>  <diameter>
15

>  <FCharge>
0

>  <GCUT_PEOE_0>
-0.85830778

>  <GCUT_PEOE_1>
-0.38560665

>  <GCUT_PEOE_2>
0.03256692

>  <GCUT_PEOE_3>
2.82845

>  <GCUT_SLOGP_0>
-0.96576941

>  <GCUT_SLOGP_1>
-0.29981193

>  <GCUT_SLOGP_2>
0.22244243

>  <GCUT_SLOGP_3>
2.9057357

>  <GCUT_SMR_0>
-0.52268744

>  <GCUT_SMR_1>
-0.17800076

>  <GCUT_SMR_2>
0.18710527

>  <GCUT_SMR_3>
3.100153

>  <Kier1>
23.168043

>  <Kier2>
10.29244

>  <Kier3>
5.6887932

>  <KierA1>
19.991915

>  <KierA2>
8.8341236

>  <KierA3>
4.8643236

>  <KierFlex>
5.8870349

>  <lip_acc>
4

>  <lip_don>
1

>  <lip_druglike>
1

>  <lip_violation>
0

>  <logP(o/w)>
3.79776

>  <logS>
-4.7406001

>  <mr>
11.472607

>  <mutagenic>
0

>  <nmol>
1

>  <opr_brigid>
22

>  <opr_leadlike>
1

>  <opr_nring>
4

>  <opr_nrot>
8

>  <opr_violation>
1

>  <PC+>
0

>  <PC->
0

>  <PEOE_PC+>
2.1794446

>  <PEOE_PC->
-2.1794446

>  <PEOE_RPC+>
0.19154897

>  <PEOE_RPC->
0.18066399

>  <PEOE_VSA+0>
182.36075

>  <PEOE_VSA+1>
55.548306

>  <PEOE_VSA+2>
0

>  <PEOE_VSA+3>
0

>  <PEOE_VSA+4>
10.324173

>  <PEOE_VSA+5>
0

>  <PEOE_VSA+6>
9.0455017

>  <PEOE_VSA-0>
69.97583

>  <PEOE_VSA-1>
44.270424

>  <PEOE_VSA-2>
0

>  <PEOE_VSA-3>
35.725906

>  <PEOE_VSA-4>
0

>  <PEOE_VSA-5>
0

>  <PEOE_VSA-6>
7.7675405

>  <PEOE_VSA_FHYD>
0.93461204

>  <PEOE_VSA_FNEG>
0.38007879

>  <PEOE_VSA_FPNEG>
0.018716132

>  <PEOE_VSA_FPOL>
0.065387972

>  <PEOE_VSA_FPOS>
0.61992121

>  <PEOE_VSA_FPPOS>
0.046671841

>  <PEOE_VSA_HYD>
387.88123

>  <PEOE_VSA_NEG>
157.7397

>  <PEOE_VSA_PNEG>
7.7675405

>  <PEOE_VSA_POL>
27.137215

>  <PEOE_VSA_POS>
257.27875

>  <PEOE_VSA_PPOS>
19.369675

>  <petitjean>
0.46666667

>  <petitjeanSC>
0.875

>  <Q_PC+>
0

>  <Q_PC->
0

>  <Q_RPC+>
0

>  <Q_RPC->
0

>  <Q_VSA_FHYD>
1

>  <Q_VSA_FNEG>
0

>  <Q_VSA_FPNEG>
0

>  <Q_VSA_FPOL>
0

>  <Q_VSA_FPOS>
1

>  <Q_VSA_FPPOS>
0

>  <Q_VSA_HYD>
415.01843

>  <Q_VSA_NEG>
0

>  <Q_VSA_PNEG>
0

>  <Q_VSA_POL>
0

>  <Q_VSA_POS>
415.01843

>  <Q_VSA_PPOS>
0

>  <radius>
8

>  <reactive>
0

>  <rings>
4

>  <RPC+>
0

>  <RPC->
0

>  <rsynth>
1

>  <SlogP>
4.6195998

>  <SlogP_VSA0>
28.509541

>  <SlogP_VSA1>
6.2486277

>  <SlogP_VSA2>
0

>  <SlogP_VSA3>
150.00331

>  <SlogP_VSA4>
3.185575

>  <SlogP_VSA5>
3.1014678

>  <SlogP_VSA6>
7.7595162

>  <SlogP_VSA7>
123.50229

>  <SlogP_VSA8>
18.868406

>  <SlogP_VSA9>
82.613373

>  <SMR>
11.37158

>  <SMR_VSA0>
0

>  <SMR_VSA1>
76.514191

>  <SMR_VSA2>
13.985298

>  <SMR_VSA3>
3.185575

>  <SMR_VSA4>
5.513495

>  <SMR_VSA5>
142.3707

>  <SMR_VSA6>
150.00331

>  <SMR_VSA7>
32.21954

>  <TPSA>
29.950001

>  <VAdjEq>
0.37824166

>  <VAdjMa>
6.044394

>  <VDistEq>
3.6887107

>  <VDistMa>
9.5141916

>  <vdw_area>
415.01843

>  <vdw_vol>
554.38397

>  <vsa_acc>
0

>  <vsa_acid>
0

>  <vsa_base>
0

>  <vsa_don>
0

>  <vsa_hyd>
379.13184

>  <vsa_other>
0

>  <vsa_pol>
13.566921

>  <Weight>
437.53

>  <weinerPath>
2618

>  <weinerPol>
49

>  <zagreb>
160

$$$$