O(C)c1cc2c(cc(cc2)CCC(=O)C)cc1
  MOE2013           2D

 17 18  0  0  0  0  0  0  0  0999 V2000
    0.0000    0.0000    0.0000 O   0  0  0  0  0  0  0  0  0  0  0  0
    0.7420    1.3030    0.0000 C   0  0  0  0  0  0  0  0  0  0  0  0
   -1.5000   -0.0090    0.0000 C   0  0  0  0  0  0  0  0  0  0  0  0
   -2.2420   -1.3120    0.0000 C   0  0  0  0  0  0  0  0  0  0  0  0
   -3.7420   -1.3210    0.0000 C   0  0  0  0  0  0  0  0  0  0  0  0
   -4.5000   -0.0260    0.0000 C   0  0  0  0  0  0  0  0  0  0  0  0
   -6.0000   -0.0350    0.0000 C   0  0  0  0  0  0  0  0  0  0  0  0
   -6.7420   -1.3380    0.0000 C   0  0  0  0  0  0  0  0  0  0  0  0
   -5.9850   -2.6330    0.0000 C   0  0  0  0  0  0  0  0  0  0  0  0
   -4.4850   -2.6240    0.0000 C   0  0  0  0  0  0  0  0  0  0  0  0
   -8.2420   -1.3470    0.0000 C   0  0  0  0  0  0  0  0  0  0  0  0
   -8.9850   -2.6500    0.0000 C   0  0  0  0  0  0  0  0  0  0  0  0
  -10.4850   -2.6590    0.0000 C   0  0  0  0  0  0  0  0  0  0  0  0
  -11.2270   -3.9630    0.0000 O   0  0  0  0  0  0  0  0  0  0  0  0
  -11.2420   -1.3650    0.0000 C   0  0  0  0  0  0  0  0  0  0  0  0
   -3.7580    1.2770    0.0000 C   0  0  0  0  0  0  0  0  0  0  0  0
   -2.2580    1.2860    0.0000 C   0  0  0  0  0  0  0  0  0  0  0  0
  1  2  1  0  0  0  0
  1  3  1  0  0  0  0
  3  4  2  0  0  0  0
  3 17  1  0  0  0  0
  4  5  1  0  0  0  0
  5  6  1  0  0  0  0
  5 10  2  0  0  0  0
  6  7  2  0  0  0  0
  6 16  1  0  0  0  0
  7  8  1  0  0  0  0
  8  9  2  0  0  0  0
  8 11  1  0  0  0  0
  9 10  1  0  0  0  0
 11 12  1  0  0  0  0
 12 13  1  0  0  0  0
 13 14  2  0  0  0  0
 13 15  1  0  0  0  0
 16 17  2  0  0  0  0
M  END
>  <Index>
1663

>  <ID>
HT1447

>  <class>
1

>  <apol>
38.672688

>  <ast_fraglike>
0

>  <ast_fraglike_ext>
0

>  <ast_violation>
1

>  <ast_violation_ext>
2

>  <a_acc>
2

>  <a_acid>
0

>  <a_aro>
10

>  <a_base>
0

>  <a_count>
33

>  <a_don>
0

>  <a_donacc>
2

>  <a_heavy>
17

>  <a_hyd>
14

>  <a_IC>
41.861649

>  <a_ICM>
1.2685348

>  <a_nB>
0

>  <a_nBr>
0

>  <a_nC>
15

>  <a_nCl>
0

>  <a_nF>
0

>  <a_nH>
16

>  <a_nI>
0

>  <a_nN>
0

>  <a_nO>
2

>  <a_nP>
0

>  <a_nS>
0

>  <balabanJ>
1.7782995

>  <BCUT_PEOE_0>
-2.4584222

>  <BCUT_PEOE_1>
-0.58617449

>  <BCUT_PEOE_2>
0.44741899

>  <BCUT_PEOE_3>
2.4749813

>  <BCUT_SLOGP_0>
-2.4265659

>  <BCUT_SLOGP_1>
-0.53105372

>  <BCUT_SLOGP_2>
0.52749443

>  <BCUT_SLOGP_3>
2.5291622

>  <BCUT_SMR_0>
-2.2072961

>  <BCUT_SMR_1>
-0.3495771

>  <BCUT_SMR_2>
0.67764133

>  <BCUT_SMR_3>
2.7344222

>  <bpol>
20.365313

>  <b_1rotN>
4

>  <b_1rotR>
0.22222222

>  <b_ar>
11

>  <b_count>
34

>  <b_double>
1

>  <b_heavy>
18

>  <b_max1len>
5

>  <b_rotN>
4

>  <b_rotR>
0.22222222

>  <b_single>
22

>  <b_triple>
0

>  <chi0>
12.250712

>  <chi0v>
10.194812

>  <chi0v_C>
9.378315

>  <chi0_C>
10.543606

>  <chi1>
8.1858721

>  <chi1v>
5.749671

>  <chi1v_C>
4.9331746

>  <chi1_C>
6.4931664

>  <chiral>
0

>  <chiral_u>
0

>  <density>
0.68172354

>  <diameter>
11

>  <FCharge>
0

>  <GCUT_PEOE_0>
-0.78936958

>  <GCUT_PEOE_1>
-0.42884243

>  <GCUT_PEOE_2>
-0.02823361

>  <GCUT_PEOE_3>
2.4284029

>  <GCUT_SLOGP_0>
-0.88673663

>  <GCUT_SLOGP_1>
-0.30695269

>  <GCUT_SLOGP_2>
0.079536863

>  <GCUT_SLOGP_3>
2.5855238

>  <GCUT_SMR_0>
-0.50196379

>  <GCUT_SMR_1>
-0.20780252

>  <GCUT_SMR_2>
0.15728205

>  <GCUT_SMR_3>
2.7304916

>  <Kier1>
13.432098

>  <Kier2>
6.25

>  <Kier3>
3.7288942

>  <KierA1>
9.8559999

>  <KierA2>
4.4889998

>  <KierA3>
2.6327515

>  <KierFlex>
2.6025639

>  <lip_acc>
2

>  <lip_don>
0

>  <lip_druglike>
1

>  <lip_violation>
0

>  <logP(o/w)>
3.187

>  <logS>
-3.5688

>  <mr>
6.9476504

>  <mutagenic>
0

>  <nmol>
1

>  <opr_brigid>
11

>  <opr_leadlike>
1

>  <opr_nring>
2

>  <opr_nrot>
4

>  <opr_violation>
0

>  <PC+>
0

>  <PC->
0

>  <PEOE_PC+>
1.0210576

>  <PEOE_PC->
-1.0210576

>  <PEOE_RPC+>
0.12793639

>  <PEOE_RPC->
0.34071866

>  <PEOE_VSA+0>
63.556671

>  <PEOE_VSA+1>
46.846992

>  <PEOE_VSA+2>
8.458519

>  <PEOE_VSA+3>
0

>  <PEOE_VSA+4>
0

>  <PEOE_VSA+5>
0

>  <PEOE_VSA+6>
0

>  <PEOE_VSA-0>
58.584419

>  <PEOE_VSA-1>
49.019615

>  <PEOE_VSA-2>
0

>  <PEOE_VSA-3>
0

>  <PEOE_VSA-4>
0

>  <PEOE_VSA-5>
13.566921

>  <PEOE_VSA-6>
2.503756

>  <PEOE_VSA_FHYD>
0.93373924

>  <PEOE_VSA_FNEG>
0.50992119

>  <PEOE_VSA_FPNEG>
0.066260755

>  <PEOE_VSA_FPOL>
0.066260755

>  <PEOE_VSA_FPOS>
0.49007878

>  <PEOE_VSA_FPPOS>
0

>  <PEOE_VSA_HYD>
226.46622

>  <PEOE_VSA_NEG>
123.67471

>  <PEOE_VSA_PNEG>
16.070677

>  <PEOE_VSA_POL>
16.070677

>  <PEOE_VSA_POS>
118.86218

>  <PEOE_VSA_PPOS>
0

>  <petitjean>
0.45454547

>  <petitjeanSC>
0.83333331

>  <Q_PC+>
0

>  <Q_PC->
0

>  <Q_RPC+>
0

>  <Q_RPC->
0

>  <Q_VSA_FHYD>
1

>  <Q_VSA_FNEG>
0

>  <Q_VSA_FPNEG>
0

>  <Q_VSA_FPOL>
0

>  <Q_VSA_FPOS>
1

>  <Q_VSA_FPPOS>
0

>  <Q_VSA_HYD>
242.5369

>  <Q_VSA_NEG>
0

>  <Q_VSA_PNEG>
0

>  <Q_VSA_POL>
0

>  <Q_VSA_POS>
242.5369

>  <Q_VSA_PPOS>
0

>  <radius>
6

>  <reactive>
1

>  <rings>
2

>  <RPC+>
0

>  <RPC->
0

>  <rsynth>
0.05882353

>  <SlogP>
3.3699701

>  <SlogP_VSA0>
10.999887

>  <SlogP_VSA1>
5.6876111

>  <SlogP_VSA2>
23.862217

>  <SlogP_VSA3>
0

>  <SlogP_VSA4>
3.185575

>  <SlogP_VSA5>
54.252274

>  <SlogP_VSA6>
0

>  <SlogP_VSA7>
111.00504

>  <SlogP_VSA8>
18.868406

>  <SlogP_VSA9>
38.569443

>  <SMR>
6.9502001

>  <SMR_VSA0>
23.862217

>  <SMR_VSA1>
10.999887

>  <SMR_VSA2>
0

>  <SMR_VSA3>
8.4290028

>  <SMR_VSA4>
5.1459289

>  <SMR_VSA5>
143.59592

>  <SMR_VSA6>
5.6876111

>  <SMR_VSA7>
68.709885

>  <TPSA>
26.299999

>  <VAdjEq>
0.54234898

>  <VAdjMa>
5.1699252

>  <VDistEq>
3.159863

>  <VDistMa>
7.8337398

>  <vdw_area>
242.5369

>  <vdw_vol>
334.87326

>  <vsa_acc>
16.070677

>  <vsa_acid>
0

>  <vsa_base>
0

>  <vsa_don>
0

>  <vsa_hyd>
206.61897

>  <vsa_other>
8.458519

>  <vsa_pol>
16.070677

>  <Weight>
228.291

>  <weinerPath>
566

>  <weinerPol>
23

>  <zagreb>
84

$$$$