O=C1N(N(C(=O)C1CCC(=O)C)c1ccccc1)c1ccccc1
  MOE2013           2D

 24 26  0  0  0  0  0  0  0  0999 V2000
    0.0000    0.0000    0.0000 O   0  0  0  0  0  0  0  0  0  0  0  0
   -1.2590   -0.8160    0.0000 C   0  0  0  0  0  0  0  0  0  0  0  0
   -2.6590   -0.2770    0.0000 N   0  0  0  0  0  0  0  0  0  0  0  0
   -3.6040   -1.4410    0.0000 N   0  0  0  0  0  0  0  0  0  0  0  0
   -2.7880   -2.7000    0.0000 C   0  0  0  0  0  0  0  0  0  0  0  0
   -3.3270   -4.1000    0.0000 O   0  0  0  0  0  0  0  0  0  0  0  0
   -1.3390   -2.3140    0.0000 C   0  0  0  0  0  0  0  0  0  0  0  0
   -0.1740   -3.2590    0.0000 C   0  0  0  0  0  0  0  0  0  0  0  0
    1.2270   -2.7230    0.0000 C   0  0  0  0  0  0  0  0  0  0  0  0
    2.3910   -3.6680    0.0000 C   0  0  0  0  0  0  0  0  0  0  0  0
    3.7920   -3.1320    0.0000 O   0  0  0  0  0  0  0  0  0  0  0  0
    2.1550   -5.1490    0.0000 C   0  0  0  0  0  0  0  0  0  0  0  0
   -5.1020   -1.3610    0.0000 C   0  0  0  0  0  0  0  0  0  0  0  0
   -5.9200   -2.6180    0.0000 C   0  0  0  0  0  0  0  0  0  0  0  0
   -7.4180   -2.5380    0.0000 C   0  0  0  0  0  0  0  0  0  0  0  0
   -8.0970   -1.2010    0.0000 C   0  0  0  0  0  0  0  0  0  0  0  0
   -7.2790    0.0560    0.0000 C   0  0  0  0  0  0  0  0  0  0  0  0
   -5.7810   -0.0240    0.0000 C   0  0  0  0  0  0  0  0  0  0  0  0
   -3.0450    1.1730    0.0000 C   0  0  0  0  0  0  0  0  0  0  0  0
   -1.9840    2.2320    0.0000 C   0  0  0  0  0  0  0  0  0  0  0  0
   -2.3700    3.6810    0.0000 C   0  0  0  0  0  0  0  0  0  0  0  0
   -3.8190    4.0710    0.0000 C   0  0  0  0  0  0  0  0  0  0  0  0
   -4.8810    3.0120    0.0000 C   0  0  0  0  0  0  0  0  0  0  0  0
   -4.4940    1.5620    0.0000 C   0  0  0  0  0  0  0  0  0  0  0  0
  1  2  2  0  0  0  0
  2  3  1  0  0  0  0
  2  7  1  0  0  0  0
  3  4  1  0  0  0  0
  3 19  1  0  0  0  0
  4  5  1  0  0  0  0
  4 13  1  0  0  0  0
  5  6  2  0  0  0  0
  5  7  1  0  0  0  0
  7  8  1  0  0  0  0
  8  9  1  0  0  0  0
  9 10  1  0  0  0  0
 10 11  2  0  0  0  0
 10 12  1  0  0  0  0
 13 14  1  0  0  0  0
 13 18  2  0  0  0  0
 14 15  2  0  0  0  0
 15 16  1  0  0  0  0
 16 17  2  0  0  0  0
 17 18  1  0  0  0  0
 19 20  1  0  0  0  0
 19 24  2  0  0  0  0
 20 21  2  0  0  0  0
 21 22  1  0  0  0  0
 22 23  2  0  0  0  0
 23 24  1  0  0  0  0
M  END
>  <Index>
1613

>  <ID>
HT1156

>  <class>
1

>  <apol>
50.048275

>  <ast_fraglike>
0

>  <ast_fraglike_ext>
0

>  <ast_violation>
1

>  <ast_violation_ext>
2

>  <a_acc>
3

>  <a_acid>
0

>  <a_aro>
12

>  <a_base>
0

>  <a_count>
42

>  <a_don>
0

>  <a_donacc>
3

>  <a_heavy>
24

>  <a_hyd>
16

>  <a_IC>
63.953171

>  <a_ICM>
1.5226946

>  <a_nB>
0

>  <a_nBr>
0

>  <a_nC>
19

>  <a_nCl>
0

>  <a_nF>
0

>  <a_nH>
18

>  <a_nI>
0

>  <a_nN>
2

>  <a_nO>
3

>  <a_nP>
0

>  <a_nS>
0

>  <balabanJ>
1.7773119

>  <BCUT_PEOE_0>
-2.4966919

>  <BCUT_PEOE_1>
-0.6093117

>  <BCUT_PEOE_2>
0.62992358

>  <BCUT_PEOE_3>
2.6710479

>  <BCUT_SLOGP_0>
-2.5227234

>  <BCUT_SLOGP_1>
-0.53807992

>  <BCUT_SLOGP_2>
0.71576506

>  <BCUT_SLOGP_3>
2.625859

>  <BCUT_SMR_0>
-2.2852955

>  <BCUT_SMR_1>
-0.40785593

>  <BCUT_SMR_2>
0.77827513

>  <BCUT_SMR_3>
2.9233453

>  <bpol>
25.191727

>  <b_1rotN>
5

>  <b_1rotR>
0.1923077

>  <b_ar>
12

>  <b_count>
44

>  <b_double>
3

>  <b_heavy>
26

>  <b_max1len>
6

>  <b_rotN>
5

>  <b_rotR>
0.1923077

>  <b_single>
29

>  <b_triple>
0

>  <chi0>
17.104084

>  <chi0v>
13.384238

>  <chi0v_C>
11.265066

>  <chi0_C>
12.949383

>  <chi1>
11.592224

>  <chi1v>
7.8673186

>  <chi1v_C>
6.1605191

>  <chi1_C>
8.1935062

>  <chiral>
0

>  <chiral_u>
0

>  <density>
0.73350865

>  <diameter>
10

>  <FCharge>
0

>  <GCUT_PEOE_0>
-0.83111084

>  <GCUT_PEOE_1>
-0.39292589

>  <GCUT_PEOE_2>
0.067291602

>  <GCUT_PEOE_3>
2.6535144

>  <GCUT_SLOGP_0>
-1.067979

>  <GCUT_SLOGP_1>
-0.33465093

>  <GCUT_SLOGP_2>
0.14348464

>  <GCUT_SLOGP_3>
2.6865251

>  <GCUT_SMR_0>
-0.51320112

>  <GCUT_SMR_1>
-0.21734707

>  <GCUT_SMR_2>
0.19305076

>  <GCUT_SMR_3>
2.9334917

>  <Kier1>
18.781065

>  <Kier2>
8.5895061

>  <Kier3>
4.2332363

>  <KierA1>
12.796521

>  <KierA2>
5.7457776

>  <KierA3>
2.7943556

>  <KierFlex>
3.0635819

>  <lip_acc>
5

>  <lip_don>
0

>  <lip_druglike>
1

>  <lip_violation>
0

>  <logP(o/w)>
2.448

>  <logS>
-3.81106

>  <mr>
9.2104902

>  <mutagenic>
0

>  <nmol>
1

>  <opr_brigid>
17

>  <opr_leadlike>
1

>  <opr_nring>
3

>  <opr_nrot>
5

>  <opr_violation>
0

>  <PC+>
0

>  <PC->
0

>  <PEOE_PC+>
1.8028039

>  <PEOE_PC->
-1.8028039

>  <PEOE_RPC+>
0.14366929

>  <PEOE_RPC->
0.16513345

>  <PEOE_VSA+0>
42.824402

>  <PEOE_VSA+1>
56.052963

>  <PEOE_VSA+2>
8.458519

>  <PEOE_VSA+3>
0

>  <PEOE_VSA+4>
0

>  <PEOE_VSA+5>
25.899061

>  <PEOE_VSA+6>
0

>  <PEOE_VSA-0>
76.468605

>  <PEOE_VSA-1>
73.529427

>  <PEOE_VSA-2>
0

>  <PEOE_VSA-3>
0

>  <PEOE_VSA-4>
0

>  <PEOE_VSA-5>
40.700764

>  <PEOE_VSA-6>
0

>  <PEOE_VSA_FHYD>
0.79440296

>  <PEOE_VSA_FNEG>
0.5886969

>  <PEOE_VSA_FPNEG>
0.12564534

>  <PEOE_VSA_FPOL>
0.20559706

>  <PEOE_VSA_FPOS>
0.41130307

>  <PEOE_VSA_FPPOS>
0.079951726

>  <PEOE_VSA_HYD>
257.33392

>  <PEOE_VSA_NEG>
190.69879

>  <PEOE_VSA_PNEG>
40.700764

>  <PEOE_VSA_POL>
66.599823

>  <PEOE_VSA_POS>
133.23494

>  <PEOE_VSA_PPOS>
25.899061

>  <petitjean>
0.40000001

>  <petitjeanSC>
0.66666669

>  <Q_PC+>
0

>  <Q_PC->
0

>  <Q_RPC+>
0

>  <Q_RPC->
0

>  <Q_VSA_FHYD>
1

>  <Q_VSA_FNEG>
0

>  <Q_VSA_FPNEG>
0

>  <Q_VSA_FPOL>
0

>  <Q_VSA_FPOS>
1

>  <Q_VSA_FPPOS>
0

>  <Q_VSA_HYD>
323.93375

>  <Q_VSA_NEG>
0

>  <Q_VSA_PNEG>
0

>  <Q_VSA_POL>
0

>  <Q_VSA_POS>
323.93375

>  <Q_VSA_PPOS>
0

>  <radius>
6

>  <reactive>
1

>  <rings>
3

>  <RPC+>
0

>  <RPC->
0

>  <rsynth>
1

>  <SlogP>
2.9668

>  <SlogP_VSA0>
6.0035834

>  <SlogP_VSA1>
16.205177

>  <SlogP_VSA2>
71.586647

>  <SlogP_VSA3>
0

>  <SlogP_VSA4>
4.4107962

>  <SlogP_VSA5>
0

>  <SlogP_VSA6>
0

>  <SlogP_VSA7>
176.43184

>  <SlogP_VSA8>
37.736813

>  <SlogP_VSA9>
38.839512

>  <SMR>
9.1260996

>  <SMR_VSA0>
71.586647

>  <SMR_VSA1>
0

>  <SMR_VSA2>
10.41438

>  <SMR_VSA3>
0

>  <SMR_VSA4>
5.513495

>  <SMR_VSA5>
214.16866

>  <SMR_VSA6>
16.205177

>  <SMR_VSA7>
33.326015

>  <TPSA>
57.689999

>  <VAdjEq>
0.43739632

>  <VAdjMa>
5.7004399

>  <VDistEq>
3.1413841

>  <VDistMa>
8.9155006

>  <vdw_area>
323.93375

>  <vdw_vol>
439.48218

>  <vsa_acc>
40.700764

>  <vsa_acid>
0

>  <vsa_base>
0

>  <vsa_don>
0

>  <vsa_hyd>
234.71803

>  <vsa_other>
34.357582

>  <vsa_pol>
40.700764

>  <Weight>
322.36398

>  <weinerPath>
1257

>  <weinerPol>
38

>  <zagreb>
124

$$$$