Clc1ccc(cc1)CC1=NN(C2CCCN(CC2)C)C(=O)c2c1cccc2
  MOE2013           2D

 27 30  0  0  1  0  0  0  0  0999 V2000
    0.0000    0.0000    0.0000 Cl  0  0  0  0  0  0  0  0  0  0  0  0
    0.7390    1.3050    0.0000 C   0  0  0  0  0  0  0  0  0  0  0  0
    2.2390    1.3170    0.0000 C   0  0  0  0  0  0  0  0  0  0  0  0
    2.9790    2.6220    0.0000 C   0  0  0  0  0  0  0  0  0  0  0  0
    2.2180    3.9150    0.0000 C   0  0  0  0  0  0  0  0  0  0  0  0
    0.7180    3.9030    0.0000 C   0  0  0  0  0  0  0  0  0  0  0  0
   -0.0210    2.5980    0.0000 C   0  0  0  0  0  0  0  0  0  0  0  0
    2.9580    5.2200    0.0000 C   0  0  0  0  0  0  0  0  0  0  0  0
    4.4580    5.2320    0.0000 C   0  0  0  0  0  0  0  0  0  0  0  0
    5.2180    3.9390    0.0000 N   0  0  0  0  0  0  0  0  0  0  0  0
    6.7180    3.9520    0.0000 N   0  0  0  0  0  0  0  0  0  0  0  0
    7.4790    2.6590    0.0000 C   0  0  3  0  0  0  0  0  0  0  0  0
    6.6440    1.4130    0.0000 C   0  0  0  0  0  0  0  0  0  0  0  0
    7.0990   -0.0170    0.0000 C   0  0  0  0  0  0  0  0  0  0  0  0
    8.5000   -0.5530    0.0000 C   0  0  0  0  0  0  0  0  0  0  0  0
    9.7930    0.2080    0.0000 N   0  0  3  0  0  0  0  0  0  0  0  0
   10.0040    1.6930    0.0000 C   0  0  0  0  0  0  0  0  0  0  0  0
    8.9740    2.7830    0.0000 C   0  0  0  0  0  0  0  0  0  0  0  0
   11.0390   -0.6260    0.0000 C   0  0  0  0  0  0  0  0  0  0  0  0
    7.4580    5.2570    0.0000 C   0  0  0  0  0  0  0  0  0  0  0  0
    8.9580    5.2690    0.0000 O   0  0  0  0  0  0  0  0  0  0  0  0
    6.6970    6.5500    0.0000 C   0  0  0  0  0  0  0  0  0  0  0  0
    5.1970    6.5370    0.0000 C   0  0  0  0  0  0  0  0  0  0  0  0
    4.4370    7.8300    0.0000 C   0  0  0  0  0  0  0  0  0  0  0  0
    5.1760    9.1350    0.0000 C   0  0  0  0  0  0  0  0  0  0  0  0
    6.6760    9.1470    0.0000 C   0  0  0  0  0  0  0  0  0  0  0  0
    7.4370    7.8550    0.0000 C   0  0  0  0  0  0  0  0  0  0  0  0
  1  2  1  0  0  0  0
  2  3  1  0  0  0  0
  2  7  2  0  0  0  0
  3  4  2  0  0  0  0
  4  5  1  0  0  0  0
  5  6  2  0  0  0  0
  5  8  1  0  0  0  0
  6  7  1  0  0  0  0
  8  9  1  0  0  0  0
  9 10  2  0  0  0  0
  9 23  1  0  0  0  0
 10 11  1  0  0  0  0
 11 12  1  0  0  0  0
 11 20  1  0  0  0  0
 12 13  1  0  0  0  0
 12 18  1  0  0  0  0
 13 14  1  0  0  0  0
 14 15  1  0  0  0  0
 15 16  1  0  0  0  0
 16 17  1  0  0  0  0
 16 19  1  0  0  0  0
 17 18  1  0  0  0  0
 20 21  2  0  0  0  0
 20 22  1  0  0  0  0
 22 23  1  0  0  0  0
 22 27  2  0  0  0  0
 23 24  2  0  0  0  0
 24 25  1  0  0  0  0
 25 26  2  0  0  0  0
 26 27  1  0  0  0  0
M  END
>  <Index>
1443

>  <ID>
HT0215

>  <class>
1

>  <apol>
61.005032

>  <ast_fraglike>
0

>  <ast_fraglike_ext>
0

>  <ast_violation>
2

>  <ast_violation_ext>
3

>  <a_acc>
3

>  <a_acid>
0

>  <a_aro>
12

>  <a_base>
0

>  <a_count>
51

>  <a_don>
0

>  <a_donacc>
3

>  <a_heavy>
27

>  <a_hyd>
21

>  <a_IC>
76.392212

>  <a_ICM>
1.4978864

>  <a_nB>
0

>  <a_nBr>
0

>  <a_nC>
22

>  <a_nCl>
1

>  <a_nF>
0

>  <a_nH>
24

>  <a_nI>
0

>  <a_nN>
3

>  <a_nO>
1

>  <a_nP>
0

>  <a_nS>
0

>  <balabanJ>
1.4578929

>  <BCUT_PEOE_0>
-2.6456769

>  <BCUT_PEOE_1>
-0.58293182

>  <BCUT_PEOE_2>
0.61854106

>  <BCUT_PEOE_3>
2.7204919

>  <BCUT_SLOGP_0>
-2.7050517

>  <BCUT_SLOGP_1>
-0.45991904

>  <BCUT_SLOGP_2>
0.77035224

>  <BCUT_SLOGP_3>
2.7236266

>  <BCUT_SMR_0>
-2.3995869

>  <BCUT_SMR_1>
-0.42127848

>  <BCUT_SMR_2>
0.84790421

>  <BCUT_SMR_3>
2.9760249

>  <bpol>
31.574968

>  <b_1rotN>
3

>  <b_1rotR>
0.1

>  <b_ar>
12

>  <b_count>
54

>  <b_double>
2

>  <b_heavy>
30

>  <b_max1len>
2

>  <b_rotN>
3

>  <b_rotR>
0.1

>  <b_single>
40

>  <b_triple>
0

>  <chi0>
18.802753

>  <chi0v>
16.322577

>  <chi0v_C>
13.438793

>  <chi0_C>
14.940947

>  <chi1>
13.114194

>  <chi1v>
9.9284735

>  <chi1v_C>
7.1723208

>  <chi1_C>
9.0824833

>  <chiral>
1

>  <chiral_u>
1

>  <density>
0.73172933

>  <diameter>
13

>  <FCharge>
0

>  <GCUT_PEOE_0>
-0.86082941

>  <GCUT_PEOE_1>
-0.37751207

>  <GCUT_PEOE_2>
0.066958979

>  <GCUT_PEOE_3>
2.8378668

>  <GCUT_SLOGP_0>
-0.95298767

>  <GCUT_SLOGP_1>
-0.28820387

>  <GCUT_SLOGP_2>
0.15513127

>  <GCUT_SLOGP_3>
2.8705862

>  <GCUT_SMR_0>
-0.52623749

>  <GCUT_SMR_1>
-0.19529872

>  <GCUT_SMR_2>
0.20026559

>  <GCUT_SMR_3>
3.1020625

>  <Kier1>
20.280001

>  <Kier2>
9.212018

>  <Kier3>
4.7755103

>  <KierA1>
16.249695

>  <KierA2>
7.3144426

>  <KierA3>
3.7662432

>  <KierFlex>
4.4021282

>  <lip_acc>
4

>  <lip_don>
0

>  <lip_druglike>
1

>  <lip_violation>
0

>  <logP(o/w)>
5.1599998

>  <logS>
-5.3011599

>  <mr>
10.949705

>  <mutagenic>
0

>  <nmol>
1

>  <opr_brigid>
24

>  <opr_leadlike>
1

>  <opr_nring>
4

>  <opr_nrot>
6

>  <opr_violation>
0

>  <PC+>
0

>  <PC->
0

>  <PEOE_PC+>
1.6153067

>  <PEOE_PC->
-1.6153067

>  <PEOE_RPC+>
0.17040476

>  <PEOE_RPC->
0.18897937

>  <PEOE_VSA+0>
94.811256

>  <PEOE_VSA+1>
48.233986

>  <PEOE_VSA+2>
0

>  <PEOE_VSA+3>
0

>  <PEOE_VSA+4>
0

>  <PEOE_VSA+5>
12.949531

>  <PEOE_VSA+6>
0

>  <PEOE_VSA-0>
101.5082

>  <PEOE_VSA-1>
90.856468

>  <PEOE_VSA-2>
0

>  <PEOE_VSA-3>
9.4210396

>  <PEOE_VSA-4>
0

>  <PEOE_VSA-5>
13.566921

>  <PEOE_VSA-6>
0

>  <PEOE_VSA_FHYD>
0.92859393

>  <PEOE_VSA_FNEG>
0.57992226

>  <PEOE_VSA_FPNEG>
0.036534309

>  <PEOE_VSA_FPOL>
0.071406052

>  <PEOE_VSA_FPOS>
0.42007771

>  <PEOE_VSA_FPPOS>
0.034871742

>  <PEOE_VSA_HYD>
344.83096

>  <PEOE_VSA_NEG>
215.35263

>  <PEOE_VSA_PNEG>
13.566921

>  <PEOE_VSA_POL>
26.516451

>  <PEOE_VSA_POS>
155.99477

>  <PEOE_VSA_PPOS>
12.949531

>  <petitjean>
0.46153846

>  <petitjeanSC>
0.85714287

>  <Q_PC+>
0

>  <Q_PC->
0

>  <Q_RPC+>
0

>  <Q_RPC->
0

>  <Q_VSA_FHYD>
1

>  <Q_VSA_FNEG>
0

>  <Q_VSA_FPNEG>
0

>  <Q_VSA_FPOL>
0

>  <Q_VSA_FPOS>
1

>  <Q_VSA_FPPOS>
0

>  <Q_VSA_HYD>
371.34741

>  <Q_VSA_NEG>
0

>  <Q_VSA_PNEG>
0

>  <Q_VSA_POL>
0

>  <Q_VSA_POS>
371.34741

>  <Q_VSA_PPOS>
0

>  <radius>
7

>  <reactive>
0

>  <rings>
4

>  <RPC+>
0

>  <RPC->
0

>  <rsynth>
1

>  <SlogP>
4.2268701

>  <SlogP_VSA0>
0

>  <SlogP_VSA1>
14.141637

>  <SlogP_VSA2>
3.9819686

>  <SlogP_VSA3>
36.879158

>  <SlogP_VSA4>
33.418941

>  <SlogP_VSA5>
68.428604

>  <SlogP_VSA6>
3.5006065

>  <SlogP_VSA7>
141.14548

>  <SlogP_VSA8>
56.605217

>  <SlogP_VSA9>
39.148643

>  <SMR>
10.94405

>  <SMR_VSA0>
23.862217

>  <SMR_VSA1>
22.789114

>  <SMR_VSA2>
0

>  <SMR_VSA3>
17.039301

>  <SMR_VSA4>
0

>  <SMR_VSA5>
216.61909

>  <SMR_VSA6>
44.894688

>  <SMR_VSA7>
72.04583

>  <TPSA>
35.91

>  <VAdjEq>
0.41024774

>  <VAdjMa>
5.9068904

>  <VDistEq>
3.3823411

>  <VDistMa>
9.2384777

>  <vdw_area>
371.34741

>  <vdw_vol>
521.92383

>  <vsa_acc>
22.987961

>  <vsa_acid>
0

>  <vsa_base>
0

>  <vsa_don>
0

>  <vsa_hyd>
311.62726

>  <vsa_other>
19.649082

>  <vsa_pol>
22.987961

>  <Weight>
381.90698

>  <weinerPath>
1795

>  <weinerPol>
47

>  <zagreb>
144

$$$$