S(=O)(=O)(N)c1cc2S(=O)(=O)NCNc2cc1C(F)(F)F
  MOE2013           2D

 20 21  0  0  0  0  0  0  0  0999 V2000
    0.0000    0.0000    0.0000 S   0  0  0  0  0  0  0  0  0  0  0  0
   -1.2150    0.8790    0.0000 O   0  0  0  0  0  0  0  0  0  0  0  0
    1.2150   -0.8790    0.0000 O   0  0  0  0  0  0  0  0  0  0  0  0
    0.8790    1.2150    0.0000 N   0  0  0  0  0  0  0  0  0  0  0  0
   -0.8790   -1.2150    0.0000 C   0  0  0  0  0  0  0  0  0  0  0  0
   -2.3220   -0.8040    0.0000 C   0  0  0  0  0  0  0  0  0  0  0  0
   -3.3990   -1.8490    0.0000 C   0  0  0  0  0  0  0  0  0  0  0  0
   -4.8420   -1.4380    0.0000 S   0  0  0  0  0  0  0  0  0  0  0  0
   -4.4310    0.0050    0.0000 O   0  0  0  0  0  0  0  0  0  0  0  0
   -5.8860   -0.3610    0.0000 O   0  0  0  0  0  0  0  0  0  0  0  0
   -5.9190   -2.4820    0.0000 N   0  0  0  0  0  0  0  0  0  0  0  0
   -5.5530   -3.9370    0.0000 C   0  0  0  0  0  0  0  0  0  0  0  0
   -4.1100   -4.3470    0.0000 N   0  0  0  0  0  0  0  0  0  0  0  0
   -3.0330   -3.3030    0.0000 C   0  0  0  0  0  0  0  0  0  0  0  0
   -1.5910   -3.7140    0.0000 C   0  0  0  0  0  0  0  0  0  0  0  0
   -0.5140   -2.6700    0.0000 C   0  0  0  0  0  0  0  0  0  0  0  0
    0.7010   -3.5490    0.0000 C   0  0  0  0  0  0  0  0  0  0  0  0
    1.5810   -2.3340    0.0000 F   0  0  0  0  0  0  0  0  0  0  0  0
    1.9170   -4.4290    0.0000 F   0  0  0  0  0  0  0  0  0  0  0  0
   -0.1780   -4.7650    0.0000 F   0  0  0  0  0  0  0  0  0  0  0  0
  1  2  2  0  0  0  0
  1  3  2  0  0  0  0
  1  4  1  0  0  0  0
  1  5  1  0  0  0  0
  5  6  1  0  0  0  0
  5 16  2  0  0  0  0
  6  7  2  0  0  0  0
  7  8  1  0  0  0  0
  7 14  1  0  0  0  0
  8  9  2  0  0  0  0
  8 10  2  0  0  0  0
  8 11  1  0  0  0  0
 11 12  1  0  0  0  0
 12 13  1  0  0  0  0
 13 14  1  0  0  0  0
 14 15  2  0  0  0  0
 15 16  1  0  0  0  0
 16 17  1  0  0  0  0
 17 18  1  0  0  0  0
 17 19  1  0  0  0  0
 17 20  1  0  0  0  0
M  END
>  <Index>
1592

>  <ID>
HT1055

>  <class>
1

>  <apol>
33.393345

>  <ast_fraglike>
0

>  <ast_fraglike_ext>
0

>  <ast_violation>
2

>  <ast_violation_ext>
3

>  <a_acc>
4

>  <a_acid>
0

>  <a_aro>
6

>  <a_base>
0

>  <a_count>
28

>  <a_don>
3

>  <a_donacc>
7

>  <a_heavy>
20

>  <a_hyd>
10

>  <a_IC>
67.096161

>  <a_ICM>
2.3962915

>  <a_nB>
0

>  <a_nBr>
0

>  <a_nC>
8

>  <a_nCl>
0

>  <a_nF>
3

>  <a_nH>
8

>  <a_nI>
0

>  <a_nN>
3

>  <a_nO>
4

>  <a_nP>
0

>  <a_nS>
2

>  <balabanJ>
2.3059595

>  <BCUT_PEOE_0>
-2.5410728

>  <BCUT_PEOE_1>
-0.41838223

>  <BCUT_PEOE_2>
0.51757401

>  <BCUT_PEOE_3>
2.5729585

>  <BCUT_SLOGP_0>
-2.7237477

>  <BCUT_SLOGP_1>
-0.38550407

>  <BCUT_SLOGP_2>
0.56366217

>  <BCUT_SLOGP_3>
2.5408354

>  <BCUT_SMR_0>
-2.2066402

>  <BCUT_SMR_1>
-0.25832894

>  <BCUT_SMR_2>
0.70079404

>  <BCUT_SMR_3>
2.8759849

>  <bpol>
25.966656

>  <b_1rotN>
1

>  <b_1rotR>
0.047619049

>  <b_ar>
6

>  <b_count>
29

>  <b_double>
0

>  <b_heavy>
21

>  <b_max1len>
3

>  <b_rotN>
2

>  <b_rotR>
0.095238097

>  <b_single>
23

>  <b_triple>
0

>  <chi0>
15.344935

>  <chi0v>
11.155534

>  <chi0v_C>
4.3618073

>  <chi0_C>
4.9307213

>  <chi1>
8.9274874

>  <chi1v>
7.9729781

>  <chi1v_C>
1.9047005

>  <chi1_C>
2.588335

>  <chiral>
0

>  <chiral_u>
0

>  <density>
1.1124443

>  <diameter>
7

>  <FCharge>
0

>  <GCUT_PEOE_0>
-0.89140326

>  <GCUT_PEOE_1>
-0.39678919

>  <GCUT_PEOE_2>
0.0023720528

>  <GCUT_PEOE_3>
2.5304654

>  <GCUT_SLOGP_0>
-1.3482997

>  <GCUT_SLOGP_1>
-0.49116904

>  <GCUT_SLOGP_2>
0.22116184

>  <GCUT_SLOGP_3>
2.5273099

>  <GCUT_SMR_0>
-0.47991419

>  <GCUT_SMR_1>
-0.17532705

>  <GCUT_SMR_2>
0.17005317

>  <GCUT_SMR_3>
2.7779551

>  <Kier1>
16.371881

>  <Kier2>
5.0253062

>  <Kier3>
3.2766211

>  <KierA1>
16.052498

>  <KierA2>
4.9219551

>  <KierA3>
3.2067039

>  <KierFlex>
3.950484

>  <lip_acc>
7

>  <lip_don>
4

>  <lip_druglike>
1

>  <lip_violation>
0

>  <logP(o/w)>
-0.16124

>  <logS>
-2.1568201

>  <mr>
6.2808309

>  <mutagenic>
0

>  <nmol>
1

>  <opr_brigid>
11

>  <opr_leadlike>
1

>  <opr_nring>
2

>  <opr_nrot>
1

>  <opr_violation>
0

>  <PC+>
0

>  <PC->
0

>  <PEOE_PC+>
1.9570975

>  <PEOE_PC->
-1.9570975

>  <PEOE_RPC+>
0.21800162

>  <PEOE_RPC->
0.19725502

>  <PEOE_VSA+0>
42.573959

>  <PEOE_VSA+1>
17.149784

>  <PEOE_VSA+2>
22.360512

>  <PEOE_VSA+3>
2.2085397

>  <PEOE_VSA+4>
0

>  <PEOE_VSA+5>
0

>  <PEOE_VSA+6>
17.414705

>  <PEOE_VSA-0>
38.557255

>  <PEOE_VSA-1>
0

>  <PEOE_VSA-2>
34.546043

>  <PEOE_VSA-3>
44.769657

>  <PEOE_VSA-4>
32.016521

>  <PEOE_VSA-5>
0

>  <PEOE_VSA-6>
0.13689101

>  <PEOE_VSA_FHYD>
0.80309319

>  <PEOE_VSA_FNEG>
0.59597212

>  <PEOE_VSA_FPNEG>
0.12772781

>  <PEOE_VSA_FPOL>
0.19690683

>  <PEOE_VSA_FPOS>
0.40402788

>  <PEOE_VSA_FPPOS>
0.069179028

>  <PEOE_VSA_HYD>
202.16576

>  <PEOE_VSA_NEG>
150.02637

>  <PEOE_VSA_PNEG>
32.153416

>  <PEOE_VSA_POL>
49.568119

>  <PEOE_VSA_POS>
101.7075

>  <PEOE_VSA_PPOS>
17.414705

>  <petitjean>
0.42857143

>  <petitjeanSC>
0.75

>  <Q_PC+>
0

>  <Q_PC->
0

>  <Q_RPC+>
0

>  <Q_RPC->
0

>  <Q_VSA_FHYD>
1

>  <Q_VSA_FNEG>
0

>  <Q_VSA_FPNEG>
0

>  <Q_VSA_FPOL>
0

>  <Q_VSA_FPOS>
1

>  <Q_VSA_FPPOS>
0

>  <Q_VSA_HYD>
251.73387

>  <Q_VSA_NEG>
0

>  <Q_VSA_PNEG>
0

>  <Q_VSA_POL>
0

>  <Q_VSA_POS>
251.73387

>  <Q_VSA_PPOS>
0

>  <radius>
4

>  <reactive>
0

>  <rings>
2

>  <RPC+>
0

>  <RPC->
0

>  <rsynth>
1

>  <SlogP>
0.3256

>  <SlogP_VSA0>
47.69643

>  <SlogP_VSA1>
114.35413

>  <SlogP_VSA2>
13.281486

>  <SlogP_VSA3>
18.01075

>  <SlogP_VSA4>
3.185575

>  <SlogP_VSA5>
3.1014678

>  <SlogP_VSA6>
7.7595162

>  <SlogP_VSA7>
35.286369

>  <SlogP_VSA8>
0

>  <SlogP_VSA9>
47.637089

>  <SMR>
6.17454

>  <SMR_VSA0>
96.343376

>  <SMR_VSA1>
44.880341

>  <SMR_VSA2>
27.265982

>  <SMR_VSA3>
3.185575

>  <SMR_VSA4>
52.058933

>  <SMR_VSA5>
35.286369

>  <SMR_VSA6>
18.01075

>  <SMR_VSA7>
13.281486

>  <TPSA>
118.36

>  <VAdjEq>
0.48464775

>  <VAdjMa>
5.3923173

>  <VDistEq>
2.7331748

>  <VDistMa>
8.4014025

>  <vdw_area>
251.73387

>  <vdw_vol>
297.80817

>  <vsa_acc>
64.033043

>  <vsa_acid>
0

>  <vsa_base>
0

>  <vsa_don>
33.892902

>  <vsa_hyd>
93.665695

>  <vsa_other>
45.001736

>  <vsa_pol>
97.925949

>  <Weight>
331.29498

>  <weinerPath>
703

>  <weinerPol>
35

>  <zagreb>
112

$$$$