n1ccccc1C(C)C=1c2c(CC=1CCN(C)C)cccc2
  MOE2013           2D

 22 24  0  0  1  0  0  0  0  0999 V2000
    0.0000    0.0000    0.0000 N   0  0  0  0  0  0  0  0  0  0  0  0
   -1.5000   -0.0090    0.0000 C   0  0  0  0  0  0  0  0  0  0  0  0
   -2.2580    1.2850    0.0000 C   0  0  0  0  0  0  0  0  0  0  0  0
   -1.5160    2.5890    0.0000 C   0  0  0  0  0  0  0  0  0  0  0  0
   -0.0160    2.5980    0.0000 C   0  0  0  0  0  0  0  0  0  0  0  0
    0.7420    1.3040    0.0000 C   0  0  0  0  0  0  0  0  0  0  0  0
    2.2420    1.3130    0.0000 C   0  0  3  0  0  0  0  0  0  0  0  0
    3.0000    0.0180    0.0000 C   0  0  0  0  0  0  0  0  0  0  0  0
    2.9840    2.6160    0.0000 C   0  0  0  0  0  0  0  0  0  0  0  0
    2.3660    3.9830    0.0000 C   0  0  0  0  0  0  0  0  0  0  0  0
    3.4740    4.9930    0.0000 C   0  0  0  0  0  0  0  0  0  0  0  0
    4.7780    4.2510    0.0000 C   0  0  0  0  0  0  0  0  0  0  0  0
    4.4750    2.7820    0.0000 C   0  0  0  0  0  0  0  0  0  0  0  0
    5.4850    1.6740    0.0000 C   0  0  0  0  0  0  0  0  0  0  0  0
    6.9510    1.9950    0.0000 C   0  0  0  0  0  0  0  0  0  0  0  0
    7.9610    0.8860    0.0000 N   0  0  0  0  0  0  0  0  0  0  0  0
    9.4260    1.2070    0.0000 C   0  0  0  0  0  0  0  0  0  0  0  0
    7.5060   -0.5430    0.0000 C   0  0  0  0  0  0  0  0  0  0  0  0
    3.1530    6.4590    0.0000 C   0  0  0  0  0  0  0  0  0  0  0  0
    1.7240    6.9140    0.0000 C   0  0  0  0  0  0  0  0  0  0  0  0
    0.6150    5.9030    0.0000 C   0  0  0  0  0  0  0  0  0  0  0  0
    0.9360    4.4380    0.0000 C   0  0  0  0  0  0  0  0  0  0  0  0
  1  2  1  0  0  0  0
  1  6  2  0  0  0  0
  2  3  2  0  0  0  0
  3  4  1  0  0  0  0
  4  5  2  0  0  0  0
  5  6  1  0  0  0  0
  6  7  1  0  0  0  0
  7  8  1  0  0  0  0
  7  9  1  0  0  0  0
  9 10  1  0  0  0  0
  9 13  2  0  0  0  0
 10 11  1  0  0  0  0
 10 22  2  0  0  0  0
 11 12  1  0  0  0  0
 11 19  2  0  0  0  0
 12 13  1  0  0  0  0
 13 14  1  0  0  0  0
 14 15  1  0  0  0  0
 15 16  1  0  0  0  0
 16 17  1  0  0  0  0
 16 18  1  0  0  0  0
 19 20  1  0  0  0  0
 20 21  2  0  0  0  0
 21 22  1  0  0  0  0
M  END
>  <Index>
1532

>  <ID>
HT0680

>  <class>
1

>  <apol>
53.40303

>  <ast_fraglike>
0

>  <ast_fraglike_ext>
0

>  <ast_violation>
1

>  <ast_violation_ext>
2

>  <a_acc>
2

>  <a_acid>
0

>  <a_aro>
12

>  <a_base>
0

>  <a_count>
46

>  <a_don>
0

>  <a_donacc>
2

>  <a_heavy>
22

>  <a_hyd>
20

>  <a_IC>
55.60619

>  <a_ICM>
1.2088301

>  <a_nB>
0

>  <a_nBr>
0

>  <a_nC>
20

>  <a_nCl>
0

>  <a_nF>
0

>  <a_nH>
24

>  <a_nI>
0

>  <a_nN>
2

>  <a_nO>
0

>  <a_nP>
0

>  <a_nS>
0

>  <balabanJ>
1.7000366

>  <BCUT_PEOE_0>
-2.6218171

>  <BCUT_PEOE_1>
-0.52423662

>  <BCUT_PEOE_2>
0.57160443

>  <BCUT_PEOE_3>
2.5759048

>  <BCUT_SLOGP_0>
-2.665062

>  <BCUT_SLOGP_1>
-0.42274743

>  <BCUT_SLOGP_2>
0.67177868

>  <BCUT_SLOGP_3>
2.6891012

>  <BCUT_SMR_0>
-2.3369796

>  <BCUT_SMR_1>
-0.38639176

>  <BCUT_SMR_2>
0.71273947

>  <BCUT_SMR_3>
2.8740807

>  <bpol>
29.536968

>  <b_1rotN>
5

>  <b_1rotR>
0.20833333

>  <b_ar>
12

>  <b_count>
48

>  <b_double>
1

>  <b_heavy>
24

>  <b_max1len>
5

>  <b_rotN>
5

>  <b_rotR>
0.20833333

>  <b_single>
35

>  <b_triple>
0

>  <chi0>
15.526733

>  <chi0v>
13.7119

>  <chi0v_C>
12.817472

>  <chi0_C>
14.242276

>  <chi1>
10.664703

>  <chi1v>
8.0238466

>  <chi1v_C>
6.3313861

>  <chi1_C>
8.1935062

>  <chiral>
1

>  <chiral_u>
1

>  <density>
0.64590847

>  <diameter>
10

>  <FCharge>
0

>  <GCUT_PEOE_0>
-0.86320353

>  <GCUT_PEOE_1>
-0.34267813

>  <GCUT_PEOE_2>
0.025959229

>  <GCUT_PEOE_3>
2.7528918

>  <GCUT_SLOGP_0>
-0.95310986

>  <GCUT_SLOGP_1>
-0.25313997

>  <GCUT_SLOGP_2>
0.13447872

>  <GCUT_SLOGP_3>
2.8705215

>  <GCUT_SMR_0>
-0.51798606

>  <GCUT_SMR_1>
-0.1799487

>  <GCUT_SMR_2>
0.15831505

>  <GCUT_SMR_3>
3.0377324

>  <Kier1>
16.84375

>  <Kier2>
7.7134986

>  <Kier3>
3.9256198

>  <KierA1>
12.809166

>  <KierA2>
5.7834716

>  <KierA3>
2.9132652

>  <KierFlex>
3.3673387

>  <lip_acc>
2

>  <lip_don>
0

>  <lip_druglike>
1

>  <lip_violation>
0

>  <logP(o/w)>
3.5339999

>  <logS>
-3.0864899

>  <mr>
9.2477856

>  <mutagenic>
0

>  <nmol>
1

>  <opr_brigid>
16

>  <opr_leadlike>
1

>  <opr_nring>
3

>  <opr_nrot>
5

>  <opr_violation>
0

>  <PC+>
0

>  <PC->
0

>  <PEOE_PC+>
1.1911389

>  <PEOE_PC->
-1.1911389

>  <PEOE_RPC+>
0.069634087

>  <PEOE_RPC->
0.25861293

>  <PEOE_VSA+0>
104.88396

>  <PEOE_VSA+1>
34.123089

>  <PEOE_VSA+2>
0

>  <PEOE_VSA+3>
0

>  <PEOE_VSA+4>
0

>  <PEOE_VSA+5>
0

>  <PEOE_VSA+6>
0

>  <PEOE_VSA-0>
95.015434

>  <PEOE_VSA-1>
82.230736

>  <PEOE_VSA-2>
0

>  <PEOE_VSA-3>
0

>  <PEOE_VSA-4>
0

>  <PEOE_VSA-5>
5.6825762

>  <PEOE_VSA-6>
0

>  <PEOE_VSA_FHYD>
0.98234874

>  <PEOE_VSA_FNEG>
0.56821495

>  <PEOE_VSA_FPNEG>
0.017651271

>  <PEOE_VSA_FPOL>
0.017651271

>  <PEOE_VSA_FPOS>
0.43178502

>  <PEOE_VSA_FPPOS>
0

>  <PEOE_VSA_HYD>
316.25323

>  <PEOE_VSA_NEG>
182.92874

>  <PEOE_VSA_PNEG>
5.6825762

>  <PEOE_VSA_POL>
5.6825762

>  <PEOE_VSA_POS>
139.00705

>  <PEOE_VSA_PPOS>
0

>  <petitjean>
0.5

>  <petitjeanSC>
1

>  <Q_PC+>
0

>  <Q_PC->
0

>  <Q_RPC+>
0

>  <Q_RPC->
0

>  <Q_VSA_FHYD>
1

>  <Q_VSA_FNEG>
0

>  <Q_VSA_FPNEG>
0

>  <Q_VSA_FPOL>
0

>  <Q_VSA_FPOS>
1

>  <Q_VSA_FPPOS>
0

>  <Q_VSA_HYD>
321.93579

>  <Q_VSA_NEG>
0

>  <Q_VSA_PNEG>
0

>  <Q_VSA_POL>
0

>  <Q_VSA_POS>
321.93579

>  <Q_VSA_PPOS>
0

>  <radius>
5

>  <reactive>
0

>  <rings>
3

>  <RPC+>
0

>  <RPC->
0

>  <rsynth>
1

>  <SlogP>
4.1466699

>  <SlogP_VSA0>
0

>  <SlogP_VSA1>
19.909843

>  <SlogP_VSA2>
0

>  <SlogP_VSA3>
18.439579

>  <SlogP_VSA4>
9.1278973

>  <SlogP_VSA5>
87.848358

>  <SlogP_VSA6>
4.4107962

>  <SlogP_VSA7>
143.90222

>  <SlogP_VSA8>
18.868406

>  <SlogP_VSA9>
33.326015

>  <SMR>
9.2889004

>  <SMR_VSA0>
0

>  <SMR_VSA1>
19.909843

>  <SMR_VSA2>
0

>  <SMR_VSA3>
16.724268

>  <SMR_VSA4>
3.185575

>  <SMR_VSA5>
178.45346

>  <SMR_VSA6>
18.439579

>  <SMR_VSA7>
99.120392

>  <TPSA>
16.129999

>  <VAdjEq>
0.46637034

>  <VAdjMa>
5.5849624

>  <VDistEq>
3.1057401

>  <VDistMa>
8.6524448

>  <vdw_area>
321.93579

>  <vdw_vol>
452.73596

>  <vsa_acc>
5.6825762

>  <vsa_acid>
0

>  <vsa_base>
0

>  <vsa_don>
0

>  <vsa_hyd>
297.82507

>  <vsa_other>
0

>  <vsa_pol>
5.6825762

>  <Weight>
292.42599

>  <weinerPath>
1019

>  <weinerPol>
33

>  <zagreb>
114

$$$$