Clc1ccc(cc1)C(=O)NCCN1CCOCC1
  MOE2013           2D

 18 19  0  0  0  0  0  0  0  0999 V2000
    0.0000    0.0000    0.0000 Cl  0  0  0  0  0  0  0  0  0  0  0  0
   -1.5000    0.0020    0.0000 C   0  0  0  0  0  0  0  0  0  0  0  0
   -2.2480    1.3020    0.0000 C   0  0  0  0  0  0  0  0  0  0  0  0
   -3.7480    1.3040    0.0000 C   0  0  0  0  0  0  0  0  0  0  0  0
   -4.5000    0.0070    0.0000 C   0  0  0  0  0  0  0  0  0  0  0  0
   -3.7520   -1.2940    0.0000 C   0  0  0  0  0  0  0  0  0  0  0  0
   -2.2520   -1.2960    0.0000 C   0  0  0  0  0  0  0  0  0  0  0  0
   -6.0000    0.0090    0.0000 C   0  0  0  0  0  0  0  0  0  0  0  0
   -6.7520   -1.2890    0.0000 O   0  0  0  0  0  0  0  0  0  0  0  0
   -6.7480    1.3090    0.0000 N   0  0  0  0  0  0  0  0  0  0  0  0
   -8.2480    1.3110    0.0000 C   0  0  0  0  0  0  0  0  0  0  0  0
   -8.9960    2.6110    0.0000 C   0  0  0  0  0  0  0  0  0  0  0  0
  -10.4960    2.6130    0.0000 N   0  0  0  0  0  0  0  0  0  0  0  0
  -11.2440    3.9130    0.0000 C   0  0  0  0  0  0  0  0  0  0  0  0
  -12.7440    3.9160    0.0000 C   0  0  0  0  0  0  0  0  0  0  0  0
  -13.4960    2.6180    0.0000 O   0  0  0  0  0  0  0  0  0  0  0  0
  -12.7480    1.3180    0.0000 C   0  0  0  0  0  0  0  0  0  0  0  0
  -11.2480    1.3150    0.0000 C   0  0  0  0  0  0  0  0  0  0  0  0
  1  2  1  0  0  0  0
  2  3  1  0  0  0  0
  2  7  2  0  0  0  0
  3  4  2  0  0  0  0
  4  5  1  0  0  0  0
  5  6  2  0  0  0  0
  5  8  1  0  0  0  0
  6  7  1  0  0  0  0
  8  9  2  0  0  0  0
  8 10  1  0  0  0  0
 10 11  1  0  0  0  0
 11 12  1  0  0  0  0
 12 13  1  0  0  0  0
 13 14  1  0  0  0  0
 13 18  1  0  0  0  0
 14 15  1  0  0  0  0
 15 16  1  0  0  0  0
 16 17  1  0  0  0  0
 17 18  1  0  0  0  0
M  END
>  <Index>
1658

>  <ID>
HT1421

>  <class>
1

>  <apol>
40.199482

>  <ast_fraglike>
1

>  <ast_fraglike_ext>
0

>  <ast_violation>
0

>  <ast_violation_ext>
1

>  <a_acc>
3

>  <a_acid>
0

>  <a_aro>
6

>  <a_base>
0

>  <a_count>
35

>  <a_don>
1

>  <a_donacc>
4

>  <a_heavy>
18

>  <a_hyd>
13

>  <a_IC>
57.93232

>  <a_ICM>
1.6552092

>  <a_nB>
0

>  <a_nBr>
0

>  <a_nC>
13

>  <a_nCl>
1

>  <a_nF>
0

>  <a_nH>
17

>  <a_nI>
0

>  <a_nN>
2

>  <a_nO>
2

>  <a_nP>
0

>  <a_nS>
0

>  <balabanJ>
1.5794771

>  <BCUT_PEOE_0>
-2.7248356

>  <BCUT_PEOE_1>
-0.57803112

>  <BCUT_PEOE_2>
0.58281142

>  <BCUT_PEOE_3>
2.6435158

>  <BCUT_SLOGP_0>
-2.8564782

>  <BCUT_SLOGP_1>
-0.43685958

>  <BCUT_SLOGP_2>
0.73211902

>  <BCUT_SLOGP_3>
2.5211434

>  <BCUT_SMR_0>
-2.4545288

>  <BCUT_SMR_1>
-0.34165743

>  <BCUT_SMR_2>
0.79626113

>  <BCUT_SMR_3>
2.9024737

>  <bpol>
24.518518

>  <b_1rotN>
4

>  <b_1rotR>
0.21052632

>  <b_ar>
6

>  <b_count>
36

>  <b_double>
1

>  <b_heavy>
19

>  <b_max1len>
4

>  <b_rotN>
5

>  <b_rotR>
0.2631579

>  <b_single>
29

>  <b_triple>
0

>  <chi0>
12.794683

>  <chi0v>
10.949645

>  <chi0v_C>
8.052042

>  <chi0_C>
8.8031187

>  <chi1>
8.7540197

>  <chi1v>
6.4720249

>  <chi1v_C>
3.5713673

>  <chi1_C>
4.4663267

>  <chiral>
0

>  <chiral_u>
0

>  <density>
0.77233213

>  <diameter>
12

>  <FCharge>
0

>  <GCUT_PEOE_0>
-0.84576482

>  <GCUT_PEOE_1>
-0.38066199

>  <GCUT_PEOE_2>
0.060549736

>  <GCUT_PEOE_3>
2.4775217

>  <GCUT_SLOGP_0>
-1.1614633

>  <GCUT_SLOGP_1>
-0.28434244

>  <GCUT_SLOGP_2>
0.16455409

>  <GCUT_SLOGP_3>
2.4364829

>  <GCUT_SMR_0>
-0.5153141

>  <GCUT_SMR_1>
-0.17787616

>  <GCUT_SMR_2>
0.18895228

>  <GCUT_SMR_3>
2.723479

>  <Kier1>
14.409972

>  <Kier2>
7.5555553

>  <Kier3>
4.8979592

>  <KierA1>
12.517428

>  <KierA2>
6.5053916

>  <KierA3>
4.1896276

>  <KierFlex>
4.523932

>  <lip_acc>
4

>  <lip_don>
1

>  <lip_druglike>
1

>  <lip_violation>
0

>  <logP(o/w)>
1.24

>  <logS>
-2.45467

>  <mr>
7.2386432

>  <mutagenic>
0

>  <nmol>
1

>  <opr_brigid>
12

>  <opr_leadlike>
1

>  <opr_nring>
2

>  <opr_nrot>
6

>  <opr_violation>
0

>  <PC+>
0

>  <PC->
0

>  <PEOE_PC+>
1.556932

>  <PEOE_PC->
-1.556932

>  <PEOE_RPC+>
0.16191237

>  <PEOE_RPC->
0.24229865

>  <PEOE_VSA+0>
93.620674

>  <PEOE_VSA+1>
64.025673

>  <PEOE_VSA+2>
0

>  <PEOE_VSA+3>
8.6190128

>  <PEOE_VSA+4>
0

>  <PEOE_VSA+5>
12.949531

>  <PEOE_VSA+6>
0

>  <PEOE_VSA-0>
49.019615

>  <PEOE_VSA-1>
29.581947

>  <PEOE_VSA-2>
0

>  <PEOE_VSA-3>
0

>  <PEOE_VSA-4>
0

>  <PEOE_VSA-5>
13.566921

>  <PEOE_VSA-6>
2.6406472

>  <PEOE_VSA_FHYD>
0.89359653

>  <PEOE_VSA_FNEG>
0.34598839

>  <PEOE_VSA_FPNEG>
0.059146523

>  <PEOE_VSA_FPOL>
0.10640344

>  <PEOE_VSA_FPOS>
0.65401161

>  <PEOE_VSA_FPPOS>
0.04725692

>  <PEOE_VSA_HYD>
244.86693

>  <PEOE_VSA_NEG>
94.809128

>  <PEOE_VSA_PNEG>
16.207567

>  <PEOE_VSA_POL>
29.157099

>  <PEOE_VSA_POS>
179.21489

>  <PEOE_VSA_PPOS>
12.949531

>  <petitjean>
0.5

>  <petitjeanSC>
1

>  <Q_PC+>
0

>  <Q_PC->
0

>  <Q_RPC+>
0

>  <Q_RPC->
0

>  <Q_VSA_FHYD>
1

>  <Q_VSA_FNEG>
0

>  <Q_VSA_FPNEG>
0

>  <Q_VSA_FPOL>
0

>  <Q_VSA_FPOS>
1

>  <Q_VSA_FPPOS>
0

>  <Q_VSA_HYD>
274.02402

>  <Q_VSA_NEG>
0

>  <Q_VSA_PNEG>
0

>  <Q_VSA_POL>
0

>  <Q_VSA_POS>
274.02402

>  <Q_VSA_PPOS>
0

>  <radius>
6

>  <reactive>
0

>  <rings>
2

>  <RPC+>
0

>  <RPC->
0

>  <rsynth>
1

>  <SlogP>
1.402

>  <SlogP_VSA0>
18.01075

>  <SlogP_VSA1>
8.3830976

>  <SlogP_VSA2>
10.999887

>  <SlogP_VSA3>
115.61083

>  <SlogP_VSA4>
27.047791

>  <SlogP_VSA5>
0

>  <SlogP_VSA6>
3.5006065

>  <SlogP_VSA7>
70.572739

>  <SlogP_VSA8>
0

>  <SlogP_VSA9>
39.148643

>  <SMR>
7.1044202

>  <SMR_VSA0>
34.862103

>  <SMR_VSA1>
3.1243138

>  <SMR_VSA2>
18.01075

>  <SMR_VSA3>
6.6861815

>  <SMR_VSA4>
0

>  <SMR_VSA5>
70.572739

>  <SMR_VSA6>
120.86961

>  <SMR_VSA7>
39.148643

>  <TPSA>
41.57

>  <VAdjEq>
0.52150291

>  <VAdjMa>
5.2479277

>  <VDistEq>
3.3398557

>  <VDistMa>
7.9901648

>  <vdw_area>
274.02402

>  <vdw_vol>
347.96426

>  <vsa_acc>
16.070677

>  <vsa_acid>
0

>  <vsa_base>
0

>  <vsa_don>
5.6825762

>  <vsa_hyd>
224.85919

>  <vsa_other>
12.949531

>  <vsa_pol>
21.753254

>  <Weight>
268.74399

>  <weinerPath>
724

>  <weinerPol>
22

>  <zagreb>
86

$$$$