N(CCC=C/1c2c(cccc2)C(c2c1cccc2)(C)C)(C)C
  MOE2013           2D

 22 24  0  0  0  0  0  0  0  0999 V2000
    0.0000    0.0000    0.0000 N   0  0  0  0  0  0  0  0  0  0  0  0
   -1.5000    0.0070    0.0000 C   0  0  0  0  0  0  0  0  0  0  0  0
   -2.2560   -1.2880    0.0000 C   0  0  0  0  0  0  0  0  0  0  0  0
   -3.7560   -1.2800    0.0000 C   0  0  0  0  0  0  0  0  0  0  0  0
   -4.5130   -2.5760    0.0000 C   0  0  0  0  0  0  0  0  0  0  0  0
   -3.7690   -3.8780    0.0000 C   0  0  0  0  0  0  0  0  0  0  0  0
   -4.5260   -5.1740    0.0000 C   0  0  0  0  0  0  0  0  0  0  0  0
   -3.7820   -6.4760    0.0000 C   0  0  0  0  0  0  0  0  0  0  0  0
   -2.2820   -6.4840    0.0000 C   0  0  0  0  0  0  0  0  0  0  0  0
   -1.5260   -5.1890    0.0000 C   0  0  0  0  0  0  0  0  0  0  0  0
   -2.2690   -3.8860    0.0000 C   0  0  0  0  0  0  0  0  0  0  0  0
   -6.0260   -5.1660    0.0000 C   0  0  0  0  0  0  0  0  0  0  0  0
   -6.7690   -3.8630    0.0000 C   0  0  0  0  0  0  0  0  0  0  0  0
   -6.0130   -2.5680    0.0000 C   0  0  0  0  0  0  0  0  0  0  0  0
   -6.7560   -1.2650    0.0000 C   0  0  0  0  0  0  0  0  0  0  0  0
   -8.2560   -1.2580    0.0000 C   0  0  0  0  0  0  0  0  0  0  0  0
   -9.0130   -2.5530    0.0000 C   0  0  0  0  0  0  0  0  0  0  0  0
   -8.2690   -3.8560    0.0000 C   0  0  0  0  0  0  0  0  0  0  0  0
   -6.0330   -6.6660    0.0000 C   0  0  0  0  0  0  0  0  0  0  0  0
   -7.3290   -5.9100    0.0000 C   0  0  0  0  0  0  0  0  0  0  0  0
    0.7430   -1.3030    0.0000 C   0  0  0  0  0  0  0  0  0  0  0  0
    0.7560    1.2950    0.0000 C   0  0  0  0  0  0  0  0  0  0  0  0
  1  2  1  0  0  0  0
  1 21  1  0  0  0  0
  1 22  1  0  0  0  0
  2  3  1  0  0  0  0
  3  4  1  0  0  0  0
  4  5  2  3  0  0  0
  5  6  1  0  0  0  0
  5 14  1  0  0  0  0
  6  7  1  0  0  0  0
  6 11  2  0  0  0  0
  7  8  2  0  0  0  0
  7 12  1  0  0  0  0
  8  9  1  0  0  0  0
  9 10  2  0  0  0  0
 10 11  1  0  0  0  0
 12 13  1  0  0  0  0
 12 19  1  0  0  0  0
 12 20  1  0  0  0  0
 13 14  1  0  0  0  0
 13 18  2  0  0  0  0
 14 15  2  0  0  0  0
 15 16  1  0  0  0  0
 16 17  2  0  0  0  0
 17 18  1  0  0  0  0
M  END
>  <Index>
1633

>  <ID>
HT1294

>  <class>
1

>  <apol>
54.729824

>  <ast_fraglike>
0

>  <ast_fraglike_ext>
0

>  <ast_violation>
1

>  <ast_violation_ext>
1

>  <a_acc>
1

>  <a_acid>
0

>  <a_aro>
12

>  <a_base>
0

>  <a_count>
47

>  <a_don>
0

>  <a_donacc>
1

>  <a_heavy>
22

>  <a_hyd>
21

>  <a_IC>
52.730606

>  <a_ICM>
1.1219277

>  <a_nB>
0

>  <a_nBr>
0

>  <a_nC>
21

>  <a_nCl>
0

>  <a_nF>
0

>  <a_nH>
25

>  <a_nI>
0

>  <a_nN>
1

>  <a_nO>
0

>  <a_nP>
0

>  <a_nS>
0

>  <balabanJ>
1.7928213

>  <BCUT_PEOE_0>
-2.6216364

>  <BCUT_PEOE_1>
-0.50844944

>  <BCUT_PEOE_2>
0.57085073

>  <BCUT_PEOE_3>
2.5725391

>  <BCUT_SLOGP_0>
-2.6604125

>  <BCUT_SLOGP_1>
-0.41211131

>  <BCUT_SLOGP_2>
0.66401941

>  <BCUT_SLOGP_3>
2.6686473

>  <BCUT_SMR_0>
-2.3362286

>  <BCUT_SMR_1>
-0.37448078

>  <BCUT_SMR_2>
0.70865327

>  <BCUT_SMR_3>
2.8638575

>  <bpol>
29.310175

>  <b_1rotN>
3

>  <b_1rotR>
0.125

>  <b_ar>
12

>  <b_count>
49

>  <b_double>
1

>  <b_heavy>
24

>  <b_max1len>
6

>  <b_rotN>
3

>  <b_rotR>
0.125

>  <b_single>
36

>  <b_triple>
0

>  <chi0>
15.742276

>  <chi0v>
14.05758

>  <chi0v_C>
13.610366

>  <chi0_C>
15.164926

>  <chi1>
10.514874

>  <chi1v>
8.0622787

>  <chi1v_C>
6.851624

>  <chi1_C>
8.9519253

>  <chiral>
0

>  <chiral_u>
0

>  <density>
0.63107562

>  <diameter>
9

>  <FCharge>
0

>  <GCUT_PEOE_0>
-0.86319751

>  <GCUT_PEOE_1>
-0.34819889

>  <GCUT_PEOE_2>
0.021183789

>  <GCUT_PEOE_3>
2.7945256

>  <GCUT_SLOGP_0>
-0.95306128

>  <GCUT_SLOGP_1>
-0.24913232

>  <GCUT_SLOGP_2>
0.10753722

>  <GCUT_SLOGP_3>
2.9146395

>  <GCUT_SMR_0>
-0.51746529

>  <GCUT_SMR_1>
-0.17993924

>  <GCUT_SMR_2>
0.14880104

>  <GCUT_SMR_3>
3.0845923

>  <Kier1>
16.84375

>  <Kier2>
6.8571429

>  <Kier3>
3.2986112

>  <KierA1>
12.888308

>  <KierA2>
5.17488

>  <KierA3>
2.4644978

>  <KierFlex>
3.031611

>  <lip_acc>
1

>  <lip_don>
0

>  <lip_druglike>
1

>  <lip_violation>
0

>  <logP(o/w)>
5.8449998

>  <logS>
-4.9228802

>  <mr>
9.3547325

>  <mutagenic>
0

>  <nmol>
1

>  <opr_brigid>
17

>  <opr_leadlike>
1

>  <opr_nring>
3

>  <opr_nrot>
3

>  <opr_violation>
1

>  <PC+>
0

>  <PC->
0

>  <PEOE_PC+>
1.1007481

>  <PEOE_PC->
-1.1007481

>  <PEOE_RPC+>
0.056661997

>  <PEOE_RPC->
0.27985752

>  <PEOE_VSA+0>
81.438499

>  <PEOE_VSA+1>
38.388474

>  <PEOE_VSA+2>
0

>  <PEOE_VSA+3>
0

>  <PEOE_VSA+4>
0

>  <PEOE_VSA+5>
0

>  <PEOE_VSA+6>
0

>  <PEOE_VSA-0>
66.22139

>  <PEOE_VSA-1>
147.78949

>  <PEOE_VSA-2>
0

>  <PEOE_VSA-3>
0

>  <PEOE_VSA-4>
0

>  <PEOE_VSA-5>
0

>  <PEOE_VSA-6>
0

>  <PEOE_VSA_FHYD>
1

>  <PEOE_VSA_FNEG>
0.64106238

>  <PEOE_VSA_FPNEG>
0

>  <PEOE_VSA_FPOL>
0

>  <PEOE_VSA_FPOS>
0.35893765

>  <PEOE_VSA_FPPOS>
0

>  <PEOE_VSA_HYD>
333.83786

>  <PEOE_VSA_NEG>
214.01088

>  <PEOE_VSA_PNEG>
0

>  <PEOE_VSA_POL>
0

>  <PEOE_VSA_POS>
119.82697

>  <PEOE_VSA_PPOS>
0

>  <petitjean>
0.44444445

>  <petitjeanSC>
0.80000001

>  <Q_PC+>
0

>  <Q_PC->
0

>  <Q_RPC+>
0

>  <Q_RPC->
0

>  <Q_VSA_FHYD>
1

>  <Q_VSA_FNEG>
0

>  <Q_VSA_FPNEG>
0

>  <Q_VSA_FPOL>
0

>  <Q_VSA_FPOS>
1

>  <Q_VSA_FPPOS>
0

>  <Q_VSA_HYD>
333.83786

>  <Q_VSA_NEG>
0

>  <Q_VSA_PNEG>
0

>  <Q_VSA_POL>
0

>  <Q_VSA_POS>
333.83786

>  <Q_VSA_PPOS>
0

>  <radius>
5

>  <reactive>
0

>  <rings>
3

>  <RPC+>
0

>  <RPC->
0

>  <rsynth>
0

>  <SlogP>
4.5265899

>  <SlogP_VSA0>
0

>  <SlogP_VSA1>
3.1243138

>  <SlogP_VSA2>
0

>  <SlogP_VSA3>
21.625153

>  <SlogP_VSA4>
12.7423

>  <SlogP_VSA5>
65.794373

>  <SlogP_VSA6>
0

>  <SlogP_VSA7>
158.78867

>  <SlogP_VSA8>
18.868406

>  <SlogP_VSA9>
66.652031

>  <SMR>
9.4200001

>  <SMR_VSA0>
0

>  <SMR_VSA1>
3.1243138

>  <SMR_VSA2>
3.185575

>  <SMR_VSA3>
12.7423

>  <SMR_VSA4>
0

>  <SMR_VSA5>
177.65706

>  <SMR_VSA6>
18.439579

>  <SMR_VSA7>
132.44641

>  <TPSA>
3.24

>  <VAdjEq>
0.46637034

>  <VAdjMa>
5.5849624

>  <VDistEq>
3.0433009

>  <VDistMa>
8.6511908

>  <vdw_area>
333.83786

>  <vdw_vol>
461.81152

>  <vsa_acc>
0

>  <vsa_acid>
0

>  <vsa_base>
0

>  <vsa_don>
0

>  <vsa_hyd>
316.04297

>  <vsa_other>
0

>  <vsa_pol>
0

>  <Weight>
291.43799

>  <weinerPath>
973

>  <weinerPol>
39

>  <zagreb>
118

$$$$