Clc1c(cccc1Cl)C1C(=C(OCC)/O)C(=NC(C)=C1C(OC)=O)C
  MOE2013           2D

 25 26  0  0  1  0  0  0  0  0999 V2000
    0.0000    0.0000    0.0000 Cl  0  0  0  0  0  0  0  0  0  0  0  0
    1.2930   -0.7610    0.0000 C   0  0  0  0  0  0  0  0  0  0  0  0
    2.5980   -0.0210    0.0000 C   0  0  0  0  0  0  0  0  0  0  0  0
    3.8910   -0.7820    0.0000 C   0  0  0  0  0  0  0  0  0  0  0  0
    3.8780   -2.2820    0.0000 C   0  0  0  0  0  0  0  0  0  0  0  0
    2.5730   -3.0210    0.0000 C   0  0  0  0  0  0  0  0  0  0  0  0
    1.2800   -2.2610    0.0000 C   0  0  0  0  0  0  0  0  0  0  0  0
   -0.0250   -3.0000    0.0000 Cl  0  0  0  0  0  0  0  0  0  0  0  0
    2.6100    1.4790    0.0000 C   0  0  3  0  0  0  0  0  0  0  0  0
    3.9150    2.2180    0.0000 C   0  0  0  0  0  0  0  0  0  0  0  0
    5.2080    1.4570    0.0000 C   0  0  0  0  0  0  0  0  0  0  0  0
    5.1960   -0.0430    0.0000 O   0  0  0  0  0  0  0  0  0  0  0  0
    6.4890   -0.8030    0.0000 C   0  0  0  0  0  0  0  0  0  0  0  0
    7.7940   -0.0640    0.0000 C   0  0  0  0  0  0  0  0  0  0  0  0
    6.5130    2.1960    0.0000 O   0  0  0  0  0  0  0  0  0  0  0  0
    3.9280    3.7180    0.0000 C   0  0  0  0  0  0  0  0  0  0  0  0
    2.6350    4.4780    0.0000 N   0  0  0  0  0  0  0  0  0  0  0  0
    1.3300    3.7390    0.0000 C   0  0  0  0  0  0  0  0  0  0  0  0
    0.0370    4.5000    0.0000 C   0  0  0  0  0  0  0  0  0  0  0  0
    1.3180    2.2390    0.0000 C   0  0  0  0  0  0  0  0  0  0  0  0
   -0.1620    1.9910    0.0000 C   0  0  0  0  0  0  0  0  0  0  0  0
   -0.6860    0.5860    0.0000 O   0  0  0  0  0  0  0  0  0  0  0  0
   -2.1660    0.3370    0.0000 C   0  0  0  0  0  0  0  0  0  0  0  0
   -1.1160    3.1480    0.0000 O   0  0  0  0  0  0  0  0  0  0  0  0
    5.2330    4.4570    0.0000 C   0  0  0  0  0  0  0  0  0  0  0  0
  1  2  1  0  0  0  0
  2  3  1  0  0  0  0
  2  7  2  0  0  0  0
  3  4  2  0  0  0  0
  3  9  1  0  0  0  0
  4  5  1  0  0  0  0
  5  6  2  0  0  0  0
  6  7  1  0  0  0  0
  7  8  1  0  0  0  0
  9 10  1  0  0  0  0
  9 20  1  0  0  0  0
 10 11  2  3  0  0  0
 10 16  1  0  0  0  0
 11 12  1  0  0  0  0
 11 15  1  0  0  0  0
 12 13  1  0  0  0  0
 13 14  1  0  0  0  0
 16 17  2  0  0  0  0
 16 25  1  0  0  0  0
 17 18  1  0  0  0  0
 18 19  1  0  0  0  0
 18 20  2  0  0  0  0
 20 21  1  0  0  0  0
 21 22  1  0  0  0  0
 21 24  2  0  0  0  0
 22 23  1  0  0  0  0
M  END
>  <Index>
1564

>  <ID>
HT0853

>  <class>
1

>  <apol>
53.017067

>  <ast_fraglike>
0

>  <ast_fraglike_ext>
0

>  <ast_violation>
3

>  <ast_violation_ext>
4

>  <a_acc>
4

>  <a_acid>
0

>  <a_aro>
6

>  <a_base>
0

>  <a_count>
44

>  <a_don>
1

>  <a_donacc>
5

>  <a_heavy>
25

>  <a_hyd>
17

>  <a_IC>
74.445717

>  <a_ICM>
1.6919482

>  <a_nB>
0

>  <a_nBr>
0

>  <a_nC>
18

>  <a_nCl>
2

>  <a_nF>
0

>  <a_nH>
19

>  <a_nI>
0

>  <a_nN>
1

>  <a_nO>
4

>  <a_nP>
0

>  <a_nS>
0

>  <balabanJ>
2.4090223

>  <BCUT_PEOE_0>
-2.4705186

>  <BCUT_PEOE_1>
-0.51492441

>  <BCUT_PEOE_2>
0.52304333

>  <BCUT_PEOE_3>
2.5166831

>  <BCUT_SLOGP_0>
-2.4320824

>  <BCUT_SLOGP_1>
-0.33581194

>  <BCUT_SLOGP_2>
0.64963645

>  <BCUT_SLOGP_3>
2.5883751

>  <BCUT_SMR_0>
-2.1988182

>  <BCUT_SMR_1>
-0.2131858

>  <BCUT_SMR_2>
0.7306003

>  <BCUT_SMR_3>
2.7989938

>  <bpol>
27.720934

>  <b_1rotN>
4

>  <b_1rotR>
0.15384616

>  <b_ar>
6

>  <b_count>
45

>  <b_double>
4

>  <b_heavy>
26

>  <b_max1len>
3

>  <b_rotN>
5

>  <b_rotR>
0.1923077

>  <b_single>
35

>  <b_triple>
0

>  <chi0>
18.723249

>  <chi0v>
15.903467

>  <chi0v_C>
11.516508

>  <chi0_C>
12.60193

>  <chi1>
11.827805

>  <chi1v>
8.431159

>  <chi1v_C>
5.3171492

>  <chi1_C>
6.6783037

>  <chiral>
1

>  <chiral_u>
1

>  <density>
0.81982565

>  <diameter>
9

>  <FCharge>
0

>  <GCUT_PEOE_0>
-0.77557814

>  <GCUT_PEOE_1>
-0.41715416

>  <GCUT_PEOE_2>
-0.021512166

>  <GCUT_PEOE_3>
2.6644073

>  <GCUT_SLOGP_0>
-0.84477377

>  <GCUT_SLOGP_1>
-0.26236704

>  <GCUT_SLOGP_2>
0.14610837

>  <GCUT_SLOGP_3>
2.760534

>  <GCUT_SMR_0>
-0.5147692

>  <GCUT_SMR_1>
-0.15586759

>  <GCUT_SMR_2>
0.20544663

>  <GCUT_SMR_3>
2.9455116

>  <Kier1>
21.301775

>  <Kier2>
9.2739229

>  <Kier3>
4.4659748

>  <KierA1>
18.8095

>  <KierA2>
8.1443453

>  <KierA3>
3.9060216

>  <KierFlex>
6.1276426

>  <lip_acc>
5

>  <lip_don>
1

>  <lip_druglike>
1

>  <lip_violation>
0

>  <logP(o/w)>
4.0780001

>  <logS>
-4.93538

>  <mr>
9.8653421

>  <mutagenic>
0

>  <nmol>
1

>  <opr_brigid>
13

>  <opr_leadlike>
1

>  <opr_nring>
2

>  <opr_nrot>
4

>  <opr_violation>
1

>  <PC+>
0

>  <PC->
0

>  <PEOE_PC+>
1.9173398

>  <PEOE_PC->
-1.9173398

>  <PEOE_RPC+>
0.15238456

>  <PEOE_RPC->
0.17741965

>  <PEOE_VSA+0>
83.259163

>  <PEOE_VSA+1>
60.322414

>  <PEOE_VSA+2>
0

>  <PEOE_VSA+3>
14.708499

>  <PEOE_VSA+4>
10.324173

>  <PEOE_VSA+5>
14.708499

>  <PEOE_VSA+6>
0

>  <PEOE_VSA-0>
70.706474

>  <PEOE_VSA-1>
83.673698

>  <PEOE_VSA-2>
0

>  <PEOE_VSA-3>
0

>  <PEOE_VSA-4>
0

>  <PEOE_VSA-5>
19.249496

>  <PEOE_VSA-6>
12.775052

>  <PEOE_VSA_FHYD>
0.84567761

>  <PEOE_VSA_FNEG>
0.50416791

>  <PEOE_VSA_FPNEG>
0.086616635

>  <PEOE_VSA_FPOL>
0.15432237

>  <PEOE_VSA_FPOS>
0.49583209

>  <PEOE_VSA_FPPOS>
0.067705743

>  <PEOE_VSA_HYD>
312.67026

>  <PEOE_VSA_NEG>
186.40472

>  <PEOE_VSA_PNEG>
32.024548

>  <PEOE_VSA_POL>
57.05722

>  <PEOE_VSA_POS>
183.32274

>  <PEOE_VSA_PPOS>
25.032671

>  <petitjean>
0.44444445

>  <petitjeanSC>
0.80000001

>  <Q_PC+>
0

>  <Q_PC->
0

>  <Q_RPC+>
0

>  <Q_RPC->
0

>  <Q_VSA_FHYD>
1

>  <Q_VSA_FNEG>
0

>  <Q_VSA_FPNEG>
0

>  <Q_VSA_FPOL>
0

>  <Q_VSA_FPOS>
1

>  <Q_VSA_FPPOS>
0

>  <Q_VSA_HYD>
369.72748

>  <Q_VSA_NEG>
0

>  <Q_VSA_PNEG>
0

>  <Q_VSA_POL>
0

>  <Q_VSA_POS>
369.72748

>  <Q_VSA_PPOS>
0

>  <radius>
5

>  <reactive>
1

>  <rings>
2

>  <RPC+>
0

>  <RPC->
0

>  <rsynth>
1

>  <SlogP>
4.8045998

>  <SlogP_VSA0>
0

>  <SlogP_VSA1>
10.502212

>  <SlogP_VSA2>
45.861992

>  <SlogP_VSA3>
46.311485

>  <SlogP_VSA4>
3.185575

>  <SlogP_VSA5>
68.598579

>  <SlogP_VSA6>
11.412009

>  <SlogP_VSA7>
52.929554

>  <SlogP_VSA8>
0

>  <SlogP_VSA9>
178.27533

>  <SMR>
9.8308802

>  <SMR_VSA0>
45.861992

>  <SMR_VSA1>
16.78553

>  <SMR_VSA2>
25.385227

>  <SMR_VSA3>
31.026762

>  <SMR_VSA4>
0

>  <SMR_VSA5>
52.929554

>  <SMR_VSA6>
31.428471

>  <SMR_VSA7>
213.65919

>  <TPSA>
68.120003

>  <VAdjEq>
0.41335541

>  <VAdjMa>
5.7004399

>  <VDistEq>
2.9470043

>  <VDistMa>
9.067709

>  <vdw_area>
369.72748

>  <vdw_vol>
468.70819

>  <vsa_acc>
21.753254

>  <vsa_acid>
0

>  <vsa_base>
0

>  <vsa_don>
0

>  <vsa_hyd>
277.10483

>  <vsa_other>
38.620304

>  <vsa_pol>
35.320175

>  <Weight>
384.259

>  <weinerPath>
1300

>  <weinerPol>
45

>  <zagreb>
126

$$$$