s1cncc1COC(=O)N[C@H]([C@@H](O)C[C@@H](NC(=O)[C@@H](NC(=O)N(Cc1nc(sc1)C(C)C)C)C(C)C)Cc1ccccc1)Cc1ccccc1
  MOE2013           2D

 50 53  0  0  1  0  0  0  0  0999 V2000
    0.0000    0.0000    0.0000 S   0  0  0  0  0  0  0  0  0  0  0  0
   -1.4660   -0.3180    0.0000 C   0  0  0  0  0  0  0  0  0  0  0  0
   -2.2220    0.9770    0.0000 N   0  0  0  0  0  0  0  0  0  0  0  0
   -1.2230    2.0960    0.0000 C   0  0  0  0  0  0  0  0  0  0  0  0
    0.1500    1.4920    0.0000 C   0  0  0  0  0  0  0  0  0  0  0  0
    1.4460    2.2480    0.0000 C   0  0  0  0  0  0  0  0  0  0  0  0
    2.7480    1.5040    0.0000 O   0  0  0  0  0  0  0  0  0  0  0  0
    4.0440    2.2600    0.0000 C   0  0  0  0  0  0  0  0  0  0  0  0
    5.3460    1.5160    0.0000 O   0  0  0  0  0  0  0  0  0  0  0  0
    4.0370    3.7600    0.0000 N   0  0  0  0  0  0  0  0  0  0  0  0
    5.3330    4.5160    0.0000 C   0  0  2  0  0  0  0  0  0  0  0  0
    6.6350    3.7720    0.0000 C   0  0  1  0  0  0  0  0  0  0  0  0
    7.9310    4.5280    0.0000 O   0  0  0  0  0  0  0  0  0  0  0  0
    6.6420    2.2720    0.0000 C   0  0  0  0  0  0  0  0  0  0  0  0
    7.9440    1.5280    0.0000 C   0  0  1  0  0  0  0  0  0  0  0  0
    9.2400    2.2830    0.0000 N   0  0  0  0  0  0  0  0  0  0  0  0
   10.5420    1.5390    0.0000 C   0  0  0  0  0  0  0  0  0  0  0  0
   10.5490    0.0390    0.0000 O   0  0  0  0  0  0  0  0  0  0  0  0
   11.8380    2.2950    0.0000 C   0  0  1  0  0  0  0  0  0  0  0  0
   13.1400    1.5510    0.0000 N   0  0  0  0  0  0  0  0  0  0  0  0
   13.1470    0.0510    0.0000 C   0  0  0  0  0  0  0  0  0  0  0  0
   11.8510   -0.7050    0.0000 O   0  0  0  0  0  0  0  0  0  0  0  0
   14.4490   -0.6930    0.0000 N   0  0  0  0  0  0  0  0  0  0  0  0
   15.7450    0.0630    0.0000 C   0  0  0  0  0  0  0  0  0  0  0  0
   17.0480   -0.6810    0.0000 C   0  0  0  0  0  0  0  0  0  0  0  0
   18.4150   -0.0650    0.0000 N   0  0  0  0  0  0  0  0  0  0  0  0
   19.4240   -1.1750    0.0000 C   0  0  0  0  0  0  0  0  0  0  0  0
   18.6800   -2.4780    0.0000 S   0  0  0  0  0  0  0  0  0  0  0  0
   17.2110   -2.1720    0.0000 C   0  0  0  0  0  0  0  0  0  0  0  0
   20.9150   -1.0120    0.0000 C   0  0  0  0  0  0  0  0  0  0  0  0
   21.5190    0.3610    0.0000 C   0  0  0  0  0  0  0  0  0  0  0  0
   21.8020   -2.2210    0.0000 C   0  0  0  0  0  0  0  0  0  0  0  0
   14.4560   -2.1930    0.0000 C   0  0  0  0  0  0  0  0  0  0  0  0
   11.8310    3.7950    0.0000 C   0  0  0  0  0  0  0  0  0  0  0  0
   13.1270    4.5510    0.0000 C   0  0  0  0  0  0  0  0  0  0  0  0
   10.5290    4.5390    0.0000 C   0  0  0  0  0  0  0  0  0  0  0  0
    7.9510    0.0280    0.0000 C   0  0  0  0  0  0  0  0  0  0  0  0
    6.6550   -0.7280    0.0000 C   0  0  0  0  0  0  0  0  0  0  0  0
    5.3530    0.0160    0.0000 C   0  0  0  0  0  0  0  0  0  0  0  0
    4.0570   -0.7400    0.0000 C   0  0  0  0  0  0  0  0  0  0  0  0
    4.0640   -2.2400    0.0000 C   0  0  0  0  0  0  0  0  0  0  0  0
    5.3660   -2.9840    0.0000 C   0  0  0  0  0  0  0  0  0  0  0  0
    6.6620   -2.2280    0.0000 C   0  0  0  0  0  0  0  0  0  0  0  0
    5.3260    6.0160    0.0000 C   0  0  0  0  0  0  0  0  0  0  0  0
    4.0230    6.7600    0.0000 C   0  0  0  0  0  0  0  0  0  0  0  0
    2.7280    6.0040    0.0000 C   0  0  0  0  0  0  0  0  0  0  0  0
    1.4250    6.7480    0.0000 C   0  0  0  0  0  0  0  0  0  0  0  0
    1.4190    8.2480    0.0000 C   0  0  0  0  0  0  0  0  0  0  0  0
    2.7140    9.0040    0.0000 C   0  0  0  0  0  0  0  0  0  0  0  0
    4.0170    8.2600    0.0000 C   0  0  0  0  0  0  0  0  0  0  0  0
  1  2  1  0  0  0  0
  1  5  1  0  0  0  0
  2  3  2  0  0  0  0
  3  4  1  0  0  0  0
  4  5  2  0  0  0  0
  5  6  1  0  0  0  0
  6  7  1  0  0  0  0
  7  8  1  0  0  0  0
  8  9  2  0  0  0  0
  8 10  1  0  0  0  0
 11 10  1  1  0  0  0
 11 12  1  0  0  0  0
 11 44  1  0  0  0  0
 12 13  1  1  0  0  0
 12 14  1  0  0  0  0
 14 15  1  0  0  0  0
 15 16  1  0  0  0  0
 15 37  1  1  0  0  0
 16 17  1  0  0  0  0
 17 18  2  0  0  0  0
 19 17  1  6  0  0  0
 19 20  1  0  0  0  0
 19 34  1  0  0  0  0
 20 21  1  0  0  0  0
 21 22  2  0  0  0  0
 21 23  1  0  0  0  0
 23 24  1  0  0  0  0
 23 33  1  0  0  0  0
 24 25  1  0  0  0  0
 25 26  1  0  0  0  0
 25 29  2  0  0  0  0
 26 27  2  0  0  0  0
 27 28  1  0  0  0  0
 27 30  1  0  0  0  0
 28 29  1  0  0  0  0
 30 31  1  0  0  0  0
 30 32  1  0  0  0  0
 34 35  1  0  0  0  0
 34 36  1  0  0  0  0
 37 38  1  0  0  0  0
 38 39  1  0  0  0  0
 38 43  2  0  0  0  0
 39 40  2  0  0  0  0
 40 41  1  0  0  0  0
 41 42  2  0  0  0  0
 42 43  1  0  0  0  0
 44 45  1  0  0  0  0
 45 46  1  0  0  0  0
 45 50  2  0  0  0  0
 46 47  2  0  0  0  0
 47 48  1  0  0  0  0
 48 49  2  0  0  0  0
 49 50  1  0  0  0  0
M  END
>  <Index>
1716

>  <ID>
HT1833

>  <class>
1

>  <apol>
113.53606

>  <ast_fraglike>
0

>  <ast_fraglike_ext>
0

>  <ast_violation>
4

>  <ast_violation_ext>
6

>  <a_acc>
6

>  <a_acid>
0

>  <a_aro>
22

>  <a_base>
0

>  <a_count>
98

>  <a_don>
4

>  <a_donacc>
10

>  <a_heavy>
50

>  <a_hyd>
36

>  <a_IC>
158.29417

>  <a_ICM>
1.6152467

>  <a_nB>
0

>  <a_nBr>
0

>  <a_nC>
37

>  <a_nCl>
0

>  <a_nF>
0

>  <a_nH>
48

>  <a_nI>
0

>  <a_nN>
6

>  <a_nO>
5

>  <a_nP>
0

>  <a_nS>
2

>  <balabanJ>
1.3874168

>  <BCUT_PEOE_0>
-2.7144141

>  <BCUT_PEOE_1>
-0.51930356

>  <BCUT_PEOE_2>
0.5806976

>  <BCUT_PEOE_3>
2.707427

>  <BCUT_SLOGP_0>
-2.8710985

>  <BCUT_SLOGP_1>
-0.46021175

>  <BCUT_SLOGP_2>
0.67699885

>  <BCUT_SLOGP_3>
2.636477

>  <BCUT_SMR_0>
-2.4653656

>  <BCUT_SMR_1>
-0.39122003

>  <BCUT_SMR_2>
0.73829281

>  <BCUT_SMR_3>
2.9509759

>  <bpol>
68.423935

>  <b_1rotN>
18

>  <b_1rotR>
0.33962265

>  <b_ar>
22

>  <b_count>
101

>  <b_double>
3

>  <b_heavy>
53

>  <b_max1len>
7

>  <b_rotN>
22

>  <b_rotR>
0.41509435

>  <b_single>
76

>  <b_triple>
0

>  <chi0>
36.045029

>  <chi0v>
30.876526

>  <chi0v_C>
23.50519

>  <chi0_C>
25.810825

>  <chi1>
23.977274

>  <chi1v>
18.568356

>  <chi1v_C>
10.999342

>  <chi1_C>
13.358211

>  <chiral>
4

>  <chiral_u>
0

>  <density>
0.74469215

>  <diameter>
22

>  <FCharge>
0

>  <GCUT_PEOE_0>
-0.83729672

>  <GCUT_PEOE_1>
-0.38844505

>  <GCUT_PEOE_2>
0.062127329

>  <GCUT_PEOE_3>
3.0360904

>  <GCUT_SLOGP_0>
-1.1654736

>  <GCUT_SLOGP_1>
-0.29156563

>  <GCUT_SLOGP_2>
0.13883604

>  <GCUT_SLOGP_3>
3.0260117

>  <GCUT_SMR_0>
-0.53113741

>  <GCUT_SMR_1>
-0.20909584

>  <GCUT_SMR_2>
0.19305076

>  <GCUT_SMR_3>
3.2793894

>  <Kier1>
42.737629

>  <Kier2>
22.395555

>  <Kier3>
14.987959

>  <KierA1>
34.812023

>  <KierA2>
18.162325

>  <KierA3>
12.118054

>  <KierFlex>
12.645346

>  <lip_acc>
11

>  <lip_don>
4

>  <lip_druglike>
0

>  <lip_violation>
3

>  <logP(o/w)>
5.0040002

>  <logS>
-6.2857499

>  <mr>
20.322235

>  <mutagenic>
0

>  <nmol>
1

>  <opr_brigid>
22

>  <opr_leadlike>
0

>  <opr_nring>
4

>  <opr_nrot>
17

>  <opr_violation>
4

>  <PC+>
0

>  <PC->
0

>  <PEOE_PC+>
4.4528098

>  <PEOE_PC->
-4.4528098

>  <PEOE_RPC+>
0.081129946

>  <PEOE_RPC->
0.087513678

>  <PEOE_VSA+0>
147.93399

>  <PEOE_VSA+1>
125.76762

>  <PEOE_VSA+2>
3.1459606

>  <PEOE_VSA+3>
65.378273

>  <PEOE_VSA+4>
23.273705

>  <PEOE_VSA+5>
0

>  <PEOE_VSA+6>
36.640053

>  <PEOE_VSA-0>
57.91861

>  <PEOE_VSA-1>
215.95532

>  <PEOE_VSA-2>
0

>  <PEOE_VSA-3>
0

>  <PEOE_VSA-4>
27.133842

>  <PEOE_VSA-5>
27.435829

>  <PEOE_VSA-6>
8.1782131

>  <PEOE_VSA_FHYD>
0.8339631

>  <PEOE_VSA_FNEG>
0.45565701

>  <PEOE_VSA_FPNEG>
0.084936604

>  <PEOE_VSA_FPOL>
0.16603689

>  <PEOE_VSA_FPOS>
0.54434299

>  <PEOE_VSA_FPPOS>
0.081100278

>  <PEOE_VSA_HYD>
616.09979

>  <PEOE_VSA_NEG>
336.6218

>  <PEOE_VSA_PNEG>
62.747883

>  <PEOE_VSA_POL>
122.66164

>  <PEOE_VSA_POS>
402.13959

>  <PEOE_VSA_PPOS>
59.913757

>  <petitjean>
0.5

>  <petitjeanSC>
1

>  <Q_PC+>
0

>  <Q_PC->
0

>  <Q_RPC+>
0

>  <Q_RPC->
0

>  <Q_VSA_FHYD>
1

>  <Q_VSA_FNEG>
0

>  <Q_VSA_FPNEG>
0

>  <Q_VSA_FPOL>
0

>  <Q_VSA_FPOS>
1

>  <Q_VSA_FPPOS>
0

>  <Q_VSA_HYD>
738.76141

>  <Q_VSA_NEG>
0

>  <Q_VSA_PNEG>
0

>  <Q_VSA_POL>
0

>  <Q_VSA_POS>
738.76141

>  <Q_VSA_PPOS>
0

>  <radius>
11

>  <reactive>
0

>  <rings>
4

>  <RPC+>
0

>  <RPC->
0

>  <rsynth>
1

>  <SlogP>
6.4379401

>  <SlogP_VSA0>
79.41748

>  <SlogP_VSA1>
54.10075

>  <SlogP_VSA2>
53.276661

>  <SlogP_VSA3>
0

>  <SlogP_VSA4>
15.826669

>  <SlogP_VSA5>
70.633995

>  <SlogP_VSA6>
4.4107962

>  <SlogP_VSA7>
224.8494

>  <SlogP_VSA8>
18.868406

>  <SlogP_VSA9>
282.94971

>  <SMR>
19.73069

>  <SMR_VSA0>
82.58654

>  <SMR_VSA1>
62.080601

>  <SMR_VSA2>
58.443047

>  <SMR_VSA3>
34.241222

>  <SMR_VSA4>
0

>  <SMR_VSA5>
320.82043

>  <SMR_VSA6>
17.405376

>  <SMR_VSA7>
228.75662

>  <TPSA>
145.78

>  <VAdjEq>
0.25318992

>  <VAdjMa>
6.7279205

>  <VDistEq>
4.202127

>  <VDistMa>
11.0307

>  <vdw_area>
738.76141

>  <vdw_vol>
968.13159

>  <vsa_acc>
52.065914

>  <vsa_acid>
0

>  <vsa_base>
0

>  <vsa_don>
17.047728

>  <vsa_hyd>
556.23364

>  <vsa_other>
52.093342

>  <vsa_pol>
82.680565

>  <Weight>
720.95996

>  <weinerPath>
10769

>  <weinerPol>
69

>  <zagreb>
248

$$$$