Clc1ccc(cc1)C1(O)CCN(CC1)CCCC(=O)c1ccc(F)cc1
  MOE2013           2D

 26 28  0  0  0  0  0  0  0  0999 V2000
    0.0000    0.0000    0.0000 Cl  0  0  0  0  0  0  0  0  0  0  0  0
    1.5000   -0.0080    0.0000 C   0  0  0  0  0  0  0  0  0  0  0  0
    2.2430   -1.3120    0.0000 C   0  0  0  0  0  0  0  0  0  0  0  0
    3.7430   -1.3200    0.0000 C   0  0  0  0  0  0  0  0  0  0  0  0
    4.5000   -0.0250    0.0000 C   0  0  0  0  0  0  0  0  0  0  0  0
    3.7570    1.2780    0.0000 C   0  0  0  0  0  0  0  0  0  0  0  0
    2.2570    1.2860    0.0000 C   0  0  0  0  0  0  0  0  0  0  0  0
    6.0000   -0.0340    0.0000 C   0  0  0  0  0  0  0  0  0  0  0  0
    5.2570    1.2690    0.0000 O   0  0  0  0  0  0  0  0  0  0  0  0
    7.3030    0.7090    0.0000 C   0  0  0  0  0  0  0  0  0  0  0  0
    8.5980   -0.0480    0.0000 C   0  0  0  0  0  0  0  0  0  0  0  0
    8.5890   -1.5480    0.0000 N   0  0  0  0  0  0  0  0  0  0  0  0
    7.2860   -2.2910    0.0000 C   0  0  0  0  0  0  0  0  0  0  0  0
    5.9910   -1.5340    0.0000 C   0  0  0  0  0  0  0  0  0  0  0  0
    9.8840   -2.3060    0.0000 C   0  0  0  0  0  0  0  0  0  0  0  0
   11.1880   -1.5630    0.0000 C   0  0  0  0  0  0  0  0  0  0  0  0
   12.4820   -2.3200    0.0000 C   0  0  0  0  0  0  0  0  0  0  0  0
   13.7860   -1.5780    0.0000 C   0  0  0  0  0  0  0  0  0  0  0  0
   13.7940   -0.0780    0.0000 O   0  0  0  0  0  0  0  0  0  0  0  0
   15.0800   -2.3350    0.0000 C   0  0  0  0  0  0  0  0  0  0  0  0
   15.0720   -3.8350    0.0000 C   0  0  0  0  0  0  0  0  0  0  0  0
   16.3670   -4.5920    0.0000 C   0  0  0  0  0  0  0  0  0  0  0  0
   17.6700   -3.8500    0.0000 C   0  0  0  0  0  0  0  0  0  0  0  0
   18.9650   -4.6070    0.0000 F   0  0  0  0  0  0  0  0  0  0  0  0
   17.6780   -2.3500    0.0000 C   0  0  0  0  0  0  0  0  0  0  0  0
   16.3840   -1.5920    0.0000 C   0  0  0  0  0  0  0  0  0  0  0  0
  1  2  1  0  0  0  0
  2  3  1  0  0  0  0
  2  7  2  0  0  0  0
  3  4  2  0  0  0  0
  4  5  1  0  0  0  0
  5  6  2  0  0  0  0
  5  8  1  0  0  0  0
  6  7  1  0  0  0  0
  8  9  1  0  0  0  0
  8 10  1  0  0  0  0
  8 14  1  0  0  0  0
 10 11  1  0  0  0  0
 11 12  1  0  0  0  0
 12 13  1  0  0  0  0
 12 15  1  0  0  0  0
 13 14  1  0  0  0  0
 15 16  1  0  0  0  0
 16 17  1  0  0  0  0
 17 18  1  0  0  0  0
 18 19  2  0  0  0  0
 18 20  1  0  0  0  0
 20 21  1  0  0  0  0
 20 26  2  0  0  0  0
 21 22  2  0  0  0  0
 22 23  1  0  0  0  0
 23 24  1  0  0  0  0
 23 25  2  0  0  0  0
 25 26  1  0  0  0  0
M  END
>  <Index>
1589

>  <ID>
HT1017

>  <class>
1

>  <apol>
57.73724

>  <ast_fraglike>
0

>  <ast_fraglike_ext>
0

>  <ast_violation>
2

>  <ast_violation_ext>
3

>  <a_acc>
3

>  <a_acid>
0

>  <a_aro>
12

>  <a_base>
0

>  <a_count>
49

>  <a_don>
1

>  <a_donacc>
4

>  <a_heavy>
26

>  <a_hyd>
22

>  <a_IC>
76.840195

>  <a_ICM>
1.5681672

>  <a_nB>
0

>  <a_nBr>
0

>  <a_nC>
21

>  <a_nCl>
1

>  <a_nF>
1

>  <a_nH>
23

>  <a_nI>
0

>  <a_nN>
1

>  <a_nO>
2

>  <a_nP>
0

>  <a_nS>
0

>  <balabanJ>
1.3265237

>  <BCUT_PEOE_0>
-2.7920995

>  <BCUT_PEOE_1>
-0.64061767

>  <BCUT_PEOE_2>
0.69514072

>  <BCUT_PEOE_3>
2.7403922

>  <BCUT_SLOGP_0>
-2.8023071

>  <BCUT_SLOGP_1>
-0.53807992

>  <BCUT_SLOGP_2>
0.80591482

>  <BCUT_SLOGP_3>
2.7879086

>  <BCUT_SMR_0>
-2.5297687

>  <BCUT_SMR_1>
-0.49986199

>  <BCUT_SMR_2>
0.85431087

>  <BCUT_SMR_3>
2.9943554

>  <bpol>
29.704762

>  <b_1rotN>
6

>  <b_1rotR>
0.21428572

>  <b_ar>
12

>  <b_count>
51

>  <b_double>
1

>  <b_heavy>
28

>  <b_max1len>
4

>  <b_rotN>
6

>  <b_rotR>
0.21428572

>  <b_single>
38

>  <b_triple>
0

>  <chi0>
18.570704

>  <chi0v>
15.383083

>  <chi0v_C>
12.568549

>  <chi0_C>
13.993353

>  <chi1>
12.460146

>  <chi1v>
9.3357382

>  <chi1v_C>
7.2033944

>  <chi1_C>
9.0033503

>  <chiral>
0

>  <chiral_u>
0

>  <density>
0.75702226

>  <diameter>
17

>  <FCharge>
0

>  <GCUT_PEOE_0>
-0.85738176

>  <GCUT_PEOE_1>
-0.38992807

>  <GCUT_PEOE_2>
0.081409425

>  <GCUT_PEOE_3>
2.7805417

>  <GCUT_SLOGP_0>
-0.95250767

>  <GCUT_SLOGP_1>
-0.26386139

>  <GCUT_SLOGP_2>
0.1852041

>  <GCUT_SLOGP_3>
2.8467832

>  <GCUT_SMR_0>
-0.52270555

>  <GCUT_SMR_1>
-0.21605732

>  <GCUT_SMR_2>
0.19305076

>  <GCUT_SMR_3>
3.0252602

>  <Kier1>
20.727041

>  <Kier2>
9.4674559

>  <Kier3>
5.75

>  <KierA1>
17.338472

>  <KierA2>
7.8599076

>  <KierA3>
4.7478652

>  <KierFlex>
5.2414923

>  <lip_acc>
3

>  <lip_don>
1

>  <lip_druglike>
1

>  <lip_violation>
0

>  <logP(o/w)>
4.598

>  <logS>
-4.8183799

>  <mr>
10.365606

>  <mutagenic>
0

>  <nmol>
1

>  <opr_brigid>
18

>  <opr_leadlike>
1

>  <opr_nring>
3

>  <opr_nrot>
8

>  <opr_violation>
1

>  <PC+>
0

>  <PC->
0

>  <PEOE_PC+>
1.6745889

>  <PEOE_PC->
-1.6745889

>  <PEOE_RPC+>
0.12577261

>  <PEOE_RPC->
0.22923207

>  <PEOE_VSA+0>
101.52966

>  <PEOE_VSA+1>
34.123089

>  <PEOE_VSA+2>
9.0208454

>  <PEOE_VSA+3>
8.458519

>  <PEOE_VSA+4>
10.324173

>  <PEOE_VSA+5>
0

>  <PEOE_VSA+6>
0

>  <PEOE_VSA-0>
115.03423

>  <PEOE_VSA-1>
54.091755

>  <PEOE_VSA-2>
0

>  <PEOE_VSA-3>
0

>  <PEOE_VSA-4>
11.908636

>  <PEOE_VSA-5>
13.566921

>  <PEOE_VSA-6>
7.7675405

>  <PEOE_VSA_FHYD>
0.88090694

>  <PEOE_VSA_FNEG>
0.55318493

>  <PEOE_VSA_FPNEG>
0.090871491

>  <PEOE_VSA_FPOL>
0.11909308

>  <PEOE_VSA_FPOS>
0.44681504

>  <PEOE_VSA_FPPOS>
0.028221589

>  <PEOE_VSA_HYD>
322.25809

>  <PEOE_VSA_NEG>
202.36908

>  <PEOE_VSA_PNEG>
33.243095

>  <PEOE_VSA_POL>
43.567268

>  <PEOE_VSA_POS>
163.45628

>  <PEOE_VSA_PPOS>
10.324173

>  <petitjean>
0.47058824

>  <petitjeanSC>
0.8888889

>  <Q_PC+>
0

>  <Q_PC->
0

>  <Q_RPC+>
0

>  <Q_RPC->
0

>  <Q_VSA_FHYD>
1

>  <Q_VSA_FNEG>
0

>  <Q_VSA_FPNEG>
0

>  <Q_VSA_FPOL>
0

>  <Q_VSA_FPOS>
1

>  <Q_VSA_FPPOS>
0

>  <Q_VSA_HYD>
365.82535

>  <Q_VSA_NEG>
0

>  <Q_VSA_PNEG>
0

>  <Q_VSA_POL>
0

>  <Q_VSA_POS>
365.82535

>  <Q_VSA_PPOS>
0

>  <radius>
9

>  <reactive>
1

>  <rings>
3

>  <RPC+>
0

>  <RPC->
0

>  <rsynth>
1

>  <SlogP>
4.7371001

>  <SlogP_VSA0>
25.385227

>  <SlogP_VSA1>
8.8119249

>  <SlogP_VSA2>
9.1210184

>  <SlogP_VSA3>
55.318733

>  <SlogP_VSA4>
30.233366

>  <SlogP_VSA5>
0

>  <SlogP_VSA6>
3.5006065

>  <SlogP_VSA7>
141.14548

>  <SlogP_VSA8>
75.473625

>  <SlogP_VSA9>
54.108757

>  <SMR>
10.11043

>  <SMR_VSA0>
23.862217

>  <SMR_VSA1>
43.469654

>  <SMR_VSA2>
9.1210184

>  <SMR_VSA3>
9.8717566

>  <SMR_VSA4>
0

>  <SMR_VSA5>
216.61909

>  <SMR_VSA6>
61.006344

>  <SMR_VSA7>
39.148643

>  <TPSA>
40.540001

>  <VAdjEq>
0.41210872

>  <VAdjMa>
5.8073549

>  <VDistEq>
3.8023999

>  <VDistMa>
9.0479355

>  <vdw_area>
365.82535

>  <vdw_vol>
496.51245

>  <vsa_acc>
13.566921

>  <vsa_acid>
0

>  <vsa_base>
0

>  <vsa_don>
0

>  <vsa_hyd>
310.04871

>  <vsa_other>
8.458519

>  <vsa_pol>
27.133842

>  <Weight>
375.871

>  <weinerPath>
2035

>  <weinerPol>
39

>  <zagreb>
134

$$$$