Clc1cc(N2CCN(CC2)CCCN2N=C3N(C=CC=C3)C2=O)ccc1
  MOE2013           2D

 26 29  0  0  0  0  0  0  0  0999 V2000
    0.0000    0.0000    0.0000 Cl  0  0  0  0  0  0  0  0  0  0  0  0
   -1.2980   -0.7530    0.0000 C   0  0  0  0  0  0  0  0  0  0  0  0
   -2.5980   -0.0050    0.0000 C   0  0  0  0  0  0  0  0  0  0  0  0
   -3.8960   -0.7580    0.0000 C   0  0  0  0  0  0  0  0  0  0  0  0
   -5.1960   -0.0100    0.0000 N   0  0  0  0  0  0  0  0  0  0  0  0
   -5.1990    1.4900    0.0000 C   0  0  0  0  0  0  0  0  0  0  0  0
   -6.5000    2.2370    0.0000 C   0  0  0  0  0  0  0  0  0  0  0  0
   -7.7970    1.4840    0.0000 N   0  0  0  0  0  0  0  0  0  0  0  0
   -7.7940   -0.0160    0.0000 C   0  0  0  0  0  0  0  0  0  0  0  0
   -6.4940   -0.7630    0.0000 C   0  0  0  0  0  0  0  0  0  0  0  0
   -9.0980    2.2320    0.0000 C   0  0  0  0  0  0  0  0  0  0  0  0
  -10.3950    1.4790    0.0000 C   0  0  0  0  0  0  0  0  0  0  0  0
  -11.6960    2.2270    0.0000 C   0  0  0  0  0  0  0  0  0  0  0  0
  -12.9930    1.4740    0.0000 N   0  0  0  0  0  0  0  0  0  0  0  0
  -13.1470   -0.0180    0.0000 N   0  0  0  0  0  0  0  0  0  0  0  0
  -14.6140   -0.3330    0.0000 C   0  0  0  0  0  0  0  0  0  0  0  0
  -15.3660    0.9650    0.0000 N   0  0  0  0  0  0  0  0  0  0  0  0
  -16.8660    0.9610    0.0000 C   0  0  0  0  0  0  0  0  0  0  0  0
  -17.6140   -0.3390    0.0000 C   0  0  0  0  0  0  0  0  0  0  0  0
  -16.8610   -1.6370    0.0000 C   0  0  0  0  0  0  0  0  0  0  0  0
  -15.3610   -1.6340    0.0000 C   0  0  0  0  0  0  0  0  0  0  0  0
  -14.3650    2.0810    0.0000 C   0  0  0  0  0  0  0  0  0  0  0  0
  -14.6800    3.5480    0.0000 O   0  0  0  0  0  0  0  0  0  0  0  0
   -3.8930   -2.2580    0.0000 C   0  0  0  0  0  0  0  0  0  0  0  0
   -2.5920   -3.0050    0.0000 C   0  0  0  0  0  0  0  0  0  0  0  0
   -1.2950   -2.2530    0.0000 C   0  0  0  0  0  0  0  0  0  0  0  0
  1  2  1  0  0  0  0
  2  3  1  0  0  0  0
  2 26  2  0  0  0  0
  3  4  2  0  0  0  0
  4  5  1  0  0  0  0
  4 24  1  0  0  0  0
  5  6  1  0  0  0  0
  5 10  1  0  0  0  0
  6  7  1  0  0  0  0
  7  8  1  0  0  0  0
  8  9  1  0  0  0  0
  8 11  1  0  0  0  0
  9 10  1  0  0  0  0
 11 12  1  0  0  0  0
 12 13  1  0  0  0  0
 13 14  1  0  0  0  0
 14 15  1  0  0  0  0
 14 22  1  0  0  0  0
 15 16  2  0  0  0  0
 16 17  1  0  0  0  0
 16 21  1  0  0  0  0
 17 18  1  0  0  0  0
 17 22  1  0  0  0  0
 18 19  2  0  0  0  0
 19 20  1  0  0  0  0
 20 21  2  0  0  0  0
 22 23  2  0  0  0  0
 24 25  2  0  0  0  0
 25 26  1  0  0  0  0
M  END
>  <Index>
1751

>  <ID>
HT2102

>  <class>
1

>  <apol>
56.591446

>  <ast_fraglike>
0

>  <ast_fraglike_ext>
0

>  <ast_violation>
1

>  <ast_violation_ext>
2

>  <a_acc>
3

>  <a_acid>
0

>  <a_aro>
6

>  <a_base>
0

>  <a_count>
48

>  <a_don>
0

>  <a_donacc>
3

>  <a_heavy>
26

>  <a_hyd>
18

>  <a_IC>
77.650444

>  <a_ICM>
1.6177175

>  <a_nB>
0

>  <a_nBr>
0

>  <a_nC>
19

>  <a_nCl>
1

>  <a_nF>
0

>  <a_nH>
22

>  <a_nI>
0

>  <a_nN>
5

>  <a_nO>
1

>  <a_nP>
0

>  <a_nS>
0

>  <balabanJ>
1.1434498

>  <BCUT_PEOE_0>
-2.7715662

>  <BCUT_PEOE_1>
-0.61011809

>  <BCUT_PEOE_2>
0.61006296

>  <BCUT_PEOE_3>
2.6769917

>  <BCUT_SLOGP_0>
-2.8863266

>  <BCUT_SLOGP_1>
-0.45333531

>  <BCUT_SLOGP_2>
0.76509494

>  <BCUT_SLOGP_3>
2.5952871

>  <BCUT_SMR_0>
-2.4819071

>  <BCUT_SMR_1>
-0.41473544

>  <BCUT_SMR_2>
0.8291477

>  <BCUT_SMR_3>
2.9597182

>  <bpol>
33.348553

>  <b_1rotN>
5

>  <b_1rotR>
0.1724138

>  <b_ar>
6

>  <b_count>
51

>  <b_double>
4

>  <b_heavy>
29

>  <b_max1len>
4

>  <b_rotN>
5

>  <b_rotR>
0.1724138

>  <b_single>
41

>  <b_triple>
0

>  <chi0>
17.93251

>  <chi0v>
15.346759

>  <chi0v_C>
11.568549

>  <chi0_C>
12.916003

>  <chi1>
12.70351

>  <chi1v>
9.3547125

>  <chi1v_C>
5.1100426

>  <chi1_C>
6.5412416

>  <chiral>
0

>  <chiral_u>
0

>  <density>
0.75839031

>  <diameter>
15

>  <FCharge>
0

>  <GCUT_PEOE_0>
-0.85440868

>  <GCUT_PEOE_1>
-0.40253663

>  <GCUT_PEOE_2>
0.060155094

>  <GCUT_PEOE_3>
2.712363

>  <GCUT_SLOGP_0>
-0.98692673

>  <GCUT_SLOGP_1>
-0.30390209

>  <GCUT_SLOGP_2>
0.16782585

>  <GCUT_SLOGP_3>
2.7146308

>  <GCUT_SMR_0>
-0.51989961

>  <GCUT_SMR_1>
-0.18776284

>  <GCUT_SMR_2>
0.20683835

>  <GCUT_SMR_3>
2.976193

>  <Kier1>
19.322235

>  <Kier2>
9

>  <Kier3>
4.716269

>  <KierA1>
15.18558

>  <KierA2>
7.0004883

>  <KierA3>
3.6414165

>  <KierFlex>
4.0887108

>  <lip_acc>
6

>  <lip_don>
0

>  <lip_druglike>
1

>  <lip_violation>
0

>  <logP(o/w)>
2.668

>  <logS>
-3.7669599

>  <mr>
10.16061

>  <mutagenic>
0

>  <nmol>
1

>  <opr_brigid>
22

>  <opr_leadlike>
1

>  <opr_nring>
4

>  <opr_nrot>
7

>  <opr_violation>
0

>  <PC+>
0

>  <PC->
0

>  <PEOE_PC+>
1.8214496

>  <PEOE_PC->
-1.8214496

>  <PEOE_RPC+>
0.19271991

>  <PEOE_RPC->
0.16460595

>  <PEOE_VSA+0>
158.30379

>  <PEOE_VSA+1>
42.653858

>  <PEOE_VSA+2>
0

>  <PEOE_VSA+3>
11.190562

>  <PEOE_VSA+4>
0

>  <PEOE_VSA+5>
0

>  <PEOE_VSA+6>
17.440542

>  <PEOE_VSA-0>
69.97583

>  <PEOE_VSA-1>
54.091755

>  <PEOE_VSA-2>
9.4210396

>  <PEOE_VSA-3>
0

>  <PEOE_VSA-4>
13.566921

>  <PEOE_VSA-5>
0

>  <PEOE_VSA-6>
0

>  <PEOE_VSA_FHYD>
0.91767442

>  <PEOE_VSA_FNEG>
0.39043614

>  <PEOE_VSA_FPNEG>
0.036020514

>  <PEOE_VSA_FPOL>
0.082325585

>  <PEOE_VSA_FPOS>
0.60956389

>  <PEOE_VSA_FPPOS>
0.046305075

>  <PEOE_VSA_HYD>
345.63684

>  <PEOE_VSA_NEG>
147.05554

>  <PEOE_VSA_PNEG>
13.566921

>  <PEOE_VSA_POL>
31.007463

>  <PEOE_VSA_POS>
229.58876

>  <PEOE_VSA_PPOS>
17.440542

>  <petitjean>
0.46666667

>  <petitjeanSC>
0.875

>  <Q_PC+>
0

>  <Q_PC->
0

>  <Q_RPC+>
0

>  <Q_RPC->
0

>  <Q_VSA_FHYD>
1

>  <Q_VSA_FNEG>
0

>  <Q_VSA_FPNEG>
0

>  <Q_VSA_FPOL>
0

>  <Q_VSA_FPOS>
1

>  <Q_VSA_FPPOS>
0

>  <Q_VSA_HYD>
376.64432

>  <Q_VSA_NEG>
0

>  <Q_VSA_PNEG>
0

>  <Q_VSA_POL>
0

>  <Q_VSA_POS>
376.64432

>  <Q_VSA_PPOS>
0

>  <radius>
8

>  <reactive>
0

>  <rings>
4

>  <RPC+>
0

>  <RPC->
0

>  <rsynth>
0.61538464

>  <SlogP>
2.9867001

>  <SlogP_VSA0>
3.1243138

>  <SlogP_VSA1>
16.408297

>  <SlogP_VSA2>
0

>  <SlogP_VSA3>
110.63747

>  <SlogP_VSA4>
0

>  <SlogP_VSA5>
16.663008

>  <SlogP_VSA6>
3.5006065

>  <SlogP_VSA7>
140.71664

>  <SlogP_VSA8>
18.868406

>  <SlogP_VSA9>
65.767609

>  <SMR>
10.4378

>  <SMR_VSA0>
23.862217

>  <SMR_VSA1>
25.913427

>  <SMR_VSA2>
3.1243138

>  <SMR_VSA3>
3.5006065

>  <SMR_VSA4>
2.7567475

>  <SMR_VSA5>
159.58505

>  <SMR_VSA6>
117.79534

>  <SMR_VSA7>
39.148643

>  <TPSA>
42.389999

>  <VAdjEq>
0.42228913

>  <VAdjMa>
5.8579812

>  <VDistEq>
3.748698

>  <VDistMa>
9.0490131

>  <vdw_area>
376.64432

>  <vdw_vol>
490.34381

>  <vsa_acc>
22.987961

>  <vsa_acid>
0

>  <vsa_base>
0

>  <vsa_don>
0

>  <vsa_hyd>
309.36575

>  <vsa_other>
28.631105

>  <vsa_pol>
22.987961

>  <Weight>
371.87198

>  <weinerPath>
2003

>  <weinerPol>
39

>  <zagreb>
138

$$$$