Ic1c(C(=O)NC)c(I)c(NC(=O)C)c(I)c1C(O)=O
  MOE2013           2D

 20 20  0  0  0  0  0  0  0  0999 V2000
    0.0000    0.0000    0.0000 I   0  0  0  0  0  0  0  0  0  0  0  0
   -0.7520   -1.2980    0.0000 C   0  0  0  0  0  0  0  0  0  0  0  0
   -0.0040   -2.5980    0.0000 C   0  0  0  0  0  0  0  0  0  0  0  0
    1.4960   -2.6000    0.0000 C   0  0  0  0  0  0  0  0  0  0  0  0
    2.2480   -1.3020    0.0000 O   0  0  0  0  0  0  0  0  0  0  0  0
    2.2440   -3.9010    0.0000 N   0  0  0  0  0  0  0  0  0  0  0  0
    3.7440   -3.9030    0.0000 C   0  0  0  0  0  0  0  0  0  0  0  0
   -0.7560   -3.8960    0.0000 C   0  0  0  0  0  0  0  0  0  0  0  0
   -0.0080   -5.1960    0.0000 I   0  0  0  0  0  0  0  0  0  0  0  0
   -2.2560   -3.8940    0.0000 C   0  0  0  0  0  0  0  0  0  0  0  0
   -3.0080   -5.1920    0.0000 N   0  0  0  0  0  0  0  0  0  0  0  0
   -4.5080   -5.1890    0.0000 C   0  0  0  0  0  0  0  0  0  0  0  0
   -5.2560   -3.8890    0.0000 O   0  0  0  0  0  0  0  0  0  0  0  0
   -5.2600   -6.4870    0.0000 C   0  0  0  0  0  0  0  0  0  0  0  0
   -3.0040   -2.5940    0.0000 C   0  0  0  0  0  0  0  0  0  0  0  0
   -4.5040   -2.5910    0.0000 I   0  0  0  0  0  0  0  0  0  0  0  0
   -2.2520   -1.2960    0.0000 C   0  0  0  0  0  0  0  0  0  0  0  0
   -3.0000    0.0050    0.0000 C   0  0  0  0  0  0  0  0  0  0  0  0
   -4.5000    0.0070    0.0000 O   0  0  0  0  0  0  0  0  0  0  0  0
   -2.2480    1.3020    0.0000 O   0  0  0  0  0  0  0  0  0  0  0  0
  1  2  1  0  0  0  0
  2  3  1  0  0  0  0
  2 17  2  0  0  0  0
  3  4  1  0  0  0  0
  3  8  2  0  0  0  0
  4  5  2  0  0  0  0
  4  6  1  0  0  0  0
  6  7  1  0  0  0  0
  8  9  1  0  0  0  0
  8 10  1  0  0  0  0
 10 11  1  0  0  0  0
 10 15  2  0  0  0  0
 11 12  1  0  0  0  0
 12 13  2  0  0  0  0
 12 14  1  0  0  0  0
 15 16  1  0  0  0  0
 15 17  1  0  0  0  0
 17 18  1  0  0  0  0
 18 19  1  0  0  0  0
 18 20  2  0  0  0  0
M  END
>  <Index>
1606

>  <ID>
HT1115

>  <class>
1

>  <apol>
46.819138

>  <ast_fraglike>
0

>  <ast_fraglike_ext>
0

>  <ast_violation>
3

>  <ast_violation_ext>
4

>  <a_acc>
4

>  <a_acid>
0

>  <a_aro>
6

>  <a_base>
0

>  <a_count>
29

>  <a_don>
4

>  <a_donacc>
8

>  <a_heavy>
20

>  <a_hyd>
11

>  <a_IC>
59.543488

>  <a_ICM>
2.0532238

>  <a_nB>
0

>  <a_nBr>
0

>  <a_nC>
11

>  <a_nCl>
0

>  <a_nF>
0

>  <a_nH>
9

>  <a_nI>
3

>  <a_nN>
2

>  <a_nO>
4

>  <a_nP>
0

>  <a_nS>
0

>  <balabanJ>
3.0900528

>  <BCUT_PEOE_0>
-2.3348444

>  <BCUT_PEOE_1>
-0.59344935

>  <BCUT_PEOE_2>
0.54781139

>  <BCUT_PEOE_3>
2.3378112

>  <BCUT_SLOGP_0>
-2.5410969

>  <BCUT_SLOGP_1>
-0.50052404

>  <BCUT_SLOGP_2>
0.66378641

>  <BCUT_SLOGP_3>
2.3788967

>  <BCUT_SMR_0>
-2.0244591

>  <BCUT_SMR_1>
-0.31750181

>  <BCUT_SMR_2>
0.89246982

>  <BCUT_SMR_3>
2.7211635

>  <bpol>
24.802862

>  <b_1rotN>
3

>  <b_1rotR>
0.15000001

>  <b_ar>
6

>  <b_count>
29

>  <b_double>
3

>  <b_heavy>
20

>  <b_max1len>
3

>  <b_rotN>
5

>  <b_rotR>
0.25

>  <b_single>
20

>  <b_triple>
0

>  <chi0>
15.610366

>  <chi0v>
16.778347

>  <chi0v_C>
6.5

>  <chi0_C>
7.1961522

>  <chi1>
9.2173204

>  <chi1v>
8.3891735

>  <chi1v_C>
2.5

>  <chi1_C>
3.2440169

>  <chiral>
0

>  <chiral_u>
0

>  <density>
1.5607532

>  <diameter>
8

>  <FCharge>
0

>  <GCUT_PEOE_0>
-0.83989131

>  <GCUT_PEOE_1>
-0.49448106

>  <GCUT_PEOE_2>
0.10219984

>  <GCUT_PEOE_3>
2.3132455

>  <GCUT_SLOGP_0>
-1.1607196

>  <GCUT_SLOGP_1>
-0.42643031

>  <GCUT_SLOGP_2>
0.23225348

>  <GCUT_SLOGP_3>
2.3931289

>  <GCUT_SMR_0>
-0.48508152

>  <GCUT_SMR_1>
-0.20515123

>  <GCUT_SMR_2>
0.36009854

>  <GCUT_SMR_3>
2.7367985

>  <Kier1>
18.049999

>  <Kier2>
7.3198571

>  <Kier3>
3.8144045

>  <KierA1>
21.488802

>  <KierA2>
8.7952757

>  <KierA3>
4.6141872

>  <KierFlex>
9.4499969

>  <lip_acc>
6

>  <lip_don>
3

>  <lip_druglike>
1

>  <lip_violation>
1

>  <logP(o/w)>
3.7309999

>  <logS>
-4.6844201

>  <mr>
10.034142

>  <mutagenic>
0

>  <nmol>
1

>  <opr_brigid>
6

>  <opr_leadlike>
1

>  <opr_nring>
1

>  <opr_nrot>
3

>  <opr_violation>
1

>  <PC+>
0

>  <PC->
0

>  <PEOE_PC+>
1.9310044

>  <PEOE_PC->
-1.9310044

>  <PEOE_RPC+>
0.15190971

>  <PEOE_RPC->
0.18383333

>  <PEOE_VSA+0>
70.618774

>  <PEOE_VSA+1>
17.196817

>  <PEOE_VSA+2>
0

>  <PEOE_VSA+3>
17.238026

>  <PEOE_VSA+4>
23.273705

>  <PEOE_VSA+5>
27.65803

>  <PEOE_VSA+6>
0

>  <PEOE_VSA-0>
140.97005

>  <PEOE_VSA-1>
0

>  <PEOE_VSA-2>
0

>  <PEOE_VSA-3>
0

>  <PEOE_VSA-4>
0

>  <PEOE_VSA-5>
40.700764

>  <PEOE_VSA-6>
8.0413227

>  <PEOE_VSA_FHYD>
0.71167326

>  <PEOE_VSA_FNEG>
0.54878074

>  <PEOE_VSA_FPNEG>
0.14099635

>  <PEOE_VSA_FPOL>
0.28832671

>  <PEOE_VSA_FPOS>
0.45121923

>  <PEOE_VSA_FPPOS>
0.14733036

>  <PEOE_VSA_HYD>
246.02367

>  <PEOE_VSA_NEG>
189.71213

>  <PEOE_VSA_PNEG>
48.742085

>  <PEOE_VSA_POL>
99.67382

>  <PEOE_VSA_POS>
155.98535

>  <PEOE_VSA_PPOS>
50.931732

>  <petitjean>
0.375

>  <petitjeanSC>
0.60000002

>  <Q_PC+>
0

>  <Q_PC->
0

>  <Q_RPC+>
0

>  <Q_RPC->
0

>  <Q_VSA_FHYD>
1

>  <Q_VSA_FNEG>
0

>  <Q_VSA_FPNEG>
0

>  <Q_VSA_FPOL>
0

>  <Q_VSA_FPOS>
1

>  <Q_VSA_FPPOS>
0

>  <Q_VSA_HYD>
345.69748

>  <Q_VSA_NEG>
0

>  <Q_VSA_PNEG>
0

>  <Q_VSA_POL>
0

>  <Q_VSA_POS>
345.69748

>  <Q_VSA_PPOS>
0

>  <radius>
5

>  <reactive>
0

>  <rings>
1

>  <RPC+>
0

>  <RPC->
0

>  <rsynth>
1

>  <SlogP>
2.5165999

>  <SlogP_VSA0>
18.01075

>  <SlogP_VSA1>
36.273781

>  <SlogP_VSA2>
28.841145

>  <SlogP_VSA3>
25.385227

>  <SlogP_VSA4>
54.095581

>  <SlogP_VSA5>
32.897186

>  <SlogP_VSA6>
0

>  <SlogP_VSA7>
0

>  <SlogP_VSA8>
0

>  <SlogP_VSA9>
206.42879

>  <SMR>
9.9246197

>  <SMR_VSA0>
71.586647

>  <SMR_VSA1>
0

>  <SMR_VSA2>
48.374905

>  <SMR_VSA3>
6.37115

>  <SMR_VSA4>
20.767498

>  <SMR_VSA5>
0

>  <SMR_VSA6>
18.263031

>  <SMR_VSA7>
236.56923

>  <TPSA>
95.5

>  <VAdjEq>
0.4689956

>  <VAdjMa>
5.321928

>  <VDistEq>
2.7967854

>  <VDistMa>
8.4055929

>  <vdw_area>
345.69748

>  <vdw_vol>
393.34534

>  <vsa_acc>
27.133842

>  <vsa_acid>
0

>  <vsa_base>
0

>  <vsa_don>
11.365152

>  <vsa_hyd>
224.51486

>  <vsa_other>
40.607563

>  <vsa_pol>
65.632835

>  <Weight>
613.91498

>  <weinerPath>
731

>  <weinerPol>
35

>  <zagreb>
98

$$$$