s1cc(nc1N)/C(=N/OC)/C(=O)N[C@H]1[C@H]2SCC(CSC3=NC(=O)C(=O)NN3C)=C(N2C1=O)C(O)=O
  MOE2013           2D

 36 39  0  0  1  0  0  0  0  0999 V2000
    0.0000    0.0000    0.0000 S   0  0  0  0  0  0  0  0  0  0  0  0
   -1.4300    0.4540    0.0000 C   0  0  0  0  0  0  0  0  0  0  0  0
   -1.4390    1.9540    0.0000 C   0  0  0  0  0  0  0  0  0  0  0  0
   -0.0160    2.4270    0.0000 N   0  0  0  0  0  0  0  0  0  0  0  0
    0.8740    1.2190    0.0000 C   0  0  0  0  0  0  0  0  0  0  0  0
    2.3740    1.2290    0.0000 N   0  0  0  0  0  0  0  0  0  0  0  0
   -2.6580    2.8280    0.0000 C   0  0  0  0  0  0  0  0  0  0  0  0
   -2.5110    4.3210    0.0000 N   0  0  0  0  0  0  0  0  0  0  0  0
   -3.7300    5.1950    0.0000 O   0  0  0  0  0  0  0  0  0  0  0  0
   -3.5830    6.6880    0.0000 C   0  0  0  0  0  0  0  0  0  0  0  0
   -4.0250    2.2090    0.0000 C   0  0  0  0  0  0  0  0  0  0  0  0
   -4.1720    0.7170    0.0000 O   0  0  0  0  0  0  0  0  0  0  0  0
   -5.2440    3.0830    0.0000 N   0  0  0  0  0  0  0  0  0  0  0  0
   -6.6100    2.4640    0.0000 C   0  0  1  0  0  0  0  0  0  0  0  0
   -8.0140    2.9930    0.0000 C   0  0  1  0  0  0  0  0  0  0  0  0
   -8.9650    4.1530    0.0000 S   0  0  0  0  0  0  0  0  0  0  0  0
  -10.4450    3.9090    0.0000 C   0  0  0  0  0  0  0  0  0  0  0  0
  -10.9740    2.5050    0.0000 C   0  0  0  0  0  0  0  0  0  0  0  0
  -12.4540    2.2610    0.0000 C   0  0  0  0  0  0  0  0  0  0  0  0
  -13.4050    3.4200    0.0000 S   0  0  0  0  0  0  0  0  0  0  0  0
  -14.8850    3.1760    0.0000 C   0  0  0  0  0  0  0  0  0  0  0  0
  -15.4140    1.7720    0.0000 N   0  0  0  0  0  0  0  0  0  0  0  0
  -16.8940    1.5280    0.0000 C   0  0  0  0  0  0  0  0  0  0  0  0
  -17.4230    0.1240    0.0000 O   0  0  0  0  0  0  0  0  0  0  0  0
  -17.8450    2.6880    0.0000 C   0  0  0  0  0  0  0  0  0  0  0  0
  -19.3250    2.4440    0.0000 O   0  0  0  0  0  0  0  0  0  0  0  0
  -17.3170    4.0920    0.0000 N   0  0  0  0  0  0  0  0  0  0  0  0
  -15.8370    4.3360    0.0000 N   0  0  0  0  0  0  0  0  0  0  0  0
  -15.3080    5.7400    0.0000 C   0  0  0  0  0  0  0  0  0  0  0  0
  -10.0230    1.3450    0.0000 C   0  0  0  0  0  0  0  0  0  0  0  0
   -8.5430    1.5890    0.0000 N   0  0  0  0  0  0  0  0  0  0  0  0
   -7.1390    1.0610    0.0000 C   0  0  0  0  0  0  0  0  0  0  0  0
   -6.5200   -0.3060    0.0000 O   0  0  0  0  0  0  0  0  0  0  0  0
  -10.5510   -0.0590    0.0000 C   0  0  0  0  0  0  0  0  0  0  0  0
   -9.6000   -1.2180    0.0000 O   0  0  0  0  0  0  0  0  0  0  0  0
  -12.0310   -0.3030    0.0000 O   0  0  0  0  0  0  0  0  0  0  0  0
  1  2  1  0  0  0  0
  1  5  1  0  0  0  0
  2  3  2  0  0  0  0
  3  4  1  0  0  0  0
  3  7  1  0  0  0  0
  4  5  2  0  0  0  0
  5  6  1  0  0  0  0
  7  8  2  0  0  0  0
  7 11  1  0  0  0  0
  8  9  1  0  0  0  0
  9 10  1  0  0  0  0
 11 12  2  0  0  0  0
 11 13  1  0  0  0  0
 14 13  1  6  0  0  0
 14 15  1  0  0  0  0
 14 32  1  0  0  0  0
 15 16  1  6  0  0  0
 15 31  1  0  0  0  0
 16 17  1  0  0  0  0
 17 18  1  0  0  0  0
 18 19  1  0  0  0  0
 18 30  2  0  0  0  0
 19 20  1  0  0  0  0
 20 21  1  0  0  0  0
 21 22  2  0  0  0  0
 21 28  1  0  0  0  0
 22 23  1  0  0  0  0
 23 24  2  0  0  0  0
 23 25  1  0  0  0  0
 25 26  2  0  0  0  0
 25 27  1  0  0  0  0
 27 28  1  0  0  0  0
 28 29  1  0  0  0  0
 30 31  1  0  0  0  0
 30 34  1  0  0  0  0
 31 32  1  0  0  0  0
 32 33  2  0  0  0  0
 34 35  1  0  0  0  0
 34 36  2  0  0  0  0
M  END
>  <Index>
1479

>  <ID>
HT0427

>  <class>
1

>  <apol>
66.796272

>  <ast_fraglike>
0

>  <ast_fraglike_ext>
0

>  <ast_violation>
3

>  <ast_violation_ext>
5

>  <a_acc>
9

>  <a_acid>
0

>  <a_aro>
5

>  <a_base>
0

>  <a_count>
54

>  <a_don>
5

>  <a_donacc>
14

>  <a_heavy>
36

>  <a_hyd>
13

>  <a_IC>
112.24025

>  <a_ICM>
2.0785232

>  <a_nB>
0

>  <a_nBr>
0

>  <a_nC>
18

>  <a_nCl>
0

>  <a_nF>
0

>  <a_nH>
18

>  <a_nI>
0

>  <a_nN>
8

>  <a_nO>
7

>  <a_nP>
0

>  <a_nS>
3

>  <balabanJ>
1.3489956

>  <BCUT_PEOE_0>
-2.6852119

>  <BCUT_PEOE_1>
-0.51109183

>  <BCUT_PEOE_2>
0.53104621

>  <BCUT_PEOE_3>
2.7345181

>  <BCUT_SLOGP_0>
-2.8933568

>  <BCUT_SLOGP_1>
-0.51840228

>  <BCUT_SLOGP_2>
0.49566722

>  <BCUT_SLOGP_3>
2.6202123

>  <BCUT_SMR_0>
-2.3985677

>  <BCUT_SMR_1>
-0.29510877

>  <BCUT_SMR_2>
0.70352536

>  <BCUT_SMR_3>
3.0201154

>  <bpol>
39.163727

>  <b_1rotN>
7

>  <b_1rotR>
0.17948718

>  <b_ar>
5

>  <b_count>
57

>  <b_double>
8

>  <b_heavy>
39

>  <b_max1len>
3

>  <b_rotN>
9

>  <b_rotR>
0.23076923

>  <b_single>
44

>  <b_triple>
0

>  <chi0>
26.145535

>  <chi0v>
21.030621

>  <chi0v_C>
10.646264

>  <chi0_C>
11.626874

>  <chi1>
17.116301

>  <chi1v>
12.869074

>  <chi1v_C>
2.8677905

>  <chi1_C>
3.5580783

>  <chiral>
2

>  <chiral_u>
0

>  <density>
0.94329911

>  <diameter>
18

>  <FCharge>
0

>  <GCUT_PEOE_0>
-0.86440521

>  <GCUT_PEOE_1>
-0.47921717

>  <GCUT_PEOE_2>
0.056760926

>  <GCUT_PEOE_3>
2.6503932

>  <GCUT_SLOGP_0>
-1.3345559

>  <GCUT_SLOGP_1>
-0.45188889

>  <GCUT_SLOGP_2>
0.08640714

>  <GCUT_SLOGP_3>
2.5987515

>  <GCUT_SMR_0>
-0.52878237

>  <GCUT_SMR_1>
-0.2172375

>  <GCUT_SMR_2>
0.28894764

>  <GCUT_SMR_3>
2.9497333

>  <Kier1>
28.994083

>  <Kier2>
12.453062

>  <Kier3>
6.2702169

>  <KierA1>
24.12472

>  <KierA2>
10.304515

>  <KierA3>
5.168335

>  <KierFlex>
6.905376

>  <lip_acc>
15

>  <lip_don>
5

>  <lip_druglike>
0

>  <lip_violation>
2

>  <logP(o/w)>
-1.1619999

>  <logS>
-5.2785802

>  <mr>
12.868069

>  <mutagenic>
1

>  <nmol>
1

>  <opr_brigid>
21

>  <opr_leadlike>
0

>  <opr_nring>
4

>  <opr_nrot>
8

>  <opr_violation>
2

>  <PC+>
0

>  <PC->
0

>  <PEOE_PC+>
4.2025785

>  <PEOE_PC->
-4.2025785

>  <PEOE_RPC+>
0.080531575

>  <PEOE_RPC->
0.080129661

>  <PEOE_VSA+0>
74.451141

>  <PEOE_VSA+1>
70.456146

>  <PEOE_VSA+2>
32.205559

>  <PEOE_VSA+3>
56.864819

>  <PEOE_VSA+4>
10.324173

>  <PEOE_VSA+5>
25.899061

>  <PEOE_VSA+6>
40.607563

>  <PEOE_VSA-0>
2.2085397

>  <PEOE_VSA-1>
33.991585

>  <PEOE_VSA-2>
30.64588

>  <PEOE_VSA-3>
5.6825762

>  <PEOE_VSA-4>
5.6825762

>  <PEOE_VSA-5>
84.263435

>  <PEOE_VSA-6>
7.9044313

>  <PEOE_VSA_FHYD>
0.63697886

>  <PEOE_VSA_FNEG>
0.35408032

>  <PEOE_VSA_FPNEG>
0.20335202

>  <PEOE_VSA_FPOL>
0.36302117

>  <PEOE_VSA_FPOS>
0.64591968

>  <PEOE_VSA_FPPOS>
0.15966915

>  <PEOE_VSA_HYD>
306.50626

>  <PEOE_VSA_NEG>
170.37903

>  <PEOE_VSA_PNEG>
97.850449

>  <PEOE_VSA_POL>
174.68124

>  <PEOE_VSA_POS>
310.80847

>  <PEOE_VSA_PPOS>
76.830795

>  <petitjean>
0.5

>  <petitjeanSC>
1

>  <Q_PC+>
0

>  <Q_PC->
0

>  <Q_RPC+>
0

>  <Q_RPC->
0

>  <Q_VSA_FHYD>
1

>  <Q_VSA_FNEG>
0

>  <Q_VSA_FPNEG>
0

>  <Q_VSA_FPOL>
0

>  <Q_VSA_FPOS>
1

>  <Q_VSA_FPPOS>
0

>  <Q_VSA_HYD>
481.1875

>  <Q_VSA_NEG>
0

>  <Q_VSA_PNEG>
0

>  <Q_VSA_POL>
0

>  <Q_VSA_POS>
481.1875

>  <Q_VSA_PPOS>
0

>  <radius>
9

>  <reactive>
1

>  <rings>
4

>  <RPC+>
0

>  <RPC->
0

>  <rsynth>
0.58333331

>  <SlogP>
-1.5932

>  <SlogP_VSA0>
68.796165

>  <SlogP_VSA1>
55.142059

>  <SlogP_VSA2>
136.85895

>  <SlogP_VSA3>
59.852356

>  <SlogP_VSA4>
2.7567475

>  <SlogP_VSA5>
110.40877

>  <SlogP_VSA6>
0

>  <SlogP_VSA7>
15.81601

>  <SlogP_VSA8>
0

>  <SlogP_VSA9>
96.217514

>  <SMR>
13.05646

>  <SMR_VSA0>
130.52985

>  <SMR_VSA1>
59.097027

>  <SMR_VSA2>
61.284206

>  <SMR_VSA3>
15.028167

>  <SMR_VSA4>
0.50074643

>  <SMR_VSA5>
48.7132

>  <SMR_VSA6>
66.697556

>  <SMR_VSA7>
163.99782

>  <TPSA>
208.98

>  <VAdjEq>
0.3281796

>  <VAdjMa>
6.2854023

>  <VDistEq>
3.9161918

>  <VDistMa>
10.039266

>  <vdw_area>
481.1875

>  <vdw_vol>
587.92487

>  <vsa_acc>
76.518097

>  <vsa_acid>
0

>  <vsa_base>
0

>  <vsa_don>
32.846104

>  <vsa_hyd>
213.17622

>  <vsa_other>
105.44178

>  <vsa_pol>
136.49805

>  <Weight>
554.58899

>  <weinerPath>
4386

>  <weinerPol>
59

>  <zagreb>
192

$$$$