O([C@]([C@@H](CN(C)C)C)(Cc1ccccc1)c1ccccc1)C(=O)CC
  MOE2013           2D

 25 26  0  0  1  0  0  0  0  0999 V2000
    0.0000    0.0000    0.0000 O   0  0  0  0  0  0  0  0  0  0  0  0
   -1.0570   -1.0650    0.0000 C   0  0  2  0  0  0  0  0  0  0  0  0
   -2.1210   -0.0080    0.0000 C   0  0  1  0  0  0  0  0  0  0  0  0
   -3.5690   -0.4010    0.0000 C   0  0  0  0  0  0  0  0  0  0  0  0
   -4.6330    0.6550    0.0000 N   0  0  0  0  0  0  0  0  0  0  0  0
   -4.2500    2.1060    0.0000 C   0  0  0  0  0  0  0  0  0  0  0  0
   -6.0810    0.2620    0.0000 C   0  0  0  0  0  0  0  0  0  0  0  0
   -1.7380    1.4430    0.0000 C   0  0  0  0  0  0  0  0  0  0  0  0
    0.0080   -2.1210    0.0000 C   0  0  0  0  0  0  0  0  0  0  0  0
    1.4550   -1.7280    0.0000 C   0  0  0  0  0  0  0  0  0  0  0  0
    2.5200   -2.7850    0.0000 C   0  0  0  0  0  0  0  0  0  0  0  0
    3.9670   -2.3910    0.0000 C   0  0  0  0  0  0  0  0  0  0  0  0
    4.3500   -0.9410    0.0000 C   0  0  0  0  0  0  0  0  0  0  0  0
    3.2860    0.1160    0.0000 C   0  0  0  0  0  0  0  0  0  0  0  0
    1.8380   -0.2770    0.0000 C   0  0  0  0  0  0  0  0  0  0  0  0
   -2.1140   -2.1290    0.0000 C   0  0  0  0  0  0  0  0  0  0  0  0
   -3.5640   -1.7460    0.0000 C   0  0  0  0  0  0  0  0  0  0  0  0
   -4.6210   -2.8110    0.0000 C   0  0  0  0  0  0  0  0  0  0  0  0
   -4.2270   -4.2580    0.0000 C   0  0  0  0  0  0  0  0  0  0  0  0
   -2.7770   -4.6410    0.0000 C   0  0  0  0  0  0  0  0  0  0  0  0
   -1.7200   -3.5770    0.0000 C   0  0  0  0  0  0  0  0  0  0  0  0
   -0.0060    1.5000    0.0000 C   0  0  0  0  0  0  0  0  0  0  0  0
   -1.3070    2.2450    0.0000 O   0  0  0  0  0  0  0  0  0  0  0  0
    1.2910    2.2550    0.0000 C   0  0  0  0  0  0  0  0  0  0  0  0
    1.2850    3.7550    0.0000 C   0  0  0  0  0  0  0  0  0  0  0  0
  1 22  1  0  0  0  0
  2  1  1  6  0  0  0
  2  3  1  0  0  0  0
  2  9  1  1  0  0  0
  2 16  1  0  0  0  0
  3  4  1  0  0  0  0
  3  8  1  1  0  0  0
  4  5  1  0  0  0  0
  5  6  1  0  0  0  0
  5  7  1  0  0  0  0
  9 10  1  0  0  0  0
 10 11  1  0  0  0  0
 10 15  2  0  0  0  0
 11 12  2  0  0  0  0
 12 13  1  0  0  0  0
 13 14  2  0  0  0  0
 14 15  1  0  0  0  0
 16 17  1  0  0  0  0
 16 21  2  0  0  0  0
 17 18  2  0  0  0  0
 18 19  1  0  0  0  0
 19 20  2  0  0  0  0
 20 21  1  0  0  0  0
 22 23  2  0  0  0  0
 22 24  1  0  0  0  0
 24 25  1  0  0  0  0
M  END
>  <Index>
1519

>  <ID>
HT0629

>  <class>
1

>  <apol>
60.760998

>  <ast_fraglike>
0

>  <ast_fraglike_ext>
0

>  <ast_violation>
2

>  <ast_violation_ext>
3

>  <a_acc>
2

>  <a_acid>
0

>  <a_aro>
12

>  <a_base>
0

>  <a_count>
54

>  <a_don>
0

>  <a_donacc>
2

>  <a_heavy>
25

>  <a_hyd>
21

>  <a_IC>
69.774979

>  <a_ICM>
1.2921293

>  <a_nB>
0

>  <a_nBr>
0

>  <a_nC>
22

>  <a_nCl>
0

>  <a_nF>
0

>  <a_nH>
29

>  <a_nI>
0

>  <a_nN>
1

>  <a_nO>
2

>  <a_nP>
0

>  <a_nS>
0

>  <balabanJ>
2.2744987

>  <BCUT_PEOE_0>
-2.7232893

>  <BCUT_PEOE_1>
-0.52802706

>  <BCUT_PEOE_2>
0.58747566

>  <BCUT_PEOE_3>
2.7055199

>  <BCUT_SLOGP_0>
-2.7360218

>  <BCUT_SLOGP_1>
-0.43048629

>  <BCUT_SLOGP_2>
0.68348509

>  <BCUT_SLOGP_3>
2.7522314

>  <BCUT_SMR_0>
-2.471704

>  <BCUT_SMR_1>
-0.39592147

>  <BCUT_SMR_2>
0.72461289

>  <BCUT_SMR_3>
2.949512

>  <bpol>
36.557003

>  <b_1rotN>
8

>  <b_1rotR>
0.30769232

>  <b_ar>
12

>  <b_count>
55

>  <b_double>
1

>  <b_heavy>
26

>  <b_max1len>
7

>  <b_rotN>
9

>  <b_rotR>
0.34615386

>  <b_single>
42

>  <b_triple>
0

>  <chi0>
18.286245

>  <chi0v>
15.735884

>  <chi0v_C>
14.472174

>  <chi0_C>
16.001789

>  <chi1>
11.9752

>  <chi1v>
8.9364357

>  <chi1v_C>
7.1134081

>  <chi1_C>
9.0730991

>  <chiral>
2

>  <chiral_u>
0

>  <density>
0.65551835

>  <diameter>
9

>  <FCharge>
0

>  <GCUT_PEOE_0>
-0.86306226

>  <GCUT_PEOE_1>
-0.36738217

>  <GCUT_PEOE_2>
0.059118815

>  <GCUT_PEOE_3>
2.8936288

>  <GCUT_SLOGP_0>
-0.95448852

>  <GCUT_SLOGP_1>
-0.26386139

>  <GCUT_SLOGP_2>
0.13860148

>  <GCUT_SLOGP_3>
2.9716659

>  <GCUT_SMR_0>
-0.52747631

>  <GCUT_SMR_1>
-0.19329205

>  <GCUT_SMR_2>
0.159007

>  <GCUT_SMR_3>
3.1431735

>  <Kier1>
21.301775

>  <Kier2>
10.364081

>  <Kier3>
6

>  <KierA1>
16.779224

>  <KierA2>
8.0770264

>  <KierA3>
4.6386456

>  <KierFlex>
5.4210496

>  <lip_acc>
3

>  <lip_don>
0

>  <lip_druglike>
1

>  <lip_violation>
0

>  <logP(o/w)>
5.1880002

>  <logS>
-4.1065402

>  <mr>
10.439218

>  <mutagenic>
0

>  <nmol>
1

>  <opr_brigid>
12

>  <opr_leadlike>
1

>  <opr_nring>
2

>  <opr_nrot>
8

>  <opr_violation>
1

>  <PC+>
0

>  <PC->
0

>  <PEOE_PC+>
1.6735451

>  <PEOE_PC->
-1.6735451

>  <PEOE_RPC+>
0.15699162

>  <PEOE_RPC->
0.18403246

>  <PEOE_VSA+0>
111.63728

>  <PEOE_VSA+1>
42.653858

>  <PEOE_VSA+2>
0

>  <PEOE_VSA+3>
0

>  <PEOE_VSA+4>
0

>  <PEOE_VSA+5>
14.708499

>  <PEOE_VSA+6>
0

>  <PEOE_VSA-0>
50.894459

>  <PEOE_VSA-1>
160.04439

>  <PEOE_VSA-2>
0

>  <PEOE_VSA-3>
0

>  <PEOE_VSA-4>
0

>  <PEOE_VSA-5>
13.566921

>  <PEOE_VSA-6>
2.503756

>  <PEOE_VSA_FHYD>
0.92227662

>  <PEOE_VSA_FNEG>
0.57324308

>  <PEOE_VSA_FPNEG>
0.040581577

>  <PEOE_VSA_FPOL>
0.077723391

>  <PEOE_VSA_FPOS>
0.42675689

>  <PEOE_VSA_FPPOS>
0.037141815

>  <PEOE_VSA_HYD>
365.23001

>  <PEOE_VSA_NEG>
227.00952

>  <PEOE_VSA_PNEG>
16.070677

>  <PEOE_VSA_POL>
30.779177

>  <PEOE_VSA_POS>
168.99965

>  <PEOE_VSA_PPOS>
14.708499

>  <petitjean>
0.44444445

>  <petitjeanSC>
0.80000001

>  <Q_PC+>
0

>  <Q_PC->
0

>  <Q_RPC+>
0

>  <Q_RPC->
0

>  <Q_VSA_FHYD>
1

>  <Q_VSA_FNEG>
0

>  <Q_VSA_FPNEG>
0

>  <Q_VSA_FPOL>
0

>  <Q_VSA_FPOS>
1

>  <Q_VSA_FPPOS>
0

>  <Q_VSA_HYD>
396.00919

>  <Q_VSA_NEG>
0

>  <Q_VSA_PNEG>
0

>  <Q_VSA_POL>
0

>  <Q_VSA_POS>
396.00919

>  <Q_VSA_PPOS>
0

>  <radius>
5

>  <reactive>
0

>  <rings>
2

>  <RPC+>
0

>  <RPC->
0

>  <rsynth>
0.2

>  <SlogP>
4.5869699

>  <SlogP_VSA0>
0

>  <SlogP_VSA1>
10.869778

>  <SlogP_VSA2>
34.862103

>  <SlogP_VSA3>
18.439579

>  <SlogP_VSA4>
10.781946

>  <SlogP_VSA5>
84.662781

>  <SlogP_VSA6>
0

>  <SlogP_VSA7>
176.43184

>  <SlogP_VSA8>
18.868406

>  <SlogP_VSA9>
66.652031

>  <SMR>
10.2484

>  <SMR_VSA0>
34.862103

>  <SMR_VSA1>
3.1243138

>  <SMR_VSA2>
4.4107962

>  <SMR_VSA3>
6.37115

>  <SMR_VSA4>
0

>  <SMR_VSA5>
214.16866

>  <SMR_VSA6>
26.185041

>  <SMR_VSA7>
132.44641

>  <TPSA>
29.540001

>  <VAdjEq>
0.41335541

>  <VAdjMa>
5.7004399

>  <VDistEq>
3.0032611

>  <VDistMa>
9.064311

>  <vdw_area>
396.00919

>  <vdw_vol>
517.87872

>  <vsa_acc>
13.566921

>  <vsa_acid>
0

>  <vsa_base>
0

>  <vsa_don>
0

>  <vsa_hyd>
343.24289

>  <vsa_other>
17.212255

>  <vsa_pol>
13.566921

>  <Weight>
339.479

>  <weinerPath>
1364

>  <weinerPol>
38

>  <zagreb>
122

$$$$