ClCCc1scnc1C
  MOE2013           2D

  9  9  0  0  0  0  0  0  0  0999 V2000
    0.0000    0.0000    0.0000 Cl  0  0  0  0  0  0  0  0  0  0  0  0
   -1.3970    0.5460    0.0000 C   0  0  0  0  0  0  0  0  0  0  0  0
   -2.5690   -0.3910    0.0000 C   0  0  0  0  0  0  0  0  0  0  0  0
   -3.9660    0.1550    0.0000 C   0  0  0  0  0  0  0  0  0  0  0  0
   -4.3450    1.6070    0.0000 S   0  0  0  0  0  0  0  0  0  0  0  0
   -5.8420    1.6940    0.0000 C   0  0  0  0  0  0  0  0  0  0  0  0
   -6.3880    0.2970    0.0000 N   0  0  0  0  0  0  0  0  0  0  0  0
   -5.2290   -0.6540    0.0000 C   0  0  0  0  0  0  0  0  0  0  0  0
   -5.3160   -2.1510    0.0000 C   0  0  0  0  0  0  0  0  0  0  0  0
  1  2  1  0  0  0  0
  2  3  1  0  0  0  0
  3  4  1  0  0  0  0
  4  5  1  0  0  0  0
  4  8  2  0  0  0  0
  5  6  1  0  0  0  0
  6  7  2  0  0  0  0
  7  8  1  0  0  0  0
  8  9  1  0  0  0  0
M  END
>  <Index>
1501

>  <ID>
HT0526

>  <class>
1

>  <apol>
22.074345

>  <ast_fraglike>
1

>  <ast_fraglike_ext>
1

>  <ast_violation>
0

>  <ast_violation_ext>
0

>  <a_acc>
1

>  <a_acid>
0

>  <a_aro>
5

>  <a_base>
0

>  <a_count>
17

>  <a_don>
0

>  <a_donacc>
1

>  <a_heavy>
9

>  <a_hyd>
8

>  <a_IC>
29.977093

>  <a_ICM>
1.7633585

>  <a_nB>
0

>  <a_nBr>
0

>  <a_nC>
6

>  <a_nCl>
1

>  <a_nF>
0

>  <a_nH>
8

>  <a_nI>
0

>  <a_nN>
1

>  <a_nO>
0

>  <a_nP>
0

>  <a_nS>
1

>  <balabanJ>
2.264153

>  <BCUT_PEOE_0>
-2.3871813

>  <BCUT_PEOE_1>
-0.18014833

>  <BCUT_PEOE_2>
0.30529201

>  <BCUT_PEOE_3>
2.3939943

>  <BCUT_SLOGP_0>
-2.3710611

>  <BCUT_SLOGP_1>
-0.050480057

>  <BCUT_SLOGP_2>
0.57978481

>  <BCUT_SLOGP_3>
2.4622009

>  <BCUT_SMR_0>
-2.1239395

>  <BCUT_SMR_1>
0.039090179

>  <BCUT_SMR_2>
0.70734066

>  <BCUT_SMR_3>
2.6798172

>  <bpol>
12.765656

>  <b_1rotN>
2

>  <b_1rotR>
0.22222222

>  <b_ar>
5

>  <b_count>
17

>  <b_double>
0

>  <b_heavy>
9

>  <b_max1len>
3

>  <b_rotN>
2

>  <b_rotR>
0.22222222

>  <b_single>
12

>  <b_triple>
0

>  <chi0>
6.6902347

>  <chi0v>
6.7974157

>  <chi0v_C>
3.9915638

>  <chi0_C>
4.276021

>  <chi1>
4.342535

>  <chi1v>
4.2066221

>  <chi1v_C>
1.6035534

>  <chi1_C>
1.8189319

>  <chiral>
0

>  <chiral_u>
0

>  <density>
0.85775489

>  <diameter>
5

>  <FCharge>
0

>  <GCUT_PEOE_0>
-0.78065306

>  <GCUT_PEOE_1>
-0.28112766

>  <GCUT_PEOE_2>
-0.057984512

>  <GCUT_PEOE_3>
2.0408618

>  <GCUT_SLOGP_0>
-0.80003327

>  <GCUT_SLOGP_1>
-0.15307835

>  <GCUT_SLOGP_2>
0.20163734

>  <GCUT_SLOGP_3>
2.1724868

>  <GCUT_SMR_0>
-0.49261266

>  <GCUT_SMR_1>
-0.05927885

>  <GCUT_SMR_2>
0.28041169

>  <GCUT_SMR_3>
2.3448486

>  <Kier1>
7.1111112

>  <Kier2>
3.2396693

>  <Kier3>
1.704142

>  <KierA1>
8.1768351

>  <KierA2>
3.7954297

>  <KierA3>
2.0322661

>  <KierFlex>
3.4482892

>  <lip_acc>
1

>  <lip_don>
0

>  <lip_druglike>
1

>  <lip_violation>
0

>  <logP(o/w)>
1.308

>  <logS>
-1.52113

>  <mr>
4.3244333

>  <mutagenic>
1

>  <nmol>
1

>  <opr_brigid>
5

>  <opr_leadlike>
1

>  <opr_nring>
1

>  <opr_nrot>
2

>  <opr_violation>
0

>  <PC+>
0

>  <PC->
0

>  <PEOE_PC+>
0.53778106

>  <PEOE_PC->
-0.53778106

>  <PEOE_RPC+>
0.32473251

>  <PEOE_RPC->
0.50611573

>  <PEOE_VSA+0>
47.569775

>  <PEOE_VSA+1>
4.2653861

>  <PEOE_VSA+2>
0

>  <PEOE_VSA+3>
19.760618

>  <PEOE_VSA+4>
0

>  <PEOE_VSA+5>
0

>  <PEOE_VSA+6>
0

>  <PEOE_VSA-0>
46.170967

>  <PEOE_VSA-1>
4.1846013

>  <PEOE_VSA-2>
29.581947

>  <PEOE_VSA-3>
0

>  <PEOE_VSA-4>
0

>  <PEOE_VSA-5>
5.6825762

>  <PEOE_VSA-6>
0

>  <PEOE_VSA_FHYD>
0.96385497

>  <PEOE_VSA_FNEG>
0.5446021

>  <PEOE_VSA_FPNEG>
0.036145054

>  <PEOE_VSA_FPOL>
0.036145054

>  <PEOE_VSA_FPOS>
0.4553979

>  <PEOE_VSA_FPPOS>
0

>  <PEOE_VSA_HYD>
151.53329

>  <PEOE_VSA_NEG>
85.620094

>  <PEOE_VSA_PNEG>
5.6825762

>  <PEOE_VSA_POL>
5.6825762

>  <PEOE_VSA_POS>
71.595779

>  <PEOE_VSA_PPOS>
0

>  <petitjean>
0.40000001

>  <petitjeanSC>
0.66666669

>  <Q_PC+>
0

>  <Q_PC->
0

>  <Q_RPC+>
0

>  <Q_RPC->
0

>  <Q_VSA_FHYD>
1

>  <Q_VSA_FNEG>
0

>  <Q_VSA_FPNEG>
0

>  <Q_VSA_FPOL>
0

>  <Q_VSA_FPOS>
1

>  <Q_VSA_FPPOS>
0

>  <Q_VSA_HYD>
157.21587

>  <Q_VSA_NEG>
0

>  <Q_VSA_PNEG>
0

>  <Q_VSA_POL>
0

>  <Q_VSA_POS>
157.21587

>  <Q_VSA_PPOS>
0

>  <radius>
3

>  <reactive>
1

>  <rings>
1

>  <RPC+>
0

>  <RPC->
0

>  <rsynth>
1

>  <SlogP>
2.23279

>  <SlogP_VSA0>
0

>  <SlogP_VSA1>
16.78553

>  <SlogP_VSA2>
0

>  <SlogP_VSA3>
19.183437

>  <SlogP_VSA4>
4.115149

>  <SlogP_VSA5>
18.868406

>  <SlogP_VSA6>
0

>  <SlogP_VSA7>
15.387183

>  <SlogP_VSA8>
0

>  <SlogP_VSA9>
103.75235

>  <SMR>
4.1275001

>  <SMR_VSA0>
0

>  <SMR_VSA1>
16.78553

>  <SMR_VSA2>
0

>  <SMR_VSA3>
4.115149

>  <SMR_VSA4>
0

>  <SMR_VSA5>
34.255589

>  <SMR_VSA6>
19.183437

>  <SMR_VSA7>
103.75235

>  <TPSA>
12.89

>  <VAdjEq>
0.7642045

>  <VAdjMa>
4.1699252

>  <VDistEq>
2.1991584

>  <VDistMa>
5.9933195

>  <vdw_area>
157.21587

>  <vdw_vol>
188.4641

>  <vsa_acc>
5.6825762

>  <vsa_acid>
0

>  <vsa_base>
0

>  <vsa_don>
0

>  <vsa_hyd>
145.83893

>  <vsa_other>
0

>  <vsa_pol>
5.6825762

>  <Weight>
161.65601

>  <weinerPath>
90

>  <weinerPol>
8

>  <zagreb>
40

$$$$