Clc1cc2NC(NS(=O)(=O)c2cc1S(=O)(=O)N)C(Cl)Cl
  MOE2013           2D

 20 21  0  0  1  0  0  0  0  0999 V2000
    0.0000    0.0000    0.0000 Cl  0  0  0  0  0  0  0  0  0  0  0  0
    1.2980    0.7520    0.0000 C   0  0  0  0  0  0  0  0  0  0  0  0
    2.5980    0.0040    0.0000 C   0  0  0  0  0  0  0  0  0  0  0  0
    3.8960    0.7560    0.0000 C   0  0  0  0  0  0  0  0  0  0  0  0
    5.1960    0.0080    0.0000 N   0  0  0  0  0  0  0  0  0  0  0  0
    6.4940    0.7610    0.0000 C   0  0  3  0  0  0  0  0  0  0  0  0
    6.4920    2.2610    0.0000 N   0  0  0  0  0  0  0  0  0  0  0  0
    5.1910    3.0080    0.0000 S   0  0  0  0  0  0  0  0  0  0  0  0
    5.9390    4.3090    0.0000 O   0  0  0  0  0  0  0  0  0  0  0  0
    4.4390    4.3060    0.0000 O   0  0  0  0  0  0  0  0  0  0  0  0
    3.8930    2.2560    0.0000 C   0  0  0  0  0  0  0  0  0  0  0  0
    2.5930    3.0040    0.0000 C   0  0  0  0  0  0  0  0  0  0  0  0
    1.2950    2.2520    0.0000 C   0  0  0  0  0  0  0  0  0  0  0  0
   -0.0050    3.0000    0.0000 S   0  0  0  0  0  0  0  0  0  0  0  0
   -0.7530    1.7000    0.0000 O   0  0  0  0  0  0  0  0  0  0  0  0
    0.7430    4.3000    0.0000 O   0  0  0  0  0  0  0  0  0  0  0  0
   -1.3050    3.7480    0.0000 N   0  0  0  0  0  0  0  0  0  0  0  0
    7.7940    0.0130    0.0000 C   0  0  0  0  0  0  0  0  0  0  0  0
    9.0920    0.7650    0.0000 Cl  0  0  0  0  0  0  0  0  0  0  0  0
    7.7970   -1.4870    0.0000 Cl  0  0  0  0  0  0  0  0  0  0  0  0
  1  2  1  0  0  0  0
  2  3  1  0  0  0  0
  2 13  2  0  0  0  0
  3  4  2  0  0  0  0
  4  5  1  0  0  0  0
  4 11  1  0  0  0  0
  5  6  1  0  0  0  0
  6  7  1  0  0  0  0
  6 18  1  0  0  0  0
  7  8  1  0  0  0  0
  8  9  2  0  0  0  0
  8 10  2  0  0  0  0
  8 11  1  0  0  0  0
 11 12  2  0  0  0  0
 12 13  1  0  0  0  0
 13 14  1  0  0  0  0
 14 15  2  0  0  0  0
 14 16  2  0  0  0  0
 14 17  1  0  0  0  0
 18 19  1  0  0  0  0
 18 20  1  0  0  0  0
M  END
>  <Index>
1753

>  <ID>
HT2112

>  <class>
1

>  <apol>
38.262344

>  <ast_fraglike>
0

>  <ast_fraglike_ext>
0

>  <ast_violation>
2

>  <ast_violation_ext>
3

>  <a_acc>
4

>  <a_acid>
0

>  <a_aro>
6

>  <a_base>
0

>  <a_count>
28

>  <a_don>
3

>  <a_donacc>
7

>  <a_heavy>
20

>  <a_hyd>
9

>  <a_IC>
67.096161

>  <a_ICM>
2.3962915

>  <a_nB>
0

>  <a_nBr>
0

>  <a_nC>
8

>  <a_nCl>
3

>  <a_nF>
0

>  <a_nH>
8

>  <a_nI>
0

>  <a_nN>
3

>  <a_nO>
4

>  <a_nP>
0

>  <a_nS>
2

>  <balabanJ>
2.2014415

>  <BCUT_PEOE_0>
-2.5928929

>  <BCUT_PEOE_1>
-0.4903785

>  <BCUT_PEOE_2>
0.53034163

>  <BCUT_PEOE_3>
2.6042149

>  <BCUT_SLOGP_0>
-2.7877016

>  <BCUT_SLOGP_1>
-0.45785487

>  <BCUT_SLOGP_2>
0.68949997

>  <BCUT_SLOGP_3>
2.5256371

>  <BCUT_SMR_0>
-2.2715194

>  <BCUT_SMR_1>
-0.36090314

>  <BCUT_SMR_2>
0.6686337

>  <BCUT_SMR_3>
2.9204907

>  <bpol>
23.617657

>  <b_1rotN>
2

>  <b_1rotR>
0.095238097

>  <b_ar>
6

>  <b_count>
29

>  <b_double>
0

>  <b_heavy>
21

>  <b_max1len>
3

>  <b_rotN>
2

>  <b_rotR>
0.095238097

>  <b_single>
23

>  <b_triple>
0

>  <chi0>
15.292529

>  <chi0v>
13.370914

>  <chi0v_C>
4.309401

>  <chi0_C>
4.878315

>  <chi1>
9.0206928

>  <chi1v>
9.2358627

>  <chi1v_C>
1.9880339

>  <chi1_C>
2.6329932

>  <chiral>
1

>  <chiral_u>
1

>  <density>
1.132077

>  <diameter>
9

>  <FCharge>
0

>  <GCUT_PEOE_0>
-0.88124049

>  <GCUT_PEOE_1>
-0.39675659

>  <GCUT_PEOE_2>
0.03661523

>  <GCUT_PEOE_3>
2.5111799

>  <GCUT_SLOGP_0>
-1.3482839

>  <GCUT_SLOGP_1>
-0.4585219

>  <GCUT_SLOGP_2>
0.20676108

>  <GCUT_SLOGP_3>
2.5158002

>  <GCUT_SMR_0>
-0.48292997

>  <GCUT_SMR_1>
-0.18081675

>  <GCUT_SMR_2>
0.35587767

>  <GCUT_SMR_3>
2.7953615

>  <Kier1>
16.371881

>  <Kier2>
5.3252597

>  <Kier3>
3.2766211

>  <KierA1>
20.246248

>  <KierA2>
6.6594915

>  <KierA3>
4.131042

>  <KierFlex>
6.7414856

>  <lip_acc>
7

>  <lip_don>
4

>  <lip_druglike>
1

>  <lip_violation>
0

>  <logP(o/w)>
0.68636

>  <logS>
-3.4210801

>  <mr>
7.5915408

>  <mutagenic>
1

>  <nmol>
1

>  <opr_brigid>
11

>  <opr_leadlike>
1

>  <opr_nring>
2

>  <opr_nrot>
2

>  <opr_violation>
0

>  <PC+>
0

>  <PC->
0

>  <PEOE_PC+>
1.7244501

>  <PEOE_PC->
-1.7244501

>  <PEOE_RPC+>
0.17962147

>  <PEOE_RPC->
0.22099574

>  <PEOE_VSA+0>
45.945545

>  <PEOE_VSA+1>
21.415171

>  <PEOE_VSA+2>
30.157621

>  <PEOE_VSA+3>
0

>  <PEOE_VSA+4>
0

>  <PEOE_VSA+5>
0

>  <PEOE_VSA+6>
8.3692026

>  <PEOE_VSA-0>
20.873917

>  <PEOE_VSA-1>
29.581947

>  <PEOE_VSA-2>
93.709938

>  <PEOE_VSA-3>
9.0437498

>  <PEOE_VSA-4>
32.016521

>  <PEOE_VSA-5>
0

>  <PEOE_VSA-6>
0.13689101

>  <PEOE_VSA_FHYD>
0.86086679

>  <PEOE_VSA_FNEG>
0.63643825

>  <PEOE_VSA_FPNEG>
0.1103978

>  <PEOE_VSA_FPOL>
0.1391332

>  <PEOE_VSA_FPOS>
0.36356172

>  <PEOE_VSA_FPPOS>
0.02873541

>  <PEOE_VSA_HYD>
250.72789

>  <PEOE_VSA_NEG>
185.36296

>  <PEOE_VSA_PNEG>
32.153416

>  <PEOE_VSA_POL>
40.522617

>  <PEOE_VSA_POS>
105.88754

>  <PEOE_VSA_PPOS>
8.3692026

>  <petitjean>
0.44444445

>  <petitjeanSC>
0.80000001

>  <Q_PC+>
0

>  <Q_PC->
0

>  <Q_RPC+>
0

>  <Q_RPC->
0

>  <Q_VSA_FHYD>
1

>  <Q_VSA_FNEG>
0

>  <Q_VSA_FPNEG>
0

>  <Q_VSA_FPOL>
0

>  <Q_VSA_FPOS>
1

>  <Q_VSA_FPPOS>
0

>  <Q_VSA_HYD>
291.25052

>  <Q_VSA_NEG>
0

>  <Q_VSA_PNEG>
0

>  <Q_VSA_POL>
0

>  <Q_VSA_POS>
291.25052

>  <Q_VSA_PPOS>
0

>  <radius>
5

>  <reactive>
1

>  <rings>
2

>  <RPC+>
0

>  <RPC->
0

>  <rsynth>
1

>  <SlogP>
0.82099998

>  <SlogP_VSA0>
47.69643

>  <SlogP_VSA1>
114.35413

>  <SlogP_VSA2>
21.875486

>  <SlogP_VSA3>
0

>  <SlogP_VSA4>
0

>  <SlogP_VSA5>
3.1014678

>  <SlogP_VSA6>
3.5006065

>  <SlogP_VSA7>
35.286369

>  <SlogP_VSA8>
0

>  <SlogP_VSA9>
120.20268

>  <SMR>
7.6051402

>  <SMR_VSA0>
96.343376

>  <SMR_VSA1>
0

>  <SMR_VSA2>
19.506466

>  <SMR_VSA3>
12.094607

>  <SMR_VSA4>
52.058933

>  <SMR_VSA5>
35.286369

>  <SMR_VSA6>
0

>  <SMR_VSA7>
130.72742

>  <TPSA>
118.36

>  <VAdjEq>
0.48464775

>  <VAdjMa>
5.3923173

>  <VDistEq>
2.9243784

>  <VDistMa>
8.3731756

>  <vdw_area>
291.25052

>  <vdw_vol>
336.24924

>  <vsa_acc>
64.033043

>  <vsa_acid>
0

>  <vsa_base>
0

>  <vsa_don>
33.892902

>  <vsa_hyd>
139.95132

>  <vsa_other>
38.232735

>  <vsa_pol>
97.925949

>  <Weight>
380.66

>  <weinerPath>
738

>  <weinerPol>
35

>  <zagreb>
110

$$$$