OC(=O)[C@H]1N(CCC1)C(=O)[C@@H](N[C@@H](CCc1ccccc1)C(O)=O)CCCCN
  MOE2013           2D

 29 30  0  0  1  0  0  0  0  0999 V2000
    0.0000    0.0000    0.0000 O   0  0  0  0  0  0  0  0  0  0  0  0
   -1.4810   -0.2390    0.0000 C   0  0  0  0  0  0  0  0  0  0  0  0
   -2.4290    0.9230    0.0000 O   0  0  0  0  0  0  0  0  0  0  0  0
   -2.0140   -1.6420    0.0000 C   0  0  1  0  0  0  0  0  0  0  0  0
   -3.4610   -2.0340    0.0000 N   0  0  0  0  0  0  0  0  0  0  0  0
   -3.5350   -3.5330    0.0000 C   0  0  0  0  0  0  0  0  0  0  0  0
   -2.1330   -4.0660    0.0000 C   0  0  0  0  0  0  0  0  0  0  0  0
   -1.1930   -2.8970    0.0000 C   0  0  0  0  0  0  0  0  0  0  0  0
   -4.6300   -1.0940    0.0000 C   0  0  0  0  0  0  0  0  0  0  0  0
   -4.4000    0.3880    0.0000 O   0  0  0  0  0  0  0  0  0  0  0  0
   -6.0290   -1.6360    0.0000 C   0  0  1  0  0  0  0  0  0  0  0  0
   -6.2590   -3.1190    0.0000 N   0  0  0  0  0  0  0  0  0  0  0  0
   -7.6570   -3.6610    0.0000 C   0  0  1  0  0  0  0  0  0  0  0  0
   -8.8260   -2.7200    0.0000 C   0  0  0  0  0  0  0  0  0  0  0  0
  -10.2250   -3.2620    0.0000 C   0  0  0  0  0  0  0  0  0  0  0  0
  -11.3930   -2.3220    0.0000 C   0  0  0  0  0  0  0  0  0  0  0  0
  -12.7920   -2.8640    0.0000 C   0  0  0  0  0  0  0  0  0  0  0  0
  -13.9610   -1.9240    0.0000 C   0  0  0  0  0  0  0  0  0  0  0  0
  -13.7310   -0.4420    0.0000 C   0  0  0  0  0  0  0  0  0  0  0  0
  -12.3320    0.1000    0.0000 C   0  0  0  0  0  0  0  0  0  0  0  0
  -11.1640   -0.8400    0.0000 C   0  0  0  0  0  0  0  0  0  0  0  0
   -7.8870   -5.1430    0.0000 C   0  0  0  0  0  0  0  0  0  0  0  0
   -6.7180   -6.0830    0.0000 O   0  0  0  0  0  0  0  0  0  0  0  0
   -9.2860   -5.6850    0.0000 O   0  0  0  0  0  0  0  0  0  0  0  0
   -7.1980   -0.6960    0.0000 C   0  0  0  0  0  0  0  0  0  0  0  0
   -6.9680    0.7860    0.0000 C   0  0  0  0  0  0  0  0  0  0  0  0
   -8.1360    1.7260    0.0000 C   0  0  0  0  0  0  0  0  0  0  0  0
   -7.9070    3.2090    0.0000 C   0  0  0  0  0  0  0  0  0  0  0  0
   -9.0750    4.1490    0.0000 N   0  0  0  0  0  0  0  0  0  0  0  0
  1  2  1  0  0  0  0
  2  3  2  0  0  0  0
  4  2  1  6  0  0  0
  4  5  1  0  0  0  0
  4  8  1  0  0  0  0
  5  6  1  0  0  0  0
  5  9  1  0  0  0  0
  6  7  1  0  0  0  0
  7  8  1  0  0  0  0
  9 10  2  0  0  0  0
 11  9  1  1  0  0  0
 11 12  1  0  0  0  0
 11 25  1  0  0  0  0
 12 13  1  0  0  0  0
 13 14  1  6  0  0  0
 13 22  1  0  0  0  0
 14 15  1  0  0  0  0
 15 16  1  0  0  0  0
 16 17  1  0  0  0  0
 16 21  2  0  0  0  0
 17 18  2  0  0  0  0
 18 19  1  0  0  0  0
 19 20  2  0  0  0  0
 20 21  1  0  0  0  0
 22 23  1  0  0  0  0
 22 24  2  0  0  0  0
 25 26  1  0  0  0  0
 26 27  1  0  0  0  0
 27 28  1  0  0  0  0
 28 29  1  0  0  0  0
M  END
>  <Index>
1621

>  <ID>
HT1218

>  <class>
1

>  <apol>
64.940582

>  <ast_fraglike>
0

>  <ast_fraglike_ext>
0

>  <ast_violation>
3

>  <ast_violation_ext>
5

>  <a_acc>
7

>  <a_acid>
0

>  <a_aro>
6

>  <a_base>
0

>  <a_count>
60

>  <a_don>
6

>  <a_donacc>
13

>  <a_heavy>
29

>  <a_hyd>
18

>  <a_IC>
92.230156

>  <a_ICM>
1.5371692

>  <a_nB>
0

>  <a_nBr>
0

>  <a_nC>
21

>  <a_nCl>
0

>  <a_nF>
0

>  <a_nH>
31

>  <a_nI>
0

>  <a_nN>
3

>  <a_nO>
5

>  <a_nP>
0

>  <a_nS>
0

>  <balabanJ>
1.9896681

>  <BCUT_PEOE_0>
-2.6903579

>  <BCUT_PEOE_1>
-0.56399167

>  <BCUT_PEOE_2>
0.61902338

>  <BCUT_PEOE_3>
2.7438712

>  <BCUT_SLOGP_0>
-2.8343549

>  <BCUT_SLOGP_1>
-0.51809716

>  <BCUT_SLOGP_2>
0.68514115

>  <BCUT_SLOGP_3>
2.7057617

>  <BCUT_SMR_0>
-2.437721

>  <BCUT_SMR_1>
-0.42652187

>  <BCUT_SMR_2>
0.75967878

>  <BCUT_SMR_3>
2.9931087

>  <bpol>
38.743416

>  <b_1rotN>
13

>  <b_1rotR>
0.43333334

>  <b_ar>
6

>  <b_count>
61

>  <b_double>
3

>  <b_heavy>
30

>  <b_max1len>
11

>  <b_rotN>
13

>  <b_rotR>
0.43333334

>  <b_single>
52

>  <b_triple>
0

>  <chi0>
21.225405

>  <chi0v>
16.626499

>  <chi0v_C>
12.982763

>  <chi0_C>
13.940947

>  <chi1>
13.934759

>  <chi1v>
10.198225

>  <chi1v_C>
7.3550072

>  <chi1_C>
8.4494896

>  <chiral>
3

>  <chiral_u>
0

>  <density>
0.73612088

>  <diameter>
13

>  <FCharge>
0

>  <GCUT_PEOE_0>
-0.84163755

>  <GCUT_PEOE_1>
-0.41550836

>  <GCUT_PEOE_2>
0.075016983

>  <GCUT_PEOE_3>
2.8822875

>  <GCUT_SLOGP_0>
-1.3632872

>  <GCUT_SLOGP_1>
-0.36215726

>  <GCUT_SLOGP_2>
0.14699844

>  <GCUT_SLOGP_3>
2.850471

>  <GCUT_SMR_0>
-0.52882522

>  <GCUT_SMR_1>
-0.23425776

>  <GCUT_SMR_2>
0.18125463

>  <GCUT_SMR_3>
3.1116936

>  <Kier1>
25.262222

>  <Kier2>
13.420118

>  <Kier3>
8.2152777

>  <KierA1>
20.628645

>  <KierA2>
10.874729

>  <KierA3>
6.6194739

>  <KierFlex>
7.7355494

>  <lip_acc>
8

>  <lip_don>
5

>  <lip_druglike>
1

>  <lip_violation>
0

>  <logP(o/w)>
1.8559999

>  <logS>
-2.2959299

>  <mr>
11.037318

>  <mutagenic>
0

>  <nmol>
1

>  <opr_brigid>
11

>  <opr_leadlike>
1

>  <opr_nring>
2

>  <opr_nrot>
13

>  <opr_violation>
1

>  <PC+>
0

>  <PC->
0

>  <PEOE_PC+>
2.9903426

>  <PEOE_PC->
-2.9903426

>  <PEOE_RPC+>
0.094433323

>  <PEOE_RPC->
0.110386

>  <PEOE_VSA+0>
89.969276

>  <PEOE_VSA+1>
40.415009

>  <PEOE_VSA+2>
29.003

>  <PEOE_VSA+3>
0

>  <PEOE_VSA+4>
33.597878

>  <PEOE_VSA+5>
29.416998

>  <PEOE_VSA+6>
0

>  <PEOE_VSA-0>
67.608742

>  <PEOE_VSA-1>
69.97583

>  <PEOE_VSA-2>
0

>  <PEOE_VSA-3>
0

>  <PEOE_VSA-4>
0

>  <PEOE_VSA-5>
40.837654

>  <PEOE_VSA-6>
22.186199

>  <PEOE_VSA_FHYD>
0.70204353

>  <PEOE_VSA_FNEG>
0.47423974

>  <PEOE_VSA_FPNEG>
0.14898883

>  <PEOE_VSA_FPOL>
0.29795644

>  <PEOE_VSA_FPOS>
0.52576023

>  <PEOE_VSA_FPPOS>
0.14896761

>  <PEOE_VSA_HYD>
296.97186

>  <PEOE_VSA_NEG>
200.60843

>  <PEOE_VSA_PNEG>
63.023853

>  <PEOE_VSA_POL>
126.03873

>  <PEOE_VSA_POS>
222.40216

>  <PEOE_VSA_PPOS>
63.014874

>  <petitjean>
0.46153846

>  <petitjeanSC>
0.85714287

>  <Q_PC+>
0

>  <Q_PC->
0

>  <Q_RPC+>
0

>  <Q_RPC->
0

>  <Q_VSA_FHYD>
1

>  <Q_VSA_FNEG>
0

>  <Q_VSA_FPNEG>
0

>  <Q_VSA_FPOL>
0

>  <Q_VSA_FPOS>
1

>  <Q_VSA_FPPOS>
0

>  <Q_VSA_HYD>
423.01059

>  <Q_VSA_NEG>
0

>  <Q_VSA_PNEG>
0

>  <Q_VSA_POL>
0

>  <Q_VSA_POS>
423.01059

>  <Q_VSA_PPOS>
0

>  <radius>
7

>  <reactive>
0

>  <rings>
2

>  <RPC+>
0

>  <RPC->
0

>  <rsynth>
1

>  <SlogP>
1.23517

>  <SlogP_VSA0>
50.90794

>  <SlogP_VSA1>
23.874025

>  <SlogP_VSA2>
83.532555

>  <SlogP_VSA3>
87.649612

>  <SlogP_VSA4>
3.185575

>  <SlogP_VSA5>
18.868406

>  <SlogP_VSA6>
0

>  <SlogP_VSA7>
88.215919

>  <SlogP_VSA8>
113.21043

>  <SlogP_VSA9>
0

>  <SMR>
10.83867

>  <SMR_VSA0>
71.586647

>  <SMR_VSA1>
3.1243138

>  <SMR_VSA2>
68.781204

>  <SMR_VSA3>
15.131481

>  <SMR_VSA4>
32.897186

>  <SMR_VSA5>
220.29475

>  <SMR_VSA6>
57.628868

>  <SMR_VSA7>
0

>  <TPSA>
132.96001

>  <VAdjEq>
0.37091795

>  <VAdjMa>
5.9068904

>  <VDistEq>
3.5300453

>  <VDistMa>
9.4557533

>  <vdw_area>
423.01059

>  <vdw_vol>
550.85382

>  <vsa_acc>
13.566921

>  <vsa_acid>
0

>  <vsa_base>
0

>  <vsa_don>
0

>  <vsa_hyd>
252.60814

>  <vsa_other>
42.366531

>  <vsa_pol>
91.259666

>  <Weight>
405.495

>  <weinerPath>
2362

>  <weinerPol>
40

>  <zagreb>
138

$$$$