Clc1ccccc1C1=NCc2n(-c3c1cc(Cl)cc3)c(nn2)C
  MOE2013           2D

 23 26  0  0  0  0  0  0  0  0999 V2000
    0.0000    0.0000    0.0000 Cl  0  0  0  0  0  0  0  0  0  0  0  0
   -0.7390    1.3050    0.0000 C   0  0  0  0  0  0  0  0  0  0  0  0
   -2.2390    1.3180    0.0000 C   0  0  0  0  0  0  0  0  0  0  0  0
   -2.9780    2.6240    0.0000 C   0  0  0  0  0  0  0  0  0  0  0  0
   -2.2170    3.9160    0.0000 C   0  0  0  0  0  0  0  0  0  0  0  0
   -0.7170    3.9030    0.0000 C   0  0  0  0  0  0  0  0  0  0  0  0
    0.0220    2.5980    0.0000 C   0  0  0  0  0  0  0  0  0  0  0  0
    1.5220    2.5850    0.0000 C   0  0  0  0  0  0  0  0  0  0  0  0
    2.1620    1.2290    0.0000 N   0  0  0  0  0  0  0  0  0  0  0  0
    3.6220    0.8820    0.0000 C   0  0  0  0  0  0  0  0  0  0  0  0
    4.8030    1.8070    0.0000 C   0  0  0  0  0  0  0  0  0  0  0  0
    4.8170    3.3070    0.0000 N   0  0  0  0  0  0  0  0  0  0  0  0
    3.6510    4.2520    0.0000 C   0  0  0  0  0  0  0  0  0  0  0  0
    2.1850    3.9310    0.0000 C   0  0  0  0  0  0  0  0  0  0  0  0
    1.1750    5.0390    0.0000 C   0  0  0  0  0  0  0  0  0  0  0  0
    1.6290    6.4680    0.0000 C   0  0  0  0  0  0  0  0  0  0  0  0
    0.6190    7.5770    0.0000 Cl  0  0  0  0  0  0  0  0  0  0  0  0
    3.0950    6.7890    0.0000 C   0  0  0  0  0  0  0  0  0  0  0  0
    4.1050    5.6810    0.0000 C   0  0  0  0  0  0  0  0  0  0  0  0
    6.2480    3.7570    0.0000 C   0  0  0  0  0  0  0  0  0  0  0  0
    7.1180    2.5350    0.0000 N   0  0  0  0  0  0  0  0  0  0  0  0
    6.2250    1.3300    0.0000 N   0  0  0  0  0  0  0  0  0  0  0  0
    6.7250    5.1790    0.0000 C   0  0  0  0  0  0  0  0  0  0  0  0
  1  2  1  0  0  0  0
  2  3  1  0  0  0  0
  2  7  2  0  0  0  0
  3  4  2  0  0  0  0
  4  5  1  0  0  0  0
  5  6  2  0  0  0  0
  6  7  1  0  0  0  0
  7  8  1  0  0  0  0
  8  9  2  0  0  0  0
  8 14  1  0  0  0  0
  9 10  1  0  0  0  0
 10 11  1  0  0  0  0
 11 12  1  0  0  0  0
 11 22  2  0  0  0  0
 12 13  1  0  0  0  0
 12 20  1  0  0  0  0
 13 14  1  0  0  0  0
 13 19  2  0  0  0  0
 14 15  2  0  0  0  0
 15 16  1  0  0  0  0
 16 17  1  0  0  0  0
 16 18  2  0  0  0  0
 18 19  1  0  0  0  0
 20 21  2  0  0  0  0
 20 23  1  0  0  0  0
 21 22  1  0  0  0  0
M  END
>  <Index>
1752

>  <ID>
HT2110

>  <class>
1

>  <apol>
46.681515

>  <ast_fraglike>
0

>  <ast_fraglike_ext>
0

>  <ast_violation>
2

>  <ast_violation_ext>
2

>  <a_acc>
3

>  <a_acid>
0

>  <a_aro>
17

>  <a_base>
0

>  <a_count>
35

>  <a_don>
0

>  <a_donacc>
3

>  <a_heavy>
23

>  <a_hyd>
16

>  <a_IC>
57.018486

>  <a_ICM>
1.6290996

>  <a_nB>
0

>  <a_nBr>
0

>  <a_nC>
17

>  <a_nCl>
2

>  <a_nF>
0

>  <a_nH>
12

>  <a_nI>
0

>  <a_nN>
4

>  <a_nO>
0

>  <a_nP>
0

>  <a_nS>
0

>  <balabanJ>
1.6202495

>  <BCUT_PEOE_0>
-2.2608087

>  <BCUT_PEOE_1>
-0.62879068

>  <BCUT_PEOE_2>
0.62751716

>  <BCUT_PEOE_3>
2.3740153

>  <BCUT_SLOGP_0>
-2.1925066

>  <BCUT_SLOGP_1>
-0.43563876

>  <BCUT_SLOGP_2>
0.80701679

>  <BCUT_SLOGP_3>
2.4576211

>  <BCUT_SMR_0>
-1.9802767

>  <BCUT_SMR_1>
-0.40537199

>  <BCUT_SMR_2>
0.8950057

>  <BCUT_SMR_3>
2.6775477

>  <bpol>
18.578484

>  <b_1rotN>
1

>  <b_1rotR>
0.03846154

>  <b_ar>
17

>  <b_count>
38

>  <b_double>
1

>  <b_heavy>
26

>  <b_max1len>
2

>  <b_rotN>
1

>  <b_rotR>
0.03846154

>  <b_single>
20

>  <b_triple>
0

>  <chi0>
15.974327

>  <chi0v>
13.8052

>  <chi0v_C>
9.748559

>  <chi0_C>
11.275657

>  <chi1>
11.147867

>  <chi1v>
7.9106994

>  <chi1v_C>
4.9189377

>  <chi1_C>
6.7684216

>  <chiral>
0

>  <chiral_u>
0

>  <density>
0.82592243

>  <diameter>
9

>  <FCharge>
0

>  <GCUT_PEOE_0>
-0.79803926

>  <GCUT_PEOE_1>
-0.39293855

>  <GCUT_PEOE_2>
0.039875474

>  <GCUT_PEOE_3>
2.563458

>  <GCUT_SLOGP_0>
-0.86626226

>  <GCUT_SLOGP_1>
-0.26646185

>  <GCUT_SLOGP_2>
0.16623263

>  <GCUT_SLOGP_3>
2.6760964

>  <GCUT_SMR_0>
-0.48244074

>  <GCUT_SMR_1>
-0.17361616

>  <GCUT_SMR_2>
0.28283337

>  <GCUT_SMR_3>
2.8773537

>  <Kier1>
16.467455

>  <Kier2>
6.7188368

>  <Kier3>
3.0178328

>  <KierA1>
12.950079

>  <KierA2>
5.2219429

>  <KierA3>
2.3246334

>  <KierFlex>
2.9401987

>  <lip_acc>
4

>  <lip_don>
0

>  <lip_druglike>
1

>  <lip_violation>
0

>  <logP(o/w)>
4.5900002

>  <logS>
-5.2839198

>  <mr>
9.1839905

>  <mutagenic>
0

>  <nmol>
1

>  <opr_brigid>
22

>  <opr_leadlike>
1

>  <opr_nring>
4

>  <opr_nrot>
1

>  <opr_violation>
0

>  <PC+>
0

>  <PC->
0

>  <PEOE_PC+>
1.3173277

>  <PEOE_PC->
-1.3173277

>  <PEOE_RPC+>
0.1210442

>  <PEOE_RPC->
0.21337134

>  <PEOE_VSA+0>
21.732985

>  <PEOE_VSA+1>
56.307323

>  <PEOE_VSA+2>
24.382887

>  <PEOE_VSA+3>
11.190562

>  <PEOE_VSA+4>
0

>  <PEOE_VSA+5>
0

>  <PEOE_VSA+6>
0

>  <PEOE_VSA-0>
67.767296

>  <PEOE_VSA-1>
95.928604

>  <PEOE_VSA-2>
18.842079

>  <PEOE_VSA-3>
0

>  <PEOE_VSA-4>
0

>  <PEOE_VSA-5>
5.6825762

>  <PEOE_VSA-6>
0

>  <PEOE_VSA_FHYD>
0.98117322

>  <PEOE_VSA_FNEG>
0.62358898

>  <PEOE_VSA_FPNEG>
0.018826807

>  <PEOE_VSA_FPOL>
0.018826807

>  <PEOE_VSA_FPOS>
0.37641102

>  <PEOE_VSA_FPPOS>
0

>  <PEOE_VSA_HYD>
296.15173

>  <PEOE_VSA_NEG>
188.22055

>  <PEOE_VSA_PNEG>
5.6825762

>  <PEOE_VSA_POL>
5.6825762

>  <PEOE_VSA_POS>
113.61375

>  <PEOE_VSA_PPOS>
0

>  <petitjean>
0.44444445

>  <petitjeanSC>
0.80000001

>  <Q_PC+>
0

>  <Q_PC->
0

>  <Q_RPC+>
0

>  <Q_RPC->
0

>  <Q_VSA_FHYD>
1

>  <Q_VSA_FNEG>
0

>  <Q_VSA_FPNEG>
0

>  <Q_VSA_FPOL>
0

>  <Q_VSA_FPOS>
1

>  <Q_VSA_FPPOS>
0

>  <Q_VSA_HYD>
301.83432

>  <Q_VSA_NEG>
0

>  <Q_VSA_PNEG>
0

>  <Q_VSA_POL>
0

>  <Q_VSA_POS>
301.83432

>  <Q_VSA_PPOS>
0

>  <radius>
5

>  <reactive>
0

>  <rings>
4

>  <RPC+>
0

>  <RPC->
0

>  <rsynth>
1

>  <SlogP>
4.4999199

>  <SlogP_VSA0>
0

>  <SlogP_VSA1>
37.981853

>  <SlogP_VSA2>
0

>  <SlogP_VSA3>
0

>  <SlogP_VSA4>
11.02699

>  <SlogP_VSA5>
16.78553

>  <SlogP_VSA6>
7.0012131

>  <SlogP_VSA7>
126.25904

>  <SlogP_VSA8>
0

>  <SlogP_VSA9>
130.06288

>  <SMR>
9.2105999

>  <SMR_VSA0>
0

>  <SMR_VSA1>
52.010635

>  <SMR_VSA2>
0

>  <SMR_VSA3>
18.028204

>  <SMR_VSA4>
2.7567475

>  <SMR_VSA5>
141.94186

>  <SMR_VSA6>
2.7567475

>  <SMR_VSA7>
111.62331

>  <TPSA>
43.07

>  <VAdjEq>
0.46357921

>  <VAdjMa>
5.7004399

>  <VDistEq>
2.9490266

>  <VDistMa>
8.8018093

>  <vdw_area>
301.83432

>  <vdw_vol>
415.55597

>  <vsa_acc>
24.524654

>  <vsa_acid>
0

>  <vsa_base>
0

>  <vsa_don>
0

>  <vsa_hyd>
239.68744

>  <vsa_other>
29.080677

>  <vsa_pol>
24.524654

>  <Weight>
343.21698

>  <weinerPath>
1035

>  <weinerPol>
43

>  <zagreb>
128

$$$$