O[C@H]1[C@H](O)[C@@](O)(C[C@H](NC(CO)CO)[C@@H]1O)CO
  MOE2013           2D

 18 18  0  0  1  0  0  0  0  0999 V2000
    0.0000    0.0000    0.0000 O   0  0  0  0  0  0  0  0  0  0  0  0
    0.7540    1.2970    0.0000 C   0  0  1  0  0  0  0  0  0  0  0  0
    0.0080    2.5980    0.0000 C   0  0  2  0  0  0  0  0  0  0  0  0
   -1.4920    2.6030    0.0000 O   0  0  0  0  0  0  0  0  0  0  0  0
    0.7620    3.8950    0.0000 C   0  0  1  0  0  0  0  0  0  0  0  0
    0.7670    5.3950    0.0000 O   0  0  0  0  0  0  0  0  0  0  0  0
    2.2620    3.8900    0.0000 C   0  0  0  0  0  0  0  0  0  0  0  0
    3.0080    2.5890    0.0000 C   0  0  2  0  0  0  0  0  0  0  0  0
    4.5080    2.5840    0.0000 N   0  0  0  0  0  0  0  0  0  0  0  0
    5.2620    3.8810    0.0000 C   0  0  0  0  0  0  0  0  0  0  0  0
    4.5160    5.1820    0.0000 C   0  0  0  0  0  0  0  0  0  0  0  0
    5.2700    6.4790    0.0000 O   0  0  0  0  0  0  0  0  0  0  0  0
    6.7620    3.8760    0.0000 C   0  0  0  0  0  0  0  0  0  0  0  0
    7.5080    2.5750    0.0000 O   0  0  0  0  0  0  0  0  0  0  0  0
    2.2540    1.2920    0.0000 C   0  0  2  0  0  0  0  0  0  0  0  0
    3.0000   -0.0090    0.0000 O   0  0  0  0  0  0  0  0  0  0  0  0
   -0.5350    4.6490    0.0000 C   0  0  0  0  0  0  0  0  0  0  0  0
   -0.5300    6.1490    0.0000 O   0  0  0  0  0  0  0  0  0  0  0  0
  2  1  1  1  0  0  0
  2  3  1  0  0  0  0
  2 15  1  0  0  0  0
  3  4  1  6  0  0  0
  3  5  1  0  0  0  0
  5  6  1  1  0  0  0
  5  7  1  0  0  0  0
  5 17  1  6  0  0  0
  7  8  1  0  0  0  0
  8  9  1  6  0  0  0
  8 15  1  0  0  0  0
  9 10  1  0  0  0  0
 10 11  1  0  0  0  0
 10 13  1  0  0  0  0
 11 12  1  0  0  0  0
 13 14  1  0  0  0  0
 15 16  1  6  0  0  0
 17 18  1  0  0  0  0
M  END
>  <Index>
1762

>  <ID>
HT2193

>  <class>
1

>  <apol>
38.316654

>  <ast_fraglike>
0

>  <ast_fraglike_ext>
0

>  <ast_violation>
2

>  <ast_violation_ext>
4

>  <a_acc>
8

>  <a_acid>
0

>  <a_aro>
0

>  <a_base>
0

>  <a_count>
39

>  <a_don>
8

>  <a_donacc>
16

>  <a_heavy>
18

>  <a_hyd>
10

>  <a_IC>
61.021255

>  <a_ICM>
1.5646476

>  <a_nB>
0

>  <a_nBr>
0

>  <a_nC>
10

>  <a_nCl>
0

>  <a_nF>
0

>  <a_nH>
21

>  <a_nI>
0

>  <a_nN>
1

>  <a_nO>
7

>  <a_nP>
0

>  <a_nS>
0

>  <balabanJ>
2.7894979

>  <BCUT_PEOE_0>
-2.8104711

>  <BCUT_PEOE_1>
-0.72870874

>  <BCUT_PEOE_2>
0.77427554

>  <BCUT_PEOE_3>
2.8541865

>  <BCUT_SLOGP_0>
-3.0029755

>  <BCUT_SLOGP_1>
-0.8905524

>  <BCUT_SLOGP_2>
0.57195103

>  <BCUT_SLOGP_3>
2.6836848

>  <BCUT_SMR_0>
-2.5919673

>  <BCUT_SMR_1>
-0.60204828

>  <BCUT_SMR_2>
0.86651021

>  <BCUT_SMR_3>
3.0588553

>  <bpol>
23.617348

>  <b_1rotN>
5

>  <b_1rotR>
0.27777779

>  <b_ar>
0

>  <b_count>
39

>  <b_double>
0

>  <b_heavy>
18

>  <b_max1len>
6

>  <b_rotN>
5

>  <b_rotR>
0.27777779

>  <b_single>
39

>  <b_triple>
0

>  <chi0>
13.922285

>  <chi0v>
9.8456736

>  <chi0v_C>
6.2151785

>  <chi0_C>
6.2151785

>  <chi1>
8.3903942

>  <chi1v>
5.7447639

>  <chi1v_C>
3.2205267

>  <chi1_C>
3.2205267

>  <chiral>
5

>  <chiral_u>
0

>  <density>
0.8346324

>  <diameter>
8

>  <FCharge>
0

>  <GCUT_PEOE_0>
-0.8291285

>  <GCUT_PEOE_1>
-0.448908

>  <GCUT_PEOE_2>
0.21048808

>  <GCUT_PEOE_3>
2.8118908

>  <GCUT_SLOGP_0>
-1.1556233

>  <GCUT_SLOGP_1>
-0.60163504

>  <GCUT_SLOGP_2>
-0.0016977483

>  <GCUT_SLOGP_3>
2.673573

>  <GCUT_SMR_0>
-0.52739388

>  <GCUT_SMR_1>
-0.29138646

>  <GCUT_SMR_2>
0.2501142

>  <GCUT_SMR_3>
3.0080843

>  <Kier1>
16.055555

>  <Kier2>
6.43787

>  <Kier3>
3.3217993

>  <KierA1>
16.055555

>  <KierA2>
6.43787

>  <KierA3>
3.3217993

>  <KierFlex>
5.7424212

>  <lip_acc>
8

>  <lip_don>
8

>  <lip_druglike>
1

>  <lip_violation>
1

>  <logP(o/w)>
-4.0770001

>  <logS>
1.70969

>  <mr>
5.950973

>  <mutagenic>
0

>  <nmol>
1

>  <opr_brigid>
6

>  <opr_leadlike>
0

>  <opr_nring>
1

>  <opr_nrot>
7

>  <opr_violation>
2

>  <PC+>
0

>  <PC->
0

>  <PEOE_PC+>
3.0280182

>  <PEOE_PC->
-3.0280182

>  <PEOE_RPC+>
0.069475658

>  <PEOE_RPC->
0.12991838

>  <PEOE_VSA+0>
15.942119

>  <PEOE_VSA+1>
95.558632

>  <PEOE_VSA+2>
18.428871

>  <PEOE_VSA+3>
0

>  <PEOE_VSA+4>
72.269211

>  <PEOE_VSA+5>
0

>  <PEOE_VSA+6>
0

>  <PEOE_VSA-0>
8.701313

>  <PEOE_VSA-1>
0

>  <PEOE_VSA-2>
0

>  <PEOE_VSA-3>
0

>  <PEOE_VSA-4>
0

>  <PEOE_VSA-5>
0

>  <PEOE_VSA-6>
54.509674

>  <PEOE_VSA_FHYD>
0.52232784

>  <PEOE_VSA_FNEG>
0.23816371

>  <PEOE_VSA_FPNEG>
0.20537926

>  <PEOE_VSA_FPOL>
0.47767216

>  <PEOE_VSA_FPOS>
0.76183629

>  <PEOE_VSA_FPPOS>
0.27229291

>  <PEOE_VSA_HYD>
138.63094

>  <PEOE_VSA_NEG>
63.210987

>  <PEOE_VSA_PNEG>
54.509674

>  <PEOE_VSA_POL>
126.77888

>  <PEOE_VSA_POS>
202.19882

>  <PEOE_VSA_PPOS>
72.269211

>  <petitjean>
0.5

>  <petitjeanSC>
1

>  <Q_PC+>
0

>  <Q_PC->
0

>  <Q_RPC+>
0

>  <Q_RPC->
0

>  <Q_VSA_FHYD>
1

>  <Q_VSA_FNEG>
0

>  <Q_VSA_FPNEG>
0

>  <Q_VSA_FPOL>
0

>  <Q_VSA_FPOS>
1

>  <Q_VSA_FPPOS>
0

>  <Q_VSA_HYD>
265.40982

>  <Q_VSA_NEG>
0

>  <Q_VSA_PNEG>
0

>  <Q_VSA_POL>
0

>  <Q_VSA_POS>
265.40982

>  <Q_VSA_PPOS>
0

>  <radius>
4

>  <reactive>
0

>  <rings>
1

>  <RPC+>
0

>  <RPC->
0

>  <rsynth>
0.27777779

>  <SlogP>
-4.4924002

>  <SlogP_VSA0>
195.70734

>  <SlogP_VSA1>
0

>  <SlogP_VSA2>
27.369884

>  <SlogP_VSA3>
62.778774

>  <SlogP_VSA4>
0

>  <SlogP_VSA5>
0

>  <SlogP_VSA6>
0

>  <SlogP_VSA7>
0

>  <SlogP_VSA8>
18.868406

>  <SlogP_VSA9>
0

>  <SMR>
5.9556298

>  <SMR_VSA0>
0

>  <SMR_VSA1>
177.69658

>  <SMR_VSA2>
18.01075

>  <SMR_VSA3>
27.369884

>  <SMR_VSA4>
0

>  <SMR_VSA5>
18.868406

>  <SMR_VSA6>
62.778774

>  <SMR_VSA7>
0

>  <TPSA>
153.64

>  <VAdjEq>
0.50325835

>  <VAdjMa>
5.1699252

>  <VDistEq>
2.8528678

>  <VDistMa>
8.0703831

>  <vdw_area>
265.40982

>  <vdw_vol>
320.23441

>  <vsa_acc>
0

>  <vsa_acid>
0

>  <vsa_base>
0

>  <vsa_don>
0

>  <vsa_hyd>
120.75858

>  <vsa_other>
0

>  <vsa_pol>
100.65102

>  <Weight>
267.27798

>  <weinerPath>
581

>  <weinerPol>
31

>  <zagreb>
88

$$$$