Clc1cc2NCNS(=O)(=O)c2cc1S(=O)(=O)N
  MOE2013           2D

 17 18  0  0  0  0  0  0  0  0999 V2000
    0.0000    0.0000    0.0000 Cl  0  0  0  0  0  0  0  0  0  0  0  0
   -0.7470   -1.3010    0.0000 C   0  0  0  0  0  0  0  0  0  0  0  0
   -2.2470   -1.3040    0.0000 C   0  0  0  0  0  0  0  0  0  0  0  0
   -2.9950   -2.6040    0.0000 C   0  0  0  0  0  0  0  0  0  0  0  0
   -4.4950   -2.6070    0.0000 N   0  0  0  0  0  0  0  0  0  0  0  0
   -5.2420   -3.9080    0.0000 C   0  0  0  0  0  0  0  0  0  0  0  0
   -4.4890   -5.2050    0.0000 N   0  0  0  0  0  0  0  0  0  0  0  0
   -2.9890   -5.2020    0.0000 S   0  0  0  0  0  0  0  0  0  0  0  0
   -1.6890   -5.9500    0.0000 O   0  0  0  0  0  0  0  0  0  0  0  0
   -2.9860   -6.7020    0.0000 O   0  0  0  0  0  0  0  0  0  0  0  0
   -2.2420   -3.9020    0.0000 C   0  0  0  0  0  0  0  0  0  0  0  0
   -0.7420   -3.8990    0.0000 C   0  0  0  0  0  0  0  0  0  0  0  0
    0.0050   -2.5980    0.0000 C   0  0  0  0  0  0  0  0  0  0  0  0
    1.5050   -2.5950    0.0000 S   0  0  0  0  0  0  0  0  0  0  0  0
    1.5020   -1.0950    0.0000 O   0  0  0  0  0  0  0  0  0  0  0  0
    1.5080   -4.0950    0.0000 O   0  0  0  0  0  0  0  0  0  0  0  0
    3.0050   -2.5920    0.0000 N   0  0  0  0  0  0  0  0  0  0  0  0
  1  2  1  0  0  0  0
  2  3  1  0  0  0  0
  2 13  2  0  0  0  0
  3  4  2  0  0  0  0
  4  5  1  0  0  0  0
  4 11  1  0  0  0  0
  5  6  1  0  0  0  0
  6  7  1  0  0  0  0
  7  8  1  0  0  0  0
  8  9  2  0  0  0  0
  8 10  2  0  0  0  0
  8 11  1  0  0  0  0
 11 12  2  0  0  0  0
 12 13  1  0  0  0  0
 13 14  1  0  0  0  0
 14 15  2  0  0  0  0
 14 16  2  0  0  0  0
 14 17  1  0  0  0  0
M  END
>  <Index>
1591

>  <ID>
HT1044

>  <class>
1

>  <apol>
32.142345

>  <ast_fraglike>
0

>  <ast_fraglike_ext>
0

>  <ast_violation>
1

>  <ast_violation_ext>
2

>  <a_acc>
4

>  <a_acid>
0

>  <a_aro>
6

>  <a_base>
0

>  <a_count>
25

>  <a_don>
3

>  <a_donacc>
7

>  <a_heavy>
17

>  <a_hyd>
7

>  <a_IC>
57.690033

>  <a_ICM>
2.3076012

>  <a_nB>
0

>  <a_nBr>
0

>  <a_nC>
7

>  <a_nCl>
1

>  <a_nF>
0

>  <a_nH>
8

>  <a_nI>
0

>  <a_nN>
3

>  <a_nO>
4

>  <a_nP>
0

>  <a_nS>
2

>  <balabanJ>
2.1891959

>  <BCUT_PEOE_0>
-2.5396874

>  <BCUT_PEOE_1>
-0.64166272

>  <BCUT_PEOE_2>
0.64609414

>  <BCUT_PEOE_3>
2.5485628

>  <BCUT_SLOGP_0>
-2.723186

>  <BCUT_SLOGP_1>
-0.57691866

>  <BCUT_SLOGP_2>
0.65662229

>  <BCUT_SLOGP_3>
2.4933581

>  <BCUT_SMR_0>
-2.2002804

>  <BCUT_SMR_1>
-0.48046133

>  <BCUT_SMR_2>
0.78878403

>  <BCUT_SMR_3>
2.8720257

>  <bpol>
22.777657

>  <b_1rotN>
1

>  <b_1rotR>
0.055555556

>  <b_ar>
6

>  <b_count>
26

>  <b_double>
0

>  <b_heavy>
18

>  <b_max1len>
3

>  <b_rotN>
1

>  <b_rotR>
0.055555556

>  <b_single>
20

>  <b_triple>
0

>  <chi0>
12.844935

>  <chi0v>
10.655534

>  <chi0v_C>
3.8618073

>  <chi0_C>
4.4307213

>  <chi1>
7.7161622

>  <chi1v>
7.7229781

>  <chi1v_C>
1.6547005

>  <chi1_C>
2.2996597

>  <chiral>
0

>  <chiral_u>
0

>  <density>
1.0637167

>  <diameter>
7

>  <FCharge>
0

>  <GCUT_PEOE_0>
-0.89129108

>  <GCUT_PEOE_1>
-0.41575637

>  <GCUT_PEOE_2>
0.07267011

>  <GCUT_PEOE_3>
2.4349923

>  <GCUT_SLOGP_0>
-1.3482828

>  <GCUT_SLOGP_1>
-0.4939

>  <GCUT_SLOGP_2>
0.17099661

>  <GCUT_SLOGP_3>
2.436583

>  <GCUT_SMR_0>
-0.47940341

>  <GCUT_SMR_1>
-0.18148735

>  <GCUT_SMR_2>
0.20147602

>  <GCUT_SMR_3>
2.7127883

>  <Kier1>
13.432098

>  <Kier2>
4.2806182

>  <Kier3>
2.5599999

>  <KierA1>
14.720294

>  <KierA2>
4.7188449

>  <KierA3>
2.8352473

>  <KierFlex>
4.0860462

>  <lip_acc>
7

>  <lip_don>
4

>  <lip_druglike>
1

>  <lip_violation>
0

>  <logP(o/w)>
-0.50400001

>  <logS>
-1.83456

>  <mr>
6.2059088

>  <mutagenic>
0

>  <nmol>
1

>  <opr_brigid>
11

>  <opr_leadlike>
1

>  <opr_nring>
2

>  <opr_nrot>
1

>  <opr_violation>
0

>  <PC+>
0

>  <PC->
0

>  <PEOE_PC+>
1.526812

>  <PEOE_PC->
-1.526812

>  <PEOE_RPC+>
0.20287257

>  <PEOE_RPC->
0.25282782

>  <PEOE_VSA+0>
42.573959

>  <PEOE_VSA+1>
17.149784

>  <PEOE_VSA+2>
26.880259

>  <PEOE_VSA+3>
0

>  <PEOE_VSA+4>
0

>  <PEOE_VSA+5>
0

>  <PEOE_VSA+6>
8.3692026

>  <PEOE_VSA-0>
38.557255

>  <PEOE_VSA-1>
29.581947

>  <PEOE_VSA-2>
34.546043

>  <PEOE_VSA-3>
9.0437498

>  <PEOE_VSA-4>
32.016521

>  <PEOE_VSA-5>
0

>  <PEOE_VSA-6>
0.13689101

>  <PEOE_VSA_FHYD>
0.83034682

>  <PEOE_VSA_FNEG>
0.60238236

>  <PEOE_VSA_FPNEG>
0.13461444

>  <PEOE_VSA_FPOL>
0.16965319

>  <PEOE_VSA_FPOS>
0.39761764

>  <PEOE_VSA_FPPOS>
0.035038751

>  <PEOE_VSA_HYD>
198.33299

>  <PEOE_VSA_NEG>
143.88242

>  <PEOE_VSA_PNEG>
32.153416

>  <PEOE_VSA_POL>
40.522617

>  <PEOE_VSA_POS>
94.973206

>  <PEOE_VSA_PPOS>
8.3692026

>  <petitjean>
0.42857143

>  <petitjeanSC>
0.75

>  <Q_PC+>
0

>  <Q_PC->
0

>  <Q_RPC+>
0

>  <Q_RPC->
0

>  <Q_VSA_FHYD>
1

>  <Q_VSA_FNEG>
0

>  <Q_VSA_FPNEG>
0

>  <Q_VSA_FPOL>
0

>  <Q_VSA_FPOS>
1

>  <Q_VSA_FPPOS>
0

>  <Q_VSA_HYD>
238.85561

>  <Q_VSA_NEG>
0

>  <Q_VSA_PNEG>
0

>  <Q_VSA_POL>
0

>  <Q_VSA_POS>
238.85561

>  <Q_VSA_PPOS>
0

>  <radius>
4

>  <reactive>
0

>  <rings>
2

>  <RPC+>
0

>  <RPC->
0

>  <rsynth>
1

>  <SlogP>
-0.3513

>  <SlogP_VSA0>
47.69643

>  <SlogP_VSA1>
114.35413

>  <SlogP_VSA2>
13.281486

>  <SlogP_VSA3>
18.01075

>  <SlogP_VSA4>
0

>  <SlogP_VSA5>
3.1014678

>  <SlogP_VSA6>
3.5006065

>  <SlogP_VSA7>
35.286369

>  <SlogP_VSA8>
0

>  <SlogP_VSA9>
41.905392

>  <SMR>
6.16364

>  <SMR_VSA0>
96.343376

>  <SMR_VSA1>
0

>  <SMR_VSA2>
19.506466

>  <SMR_VSA3>
3.5006065

>  <SMR_VSA4>
52.058933

>  <SMR_VSA5>
35.286369

>  <SMR_VSA6>
18.01075

>  <SMR_VSA7>
52.43013

>  <TPSA>
118.36

>  <VAdjEq>
0.54234898

>  <VAdjMa>
5.1699252

>  <VDistEq>
2.633986

>  <VDistMa>
7.9134102

>  <vdw_area>
238.85561

>  <vdw_vol>
279.90817

>  <vsa_acc>
64.033043

>  <vsa_acid>
0

>  <vsa_base>
0

>  <vsa_don>
33.892902

>  <vsa_hyd>
80.787437

>  <vsa_other>
45.001736

>  <vsa_pol>
97.925949

>  <Weight>
297.74301

>  <weinerPath>
460

>  <weinerPol>
29

>  <zagreb>
94

$$$$