O=C1Nc2c(nccc2C)N(c2ncccc12)C1CC1
  MOE2013           2D

 20 23  0  0  1  0  0  0  0  0999 V2000
    0.0000    0.0000    0.0000 O   0  0  0  0  0  0  0  0  0  0  0  0
   -0.4750   -1.4230    0.0000 C   0  0  0  0  0  0  0  0  0  0  0  0
   -1.9630   -1.6130    0.0000 N   0  0  0  0  0  0  0  0  0  0  0  0
   -2.7420   -2.8950    0.0000 C   0  0  0  0  0  0  0  0  0  0  0  0
   -2.2270   -4.3040    0.0000 C   0  0  0  0  0  0  0  0  0  0  0  0
   -3.1890   -5.4540    0.0000 N   0  0  0  0  0  0  0  0  0  0  0  0
   -4.6670   -5.1960    0.0000 C   0  0  0  0  0  0  0  0  0  0  0  0
   -5.1820   -3.7880    0.0000 C   0  0  0  0  0  0  0  0  0  0  0  0
   -4.2200   -2.6370    0.0000 C   0  0  0  0  0  0  0  0  0  0  0  0
   -4.7350   -1.2280    0.0000 C   0  0  0  0  0  0  0  0  0  0  0  0
   -0.8040   -4.7800    0.0000 N   0  0  3  0  0  0  0  0  0  0  0  0
    0.4540   -3.9620    0.0000 C   0  0  0  0  0  0  0  0  0  0  0  0
    1.6740   -4.8350    0.0000 N   0  0  0  0  0  0  0  0  0  0  0  0
    3.0400   -4.2150    0.0000 C   0  0  0  0  0  0  0  0  0  0  0  0
    3.1860   -2.7220    0.0000 C   0  0  0  0  0  0  0  0  0  0  0  0
    1.9670   -1.8490    0.0000 C   0  0  0  0  0  0  0  0  0  0  0  0
    0.6000   -2.4690    0.0000 C   0  0  0  0  0  0  0  0  0  0  0  0
   -0.6150   -6.2680    0.0000 C   0  0  0  0  0  0  0  0  0  0  0  0
    0.2930   -7.4620    0.0000 C   0  0  0  0  0  0  0  0  0  0  0  0
   -1.1950   -7.6510    0.0000 C   0  0  0  0  0  0  0  0  0  0  0  0
  1  2  2  0  0  0  0
  2  3  1  0  0  0  0
  2 17  1  0  0  0  0
  3  4  1  0  0  0  0
  4  5  1  0  0  0  0
  4  9  2  0  0  0  0
  5  6  2  0  0  0  0
  5 11  1  0  0  0  0
  6  7  1  0  0  0  0
  7  8  2  0  0  0  0
  8  9  1  0  0  0  0
  9 10  1  0  0  0  0
 11 12  1  0  0  0  0
 11 18  1  0  0  0  0
 12 13  1  0  0  0  0
 12 17  2  0  0  0  0
 13 14  2  0  0  0  0
 14 15  1  0  0  0  0
 15 16  2  0  0  0  0
 16 17  1  0  0  0  0
 18 19  1  0  0  0  0
 18 20  1  0  0  0  0
 19 20  1  0  0  0  0
M  END
>  <Index>
1666

>  <ID>
HT1479

>  <class>
1

>  <apol>
40.937103

>  <ast_fraglike>
1

>  <ast_fraglike_ext>
1

>  <ast_violation>
0

>  <ast_violation_ext>
0

>  <a_acc>
3

>  <a_acid>
0

>  <a_aro>
12

>  <a_base>
0

>  <a_count>
34

>  <a_don>
1

>  <a_donacc>
4

>  <a_heavy>
20

>  <a_hyd>
12

>  <a_IC>
53.06741

>  <a_ICM>
1.5608062

>  <a_nB>
0

>  <a_nBr>
0

>  <a_nC>
15

>  <a_nCl>
0

>  <a_nF>
0

>  <a_nH>
14

>  <a_nI>
0

>  <a_nN>
4

>  <a_nO>
1

>  <a_nP>
0

>  <a_nS>
0

>  <balabanJ>
1.6805271

>  <BCUT_PEOE_0>
-2.3617723

>  <BCUT_PEOE_1>
-0.56748056

>  <BCUT_PEOE_2>
0.62482047

>  <BCUT_PEOE_3>
2.7666535

>  <BCUT_SLOGP_0>
-2.3798954

>  <BCUT_SLOGP_1>
-0.49763617

>  <BCUT_SLOGP_2>
0.7085678

>  <BCUT_SLOGP_3>
2.8125789

>  <BCUT_SMR_0>
-2.0429745

>  <BCUT_SMR_1>
-0.40449917

>  <BCUT_SMR_2>
0.76903784

>  <BCUT_SMR_3>
3.0293295

>  <bpol>
21.542898

>  <b_1rotN>
1

>  <b_1rotR>
0.043478262

>  <b_ar>
12

>  <b_count>
37

>  <b_double>
1

>  <b_heavy>
23

>  <b_max1len>
2

>  <b_rotN>
1

>  <b_rotR>
0.043478262

>  <b_single>
24

>  <b_triple>
0

>  <chi0>
13.68987

>  <chi0v>
11.128204

>  <chi0v_C>
8.878315

>  <chi0_C>
9.9911995

>  <chi1>
9.7540197

>  <chi1v>
6.766995

>  <chi1v_C>
4.393847

>  <chi1_C>
5.5436769

>  <chiral>
0

>  <chiral_u>
0

>  <density>
0.74927562

>  <diameter>
7

>  <FCharge>
0

>  <GCUT_PEOE_0>
-0.79746771

>  <GCUT_PEOE_1>
-0.45099154

>  <GCUT_PEOE_2>
0.097697124

>  <GCUT_PEOE_3>
2.5948856

>  <GCUT_SLOGP_0>
-0.99318826

>  <GCUT_SLOGP_1>
-0.31336549

>  <GCUT_SLOGP_2>
0.16734357

>  <GCUT_SLOGP_3>
2.6821594

>  <GCUT_SMR_0>
-0.47900531

>  <GCUT_SMR_1>
-0.22180553

>  <GCUT_SMR_2>
0.21351379

>  <GCUT_SMR_3>
2.8908169

>  <Kier1>
13.648394

>  <Kier2>
5.3252597

>  <Kier3>
2.2032001

>  <KierA1>
9.3644133

>  <KierA2>
3.5742385

>  <KierA3>
1.4550332

>  <KierFlex>
1.6735324

>  <lip_acc>
5

>  <lip_don>
1

>  <lip_druglike>
1

>  <lip_violation>
0

>  <logP(o/w)>
1.897

>  <logS>
-2.2797301

>  <mr>
7.4932094

>  <mutagenic>
0

>  <nmol>
1

>  <opr_brigid>
20

>  <opr_leadlike>
1

>  <opr_nring>
4

>  <opr_nrot>
1

>  <opr_violation>
0

>  <PC+>
0

>  <PC->
0

>  <PEOE_PC+>
1.5340822

>  <PEOE_PC->
-1.5340822

>  <PEOE_RPC+>
0.16912453

>  <PEOE_RPC->
0.20812121

>  <PEOE_VSA+0>
70.76088

>  <PEOE_VSA+1>
30.235022

>  <PEOE_VSA+2>
22.381124

>  <PEOE_VSA+3>
8.6190128

>  <PEOE_VSA+4>
0

>  <PEOE_VSA+5>
12.949531

>  <PEOE_VSA+6>
0

>  <PEOE_VSA-0>
75.123558

>  <PEOE_VSA-1>
0

>  <PEOE_VSA-2>
0

>  <PEOE_VSA-3>
0

>  <PEOE_VSA-4>
11.365152

>  <PEOE_VSA-5>
13.566921

>  <PEOE_VSA-6>
0.13689101

>  <PEOE_VSA_FHYD>
0.84490991

>  <PEOE_VSA_FNEG>
0.40871871

>  <PEOE_VSA_FPNEG>
0.10226467

>  <PEOE_VSA_FPOL>
0.15509012

>  <PEOE_VSA_FPOS>
0.59128129

>  <PEOE_VSA_FPPOS>
0.052825455

>  <PEOE_VSA_HYD>
207.1196

>  <PEOE_VSA_NEG>
100.19252

>  <PEOE_VSA_PNEG>
25.068964

>  <PEOE_VSA_POL>
38.018494

>  <PEOE_VSA_POS>
144.94557

>  <PEOE_VSA_PPOS>
12.949531

>  <petitjean>
0.42857143

>  <petitjeanSC>
0.75

>  <Q_PC+>
0

>  <Q_PC->
0

>  <Q_RPC+>
0

>  <Q_RPC->
0

>  <Q_VSA_FHYD>
1

>  <Q_VSA_FNEG>
0

>  <Q_VSA_FPNEG>
0

>  <Q_VSA_FPOL>
0

>  <Q_VSA_FPOS>
1

>  <Q_VSA_FPPOS>
0

>  <Q_VSA_HYD>
245.13809

>  <Q_VSA_NEG>
0

>  <Q_VSA_PNEG>
0

>  <Q_VSA_POL>
0

>  <Q_VSA_POS>
245.13809

>  <Q_VSA_PPOS>
0

>  <radius>
4

>  <reactive>
0

>  <rings>
4

>  <RPC+>
0

>  <RPC->
0

>  <rsynth>
1

>  <SlogP>
2.6512201

>  <SlogP_VSA0>
3.1243138

>  <SlogP_VSA1>
56.840595

>  <SlogP_VSA2>
3.9819686

>  <SlogP_VSA3>
0

>  <SlogP_VSA4>
30.233366

>  <SlogP_VSA5>
0

>  <SlogP_VSA6>
0

>  <SlogP_VSA7>
87.358269

>  <SlogP_VSA8>
37.736813

>  <SlogP_VSA9>
40.738602

>  <SMR>
7.6325202

>  <SMR_VSA0>
23.862217

>  <SMR_VSA1>
33.57106

>  <SMR_VSA2>
3.1243138

>  <SMR_VSA3>
10.353119

>  <SMR_VSA4>
25.423338

>  <SMR_VSA5>
125.09508

>  <SMR_VSA6>
5.2587838

>  <SMR_VSA7>
33.326015

>  <TPSA>
58.119999

>  <VAdjEq>
0.51481563

>  <VAdjMa>
5.523562

>  <VDistEq>
2.6431367

>  <VDistMa>
8.4138803

>  <vdw_area>
245.13809

>  <vdw_vol>
355.41525

>  <vsa_acc>
24.932074

>  <vsa_acid>
0

>  <vsa_base>
0

>  <vsa_don>
5.6825762

>  <vsa_hyd>
166.86612

>  <vsa_other>
35.330658

>  <vsa_pol>
30.614649

>  <Weight>
266.30399

>  <weinerPath>
676

>  <weinerPol>
39

>  <zagreb>
114

$$$$