Fc1ccc(cc1)C(N1CCN(CC1)CC=Cc1ccccc1)c1ccc(F)cc1
  MOE2013           2D

 30 33  0  0  0  0  0  0  0  0999 V2000
    0.0000    0.0000    0.0000 F   0  0  0  0  0  0  0  0  0  0  0  0
    1.3020   -0.7450    0.0000 C   0  0  0  0  0  0  0  0  0  0  0  0
    1.3070   -2.2450    0.0000 C   0  0  0  0  0  0  0  0  0  0  0  0
    2.6090   -2.9910    0.0000 C   0  0  0  0  0  0  0  0  0  0  0  0
    3.9050   -2.2360    0.0000 C   0  0  0  0  0  0  0  0  0  0  0  0
    3.9000   -0.7360    0.0000 C   0  0  0  0  0  0  0  0  0  0  0  0
    2.5980    0.0090    0.0000 C   0  0  0  0  0  0  0  0  0  0  0  0
    5.2070   -2.9820    0.0000 C   0  0  0  0  0  0  0  0  0  0  0  0
    6.5030   -2.2270    0.0000 N   0  0  0  0  0  0  0  0  0  0  0  0
    6.4980   -0.7270    0.0000 C   0  0  0  0  0  0  0  0  0  0  0  0
    7.7940    0.0270    0.0000 C   0  0  0  0  0  0  0  0  0  0  0  0
    9.0960   -0.7180    0.0000 N   0  0  0  0  0  0  0  0  0  0  0  0
    9.1010   -2.2180    0.0000 C   0  0  0  0  0  0  0  0  0  0  0  0
    7.8050   -2.9730    0.0000 C   0  0  0  0  0  0  0  0  0  0  0  0
   10.3920    0.0360    0.0000 C   0  0  0  0  0  0  0  0  0  0  0  0
   11.6940   -0.7090    0.0000 C   0  0  0  0  0  0  0  0  0  0  0  0
   12.9900    0.0460    0.0000 C   0  0  0  0  0  0  0  0  0  0  0  0
   14.2920   -0.7000    0.0000 C   0  0  0  0  0  0  0  0  0  0  0  0
   14.2970   -2.2000    0.0000 C   0  0  0  0  0  0  0  0  0  0  0  0
   15.5990   -2.9450    0.0000 C   0  0  0  0  0  0  0  0  0  0  0  0
   16.8950   -2.1910    0.0000 C   0  0  0  0  0  0  0  0  0  0  0  0
   16.8900   -0.6910    0.0000 C   0  0  0  0  0  0  0  0  0  0  0  0
   15.5880    0.0550    0.0000 C   0  0  0  0  0  0  0  0  0  0  0  0
    5.2120   -4.4820    0.0000 C   0  0  0  0  0  0  0  0  0  0  0  0
    3.9160   -5.2360    0.0000 C   0  0  0  0  0  0  0  0  0  0  0  0
    3.9210   -6.7360    0.0000 C   0  0  0  0  0  0  0  0  0  0  0  0
    5.2220   -7.4820    0.0000 C   0  0  0  0  0  0  0  0  0  0  0  0
    5.2280   -8.9820    0.0000 F   0  0  0  0  0  0  0  0  0  0  0  0
    6.5190   -6.7270    0.0000 C   0  0  0  0  0  0  0  0  0  0  0  0
    6.5140   -5.2270    0.0000 C   0  0  0  0  0  0  0  0  0  0  0  0
  1  2  1  0  0  0  0
  2  3  1  0  0  0  0
  2  7  2  0  0  0  0
  3  4  2  0  0  0  0
  4  5  1  0  0  0  0
  5  6  2  0  0  0  0
  5  8  1  0  0  0  0
  6  7  1  0  0  0  0
  8  9  1  0  0  0  0
  8 24  1  0  0  0  0
  9 10  1  0  0  0  0
  9 14  1  0  0  0  0
 10 11  1  0  0  0  0
 11 12  1  0  0  0  0
 12 13  1  0  0  0  0
 12 15  1  0  0  0  0
 13 14  1  0  0  0  0
 15 16  1  0  0  0  0
 16 17  2  3  0  0  0
 17 18  1  0  0  0  0
 18 19  1  0  0  0  0
 18 23  2  0  0  0  0
 19 20  2  0  0  0  0
 20 21  1  0  0  0  0
 21 22  2  0  0  0  0
 22 23  1  0  0  0  0
 24 25  1  0  0  0  0
 24 30  2  0  0  0  0
 25 26  2  0  0  0  0
 26 27  1  0  0  0  0
 27 28  1  0  0  0  0
 27 29  2  0  0  0  0
 29 30  1  0  0  0  0
M  END
>  <Index>
1571

>  <ID>
HT0900

>  <class>
1

>  <apol>
66.410622

>  <ast_fraglike>
0

>  <ast_fraglike_ext>
0

>  <ast_violation>
2

>  <ast_violation_ext>
3

>  <a_acc>
2

>  <a_acid>
0

>  <a_aro>
18

>  <a_base>
0

>  <a_count>
56

>  <a_don>
0

>  <a_donacc>
2

>  <a_heavy>
30

>  <a_hyd>
28

>  <a_IC>
76.789009

>  <a_ICM>
1.3712323

>  <a_nB>
0

>  <a_nBr>
0

>  <a_nC>
26

>  <a_nCl>
0

>  <a_nF>
2

>  <a_nH>
26

>  <a_nI>
0

>  <a_nN>
2

>  <a_nO>
0

>  <a_nP>
0

>  <a_nS>
0

>  <balabanJ>
1.2558904

>  <BCUT_PEOE_0>
-2.7784066

>  <BCUT_PEOE_1>
-0.64169186

>  <BCUT_PEOE_2>
0.70205975

>  <BCUT_PEOE_3>
2.6760197

>  <BCUT_SLOGP_0>
-2.8767376

>  <BCUT_SLOGP_1>
-0.53807992

>  <BCUT_SLOGP_2>
0.80591482

>  <BCUT_SLOGP_3>
2.6286528

>  <BCUT_SMR_0>
-2.4904203

>  <BCUT_SMR_1>
-0.49986199

>  <BCUT_SMR_2>
0.85431087

>  <BCUT_SMR_3>
2.9569263

>  <bpol>
34.789383

>  <b_1rotN>
6

>  <b_1rotR>
0.18181819

>  <b_ar>
18

>  <b_count>
59

>  <b_double>
1

>  <b_heavy>
33

>  <b_max1len>
3

>  <b_rotN>
6

>  <b_rotR>
0.18181819

>  <b_single>
40

>  <b_triple>
0

>  <chi0>
20.760939

>  <chi0v>
16.923494

>  <chi0v_C>
15.273138

>  <chi0_C>
17.606237

>  <chi1>
14.686673

>  <chi1v>
10.378327

>  <chi1v_C>
8.161025

>  <chi1_C>
11.157398

>  <chiral>
0

>  <chiral_u>
0

>  <density>
0.70160174

>  <diameter>
16

>  <FCharge>
0

>  <GCUT_PEOE_0>
-0.85166585

>  <GCUT_PEOE_1>
-0.39860058

>  <GCUT_PEOE_2>
0.081990212

>  <GCUT_PEOE_3>
2.8250599

>  <GCUT_SLOGP_0>
-0.96068281

>  <GCUT_SLOGP_1>
-0.26386139

>  <GCUT_SLOGP_2>
0.17670985

>  <GCUT_SLOGP_3>
2.8801625

>  <GCUT_SMR_0>
-0.51433307

>  <GCUT_SMR_1>
-0.2120079

>  <GCUT_SMR_2>
0.19305076

>  <GCUT_SMR_3>
3.0934279

>  <Kier1>
23.168043

>  <Kier2>
11.743802

>  <Kier3>
6.75

>  <KierA1>
17.305431

>  <KierA2>
8.6774845

>  <KierA3>
4.9493675

>  <KierFlex>
5.0055871

>  <lip_acc>
2

>  <lip_don>
0

>  <lip_druglike>
1

>  <lip_violation>
1

>  <logP(o/w)>
6.1269999

>  <logS>
-5.9346399

>  <mr>
11.919695

>  <mutagenic>
0

>  <nmol>
1

>  <opr_brigid>
25

>  <opr_leadlike>
1

>  <opr_nring>
4

>  <opr_nrot>
8

>  <opr_violation>
1

>  <PC+>
0

>  <PC->
0

>  <PEOE_PC+>
1.8139745

>  <PEOE_PC->
-1.8139745

>  <PEOE_RPC+>
0.068039164

>  <PEOE_RPC->
0.16334093

>  <PEOE_VSA+0>
108.61549

>  <PEOE_VSA+1>
71.392136

>  <PEOE_VSA+2>
18.041691

>  <PEOE_VSA+3>
0

>  <PEOE_VSA+4>
0

>  <PEOE_VSA+5>
0

>  <PEOE_VSA+6>
0

>  <PEOE_VSA-0>
55.645233

>  <PEOE_VSA-1>
134.80394

>  <PEOE_VSA-2>
0

>  <PEOE_VSA-3>
0

>  <PEOE_VSA-4>
23.817272

>  <PEOE_VSA-5>
0

>  <PEOE_VSA-6>
0

>  <PEOE_VSA_FHYD>
0.94223535

>  <PEOE_VSA_FNEG>
0.5196659

>  <PEOE_VSA_FPNEG>
0.057764638

>  <PEOE_VSA_FPOL>
0.057764638

>  <PEOE_VSA_FPOS>
0.48033407

>  <PEOE_VSA_FPPOS>
0

>  <PEOE_VSA_HYD>
388.4985

>  <PEOE_VSA_NEG>
214.26645

>  <PEOE_VSA_PNEG>
23.817272

>  <PEOE_VSA_POL>
23.817272

>  <PEOE_VSA_POS>
198.04932

>  <PEOE_VSA_PPOS>
0

>  <petitjean>
0.5

>  <petitjeanSC>
1

>  <Q_PC+>
0

>  <Q_PC->
0

>  <Q_RPC+>
0

>  <Q_RPC->
0

>  <Q_VSA_FHYD>
1

>  <Q_VSA_FNEG>
0

>  <Q_VSA_FPNEG>
0

>  <Q_VSA_FPOL>
0

>  <Q_VSA_FPOS>
1

>  <Q_VSA_FPPOS>
0

>  <Q_VSA_HYD>
412.31577

>  <Q_VSA_NEG>
0

>  <Q_VSA_PNEG>
0

>  <Q_VSA_POL>
0

>  <Q_VSA_POS>
412.31577

>  <Q_VSA_PPOS>
0

>  <radius>
8

>  <reactive>
0

>  <rings>
4

>  <RPC+>
0

>  <RPC->
0

>  <rsynth>
1

>  <SlogP>
5.4807

>  <SlogP_VSA0>
0

>  <SlogP_VSA1>
6.2486277

>  <SlogP_VSA2>
18.242037

>  <SlogP_VSA3>
92.197891

>  <SlogP_VSA4>
9.5567245

>  <SlogP_VSA5>
0

>  <SlogP_VSA6>
0

>  <SlogP_VSA7>
247.00458

>  <SlogP_VSA8>
21.625153

>  <SlogP_VSA9>
29.920227

>  <SMR>
11.8243

>  <SMR_VSA0>
0

>  <SMR_VSA1>
36.168854

>  <SMR_VSA2>
18.242037

>  <SMR_VSA3>
13.538693

>  <SMR_VSA4>
0

>  <SMR_VSA5>
247.00458

>  <SMR_VSA6>
109.84107

>  <SMR_VSA7>
0

>  <TPSA>
6.48

>  <VAdjEq>
0.37824166

>  <VAdjMa>
6.044394

>  <VDistEq>
3.7920032

>  <VDistMa>
9.4990301

>  <vdw_area>
412.31577

>  <vdw_vol>
576.54364

>  <vsa_acc>
0

>  <vsa_acid>
0

>  <vsa_base>
0

>  <vsa_don>
0

>  <vsa_hyd>
393.80908

>  <vsa_other>
0

>  <vsa_pol>
0

>  <Weight>
404.504

>  <weinerPath>
2790

>  <weinerPol>
44

>  <zagreb>
154

$$$$