O(CC(O)COC(=O)N)c1ccccc1OC
  MOE2013           2D

 17 17  0  0  1  0  0  0  0  0999 V2000
    0.0000    0.0000    0.0000 O   0  0  0  0  0  0  0  0  0  0  0  0
    1.3050   -0.7390    0.0000 C   0  0  0  0  0  0  0  0  0  0  0  0
    2.5980    0.0210    0.0000 C   0  0  3  0  0  0  0  0  0  0  0  0
    2.5860    1.5210    0.0000 O   0  0  0  0  0  0  0  0  0  0  0  0
    3.9030   -0.7190    0.0000 C   0  0  0  0  0  0  0  0  0  0  0  0
    5.1960    0.0420    0.0000 O   0  0  0  0  0  0  0  0  0  0  0  0
    6.5010   -0.6980    0.0000 C   0  0  0  0  0  0  0  0  0  0  0  0
    7.7940    0.0630    0.0000 O   0  0  0  0  0  0  0  0  0  0  0  0
    6.5130   -2.1970    0.0000 N   0  0  0  0  0  0  0  0  0  0  0  0
   -1.2930   -0.7600    0.0000 C   0  0  0  0  0  0  0  0  0  0  0  0
   -1.2810   -2.2600    0.0000 C   0  0  0  0  0  0  0  0  0  0  0  0
   -2.5740   -3.0210    0.0000 C   0  0  0  0  0  0  0  0  0  0  0  0
   -3.8790   -2.2810    0.0000 C   0  0  0  0  0  0  0  0  0  0  0  0
   -3.8910   -0.7810    0.0000 C   0  0  0  0  0  0  0  0  0  0  0  0
   -2.5980   -0.0210    0.0000 C   0  0  0  0  0  0  0  0  0  0  0  0
   -2.6100    1.4790    0.0000 O   0  0  0  0  0  0  0  0  0  0  0  0
   -3.9150    2.2180    0.0000 C   0  0  0  0  0  0  0  0  0  0  0  0
  1  2  1  0  0  0  0
  1 10  1  0  0  0  0
  2  3  1  0  0  0  0
  3  4  1  0  0  0  0
  3  5  1  0  0  0  0
  5  6  1  0  0  0  0
  6  7  1  0  0  0  0
  7  8  2  0  0  0  0
  7  9  1  0  0  0  0
 10 11  1  0  0  0  0
 10 15  2  0  0  0  0
 11 12  2  0  0  0  0
 12 13  1  0  0  0  0
 13 14  2  0  0  0  0
 14 15  1  0  0  0  0
 15 16  1  0  0  0  0
 16 17  1  0  0  0  0
M  END
>  <Index>
1644

>  <ID>
HT1344

>  <class>
1

>  <apol>
34.471893

>  <ast_fraglike>
0

>  <ast_fraglike_ext>
0

>  <ast_violation>
1

>  <ast_violation_ext>
2

>  <a_acc>
4

>  <a_acid>
0

>  <a_aro>
6

>  <a_base>
0

>  <a_count>
32

>  <a_don>
2

>  <a_donacc>
6

>  <a_heavy>
17

>  <a_hyd>
10

>  <a_IC>
51.733253

>  <a_ICM>
1.6166642

>  <a_nB>
0

>  <a_nBr>
0

>  <a_nC>
11

>  <a_nCl>
0

>  <a_nF>
0

>  <a_nH>
15

>  <a_nI>
0

>  <a_nN>
1

>  <a_nO>
5

>  <a_nP>
0

>  <a_nS>
0

>  <balabanJ>
2.1946871

>  <BCUT_PEOE_0>
-2.5099769

>  <BCUT_PEOE_1>
-0.59433377

>  <BCUT_PEOE_2>
0.62413079

>  <BCUT_PEOE_3>
2.5500479

>  <BCUT_SLOGP_0>
-2.6881731

>  <BCUT_SLOGP_1>
-0.54790461

>  <BCUT_SLOGP_2>
0.65510339

>  <BCUT_SLOGP_3>
2.4474545

>  <BCUT_SMR_0>
-2.2977343

>  <BCUT_SMR_1>
-0.43027383

>  <BCUT_SMR_2>
0.76203293

>  <BCUT_SMR_3>
2.7488489

>  <bpol>
22.444105

>  <b_1rotN>
6

>  <b_1rotR>
0.35294119

>  <b_ar>
6

>  <b_count>
32

>  <b_double>
1

>  <b_heavy>
17

>  <b_max1len>
4

>  <b_rotN>
7

>  <b_rotR>
0.41176471

>  <b_single>
25

>  <b_triple>
0

>  <chi0>
12.673362

>  <chi0v>
9.4585218

>  <chi0v_C>
6.8009648

>  <chi0_C>
7.5520415

>  <chi1>
8.130229

>  <chi1v>
4.992816

>  <chi1v_C>
2.6438468

>  <chi1_C>
3.4663265

>  <chiral>
1

>  <chiral_u>
1

>  <density>
0.78485578

>  <diameter>
10

>  <FCharge>
0

>  <GCUT_PEOE_0>
-0.79359645

>  <GCUT_PEOE_1>
-0.42159903

>  <GCUT_PEOE_2>
0.05719934

>  <GCUT_PEOE_3>
2.3086095

>  <GCUT_SLOGP_0>
-1.3703313

>  <GCUT_SLOGP_1>
-0.38119984

>  <GCUT_SLOGP_2>
0.11969042

>  <GCUT_SLOGP_3>
2.3767617

>  <GCUT_SMR_0>
-0.5202803

>  <GCUT_SMR_1>
-0.21207796

>  <GCUT_SMR_2>
0.16699044

>  <GCUT_SMR_3>
2.5500572

>  <Kier1>
15.058824

>  <Kier2>
8.1632652

>  <Kier3>
5.9281664

>  <KierA1>
11.85678

>  <KierA2>
6.3235188

>  <KierA3>
4.5326972

>  <KierFlex>
4.4103866

>  <lip_acc>
6

>  <lip_don>
3

>  <lip_druglike>
1

>  <lip_violation>
0

>  <logP(o/w)>
0.17773999

>  <logS>
-1.6384799

>  <mr>
6.1332269

>  <mutagenic>
0

>  <nmol>
1

>  <opr_brigid>
6

>  <opr_leadlike>
1

>  <opr_nring>
1

>  <opr_nrot>
6

>  <opr_violation>
0

>  <PC+>
0

>  <PC->
0

>  <PEOE_PC+>
2.1288791

>  <PEOE_PC->
-2.1288791

>  <PEOE_RPC+>
0.16824536

>  <PEOE_RPC->
0.18187876

>  <PEOE_VSA+0>
24.997658

>  <PEOE_VSA+1>
81.087219

>  <PEOE_VSA+2>
21.821968

>  <PEOE_VSA+3>
17.238026

>  <PEOE_VSA+4>
10.324173

>  <PEOE_VSA+5>
0

>  <PEOE_VSA+6>
19.199511

>  <PEOE_VSA-0>
24.509808

>  <PEOE_VSA-1>
24.509808

>  <PEOE_VSA-2>
0

>  <PEOE_VSA-3>
0

>  <PEOE_VSA-4>
13.566921

>  <PEOE_VSA-5>
2.503756

>  <PEOE_VSA-6>
19.426172

>  <PEOE_VSA_FHYD>
0.74913466

>  <PEOE_VSA_FNEG>
0.32608545

>  <PEOE_VSA_FPNEG>
0.13695563

>  <PEOE_VSA_FPOL>
0.25086531

>  <PEOE_VSA_FPOS>
0.67391455

>  <PEOE_VSA_FPPOS>
0.11390968

>  <PEOE_VSA_HYD>
194.16449

>  <PEOE_VSA_NEG>
84.516464

>  <PEOE_VSA_PNEG>
35.496849

>  <PEOE_VSA_POL>
65.020531

>  <PEOE_VSA_POS>
174.66855

>  <PEOE_VSA_PPOS>
29.523684

>  <petitjean>
0.5

>  <petitjeanSC>
1

>  <Q_PC+>
0

>  <Q_PC->
0

>  <Q_RPC+>
0

>  <Q_RPC->
0

>  <Q_VSA_FHYD>
1

>  <Q_VSA_FNEG>
0

>  <Q_VSA_FPNEG>
0

>  <Q_VSA_FPOL>
0

>  <Q_VSA_FPOS>
1

>  <Q_VSA_FPPOS>
0

>  <Q_VSA_HYD>
259.18503

>  <Q_VSA_NEG>
0

>  <Q_VSA_PNEG>
0

>  <Q_VSA_POL>
0

>  <Q_VSA_POS>
259.18503

>  <Q_VSA_PPOS>
0

>  <radius>
5

>  <reactive>
0

>  <rings>
1

>  <RPC+>
0

>  <RPC->
0

>  <rsynth>
1

>  <SlogP>
0.5302

>  <SlogP_VSA0>
80.282188

>  <SlogP_VSA1>
7.3166366

>  <SlogP_VSA2>
17.468536

>  <SlogP_VSA3>
41.852516

>  <SlogP_VSA4>
0

>  <SlogP_VSA5>
35.383869

>  <SlogP_VSA6>
0

>  <SlogP_VSA7>
70.572739

>  <SlogP_VSA8>
0

>  <SlogP_VSA9>
34.349072

>  <SMR>
6.0031199

>  <SMR_VSA0>
34.862103

>  <SMR_VSA1>
47.385002

>  <SMR_VSA2>
0

>  <SMR_VSA3>
16.955505

>  <SMR_VSA4>
32.897186

>  <SMR_VSA5>
70.572739

>  <SMR_VSA6>
49.169155

>  <SMR_VSA7>
35.383869

>  <TPSA>
91.010002

>  <VAdjEq>
0.52255934

>  <VAdjMa>
5.0874629

>  <VDistEq>
3.2026117

>  <VDistMa>
7.8442349

>  <vdw_area>
259.18503

>  <vdw_vol>
307.37241

>  <vsa_acc>
18.574432

>  <vsa_acid>
0

>  <vsa_base>
0

>  <vsa_don>
17.742489

>  <vsa_hyd>
168.38492

>  <vsa_other>
21.703266

>  <vsa_pol>
49.883842

>  <Weight>
241.243

>  <weinerPath>
606

>  <weinerPol>
20

>  <zagreb>
76

$$$$