Oc1cc2CC[C@H]3[C@@H]4CCC(=O)[C@]4(CC[C@@H]3c2cc1)C
  MOE2013           2D

 20 23  0  0  1  0  0  0  0  0999 V2000
    0.0000    0.0000    0.0000 O   0  0  0  0  0  0  0  0  0  0  0  0
   -1.5000    0.0010    0.0000 C   0  0  0  0  0  0  0  0  0  0  0  0
   -2.2490    1.3000    0.0000 C   0  0  0  0  0  0  0  0  0  0  0  0
   -3.7490    1.3010    0.0000 C   0  0  0  0  0  0  0  0  0  0  0  0
   -4.4980    2.6010    0.0000 C   0  0  0  0  0  0  0  0  0  0  0  0
   -5.9980    2.6020    0.0000 C   0  0  0  0  0  0  0  0  0  0  0  0
   -6.7490    1.3030    0.0000 C   0  0  1  0  0  0  0  0  0  0  0  0
   -8.2490    1.3040    0.0000 C   0  0  2  0  0  0  0  0  0  0  0  0
   -9.2520    2.4200    0.0000 C   0  0  0  0  0  0  0  0  0  0  0  0
  -10.6230    1.8110    0.0000 C   0  0  0  0  0  0  0  0  0  0  0  0
  -10.4670    0.3190    0.0000 C   0  0  0  0  0  0  0  0  0  0  0  0
  -11.5820   -0.6840    0.0000 O   0  0  0  0  0  0  0  0  0  0  0  0
   -9.0000    0.0060    0.0000 C   0  0  1  0  0  0  0  0  0  0  0  0
   -8.2510   -1.2940    0.0000 C   0  0  0  0  0  0  0  0  0  0  0  0
   -6.7510   -1.2950    0.0000 C   0  0  0  0  0  0  0  0  0  0  0  0
   -6.0000    0.0040    0.0000 C   0  0  2  0  0  0  0  0  0  0  0  0
   -4.5000    0.0030    0.0000 C   0  0  0  0  0  0  0  0  0  0  0  0
   -3.7510   -1.2970    0.0000 C   0  0  0  0  0  0  0  0  0  0  0  0
   -2.2510   -1.2980    0.0000 C   0  0  0  0  0  0  0  0  0  0  0  0
   -9.8820   -1.2070    0.0000 C   0  0  0  0  0  0  0  0  0  0  0  0
  1  2  1  0  0  0  0
  2  3  1  0  0  0  0
  2 19  2  0  0  0  0
  3  4  2  0  0  0  0
  4  5  1  0  0  0  0
  4 17  1  0  0  0  0
  5  6  1  0  0  0  0
  7  6  1  6  0  0  0
  7  8  1  0  0  0  0
  7 16  1  0  0  0  0
  8  9  1  1  0  0  0
  8 13  1  0  0  0  0
  9 10  1  0  0  0  0
 10 11  1  0  0  0  0
 11 12  2  0  0  0  0
 11 13  1  0  0  0  0
 13 14  1  0  0  0  0
 13 20  1  1  0  0  0
 14 15  1  0  0  0  0
 16 15  1  1  0  0  0
 16 17  1  0  0  0  0
 17 18  2  0  0  0  0
 18 19  1  0  0  0  0
M  END
>  <Index>
1557

>  <ID>
HT0798

>  <class>
1

>  <apol>
47.953445

>  <ast_fraglike>
0

>  <ast_fraglike_ext>
0

>  <ast_violation>
1

>  <ast_violation_ext>
1

>  <a_acc>
2

>  <a_acid>
0

>  <a_aro>
6

>  <a_base>
0

>  <a_count>
42

>  <a_don>
1

>  <a_donacc>
3

>  <a_heavy>
20

>  <a_hyd>
17

>  <a_IC>
51.311188

>  <a_ICM>
1.2216949

>  <a_nB>
0

>  <a_nBr>
0

>  <a_nC>
18

>  <a_nCl>
0

>  <a_nF>
0

>  <a_nH>
22

>  <a_nI>
0

>  <a_nN>
0

>  <a_nO>
2

>  <a_nP>
0

>  <a_nS>
0

>  <balabanJ>
1.5691407

>  <BCUT_PEOE_0>
-2.8700118

>  <BCUT_PEOE_1>
-0.57500052

>  <BCUT_PEOE_2>
0.5580678

>  <BCUT_PEOE_3>
2.9055552

>  <BCUT_SLOGP_0>
-2.7837393

>  <BCUT_SLOGP_1>
-0.48361903

>  <BCUT_SLOGP_2>
0.6034199

>  <BCUT_SLOGP_3>
2.9821727

>  <BCUT_SMR_0>
-2.6172185

>  <BCUT_SMR_1>
-0.42335659

>  <BCUT_SMR_2>
0.70419341

>  <BCUT_SMR_3>
3.1596904

>  <bpol>
25.008554

>  <b_1rotN>
0

>  <b_1rotR>
0

>  <b_ar>
6

>  <b_count>
45

>  <b_double>
1

>  <b_heavy>
23

>  <b_max1len>
2

>  <b_rotN>
0

>  <b_rotR>
0

>  <b_single>
38

>  <b_triple>
0

>  <chi0>
13.905413

>  <chi0v>
12.062204

>  <chi0v_C>
11.206742

>  <chi0_C>
11.905413

>  <chi1>
9.5931721

>  <chi1v>
7.9451866

>  <chi1v_C>
7.5174561

>  <chi1_C>
8.4384718

>  <chiral>
4

>  <chiral_u>
0

>  <density>
0.69320309

>  <diameter>
10

>  <FCharge>
0

>  <GCUT_PEOE_0>
-0.7877866

>  <GCUT_PEOE_1>
-0.39617342

>  <GCUT_PEOE_2>
0.041031398

>  <GCUT_PEOE_3>
3.0578723

>  <GCUT_SLOGP_0>
-0.83775645

>  <GCUT_SLOGP_1>
-0.29399142

>  <GCUT_SLOGP_2>
0.092831656

>  <GCUT_SLOGP_3>
3.1551912

>  <GCUT_SMR_0>
-0.5352177

>  <GCUT_SMR_1>
-0.23056428

>  <GCUT_SMR_2>
0.15707804

>  <GCUT_SMR_3>
3.2977931

>  <Kier1>
13.648394

>  <Kier2>
4.75

>  <Kier3>
1.9608401

>  <KierA1>
11.485277

>  <KierA2>
3.958528

>  <KierA3>
1.6225274

>  <KierFlex>
2.2732396

>  <lip_acc>
2

>  <lip_don>
1

>  <lip_druglike>
1

>  <lip_violation>
0

>  <logP(o/w)>
3.24

>  <logS>
-4.1125798

>  <mr>
7.8591242

>  <mutagenic>
0

>  <nmol>
1

>  <opr_brigid>
20

>  <opr_leadlike>
1

>  <opr_nring>
4

>  <opr_nrot>
0

>  <opr_violation>
0

>  <PC+>
0

>  <PC->
0

>  <PEOE_PC+>
1.1748465

>  <PEOE_PC->
-1.1748465

>  <PEOE_RPC+>
0.18497175

>  <PEOE_RPC->
0.30627292

>  <PEOE_VSA+0>
85.478264

>  <PEOE_VSA+1>
21.254677

>  <PEOE_VSA+2>
8.458519

>  <PEOE_VSA+3>
0

>  <PEOE_VSA+4>
10.324173

>  <PEOE_VSA+5>
0

>  <PEOE_VSA+6>
0

>  <PEOE_VSA-0>
72.433456

>  <PEOE_VSA-1>
31.002581

>  <PEOE_VSA-2>
0

>  <PEOE_VSA-3>
0

>  <PEOE_VSA-4>
0

>  <PEOE_VSA-5>
13.566921

>  <PEOE_VSA-6>
7.7675405

>  <PEOE_VSA_FHYD>
0.87351024

>  <PEOE_VSA_FNEG>
0.49851143

>  <PEOE_VSA_FPNEG>
0.08524029

>  <PEOE_VSA_FPOL>
0.12648977

>  <PEOE_VSA_FPOS>
0.50148857

>  <PEOE_VSA_FPPOS>
0.04124948

>  <PEOE_VSA_HYD>
218.62749

>  <PEOE_VSA_NEG>
124.77049

>  <PEOE_VSA_PNEG>
21.334461

>  <PEOE_VSA_POL>
31.658634

>  <PEOE_VSA_POS>
125.51563

>  <PEOE_VSA_PPOS>
10.324173

>  <petitjean>
0.5

>  <petitjeanSC>
1

>  <Q_PC+>
0

>  <Q_PC->
0

>  <Q_RPC+>
0

>  <Q_RPC->
0

>  <Q_VSA_FHYD>
1

>  <Q_VSA_FNEG>
0

>  <Q_VSA_FPNEG>
0

>  <Q_VSA_FPOL>
0

>  <Q_VSA_FPOS>
1

>  <Q_VSA_FPPOS>
0

>  <Q_VSA_HYD>
250.28613

>  <Q_VSA_NEG>
0

>  <Q_VSA_PNEG>
0

>  <Q_VSA_POL>
0

>  <Q_VSA_POS>
250.28613

>  <Q_VSA_PPOS>
0

>  <radius>
5

>  <reactive>
1

>  <rings>
4

>  <RPC+>
0

>  <RPC->
0

>  <rsynth>
1

>  <SlogP>
3.8173699

>  <SlogP_VSA0>
25.385227

>  <SlogP_VSA1>
5.6876111

>  <SlogP_VSA2>
23.862217

>  <SlogP_VSA3>
0

>  <SlogP_VSA4>
15.192742

>  <SlogP_VSA5>
18.868406

>  <SlogP_VSA6>
4.4107962

>  <SlogP_VSA7>
52.929554

>  <SlogP_VSA8>
94.342026

>  <SlogP_VSA9>
38.569443

>  <SMR>
7.7730799

>  <SMR_VSA0>
23.862217

>  <SMR_VSA1>
25.385227

>  <SMR_VSA2>
8.8215923

>  <SMR_VSA3>
16.025373

>  <SMR_VSA4>
0

>  <SMR_VSA5>
166.13998

>  <SMR_VSA6>
5.6876111

>  <SMR_VSA7>
33.326015

>  <TPSA>
37.299999

>  <VAdjEq>
0.51481563

>  <VAdjMa>
5.523562

>  <VDistEq>
2.957881

>  <VDistMa>
8.3559732

>  <vdw_area>
250.28613

>  <vdw_vol>
390.03287

>  <vsa_acc>
13.566921

>  <vsa_acid>
0

>  <vsa_base>
0

>  <vsa_don>
0

>  <vsa_hyd>
191.18611

>  <vsa_other>
8.458519

>  <vsa_pol>
27.133842

>  <Weight>
270.37198

>  <weinerPath>
724

>  <weinerPol>
39

>  <zagreb>
118

$$$$