O(C)c1cc(C)c(C=CC(=CC=CC(=CC(OCC)=O)C)C)c(C)c1C
  MOE2013           2D

 26 26  0  0  0  0  0  0  0  0999 V2000
    0.0000    0.0000    0.0000 O   0  0  0  0  0  0  0  0  0  0  0  0
   -0.7400   -1.3050    0.0000 C   0  0  0  0  0  0  0  0  0  0  0  0
    1.5000    0.0120    0.0000 C   0  0  0  0  0  0  0  0  0  0  0  0
    2.2600   -1.2810    0.0000 C   0  0  0  0  0  0  0  0  0  0  0  0
    3.7600   -1.2690    0.0000 C   0  0  0  0  0  0  0  0  0  0  0  0
    4.5200   -2.5620    0.0000 C   0  0  0  0  0  0  0  0  0  0  0  0
    4.5000    0.0360    0.0000 C   0  0  0  0  0  0  0  0  0  0  0  0
    6.0000    0.0480    0.0000 C   0  0  0  0  0  0  0  0  0  0  0  0
    6.7600   -1.2450    0.0000 C   0  0  0  0  0  0  0  0  0  0  0  0
    8.2600   -1.2340    0.0000 C   0  0  0  0  0  0  0  0  0  0  0  0
    9.0200   -2.5270    0.0000 C   0  0  0  0  0  0  0  0  0  0  0  0
   10.5200   -2.5150    0.0000 C   0  0  0  0  0  0  0  0  0  0  0  0
   11.2810   -3.8080    0.0000 C   0  0  0  0  0  0  0  0  0  0  0  0
   12.7810   -3.7960    0.0000 C   0  0  0  0  0  0  0  0  0  0  0  0
   13.5410   -5.0890    0.0000 C   0  0  0  0  0  0  0  0  0  0  0  0
   15.0410   -5.0770    0.0000 C   0  0  0  0  0  0  0  0  0  0  0  0
   15.8010   -6.3700    0.0000 O   0  0  0  0  0  0  0  0  0  0  0  0
   17.3010   -6.3580    0.0000 C   0  0  0  0  0  0  0  0  0  0  0  0
   18.0610   -7.6510    0.0000 C   0  0  0  0  0  0  0  0  0  0  0  0
   15.7800   -3.7720    0.0000 O   0  0  0  0  0  0  0  0  0  0  0  0
   13.5200   -2.4910    0.0000 C   0  0  0  0  0  0  0  0  0  0  0  0
    9.0000    0.0710    0.0000 C   0  0  0  0  0  0  0  0  0  0  0  0
    3.7400    1.3290    0.0000 C   0  0  0  0  0  0  0  0  0  0  0  0
    4.4790    2.6340    0.0000 C   0  0  0  0  0  0  0  0  0  0  0  0
    2.2400    1.3170    0.0000 C   0  0  0  0  0  0  0  0  0  0  0  0
    1.4790    2.6100    0.0000 C   0  0  0  0  0  0  0  0  0  0  0  0
  1  2  1  0  0  0  0
  1  3  1  0  0  0  0
  3  4  1  0  0  0  0
  3 25  2  0  0  0  0
  4  5  2  0  0  0  0
  5  6  1  0  0  0  0
  5  7  1  0  0  0  0
  7  8  1  0  0  0  0
  7 23  2  0  0  0  0
  8  9  2  3  0  0  0
  9 10  1  0  0  0  0
 10 11  2  3  0  0  0
 10 22  1  0  0  0  0
 11 12  1  0  0  0  0
 12 13  2  3  0  0  0
 13 14  1  0  0  0  0
 14 15  2  3  0  0  0
 14 21  1  0  0  0  0
 15 16  1  0  0  0  0
 16 17  1  0  0  0  0
 16 20  2  0  0  0  0
 17 18  1  0  0  0  0
 18 19  1  0  0  0  0
 23 24  1  0  0  0  0
 23 25  1  0  0  0  0
 25 26  1  0  0  0  0
M  END
>  <Index>
1562

>  <ID>
HT0835

>  <class>
1

>  <apol>
62.88979

>  <ast_fraglike>
0

>  <ast_fraglike_ext>
0

>  <ast_violation>
2

>  <ast_violation_ext>
3

>  <a_acc>
2

>  <a_acid>
0

>  <a_aro>
6

>  <a_base>
0

>  <a_count>
56

>  <a_don>
0

>  <a_donacc>
2

>  <a_heavy>
26

>  <a_hyd>
22

>  <a_IC>
69.208344

>  <a_ICM>
1.2358633

>  <a_nB>
0

>  <a_nBr>
0

>  <a_nC>
23

>  <a_nCl>
0

>  <a_nF>
0

>  <a_nH>
30

>  <a_nI>
0

>  <a_nN>
0

>  <a_nO>
3

>  <a_nP>
0

>  <a_nS>
0

>  <balabanJ>
2.2654719

>  <BCUT_PEOE_0>
-2.412184

>  <BCUT_PEOE_1>
-0.25797042

>  <BCUT_PEOE_2>
0.1498795

>  <BCUT_PEOE_3>
2.3661196

>  <BCUT_SLOGP_0>
-2.3885624

>  <BCUT_SLOGP_1>
-0.15028921

>  <BCUT_SLOGP_2>
0.25124353

>  <BCUT_SLOGP_3>
2.5314748

>  <BCUT_SMR_0>
-2.1458478

>  <BCUT_SMR_1>
0.0054964726

>  <BCUT_SMR_2>
0.35751477

>  <BCUT_SMR_3>
2.6789517

>  <bpol>
37.586208

>  <b_1rotN>
7

>  <b_1rotR>
0.26923078

>  <b_ar>
6

>  <b_count>
56

>  <b_double>
5

>  <b_heavy>
26

>  <b_max1len>
3

>  <b_rotN>
8

>  <b_rotR>
0.30769232

>  <b_single>
45

>  <b_triple>
0

>  <chi0>
19.689871

>  <chi0v>
16.973303

>  <chi0v_C>
15.748559

>  <chi0_C>
17.275656

>  <chi1>
12.294131

>  <chi1v>
8.8258038

>  <chi1v_C>
7.5165076

>  <chi1_C>
9.6931782

>  <chiral>
0

>  <chiral_u>
0

>  <density>
0.65276307

>  <diameter>
17

>  <FCharge>
0

>  <GCUT_PEOE_0>
-0.7886433

>  <GCUT_PEOE_1>
-0.37416402

>  <GCUT_PEOE_2>
-0.10483452

>  <GCUT_PEOE_3>
2.5664301

>  <GCUT_SLOGP_0>
-0.88695472

>  <GCUT_SLOGP_1>
-0.24976477

>  <GCUT_SLOGP_2>
-0.037

>  <GCUT_SLOGP_3>
2.721776

>  <GCUT_SMR_0>
-0.51363206

>  <GCUT_SMR_1>
-0.12717405

>  <GCUT_SMR_2>
0.022497503

>  <GCUT_SMR_3>
2.8601174

>  <Kier1>
24.038462

>  <Kier2>
12.456747

>  <Kier3>
8.2799997

>  <KierA1>
18.492672

>  <KierA2>
9.475297

>  <KierA3>
6.2474837

>  <KierFlex>
6.7393675

>  <lip_acc>
3

>  <lip_don>
0

>  <lip_druglike>
1

>  <lip_violation>
1

>  <logP(o/w)>
5.7309999

>  <logS>
-7.8172898

>  <mr>
10.840234

>  <mutagenic>
0

>  <nmol>
1

>  <opr_brigid>
10

>  <opr_leadlike>
1

>  <opr_nring>
1

>  <opr_nrot>
7

>  <opr_violation>
1

>  <PC+>
0

>  <PC->
0

>  <PEOE_PC+>
1.6828393

>  <PEOE_PC->
-1.6828393

>  <PEOE_RPC+>
0.17044169

>  <PEOE_RPC->
0.20657533

>  <PEOE_VSA+0>
114.02951

>  <PEOE_VSA+1>
74.594444

>  <PEOE_VSA+2>
0

>  <PEOE_VSA+3>
0

>  <PEOE_VSA+4>
0

>  <PEOE_VSA+5>
14.708499

>  <PEOE_VSA+6>
0

>  <PEOE_VSA-0>
135.78366

>  <PEOE_VSA-1>
63.483059

>  <PEOE_VSA-2>
0

>  <PEOE_VSA-3>
0

>  <PEOE_VSA-4>
0

>  <PEOE_VSA-5>
13.566921

>  <PEOE_VSA-6>
5.0075121

>  <PEOE_VSA_FHYD>
0.92097574

>  <PEOE_VSA_FNEG>
0.51722413

>  <PEOE_VSA_FPNEG>
0.044101607

>  <PEOE_VSA_FPOL>
0.079024255

>  <PEOE_VSA_FPOS>
0.48277587

>  <PEOE_VSA_FPPOS>
0.034922652

>  <PEOE_VSA_HYD>
387.89069

>  <PEOE_VSA_NEG>
217.84116

>  <PEOE_VSA_PNEG>
18.574432

>  <PEOE_VSA_POL>
33.282932

>  <PEOE_VSA_POS>
203.33246

>  <PEOE_VSA_PPOS>
14.708499

>  <petitjean>
0.47058824

>  <petitjeanSC>
0.8888889

>  <Q_PC+>
0

>  <Q_PC->
0

>  <Q_RPC+>
0

>  <Q_RPC->
0

>  <Q_VSA_FHYD>
1

>  <Q_VSA_FNEG>
0

>  <Q_VSA_FPNEG>
0

>  <Q_VSA_FPOL>
0

>  <Q_VSA_FPOS>
1

>  <Q_VSA_FPPOS>
0

>  <Q_VSA_HYD>
421.17361

>  <Q_VSA_NEG>
0

>  <Q_VSA_PNEG>
0

>  <Q_VSA_POL>
0

>  <Q_VSA_POS>
421.17361

>  <Q_VSA_PPOS>
0

>  <radius>
9

>  <reactive>
0

>  <rings>
1

>  <RPC+>
0

>  <RPC->
0

>  <rsynth>
0.15384616

>  <SlogP>
5.6455598

>  <SlogP_VSA0>
10.999887

>  <SlogP_VSA1>
7.7454643

>  <SlogP_VSA2>
34.862103

>  <SlogP_VSA3>
20.926258

>  <SlogP_VSA4>
12.7423

>  <SlogP_VSA5>
41.755016

>  <SlogP_VSA6>
0

>  <SlogP_VSA7>
105.85911

>  <SlogP_VSA8>
17.643185

>  <SlogP_VSA9>
205.19952

>  <SMR>
10.9526

>  <SMR_VSA0>
34.862103

>  <SMR_VSA1>
10.999887

>  <SMR_VSA2>
0

>  <SMR_VSA3>
24.356878

>  <SMR_VSA4>
0

>  <SMR_VSA5>
105.85911

>  <SMR_VSA6>
46.314907

>  <SMR_VSA7>
235.33995

>  <TPSA>
35.529999

>  <VAdjEq>
0.39124358

>  <VAdjMa>
5.7004399

>  <VDistEq>
3.8216951

>  <VDistMa>
9.0605993

>  <vdw_area>
421.17361

>  <vdw_vol>
543.06073

>  <vsa_acc>
16.070677

>  <vsa_acid>
0

>  <vsa_base>
0

>  <vsa_don>
0

>  <vsa_hyd>
366.53683

>  <vsa_other>
17.212255

>  <vsa_pol>
16.070677

>  <Weight>
354.48999

>  <weinerPath>
2087

>  <weinerPol>
37

>  <zagreb>
120

$$$$