FC1(F)CCC(CC1)C(=O)N[C@@H](CCN1[C@H]2CC(n3c(nnc3C)C(C)C)C[C@@H]1CC2)c1ccccc1
  MOE2013           2D

 37 41  0  0  1  0  0  0  0  0999 V2000
    0.0000    0.0000    0.0000 F   0  0  0  0  0  0  0  0  0  0  0  0
    0.7440    1.3030    0.0000 C   0  0  0  0  0  0  0  0  0  0  0  0
   -0.7560    1.2950    0.0000 F   0  0  0  0  0  0  0  0  0  0  0  0
    2.0460    0.5590    0.0000 C   0  0  0  0  0  0  0  0  0  0  0  0
    3.3420    1.3150    0.0000 C   0  0  0  0  0  0  0  0  0  0  0  0
    3.3350    2.8150    0.0000 C   0  0  0  0  0  0  0  0  0  0  0  0
    2.0320    3.5590    0.0000 C   0  0  0  0  0  0  0  0  0  0  0  0
    0.7370    2.8030    0.0000 C   0  0  0  0  0  0  0  0  0  0  0  0
    4.6300    3.5710    0.0000 C   0  0  0  0  0  0  0  0  0  0  0  0
    5.9330    2.8270    0.0000 O   0  0  0  0  0  0  0  0  0  0  0  0
    4.6230    5.0710    0.0000 N   0  0  0  0  0  0  0  0  0  0  0  0
    5.9190    5.8270    0.0000 C   0  0  1  0  0  0  0  0  0  0  0  0
    7.2210    5.0830    0.0000 C   0  0  0  0  0  0  0  0  0  0  0  0
    8.5170    5.8390    0.0000 C   0  0  0  0  0  0  0  0  0  0  0  0
    9.8190    5.0960    0.0000 N   0  0  0  0  0  0  0  0  0  0  0  0
   10.7780    3.9170    0.0000 C   0  0  1  0  0  0  0  0  0  0  0  0
   12.3370    4.8040    0.0000 C   0  0  0  0  0  0  0  0  0  0  0  0
   13.5570    4.5860    0.0000 C   0  0  0  0  0  0  0  0  0  0  0  0
   14.8510    3.8270    0.0000 N   0  0  0  0  0  0  0  0  0  0  0  0
   16.2260    4.4280    0.0000 C   0  0  0  0  0  0  0  0  0  0  0  0
   17.2220    3.3070    0.0000 N   0  0  0  0  0  0  0  0  0  0  0  0
   16.4630    2.0130    0.0000 N   0  0  0  0  0  0  0  0  0  0  0  0
   14.9980    2.3340    0.0000 C   0  0  0  0  0  0  0  0  0  0  0  0
   13.8770    1.3380    0.0000 C   0  0  0  0  0  0  0  0  0  0  0  0
   16.5470    5.8930    0.0000 C   0  0  0  0  0  0  0  0  0  0  0  0
   17.9770    6.3470    0.0000 C   0  0  0  0  0  0  0  0  0  0  0  0
   15.4390    6.9040    0.0000 C   0  0  0  0  0  0  0  0  0  0  0  0
   12.5900    5.7660    0.0000 C   0  0  0  0  0  0  0  0  0  0  0  0
   11.1200    4.8990    0.0000 C   0  0  2  0  0  0  0  0  0  0  0  0
   11.2500    3.4660    0.0000 C   0  0  0  0  0  0  0  0  0  0  0  0
   10.6000    2.3010    0.0000 C   0  0  0  0  0  0  0  0  0  0  0  0
    5.9120    7.3270    0.0000 C   0  0  0  0  0  0  0  0  0  0  0  0
    7.2070    8.0830    0.0000 C   0  0  0  0  0  0  0  0  0  0  0  0
    7.2000    9.5830    0.0000 C   0  0  0  0  0  0  0  0  0  0  0  0
    5.8970   10.3270    0.0000 C   0  0  0  0  0  0  0  0  0  0  0  0
    4.6020    9.5710    0.0000 C   0  0  0  0  0  0  0  0  0  0  0  0
    4.6090    8.0710    0.0000 C   0  0  0  0  0  0  0  0  0  0  0  0
  1  2  1  0  0  0  0
  2  3  1  0  0  0  0
  2  4  1  0  0  0  0
  2  8  1  0  0  0  0
  4  5  1  0  0  0  0
  5  6  1  0  0  0  0
  6  7  1  0  0  0  0
  6  9  1  0  0  0  0
  7  8  1  0  0  0  0
  9 10  2  0  0  0  0
  9 11  1  0  0  0  0
 12 11  1  6  0  0  0
 12 13  1  0  0  0  0
 12 32  1  0  0  0  0
 13 14  1  0  0  0  0
 14 15  1  0  0  0  0
 15 16  1  0  0  0  0
 16 17  1  1  0  0  0
 16 31  1  0  0  0  0
 17 18  1  0  0  0  0
 18 19  1  0  0  0  0
 18 28  1  0  0  0  0
 19 20  1  0  0  0  0
 19 23  1  0  0  0  0
 20 21  2  0  0  0  0
 20 25  1  0  0  0  0
 21 22  1  0  0  0  0
 22 23  2  0  0  0  0
 23 24  1  0  0  0  0
 25 26  1  0  0  0  0
 25 27  1  0  0  0  0
 28 29  1  0  0  0  0
 29 15  1  6  0  0  0
 29 30  1  0  0  0  0
 30 31  1  0  0  0  0
 32 33  1  0  0  0  0
 32 37  2  0  0  0  0
 33 34  2  0  0  0  0
 34 35  1  0  0  0  0
 35 36  2  0  0  0  0
 36 37  1  0  0  0  0
M  END
>  <Index>
1628

>  <ID>
HT1271

>  <class>
1

>  <apol>
85.79451

>  <ast_fraglike>
0

>  <ast_fraglike_ext>
0

>  <ast_violation>
3

>  <ast_violation_ext>
4

>  <a_acc>
4

>  <a_acid>
0

>  <a_aro>
11

>  <a_base>
0

>  <a_count>
78

>  <a_don>
1

>  <a_donacc>
5

>  <a_heavy>
37

>  <a_hyd>
28

>  <a_IC>
116.11065

>  <a_ICM>
1.4885981

>  <a_nB>
0

>  <a_nBr>
0

>  <a_nC>
29

>  <a_nCl>
0

>  <a_nF>
2

>  <a_nH>
41

>  <a_nI>
0

>  <a_nN>
5

>  <a_nO>
1

>  <a_nP>
0

>  <a_nS>
0

>  <balabanJ>
1.1842104

>  <BCUT_PEOE_0>
-2.7899139

>  <BCUT_PEOE_1>
-0.54692906

>  <BCUT_PEOE_2>
0.59536177

>  <BCUT_PEOE_3>
2.8576443

>  <BCUT_SLOGP_0>
-2.8009787

>  <BCUT_SLOGP_1>
-0.4748584

>  <BCUT_SLOGP_2>
0.67084128

>  <BCUT_SLOGP_3>
2.8982983

>  <BCUT_SMR_0>
-2.5287769

>  <BCUT_SMR_1>
-0.4188143

>  <BCUT_SMR_2>
0.7137472

>  <BCUT_SMR_3>
3.1196446

>  <bpol>
54.125488

>  <b_1rotN>
8

>  <b_1rotR>
0.19512194

>  <b_ar>
11

>  <b_count>
82

>  <b_double>
1

>  <b_heavy>
41

>  <b_max1len>
5

>  <b_rotN>
9

>  <b_rotR>
0.21951219

>  <b_single>
70

>  <b_triple>
0

>  <chi0>
26.156126

>  <chi0v>
22.374952

>  <chi0v_C>
18.921921

>  <chi0_C>
19.880104

>  <chi1>
17.715147

>  <chi1v>
14.118767

>  <chi1v_C>
10.812751

>  <chi1_C>
11.929889

>  <chiral>
3

>  <chiral_u>
0

>  <density>
0.72064197

>  <diameter>
17

>  <FCharge>
0

>  <GCUT_PEOE_0>
-0.85982972

>  <GCUT_PEOE_1>
-0.38255414

>  <GCUT_PEOE_2>
0.061938424

>  <GCUT_PEOE_3>
3.1614709

>  <GCUT_SLOGP_0>
-1.1327161

>  <GCUT_SLOGP_1>
-0.28157815

>  <GCUT_SLOGP_2>
0.14624247

>  <GCUT_SLOGP_3>
3.2131312

>  <GCUT_SMR_0>
-0.53000486

>  <GCUT_SMR_1>
-0.21882305

>  <GCUT_SMR_2>
0.15767094

>  <GCUT_SMR_3>
3.395776

>  <Kier1>
28.525877

>  <Kier2>
12.25

>  <Kier3>
6.6681623

>  <KierA1>
23.780624

>  <KierA2>
10.158088

>  <KierA3>
5.5083132

>  <KierFlex>
6.5288014

>  <lip_acc>
6

>  <lip_don>
1

>  <lip_druglike>
0

>  <lip_violation>
2

>  <logP(o/w)>
6.63692

>  <logS>
-4.8261399

>  <mr>
14.244287

>  <mutagenic>
0

>  <nmol>
1

>  <opr_brigid>
26

>  <opr_leadlike>
0

>  <opr_nring>
5

>  <opr_nrot>
13

>  <opr_violation>
4

>  <PC+>
0

>  <PC->
0

>  <PEOE_PC+>
2.5411873

>  <PEOE_PC->
-2.5411873

>  <PEOE_RPC+>
0.097983301

>  <PEOE_RPC->
0.13733737

>  <PEOE_VSA+0>
180.79057

>  <PEOE_VSA+1>
33.003662

>  <PEOE_VSA+2>
22.381124

>  <PEOE_VSA+3>
8.6190128

>  <PEOE_VSA+4>
15.182727

>  <PEOE_VSA+5>
0

>  <PEOE_VSA+6>
0

>  <PEOE_VSA-0>
81.86541

>  <PEOE_VSA-1>
98.769875

>  <PEOE_VSA-2>
18.842079

>  <PEOE_VSA-3>
0

>  <PEOE_VSA-4>
23.817272

>  <PEOE_VSA-5>
13.566921

>  <PEOE_VSA-6>
0.13689101

>  <PEOE_VSA_FHYD>
0.89395088

>  <PEOE_VSA_FNEG>
0.4768815

>  <PEOE_VSA_FPNEG>
0.075498849

>  <PEOE_VSA_FPOL>
0.10604911

>  <PEOE_VSA_FPOS>
0.5231185

>  <PEOE_VSA_FPPOS>
0.030550251

>  <PEOE_VSA_HYD>
444.27173

>  <PEOE_VSA_NEG>
236.99844

>  <PEOE_VSA_PNEG>
37.521084

>  <PEOE_VSA_POL>
52.703812

>  <PEOE_VSA_POS>
259.97711

>  <PEOE_VSA_PPOS>
15.182727

>  <petitjean>
0.47058824

>  <petitjeanSC>
0.8888889

>  <Q_PC+>
0

>  <Q_PC->
0

>  <Q_RPC+>
0

>  <Q_RPC->
0

>  <Q_VSA_FHYD>
1

>  <Q_VSA_FNEG>
0

>  <Q_VSA_FPNEG>
0

>  <Q_VSA_FPOL>
0

>  <Q_VSA_FPOS>
1

>  <Q_VSA_FPPOS>
0

>  <Q_VSA_HYD>
496.97556

>  <Q_VSA_NEG>
0

>  <Q_VSA_PNEG>
0

>  <Q_VSA_POL>
0

>  <Q_VSA_POS>
496.97556

>  <Q_VSA_PPOS>
0

>  <radius>
9

>  <reactive>
0

>  <rings>
5

>  <RPC+>
0

>  <RPC->
0

>  <rsynth>
0.54054052

>  <SlogP>
6.1419201

>  <SlogP_VSA0>
18.01075

>  <SlogP_VSA1>
45.432278

>  <SlogP_VSA2>
31.826153

>  <SlogP_VSA3>
18.439579

>  <SlogP_VSA4>
12.252212

>  <SlogP_VSA5>
0

>  <SlogP_VSA6>
4.4107962

>  <SlogP_VSA7>
88.215919

>  <SlogP_VSA8>
177.77959

>  <SlogP_VSA9>
129.89827

>  <SMR>
13.97047

>  <SMR_VSA0>
23.862217

>  <SMR_VSA1>
68.269646

>  <SMR_VSA2>
24.245619

>  <SMR_VSA3>
28.180086

>  <SMR_VSA4>
0

>  <SMR_VSA5>
258.03159

>  <SMR_VSA6>
23.698362

>  <SMR_VSA7>
99.978043

>  <TPSA>
63.049999

>  <VAdjEq>
0.32703882

>  <VAdjMa>
6.3575521

>  <VDistEq>
3.8984611

>  <VDistMa>
10.129999

>  <vdw_area>
496.97556

>  <vdw_vol>
712.80469

>  <vsa_acc>
32.409

>  <vsa_acid>
0

>  <vsa_base>
0

>  <vsa_don>
5.6825762

>  <vsa_hyd>
389.31808

>  <vsa_other>
35.330658

>  <vsa_pol>
38.091576

>  <Weight>
513.677

>  <weinerPath>
4668

>  <weinerPol>
60

>  <zagreb>
202

$$$$