S1[C@H]2N([C@@H](C(O)=O)C1(C)C)C(=O)[C@H]2NC(=O)[C@H](N)c1ccccc1
  MOE2013           2D

 24 26  0  0  1  0  0  0  0  0999 V2000
    0.0000    0.0000    0.0000 S   0  0  0  0  0  0  0  0  0  0  0  0
    1.1340    0.9820    0.0000 C   0  0  1  0  0  0  0  0  0  0  0  0
    0.5510    2.3640    0.0000 N   0  0  0  0  0  0  0  0  0  0  0  0
   -0.9440    2.2360    0.0000 C   0  0  1  0  0  0  0  0  0  0  0  0
   -1.9260    3.3700    0.0000 C   0  0  0  0  0  0  0  0  0  0  0  0
   -3.3990    3.0870    0.0000 O   0  0  0  0  0  0  0  0  0  0  0  0
   -1.4340    4.7870    0.0000 O   0  0  0  0  0  0  0  0  0  0  0  0
   -1.2840    0.7750    0.0000 C   0  0  0  0  0  0  0  0  0  0  0  0
   -2.1580   -0.4440    0.0000 C   0  0  0  0  0  0  0  0  0  0  0  0
   -2.7670    1.0000    0.0000 C   0  0  0  0  0  0  0  0  0  0  0  0
    1.9330    2.9470    0.0000 C   0  0  0  0  0  0  0  0  0  0  0  0
    2.4970    4.3370    0.0000 O   0  0  0  0  0  0  0  0  0  0  0  0
    2.5160    1.5650    0.0000 C   0  0  1  0  0  0  0  0  0  0  0  0
    3.9060    1.0000    0.0000 N   0  0  0  0  0  0  0  0  0  0  0  0
    5.0900    1.9210    0.0000 C   0  0  0  0  0  0  0  0  0  0  0  0
    4.8840    3.4070    0.0000 O   0  0  0  0  0  0  0  0  0  0  0  0
    6.4790    1.3570    0.0000 C   0  0  2  0  0  0  0  0  0  0  0  0
    6.6850   -0.1290    0.0000 N   0  0  0  0  0  0  0  0  0  0  0  0
    7.6630    2.2780    0.0000 C   0  0  0  0  0  0  0  0  0  0  0  0
    9.0530    1.7130    0.0000 C   0  0  0  0  0  0  0  0  0  0  0  0
   10.2370    2.6340    0.0000 C   0  0  0  0  0  0  0  0  0  0  0  0
   10.0310    4.1200    0.0000 C   0  0  0  0  0  0  0  0  0  0  0  0
    8.6410    4.6850    0.0000 C   0  0  0  0  0  0  0  0  0  0  0  0
    7.4570    3.7640    0.0000 C   0  0  0  0  0  0  0  0  0  0  0  0
  1  8  1  0  0  0  0
  2  1  1  1  0  0  0
  2  3  1  0  0  0  0
  2 13  1  0  0  0  0
  3  4  1  0  0  0  0
  3 11  1  0  0  0  0
  4  5  1  6  0  0  0
  4  8  1  0  0  0  0
  5  6  1  0  0  0  0
  5  7  2  0  0  0  0
  8  9  1  0  0  0  0
  8 10  1  0  0  0  0
 11 12  2  0  0  0  0
 11 13  1  0  0  0  0
 13 14  1  1  0  0  0
 14 15  1  0  0  0  0
 15 16  2  0  0  0  0
 15 17  1  0  0  0  0
 17 18  1  1  0  0  0
 17 19  1  0  0  0  0
 19 20  1  0  0  0  0
 19 24  2  0  0  0  0
 20 21  2  0  0  0  0
 21 22  1  0  0  0  0
 22 23  2  0  0  0  0
 23 24  1  0  0  0  0
M  END
>  <Index>
1435

>  <ID>
HT0153

>  <class>
1

>  <apol>
50.237068

>  <ast_fraglike>
0

>  <ast_fraglike_ext>
0

>  <ast_violation>
3

>  <ast_violation_ext>
5

>  <a_acc>
5

>  <a_acid>
0

>  <a_aro>
6

>  <a_base>
0

>  <a_count>
43

>  <a_don>
4

>  <a_donacc>
9

>  <a_heavy>
24

>  <a_hyd>
14

>  <a_IC>
75.863876

>  <a_ICM>
1.7642761

>  <a_nB>
0

>  <a_nBr>
0

>  <a_nC>
16

>  <a_nCl>
0

>  <a_nF>
0

>  <a_nH>
19

>  <a_nI>
0

>  <a_nN>
3

>  <a_nO>
4

>  <a_nP>
0

>  <a_nS>
1

>  <balabanJ>
1.6102319

>  <BCUT_PEOE_0>
-2.6470807

>  <BCUT_PEOE_1>
-0.54784775

>  <BCUT_PEOE_2>
0.57525408

>  <BCUT_PEOE_3>
2.8502812

>  <BCUT_SLOGP_0>
-2.9028728

>  <BCUT_SLOGP_1>
-0.52071583

>  <BCUT_SLOGP_2>
0.61211538

>  <BCUT_SLOGP_3>
2.7545767

>  <BCUT_SMR_0>
-2.3916967

>  <BCUT_SMR_1>
-0.38592258

>  <BCUT_SMR_2>
0.78138417

>  <BCUT_SMR_3>
3.1312518

>  <bpol>
27.904934

>  <b_1rotN>
4

>  <b_1rotR>
0.15384616

>  <b_ar>
6

>  <b_count>
45

>  <b_double>
3

>  <b_heavy>
26

>  <b_max1len>
4

>  <b_rotN>
5

>  <b_rotR>
0.1923077

>  <b_single>
36

>  <b_triple>
0

>  <chi0>
17.645901

>  <chi0v>
14.117419

>  <chi0v_C>
9.6961527

>  <chi0_C>
10.654336

>  <chi1>
11.236888

>  <chi1v>
8.4548645

>  <chi1v_C>
4.6873927

>  <chi1_C>
5.7718382

>  <chiral>
4

>  <chiral_u>
0

>  <density>
0.81510007

>  <diameter>
12

>  <FCharge>
0

>  <GCUT_PEOE_0>
-0.8378787

>  <GCUT_PEOE_1>
-0.39713991

>  <GCUT_PEOE_2>
0.066387057

>  <GCUT_PEOE_3>
2.7133555

>  <GCUT_SLOGP_0>
-1.3374565

>  <GCUT_SLOGP_1>
-0.34196746

>  <GCUT_SLOGP_2>
0.1380565

>  <GCUT_SLOGP_3>
2.664741

>  <GCUT_SMR_0>
-0.53670627

>  <GCUT_SMR_1>
-0.21605732

>  <GCUT_SMR_2>
0.19305076

>  <GCUT_SMR_3>
2.9787538

>  <Kier1>
18.781065

>  <Kier2>
6.9575

>  <Kier3>
3.3599999

>  <KierA1>
15.704977

>  <KierA2>
5.7700295

>  <KierA3>
2.7699842

>  <KierFlex>
3.7757576

>  <lip_acc>
7

>  <lip_don>
4

>  <lip_druglike>
1

>  <lip_violation>
0

>  <logP(o/w)>
0.74199998

>  <logS>
-3.1094999

>  <mr>
8.9930696

>  <mutagenic>
0

>  <nmol>
1

>  <opr_brigid>
14

>  <opr_leadlike>
1

>  <opr_nring>
3

>  <opr_nrot>
4

>  <opr_violation>
0

>  <PC+>
0

>  <PC->
0

>  <PEOE_PC+>
2.6443181

>  <PEOE_PC->
-2.6443181

>  <PEOE_RPC+>
0.10731558

>  <PEOE_RPC->
0.12880948

>  <PEOE_VSA+0>
25.592316

>  <PEOE_VSA+1>
38.388474

>  <PEOE_VSA+2>
31.79793

>  <PEOE_VSA+3>
8.6190128

>  <PEOE_VSA+4>
23.273705

>  <PEOE_VSA+5>
27.65803

>  <PEOE_VSA+6>
0

>  <PEOE_VSA-0>
39.703896

>  <PEOE_VSA-1>
61.274521

>  <PEOE_VSA-2>
19.760618

>  <PEOE_VSA-3>
0

>  <PEOE_VSA-4>
0

>  <PEOE_VSA-5>
40.700764

>  <PEOE_VSA-6>
14.555551

>  <PEOE_VSA_FHYD>
0.67950469

>  <PEOE_VSA_FNEG>
0.53118676

>  <PEOE_VSA_FPNEG>
0.16677384

>  <PEOE_VSA_FPOL>
0.32049531

>  <PEOE_VSA_FPOS>
0.46881327

>  <PEOE_VSA_FPPOS>
0.15372147

>  <PEOE_VSA_HYD>
225.13676

>  <PEOE_VSA_NEG>
175.99535

>  <PEOE_VSA_PNEG>
55.256313

>  <PEOE_VSA_POL>
106.18805

>  <PEOE_VSA_POS>
155.32947

>  <PEOE_VSA_PPOS>
50.931732

>  <petitjean>
0.5

>  <petitjeanSC>
1

>  <Q_PC+>
0

>  <Q_PC->
0

>  <Q_RPC+>
0

>  <Q_RPC->
0

>  <Q_VSA_FHYD>
1

>  <Q_VSA_FNEG>
0

>  <Q_VSA_FPNEG>
0

>  <Q_VSA_FPOL>
0

>  <Q_VSA_FPOS>
1

>  <Q_VSA_FPPOS>
0

>  <Q_VSA_HYD>
331.3248

>  <Q_VSA_NEG>
0

>  <Q_VSA_PNEG>
0

>  <Q_VSA_POL>
0

>  <Q_VSA_POS>
331.3248

>  <Q_VSA_PPOS>
0

>  <radius>
6

>  <reactive>
0

>  <rings>
3

>  <RPC+>
0

>  <RPC->
0

>  <rsynth>
1

>  <SlogP>
0.4136

>  <SlogP_VSA0>
50.90794

>  <SlogP_VSA1>
21.387344

>  <SlogP_VSA2>
81.897713

>  <SlogP_VSA3>
25.385227

>  <SlogP_VSA4>
3.185575

>  <SlogP_VSA5>
0

>  <SlogP_VSA6>
0

>  <SlogP_VSA7>
88.215919

>  <SlogP_VSA8>
3.9819686

>  <SlogP_VSA9>
98.871574

>  <SMR>
8.9140902

>  <SMR_VSA0>
71.586647

>  <SMR_VSA1>
3.1243138

>  <SMR_VSA2>
43.395977

>  <SMR_VSA3>
17.478609

>  <SMR_VSA4>
32.897186

>  <SMR_VSA5>
88.215919

>  <SMR_VSA6>
18.263031

>  <SMR_VSA7>
98.871574

>  <TPSA>
112.73

>  <VAdjEq>
0.43739632

>  <VAdjMa>
5.7004399

>  <VDistEq>
3.3678892

>  <VDistMa>
8.8689899

>  <vdw_area>
331.3248

>  <vdw_vol>
428.67249

>  <vsa_acc>
27.133842

>  <vsa_acid>
0

>  <vsa_base>
0

>  <vsa_don>
5.6825762

>  <vsa_hyd>
188.6028

>  <vsa_other>
40.607563

>  <vsa_pol>
77.692749

>  <Weight>
349.41098

>  <weinerPath>
1365

>  <weinerPol>
39

>  <zagreb>
132

$$$$