Clc1ccc(cc1)C(=O)CN(CCCN1c2c(CCc3c1cccc3)cccc2)C
  MOE2013           2D

 30 33  0  0  1  0  0  0  0  0999 V2000
    0.0000    0.0000    0.0000 Cl  0  0  0  0  0  0  0  0  0  0  0  0
   -1.5000   -0.0100    0.0000 C   0  0  0  0  0  0  0  0  0  0  0  0
   -2.2410   -1.3140    0.0000 C   0  0  0  0  0  0  0  0  0  0  0  0
   -3.7410   -1.3250    0.0000 C   0  0  0  0  0  0  0  0  0  0  0  0
   -4.5000   -0.0310    0.0000 C   0  0  0  0  0  0  0  0  0  0  0  0
   -3.7590    1.2730    0.0000 C   0  0  0  0  0  0  0  0  0  0  0  0
   -2.2590    1.2840    0.0000 C   0  0  0  0  0  0  0  0  0  0  0  0
   -6.0000   -0.0410    0.0000 C   0  0  0  0  0  0  0  0  0  0  0  0
   -6.7410   -1.3450    0.0000 O   0  0  0  0  0  0  0  0  0  0  0  0
   -6.7590    1.2530    0.0000 C   0  0  0  0  0  0  0  0  0  0  0  0
   -8.2590    1.2420    0.0000 N   0  0  3  0  0  0  0  0  0  0  0  0
   -9.0180    2.5360    0.0000 C   0  0  0  0  0  0  0  0  0  0  0  0
  -10.5180    2.5260    0.0000 C   0  0  0  0  0  0  0  0  0  0  0  0
  -11.2760    3.8200    0.0000 C   0  0  0  0  0  0  0  0  0  0  0  0
  -12.7760    3.8100    0.0000 N   0  0  0  0  0  0  0  0  0  0  0  0
  -13.4370    5.1560    0.0000 C   0  0  0  0  0  0  0  0  0  0  0  0
  -14.9020    5.4800    0.0000 C   0  0  0  0  0  0  0  0  0  0  0  0
  -16.0690    4.5370    0.0000 C   0  0  0  0  0  0  0  0  0  0  0  0
  -16.0600    3.0370    0.0000 C   0  0  0  0  0  0  0  0  0  0  0  0
  -14.8790    2.1100    0.0000 C   0  0  0  0  0  0  0  0  0  0  0  0
  -13.4190    2.4540    0.0000 C   0  0  0  0  0  0  0  0  0  0  0  0
  -12.3910    1.3610    0.0000 C   0  0  0  0  0  0  0  0  0  0  0  0
  -12.8240   -0.0750    0.0000 C   0  0  0  0  0  0  0  0  0  0  0  0
  -14.2840   -0.4190    0.0000 C   0  0  0  0  0  0  0  0  0  0  0  0
  -15.3110    0.6740    0.0000 C   0  0  0  0  0  0  0  0  0  0  0  0
  -15.3540    6.9100    0.0000 C   0  0  0  0  0  0  0  0  0  0  0  0
  -14.3420    8.0170    0.0000 C   0  0  0  0  0  0  0  0  0  0  0  0
  -12.8770    7.6930    0.0000 C   0  0  0  0  0  0  0  0  0  0  0  0
  -12.4250    6.2630    0.0000 C   0  0  0  0  0  0  0  0  0  0  0  0
   -9.0000   -0.0620    0.0000 C   0  0  0  0  0  0  0  0  0  0  0  0
  1  2  1  0  0  0  0
  2  3  1  0  0  0  0
  2  7  2  0  0  0  0
  3  4  2  0  0  0  0
  4  5  1  0  0  0  0
  5  6  2  0  0  0  0
  5  8  1  0  0  0  0
  6  7  1  0  0  0  0
  8  9  2  0  0  0  0
  8 10  1  0  0  0  0
 10 11  1  0  0  0  0
 11 12  1  0  0  0  0
 11 30  1  0  0  0  0
 12 13  1  0  0  0  0
 13 14  1  0  0  0  0
 14 15  1  0  0  0  0
 15 16  1  0  0  0  0
 15 21  1  0  0  0  0
 16 17  1  0  0  0  0
 16 29  2  0  0  0  0
 17 18  1  0  0  0  0
 17 26  2  0  0  0  0
 18 19  1  0  0  0  0
 19 20  1  0  0  0  0
 20 21  1  0  0  0  0
 20 25  2  0  0  0  0
 21 22  2  0  0  0  0
 22 23  1  0  0  0  0
 23 24  2  0  0  0  0
 24 25  1  0  0  0  0
 26 27  1  0  0  0  0
 27 28  2  0  0  0  0
 28 29  1  0  0  0  0
M  END
>  <Index>
1622

>  <ID>
HT1227

>  <class>
1

>  <apol>
68.945412

>  <ast_fraglike>
0

>  <ast_fraglike_ext>
0

>  <ast_violation>
2

>  <ast_violation_ext>
3

>  <a_acc>
2

>  <a_acid>
0

>  <a_aro>
18

>  <a_base>
0

>  <a_count>
57

>  <a_don>
0

>  <a_donacc>
2

>  <a_heavy>
30

>  <a_hyd>
26

>  <a_IC>
79.881332

>  <a_ICM>
1.4014269

>  <a_nB>
0

>  <a_nBr>
0

>  <a_nC>
26

>  <a_nCl>
1

>  <a_nF>
0

>  <a_nH>
27

>  <a_nI>
0

>  <a_nN>
2

>  <a_nO>
1

>  <a_nP>
0

>  <a_nS>
0

>  <balabanJ>
1.2727584

>  <BCUT_PEOE_0>
-2.6548753

>  <BCUT_PEOE_1>
-0.57521123

>  <BCUT_PEOE_2>
0.62628442

>  <BCUT_PEOE_3>
2.5887859

>  <BCUT_SLOGP_0>
-2.7275307

>  <BCUT_SLOGP_1>
-0.4651204

>  <BCUT_SLOGP_2>
0.73054469

>  <BCUT_SLOGP_3>
2.6185954

>  <BCUT_SMR_0>
-2.3764079

>  <BCUT_SMR_1>
-0.43211183

>  <BCUT_SMR_2>
0.81735218

>  <BCUT_SMR_3>
2.8745306

>  <bpol>
34.854588

>  <b_1rotN>
7

>  <b_1rotR>
0.21212122

>  <b_ar>
18

>  <b_count>
60

>  <b_double>
1

>  <b_heavy>
33

>  <b_max1len>
6

>  <b_rotN>
7

>  <b_rotR>
0.21212122

>  <b_single>
41

>  <b_triple>
0

>  <chi0>
20.924074

>  <chi0v>
18.107412

>  <chi0v_C>
15.670844

>  <chi0_C>
17.769375

>  <chi1>
14.614194

>  <chi1v>
10.900909

>  <chi1v_C>
8.2867279

>  <chi1_C>
10.990731

>  <chiral>
0

>  <chiral_u>
0

>  <density>
0.70617074

>  <diameter>
15

>  <FCharge>
0

>  <GCUT_PEOE_0>
-0.84955376

>  <GCUT_PEOE_1>
-0.38047367

>  <GCUT_PEOE_2>
0.061805893

>  <GCUT_PEOE_3>
2.8241529

>  <GCUT_SLOGP_0>
-0.9613995

>  <GCUT_SLOGP_1>
-0.27530771

>  <GCUT_SLOGP_2>
0.16057874

>  <GCUT_SLOGP_3>
2.9224825

>  <GCUT_SMR_0>
-0.51920617

>  <GCUT_SMR_1>
-0.19425802

>  <GCUT_SMR_2>
0.19566965

>  <GCUT_SMR_3>
3.1110978

>  <Kier1>
23.168043

>  <Kier2>
11.227654

>  <Kier3>
6.0810113

>  <KierA1>
18.024483

>  <KierA2>
8.6544676

>  <KierA3>
4.656672

>  <KierFlex>
5.1997433

>  <lip_acc>
3

>  <lip_don>
0

>  <lip_druglike>
1

>  <lip_violation>
1

>  <logP(o/w)>
6.039

>  <logS>
-6.28825

>  <mr>
12.473859

>  <mutagenic>
0

>  <nmol>
1

>  <opr_brigid>
23

>  <opr_leadlike>
1

>  <opr_nring>
4

>  <opr_nrot>
7

>  <opr_violation>
1

>  <PC+>
0

>  <PC->
0

>  <PEOE_PC+>
1.6855803

>  <PEOE_PC->
-1.6855803

>  <PEOE_RPC+>
0.10501467

>  <PEOE_RPC->
0.17685355

>  <PEOE_VSA+0>
101.96206

>  <PEOE_VSA+1>
72.90773

>  <PEOE_VSA+2>
0

>  <PEOE_VSA+3>
8.458519

>  <PEOE_VSA+4>
0

>  <PEOE_VSA+5>
0

>  <PEOE_VSA+6>
0

>  <PEOE_VSA-0>
127.28913

>  <PEOE_VSA-1>
103.11137

>  <PEOE_VSA-2>
0

>  <PEOE_VSA-3>
0

>  <PEOE_VSA-4>
0

>  <PEOE_VSA-5>
13.566921

>  <PEOE_VSA-6>
0

>  <PEOE_VSA_FHYD>
0.96824932

>  <PEOE_VSA_FNEG>
0.57095683

>  <PEOE_VSA_FPNEG>
0.03175066

>  <PEOE_VSA_FPOL>
0.03175066

>  <PEOE_VSA_FPOS>
0.42904314

>  <PEOE_VSA_FPPOS>
0

>  <PEOE_VSA_HYD>
413.72882

>  <PEOE_VSA_NEG>
243.96742

>  <PEOE_VSA_PNEG>
13.566921

>  <PEOE_VSA_POL>
13.566921

>  <PEOE_VSA_POS>
183.32831

>  <PEOE_VSA_PPOS>
0

>  <petitjean>
0.46666667

>  <petitjeanSC>
0.875

>  <Q_PC+>
0

>  <Q_PC->
0

>  <Q_RPC+>
0

>  <Q_RPC->
0

>  <Q_VSA_FHYD>
1

>  <Q_VSA_FNEG>
0

>  <Q_VSA_FPNEG>
0

>  <Q_VSA_FPOL>
0

>  <Q_VSA_FPOS>
1

>  <Q_VSA_FPPOS>
0

>  <Q_VSA_HYD>
427.29572

>  <Q_VSA_NEG>
0

>  <Q_VSA_PNEG>
0

>  <Q_VSA_POL>
0

>  <Q_VSA_POS>
427.29572

>  <Q_VSA_PPOS>
0

>  <radius>
8

>  <reactive>
1

>  <rings>
4

>  <RPC+>
0

>  <RPC->
0

>  <rsynth>
1

>  <SlogP>
5.7814398

>  <SlogP_VSA0>
3.1243138

>  <SlogP_VSA1>
8.8119249

>  <SlogP_VSA2>
0

>  <SlogP_VSA3>
55.318733

>  <SlogP_VSA4>
33.418941

>  <SlogP_VSA5>
70.633995

>  <SlogP_VSA6>
3.5006065

>  <SlogP_VSA7>
211.71822

>  <SlogP_VSA8>
18.868406

>  <SlogP_VSA9>
44.66214

>  <SMR>
12.51945

>  <SMR_VSA0>
23.862217

>  <SMR_VSA1>
3.1243138

>  <SMR_VSA2>
3.1243138

>  <SMR_VSA3>
13.057331

>  <SMR_VSA4>
5.513495

>  <SMR_VSA5>
268.32343

>  <SMR_VSA6>
61.006344

>  <SMR_VSA7>
72.04583

>  <TPSA>
23.549999

>  <VAdjEq>
0.37824166

>  <VAdjMa>
6.044394

>  <VDistEq>
3.7239358

>  <VDistMa>
9.5039434

>  <vdw_area>
427.29572

>  <vdw_vol>
593.29559

>  <vsa_acc>
13.566921

>  <vsa_acid>
0

>  <vsa_base>
0

>  <vsa_don>
0

>  <vsa_hyd>
386.05182

>  <vsa_other>
8.458519

>  <vsa_pol>
13.566921

>  <Weight>
418.96799

>  <weinerPath>
2709

>  <weinerPol>
50

>  <zagreb>
156

$$$$