FC1=CN([C@@H]2O[C@H](C)[C@@H](O)[C@H]2O)C(=O)N=C1NC(OCCCCC)=O
  MOE2013           2D

 25 26  0  0  1  0  0  0  0  0999 V2000
    0.0000    0.0000    0.0000 F   0  0  0  0  0  0  0  0  0  0  0  0
   -0.7430   -1.3030    0.0000 C   0  0  0  0  0  0  0  0  0  0  0  0
   -2.2430   -1.3120    0.0000 C   0  0  0  0  0  0  0  0  0  0  0  0
   -2.9850   -2.6150    0.0000 N   0  0  0  0  0  0  0  0  0  0  0  0
   -4.4850   -2.6240    0.0000 C   0  0  2  0  0  0  0  0  0  0  0  0
   -5.3600   -3.8420    0.0000 O   0  0  0  0  0  0  0  0  0  0  0  0
   -6.7890   -3.3870    0.0000 C   0  0  2  0  0  0  0  0  0  0  0  0
   -7.9970   -4.2760    0.0000 C   0  0  0  0  0  0  0  0  0  0  0  0
   -6.7980   -1.8870    0.0000 C   0  0  1  0  0  0  0  0  0  0  0  0
   -8.0160   -1.0120    0.0000 O   0  0  0  0  0  0  0  0  0  0  0  0
   -5.3740   -1.4150    0.0000 C   0  0  1  0  0  0  0  0  0  0  0  0
   -4.9180    0.0140    0.0000 O   0  0  0  0  0  0  0  0  0  0  0  0
   -2.2280   -3.9100    0.0000 C   0  0  0  0  0  0  0  0  0  0  0  0
   -2.9700   -5.2130    0.0000 O   0  0  0  0  0  0  0  0  0  0  0  0
   -0.7280   -3.9010    0.0000 N   0  0  0  0  0  0  0  0  0  0  0  0
    0.0150   -2.5980    0.0000 C   0  0  0  0  0  0  0  0  0  0  0  0
    1.5150   -2.5890    0.0000 N   0  0  0  0  0  0  0  0  0  0  0  0
    2.2720   -3.8840    0.0000 C   0  0  0  0  0  0  0  0  0  0  0  0
    3.7720   -3.8760    0.0000 O   0  0  0  0  0  0  0  0  0  0  0  0
    4.5300   -5.1700    0.0000 C   0  0  0  0  0  0  0  0  0  0  0  0
    6.0300   -5.1620    0.0000 C   0  0  0  0  0  0  0  0  0  0  0  0
    6.7870   -6.4560    0.0000 C   0  0  0  0  0  0  0  0  0  0  0  0
    8.2870   -6.4480    0.0000 C   0  0  0  0  0  0  0  0  0  0  0  0
    9.0440   -7.7430    0.0000 C   0  0  0  0  0  0  0  0  0  0  0  0
    1.5300   -5.1870    0.0000 O   0  0  0  0  0  0  0  0  0  0  0  0
  1  2  1  0  0  0  0
  2  3  2  0  0  0  0
  2 16  1  0  0  0  0
  3  4  1  0  0  0  0
  4 13  1  0  0  0  0
  5  4  1  6  0  0  0
  5  6  1  0  0  0  0
  5 11  1  0  0  0  0
  6  7  1  0  0  0  0
  7  8  1  6  0  0  0
  7  9  1  0  0  0  0
  9 10  1  1  0  0  0
  9 11  1  0  0  0  0
 11 12  1  1  0  0  0
 13 14  2  0  0  0  0
 13 15  1  0  0  0  0
 15 16  2  0  0  0  0
 16 17  1  0  0  0  0
 17 18  1  0  0  0  0
 18 19  1  0  0  0  0
 18 25  2  0  0  0  0
 19 20  1  0  0  0  0
 20 21  1  0  0  0  0
 21 22  1  0  0  0  0
 22 23  1  0  0  0  0
 23 24  1  0  0  0  0
M  END
>  <Index>
1459

>  <ID>
HT0363

>  <class>
1

>  <apol>
49.738445

>  <ast_fraglike>
0

>  <ast_fraglike_ext>
0

>  <ast_violation>
2

>  <ast_violation_ext>
4

>  <a_acc>
6

>  <a_acid>
0

>  <a_aro>
0

>  <a_base>
0

>  <a_count>
47

>  <a_don>
3

>  <a_donacc>
9

>  <a_heavy>
25

>  <a_hyd>
12

>  <a_IC>
84.090157

>  <a_ICM>
1.7891523

>  <a_nB>
0

>  <a_nBr>
0

>  <a_nC>
15

>  <a_nCl>
0

>  <a_nF>
1

>  <a_nH>
22

>  <a_nI>
0

>  <a_nN>
3

>  <a_nO>
6

>  <a_nP>
0

>  <a_nS>
0

>  <balabanJ>
1.8325403

>  <BCUT_PEOE_0>
-2.6175056

>  <BCUT_PEOE_1>
-0.50911325

>  <BCUT_PEOE_2>
0.63001633

>  <BCUT_PEOE_3>
2.7703876

>  <BCUT_SLOGP_0>
-2.7172225

>  <BCUT_SLOGP_1>
-0.56501865

>  <BCUT_SLOGP_2>
0.52942967

>  <BCUT_SLOGP_3>
2.7003329

>  <BCUT_SMR_0>
-2.3768938

>  <BCUT_SMR_1>
-0.42509019

>  <BCUT_SMR_2>
0.7450707

>  <BCUT_SMR_3>
2.9673486

>  <bpol>
34.961555

>  <b_1rotN>
5

>  <b_1rotR>
0.1923077

>  <b_ar>
0

>  <b_count>
48

>  <b_double>
4

>  <b_heavy>
26

>  <b_max1len>
6

>  <b_rotN>
8

>  <b_rotR>
0.30769232

>  <b_single>
44

>  <b_triple>
0

>  <chi0>
18.560114

>  <chi0v>
14.014991

>  <chi0v_C>
9.7151785

>  <chi0_C>
10.154336

>  <chi1>
11.845443

>  <chi1v>
8.0881824

>  <chi1v_C>
4.323132

>  <chi1_C>
4.5260386

>  <chiral>
4

>  <chiral_u>
0

>  <density>
0.82772064

>  <diameter>
15

>  <FCharge>
0

>  <GCUT_PEOE_0>
-0.79566091

>  <GCUT_PEOE_1>
-0.42076752

>  <GCUT_PEOE_2>
0.11777245

>  <GCUT_PEOE_3>
2.6032166

>  <GCUT_SLOGP_0>
-1.1687027

>  <GCUT_SLOGP_1>
-0.38488066

>  <GCUT_SLOGP_2>
0.098778687

>  <GCUT_SLOGP_3>
2.538641

>  <GCUT_SMR_0>
-0.53040427

>  <GCUT_SMR_1>
-0.22564301

>  <GCUT_SMR_2>
0.19418524

>  <GCUT_SMR_3>
2.8201101

>  <Kier1>
21.301775

>  <Kier2>
9.7962961

>  <Kier3>
5.489603

>  <KierA1>
17.463205

>  <KierA2>
7.960454

>  <KierA3>
4.4314079

>  <KierFlex>
5.5606017

>  <lip_acc>
9

>  <lip_don>
3

>  <lip_druglike>
1

>  <lip_violation>
0

>  <logP(o/w)>
0.82599998

>  <logS>
-2.9089601

>  <mr>
8.5294056

>  <mutagenic>
0

>  <nmol>
1

>  <opr_brigid>
11

>  <opr_leadlike>
1

>  <opr_nring>
2

>  <opr_nrot>
7

>  <opr_violation>
1

>  <PC+>
0

>  <PC->
0

>  <PEOE_PC+>
3.0609462

>  <PEOE_PC->
-3.0609462

>  <PEOE_RPC+>
0.11963961

>  <PEOE_RPC->
0.12627247

>  <PEOE_VSA+0>
51.184631

>  <PEOE_VSA+1>
66.459839

>  <PEOE_VSA+2>
9.8098574

>  <PEOE_VSA+3>
38.22636

>  <PEOE_VSA+4>
20.648346

>  <PEOE_VSA+5>
0

>  <PEOE_VSA+6>
36.640053

>  <PEOE_VSA-0>
27.44899

>  <PEOE_VSA-1>
36.150303

>  <PEOE_VSA-2>
0

>  <PEOE_VSA-3>
5.6825762

>  <PEOE_VSA-4>
39.042477

>  <PEOE_VSA-5>
2.6406472

>  <PEOE_VSA-6>
18.038837

>  <PEOE_VSA_FHYD>
0.66755861

>  <PEOE_VSA_FNEG>
0.36651635

>  <PEOE_VSA_FPNEG>
0.16967772

>  <PEOE_VSA_FPOL>
0.33244136

>  <PEOE_VSA_FPOS>
0.63348365

>  <PEOE_VSA_FPPOS>
0.16276366

>  <PEOE_VSA_HYD>
234.96255

>  <PEOE_VSA_NEG>
129.00383

>  <PEOE_VSA_PNEG>
59.721962

>  <PEOE_VSA_POL>
117.01036

>  <PEOE_VSA_POS>
222.96909

>  <PEOE_VSA_PPOS>
57.288399

>  <petitjean>
0.46666667

>  <petitjeanSC>
0.875

>  <Q_PC+>
0

>  <Q_PC->
0

>  <Q_RPC+>
0

>  <Q_RPC->
0

>  <Q_VSA_FHYD>
1

>  <Q_VSA_FNEG>
0

>  <Q_VSA_FPNEG>
0

>  <Q_VSA_FPOL>
0

>  <Q_VSA_FPOS>
1

>  <Q_VSA_FPPOS>
0

>  <Q_VSA_HYD>
351.97293

>  <Q_VSA_NEG>
0

>  <Q_VSA_PNEG>
0

>  <Q_VSA_POL>
0

>  <Q_VSA_POS>
351.97293

>  <Q_VSA_PPOS>
0

>  <radius>
8

>  <reactive>
0

>  <rings>
2

>  <RPC+>
0

>  <RPC->
0

>  <rsynth>
1

>  <SlogP>
1.0144

>  <SlogP_VSA0>
68.781204

>  <SlogP_VSA1>
17.598827

>  <SlogP_VSA2>
47.445545

>  <SlogP_VSA3>
20.926258

>  <SlogP_VSA4>
0

>  <SlogP_VSA5>
25.906548

>  <SlogP_VSA6>
0

>  <SlogP_VSA7>
17.214357

>  <SlogP_VSA8>
56.605217

>  <SlogP_VSA9>
129.33658

>  <SMR>
8.4218302

>  <SMR_VSA0>
69.724205

>  <SMR_VSA1>
85.640411

>  <SMR_VSA2>
18.01075

>  <SMR_VSA3>
34.566788

>  <SMR_VSA4>
0

>  <SMR_VSA5>
73.819572

>  <SMR_VSA6>
35.400772

>  <SMR_VSA7>
66.652031

>  <TPSA>
120.69

>  <VAdjEq>
0.41335541

>  <VAdjMa>
5.7004399

>  <VDistEq>
3.6296749

>  <VDistMa>
8.9582138

>  <vdw_area>
351.97293

>  <vdw_vol>
434.1489

>  <vsa_acc>
35.320175

>  <vsa_acid>
0

>  <vsa_base>
0

>  <vsa_don>
5.6825762

>  <vsa_hyd>
194.9054

>  <vsa_other>
63.283905

>  <vsa_pol>
68.136589

>  <Weight>
359.354

>  <weinerPath>
1686

>  <weinerPol>
38

>  <zagreb>
124

$$$$