Clc1cc2NC(NS(=O)(=O)c2cc1S(=O)(=O)N)C1C2CC(C1)C=C2
  MOE2013           2D

 24 27  0  0  1  0  0  0  0  0999 V2000
    0.0000    0.0000    0.0000 Cl  0  0  0  0  0  0  0  0  0  0  0  0
   -0.7420   -1.3040    0.0000 C   0  0  0  0  0  0  0  0  0  0  0  0
   -2.2420   -1.3140    0.0000 C   0  0  0  0  0  0  0  0  0  0  0  0
   -2.9830   -2.6180    0.0000 C   0  0  0  0  0  0  0  0  0  0  0  0
   -4.4830   -2.6270    0.0000 N   0  0  0  0  0  0  0  0  0  0  0  0
   -5.2250   -3.9310    0.0000 C   0  0  3  0  0  0  0  0  0  0  0  0
   -4.4660   -5.2250    0.0000 N   0  0  0  0  0  0  0  0  0  0  0  0
   -2.9660   -5.2160    0.0000 S   0  0  0  0  0  0  0  0  0  0  0  0
   -2.9560   -6.7160    0.0000 O   0  0  0  0  0  0  0  0  0  0  0  0
   -1.6620   -5.9570    0.0000 O   0  0  0  0  0  0  0  0  0  0  0  0
   -2.2250   -3.9120    0.0000 C   0  0  0  0  0  0  0  0  0  0  0  0
   -0.7250   -3.9020    0.0000 C   0  0  0  0  0  0  0  0  0  0  0  0
    0.0170   -2.5980    0.0000 C   0  0  0  0  0  0  0  0  0  0  0  0
    1.5170   -2.5880    0.0000 S   0  0  0  0  0  0  0  0  0  0  0  0
    1.5270   -4.0880    0.0000 O   0  0  0  0  0  0  0  0  0  0  0  0
    1.5070   -1.0880    0.0000 O   0  0  0  0  0  0  0  0  0  0  0  0
    3.0170   -2.5790    0.0000 N   0  0  0  0  0  0  0  0  0  0  0  0
   -6.7250   -3.9410    0.0000 C   0  0  3  0  0  0  0  0  0  0  0  0
   -7.0270   -2.6720    0.0000 C   0  0  3  0  0  0  0  0  0  0  0  0
   -5.9310   -1.8300    0.0000 C   0  0  0  0  0  0  0  0  0  0  0  0
   -7.5280   -3.8250    0.0000 C   0  0  3  0  0  0  0  0  0  0  0  0
   -7.0000   -5.1650    0.0000 C   0  0  0  0  0  0  0  0  0  0  0  0
   -8.8550   -3.4850    0.0000 C   0  0  0  0  0  0  0  0  0  0  0  0
   -8.5320   -2.3740    0.0000 C   0  0  0  0  0  0  0  0  0  0  0  0
  1  2  1  0  0  0  0
  2  3  1  0  0  0  0
  2 13  2  0  0  0  0
  3  4  2  0  0  0  0
  4  5  1  0  0  0  0
  4 11  1  0  0  0  0
  5  6  1  0  0  0  0
  6  7  1  0  0  0  0
  6 18  1  0  0  0  0
  7  8  1  0  0  0  0
  8  9  2  0  0  0  0
  8 10  2  0  0  0  0
  8 11  1  0  0  0  0
 11 12  2  0  0  0  0
 12 13  1  0  0  0  0
 13 14  1  0  0  0  0
 14 15  2  0  0  0  0
 14 16  2  0  0  0  0
 14 17  1  0  0  0  0
 18 19  1  0  0  0  0
 18 22  1  0  0  0  0
 19 20  1  0  0  0  0
 19 24  1  0  0  0  0
 20 21  1  0  0  0  0
 21 22  1  0  0  0  0
 21 23  1  0  0  0  0
 23 24  2  0  0  0  0
M  END
>  <Index>
1511

>  <ID>
HT0572

>  <class>
1

>  <apol>
49.796688

>  <ast_fraglike>
0

>  <ast_fraglike_ext>
0

>  <ast_violation>
2

>  <ast_violation_ext>
3

>  <a_acc>
4

>  <a_acid>
0

>  <a_aro>
6

>  <a_base>
0

>  <a_count>
40

>  <a_don>
3

>  <a_donacc>
7

>  <a_heavy>
24

>  <a_hyd>
14

>  <a_IC>
80.819267

>  <a_ICM>
2.0204816

>  <a_nB>
0

>  <a_nBr>
0

>  <a_nC>
14

>  <a_nCl>
1

>  <a_nF>
0

>  <a_nH>
16

>  <a_nI>
0

>  <a_nN>
3

>  <a_nO>
4

>  <a_nP>
0

>  <a_nS>
2

>  <balabanJ>
1.5152946

>  <BCUT_PEOE_0>
-2.7190175

>  <BCUT_PEOE_1>
-0.61891085

>  <BCUT_PEOE_2>
0.56131452

>  <BCUT_PEOE_3>
2.8295004

>  <BCUT_SLOGP_0>
-2.8234067

>  <BCUT_SLOGP_1>
-0.54543579

>  <BCUT_SLOGP_2>
0.63620895

>  <BCUT_SLOGP_3>
2.9029412

>  <BCUT_SMR_0>
-2.4258962

>  <BCUT_SMR_1>
-0.48087427

>  <BCUT_SMR_2>
0.68334728

>  <BCUT_SMR_3>
3.104898

>  <bpol>
31.523312

>  <b_1rotN>
2

>  <b_1rotR>
0.074074075

>  <b_ar>
6

>  <b_count>
43

>  <b_double>
1

>  <b_heavy>
27

>  <b_max1len>
3

>  <b_rotN>
2

>  <b_rotR>
0.074074075

>  <b_single>
36

>  <b_triple>
0

>  <chi0>
17.275656

>  <chi0v>
14.826742

>  <chi0v_C>
8.0330153

>  <chi0_C>
8.8614426

>  <chi1>
11.148815

>  <chi1v>
10.892881

>  <chi1v_C>
4.9543605

>  <chi1_C>
5.9158163

>  <chiral>
4

>  <chiral_u>
4

>  <density>
0.93448383

>  <diameter>
11

>  <FCharge>
0

>  <GCUT_PEOE_0>
-0.887824

>  <GCUT_PEOE_1>
-0.42685947

>  <GCUT_PEOE_2>
0.039626595

>  <GCUT_PEOE_3>
2.8349435

>  <GCUT_SLOGP_0>
-1.3482869

>  <GCUT_SLOGP_1>
-0.39967066

>  <GCUT_SLOGP_2>
0.12911138

>  <GCUT_SLOGP_3>
2.8716235

>  <GCUT_SMR_0>
-0.53365314

>  <GCUT_SMR_1>
-0.18800239

>  <GCUT_SMR_2>
0.15267047

>  <GCUT_SMR_3>
3.1013803

>  <Kier1>
17.415638

>  <Kier2>
5.75

>  <Kier3>
3.0214031

>  <KierA1>
17.972254

>  <KierA2>
5.9421

>  <KierA3>
3.1254895

>  <KierFlex>
4.4497051

>  <lip_acc>
7

>  <lip_don>
4

>  <lip_druglike>
1

>  <lip_violation>
0

>  <logP(o/w)>
0.58499998

>  <logS>
-3.4330201

>  <mr>
9.0549965

>  <mutagenic>
0

>  <nmol>
1

>  <opr_brigid>
19

>  <opr_leadlike>
1

>  <opr_nring>
4

>  <opr_nrot>
3

>  <opr_violation>
0

>  <PC+>
0

>  <PC->
0

>  <PEOE_PC+>
1.8455769

>  <PEOE_PC->
-1.8455769

>  <PEOE_RPC+>
0.16783276

>  <PEOE_RPC->
0.2074904

>  <PEOE_VSA+0>
75.803246

>  <PEOE_VSA+1>
25.680557

>  <PEOE_VSA+2>
26.880259

>  <PEOE_VSA+3>
0

>  <PEOE_VSA+4>
0

>  <PEOE_VSA+5>
0

>  <PEOE_VSA+6>
8.3692026

>  <PEOE_VSA-0>
38.276543

>  <PEOE_VSA-1>
54.091755

>  <PEOE_VSA-2>
34.546043

>  <PEOE_VSA-3>
9.0437498

>  <PEOE_VSA-4>
32.016521

>  <PEOE_VSA-5>
0

>  <PEOE_VSA-6>
0.13689101

>  <PEOE_VSA_FHYD>
0.86707133

>  <PEOE_VSA_FNEG>
0.55146593

>  <PEOE_VSA_FPNEG>
0.10547471

>  <PEOE_VSA_FPOL>
0.1329287

>  <PEOE_VSA_FPOS>
0.44853407

>  <PEOE_VSA_FPPOS>
0.027453981

>  <PEOE_VSA_HYD>
264.32214

>  <PEOE_VSA_NEG>
168.11151

>  <PEOE_VSA_PNEG>
32.153416

>  <PEOE_VSA_POL>
40.522617

>  <PEOE_VSA_POS>
136.73326

>  <PEOE_VSA_PPOS>
8.3692026

>  <petitjean>
0.45454547

>  <petitjeanSC>
0.83333331

>  <Q_PC+>
0

>  <Q_PC->
0

>  <Q_RPC+>
0

>  <Q_RPC->
0

>  <Q_VSA_FHYD>
1

>  <Q_VSA_FNEG>
0

>  <Q_VSA_FPNEG>
0

>  <Q_VSA_FPOL>
0

>  <Q_VSA_FPOS>
1

>  <Q_VSA_FPPOS>
0

>  <Q_VSA_HYD>
304.84476

>  <Q_VSA_NEG>
0

>  <Q_VSA_PNEG>
0

>  <Q_VSA_POL>
0

>  <Q_VSA_POS>
304.84476

>  <Q_VSA_PPOS>
0

>  <radius>
6

>  <reactive>
0

>  <rings>
4

>  <RPC+>
0

>  <RPC->
0

>  <rsynth>
1

>  <SlogP>
1.2295001

>  <SlogP_VSA0>
47.69643

>  <SlogP_VSA1>
114.35413

>  <SlogP_VSA2>
16.834627

>  <SlogP_VSA3>
0

>  <SlogP_VSA4>
13.232388

>  <SlogP_VSA5>
3.1014678

>  <SlogP_VSA6>
3.5006065

>  <SlogP_VSA7>
70.572739

>  <SlogP_VSA8>
37.736813

>  <SlogP_VSA9>
41.905392

>  <SMR>
8.9401398

>  <SMR_VSA0>
96.343376

>  <SMR_VSA1>
0

>  <SMR_VSA2>
32.738853

>  <SMR_VSA3>
7.0537477

>  <SMR_VSA4>
52.058933

>  <SMR_VSA5>
108.30955

>  <SMR_VSA6>
0

>  <SMR_VSA7>
52.43013

>  <TPSA>
118.36

>  <VAdjEq>
0.44886449

>  <VAdjMa>
5.7548876

>  <VDistEq>
3.2076747

>  <VDistMa>
8.8844547

>  <vdw_area>
304.84476

>  <vdw_vol>
417.21857

>  <vsa_acc>
64.033043

>  <vsa_acid>
0

>  <vsa_base>
0

>  <vsa_don>
33.892902

>  <vsa_hyd>
150.64703

>  <vsa_other>
31.401779

>  <vsa_pol>
97.925949

>  <Weight>
389.884

>  <weinerPath>
1243

>  <weinerPol>
40

>  <zagreb>
142

$$$$