n1(c2CCN(Cc2c2c1cccc2)C)Cc1ccccc1
  MOE2013           2D

 21 24  0  0  1  0  0  0  0  0999 V2000
    0.0000    0.0000    0.0000 N   0  0  0  0  0  0  0  0  0  0  0  0
    1.4930    0.1440    0.0000 C   0  0  0  0  0  0  0  0  0  0  0  0
    2.5990   -0.8690    0.0000 C   0  0  0  0  0  0  0  0  0  0  0  0
    4.0300   -0.4170    0.0000 C   0  0  0  0  0  0  0  0  0  0  0  0
    4.3540    1.0480    0.0000 N   0  0  3  0  0  0  0  0  0  0  0  0
    3.2480    2.0610    0.0000 C   0  0  0  0  0  0  0  0  0  0  0  0
    1.8170    1.6090    0.0000 C   0  0  0  0  0  0  0  0  0  0  0  0
    0.5240    2.3700    0.0000 C   0  0  0  0  0  0  0  0  0  0  0  0
   -0.5990    1.3750    0.0000 C   0  0  0  0  0  0  0  0  0  0  0  0
   -2.0210    1.8510    0.0000 C   0  0  0  0  0  0  0  0  0  0  0  0
   -2.3210    3.3210    0.0000 C   0  0  0  0  0  0  0  0  0  0  0  0
   -1.1980    4.3150    0.0000 C   0  0  0  0  0  0  0  0  0  0  0  0
    0.2250    3.8390    0.0000 C   0  0  0  0  0  0  0  0  0  0  0  0
    5.7840    1.4990    0.0000 C   0  0  0  0  0  0  0  0  0  0  0  0
   -0.7610   -1.2930    0.0000 C   0  0  0  0  0  0  0  0  0  0  0  0
   -2.2610   -1.2800    0.0000 C   0  0  0  0  0  0  0  0  0  0  0  0
   -3.0220   -2.5730    0.0000 C   0  0  0  0  0  0  0  0  0  0  0  0
   -4.5210   -2.5610    0.0000 C   0  0  0  0  0  0  0  0  0  0  0  0
   -5.2610   -1.2550    0.0000 C   0  0  0  0  0  0  0  0  0  0  0  0
   -4.5000    0.0370    0.0000 C   0  0  0  0  0  0  0  0  0  0  0  0
   -3.0000    0.0250    0.0000 C   0  0  0  0  0  0  0  0  0  0  0  0
  1  2  1  0  0  0  0
  1  9  1  0  0  0  0
  1 15  1  0  0  0  0
  2  3  1  0  0  0  0
  2  7  2  0  0  0  0
  3  4  1  0  0  0  0
  4  5  1  0  0  0  0
  5  6  1  0  0  0  0
  5 14  1  0  0  0  0
  6  7  1  0  0  0  0
  7  8  1  0  0  0  0
  8  9  1  0  0  0  0
  8 13  2  0  0  0  0
  9 10  2  0  0  0  0
 10 11  1  0  0  0  0
 11 12  2  0  0  0  0
 12 13  1  0  0  0  0
 15 16  1  0  0  0  0
 16 17  1  0  0  0  0
 16 21  2  0  0  0  0
 17 18  2  0  0  0  0
 18 19  1  0  0  0  0
 19 20  2  0  0  0  0
 20 21  1  0  0  0  0
M  END
>  <Index>
1629

>  <ID>
HT1277

>  <class>
1

>  <apol>
48.975861

>  <ast_fraglike>
0

>  <ast_fraglike_ext>
0

>  <ast_violation>
1

>  <ast_violation_ext>
1

>  <a_acc>
1

>  <a_acid>
0

>  <a_aro>
15

>  <a_base>
0

>  <a_count>
41

>  <a_don>
0

>  <a_donacc>
1

>  <a_heavy>
21

>  <a_hyd>
19

>  <a_IC>
50.510448

>  <a_ICM>
1.2319621

>  <a_nB>
0

>  <a_nBr>
0

>  <a_nC>
19

>  <a_nCl>
0

>  <a_nF>
0

>  <a_nH>
20

>  <a_nI>
0

>  <a_nN>
2

>  <a_nO>
0

>  <a_nP>
0

>  <a_nS>
0

>  <balabanJ>
1.5061171

>  <BCUT_PEOE_0>
-2.6516042

>  <BCUT_PEOE_1>
-0.56934845

>  <BCUT_PEOE_2>
0.60209823

>  <BCUT_PEOE_3>
2.5847018

>  <BCUT_SLOGP_0>
-2.6746178

>  <BCUT_SLOGP_1>
-0.45917797

>  <BCUT_SLOGP_2>
0.70487529

>  <BCUT_SLOGP_3>
2.6261492

>  <BCUT_SMR_0>
-2.3677671

>  <BCUT_SMR_1>
-0.39839172

>  <BCUT_SMR_2>
0.75991976

>  <BCUT_SMR_3>
2.8723619

>  <bpol>
25.824141

>  <b_1rotN>
2

>  <b_1rotR>
0.083333336

>  <b_ar>
16

>  <b_count>
44

>  <b_double>
0

>  <b_heavy>
24

>  <b_max1len>
2

>  <b_rotN>
2

>  <b_rotR>
0.083333336

>  <b_single>
28

>  <b_triple>
0

>  <chi0>
14.23384

>  <chi0v>
12.419006

>  <chi0v_C>
11.52458

>  <chi0_C>
13.07914

>  <chi1>
10.3265

>  <chi1v>
7.6418047

>  <chi1v_C>
5.7986941

>  <chi1_C>
7.857738

>  <chiral>
0

>  <chiral_u>
0

>  <density>
0.66285253

>  <diameter>
10

>  <FCharge>
0

>  <GCUT_PEOE_0>
-0.86451519

>  <GCUT_PEOE_1>
-0.37193635

>  <GCUT_PEOE_2>
0.061362777

>  <GCUT_PEOE_3>
2.731601

>  <GCUT_SLOGP_0>
-0.92758363

>  <GCUT_SLOGP_1>
-0.26054645

>  <GCUT_SLOGP_2>
0.14199157

>  <GCUT_SLOGP_3>
2.8477025

>  <GCUT_SMR_0>
-0.51257497

>  <GCUT_SMR_1>
-0.19140533

>  <GCUT_SMR_2>
0.17009433

>  <GCUT_SMR_3>
3.0289605

>  <Kier1>
14.583333

>  <Kier2>
6.2456746

>  <Kier3>
2.8125

>  <KierA1>
10.705009

>  <KierA2>
4.5077987

>  <KierA3>
2.0036132

>  <KierFlex>
2.2979062

>  <lip_acc>
2

>  <lip_don>
0

>  <lip_druglike>
1

>  <lip_violation>
0

>  <logP(o/w)>
4.3670001

>  <logS>
-3.54493

>  <mr>
8.6785631

>  <mutagenic>
0

>  <nmol>
1

>  <opr_brigid>
21

>  <opr_leadlike>
1

>  <opr_nring>
4

>  <opr_nrot>
2

>  <opr_violation>
0

>  <PC+>
0

>  <PC->
0

>  <PEOE_PC+>
1.1939739

>  <PEOE_PC->
-1.1939739

>  <PEOE_RPC+>
0.0534578

>  <PEOE_RPC->
0.28400922

>  <PEOE_VSA+0>
102.27441

>  <PEOE_VSA+1>
46.919247

>  <PEOE_VSA+2>
0

>  <PEOE_VSA+3>
0

>  <PEOE_VSA+4>
0

>  <PEOE_VSA+5>
0

>  <PEOE_VSA+6>
0

>  <PEOE_VSA-0>
39.910671

>  <PEOE_VSA-1>
98.03923

>  <PEOE_VSA-2>
0

>  <PEOE_VSA-3>
0

>  <PEOE_VSA-4>
0

>  <PEOE_VSA-5>
0

>  <PEOE_VSA-6>
0

>  <PEOE_VSA_FHYD>
1

>  <PEOE_VSA_FNEG>
0.48042139

>  <PEOE_VSA_FPNEG>
0

>  <PEOE_VSA_FPOL>
0

>  <PEOE_VSA_FPOS>
0.51957864

>  <PEOE_VSA_FPPOS>
0

>  <PEOE_VSA_HYD>
287.14355

>  <PEOE_VSA_NEG>
137.94991

>  <PEOE_VSA_PNEG>
0

>  <PEOE_VSA_POL>
0

>  <PEOE_VSA_POS>
149.19365

>  <PEOE_VSA_PPOS>
0

>  <petitjean>
0.5

>  <petitjeanSC>
1

>  <Q_PC+>
0

>  <Q_PC->
0

>  <Q_RPC+>
0

>  <Q_RPC->
0

>  <Q_VSA_FHYD>
1

>  <Q_VSA_FNEG>
0

>  <Q_VSA_FPNEG>
0

>  <Q_VSA_FPOL>
0

>  <Q_VSA_FPOS>
1

>  <Q_VSA_FPPOS>
0

>  <Q_VSA_HYD>
287.14355

>  <Q_VSA_NEG>
0

>  <Q_VSA_PNEG>
0

>  <Q_VSA_POL>
0

>  <Q_VSA_POS>
287.14355

>  <Q_VSA_PPOS>
0

>  <radius>
5

>  <reactive>
0

>  <rings>
4

>  <RPC+>
0

>  <RPC->
0

>  <rsynth>
1

>  <SlogP>
4.2102699

>  <SlogP_VSA0>
0

>  <SlogP_VSA1>
5.0234065

>  <SlogP_VSA2>
0

>  <SlogP_VSA3>
18.439579

>  <SlogP_VSA4>
9.1278973

>  <SlogP_VSA5>
51.765594

>  <SlogP_VSA6>
0

>  <SlogP_VSA7>
163.50577

>  <SlogP_VSA8>
0

>  <SlogP_VSA9>
36.879158

>  <SMR>
8.7930002

>  <SMR_VSA0>
0

>  <SMR_VSA1>
5.0234065

>  <SMR_VSA2>
0

>  <SMR_VSA3>
9.1278973

>  <SMR_VSA4>
4.7171016

>  <SMR_VSA5>
214.53622

>  <SMR_VSA6>
18.439579

>  <SMR_VSA7>
32.897186

>  <TPSA>
8.1700001

>  <VAdjEq>
0.49641782

>  <VAdjMa>
5.5849624

>  <VDistEq>
3.0353689

>  <VDistMa>
8.5099878

>  <vdw_area>
287.14355

>  <vdw_vol>
416.95999

>  <vsa_acc>
0

>  <vsa_acid>
0

>  <vsa_base>
0

>  <vsa_don>
0

>  <vsa_hyd>
272.90765

>  <vsa_other>
0

>  <vsa_pol>
0

>  <Weight>
276.383

>  <weinerPath>
867

>  <weinerPol>
34

>  <zagreb>
116

$$$$