O=C1n2c(N=NN1C)c(nc2)C(=O)N
  MOE2013           2D

 14 15  0  0  0  0  0  0  0  0999 V2000
    0.0000    0.0000    0.0000 O   0  0  0  0  0  0  0  0  0  0  0  0
    0.7560    1.2960    0.0000 C   0  0  0  0  0  0  0  0  0  0  0  0
    2.2560    1.2890    0.0000 N   0  0  0  0  0  0  0  0  0  0  0  0
    3.0120    2.5840    0.0000 C   0  0  0  0  0  0  0  0  0  0  0  0
    2.2680    3.8870    0.0000 N   0  0  0  0  0  0  0  0  0  0  0  0
    0.7680    3.8940    0.0000 N   0  0  0  0  0  0  0  0  0  0  0  0
    0.0120    2.5980    0.0000 N   0  0  0  0  0  0  0  0  0  0  0  0
   -1.4880    2.6050    0.0000 C   0  0  0  0  0  0  0  0  0  0  0  0
    4.4780    2.2650    0.0000 C   0  0  0  0  0  0  0  0  0  0  0  0
    4.6280    0.7730    0.0000 N   0  0  0  0  0  0  0  0  0  0  0  0
    3.2550    0.1690    0.0000 C   0  0  0  0  0  0  0  0  0  0  0  0
    5.5970    3.2640    0.0000 C   0  0  0  0  0  0  0  0  0  0  0  0
    7.0220    2.7940    0.0000 O   0  0  0  0  0  0  0  0  0  0  0  0
    5.2920    4.7320    0.0000 N   0  0  0  0  0  0  0  0  0  0  0  0
  1  2  2  0  0  0  0
  2  3  1  0  0  0  0
  2  7  1  0  0  0  0
  3  4  1  0  0  0  0
  3 11  1  0  0  0  0
  4  5  1  0  0  0  0
  4  9  2  0  0  0  0
  5  6  2  0  0  0  0
  6  7  1  0  0  0  0
  7  8  1  0  0  0  0
  9 10  1  0  0  0  0
  9 12  1  0  0  0  0
 10 11  2  0  0  0  0
 12 13  2  0  0  0  0
 12 14  1  0  0  0  0
M  END
>  <Index>
1735

>  <ID>
HT1999

>  <class>
1

>  <apol>
22.764757

>  <ast_fraglike>
0

>  <ast_fraglike_ext>
0

>  <ast_violation>
1

>  <ast_violation_ext>
2

>  <a_acc>
5

>  <a_acid>
0

>  <a_aro>
5

>  <a_base>
0

>  <a_count>
20

>  <a_don>
1

>  <a_donacc>
6

>  <a_heavy>
14

>  <a_hyd>
2

>  <a_IC>
37.909237

>  <a_ICM>
1.8954618

>  <a_nB>
0

>  <a_nBr>
0

>  <a_nC>
6

>  <a_nCl>
0

>  <a_nF>
0

>  <a_nH>
6

>  <a_nI>
0

>  <a_nN>
6

>  <a_nO>
2

>  <a_nP>
0

>  <a_nS>
0

>  <balabanJ>
2.0964444

>  <BCUT_PEOE_0>
-2.3117256

>  <BCUT_PEOE_1>
-0.57917488

>  <BCUT_PEOE_2>
0.53802127

>  <BCUT_PEOE_3>
2.3490908

>  <BCUT_SLOGP_0>
-2.4648359

>  <BCUT_SLOGP_1>
-0.5487482

>  <BCUT_SLOGP_2>
0.6135903

>  <BCUT_SLOGP_3>
2.2837815

>  <BCUT_SMR_0>
-2.0518866

>  <BCUT_SMR_1>
-0.33945331

>  <BCUT_SMR_2>
0.81510592

>  <BCUT_SMR_3>
2.6129463

>  <bpol>
13.095242

>  <b_1rotN>
1

>  <b_1rotR>
0.06666667

>  <b_ar>
5

>  <b_count>
21

>  <b_double>
3

>  <b_heavy>
15

>  <b_max1len>
2

>  <b_rotN>
1

>  <b_rotR>
0.06666667

>  <b_single>
13

>  <b_triple>
0

>  <chi0>
10.292529

>  <chi0v>
7.2072649

>  <chi0v_C>
3.5773504

>  <chi0_C>
4.0165076

>  <chi1>
6.6090608

>  <chi1v>
3.6785688

>  <chi1v_C>
0.5

>  <chi1_C>
0.66666669

>  <chiral>
0

>  <chiral_u>
0

>  <density>
0.91476196

>  <diameter>
7

>  <FCharge>
0

>  <GCUT_PEOE_0>
-0.81360424

>  <GCUT_PEOE_1>
-0.48484185

>  <GCUT_PEOE_2>
0.04582046

>  <GCUT_PEOE_3>
2.1574302

>  <GCUT_SLOGP_0>
-1.3702914

>  <GCUT_SLOGP_1>
-0.37046179

>  <GCUT_SLOGP_2>
0.15226129

>  <GCUT_SLOGP_3>
2.1368628

>  <GCUT_SMR_0>
-0.48815021

>  <GCUT_SMR_1>
-0.21639703

>  <GCUT_SMR_2>
0.24842151

>  <GCUT_SMR_3>
2.4171011

>  <Kier1>
10.515555

>  <Kier2>
3.8677685

>  <Kier3>
1.76

>  <KierA1>
6.4362373

>  <KierA2>
2.2661221

>  <KierA3>
0.99689209

>  <KierFlex>
1.0418072

>  <lip_acc>
8

>  <lip_don>
2

>  <lip_druglike>
1

>  <lip_violation>
0

>  <logP(o/w)>
-2.72

>  <logS>
-1.05165

>  <mr>
4.3889751

>  <mutagenic>
1

>  <nmol>
1

>  <opr_brigid>
10

>  <opr_leadlike>
1

>  <opr_nring>
2

>  <opr_nrot>
1

>  <opr_violation>
0

>  <PC+>
0

>  <PC->
0

>  <PEOE_PC+>
1.7034591

>  <PEOE_PC->
-1.7034591

>  <PEOE_RPC+>
0.2073575

>  <PEOE_RPC->
0.21397753

>  <PEOE_VSA+0>
36.034847

>  <PEOE_VSA+1>
0

>  <PEOE_VSA+2>
25.502314

>  <PEOE_VSA+3>
35.128139

>  <PEOE_VSA+4>
0

>  <PEOE_VSA+5>
12.949531

>  <PEOE_VSA+6>
17.440542

>  <PEOE_VSA-0>
0

>  <PEOE_VSA-1>
13.159503

>  <PEOE_VSA-2>
9.4210396

>  <PEOE_VSA-3>
0

>  <PEOE_VSA-4>
19.249496

>  <PEOE_VSA-5>
13.566921

>  <PEOE_VSA-6>
6.6511192

>  <PEOE_VSA_FHYD>
0.63058519

>  <PEOE_VSA_FNEG>
0.3281171

>  <PEOE_VSA_FPNEG>
0.2087087

>  <PEOE_VSA_FPOL>
0.36941478

>  <PEOE_VSA_FPOS>
0.67188287

>  <PEOE_VSA_FPPOS>
0.16070607

>  <PEOE_VSA_HYD>
119.24584

>  <PEOE_VSA_NEG>
62.04808

>  <PEOE_VSA_PNEG>
39.467537

>  <PEOE_VSA_POL>
69.857613

>  <PEOE_VSA_POS>
127.05537

>  <PEOE_VSA_PPOS>
30.390074

>  <petitjean>
0.42857143

>  <petitjeanSC>
0.75

>  <Q_PC+>
0

>  <Q_PC->
0

>  <Q_RPC+>
0

>  <Q_RPC->
0

>  <Q_VSA_FHYD>
1

>  <Q_VSA_FNEG>
0

>  <Q_VSA_FPNEG>
0

>  <Q_VSA_FPOL>
0

>  <Q_VSA_FPOS>
1

>  <Q_VSA_FPPOS>
0

>  <Q_VSA_HYD>
189.10345

>  <Q_VSA_NEG>
0

>  <Q_VSA_PNEG>
0

>  <Q_VSA_POL>
0

>  <Q_VSA_POS>
189.10345

>  <Q_VSA_PPOS>
0

>  <radius>
4

>  <reactive>
0

>  <rings>
2

>  <RPC+>
0

>  <RPC->
0

>  <rsynth>
1

>  <SlogP>
-0.1058

>  <SlogP_VSA0>
32.897186

>  <SlogP_VSA1>
31.775154

>  <SlogP_VSA2>
0

>  <SlogP_VSA3>
0

>  <SlogP_VSA4>
26.618963

>  <SlogP_VSA5>
66.100677

>  <SlogP_VSA6>
0

>  <SlogP_VSA7>
16.78553

>  <SlogP_VSA8>
0

>  <SlogP_VSA9>
26.190136

>  <SMR>
4.3817902

>  <SMR_VSA0>
47.724434

>  <SMR_VSA1>
54.889908

>  <SMR_VSA2>
0

>  <SMR_VSA3>
2.7567475

>  <SMR_VSA4>
35.225109

>  <SMR_VSA5>
16.78553

>  <SMR_VSA6>
10.088739

>  <SMR_VSA7>
32.897186

>  <TPSA>
105.94

>  <VAdjEq>
0.61744827

>  <VAdjMa>
4.9068904

>  <VDistEq>
2.5307083

>  <VDistMa>
7.329134

>  <vdw_area>
189.10345

>  <vdw_vol>
212.24538

>  <vsa_acc>
55.396961

>  <vsa_acid>
0

>  <vsa_base>
0

>  <vsa_don>
17.742489

>  <vsa_hyd>
40.59901

>  <vsa_other>
66.371155

>  <vsa_pol>
73.13945

>  <Weight>
194.15399

>  <weinerPath>
277

>  <weinerPol>
22

>  <zagreb>
74

$$$$