[O-][N+](CCCN1c2c(CCc3c1cccc3)cccc2)(C)C
  MOE2013           2D

 22 24  0  0  0  0  0  0  0  0999 V2000
    0.0000    0.0000    0.0000 O   0  5  0  0  0  0  0  0  0  0  0  0
    0.7390    1.3050    0.0000 N   0  3  0  0  0  0  0  0  0  0  0  0
   -0.5660    2.0440    0.0000 C   0  0  0  0  0  0  0  0  0  0  0  0
   -1.8590    1.2830    0.0000 C   0  0  0  0  0  0  0  0  0  0  0  0
   -3.1640    2.0230    0.0000 C   0  0  0  0  0  0  0  0  0  0  0  0
   -4.4570    1.2620    0.0000 N   0  0  0  0  0  0  0  0  0  0  0  0
   -5.7040    2.0950    0.0000 C   0  0  0  0  0  0  0  0  0  0  0  0
   -7.1330    1.6410    0.0000 C   0  0  0  0  0  0  0  0  0  0  0  0
   -7.6700    0.2400    0.0000 C   0  0  0  0  0  0  0  0  0  0  0  0
   -6.9100   -1.0530    0.0000 C   0  0  0  0  0  0  0  0  0  0  0  0
   -5.4240   -1.2630    0.0000 C   0  0  0  0  0  0  0  0  0  0  0  0
   -4.3330   -0.2330    0.0000 C   0  0  0  0  0  0  0  0  0  0  0  0
   -2.8960   -0.6640    0.0000 C   0  0  0  0  0  0  0  0  0  0  0  0
   -2.5500   -2.1230    0.0000 C   0  0  0  0  0  0  0  0  0  0  0  0
   -3.6410   -3.1520    0.0000 C   0  0  0  0  0  0  0  0  0  0  0  0
   -5.0780   -2.7220    0.0000 C   0  0  0  0  0  0  0  0  0  0  0  0
   -8.2420    2.6520    0.0000 C   0  0  0  0  0  0  0  0  0  0  0  0
   -7.9200    4.1170    0.0000 C   0  0  0  0  0  0  0  0  0  0  0  0
   -6.4910    4.5710    0.0000 C   0  0  0  0  0  0  0  0  0  0  0  0
   -5.3830    3.5610    0.0000 C   0  0  0  0  0  0  0  0  0  0  0  0
    2.0440    0.5660    0.0000 C   0  0  0  0  0  0  0  0  0  0  0  0
    1.4780    2.6110    0.0000 C   0  0  0  0  0  0  0  0  0  0  0  0
  1  2  1  0  0  0  0
  2  3  1  0  0  0  0
  2 21  1  0  0  0  0
  2 22  1  0  0  0  0
  3  4  1  0  0  0  0
  4  5  1  0  0  0  0
  5  6  1  0  0  0  0
  6  7  1  0  0  0  0
  6 12  1  0  0  0  0
  7  8  1  0  0  0  0
  7 20  2  0  0  0  0
  8  9  1  0  0  0  0
  8 17  2  0  0  0  0
  9 10  1  0  0  0  0
 10 11  1  0  0  0  0
 11 12  1  0  0  0  0
 11 16  2  0  0  0  0
 12 13  2  0  0  0  0
 13 14  1  0  0  0  0
 14 15  2  0  0  0  0
 15 16  1  0  0  0  0
 17 18  1  0  0  0  0
 18 19  2  0  0  0  0
 19 20  1  0  0  0  0
M  CHG  1   1  -1
M  CHG  1   2   1
M  END
>  <Index>
1596

>  <ID>
HT1083

>  <class>
1

>  <apol>
52.44503

>  <ast_fraglike>
0

>  <ast_fraglike_ext>
0

>  <ast_violation>
1

>  <ast_violation_ext>
2

>  <a_acc>
1

>  <a_acid>
0

>  <a_aro>
12

>  <a_base>
0

>  <a_count>
46

>  <a_don>
0

>  <a_donacc>
1

>  <a_heavy>
22

>  <a_hyd>
19

>  <a_IC>
61.334126

>  <a_ICM>
1.3333505

>  <a_nB>
0

>  <a_nBr>
0

>  <a_nC>
19

>  <a_nCl>
0

>  <a_nF>
0

>  <a_nH>
24

>  <a_nI>
0

>  <a_nN>
2

>  <a_nO>
1

>  <a_nP>
0

>  <a_nS>
0

>  <balabanJ>
1.7041489

>  <BCUT_PEOE_0>
-2.7360501

>  <BCUT_PEOE_1>
-0.5308997

>  <BCUT_PEOE_2>
0.58282256

>  <BCUT_PEOE_3>
2.6301425

>  <BCUT_SLOGP_0>
-2.7929111

>  <BCUT_SLOGP_1>
-0.42864066

>  <BCUT_SLOGP_2>
0.67879474

>  <BCUT_SLOGP_3>
2.62569

>  <BCUT_SMR_0>
-2.4661899

>  <BCUT_SMR_1>
-0.4029097

>  <BCUT_SMR_2>
0.73086381

>  <BCUT_SMR_3>
2.8833003

>  <bpol>
30.494968

>  <b_1rotN>
4

>  <b_1rotR>
0.16666667

>  <b_ar>
12

>  <b_count>
48

>  <b_double>
0

>  <b_heavy>
24

>  <b_max1len>
6

>  <b_rotN>
4

>  <b_rotR>
0.16666667

>  <b_single>
36

>  <b_triple>
0

>  <chi0>
15.57914

>  <chi0v>
13.457011

>  <chi0v_C>
12.154336

>  <chi0_C>
13.501789

>  <chi1>
10.544624

>  <chi1v>
8.0184774

>  <chi1v_C>
5.8618073

>  <chi1_C>
7.6161566

>  <chiral>
0

>  <chiral_u>
0

>  <density>
0.66571367

>  <diameter>
9

>  <FCharge>
0

>  <GCUT_PEOE_0>
-1.0364419

>  <GCUT_PEOE_1>
-0.33970883

>  <GCUT_PEOE_2>
0.037737064

>  <GCUT_PEOE_3>
2.7848978

>  <GCUT_SLOGP_0>
-0.99240804

>  <GCUT_SLOGP_1>
-0.22366323

>  <GCUT_SLOGP_2>
0.13642862

>  <GCUT_SLOGP_3>
2.8867073

>  <GCUT_SMR_0>
-0.60202801

>  <GCUT_SMR_1>
-0.18537492

>  <GCUT_SMR_2>
0.16102129

>  <GCUT_SMR_3>
3.065531

>  <Kier1>
16.84375

>  <Kier2>
7.2664361

>  <Kier3>
4.3083901

>  <KierA1>
13.067566

>  <KierA2>
5.5641775

>  <KierA3>
3.2679157

>  <KierFlex>
3.3050115

>  <lip_acc>
3

>  <lip_don>
0

>  <lip_druglike>
1

>  <lip_violation>
0

>  <logP(o/w)>
3.9560001

>  <logS>
-3.7880001

>  <mr>
9.0040073

>  <mutagenic>
0

>  <nmol>
1

>  <opr_brigid>
17

>  <opr_leadlike>
1

>  <opr_nring>
3

>  <opr_nrot>
4

>  <opr_violation>
0

>  <PC+>
0

>  <PC->
0

>  <PEOE_PC+>
1.790808

>  <PEOE_PC->
-1.790808

>  <PEOE_RPC+>
0.051370997

>  <PEOE_RPC->
0.35392478

>  <PEOE_VSA+0>
69.415825

>  <PEOE_VSA+1>
127.91588

>  <PEOE_VSA+2>
0

>  <PEOE_VSA+3>
0

>  <PEOE_VSA+4>
0

>  <PEOE_VSA+5>
0

>  <PEOE_VSA+6>
0

>  <PEOE_VSA-0>
46.329514

>  <PEOE_VSA-1>
73.529427

>  <PEOE_VSA-2>
0

>  <PEOE_VSA-3>
0

>  <PEOE_VSA-4>
0

>  <PEOE_VSA-5>
0

>  <PEOE_VSA-6>
16.965525

>  <PEOE_VSA_FHYD>
0.94922876

>  <PEOE_VSA_FNEG>
0.40946263

>  <PEOE_VSA_FPNEG>
0.050771244

>  <PEOE_VSA_FPOL>
0.050771244

>  <PEOE_VSA_FPOS>
0.59053737

>  <PEOE_VSA_FPPOS>
0

>  <PEOE_VSA_HYD>
317.19064

>  <PEOE_VSA_NEG>
136.82446

>  <PEOE_VSA_PNEG>
16.965525

>  <PEOE_VSA_POL>
16.965525

>  <PEOE_VSA_POS>
197.33171

>  <PEOE_VSA_PPOS>
0

>  <petitjean>
0.44444445

>  <petitjeanSC>
0.80000001

>  <Q_PC+>
0

>  <Q_PC->
0

>  <Q_RPC+>
0

>  <Q_RPC->
0

>  <Q_VSA_FHYD>
1

>  <Q_VSA_FNEG>
0

>  <Q_VSA_FPNEG>
0

>  <Q_VSA_FPOL>
0

>  <Q_VSA_FPOS>
1

>  <Q_VSA_FPPOS>
0

>  <Q_VSA_HYD>
334.15616

>  <Q_VSA_NEG>
0

>  <Q_VSA_PNEG>
0

>  <Q_VSA_POL>
0

>  <Q_VSA_POS>
334.15616

>  <Q_VSA_PPOS>
0

>  <radius>
5

>  <reactive>
0

>  <rings>
3

>  <RPC+>
0

>  <RPC->
0

>  <rsynth>
0.68181819

>  <SlogP>
3.8875401

>  <SlogP_VSA0>
3.1243138

>  <SlogP_VSA1>
0

>  <SlogP_VSA2>
0

>  <SlogP_VSA3>
63.715294

>  <SlogP_VSA4>
6.37115

>  <SlogP_VSA5>
103.53119

>  <SlogP_VSA6>
0

>  <SlogP_VSA7>
141.14548

>  <SlogP_VSA8>
18.868406

>  <SlogP_VSA9>
5.513495

>  <SMR>
9.2257404

>  <SMR_VSA0>
0

>  <SMR_VSA1>
0

>  <SMR_VSA2>
29.960453

>  <SMR_VSA3>
6.37115

>  <SMR_VSA4>
5.513495

>  <SMR_VSA5>
197.75069

>  <SMR_VSA6>
36.879158

>  <SMR_VSA7>
65.794373

>  <TPSA>
20.309999

>  <VAdjEq>
0.46637034

>  <VAdjMa>
5.5849624

>  <VDistEq>
3.0686817

>  <VDistMa>
8.6497612

>  <vdw_area>
334.15616

>  <vdw_vol>
445.25748

>  <vsa_acc>
16.965525

>  <vsa_acid>
0

>  <vsa_base>
0

>  <vsa_don>
0

>  <vsa_hyd>
300.10754

>  <vsa_other>
0

>  <vsa_pol>
16.965525

>  <Weight>
296.414

>  <weinerPath>
1007

>  <weinerPol>
36

>  <zagreb>
116

$$$$