O(CC(O)CNCCC)c1ccccc1C(=O)CCc1ccccc1
  MOE2013           2D

 25 26  0  0  1  0  0  0  0  0999 V2000
    0.0000    0.0000    0.0000 O   0  0  0  0  0  0  0  0  0  0  0  0
    1.5000   -0.0080    0.0000 C   0  0  0  0  0  0  0  0  0  0  0  0
    2.2570    1.2880    0.0000 C   0  0  3  0  0  0  0  0  0  0  0  0
    1.5130    2.5900    0.0000 O   0  0  0  0  0  0  0  0  0  0  0  0
    3.7570    1.2800    0.0000 C   0  0  0  0  0  0  0  0  0  0  0  0
    4.5130    2.5750    0.0000 N   0  0  0  0  0  0  0  0  0  0  0  0
    6.0130    2.5670    0.0000 C   0  0  0  0  0  0  0  0  0  0  0  0
    6.7700    3.8630    0.0000 C   0  0  0  0  0  0  0  0  0  0  0  0
    8.2700    3.8550    0.0000 C   0  0  0  0  0  0  0  0  0  0  0  0
   -0.7570   -1.2950    0.0000 C   0  0  0  0  0  0  0  0  0  0  0  0
   -0.0130   -2.5980    0.0000 C   0  0  0  0  0  0  0  0  0  0  0  0
   -0.7700   -3.8930    0.0000 C   0  0  0  0  0  0  0  0  0  0  0  0
   -2.2700   -3.8860    0.0000 C   0  0  0  0  0  0  0  0  0  0  0  0
   -3.0130   -2.5830    0.0000 C   0  0  0  0  0  0  0  0  0  0  0  0
   -2.2570   -1.2880    0.0000 C   0  0  0  0  0  0  0  0  0  0  0  0
   -3.0000    0.0150    0.0000 C   0  0  0  0  0  0  0  0  0  0  0  0
   -2.2430    1.3110    0.0000 O   0  0  0  0  0  0  0  0  0  0  0  0
   -4.5000    0.0230    0.0000 C   0  0  0  0  0  0  0  0  0  0  0  0
   -5.2430    1.3260    0.0000 C   0  0  0  0  0  0  0  0  0  0  0  0
   -6.7430    1.3340    0.0000 C   0  0  0  0  0  0  0  0  0  0  0  0
   -7.4870    2.6360    0.0000 C   0  0  0  0  0  0  0  0  0  0  0  0
   -8.9870    2.6440    0.0000 C   0  0  0  0  0  0  0  0  0  0  0  0
   -9.7430    1.3490    0.0000 C   0  0  0  0  0  0  0  0  0  0  0  0
   -9.0000    0.0460    0.0000 C   0  0  0  0  0  0  0  0  0  0  0  0
   -7.5000    0.0380    0.0000 C   0  0  0  0  0  0  0  0  0  0  0  0
  1  2  1  0  0  0  0
  1 10  1  0  0  0  0
  2  3  1  0  0  0  0
  3  4  1  0  0  0  0
  3  5  1  0  0  0  0
  5  6  1  0  0  0  0
  6  7  1  0  0  0  0
  7  8  1  0  0  0  0
  8  9  1  0  0  0  0
 10 11  1  0  0  0  0
 10 15  2  0  0  0  0
 11 12  2  0  0  0  0
 12 13  1  0  0  0  0
 13 14  2  0  0  0  0
 14 15  1  0  0  0  0
 15 16  1  0  0  0  0
 16 17  2  0  0  0  0
 16 18  1  0  0  0  0
 18 19  1  0  0  0  0
 19 20  1  0  0  0  0
 20 21  1  0  0  0  0
 20 25  2  0  0  0  0
 21 22  2  0  0  0  0
 22 23  1  0  0  0  0
 23 24  2  0  0  0  0
 24 25  1  0  0  0  0
M  END
>  <Index>
1705

>  <ID>
HT1756

>  <class>
1

>  <apol>
58.46941

>  <ast_fraglike>
0

>  <ast_fraglike_ext>
0

>  <ast_violation>
3

>  <ast_violation_ext>
4

>  <a_acc>
4

>  <a_acid>
0

>  <a_aro>
12

>  <a_base>
0

>  <a_count>
52

>  <a_don>
2

>  <a_donacc>
6

>  <a_heavy>
25

>  <a_hyd>
20

>  <a_IC>
71.047348

>  <a_ICM>
1.3662952

>  <a_nB>
0

>  <a_nBr>
0

>  <a_nC>
21

>  <a_nCl>
0

>  <a_nF>
0

>  <a_nH>
27

>  <a_nI>
0

>  <a_nN>
1

>  <a_nO>
3

>  <a_nP>
0

>  <a_nS>
0

>  <balabanJ>
1.7045739

>  <BCUT_PEOE_0>
-2.6363702

>  <BCUT_PEOE_1>
-0.63076788

>  <BCUT_PEOE_2>
0.63489199

>  <BCUT_PEOE_3>
2.5857437

>  <BCUT_SLOGP_0>
-2.8016388

>  <BCUT_SLOGP_1>
-0.53807992

>  <BCUT_SLOGP_2>
0.67750871

>  <BCUT_SLOGP_3>
2.5449069

>  <BCUT_SMR_0>
-2.378613

>  <BCUT_SMR_1>
-0.45611182

>  <BCUT_SMR_2>
0.79206473

>  <BCUT_SMR_3>
2.8280821

>  <bpol>
33.050591

>  <b_1rotN>
11

>  <b_1rotR>
0.42307693

>  <b_ar>
12

>  <b_count>
53

>  <b_double>
1

>  <b_heavy>
26

>  <b_max1len>
8

>  <b_rotN>
11

>  <b_rotR>
0.42307693

>  <b_single>
40

>  <b_triple>
0

>  <chi0>
17.907566

>  <chi0v>
14.779854

>  <chi0v_C>
13.016144

>  <chi0_C>
14.493353

>  <chi1>
12.202708

>  <chi1v>
8.8809729

>  <chi1v_C>
7.2187438

>  <chi1_C>
9.13976

>  <chiral>
1

>  <chiral_u>
1

>  <density>
0.68241614

>  <diameter>
16

>  <FCharge>
0

>  <GCUT_PEOE_0>
-0.84580672

>  <GCUT_PEOE_1>
-0.3900249

>  <GCUT_PEOE_2>
0.079273805

>  <GCUT_PEOE_3>
2.5838232

>  <GCUT_SLOGP_0>
-1.1534145

>  <GCUT_SLOGP_1>
-0.33893999

>  <GCUT_SLOGP_2>
0.15456104

>  <GCUT_SLOGP_3>
2.6409988

>  <GCUT_SMR_0>
-0.52430725

>  <GCUT_SMR_1>
-0.21605732

>  <GCUT_SMR_2>
0.17216511

>  <GCUT_SMR_3>
2.8405576

>  <Kier1>
21.301775

>  <Kier2>
12.398438

>  <Kier3>
8.0443211

>  <KierA1>
16.779224

>  <KierA2>
9.6624584

>  <KierA3>
6.2191262

>  <KierFlex>
6.4851422

>  <lip_acc>
4

>  <lip_don>
2

>  <lip_druglike>
1

>  <lip_violation>
0

>  <logP(o/w)>
3.5420001

>  <logS>
-3.5448401

>  <mr>
10.199699

>  <mutagenic>
0

>  <nmol>
1

>  <opr_brigid>
12

>  <opr_leadlike>
1

>  <opr_nring>
2

>  <opr_nrot>
11

>  <opr_violation>
1

>  <PC+>
0

>  <PC->
0

>  <PEOE_PC+>
2.0162182

>  <PEOE_PC->
-2.0162182

>  <PEOE_RPC+>
0.10412143

>  <PEOE_RPC->
0.19255739

>  <PEOE_VSA+0>
79.552193

>  <PEOE_VSA+1>
79.499374

>  <PEOE_VSA+2>
8.6190128

>  <PEOE_VSA+3>
8.458519

>  <PEOE_VSA+4>
10.324173

>  <PEOE_VSA+5>
0

>  <PEOE_VSA+6>
0

>  <PEOE_VSA-0>
57.313297

>  <PEOE_VSA-1>
104.53201

>  <PEOE_VSA-2>
0

>  <PEOE_VSA-3>
0

>  <PEOE_VSA-4>
0

>  <PEOE_VSA-5>
13.566921

>  <PEOE_VSA-6>
10.408187

>  <PEOE_VSA_FHYD>
0.90786541

>  <PEOE_VSA_FNEG>
0.49915001

>  <PEOE_VSA_FPNEG>
0.064401835

>  <PEOE_VSA_FPOL>
0.09213458

>  <PEOE_VSA_FPOS>
0.50085002

>  <PEOE_VSA_FPPOS>
0.027732749

>  <PEOE_VSA_HYD>
337.9744

>  <PEOE_VSA_NEG>
185.82042

>  <PEOE_VSA_PNEG>
23.975109

>  <PEOE_VSA_POL>
34.299282

>  <PEOE_VSA_POS>
186.45328

>  <PEOE_VSA_PPOS>
10.324173

>  <petitjean>
0.5

>  <petitjeanSC>
1

>  <Q_PC+>
0

>  <Q_PC->
0

>  <Q_RPC+>
0

>  <Q_RPC->
0

>  <Q_VSA_FHYD>
1

>  <Q_VSA_FNEG>
0

>  <Q_VSA_FPNEG>
0

>  <Q_VSA_FPOL>
0

>  <Q_VSA_FPOS>
1

>  <Q_VSA_FPPOS>
0

>  <Q_VSA_HYD>
372.27368

>  <Q_VSA_NEG>
0

>  <Q_VSA_PNEG>
0

>  <Q_VSA_POL>
0

>  <Q_VSA_POS>
372.27368

>  <Q_VSA_PPOS>
0

>  <radius>
8

>  <reactive>
1

>  <rings>
2

>  <RPC+>
0

>  <RPC->
0

>  <rsynth>
1

>  <SlogP>
3.24137

>  <SlogP_VSA0>
54.395866

>  <SlogP_VSA1>
5.6876111

>  <SlogP_VSA2>
6.4686494

>  <SlogP_VSA3>
57.805416

>  <SlogP_VSA4>
30.233366

>  <SlogP_VSA5>
18.868406

>  <SlogP_VSA6>
0

>  <SlogP_VSA7>
158.78867

>  <SlogP_VSA8>
37.736813

>  <SlogP_VSA9>
38.569443

>  <SMR>
10.0198

>  <SMR_VSA0>
23.862217

>  <SMR_VSA1>
36.385113

>  <SMR_VSA2>
18.01075

>  <SMR_VSA3>
18.083227

>  <SMR_VSA4>
0

>  <SMR_VSA5>
215.39388

>  <SMR_VSA6>
63.493027

>  <SMR_VSA7>
33.326015

>  <TPSA>
58.560001

>  <VAdjEq>
0.41335541

>  <VAdjMa>
5.7004399

>  <VDistEq>
3.6993747

>  <VDistMa>
8.970088

>  <vdw_area>
372.27368

>  <vdw_vol>
500.35596

>  <vsa_acc>
16.070677

>  <vsa_acid>
0

>  <vsa_base>
0

>  <vsa_don>
0

>  <vsa_hyd>
303.10199

>  <vsa_other>
8.458519

>  <vsa_pol>
35.320175

>  <Weight>
341.45099

>  <weinerPath>
1786

>  <weinerPol>
32

>  <zagreb>
116

$$$$