Fc1cc2c3N(C=C(C(O)=O)C2=O)[C@H](COc3c1N1CCN(CC1)C)C
  MOE2013           2D

 26 29  0  0  1  0  0  0  0  0999 V2000
    0.0000    0.0000    0.0000 F   0  0  0  0  0  0  0  0  0  0  0  0
   -1.2950   -0.7570    0.0000 C   0  0  0  0  0  0  0  0  0  0  0  0
   -2.6000   -0.0120    0.0000 C   0  0  0  0  0  0  0  0  0  0  0  0
   -3.8980   -0.7670    0.0000 C   0  0  0  0  0  0  0  0  0  0  0  0
   -3.8880   -2.2710    0.0000 C   0  0  0  0  0  0  0  0  0  0  0  0
   -5.1820   -3.0270    0.0000 N   0  0  3  0  0  0  0  0  0  0  0  0
   -6.4880   -2.2820    0.0000 C   0  0  0  0  0  0  0  0  0  0  0  0
   -6.4930   -0.7850    0.0000 C   0  0  0  0  0  0  0  0  0  0  0  0
   -7.7950   -0.0410    0.0000 C   0  0  0  0  0  0  0  0  0  0  0  0
   -9.0910   -0.7960    0.0000 O   0  0  0  0  0  0  0  0  0  0  0  0
   -7.8010    1.4590    0.0000 O   0  0  0  0  0  0  0  0  0  0  0  0
   -5.1980   -0.0290    0.0000 C   0  0  0  0  0  0  0  0  0  0  0  0
   -5.2070    1.4710    0.0000 O   0  0  0  0  0  0  0  0  0  0  0  0
   -5.1740   -4.5290    0.0000 C   0  0  2  0  0  0  0  0  0  0  0  0
   -3.8720   -5.2680    0.0000 C   0  0  0  0  0  0  0  0  0  0  0  0
   -2.5770   -4.5120    0.0000 O   0  0  0  0  0  0  0  0  0  0  0  0
   -2.5820   -3.0160    0.0000 C   0  0  0  0  0  0  0  0  0  0  0  0
   -1.2870   -2.2590    0.0000 C   0  0  0  0  0  0  0  0  0  0  0  0
    0.0150   -3.0030    0.0000 N   0  0  0  0  0  0  0  0  0  0  0  0
    0.0230   -4.5030    0.0000 C   0  0  0  0  0  0  0  0  0  0  0  0
    1.3260   -5.2460    0.0000 C   0  0  0  0  0  0  0  0  0  0  0  0
    2.6210   -4.4890    0.0000 N   0  0  0  0  0  0  0  0  0  0  0  0
    2.6140   -2.9890    0.0000 C   0  0  0  0  0  0  0  0  0  0  0  0
    1.3110   -2.2460    0.0000 C   0  0  0  0  0  0  0  0  0  0  0  0
    3.9240   -5.2330    0.0000 C   0  0  0  0  0  0  0  0  0  0  0  0
   -6.4680   -5.2870    0.0000 C   0  0  0  0  0  0  0  0  0  0  0  0
  1  2  1  0  0  0  0
  2  3  1  0  0  0  0
  2 18  2  0  0  0  0
  3  4  2  0  0  0  0
  4  5  1  0  0  0  0
  4 12  1  0  0  0  0
  5  6  1  0  0  0  0
  5 17  2  0  0  0  0
  6  7  1  0  0  0  0
  6 14  1  0  0  0  0
  7  8  2  0  0  0  0
  8  9  1  0  0  0  0
  8 12  1  0  0  0  0
  9 10  1  0  0  0  0
  9 11  2  0  0  0  0
 12 13  2  0  0  0  0
 14 15  1  0  0  0  0
 14 26  1  6  0  0  0
 15 16  1  0  0  0  0
 16 17  1  0  0  0  0
 17 18  1  0  0  0  0
 18 19  1  0  0  0  0
 19 20  1  0  0  0  0
 19 24  1  0  0  0  0
 20 21  1  0  0  0  0
 21 22  1  0  0  0  0
 22 23  1  0  0  0  0
 22 25  1  0  0  0  0
 23 24  1  0  0  0  0
M  END
>  <Index>
1619

>  <ID>
HT1197

>  <class>
1

>  <apol>
52.08086

>  <ast_fraglike>
0

>  <ast_fraglike_ext>
0

>  <ast_violation>
2

>  <ast_violation_ext>
3

>  <a_acc>
5

>  <a_acid>
0

>  <a_aro>
6

>  <a_base>
0

>  <a_count>
46

>  <a_don>
2

>  <a_donacc>
7

>  <a_heavy>
26

>  <a_hyd>
17

>  <a_IC>
79.831749

>  <a_ICM>
1.7354728

>  <a_nB>
0

>  <a_nBr>
0

>  <a_nC>
18

>  <a_nCl>
0

>  <a_nF>
1

>  <a_nH>
20

>  <a_nI>
0

>  <a_nN>
3

>  <a_nO>
4

>  <a_nP>
0

>  <a_nS>
0

>  <balabanJ>
1.6099478

>  <BCUT_PEOE_0>
-2.7464559

>  <BCUT_PEOE_1>
-0.53128892

>  <BCUT_PEOE_2>
0.46531206

>  <BCUT_PEOE_3>
2.6530197

>  <BCUT_SLOGP_0>
-2.8701489

>  <BCUT_SLOGP_1>
-0.37161919

>  <BCUT_SLOGP_2>
0.57648861

>  <BCUT_SLOGP_3>
2.6186156

>  <BCUT_SMR_0>
-2.4524214

>  <BCUT_SMR_1>
-0.28721562

>  <BCUT_SMR_2>
0.68648124

>  <BCUT_SMR_3>
2.9423387

>  <bpol>
32.839142

>  <b_1rotN>
2

>  <b_1rotR>
0.068965517

>  <b_ar>
6

>  <b_count>
49

>  <b_double>
3

>  <b_heavy>
29

>  <b_max1len>
3

>  <b_rotN>
2

>  <b_rotR>
0.068965517

>  <b_single>
40

>  <b_triple>
0

>  <chi0>
18.585058

>  <chi0v>
14.659148

>  <chi0v_C>
11.267585

>  <chi0_C>
12.1459

>  <chi1>
12.379918

>  <chi1v>
8.5909967

>  <chi1v_C>
4.601624

>  <chi1_C>
5.5436769

>  <chiral>
1

>  <chiral_u>
0

>  <density>
0.79804593

>  <diameter>
12

>  <FCharge>
0

>  <GCUT_PEOE_0>
-0.85578698

>  <GCUT_PEOE_1>
-0.43560857

>  <GCUT_PEOE_2>
-0.069684349

>  <GCUT_PEOE_3>
2.8191056

>  <GCUT_SLOGP_0>
-0.98742127

>  <GCUT_SLOGP_1>
-0.36910385

>  <GCUT_SLOGP_2>
0.121792

>  <GCUT_SLOGP_3>
2.8533425

>  <GCUT_SMR_0>
-0.51317096

>  <GCUT_SMR_1>
-0.17326753

>  <GCUT_SMR_2>
0.1368853

>  <GCUT_SMR_3>
3.0909255

>  <Kier1>
19.322235

>  <Kier2>
7.4380164

>  <Kier3>
3.3378685

>  <KierA1>
15.021054

>  <KierA2>
5.7200522

>  <KierA3>
2.5470986

>  <KierFlex>
3.304662

>  <lip_acc>
7

>  <lip_don>
1

>  <lip_druglike>
1

>  <lip_violation>
0

>  <logP(o/w)>
0.67699999

>  <logS>
-2.8395901

>  <mr>
9.1526031

>  <mutagenic>
0

>  <nmol>
1

>  <opr_brigid>
21

>  <opr_leadlike>
1

>  <opr_nring>
4

>  <opr_nrot>
4

>  <opr_violation>
0

>  <PC+>
0

>  <PC->
0

>  <PEOE_PC+>
2.3005683

>  <PEOE_PC->
-2.3005683

>  <PEOE_RPC+>
0.12863304

>  <PEOE_RPC->
0.14773625

>  <PEOE_VSA+0>
138.85051

>  <PEOE_VSA+1>
45.411938

>  <PEOE_VSA+2>
19.687904

>  <PEOE_VSA+3>
0

>  <PEOE_VSA+4>
18.782692

>  <PEOE_VSA+5>
14.708499

>  <PEOE_VSA+6>
0

>  <PEOE_VSA-0>
54.241272

>  <PEOE_VSA-1>
0

>  <PEOE_VSA-2>
0

>  <PEOE_VSA-3>
0

>  <PEOE_VSA-4>
11.908636

>  <PEOE_VSA-5>
27.133842

>  <PEOE_VSA-6>
10.271297

>  <PEOE_VSA_FHYD>
0.75716776

>  <PEOE_VSA_FNEG>
0.30368352

>  <PEOE_VSA_FPNEG>
0.14461662

>  <PEOE_VSA_FPOL>
0.24283224

>  <PEOE_VSA_FPOS>
0.69631648

>  <PEOE_VSA_FPPOS>
0.098215625

>  <PEOE_VSA_HYD>
258.19162

>  <PEOE_VSA_NEG>
103.55505

>  <PEOE_VSA_PNEG>
49.313774

>  <PEOE_VSA_POL>
82.804962

>  <PEOE_VSA_POS>
237.44154

>  <PEOE_VSA_PPOS>
33.491192

>  <petitjean>
0.5

>  <petitjeanSC>
1

>  <Q_PC+>
0

>  <Q_PC->
0

>  <Q_RPC+>
0

>  <Q_RPC->
0

>  <Q_VSA_FHYD>
1

>  <Q_VSA_FNEG>
0

>  <Q_VSA_FPNEG>
0

>  <Q_VSA_FPOL>
0

>  <Q_VSA_FPOS>
1

>  <Q_VSA_FPPOS>
0

>  <Q_VSA_HYD>
340.99658

>  <Q_VSA_NEG>
0

>  <Q_VSA_PNEG>
0

>  <Q_VSA_POL>
0

>  <Q_VSA_POS>
340.99658

>  <Q_VSA_PPOS>
0

>  <radius>
6

>  <reactive>
0

>  <rings>
4

>  <RPC+>
0

>  <RPC->
0

>  <rsynth>
1

>  <SlogP>
1.3296

>  <SlogP_VSA0>
17.248516

>  <SlogP_VSA1>
16.557388

>  <SlogP_VSA2>
36.965202

>  <SlogP_VSA3>
120.06979

>  <SlogP_VSA4>
27.047791

>  <SlogP_VSA5>
36.082764

>  <SlogP_VSA6>
0

>  <SlogP_VSA7>
34.85754

>  <SlogP_VSA8>
0

>  <SlogP_VSA9>
59.043053

>  <SMR>
9.3595304

>  <SMR_VSA0>
47.724434

>  <SMR_VSA1>
29.084314

>  <SMR_VSA2>
40.754871

>  <SMR_VSA3>
15.596547

>  <SMR_VSA4>
5.513495

>  <SMR_VSA5>
34.85754

>  <SMR_VSA6>
108.11765

>  <SMR_VSA7>
66.223206

>  <TPSA>
73.32

>  <VAdjEq>
0.42228913

>  <VAdjMa>
5.8579812

>  <VDistEq>
3.219456

>  <VDistMa>
9.1354771

>  <vdw_area>
340.99658

>  <vdw_vol>
452.82233

>  <vsa_acc>
16.070677

>  <vsa_acid>
0

>  <vsa_base>
0

>  <vsa_don>
0

>  <vsa_hyd>
256.57614

>  <vsa_other>
23.167019

>  <vsa_pol>
43.204517

>  <Weight>
361.37299

>  <weinerPath>
1484

>  <weinerPol>
51

>  <zagreb>
146

$$$$