O(CC)C(=O)[C@@H](N[C@H](C(=O)N1CCC[C@H]1C(O)=O)C)CCc1ccccc1
  MOE2013           2D

 27 28  0  0  1  0  0  0  0  0999 V2000
    0.0000    0.0000    0.0000 O   0  0  0  0  0  0  0  0  0  0  0  0
   -1.3010   -0.7470    0.0000 C   0  0  0  0  0  0  0  0  0  0  0  0
   -2.5980    0.0070    0.0000 C   0  0  0  0  0  0  0  0  0  0  0  0
    1.2970   -0.7530    0.0000 C   0  0  0  0  0  0  0  0  0  0  0  0
    1.2930   -2.2530    0.0000 O   0  0  0  0  0  0  0  0  0  0  0  0
    2.5980   -0.0070    0.0000 C   0  0  1  0  0  0  0  0  0  0  0  0
    3.8950   -0.7600    0.0000 N   0  0  0  0  0  0  0  0  0  0  0  0
    5.1960   -0.0140    0.0000 C   0  0  2  0  0  0  0  0  0  0  0  0
    6.4930   -0.7670    0.0000 C   0  0  0  0  0  0  0  0  0  0  0  0
    6.4890   -2.2670    0.0000 O   0  0  0  0  0  0  0  0  0  0  0  0
    7.7940   -0.0210    0.0000 N   0  0  0  0  0  0  0  0  0  0  0  0
    7.9550    1.4710    0.0000 C   0  0  0  0  0  0  0  0  0  0  0  0
    9.4230    1.7790    0.0000 C   0  0  0  0  0  0  0  0  0  0  0  0
   10.1700    0.4780    0.0000 C   0  0  0  0  0  0  0  0  0  0  0  0
    9.1630   -0.6340    0.0000 C   0  0  1  0  0  0  0  0  0  0  0  0
    9.4710   -2.1030    0.0000 C   0  0  0  0  0  0  0  0  0  0  0  0
   10.8960   -2.5700    0.0000 O   0  0  0  0  0  0  0  0  0  0  0  0
    8.3530   -3.1030    0.0000 O   0  0  0  0  0  0  0  0  0  0  0  0
    5.2000    1.4860    0.0000 C   0  0  0  0  0  0  0  0  0  0  0  0
    2.6020    1.4930    0.0000 C   0  0  0  0  0  0  0  0  0  0  0  0
    1.3050    2.2470    0.0000 C   0  0  0  0  0  0  0  0  0  0  0  0
    1.3090    3.7470    0.0000 C   0  0  0  0  0  0  0  0  0  0  0  0
    0.0120    4.5000    0.0000 C   0  0  0  0  0  0  0  0  0  0  0  0
    0.0160    6.0000    0.0000 C   0  0  0  0  0  0  0  0  0  0  0  0
    1.3170    6.7470    0.0000 C   0  0  0  0  0  0  0  0  0  0  0  0
    2.6140    5.9930    0.0000 C   0  0  0  0  0  0  0  0  0  0  0  0
    2.6100    4.4930    0.0000 C   0  0  0  0  0  0  0  0  0  0  0  0
  1  2  1  0  0  0  0
  1  4  1  0  0  0  0
  2  3  1  0  0  0  0
  4  5  2  0  0  0  0
  6  4  1  6  0  0  0
  6  7  1  0  0  0  0
  6 20  1  0  0  0  0
  7  8  1  0  0  0  0
  8  9  1  0  0  0  0
  8 19  1  1  0  0  0
  9 10  2  0  0  0  0
  9 11  1  0  0  0  0
 11 12  1  0  0  0  0
 11 15  1  0  0  0  0
 12 13  1  0  0  0  0
 13 14  1  0  0  0  0
 14 15  1  0  0  0  0
 15 16  1  1  0  0  0
 16 17  1  0  0  0  0
 16 18  2  0  0  0  0
 20 21  1  0  0  0  0
 21 22  1  0  0  0  0
 22 23  1  0  0  0  0
 22 27  2  0  0  0  0
 23 24  2  0  0  0  0
 24 25  1  0  0  0  0
 25 26  2  0  0  0  0
 26 27  1  0  0  0  0
M  END
>  <Index>
1546

>  <ID>
HT0753

>  <class>
1

>  <apol>
60.080204

>  <ast_fraglike>
0

>  <ast_fraglike_ext>
0

>  <ast_violation>
2

>  <ast_violation_ext>
3

>  <a_acc>
5

>  <a_acid>
0

>  <a_aro>
6

>  <a_base>
0

>  <a_count>
55

>  <a_don>
3

>  <a_donacc>
8

>  <a_heavy>
27

>  <a_hyd>
17

>  <a_IC>
83.320641

>  <a_ICM>
1.5149208

>  <a_nB>
0

>  <a_nBr>
0

>  <a_nC>
20

>  <a_nCl>
0

>  <a_nF>
0

>  <a_nH>
28

>  <a_nI>
0

>  <a_nN>
2

>  <a_nO>
5

>  <a_nP>
0

>  <a_nS>
0

>  <balabanJ>
1.9121425

>  <BCUT_PEOE_0>
-2.6338263

>  <BCUT_PEOE_1>
-0.51628423

>  <BCUT_PEOE_2>
0.57935011

>  <BCUT_PEOE_3>
2.7339659

>  <BCUT_SLOGP_0>
-2.8199015

>  <BCUT_SLOGP_1>
-0.46874148

>  <BCUT_SLOGP_2>
0.55930251

>  <BCUT_SLOGP_3>
2.6894314

>  <BCUT_SMR_0>
-2.3801324

>  <BCUT_SMR_1>
-0.38978475

>  <BCUT_SMR_2>
0.7115953

>  <BCUT_SMR_3>
2.9823484

>  <bpol>
38.039795

>  <b_1rotN>
10

>  <b_1rotR>
0.35714287

>  <b_ar>
6

>  <b_count>
56

>  <b_double>
3

>  <b_heavy>
28

>  <b_max1len>
7

>  <b_rotN>
11

>  <b_rotR>
0.39285713

>  <b_single>
47

>  <b_triple>
0

>  <chi0>
19.81119

>  <chi0v>
15.888864

>  <chi0v_C>
12.861443

>  <chi0_C>
13.819627

>  <chi1>
12.934759

>  <chi1v>
9.4353781

>  <chi1v_C>
6.731216

>  <chi1_C>
7.8256984

>  <chiral>
3

>  <chiral_u>
0

>  <density>
0.73255211

>  <diameter>
13

>  <FCharge>
0

>  <GCUT_PEOE_0>
-0.83770448

>  <GCUT_PEOE_1>
-0.39002725

>  <GCUT_PEOE_2>
0.060489852

>  <GCUT_PEOE_3>
2.7882464

>  <GCUT_SLOGP_0>
-1.1549973

>  <GCUT_SLOGP_1>
-0.34023023

>  <GCUT_SLOGP_2>
0.078469209

>  <GCUT_SLOGP_3>
2.7480187

>  <GCUT_SMR_0>
-0.52482224

>  <GCUT_SMR_1>
-0.21605732

>  <GCUT_SMR_2>
0.1607468

>  <GCUT_SMR_3>
3.0202456

>  <Kier1>
23.280613

>  <Kier2>
11.869978

>  <Kier3>
7.0775046

>  <KierA1>
18.709242

>  <KierA2>
9.4540014

>  <KierA3>
5.5994959

>  <KierFlex>
6.5510077

>  <lip_acc>
7

>  <lip_don>
2

>  <lip_druglike>
1

>  <lip_violation>
0

>  <logP(o/w)>
2.392

>  <logS>
-3.06601

>  <mr>
10.292163

>  <mutagenic>
0

>  <nmol>
1

>  <opr_brigid>
11

>  <opr_leadlike>
1

>  <opr_nring>
2

>  <opr_nrot>
10

>  <opr_violation>
0

>  <PC+>
0

>  <PC->
0

>  <PEOE_PC+>
2.6001992

>  <PEOE_PC->
-2.6001992

>  <PEOE_RPC+>
0.10860244

>  <PEOE_RPC->
0.12680419

>  <PEOE_VSA+0>
81.438499

>  <PEOE_VSA+1>
63.897076

>  <PEOE_VSA+2>
11.764974

>  <PEOE_VSA+3>
0

>  <PEOE_VSA+4>
23.273705

>  <PEOE_VSA+5>
29.416998

>  <PEOE_VSA+6>
0

>  <PEOE_VSA-0>
74.509148

>  <PEOE_VSA-1>
61.274521

>  <PEOE_VSA-2>
0

>  <PEOE_VSA-3>
0

>  <PEOE_VSA-4>
0

>  <PEOE_VSA-5>
40.837654

>  <PEOE_VSA-6>
10.271297

>  <PEOE_VSA_FHYD>
0.73833156

>  <PEOE_VSA_FNEG>
0.47113743

>  <PEOE_VSA_FPNEG>
0.12884051

>  <PEOE_VSA_FPOL>
0.26166844

>  <PEOE_VSA_FPOS>
0.5288626

>  <PEOE_VSA_FPPOS>
0.13282794

>  <PEOE_VSA_HYD>
292.88422

>  <PEOE_VSA_NEG>
186.89262

>  <PEOE_VSA_PNEG>
51.108952

>  <PEOE_VSA_POL>
103.79965

>  <PEOE_VSA_POS>
209.79124

>  <PEOE_VSA_PPOS>
52.690701

>  <petitjean>
0.46153846

>  <petitjeanSC>
0.85714287

>  <Q_PC+>
0

>  <Q_PC->
0

>  <Q_RPC+>
0

>  <Q_RPC->
0

>  <Q_VSA_FHYD>
1

>  <Q_VSA_FNEG>
0

>  <Q_VSA_FPNEG>
0

>  <Q_VSA_FPOL>
0

>  <Q_VSA_FPOS>
1

>  <Q_VSA_FPPOS>
0

>  <Q_VSA_HYD>
396.68387

>  <Q_VSA_NEG>
0

>  <Q_VSA_PNEG>
0

>  <Q_VSA_POL>
0

>  <Q_VSA_POS>
396.68387

>  <Q_VSA_PPOS>
0

>  <radius>
7

>  <reactive>
0

>  <rings>
2

>  <RPC+>
0

>  <RPC->
0

>  <rsynth>
1

>  <SlogP>
1.60457

>  <SlogP_VSA0>
18.01075

>  <SlogP_VSA1>
23.874025

>  <SlogP_VSA2>
94.53244

>  <SlogP_VSA3>
64.75106

>  <SlogP_VSA4>
3.185575

>  <SlogP_VSA5>
18.868406

>  <SlogP_VSA6>
0

>  <SlogP_VSA7>
88.215919

>  <SlogP_VSA8>
56.605217

>  <SlogP_VSA9>
66.652031

>  <SMR>
10.01525

>  <SMR_VSA0>
82.58654

>  <SMR_VSA1>
3.1243138

>  <SMR_VSA2>
43.395977

>  <SMR_VSA3>
15.131481

>  <SMR_VSA4>
0

>  <SMR_VSA5>
163.68954

>  <SMR_VSA6>
60.115547

>  <SMR_VSA7>
66.652031

>  <TPSA>
95.940002

>  <VAdjEq>
0.39086518

>  <VAdjMa>
5.8073549

>  <VDistEq>
3.5148313

>  <VDistMa>
9.2342472

>  <vdw_area>
396.68387

>  <vdw_vol>
513.89246

>  <vsa_acc>
27.133842

>  <vsa_acid>
0

>  <vsa_base>
0

>  <vsa_don>
0

>  <vsa_hyd>
265.75851

>  <vsa_other>
44.870285

>  <vsa_pol>
59.95026

>  <Weight>
376.453

>  <weinerPath>
1982

>  <weinerPol>
38

>  <zagreb>
130

$$$$