O[C@H]1N2[C@H]3[C@H]4[C@@H](C[C@@H]2[C@@H]2N(c5c([C@@]2(C3)[C@H]4O)cccc5)C)[C@H]1CC
  MOE2013           2D

 24 29  0  0  1  0  0  0  0  0999 V2000
    0.0630    0.0000    0.0000 O   0  0  0  0  0  0  0  0  0  0  0  0
   -0.0220   -1.5120    0.0000 C   0  0  1  0  0  0  0  0  0  0  0  0
   -1.3190   -2.2790    0.0000 N   0  0  3  0  0  0  0  0  0  0  0  0
   -1.3150   -4.1470    0.0000 C   0  0  1  0  0  0  0  0  0  0  0  0
   -0.4480   -4.4690    0.0000 C   0  0  1  0  0  0  0  0  0  0  0  0
    1.0760   -3.8080    0.0000 C   0  0  1  0  0  0  0  0  0  0  0  0
    0.8900   -2.2430    0.0000 C   0  0  0  0  0  0  0  0  0  0  0  0
   -1.1250   -1.9070    0.0000 C   0  0  2  0  0  0  0  0  0  0  0  0
   -3.0410   -1.8390    0.0000 C   0  0  2  0  0  0  0  0  0  0  0  0
   -4.2970   -1.0860    0.0000 N   0  0  3  0  0  0  0  0  0  0  0  0
   -5.4700   -2.0180    0.0000 C   0  0  0  0  0  0  0  0  0  0  0  0
   -4.9340   -3.4140    0.0000 C   0  0  0  0  0  0  0  0  0  0  0  0
   -3.4680   -3.3960    0.0000 C   0  0  2  0  0  0  0  0  0  0  0  0
   -2.7660   -4.5000    0.0000 C   0  0  0  0  0  0  0  0  0  0  0  0
   -1.6550   -3.0750    0.0000 C   0  0  1  0  0  0  0  0  0  0  0  0
   -1.8940   -1.5180    0.0000 O   0  0  0  0  0  0  0  0  0  0  0  0
   -5.9100   -4.5660    0.0000 C   0  0  0  0  0  0  0  0  0  0  0  0
   -7.3770   -4.2880    0.0000 C   0  0  0  0  0  0  0  0  0  0  0  0
   -7.8970   -2.8790    0.0000 C   0  0  0  0  0  0  0  0  0  0  0  0
   -6.9360   -1.7250    0.0000 C   0  0  0  0  0  0  0  0  0  0  0  0
   -4.4340    0.4220    0.0000 C   0  0  0  0  0  0  0  0  0  0  0  0
    1.4070   -2.5800    0.0000 C   0  0  1  0  0  0  0  0  0  0  0  0
    2.8250   -2.1070    0.0000 C   0  0  0  0  0  0  0  0  0  0  0  0
    3.9670   -3.0720    0.0000 C   0  0  0  0  0  0  0  0  0  0  0  0
  2  1  1  6  0  0  0
  2  3  1  0  0  0  0
  2 22  1  0  0  0  0
  3  4  1  0  0  0  0
  4 14  1  1  0  0  0
  5  4  1  6  0  0  0
  5  6  1  0  0  0  0
  5 15  1  0  0  0  0
  6  7  1  1  0  0  0
  6 22  1  0  0  0  0
  7  8  1  0  0  0  0
  8  3  1  1  0  0  0
  8  9  1  0  0  0  0
  9 10  1  1  0  0  0
 10 11  1  0  0  0  0
 10 21  1  0  0  0  0
 11 12  2  0  0  0  0
 11 20  1  0  0  0  0
 12 17  1  0  0  0  0
 13  9  1  1  0  0  0
 13 12  1  6  0  0  0
 13 14  1  0  0  0  0
 13 15  1  0  0  0  0
 15 16  1  1  0  0  0
 17 18  2  0  0  0  0
 18 19  1  0  0  0  0
 19 20  2  0  0  0  0
 22 23  1  6  0  0  0
 23 24  1  0  0  0  0
M  END
>  <Index>
1426

>  <ID>
HT0082

>  <class>
1

>  <apol>
56.340618

>  <ast_fraglike>
0

>  <ast_fraglike_ext>
0

>  <ast_violation>
1

>  <ast_violation_ext>
1

>  <a_acc>
3

>  <a_acid>
0

>  <a_aro>
6

>  <a_base>
0

>  <a_count>
50

>  <a_don>
2

>  <a_donacc>
5

>  <a_heavy>
24

>  <a_hyd>
19

>  <a_IC>
69.542816

>  <a_ICM>
1.3908563

>  <a_nB>
0

>  <a_nBr>
0

>  <a_nC>
20

>  <a_nCl>
0

>  <a_nF>
0

>  <a_nH>
26

>  <a_nI>
0

>  <a_nN>
2

>  <a_nO>
2

>  <a_nP>
0

>  <a_nS>
0

>  <balabanJ>
1.5184615

>  <BCUT_PEOE_0>
-2.9441855

>  <BCUT_PEOE_1>
-0.5489071

>  <BCUT_PEOE_2>
0.59325093

>  <BCUT_PEOE_3>
3.0372567

>  <BCUT_SLOGP_0>
-3.0098455

>  <BCUT_SLOGP_1>
-0.50546169

>  <BCUT_SLOGP_2>
0.62540686

>  <BCUT_SLOGP_3>
2.9856527

>  <BCUT_SMR_0>
-2.6903119

>  <BCUT_SMR_1>
-0.42480868

>  <BCUT_SMR_2>
0.73279631

>  <BCUT_SMR_3>
3.2871945

>  <bpol>
32.383381

>  <b_1rotN>
1

>  <b_1rotR>
0.034482758

>  <b_ar>
6

>  <b_count>
55

>  <b_double>
0

>  <b_heavy>
29

>  <b_max1len>
4

>  <b_rotN>
1

>  <b_rotR>
0.034482758

>  <b_single>
49

>  <b_triple>
0

>  <chi0>
16.377951

>  <chi0v>
14.338378

>  <chi0v_C>
12.549523

>  <chi0_C>
13.22325

>  <chi1>
11.608226

>  <chi1v>
9.568368

>  <chi1v_C>
7.3483539

>  <chi1_C>
8.2095089

>  <chiral>
9

>  <chiral_u>
0

>  <density>
0.71863788

>  <diameter>
10

>  <FCharge>
0

>  <GCUT_PEOE_0>
-0.8363812

>  <GCUT_PEOE_1>
-0.36921126

>  <GCUT_PEOE_2>
0.055207919

>  <GCUT_PEOE_3>
3.3497357

>  <GCUT_SLOGP_0>
-0.99456245

>  <GCUT_SLOGP_1>
-0.34183374

>  <GCUT_SLOGP_2>
0.10538518

>  <GCUT_SLOGP_3>
3.3438606

>  <GCUT_SMR_0>
-0.53258491

>  <GCUT_SMR_1>
-0.21919489

>  <GCUT_SMR_2>
0.15519157

>  <GCUT_SMR_3>
3.5893061

>  <Kier1>
15.096313

>  <Kier2>
4.6364017

>  <Kier3>
1.4404762

>  <KierA1>
13.325764

>  <KierA2>
4.0693088

>  <KierA3>
1.2590994

>  <KierFlex>
2.2594438

>  <lip_acc>
4

>  <lip_don>
2

>  <lip_druglike>
1

>  <lip_violation>
0

>  <logP(o/w)>
1.89

>  <logS>
-2.6891401

>  <mr>
9.0484095

>  <mutagenic>
0

>  <nmol>
1

>  <opr_brigid>
24

>  <opr_leadlike>
1

>  <opr_nring>
6

>  <opr_nrot>
1

>  <opr_violation>
1

>  <PC+>
0

>  <PC->
0

>  <PEOE_PC+>
1.7527121

>  <PEOE_PC->
-1.7527121

>  <PEOE_RPC+>
0.12064458

>  <PEOE_RPC->
0.2228096

>  <PEOE_VSA+0>
92.914383

>  <PEOE_VSA+1>
30.497244

>  <PEOE_VSA+2>
9.3959408

>  <PEOE_VSA+3>
0

>  <PEOE_VSA+4>
20.648346

>  <PEOE_VSA+5>
0

>  <PEOE_VSA+6>
0

>  <PEOE_VSA-0>
63.806072

>  <PEOE_VSA-1>
55.51239

>  <PEOE_VSA-2>
0

>  <PEOE_VSA-3>
0

>  <PEOE_VSA-4>
0

>  <PEOE_VSA-5>
0

>  <PEOE_VSA-6>
15.535081

>  <PEOE_VSA_FHYD>
0.87449795

>  <PEOE_VSA_FNEG>
0.4677389

>  <PEOE_VSA_FPNEG>
0.053883355

>  <PEOE_VSA_FPOL>
0.12550205

>  <PEOE_VSA_FPOS>
0.53226113

>  <PEOE_VSA_FPPOS>
0.071618691

>  <PEOE_VSA_HYD>
252.12602

>  <PEOE_VSA_NEG>
134.85355

>  <PEOE_VSA_PNEG>
15.535081

>  <PEOE_VSA_POL>
36.183426

>  <PEOE_VSA_POS>
153.45592

>  <PEOE_VSA_PPOS>
20.648346

>  <petitjean>
0.5

>  <petitjeanSC>
1

>  <Q_PC+>
0

>  <Q_PC->
0

>  <Q_RPC+>
0

>  <Q_RPC->
0

>  <Q_VSA_FHYD>
1

>  <Q_VSA_FNEG>
0

>  <Q_VSA_FPNEG>
0

>  <Q_VSA_FPOL>
0

>  <Q_VSA_FPOS>
1

>  <Q_VSA_FPPOS>
0

>  <Q_VSA_HYD>
288.30945

>  <Q_VSA_NEG>
0

>  <Q_VSA_PNEG>
0

>  <Q_VSA_POL>
0

>  <Q_VSA_POS>
288.30945

>  <Q_VSA_PPOS>
0

>  <radius>
5

>  <reactive>
1

>  <rings>
6

>  <RPC+>
0

>  <RPC->
0

>  <rsynth>
0.083333336

>  <SlogP>
1.5545

>  <SlogP_VSA0>
53.894768

>  <SlogP_VSA1>
3.1243138

>  <SlogP_VSA2>
24.454376

>  <SlogP_VSA3>
0

>  <SlogP_VSA4>
16.417963

>  <SlogP_VSA5>
32.897186

>  <SlogP_VSA6>
0

>  <SlogP_VSA7>
70.572739

>  <SlogP_VSA8>
56.605217

>  <SlogP_VSA9>
36.082764

>  <SMR>
9.17346

>  <SMR_VSA0>
0

>  <SMR_VSA1>
53.894768

>  <SMR_VSA2>
16.356703

>  <SMR_VSA3>
27.639952

>  <SMR_VSA4>
2.7567475

>  <SMR_VSA5>
127.17796

>  <SMR_VSA6>
0

>  <SMR_VSA7>
66.223206

>  <TPSA>
46.939999

>  <VAdjEq>
0.47119308

>  <VAdjMa>
5.8579812

>  <VDistEq>
2.8601232

>  <VDistMa>
8.9257803

>  <vdw_area>
288.30945

>  <vdw_vol>
454.24826

>  <vsa_acc>
0

>  <vsa_acid>
0

>  <vsa_base>
0

>  <vsa_don>
0

>  <vsa_hyd>
218.05826

>  <vsa_other>
12.949531

>  <vsa_pol>
27.133842

>  <Weight>
326.44

>  <weinerPath>
1033

>  <weinerPol>
60

>  <zagreb>
156

$$$$