
     RDKit          3D

 22 21  0  0  0  0  0  0  0  0999 V2000
   -4.0855   -0.4513   -0.5053 C   0  0  0  0  0  0  0  0  0  0  0  0
   -2.9376    0.1215    0.2603 C   0  0  0  0  0  0  0  0  0  0  0  0
   -3.1586    0.8557    1.2614 O   0  0  0  0  0  0  0  0  0  0  0  0
   -1.5939   -0.1653   -0.1454 N   0  0  0  0  0  0  0  0  0  0  0  0
   -0.4453    0.3776    0.5795 C   0  0  0  0  0  0  0  0  0  0  0  0
    0.8696   -0.0805   -0.0594 C   0  0  0  0  0  0  0  0  0  0  0  0
    2.0742    0.4877    0.6944 C   0  0  0  0  0  0  0  0  0  0  0  0
    3.6048   -0.0710   -0.0356 S   0  0  0  0  0  0  0  0  0  0  0  0
    3.6872   -1.5708    0.0306 O   0  0  0  0  0  0  0  0  0  0  0  0
    4.7573    0.5158    0.7288 O   0  0  0  0  0  0  0  0  0  0  0  0
    3.6971    0.4331   -1.6377 O   0  0  0  0  0  0  0  0  0  0  0  0
   -4.0285   -1.5596   -0.4857 H   0  0  0  0  0  0  0  0  0  0  0  0
   -4.0411   -0.1016   -1.5578 H   0  0  0  0  0  0  0  0  0  0  0  0
   -5.0519   -0.1322   -0.0601 H   0  0  0  0  0  0  0  0  0  0  0  0
   -1.4448   -0.7777   -0.9800 H   0  0  0  0  0  0  0  0  0  0  0  0
   -0.4844    0.0314    1.6355 H   0  0  0  0  0  0  0  0  0  0  0  0
   -0.4970    1.4883    0.5646 H   0  0  0  0  0  0  0  0  0  0  0  0
    0.9140   -1.1915   -0.0451 H   0  0  0  0  0  0  0  0  0  0  0  0
    0.8987    0.2636   -1.1162 H   0  0  0  0  0  0  0  0  0  0  0  0
    2.0467    0.1593    1.7555 H   0  0  0  0  0  0  0  0  0  0  0  0
    2.0502    1.5980    0.6632 H   0  0  0  0  0  0  0  0  0  0  0  0
    3.1687   -0.2301   -2.1496 H   0  0  0  0  0  0  0  0  0  0  0  0
  1  2  1  0
  2  3  2  0
  2  4  1  0
  4  5  1  0
  5  6  1  0
  6  7  1  0
  7  8  1  0
  8  9  2  0
  8 10  2  0
  8 11  1  0
  1 12  1  0
  1 13  1  0
  1 14  1  0
  4 15  1  0
  5 16  1  0
  5 17  1  0
  6 18  1  0
  6 19  1  0
  7 20  1  0
  7 21  1  0
 11 22  1  0
M  END
> <ID>
HT0045

> <Class>
1.0

> <Clusters>
161

> <Fold>
2

$$$$