
     RDKit          3D

 40 42  0  0  0  0  0  0  0  0999 V2000
    1.6756   -0.1402   -1.7062 C   0  0  0  0  0  0  0  0  0  0  0  0
    1.7826    0.2837   -0.2259 C   0  0  0  0  0  0  0  0  0  0  0  0
    0.8105   -0.5287    0.6573 C   0  0  0  0  0  0  0  0  0  0  0  0
   -0.5959   -0.2547    0.3104 N   0  0  0  0  0  0  0  0  0  0  0  0
   -1.1559    1.0752    0.4020 C   0  0  0  0  0  0  0  0  0  0  0  0
   -0.8625    1.9184    1.4888 C   0  0  0  0  0  0  0  0  0  0  0  0
   -1.5321    3.1375    1.6339 C   0  0  0  0  0  0  0  0  0  0  0  0
   -2.5077    3.5182    0.7086 C   0  0  0  0  0  0  0  0  0  0  0  0
   -2.8035    2.6905   -0.3774 C   0  0  0  0  0  0  0  0  0  0  0  0
   -2.1193    1.4818   -0.5412 C   0  0  0  0  0  0  0  0  0  0  0  0
   -2.3931    0.4834   -2.0085 S   0  0  0  0  0  0  0  0  0  0  0  0
   -2.4607   -1.0536   -1.0840 C   0  0  0  0  0  0  0  0  0  0  0  0
   -3.4473   -2.0026   -1.3711 C   0  0  0  0  0  0  0  0  0  0  0  0
   -3.4498   -3.2305   -0.7045 C   0  0  0  0  0  0  0  0  0  0  0  0
   -2.4751   -3.5067    0.2581 C   0  0  0  0  0  0  0  0  0  0  0  0
   -1.5015   -2.5514    0.5667 C   0  0  0  0  0  0  0  0  0  0  0  0
   -1.4816   -1.3169   -0.1069 C   0  0  0  0  0  0  0  0  0  0  0  0
    3.1633    0.1956    0.3252 N   0  0  0  0  0  0  0  0  0  0  0  0
    3.8771   -1.0518   -0.0055 C   0  0  0  0  0  0  0  0  0  0  0  0
    3.9808    1.3645   -0.0408 C   0  0  0  0  0  0  0  0  0  0  0  0
    1.8289   -1.2336   -1.8243 H   0  0  0  0  0  0  0  0  0  0  0  0
    2.4184    0.4010   -2.3266 H   0  0  0  0  0  0  0  0  0  0  0  0
    0.6678    0.1084   -2.0990 H   0  0  0  0  0  0  0  0  0  0  0  0
    1.4490    1.3441   -0.1732 H   0  0  0  0  0  0  0  0  0  0  0  0
    0.9831   -0.2892    1.7273 H   0  0  0  0  0  0  0  0  0  0  0  0
    1.0336   -1.6083    0.5335 H   0  0  0  0  0  0  0  0  0  0  0  0
   -0.1459    1.6251    2.2429 H   0  0  0  0  0  0  0  0  0  0  0  0
   -1.3073    3.7799    2.4755 H   0  0  0  0  0  0  0  0  0  0  0  0
   -3.0293    4.4588    0.8291 H   0  0  0  0  0  0  0  0  0  0  0  0
   -3.5430    3.0019   -1.1041 H   0  0  0  0  0  0  0  0  0  0  0  0
   -4.1977   -1.7991   -2.1243 H   0  0  0  0  0  0  0  0  0  0  0  0
   -4.2078   -3.9684   -0.9335 H   0  0  0  0  0  0  0  0  0  0  0  0
   -2.4880   -4.4534    0.7825 H   0  0  0  0  0  0  0  0  0  0  0  0
   -0.7963   -2.7605    1.3602 H   0  0  0  0  0  0  0  0  0  0  0  0
    3.2596   -1.9404    0.2353 H   0  0  0  0  0  0  0  0  0  0  0  0
    4.8013   -1.1266    0.6065 H   0  0  0  0  0  0  0  0  0  0  0  0
    4.1648   -1.0840   -1.0791 H   0  0  0  0  0  0  0  0  0  0  0  0
    3.4923    2.3008    0.3044 H   0  0  0  0  0  0  0  0  0  0  0  0
    4.9699    1.3121    0.4633 H   0  0  0  0  0  0  0  0  0  0  0  0
    4.1424    1.4194   -1.1386 H   0  0  0  0  0  0  0  0  0  0  0  0
  1  2  1  0
  2  3  1  0
  3  4  1  0
  4  5  1  0
  5  6  2  0
  6  7  1  0
  7  8  2  0
  8  9  1  0
  9 10  2  0
 10  5  1  0
 10 11  1  0
 11 12  1  0
 12 13  2  0
 13 14  1  0
 14 15  2  0
 15 16  1  0
 16 17  2  0
 17  4  1  0
 17 12  1  0
  2 18  1  0
 18 19  1  0
 18 20  1  0
  1 21  1  0
  1 22  1  0
  1 23  1  0
  2 24  1  0
  3 25  1  0
  3 26  1  0
  6 27  1  0
  7 28  1  0
  8 29  1  0
  9 30  1  0
 13 31  1  0
 14 32  1  0
 15 33  1  0
 16 34  1  0
 19 35  1  0
 19 36  1  0
 19 37  1  0
 20 38  1  0
 20 39  1  0
 20 40  1  0
M  END
> <ID>
HT1755

> <Class>
1.0

> <Clusters>
206

> <Fold>
2

$$$$