
     RDKit          3D

 85 88  0  0  0  0  0  0  0  0999 V2000
    1.9864    2.9208   -2.9485 C   0  0  0  0  0  0  0  0  0  0  0  0
    3.4909    2.7769   -2.9785 C   0  0  0  0  0  0  0  0  0  0  0  0
    4.2445    3.5456   -3.9009 C   0  0  0  0  0  0  0  0  0  0  0  0
    3.6370    4.3707   -4.8510 O   0  0  0  0  0  0  0  0  0  0  0  0
    5.6407    3.4987   -3.8758 C   0  0  0  0  0  0  0  0  0  0  0  0
    6.3069    2.7037   -2.9463 C   0  0  0  0  0  0  0  0  0  0  0  0
    5.5825    1.9244   -2.0474 C   0  0  0  0  0  0  0  0  0  0  0  0
    4.1784    1.9288   -2.0677 C   0  0  0  0  0  0  0  0  0  0  0  0
    3.4717    1.0076   -1.1549 C   0  0  0  0  0  0  0  0  0  0  0  0
    3.7513    1.0269    0.0719 O   0  0  0  0  0  0  0  0  0  0  0  0
    2.5213    0.0669   -1.6817 N   0  0  0  0  0  0  0  0  0  0  0  0
    1.6104   -0.7858   -0.9032 C   0  0  1  0  0  0  0  0  0  0  0  0
    2.3560   -1.8830   -0.1001 C   0  0  0  0  0  0  0  0  0  0  0  0
    2.9577   -1.3922    1.5533 S   0  0  0  0  0  0  0  0  0  0  0  0
    3.5237   -3.0393    1.9727 C   0  0  0  0  0  0  0  0  0  0  0  0
    2.6429   -3.9557    2.5615 C   0  0  0  0  0  0  0  0  0  0  0  0
    3.0838   -5.2439    2.8811 C   0  0  0  0  0  0  0  0  0  0  0  0
    4.4050   -5.6169    2.6155 C   0  0  0  0  0  0  0  0  0  0  0  0
    5.2876   -4.7005    2.0350 C   0  0  0  0  0  0  0  0  0  0  0  0
    4.8471   -3.4131    1.7098 C   0  0  0  0  0  0  0  0  0  0  0  0
    0.5099    0.0408   -0.1745 C   0  0  2  0  0  0  0  0  0  0  0  0
    1.0388    1.0831    0.6061 O   0  0  0  0  0  0  0  0  0  0  0  0
   -0.4799   -0.8445    0.6167 C   0  0  0  0  0  0  0  0  0  0  0  0
   -1.7015   -0.0677    0.9383 N   0  0  0  0  0  0  0  0  0  0  0  0
   -1.6551    0.5331    2.3010 C   0  0  0  0  0  0  0  0  0  0  0  0
   -2.6065   -0.1773    3.2820 C   0  0  1  0  0  0  0  0  0  0  0  0
   -2.3967    0.2480    4.7528 C   0  0  0  0  0  0  0  0  0  0  0  0
   -3.0273    1.6012    5.0766 C   0  0  0  0  0  0  0  0  0  0  0  0
   -4.5157    1.5868    4.7340 C   0  0  0  0  0  0  0  0  0  0  0  0
   -4.7112    1.3191    3.2418 C   0  0  0  0  0  0  0  0  0  0  0  0
   -4.0768   -0.0214    2.7998 C   0  0  1  0  0  0  0  0  0  0  0  0
   -4.1872   -0.1636    1.2557 C   0  0  0  0  0  0  0  0  0  0  0  0
   -2.9442   -0.8292    0.6328 C   0  0  1  0  0  0  0  0  0  0  0  0
   -3.1246   -0.9373   -0.8613 C   0  0  0  0  0  0  0  0  0  0  0  0
   -3.3608   -2.0685   -1.3668 O   0  0  0  0  0  0  0  0  0  0  0  0
   -3.0128    0.2322   -1.6936 N   0  0  0  0  0  0  0  0  0  0  0  0
   -2.9239    0.2209   -3.1669 C   0  0  0  0  0  0  0  0  0  0  0  0
   -4.2165   -0.3520   -3.7766 C   0  0  0  0  0  0  0  0  0  0  0  0
   -2.7463    1.6692   -3.6708 C   0  0  0  0  0  0  0  0  0  0  0  0
   -1.7049   -0.6057   -3.6211 C   0  0  0  0  0  0  0  0  0  0  0  0
    1.5120    2.3981   -2.0968 H   0  0  0  0  0  0  0  0  0  0  0  0
    1.5519    2.5243   -3.8885 H   0  0  0  0  0  0  0  0  0  0  0  0
    1.7185    3.9933   -2.8408 H   0  0  0  0  0  0  0  0  0  0  0  0
    2.6348    4.4552   -4.9545 H   0  0  0  0  0  0  0  0  0  0  0  0
    6.2133    4.0899   -4.5786 H   0  0  0  0  0  0  0  0  0  0  0  0
    7.3898    2.6813   -2.9320 H   0  0  0  0  0  0  0  0  0  0  0  0
    6.1193    1.2913   -1.3507 H   0  0  0  0  0  0  0  0  0  0  0  0
    2.4488    0.0009   -2.7226 H   0  0  0  0  0  0  0  0  0  0  0  0
    1.0436   -1.3723   -1.6622 H   0  0  0  0  0  0  0  0  0  0  0  0
    3.2196   -2.2439   -0.6982 H   0  0  0  0  0  0  0  0  0  0  0  0
    1.6681   -2.7463    0.0334 H   0  0  0  0  0  0  0  0  0  0  0  0
    1.6180   -3.6733    2.7646 H   0  0  0  0  0  0  0  0  0  0  0  0
    2.4014   -5.9533    3.3310 H   0  0  0  0  0  0  0  0  0  0  0  0
    4.7457   -6.6144    2.8617 H   0  0  0  0  0  0  0  0  0  0  0  0
    6.3122   -4.9882    1.8351 H   0  0  0  0  0  0  0  0  0  0  0  0
    5.5340   -2.7081    1.2568 H   0  0  0  0  0  0  0  0  0  0  0  0
   -0.0840    0.5314   -0.9783 H   0  0  0  0  0  0  0  0  0  0  0  0
    1.3181    0.7135    1.4796 H   0  0  0  0  0  0  0  0  0  0  0  0
   -0.7220   -1.7270   -0.0189 H   0  0  0  0  0  0  0  0  0  0  0  0
   -0.0064   -1.2670    1.5307 H   0  0  0  0  0  0  0  0  0  0  0  0
   -0.6269    0.5293    2.7225 H   0  0  0  0  0  0  0  0  0  0  0  0
   -1.9388    1.6012    2.2170 H   0  0  0  0  0  0  0  0  0  0  0  0
   -2.3453   -1.2585    3.2509 H   0  0  0  0  0  0  0  0  0  0  0  0
   -1.3107    0.2799    4.9937 H   0  0  0  0  0  0  0  0  0  0  0  0
   -2.8507   -0.5222    5.4169 H   0  0  0  0  0  0  0  0  0  0  0  0
   -2.9040    1.8147    6.1609 H   0  0  0  0  0  0  0  0  0  0  0  0
   -2.5128    2.4097    4.5124 H   0  0  0  0  0  0  0  0  0  0  0  0
   -5.0394    0.8085    5.3319 H   0  0  0  0  0  0  0  0  0  0  0  0
   -4.9573    2.5738    4.9901 H   0  0  0  0  0  0  0  0  0  0  0  0
   -4.2660    2.1653    2.6716 H   0  0  0  0  0  0  0  0  0  0  0  0
   -5.8003    1.3008    3.0194 H   0  0  0  0  0  0  0  0  0  0  0  0
   -4.6637   -0.8423    3.2678 H   0  0  0  0  0  0  0  0  0  0  0  0
   -5.0928   -0.7627    1.0112 H   0  0  0  0  0  0  0  0  0  0  0  0
   -4.3209    0.8316    0.7770 H   0  0  0  0  0  0  0  0  0  0  0  0
   -2.8729   -1.8596    1.0528 H   0  0  0  0  0  0  0  0  0  0  0  0
   -2.8961    1.1465   -1.1998 H   0  0  0  0  0  0  0  0  0  0  0  0
   -4.3445   -1.4273   -3.5335 H   0  0  0  0  0  0  0  0  0  0  0  0
   -5.0994    0.2045   -3.3940 H   0  0  0  0  0  0  0  0  0  0  0  0
   -4.1997   -0.2624   -4.8836 H   0  0  0  0  0  0  0  0  0  0  0  0
   -3.6147    2.2934   -3.3699 H   0  0  0  0  0  0  0  0  0  0  0  0
   -1.8291    2.1214   -3.2392 H   0  0  0  0  0  0  0  0  0  0  0  0
   -2.6604    1.7006   -4.7781 H   0  0  0  0  0  0  0  0  0  0  0  0
   -0.7753   -0.1881   -3.1861 H   0  0  0  0  0  0  0  0  0  0  0  0
   -1.7894   -1.6641   -3.3058 H   0  0  0  0  0  0  0  0  0  0  0  0
   -1.6079   -0.5871   -4.7277 H   0  0  0  0  0  0  0  0  0  0  0  0
  1  2  1  0
  2  3  2  0
  3  4  1  0
  3  5  1  0
  5  6  2  0
  6  7  1  0
  7  8  2  0
  8  2  1  0
  8  9  1  0
  9 10  2  0
  9 11  1  0
 11 12  1  0
 12 13  1  0
 13 14  1  0
 14 15  1  0
 15 16  2  0
 16 17  1  0
 17 18  2  0
 18 19  1  0
 19 20  2  0
 20 15  1  0
 12 21  1  0
 21 22  1  0
 21 23  1  0
 23 24  1  0
 24 25  1  0
 25 26  1  0
 26 27  1  0
 27 28  1  0
 28 29  1  0
 29 30  1  0
 30 31  1  0
 31 26  1  0
 31 32  1  0
 32 33  1  0
 33 24  1  0
 33 34  1  0
 34 35  2  0
 34 36  1  0
 36 37  1  0
 37 38  1  0
 37 39  1  0
 37 40  1  0
  1 41  1  0
  1 42  1  0
  1 43  1  0
  4 44  1  0
  5 45  1  0
  6 46  1  0
  7 47  1  0
 11 48  1  0
 12 49  1  6
 13 50  1  0
 13 51  1  0
 16 52  1  0
 17 53  1  0
 18 54  1  0
 19 55  1  0
 20 56  1  0
 21 57  1  6
 22 58  1  0
 23 59  1  0
 23 60  1  0
 25 61  1  0
 25 62  1  0
 26 63  1  1
 27 64  1  0
 27 65  1  0
 28 66  1  0
 28 67  1  0
 29 68  1  0
 29 69  1  0
 30 70  1  0
 30 71  1  0
 31 72  1  1
 32 73  1  0
 32 74  1  0
 33 75  1  1
 36 76  1  0
 38 77  1  0
 38 78  1  0
 38 79  1  0
 39 80  1  0
 39 81  1  0
 39 82  1  0
 40 83  1  0
 40 84  1  0
 40 85  1  0
M  END
> <ID>
HT1473

> <Class>
1.0

> <Clusters>
214

> <Fold>
2

$$$$