
     RDKit          3D

 41 44  0  0  0  0  0  0  0  0999 V2000
    4.2190   -1.3697    1.8192 C   0  0  0  0  0  0  0  0  0  0  0  0
    4.2257   -0.0619    1.0902 C   0  0  0  0  0  0  0  0  0  0  0  0
    4.9804    0.9868    1.4817 N   0  0  0  0  0  0  0  0  0  0  0  0
    4.7414    1.9335    0.5517 C   0  0  0  0  0  0  0  0  0  0  0  0
    3.8574    1.4487   -0.3855 C   0  0  0  0  0  0  0  0  0  0  0  0
    3.5275    0.1923   -0.0401 N   0  0  0  0  0  0  0  0  0  0  0  0
    2.6232   -0.7040   -0.7672 C   0  0  0  0  0  0  0  0  0  0  0  0
    1.2263   -0.7591   -0.1055 C   0  0  0  0  0  0  0  0  0  0  0  0
    0.4772   -2.0461   -0.5442 C   0  0  0  0  0  0  0  0  0  0  0  0
   -0.9266   -2.1731    0.0914 C   0  0  0  0  0  0  0  0  0  0  0  0
   -1.6895   -0.8804   -0.0141 C   0  0  0  0  0  0  0  0  0  0  0  0
   -1.0754    0.3319   -0.2624 C   0  0  0  0  0  0  0  0  0  0  0  0
    0.3775    0.4620   -0.4133 C   0  0  0  0  0  0  0  0  0  0  0  0
    0.8898    1.5569   -0.7665 O   0  0  0  0  0  0  0  0  0  0  0  0
   -2.0851    1.2720   -0.3209 C   0  0  0  0  0  0  0  0  0  0  0  0
   -2.0594    2.6468   -0.5582 C   0  0  0  0  0  0  0  0  0  0  0  0
   -3.2855    3.3346   -0.5663 C   0  0  0  0  0  0  0  0  0  0  0  0
   -4.4959    2.6442   -0.3418 C   0  0  0  0  0  0  0  0  0  0  0  0
   -4.4942    1.2584   -0.1021 C   0  0  0  0  0  0  0  0  0  0  0  0
   -3.2636    0.5945   -0.0916 C   0  0  0  0  0  0  0  0  0  0  0  0
   -3.0303   -0.7216    0.1191 N   0  0  0  0  0  0  0  0  0  0  0  0
   -4.0257   -1.7706    0.3356 C   0  0  0  0  0  0  0  0  0  0  0  0
    4.9048   -1.3247    2.6913 H   0  0  0  0  0  0  0  0  0  0  0  0
    4.5600   -2.1791    1.1412 H   0  0  0  0  0  0  0  0  0  0  0  0
    3.1985   -1.5993    2.1853 H   0  0  0  0  0  0  0  0  0  0  0  0
    5.1936    2.9161    0.5525 H   0  0  0  0  0  0  0  0  0  0  0  0
    3.4941    1.9728   -1.2599 H   0  0  0  0  0  0  0  0  0  0  0  0
    3.0759   -1.7189   -0.7892 H   0  0  0  0  0  0  0  0  0  0  0  0
    2.5307   -0.3778   -1.8270 H   0  0  0  0  0  0  0  0  0  0  0  0
    1.3488   -0.8087    0.9971 H   0  0  0  0  0  0  0  0  0  0  0  0
    0.3709   -2.0475   -1.6522 H   0  0  0  0  0  0  0  0  0  0  0  0
    1.0716   -2.9422   -0.2613 H   0  0  0  0  0  0  0  0  0  0  0  0
   -1.4813   -2.9781   -0.4360 H   0  0  0  0  0  0  0  0  0  0  0  0
   -0.8337   -2.4493    1.1633 H   0  0  0  0  0  0  0  0  0  0  0  0
   -1.1324    3.1750   -0.7340 H   0  0  0  0  0  0  0  0  0  0  0  0
   -3.3013    4.4012   -0.7489 H   0  0  0  0  0  0  0  0  0  0  0  0
   -5.4329    3.1854   -0.3544 H   0  0  0  0  0  0  0  0  0  0  0  0
   -5.4238    0.7315    0.0662 H   0  0  0  0  0  0  0  0  0  0  0  0
   -4.4514   -2.0859   -0.6396 H   0  0  0  0  0  0  0  0  0  0  0  0
   -4.8400   -1.3979    0.9913 H   0  0  0  0  0  0  0  0  0  0  0  0
   -3.5664   -2.6484    0.8361 H   0  0  0  0  0  0  0  0  0  0  0  0
  1  2  1  0
  2  3  2  0
  3  4  1  0
  4  5  2  0
  5  6  1  0
  6  2  1  0
  6  7  1  0
  7  8  1  0
  8  9  1  0
  9 10  1  0
 10 11  1  0
 11 12  2  0
 12 13  1  0
 13  8  1  0
 13 14  2  0
 12 15  1  0
 15 16  2  0
 16 17  1  0
 17 18  2  0
 18 19  1  0
 19 20  2  0
 20 15  1  0
 20 21  1  0
 21 11  1  0
 21 22  1  0
  1 23  1  0
  1 24  1  0
  1 25  1  0
  4 26  1  0
  5 27  1  0
  7 28  1  0
  7 29  1  0
  8 30  1  0
  9 31  1  0
  9 32  1  0
 10 33  1  0
 10 34  1  0
 16 35  1  0
 17 36  1  0
 18 37  1  0
 19 38  1  0
 22 39  1  0
 22 40  1  0
 22 41  1  0
M  END
> <ID>
HT1541

> <Class>
1.0

> <Clusters>
72

> <Fold>
2

$$$$