
     RDKit          3D

 29 31  0  0  0  0  0  0  0  0999 V2000
    0.5994    2.5345   -0.3455 N   0  0  0  0  0  0  0  0  0  0  0  0
    0.5088    1.1248   -0.0587 C   0  0  0  0  0  0  0  0  0  0  0  0
   -0.7414    0.4560   -0.1542 C   0  0  0  0  0  0  0  0  0  0  0  0
   -2.0152    1.2305   -0.4501 C   0  0  0  0  0  0  0  0  0  0  0  0
   -3.2922    0.4146   -0.2279 C   0  0  0  0  0  0  0  0  0  0  0  0
   -3.1651   -0.9599   -0.8723 C   0  0  0  0  0  0  0  0  0  0  0  0
   -2.0418   -1.7529   -0.2042 C   0  0  0  0  0  0  0  0  0  0  0  0
   -0.7719   -0.9556   -0.0456 C   0  0  0  0  0  0  0  0  0  0  0  0
    0.3650   -1.6372    0.2393 N   0  0  0  0  0  0  0  0  0  0  0  0
    1.5613   -1.0262    0.4083 C   0  0  0  0  0  0  0  0  0  0  0  0
    2.6857   -1.7999    0.7190 C   0  0  0  0  0  0  0  0  0  0  0  0
    3.9250   -1.1910    0.9138 C   0  0  0  0  0  0  0  0  0  0  0  0
    4.0454    0.1942    0.8077 C   0  0  0  0  0  0  0  0  0  0  0  0
    2.9306    0.9777    0.4944 C   0  0  0  0  0  0  0  0  0  0  0  0
    1.6703    0.3778    0.2712 C   0  0  0  0  0  0  0  0  0  0  0  0
   -0.2412    3.1432   -0.4370 H   0  0  0  0  0  0  0  0  0  0  0  0
    1.4960    2.9850   -0.6253 H   0  0  0  0  0  0  0  0  0  0  0  0
   -2.0821    2.1168    0.2157 H   0  0  0  0  0  0  0  0  0  0  0  0
   -1.9837    1.5796   -1.5052 H   0  0  0  0  0  0  0  0  0  0  0  0
   -3.4827    0.3014    0.8626 H   0  0  0  0  0  0  0  0  0  0  0  0
   -4.1559    0.9545   -0.6727 H   0  0  0  0  0  0  0  0  0  0  0  0
   -2.9542   -0.8482   -1.9591 H   0  0  0  0  0  0  0  0  0  0  0  0
   -4.1227   -1.5130   -0.7618 H   0  0  0  0  0  0  0  0  0  0  0  0
   -2.3724   -2.0969    0.7996 H   0  0  0  0  0  0  0  0  0  0  0  0
   -1.8341   -2.6534   -0.8219 H   0  0  0  0  0  0  0  0  0  0  0  0
    2.5987   -2.8754    0.8150 H   0  0  0  0  0  0  0  0  0  0  0  0
    4.7913   -1.7924    1.1573 H   0  0  0  0  0  0  0  0  0  0  0  0
    5.0055    0.6648    0.9765 H   0  0  0  0  0  0  0  0  0  0  0  0
    3.0737    2.0466    0.4612 H   0  0  0  0  0  0  0  0  0  0  0  0
  1  2  1  0
  2  3  2  0
  3  4  1  0
  4  5  1  0
  5  6  1  0
  6  7  1  0
  7  8  1  0
  8  3  1  0
  8  9  2  0
  9 10  1  0
 10 11  2  0
 11 12  1  0
 12 13  2  0
 13 14  1  0
 14 15  2  0
 15  2  1  0
 15 10  1  0
  1 16  1  0
  1 17  1  0
  4 18  1  0
  4 19  1  0
  5 20  1  0
  5 21  1  0
  6 22  1  0
  6 23  1  0
  7 24  1  0
  7 25  1  0
 11 26  1  0
 12 27  1  0
 13 28  1  0
 14 29  1  0
M  END
> <ID>
HT1970

> <Class>
1.0

> <Clusters>
250

> <Fold>
2

$$$$