
     RDKit          3D

 35 36  0  0  0  0  0  0  0  0999 V2000
   -4.3816    1.6385   -3.2736 C   0  0  0  0  0  0  0  0  0  0  0  0
   -3.5929    0.4572   -3.1935 O   0  0  0  0  0  0  0  0  0  0  0  0
   -2.7401    0.1889   -2.1189 C   0  0  0  0  0  0  0  0  0  0  0  0
   -1.9961   -0.9920   -2.1110 C   0  0  0  0  0  0  0  0  0  0  0  0
   -1.1517   -1.2472   -1.0263 C   0  0  0  0  0  0  0  0  0  0  0  0
   -0.3691   -2.4469   -0.9863 N   0  0  0  0  0  0  0  0  0  0  0  0
    0.6212   -2.8501    0.3787 S   0  0  0  0  0  0  0  0  0  0  0  0
    1.4609   -4.0515    0.0486 O   0  0  0  0  0  0  0  0  0  0  0  0
   -0.2705   -3.1772    1.5438 O   0  0  0  0  0  0  0  0  0  0  0  0
    1.6846   -1.5036    0.7766 C   0  0  0  0  0  0  0  0  0  0  0  0
    2.2981   -0.7716   -0.2486 C   0  0  0  0  0  0  0  0  0  0  0  0
    3.1238    0.3138    0.0589 C   0  0  0  0  0  0  0  0  0  0  0  0
    3.3478    0.6736    1.3954 C   0  0  0  0  0  0  0  0  0  0  0  0
    4.1891    1.7862    1.7101 N   0  0  0  0  0  0  0  0  0  0  0  0
    2.7405   -0.0644    2.4212 C   0  0  0  0  0  0  0  0  0  0  0  0
    1.9127   -1.1483    2.1133 C   0  0  0  0  0  0  0  0  0  0  0  0
   -1.0733   -0.3419   -0.0149 N   0  0  0  0  0  0  0  0  0  0  0  0
   -1.7974    0.8094   -0.0365 C   0  0  0  0  0  0  0  0  0  0  0  0
   -1.6966    1.7366    1.0034 O   0  0  0  0  0  0  0  0  0  0  0  0
   -0.8013    1.5680    2.0965 C   0  0  0  0  0  0  0  0  0  0  0  0
   -2.6253    1.0644   -1.0825 N   0  0  0  0  0  0  0  0  0  0  0  0
   -4.9701    1.6209   -4.2137 H   0  0  0  0  0  0  0  0  0  0  0  0
   -5.0809    1.6880   -2.4121 H   0  0  0  0  0  0  0  0  0  0  0  0
   -3.7253    2.5345   -3.2766 H   0  0  0  0  0  0  0  0  0  0  0  0
   -2.0762   -1.6952   -2.9306 H   0  0  0  0  0  0  0  0  0  0  0  0
   -0.4076   -3.1206   -1.7836 H   0  0  0  0  0  0  0  0  0  0  0  0
    2.1311   -1.0368   -1.2849 H   0  0  0  0  0  0  0  0  0  0  0  0
    3.5871    0.8746   -0.7430 H   0  0  0  0  0  0  0  0  0  0  0  0
    4.3607    2.0627    2.7025 H   0  0  0  0  0  0  0  0  0  0  0  0
    4.6452    2.3425    0.9529 H   0  0  0  0  0  0  0  0  0  0  0  0
    2.9049    0.2028    3.4574 H   0  0  0  0  0  0  0  0  0  0  0  0
    1.4481   -1.7045    2.9171 H   0  0  0  0  0  0  0  0  0  0  0  0
   -0.9138    2.4216    2.7957 H   0  0  0  0  0  0  0  0  0  0  0  0
    0.2456    1.5420    1.7270 H   0  0  0  0  0  0  0  0  0  0  0  0
   -1.0315    0.6257    2.6375 H   0  0  0  0  0  0  0  0  0  0  0  0
  1  2  1  0
  2  3  1  0
  3  4  2  0
  4  5  1  0
  5  6  1  0
  6  7  1  0
  7  8  2  0
  7  9  2  0
  7 10  1  0
 10 11  2  0
 11 12  1  0
 12 13  2  0
 13 14  1  0
 13 15  1  0
 15 16  2  0
 16 10  1  0
  5 17  2  0
 17 18  1  0
 18 19  1  0
 19 20  1  0
 18 21  2  0
 21  3  1  0
  1 22  1  0
  1 23  1  0
  1 24  1  0
  4 25  1  0
  6 26  1  0
 11 27  1  0
 12 28  1  0
 14 29  1  0
 14 30  1  0
 15 31  1  0
 16 32  1  0
 20 33  1  0
 20 34  1  0
 20 35  1  0
M  END
> <ID>
HT1938

> <Class>
1.0

> <Clusters>
220

> <Fold>
2

$$$$