
     RDKit          3D

 43 44  0  0  0  0  0  0  0  0999 V2000
   -0.2336   -2.3347    1.5406 C   0  0  0  0  0  0  0  0  0  0  0  0
   -0.3819   -0.8063    1.6257 C   0  0  0  0  0  0  0  0  0  0  0  0
   -0.5744   -0.4690    2.9812 O   0  0  0  0  0  0  0  0  0  0  0  0
   -1.5825   -0.3097    0.7708 C   0  0  0  0  0  0  0  0  0  0  0  0
   -3.1824   -0.9021    1.3285 S   0  0  0  0  0  0  0  0  0  0  0  0
   -3.3554   -2.3493    0.9599 O   0  0  0  0  0  0  0  0  0  0  0  0
   -3.3206   -0.7627    2.8189 O   0  0  0  0  0  0  0  0  0  0  0  0
   -4.4338    0.0501    0.5375 C   0  0  0  0  0  0  0  0  0  0  0  0
   -4.9534   -0.3555   -0.7005 C   0  0  0  0  0  0  0  0  0  0  0  0
   -5.9353    0.4118   -1.3355 C   0  0  0  0  0  0  0  0  0  0  0  0
   -6.3979    1.5895   -0.7404 C   0  0  0  0  0  0  0  0  0  0  0  0
   -7.3489    2.3330   -1.3575 F   0  0  0  0  0  0  0  0  0  0  0  0
   -5.8761    2.0022    0.4895 C   0  0  0  0  0  0  0  0  0  0  0  0
   -4.8942    1.2367    1.1265 C   0  0  0  0  0  0  0  0  0  0  0  0
    0.9014   -0.1664    1.1176 C   0  0  0  0  0  0  0  0  0  0  0  0
    1.5366    0.6302    1.8624 O   0  0  0  0  0  0  0  0  0  0  0  0
    1.3842   -0.4442   -0.2099 N   0  0  0  0  0  0  0  0  0  0  0  0
    2.6843   -0.0572   -0.6861 C   0  0  0  0  0  0  0  0  0  0  0  0
    2.8387    0.3185   -2.0250 C   0  0  0  0  0  0  0  0  0  0  0  0
    4.0925    0.6771   -2.5191 C   0  0  0  0  0  0  0  0  0  0  0  0
    5.2175    0.6522   -1.6859 C   0  0  0  0  0  0  0  0  0  0  0  0
    6.4944    1.0296   -2.2449 C   0  0  0  0  0  0  0  0  0  0  0  0
    7.5175    1.3321   -2.6932 N   0  0  0  0  0  0  0  0  0  0  0  0
    5.0886    0.2527   -0.3340 C   0  0  0  0  0  0  0  0  0  0  0  0
    3.8144   -0.1095    0.1484 C   0  0  0  0  0  0  0  0  0  0  0  0
    6.2980    0.1978    0.5790 C   0  0  0  0  0  0  0  0  0  0  0  0
    5.9599   -0.1954    1.8626 F   0  0  0  0  0  0  0  0  0  0  0  0
    7.2172   -0.7049    0.0755 F   0  0  0  0  0  0  0  0  0  0  0  0
    6.8834    1.4491    0.6502 F   0  0  0  0  0  0  0  0  0  0  0  0
   -1.0654   -2.8396    2.0741 H   0  0  0  0  0  0  0  0  0  0  0  0
    0.7135   -2.6576    2.0250 H   0  0  0  0  0  0  0  0  0  0  0  0
   -0.2271   -2.6803    0.4848 H   0  0  0  0  0  0  0  0  0  0  0  0
   -0.7528    0.5071    3.0349 H   0  0  0  0  0  0  0  0  0  0  0  0
   -1.6084    0.8015    0.7867 H   0  0  0  0  0  0  0  0  0  0  0  0
   -1.4635   -0.6183   -0.2886 H   0  0  0  0  0  0  0  0  0  0  0  0
   -4.5974   -1.2609   -1.1752 H   0  0  0  0  0  0  0  0  0  0  0  0
   -6.3348    0.0940   -2.2900 H   0  0  0  0  0  0  0  0  0  0  0  0
   -6.2298    2.9164    0.9487 H   0  0  0  0  0  0  0  0  0  0  0  0
   -4.4919    1.5706    2.0744 H   0  0  0  0  0  0  0  0  0  0  0  0
    0.7333   -0.8871   -0.8958 H   0  0  0  0  0  0  0  0  0  0  0  0
    1.9807    0.3433   -2.6853 H   0  0  0  0  0  0  0  0  0  0  0  0
    4.1854    0.9739   -3.5572 H   0  0  0  0  0  0  0  0  0  0  0  0
    3.7002   -0.4588    1.1653 H   0  0  0  0  0  0  0  0  0  0  0  0
  1  2  1  0
  2  3  1  0
  2  4  1  0
  4  5  1  0
  5  6  2  0
  5  7  2  0
  5  8  1  0
  8  9  2  0
  9 10  1  0
 10 11  2  0
 11 12  1  0
 11 13  1  0
 13 14  2  0
 14  8  1  0
  2 15  1  0
 15 16  2  0
 15 17  1  0
 17 18  1  0
 18 19  2  0
 19 20  1  0
 20 21  2  0
 21 22  1  0
 22 23  3  0
 21 24  1  0
 24 25  2  0
 25 18  1  0
 24 26  1  0
 26 27  1  0
 26 28  1  0
 26 29  1  0
  1 30  1  0
  1 31  1  0
  1 32  1  0
  3 33  1  0
  4 34  1  0
  4 35  1  0
  9 36  1  0
 10 37  1  0
 13 38  1  0
 14 39  1  0
 17 40  1  0
 19 41  1  0
 20 42  1  0
 25 43  1  0
M  END
> <ID>
HT0283

> <Class>
1.0

> <Clusters>
211

> <Fold>
2

$$$$