
     RDKit          3D

 29 30  0  0  0  0  0  0  0  0999 V2000
   -1.0231   -2.5829    0.2083 C   0  0  0  0  0  0  0  0  0  0  0  0
   -1.4696   -1.4190   -0.6903 C   0  0  0  0  0  0  0  0  0  0  0  0
   -0.9130   -0.0129   -0.2796 C   0  0  0  0  0  0  0  0  0  0  0  0
   -1.1381    0.9897   -1.4131 C   0  0  0  0  0  0  0  0  0  0  0  0
   -1.2596    0.6024   -2.6075 O   0  0  0  0  0  0  0  0  0  0  0  0
   -1.1324    2.3955   -1.1423 N   0  0  0  0  0  0  0  0  0  0  0  0
   -1.3421    2.8670    0.1871 C   0  0  0  0  0  0  0  0  0  0  0  0
   -1.2909    4.0999    0.4384 O   0  0  0  0  0  0  0  0  0  0  0  0
   -1.6572    1.9359    1.2203 N   0  0  0  0  0  0  0  0  0  0  0  0
   -1.6618    0.5314    0.9420 C   0  0  0  0  0  0  0  0  0  0  0  0
   -2.2443   -0.2427    1.7479 O   0  0  0  0  0  0  0  0  0  0  0  0
    0.6037   -0.1008   -0.0283 C   0  0  0  0  0  0  0  0  0  0  0  0
    1.1703    0.0509    1.2600 C   0  0  0  0  0  0  0  0  0  0  0  0
    2.5503   -0.0629    1.4520 C   0  0  0  0  0  0  0  0  0  0  0  0
    3.3894   -0.3416    0.3736 C   0  0  0  0  0  0  0  0  0  0  0  0
    2.8507   -0.5143   -0.9007 C   0  0  0  0  0  0  0  0  0  0  0  0
    1.4725   -0.4017   -1.1014 C   0  0  0  0  0  0  0  0  0  0  0  0
    0.0694   -2.7548    0.1114 H   0  0  0  0  0  0  0  0  0  0  0  0
   -1.2640   -2.4058    1.2740 H   0  0  0  0  0  0  0  0  0  0  0  0
   -1.5420   -3.5109   -0.1118 H   0  0  0  0  0  0  0  0  0  0  0  0
   -2.5814   -1.3866   -0.7118 H   0  0  0  0  0  0  0  0  0  0  0  0
   -1.1396   -1.6792   -1.7194 H   0  0  0  0  0  0  0  0  0  0  0  0
   -1.0543    3.0782   -1.9295 H   0  0  0  0  0  0  0  0  0  0  0  0
   -1.9627    2.2832    2.1572 H   0  0  0  0  0  0  0  0  0  0  0  0
    0.5586    0.2500    2.1286 H   0  0  0  0  0  0  0  0  0  0  0  0
    2.9693    0.0601    2.4425 H   0  0  0  0  0  0  0  0  0  0  0  0
    4.4571   -0.4310    0.5270 H   0  0  0  0  0  0  0  0  0  0  0  0
    3.5014   -0.7409   -1.7354 H   0  0  0  0  0  0  0  0  0  0  0  0
    1.0834   -0.5563   -2.0991 H   0  0  0  0  0  0  0  0  0  0  0  0
  1  2  1  0
  2  3  1  0
  3  4  1  0
  4  5  2  0
  4  6  1  0
  6  7  1  0
  7  8  2  0
  7  9  1  0
  9 10  1  0
 10  3  1  0
 10 11  2  0
  3 12  1  0
 12 13  2  0
 13 14  1  0
 14 15  2  0
 15 16  1  0
 16 17  2  0
 17 12  1  0
  1 18  1  0
  1 19  1  0
  1 20  1  0
  2 21  1  0
  2 22  1  0
  6 23  1  0
  9 24  1  0
 13 25  1  0
 14 26  1  0
 15 27  1  0
 16 28  1  0
 17 29  1  0
M  END
> <ID>
HT1650

> <Class>
1.0

> <Clusters>
157

> <Fold>
2

$$$$