
     RDKit          3D

 57 60  0  0  0  0  0  0  0  0999 V2000
   -3.9839   -1.9395   -0.1727 C   0  0  0  0  0  0  0  0  0  0  0  0
   -3.1222   -0.7308   -0.5871 C   0  0  2  0  0  0  0  0  0  0  0  0
   -1.7598   -1.1980   -1.1608 C   0  0  0  0  0  0  0  0  0  0  0  0
   -0.7259   -0.6204   -0.2071 C   0  0  1  0  0  0  0  0  0  0  0  0
    0.7472   -0.5088   -0.6738 C   0  0  2  0  0  0  0  0  0  0  0  0
    1.2622   -1.8828   -1.1618 C   0  0  0  0  0  0  0  0  0  0  0  0
    2.7316   -1.8137   -1.5787 C   0  0  0  0  0  0  0  0  0  0  0  0
    3.5613   -1.2603   -0.4453 C   0  0  0  0  0  0  0  0  0  0  0  0
    4.6088   -1.9646    0.0121 C   0  0  0  0  0  0  0  0  0  0  0  0
    5.4039   -1.4801    1.1397 C   0  0  0  0  0  0  0  0  0  0  0  0
    6.4078   -2.1350    1.5378 O   0  0  0  0  0  0  0  0  0  0  0  0
    5.0199   -0.2425    1.8138 C   0  0  0  0  0  0  0  0  0  0  0  0
    3.9789    0.4706    1.3810 C   0  0  0  0  0  0  0  0  0  0  0  0
    3.1610    0.1063    0.1391 C   0  0  1  0  0  0  0  0  0  0  0  0
    3.4914    1.1793   -0.9322 C   0  0  0  0  0  0  0  0  0  0  0  0
    1.6243    0.0193    0.5245 C   0  0  2  0  0  0  0  0  0  0  0  0
    1.5439   -0.9374    1.5337 F   0  0  0  0  0  0  0  0  0  0  0  0
    1.0240    1.3326    1.1478 C   0  0  1  0  0  0  0  0  0  0  0  0
    1.2583    2.4502    0.3340 O   0  0  0  0  0  0  0  0  0  0  0  0
   -0.4923    1.2119    1.4673 C   0  0  0  0  0  0  0  0  0  0  0  0
   -1.3285    0.7137    0.2552 C   0  0  1  0  0  0  0  0  0  0  0  0
   -1.3463    1.8048   -0.8718 C   0  0  0  0  0  0  0  0  0  0  0  0
   -2.7966    0.2766    0.5865 C   0  0  2  0  0  0  0  0  0  0  0  0
   -2.7961   -0.4128    1.8221 O   0  0  0  0  0  0  0  0  0  0  0  0
   -3.7352    1.4910    0.7116 C   0  0  0  0  0  0  0  0  0  0  0  0
   -3.5039    2.3090    1.5895 O   0  0  0  0  0  0  0  0  0  0  0  0
   -4.9332    1.7370   -0.1773 C   0  0  0  0  0  0  0  0  0  0  0  0
   -5.9128    0.7460   -0.0131 O   0  0  0  0  0  0  0  0  0  0  0  0
   -4.2162   -2.5595   -1.0673 H   0  0  0  0  0  0  0  0  0  0  0  0
   -4.9440   -1.6063    0.2685 H   0  0  0  0  0  0  0  0  0  0  0  0
   -3.4487   -2.5773    0.5656 H   0  0  0  0  0  0  0  0  0  0  0  0
   -3.6567   -0.2179   -1.4133 H   0  0  0  0  0  0  0  0  0  0  0  0
   -1.6704   -2.3058   -1.2085 H   0  0  0  0  0  0  0  0  0  0  0  0
   -1.6054   -0.7885   -2.1846 H   0  0  0  0  0  0  0  0  0  0  0  0
   -0.7183   -1.3195    0.6639 H   0  0  0  0  0  0  0  0  0  0  0  0
    0.8077    0.1798   -1.5370 H   0  0  0  0  0  0  0  0  0  0  0  0
    0.6695   -2.2157   -2.0427 H   0  0  0  0  0  0  0  0  0  0  0  0
    1.1420   -2.6495   -0.3615 H   0  0  0  0  0  0  0  0  0  0  0  0
    2.8358   -1.1589   -2.4712 H   0  0  0  0  0  0  0  0  0  0  0  0
    3.0662   -2.8328   -1.8778 H   0  0  0  0  0  0  0  0  0  0  0  0
    4.8744   -2.9144   -0.4372 H   0  0  0  0  0  0  0  0  0  0  0  0
    5.5858    0.0975    2.6727 H   0  0  0  0  0  0  0  0  0  0  0  0
    3.7644    1.3976    1.8975 H   0  0  0  0  0  0  0  0  0  0  0  0
    4.5122    1.0077   -1.3410 H   0  0  0  0  0  0  0  0  0  0  0  0
    3.5000    2.2041   -0.5116 H   0  0  0  0  0  0  0  0  0  0  0  0
    2.7900    1.1557   -1.7842 H   0  0  0  0  0  0  0  0  0  0  0  0
    1.5248    1.4946    2.1302 H   0  0  0  0  0  0  0  0  0  0  0  0
    1.2094    3.2483    0.9175 H   0  0  0  0  0  0  0  0  0  0  0  0
   -0.8772    2.1885    1.8243 H   0  0  0  0  0  0  0  0  0  0  0  0
   -0.5939    0.5058    2.3202 H   0  0  0  0  0  0  0  0  0  0  0  0
   -0.3744    1.9494   -1.3706 H   0  0  0  0  0  0  0  0  0  0  0  0
   -1.6354    2.7919   -0.4458 H   0  0  0  0  0  0  0  0  0  0  0  0
   -2.0754    1.5640   -1.6736 H   0  0  0  0  0  0  0  0  0  0  0  0
   -3.7394   -0.5507    2.1052 H   0  0  0  0  0  0  0  0  0  0  0  0
   -4.6200    1.7749   -1.2419 H   0  0  0  0  0  0  0  0  0  0  0  0
   -5.3810    2.7293    0.0550 H   0  0  0  0  0  0  0  0  0  0  0  0
   -6.1134    0.6862    0.9560 H   0  0  0  0  0  0  0  0  0  0  0  0
  2  1  1  0
  2  3  1  0
  4  3  1  0
  4  5  1  0
  5  6  1  0
  6  7  1  0
  7  8  1  0
  8  9  2  0
  9 10  1  0
 10 11  2  0
 10 12  1  0
 12 13  2  0
 13 14  1  0
 14  8  1  0
 14 15  1  6
 14 16  1  0
 16  5  1  0
 16 17  1  1
 16 18  1  0
 18 19  1  0
 18 20  1  0
 20 21  1  0
 21  4  1  0
 21 22  1  6
 21 23  1  0
 23  2  1  0
 23 24  1  1
 23 25  1  0
 25 26  2  0
 25 27  1  0
 27 28  1  0
  1 29  1  0
  1 30  1  0
  1 31  1  0
  2 32  1  6
  3 33  1  0
  3 34  1  0
  4 35  1  1
  5 36  1  6
  6 37  1  0
  6 38  1  0
  7 39  1  0
  7 40  1  0
  9 41  1  0
 12 42  1  0
 13 43  1  0
 15 44  1  0
 15 45  1  0
 15 46  1  0
 18 47  1  1
 19 48  1  0
 20 49  1  0
 20 50  1  0
 22 51  1  0
 22 52  1  0
 22 53  1  0
 24 54  1  0
 27 55  1  0
 27 56  1  0
 28 57  1  0
M  END
> <ID>
HT0273

> <Class>
1.0

> <Clusters>
35

> <Fold>
2

$$$$