
     RDKit          3D

 36 38  0  0  0  0  0  0  0  0999 V2000
    5.2710    0.3545   -1.2664 C   0  0  0  0  0  0  0  0  0  0  0  0
    3.7906    0.0464   -2.2017 S   0  0  0  0  0  0  0  0  0  0  0  0
    3.4726    1.2459   -3.0499 O   0  0  0  0  0  0  0  0  0  0  0  0
    4.0018   -1.1384   -3.1020 O   0  0  0  0  0  0  0  0  0  0  0  0
    2.4577   -0.2732   -1.0975 C   0  0  0  0  0  0  0  0  0  0  0  0
    1.6762    0.7829   -0.6127 C   0  0  0  0  0  0  0  0  0  0  0  0
    0.6259    0.5316    0.2743 C   0  0  0  0  0  0  0  0  0  0  0  0
    0.3376   -0.7828    0.6820 C   0  0  0  0  0  0  0  0  0  0  0  0
    1.1423   -1.8343    0.2147 C   0  0  0  0  0  0  0  0  0  0  0  0
    2.1929   -1.5811   -0.6720 C   0  0  0  0  0  0  0  0  0  0  0  0
   -0.7656   -1.0603    1.6312 C   0  0  0  0  0  0  0  0  0  0  0  0
   -0.6198   -1.9800    2.8198 C   0  0  0  0  0  0  0  0  0  0  0  0
   -1.8640   -1.8579    3.4985 O   0  0  0  0  0  0  0  0  0  0  0  0
   -2.6728   -0.9887    2.7959 C   0  0  0  0  0  0  0  0  0  0  0  0
   -3.8527   -0.7040    3.1303 O   0  0  0  0  0  0  0  0  0  0  0  0
   -1.9804   -0.4965    1.6233 C   0  0  0  0  0  0  0  0  0  0  0  0
   -2.5588    0.3993    0.5956 C   0  0  0  0  0  0  0  0  0  0  0  0
   -2.3967    0.1215   -0.7737 C   0  0  0  0  0  0  0  0  0  0  0  0
   -2.9505    0.9707   -1.7363 C   0  0  0  0  0  0  0  0  0  0  0  0
   -3.6775    2.0967   -1.3419 C   0  0  0  0  0  0  0  0  0  0  0  0
   -3.8550    2.3732    0.0161 C   0  0  0  0  0  0  0  0  0  0  0  0
   -3.3021    1.5269    0.9824 C   0  0  0  0  0  0  0  0  0  0  0  0
    6.1136    0.5565   -1.9593 H   0  0  0  0  0  0  0  0  0  0  0  0
    5.1167    1.2335   -0.6070 H   0  0  0  0  0  0  0  0  0  0  0  0
    5.5088   -0.5338   -0.6455 H   0  0  0  0  0  0  0  0  0  0  0  0
    1.8842    1.8017   -0.9139 H   0  0  0  0  0  0  0  0  0  0  0  0
    0.0484    1.3657    0.6524 H   0  0  0  0  0  0  0  0  0  0  0  0
    0.9503   -2.8540    0.5233 H   0  0  0  0  0  0  0  0  0  0  0  0
    2.8001   -2.4052   -1.0242 H   0  0  0  0  0  0  0  0  0  0  0  0
   -0.4675   -3.0309    2.4962 H   0  0  0  0  0  0  0  0  0  0  0  0
    0.2089   -1.6427    3.4775 H   0  0  0  0  0  0  0  0  0  0  0  0
   -1.8511   -0.7560   -1.0972 H   0  0  0  0  0  0  0  0  0  0  0  0
   -2.8195    0.7532   -2.7884 H   0  0  0  0  0  0  0  0  0  0  0  0
   -4.1060    2.7529   -2.0883 H   0  0  0  0  0  0  0  0  0  0  0  0
   -4.4197    3.2449    0.3206 H   0  0  0  0  0  0  0  0  0  0  0  0
   -3.4400    1.7619    2.0304 H   0  0  0  0  0  0  0  0  0  0  0  0
  1  2  1  0
  2  3  2  0
  2  4  2  0
  2  5  1  0
  5  6  2  0
  6  7  1  0
  7  8  2  0
  8  9  1  0
  9 10  2  0
 10  5  1  0
  8 11  1  0
 11 12  1  0
 12 13  1  0
 13 14  1  0
 14 15  2  0
 14 16  1  0
 16 11  2  0
 16 17  1  0
 17 18  2  0
 18 19  1  0
 19 20  2  0
 20 21  1  0
 21 22  2  0
 22 17  1  0
  1 23  1  0
  1 24  1  0
  1 25  1  0
  6 26  1  0
  7 27  1  0
  9 28  1  0
 10 29  1  0
 12 30  1  0
 12 31  1  0
 18 32  1  0
 19 33  1  0
 20 34  1  0
 21 35  1  0
 22 36  1  0
M  END
> <ID>
HT1838

> <Class>
1.0

> <Clusters>
238

> <Fold>
2

$$$$