
     RDKit          3D

 49 52  0  0  0  0  0  0  0  0999 V2000
    6.2397    0.8018   -1.0995 C   0  0  0  0  0  0  0  0  0  0  0  0
    4.7794    0.7057   -1.2492 N   0  0  0  0  0  0  0  0  0  0  0  0
    4.1010    1.3231   -0.0871 C   0  0  0  0  0  0  0  0  0  0  0  0
    2.6607    0.8141    0.0465 C   0  0  0  0  0  0  0  0  0  0  0  0
    2.6125   -0.6502    0.2967 N   0  0  0  0  0  0  0  0  0  0  0  0
    1.3404   -1.2429   -0.1739 C   0  0  0  0  0  0  0  0  0  0  0  0
    0.1456   -0.7353    0.6490 C   0  0  0  0  0  0  0  0  0  0  0  0
   -1.1546   -1.4718    0.2723 C   0  0  0  0  0  0  0  0  0  0  0  0
   -2.3235   -0.5805    0.3303 N   0  0  0  0  0  0  0  0  0  0  0  0
   -2.8153    0.0545   -0.8725 C   0  0  0  0  0  0  0  0  0  0  0  0
   -1.9387    0.6961   -1.7661 C   0  0  0  0  0  0  0  0  0  0  0  0
   -2.4439    1.4447   -2.8337 C   0  0  0  0  0  0  0  0  0  0  0  0
   -3.8239    1.5659   -3.0159 C   0  0  0  0  0  0  0  0  0  0  0  0
   -4.7038    0.9151   -2.1478 C   0  0  0  0  0  0  0  0  0  0  0  0
   -4.2028    0.1447   -1.0931 C   0  0  0  0  0  0  0  0  0  0  0  0
   -5.3192   -0.8462   -0.0999 S   0  0  0  0  0  0  0  0  0  0  0  0
   -4.5179   -0.4071    1.4424 C   0  0  0  0  0  0  0  0  0  0  0  0
   -5.2930   -0.0989    2.5648 C   0  0  0  0  0  0  0  0  0  0  0  0
   -4.6782    0.1308    3.7969 C   0  0  0  0  0  0  0  0  0  0  0  0
   -3.2869    0.0562    3.9094 C   0  0  0  0  0  0  0  0  0  0  0  0
   -2.5169    0.3537    5.4572 Cl  0  0  0  0  0  0  0  0  0  0  0  0
   -2.5062   -0.2292    2.7834 C   0  0  0  0  0  0  0  0  0  0  0  0
   -3.1132   -0.4574    1.5360 C   0  0  0  0  0  0  0  0  0  0  0  0
    3.7851   -1.3756   -0.2563 C   0  0  0  0  0  0  0  0  0  0  0  0
    4.3526   -0.6913   -1.5113 C   0  0  0  0  0  0  0  0  0  0  0  0
    6.5384    1.8535   -0.8991 H   0  0  0  0  0  0  0  0  0  0  0  0
    6.5985    0.1559   -0.2676 H   0  0  0  0  0  0  0  0  0  0  0  0
    6.7386    0.4915   -2.0425 H   0  0  0  0  0  0  0  0  0  0  0  0
    4.6415    1.1053    0.8631 H   0  0  0  0  0  0  0  0  0  0  0  0
    4.0818    2.4260   -0.2240 H   0  0  0  0  0  0  0  0  0  0  0  0
    2.1825    1.3414    0.8995 H   0  0  0  0  0  0  0  0  0  0  0  0
    2.1084    1.0887   -0.8813 H   0  0  0  0  0  0  0  0  0  0  0  0
    1.3714   -2.3486   -0.0502 H   0  0  0  0  0  0  0  0  0  0  0  0
    1.1830   -1.0270   -1.2547 H   0  0  0  0  0  0  0  0  0  0  0  0
    0.3693   -0.9053    1.7232 H   0  0  0  0  0  0  0  0  0  0  0  0
    0.0198    0.3570    0.4988 H   0  0  0  0  0  0  0  0  0  0  0  0
   -1.3035   -2.3360    0.9563 H   0  0  0  0  0  0  0  0  0  0  0  0
   -1.0798   -1.9009   -0.7521 H   0  0  0  0  0  0  0  0  0  0  0  0
   -0.8685    0.6457   -1.6281 H   0  0  0  0  0  0  0  0  0  0  0  0
   -1.7642    1.9436   -3.5126 H   0  0  0  0  0  0  0  0  0  0  0  0
   -4.2111    2.1511   -3.8398 H   0  0  0  0  0  0  0  0  0  0  0  0
   -5.7712    0.9818   -2.3163 H   0  0  0  0  0  0  0  0  0  0  0  0
   -6.3724   -0.0641    2.4895 H   0  0  0  0  0  0  0  0  0  0  0  0
   -5.2837    0.3594    4.6645 H   0  0  0  0  0  0  0  0  0  0  0  0
   -1.4331   -0.2272    2.8832 H   0  0  0  0  0  0  0  0  0  0  0  0
    4.5786   -1.4097    0.5208 H   0  0  0  0  0  0  0  0  0  0  0  0
    3.5494   -2.4363   -0.4953 H   0  0  0  0  0  0  0  0  0  0  0  0
    3.5641   -0.6764   -2.2936 H   0  0  0  0  0  0  0  0  0  0  0  0
    5.1833   -1.3099   -1.9202 H   0  0  0  0  0  0  0  0  0  0  0  0
  1  2  1  0
  2  3  1  0
  3  4  1  0
  4  5  1  0
  5  6  1  0
  6  7  1  0
  7  8  1  0
  8  9  1  0
  9 10  1  0
 10 11  2  0
 11 12  1  0
 12 13  2  0
 13 14  1  0
 14 15  2  0
 15 10  1  0
 15 16  1  0
 16 17  1  0
 17 18  2  0
 18 19  1  0
 19 20  2  0
 20 21  1  0
 20 22  1  0
 22 23  2  0
 23  9  1  0
 23 17  1  0
  5 24  1  0
 24 25  1  0
 25  2  1  0
  1 26  1  0
  1 27  1  0
  1 28  1  0
  3 29  1  0
  3 30  1  0
  4 31  1  0
  4 32  1  0
  6 33  1  0
  6 34  1  0
  7 35  1  0
  7 36  1  0
  8 37  1  0
  8 38  1  0
 11 39  1  0
 12 40  1  0
 13 41  1  0
 14 42  1  0
 18 43  1  0
 19 44  1  0
 22 45  1  0
 24 46  1  0
 24 47  1  0
 25 48  1  0
 25 49  1  0
M  END
> <ID>
HT1747

> <Class>
1.0

> <Clusters>
205

> <Fold>
2

$$$$