
     RDKit          3D

 57 60  0  0  0  0  0  0  0  0999 V2000
    8.5604   -0.2116   -3.6058 Cl  0  0  0  0  0  0  0  0  0  0  0  0
    7.5046    0.5275   -2.4086 C   0  0  0  0  0  0  0  0  0  0  0  0
    7.9132    1.7169   -1.7957 C   0  0  0  0  0  0  0  0  0  0  0  0
    7.0964    2.3373   -0.8495 C   0  0  0  0  0  0  0  0  0  0  0  0
    5.8685    1.7700   -0.5060 C   0  0  0  0  0  0  0  0  0  0  0  0
    5.4471    0.5734   -1.1045 C   0  0  0  0  0  0  0  0  0  0  0  0
    4.1857    0.0011   -0.7218 N   0  0  0  0  0  0  0  0  0  0  0  0
    2.9368    0.7270   -0.9458 C   0  0  0  0  0  0  0  0  0  0  0  0
    2.1849    0.8545    0.3822 C   0  0  0  0  0  0  0  0  0  0  0  0
    1.9994   -0.4575    1.0387 N   0  0  0  0  0  0  0  0  0  0  0  0
    0.9838   -1.2995    0.3650 C   0  0  0  0  0  0  0  0  0  0  0  0
    0.2567   -2.2091    1.3691 C   0  0  0  0  0  0  0  0  0  0  0  0
   -0.3281   -1.4608    2.5819 C   0  0  0  0  0  0  0  0  0  0  0  0
   -1.3725   -0.4058    2.2069 C   0  0  0  0  0  0  0  0  0  0  0  0
   -2.4221   -1.0006    1.4468 O   0  0  0  0  0  0  0  0  0  0  0  0
   -3.5276   -0.3031    0.9391 C   0  0  0  0  0  0  0  0  0  0  0  0
   -3.7116    1.0765    1.1501 C   0  0  0  0  0  0  0  0  0  0  0  0
   -4.8274    1.7290    0.6187 C   0  0  0  0  0  0  0  0  0  0  0  0
   -5.7845    1.0129   -0.1135 C   0  0  0  0  0  0  0  0  0  0  0  0
   -6.9459    1.7327   -0.7601 C   0  0  0  0  0  0  0  0  0  0  0  0
   -8.1813    0.8301   -0.8722 C   0  0  0  0  0  0  0  0  0  0  0  0
   -7.8069   -0.4953   -1.4661 C   0  0  0  0  0  0  0  0  0  0  0  0
   -8.5822   -1.0745   -2.2723 O   0  0  0  0  0  0  0  0  0  0  0  0
   -6.5667   -1.1054   -1.0963 N   0  0  0  0  0  0  0  0  0  0  0  0
   -5.6001   -0.3672   -0.3347 C   0  0  0  0  0  0  0  0  0  0  0  0
   -4.4746   -1.0141    0.1933 C   0  0  0  0  0  0  0  0  0  0  0  0
    3.2913   -1.1505    1.2565 C   0  0  0  0  0  0  0  0  0  0  0  0
    4.1241   -1.2865   -0.0297 C   0  0  0  0  0  0  0  0  0  0  0  0
    6.2673   -0.0507   -2.0676 C   0  0  0  0  0  0  0  0  0  0  0  0
    5.7268   -1.5199   -2.8795 Cl  0  0  0  0  0  0  0  0  0  0  0  0
    8.8641    2.1645   -2.0557 H   0  0  0  0  0  0  0  0  0  0  0  0
    7.4165    3.2584   -0.3798 H   0  0  0  0  0  0  0  0  0  0  0  0
    5.2467    2.2556    0.2356 H   0  0  0  0  0  0  0  0  0  0  0  0
    2.3166    0.1734   -1.6827 H   0  0  0  0  0  0  0  0  0  0  0  0
    3.1330    1.7405   -1.3593 H   0  0  0  0  0  0  0  0  0  0  0  0
    2.7624    1.5200    1.0606 H   0  0  0  0  0  0  0  0  0  0  0  0
    1.2048    1.3523    0.2150 H   0  0  0  0  0  0  0  0  0  0  0  0
    0.2180   -0.6747   -0.1449 H   0  0  0  0  0  0  0  0  0  0  0  0
    1.4375   -1.9293   -0.4285 H   0  0  0  0  0  0  0  0  0  0  0  0
    0.9603   -2.9839    1.7398 H   0  0  0  0  0  0  0  0  0  0  0  0
   -0.5575   -2.7495    0.8394 H   0  0  0  0  0  0  0  0  0  0  0  0
    0.4904   -0.9763    3.1567 H   0  0  0  0  0  0  0  0  0  0  0  0
   -0.8051   -2.2052    3.2556 H   0  0  0  0  0  0  0  0  0  0  0  0
   -1.7918    0.0271    3.1409 H   0  0  0  0  0  0  0  0  0  0  0  0
   -0.8949    0.4112    1.6256 H   0  0  0  0  0  0  0  0  0  0  0  0
   -2.9947    1.6555    1.7160 H   0  0  0  0  0  0  0  0  0  0  0  0
   -4.9422    2.7947    0.7740 H   0  0  0  0  0  0  0  0  0  0  0  0
   -6.6378    2.0636   -1.7755 H   0  0  0  0  0  0  0  0  0  0  0  0
   -7.2174    2.6361   -0.1716 H   0  0  0  0  0  0  0  0  0  0  0  0
   -8.6000    0.6574    0.1426 H   0  0  0  0  0  0  0  0  0  0  0  0
   -8.9577    1.3281   -1.4924 H   0  0  0  0  0  0  0  0  0  0  0  0
   -6.3679   -2.0882   -1.3912 H   0  0  0  0  0  0  0  0  0  0  0  0
   -4.3340   -2.0750    0.0267 H   0  0  0  0  0  0  0  0  0  0  0  0
    3.8824   -0.5735    2.0010 H   0  0  0  0  0  0  0  0  0  0  0  0
    3.1290   -2.1562    1.6980 H   0  0  0  0  0  0  0  0  0  0  0  0
    5.1455   -1.6355    0.2389 H   0  0  0  0  0  0  0  0  0  0  0  0
    3.6783   -2.0472   -0.7031 H   0  0  0  0  0  0  0  0  0  0  0  0
  1  2  1  0
  2  3  2  0
  3  4  1  0
  4  5  2  0
  5  6  1  0
  6  7  1  0
  7  8  1  0
  8  9  1  0
  9 10  1  0
 10 11  1  0
 11 12  1  0
 12 13  1  0
 13 14  1  0
 14 15  1  0
 15 16  1  0
 16 17  2  0
 17 18  1  0
 18 19  2  0
 19 20  1  0
 20 21  1  0
 21 22  1  0
 22 23  2  0
 22 24  1  0
 24 25  1  0
 25 19  1  0
 25 26  2  0
 26 16  1  0
 10 27  1  0
 27 28  1  0
 28  7  1  0
  6 29  2  0
 29  2  1  0
 29 30  1  0
  3 31  1  0
  4 32  1  0
  5 33  1  0
  8 34  1  0
  8 35  1  0
  9 36  1  0
  9 37  1  0
 11 38  1  0
 11 39  1  0
 12 40  1  0
 12 41  1  0
 13 42  1  0
 13 43  1  0
 14 44  1  0
 14 45  1  0
 17 46  1  0
 18 47  1  0
 20 48  1  0
 20 49  1  0
 21 50  1  0
 21 51  1  0
 24 52  1  0
 26 53  1  0
 27 54  1  0
 27 55  1  0
 28 56  1  0
 28 57  1  0
M  END
> <ID>
HT0180

> <Class>
1.0

> <Clusters>
205

> <Fold>
2

$$$$