
     RDKit          3D

 54 57  0  0  0  0  0  0  0  0999 V2000
    2.6194   -4.0642    1.5465 C   0  0  0  0  0  0  0  0  0  0  0  0
    2.1516   -2.7901    0.9861 N   0  0  0  0  0  0  0  0  0  0  0  0
    3.0119   -1.6248    0.9973 C   0  0  0  0  0  0  0  0  0  0  0  0
    3.9891   -1.4438    2.0192 C   0  0  0  0  0  0  0  0  0  0  0  0
    4.8399   -0.3233    2.0192 C   0  0  0  0  0  0  0  0  0  0  0  0
    4.6916    0.6017    0.9916 C   0  0  0  0  0  0  0  0  0  0  0  0
    5.3562    1.7687    0.6814 C   0  0  0  0  0  0  0  0  0  0  0  0
    6.5413    2.3429    1.3967 C   0  0  0  0  0  0  0  0  0  0  0  0
    4.8251    2.2423   -0.4741 N   0  0  0  0  0  0  0  0  0  0  0  0
    5.2536    3.4322   -1.2009 C   0  0  0  0  0  0  0  0  0  0  0  0
    3.8515    1.4409   -0.8957 N   0  0  0  0  0  0  0  0  0  0  0  0
    3.7652    0.4402   -0.0001 C   0  0  0  0  0  0  0  0  0  0  0  0
    2.9109   -0.6570   -0.0352 C   0  0  0  0  0  0  0  0  0  0  0  0
    0.8297   -2.7027    0.4186 C   0  0  0  0  0  0  0  0  0  0  0  0
    0.3633   -3.6707   -0.4808 C   0  0  0  0  0  0  0  0  0  0  0  0
   -0.9099   -3.5168   -1.0257 C   0  0  0  0  0  0  0  0  0  0  0  0
   -1.6682   -2.4438   -0.6848 N   0  0  0  0  0  0  0  0  0  0  0  0
   -1.2113   -1.5106    0.1942 C   0  0  0  0  0  0  0  0  0  0  0  0
   -2.0010   -0.3582    0.5213 N   0  0  0  0  0  0  0  0  0  0  0  0
   -3.3780   -0.1900    0.1435 C   0  0  0  0  0  0  0  0  0  0  0  0
   -4.2791   -1.2632    0.1782 C   0  0  0  0  0  0  0  0  0  0  0  0
   -5.6122   -1.0758   -0.1858 C   0  0  0  0  0  0  0  0  0  0  0  0
   -6.0772    0.1888   -0.5821 C   0  0  0  0  0  0  0  0  0  0  0  0
   -7.5270    0.3407   -0.9624 C   0  0  0  0  0  0  0  0  0  0  0  0
   -5.1857    1.2910   -0.5714 C   0  0  0  0  0  0  0  0  0  0  0  0
   -3.8432    1.0830   -0.2099 C   0  0  0  0  0  0  0  0  0  0  0  0
   -5.7228    2.9219   -1.0257 S   0  0  0  0  0  0  0  0  0  0  0  0
   -6.0253    2.9515   -2.4972 O   0  0  0  0  0  0  0  0  0  0  0  0
   -6.9625    3.2767   -0.2539 O   0  0  0  0  0  0  0  0  0  0  0  0
   -4.5190    4.1180   -0.6841 N   0  0  0  0  0  0  0  0  0  0  0  0
    0.0339   -1.6417    0.7249 N   0  0  0  0  0  0  0  0  0  0  0  0
    2.7665   -3.9700    2.6414 H   0  0  0  0  0  0  0  0  0  0  0  0
    1.8793   -4.8771    1.3930 H   0  0  0  0  0  0  0  0  0  0  0  0
    3.5740   -4.3599    1.0634 H   0  0  0  0  0  0  0  0  0  0  0  0
    4.0947   -2.1591    2.8211 H   0  0  0  0  0  0  0  0  0  0  0  0
    5.5841   -0.1916    2.7939 H   0  0  0  0  0  0  0  0  0  0  0  0
    6.5613    3.4466    1.2896 H   0  0  0  0  0  0  0  0  0  0  0  0
    6.4923    2.1009    2.4785 H   0  0  0  0  0  0  0  0  0  0  0  0
    7.4717    1.9160    0.9692 H   0  0  0  0  0  0  0  0  0  0  0  0
    6.3195    3.3297   -1.4934 H   0  0  0  0  0  0  0  0  0  0  0  0
    5.1284    4.3296   -0.5600 H   0  0  0  0  0  0  0  0  0  0  0  0
    4.6421    3.5625   -2.1188 H   0  0  0  0  0  0  0  0  0  0  0  0
    2.2068   -0.7665   -0.8498 H   0  0  0  0  0  0  0  0  0  0  0  0
    0.9798   -4.5104   -0.7744 H   0  0  0  0  0  0  0  0  0  0  0  0
   -1.2920   -4.2446   -1.7286 H   0  0  0  0  0  0  0  0  0  0  0  0
   -1.5119    0.4481    0.9726 H   0  0  0  0  0  0  0  0  0  0  0  0
   -3.9591   -2.2431    0.5064 H   0  0  0  0  0  0  0  0  0  0  0  0
   -6.2853   -1.9239   -0.1535 H   0  0  0  0  0  0  0  0  0  0  0  0
   -7.6227    0.9031   -1.9135 H   0  0  0  0  0  0  0  0  0  0  0  0
   -8.0126   -0.6468   -1.1144 H   0  0  0  0  0  0  0  0  0  0  0  0
   -8.0718    0.8733   -0.1559 H   0  0  0  0  0  0  0  0  0  0  0  0
   -3.1414    1.9047   -0.2124 H   0  0  0  0  0  0  0  0  0  0  0  0
   -3.6926    3.9197   -1.2913 H   0  0  0  0  0  0  0  0  0  0  0  0
   -4.2233    3.9948    0.3100 H   0  0  0  0  0  0  0  0  0  0  0  0
  1  2  1  0
  2  3  1  0
  3  4  1  0
  4  5  2  0
  5  6  1  0
  6  7  2  0
  7  8  1  0
  7  9  1  0
  9 10  1  0
  9 11  1  0
 11 12  2  0
 12  6  1  0
 12 13  1  0
 13  3  2  0
  2 14  1  0
 14 15  2  0
 15 16  1  0
 16 17  2  0
 17 18  1  0
 18 19  1  0
 19 20  1  0
 20 21  2  0
 21 22  1  0
 22 23  2  0
 23 24  1  0
 23 25  1  0
 25 26  2  0
 26 20  1  0
 25 27  1  0
 27 28  2  0
 27 29  2  0
 27 30  1  0
 18 31  2  0
 31 14  1  0
  1 32  1  0
  1 33  1  0
  1 34  1  0
  4 35  1  0
  5 36  1  0
  8 37  1  0
  8 38  1  0
  8 39  1  0
 10 40  1  0
 10 41  1  0
 10 42  1  0
 13 43  1  0
 15 44  1  0
 16 45  1  0
 19 46  1  0
 21 47  1  0
 22 48  1  0
 24 49  1  0
 24 50  1  0
 24 51  1  0
 26 52  1  0
 30 53  1  0
 30 54  1  0
M  END
> <ID>
HT1600

> <Class>
1.0

> <Clusters>
212

> <Fold>
2

$$$$