
     RDKit          3D

 43 44  0  0  0  0  0  0  0  0999 V2000
    5.7450   -2.4481   -1.3237 O   0  0  0  0  0  0  0  0  0  0  0  0
    5.2889   -1.4846   -0.6522 C   0  0  0  0  0  0  0  0  0  0  0  0
    5.8327   -1.1526    0.5589 N   0  0  0  0  0  0  0  0  0  0  0  0
    4.2203   -0.7301   -1.1134 C   0  0  0  0  0  0  0  0  0  0  0  0
    3.4987   -0.8675   -2.2425 N   0  0  0  0  0  0  0  0  0  0  0  0
    3.7498    0.2949   -0.3699 C   0  0  0  0  0  0  0  0  0  0  0  0
    2.5778    0.1305   -2.1316 C   0  0  0  0  0  0  0  0  0  0  0  0
    4.2739    0.6263    0.8341 N   0  0  0  0  0  0  0  0  0  0  0  0
    2.7179    0.8670   -0.9998 N   0  0  0  0  0  0  0  0  0  0  0  0
    5.3309   -0.1074    1.3010 C   0  0  0  0  0  0  0  0  0  0  0  0
    1.8468    1.9325   -0.5189 C   0  0  0  0  0  0  0  0  0  0  0  0
    5.9091    0.2170    2.5650 N   0  0  0  0  0  0  0  0  0  0  0  0
    0.8331    1.3683    0.2858 O   0  0  0  0  0  0  0  0  0  0  0  0
   -0.1176    2.3508    0.6521 C   0  0  0  0  0  0  0  0  0  0  0  0
   -1.3038    2.3400   -0.3170 C   0  0  0  0  0  0  0  0  0  0  0  0
   -1.8175    1.0198   -0.4863 O   0  0  0  0  0  0  0  0  0  0  0  0
   -2.5395    0.3380    0.4998 C   0  0  0  0  0  0  0  0  0  0  0  0
   -2.9861   -1.0766    0.2350 C   0  0  2  0  0  0  0  0  0  0  0  0
   -2.8488    0.9121    1.5803 O   0  0  0  0  0  0  0  0  0  0  0  0
   -4.4124   -1.1570   -0.3895 C   0  0  0  0  0  0  0  0  0  0  0  0
   -2.8653   -1.8876    1.4513 N   0  0  0  0  0  0  0  0  0  0  0  0
   -4.4317   -0.5596   -1.8050 C   0  0  0  0  0  0  0  0  0  0  0  0
   -5.5049   -0.4992    0.4714 C   0  0  0  0  0  0  0  0  0  0  0  0
    6.6403   -1.7058    0.9261 H   0  0  0  0  0  0  0  0  0  0  0  0
    1.8037    0.3057   -2.8675 H   0  0  0  0  0  0  0  0  0  0  0  0
    1.4165    2.4667   -1.3964 H   0  0  0  0  0  0  0  0  0  0  0  0
    2.4522    2.6550    0.0741 H   0  0  0  0  0  0  0  0  0  0  0  0
    5.5299    1.0087    3.1303 H   0  0  0  0  0  0  0  0  0  0  0  0
    6.7156   -0.3305    2.9390 H   0  0  0  0  0  0  0  0  0  0  0  0
    0.3073    3.3806    0.7190 H   0  0  0  0  0  0  0  0  0  0  0  0
   -0.4856    2.1068    1.6702 H   0  0  0  0  0  0  0  0  0  0  0  0
   -0.9695    2.7164   -1.3059 H   0  0  0  0  0  0  0  0  0  0  0  0
   -2.1049    3.0188    0.0480 H   0  0  0  0  0  0  0  0  0  0  0  0
   -2.2728   -1.5051   -0.5043 H   0  0  0  0  0  0  0  0  0  0  0  0
   -4.6765   -2.2329   -0.4938 H   0  0  0  0  0  0  0  0  0  0  0  0
   -3.1370   -2.8736    1.2320 H   0  0  0  0  0  0  0  0  0  0  0  0
   -3.5148   -1.5373    2.1906 H   0  0  0  0  0  0  0  0  0  0  0  0
   -3.6631   -1.0476   -2.4414 H   0  0  0  0  0  0  0  0  0  0  0  0
   -5.4230   -0.7276   -2.2776 H   0  0  0  0  0  0  0  0  0  0  0  0
   -4.2349    0.5332   -1.7766 H   0  0  0  0  0  0  0  0  0  0  0  0
   -5.5728   -0.9817    1.4672 H   0  0  0  0  0  0  0  0  0  0  0  0
   -6.4947   -0.6188   -0.0191 H   0  0  0  0  0  0  0  0  0  0  0  0
   -5.3133    0.5866    0.6013 H   0  0  0  0  0  0  0  0  0  0  0  0
  1  2  2  0
  2  3  1  0
  4  2  1  0
  5  4  1  0
  6  4  2  0
  7  5  2  0
  8  6  1  0
  6  9  1  0
  9  7  1  0
 10  8  2  0
 11  9  1  0
  3 10  1  0
 10 12  1  0
 13 11  1  0
 14 13  1  0
 15 14  1  0
 16 15  1  0
 17 16  1  0
 18 17  1  0
 17 19  2  0
 20 18  1  0
 18 21  1  0
 22 20  1  0
 20 23  1  0
  3 24  1  0
  7 25  1  0
 11 26  1  0
 11 27  1  0
 12 28  1  0
 12 29  1  0
 14 30  1  0
 14 31  1  0
 15 32  1  0
 15 33  1  0
 18 34  1  6
 20 35  1  0
 21 36  1  0
 21 37  1  0
 22 38  1  0
 22 39  1  0
 22 40  1  0
 23 41  1  0
 23 42  1  0
 23 43  1  0
M  END
> <ID>
HT2160

> <Class>
1.0

> <Clusters>
116

> <Fold>
2

$$$$