
     RDKit          3D

 44 46  0  0  0  0  0  0  0  0999 V2000
   -1.2885   -0.0005    1.6770 C   0  0  0  0  0  0  0  0  0  0  0  0
   -1.4618    0.3201    0.1686 C   0  0  0  0  0  0  0  0  0  0  0  0
   -0.5641   -0.6596   -0.6511 C   0  0  0  0  0  0  0  0  0  0  0  0
    0.8684   -0.3931   -0.4270 N   0  0  0  0  0  0  0  0  0  0  0  0
    1.7508   -1.4211    0.0750 C   0  0  0  0  0  0  0  0  0  0  0  0
    1.6846   -2.7375   -0.4158 C   0  0  0  0  0  0  0  0  0  0  0  0
    2.6497   -3.6779   -0.0419 C   0  0  0  0  0  0  0  0  0  0  0  0
    3.7002   -3.3085    0.8024 C   0  0  0  0  0  0  0  0  0  0  0  0
    3.7828   -2.0004    1.2862 C   0  0  0  0  0  0  0  0  0  0  0  0
    2.8061   -1.0626    0.9353 C   0  0  0  0  0  0  0  0  0  0  0  0
    2.8510    0.5898    1.6347 S   0  0  0  0  0  0  0  0  0  0  0  0
    2.5002    1.3838    0.0628 C   0  0  0  0  0  0  0  0  0  0  0  0
    3.2028    2.5324   -0.3156 C   0  0  0  0  0  0  0  0  0  0  0  0
    2.8478    3.2150   -1.4818 C   0  0  0  0  0  0  0  0  0  0  0  0
    1.7936    2.7496   -2.2725 C   0  0  0  0  0  0  0  0  0  0  0  0
    1.1042    1.5875   -1.9124 C   0  0  0  0  0  0  0  0  0  0  0  0
    1.4585    0.8881   -0.7445 C   0  0  0  0  0  0  0  0  0  0  0  0
   -2.9051    0.3544   -0.2904 N   0  0  0  0  0  0  0  0  0  0  0  0
   -3.7320    1.1723    0.6372 C   0  0  0  0  0  0  0  0  0  0  0  0
   -3.5081   -1.0001   -0.3793 C   0  0  0  0  0  0  0  0  0  0  0  0
   -2.9972    0.9988   -1.6290 C   0  0  0  0  0  0  0  0  0  0  0  0
   -1.7056    0.8074    2.3123 H   0  0  0  0  0  0  0  0  0  0  0  0
   -1.7576   -0.9670    1.9486 H   0  0  0  0  0  0  0  0  0  0  0  0
   -0.2122   -0.0634    1.9401 H   0  0  0  0  0  0  0  0  0  0  0  0
   -1.0388    1.3423    0.0419 H   0  0  0  0  0  0  0  0  0  0  0  0
   -0.8123   -1.6973   -0.3417 H   0  0  0  0  0  0  0  0  0  0  0  0
   -0.7602   -0.6070   -1.7362 H   0  0  0  0  0  0  0  0  0  0  0  0
    0.9169   -3.0276   -1.1209 H   0  0  0  0  0  0  0  0  0  0  0  0
    2.5961   -4.6884   -0.4258 H   0  0  0  0  0  0  0  0  0  0  0  0
    4.4509   -4.0365    1.0816 H   0  0  0  0  0  0  0  0  0  0  0  0
    4.5922   -1.7234    1.9496 H   0  0  0  0  0  0  0  0  0  0  0  0
    4.0027    2.9127    0.3068 H   0  0  0  0  0  0  0  0  0  0  0  0
    3.3839    4.1105   -1.7684 H   0  0  0  0  0  0  0  0  0  0  0  0
    1.5216    3.2805   -3.1757 H   0  0  0  0  0  0  0  0  0  0  0  0
    0.3217    1.2238   -2.5634 H   0  0  0  0  0  0  0  0  0  0  0  0
   -3.2658    2.1672    0.8159 H   0  0  0  0  0  0  0  0  0  0  0  0
   -4.7551    1.3447    0.2323 H   0  0  0  0  0  0  0  0  0  0  0  0
   -3.8755    0.6635    1.6155 H   0  0  0  0  0  0  0  0  0  0  0  0
   -4.5844   -0.9387   -0.6581 H   0  0  0  0  0  0  0  0  0  0  0  0
   -3.0131   -1.6203   -1.1572 H   0  0  0  0  0  0  0  0  0  0  0  0
   -3.4492   -1.5389    0.5889 H   0  0  0  0  0  0  0  0  0  0  0  0
   -2.5093    1.9991   -1.6297 H   0  0  0  0  0  0  0  0  0  0  0  0
   -2.5338    0.3843   -2.4267 H   0  0  0  0  0  0  0  0  0  0  0  0
   -4.0572    1.1417   -1.9392 H   0  0  0  0  0  0  0  0  0  0  0  0
  1  2  1  0
  2  3  1  0
  3  4  1  0
  4  5  1  0
  5  6  2  0
  6  7  1  0
  7  8  2  0
  8  9  1  0
  9 10  2  0
 10  5  1  0
 10 11  1  0
 11 12  1  0
 12 13  2  0
 13 14  1  0
 14 15  2  0
 15 16  1  0
 16 17  2  0
 17  4  1  0
 17 12  1  0
  2 18  1  0
 18 19  1  0
 18 20  1  0
 18 21  1  0
  1 22  1  0
  1 23  1  0
  1 24  1  0
  2 25  1  0
  3 26  1  0
  3 27  1  0
  6 28  1  0
  7 29  1  0
  8 30  1  0
  9 31  1  0
 13 32  1  0
 14 33  1  0
 15 34  1  0
 16 35  1  0
 19 36  1  0
 19 37  1  0
 19 38  1  0
 20 39  1  0
 20 40  1  0
 20 41  1  0
 21 42  1  0
 21 43  1  0
 21 44  1  0
M  CHG  1  18   1
M  END
> <ID>
HT2039

> <Class>
1.0

> <Clusters>
206

> <Fold>
2

$$$$