
     RDKit          3D

 26 26  0  0  0  0  0  0  0  0999 V2000
    3.4124    0.2166   -0.7889 N   0  0  0  0  0  0  0  0  0  0  0  0
    2.5358    0.5642    0.3277 C   0  0  0  0  0  0  0  0  0  0  0  0
    1.0531    0.4515   -0.0787 C   0  0  2  0  0  0  0  0  0  0  0  0
    0.1572    1.0436    1.0297 C   0  0  0  0  0  0  0  0  0  0  0  0
   -1.3285    0.9334    0.6647 C   0  0  0  0  0  0  0  0  0  0  0  0
   -1.7163   -0.5298    0.3890 C   0  0  2  0  0  0  0  0  0  0  0  0
   -0.8346   -1.1248   -0.7227 C   0  0  0  0  0  0  0  0  0  0  0  0
    0.6529   -1.0136   -0.3626 C   0  0  0  0  0  0  0  0  0  0  0  0
   -3.1767   -0.6390    0.0314 C   0  0  0  0  0  0  0  0  0  0  0  0
   -3.9467   -1.3167    0.7619 O   0  0  0  0  0  0  0  0  0  0  0  0
   -3.6975   -0.0043   -1.0947 O   0  0  0  0  0  0  0  0  0  0  0  0
    4.3722    0.5643   -0.5619 H   0  0  0  0  0  0  0  0  0  0  0  0
    3.4894   -0.8251   -0.8363 H   0  0  0  0  0  0  0  0  0  0  0  0
    2.7469    1.6144    0.6304 H   0  0  0  0  0  0  0  0  0  0  0  0
    2.7520   -0.0897    1.2030 H   0  0  0  0  0  0  0  0  0  0  0  0
    0.9022    1.0493   -1.0062 H   0  0  0  0  0  0  0  0  0  0  0  0
    0.4063    2.1169    1.1792 H   0  0  0  0  0  0  0  0  0  0  0  0
    0.3402    0.5135    1.9909 H   0  0  0  0  0  0  0  0  0  0  0  0
   -1.5301    1.5656   -0.2277 H   0  0  0  0  0  0  0  0  0  0  0  0
   -1.9367    1.3271    1.5083 H   0  0  0  0  0  0  0  0  0  0  0  0
   -1.5411   -1.1158    1.3204 H   0  0  0  0  0  0  0  0  0  0  0  0
   -1.0136   -0.5980   -1.6856 H   0  0  0  0  0  0  0  0  0  0  0  0
   -1.0908   -2.1973   -0.8665 H   0  0  0  0  0  0  0  0  0  0  0  0
    0.8652   -1.6463    0.5277 H   0  0  0  0  0  0  0  0  0  0  0  0
    1.2439   -1.4108   -1.2150 H   0  0  0  0  0  0  0  0  0  0  0  0
   -3.1171    0.5509   -1.7109 H   0  0  0  0  0  0  0  0  0  0  0  0
  1  2  1  0
  3  2  1  0
  3  4  1  0
  4  5  1  0
  5  6  1  0
  6  7  1  0
  7  8  1  0
  8  3  1  0
  6  9  1  0
  9 10  2  0
  9 11  1  0
  1 12  1  0
  1 13  1  0
  2 14  1  0
  2 15  1  0
  3 16  1  6
  4 17  1  0
  4 18  1  0
  5 19  1  0
  5 20  1  0
  6 21  1  1
  7 22  1  0
  7 23  1  0
  8 24  1  0
  8 25  1  0
 11 26  1  0
M  END
> <ID>
HT2097

> <Class>
1.0

> <Clusters>
113

> <Fold>
2

$$$$