
     RDKit          3D

 41 42  0  0  0  0  0  0  0  0999 V2000
    8.8207    0.4345   -0.1382 O   0  0  0  0  0  0  0  0  0  0  0  0
    7.9988   -0.3906    0.6230 C   0  0  0  0  0  0  0  0  0  0  0  0
    8.5022   -1.1598    1.4849 O   0  0  0  0  0  0  0  0  0  0  0  0
    6.5146   -0.3285    0.4492 C   0  0  0  0  0  0  0  0  0  0  0  0
    5.9105    0.7302    1.3743 C   0  0  0  0  0  0  0  0  0  0  0  0
    4.4656    0.8219    1.1719 N   0  0  0  0  0  0  0  0  0  0  0  0
    3.5591   -0.1982    1.6230 C   0  0  0  0  0  0  0  0  0  0  0  0
    3.9794   -1.1106    2.3866 O   0  0  0  0  0  0  0  0  0  0  0  0
    2.1311   -0.1848    1.2235 C   0  0  0  0  0  0  0  0  0  0  0  0
    1.1739   -0.8512    2.0093 C   0  0  0  0  0  0  0  0  0  0  0  0
   -0.1742   -0.8500    1.6398 C   0  0  0  0  0  0  0  0  0  0  0  0
   -0.5900   -0.1925    0.4776 C   0  0  0  0  0  0  0  0  0  0  0  0
    0.3626    0.4648   -0.3196 C   0  0  0  0  0  0  0  0  0  0  0  0
    1.7113    0.4658    0.0490 C   0  0  0  0  0  0  0  0  0  0  0  0
   -1.9792   -0.2119    0.1288 N   0  0  0  0  0  0  0  0  0  0  0  0
   -2.4240    0.3647   -0.9150 N   0  0  0  0  0  0  0  0  0  0  0  0
   -3.8133    0.3461   -1.2646 C   0  0  0  0  0  0  0  0  0  0  0  0
   -4.2252    1.0016   -2.4280 C   0  0  0  0  0  0  0  0  0  0  0  0
   -5.5696    0.9965   -2.8027 C   0  0  0  0  0  0  0  0  0  0  0  0
   -6.5243    0.3380   -2.0152 C   0  0  0  0  0  0  0  0  0  0  0  0
   -7.8545    0.3008   -2.4329 O   0  0  0  0  0  0  0  0  0  0  0  0
   -6.1277   -0.3056   -0.8242 C   0  0  0  0  0  0  0  0  0  0  0  0
   -4.7673   -0.3106   -0.4667 C   0  0  0  0  0  0  0  0  0  0  0  0
   -7.1070   -0.9971    0.0451 C   0  0  0  0  0  0  0  0  0  0  0  0
   -6.7757   -2.0583    0.6375 O   0  0  0  0  0  0  0  0  0  0  0  0
   -8.3850   -0.4827    0.2548 O   0  0  0  0  0  0  0  0  0  0  0  0
    9.8267    0.4162   -0.0211 H   0  0  0  0  0  0  0  0  0  0  0  0
    6.2810   -0.0754   -0.6075 H   0  0  0  0  0  0  0  0  0  0  0  0
    6.0760   -1.3253    0.6702 H   0  0  0  0  0  0  0  0  0  0  0  0
    6.3713    1.7171    1.1477 H   0  0  0  0  0  0  0  0  0  0  0  0
    6.1265    0.4879    2.4380 H   0  0  0  0  0  0  0  0  0  0  0  0
    4.0873    1.7026    0.7573 H   0  0  0  0  0  0  0  0  0  0  0  0
    1.4659   -1.3651    2.9169 H   0  0  0  0  0  0  0  0  0  0  0  0
   -0.8981   -1.3629    2.2608 H   0  0  0  0  0  0  0  0  0  0  0  0
    0.0671    0.9717   -1.2294 H   0  0  0  0  0  0  0  0  0  0  0  0
    2.4229    0.9566   -0.6014 H   0  0  0  0  0  0  0  0  0  0  0  0
   -3.4996    1.5114   -3.0496 H   0  0  0  0  0  0  0  0  0  0  0  0
   -5.8684    1.4963   -3.7155 H   0  0  0  0  0  0  0  0  0  0  0  0
   -8.1561    0.7500   -3.2898 H   0  0  0  0  0  0  0  0  0  0  0  0
   -4.4555   -0.8119    0.4415 H   0  0  0  0  0  0  0  0  0  0  0  0
   -8.6597    0.4289   -0.0892 H   0  0  0  0  0  0  0  0  0  0  0  0
  1  2  1  0
  2  3  2  0
  2  4  1  0
  4  5  1  0
  5  6  1  0
  6  7  1  0
  7  8  2  0
  7  9  1  0
  9 10  2  0
 10 11  1  0
 11 12  2  0
 12 13  1  0
 13 14  2  0
 14  9  1  0
 12 15  1  0
 15 16  2  3
 16 17  1  0
 17 18  2  0
 18 19  1  0
 19 20  2  0
 20 21  1  0
 20 22  1  0
 22 23  2  0
 23 17  1  0
 22 24  1  0
 24 25  2  0
 24 26  1  0
  1 27  1  0
  4 28  1  0
  4 29  1  0
  5 30  1  0
  5 31  1  0
  6 32  1  0
 10 33  1  0
 11 34  1  0
 13 35  1  0
 14 36  1  0
 18 37  1  0
 19 38  1  0
 21 39  1  0
 23 40  1  0
 26 41  1  0
M  END
> <ID>
HT0224

> <Class>
1.0

> <Clusters>
27

> <Fold>
2

$$$$