
     RDKit          3D

 21 22  0  0  0  0  0  0  0  0999 V2000
   -3.4704   -0.0464   -0.0230 N   0  0  0  0  0  0  0  0  0  0  0  0
   -2.1018   -0.4775   -0.3180 C   0  0  2  0  0  0  0  0  0  0  0  0
   -1.5114   -1.3934    0.7497 C   0  0  0  0  0  0  0  0  0  0  0  0
   -1.0331    0.0545    0.6374 C   0  0  1  0  0  0  0  0  0  0  0  0
    0.3966    0.2045    0.1474 C   0  0  0  0  0  0  0  0  0  0  0  0
    0.9037   -0.4444   -1.0006 C   0  0  0  0  0  0  0  0  0  0  0  0
    2.2321   -0.2528   -1.3935 C   0  0  0  0  0  0  0  0  0  0  0  0
    3.0704    0.5819   -0.6527 C   0  0  0  0  0  0  0  0  0  0  0  0
    2.5835    1.2251    0.4861 C   0  0  0  0  0  0  0  0  0  0  0  0
    1.2567    1.0372    0.8845 C   0  0  0  0  0  0  0  0  0  0  0  0
   -3.6509    0.8101   -0.5937 H   0  0  0  0  0  0  0  0  0  0  0  0
   -3.5810    0.2332    0.9793 H   0  0  0  0  0  0  0  0  0  0  0  0
   -1.8627   -0.7334   -1.3695 H   0  0  0  0  0  0  0  0  0  0  0  0
   -0.8275   -2.1715    0.3492 H   0  0  0  0  0  0  0  0  0  0  0  0
   -2.1684   -1.5928    1.6233 H   0  0  0  0  0  0  0  0  0  0  0  0
   -1.3756    0.6898    1.4835 H   0  0  0  0  0  0  0  0  0  0  0  0
    0.2944   -1.1126   -1.5903 H   0  0  0  0  0  0  0  0  0  0  0  0
    2.6133   -0.7562   -2.2728 H   0  0  0  0  0  0  0  0  0  0  0  0
    4.0981    0.7277   -0.9593 H   0  0  0  0  0  0  0  0  0  0  0  0
    3.2344    1.8705    1.0617 H   0  0  0  0  0  0  0  0  0  0  0  0
    0.8994    1.5463    1.7714 H   0  0  0  0  0  0  0  0  0  0  0  0
  2  1  1  0
  2  3  1  0
  3  4  1  0
  4  2  1  0
  4  5  1  0
  5  6  2  0
  6  7  1  0
  7  8  2  0
  8  9  1  0
  9 10  2  0
 10  5  1  0
  1 11  1  0
  1 12  1  0
  2 13  1  6
  3 14  1  0
  3 15  1  0
  4 16  1  1
  6 17  1  0
  7 18  1  0
  8 19  1  0
  9 20  1  0
 10 21  1  0
M  END
> <ID>
HT2100

> <Class>
1.0

> <Clusters>
191

> <Fold>
2

$$$$