
     RDKit          3D

 32 34  0  0  0  0  0  0  0  0999 V2000
    0.2404   -2.2022    1.5963 C   0  0  0  0  0  0  0  0  0  0  0  0
    0.2213   -0.9621    0.6706 C   0  0  2  0  0  0  0  0  0  0  0  0
    1.6970   -0.6985    0.2349 C   0  0  0  0  0  0  0  0  0  0  0  0
    1.8676    0.4655   -0.6402 N   0  0  0  0  0  0  0  0  0  0  0  0
    2.2193    0.4479   -1.9380 C   0  0  0  0  0  0  0  0  0  0  0  0
    2.4408    1.7556   -2.3040 C   0  0  0  0  0  0  0  0  0  0  0  0
    2.2534    2.5279   -1.2160 N   0  0  0  0  0  0  0  0  0  0  0  0
    1.9232    1.7191   -0.2197 N   0  0  0  0  0  0  0  0  0  0  0  0
   -0.4184    0.3125    1.3531 C   0  0  1  0  0  0  0  0  0  0  0  0
   -1.2895    0.8879    0.3424 N   0  0  0  0  0  0  0  0  0  0  0  0
   -1.8468    0.1373   -0.7446 C   0  0  1  0  0  0  0  0  0  0  0  0
   -1.6039    1.1776   -1.7083 C   0  0  0  0  0  0  0  0  0  0  0  0
   -1.1657    2.0452   -0.5719 C   0  0  0  0  0  0  0  0  0  0  0  0
   -0.7857    3.2391   -0.4544 O   0  0  0  0  0  0  0  0  0  0  0  0
   -0.8245   -1.3124   -0.7789 S   0  0  0  0  0  0  0  0  0  0  0  0
   -1.6763   -2.5341   -0.5720 O   0  0  0  0  0  0  0  0  0  0  0  0
   -0.0537   -1.4475   -2.0615 O   0  0  0  0  0  0  0  0  0  0  0  0
   -1.2459    0.0285    2.5790 C   0  0  0  0  0  0  0  0  0  0  0  0
   -0.8346    0.3902    3.7140 O   0  0  0  0  0  0  0  0  0  0  0  0
   -2.4690   -0.6271    2.4628 O   0  0  0  0  0  0  0  0  0  0  0  0
    0.8135   -1.9857    2.5234 H   0  0  0  0  0  0  0  0  0  0  0  0
   -0.7843   -2.5176    1.8817 H   0  0  0  0  0  0  0  0  0  0  0  0
    0.7182   -3.0642    1.0826 H   0  0  0  0  0  0  0  0  0  0  0  0
    2.3305   -0.5531    1.1375 H   0  0  0  0  0  0  0  0  0  0  0  0
    2.0901   -1.6021   -0.2826 H   0  0  0  0  0  0  0  0  0  0  0  0
    2.3394   -0.4349   -2.5520 H   0  0  0  0  0  0  0  0  0  0  0  0
    2.7414    2.1184   -3.2774 H   0  0  0  0  0  0  0  0  0  0  0  0
    0.3642    1.0473    1.6348 H   0  0  0  0  0  0  0  0  0  0  0  0
   -2.9242   -0.0817   -0.5718 H   0  0  0  0  0  0  0  0  0  0  0  0
   -2.5330    1.5600   -2.1825 H   0  0  0  0  0  0  0  0  0  0  0  0
   -0.7717    0.9868   -2.4180 H   0  0  0  0  0  0  0  0  0  0  0  0
   -3.0331   -0.8235    3.2808 H   0  0  0  0  0  0  0  0  0  0  0  0
  2  1  1  1
  2  3  1  0
  3  4  1  0
  4  5  1  0
  5  6  2  0
  6  7  1  0
  7  8  2  0
  8  4  1  0
  2  9  1  0
  9 10  1  0
 10 11  1  0
 11 12  1  0
 12 13  1  0
 13 10  1  0
 13 14  2  0
 11 15  1  0
 15  2  1  0
 15 16  2  0
 15 17  2  0
  9 18  1  0
 18 19  2  0
 18 20  1  0
  1 21  1  0
  1 22  1  0
  1 23  1  0
  3 24  1  0
  3 25  1  0
  5 26  1  0
  6 27  1  0
  9 28  1  1
 11 29  1  1
 12 30  1  0
 12 31  1  0
 20 32  1  0
M  END
> <ID>
HT1985

> <Class>
1.0

> <Clusters>
219

> <Fold>
2

$$$$