
     RDKit          3D

 48 50  0  0  0  0  0  0  0  0999 V2000
    9.9887   -0.3783    0.6877 C   0  0  0  0  0  0  0  0  0  0  0  0
    8.6714   -0.0939    0.1325 N   0  0  0  0  0  0  0  0  0  0  0  0
    7.5255    0.0995    0.9749 C   0  0  0  0  0  0  0  0  0  0  0  0
    7.6663    0.1015    2.2284 O   0  0  0  0  0  0  0  0  0  0  0  0
    6.1835    0.3023    0.3851 C   0  0  0  0  0  0  0  0  0  0  0  0
    5.0687    0.5689    1.1979 C   0  0  0  0  0  0  0  0  0  0  0  0
    3.8089    0.7442    0.6171 C   0  0  0  0  0  0  0  0  0  0  0  0
    2.7183    1.0354    1.4489 O   0  0  0  0  0  0  0  0  0  0  0  0
    1.3868    0.6614    1.2124 C   0  0  0  0  0  0  0  0  0  0  0  0
    1.0525   -0.5056    0.5025 C   0  0  0  0  0  0  0  0  0  0  0  0
   -0.2877   -0.8583    0.3169 C   0  0  0  0  0  0  0  0  0  0  0  0
   -1.3124   -0.0699    0.8603 C   0  0  0  0  0  0  0  0  0  0  0  0
   -2.6833   -0.4499    0.6533 N   0  0  0  0  0  0  0  0  0  0  0  0
   -3.7333   -0.1918    1.5995 C   0  0  0  0  0  0  0  0  0  0  0  0
   -3.4524    0.0388    2.8069 O   0  0  0  0  0  0  0  0  0  0  0  0
   -5.1108   -0.2878    1.2114 N   0  0  0  0  0  0  0  0  0  0  0  0
   -5.5818   -0.1436   -0.1387 C   0  0  0  0  0  0  0  0  0  0  0  0
   -4.9571    0.7348   -1.0371 C   0  0  0  0  0  0  0  0  0  0  0  0
   -5.4509    0.8842   -2.3327 C   0  0  0  0  0  0  0  0  0  0  0  0
   -6.5824    0.1742   -2.7485 C   0  0  0  0  0  0  0  0  0  0  0  0
   -7.1474    0.4118   -4.4009 Cl  0  0  0  0  0  0  0  0  0  0  0  0
   -7.2404   -0.6979   -1.8513 C   0  0  0  0  0  0  0  0  0  0  0  0
   -6.7299   -0.8389   -0.5455 C   0  0  0  0  0  0  0  0  0  0  0  0
   -8.4712   -1.4668   -2.2839 C   0  0  0  0  0  0  0  0  0  0  0  0
   -8.9693   -2.2592   -1.2621 F   0  0  0  0  0  0  0  0  0  0  0  0
   -8.1550   -2.2854   -3.3521 F   0  0  0  0  0  0  0  0  0  0  0  0
   -9.4613   -0.5807   -2.6673 F   0  0  0  0  0  0  0  0  0  0  0  0
   -0.9757    1.1008    1.5623 C   0  0  0  0  0  0  0  0  0  0  0  0
    0.3644    1.4539    1.7445 C   0  0  0  0  0  0  0  0  0  0  0  0
    3.6819    0.6740   -0.7789 C   0  0  0  0  0  0  0  0  0  0  0  0
    4.8092    0.4065   -1.5566 C   0  0  0  0  0  0  0  0  0  0  0  0
    6.0195    0.2272   -0.9648 N   0  0  0  0  0  0  0  0  0  0  0  0
    9.9573   -1.3319    1.2563 H   0  0  0  0  0  0  0  0  0  0  0  0
   10.7315   -0.4736   -0.1315 H   0  0  0  0  0  0  0  0  0  0  0  0
   10.3024    0.4466    1.3620 H   0  0  0  0  0  0  0  0  0  0  0  0
    8.5724   -0.0444   -0.9065 H   0  0  0  0  0  0  0  0  0  0  0  0
    5.1708    0.6409    2.2733 H   0  0  0  0  0  0  0  0  0  0  0  0
    1.8244   -1.1552    0.1128 H   0  0  0  0  0  0  0  0  0  0  0  0
   -0.5285   -1.7596   -0.2326 H   0  0  0  0  0  0  0  0  0  0  0  0
   -2.9122   -1.0365   -0.1803 H   0  0  0  0  0  0  0  0  0  0  0  0
   -5.8128   -0.4865    1.9611 H   0  0  0  0  0  0  0  0  0  0  0  0
   -4.0996    1.3202   -0.7322 H   0  0  0  0  0  0  0  0  0  0  0  0
   -4.9543    1.5614   -3.0161 H   0  0  0  0  0  0  0  0  0  0  0  0
   -7.2129   -1.4984    0.1645 H   0  0  0  0  0  0  0  0  0  0  0  0
   -1.7462    1.7511    1.9545 H   0  0  0  0  0  0  0  0  0  0  0  0
    0.6103    2.3540    2.2938 H   0  0  0  0  0  0  0  0  0  0  0  0
    2.7291    0.8470   -1.2621 H   0  0  0  0  0  0  0  0  0  0  0  0
    4.7249    0.3538   -2.6347 H   0  0  0  0  0  0  0  0  0  0  0  0
  1  2  1  0
  2  3  1  0
  3  4  2  0
  3  5  1  0
  5  6  2  0
  6  7  1  0
  7  8  1  0
  8  9  1  0
  9 10  2  0
 10 11  1  0
 11 12  2  0
 12 13  1  0
 13 14  1  0
 14 15  2  0
 14 16  1  0
 16 17  1  0
 17 18  2  0
 18 19  1  0
 19 20  2  0
 20 21  1  0
 20 22  1  0
 22 23  2  0
 23 17  1  0
 22 24  1  0
 24 25  1  0
 24 26  1  0
 24 27  1  0
 12 28  1  0
 28 29  2  0
 29  9  1  0
  7 30  2  0
 30 31  1  0
 31 32  2  0
 32  5  1  0
  1 33  1  0
  1 34  1  0
  1 35  1  0
  2 36  1  0
  6 37  1  0
 10 38  1  0
 11 39  1  0
 13 40  1  0
 16 41  1  0
 18 42  1  0
 19 43  1  0
 23 44  1  0
 28 45  1  0
 29 46  1  0
 30 47  1  0
 31 48  1  0
M  END
> <ID>
HT1905

> <Class>
1.0

> <Clusters>
211

> <Fold>
2

$$$$