
     RDKit          3D

 47 48  0  0  0  0  0  0  0  0999 V2000
    6.9671    0.4695   -1.3502 O   0  0  0  0  0  0  0  0  0  0  0  0
    5.9924   -0.0107   -0.7125 C   0  0  0  0  0  0  0  0  0  0  0  0
    6.1617   -0.5334    0.5408 N   0  0  0  0  0  0  0  0  0  0  0  0
    4.7161   -0.0247   -1.2553 C   0  0  0  0  0  0  0  0  0  0  0  0
    4.2869    0.4355   -2.4462 N   0  0  0  0  0  0  0  0  0  0  0  0
    3.6895   -0.5438   -0.5474 C   0  0  0  0  0  0  0  0  0  0  0  0
    2.9528    0.1622   -2.4087 C   0  0  0  0  0  0  0  0  0  0  0  0
    3.8448   -1.0598    0.6952 N   0  0  0  0  0  0  0  0  0  0  0  0
    2.5605   -0.4407   -1.2576 N   0  0  0  0  0  0  0  0  0  0  0  0
    5.0988   -1.0543    1.2435 C   0  0  0  0  0  0  0  0  0  0  0  0
    1.2040   -0.8262   -0.8745 C   0  0  0  0  0  0  0  0  0  0  0  0
    5.2974   -1.5911    2.5510 N   0  0  0  0  0  0  0  0  0  0  0  0
    0.3882    0.3219   -0.7515 O   0  0  0  0  0  0  0  0  0  0  0  0
    0.5753    0.9595    0.5029 C   0  0  0  0  0  0  0  0  0  0  0  0
   -0.4936    0.4829    1.4984 C   0  0  0  0  0  0  0  0  0  0  0  0
    0.5196    2.4828    0.3030 C   0  0  0  0  0  0  0  0  0  0  0  0
   -1.7905    0.6023    0.9230 O   0  0  0  0  0  0  0  0  0  0  0  0
   -0.7040    2.8844   -0.2545 O   0  0  0  0  0  0  0  0  0  0  0  0
   -2.9556    0.2070    1.5861 C   0  0  0  0  0  0  0  0  0  0  0  0
   -4.2896    0.3024    0.8882 C   0  0  2  0  0  0  0  0  0  0  0  0
   -2.8953   -0.2744    2.7507 O   0  0  0  0  0  0  0  0  0  0  0  0
   -4.6042   -0.9847    0.0784 C   0  0  0  0  0  0  0  0  0  0  0  0
   -4.3709    1.5042    0.0497 N   0  0  0  0  0  0  0  0  0  0  0  0
   -3.6202   -1.2388   -1.0771 C   0  0  0  0  0  0  0  0  0  0  0  0
   -6.0446   -0.9595   -0.4523 C   0  0  0  0  0  0  0  0  0  0  0  0
    7.1146   -0.5339    0.9703 H   0  0  0  0  0  0  0  0  0  0  0  0
    2.2744    0.4109   -3.2146 H   0  0  0  0  0  0  0  0  0  0  0  0
    1.2104   -1.4446    0.0525 H   0  0  0  0  0  0  0  0  0  0  0  0
    0.7793   -1.4679   -1.6746 H   0  0  0  0  0  0  0  0  0  0  0  0
    6.2459   -1.5960    2.9874 H   0  0  0  0  0  0  0  0  0  0  0  0
    4.4924   -1.9855    3.0864 H   0  0  0  0  0  0  0  0  0  0  0  0
    1.5757    0.7479    0.9512 H   0  0  0  0  0  0  0  0  0  0  0  0
   -0.3042   -0.5817    1.7554 H   0  0  0  0  0  0  0  0  0  0  0  0
   -0.4389    1.0804    2.4346 H   0  0  0  0  0  0  0  0  0  0  0  0
    0.6500    2.9926    1.2815 H   0  0  0  0  0  0  0  0  0  0  0  0
    1.3645    2.8033   -0.3492 H   0  0  0  0  0  0  0  0  0  0  0  0
   -0.6496    2.7007   -1.2285 H   0  0  0  0  0  0  0  0  0  0  0  0
   -5.0668    0.3937    1.6811 H   0  0  0  0  0  0  0  0  0  0  0  0
   -4.5290   -1.8502    0.7748 H   0  0  0  0  0  0  0  0  0  0  0  0
   -4.2922    2.3451    0.6672 H   0  0  0  0  0  0  0  0  0  0  0  0
   -3.5650    1.5383   -0.6153 H   0  0  0  0  0  0  0  0  0  0  0  0
   -3.6855   -0.4394   -1.8444 H   0  0  0  0  0  0  0  0  0  0  0  0
   -3.8566   -2.2076   -1.5667 H   0  0  0  0  0  0  0  0  0  0  0  0
   -2.5778   -1.3020   -0.7026 H   0  0  0  0  0  0  0  0  0  0  0  0
   -6.1826   -0.1319   -1.1806 H   0  0  0  0  0  0  0  0  0  0  0  0
   -6.2840   -1.9202   -0.9563 H   0  0  0  0  0  0  0  0  0  0  0  0
   -6.7615   -0.8243    0.3854 H   0  0  0  0  0  0  0  0  0  0  0  0
  1  2  2  0
  2  3  1  0
  4  2  1  0
  5  4  1  0
  6  4  2  0
  7  5  2  0
  8  6  1  0
  6  9  1  0
  9  7  1  0
 10  8  2  0
 11  9  1  0
  3 10  1  0
 10 12  1  0
 13 11  1  0
 14 13  1  0
 15 14  1  0
 14 16  1  0
 17 15  1  0
 16 18  1  0
 19 17  1  0
 20 19  1  0
 19 21  2  0
 22 20  1  0
 20 23  1  0
 24 22  1  0
 22 25  1  0
  3 26  1  0
  7 27  1  0
 11 28  1  0
 11 29  1  0
 12 30  1  0
 12 31  1  0
 14 32  1  0
 15 33  1  0
 15 34  1  0
 16 35  1  0
 16 36  1  0
 18 37  1  0
 20 38  1  1
 22 39  1  0
 23 40  1  0
 23 41  1  0
 24 42  1  0
 24 43  1  0
 24 44  1  0
 25 45  1  0
 25 46  1  0
 25 47  1  0
M  END
> <ID>
HT2162

> <Class>
1.0

> <Clusters>
116

> <Fold>
2

$$$$