
     RDKit          3D

 20 21  0  0  0  0  0  0  0  0999 V2000
   -4.5425   -0.8335   -0.7447 N   0  0  0  0  0  0  0  0  0  0  0  0
   -3.1385   -0.6296   -0.6145 C   0  0  0  0  0  0  0  0  0  0  0  0
   -2.5849    0.0410    0.4240 N   0  0  0  0  0  0  0  0  0  0  0  0
   -1.2343    0.0852    0.2951 C   0  0  0  0  0  0  0  0  0  0  0  0
   -0.3764    0.7046    1.2024 C   0  0  0  0  0  0  0  0  0  0  0  0
    1.0066    0.6800    0.9536 C   0  0  0  0  0  0  0  0  0  0  0  0
    1.5235    0.0355   -0.2018 C   0  0  0  0  0  0  0  0  0  0  0  0
    2.8968   -0.0137   -0.4902 O   0  0  0  0  0  0  0  0  0  0  0  0
    3.9277    0.5583    0.3117 C   0  0  0  0  0  0  0  0  0  0  0  0
    5.1488    0.3111   -0.2850 F   0  0  0  0  0  0  0  0  0  0  0  0
    3.9238   -0.0124    1.5719 F   0  0  0  0  0  0  0  0  0  0  0  0
    3.7498    1.9265    0.4126 F   0  0  0  0  0  0  0  0  0  0  0  0
    0.6378   -0.5825   -1.1024 C   0  0  0  0  0  0  0  0  0  0  0  0
   -0.7265   -0.5424   -0.8307 C   0  0  0  0  0  0  0  0  0  0  0  0
   -1.9914   -1.1911   -1.7257 S   0  0  0  0  0  0  0  0  0  0  0  0
   -5.1979   -0.4606   -0.0227 H   0  0  0  0  0  0  0  0  0  0  0  0
   -4.9257   -1.3569   -1.5626 H   0  0  0  0  0  0  0  0  0  0  0  0
   -0.7667    1.1968    2.0842 H   0  0  0  0  0  0  0  0  0  0  0  0
    1.6621    1.1634    1.6637 H   0  0  0  0  0  0  0  0  0  0  0  0
    1.0080   -1.0798   -1.9899 H   0  0  0  0  0  0  0  0  0  0  0  0
  1  2  1  0
  2  3  2  0
  3  4  1  0
  4  5  2  0
  5  6  1  0
  6  7  2  0
  7  8  1  0
  8  9  1  0
  9 10  1  0
  9 11  1  0
  9 12  1  0
  7 13  1  0
 13 14  2  0
 14  4  1  0
 14 15  1  0
 15  2  1  0
  1 16  1  0
  1 17  1  0
  5 18  1  0
  6 19  1  0
 13 20  1  0
M  END
> <ID>
HT1825

> <Class>
1.0

> <Clusters>
97

> <Fold>
2

$$$$