
     RDKit          3D

 30 31  0  0  0  0  0  0  0  0999 V2000
   -0.4663    2.4685   -1.0508 C   0  0  0  0  0  0  0  0  0  0  0  0
   -0.7622    1.6908    0.2390 C   0  0  0  0  0  0  0  0  0  0  0  0
   -0.4494    0.1643    0.1692 C   0  0  0  0  0  0  0  0  0  0  0  0
   -0.8853   -0.4416    1.4958 C   0  0  0  0  0  0  0  0  0  0  0  0
   -0.1322   -0.3585    2.5047 O   0  0  0  0  0  0  0  0  0  0  0  0
   -2.1629   -1.0726    1.6336 N   0  0  0  0  0  0  0  0  0  0  0  0
   -3.1725   -0.9494    0.5924 C   0  0  0  0  0  0  0  0  0  0  0  0
   -2.5447   -1.0452   -0.7169 N   0  0  0  0  0  0  0  0  0  0  0  0
   -1.2698   -0.4435   -0.9673 C   0  0  0  0  0  0  0  0  0  0  0  0
   -0.8348   -0.4039   -2.1509 O   0  0  0  0  0  0  0  0  0  0  0  0
    1.0441   -0.1781   -0.0237 C   0  0  0  0  0  0  0  0  0  0  0  0
    2.0833    0.7492    0.2277 C   0  0  0  0  0  0  0  0  0  0  0  0
    3.4240    0.3765    0.0918 C   0  0  0  0  0  0  0  0  0  0  0  0
    3.7584   -0.9286   -0.2673 C   0  0  0  0  0  0  0  0  0  0  0  0
    2.7529   -1.8704   -0.4790 C   0  0  0  0  0  0  0  0  0  0  0  0
    1.4109   -1.5054   -0.3461 C   0  0  0  0  0  0  0  0  0  0  0  0
   -1.2068    2.2113   -1.8367 H   0  0  0  0  0  0  0  0  0  0  0  0
    0.5520    2.2588   -1.4347 H   0  0  0  0  0  0  0  0  0  0  0  0
   -0.5480    3.5575   -0.8502 H   0  0  0  0  0  0  0  0  0  0  0  0
   -0.2195    2.1614    1.0865 H   0  0  0  0  0  0  0  0  0  0  0  0
   -1.8423    1.8322    0.4668 H   0  0  0  0  0  0  0  0  0  0  0  0
   -2.3979   -1.5779    2.5174 H   0  0  0  0  0  0  0  0  0  0  0  0
   -3.9338   -1.7505    0.7067 H   0  0  0  0  0  0  0  0  0  0  0  0
   -3.6746    0.0367    0.6848 H   0  0  0  0  0  0  0  0  0  0  0  0
   -3.0746   -1.4789   -1.5061 H   0  0  0  0  0  0  0  0  0  0  0  0
    1.8811    1.7636    0.5342 H   0  0  0  0  0  0  0  0  0  0  0  0
    4.2068    1.1013    0.2752 H   0  0  0  0  0  0  0  0  0  0  0  0
    4.7977   -1.2136   -0.3679 H   0  0  0  0  0  0  0  0  0  0  0  0
    3.0130   -2.8886   -0.7381 H   0  0  0  0  0  0  0  0  0  0  0  0
    0.6534   -2.2657   -0.4902 H   0  0  0  0  0  0  0  0  0  0  0  0
  1  2  1  0
  2  3  1  0
  3  4  1  0
  4  5  2  0
  4  6  1  0
  6  7  1  0
  7  8  1  0
  8  9  1  0
  9  3  1  0
  9 10  2  0
  3 11  1  0
 11 12  2  0
 12 13  1  0
 13 14  2  0
 14 15  1  0
 15 16  2  0
 16 11  1  0
  1 17  1  0
  1 18  1  0
  1 19  1  0
  2 20  1  0
  2 21  1  0
  6 22  1  0
  7 23  1  0
  7 24  1  0
  8 25  1  0
 12 26  1  0
 13 27  1  0
 14 28  1  0
 15 29  1  0
 16 30  1  0
M  END
> <ID>
HT1740

> <Class>
1.0

> <Clusters>
157

> <Fold>
2

$$$$