
     RDKit          3D

 51 54  0  0  0  0  0  0  0  0999 V2000
    2.2063    1.5541    3.7414 C   0  0  0  0  0  0  0  0  0  0  0  0
    2.6851    2.6260    2.3510 S   0  0  0  0  0  0  0  0  0  0  0  0
    3.0235    1.2497    1.2514 C   0  0  0  0  0  0  0  0  0  0  0  0
    4.3138    0.7164    1.1732 C   0  0  0  0  0  0  0  0  0  0  0  0
    4.5810   -0.3421    0.3031 C   0  0  0  0  0  0  0  0  0  0  0  0
    3.5565   -0.8765   -0.4847 C   0  0  0  0  0  0  0  0  0  0  0  0
    3.9445   -2.0904   -1.7436 S   0  0  0  0  0  0  0  0  0  0  0  0
    2.5327   -3.1175   -1.3439 C   0  0  0  0  0  0  0  0  0  0  0  0
    2.6819   -4.5074   -1.2900 C   0  0  0  0  0  0  0  0  0  0  0  0
    1.5632   -5.3234   -1.1140 C   0  0  0  0  0  0  0  0  0  0  0  0
    0.2950   -4.7524   -0.9926 C   0  0  0  0  0  0  0  0  0  0  0  0
    0.1435   -3.3626   -1.0206 C   0  0  0  0  0  0  0  0  0  0  0  0
    1.2637   -2.5258   -1.1820 C   0  0  0  0  0  0  0  0  0  0  0  0
    1.1604   -1.0867   -1.0435 N   0  0  0  0  0  0  0  0  0  0  0  0
    0.0054   -0.3458   -1.5791 C   0  0  0  0  0  0  0  0  0  0  0  0
   -1.1367   -0.2186   -0.5427 C   0  0  0  0  0  0  0  0  0  0  0  0
   -1.8513    1.1624   -0.6003 C   0  0  0  0  0  0  0  0  0  0  0  0
   -2.4247    1.3952   -2.0294 C   0  0  0  0  0  0  0  0  0  0  0  0
   -3.7094    2.2333   -2.0326 C   0  0  0  0  0  0  0  0  0  0  0  0
   -3.6497    3.3077   -0.9536 C   0  0  0  0  0  0  0  0  0  0  0  0
   -3.4620    2.6849    0.4441 C   0  0  0  0  0  0  0  0  0  0  0  0
   -2.9465    1.2924    0.4022 N   0  0  0  0  0  0  0  0  0  0  0  0
   -2.5386    0.8994    1.7655 C   0  0  0  0  0  0  0  0  0  0  0  0
    2.2407   -0.3867   -0.3763 C   0  0  0  0  0  0  0  0  0  0  0  0
    1.9924    0.7047    0.4778 C   0  0  0  0  0  0  0  0  0  0  0  0
    3.0526    0.8929    4.0224 H   0  0  0  0  0  0  0  0  0  0  0  0
    1.9396    2.1873    4.6121 H   0  0  0  0  0  0  0  0  0  0  0  0
    1.3260    0.9381    3.4615 H   0  0  0  0  0  0  0  0  0  0  0  0
    5.1134    1.1334    1.7723 H   0  0  0  0  0  0  0  0  0  0  0  0
    5.5909   -0.7223    0.2163 H   0  0  0  0  0  0  0  0  0  0  0  0
    3.6586   -4.9569   -1.4161 H   0  0  0  0  0  0  0  0  0  0  0  0
    1.6774   -6.3993   -1.0843 H   0  0  0  0  0  0  0  0  0  0  0  0
   -0.5713   -5.3874   -0.8584 H   0  0  0  0  0  0  0  0  0  0  0  0
   -0.8433   -2.9557   -0.8809 H   0  0  0  0  0  0  0  0  0  0  0  0
   -0.3771   -0.8537   -2.4912 H   0  0  0  0  0  0  0  0  0  0  0  0
    0.3518    0.6589   -1.9069 H   0  0  0  0  0  0  0  0  0  0  0  0
   -0.7093   -0.3924    0.4647 H   0  0  0  0  0  0  0  0  0  0  0  0
   -1.8961   -1.0099   -0.7140 H   0  0  0  0  0  0  0  0  0  0  0  0
   -1.0864    1.9483   -0.3982 H   0  0  0  0  0  0  0  0  0  0  0  0
   -2.6555    0.4295   -2.5310 H   0  0  0  0  0  0  0  0  0  0  0  0
   -1.6568    1.9112   -2.6467 H   0  0  0  0  0  0  0  0  0  0  0  0
   -3.8461    2.7068   -3.0289 H   0  0  0  0  0  0  0  0  0  0  0  0
   -4.5862    1.5749   -1.8438 H   0  0  0  0  0  0  0  0  0  0  0  0
   -4.5826    3.9119   -0.9770 H   0  0  0  0  0  0  0  0  0  0  0  0
   -2.8006    3.9922   -1.1738 H   0  0  0  0  0  0  0  0  0  0  0  0
   -2.7816    3.3432    1.0328 H   0  0  0  0  0  0  0  0  0  0  0  0
   -4.4494    2.6803    0.9564 H   0  0  0  0  0  0  0  0  0  0  0  0
   -2.4865   -0.2063    1.8429 H   0  0  0  0  0  0  0  0  0  0  0  0
   -3.2963    1.2174    2.5153 H   0  0  0  0  0  0  0  0  0  0  0  0
   -1.5576    1.3488    2.0384 H   0  0  0  0  0  0  0  0  0  0  0  0
    1.0016    1.1188    0.5773 H   0  0  0  0  0  0  0  0  0  0  0  0
  1  2  1  0
  2  3  1  0
  3  4  2  0
  4  5  1  0
  5  6  2  0
  6  7  1  0
  7  8  1  0
  8  9  2  0
  9 10  1  0
 10 11  2  0
 11 12  1  0
 12 13  2  0
 13  8  1  0
 13 14  1  0
 14 15  1  0
 15 16  1  0
 16 17  1  0
 17 18  1  0
 18 19  1  0
 19 20  1  0
 20 21  1  0
 21 22  1  0
 22 17  1  0
 22 23  1  0
 14 24  1  0
 24  6  1  0
 24 25  2  0
 25  3  1  0
  1 26  1  0
  1 27  1  0
  1 28  1  0
  4 29  1  0
  5 30  1  0
  9 31  1  0
 10 32  1  0
 11 33  1  0
 12 34  1  0
 15 35  1  0
 15 36  1  0
 16 37  1  0
 16 38  1  0
 17 39  1  0
 18 40  1  0
 18 41  1  0
 19 42  1  0
 19 43  1  0
 20 44  1  0
 20 45  1  0
 21 46  1  0
 21 47  1  0
 23 48  1  0
 23 49  1  0
 23 50  1  0
 25 51  1  0
M  END
> <ID>
HT2046

> <Class>
1.0

> <Clusters>
205

> <Fold>
2

$$$$